# Generated by pormake.
# Topology nom, (4,4)-cn, num edge types: 1
# Building blocks:
#     Node 0, Type 0, BuildingBlock: AZAVOO_clean_linker_0, # of connection points: 4
#     Node 1, Type 0, BuildingBlock: AZAVOO_clean_linker_0, # of connection points: 4
#     Node 2, Type 0, BuildingBlock: AZAVOO_clean_linker_0, # of connection points: 4
#     Node 3, Type 0, BuildingBlock: AZAVOO_clean_linker_0, # of connection points: 4
#     Node 4, Type 0, BuildingBlock: AZAVOO_clean_linker_0, # of connection points: 4
#     Node 5, Type 0, BuildingBlock: AZAVOO_clean_linker_0, # of connection points: 4
#     Node 6, Type 1, BuildingBlock: CEKHIL_clean_sbu_0, # of connection points: 4
#     Node 7, Type 1, BuildingBlock: CEKHIL_clean_sbu_0, # of connection points: 4
#     Node 8, Type 1, BuildingBlock: CEKHIL_clean_sbu_0, # of connection points: 4
#     Node 9, Type 1, BuildingBlock: CEKHIL_clean_sbu_0, # of connection points: 4
#     Node 10, Type 1, BuildingBlock: CEKHIL_clean_sbu_0, # of connection points: 4
#     Node 11, Type 1, BuildingBlock: CEKHIL_clean_sbu_0, # of connection points: 4
#     Edge 12, Type (0, 1), BuildingBlock: ZUJKAS_clean_linker_0, # of connection points: 2
#     Edge 13, Type (0, 1), BuildingBlock: ZUJKAS_clean_linker_0, # of connection points: 2
#     Edge 14, Type (0, 1), BuildingBlock: ZUJKAS_clean_linker_0, # of connection points: 2
#     Edge 15, Type (0, 1), BuildingBlock: ZUJKAS_clean_linker_0, # of connection points: 2
#     Edge 16, Type (0, 1), BuildingBlock: ZUJKAS_clean_linker_0, # of connection points: 2
#     Edge 17, Type (0, 1), BuildingBlock: ZUJKAS_clean_linker_0, # of connection points: 2
#     Edge 18, Type (0, 1), BuildingBlock: ZUJKAS_clean_linker_0, # of connection points: 2
#     Edge 19, Type (0, 1), BuildingBlock: ZUJKAS_clean_linker_0, # of connection points: 2
#     Edge 20, Type (0, 1), BuildingBlock: ZUJKAS_clean_linker_0, # of connection points: 2
#     Edge 21, Type (0, 1), BuildingBlock: ZUJKAS_clean_linker_0, # of connection points: 2
#     Edge 22, Type (0, 1), BuildingBlock: ZUJKAS_clean_linker_0, # of connection points: 2
#     Edge 23, Type (0, 1), BuildingBlock: ZUJKAS_clean_linker_0, # of connection points: 2
#     Edge 24, Type (0, 1), BuildingBlock: ZUJKAS_clean_linker_0, # of connection points: 2
#     Edge 25, Type (0, 1), BuildingBlock: ZUJKAS_clean_linker_0, # of connection points: 2
#     Edge 26, Type (0, 1), BuildingBlock: ZUJKAS_clean_linker_0, # of connection points: 2
#     Edge 27, Type (0, 1), BuildingBlock: ZUJKAS_clean_linker_0, # of connection points: 2
#     Edge 28, Type (0, 1), BuildingBlock: ZUJKAS_clean_linker_0, # of connection points: 2
#     Edge 29, Type (0, 1), BuildingBlock: ZUJKAS_clean_linker_0, # of connection points: 2
#     Edge 30, Type (0, 1), BuildingBlock: ZUJKAS_clean_linker_0, # of connection points: 2
#     Edge 31, Type (0, 1), BuildingBlock: ZUJKAS_clean_linker_0, # of connection points: 2
#     Edge 32, Type (0, 1), BuildingBlock: ZUJKAS_clean_linker_0, # of connection points: 2
#     Edge 33, Type (0, 1), BuildingBlock: ZUJKAS_clean_linker_0, # of connection points: 2
#     Edge 34, Type (0, 1), BuildingBlock: ZUJKAS_clean_linker_0, # of connection points: 2
#     Edge 35, Type (0, 1), BuildingBlock: ZUJKAS_clean_linker_0, # of connection points: 2
# Relax obj value: 0.131
# Max RMSD: 0.224
# Mean RMSD: 0.146
data_MOF--net-nom--node1-CEKHIL_clean_sbu_0--node2-AZAVOO_clean_linker_0--edge1-ZUJKAS_clean_linker_0
_symmetry_space_group_name_H-M    P1
_symmetry_Int_Tables_number       1
_symmetry_cell_setting            triclinic
loop_
_symmetry_equiv_pos_as_xyz
'x, y, z'
_cell_length_a     61.117555
_cell_length_b     61.08484
_cell_length_c     74.905648
_cell_angle_alpha  90.030989
_cell_angle_beta   90.016316
_cell_angle_gamma 123.08883
loop_
_atom_site_label
_atom_site_type_symbol
_atom_site_fract_x
_atom_site_fract_y
_atom_site_fract_z
_atom_type_partial_charge
H0 H 0.05243 0.58342 0.20511 0.0
H1 H 0.18047 0.70007 0.38952 0.0
H2 H 0.98984 0.5536 0.30008 0.0
H3 H 0.95848 0.53222 0.27578 0.0
H4 H 0.96399 0.60449 0.26456 0.0
H5 H 0.99474 0.62546 0.28948 0.0
H6 H 0.04665 0.57837 0.28311 0.0
H7 H 0.04965 0.57413 0.25083 0.0
H8 H 0.04694 0.64268 0.24247 0.0
H9 H 0.04405 0.64669 0.27479 0.0
H10 H 0.09419 0.605 0.31051 0.0
H11 H 0.13901 0.62578 0.29947 0.0
H12 H 0.13886 0.69413 0.28467 0.0
H13 H 0.09391 0.67287 0.29535 0.0
H14 H 0.07634 0.59865 0.35003 0.0
H15 H 0.1129 0.61557 0.37095 0.0
H16 H 0.13693 0.6945 0.35742 0.0
H17 H 0.10004 0.67726 0.33672 0.0
H18 H 0.02052 0.57541 0.35995 0.0
H19 H 0.03387 0.57805 0.39104 0.0
H20 H 0.06487 0.66078 0.39125 0.0
H21 H 0.05178 0.65795 0.36005 0.0
H22 H 0.96975 0.55853 0.33043 0.0
H23 H 0.92763 0.54896 0.34125 0.0
H24 H 0.96275 0.63101 0.35269 0.0
H25 H 0.00433 0.64044 0.34099 0.0
O26 O 0.05143 0.58556 0.21783 0.0
O27 O 0.04999 0.6209 0.21426 0.0
O28 O 0.15276 0.6519 0.38772 0.0
O29 O 0.16616 0.69287 0.38108 0.0
C30 C 0.0176 0.60479 0.30835 0.0
C31 C 0.04248 0.61475 0.30072 0.0
C32 C 0.06476 0.62593 0.31167 0.0
C33 C 0.06219 0.62633 0.33032 0.0
C34 C 0.03742 0.61685 0.33799 0.0
C35 C 0.01515 0.60667 0.32698 0.0
C36 C 0.99436 0.59097 0.2966 0.0
C37 C 0.98356 0.56454 0.29277 0.0
C38 C 0.96595 0.5525 0.27871 0.0
C39 C 0.95912 0.56679 0.26799 0.0
C40 C 0.96873 0.5929 0.27259 0.0
C41 C 0.98625 0.6049 0.28683 0.0
C42 C 0.04509 0.61279 0.2812 0.0
C43 C 0.04682 0.59249 0.27426 0.0
C44 C 0.04848 0.5901 0.25583 0.0
C45 C 0.04848 0.60804 0.24406 0.0
C46 C 0.04695 0.62851 0.25115 0.0
C47 C 0.04531 0.63087 0.26958 0.0
C48 C 0.09095 0.63749 0.30368 0.0
C49 C 0.10383 0.62433 0.30467 0.0
C50 C 0.12943 0.63631 0.29849 0.0
C51 C 0.14256 0.66168 0.29128 0.0
C52 C 0.12923 0.67448 0.28993 0.0
C53 C 0.10361 0.66244 0.29607 0.0
C54 C 0.08556 0.63675 0.34194 0.0
C55 C 0.08961 0.61959 0.35156 0.0
C56 C 0.11048 0.6293 0.36349 0.0
C57 C 0.1278 0.65641 0.36589 0.0
C58 C 0.12395 0.67354 0.35591 0.0
C59 C 0.10298 0.66377 0.34403 0.0
C60 C 0.03537 0.61652 0.35773 0.0
C61 C 0.029 0.59382 0.36698 0.0
C62 C 0.03682 0.59542 0.38474 0.0
C63 C 0.05103 0.61977 0.39344 0.0
C64 C 0.05447 0.64186 0.38476 0.0
C65 C 0.04665 0.64023 0.36703 0.0
C66 C 0.98999 0.60021 0.33471 0.0
C67 C 0.96825 0.57441 0.33517 0.0
C68 C 0.94428 0.56897 0.34156 0.0
C69 C 0.94172 0.58925 0.34777 0.0
C70 C 0.96384 0.61498 0.34771 0.0
C71 C 0.98769 0.62039 0.34119 0.0
C72 C 0.05001 0.60532 0.22449 0.0
C73 C 0.14964 0.66681 0.37888 0.0
H74 H 0.59401 0.10711 0.37375 0.0
H75 H 0.55702 0.17803 0.56465 0.0
H76 H 0.56672 0.03175 0.45686 0.0
H77 H 0.55823 0.00152 0.43239 0.0
H78 H 0.47578 0.97105 0.4358 0.0
H79 H 0.48458 0.00176 0.46007 0.0
H80 H 0.59131 0.09231 0.45107 0.0
H81 H 0.60037 0.10252 0.41928 0.0
H82 H 0.51753 0.06318 0.40905 0.0
H83 H 0.50879 0.05338 0.44092 0.0
H84 H 0.59967 0.12814 0.47687 0.0
H85 H 0.61313 0.17312 0.46946 0.0
H86 H 0.53223 0.14705 0.46267 0.0
H87 H 0.51901 0.10222 0.46961 0.0
H88 H 0.58873 0.10578 0.51836 0.0
H89 H 0.59949 0.13867 0.5414 0.0
H90 H 0.52711 0.13308 0.5304 0.0
H91 H 0.51657 0.10009 0.5075 0.0
H92 H 0.56281 0.04834 0.52767 0.0
H93 H 0.56311 0.05367 0.55997 0.0
H94 H 0.49215 0.05302 0.55608 0.0
H95 H 0.49267 0.04865 0.52366 0.0
H96 H 0.53736 0.99607 0.49232 0.0
H97 H 0.50782 0.94956 0.49954 0.0
H98 H 0.44652 0.96264 0.51118 0.0
H99 H 0.47562 0.00844 0.50312 0.0
O100 O 0.59 0.10301 0.38628 0.0
O101 O 0.54721 0.08247 0.38173 0.0
O102 O 0.5904 0.16748 0.5606 0.0
O103 O 0.55345 0.16537 0.55544 0.0
C104 C 0.53209 0.03956 0.47338 0.0
C105 C 0.54402 0.06569 0.4675 0.0
C106 C 0.54976 0.08554 0.47986 0.0
C107 C 0.54481 0.07961 0.49814 0.0
C108 C 0.53249 0.05351 0.50401 0.0
C109 C 0.52537 0.0333 0.49158 0.0
C110 C 0.52627 0.01892 0.4602 0.0
C111 C 0.54679 0.01824 0.45249 0.0
C112 C 0.54189 0.00088 0.43859 0.0
C113 C 0.51635 0.98396 0.43212 0.0
C114 C 0.49569 0.98404 0.44037 0.0
C115 C 0.50063 0.00139 0.4543 0.0
C116 C 0.54943 0.07213 0.44825 0.0
C117 C 0.57518 0.08606 0.44194 0.0
C118 C 0.58028 0.09179 0.42377 0.0
C119 C 0.55967 0.08363 0.41161 0.0
C120 C 0.53385 0.06973 0.41805 0.0
C121 C 0.5288 0.06408 0.43622 0.0
C122 C 0.55842 0.11206 0.47364 0.0
C123 C 0.58497 0.13215 0.47343 0.0
C124 C 0.59258 0.1577 0.46925 0.0
C125 C 0.57364 0.1634 0.46564 0.0
C126 C 0.54713 0.14309 0.46555 0.0
C127 C 0.53959 0.11757 0.46938 0.0
C128 C 0.55197 0.10073 0.51126 0.0
C129 C 0.57536 0.11187 0.52088 0.0
C130 C 0.58139 0.13057 0.53405 0.0
C131 C 0.56412 0.13848 0.53776 0.0
C132 C 0.54083 0.12744 0.52789 0.0
C133 C 0.53481 0.1087 0.51475 0.0
C134 C 0.52771 0.04806 0.52337 0.0
C135 C 0.54678 0.04831 0.5339 0.0
C136 C 0.54691 0.0514 0.55238 0.0
C137 C 0.52785 0.05418 0.56062 0.0
C138 C 0.50739 0.05144 0.55013 0.0
C139 C 0.50741 0.04855 0.53164 0.0
C140 C 0.50866 0.00564 0.49729 0.0
C141 C 0.51756 0.9888 0.49648 0.0
C142 C 0.50069 0.9623 0.50069 0.0
C143 C 0.47471 0.95231 0.50581 0.0
C144 C 0.4662 0.9695 0.50696 0.0
C145 C 0.48293 0.99581 0.50262 0.0
C146 C 0.56514 0.08962 0.39231 0.0
C147 C 0.57022 0.15799 0.55195 0.0
H148 H 0.43598 0.4185 0.76691 0.0
H149 H 0.51152 0.39574 0.57326 0.0
H150 H 0.44782 0.49414 0.68285 0.0
H151 H 0.43082 0.5066 0.7075 0.0
H152 H 0.35228 0.44367 0.69387 0.0
H153 H 0.36979 0.43111 0.66918 0.0
H154 H 0.46785 0.45791 0.69413 0.0
H155 H 0.46221 0.44647 0.72584 0.0
H156 H 0.38043 0.3883 0.71644 0.0
H157 H 0.38645 0.39978 0.6847 0.0
H158 H 0.49429 0.44752 0.66656 0.0
H159 H 0.5105 0.42126 0.67797 0.0
H160 H 0.43299 0.35159 0.67315 0.0
H161 H 0.41696 0.37806 0.6618 0.0
H162 H 0.49987 0.47384 0.62921 0.0
H163 H 0.52636 0.4669 0.60838 0.0
H164 H 0.4622 0.38658 0.60146 0.0
H165 H 0.43581 0.39391 0.62219 0.0
H166 H 0.4743 0.50337 0.6216 0.0
H167 H 0.49552 0.5165 0.59235 0.0
H168 H 0.44072 0.43861 0.57236 0.0
H169 H 0.4194 0.42597 0.60145 0.0
H170 H 0.44138 0.51093 0.64718 0.0
H171 H 0.41907 0.53205 0.63719 0.0
H172 H 0.35741 0.45877 0.61446 0.0
H173 H 0.38029 0.43817 0.6241 0.0
O174 O 0.43784 0.4225 0.75428 0.0
O175 O 0.39592 0.39287 0.74875 0.0
O176 O 0.53485 0.43941 0.58732 0.0
O177 O 0.50158 0.39884 0.58178 0.0
C178 C 0.42131 0.4521 0.66156 0.0
C179 C 0.43096 0.43721 0.66806 0.0
C180 C 0.44468 0.4305 0.65659 0.0
C181 C 0.44944 0.43935 0.63879 0.0
C182 C 0.43916 0.45366 0.63214 0.0
C183 C 0.42471 0.45967 0.64346 0.0
C184 C 0.41001 0.46179 0.6743 0.0
C185 C 0.42689 0.48345 0.68493 0.0
C186 C 0.41709 0.49059 0.69896 0.0
C187 C 0.39016 0.47612 0.70265 0.0
C188 C 0.37312 0.45506 0.69143 0.0
C189 C 0.38301 0.44798 0.67729 0.0
C190 C 0.42758 0.42959 0.68716 0.0
C191 C 0.4488 0.44256 0.69894 0.0
C192 C 0.44549 0.43605 0.71705 0.0
C193 C 0.42086 0.41648 0.72369 0.0
C194 C 0.39966 0.40346 0.71177 0.0
C195 C 0.40302 0.40996 0.69366 0.0
C196 C 0.45451 0.41462 0.66337 0.0
C197 C 0.48087 0.42659 0.66799 0.0
C198 C 0.49002 0.41162 0.67457 0.0
C199 C 0.47297 0.3844 0.67646 0.0
C200 C 0.44657 0.37249 0.6717 0.0
C201 C 0.43739 0.38753 0.6653 0.0
C202 C 0.46596 0.43438 0.62716 0.0
C203 C 0.49164 0.45473 0.62324 0.0
C204 C 0.50671 0.45071 0.61134 0.0
C205 C 0.49637 0.42618 0.60322 0.0
C206 C 0.47073 0.40571 0.60744 0.0
C207 C 0.45566 0.40978 0.61934 0.0
C208 C 0.44546 0.46369 0.61362 0.0
C209 C 0.46614 0.48957 0.61064 0.0
C210 C 0.47843 0.49691 0.594 0.0
C211 C 0.47012 0.47845 0.58015 0.0
C212 C 0.44754 0.45336 0.58268 0.0
C213 C 0.43528 0.44606 0.5993 0.0
C214 C 0.41241 0.47307 0.63634 0.0
C215 C 0.42319 0.49959 0.63988 0.0
C216 C 0.41029 0.51152 0.63428 0.0
C217 C 0.38632 0.49708 0.62509 0.0
C218 C 0.37595 0.47059 0.62127 0.0
C219 C 0.38892 0.45873 0.62683 0.0
C220 C 0.41735 0.40983 0.74297 0.0
C221 C 0.51217 0.42197 0.59033 0.0
H222 H 0.05552 0.61172 0.93913 0.0
H223 H 0.17334 0.60732 0.76016 0.0
H224 H 0.99197 0.58008 0.85387 0.0
H225 H 0.96054 0.56215 0.87843 0.0
H226 H 0.94359 0.48508 0.86665 0.0
H227 H 0.97572 0.50337 0.84253 0.0
H228 H 0.05537 0.61445 0.86106 0.0
H229 H 0.05907 0.62123 0.89341 0.0
H230 H 0.02356 0.53834 0.90131 0.0
H231 H 0.02039 0.53191 0.86896 0.0
H232 H 0.10248 0.62702 0.83166 0.0
H233 H 0.14561 0.63944 0.84291 0.0
H234 H 0.11165 0.56136 0.86371 0.0
H235 H 0.06913 0.5492 0.85239 0.0
H236 H 0.07647 0.61666 0.79143 0.0
H237 H 0.11426 0.63279 0.77178 0.0
H238 H 0.12467 0.57251 0.79148 0.0
H239 H 0.0866 0.55633 0.81084 0.0
H240 H 0.01845 0.58439 0.78009 0.0
H241 H 0.02724 0.58582 0.74805 0.0
H242 H 0.0492 0.53012 0.75586 0.0
H243 H 0.0395 0.52823 0.78758 0.0
H244 H 0.96686 0.55697 0.81358 0.0
H245 H 0.92229 0.52479 0.80347 0.0
H246 H 0.94545 0.47124 0.79052 0.0
H247 H 0.9894 0.50293 0.80138 0.0
O248 O 0.05405 0.60863 0.92638 0.0
O249 O 0.03552 0.56583 0.92971 0.0
O250 O 0.15213 0.63197 0.75812 0.0
O251 O 0.15849 0.60149 0.76792 0.0
C252 C 0.00974 0.55479 0.8349 0.0
C253 C 0.03474 0.5687 0.84301 0.0
C254 C 0.05733 0.57804 0.83252 0.0
C255 C 0.05513 0.57495 0.81381 0.0
C256 C 0.03019 0.56078 0.8057 0.0
C257 C 0.00744 0.55021 0.81626 0.0
C258 C 0.98622 0.54306 0.84648 0.0
C259 C 0.98091 0.55922 0.85629 0.0
C260 C 0.9629 0.54891 0.87029 0.0
C261 C 0.94985 0.52224 0.87465 0.0
C262 C 0.95368 0.50578 0.86382 0.0
C263 C 0.97177 0.51613 0.84988 0.0
C264 C 0.03736 0.57268 0.86268 0.0
C265 C 0.04848 0.59781 0.86981 0.0
C266 C 0.05052 0.60161 0.88829 0.0
C267 C 0.0415 0.58031 0.89995 0.0
C268 C 0.03061 0.55516 0.89271 0.0
C269 C 0.02868 0.55141 0.87424 0.0
C270 C 0.0827 0.58725 0.8413 0.0
C271 C 0.1044 0.61283 0.83893 0.0
C272 C 0.12894 0.61983 0.84528 0.0
C273 C 0.13197 0.60139 0.85424 0.0
C274 C 0.10991 0.57616 0.85718 0.0
C275 C 0.08557 0.56915 0.85071 0.0
C276 C 0.07893 0.58546 0.80263 0.0
C277 C 0.08702 0.60705 0.79153 0.0
C278 C 0.10858 0.6162 0.78031 0.0
C279 C 0.1225 0.60393 0.78007 0.0
C280 C 0.11442 0.58241 0.79135 0.0
C281 C 0.09277 0.57321 0.80249 0.0
C282 C 0.02851 0.55635 0.78612 0.0
C283 C 0.02419 0.57178 0.77471 0.0
C284 C 0.02956 0.5728 0.75647 0.0
C285 C 0.03939 0.55844 0.74942 0.0
C286 C 0.04149 0.5413 0.76073 0.0
C287 C 0.036 0.54021 0.7789 0.0
C288 C 0.98138 0.53232 0.80816 0.0
C289 C 0.96229 0.53836 0.80839 0.0
C290 C 0.93691 0.52001 0.80254 0.0
C291 C 0.93027 0.49535 0.79632 0.0
C292 C 0.94978 0.48984 0.79552 0.0
C293 C 0.97501 0.50808 0.80148 0.0
C294 C 0.04347 0.58438 0.91957 0.0
C295 C 0.14525 0.6134 0.76803 0.0
H296 H 0.55603 0.97478 0.86477 0.0
H297 H 0.5845 0.87623 0.04366 0.0
H298 H 0.57264 0.03366 0.95255 0.0
H299 H 0.57742 0.06544 0.93052 0.0
H300 H 0.6614 0.10712 0.93559 0.0
H301 H 0.65632 0.07463 0.95731 0.0
H302 H 0.55528 0.97674 0.94282 0.0
H303 H 0.54769 0.97095 0.9106 0.0
H304 H 0.63092 0.0209 0.90151 0.0
H305 H 0.63824 0.02627 0.93378 0.0
H306 H 0.54814 0.9406 0.97266 0.0
H307 H 0.53402 0.89701 0.96177 0.0
H308 H 0.61136 0.92759 0.9407 0.0
H309 H 0.62539 0.97113 0.95189 0.0
H310 H 0.55907 0.96237 0.01234 0.0
H311 H 0.54782 0.9258 0.03211 0.0
H312 H 0.61448 0.92599 0.01248 0.0
H313 H 0.62576 0.96289 0.993 0.0
H314 H 0.58119 0.02217 0.01962 0.0
H315 H 0.57593 0.01432 0.05178 0.0
H316 H 0.63762 -0.00028 0.05143 0.0
H317 H 0.64345 0.00869 0.01938 0.0
H318 H 0.59412 0.06285 0.99041 0.0
H319 H 0.61518 0.10738 0.00217 0.0
H320 H 0.68593 0.10909 0.01145 0.0
H321 H 0.66457 0.06452 -3e-05 0.0
O322 O 0.5595 0.97718 0.87746 0.0
O323 O 0.60244 0.00304 0.87351 0.0
O324 O 0.55469 0.89165 0.04578 0.0
O325 O 0.58848 0.89066 0.03595 0.0
C326 C 0.61084 0.03037 0.9679 0.0
C327 C 0.60178 0.0057 0.96018 0.0
C328 C 0.59683 0.98466 0.97108 0.0
C329 C 0.60041 0.98804 0.98972 0.0
C330 C 0.61025 0.0129 0.99741 0.0
C331 C 0.61583 0.03417 0.98645 0.0
C332 C 0.61413 0.05179 0.95643 0.0
C333 C 0.59205 0.04987 0.94907 0.0
C334 C 0.59484 0.06816 0.93657 0.0
C335 C 0.61981 0.08878 0.93122 0.0
C336 C 0.64191 0.09127 0.93924 0.0
C337 C 0.63908 0.07289 0.95175 0.0
C338 C 0.5973 0.00185 0.94061 0.0
C339 C 0.57184 0.98625 0.93384 0.0
C340 C 0.56757 0.98306 0.91543 0.0
C341 C 0.5887 0.99548 0.90347 0.0
C342 C 0.61421 0.01107 0.91034 0.0
C343 C 0.61845 0.01419 0.92876 0.0
C344 C 0.58775 0.95889 0.96307 0.0
C345 C 0.56192 0.93787 0.96554 0.0
C346 C 0.5539 0.91308 0.95925 0.0
C347 C 0.57163 0.90892 0.95041 0.0
C348 C 0.59738 0.93019 0.94762 0.0
C349 C 0.60535 0.95504 0.95386 0.0
C350 C 0.59324 0.96528 0.00128 0.0
C351 C 0.57122 0.95449 0.01236 0.0
C352 C 0.56483 0.93359 0.02361 0.0
C353 C 0.58027 0.92297 0.02388 0.0
C354 C 0.60218 0.9337 0.01261 0.0
C355 C 0.60863 0.95471 0.00143 0.0
C356 C 0.61248 0.01569 0.01714 0.0
C357 C 0.59429 0.01835 0.02661 0.0
C358 C 0.59109 0.01351 0.04494 0.0
C359 C 0.60591 0.00575 0.05406 0.0
C360 C 0.6259 0.00566 0.04483 0.0
C361 C 0.62923 0.01073 0.0265 0.0
C362 C 0.62788 0.06057 0.9943 0.0
C363 C 0.61412 0.07288 0.99506 0.0
C364 C 0.62622 0.09831 0.0017 0.0
C365 C 0.65226 0.1118 0.0077 0.0
C366 C 0.66577 0.09914 0.00717 0.0
C367 C 0.65366 0.07374 0.00055 0.0
C368 C 0.58407 0.99219 0.88391 0.0
C369 C 0.57362 0.90082 0.03588 0.0
H370 H 0.43333 0.41147 0.04928 0.0
H371 H 0.60307 0.45837 0.21047 0.0
H372 H 0.43017 0.46559 0.13348 0.0
H373 H 0.40722 0.47379 0.11027 0.0
H374 H 0.47217 0.55418 0.10717 0.0
H375 H 0.49532 0.54572 0.12997 0.0
H376 H 0.45564 0.43192 0.12559 0.0
H377 H 0.44189 0.41567 0.09511 0.0
H378 H 0.48959 0.49477 0.07517 0.0
H379 H 0.50351 0.51069 0.10567 0.0
H380 H 0.4954 0.42768 0.15188 0.0
H381 H 0.52238 0.41221 0.1406 0.0
H382 H 0.56773 0.48325 0.10984 0.0
H383 H 0.54072 0.49825 0.12101 0.0
H384 H 0.49195 0.45007 0.19182 0.0
H385 H 0.5161 0.43686 0.21004 0.0
H386 H 0.5857 0.48782 0.17911 0.0
H387 H 0.56142 0.50114 0.16119 0.0
H388 H 0.47101 0.48937 0.20013 0.0
H389 H 0.4836 0.49958 0.23155 0.0
H390 H 0.565 0.54315 0.21619 0.0
H391 H 0.55215 0.53379 0.18486 0.0
H392 H 0.4448 0.50746 0.1702 0.0
H393 H 0.44213 0.54396 0.18105 0.0
H394 H 0.52615 0.59515 0.17782 0.0
H395 H 0.5286 0.5589 0.16696 0.0
O396 O 0.43923 0.41829 0.06121 0.0
O397 O 0.46377 0.45935 0.05167 0.0
O398 O 0.55684 0.43764 0.21914 0.0
O399 O 0.59308 0.46329 0.2035 0.0
C400 C 0.48046 0.49842 0.14407 0.0
C401 C 0.48801 0.48226 0.13646 0.0
C402 C 0.50357 0.47605 0.14634 0.0
C403 C 0.51008 0.48442 0.16423 0.0
C404 C 0.5031 0.50105 0.17167 0.0
C405 C 0.48926 0.50897 0.16134 0.0
C406 C 0.46443 0.50504 0.13336 0.0
C407 C 0.43912 0.48514 0.12812 0.0
C408 C 0.42609 0.4898 0.11487 0.0
C409 C 0.43801 0.51456 0.10693 0.0
C410 C 0.46246 0.53499 0.11322 0.0
C411 C 0.47567 0.53022 0.12627 0.0
C412 C 0.48038 0.47248 0.11785 0.0
C413 C 0.4632 0.44567 0.11461 0.0
C414 C 0.45532 0.43647 0.09719 0.0
C415 C 0.46455 0.45394 0.08271 0.0
C416 C 0.48204 0.48079 0.08602 0.0
C417 C 0.48997 0.48995 0.10343 0.0
C418 C 0.51617 0.46409 0.13727 0.0
C419 C 0.51079 0.43953 0.14238 0.0
C420 C 0.52632 0.43085 0.13602 0.0
C421 C 0.54731 0.44657 0.1244 0.0
C422 C 0.55154 0.47046 0.11855 0.0
C423 C 0.53612 0.47911 0.12494 0.0
C424 C 0.52488 0.47639 0.17512 0.0
C425 C 0.51241 0.45834 0.18902 0.0
C426 C 0.52625 0.45084 0.19939 0.0
C427 C 0.55283 0.46124 0.196 0.0
C428 C 0.56525 0.47939 0.18206 0.0
C429 C 0.55142 0.48696 0.17176 0.0
C430 C 0.51069 0.51043 0.19031 0.0
C431 C 0.49153 0.50162 0.20357 0.0
C432 C 0.49877 0.50734 0.22149 0.0
C433 C 0.52531 0.52187 0.2264 0.0
C434 C 0.5444 0.53209 0.21291 0.0
C435 C 0.53713 0.52652 0.19501 0.0
C436 C 0.4869 0.53052 0.1679 0.0
C437 C 0.46256 0.52659 0.17184 0.0
C438 C 0.46109 0.54741 0.178 0.0
C439 C 0.48398 0.57235 0.18043 0.0
C440 C 0.50824 0.57609 0.17641 0.0
C441 C 0.50966 0.55543 0.17015 0.0
C442 C 0.4559 0.44413 0.06424 0.0
C443 C 0.5676 0.45328 0.20695 0.0
Co444 Co 0.63879 0.45505 0.40778 0.0
O445 O 0.66492 0.46091 0.39079 0.0
O446 O 0.66875 0.49065 0.40974 0.0
C447 C 0.63094 0.41663 0.41775 0.0
O448 O 0.61634 0.45573 0.42762 0.0
Co449 Co 0.58188 0.40719 0.40405 0.0
O450 O 0.57788 0.41702 0.42847 0.0
C451 C 0.60037 0.45339 0.38105 0.0
C452 C 0.67907 0.48444 0.39714 0.0
C453 C 0.59413 0.43955 0.43497 0.0
O454 O 0.62213 0.46588 0.38964 0.0
O455 O 0.58267 0.42935 0.38398 0.0
O456 O 0.6504 0.43849 0.42407 0.0
O457 O 0.61827 0.41868 0.40477 0.0
Co458 Co 0.2443 0.65333 0.57128 0.0
O459 O 0.26449 0.64756 0.588 0.0
O460 O 0.23591 0.61792 0.56899 0.0
C461 C 0.27801 0.69205 0.56119 0.0
O462 O 0.22071 0.65264 0.55162 0.0
Co463 Co 0.23921 0.70095 0.5757 0.0
O464 O 0.22391 0.69111 0.55144 0.0
C465 C 0.20866 0.65483 0.59902 0.0
C466 C 0.2533 0.6242 0.5814 0.0
C467 C 0.21578 0.66879 0.54463 0.0
O468 O 0.216 0.64217 0.58975 0.0
O469 O 0.21737 0.67897 0.59636 0.0
O470 O 0.27389 0.67031 0.55486 0.0
O471 O 0.26318 0.68969 0.57432 0.0
Co472 Co 0.6317 0.25069 0.74114 0.0
O473 O 0.62359 0.26715 0.7228 0.0
O474 O 0.59648 0.24229 0.74432 0.0
C475 C 0.67106 0.2863 0.74804 0.0
O476 O 0.63361 0.23152 0.76284 0.0
Co477 Co 0.67885 0.24498 0.73737 0.0
O478 O 0.67267 0.23609 0.76305 0.0
C479 C 0.63066 0.21005 0.71689 0.0
C480 C 0.601 0.25698 0.73044 0.0
C481 C 0.65107 0.2291 0.77051 0.0
O482 O 0.61897 0.21927 0.72523 0.0
O483 O 0.65487 0.21876 0.71907 0.0
O484 O 0.64991 0.28313 0.75472 0.0
O485 O 0.66765 0.26913 0.73634 0.0
Co486 Co 0.39612 0.60245 0.90215 0.0
O487 O 0.38276 0.61597 0.88518 0.0
O488 O 0.35877 0.58415 0.90451 0.0
C489 C 0.42915 0.64153 0.91192 0.0
O490 O 0.40247 0.58442 0.92239 0.0
Co491 Co 0.45099 0.61214 0.89888 0.0
O492 O 0.44501 0.59899 0.92373 0.0
C493 C 0.40941 0.57592 0.87401 0.0
C494 C 0.35992 0.59943 0.89195 0.0
C495 C 0.42211 0.58641 0.93036 0.0
O496 O 0.39249 0.57647 0.88387 0.0
O497 O 0.43401 0.59032 0.87698 0.0
O498 O 0.4057 0.63127 0.9182 0.0
O499 O 0.43157 0.62888 0.89903 0.0
Co500 Co 0.79458 0.41873 0.07546 0.0
O501 O 0.7667 0.40857 0.09214 0.0
O502 O 0.78281 0.44221 0.07361 0.0
C503 C 0.7787 0.37834 0.06472 0.0
O504 O 0.82185 0.43439 0.05565 0.0
Co505 Co 0.83125 0.39889 0.0785 0.0
O506 O 0.84168 0.41254 0.05387 0.0
C507 C 0.83675 0.43854 0.10389 0.0
C508 C 0.76581 0.42786 0.08582 0.0
C509 C 0.83682 0.42882 0.04759 0.0
O510 O 0.82088 0.44134 0.0944 0.0
O511 O 0.84199 0.42134 0.10047 0.0
O512 O 0.77017 0.39229 0.05871 0.0
O513 O 0.79498 0.38833 0.07791 0.0
Co514 Co 0.45583 0.81704 0.23561 0.0
O515 O 0.45125 0.79216 0.21792 0.0
O516 O 0.48194 0.80866 0.23875 0.0
C517 C 0.41342 0.79579 0.24333 0.0
O518 O 0.46551 0.84195 0.25668 0.0
Co519 Co 0.42934 0.84785 0.23113 0.0
O520 O 0.43889 0.85667 0.25657 0.0
C521 C 0.47617 0.86275 0.20986 0.0
C522 C 0.47059 0.79259 0.22544 0.0
C523 C 0.45611 0.85416 0.26409 0.0
O524 O 0.47934 0.84671 0.21886 0.0
O525 O 0.45646 0.86464 0.21191 0.0
O526 O 0.42844 0.78904 0.25013 0.0
O527 O 0.42386 0.81353 0.23108 0.0
H528 H 0.18195 0.66136 0.30835 0.0
H529 H 0.22801 0.6847 0.29988 0.0
H530 H 0.21239 0.71648 0.25388 0.0
H531 H 0.16612 0.69274 0.26198 0.0
H532 H 0.24955 0.6815 0.26547 0.0
H533 H 0.27301 0.78097 0.28193 0.0
H534 H 0.24464 0.75164 0.29076 0.0
H535 H 0.24483 0.76106 0.26805 0.0
C536 C 0.1882 0.67302 0.29629 0.0
C537 C 0.17035 0.6752 0.28584 0.0
C538 C 0.21454 0.68647 0.29157 0.0
C539 C 0.22353 0.7025 0.27641 0.0
C540 C 0.20581 0.7045 0.2658 0.0
H541 H 0.37665 0.80279 0.22892 0.0
H542 H 0.33041 0.77999 0.23698 0.0
C543 C 0.17943 0.69097 0.27046 0.0
C544 C 0.25147 0.71691 0.27163 0.0
H545 H 0.30651 0.77824 0.26868 0.0
C546 C 0.26208 0.70264 0.26618 0.0
C547 C 0.26756 0.74446 0.27254 0.0
C548 C 0.25709 0.76054 0.27875 0.0
C549 C 0.28845 0.71527 0.26138 0.0
C550 C 0.30469 0.74284 0.2625 0.0
C551 C 0.294 0.75711 0.26788 0.0
C552 C 0.33282 0.75723 0.2581 0.0
C553 C 0.29852 0.699 0.25477 0.0
C554 C 0.34957 0.75242 0.2676 0.0
C555 C 0.3759 0.76527 0.26296 0.0
C556 C 0.38598 0.78338 0.24888 0.0
C557 C 0.36939 0.78885 0.23979 0.0
C558 C 0.343 0.77587 0.24437 0.0
H559 H 0.2824 0.67948 0.25003 0.0
H560 H 0.3127 0.70896 0.24371 0.0
H561 H 0.30858 0.69593 0.26588 0.0
H562 H 0.34223 0.7386 0.27854 0.0
H563 H 0.3883 0.76085 0.27031 0.0
H564 H 0.60803 0.19799 0.44103 0.0
H565 H 0.61847 0.24216 0.43499 0.0
H566 H 0.56734 0.23413 0.47784 0.0
H567 H 0.55607 0.18963 0.48333 0.0
H568 H 0.55839 0.25307 0.44989 0.0
H569 H 0.66522 0.30937 0.46053 0.0
H570 H 0.65529 0.28452 0.44391 0.0
H571 H 0.64431 0.2754 0.46663 0.0
C572 C 0.59928 0.20586 0.44922 0.0
C573 C 0.58127 0.19057 0.4626 0.0
C574 C 0.60537 0.23112 0.44587 0.0
C575 C 0.59406 0.24169 0.45617 0.0
C576 C 0.57635 0.22645 0.46974 0.0
H577 H 0.64768 0.40648 0.44857 0.0
H578 H 0.63743 0.36397 0.45926 0.0
C579 C 0.56991 0.20107 0.47286 0.0
C580 C 0.5994 0.26797 0.45217 0.0
H581 H 0.64839 0.33163 0.44523 0.0
C582 C 0.57809 0.27029 0.44906 0.0
C583 C 0.62505 0.29056 0.4514 0.0
C584 C 0.64873 0.28991 0.45599 0.0
C585 C 0.5817 0.29439 0.44476 0.0
C586 C 0.60738 0.31664 0.44286 0.0
C587 C 0.62869 0.3145 0.44645 0.0
C588 C 0.61261 0.3422 0.43681 0.0
C589 C 0.5579 0.29573 0.44257 0.0
C590 C 0.60215 0.3441 0.42063 0.0
C591 C 0.60761 0.36824 0.41468 0.0
C592 C 0.62416 0.39103 0.42458 0.0
C593 C 0.63484 0.3892 0.44069 0.0
C594 C 0.62903 0.36496 0.44678 0.0
H595 H 0.54106 0.28007 0.45029 0.0
H596 H 0.5618 0.3149 0.44698 0.0
H597 H 0.55213 0.29288 0.42829 0.0
H598 H 0.59009 0.32698 0.41243 0.0
H599 H 0.59936 0.36913 0.40211 0.0
H600 H 0.35861 0.48981 0.59432 0.0
H601 H 0.33371 0.50908 0.58652 0.0
H602 H 0.35634 0.55141 0.63628 0.0
H603 H 0.38072 0.53181 0.64444 0.0
H604 H 0.29157 0.50692 0.60757 0.0
H605 H 0.3776 0.60763 0.59632 0.0
H606 H 0.3798 0.57932 0.59613 0.0
H607 H 0.37768 0.59264 0.61695 0.0
C608 C 0.35816 0.50307 0.60368 0.0
C609 C 0.37179 0.50933 0.61999 0.0
C610 C 0.344 0.51412 0.59916 0.0
C611 C 0.34341 0.53181 0.61076 0.0
C612 C 0.35689 0.53807 0.62704 0.0
H613 H 0.28215 0.62925 0.61056 0.0
H614 H 0.30153 0.60442 0.6177 0.0
C615 C 0.37093 0.52695 0.63162 0.0
C616 C 0.32859 0.54369 0.60596 0.0
H617 H 0.33617 0.60211 0.59669 0.0
C618 C 0.30124 0.5277 0.60508 0.0
C619 C 0.34135 0.57077 0.60272 0.0
C620 C 0.37074 0.58864 0.60291 0.0
C621 C 0.2862 0.53828 0.60159 0.0
C622 C 0.29897 0.56546 0.59855 0.0
C623 C 0.32638 0.5813 0.59912 0.0
C624 C 0.28451 0.57822 0.59512 0.0
C625 C 0.25682 0.52041 0.60178 0.0
C626 C 0.268 0.57142 0.58023 0.0
C627 C 0.2566 0.58547 0.57621 0.0
C628 C 0.26189 0.60678 0.58687 0.0
C629 C 0.27776 0.61298 0.60205 0.0
C630 C 0.2889 0.59883 0.60614 0.0
H631 H 0.25019 0.50183 0.60889 0.0
H632 H 0.24783 0.53002 0.60825 0.0
H633 H 0.24956 0.51553 0.58784 0.0
H634 H 0.26472 0.55593 0.57133 0.0
H635 H 0.24466 0.58041 0.56433 0.0
H636 H 0.89512 0.50128 0.77769 0.0
H637 H 0.84984 0.46736 0.77015 0.0
H638 H 0.85879 0.40947 0.79575 0.0
H639 H 0.90348 0.44323 0.80398 0.0
H640 H 0.83117 0.42331 0.74969 0.0
H641 H 0.7924 0.39621 0.81851 0.0
H642 H 0.82361 0.42555 0.81355 0.0
H643 H 0.82052 0.39458 0.81507 0.0
C644 C 0.88731 0.48138 0.78192 0.0
C645 C 0.90291 0.47497 0.79144 0.0
C646 C 0.86152 0.46202 0.77751 0.0
C647 C 0.85086 0.43599 0.78264 0.0
C648 C 0.86645 0.42951 0.79198 0.0
H649 H 0.71824 0.29502 0.73832 0.0
H650 H 0.76161 0.33213 0.7466 0.0
C651 C 0.89214 0.44881 0.79644 0.0
C652 C 0.82369 0.41534 0.7778 0.0
H653 H 0.76586 0.36635 0.7954 0.0
C654 C 0.81679 0.41099 0.75968 0.0
C655 C 0.80488 0.39956 0.79087 0.0
C656 C 0.81061 0.40435 0.81059 0.0
C657 C 0.79179 0.3907 0.75423 0.0
C658 C 0.77344 0.37403 0.76726 0.0
C659 C 0.78008 0.37892 0.78541 0.0
C660 C 0.74721 0.3514 0.76238 0.0
C661 C 0.78521 0.3875 0.73459 0.0
C662 C 0.72476 0.34948 0.76901 0.0
C663 C 0.69998 0.32813 0.76451 0.0
C664 C 0.69725 0.30834 0.75328 0.0
C665 C 0.71975 0.31009 0.74687 0.0
C666 C 0.74453 0.33137 0.75148 0.0
H667 H 0.79821 0.40591 0.72712 0.0
H668 H 0.78787 0.37229 0.72896 0.0
H669 H 0.76463 0.3813 0.73237 0.0
H670 H 0.72641 0.36464 0.77755 0.0
H671 H 0.68298 0.32729 0.76967 0.0
H672 H 0.59817 0.88491 0.95454 0.0
H673 H 0.58311 0.83976 0.94685 0.0
H674 H 0.51116 0.82744 0.92651 0.0
H675 H 0.52629 0.87259 0.93374 0.0
H676 H 0.53874 0.7952 0.96035 0.0
H677 H 0.53371 0.79797 0.88674 0.0
H678 H 0.55198 0.8272 0.90015 0.0
H679 H 0.51724 0.81137 0.8974 0.0
C680 C 0.57938 0.87271 0.94808 0.0
C681 C 0.5634 0.88225 0.9447 0.0
C682 C 0.57077 0.84693 0.9438 0.0
C683 C 0.54621 0.83043 0.9359 0.0
C684 C 0.53041 0.84004 0.93228 0.0
H685 H 0.42837 0.67202 0.93805 0.0
H686 H 0.46218 0.71731 0.94484 0.0
C687 C 0.53894 0.86572 0.93659 0.0
C688 C 0.53604 0.8026 0.93257 0.0
H689 H 0.50687 0.75555 0.90048 0.0
C690 C 0.53223 0.78655 0.94721 0.0
C691 C 0.52805 0.79145 0.91537 0.0
C692 C 0.5332 0.80795 0.89899 0.0
C693 C 0.51889 0.75934 0.94529 0.0
C694 C 0.50884 0.74801 0.92836 0.0
C695 C 0.51435 0.76424 0.9135 0.0
C696 C 0.49022 0.71955 0.92602 0.0
C697 C 0.51512 0.74298 0.96149 0.0
C698 C 0.49473 0.70572 0.91316 0.0
C699 C 0.47528 0.67981 0.90913 0.0
C700 C 0.45096 0.66747 0.91778 0.0
C701 C 0.44692 0.68101 0.93116 0.0
C702 C 0.46633 0.70685 0.93518 0.0
H703 H 0.53112 0.75416 0.97132 0.0
H704 H 0.4965 0.73727 0.96812 0.0
H705 H 0.5143 0.72493 0.95779 0.0
H706 H 0.51298 0.71525 0.90586 0.0
H707 H 0.47893 0.66982 0.89877 0.0
H708 H 0.57107 0.45241 0.09214 0.0
H709 H 0.60763 0.44767 0.08597 0.0
H710 H 0.6034 0.42041 0.13969 0.0
H711 H 0.56739 0.42584 0.14622 0.0
H712 H 0.65671 0.47537 0.11211 0.0
H713 H 0.60714 0.36812 0.10133 0.0
H714 H 0.59128 0.38515 0.09626 0.0
H715 H 0.59591 0.37965 0.11903 0.0
C716 C 0.57777 0.44521 0.10261 0.0
C717 C 0.5664 0.43963 0.1197 0.0
C718 C 0.59856 0.44244 0.09903 0.0
C719 C 0.60807 0.43372 0.11239 0.0
C720 C 0.59609 0.42699 0.1292 0.0
H721 H 0.73218 0.40517 0.11377 0.0
H722 H 0.69501 0.4083 0.12111 0.0
C723 C 0.57541 0.42992 0.13285 0.0
C724 C 0.63182 0.43362 0.1092 0.0
H725 H 0.65313 0.39351 0.10049 0.0
C726 C 0.65604 0.45753 0.10954 0.0
C727 C 0.63066 0.41026 0.10607 0.0
C728 C 0.60491 0.38424 0.10556 0.0
C729 C 0.67938 0.45869 0.10692 0.0
C730 C 0.67828 0.43534 0.1034 0.0
C731 C 0.65394 0.41139 0.10317 0.0
C732 C 0.70205 0.43523 0.09974 0.0
C733 C 0.70495 0.48482 0.10835 0.0
C734 C 0.71852 0.44956 0.08541 0.0
C735 C 0.73998 0.44807 0.08132 0.0
C736 C 0.74504 0.43185 0.09132 0.0
C737 C 0.72877 0.41784 0.10583 0.0
C738 C 0.70749 0.41955 0.11001 0.0
H739 H 0.70288 0.49891 0.11635 0.0
H740 H 0.7203 0.48284 0.11454 0.0
H741 H 0.71156 0.49316 0.09479 0.0
H742 H 0.71435 0.46131 0.07704 0.0
H743 H 0.75201 0.45887 0.06995 0.0
H744 H 0.42313 0.92127 0.49669 0.0
H745 H 0.39184 0.87605 0.5053 0.0
H746 H 0.45322 0.87341 0.53149 0.0
H747 H 0.48452 0.91927 0.52374 0.0
H748 H 0.38844 0.83104 0.49822 0.0
H749 H 0.40024 0.85079 0.57114 0.0
H750 H 0.41382 0.87659 0.55477 0.0
H751 H 0.42992 0.85995 0.55978 0.0
C752 C 0.42998 0.91122 0.50447 0.0
C753 C 0.45627 0.92409 0.50982 0.0
C754 C 0.41209 0.88525 0.50922 0.0
C755 C 0.42008 0.8715 0.51933 0.0
C756 C 0.44652 0.88386 0.52403 0.0
H757 H 0.3168 0.70282 0.53768 0.0
H758 H 0.352 0.74581 0.52705 0.0
C759 C 0.46445 0.90997 0.5194 0.0
C760 C 0.40042 0.84447 0.52521 0.0
H761 H 0.37223 0.80679 0.56227 0.0
C762 C 0.38493 0.82568 0.51222 0.0
C763 C 0.39564 0.83766 0.5435 0.0
C764 C 0.41058 0.85733 0.55813 0.0
C765 C 0.36461 0.80032 0.51701 0.0
C766 C 0.36012 0.79339 0.53529 0.0
C767 C 0.3758 0.81211 0.54826 0.0
C768 C 0.33863 0.76719 0.54137 0.0
C769 C 0.3476 0.78153 0.50248 0.0
C770 C 0.31976 0.76495 0.55327 0.0
C771 C 0.29991 0.74049 0.55957 0.0
C772 C 0.29849 0.71778 0.55404 0.0
C773 C 0.31727 0.71999 0.54204 0.0
C774 C 0.33731 0.74452 0.53588 0.0
H775 H 0.34902 0.79189 0.48992 0.0
H776 H 0.35406 0.76809 0.49956 0.0
H777 H 0.32681 0.76963 0.50667 0.0
H778 H 0.32043 0.78219 0.55771 0.0
H779 H 0.28572 0.7394 0.56881 0.0
H780 H 0.46418 0.33886 0.66268 0.0
H781 H 0.4821 0.31377 0.67312 0.0
H782 H 0.52152 0.36883 0.7161 0.0
H783 H 0.50411 0.39427 0.70546 0.0
H784 H 0.55371 0.35965 0.6994 0.0
H785 H 0.46274 0.26473 0.71457 0.0
H786 H 0.46332 0.27516 0.69209 0.0
H787 H 0.46314 0.29407 0.71048 0.0
C788 C 0.47638 0.34538 0.6745 0.0
C789 C 0.48277 0.3685 0.68327 0.0
C790 C 0.48649 0.33095 0.68052 0.0
C791 C 0.50278 0.33913 0.6956 0.0
C792 C 0.50891 0.36207 0.70449 0.0
H793 H 0.5602 0.2527 0.74896 0.0
H794 H 0.53483 0.27134 0.74058 0.0
C795 C 0.49905 0.37664 0.69837 0.0
C796 C 0.515 0.32491 0.70135 0.0
H797 H 0.50191 0.26474 0.71284 0.0
C798 C 0.54233 0.33893 0.70246 0.0
C799 C 0.50017 0.29795 0.70559 0.0
C800 C 0.47071 0.28216 0.70581 0.0
C801 C 0.55528 0.3267 0.70732 0.0
C802 C 0.54055 0.29946 0.71063 0.0
C803 C 0.51318 0.28551 0.70999 0.0
C804 C 0.55341 0.28536 0.71483 0.0
C805 C 0.58466 0.3432 0.70909 0.0
C806 C 0.57139 0.28606 0.70282 0.0
C807 C 0.58603 0.27572 0.70763 0.0
C808 C 0.5826 0.26402 0.72442 0.0
C809 C 0.56326 0.26162 0.73594 0.0
C810 C 0.5488 0.2723 0.73118 0.0
H811 H 0.59202 0.36412 0.71131 0.0
H812 H 0.59134 0.33639 0.72032 0.0
H813 H 0.59357 0.34184 0.69659 0.0
H814 H 0.57472 0.29538 0.68992 0.0
H815 H 0.60056 0.27754 0.69838 0.0
H816 H 0.17659 0.62665 0.83426 0.0
H817 H 0.21751 0.62957 0.84041 0.0
H818 H 0.18694 0.59139 0.89105 0.0
H819 H 0.14619 0.58883 0.88523 0.0
H820 H 0.25307 0.64943 0.87503 0.0
H821 H 0.20324 0.54413 0.85723 0.0
H822 H 0.19182 0.56419 0.84942 0.0
H823 H 0.18639 0.55322 0.87215 0.0
C824 C 0.17888 0.61958 0.84693 0.0
C825 C 0.15813 0.60732 0.85921 0.0
C826 C 0.20216 0.62113 0.85036 0.0
C827 C 0.20494 0.61039 0.86606 0.0
C828 C 0.18493 0.59954 0.87879 0.0
H829 H 0.31114 0.57136 0.90655 0.0
H830 H 0.27399 0.57466 0.89946 0.0
C831 C 0.16171 0.59805 0.87542 0.0
C832 C 0.22784 0.60864 0.86859 0.0
H833 H 0.24629 0.56507 0.86824 0.0
C834 C 0.25175 0.63109 0.87347 0.0
C835 C 0.22581 0.5846 0.86653 0.0
C836 C 0.20052 0.5601 0.86094 0.0
C837 C 0.27372 0.62997 0.87682 0.0
C838 C 0.27169 0.60587 0.87482 0.0
C839 C 0.24777 0.5835 0.86973 0.0
C840 C 0.29392 0.60322 0.87846 0.0
C841 C 0.29863 0.65438 0.88303 0.0
C842 C 0.31715 0.61763 0.86865 0.0
C843 C 0.33843 0.61585 0.87271 0.0
C844 C 0.33671 0.59941 0.88653 0.0
C845 C 0.31307 0.58422 0.89585 0.0
C846 C 0.29185 0.58611 0.89184 0.0
H847 H 0.29507 0.66924 0.88817 0.0
H848 H 0.30819 0.64983 0.89369 0.0
H849 H 0.31237 0.66313 0.87162 0.0
H850 H 0.3189 0.63044 0.85797 0.0
H851 H 0.35635 0.62766 0.86521 0.0
H852 H 0.68549 0.13424 0.03616 0.0
H853 H 0.70903 0.17991 0.04568 0.0
H854 H 0.67239 0.1969 0.00352 0.0
H855 H 0.64953 0.15148 0.99347 0.0
H856 H 0.72592 0.23281 0.00571 0.0
H857 H 0.67934 0.21634 0.07225 0.0
H858 H 0.69369 0.19778 0.06834 0.0
H859 H 0.66627 0.19152 0.05512 0.0
C860 C 0.6825 0.14771 0.02887 0.0
C861 C 0.66558 0.13921 0.01408 0.0
C862 C 0.69575 0.17373 0.03445 0.0
C863 C 0.69215 0.19167 0.02546 0.0
C864 C 0.67529 0.18328 0.01071 0.0
H865 H 0.74597 0.35402 0.03651 0.0
H866 H 0.72702 0.30907 0.02641 0.0
C867 C 0.66207 0.15729 0.00508 0.0
C868 C 0.7065 0.21937 0.0311 0.0
H869 H 0.71508 0.25929 0.066 0.0
C870 C 0.72352 0.23863 0.01887 0.0
C871 C 0.70335 0.22684 0.04831 0.0
C872 C 0.68451 0.20709 0.06173 0.0
C873 C 0.73764 0.26522 0.02344 0.0
C874 C 0.73439 0.27266 0.04059 0.0
C875 C 0.71758 0.25342 0.05288 0.0
C876 C 0.74742 0.30038 0.04586 0.0
C877 C 0.75611 0.28513 0.00995 0.0
C878 C 0.76508 0.31029 0.06018 0.0
C879 C 0.77595 0.33598 0.06599 0.0
C880 C 0.76904 0.35201 0.05769 0.0
C881 C 0.75169 0.34214 0.04315 0.0
C882 C 0.74094 0.31652 0.03731 0.0
H883 H 0.76126 0.27606 -0.00072 0.0
H884 H 0.74664 0.2943 0.00358 0.0
H885 H 0.77435 0.30079 0.0165 0.0
H886 H 0.77019 0.29803 0.067 0.0
H887 H 0.78924 0.34305 0.07725 0.0
H888 H 0.45071 0.58656 0.16954 0.0
H889 H 0.4512 0.62543 0.17846 0.0
H890 H 0.51504 0.64736 0.21454 0.0
H891 H 0.51474 0.60865 0.20563 0.0
H892 H 0.445 0.64148 0.21169 0.0
H893 H 0.54352 0.71291 0.18412 0.0
H894 H 0.52571 0.67854 0.17876 0.0
H895 H 0.54243 0.69007 0.19977 0.0
C896 C 0.46466 0.59954 0.1795 0.0
C897 C 0.48284 0.59471 0.18677 0.0
C898 C 0.46502 0.62178 0.18452 0.0
C899 C 0.48354 0.63955 0.19687 0.0
C900 C 0.50107 0.63428 0.20463 0.0
H901 H 0.50459 0.78261 0.24168 0.0
H902 H 0.50968 0.74617 0.23518 0.0
C903 C 0.50081 0.61213 0.19957 0.0
C904 C 0.48437 0.66354 0.20164 0.0
H905 H 0.5229 0.73027 0.20013 0.0
C906 C 0.46204 0.66087 0.20918 0.0
C907 C 0.50669 0.68885 0.19839 0.0
C908 C 0.53089 0.69288 0.18968 0.0
C909 C 0.46136 0.68283 0.21351 0.0
C910 C 0.48349 0.70807 0.21002 0.0
C911 C 0.50603 0.71083 0.20281 0.0
C912 C 0.48283 0.73164 0.21287 0.0
C913 C 0.43694 0.67893 0.22174 0.0
C914 C 0.46684 0.73594 0.20206 0.0
C915 C 0.464 0.75665 0.20565 0.0
C916 C 0.47712 0.77348 0.22015 0.0
C917 C 0.49424 0.76997 0.23042 0.0
C918 C 0.49712 0.74917 0.22677 0.0
H919 H 0.42396 0.65887 0.22716 0.0
H920 H 0.44192 0.69324 0.23265 0.0
H921 H 0.42592 0.68208 0.21141 0.0
H922 H 0.45596 0.72279 0.19112 0.0
H923 H 0.45078 0.7589 0.19741 0.0
H924 H 0.92064 0.61836 0.34195 0.0
H925 H 0.87822 0.60897 0.35175 0.0
H926 H 0.86148 0.53752 0.37625 0.0
H927 H 0.90437 0.5474 0.36733 0.0
H928 H 0.83093 0.56913 0.34266 0.0
H929 H 0.84156 0.56792 0.41581 0.0
H930 H 0.86905 0.58084 0.40083 0.0
H931 H 0.84855 0.54622 0.405 0.0
C932 C 0.9082 0.60093 0.34978 0.0
C933 C 0.91603 0.58371 0.35394 0.0
C934 C 0.88386 0.59551 0.35526 0.0
C935 C 0.86686 0.5728 0.36502 0.0
C936 C 0.87454 0.55551 0.36913 0.0
H937 H 0.70338 0.476 0.37025 0.0
H938 H 0.74931 0.50241 0.36216 0.0
C939 C 0.89893 0.56099 0.36377 0.0
C940 C 0.8404 0.56623 0.36992 0.0
H941 H 0.79734 0.54536 0.40459 0.0
C942 C 0.82372 0.56436 0.35626 0.0
C943 C 0.83113 0.56061 0.38771 0.0
C944 C 0.84863 0.56429 0.40319 0.0
C945 C 0.79757 0.55542 0.35974 0.0
C946 C 0.78771 0.54758 0.37726 0.0
C947 C 0.8048 0.55106 0.39111 0.0
C948 C 0.75936 0.53324 0.38117 0.0
C949 C 0.78069 0.55408 0.34453 0.0
C950 C 0.74967 0.54162 0.39473 0.0
C951 C 0.72324 0.52632 0.39955 0.0
C952 C 0.70624 0.50233 0.39097 0.0
C953 C 0.71592 0.49441 0.3771 0.0
C954 C 0.7422 0.50962 0.37233 0.0
H955 H 0.79255 0.56906 0.33423 0.0
H956 H 0.77124 0.53462 0.33804 0.0
H957 H 0.7652 0.55694 0.34926 0.0
H958 H 0.76265 0.55969 0.40182 0.0
H959 H 0.71635 0.53286 0.41033 0.0
H960 H 0.0338 0.58797 0.42308 0.0
H961 H 0.05955 0.59157 0.44941 0.0
H962 H 0.12664 0.66143 0.42763 0.0
H963 H 0.10136 0.65779 0.4013 0.0
H964 H 0.13645 0.62322 0.44015 0.0
H965 H 0.0847 0.64661 0.49015 0.0
H966 H 0.06479 0.61814 0.47651 0.0
H967 H 0.08205 0.64993 0.46643 0.0
C968 C 0.05399 0.60417 0.42399 0.0
C969 C 0.06543 0.62278 0.41021 0.0
C970 C 0.06862 0.60625 0.43904 0.0
C971 C 0.09492 0.62688 0.4405 0.0
C972 C 0.10634 0.64544 0.42679 0.0
H973 H 0.2035 0.69867 0.52545 0.0
H974 H 0.17353 0.68547 0.50036 0.0
C975 C 0.09175 0.64347 0.41184 0.0
C976 C 0.11091 0.62923 0.45615 0.0
H977 H 0.11965 0.64418 0.50056 0.0
C978 C 0.13268 0.62754 0.45342 0.0
C979 C 0.10594 0.635 0.47337 0.0
C980 C 0.08323 0.63774 0.4769 0.0
C981 C 0.14998 0.63205 0.46741 0.0
C982 C 0.14522 0.63821 0.48457 0.0
C983 C 0.12312 0.63931 0.48738 0.0
C984 C 0.16407 0.64583 0.49943 0.0
C985 C 0.17377 0.63126 0.4636 0.0
C986 C 0.16888 0.62791 0.50717 0.0
C987 C 0.18616 0.63541 0.52161 0.0
C988 C 0.1988 0.66093 0.52858 0.0
C989 C 0.19412 0.67884 0.52054 0.0
C990 C 0.17692 0.67133 0.50618 0.0
H991 H 0.17684 0.63043 0.44905 0.0
H992 H 0.19152 0.64869 0.46934 0.0
H993 H 0.17138 0.61366 0.46994 0.0
H994 H 0.15892 0.60804 0.50226 0.0
H995 H 0.1892 0.62109 0.52751 0.0
H996 H 0.54528 0.03972 0.58935 0.0
H997 H 0.55794 0.06071 0.61878 0.0
H998 H 0.53131 0.11051 0.60385 0.0
H999 H 0.51952 0.09052 0.57429 0.0
H1000 H 0.5949 0.12445 0.61837 0.0
H1001 H 0.50326 0.07651 0.65839 0.0
H1002 H 0.50888 0.05901 0.64144 0.0
H1003 H 0.50217 0.08301 0.63501 0.0
C1004 C 0.54182 0.05492 0.5924 0.0
C1005 C 0.53137 0.0634 0.57942 0.0
C1006 C 0.54889 0.06673 0.60924 0.0
C1007 C 0.54531 0.08693 0.61344 0.0
C1008 C 0.53382 0.09464 0.60089 0.0
H1009 H 0.58604 0.19736 0.6991 0.0
H1010 H 0.56454 0.16564 0.67484 0.0
C1011 C 0.52695 0.08303 0.58402 0.0
C1012 C 0.55654 0.10229 0.62995 0.0
H1013 H 0.54091 0.11286 0.67139 0.0
C1014 C 0.58323 0.12182 0.63007 0.0
C1015 C 0.54102 0.09895 0.64492 0.0
C1016 C 0.5122 0.07821 0.64513 0.0
C1017 C 0.59488 0.13856 0.64474 0.0
C1018 C 0.57949 0.13508 0.65994 0.0
C1019 C 0.55271 0.11537 0.65981 0.0
C1020 C 0.59084 0.15228 0.67581 0.0
C1021 C 0.62333 0.16043 0.64349 0.0
C1022 C 0.61218 0.15466 0.6848 0.0
C1023 C 0.62472 0.17301 0.69844 0.0
C1024 C 0.61579 0.18895 0.70364 0.0
C1025 C 0.59342 0.18541 0.69537 0.0
C1026 C 0.5811 0.16729 0.68152 0.0
H1027 H 0.63008 0.16486 0.62941 0.0
H1028 H 0.62695 0.17857 0.64982 0.0
H1029 H 0.63534 0.15454 0.65049 0.0
H1030 H 0.61954 0.14273 0.68098 0.0
H1031 H 0.64164 0.17494 0.70476 0.0
H1032 H 0.40504 0.52384 0.71632 0.0
H1033 H 0.39687 0.53306 0.74642 0.0
H1034 H 0.345 0.45046 0.75638 0.0
H1035 H 0.3541 0.44101 0.72654 0.0
H1036 H 0.35458 0.52193 0.76671 0.0
H1037 H 0.40164 0.47234 0.7936 0.0
H1038 H 0.40211 0.47927 0.77017 0.0
H1039 H 0.37302 0.45245 0.78018 0.0
C1040 C 0.39171 0.50763 0.72486 0.0
C1041 C 0.38065 0.4817 0.71918 0.0
C1042 C 0.38689 0.51292 0.74201 0.0
C1043 C 0.37083 0.49242 0.75377 0.0
C1044 C 0.35792 0.46654 0.74763 0.0
H1045 H 0.35898 0.54294 0.86213 0.0
H1046 H 0.34477 0.51814 0.83415 0.0
C1047 C 0.3629 0.4612 0.73049 0.0
C1048 C 0.36996 0.49842 0.77282 0.0
H1049 H 0.391 0.494 0.81409 0.0
C1050 C 0.36213 0.51551 0.77716 0.0
C1051 C 0.38009 0.49017 0.78636 0.0
C1052 C 0.3899 0.47272 0.78242 0.0
C1053 C 0.36526 0.52555 0.79451 0.0
C1054 C 0.37603 0.51782 0.80791 0.0
C1055 C 0.38263 0.49974 0.80377 0.0
C1056 C 0.38378 0.53077 0.82559 0.0
C1057 C 0.35857 0.54557 0.79806 0.0
C1058 C 0.41026 0.5452 0.83036 0.0
C1059 C 0.41842 0.55912 0.84636 0.0
C1060 C 0.40024 0.55895 0.85796 0.0
C1061 C 0.37354 0.54365 0.85346 0.0
C1062 C 0.36537 0.5296 0.83743 0.0
H1063 H 0.35491 0.55281 0.78553 0.0
H1064 H 0.34065 0.53662 0.80635 0.0
H1065 H 0.37458 0.56252 0.8055 0.0
H1066 H 0.42478 0.5463 0.82144 0.0
H1067 H 0.43912 0.57056 0.84937 0.0
H1068 H 0.95095 0.48948 0.89874 0.0
H1069 H 0.92942 0.47588 0.92772 0.0
H1070 H 0.89453 0.52006 0.91855 0.0
H1071 H 0.91555 0.5333 0.88914 0.0
H1072 H 0.93723 0.51123 0.95555 0.0
H1073 H 0.83272 0.4476 0.93566 0.0
H1074 H 0.85909 0.45599 0.92041 0.0
H1075 H 0.85128 0.4796 0.92577 0.0
C1076 C 0.93817 0.49579 0.90263 0.0
C1077 C 0.93477 0.51229 0.89154 0.0
C1078 C 0.92608 0.48819 0.91929 0.0
C1079 C 0.91026 0.49681 0.92521 0.0
C1080 C 0.9064 0.51292 0.91411 0.0
H1081 H 0.82822 0.46139 0.0279 0.0
H1082 H 0.84646 0.48051 0.99861 0.0
C1083 C 0.91857 0.52061 0.89739 0.0
C1084 C 0.89909 0.48992 0.94343 0.0
H1085 H 0.84193 0.45349 0.96649 0.0
C1086 C 0.91639 0.49872 0.95796 0.0
C1087 C 0.8719 0.47381 0.94651 0.0
C1088 C 0.85257 0.46349 0.93131 0.0
C1089 C 0.90725 0.49142 0.9755 0.0
C1090 C 0.88012 0.4745 0.97855 0.0
C1091 C 0.86273 0.46642 0.96409 0.0
C1092 C 0.8696 0.46365 0.99649 0.0
C1093 C 0.92673 0.50181 0.99062 0.0
C1094 C 0.87645 0.44771 0.0049 0.0
C1095 C 0.86612 0.43677 0.02159 0.0
C1096 C 0.84859 0.44145 0.03021 0.0
C1097 C 0.84178 0.45749 0.02172 0.0
C1098 C 0.85211 0.46839 0.00496 0.0
H1099 H 0.94533 0.52006 0.98678 0.0
H1100 H 0.91878 0.50578 0.00264 0.0
H1101 H 0.93122 0.48704 0.99421 0.0
H1102 H 0.88954 0.44341 0.99843 0.0
H1103 H 0.87173 0.42443 0.02763 0.0
H1104 H 0.55667 0.97231 0.06646 0.0
H1105 H 0.54334 0.95096 0.09546 0.0
H1106 H 0.62398 0.99036 0.11164 0.0
H1107 H 0.63762 0.01257 0.08257 0.0
H1108 H 0.55884 0.91788 0.10993 0.0
H1109 H 0.58681 0.0037 0.15314 0.0
H1110 H 0.58281 0.00432 0.12929 0.0
H1111 H 0.61096 0.006 0.13811 0.0
C1112 C 0.57163 0.977 0.0763 0.0
C1113 C 0.59822 0.99447 0.07229 0.0
C1114 C 0.56396 0.96452 0.0928 0.0
C1115 C 0.58265 0.96917 0.10569 0.0
C1116 C 0.60925 0.98672 0.1019 0.0
H1117 H 0.51934 0.86302 0.19887 0.0
H1118 H 0.55031 0.8899 0.17526 0.0
C1119 C 0.617 -0.00073 0.08529 0.0
C1120 C 0.57378 0.95491 0.12284 0.0
H1121 H 0.56365 0.9623 0.16662 0.0
C1122 C 0.56027 0.92755 0.12244 0.0
C1123 C 0.57571 0.9677 0.13905 0.0
C1124 C 0.58972 0.99704 0.14007 0.0
C1125 C 0.54742 0.91249 0.13761 0.0
C1126 C 0.54842 0.92523 0.15366 0.0
C1127 C 0.56305 0.95265 0.1543 0.0
C1128 C 0.53154 0.91046 0.16906 0.0
C1129 C 0.5315 0.88308 0.13605 0.0
C1130 C 0.51124 0.91366 0.17368 0.0
C1131 C 0.49363 0.89847 0.18711 0.0
C1132 C 0.49595 0.87973 0.19629 0.0
C1133 C 0.51687 0.87714 0.19201 0.0
C1134 C 0.53454 0.89242 0.1785 0.0
H1135 H 0.52964 0.87644 0.122 0.0
H1136 H 0.54104 0.87509 0.14386 0.0
H1137 H 0.51161 0.87474 0.1416 0.0
H1138 H 0.50858 0.92747 0.16654 0.0
H1139 H 0.47793 0.90121 0.19008 0.0
H1140 H 0.5663 0.56388 0.244 0.0
H1141 H 0.58297 0.56376 0.27378 0.0
H1142 H 0.51891 0.48391 0.28126 0.0
H1143 H 0.50242 0.48363 0.25163 0.0
H1144 H 0.53287 0.51766 0.31243 0.0
H1145 H 0.61714 0.52099 0.28053 0.0
H1146 H 0.61168 0.5463 0.27501 0.0
H1147 H 0.58863 0.51336 0.26793 0.0
C1148 C 0.55564 0.5464 0.25209 0.0
C1149 C 0.53313 0.5237 0.24538 0.0
C1150 C 0.56515 0.54641 0.26908 0.0
C1151 C 0.5523 0.52373 0.27956 0.0
C1152 C 0.52903 0.50163 0.27336 0.0
H1153 H 0.55541 0.43506 0.36207 0.0
H1154 H 0.54658 0.45792 0.33954 0.0
C1155 C 0.51956 0.50157 0.25642 0.0
C1156 C 0.56398 0.5217 0.29624 0.0
H1157 H 0.61055 0.51156 0.31103 0.0
C1158 C 0.55017 0.51685 0.31225 0.0
C1159 C 0.58662 0.52081 0.29592 0.0
C1160 C 0.60192 0.5255 0.27896 0.0
C1161 C 0.55765 0.50977 0.32778 0.0
C1162 C 0.57914 0.50699 0.32711 0.0
C1163 C 0.59402 0.51362 0.31145 0.0
C1164 C 0.58446 0.49412 0.34162 0.0
C1165 C 0.54198 0.50452 0.34461 0.0
C1166 C 0.609 0.50667 0.34994 0.0
C1167 C 0.61425 0.49354 0.36281 0.0
C1168 C 0.59512 0.46752 0.3674 0.0
C1169 C 0.57062 0.45507 0.35893 0.0
C1170 C 0.5654 0.46821 0.34616 0.0
H1171 H 0.5326 0.5158 0.34481 0.0
H1172 H 0.52625 0.48345 0.34521 0.0
H1173 H 0.55439 0.50955 0.35669 0.0
H1174 H 0.62407 0.52657 0.34641 0.0
H1175 H 0.63335 0.50372 0.36903 0.0
H1176 H 0.53701 0.95499 0.42392 0.0
H1177 H 0.53169 0.93147 0.39598 0.0
H1178 H 0.47985 0.95312 0.37607 0.0
H1179 H 0.48535 0.97692 0.40367 0.0
H1180 H 0.48313 0.88965 0.3784 0.0
H1181 H 0.53958 0.98021 0.3382 0.0
H1182 H 0.5418 0.98003 0.36225 0.0
H1183 H 0.51463 0.97877 0.35183 0.0
C1184 C 0.52446 0.95468 0.41358 0.0
C1185 C 0.51163 0.96784 0.41598 0.0
C1186 C 0.52138 0.94118 0.39769 0.0
C1187 C 0.50567 0.9409 0.38394 0.0
C1188 C 0.4923 0.95339 0.38649 0.0
H1189 H 0.44346 0.88441 0.28235 0.0
H1190 H 0.45865 0.90425 0.31163 0.0
C1191 C 0.49526 0.96675 0.40234 0.0
C1192 C 0.50335 0.92801 0.36668 0.0
H1193 H 0.51278 0.9404 0.322 0.0
C1194 C 0.49 0.90067 0.36606 0.0
C1195 C 0.51256 0.94257 0.35069 0.0
C1196 C 0.52817 0.97204 0.35071 0.0
C1197 C 0.48412 0.88739 0.34966 0.0
C1198 C 0.49209 0.90194 0.33362 0.0
C1199 C 0.50662 0.92932 0.33435 0.0
C1200 C 0.48311 0.88926 0.31595 0.0
C1201 C 0.46821 0.85792 0.3495 0.0
C1202 C 0.49198 0.8743 0.30863 0.0
C1203 C 0.48334 0.86285 0.29173 0.0
C1204 C 0.4657 0.86622 0.28194 0.0
C1205 C 0.45699 0.8813 0.28943 0.0
C1206 C 0.46567 0.89273 0.3062 0.0
H1207 H 0.46105 0.84955 0.36302 0.0
H1208 H 0.45118 0.85041 0.34043 0.0
H1209 H 0.48039 0.85092 0.34438 0.0
H1210 H 0.5057 0.87167 0.31591 0.0
H1211 H 0.49044 0.85138 0.28637 0.0
H1212 H 0.45532 0.46507 0.54519 0.0
H1213 H 0.48235 0.46586 0.52074 0.0
H1214 H 0.55 0.5042 0.55502 0.0
H1215 H 0.52308 0.50274 0.57964 0.0
H1216 H 0.52979 0.50579 0.50354 0.0
H1217 H 0.54101 0.43416 0.54149 0.0
H1218 H 0.51756 0.44204 0.54765 0.0
H1219 H 0.55152 0.46427 0.55285 0.0
C1220 C 0.47602 0.47401 0.54743 0.0
C1221 C 0.487 0.48369 0.56438 0.0
C1222 C 0.49145 0.47456 0.53344 0.0
C1223 C 0.51805 0.48471 0.5362 0.0
C1224 C 0.52943 0.49601 0.55271 0.0
H1225 H 0.61879 0.48831 0.45037 0.0
H1226 H 0.60333 0.50198 0.47557 0.0
C1227 C 0.51404 0.49542 0.56671 0.0
C1228 C 0.53315 0.48119 0.52237 0.0
H1229 H 0.56125 0.44708 0.51335 0.0
C1230 C 0.53694 0.49319 0.50569 0.0
C1231 C 0.54215 0.46448 0.52524 0.0
C1232 C 0.53773 0.45029 0.5427 0.0
C1233 C 0.54917 0.48857 0.49166 0.0
C1234 C 0.55799 0.47172 0.49451 0.0
C1235 C 0.55464 0.46015 0.5113 0.0
C1236 C 0.56833 0.46372 0.47981 0.0
C1237 C 0.55161 0.50085 0.47368 0.0
C1238 C 0.55417 0.43757 0.47425 0.0
C1239 C 0.56293 0.42967 0.45999 0.0
C1240 C 0.58617 0.44777 0.451 0.0
C1241 C 0.60079 0.47387 0.45696 0.0
C1242 C 0.59191 0.48178 0.47126 0.0
H1243 H 0.53998 0.50982 0.4729 0.0
H1244 H 0.57239 0.51634 0.4712 0.0
H1245 H 0.5451 0.48606 0.4629 0.0
H1246 H 0.53598 0.42332 0.48075 0.0
H1247 H 0.55122 0.4094 0.45587 0.0
H1248 H 0.03661 0.52332 0.72497 0.0
H1249 H 0.06054 0.53337 0.69672 0.0
H1250 H 0.09135 0.61521 0.70424 0.0
H1251 H 0.06821 0.60558 0.73257 0.0
H1252 H 0.07185 0.59312 0.66776 0.0
H1253 H 0.14298 0.57275 0.69682 0.0
H1254 H 0.10867 0.54838 0.6994 0.0
H1255 H 0.12288 0.57916 0.71065 0.0
C1256 C 0.04836 0.54344 0.72056 0.0
C1257 C 0.0505 0.56364 0.73108 0.0
C1258 C 0.06196 0.54912 0.70442 0.0
C1259 C 0.07786 0.57504 0.69855 0.0
C1260 C 0.07911 0.59507 0.70857 0.0
H1261 H 0.18941 0.67527 0.62184 0.0
H1262 H 0.15577 0.65258 0.64446 0.0
C1263 C 0.06567 0.58947 0.72471 0.0
C1264 C 0.09436 0.58176 0.68246 0.0
H1265 H 0.15106 0.58957 0.66769 0.0
C1266 C 0.08899 0.59206 0.66762 0.0
C1267 C 0.11661 0.5802 0.68234 0.0
C1268 C 0.12337 0.56966 0.69815 0.0
C1269 C 0.10573 0.60151 0.65279 0.0
C1270 C 0.12872 0.6012 0.65305 0.0
C1271 C 0.13347 0.58984 0.66757 0.0
C1272 C 0.14911 0.61458 0.63914 0.0
C1273 C 0.09878 0.61201 0.63708 0.0
C1274 C 0.15724 0.60091 0.62902 0.0
C1275 C 0.17677 0.61392 0.61607 0.0
C1276 C 0.1886 0.64087 0.61312 0.0
C1277 C 0.18066 0.65449 0.62358 0.0
C1278 C 0.16124 0.64151 0.63647 0.0
H1279 H 0.07739 0.60331 0.63636 0.0
H1280 H 0.10857 0.63347 0.63857 0.0
H1281 H 0.10528 0.60809 0.62431 0.0
H1282 H 0.14831 0.58015 0.63104 0.0
H1283 H 0.18243 0.60282 0.60831 0.0
H1284 H 0.59111 0.11034 0.92495 0.0
H1285 H 0.59291 0.13508 0.8986 0.0
H1286 H 0.65686 0.13186 0.87777 0.0
H1287 H 0.65467 0.10649 0.90366 0.0
H1288 H 0.63399 0.183 0.88373 0.0
H1289 H 0.60191 0.09954 0.83781 0.0
H1290 H 0.59883 0.09574 0.86176 0.0
H1291 H 0.62966 0.10721 0.85112 0.0
C1292 C 0.60554 0.11489 0.91474 0.0
C1293 C 0.62263 0.10627 0.91636 0.0
C1294 C 0.60662 0.12913 0.89976 0.0
C1295 C 0.62468 0.13484 0.88611 0.0
C1296 C 0.64245 0.12723 0.88803 0.0
H1297 H 0.6824 0.21886 0.78981 0.0
H1298 H 0.67316 0.19661 0.81843 0.0
C1299 C 0.64139 0.113 0.90295 0.0
C1300 C 0.62472 0.14821 0.8696 0.0
H1301 H 0.62013 0.14148 0.82426 0.0
C1302 C 0.63059 0.17383 0.87074 0.0
C1303 C 0.61996 0.13605 0.8527 0.0
C1304 C 0.61197 0.10802 0.85073 0.0
C1305 C 0.63318 0.18808 0.85526 0.0
C1306 C 0.62972 0.17632 0.83838 0.0
C1307 C 0.62285 0.15041 0.83728 0.0
C1308 C 0.63538 0.19122 0.82163 0.0
C1309 C 0.64063 0.21594 0.8569 0.0
C1310 C 0.61712 0.1956 0.81403 0.0
C1311 C 0.62225 0.20828 0.79751 0.0
C1312 C 0.64573 0.21673 0.7884 0.0
C1313 C 0.66409 0.21263 0.79635 0.0
C1314 C 0.6589 0.19993 0.81275 0.0
H1315 H 0.64304 0.22244 0.87102 0.0
H1316 H 0.6592 0.2291 0.84965 0.0
H1317 H 0.62537 0.21793 0.85058 0.0
H1318 H 0.59878 0.18882 0.82072 0.0
H1319 H 0.6077 0.21114 0.7918 0.0
H1320 H 0.43029 0.55371 0.09957 0.0
H1321 H 0.41834 0.56317 0.07067 0.0
H1322 H 0.411 0.49431 0.0483 0.0
H1323 H 0.42202 0.48443 0.07718 0.0
H1324 H 0.4467 0.57523 0.0422 0.0
H1325 H 0.34948 0.48908 0.0255 0.0
H1326 H 0.36285 0.49483 0.04777 0.0
H1327 H 0.37134 0.47922 0.03123 0.0
C1328 C 0.4254 0.54028 0.08856 0.0
C1329 C 0.42687 0.51828 0.09058 0.0
C1330 C 0.41858 0.54566 0.07209 0.0
C1331 C 0.4134 0.52926 0.05734 0.0
C1332 C 0.41404 0.5068 0.05956 0.0
H1333 H 0.45554 0.57838 0.94911 0.0
H1334 H 0.45112 0.56376 0.97999 0.0
C1335 C 0.42048 0.50123 0.07607 0.0
C1336 C 0.41095 0.53741 0.03919 0.0
H1337 H 0.37625 0.51493 0.00034 0.0
C1338 C 0.43102 0.56218 0.03318 0.0
C1339 C 0.39036 0.52057 0.02742 0.0
C1340 C 0.36717 0.49457 0.0334 0.0
C1341 C 0.43172 0.57009 0.01553 0.0
C1342 C 0.41228 0.55244 0.00339 0.0
C1343 C 0.39147 0.5282 0.00958 0.0
C1344 C 0.41362 0.5588 0.98419 0.0
C1345 C 0.45336 0.59731 0.01009 0.0
C1346 C 0.39334 0.55947 0.97603 0.0
C1347 C 0.39562 0.56744 0.95827 0.0
C1348 C 0.41827 0.57495 0.94839 0.0
C1349 C 0.438 0.57307 0.9564 0.0
C1350 C 0.43557 0.56487 0.97408 0.0
H1351 H 0.46135 0.61068 0.02177 0.0
H1352 H 0.46955 0.59657 0.00411 0.0
H1353 H 0.44645 0.60564 9e-05 0.0
H1354 H 0.37613 0.55463 0.98357 0.0
H1355 H 0.38004 0.56863 0.95251 0.0
H1356 H 0.91993 0.57105 0.25385 0.0
H1357 H 0.89555 0.55145 0.22601 0.0
H1358 H 0.94001 0.51694 0.2166 0.0
H1359 H 0.96466 0.53669 0.24396 0.0
H1360 H 0.91699 0.55673 0.18938 0.0
H1361 H 0.86148 0.45495 0.21479 0.0
H1362 H 0.87678 0.48307 0.22939 0.0
H1363 H 0.896 0.47252 0.21897 0.0
C1364 C 0.92454 0.55935 0.2458 0.0
C1365 C 0.94393 0.55505 0.25129 0.0
C1366 C 0.91058 0.54816 0.22995 0.0
C1367 C 0.91574 0.53243 0.21946 0.0
C1368 C 0.93539 0.52858 0.22473 0.0
H1369 H 0.87506 0.44229 0.12509 0.0
H1370 H 0.89265 0.46692 0.15273 0.0
C1371 C 0.94935 0.53976 0.24044 0.0
C1372 C 0.9009 0.51994 0.20288 0.0
H1373 H 0.86263 0.46022 0.18317 0.0
C1374 C 0.90472 0.53565 0.18803 0.0
C1375 C 0.88491 0.49246 0.20125 0.0
C1376 C 0.8793 0.47471 0.21698 0.0
C1377 C 0.8941 0.52448 0.17126 0.0
C1378 C 0.87906 0.49695 0.16948 0.0
C1379 C 0.87433 0.48132 0.18455 0.0
C1380 C 0.86941 0.48378 0.15196 0.0
C1381 C 0.90008 0.54213 0.15542 0.0
C1382 C 0.85064 0.48529 0.14224 0.0
C1383 C 0.84052 0.47122 0.12631 0.0
C1384 C 0.84887 0.45524 0.11993 0.0
C1385 C 0.86806 0.45427 0.12959 0.0
C1386 C 0.87817 0.46834 0.14542 0.0
H1387 H 0.91581 0.56272 0.15837 0.0
H1388 H 0.90603 0.53531 0.14377 0.0
H1389 H 0.88225 0.54162 0.15164 0.0
H1390 H 0.84332 0.49677 0.1472 0.0
H1391 H 0.82565 0.47231 0.11928 0.0
loop_
_geom_bond_atom_site_label_1
_geom_bond_atom_site_label_2
_geom_bond_distance
_geom_bond_site_symmetry_2
_ccdc_geom_bond_type
H0 O26 0.856 . S
H1 O29 0.854 . S
H2 C37 0.930 . S
H3 C38 0.930 . S
H4 C40 0.930 . S
H5 C41 0.930 . S
H6 C43 0.931 . S
H7 C44 0.930 . S
H8 C46 0.930 . S
H9 C47 0.929 . S
H10 C49 0.930 . S
H11 C50 0.931 . S
H12 C52 0.930 . S
H13 C53 0.929 . S
H14 C55 0.931 . S
H15 C56 0.930 . S
H16 C58 0.930 . S
H17 C59 0.932 . S
H18 C61 0.930 . S
H19 C62 0.929 . S
H20 C64 0.931 . S
H21 C65 0.930 . S
H22 C67 0.929 . S
H23 C68 0.931 . S
H24 C70 0.930 . S
H25 C71 0.929 1_455 S
O26 H0 0.856 . S
O26 C72 1.300 . S
O27 C72 1.209 . S
O28 C73 1.199 . S
O29 H1 0.854 . S
O29 C73 1.297 . S
C30 C31 1.404 . S
C30 C35 1.397 . S
C30 C36 1.492 . S
C31 C30 1.404 . S
C31 C32 1.396 . S
C31 C42 1.492 . S
C32 C31 1.396 . S
C32 C33 1.397 . S
C32 C48 1.509 . S
C33 C32 1.397 . S
C33 C34 1.412 . S
C33 C54 1.485 . S
C34 C33 1.412 . S
C34 C35 1.388 . S
C34 C60 1.490 . S
C35 C30 1.397 . S
C35 C34 1.388 . S
C35 C66 1.519 . S
C36 C30 1.492 . S
C36 C37 1.363 . S
C36 C41 1.390 1_455 S
C37 H2 0.930 . S
C37 C36 1.363 . S
C37 C38 1.372 1_455 S
C38 H3 0.930 . S
C38 C37 1.372 1_655 S
C38 C39 1.383 . S
C39 C38 1.383 . S
C39 C40 1.395 . S
C40 H4 0.930 . S
C40 C39 1.395 . S
C40 C41 1.362 . S
C41 H5 0.930 . S
C41 C36 1.390 1_655 S
C41 C40 1.362 . S
C42 C31 1.492 . S
C42 C43 1.377 . S
C42 C47 1.397 . S
C43 H6 0.931 . S
C43 C42 1.377 . S
C43 C44 1.376 . S
C44 H7 0.930 . S
C44 C43 1.376 . S
C44 C45 1.376 . S
C45 C44 1.376 . S
C45 C46 1.378 . S
C45 C72 1.486 . S
C46 H8 0.930 . S
C46 C45 1.378 . S
C46 C47 1.376 . S
C47 H9 0.929 . S
C47 C42 1.397 . S
C47 C46 1.376 . S
C48 C32 1.509 . S
C48 C49 1.391 . S
C48 C53 1.386 . S
C49 H10 0.930 . S
C49 C48 1.391 . S
C49 C50 1.375 . S
C50 H11 0.931 . S
C50 C49 1.375 . S
C50 C51 1.375 . S
C51 C50 1.375 . S
C51 C52 1.361 . S
C52 H12 0.930 . S
C52 C51 1.361 . S
C52 C53 1.399 . S
C53 H13 0.929 . S
C53 C48 1.386 . S
C53 C52 1.399 . S
C54 C33 1.485 . S
C54 C55 1.394 . S
C54 C59 1.360 . S
C55 H14 0.931 . S
C55 C54 1.394 . S
C55 C56 1.372 . S
C56 H15 0.930 . S
C56 C55 1.372 . S
C56 C57 1.397 . S
C57 C56 1.397 . S
C57 C58 1.390 . S
C57 C73 1.476 . S
C58 H16 0.930 . S
C58 C57 1.390 . S
C58 C59 1.366 . S
C59 H17 0.932 . S
C59 C54 1.360 . S
C59 C58 1.366 . S
C60 C34 1.490 . S
C60 C61 1.380 . S
C60 C65 1.386 . S
C61 H18 0.930 . S
C61 C60 1.380 . S
C61 C62 1.381 . S
C62 H19 0.929 . S
C62 C61 1.381 . S
C62 C63 1.371 . S
C63 C62 1.371 . S
C63 C64 1.380 . S
C64 H20 0.931 . S
C64 C63 1.380 . S
C64 C65 1.387 . S
C65 H21 0.930 . S
C65 C60 1.386 . S
C65 C64 1.387 . S
C66 C35 1.519 . S
C66 C67 1.377 1_455 S
C66 C71 1.361 1_455 S
C67 H22 0.929 . S
C67 C66 1.377 1_655 S
C67 C68 1.386 . S
C68 H23 0.931 . S
C68 C67 1.386 . S
C68 C69 1.363 . S
C69 C68 1.363 . S
C69 C70 1.385 . S
C70 H24 0.930 . S
C70 C69 1.385 . S
C70 C71 1.396 . S
C71 H25 0.929 1_655 S
C71 C66 1.361 1_655 S
C71 C70 1.396 . S
C72 O26 1.300 . S
C72 O27 1.209 . S
C72 C45 1.486 . S
C73 O28 1.199 . S
C73 O29 1.297 . S
C73 C57 1.476 . S
H74 O100 0.856 . S
H75 O103 0.854 . S
H76 C111 0.930 . S
H77 C112 0.930 . S
H78 C114 0.930 1_565 S
H79 C115 0.930 . S
H80 C117 0.931 . S
H81 C118 0.930 . S
H82 C120 0.930 . S
H83 C121 0.929 . S
H84 C123 0.930 . S
H85 C124 0.931 . S
H86 C126 0.930 . S
H87 C127 0.929 . S
H88 C129 0.931 . S
H89 C130 0.930 . S
H90 C132 0.930 . S
H91 C133 0.932 . S
H92 C135 0.930 . S
H93 C136 0.929 . S
H94 C138 0.931 . S
H95 C139 0.930 . S
H96 C141 0.929 . S
H97 C142 0.931 . S
H98 C144 0.930 . S
H99 C145 0.929 . S
O100 H74 0.856 . S
O100 C146 1.300 . S
O101 C146 1.209 . S
O102 C147 1.199 . S
O103 H75 0.854 . S
O103 C147 1.297 . S
C104 C105 1.404 . S
C104 C109 1.397 . S
C104 C110 1.492 . S
C105 C104 1.404 . S
C105 C106 1.396 . S
C105 C116 1.492 . S
C106 C105 1.396 . S
C106 C107 1.397 . S
C106 C122 1.509 . S
C107 C106 1.397 . S
C107 C108 1.412 . S
C107 C128 1.485 . S
C108 C107 1.412 . S
C108 C109 1.388 . S
C108 C134 1.490 . S
C109 C104 1.397 . S
C109 C108 1.388 . S
C109 C140 1.519 . S
C110 C104 1.492 . S
C110 C111 1.363 . S
C110 C115 1.390 . S
C111 H76 0.930 . S
C111 C110 1.363 . S
C111 C112 1.372 . S
C112 H77 0.930 . S
C112 C111 1.372 . S
C112 C113 1.381 1_545 S
C113 C112 1.381 1_565 S
C113 C114 1.390 1_565 S
C114 H78 0.930 1_545 S
C114 C113 1.390 1_545 S
C114 C115 1.362 . S
C115 H79 0.930 . S
C115 C110 1.390 . S
C115 C114 1.362 . S
C116 C105 1.492 . S
C116 C117 1.377 . S
C116 C121 1.397 . S
C117 H80 0.931 . S
C117 C116 1.377 . S
C117 C118 1.376 . S
C118 H81 0.930 . S
C118 C117 1.376 . S
C118 C119 1.376 . S
C119 C118 1.376 . S
C119 C120 1.378 . S
C119 C146 1.486 . S
C120 H82 0.930 . S
C120 C119 1.378 . S
C120 C121 1.376 . S
C121 H83 0.929 . S
C121 C116 1.397 . S
C121 C120 1.376 . S
C122 C106 1.509 . S
C122 C123 1.391 . S
C122 C127 1.386 . S
C123 H84 0.930 . S
C123 C122 1.391 . S
C123 C124 1.375 . S
C124 H85 0.931 . S
C124 C123 1.375 . S
C124 C125 1.375 . S
C125 C124 1.375 . S
C125 C126 1.361 . S
C126 H86 0.930 . S
C126 C125 1.361 . S
C126 C127 1.399 . S
C127 H87 0.929 . S
C127 C122 1.386 . S
C127 C126 1.399 . S
C128 C107 1.485 . S
C128 C129 1.394 . S
C128 C133 1.360 . S
C129 H88 0.931 . S
C129 C128 1.394 . S
C129 C130 1.372 . S
C130 H89 0.930 . S
C130 C129 1.372 . S
C130 C131 1.397 . S
C131 C130 1.397 . S
C131 C132 1.390 . S
C131 C147 1.476 . S
C132 H90 0.930 . S
C132 C131 1.390 . S
C132 C133 1.366 . S
C133 H91 0.932 . S
C133 C128 1.360 . S
C133 C132 1.366 . S
C134 C108 1.490 . S
C134 C135 1.380 . S
C134 C139 1.386 . S
C135 H92 0.930 . S
C135 C134 1.380 . S
C135 C136 1.381 . S
C136 H93 0.929 . S
C136 C135 1.381 . S
C136 C137 1.371 . S
C137 C136 1.371 . S
C137 C138 1.380 . S
C138 H94 0.931 . S
C138 C137 1.380 . S
C138 C139 1.387 . S
C139 H95 0.930 . S
C139 C134 1.386 . S
C139 C138 1.387 . S
C140 C109 1.519 . S
C140 C141 1.377 . S
C140 C145 1.361 . S
C141 H96 0.929 . S
C141 C140 1.377 . S
C141 C142 1.386 1_545 S
C142 H97 0.931 . S
C142 C141 1.386 1_565 S
C142 C143 1.363 . S
C143 C142 1.363 . S
C143 C144 1.385 . S
C144 H98 0.930 . S
C144 C143 1.385 . S
C144 C145 1.396 1_565 S
C145 H99 0.929 . S
C145 C140 1.361 . S
C145 C144 1.396 1_545 S
C146 O100 1.300 . S
C146 O101 1.209 . S
C146 C119 1.486 . S
C147 O102 1.199 . S
C147 O103 1.297 . S
C147 C131 1.476 . S
H148 O174 0.856 . S
H149 O177 0.854 . S
H150 C185 0.930 . S
H151 C186 0.930 . S
H152 C188 0.930 . S
H153 C189 0.930 . S
H154 C191 0.931 . S
H155 C192 0.930 . S
H156 C194 0.930 . S
H157 C195 0.929 . S
H158 C197 0.930 . S
H159 C198 0.931 . S
H160 C200 0.930 . S
H161 C201 0.929 . S
H162 C203 0.931 . S
H163 C204 0.930 . S
H164 C206 0.930 . S
H165 C207 0.932 . S
H166 C209 0.930 . S
H167 C210 0.929 . S
H168 C212 0.931 . S
H169 C213 0.930 . S
H170 C215 0.929 . S
H171 C216 0.931 . S
H172 C218 0.930 . S
H173 C219 0.929 . S
O174 H148 0.856 . S
O174 C220 1.300 . S
O175 C220 1.209 . S
O176 C221 1.199 . S
O177 H149 0.854 . S
O177 C221 1.297 . S
C178 C179 1.404 . S
C178 C183 1.397 . S
C178 C184 1.492 . S
C179 C178 1.404 . S
C179 C180 1.396 . S
C179 C190 1.492 . S
C180 C179 1.396 . S
C180 C181 1.397 . S
C180 C196 1.509 . S
C181 C180 1.397 . S
C181 C182 1.412 . S
C181 C202 1.485 . S
C182 C181 1.412 . S
C182 C183 1.388 . S
C182 C208 1.490 . S
C183 C178 1.397 . S
C183 C182 1.388 . S
C183 C214 1.519 . S
C184 C178 1.492 . S
C184 C185 1.363 . S
C184 C189 1.390 . S
C185 H150 0.930 . S
C185 C184 1.363 . S
C185 C186 1.372 . S
C186 H151 0.930 . S
C186 C185 1.372 . S
C186 C187 1.383 . S
C187 C186 1.383 . S
C187 C188 1.395 . S
C188 H152 0.930 . S
C188 C187 1.395 . S
C188 C189 1.362 . S
C189 H153 0.930 . S
C189 C184 1.390 . S
C189 C188 1.362 . S
C190 C179 1.492 . S
C190 C191 1.377 . S
C190 C195 1.397 . S
C191 H154 0.931 . S
C191 C190 1.377 . S
C191 C192 1.376 . S
C192 H155 0.930 . S
C192 C191 1.376 . S
C192 C193 1.376 . S
C193 C192 1.376 . S
C193 C194 1.378 . S
C193 C220 1.486 . S
C194 H156 0.930 . S
C194 C193 1.378 . S
C194 C195 1.376 . S
C195 H157 0.929 . S
C195 C190 1.397 . S
C195 C194 1.376 . S
C196 C180 1.509 . S
C196 C197 1.391 . S
C196 C201 1.386 . S
C197 H158 0.930 . S
C197 C196 1.391 . S
C197 C198 1.375 . S
C198 H159 0.931 . S
C198 C197 1.375 . S
C198 C199 1.375 . S
C199 C198 1.375 . S
C199 C200 1.361 . S
C200 H160 0.930 . S
C200 C199 1.361 . S
C200 C201 1.399 . S
C201 H161 0.929 . S
C201 C196 1.386 . S
C201 C200 1.399 . S
C202 C181 1.485 . S
C202 C203 1.394 . S
C202 C207 1.360 . S
C203 H162 0.931 . S
C203 C202 1.394 . S
C203 C204 1.372 . S
C204 H163 0.930 . S
C204 C203 1.372 . S
C204 C205 1.397 . S
C205 C204 1.397 . S
C205 C206 1.390 . S
C205 C221 1.476 . S
C206 H164 0.930 . S
C206 C205 1.390 . S
C206 C207 1.366 . S
C207 H165 0.932 . S
C207 C202 1.360 . S
C207 C206 1.366 . S
C208 C182 1.490 . S
C208 C209 1.380 . S
C208 C213 1.386 . S
C209 H166 0.930 . S
C209 C208 1.380 . S
C209 C210 1.381 . S
C210 H167 0.929 . S
C210 C209 1.381 . S
C210 C211 1.371 . S
C211 C210 1.371 . S
C211 C212 1.380 . S
C212 H168 0.931 . S
C212 C211 1.380 . S
C212 C213 1.387 . S
C213 H169 0.930 . S
C213 C208 1.386 . S
C213 C212 1.387 . S
C214 C183 1.519 . S
C214 C215 1.377 . S
C214 C219 1.361 . S
C215 H170 0.929 . S
C215 C214 1.377 . S
C215 C216 1.386 . S
C216 H171 0.931 . S
C216 C215 1.386 . S
C216 C217 1.363 . S
C217 C216 1.363 . S
C217 C218 1.385 . S
C218 H172 0.930 . S
C218 C217 1.385 . S
C218 C219 1.396 . S
C219 H173 0.929 . S
C219 C214 1.361 . S
C219 C218 1.396 . S
C220 O174 1.300 . S
C220 O175 1.209 . S
C220 C193 1.486 . S
C221 O176 1.199 . S
C221 O177 1.297 . S
C221 C205 1.476 . S
H222 O248 0.856 . S
H223 O251 0.854 . S
H224 C259 0.930 1_455 S
H225 C260 0.930 . S
H226 C262 0.930 . S
H227 C263 0.930 . S
H228 C265 0.931 . S
H229 C266 0.930 . S
H230 C268 0.930 . S
H231 C269 0.929 . S
H232 C271 0.930 . S
H233 C272 0.931 . S
H234 C274 0.930 . S
H235 C275 0.929 . S
H236 C277 0.931 . S
H237 C278 0.930 . S
H238 C280 0.930 . S
H239 C281 0.932 . S
H240 C283 0.930 . S
H241 C284 0.929 . S
H242 C286 0.931 . S
H243 C287 0.930 . S
H244 C289 0.929 . S
H245 C290 0.931 . S
H246 C292 0.930 . S
H247 C293 0.929 . S
O248 H222 0.856 . S
O248 C294 1.300 . S
O249 C294 1.209 . S
O250 C295 1.199 . S
O251 H223 0.854 . S
O251 C295 1.297 . S
C252 C253 1.404 . S
C252 C257 1.397 . S
C252 C258 1.492 1_455 S
C253 C252 1.404 . S
C253 C254 1.396 . S
C253 C264 1.492 . S
C254 C253 1.396 . S
C254 C255 1.397 . S
C254 C270 1.509 . S
C255 C254 1.397 . S
C255 C256 1.412 . S
C255 C276 1.485 . S
C256 C255 1.412 . S
C256 C257 1.388 . S
C256 C282 1.490 . S
C257 C252 1.397 . S
C257 C256 1.388 . S
C257 C288 1.519 1_455 S
C258 C252 1.492 1_655 S
C258 C259 1.363 . S
C258 C263 1.390 . S
C259 H224 0.930 1_655 S
C259 C258 1.363 . S
C259 C260 1.372 . S
C260 H225 0.930 . S
C260 C259 1.372 . S
C260 C261 1.383 . S
C261 C260 1.383 . S
C261 C262 1.395 . S
C262 H226 0.930 . S
C262 C261 1.395 . S
C262 C263 1.362 . S
C263 H227 0.930 . S
C263 C258 1.390 . S
C263 C262 1.362 . S
C264 C253 1.492 . S
C264 C265 1.377 . S
C264 C269 1.397 . S
C265 H228 0.931 . S
C265 C264 1.377 . S
C265 C266 1.376 . S
C266 H229 0.930 . S
C266 C265 1.376 . S
C266 C267 1.376 . S
C267 C266 1.376 . S
C267 C268 1.378 . S
C267 C294 1.486 . S
C268 H230 0.930 . S
C268 C267 1.378 . S
C268 C269 1.376 . S
C269 H231 0.929 . S
C269 C264 1.397 . S
C269 C268 1.376 . S
C270 C254 1.509 . S
C270 C271 1.391 . S
C270 C275 1.386 . S
C271 H232 0.930 . S
C271 C270 1.391 . S
C271 C272 1.375 . S
C272 H233 0.931 . S
C272 C271 1.375 . S
C272 C273 1.375 . S
C273 C272 1.375 . S
C273 C274 1.361 . S
C274 H234 0.930 . S
C274 C273 1.361 . S
C274 C275 1.399 . S
C275 H235 0.929 . S
C275 C270 1.386 . S
C275 C274 1.399 . S
C276 C255 1.485 . S
C276 C277 1.394 . S
C276 C281 1.360 . S
C277 H236 0.931 . S
C277 C276 1.394 . S
C277 C278 1.372 . S
C278 H237 0.930 . S
C278 C277 1.372 . S
C278 C279 1.397 . S
C279 C278 1.397 . S
C279 C280 1.390 . S
C279 C295 1.476 . S
C280 H238 0.930 . S
C280 C279 1.390 . S
C280 C281 1.366 . S
C281 H239 0.932 . S
C281 C276 1.360 . S
C281 C280 1.366 . S
C282 C256 1.490 . S
C282 C283 1.380 . S
C282 C287 1.386 . S
C283 H240 0.930 . S
C283 C282 1.380 . S
C283 C284 1.381 . S
C284 H241 0.929 . S
C284 C283 1.381 . S
C284 C285 1.371 . S
C285 C284 1.371 . S
C285 C286 1.380 . S
C286 H242 0.931 . S
C286 C285 1.380 . S
C286 C287 1.387 . S
C287 H243 0.930 . S
C287 C282 1.386 . S
C287 C286 1.387 . S
C288 C257 1.519 1_655 S
C288 C289 1.377 . S
C288 C293 1.361 . S
C289 H244 0.929 . S
C289 C288 1.377 . S
C289 C290 1.386 . S
C290 H245 0.931 . S
C290 C289 1.386 . S
C290 C291 1.363 . S
C291 C290 1.363 . S
C291 C292 1.385 . S
C292 H246 0.930 . S
C292 C291 1.385 . S
C292 C293 1.396 . S
C293 H247 0.929 . S
C293 C288 1.361 . S
C293 C292 1.396 . S
C294 O248 1.300 . S
C294 O249 1.209 . S
C294 C267 1.486 . S
C295 O250 1.199 . S
C295 O251 1.297 . S
C295 C279 1.476 . S
H296 O322 0.856 . S
H297 O325 0.854 . S
H298 C333 0.930 . S
H299 C334 0.930 . S
H300 C336 0.930 . S
H301 C337 0.930 . S
H302 C339 0.931 . S
H303 C340 0.930 . S
H304 C342 0.930 1_545 S
H305 C343 0.929 1_545 S
H306 C345 0.930 . S
H307 C346 0.931 . S
H308 C348 0.930 . S
H309 C349 0.929 . S
H310 C351 0.931 . S
H311 C352 0.930 . S
H312 C354 0.930 . S
H313 C355 0.947 . S
H314 C357 0.930 . S
H315 C358 0.929 . S
H316 C360 0.931 . S
H317 C361 0.930 . S
H318 C363 0.929 . S
H319 C364 0.931 . S
H320 C366 0.930 . S
H321 C367 0.929 . S
O322 H296 0.856 . S
O322 C368 1.300 . S
O323 C368 1.209 . S
O324 C369 1.199 . S
O325 H297 0.854 . S
O325 C369 1.297 . S
C326 C327 1.404 1_545 S
C326 C331 1.397 . S
C326 C332 1.492 . S
C327 C326 1.404 1_565 S
C327 C328 1.396 . S
C327 C338 1.492 . S
C328 C327 1.396 . S
C328 C329 1.397 . S
C328 C344 1.509 . S
C329 C328 1.397 . S
C329 C330 1.412 1_556 S
C329 C350 1.485 1_556 S
C330 C329 1.412 1_554 S
C330 C331 1.388 1_564 S
C330 C356 1.498 . S
C331 C326 1.397 . S
C331 C330 1.388 1_546 S
C331 C362 1.519 . S
C332 C326 1.492 . S
C332 C333 1.363 . S
C332 C337 1.390 . S
C333 H298 0.930 . S
C333 C332 1.363 . S
C333 C334 1.372 . S
C334 H299 0.930 . S
C334 C333 1.372 . S
C334 C335 1.383 . S
C335 C334 1.383 . S
C335 C336 1.395 . S
C336 H300 0.930 . S
C336 C335 1.395 . S
C336 C337 1.362 . S
C337 H301 0.930 . S
C337 C332 1.390 . S
C337 C336 1.362 . S
C338 C327 1.492 . S
C338 C339 1.377 . S
C338 C343 1.397 . S
C339 H302 0.931 . S
C339 C338 1.377 . S
C339 C340 1.376 . S
C340 H303 0.930 . S
C340 C339 1.376 . S
C340 C341 1.376 . S
C341 C340 1.376 . S
C341 C342 1.378 . S
C341 C368 1.486 . S
C342 H304 0.930 1_565 S
C342 C341 1.378 . S
C342 C343 1.376 . S
C343 H305 0.929 1_565 S
C343 C338 1.397 . S
C343 C342 1.376 . S
C344 C328 1.509 . S
C344 C345 1.391 . S
C344 C349 1.386 . S
C345 H306 0.930 . S
C345 C344 1.391 . S
C345 C346 1.375 . S
C346 H307 0.931 . S
C346 C345 1.375 . S
C346 C347 1.375 . S
C347 C346 1.375 . S
C347 C348 1.361 . S
C348 H308 0.930 . S
C348 C347 1.361 . S
C348 C349 1.399 . S
C349 H309 0.929 . S
C349 C344 1.386 . S
C349 C348 1.399 . S
C350 C329 1.485 1_554 S
C350 C351 1.394 . S
C350 C355 1.360 . S
C351 H310 0.931 . S
C351 C350 1.394 . S
C351 C352 1.372 . S
C352 H311 0.930 . S
C352 C351 1.372 . S
C352 C353 1.397 . S
C353 C352 1.397 . S
C353 C354 1.390 . S
C353 C369 1.476 . S
C354 H312 0.930 . S
C354 C353 1.390 . S
C354 C355 1.366 . S
C355 H313 0.947 . S
C355 C350 1.360 . S
C355 C354 1.366 . S
C356 C330 1.498 . S
C356 C357 1.347 1_565 S
C356 C361 1.412 . S
C357 H314 0.930 . S
C357 C356 1.347 1_545 S
C357 C358 1.381 . S
C358 H315 0.929 . S
C358 C357 1.381 . S
C358 C359 1.371 . S
C359 C358 1.371 . S
C359 C360 1.380 1_545 S
C360 H316 0.931 . S
C360 C359 1.380 1_565 S
C360 C361 1.387 . S
C361 H317 0.930 . S
C361 C356 1.412 . S
C361 C360 1.387 . S
C362 C331 1.519 . S
C362 C363 1.377 . S
C362 C367 1.361 1_556 S
C363 H318 0.929 . S
C363 C362 1.377 . S
C363 C364 1.386 1_556 S
C364 H319 0.931 . S
C364 C363 1.386 1_554 S
C364 C365 1.363 . S
C365 C364 1.363 . S
C365 C366 1.385 . S
C366 H320 0.930 . S
C366 C365 1.385 . S
C366 C367 1.396 . S
C367 H321 0.929 . S
C367 C362 1.361 1_554 S
C367 C366 1.396 . S
C368 O322 1.300 . S
C368 O323 1.209 . S
C368 C341 1.486 . S
C369 O324 1.199 . S
C369 O325 1.297 . S
C369 C353 1.476 . S
H370 O396 0.856 . S
H371 O399 0.854 . S
H372 C407 0.930 . S
H373 C408 0.930 . S
H374 C410 0.930 . S
H375 C411 0.930 . S
H376 C413 0.931 . S
H377 C414 0.930 . S
H378 C416 0.930 . S
H379 C417 0.929 . S
H380 C419 0.930 . S
H381 C420 0.931 . S
H382 C422 0.930 . S
H383 C423 0.929 . S
H384 C425 0.931 . S
H385 C426 0.930 . S
H386 C428 0.930 . S
H387 C429 0.932 . S
H388 C431 0.930 . S
H389 C432 0.929 . S
H390 C434 0.931 . S
H391 C435 0.930 . S
H392 C437 0.929 . S
H393 C438 0.931 . S
H394 C440 0.930 . S
H395 C441 0.929 . S
O396 H370 0.856 . S
O396 C442 1.300 . S
O397 C442 1.209 . S
O398 C443 1.199 . S
O399 H371 0.854 . S
O399 C443 1.297 . S
C400 C401 1.404 . S
C400 C405 1.397 . S
C400 C406 1.492 . S
C401 C400 1.404 . S
C401 C402 1.396 . S
C401 C412 1.492 . S
C402 C401 1.396 . S
C402 C403 1.397 . S
C402 C418 1.509 . S
C403 C402 1.397 . S
C403 C404 1.412 . S
C403 C424 1.485 . S
C404 C403 1.412 . S
C404 C405 1.388 . S
C404 C430 1.490 . S
C405 C400 1.397 . S
C405 C404 1.388 . S
C405 C436 1.519 . S
C406 C400 1.492 . S
C406 C407 1.363 . S
C406 C411 1.390 . S
C407 H372 0.930 . S
C407 C406 1.363 . S
C407 C408 1.372 . S
C408 H373 0.930 . S
C408 C407 1.372 . S
C408 C409 1.383 . S
C409 C408 1.383 . S
C409 C410 1.395 . S
C410 H374 0.930 . S
C410 C409 1.395 . S
C410 C411 1.362 . S
C411 H375 0.930 . S
C411 C406 1.390 . S
C411 C410 1.362 . S
C412 C401 1.492 . S
C412 C413 1.377 . S
C412 C417 1.397 . S
C413 H376 0.931 . S
C413 C412 1.377 . S
C413 C414 1.376 . S
C414 H377 0.930 . S
C414 C413 1.376 . S
C414 C415 1.376 . S
C415 C414 1.376 . S
C415 C416 1.378 . S
C415 C442 1.486 . S
C416 H378 0.930 . S
C416 C415 1.378 . S
C416 C417 1.376 . S
C417 H379 0.929 . S
C417 C412 1.397 . S
C417 C416 1.376 . S
C418 C402 1.509 . S
C418 C419 1.391 . S
C418 C423 1.386 . S
C419 H380 0.930 . S
C419 C418 1.391 . S
C419 C420 1.375 . S
C420 H381 0.931 . S
C420 C419 1.375 . S
C420 C421 1.375 . S
C421 C420 1.375 . S
C421 C422 1.361 . S
C422 H382 0.930 . S
C422 C421 1.361 . S
C422 C423 1.399 . S
C423 H383 0.929 . S
C423 C418 1.386 . S
C423 C422 1.399 . S
C424 C403 1.485 . S
C424 C425 1.394 . S
C424 C429 1.360 . S
C425 H384 0.931 . S
C425 C424 1.394 . S
C425 C426 1.372 . S
C426 H385 0.930 . S
C426 C425 1.372 . S
C426 C427 1.397 . S
C427 C426 1.397 . S
C427 C428 1.390 . S
C427 C443 1.476 . S
C428 H386 0.930 . S
C428 C427 1.390 . S
C428 C429 1.366 . S
C429 H387 0.932 . S
C429 C424 1.360 . S
C429 C428 1.366 . S
C430 C404 1.490 . S
C430 C431 1.380 . S
C430 C435 1.386 . S
C431 H388 0.930 . S
C431 C430 1.380 . S
C431 C432 1.381 . S
C432 H389 0.929 . S
C432 C431 1.381 . S
C432 C433 1.371 . S
C433 C432 1.371 . S
C433 C434 1.380 . S
C434 H390 0.931 . S
C434 C433 1.380 . S
C434 C435 1.387 . S
C435 H391 0.930 . S
C435 C430 1.386 . S
C435 C434 1.387 . S
C436 C405 1.519 . S
C436 C437 1.377 . S
C436 C441 1.361 . S
C437 H392 0.929 . S
C437 C436 1.377 . S
C437 C438 1.386 . S
C438 H393 0.931 . S
C438 C437 1.386 . S
C438 C439 1.363 . S
C439 C438 1.363 . S
C439 C440 1.385 . S
C440 H394 0.930 . S
C440 C439 1.385 . S
C440 C441 1.396 . S
C441 H395 0.929 . S
C441 C436 1.361 . S
C441 C440 1.396 . S
C442 O396 1.300 . S
C442 O397 1.209 . S
C442 C415 1.486 . S
C443 O398 1.199 . S
C443 O399 1.297 . S
C443 C427 1.476 . S
Co444 O445 2.216 . S
Co444 O446 2.091 . S
Co444 O448 2.004 . S
Co444 O454 2.021 . S
Co444 O456 2.137 . S
Co444 O457 2.244 . S
O445 Co444 2.216 . S
O445 C452 1.247 . S
O446 Co444 2.091 . S
O446 C452 1.261 . S
C447 O456 1.247 . S
C447 O457 1.272 . S
O448 Co444 2.004 . S
O448 C453 1.259 . S
Co449 O450 2.061 . S
Co449 O455 2.052 . S
Co449 O457 2.135 . S
O450 Co449 2.061 . S
O450 C453 1.235 . S
C451 O454 1.238 . S
C451 O455 1.241 . S
C452 O445 1.247 . S
C452 O446 1.261 . S
C453 O448 1.259 . S
C453 O450 1.235 . S
O454 Co444 2.021 . S
O454 C451 1.238 . S
O455 Co449 2.052 . S
O455 C451 1.241 . S
O456 Co444 2.137 . S
O456 C447 1.247 . S
O457 Co444 2.244 . S
O457 C447 1.272 . S
O457 Co449 2.135 . S
Co458 O459 2.216 . S
Co458 O460 2.091 . S
Co458 O462 2.004 . S
Co458 O468 2.021 . S
Co458 O470 2.137 . S
Co458 O471 2.244 . S
O459 Co458 2.216 . S
O459 C466 1.247 . S
O460 Co458 2.091 . S
O460 C466 1.261 . S
C461 O470 1.247 . S
C461 O471 1.272 . S
O462 Co458 2.004 . S
O462 C467 1.259 . S
Co463 O464 2.061 . S
Co463 O469 2.052 . S
Co463 O471 2.135 . S
O464 Co463 2.061 . S
O464 C467 1.235 . S
C465 O468 1.238 . S
C465 O469 1.241 . S
C466 O459 1.247 . S
C466 O460 1.261 . S
C467 O462 1.259 . S
C467 O464 1.235 . S
O468 Co458 2.021 . S
O468 C465 1.238 . S
O469 Co463 2.052 . S
O469 C465 1.241 . S
O470 Co458 2.137 . S
O470 C461 1.247 . S
O471 Co458 2.244 . S
O471 C461 1.272 . S
O471 Co463 2.135 . S
Co472 O473 2.216 . S
Co472 O474 2.091 . S
Co472 O476 2.004 . S
Co472 O482 2.021 . S
Co472 O484 2.137 . S
Co472 O485 2.244 . S
O473 Co472 2.216 . S
O473 C480 1.247 . S
O474 Co472 2.091 . S
O474 C480 1.261 . S
C475 O484 1.247 . S
C475 O485 1.272 . S
O476 Co472 2.004 . S
O476 C481 1.259 . S
Co477 O478 2.061 . S
Co477 O483 2.052 . S
Co477 O485 2.135 . S
O478 Co477 2.061 . S
O478 C481 1.235 . S
C479 O482 1.238 . S
C479 O483 1.241 . S
C480 O473 1.247 . S
C480 O474 1.261 . S
C481 O476 1.259 . S
C481 O478 1.235 . S
O482 Co472 2.021 . S
O482 C479 1.238 . S
O483 Co477 2.052 . S
O483 C479 1.241 . S
O484 Co472 2.137 . S
O484 C475 1.247 . S
O485 Co472 2.244 . S
O485 C475 1.272 . S
O485 Co477 2.135 . S
Co486 O487 2.216 . S
Co486 O488 2.091 . S
Co486 O490 2.004 . S
Co486 O496 2.021 . S
Co486 O498 2.137 . S
Co486 O499 2.244 . S
O487 Co486 2.216 . S
O487 C494 1.247 . S
O488 Co486 2.091 . S
O488 C494 1.261 . S
C489 O498 1.247 . S
C489 O499 1.272 . S
O490 Co486 2.004 . S
O490 C495 1.259 . S
Co491 O492 2.061 . S
Co491 O497 2.052 . S
Co491 O499 2.135 . S
O492 Co491 2.061 . S
O492 C495 1.235 . S
C493 O496 1.238 . S
C493 O497 1.241 . S
C494 O487 1.247 . S
C494 O488 1.261 . S
C495 O490 1.259 . S
C495 O492 1.235 . S
O496 Co486 2.021 . S
O496 C493 1.238 . S
O497 Co491 2.052 . S
O497 C493 1.241 . S
O498 Co486 2.137 . S
O498 C489 1.247 . S
O499 Co486 2.244 . S
O499 C489 1.272 . S
O499 Co491 2.135 . S
Co500 O501 2.216 . S
Co500 O502 2.091 . S
Co500 O504 2.004 . S
Co500 O510 2.021 . S
Co500 O512 2.137 . S
Co500 O513 2.244 . S
O501 Co500 2.216 . S
O501 C508 1.247 . S
O502 Co500 2.091 . S
O502 C508 1.261 . S
C503 O512 1.247 . S
C503 O513 1.272 . S
O504 Co500 2.004 . S
O504 C509 1.259 . S
Co505 O506 2.061 . S
Co505 O511 2.052 . S
Co505 O513 2.135 . S
O506 Co505 2.061 . S
O506 C509 1.235 . S
C507 O510 1.238 . S
C507 O511 1.241 . S
C508 O501 1.247 . S
C508 O502 1.261 . S
C509 O504 1.259 . S
C509 O506 1.235 . S
O510 Co500 2.021 . S
O510 C507 1.238 . S
O511 Co505 2.052 . S
O511 C507 1.241 . S
O512 Co500 2.137 . S
O512 C503 1.247 . S
O513 Co500 2.244 . S
O513 C503 1.272 . S
O513 Co505 2.135 . S
Co514 O515 2.216 . S
Co514 O516 2.091 . S
Co514 O518 2.004 . S
Co514 O524 2.021 . S
Co514 O526 2.137 . S
Co514 O527 2.244 . S
O515 Co514 2.216 . S
O515 C522 1.247 . S
O516 Co514 2.091 . S
O516 C522 1.261 . S
C517 O526 1.247 . S
C517 O527 1.272 . S
O518 Co514 2.004 . S
O518 C523 1.259 . S
Co519 O520 2.061 . S
Co519 O525 2.052 . S
Co519 O527 2.135 . S
O520 Co519 2.061 . S
O520 C523 1.235 . S
C521 O524 1.238 . S
C521 O525 1.241 . S
C522 O515 1.247 . S
C522 O516 1.261 . S
C523 O518 1.259 . S
C523 O520 1.235 . S
O524 Co514 2.021 . S
O524 C521 1.238 . S
O525 Co519 2.052 . S
O525 C521 1.241 . S
O526 Co514 2.137 . S
O526 C517 1.247 . S
O527 Co514 2.244 . S
O527 C517 1.272 . S
O527 Co519 2.135 . S
H528 C536 0.929 . S
H529 C538 0.930 . S
H530 C540 0.930 . S
H531 C543 0.929 . S
H532 C546 0.930 . S
H533 C548 0.960 . S
H534 C548 0.960 . S
H535 C548 0.960 . S
C536 H528 0.929 . S
C536 C537 1.377 . S
C536 C538 1.384 . S
C537 C536 1.377 . S
C537 C543 1.390 . S
C538 H529 0.930 . S
C538 C536 1.384 . S
C538 C539 1.372 . S
C539 C538 1.372 . S
C539 C540 1.400 . S
C539 C544 1.490 . S
C540 H530 0.930 . S
C540 C539 1.400 . S
C540 C543 1.386 . S
H541 C557 0.930 . S
H542 C558 0.931 . S
C543 H531 0.929 . S
C543 C537 1.390 . S
C543 C540 1.386 . S
C544 C539 1.490 . S
C544 C546 1.395 . S
C544 C547 1.403 . S
H545 C551 0.930 . S
C546 H532 0.930 . S
C546 C544 1.395 . S
C546 C549 1.403 . S
C547 C544 1.403 . S
C547 C548 1.524 . S
C547 C551 1.400 . S
C548 H533 0.960 . S
C548 H534 0.960 . S
C548 H535 0.960 . S
C548 C547 1.524 . S
C549 C546 1.403 . S
C549 C550 1.392 . S
C549 C553 1.495 . S
C550 C549 1.392 . S
C550 C551 1.385 . S
C550 C552 1.478 . S
C551 H545 0.930 . S
C551 C547 1.400 . S
C551 C550 1.385 . S
C552 C550 1.478 . S
C552 C554 1.381 . S
C552 C558 1.383 . S
C553 C549 1.495 . S
C553 H559 0.959 . S
C553 H560 0.961 . S
C553 H561 0.960 . S
C554 C552 1.381 . S
C554 C555 1.394 . S
C554 H562 0.930 . S
C555 C554 1.394 . S
C555 C556 1.383 . S
C555 H563 0.929 . S
C556 C555 1.383 . S
C556 C557 1.377 . S
C557 H541 0.930 . S
C557 C556 1.377 . S
C557 C558 1.379 . S
C558 H542 0.931 . S
C558 C552 1.383 . S
C558 C557 1.379 . S
H559 C553 0.959 . S
H560 C553 0.961 . S
H561 C553 0.960 . S
H562 C554 0.930 . S
H563 C555 0.929 . S
H564 C572 0.929 . S
H565 C574 0.930 . S
H566 C576 0.930 . S
H567 C579 0.929 . S
H568 C582 0.930 . S
H569 C584 0.960 . S
H570 C584 0.960 . S
H571 C584 0.960 . S
C572 H564 0.929 . S
C572 C573 1.377 . S
C572 C574 1.384 . S
C573 C572 1.377 . S
C573 C579 1.390 . S
C574 H565 0.930 . S
C574 C572 1.384 . S
C574 C575 1.372 . S
C575 C574 1.372 . S
C575 C576 1.400 . S
C575 C580 1.490 . S
C576 H566 0.930 . S
C576 C575 1.400 . S
C576 C579 1.386 . S
H577 C593 0.930 . S
H578 C594 0.931 . S
C579 H567 0.929 . S
C579 C573 1.390 . S
C579 C576 1.386 . S
C580 C575 1.490 . S
C580 C582 1.395 . S
C580 C583 1.403 . S
H581 C587 0.930 . S
C582 H568 0.930 . S
C582 C580 1.395 . S
C582 C585 1.403 . S
C583 C580 1.403 . S
C583 C584 1.524 . S
C583 C587 1.400 . S
C584 H569 0.960 . S
C584 H570 0.960 . S
C584 H571 0.960 . S
C584 C583 1.524 . S
C585 C582 1.403 . S
C585 C586 1.392 . S
C585 C589 1.495 . S
C586 C585 1.392 . S
C586 C587 1.385 . S
C586 C588 1.478 . S
C587 H581 0.930 . S
C587 C583 1.400 . S
C587 C586 1.385 . S
C588 C586 1.478 . S
C588 C590 1.381 . S
C588 C594 1.383 . S
C589 C585 1.495 . S
C589 H595 0.959 . S
C589 H596 0.961 . S
C589 H597 0.960 . S
C590 C588 1.381 . S
C590 C591 1.394 . S
C590 H598 0.930 . S
C591 C590 1.394 . S
C591 C592 1.383 . S
C591 H599 0.929 . S
C592 C591 1.383 . S
C592 C593 1.377 . S
C593 H577 0.930 . S
C593 C592 1.377 . S
C593 C594 1.379 . S
C594 H578 0.931 . S
C594 C588 1.383 . S
C594 C593 1.379 . S
H595 C589 0.959 . S
H596 C589 0.961 . S
H597 C589 0.960 . S
H598 C590 0.930 . S
H599 C591 0.929 . S
H600 C608 0.929 . S
H601 C610 0.930 . S
H602 C612 0.930 . S
H603 C615 0.929 . S
H604 C618 0.930 . S
H605 C620 0.960 . S
H606 C620 0.960 . S
H607 C620 0.960 . S
C608 H600 0.929 . S
C608 C609 1.377 . S
C608 C610 1.384 . S
C609 C608 1.377 . S
C609 C615 1.390 . S
C610 H601 0.930 . S
C610 C608 1.384 . S
C610 C611 1.372 . S
C611 C610 1.372 . S
C611 C612 1.400 . S
C611 C616 1.490 . S
C612 H602 0.930 . S
C612 C611 1.400 . S
C612 C615 1.386 . S
H613 C629 0.930 . S
H614 C630 0.931 . S
C615 H603 0.929 . S
C615 C609 1.390 . S
C615 C612 1.386 . S
C616 C611 1.490 . S
C616 C618 1.395 . S
C616 C619 1.403 . S
H617 C623 0.930 . S
C618 H604 0.930 . S
C618 C616 1.395 . S
C618 C621 1.403 . S
C619 C616 1.403 . S
C619 C620 1.524 . S
C619 C623 1.400 . S
C620 H605 0.960 . S
C620 H606 0.960 . S
C620 H607 0.960 . S
C620 C619 1.524 . S
C621 C618 1.403 . S
C621 C622 1.392 . S
C621 C625 1.495 . S
C622 C621 1.392 . S
C622 C623 1.385 . S
C622 C624 1.478 . S
C623 H617 0.930 . S
C623 C619 1.400 . S
C623 C622 1.385 . S
C624 C622 1.478 . S
C624 C626 1.381 . S
C624 C630 1.383 . S
C625 C621 1.495 . S
C625 H631 0.959 . S
C625 H632 0.961 . S
C625 H633 0.960 . S
C626 C624 1.381 . S
C626 C627 1.394 . S
C626 H634 0.930 . S
C627 C626 1.394 . S
C627 C628 1.383 . S
C627 H635 0.929 . S
C628 C627 1.383 . S
C628 C629 1.377 . S
C629 H613 0.930 . S
C629 C628 1.377 . S
C629 C630 1.379 . S
C630 H614 0.931 . S
C630 C624 1.383 . S
C630 C629 1.379 . S
H631 C625 0.959 . S
H632 C625 0.961 . S
H633 C625 0.960 . S
H634 C626 0.930 . S
H635 C627 0.929 . S
H636 C644 0.929 . S
H637 C646 0.930 . S
H638 C648 0.930 . S
H639 C651 0.929 . S
H640 C654 0.930 . S
H641 C656 0.960 . S
H642 C656 0.960 . S
H643 C656 0.960 . S
C644 H636 0.929 . S
C644 C645 1.377 . S
C644 C646 1.384 . S
C645 C644 1.377 . S
C645 C651 1.390 . S
C646 H637 0.930 . S
C646 C644 1.384 . S
C646 C647 1.372 . S
C647 C646 1.372 . S
C647 C648 1.400 . S
C647 C652 1.490 . S
C648 H638 0.930 . S
C648 C647 1.400 . S
C648 C651 1.386 . S
H649 C665 0.930 . S
H650 C666 0.931 . S
C651 H639 0.929 . S
C651 C645 1.390 . S
C651 C648 1.386 . S
C652 C647 1.490 . S
C652 C654 1.395 . S
C652 C655 1.403 . S
H653 C659 0.930 . S
C654 H640 0.930 . S
C654 C652 1.395 . S
C654 C657 1.403 . S
C655 C652 1.403 . S
C655 C656 1.524 . S
C655 C659 1.400 . S
C656 H641 0.960 . S
C656 H642 0.960 . S
C656 H643 0.960 . S
C656 C655 1.524 . S
C657 C654 1.403 . S
C657 C658 1.392 . S
C657 C661 1.495 . S
C658 C657 1.392 . S
C658 C659 1.385 . S
C658 C660 1.478 . S
C659 H653 0.930 . S
C659 C655 1.400 . S
C659 C658 1.385 . S
C660 C658 1.478 . S
C660 C662 1.381 . S
C660 C666 1.383 . S
C661 C657 1.495 . S
C661 H667 0.959 . S
C661 H668 0.961 . S
C661 H669 0.960 . S
C662 C660 1.381 . S
C662 C663 1.394 . S
C662 H670 0.930 . S
C663 C662 1.394 . S
C663 C664 1.383 . S
C663 H671 0.929 . S
C664 C663 1.383 . S
C664 C665 1.377 . S
C665 H649 0.930 . S
C665 C664 1.377 . S
C665 C666 1.379 . S
C666 H650 0.931 . S
C666 C660 1.383 . S
C666 C665 1.379 . S
H667 C661 0.959 . S
H668 C661 0.961 . S
H669 C661 0.960 . S
H670 C662 0.930 . S
H671 C663 0.929 . S
H672 C680 0.929 . S
H673 C682 0.930 . S
H674 C684 0.930 . S
H675 C687 0.929 . S
H676 C690 0.930 . S
H677 C692 0.960 . S
H678 C692 0.960 . S
H679 C692 0.960 . S
C680 H672 0.929 . S
C680 C681 1.377 . S
C680 C682 1.384 . S
C681 C680 1.377 . S
C681 C687 1.390 . S
C682 H673 0.930 . S
C682 C680 1.384 . S
C682 C683 1.372 . S
C683 C682 1.372 . S
C683 C684 1.400 . S
C683 C688 1.490 . S
C684 H674 0.930 . S
C684 C683 1.400 . S
C684 C687 1.386 . S
H685 C701 0.930 . S
H686 C702 0.931 . S
C687 H675 0.929 . S
C687 C681 1.390 . S
C687 C684 1.386 . S
C688 C683 1.490 . S
C688 C690 1.395 . S
C688 C691 1.403 . S
H689 C695 0.930 . S
C690 H676 0.930 . S
C690 C688 1.395 . S
C690 C693 1.403 . S
C691 C688 1.403 . S
C691 C692 1.524 . S
C691 C695 1.400 . S
C692 H677 0.960 . S
C692 H678 0.960 . S
C692 H679 0.960 . S
C692 C691 1.524 . S
C693 C690 1.403 . S
C693 C694 1.392 . S
C693 C697 1.495 . S
C694 C693 1.392 . S
C694 C695 1.385 . S
C694 C696 1.478 . S
C695 H689 0.930 . S
C695 C691 1.400 . S
C695 C694 1.385 . S
C696 C694 1.478 . S
C696 C698 1.381 . S
C696 C702 1.383 . S
C697 C693 1.495 . S
C697 H703 0.959 . S
C697 H704 0.961 . S
C697 H705 0.960 . S
C698 C696 1.381 . S
C698 C699 1.394 . S
C698 H706 0.930 . S
C699 C698 1.394 . S
C699 C700 1.383 . S
C699 H707 0.929 . S
C700 C699 1.383 . S
C700 C701 1.377 . S
C701 H685 0.930 . S
C701 C700 1.377 . S
C701 C702 1.379 . S
C702 H686 0.931 . S
C702 C696 1.383 . S
C702 C701 1.379 . S
H703 C697 0.959 . S
H704 C697 0.961 . S
H705 C697 0.960 . S
H706 C698 0.930 . S
H707 C699 0.929 . S
H708 C716 0.929 . S
H709 C718 0.930 . S
H710 C720 0.930 . S
H711 C723 0.929 . S
H712 C726 0.930 . S
H713 C728 0.960 . S
H714 C728 0.960 . S
H715 C728 0.960 . S
C716 H708 0.929 . S
C716 C717 1.377 . S
C716 C718 1.384 . S
C717 C716 1.377 . S
C717 C723 1.390 . S
C718 H709 0.930 . S
C718 C716 1.384 . S
C718 C719 1.372 . S
C719 C718 1.372 . S
C719 C720 1.400 . S
C719 C724 1.490 . S
C720 H710 0.930 . S
C720 C719 1.400 . S
C720 C723 1.386 . S
H721 C737 0.930 . S
H722 C738 0.931 . S
C723 H711 0.929 . S
C723 C717 1.390 . S
C723 C720 1.386 . S
C724 C719 1.490 . S
C724 C726 1.395 . S
C724 C727 1.403 . S
H725 C731 0.930 . S
C726 H712 0.930 . S
C726 C724 1.395 . S
C726 C729 1.403 . S
C727 C724 1.403 . S
C727 C728 1.524 . S
C727 C731 1.400 . S
C728 H713 0.960 . S
C728 H714 0.960 . S
C728 H715 0.960 . S
C728 C727 1.524 . S
C729 C726 1.403 . S
C729 C730 1.392 . S
C729 C733 1.495 . S
C730 C729 1.392 . S
C730 C731 1.385 . S
C730 C732 1.478 . S
C731 H725 0.930 . S
C731 C727 1.400 . S
C731 C730 1.385 . S
C732 C730 1.478 . S
C732 C734 1.381 . S
C732 C738 1.383 . S
C733 C729 1.495 . S
C733 H739 0.959 . S
C733 H740 0.961 . S
C733 H741 0.960 . S
C734 C732 1.381 . S
C734 C735 1.394 . S
C734 H742 0.930 . S
C735 C734 1.394 . S
C735 C736 1.383 . S
C735 H743 0.929 . S
C736 C735 1.383 . S
C736 C737 1.377 . S
C737 H721 0.930 . S
C737 C736 1.377 . S
C737 C738 1.379 . S
C738 H722 0.931 . S
C738 C732 1.383 . S
C738 C737 1.379 . S
H739 C733 0.959 . S
H740 C733 0.961 . S
H741 C733 0.960 . S
H742 C734 0.930 . S
H743 C735 0.929 . S
H744 C752 0.929 . S
H745 C754 0.930 . S
H746 C756 0.930 . S
H747 C759 0.929 . S
H748 C762 0.930 . S
H749 C764 0.960 . S
H750 C764 0.960 . S
H751 C764 0.960 . S
C752 H744 0.929 . S
C752 C753 1.377 . S
C752 C754 1.384 . S
C753 C752 1.377 . S
C753 C759 1.390 . S
C754 H745 0.930 . S
C754 C752 1.384 . S
C754 C755 1.372 . S
C755 C754 1.372 . S
C755 C756 1.400 . S
C755 C760 1.490 . S
C756 H746 0.930 . S
C756 C755 1.400 . S
C756 C759 1.386 . S
H757 C773 0.930 . S
H758 C774 0.931 . S
C759 H747 0.929 . S
C759 C753 1.390 . S
C759 C756 1.386 . S
C760 C755 1.490 . S
C760 C762 1.395 . S
C760 C763 1.403 . S
H761 C767 0.930 . S
C762 H748 0.930 . S
C762 C760 1.395 . S
C762 C765 1.403 . S
C763 C760 1.403 . S
C763 C764 1.524 . S
C763 C767 1.400 . S
C764 H749 0.960 . S
C764 H750 0.960 . S
C764 H751 0.960 . S
C764 C763 1.524 . S
C765 C762 1.403 . S
C765 C766 1.392 . S
C765 C769 1.495 . S
C766 C765 1.392 . S
C766 C767 1.385 . S
C766 C768 1.478 . S
C767 H761 0.930 . S
C767 C763 1.400 . S
C767 C766 1.385 . S
C768 C766 1.478 . S
C768 C770 1.381 . S
C768 C774 1.383 . S
C769 C765 1.495 . S
C769 H775 0.959 . S
C769 H776 0.961 . S
C769 H777 0.960 . S
C770 C768 1.381 . S
C770 C771 1.394 . S
C770 H778 0.930 . S
C771 C770 1.394 . S
C771 C772 1.383 . S
C771 H779 0.929 . S
C772 C771 1.383 . S
C772 C773 1.377 . S
C773 H757 0.930 . S
C773 C772 1.377 . S
C773 C774 1.379 . S
C774 H758 0.931 . S
C774 C768 1.383 . S
C774 C773 1.379 . S
H775 C769 0.959 . S
H776 C769 0.961 . S
H777 C769 0.960 . S
H778 C770 0.930 . S
H779 C771 0.929 . S
H780 C788 0.929 . S
H781 C790 0.930 . S
H782 C792 0.930 . S
H783 C795 0.929 . S
H784 C798 0.930 . S
H785 C800 0.960 . S
H786 C800 0.960 . S
H787 C800 0.960 . S
C788 H780 0.929 . S
C788 C789 1.377 . S
C788 C790 1.384 . S
C789 C788 1.377 . S
C789 C795 1.390 . S
C790 H781 0.930 . S
C790 C788 1.384 . S
C790 C791 1.372 . S
C791 C790 1.372 . S
C791 C792 1.400 . S
C791 C796 1.490 . S
C792 H782 0.930 . S
C792 C791 1.400 . S
C792 C795 1.386 . S
H793 C809 0.930 . S
H794 C810 0.931 . S
C795 H783 0.929 . S
C795 C789 1.390 . S
C795 C792 1.386 . S
C796 C791 1.490 . S
C796 C798 1.395 . S
C796 C799 1.403 . S
H797 C803 0.930 . S
C798 H784 0.930 . S
C798 C796 1.395 . S
C798 C801 1.403 . S
C799 C796 1.403 . S
C799 C800 1.524 . S
C799 C803 1.400 . S
C800 H785 0.960 . S
C800 H786 0.960 . S
C800 H787 0.960 . S
C800 C799 1.524 . S
C801 C798 1.403 . S
C801 C802 1.392 . S
C801 C805 1.495 . S
C802 C801 1.392 . S
C802 C803 1.385 . S
C802 C804 1.478 . S
C803 H797 0.930 . S
C803 C799 1.400 . S
C803 C802 1.385 . S
C804 C802 1.478 . S
C804 C806 1.381 . S
C804 C810 1.383 . S
C805 C801 1.495 . S
C805 H811 0.959 . S
C805 H812 0.961 . S
C805 H813 0.960 . S
C806 C804 1.381 . S
C806 C807 1.394 . S
C806 H814 0.930 . S
C807 C806 1.394 . S
C807 C808 1.383 . S
C807 H815 0.929 . S
C808 C807 1.383 . S
C808 C809 1.377 . S
C809 H793 0.930 . S
C809 C808 1.377 . S
C809 C810 1.379 . S
C810 H794 0.931 . S
C810 C804 1.383 . S
C810 C809 1.379 . S
H811 C805 0.959 . S
H812 C805 0.961 . S
H813 C805 0.960 . S
H814 C806 0.930 . S
H815 C807 0.929 . S
H816 C824 0.929 . S
H817 C826 0.930 . S
H818 C828 0.930 . S
H819 C831 0.929 . S
H820 C834 0.930 . S
H821 C836 0.960 . S
H822 C836 0.960 . S
H823 C836 0.960 . S
C824 H816 0.929 . S
C824 C825 1.377 . S
C824 C826 1.384 . S
C825 C824 1.377 . S
C825 C831 1.390 . S
C826 H817 0.930 . S
C826 C824 1.384 . S
C826 C827 1.372 . S
C827 C826 1.372 . S
C827 C828 1.400 . S
C827 C832 1.490 . S
C828 H818 0.930 . S
C828 C827 1.400 . S
C828 C831 1.386 . S
H829 C845 0.930 . S
H830 C846 0.931 . S
C831 H819 0.929 . S
C831 C825 1.390 . S
C831 C828 1.386 . S
C832 C827 1.490 . S
C832 C834 1.395 . S
C832 C835 1.403 . S
H833 C839 0.930 . S
C834 H820 0.930 . S
C834 C832 1.395 . S
C834 C837 1.403 . S
C835 C832 1.403 . S
C835 C836 1.524 . S
C835 C839 1.400 . S
C836 H821 0.960 . S
C836 H822 0.960 . S
C836 H823 0.960 . S
C836 C835 1.524 . S
C837 C834 1.403 . S
C837 C838 1.392 . S
C837 C841 1.495 . S
C838 C837 1.392 . S
C838 C839 1.385 . S
C838 C840 1.478 . S
C839 H833 0.930 . S
C839 C835 1.400 . S
C839 C838 1.385 . S
C840 C838 1.478 . S
C840 C842 1.381 . S
C840 C846 1.383 . S
C841 C837 1.495 . S
C841 H847 0.959 . S
C841 H848 0.961 . S
C841 H849 0.960 . S
C842 C840 1.381 . S
C842 C843 1.394 . S
C842 H850 0.930 . S
C843 C842 1.394 . S
C843 C844 1.383 . S
C843 H851 0.929 . S
C844 C843 1.383 . S
C844 C845 1.377 . S
C845 H829 0.930 . S
C845 C844 1.377 . S
C845 C846 1.379 . S
C846 H830 0.931 . S
C846 C840 1.383 . S
C846 C845 1.379 . S
H847 C841 0.959 . S
H848 C841 0.961 . S
H849 C841 0.960 . S
H850 C842 0.930 . S
H851 C843 0.929 . S
H852 C860 0.929 . S
H853 C862 0.930 . S
H854 C864 0.930 . S
H855 C867 0.929 . S
H856 C870 0.930 . S
H857 C872 0.960 . S
H858 C872 0.960 . S
H859 C872 0.960 . S
C860 H852 0.929 . S
C860 C861 1.377 . S
C860 C862 1.384 . S
C861 C860 1.377 . S
C861 C867 1.390 . S
C862 H853 0.930 . S
C862 C860 1.384 . S
C862 C863 1.372 . S
C863 C862 1.372 . S
C863 C864 1.400 . S
C863 C868 1.490 . S
C864 H854 0.930 . S
C864 C863 1.400 . S
C864 C867 1.386 . S
H865 C881 0.930 . S
H866 C882 0.931 . S
C867 H855 0.929 . S
C867 C861 1.390 . S
C867 C864 1.386 . S
C868 C863 1.490 . S
C868 C870 1.395 . S
C868 C871 1.403 . S
H869 C875 0.930 . S
C870 H856 0.930 . S
C870 C868 1.395 . S
C870 C873 1.403 . S
C871 C868 1.403 . S
C871 C872 1.524 . S
C871 C875 1.400 . S
C872 H857 0.960 . S
C872 H858 0.960 . S
C872 H859 0.960 . S
C872 C871 1.524 . S
C873 C870 1.403 . S
C873 C874 1.392 . S
C873 C877 1.495 . S
C874 C873 1.392 . S
C874 C875 1.385 . S
C874 C876 1.478 . S
C875 H869 0.930 . S
C875 C871 1.400 . S
C875 C874 1.385 . S
C876 C874 1.478 . S
C876 C878 1.381 . S
C876 C882 1.383 . S
C877 C873 1.495 . S
C877 H883 0.959 . S
C877 H884 0.961 . S
C877 H885 0.960 . S
C878 C876 1.381 . S
C878 C879 1.394 . S
C878 H886 0.930 . S
C879 C878 1.394 . S
C879 C880 1.383 . S
C879 H887 0.929 . S
C880 C879 1.383 . S
C880 C881 1.377 . S
C881 H865 0.930 . S
C881 C880 1.377 . S
C881 C882 1.379 . S
C882 H866 0.931 . S
C882 C876 1.383 . S
C882 C881 1.379 . S
H883 C877 0.959 . S
H884 C877 0.961 . S
H885 C877 0.960 . S
H886 C878 0.930 . S
H887 C879 0.929 . S
H888 C896 0.929 . S
H889 C898 0.930 . S
H890 C900 0.930 . S
H891 C903 0.929 . S
H892 C906 0.930 . S
H893 C908 0.960 . S
H894 C908 0.960 . S
H895 C908 0.960 . S
C896 H888 0.929 . S
C896 C897 1.377 . S
C896 C898 1.384 . S
C897 C896 1.377 . S
C897 C903 1.390 . S
C898 H889 0.930 . S
C898 C896 1.384 . S
C898 C899 1.372 . S
C899 C898 1.372 . S
C899 C900 1.400 . S
C899 C904 1.490 . S
C900 H890 0.930 . S
C900 C899 1.400 . S
C900 C903 1.386 . S
H901 C917 0.930 . S
H902 C918 0.931 . S
C903 H891 0.929 . S
C903 C897 1.390 . S
C903 C900 1.386 . S
C904 C899 1.490 . S
C904 C906 1.395 . S
C904 C907 1.403 . S
H905 C911 0.930 . S
C906 H892 0.930 . S
C906 C904 1.395 . S
C906 C909 1.403 . S
C907 C904 1.403 . S
C907 C908 1.524 . S
C907 C911 1.400 . S
C908 H893 0.960 . S
C908 H894 0.960 . S
C908 H895 0.960 . S
C908 C907 1.524 . S
C909 C906 1.403 . S
C909 C910 1.392 . S
C909 C913 1.495 . S
C910 C909 1.392 . S
C910 C911 1.385 . S
C910 C912 1.478 . S
C911 H905 0.930 . S
C911 C907 1.400 . S
C911 C910 1.385 . S
C912 C910 1.478 . S
C912 C914 1.381 . S
C912 C918 1.383 . S
C913 C909 1.495 . S
C913 H919 0.959 . S
C913 H920 0.961 . S
C913 H921 0.960 . S
C914 C912 1.381 . S
C914 C915 1.394 . S
C914 H922 0.930 . S
C915 C914 1.394 . S
C915 C916 1.383 . S
C915 H923 0.929 . S
C916 C915 1.383 . S
C916 C917 1.377 . S
C917 H901 0.930 . S
C917 C916 1.377 . S
C917 C918 1.379 . S
C918 H902 0.931 . S
C918 C912 1.383 . S
C918 C917 1.379 . S
H919 C913 0.959 . S
H920 C913 0.961 . S
H921 C913 0.960 . S
H922 C914 0.930 . S
H923 C915 0.929 . S
H924 C932 0.929 . S
H925 C934 0.930 . S
H926 C936 0.930 . S
H927 C939 0.929 . S
H928 C942 0.930 . S
H929 C944 0.960 . S
H930 C944 0.960 . S
H931 C944 0.960 . S
C932 H924 0.929 . S
C932 C933 1.377 . S
C932 C934 1.384 . S
C933 C932 1.377 . S
C933 C939 1.390 . S
C934 H925 0.930 . S
C934 C932 1.384 . S
C934 C935 1.372 . S
C935 C934 1.372 . S
C935 C936 1.400 . S
C935 C940 1.490 . S
C936 H926 0.930 . S
C936 C935 1.400 . S
C936 C939 1.386 . S
H937 C953 0.930 . S
H938 C954 0.931 . S
C939 H927 0.929 . S
C939 C933 1.390 . S
C939 C936 1.386 . S
C940 C935 1.490 . S
C940 C942 1.395 . S
C940 C943 1.403 . S
H941 C947 0.930 . S
C942 H928 0.930 . S
C942 C940 1.395 . S
C942 C945 1.403 . S
C943 C940 1.403 . S
C943 C944 1.524 . S
C943 C947 1.400 . S
C944 H929 0.960 . S
C944 H930 0.960 . S
C944 H931 0.960 . S
C944 C943 1.524 . S
C945 C942 1.403 . S
C945 C946 1.392 . S
C945 C949 1.495 . S
C946 C945 1.392 . S
C946 C947 1.385 . S
C946 C948 1.478 . S
C947 H941 0.930 . S
C947 C943 1.400 . S
C947 C946 1.385 . S
C948 C946 1.478 . S
C948 C950 1.381 . S
C948 C954 1.383 . S
C949 C945 1.495 . S
C949 H955 0.959 . S
C949 H956 0.961 . S
C949 H957 0.960 . S
C950 C948 1.381 . S
C950 C951 1.394 . S
C950 H958 0.930 . S
C951 C950 1.394 . S
C951 C952 1.383 . S
C951 H959 0.929 . S
C952 C951 1.383 . S
C952 C953 1.377 . S
C953 H937 0.930 . S
C953 C952 1.377 . S
C953 C954 1.379 . S
C954 H938 0.931 . S
C954 C948 1.383 . S
C954 C953 1.379 . S
H955 C949 0.959 . S
H956 C949 0.961 . S
H957 C949 0.960 . S
H958 C950 0.930 . S
H959 C951 0.929 . S
H960 C968 0.929 . S
H961 C970 0.930 . S
H962 C972 0.930 . S
H963 C975 0.929 . S
H964 C978 0.930 . S
H965 C980 0.960 . S
H966 C980 0.960 . S
H967 C980 0.960 . S
C968 H960 0.929 . S
C968 C969 1.377 . S
C968 C970 1.384 . S
C969 C968 1.377 . S
C969 C975 1.390 . S
C970 H961 0.930 . S
C970 C968 1.384 . S
C970 C971 1.372 . S
C971 C970 1.372 . S
C971 C972 1.400 . S
C971 C976 1.490 . S
C972 H962 0.930 . S
C972 C971 1.400 . S
C972 C975 1.386 . S
H973 C989 0.930 . S
H974 C990 0.931 . S
C975 H963 0.929 . S
C975 C969 1.390 . S
C975 C972 1.386 . S
C976 C971 1.490 . S
C976 C978 1.395 . S
C976 C979 1.403 . S
H977 C983 0.930 . S
C978 H964 0.930 . S
C978 C976 1.395 . S
C978 C981 1.403 . S
C979 C976 1.403 . S
C979 C980 1.524 . S
C979 C983 1.400 . S
C980 H965 0.960 . S
C980 H966 0.960 . S
C980 H967 0.960 . S
C980 C979 1.524 . S
C981 C978 1.403 . S
C981 C982 1.392 . S
C981 C985 1.495 . S
C982 C981 1.392 . S
C982 C983 1.385 . S
C982 C984 1.478 . S
C983 H977 0.930 . S
C983 C979 1.400 . S
C983 C982 1.385 . S
C984 C982 1.478 . S
C984 C986 1.381 . S
C984 C990 1.383 . S
C985 C981 1.495 . S
C985 H991 0.959 . S
C985 H992 0.961 . S
C985 H993 0.960 . S
C986 C984 1.381 . S
C986 C987 1.394 . S
C986 H994 0.930 . S
C987 C986 1.394 . S
C987 C988 1.383 . S
C987 H995 0.929 . S
C988 C987 1.383 . S
C988 C989 1.377 . S
C989 H973 0.930 . S
C989 C988 1.377 . S
C989 C990 1.379 . S
C990 H974 0.931 . S
C990 C984 1.383 . S
C990 C989 1.379 . S
H991 C985 0.959 . S
H992 C985 0.961 . S
H993 C985 0.960 . S
H994 C986 0.930 . S
H995 C987 0.929 . S
H996 C1004 0.929 . S
H997 C1006 0.930 . S
H998 C1008 0.930 . S
H999 C1011 0.929 . S
H1000 C1014 0.930 . S
H1001 C1016 0.960 . S
H1002 C1016 0.960 . S
H1003 C1016 0.960 . S
C1004 H996 0.929 . S
C1004 C1005 1.377 . S
C1004 C1006 1.384 . S
C1005 C1004 1.377 . S
C1005 C1011 1.390 . S
C1006 H997 0.930 . S
C1006 C1004 1.384 . S
C1006 C1007 1.372 . S
C1007 C1006 1.372 . S
C1007 C1008 1.400 . S
C1007 C1012 1.490 . S
C1008 H998 0.930 . S
C1008 C1007 1.400 . S
C1008 C1011 1.386 . S
H1009 C1025 0.930 . S
H1010 C1026 0.931 . S
C1011 H999 0.929 . S
C1011 C1005 1.390 . S
C1011 C1008 1.386 . S
C1012 C1007 1.490 . S
C1012 C1014 1.395 . S
C1012 C1015 1.403 . S
H1013 C1019 0.930 . S
C1014 H1000 0.930 . S
C1014 C1012 1.395 . S
C1014 C1017 1.403 . S
C1015 C1012 1.403 . S
C1015 C1016 1.524 . S
C1015 C1019 1.400 . S
C1016 H1001 0.960 . S
C1016 H1002 0.960 . S
C1016 H1003 0.960 . S
C1016 C1015 1.524 . S
C1017 C1014 1.403 . S
C1017 C1018 1.392 . S
C1017 C1021 1.495 . S
C1018 C1017 1.392 . S
C1018 C1019 1.385 . S
C1018 C1020 1.478 . S
C1019 H1013 0.930 . S
C1019 C1015 1.400 . S
C1019 C1018 1.385 . S
C1020 C1018 1.478 . S
C1020 C1022 1.381 . S
C1020 C1026 1.383 . S
C1021 C1017 1.495 . S
C1021 H1027 0.959 . S
C1021 H1028 0.961 . S
C1021 H1029 0.960 . S
C1022 C1020 1.381 . S
C1022 C1023 1.394 . S
C1022 H1030 0.930 . S
C1023 C1022 1.394 . S
C1023 C1024 1.383 . S
C1023 H1031 0.929 . S
C1024 C1023 1.383 . S
C1024 C1025 1.377 . S
C1025 H1009 0.930 . S
C1025 C1024 1.377 . S
C1025 C1026 1.379 . S
C1026 H1010 0.931 . S
C1026 C1020 1.383 . S
C1026 C1025 1.379 . S
H1027 C1021 0.959 . S
H1028 C1021 0.961 . S
H1029 C1021 0.960 . S
H1030 C1022 0.930 . S
H1031 C1023 0.929 . S
H1032 C1040 0.929 . S
H1033 C1042 0.930 . S
H1034 C1044 0.930 . S
H1035 C1047 0.929 . S
H1036 C1050 0.930 . S
H1037 C1052 0.960 . S
H1038 C1052 0.960 . S
H1039 C1052 0.960 . S
C1040 H1032 0.929 . S
C1040 C1041 1.377 . S
C1040 C1042 1.384 . S
C1041 C1040 1.377 . S
C1041 C1047 1.390 . S
C1042 H1033 0.930 . S
C1042 C1040 1.384 . S
C1042 C1043 1.372 . S
C1043 C1042 1.372 . S
C1043 C1044 1.400 . S
C1043 C1048 1.490 . S
C1044 H1034 0.930 . S
C1044 C1043 1.400 . S
C1044 C1047 1.386 . S
H1045 C1061 0.930 . S
H1046 C1062 0.931 . S
C1047 H1035 0.929 . S
C1047 C1041 1.390 . S
C1047 C1044 1.386 . S
C1048 C1043 1.490 . S
C1048 C1050 1.395 . S
C1048 C1051 1.403 . S
H1049 C1055 0.930 . S
C1050 H1036 0.930 . S
C1050 C1048 1.395 . S
C1050 C1053 1.403 . S
C1051 C1048 1.403 . S
C1051 C1052 1.524 . S
C1051 C1055 1.400 . S
C1052 H1037 0.960 . S
C1052 H1038 0.960 . S
C1052 H1039 0.960 . S
C1052 C1051 1.524 . S
C1053 C1050 1.403 . S
C1053 C1054 1.392 . S
C1053 C1057 1.495 . S
C1054 C1053 1.392 . S
C1054 C1055 1.385 . S
C1054 C1056 1.478 . S
C1055 H1049 0.930 . S
C1055 C1051 1.400 . S
C1055 C1054 1.385 . S
C1056 C1054 1.478 . S
C1056 C1058 1.381 . S
C1056 C1062 1.383 . S
C1057 C1053 1.495 . S
C1057 H1063 0.959 . S
C1057 H1064 0.961 . S
C1057 H1065 0.960 . S
C1058 C1056 1.381 . S
C1058 C1059 1.394 . S
C1058 H1066 0.930 . S
C1059 C1058 1.394 . S
C1059 C1060 1.383 . S
C1059 H1067 0.929 . S
C1060 C1059 1.383 . S
C1060 C1061 1.377 . S
C1061 H1045 0.930 . S
C1061 C1060 1.377 . S
C1061 C1062 1.379 . S
C1062 H1046 0.931 . S
C1062 C1056 1.383 . S
C1062 C1061 1.379 . S
H1063 C1057 0.959 . S
H1064 C1057 0.961 . S
H1065 C1057 0.960 . S
H1066 C1058 0.930 . S
H1067 C1059 0.929 . S
H1068 C1076 0.929 . S
H1069 C1078 0.930 . S
H1070 C1080 0.930 . S
H1071 C1083 0.929 . S
H1072 C1086 0.930 . S
H1073 C1088 0.960 . S
H1074 C1088 0.960 . S
H1075 C1088 0.960 . S
C1076 H1068 0.929 . S
C1076 C1077 1.377 . S
C1076 C1078 1.384 . S
C1077 C1076 1.377 . S
C1077 C1083 1.390 . S
C1078 H1069 0.930 . S
C1078 C1076 1.384 . S
C1078 C1079 1.372 . S
C1079 C1078 1.372 . S
C1079 C1080 1.400 . S
C1079 C1084 1.490 . S
C1080 H1070 0.930 . S
C1080 C1079 1.400 . S
C1080 C1083 1.386 . S
H1081 C1097 0.930 . S
H1082 C1098 0.931 . S
C1083 H1071 0.929 . S
C1083 C1077 1.390 . S
C1083 C1080 1.386 . S
C1084 C1079 1.490 . S
C1084 C1086 1.395 . S
C1084 C1087 1.403 . S
H1085 C1091 0.930 . S
C1086 H1072 0.930 . S
C1086 C1084 1.395 . S
C1086 C1089 1.403 . S
C1087 C1084 1.403 . S
C1087 C1088 1.524 . S
C1087 C1091 1.400 . S
C1088 H1073 0.960 . S
C1088 H1074 0.960 . S
C1088 H1075 0.960 . S
C1088 C1087 1.524 . S
C1089 C1086 1.403 . S
C1089 C1090 1.392 . S
C1089 C1093 1.495 . S
C1090 C1089 1.392 . S
C1090 C1091 1.385 . S
C1090 C1092 1.478 . S
C1091 H1085 0.930 . S
C1091 C1087 1.400 . S
C1091 C1090 1.385 . S
C1092 C1090 1.478 . S
C1092 C1094 1.381 1_556 S
C1092 C1098 1.383 . S
C1093 C1089 1.495 . S
C1093 H1099 0.959 . S
C1093 H1100 0.961 . S
C1093 H1101 0.960 . S
C1094 C1092 1.381 1_554 S
C1094 C1095 1.394 . S
C1094 H1102 0.930 . S
C1095 C1094 1.394 . S
C1095 C1096 1.383 . S
C1095 H1103 0.929 . S
C1096 C1095 1.383 . S
C1096 C1097 1.377 . S
C1097 H1081 0.930 . S
C1097 C1096 1.377 . S
C1097 C1098 1.379 1_554 S
C1098 H1082 0.931 . S
C1098 C1092 1.383 . S
C1098 C1097 1.379 1_556 S
H1099 C1093 0.959 . S
H1100 C1093 0.961 . S
H1101 C1093 0.960 . S
H1102 C1094 0.930 . S
H1103 C1095 0.929 . S
H1104 C1112 0.929 . S
H1105 C1114 0.930 . S
H1106 C1116 0.930 . S
H1107 C1119 0.929 1_545 S
H1108 C1122 0.930 . S
H1109 C1124 0.960 . S
H1110 C1124 0.960 1_545 S
H1111 C1124 0.946 . S
C1112 H1104 0.929 . S
C1112 C1113 1.377 1_565 S
C1112 C1114 1.384 . S
C1113 C1112 1.377 1_545 S
C1113 C1119 1.390 1_545 S
C1114 H1105 0.930 . S
C1114 C1112 1.384 . S
C1114 C1115 1.372 . S
C1115 C1114 1.372 . S
C1115 C1116 1.400 . S
C1115 C1120 1.490 . S
C1116 H1106 0.930 . S
C1116 C1115 1.400 . S
C1116 C1119 1.386 . S
H1117 C1133 0.930 . S
H1118 C1134 0.931 . S
C1119 H1107 0.929 1_565 S
C1119 C1113 1.390 1_565 S
C1119 C1116 1.386 . S
C1120 C1115 1.490 . S
C1120 C1122 1.395 . S
C1120 C1123 1.403 . S
H1121 C1127 0.930 . S
C1122 H1108 0.930 . S
C1122 C1120 1.395 . S
C1122 C1125 1.403 . S
C1123 C1120 1.403 . S
C1123 C1124 1.524 . S
C1123 C1127 1.400 . S
C1124 H1109 0.960 . S
C1124 H1110 0.960 1_565 S
C1124 H1111 0.946 . S
C1124 C1123 1.524 . S
C1125 C1122 1.403 . S
C1125 C1126 1.392 . S
C1125 C1129 1.495 . S
C1126 C1125 1.392 . S
C1126 C1127 1.385 . S
C1126 C1128 1.478 . S
C1127 H1121 0.930 . S
C1127 C1123 1.400 . S
C1127 C1126 1.385 . S
C1128 C1126 1.478 . S
C1128 C1130 1.381 . S
C1128 C1134 1.383 . S
C1129 C1125 1.495 . S
C1129 H1135 0.959 . S
C1129 H1136 0.961 . S
C1129 H1137 0.960 . S
C1130 C1128 1.381 . S
C1130 C1131 1.394 . S
C1130 H1138 0.930 . S
C1131 C1130 1.394 . S
C1131 C1132 1.383 . S
C1131 H1139 0.929 . S
C1132 C1131 1.383 . S
C1132 C1133 1.377 . S
C1133 H1117 0.930 . S
C1133 C1132 1.377 . S
C1133 C1134 1.379 . S
C1134 H1118 0.931 . S
C1134 C1128 1.383 . S
C1134 C1133 1.379 . S
H1135 C1129 0.959 . S
H1136 C1129 0.961 . S
H1137 C1129 0.960 . S
H1138 C1130 0.930 . S
H1139 C1131 0.929 . S
H1140 C1148 0.929 . S
H1141 C1150 0.930 . S
H1142 C1152 0.930 . S
H1143 C1155 0.929 . S
H1144 C1158 0.930 . S
H1145 C1160 0.960 . S
H1146 C1160 0.960 . S
H1147 C1160 0.960 . S
C1148 H1140 0.929 . S
C1148 C1149 1.377 . S
C1148 C1150 1.384 . S
C1149 C1148 1.377 . S
C1149 C1155 1.390 . S
C1150 H1141 0.930 . S
C1150 C1148 1.384 . S
C1150 C1151 1.372 . S
C1151 C1150 1.372 . S
C1151 C1152 1.400 . S
C1151 C1156 1.490 . S
C1152 H1142 0.930 . S
C1152 C1151 1.400 . S
C1152 C1155 1.386 . S
H1153 C1169 0.930 . S
H1154 C1170 0.931 . S
C1155 H1143 0.929 . S
C1155 C1149 1.390 . S
C1155 C1152 1.386 . S
C1156 C1151 1.490 . S
C1156 C1158 1.395 . S
C1156 C1159 1.403 . S
H1157 C1163 0.930 . S
C1158 H1144 0.930 . S
C1158 C1156 1.395 . S
C1158 C1161 1.403 . S
C1159 C1156 1.403 . S
C1159 C1160 1.524 . S
C1159 C1163 1.400 . S
C1160 H1145 0.960 . S
C1160 H1146 0.960 . S
C1160 H1147 0.960 . S
C1160 C1159 1.524 . S
C1161 C1158 1.403 . S
C1161 C1162 1.392 . S
C1161 C1165 1.495 . S
C1162 C1161 1.392 . S
C1162 C1163 1.385 . S
C1162 C1164 1.478 . S
C1163 H1157 0.930 . S
C1163 C1159 1.400 . S
C1163 C1162 1.385 . S
C1164 C1162 1.478 . S
C1164 C1166 1.381 . S
C1164 C1170 1.383 . S
C1165 C1161 1.495 . S
C1165 H1171 0.959 . S
C1165 H1172 0.961 . S
C1165 H1173 0.960 . S
C1166 C1164 1.381 . S
C1166 C1167 1.394 . S
C1166 H1174 0.930 . S
C1167 C1166 1.394 . S
C1167 C1168 1.383 . S
C1167 H1175 0.929 . S
C1168 C1167 1.383 . S
C1168 C1169 1.377 . S
C1169 H1153 0.930 . S
C1169 C1168 1.377 . S
C1169 C1170 1.379 . S
C1170 H1154 0.931 . S
C1170 C1164 1.383 . S
C1170 C1169 1.379 . S
H1171 C1165 0.959 . S
H1172 C1165 0.961 . S
H1173 C1165 0.960 . S
H1174 C1166 0.930 . S
H1175 C1167 0.929 . S
H1176 C1184 0.929 . S
H1177 C1186 0.930 . S
H1178 C1188 0.930 . S
H1179 C1191 0.929 1_545 S
H1180 C1194 0.930 . S
H1181 C1196 0.960 . S
H1182 C1196 0.960 . S
H1183 C1196 0.960 . S
C1184 H1176 0.929 . S
C1184 C1185 1.377 . S
C1184 C1186 1.384 . S
C1185 C1184 1.377 . S
C1185 C1191 1.390 . S
C1186 H1177 0.930 . S
C1186 C1184 1.384 . S
C1186 C1187 1.372 . S
C1187 C1186 1.372 . S
C1187 C1188 1.400 . S
C1187 C1192 1.490 . S
C1188 H1178 0.930 . S
C1188 C1187 1.400 . S
C1188 C1191 1.386 . S
H1189 C1205 0.930 . S
H1190 C1206 0.931 . S
C1191 H1179 0.929 1_565 S
C1191 C1185 1.390 . S
C1191 C1188 1.386 . S
C1192 C1187 1.490 . S
C1192 C1194 1.395 . S
C1192 C1195 1.403 . S
H1193 C1199 0.930 . S
C1194 H1180 0.930 . S
C1194 C1192 1.395 . S
C1194 C1197 1.403 . S
C1195 C1192 1.403 . S
C1195 C1196 1.524 . S
C1195 C1199 1.400 . S
C1196 H1181 0.960 . S
C1196 H1182 0.960 . S
C1196 H1183 0.960 . S
C1196 C1195 1.524 . S
C1197 C1194 1.403 . S
C1197 C1198 1.392 . S
C1197 C1201 1.495 . S
C1198 C1197 1.392 . S
C1198 C1199 1.385 . S
C1198 C1200 1.478 . S
C1199 H1193 0.930 . S
C1199 C1195 1.400 . S
C1199 C1198 1.385 . S
C1200 C1198 1.478 . S
C1200 C1202 1.381 . S
C1200 C1206 1.383 . S
C1201 C1197 1.495 . S
C1201 H1207 0.959 . S
C1201 H1208 0.961 . S
C1201 H1209 0.960 . S
C1202 C1200 1.381 . S
C1202 C1203 1.394 . S
C1202 H1210 0.930 . S
C1203 C1202 1.394 . S
C1203 C1204 1.383 . S
C1203 H1211 0.929 . S
C1204 C1203 1.383 . S
C1204 C1205 1.377 . S
C1205 H1189 0.930 . S
C1205 C1204 1.377 . S
C1205 C1206 1.379 . S
C1206 H1190 0.931 . S
C1206 C1200 1.383 . S
C1206 C1205 1.379 . S
H1207 C1201 0.959 . S
H1208 C1201 0.961 . S
H1209 C1201 0.960 . S
H1210 C1202 0.930 . S
H1211 C1203 0.929 . S
H1212 C1220 0.929 . S
H1213 C1222 0.930 . S
H1214 C1224 0.930 . S
H1215 C1227 0.929 . S
H1216 C1230 0.930 . S
H1217 C1232 0.960 . S
H1218 C1232 0.960 . S
H1219 C1232 0.960 . S
C1220 H1212 0.929 . S
C1220 C1221 1.377 . S
C1220 C1222 1.384 . S
C1221 C1220 1.377 . S
C1221 C1227 1.390 . S
C1222 H1213 0.930 . S
C1222 C1220 1.384 . S
C1222 C1223 1.372 . S
C1223 C1222 1.372 . S
C1223 C1224 1.400 . S
C1223 C1228 1.490 . S
C1224 H1214 0.930 . S
C1224 C1223 1.400 . S
C1224 C1227 1.386 . S
H1225 C1241 0.930 . S
H1226 C1242 0.931 . S
C1227 H1215 0.929 . S
C1227 C1221 1.390 . S
C1227 C1224 1.386 . S
C1228 C1223 1.490 . S
C1228 C1230 1.395 . S
C1228 C1231 1.403 . S
H1229 C1235 0.930 . S
C1230 H1216 0.930 . S
C1230 C1228 1.395 . S
C1230 C1233 1.403 . S
C1231 C1228 1.403 . S
C1231 C1232 1.524 . S
C1231 C1235 1.400 . S
C1232 H1217 0.960 . S
C1232 H1218 0.960 . S
C1232 H1219 0.960 . S
C1232 C1231 1.524 . S
C1233 C1230 1.403 . S
C1233 C1234 1.392 . S
C1233 C1237 1.495 . S
C1234 C1233 1.392 . S
C1234 C1235 1.385 . S
C1234 C1236 1.478 . S
C1235 H1229 0.930 . S
C1235 C1231 1.400 . S
C1235 C1234 1.385 . S
C1236 C1234 1.478 . S
C1236 C1238 1.381 . S
C1236 C1242 1.383 . S
C1237 C1233 1.495 . S
C1237 H1243 0.959 . S
C1237 H1244 0.961 . S
C1237 H1245 0.960 . S
C1238 C1236 1.381 . S
C1238 C1239 1.394 . S
C1238 H1246 0.930 . S
C1239 C1238 1.394 . S
C1239 C1240 1.383 . S
C1239 H1247 0.929 . S
C1240 C1239 1.383 . S
C1240 C1241 1.377 . S
C1241 H1225 0.930 . S
C1241 C1240 1.377 . S
C1241 C1242 1.379 . S
C1242 H1226 0.931 . S
C1242 C1236 1.383 . S
C1242 C1241 1.379 . S
H1243 C1237 0.959 . S
H1244 C1237 0.961 . S
H1245 C1237 0.960 . S
H1246 C1238 0.930 . S
H1247 C1239 0.929 . S
H1248 C1256 0.929 . S
H1249 C1258 0.930 . S
H1250 C1260 0.930 . S
H1251 C1263 0.929 . S
H1252 C1266 0.930 . S
H1253 C1268 0.960 . S
H1254 C1268 0.960 . S
H1255 C1268 0.960 . S
C1256 H1248 0.929 . S
C1256 C1257 1.377 . S
C1256 C1258 1.384 . S
C1257 C1256 1.377 . S
C1257 C1263 1.390 . S
C1258 H1249 0.930 . S
C1258 C1256 1.384 . S
C1258 C1259 1.372 . S
C1259 C1258 1.372 . S
C1259 C1260 1.400 . S
C1259 C1264 1.490 . S
C1260 H1250 0.930 . S
C1260 C1259 1.400 . S
C1260 C1263 1.386 . S
H1261 C1277 0.930 . S
H1262 C1278 0.931 . S
C1263 H1251 0.929 . S
C1263 C1257 1.390 . S
C1263 C1260 1.386 . S
C1264 C1259 1.490 . S
C1264 C1266 1.395 . S
C1264 C1267 1.403 . S
H1265 C1271 0.930 . S
C1266 H1252 0.930 . S
C1266 C1264 1.395 . S
C1266 C1269 1.403 . S
C1267 C1264 1.403 . S
C1267 C1268 1.524 . S
C1267 C1271 1.400 . S
C1268 H1253 0.960 . S
C1268 H1254 0.960 . S
C1268 H1255 0.960 . S
C1268 C1267 1.524 . S
C1269 C1266 1.403 . S
C1269 C1270 1.392 . S
C1269 C1273 1.495 . S
C1270 C1269 1.392 . S
C1270 C1271 1.385 . S
C1270 C1272 1.478 . S
C1271 H1265 0.930 . S
C1271 C1267 1.400 . S
C1271 C1270 1.385 . S
C1272 C1270 1.478 . S
C1272 C1274 1.381 . S
C1272 C1278 1.383 . S
C1273 C1269 1.495 . S
C1273 H1279 0.959 . S
C1273 H1280 0.961 . S
C1273 H1281 0.960 . S
C1274 C1272 1.381 . S
C1274 C1275 1.394 . S
C1274 H1282 0.930 . S
C1275 C1274 1.394 . S
C1275 C1276 1.383 . S
C1275 H1283 0.929 . S
C1276 C1275 1.383 . S
C1276 C1277 1.377 . S
C1277 H1261 0.930 . S
C1277 C1276 1.377 . S
C1277 C1278 1.379 . S
C1278 H1262 0.931 . S
C1278 C1272 1.383 . S
C1278 C1277 1.379 . S
H1279 C1273 0.959 . S
H1280 C1273 0.961 . S
H1281 C1273 0.960 . S
H1282 C1274 0.930 . S
H1283 C1275 0.929 . S
H1284 C1292 0.929 . S
H1285 C1294 0.930 . S
H1286 C1296 0.930 . S
H1287 C1299 0.929 . S
H1288 C1302 0.930 . S
H1289 C1304 0.960 . S
H1290 C1304 0.960 . S
H1291 C1304 0.960 . S
C1292 H1284 0.929 . S
C1292 C1293 1.377 . S
C1292 C1294 1.384 . S
C1293 C1292 1.377 . S
C1293 C1299 1.390 . S
C1294 H1285 0.930 . S
C1294 C1292 1.384 . S
C1294 C1295 1.372 . S
C1295 C1294 1.372 . S
C1295 C1296 1.400 . S
C1295 C1300 1.490 . S
C1296 H1286 0.930 . S
C1296 C1295 1.400 . S
C1296 C1299 1.386 . S
H1297 C1313 0.930 . S
H1298 C1314 0.931 . S
C1299 H1287 0.929 . S
C1299 C1293 1.390 . S
C1299 C1296 1.386 . S
C1300 C1295 1.490 . S
C1300 C1302 1.395 . S
C1300 C1303 1.403 . S
H1301 C1307 0.930 . S
C1302 H1288 0.930 . S
C1302 C1300 1.395 . S
C1302 C1305 1.403 . S
C1303 C1300 1.403 . S
C1303 C1304 1.524 . S
C1303 C1307 1.400 . S
C1304 H1289 0.960 . S
C1304 H1290 0.960 . S
C1304 H1291 0.960 . S
C1304 C1303 1.524 . S
C1305 C1302 1.403 . S
C1305 C1306 1.392 . S
C1305 C1309 1.495 . S
C1306 C1305 1.392 . S
C1306 C1307 1.385 . S
C1306 C1308 1.478 . S
C1307 H1301 0.930 . S
C1307 C1303 1.400 . S
C1307 C1306 1.385 . S
C1308 C1306 1.478 . S
C1308 C1310 1.381 . S
C1308 C1314 1.383 . S
C1309 C1305 1.495 . S
C1309 H1315 0.959 . S
C1309 H1316 0.961 . S
C1309 H1317 0.960 . S
C1310 C1308 1.381 . S
C1310 C1311 1.394 . S
C1310 H1318 0.930 . S
C1311 C1310 1.394 . S
C1311 C1312 1.383 . S
C1311 H1319 0.929 . S
C1312 C1311 1.383 . S
C1312 C1313 1.377 . S
C1313 H1297 0.930 . S
C1313 C1312 1.377 . S
C1313 C1314 1.379 . S
C1314 H1298 0.931 . S
C1314 C1308 1.383 . S
C1314 C1313 1.379 . S
H1315 C1309 0.959 . S
H1316 C1309 0.961 . S
H1317 C1309 0.960 . S
H1318 C1310 0.930 . S
H1319 C1311 0.929 . S
H1320 C1328 0.929 . S
H1321 C1330 0.930 . S
H1322 C1332 0.930 . S
H1323 C1335 0.929 . S
H1324 C1338 0.930 . S
H1325 C1340 0.960 . S
H1326 C1340 0.960 . S
H1327 C1340 0.960 . S
C1328 H1320 0.929 . S
C1328 C1329 1.377 . S
C1328 C1330 1.384 . S
C1329 C1328 1.377 . S
C1329 C1335 1.390 . S
C1330 H1321 0.930 . S
C1330 C1328 1.384 . S
C1330 C1331 1.372 . S
C1331 C1330 1.372 . S
C1331 C1332 1.400 . S
C1331 C1336 1.490 . S
C1332 H1322 0.930 . S
C1332 C1331 1.400 . S
C1332 C1335 1.386 . S
H1333 C1349 0.930 . S
H1334 C1350 0.931 . S
C1335 H1323 0.929 . S
C1335 C1329 1.390 . S
C1335 C1332 1.386 . S
C1336 C1331 1.490 . S
C1336 C1338 1.395 . S
C1336 C1339 1.403 . S
H1337 C1343 0.971 . S
C1338 H1324 0.930 . S
C1338 C1336 1.395 . S
C1338 C1341 1.403 . S
C1339 C1336 1.403 . S
C1339 C1340 1.524 . S
C1339 C1343 1.400 . S
C1340 H1325 0.960 . S
C1340 H1326 0.960 . S
C1340 H1327 0.960 . S
C1340 C1339 1.524 . S
C1341 C1338 1.403 . S
C1341 C1342 1.392 . S
C1341 C1345 1.495 . S
C1342 C1341 1.392 . S
C1342 C1343 1.385 . S
C1342 C1344 1.478 1_554 S
C1343 H1337 0.971 . S
C1343 C1339 1.400 . S
C1343 C1342 1.385 . S
C1344 C1342 1.478 1_556 S
C1344 C1346 1.381 . S
C1344 C1350 1.383 . S
C1345 C1341 1.495 . S
C1345 H1351 0.959 . S
C1345 H1352 0.961 . S
C1345 H1353 0.960 . S
C1346 C1344 1.381 . S
C1346 C1347 1.394 . S
C1346 H1354 0.930 . S
C1347 C1346 1.394 . S
C1347 C1348 1.383 . S
C1347 H1355 0.929 . S
C1348 C1347 1.383 . S
C1348 C1349 1.377 . S
C1349 H1333 0.930 . S
C1349 C1348 1.377 . S
C1349 C1350 1.379 . S
C1350 H1334 0.931 . S
C1350 C1344 1.383 . S
C1350 C1349 1.379 . S
H1351 C1345 0.959 . S
H1352 C1345 0.961 . S
H1353 C1345 0.960 . S
H1354 C1346 0.930 . S
H1355 C1347 0.929 . S
H1356 C1364 0.929 . S
H1357 C1366 0.930 . S
H1358 C1368 0.930 . S
H1359 C1371 0.929 . S
H1360 C1374 0.930 . S
H1361 C1376 0.960 . S
H1362 C1376 0.960 . S
H1363 C1376 0.960 . S
C1364 H1356 0.929 . S
C1364 C1365 1.377 . S
C1364 C1366 1.384 . S
C1365 C1364 1.377 . S
C1365 C1371 1.390 . S
C1366 H1357 0.930 . S
C1366 C1364 1.384 . S
C1366 C1367 1.372 . S
C1367 C1366 1.372 . S
C1367 C1368 1.400 . S
C1367 C1372 1.490 . S
C1368 H1358 0.930 . S
C1368 C1367 1.400 . S
C1368 C1371 1.386 . S
H1369 C1385 0.930 . S
H1370 C1386 0.931 . S
C1371 H1359 0.929 . S
C1371 C1365 1.390 . S
C1371 C1368 1.386 . S
C1372 C1367 1.490 . S
C1372 C1374 1.395 . S
C1372 C1375 1.403 . S
H1373 C1379 0.930 . S
C1374 H1360 0.930 . S
C1374 C1372 1.395 . S
C1374 C1377 1.403 . S
C1375 C1372 1.403 . S
C1375 C1376 1.524 . S
C1375 C1379 1.400 . S
C1376 H1361 0.960 . S
C1376 H1362 0.960 . S
C1376 H1363 0.960 . S
C1376 C1375 1.524 . S
C1377 C1374 1.403 . S
C1377 C1378 1.392 . S
C1377 C1381 1.495 . S
C1378 C1377 1.392 . S
C1378 C1379 1.385 . S
C1378 C1380 1.478 . S
C1379 H1373 0.930 . S
C1379 C1375 1.400 . S
C1379 C1378 1.385 . S
C1380 C1378 1.478 . S
C1380 C1382 1.381 . S
C1380 C1386 1.383 . S
C1381 C1377 1.495 . S
C1381 H1387 0.959 . S
C1381 H1388 0.961 . S
C1381 H1389 0.960 . S
C1382 C1380 1.381 . S
C1382 C1383 1.394 . S
C1382 H1390 0.930 . S
C1383 C1382 1.394 . S
C1383 C1384 1.383 . S
C1383 H1391 0.929 . S
C1384 C1383 1.383 . S
C1384 C1385 1.377 . S
C1385 H1369 0.930 . S
C1385 C1384 1.377 . S
C1385 C1386 1.379 . S
C1386 H1370 0.931 . S
C1386 C1380 1.383 . S
C1386 C1385 1.379 . S
H1387 C1381 0.959 . S
H1388 C1381 0.961 . S
H1389 C1381 0.960 . S
H1390 C1382 0.930 . S
H1391 C1383 0.929 . S
C556 C517 0.962 . S
C537 C51 0.961 . S
C573 C125 1.827 . S
C592 C447 1.842 . S
C609 C217 2.422 . S
C628 C466 2.413 . S
C645 C291 2.066 . S
C664 C475 2.092 . S
C700 C489 0.401 . S
C681 C347 0.428 . S
C717 C421 1.122 . S
C736 C508 1.124 . S
C753 C143 2.767 . S
C772 C461 2.790 . S
C789 C199 1.105 . S
C808 C480 1.104 . S
C825 C273 0.865 . S
C844 C494 0.876 . S
C880 C503 1.251 . S
C861 C365 1.255 . S
C916 C522 2.314 . S
C897 C439 2.301 . S
C952 C452 2.040 . S
C933 C69 2.057 . S
C969 C63 1.474 . S
C988 C467 1.533 . S
C1005 C137 1.355 . S
C1024 C479 1.372 . S
C1060 C493 1.357 . S
C1041 C187 1.336 . S
C1077 C261 1.466 . S
C1096 C509 1.534 . S
C1132 C521 1.260 . S
C1113 C359 1.223 . S
C1168 C451 1.194 . S
C1149 C433 1.148 . S
C1204 C523 1.481 . S
C1185 C113 1.491 . S
C1221 C211 1.416 . S
C1240 C453 1.456 . S
C1276 C465 1.467 . S
C1257 C285 1.420 . S
C1293 C335 1.252 . S
C1312 C481 1.240 . S
C1329 C409 1.431 . S
C1348 C495 1.469 . S
C1365 C39 1.765 . S
C1384 C507 1.802 . S
