# Generated by pormake.
# Topology dag, (6,3)-cn, num edge types: 1
# Building blocks:
#     Node 0, Type 0, BuildingBlock: IZENUY_clean_sbu_0, # of connection points: 6
#     Node 1, Type 0, BuildingBlock: IZENUY_clean_sbu_0, # of connection points: 6
#     Node 2, Type 0, BuildingBlock: IZENUY_clean_sbu_0, # of connection points: 6
#     Node 3, Type 0, BuildingBlock: IZENUY_clean_sbu_0, # of connection points: 6
#     Node 4, Type 1, BuildingBlock: VETTIZ_charged_linker_0, # of connection points: 3
#     Node 5, Type 1, BuildingBlock: VETTIZ_charged_linker_0, # of connection points: 3
#     Node 6, Type 1, BuildingBlock: VETTIZ_charged_linker_0, # of connection points: 3
#     Node 7, Type 1, BuildingBlock: VETTIZ_charged_linker_0, # of connection points: 3
#     Node 8, Type 1, BuildingBlock: VETTIZ_charged_linker_0, # of connection points: 3
#     Node 9, Type 1, BuildingBlock: VETTIZ_charged_linker_0, # of connection points: 3
#     Node 10, Type 1, BuildingBlock: VETTIZ_charged_linker_0, # of connection points: 3
#     Node 11, Type 1, BuildingBlock: VETTIZ_charged_linker_0, # of connection points: 3
#     Edge 12, Type (0, 1), BuildingBlock: TEMPAE_clean_linker_10, # of connection points: 2
#     Edge 13, Type (0, 1), BuildingBlock: TEMPAE_clean_linker_10, # of connection points: 2
#     Edge 14, Type (0, 1), BuildingBlock: TEMPAE_clean_linker_10, # of connection points: 2
#     Edge 15, Type (0, 1), BuildingBlock: TEMPAE_clean_linker_10, # of connection points: 2
#     Edge 16, Type (0, 1), BuildingBlock: TEMPAE_clean_linker_10, # of connection points: 2
#     Edge 17, Type (0, 1), BuildingBlock: TEMPAE_clean_linker_10, # of connection points: 2
#     Edge 18, Type (0, 1), BuildingBlock: TEMPAE_clean_linker_10, # of connection points: 2
#     Edge 19, Type (0, 1), BuildingBlock: TEMPAE_clean_linker_10, # of connection points: 2
#     Edge 20, Type (0, 1), BuildingBlock: TEMPAE_clean_linker_10, # of connection points: 2
#     Edge 21, Type (0, 1), BuildingBlock: TEMPAE_clean_linker_10, # of connection points: 2
#     Edge 22, Type (0, 1), BuildingBlock: TEMPAE_clean_linker_10, # of connection points: 2
#     Edge 23, Type (0, 1), BuildingBlock: TEMPAE_clean_linker_10, # of connection points: 2
#     Edge 24, Type (0, 1), BuildingBlock: TEMPAE_clean_linker_10, # of connection points: 2
#     Edge 25, Type (0, 1), BuildingBlock: TEMPAE_clean_linker_10, # of connection points: 2
#     Edge 26, Type (0, 1), BuildingBlock: TEMPAE_clean_linker_10, # of connection points: 2
#     Edge 27, Type (0, 1), BuildingBlock: TEMPAE_clean_linker_10, # of connection points: 2
#     Edge 28, Type (0, 1), BuildingBlock: TEMPAE_clean_linker_10, # of connection points: 2
#     Edge 29, Type (0, 1), BuildingBlock: TEMPAE_clean_linker_10, # of connection points: 2
#     Edge 30, Type (0, 1), BuildingBlock: TEMPAE_clean_linker_10, # of connection points: 2
#     Edge 31, Type (0, 1), BuildingBlock: TEMPAE_clean_linker_10, # of connection points: 2
#     Edge 32, Type (0, 1), BuildingBlock: TEMPAE_clean_linker_10, # of connection points: 2
#     Edge 33, Type (0, 1), BuildingBlock: TEMPAE_clean_linker_10, # of connection points: 2
#     Edge 34, Type (0, 1), BuildingBlock: TEMPAE_clean_linker_10, # of connection points: 2
#     Edge 35, Type (0, 1), BuildingBlock: TEMPAE_clean_linker_10, # of connection points: 2
# Relax obj value: 0.264
# Max RMSD: 0.202
# Mean RMSD: 0.161
data_MOF--net-dag--node1-IZENUY_clean_sbu_0--node2-VETTIZ_charged_linker_0--edge1-TEMPAE_clean_linker_10
_symmetry_space_group_name_H-M    P1
_symmetry_Int_Tables_number       1
_symmetry_cell_setting            triclinic
loop_
_symmetry_equiv_pos_as_xyz
'x, y, z'
_cell_length_a     47.977043
_cell_length_b     47.976012
_cell_length_c     41.562302
_cell_angle_alpha  93.28836
_cell_angle_beta   86.691606
_cell_angle_gamma 87.715282
loop_
_atom_site_label
_atom_site_type_symbol
_atom_site_fract_x
_atom_site_fract_y
_atom_site_fract_z
_atom_type_partial_charge
Fe0 Fe 0.21135 0.82721 0.08217 0.0
Fe1 Fe 0.15122 0.84305 0.06731 0.0
O2 O 0.17641 0.81783 0.07738 0.0
Fe3 Fe 0.16646 0.78316 0.08288 0.0
O4 O 0.17609 0.78569 0.12443 0.0
O5 O 0.21728 0.80289 0.11399 0.0
O6 O 0.20085 0.85357 0.11426 0.0
C7 C 0.18276 0.87299 0.11172 0.0
C8 C 0.22019 0.77585 0.05088 0.0
O9 O 0.16661 0.87233 0.08876 0.0
C10 C 0.13777 0.79447 0.03026 0.0
O11 O 0.21135 0.8533 0.05134 0.0
O12 O 0.17075 0.84915 0.03001 0.0
O13 O 0.20065 0.76696 0.06881 0.0
O14 O 0.22425 0.80164 0.05047 0.0
C15 C 0.12027 0.81589 0.11138 0.0
O16 O 0.13106 0.81826 0.04394 0.0
O17 O 0.1561 0.77875 0.04148 0.0
C18 C 0.19546 0.85729 0.02852 0.0
O19 O 0.1303 0.8387 0.10417 0.0
O20 O 0.13032 0.79301 0.09804 0.0
C21 C 0.19997 0.79186 0.13314 0.0
Fe22 Fe 0.70011 0.65748 0.52164 0.0
Fe23 Fe 0.65922 0.69771 0.56368 0.0
O24 O 0.66737 0.66466 0.54317 0.0
Fe25 Fe 0.64246 0.63857 0.54447 0.0
O26 O 0.66782 0.60909 0.54127 0.0
O27 O 0.7084 0.62777 0.54534 0.0
O28 O 0.71987 0.67874 0.5499 0.0
C29 C 0.71373 0.68866 0.5785 0.0
C30 C 0.66082 0.63303 0.48105 0.0
O31 O 0.68865 0.69388 0.58854 0.0
C32 C 0.60905 0.68754 0.53876 0.0
O33 O 0.69458 0.68635 0.49635 0.0
O34 O 0.67938 0.71767 0.53466 0.0
O35 O 0.64024 0.63766 0.50123 0.0
O36 O 0.68573 0.63525 0.48945 0.0
C37 C 0.63789 0.65917 0.60697 0.0
O38 O 0.62897 0.70386 0.54007 0.0
O39 O 0.612 0.66291 0.5477 0.0
C40 C 0.68904 0.71142 0.50604 0.0
O41 O 0.6378 0.68358 0.59672 0.0
O42 O 0.64357 0.63806 0.58787 0.0
C43 C 0.69303 0.60726 0.54826 0.0
Fe44 Fe 0.82648 0.21421 0.01018 0.0
Fe45 Fe 0.84449 0.15508 0.02625 0.0
O46 O 0.81884 0.17862 0.01351 0.0
Fe47 Fe 0.7857 0.16662 0.00383 0.0
O48 O 0.79065 0.17736 0.96295 0.0
O49 O 0.80413 0.21944 0.97633 0.0
O50 O 0.85492 0.2053 0.98025 0.0
C51 C 0.87505 0.18844 0.98437 0.0
C52 C 0.77326 0.21953 0.03692 0.0
O53 O 0.8741 0.17255 0.00767 0.0
C54 C 0.79435 0.13779 0.05733 0.0
O55 O 0.85042 0.21552 0.04336 0.0
O56 O 0.84631 0.17489 0.06433 0.0
O57 O 0.76664 0.19966 0.01771 0.0
O58 O 0.79851 0.22509 0.03971 0.0
C59 C 0.82337 0.12272 0.97816 0.0
O60 O 0.81953 0.13318 0.04686 0.0
O61 O 0.7786 0.15483 0.04412 0.0
C62 C 0.85322 0.19995 0.06671 0.0
O63 O 0.84445 0.13391 0.98901 0.0
O64 O 0.79892 0.13145 0.98819 0.0
C65 C 0.79563 0.20186 0.95558 0.0
Fe66 Fe 0.36057 0.35647 0.53938 0.0
Fe67 Fe 0.3042 0.3366 0.56512 0.0
O68 O 0.33574 0.33035 0.54107 0.0
Fe69 Fe 0.34267 0.29803 0.51859 0.0
O70 O 0.3739 0.29075 0.54001 0.0
O71 O 0.39094 0.33195 0.53362 0.0
O72 O 0.36485 0.3561 0.58223 0.0
C73 C 0.34519 0.36008 0.60368 0.0
C74 C 0.36234 0.33795 0.47617 0.0
O75 O 0.31991 0.35824 0.5967 0.0
C76 C 0.28748 0.30763 0.50831 0.0
O77 O 0.33499 0.38584 0.54498 0.0
O78 O 0.29426 0.36685 0.54315 0.0
O79 O 0.36285 0.31314 0.48524 0.0
O80 O 0.35752 0.35839 0.49641 0.0
C81 C 0.31698 0.28236 0.57734 0.0
O82 O 0.28305 0.31584 0.53781 0.0
O83 O 0.31204 0.30331 0.49601 0.0
C84 C 0.30936 0.3875 0.53949 0.0
O85 O 0.31204 0.30705 0.58875 0.0
O86 O 0.32352 0.27715 0.54761 0.0
C87 C 0.39394 0.30694 0.5414 0.0
C88 C 0.15482 0.07959 0.23749 0.0
C89 C 0.14793 0.06422 0.20948 0.0
C90 C 0.12697 0.07501 0.19068 0.0
C91 C 0.11969 0.11561 0.22797 0.0
C92 C 0.14062 0.1053 0.24608 0.0
C93 C 0.14577 0.12482 0.27453 0.0
H94 H 0.11719 0.24821 0.35946 0.0
C95 C 0.10879 0.14256 0.24367 0.0
C96 C 0.12411 0.14823 0.27078 0.0
H97 H 0.18044 0.18406 0.37407 0.0
H98 H 0.16412 0.15525 0.33069 0.0
H99 H 0.12396 0.24442 0.28105 0.0
H100 H 0.06748 0.20432 0.34666 0.0
H101 H 0.04882 0.21447 0.31381 0.0
H102 H 0.06346 0.24082 0.33977 0.0
H103 H 0.09708 0.26346 0.30617 0.0
H104 H 0.08982 0.24722 0.26763 0.0
C105 C 0.17608 0.13474 0.27014 0.0
C106 C 0.13957 0.10933 0.3057 0.0
C107 C 0.02662 0.19277 0.198 0.0
C108 C 0.01084 0.21752 0.20723 0.0
C109 C 0.01825 0.23394 0.23442 0.0
C110 C 0.04113 0.22575 0.25197 0.0
C111 C 0.05661 0.20081 0.24234 0.0
C112 C 0.04917 0.18489 0.21569 0.0
C113 C 0.06735 0.1588 0.20897 0.0
C114 C 0.08685 0.16136 0.23623 0.0
C115 C 0.08064 0.18601 0.25571 0.0
C116 C 0.08302 0.16048 0.17546 0.0
C117 C 0.04862 0.13334 0.2119 0.0
C118 C 0.12741 0.22792 0.35325 0.0
C119 C 0.15006 0.21838 0.37039 0.0
C120 C 0.16266 0.19175 0.36173 0.0
C121 C 0.15335 0.17511 0.33621 0.0
C122 C 0.13122 0.1851 0.31885 0.0
C123 C 0.1183 0.2109 0.32766 0.0
C124 C 0.09482 0.21768 0.30641 0.0
C125 C 0.0966 0.19215 0.28281 0.0
C126 C 0.11802 0.17322 0.29033 0.0
C127 C 0.1015 0.2447 0.28944 0.0
C128 C 0.0671 0.21966 0.32758 0.0
H129 H 0.0969 0.10742 0.18458 0.0
H130 H 0.17102 0.07189 0.25223 0.0
H131 H 0.12137 0.09588 0.3031 0.0
H132 H 0.13369 0.12364 0.32699 0.0
H133 H 0.15774 0.09567 0.31111 0.0
H134 H 0.18284 0.13536 0.24413 0.0
H135 H 0.19111 0.12049 0.28121 0.0
H136 H 0.17833 0.15632 0.28013 0.0
H137 H 0.02116 0.17928 0.17773 0.0
H138 H 0.00643 0.25313 0.24201 0.0
H139 H 0.04585 0.2391 0.27238 0.0
H140 H 0.08657 0.18253 0.16992 0.0
H141 H 0.07093 0.15111 0.15588 0.0
H142 H 0.10419 0.15034 0.17418 0.0
H143 H 0.03233 0.13728 0.232 0.0
H144 H 0.0602 0.11414 0.21775 0.0
H145 H 0.03776 0.12903 0.18937 0.0
H146 H 0.12107 0.06334 0.16921 0.0
C147 C 0.11282 0.10055 0.19977 0.0
C148 C 0.38421 0.47925 0.82537 0.0
C149 C 0.39989 0.45987 0.80422 0.0
C150 C 0.42903 0.46221 0.80011 0.0
C151 C 0.42553 0.50588 0.83243 0.0
C152 C 0.39754 0.50194 0.83949 0.0
C153 C 0.38396 0.52551 0.86105 0.0
H154 H 0.38851 0.65736 0.92612 0.0
C155 C 0.43204 0.53372 0.84617 0.0
C156 C 0.40806 0.545 0.86389 0.0
H157 H 0.32157 0.60014 0.9354 0.0
H158 H 0.35029 0.56369 0.90598 0.0
H159 H 0.44018 0.61225 0.93821 0.0
H160 H 0.40374 0.64072 0.85299 0.0
H161 H 0.4399 0.63743 0.84438 0.0
H162 H 0.42605 0.66199 0.87629 0.0
H163 H 0.4443 0.64686 0.92483 0.0
H164 H 0.46758 0.61801 0.90963 0.0
C165 C 0.37495 0.51385 0.89392 0.0
C166 C 0.35964 0.53868 0.84324 0.0
C167 C 0.51719 0.57986 0.80007 0.0
C168 C 0.52585 0.60743 0.80262 0.0
C169 C 0.51328 0.62615 0.82703 0.0
C170 C 0.49069 0.61805 0.84688 0.0
C171 C 0.48052 0.5911 0.84192 0.0
C172 C 0.49448 0.57218 0.81971 0.0
C173 C 0.48063 0.54467 0.81709 0.0
C174 C 0.45527 0.55057 0.84043 0.0
C175 C 0.45511 0.57791 0.85459 0.0
C176 C 0.50075 0.52168 0.82859 0.0
C177 C 0.47244 0.53965 0.78171 0.0
C178 C 0.38027 0.63683 0.92214 0.0
C179 C 0.35277 0.63155 0.93286 0.0
C180 C 0.34259 0.60471 0.92696 0.0
C181 C 0.35933 0.58358 0.91 0.0
C182 C 0.38639 0.58942 0.89835 0.0
C183 C 0.39664 0.61553 0.90486 0.0
C184 C 0.42559 0.61808 0.88967 0.0
C185 C 0.43129 0.58893 0.87377 0.0
C186 C 0.40805 0.57243 0.87861 0.0
C187 C 0.44561 0.62433 0.91682 0.0
C188 C 0.42405 0.6408 0.86465 0.0
H189 H 0.464 0.48647 0.80918 0.0
H190 H 0.36185 0.47756 0.8294 0.0
H191 H 0.36618 0.54108 0.81746 0.0
H192 H 0.35279 0.55981 0.8531 0.0
H193 H 0.34126 0.5253 0.84394 0.0
H194 H 0.38769 0.49477 0.89859 0.0
H195 H 0.35271 0.50817 0.89475 0.0
H196 H 0.37822 0.52873 0.91459 0.0
H197 H 0.52691 0.56502 0.78175 0.0
H198 H 0.51981 0.64748 0.82945 0.0
H199 H 0.48118 0.63346 0.86427 0.0
H200 H 0.51664 0.53064 0.84421 0.0
H201 H 0.5122 0.50983 0.80782 0.0
H202 H 0.48966 0.50687 0.84375 0.0
H203 H 0.462 0.5588 0.77329 0.0
H204 H 0.45769 0.52294 0.77833 0.0
H205 H 0.4912 0.53425 0.76529 0.0
H206 H 0.44154 0.44746 0.78401 0.0
C207 C 0.44197 0.48505 0.81433 0.0
C208 C 0.76174 0.86886 0.34223 0.0
C209 C 0.77369 0.84724 0.35919 0.0
C210 C 0.80141 0.83759 0.35048 0.0
C211 C 0.80417 0.86941 0.3075 0.0
C212 C 0.77731 0.87958 0.31648 0.0
C213 C 0.76773 0.90201 0.29513 0.0
H214 H 0.79313 0.9736 0.16122 0.0
C215 C 0.81386 0.88309 0.2783 0.0
C216 C 0.79253 0.90207 0.27066 0.0
H217 H 0.72461 0.9884 0.23296 0.0
H218 H 0.74216 0.94975 0.26261 0.0
H219 H 0.83898 0.96782 0.21253 0.0
H220 H 0.79495 0.9076 0.15676 0.0
H221 H 0.82831 0.89218 0.16055 0.0
H222 H 0.8248 0.92413 0.13982 0.0
H223 H 0.844 0.96205 0.16948 0.0
H224 H 0.86351 0.94185 0.19625 0.0
C225 C 0.76382 0.92997 0.3158 0.0
C226 C 0.74099 0.89264 0.27928 0.0
C227 C 0.91037 0.85752 0.22489 0.0
C228 C 0.92367 0.86405 0.19527 0.0
C229 C 0.90838 0.88006 0.17423 0.0
C230 C 0.88126 0.89056 0.18313 0.0
C231 C 0.86882 0.88477 0.21324 0.0
C232 C 0.88292 0.86769 0.23306 0.0
C233 C 0.86507 0.86139 0.26254 0.0
C234 C 0.83864 0.87892 0.25792 0.0
C235 C 0.84124 0.8929 0.2293 0.0
C236 C 0.87975 0.87195 0.29284 0.0
C237 C 0.85996 0.82958 0.26087 0.0
C238 C 0.7815 0.96809 0.18292 0.0
C239 C 0.7572 0.98357 0.19451 0.0
C240 C 0.74325 0.97651 0.22349 0.0
C241 C 0.75356 0.95424 0.24067 0.0
C242 C 0.77835 0.93936 0.229 0.0
C243 C 0.79186 0.94655 0.2006 0.0
C244 C 0.81907 0.93035 0.19296 0.0
C245 C 0.8199 0.91226 0.22159 0.0
C246 C 0.79585 0.91723 0.24241 0.0
C247 C 0.84278 0.95142 0.19254 0.0
C248 C 0.81694 0.91273 0.16078 0.0
H249 H 0.83752 0.84014 0.31932 0.0
H250 H 0.74065 0.87701 0.34861 0.0
H251 H 0.74371 0.87053 0.26959 0.0
H252 H 0.7358 0.90495 0.25867 0.0
H253 H 0.72276 0.89415 0.29713 0.0
H254 H 0.77782 0.93046 0.33624 0.0
H255 H 0.742 0.93324 0.3262 0.0
H256 H 0.76949 0.94817 0.30202 0.0
H257 H 0.92107 0.84508 0.24167 0.0
H258 H 0.91729 0.88449 0.15065 0.0
H259 H 0.87106 0.90289 0.1662 0.0
H260 H 0.88783 0.89308 0.28954 0.0
H261 H 0.89773 0.85772 0.29744 0.0
H262 H 0.86555 0.87417 0.31479 0.0
H263 H 0.86333 0.82006 0.23583 0.0
H264 H 0.8381 0.82509 0.26814 0.0
H265 H 0.87426 0.81816 0.27614 0.0
H266 H 0.81107 0.82074 0.36276 0.0
C267 C 0.81668 0.8486 0.32489 0.0
C268 C 0.72009 0.25949 0.72544 0.0
C269 C 0.74413 0.26838 0.74016 0.0
C270 C 0.75962 0.28951 0.72635 0.0
C271 C 0.72613 0.29385 0.68526 0.0
C272 C 0.71158 0.27239 0.69806 0.0
C273 C 0.68606 0.26602 0.68006 0.0
H274 H 0.59761 0.301 0.56671 0.0
C275 C 0.71097 0.30378 0.65789 0.0
C276 C 0.68768 0.28725 0.65439 0.0
H277 H 0.58925 0.2362 0.63422 0.0
H278 H 0.63468 0.2459 0.65353 0.0
H279 H 0.61915 0.34497 0.61591 0.0
H280 H 0.66378 0.28811 0.54547 0.0
H281 H 0.68137 0.31952 0.54551 0.0
H282 H 0.64551 0.31916 0.53445 0.0
H283 H 0.61933 0.34943 0.57332 0.0
H284 H 0.64588 0.36352 0.59762 0.0
C285 C 0.66004 0.27162 0.70382 0.0
C286 C 0.68962 0.23566 0.66517 0.0
C287 C 0.73916 0.39273 0.60616 0.0
C288 C 0.7275 0.40812 0.58203 0.0
C289 C 0.70602 0.39646 0.56449 0.0
C290 C 0.69528 0.37078 0.57203 0.0
C291 C 0.70582 0.35661 0.59764 0.0
C292 C 0.72806 0.36707 0.61349 0.0
C293 C 0.73679 0.34878 0.63971 0.0
C294 C 0.71533 0.32634 0.63779 0.0
C295 C 0.69705 0.33128 0.61337 0.0
C296 C 0.7336 0.36643 0.67222 0.0
C297 C 0.76685 0.33675 0.63057 0.0
C298 C 0.60587 0.28843 0.58509 0.0
C299 C 0.58992 0.26773 0.5989 0.0
C300 C 0.60113 0.25233 0.62335 0.0
C301 C 0.62747 0.25806 0.63454 0.0
C302 C 0.6426 0.27972 0.6215 0.0
C303 C 0.63192 0.29418 0.59683 0.0
C304 C 0.65014 0.31735 0.58687 0.0
C305 C 0.67357 0.31448 0.60964 0.0
C306 C 0.66899 0.2925 0.62995 0.0
C307 C 0.6329 0.34537 0.59346 0.0
C308 C 0.6607 0.31101 0.55116 0.0
H309 H 0.76318 0.31852 0.68992 0.0
H310 H 0.70797 0.24303 0.73523 0.0
H311 H 0.71178 0.23053 0.6568 0.0
H312 H 0.67766 0.23218 0.64348 0.0
H313 H 0.68344 0.22041 0.68312 0.0
H314 H 0.66308 0.28964 0.72115 0.0
H315 H 0.65597 0.25318 0.7181 0.0
H316 H 0.64098 0.27751 0.69174 0.0
H317 H 0.75595 0.4009 0.61974 0.0
H318 H 0.69641 0.40788 0.54599 0.0
H319 H 0.67841 0.3635 0.55841 0.0
H320 H 0.71371 0.37932 0.67396 0.0
H321 H 0.75103 0.38083 0.67452 0.0
H322 H 0.73263 0.3537 0.69347 0.0
H323 H 0.77131 0.33509 0.60394 0.0
H324 H 0.77018 0.31517 0.6381 0.0
H325 H 0.7827 0.35022 0.64113 0.0
H326 H 0.77813 0.29682 0.73734 0.0
C327 C 0.75079 0.30222 0.69895 0.0
C328 C 0.61888 0.51591 0.25745 0.0
C329 C 0.60499 0.53555 0.27988 0.0
C330 C 0.57577 0.53493 0.28523 0.0
C331 C 0.57553 0.49246 0.25106 0.0
C332 C 0.60361 0.49478 0.24293 0.0
C333 C 0.61482 0.4716 0.21913 0.0
H334 H 0.6001 0.34261 0.15039 0.0
C335 C 0.56664 0.46592 0.23613 0.0
C336 C 0.58925 0.45398 0.21646 0.0
H337 H 0.6691 0.39684 0.13651 0.0
H338 H 0.64339 0.43407 0.16833 0.0
H339 H 0.58822 0.35966 0.22547 0.0
H340 H 0.55111 0.38918 0.14116 0.0
H341 H 0.52399 0.3874 0.17116 0.0
H342 H 0.54356 0.35585 0.15635 0.0
H343 H 0.56614 0.33877 0.20139 0.0
H344 H 0.55195 0.3625 0.23384 0.0
C345 C 0.63907 0.45575 0.23429 0.0
C346 C 0.62334 0.48447 0.18679 0.0
C347 C 0.48006 0.42333 0.28427 0.0
C348 C 0.46948 0.39655 0.28064 0.0
C349 C 0.4801 0.37823 0.25476 0.0
C350 C 0.5026 0.38573 0.23441 0.0
C351 C 0.51472 0.41162 0.24034 0.0
C352 C 0.5027 0.43037 0.26409 0.0
C353 C 0.51838 0.45679 0.26732 0.0
C354 C 0.54254 0.45037 0.24236 0.0
C355 C 0.5405 0.42372 0.22701 0.0
C356 C 0.52828 0.4596 0.30219 0.0
C357 C 0.49916 0.48157 0.25832 0.0
C358 C 0.60961 0.36255 0.15418 0.0
C359 C 0.63671 0.36675 0.14115 0.0
C360 C 0.6482 0.39314 0.14614 0.0
C361 C 0.63334 0.41467 0.1648 0.0
C362 C 0.6068 0.40975 0.17881 0.0
C363 C 0.59504 0.38431 0.17271 0.0
C364 C 0.56651 0.383 0.18937 0.0
C365 C 0.56295 0.41202 0.20612 0.0
C366 C 0.58693 0.42731 0.20042 0.0
C367 C 0.56796 0.35973 0.21371 0.0
C368 C 0.54503 0.37841 0.16335 0.0
H369 H 0.53892 0.51347 0.2767 0.0
H370 H 0.64126 0.51639 0.25241 0.0
H371 H 0.61269 0.50528 0.18476 0.0
H372 H 0.6171 0.47162 0.16561 0.0
H373 H 0.64621 0.48736 0.18433 0.0
H374 H 0.63287 0.45096 0.25952 0.0
H375 H 0.65787 0.46851 0.2349 0.0
H376 H 0.64521 0.43554 0.2214 0.0
H377 H 0.47181 0.43795 0.30366 0.0
H378 H 0.47211 0.35752 0.25146 0.0
H379 H 0.51053 0.37055 0.21583 0.0
H380 H 0.53832 0.43957 0.30872 0.0
H381 H 0.51037 0.46498 0.31989 0.0
H382 H 0.54384 0.47553 0.30571 0.0
H383 H 0.48179 0.4744 0.24372 0.0
H384 H 0.5105 0.49611 0.24301 0.0
H385 H 0.4896 0.49342 0.28023 0.0
H386 H 0.56462 0.54993 0.30231 0.0
C387 C 0.56094 0.51357 0.27075 0.0
C388 C 0.2076 0.15852 0.74351 0.0
C389 C 0.23641 0.15345 0.73598 0.0
C390 C 0.25089 0.13343 0.75319 0.0
C391 C 0.2086 0.12587 0.7859 0.0
C392 C 0.19445 0.14528 0.76892 0.0
C393 C 0.16516 0.15185 0.78274 0.0
H394 H 0.06668 0.13845 0.90303 0.0
C395 C 0.18929 0.11754 0.81231 0.0
C396 C 0.16402 0.13322 0.81094 0.0
H397 H 0.0608 0.18891 0.82078 0.0
H398 H 0.10693 0.17146 0.79998 0.0
H399 H 0.08827 0.08577 0.86346 0.0
H400 H 0.13144 0.14787 0.9168 0.0
H401 H 0.14596 0.11505 0.9254 0.0
H402 H 0.10928 0.12303 0.93483 0.0
H403 H 0.09252 0.08366 0.9058 0.0
H404 H 0.11788 0.06768 0.8758 0.0
C405 C 0.14464 0.14294 0.757 0.0
C406 C 0.16265 0.18331 0.79391 0.0
C407 C 0.21674 0.03907 0.88376 0.0
C408 C 0.20244 0.02758 0.91013 0.0
C409 C 0.17628 0.03968 0.92181 0.0
C410 C 0.16428 0.06239 0.90741 0.0
C411 C 0.17837 0.07328 0.88079 0.0
C412 C 0.20434 0.06203 0.86956 0.0
C413 C 0.21627 0.07732 0.8415 0.0
C414 C 0.19228 0.09813 0.83661 0.0
C415 C 0.17032 0.09563 0.85989 0.0
C416 C 0.2218 0.0562 0.8121 0.0
C417 C 0.24269 0.09208 0.85214 0.0
C418 C 0.07559 0.14601 0.88078 0.0
C419 C 0.06064 0.16549 0.8638 0.0
C420 C 0.07227 0.17412 0.83433 0.0
C421 C 0.09898 0.164 0.82242 0.0
C422 C 0.11399 0.14488 0.8401 0.0
C423 C 0.10194 0.13582 0.8684 0.0
C424 C 0.1198 0.11395 0.88278 0.0
C425 C 0.14524 0.11222 0.85922 0.0
C426 C 0.14188 0.13055 0.83452 0.0
C427 C 0.10391 0.08633 0.88222 0.0
C428 C 0.12697 0.12529 0.91685 0.0
H429 H 0.24922 0.10471 0.79029 0.0
H430 H 0.19542 0.17317 0.73058 0.0
H431 H 0.18239 0.19023 0.80402 0.0
H432 H 0.14646 0.18824 0.81354 0.0
H433 H 0.15834 0.19641 0.77342 0.0
H434 H 0.1527 0.12361 0.74282 0.0
H435 H 0.14165 0.1595 0.73977 0.0
H436 H 0.12405 0.13763 0.7677 0.0
H437 H 0.23697 0.03036 0.87445 0.0
H438 H 0.16458 0.03101 0.94168 0.0
H439 H 0.14426 0.07034 0.91741 0.0
H440 H 0.20323 0.04345 0.80861 0.0
H441 H 0.23987 0.04172 0.81567 0.0
H442 H 0.22599 0.0664 0.7893 0.0
H443 H 0.242 0.0964 0.87877 0.0
H444 H 0.2446 0.11284 0.84211 0.0
H445 H 0.26198 0.07905 0.84514 0.0
H446 H 0.27311 0.12917 0.74843 0.0
C447 C 0.23708 0.11947 0.77787 0.0
C448 C 0.25698 0.71325 0.36242 0.0
C449 C 0.26635 0.73694 0.34737 0.0
C450 C 0.28817 0.75182 0.36058 0.0
C451 C 0.29224 0.71829 0.40169 0.0
C452 C 0.27007 0.70443 0.38953 0.0
C453 C 0.26315 0.67924 0.40786 0.0
H454 H 0.2981 0.58913 0.51931 0.0
C455 C 0.30218 0.70285 0.42887 0.0
C456 C 0.28491 0.68019 0.43295 0.0
H457 H 0.23072 0.58383 0.45484 0.0
H458 H 0.24136 0.62905 0.43561 0.0
H459 H 0.34167 0.61033 0.46875 0.0
H460 H 0.28742 0.65488 0.54194 0.0
H461 H 0.31883 0.67248 0.54048 0.0
H462 H 0.31893 0.63656 0.55146 0.0
H463 H 0.34655 0.60901 0.51115 0.0
H464 H 0.36137 0.63577 0.4878 0.0
C465 C 0.26751 0.65305 0.38418 0.0
C466 C 0.23309 0.68386 0.42349 0.0
C467 C 0.39318 0.72798 0.4782 0.0
C468 C 0.40845 0.71604 0.50226 0.0
C469 C 0.39638 0.69494 0.52006 0.0
C470 C 0.37032 0.68489 0.51295 0.0
C471 C 0.35614 0.69578 0.48754 0.0
C472 C 0.36708 0.71763 0.47137 0.0
C473 C 0.34855 0.72701 0.44566 0.0
C474 C 0.32536 0.70638 0.44827 0.0
C475 C 0.33018 0.68791 0.47255 0.0
C476 C 0.36551 0.72324 0.41273 0.0
C477 C 0.33768 0.75743 0.45499 0.0
C478 C 0.28517 0.59801 0.50164 0.0
C479 C 0.26352 0.5829 0.48859 0.0
C480 C 0.24763 0.59497 0.46508 0.0
C481 C 0.2539 0.6212 0.45393 0.0
C482 C 0.27655 0.63537 0.46605 0.0
C483 C 0.29138 0.62397 0.48999 0.0
C484 C 0.31536 0.64137 0.49928 0.0
C485 C 0.31265 0.66506 0.47681 0.0
C486 C 0.29001 0.66134 0.45727 0.0
C487 C 0.34277 0.62335 0.49165 0.0
C488 C 0.31017 0.6518 0.5352 0.0
H489 H 0.31795 0.75452 0.39624 0.0
H490 H 0.23998 0.70165 0.35309 0.0
H491 H 0.2286 0.70625 0.43124 0.0
H492 H 0.22978 0.67255 0.44572 0.0
H493 H 0.21732 0.67762 0.40621 0.0
H494 H 0.2857 0.65525 0.36678 0.0
H495 H 0.24886 0.6499 0.36997 0.0
H496 H 0.27245 0.63374 0.39626 0.0
H497 H 0.40169 0.7445 0.46444 0.0
H498 H 0.40771 0.68518 0.53853 0.0
H499 H 0.36269 0.66831 0.52681 0.0
H500 H 0.37751 0.70283 0.41059 0.0
H501 H 0.38067 0.73999 0.41012 0.0
H502 H 0.35233 0.72304 0.39187 0.0
H503 H 0.33665 0.76192 0.48161 0.0
H504 H 0.31605 0.76152 0.44803 0.0
H505 H 0.35153 0.77277 0.44402 0.0
H506 H 0.2958 0.77007 0.34931 0.0
C507 C 0.30112 0.74264 0.38768 0.0
C508 C 0.86613 0.91861 0.84757 0.0
C509 C 0.87793 0.93473 0.87219 0.0
C510 C 0.90281 0.92481 0.88488 0.0
C511 C 0.90338 0.88299 0.84935 0.0
C512 C 0.87909 0.89278 0.83673 0.0
C513 C 0.86887 0.8724 0.81163 0.0
H514 H 0.88283 0.74653 0.72855 0.0
C515 C 0.91104 0.85513 0.83363 0.0
C516 C 0.89085 0.84868 0.81167 0.0
H517 H 0.81981 0.81271 0.72203 0.0
H518 H 0.84169 0.84116 0.76181 0.0
H519 H 0.93624 0.78829 0.7329 0.0
H520 H 0.88426 0.7518 0.80627 0.0
H521 H 0.91902 0.75004 0.81751 0.0
H522 H 0.90991 0.73121 0.78104 0.0
H523 H 0.93631 0.75131 0.73772 0.0
H524 H 0.95748 0.77371 0.76139 0.0
C525 C 0.86956 0.88652 0.77896 0.0
C526 C 0.83958 0.86342 0.82372 0.0
C527 C 0.99829 0.80323 0.86483 0.0
C528 C 0.01001 0.77629 0.85712 0.0
C529 C 0.99672 0.75813 0.83567 0.0
C530 C 0.97218 0.7671 0.82155 0.0
C531 C 0.9607 0.79431 0.82952 0.0
C532 C 0.97369 0.81165 0.85118 0.0
C533 C 0.95784 0.839 0.85894 0.0
C534 C 0.93349 0.83576 0.83764 0.0
C535 C 0.93527 0.80969 0.82019 0.0
C536 C 0.97676 0.8627 0.84841 0.0
C537 C 0.94834 0.8408 0.8954 0.0
C538 C 0.8738 0.76714 0.73582 0.0
C539 C 0.84969 0.77747 0.72188 0.0
C540 C 0.83864 0.80445 0.7319 0.0
C541 C 0.85127 0.82092 0.75523 0.0
C542 C 0.87527 0.8104 0.76896 0.0
C543 C 0.88631 0.78402 0.75915 0.0
C544 C 0.91216 0.77666 0.7764 0.0
C545 C 0.91473 0.80302 0.79797 0.0
C546 C 0.89287 0.82257 0.79358 0.0
C547 C 0.93697 0.77205 0.75093 0.0
C548 C 0.90631 0.75097 0.79625 0.0
H549 H 0.93451 0.89286 0.88423 0.0
H550 H 0.84694 0.92565 0.83748 0.0
H551 H 0.83844 0.86165 0.85034 0.0
H552 H 0.83443 0.84258 0.8137 0.0
H553 H 0.823 0.87892 0.81813 0.0
H554 H 0.88693 0.90116 0.77713 0.0
H555 H 0.84978 0.89871 0.77613 0.0
H556 H 0.87365 0.87143 0.75795 0.0
H557 H 0.00769 0.81727 0.88206 0.0
H558 H 0.00534 0.73711 0.82986 0.0
H559 H 0.96294 0.75249 0.80525 0.0
H560 H 0.98835 0.85667 0.82493 0.0
H561 H 0.9924 0.86721 0.86649 0.0
H562 H 0.96492 0.88227 0.84441 0.0
H563 H 0.94635 0.81968 0.90484 0.0
H564 H 0.92733 0.85102 0.90036 0.0
H565 H 0.96353 0.85198 0.91004 0.0
H566 H 0.9125 0.93708 0.90352 0.0
C567 C 0.91561 0.89914 0.87356 0.0
C568 C 0.20571 0.90912 0.14606 0.0
C569 C 0.18157 0.8984 0.13352 0.0
C570 C 0.20472 0.93559 0.16267 0.0
C571 C 0.17897 0.95126 0.16696 0.0
C572 C 0.15429 0.93954 0.15619 0.0
C573 C 0.15595 0.91336 0.13947 0.0
C574 C 0.23142 0.9474 0.17388 0.0
C575 C 0.12629 0.95529 0.1607 0.0
C576 C 0.16237 0.0157 0.22259 0.0
C577 C 0.16144 0.03642 0.20018 0.0
C578 C 0.17038 0.98792 0.21263 0.0
C579 C 0.17768 0.98092 0.17958 0.0
C580 C 0.17908 0.00226 0.15745 0.0
C581 C 0.17081 0.02976 0.16801 0.0
C582 C 0.16875 0.96579 0.23697 0.0
C583 C 0.18711 0.99575 0.12206 0.0
H584 H 0.22554 0.89754 0.14145 0.0
H585 H 0.13719 0.90485 0.13021 0.0
H586 H 0.23815 0.96379 0.1577 0.0
H587 H 0.22812 0.95736 0.19863 0.0
H588 H 0.24855 0.93109 0.17362 0.0
H589 H 0.10884 0.94223 0.15341 0.0
H590 H 0.12209 0.96286 0.18631 0.0
H591 H 0.12649 0.97387 0.14598 0.0
H592 H 0.15513 0.02084 0.2475 0.0
H593 H 0.17055 0.0459 0.1508 0.0
H594 H 0.18691 0.95067 0.23327 0.0
H595 H 0.14959 0.95396 0.23378 0.0
H596 H 0.16794 0.97502 0.26216 0.0
H597 H 0.20619 0.9818 0.11897 0.0
H598 H 0.19091 0.01496 0.10903 0.0
H599 H 0.17004 0.98464 0.11062 0.0
C600 C 0.60909 0.67536 0.65713 0.0
C601 C 0.6267 0.65485 0.64012 0.0
C602 C 0.59517 0.66989 0.68658 0.0
C603 C 0.59935 0.64347 0.69948 0.0
C604 C 0.61874 0.6235 0.6836 0.0
C605 C 0.63201 0.62934 0.65395 0.0
C606 C 0.57443 0.69161 0.70257 0.0
C607 C 0.62414 0.59526 0.69686 0.0
C608 C 0.56923 0.63109 0.78407 0.0
C609 C 0.54493 0.61733 0.77694 0.0
C610 C 0.58735 0.63983 0.75913 0.0
C611 C 0.58053 0.63513 0.72658 0.0
C612 C 0.55561 0.62183 0.71949 0.0
C613 C 0.53826 0.61295 0.74473 0.0
C614 C 0.61393 0.65361 0.76748 0.0
C615 C 0.54728 0.61683 0.68518 0.0
H616 H 0.60495 0.69515 0.6466 0.0
H617 H 0.64595 0.61357 0.64113 0.0
H618 H 0.5529 0.68464 0.69955 0.0
H619 H 0.57723 0.69416 0.72886 0.0
H620 H 0.57635 0.71226 0.69202 0.0
H621 H 0.64263 0.58382 0.68432 0.0
H622 H 0.62745 0.59753 0.72306 0.0
H623 H 0.60564 0.5824 0.69385 0.0
H624 H 0.57429 0.63447 0.80904 0.0
H625 H 0.51918 0.60272 0.73931 0.0
H626 H 0.61475 0.67437 0.7571 0.0
H627 H 0.63225 0.64079 0.75669 0.0
H628 H 0.61586 0.65635 0.79397 0.0
H629 H 0.54626 0.63686 0.67314 0.0
H630 H 0.52668 0.60714 0.68395 0.0
H631 H 0.56322 0.60289 0.67127 0.0
C632 C 0.7537 0.11865 0.08883 0.0
C633 C 0.78266 0.11991 0.08228 0.0
C634 C 0.74279 0.09923 0.10981 0.0
C635 C 0.76129 0.08069 0.12435 0.0
C636 C 0.79052 0.08296 0.11911 0.0
C637 C 0.80079 0.10254 0.09827 0.0
C638 C 0.71153 0.09771 0.11514 0.0
C639 C 0.81108 0.06374 0.13428 0.0
C640 C 0.74733 0.03501 0.19396 0.0
C641 C 0.74886 0.0086 0.17754 0.0
C642 C 0.74821 0.0594 0.1768 0.0
C643 C 0.75079 0.05708 0.14262 0.0
C644 C 0.74898 0.03061 0.12614 0.0
C645 C 0.74803 0.00666 0.14385 0.0
C646 C 0.74942 0.08728 0.19526 0.0
C647 C 0.7513 0.02718 0.08974 0.0
H648 H 0.73952 0.13211 0.07674 0.0
H649 H 0.8232 0.10363 0.09378 0.0
H650 H 0.7044 0.0794 0.10081 0.0
H651 H 0.70553 0.09489 0.14089 0.0
H652 H 0.70034 0.11676 0.10759 0.0
H653 H 0.8331 0.06923 0.12911 0.0
H654 H 0.80681 0.06452 0.16084 0.0
H655 H 0.8087 0.04186 0.12499 0.0
H656 H 0.74795 0.03655 0.22004 0.0
H657 H 0.74887 0.9862 0.13121 0.0
H658 H 0.73752 0.10378 0.18354 0.0
H659 H 0.77148 0.09338 0.19553 0.0
H660 H 0.74103 0.08644 0.22065 0.0
H661 H 0.73802 0.04326 0.0791 0.0
H662 H 0.74516 0.00617 0.08077 0.0
H663 H 0.77326 0.02996 0.08098 0.0
C664 C 0.42854 0.26796 0.55138 0.0
C665 C 0.4219 0.29661 0.55 0.0
C666 C 0.45537 0.2585 0.55908 0.0
C667 C 0.47579 0.2782 0.56586 0.0
C668 C 0.469 0.30711 0.56494 0.0
C669 C 0.44226 0.31591 0.55693 0.0
C670 C 0.46196 0.22753 0.55967 0.0
C671 C 0.49004 0.32886 0.57235 0.0
C672 C 0.539 0.26495 0.61413 0.0
C673 C 0.56068 0.26451 0.58996 0.0
C674 C 0.51093 0.26731 0.60642 0.0
C675 C 0.50447 0.26909 0.57377 0.0
C676 C 0.52621 0.26641 0.54911 0.0
C677 C 0.55409 0.2643 0.55753 0.0
C678 C 0.4884 0.27024 0.63345 0.0
C679 C 0.52019 0.26785 0.51398 0.0
H680 H 0.41292 0.25292 0.54607 0.0
H681 H 0.43726 0.3381 0.55629 0.0
H682 H 0.47939 0.22122 0.54169 0.0
H683 H 0.46898 0.22246 0.5837 0.0
H684 H 0.44368 0.21494 0.55427 0.0
H685 H 0.48123 0.35052 0.57118 0.0
H686 H 0.49754 0.32646 0.59684 0.0
H687 H 0.50847 0.32588 0.55493 0.0
H688 H 0.54398 0.26533 0.63925 0.0
H689 H 0.57082 0.2636 0.53877 0.0
H690 H 0.47058 0.25717 0.62774 0.0
H691 H 0.48032 0.2923 0.63636 0.0
H692 H 0.49632 0.26426 0.6568 0.0
H693 H 0.50264 0.25449 0.50799 0.0
H694 H 0.53873 0.26122 0.49768 0.0
H695 H 0.51384 0.28965 0.50917 0.0
C696 C 0.67511 0.62462 0.42222 0.0
C697 C 0.65574 0.6216 0.44824 0.0
C698 C 0.67038 0.61341 0.39109 0.0
C699 C 0.64611 0.59823 0.38624 0.0
C700 C 0.62651 0.5952 0.41249 0.0
C701 C 0.6314 0.6072 0.44303 0.0
C702 C 0.69132 0.61768 0.3635 0.0
C703 C 0.60058 0.57874 0.40851 0.0
C704 C 0.61289 0.58206 0.30742 0.0
C705 C 0.62081 0.55372 0.30151 0.0
C706 C 0.62322 0.59777 0.33332 0.0
C707 C 0.64121 0.58453 0.35418 0.0
C708 C 0.65087 0.55649 0.34681 0.0
C709 C 0.64072 0.54148 0.32033 0.0
C710 C 0.61309 0.62786 0.33982 0.0
C711 C 0.66969 0.54143 0.36866 0.0
H712 H 0.69382 0.63599 0.42613 0.0
H713 H 0.61643 0.60466 0.46309 0.0
H714 H 0.70103 0.59726 0.35404 0.0
H715 H 0.68065 0.62693 0.34338 0.0
H716 H 0.70814 0.63154 0.37085 0.0
H717 H 0.58767 0.57804 0.43149 0.0
H718 H 0.58754 0.58813 0.39042 0.0
H719 H 0.60653 0.55699 0.39943 0.0
H720 H 0.59759 0.59153 0.29273 0.0
H721 H 0.64663 0.51948 0.31597 0.0
H722 H 0.63047 0.64103 0.34692 0.0
H723 H 0.59696 0.62938 0.36015 0.0
H724 H 0.60374 0.63643 0.31842 0.0
H725 H 0.68736 0.55442 0.37515 0.0
H726 H 0.67823 0.52108 0.35736 0.0
H727 H 0.65764 0.53743 0.39141 0.0
C728 C 0.91881 0.16417 0.96066 0.0
C729 C 0.90083 0.18804 0.96313 0.0
C730 C 0.94376 0.1632 0.94139 0.0
C731 C 0.95117 0.18688 0.92452 0.0
C732 C 0.93289 0.2109 0.92637 0.0
C733 C 0.90773 0.21112 0.9455 0.0
C734 C 0.96245 0.13698 0.93965 0.0
C735 C 0.94029 0.2366 0.90894 0.0
C736 C 0.02936 0.18782 0.90847 0.0
C737 C 0.03268 0.17587 0.87689 0.0
C738 C 0.0027 0.19356 0.92346 0.0
C739 C 0.97887 0.18666 0.90659 0.0
C740 C 0.98212 0.1761 0.87398 0.0
C741 C 0.00911 0.17098 0.85939 0.0
C742 C 0.00013 0.20524 0.95808 0.0
C743 C 0.95724 0.16822 0.85533 0.0
H744 H 0.91332 0.14609 0.97382 0.0
H745 H 0.89384 0.22959 0.94731 0.0
H746 H 0.96746 0.12961 0.9141 0.0
H747 H 0.98248 0.14154 0.95053 0.0
H748 H 0.95273 0.1198 0.9525 0.0
H749 H 0.92303 0.25286 0.91114 0.0
H750 H 0.9591 0.24563 0.91902 0.0
H751 H 0.94552 0.231 0.88297 0.0
H752 H 0.04772 0.19172 0.92183 0.0
H753 H 0.01181 0.16156 0.835 0.0
H754 H 0.9933 0.18872 0.97403 0.0
H755 H 0.98411 0.22266 0.96115 0.0
H756 H 0.02026 0.21294 0.96621 0.0
H757 H 0.9484 0.14911 0.86488 0.0
H758 H 0.96294 0.16403 0.82916 0.0
H759 H 0.94057 0.18502 0.85834 0.0
C760 C 0.26822 0.42061 0.5328 0.0
C761 C 0.29719 0.41482 0.53108 0.0
C762 C 0.2572 0.44716 0.52607 0.0
C763 C 0.27563 0.46817 0.51725 0.0
C764 C 0.30481 0.46213 0.51474 0.0
C765 C 0.31517 0.43564 0.52169 0.0
C766 C 0.22598 0.4529 0.52894 0.0
C767 C 0.32525 0.48381 0.50511 0.0
C768 C 0.25823 0.53241 0.47258 0.0
C769 C 0.25987 0.55356 0.49707 0.0
C770 C 0.26077 0.50411 0.4793 0.0
C771 C 0.26505 0.49686 0.51125 0.0
C772 C 0.26417 0.51807 0.53648 0.0
C773 C 0.26164 0.54618 0.52907 0.0
C774 C 0.2615 0.48217 0.45171 0.0
C775 C 0.26837 0.51124 0.57092 0.0
H776 H 0.2542 0.40461 0.53997 0.0
H777 H 0.33757 0.43128 0.51985 0.0
H778 H 0.22055 0.46913 0.54864 0.0
H779 H 0.21878 0.46119 0.50632 0.0
H780 H 0.21443 0.43389 0.5341 0.0
H781 H 0.34726 0.47549 0.50356 0.0
H782 H 0.32042 0.49153 0.48131 0.0
H783 H 0.32332 0.502 0.52294 0.0
H784 H 0.25699 0.53794 0.44776 0.0
H785 H 0.26243 0.56247 0.54815 0.0
H786 H 0.24952 0.4639 0.45856 0.0
H787 H 0.28345 0.47465 0.44561 0.0
H788 H 0.2529 0.49052 0.42976 0.0
H789 H 0.25581 0.49332 0.57768 0.0
H790 H 0.26261 0.52935 0.58822 0.0
H791 H 0.29067 0.50513 0.57333 0.0
C792 C 0.13191 0.76289 0.98077 0.0
C793 C 0.12145 0.78437 0.00309 0.0
C794 C 0.1169 0.75502 0.95377 0.0
C795 C 0.09088 0.76887 0.94931 0.0
C796 C 0.07983 0.78973 0.97257 0.0
C797 C 0.09525 0.79724 0.999 0.0
C798 C 0.12935 0.73271 0.92951 0.0
C799 C 0.052 0.80488 0.96908 0.0
C800 C 0.05882 0.78342 0.87137 0.0
C801 C 0.03506 0.76747 0.8736 0.0
C802 C 0.07932 0.78153 0.89393 0.0
C803 C 0.07564 0.76353 0.91953 0.0
C804 C 0.05326 0.74511 0.91967 0.0
C805 C 0.03313 0.7473 0.89657 0.0
C806 C 0.10304 0.80125 0.89251 0.0
C807 C 0.04874 0.72541 0.94631 0.0
H808 H 0.15215 0.75286 0.98385 0.0
H809 H 0.08679 0.81353 0.01641 0.0
H810 H 0.11339 0.71772 0.92263 0.0
H811 H 0.13675 0.74254 0.90724 0.0
H812 H 0.14731 0.72101 0.93887 0.0
H813 H 0.04576 0.8195 0.99019 0.0
H814 H 0.0531 0.817 0.94712 0.0
H815 H 0.0354 0.78965 0.96619 0.0
H816 H 0.06026 0.79897 0.85346 0.0
H817 H 0.01465 0.73505 0.89832 0.0
H818 H 0.1229 0.79057 0.89827 0.0
H819 H 0.09852 0.81892 0.91075 0.0
H820 H 0.10591 0.80993 0.86838 0.0
H821 H 0.06886 0.71572 0.95284 0.0
H822 H 0.03457 0.70861 0.93936 0.0
H823 H 0.03915 0.73728 0.96815 0.0
C824 C 0.80557 0.0796 0.95041 0.0
C825 C 0.8278 0.09676 0.95708 0.0
C826 C 0.81043 0.05343 0.93358 0.0
C827 C 0.83811 0.0443 0.92328 0.0
C828 C 0.86038 0.06218 0.92845 0.0
C829 C 0.85495 0.08816 0.94519 0.0
C830 C 0.78613 0.03503 0.9282 0.0
C831 C 0.89022 0.05331 0.91777 0.0
C832 C 0.86135 0.96783 0.91843 0.0
C833 C 0.86456 0.96179 0.885 0.0
C834 C 0.85132 0.99423 0.93118 0.0
C835 C 0.84447 0.01517 0.90996 0.0
C836 C 0.8464 0.00881 0.87618 0.0
C837 C 0.85638 0.98209 0.86407 0.0
C838 C 0.84932 7e-05 0.96736 0.0
C839 C 0.83928 0.0306 0.85283 0.0
H840 H 0.78451 0.08614 0.95931 0.0
H841 H 0.87224 0.10142 0.9498 0.0
H842 H 0.78692 0.02639 0.90281 0.0
H843 H 0.78744 0.01708 0.94381 0.0
H844 H 0.76569 0.04647 0.93388 0.0
H845 H 0.90479 0.0705 0.92136 0.0
H846 H 0.89719 0.03553 0.93171 0.0
H847 H 0.89174 0.04604 0.89189 0.0
H848 H 0.8672 0.95197 0.93465 0.0
H849 H 0.85891 0.97747 0.8382 0.0
H850 H 0.82833 0.00927 0.97548 0.0
H851 H 0.86486 0.01553 0.97417 0.0
H852 H 0.85323 0.98091 0.98052 0.0
H853 H 0.8188 0.04132 0.8602 0.0
H854 H 0.83857 0.02146 0.82774 0.0
H855 H 0.85523 0.04673 0.85308 0.0
C856 C 0.36602 0.36957 0.43068 0.0
C857 C 0.37215 0.34353 0.4429 0.0
C858 C 0.37829 0.37676 0.40103 0.0
C859 C 0.3975 0.35761 0.3835 0.0
C860 C 0.40239 0.33062 0.39471 0.0
C861 C 0.38945 0.32381 0.42422 0.0
C862 C 0.37213 0.40555 0.38961 0.0
C863 C 0.42295 0.30971 0.3769 0.0
C864 C 0.42582 0.37335 0.29925 0.0
C865 C 0.45038 0.38667 0.30637 0.0
C866 C 0.40811 0.36383 0.3241 0.0
C867 C 0.41559 0.36731 0.35653 0.0
C868 C 0.44061 0.38041 0.36364 0.0
C869 C 0.45757 0.39004 0.33851 0.0
C870 C 0.38139 0.35031 0.31576 0.0
C871 C 0.4496 0.38417 0.39783 0.0
H872 H 0.35228 0.38473 0.44481 0.0
H873 H 0.3942 0.30361 0.4335 0.0
H874 H 0.39047 0.41857 0.39294 0.0
H875 H 0.36832 0.40438 0.3635 0.0
H876 H 0.35369 0.41621 0.40317 0.0
H877 H 0.42153 0.28855 0.38626 0.0
H878 H 0.41945 0.30828 0.35072 0.0
H879 H 0.4445 0.31673 0.3796 0.0
H880 H 0.42032 0.37073 0.27435 0.0
H881 H 0.47687 0.39986 0.34396 0.0
H882 H 0.36324 0.36232 0.32819 0.0
H883 H 0.3812 0.32887 0.32442 0.0
H884 H 0.37863 0.34913 0.28937 0.0
H885 H 0.43369 0.39731 0.41284 0.0
H886 H 0.47004 0.39415 0.39908 0.0
H887 H 0.45126 0.3636 0.40867 0.0
C888 C 0.18324 0.88844 0.98485 0.0
C889 C 0.2036 0.87693 0.0037 0.0
C890 C 0.18891 0.91118 0.9662 0.0
C891 C 0.2158 0.92237 0.96579 0.0
C892 C 0.23722 0.90917 0.98223 0.0
C893 C 0.2308 0.88674 0.0013 0.0
C894 C 0.16539 0.92464 0.94908 0.0
C895 C 0.26641 0.9198 0.98145 0.0
C896 C 0.22222 0.97821 0.90523 0.0
C897 C 0.21318 0.00207 0.92473 0.0
C898 C 0.22583 0.95217 0.9187 0.0
C899 C 0.21981 0.95005 0.95221 0.0
C900 C 0.21328 0.97456 0.97228 0.0
C901 C 0.21034 0.00029 0.9583 0.0
C902 C 0.2339 0.92668 0.89669 0.0
C903 C 0.20681 0.97336 0.00819 0.0
H904 H 0.16224 0.88087 0.98622 0.0
H905 H 0.24681 0.8777 0.01537 0.0
H906 H 0.15986 0.94571 0.96066 0.0
H907 H 0.17201 0.92735 0.92349 0.0
H908 H 0.14635 0.91218 0.94978 0.0
H909 H 0.28181 0.90377 0.98865 0.0
H910 H 0.27292 0.92626 0.95703 0.0
H911 H 0.26692 0.9384 0.99852 0.0
H912 H 0.2246 0.97947 0.87927 0.0
H913 H 0.20404 0.01885 0.97351 0.0
H914 H 0.2149 0.91522 0.89141 0.0
H915 H 0.24831 0.91225 0.90835 0.0
H916 H 0.24401 0.93241 0.87341 0.0
H917 H 0.18706 0.96249 0.01247 0.0
H918 H 0.20445 0.99449 0.0207 0.0
H919 H 0.22356 0.9613 0.01926 0.0
C920 C 0.56066 0.6778 0.52445 0.0
C921 C 0.58091 0.69747 0.53028 0.0
C922 C 0.53324 0.68609 0.51863 0.0
C923 C 0.52567 0.7149 0.51853 0.0
C924 C 0.54615 0.73498 0.52329 0.0
C925 C 0.57364 0.72601 0.52911 0.0
C926 C 0.51217 0.6639 0.51339 0.0
C927 C 0.53885 0.76585 0.52315 0.0
C928 C 0.45684 0.72397 0.47982 0.0
C929 C 0.43793 0.72305 0.50674 0.0
C930 C 0.48576 0.72419 0.48345 0.0
C931 C 0.49591 0.72335 0.51472 0.0
C932 C 0.47678 0.72518 0.54209 0.0
C933 C 0.44801 0.72501 0.53776 0.0
C934 C 0.5054 0.72256 0.45365 0.0
C935 C 0.48669 0.72461 0.57587 0.0
H936 H 0.56615 0.65568 0.52482 0.0
H937 H 0.58918 0.74134 0.5335 0.0
H938 H 0.49521 0.66629 0.53278 0.0
H939 H 0.50245 0.66634 0.49008 0.0
H940 H 0.52169 0.6424 0.51326 0.0
H941 H 0.55768 0.77857 0.52358 0.0
H942 H 0.52741 0.77046 0.50149 0.0
H943 H 0.52481 0.7724 0.54462 0.0
H944 H 0.44926 0.72241 0.45574 0.0
H945 H 0.43343 0.72491 0.55868 0.0
H946 H 0.51376 0.70072 0.44882 0.0
H947 H 0.52343 0.73595 0.45716 0.0
H948 H 0.49471 0.72896 0.43207 0.0
H949 H 0.49462 0.70315 0.58008 0.0
H950 H 0.46964 0.73071 0.59447 0.0
H951 H 0.50415 0.7388 0.57904 0.0
C952 C 0.37585 0.38528 0.64079 0.0
C953 C 0.35164 0.37049 0.63639 0.0
C954 C 0.38146 0.39703 0.67123 0.0
C955 C 0.36276 0.39325 0.69811 0.0
C956 C 0.33891 0.37726 0.69411 0.0
C957 C 0.33339 0.36638 0.66313 0.0
C958 C 0.40688 0.41438 0.67434 0.0
C959 C 0.31899 0.3721 0.72239 0.0
C960 C 0.39553 0.41261 0.77652 0.0
C961 C 0.38579 0.44048 0.78217 0.0
C962 C 0.38625 0.39597 0.75071 0.0
C963 C 0.36747 0.40783 0.7297 0.0
C964 C 0.35622 0.43539 0.73663 0.0
C965 C 0.36534 0.4513 0.76301 0.0
C966 C 0.39804 0.36638 0.74466 0.0
C967 C 0.33652 0.44902 0.71456 0.0
H968 H 0.38997 0.38857 0.62017 0.0
H969 H 0.31483 0.35462 0.65982 0.0
H970 H 0.4003 0.43612 0.6829 0.0
H971 H 0.42044 0.40588 0.6925 0.0
H972 H 0.41946 0.41499 0.65112 0.0
H973 H 0.3033 0.35664 0.71591 0.0
H974 H 0.33069 0.36445 0.74264 0.0
H975 H 0.30776 0.39197 0.73124 0.0
H976 H 0.41125 0.40423 0.79148 0.0
H977 H 0.35804 0.47297 0.76711 0.0
H978 H 0.414 0.36544 0.72418 0.0
H979 H 0.3814 0.35209 0.73798 0.0
H980 H 0.40804 0.3587 0.76612 0.0
H981 H 0.34798 0.45255 0.69128 0.0
H982 H 0.32749 0.46944 0.72511 0.0
H983 H 0.31919 0.43522 0.70917 0.0
C984 C 0.07022 0.80491 0.11407 0.0
C985 C 0.09272 0.81696 0.12877 0.0
C986 C 0.04279 0.81022 0.12712 0.0
C987 C 0.03801 0.82719 0.15612 0.0
C988 C 0.06099 0.83765 0.17226 0.0
C989 C 0.0881 0.83294 0.15795 0.0
C990 C 0.01888 0.79952 0.10854 0.0
C991 C 0.05685 0.85496 0.20379 0.0
C992 C 0.97046 0.8712 0.16734 0.0
C993 C 0.95328 0.85462 0.18619 0.0
C994 C 0.99788 0.86231 0.1572 0.0
C995 C 0.00904 0.83675 0.16732 0.0
C996 C 0.99238 0.82035 0.18737 0.0
C997 C 0.96454 0.8292 0.19607 0.0
C998 C 0.01478 0.88019 0.13525 0.0
C999 C 0.00391 0.79343 0.19951 0.0
H1000 H 0.07392 0.79293 0.09118 0.0
H1001 H 0.10564 0.84224 0.16917 0.0
H1002 H 0.00411 0.78867 0.12453 0.0
H1003 H 0.00709 0.81743 0.09924 0.0
H1004 H 0.02617 0.78492 0.08777 0.0
H1005 H 0.07678 0.85741 0.2158 0.0
H1006 H 0.04814 0.87606 0.19933 0.0
H1007 H 0.0417 0.84529 0.22051 0.0
H1008 H 0.96256 0.89129 0.16038 0.0
H1009 H 0.95158 0.81594 0.21028 0.0
H1010 H 0.02246 0.8677 0.11297 0.0
H1011 H 0.03335 0.8875 0.14742 0.0
H1012 H 0.0025 0.89877 0.12823 0.0
H1013 H 0.00881 0.77791 0.17895 0.0
H1014 H 0.98903 0.78429 0.21703 0.0
H1015 H 0.02372 0.79712 0.21131 0.0
C1016 C 0.68606 0.55858 0.56336 0.0
C1017 C 0.70459 0.57963 0.55647 0.0
C1018 C 0.69576 0.53146 0.56855 0.0
C1019 C 0.72487 0.52505 0.56708 0.0
C1020 C 0.74385 0.54638 0.56146 0.0
C1021 C 0.73347 0.57352 0.55614 0.0
C1022 C 0.67468 0.50946 0.57471 0.0
C1023 C 0.77501 0.54036 0.56009 0.0
C1024 C 0.73661 0.45621 0.60451 0.0
C1025 C 0.73491 0.4375 0.57753 0.0
C1026 C 0.73663 0.48516 0.60115 0.0
C1027 C 0.73466 0.49555 0.57014 0.0
C1028 C 0.73603 0.47666 0.54258 0.0
C1029 C 0.73621 0.44783 0.54662 0.0
C1030 C 0.73573 0.50457 0.63111 0.0
C1031 C 0.73427 0.48683 0.50903 0.0
H1032 H 0.6637 0.56315 0.56418 0.0
H1033 H 0.74792 0.58969 0.55094 0.0
H1034 H 0.67714 0.49255 0.55525 0.0
H1035 H 0.67832 0.49987 0.59784 0.0
H1036 H 0.65279 0.51809 0.57576 0.0
H1037 H 0.78681 0.55983 0.56041 0.0
H1038 H 0.7809 0.52809 0.58068 0.0
H1039 H 0.78151 0.52762 0.53761 0.0
H1040 H 0.73565 0.44847 0.62853 0.0
H1041 H 0.73561 0.43342 0.52562 0.0
H1042 H 0.71385 0.51228 0.63727 0.0
H1043 H 0.74844 0.52301 0.62706 0.0
H1044 H 0.74341 0.49383 0.65209 0.0
H1045 H 0.71246 0.49418 0.50565 0.0
H1046 H 0.74038 0.47006 0.4901 0.0
H1047 H 0.74784 0.50473 0.50558 0.0
C1048 C 0.87955 0.23637 0.09672 0.0
C1049 C 0.87035 0.20897 0.09371 0.0
C1050 C 0.89977 0.24362 0.11854 0.0
C1051 C 0.91139 0.22284 0.13725 0.0
C1052 C 0.9007 0.19574 0.136 0.0
C1053 C 0.88013 0.18923 0.11451 0.0
C1054 C 0.90992 0.273 0.12001 0.0
C1055 C 0.91254 0.17288 0.15544 0.0
C1056 C 0.98765 0.22058 0.15522 0.0
C1057 C 0.98614 0.22494 0.18894 0.0
C1058 C 0.96353 0.22162 0.13784 0.0
C1059 C 0.93724 0.2278 0.15449 0.0
C1060 C 0.93586 0.23492 0.18811 0.0
C1061 C 0.96037 0.23319 0.20506 0.0
C1062 C 0.96603 0.21391 0.10199 0.0
C1063 C 0.90834 0.24251 0.20655 0.0
H1064 H 0.87181 0.2519 0.08111 0.0
H1065 H 0.87299 0.16808 0.1127 0.0
H1066 H 0.91319 0.28034 0.14527 0.0
H1067 H 0.93029 0.2734 0.10602 0.0
H1068 H 0.895 0.28785 0.10968 0.0
H1069 H 0.90047 0.15362 0.15365 0.0
H1070 H 0.93449 0.1675 0.14662 0.0
H1071 H 0.91276 0.18011 0.18123 0.0
H1072 H 0.00764 0.21496 0.14254 0.0
H1073 H 0.95903 0.23669 0.23111 0.0
H1074 H 0.95508 0.22998 0.08863 0.0
H1075 H 0.95593 0.19382 0.09705 0.0
H1076 H 0.98814 0.21162 0.09234 0.0
H1077 H 0.89503 0.25629 0.19265 0.0
H1078 H 0.91136 0.25317 0.23046 0.0
H1079 H 0.89691 0.22325 0.21055 0.0
C1080 C 0.18879 0.77688 0.18899 0.0
C1081 C 0.20868 0.78417 0.16518 0.0
C1082 C 0.1968 0.76973 0.21952 0.0
C1083 C 0.22539 0.76958 0.22623 0.0
C1084 C 0.24555 0.77695 0.20233 0.0
C1085 C 0.23693 0.78432 0.17217 0.0
C1086 C 0.1747 0.76228 0.24455 0.0
C1087 C 0.27628 0.77677 0.2085 0.0
C1088 C 0.24727 0.77337 0.31271 0.0
C1089 C 0.25444 0.74529 0.31706 0.0
C1090 C 0.23712 0.78153 0.28351 0.0
C1091 C 0.23442 0.76113 0.258 0.0
C1092 C 0.24132 0.7327 0.26242 0.0
C1093 C 0.25114 0.72511 0.29196 0.0
C1094 C 0.22966 0.812 0.27978 0.0
C1095 C 0.239 0.71039 0.23568 0.0
H1096 H 0.16689 0.77696 0.18387 0.0
H1097 H 0.25244 0.78988 0.15391 0.0
H1098 H 0.17864 0.74051 0.25132 0.0
H1099 H 0.17566 0.77609 0.26677 0.0
H1100 H 0.15329 0.76421 0.23583 0.0
H1101 H 0.28927 0.78315 0.1874 0.0
H1102 H 0.27976 0.79115 0.22962 0.0
H1103 H 0.28358 0.75553 0.21438 0.0
H1104 H 0.24957 0.78896 0.33221 0.0
H1105 H 0.257 0.70343 0.29511 0.0
H1106 H 0.20788 0.81448 0.2724 0.0
H1107 H 0.24349 0.82007 0.26045 0.0
H1108 H 0.23168 0.82503 0.30243 0.0
H1109 H 0.21742 0.71063 0.22741 0.0
H1110 H 0.24443 0.68914 0.24334 0.0
H1111 H 0.25316 0.7147 0.21466 0.0
C1112 C 0.76453 0.69184 0.58934 0.0
C1113 C 0.73629 0.69707 0.59952 0.0
C1114 C 0.78592 0.70155 0.60822 0.0
C1115 C 0.77887 0.71702 0.63779 0.0
C1116 C 0.75047 0.72149 0.64871 0.0
C1117 C 0.72956 0.71137 0.62954 0.0
C1118 C 0.816 0.69607 0.59602 0.0
C1119 C 0.74206 0.73795 0.68009 0.0
C1120 C 0.82973 0.73236 0.70258 0.0
C1121 C 0.83527 0.76032 0.69761 0.0
C1122 C 0.81264 0.7173 0.68211 0.0
C1123 C 0.8008 0.73062 0.65626 0.0
C1124 C 0.80772 0.75828 0.65004 0.0
C1125 C 0.82495 0.77274 0.67072 0.0
C1126 C 0.80599 0.68772 0.68926 0.0
C1127 C 0.79563 0.77323 0.62266 0.0
H1128 H 0.76996 0.68058 0.56634 0.0
H1129 H 0.70785 0.71538 0.63779 0.0
H1130 H 0.82519 0.71599 0.58951 0.0
H1131 H 0.82843 0.68757 0.61521 0.0
H1132 H 0.81808 0.68118 0.57445 0.0
H1133 H 0.71916 0.73826 0.68599 0.0
H1134 H 0.75288 0.72899 0.70025 0.0
H1135 H 0.74848 0.75983 0.67856 0.0
H1136 H 0.8376 0.72268 0.72337 0.0
H1137 H 0.82967 0.79417 0.6664 0.0
H1138 H 0.80799 0.67392 0.66683 0.0
H1139 H 0.78404 0.68725 0.69913 0.0
H1140 H 0.81986 0.67909 0.7071 0.0
H1141 H 0.79911 0.76031 0.59968 0.0
H1142 H 0.80487 0.79384 0.61951 0.0
H1143 H 0.77271 0.77661 0.62746 0.0
C1144 C 0.72366 0.2384 0.04356 0.0
C1145 C 0.75125 0.23882 0.05305 0.0
C1146 C 0.70316 0.25799 0.05717 0.0
C1147 C 0.71041 0.27825 0.08101 0.0
C1148 C 0.738 0.27825 0.09134 0.0
C1149 C 0.7581 0.25861 0.07718 0.0
C1150 C 0.67395 0.25745 0.04551 0.0
C1151 C 0.74645 0.29935 0.11698 0.0
C1152 C 0.66954 0.34754 0.09552 0.0
C1153 C 0.65365 0.34334 0.12405 0.0
C1154 C 0.68736 0.32614 0.08057 0.0
C1155 C 0.68946 0.30002 0.09467 0.0
C1156 C 0.67284 0.29538 0.12294 0.0
C1157 C 0.65507 0.31711 0.13727 0.0
C1158 C 0.70457 0.33176 0.05023 0.0
C1159 C 0.67465 0.26787 0.13878 0.0
H1160 H 0.71821 0.22322 0.0249 0.0
H1161 H 0.77931 0.25893 0.08485 0.0
H1162 H 0.65853 0.25594 0.0662 0.0
H1163 H 0.66888 0.27723 0.03409 0.0
H1164 H 0.67143 0.23969 0.0277 0.0
H1165 H 0.76848 0.29582 0.1232 0.0
H1166 H 0.74392 0.32075 0.10847 0.0
H1167 H 0.73267 0.29844 0.13923 0.0
H1168 H 0.66821 0.3677 0.08505 0.0
H1169 H 0.64304 0.31387 0.15953 0.0
H1170 H 0.70157 0.31536 0.03097 0.0
H1171 H 0.72708 0.33101 0.05507 0.0
H1172 H 0.69909 0.35248 0.04114 0.0
H1173 H 0.67161 0.25032 0.12095 0.0
H1174 H 0.65889 0.26696 0.15932 0.0
H1175 H 0.69577 0.26464 0.14786 0.0
C1176 C 0.32005 0.2596 0.62926 0.0
C1177 C 0.31051 0.25941 0.59807 0.0
C1178 C 0.31153 0.23957 0.65065 0.0
C1179 C 0.29206 0.21978 0.64096 0.0
C1180 C 0.28311 0.219 0.60903 0.0
C1181 C 0.29288 0.23859 0.58773 0.0
C1182 C 0.32235 0.24047 0.68407 0.0
C1183 C 0.26164 0.19891 0.5981 0.0
C1184 C 0.27443 0.15889 0.69228 0.0
C1185 C 0.25125 0.17021 0.71163 0.0
C1186 C 0.28839 0.17489 0.66959 0.0
C1187 C 0.27836 0.2025 0.66534 0.0
C1188 C 0.25495 0.21398 0.68455 0.0
C1189 C 0.24219 0.198 0.70789 0.0
C1190 C 0.31392 0.16235 0.65028 0.0
C1191 C 0.2432 0.24318 0.68041 0.0
H1192 H 0.33386 0.27569 0.63705 0.0
H1193 H 0.28536 0.23873 0.56362 0.0
H1194 H 0.30561 0.2489 0.70193 0.0
H1195 H 0.32848 0.21911 0.69076 0.0
H1196 H 0.34061 0.25387 0.68596 0.0
H1197 H 0.25872 0.19935 0.5718 0.0
H1198 H 0.26773 0.17727 0.60367 0.0
H1199 H 0.24127 0.20449 0.61141 0.0
H1200 H 0.28161 0.13745 0.69462 0.0
H1201 H 0.22509 0.20756 0.72337 0.0
H1202 H 0.33179 0.17607 0.65322 0.0
H1203 H 0.30995 0.16085 0.62423 0.0
H1204 H 0.31998 0.14118 0.65771 0.0
H1205 H 0.25879 0.25871 0.68679 0.0
H1206 H 0.2237 0.24824 0.69572 0.0
H1207 H 0.23865 0.24559 0.65481 0.0
C1208 C 0.71232 0.72717 0.45527 0.0
C1209 C 0.69706 0.73388 0.48471 0.0
C1210 C 0.72214 0.7481 0.43594 0.0
C1211 C 0.71632 0.77652 0.44606 0.0
C1212 C 0.69998 0.78351 0.47506 0.0
C1213 C 0.69065 0.76209 0.49415 0.0
C1214 C 0.73959 0.73977 0.40522 0.0
C1215 C 0.69301 0.81358 0.48632 0.0
C1216 C 0.76966 0.82471 0.41205 0.0
C1217 C 0.7571 0.83323 0.38438 0.0
C1218 C 0.75597 0.8074 0.43333 0.0
C1219 C 0.72888 0.79866 0.42701 0.0
C1220 C 0.71526 0.80882 0.40043 0.0
C1221 C 0.72959 0.8259 0.37931 0.0
C1222 C 0.77121 0.79707 0.46144 0.0
C1223 C 0.68624 0.80028 0.39316 0.0
H1224 H 0.71731 0.70547 0.44764 0.0
H1225 H 0.67868 0.76749 0.51672 0.0
H1226 H 0.7304 0.74938 0.38439 0.0
H1227 H 0.76093 0.74761 0.40702 0.0
H1228 H 0.74135 0.71675 0.40017 0.0
H1229 H 0.678 0.81546 0.50779 0.0
H1230 H 0.71237 0.82398 0.49261 0.0
H1231 H 0.68397 0.82504 0.46666 0.0
H1232 H 0.79068 0.8308 0.41648 0.0
H1233 H 0.71976 0.83225 0.35791 0.0
H1234 H 0.77604 0.77427 0.45746 0.0
H1235 H 0.75786 0.80034 0.48413 0.0
H1236 H 0.7911 0.80771 0.46464 0.0
H1237 H 0.68705 0.77804 0.38406 0.0
H1238 H 0.67706 0.8131 0.37467 0.0
H1239 H 0.67218 0.80217 0.41539 0.0
C1240 C 0.78969 0.23905 0.9164 0.0
C1241 C 0.78918 0.21077 0.92321 0.0
C1242 C 0.78304 0.24785 0.88605 0.0
C1243 C 0.77591 0.22785 0.86185 0.0
C1244 C 0.77582 0.19923 0.86835 0.0
C1245 C 0.78237 0.19103 0.89898 0.0
C1246 C 0.78323 0.27859 0.88004 0.0
C1247 C 0.76854 0.17729 0.84303 0.0
C1248 C 0.73197 0.25377 0.7958 0.0
C1249 C 0.75226 0.25671 0.7707 0.0
C1250 C 0.73937 0.24408 0.82546 0.0
C1251 C 0.76773 0.23706 0.83007 0.0
C1252 C 0.78827 0.23951 0.80465 0.0
C1253 C 0.78029 0.24942 0.77526 0.0
C1254 C 0.7169 0.24192 0.85209 0.0
C1255 C 0.81868 0.23197 0.80862 0.0
H1256 H 0.79496 0.25445 0.93493 0.0
H1257 H 0.78215 0.1691 0.90393 0.0
H1258 H 0.79763 0.28202 0.85892 0.0
H1259 H 0.76205 0.28617 0.87425 0.0
H1260 H 0.78976 0.2914 0.9012 0.0
H1261 H 0.77045 0.1558 0.85154 0.0
H1262 H 0.74678 0.18126 0.8362 0.0
H1263 H 0.78241 0.17844 0.82089 0.0
H1264 H 0.71033 0.25975 0.79252 0.0
H1265 H 0.79597 0.25141 0.75578 0.0
H1266 H 0.72124 0.25598 0.87318 0.0
H1267 H 0.71691 0.22032 0.86029 0.0
H1268 H 0.69574 0.24756 0.84433 0.0
H1269 H 0.82661 0.24561 0.82822 0.0
H1270 H 0.8319 0.23416 0.78615 0.0
H1271 H 0.82105 0.21011 0.81577 0.0
C1272 C 0.23602 0.30568 0.50072 0.0
C1273 C 0.26376 0.29951 0.48902 0.0
C1274 C 0.21352 0.29629 0.48342 0.0
C1275 C 0.21896 0.28006 0.45405 0.0
C1276 C 0.24687 0.27453 0.44168 0.0
C1277 C 0.26887 0.28447 0.45917 0.0
C1278 C 0.18402 0.30305 0.49701 0.0
C1279 C 0.2536 0.25714 0.41051 0.0
C1280 C 0.17165 0.22474 0.42346 0.0
C1281 C 0.16223 0.23644 0.39568 0.0
C1282 C 0.18857 0.23958 0.44414 0.0
C1283 C 0.19593 0.26695 0.43708 0.0
C1284 C 0.1843 0.27984 0.41084 0.0
C1285 C 0.16765 0.26436 0.39028 0.0
C1286 C 0.20047 0.22506 0.47192 0.0
C1287 C 0.19119 0.3092 0.40294 0.0
H1288 H 0.23187 0.31753 0.52361 0.0
H1289 H 0.29019 0.27967 0.44983 0.0
H1290 H 0.17098 0.31117 0.47813 0.0
H1291 H 0.17454 0.28374 0.50513 0.0
H1292 H 0.18323 0.31869 0.51785 0.0
H1293 H 0.27636 0.25555 0.40368 0.0
H1294 H 0.24611 0.23573 0.41295 0.0
H1295 H 0.24265 0.26629 0.39055 0.0
H1296 H 0.16695 0.20338 0.42814 0.0
H1297 H 0.16044 0.27355 0.36886 0.0
H1298 H 0.19815 0.23879 0.49439 0.0
H1299 H 0.22316 0.22035 0.46654 0.0
H1300 H 0.19023 0.20515 0.47635 0.0
H1301 H 0.19044 0.3232 0.42519 0.0
H1302 H 0.17663 0.31794 0.38589 0.0
H1303 H 0.21273 0.30909 0.39168 0.0
C1304 C 0.2584 0.76405 0.00808 0.0
C1305 C 0.24027 0.75557 0.033 0.0
C1306 C 0.27747 0.74486 0.99101 0.0
C1307 C 0.27865 0.71667 0.99941 0.0
C1308 C 0.26061 0.70807 0.02475 0.0
C1309 C 0.2415 0.72757 0.04107 0.0
C1310 C 0.29613 0.75465 0.96379 0.0
C1311 C 0.26148 0.67825 0.03464 0.0
C1312 C 0.30735 0.65902 0.93894 0.0
C1313 C 0.33431 0.65408 0.94926 0.0
C1314 C 0.28929 0.67988 0.95452 0.0
C1315 C 0.29831 0.69589 0.98133 0.0
C1316 C 0.32565 0.69122 0.99163 0.0
C1317 C 0.34344 0.67046 0.97527 0.0
C1318 C 0.26043 0.68452 0.94256 0.0
C1319 C 0.33584 0.70766 0.02038 0.0
H1320 H 0.25745 0.78563 0.00164 0.0
H1321 H 0.2277 0.7209 0.06045 0.0
H1322 H 0.31838 0.75056 0.96858 0.0
H1323 H 0.29224 0.74275 0.94091 0.0
H1324 H 0.2927 0.7773 0.96037 0.0
H1325 H 0.24664 0.67517 0.05553 0.0
H1326 H 0.25628 0.66397 0.01411 0.0
H1327 H 0.28288 0.67207 0.04112 0.0
H1328 H 0.30046 0.6466 0.91851 0.0
H1329 H 0.36426 0.66652 0.98331 0.0
H1330 H 0.25688 0.70677 0.93737 0.0
H1331 H 0.24442 0.67973 0.96155 0.0
H1332 H 0.2572 0.6713 0.92038 0.0
H1333 H 0.3339 0.73038 0.01683 0.0
H1334 H 0.35795 0.70205 0.02467 0.0
H1335 H 0.32266 0.70376 0.04235 0.0
loop_
_geom_bond_atom_site_label_1
_geom_bond_atom_site_label_2
_geom_bond_distance
_geom_bond_site_symmetry_2
_ccdc_geom_bond_type
Fe0 O2 1.918 . S
Fe0 O5 1.997 . S
Fe0 O6 2.002 . S
Fe0 O11 1.976 . S
Fe0 O14 1.996 . S
Fe1 O2 1.918 . S
Fe1 O9 1.997 . S
Fe1 O12 1.996 . S
Fe1 O16 1.976 . S
Fe1 O19 2.002 . S
O2 Fe0 1.918 . S
O2 Fe1 1.918 . S
O2 Fe3 1.918 . S
Fe3 O2 1.918 . S
Fe3 O4 2.002 . S
Fe3 O13 1.976 . S
Fe3 O17 1.996 . S
Fe3 O20 1.997 . S
O4 Fe3 2.002 . S
O4 C21 1.295 . S
O5 Fe0 1.997 . S
O5 C21 1.235 . S
O6 Fe0 2.002 . S
O6 C7 1.295 . S
C7 O6 1.295 . S
C7 O9 1.235 . S
C8 O13 1.287 . S
C8 O14 1.255 . S
O9 Fe1 1.997 . S
O9 C7 1.235 . S
C10 O16 1.287 . S
C10 O17 1.255 . S
O11 Fe0 1.976 . S
O11 C18 1.287 . S
O12 Fe1 1.996 . S
O12 C18 1.255 . S
O13 Fe3 1.976 . S
O13 C8 1.287 . S
O14 Fe0 1.996 . S
O14 C8 1.255 . S
C15 O19 1.295 . S
C15 O20 1.235 . S
O16 Fe1 1.976 . S
O16 C10 1.287 . S
O17 Fe3 1.996 . S
O17 C10 1.255 . S
C18 O11 1.287 . S
C18 O12 1.255 . S
O19 Fe1 2.002 . S
O19 C15 1.295 . S
O20 Fe3 1.997 . S
O20 C15 1.235 . S
C21 O4 1.295 . S
C21 O5 1.235 . S
Fe22 O24 1.918 . S
Fe22 O27 1.997 . S
Fe22 O28 2.002 . S
Fe22 O33 1.976 . S
Fe22 O36 1.996 . S
Fe23 O24 1.918 . S
Fe23 O31 1.997 . S
Fe23 O34 1.996 . S
Fe23 O38 1.976 . S
Fe23 O41 2.002 . S
O24 Fe22 1.918 . S
O24 Fe23 1.918 . S
O24 Fe25 1.918 . S
Fe25 O24 1.918 . S
Fe25 O26 2.002 . S
Fe25 O35 1.976 . S
Fe25 O39 1.996 . S
Fe25 O42 1.997 . S
O26 Fe25 2.002 . S
O26 C43 1.295 . S
O27 Fe22 1.997 . S
O27 C43 1.235 . S
O28 Fe22 2.002 . S
O28 C29 1.295 . S
C29 O28 1.295 . S
C29 O31 1.235 . S
C30 O35 1.287 . S
C30 O36 1.255 . S
O31 Fe23 1.997 . S
O31 C29 1.235 . S
C32 O38 1.287 . S
C32 O39 1.255 . S
O33 Fe22 1.976 . S
O33 C40 1.287 . S
O34 Fe23 1.996 . S
O34 C40 1.255 . S
O35 Fe25 1.976 . S
O35 C30 1.287 . S
O36 Fe22 1.996 . S
O36 C30 1.255 . S
C37 O41 1.295 . S
C37 O42 1.235 . S
O38 Fe23 1.976 . S
O38 C32 1.287 . S
O39 Fe25 1.996 . S
O39 C32 1.255 . S
C40 O33 1.287 . S
C40 O34 1.255 . S
O41 Fe23 2.002 . S
O41 C37 1.295 . S
O42 Fe25 1.997 . S
O42 C37 1.235 . S
C43 O26 1.295 . S
C43 O27 1.235 . S
Fe44 O46 1.918 . S
Fe44 O49 1.995 1_554 S
Fe44 O50 2.001 1_554 S
Fe44 O55 1.977 . S
Fe44 O58 1.996 . S
Fe45 O46 1.918 . S
Fe45 O53 1.997 1_554 S
Fe45 O56 1.996 . S
Fe45 O60 1.976 . S
Fe45 O63 2.002 1_554 S
O46 Fe44 1.918 . S
O46 Fe45 1.918 . S
O46 Fe47 1.919 . S
Fe47 O46 1.919 . S
Fe47 O48 1.996 1_554 S
Fe47 O57 1.979 . S
Fe47 O61 2.002 . S
Fe47 O64 1.993 1_554 S
O48 Fe47 1.996 1_556 S
O48 C65 1.295 . S
O49 Fe44 1.995 1_556 S
O49 C65 1.235 . S
O50 Fe44 2.001 1_556 S
O50 C51 1.295 . S
C51 O50 1.295 . S
C51 O53 1.235 . S
C52 O57 1.287 . S
C52 O58 1.255 . S
O53 Fe45 1.997 1_556 S
O53 C51 1.235 . S
C54 O60 1.287 . S
C54 O61 1.255 . S
O55 Fe44 1.977 . S
O55 C62 1.287 . S
O56 Fe45 1.996 . S
O56 C62 1.255 . S
O57 Fe47 1.979 . S
O57 C52 1.287 . S
O58 Fe44 1.996 . S
O58 C52 1.255 . S
C59 O63 1.295 . S
C59 O64 1.235 . S
O60 Fe45 1.976 . S
O60 C54 1.287 . S
O61 Fe47 2.002 . S
O61 C54 1.255 . S
C62 O55 1.287 . S
C62 O56 1.255 . S
O63 Fe45 2.002 1_556 S
O63 C59 1.295 . S
O64 Fe47 1.993 1_556 S
O64 C59 1.235 . S
C65 O48 1.295 . S
C65 O49 1.235 . S
Fe66 O68 1.918 . S
Fe66 O71 1.997 . S
Fe66 O72 2.002 . S
Fe66 O77 1.976 . S
Fe66 O80 1.996 . S
Fe67 O68 1.918 . S
Fe67 O75 1.997 . S
Fe67 O78 1.996 . S
Fe67 O82 1.976 . S
Fe67 O85 2.002 . S
O68 Fe66 1.918 . S
O68 Fe67 1.918 . S
O68 Fe69 1.918 . S
Fe69 O68 1.918 . S
Fe69 O70 2.002 . S
Fe69 O79 1.976 . S
Fe69 O83 1.996 . S
Fe69 O86 1.997 . S
O70 Fe69 2.002 . S
O70 C87 1.295 . S
O71 Fe66 1.997 . S
O71 C87 1.235 . S
O72 Fe66 2.002 . S
O72 C73 1.295 . S
C73 O72 1.295 . S
C73 O75 1.235 . S
C74 O79 1.287 . S
C74 O80 1.255 . S
O75 Fe67 1.997 . S
O75 C73 1.235 . S
C76 O82 1.287 . S
C76 O83 1.255 . S
O77 Fe66 1.976 . S
O77 C84 1.287 . S
O78 Fe67 1.996 . S
O78 C84 1.255 . S
O79 Fe69 1.976 . S
O79 C74 1.287 . S
O80 Fe66 1.996 . S
O80 C74 1.255 . S
C81 O85 1.295 . S
C81 O86 1.235 . S
O82 Fe67 1.976 . S
O82 C76 1.287 . S
O83 Fe69 1.996 . S
O83 C76 1.255 . S
C84 O77 1.287 . S
C84 O78 1.255 . S
O85 Fe67 2.002 . S
O85 C81 1.295 . S
O86 Fe69 1.997 . S
O86 C81 1.235 . S
C87 O70 1.295 . S
C87 O71 1.235 . S
C88 C89 1.391 . S
C88 C92 1.391 . S
C88 H130 0.948 . S
C89 C88 1.391 . S
C89 C90 1.391 . S
C90 C89 1.391 . S
C90 H146 0.947 . S
C90 C147 1.392 . S
C91 C92 1.391 . S
C91 C95 1.397 . S
C91 C147 1.419 . S
C92 C88 1.391 . S
C92 C91 1.391 . S
C92 C93 1.399 . S
C93 C92 1.399 . S
C93 C96 1.396 . S
C93 C105 1.453 . S
C93 C106 1.684 . S
H94 C118 0.948 . S
C95 C91 1.397 . S
C95 C96 1.394 . S
C95 C114 1.723 . S
C96 C93 1.396 . S
C96 C95 1.394 . S
C96 C126 1.723 . S
H97 C120 0.947 . S
H98 C121 0.948 . S
H99 C127 0.982 . S
H100 C128 0.979 . S
H101 C128 0.980 . S
H102 C128 0.983 . S
H103 C127 0.979 . S
H104 C127 0.977 . S
C105 C93 1.453 . S
C105 H134 0.982 . S
C105 H135 0.979 . S
C105 H136 0.977 . S
C106 C93 1.684 . S
C106 H131 0.979 . S
C106 H132 0.980 . S
C106 H133 0.983 . S
C107 C108 1.391 . S
C107 C112 1.391 . S
C107 H137 0.948 . S
C108 C107 1.391 . S
C108 C109 1.391 . S
C109 C108 1.391 . S
C109 C110 1.392 . S
C109 H138 0.947 . S
C110 C109 1.392 . S
C110 C111 1.419 . S
C110 H139 0.948 . S
C111 C110 1.419 . S
C111 C112 1.391 . S
C111 C115 1.397 . S
C112 C107 1.391 . S
C112 C111 1.391 . S
C112 C113 1.399 . S
C113 C112 1.399 . S
C113 C114 1.396 . S
C113 C116 1.453 . S
C113 C117 1.684 . S
C114 C95 1.723 . S
C114 C113 1.396 . S
C114 C115 1.394 . S
C115 C111 1.397 . S
C115 C114 1.394 . S
C115 C125 1.723 . S
C116 C113 1.453 . S
C116 H140 0.982 . S
C116 H141 0.979 . S
C116 H142 0.977 . S
C117 C113 1.684 . S
C117 H143 0.979 . S
C117 H144 0.980 . S
C117 H145 0.983 . S
C118 H94 0.948 . S
C118 C119 1.391 . S
C118 C123 1.391 . S
C119 C118 1.391 . S
C119 C120 1.391 . S
C120 H97 0.947 . S
C120 C119 1.391 . S
C120 C121 1.392 . S
C121 H98 0.948 . S
C121 C120 1.392 . S
C121 C122 1.419 . S
C122 C121 1.419 . S
C122 C123 1.391 . S
C122 C126 1.397 . S
C123 C118 1.391 . S
C123 C122 1.391 . S
C123 C124 1.399 . S
C124 C123 1.399 . S
C124 C125 1.396 . S
C124 C127 1.453 . S
C124 C128 1.684 . S
C125 C115 1.723 . S
C125 C124 1.396 . S
C125 C126 1.394 . S
C126 C96 1.723 . S
C126 C122 1.397 . S
C126 C125 1.394 . S
C127 H99 0.982 . S
C127 H103 0.979 . S
C127 H104 0.977 . S
C127 C124 1.453 . S
C128 H100 0.979 . S
C128 H101 0.980 . S
C128 H102 0.983 . S
C128 C124 1.684 . S
H129 C147 0.948 . S
H130 C88 0.948 . S
H131 C106 0.979 . S
H132 C106 0.980 . S
H133 C106 0.983 . S
H134 C105 0.982 . S
H135 C105 0.979 . S
H136 C105 0.977 . S
H137 C107 0.948 . S
H138 C109 0.947 . S
H139 C110 0.948 . S
H140 C116 0.982 . S
H141 C116 0.979 . S
H142 C116 0.977 . S
H143 C117 0.979 . S
H144 C117 0.980 . S
H145 C117 0.983 . S
H146 C90 0.947 . S
C147 C90 1.392 . S
C147 C91 1.419 . S
C147 H129 0.948 . S
C148 C149 1.391 . S
C148 C152 1.391 . S
C148 H190 0.948 . S
C149 C148 1.391 . S
C149 C150 1.391 . S
C150 C149 1.391 . S
C150 H206 0.947 . S
C150 C207 1.392 . S
C151 C152 1.391 . S
C151 C155 1.397 . S
C151 C207 1.419 . S
C152 C148 1.391 . S
C152 C151 1.391 . S
C152 C153 1.399 . S
C153 C152 1.399 . S
C153 C156 1.396 . S
C153 C165 1.453 . S
C153 C166 1.684 . S
H154 C178 0.948 . S
C155 C151 1.397 . S
C155 C156 1.394 . S
C155 C174 1.723 . S
C156 C153 1.396 . S
C156 C155 1.394 . S
C156 C186 1.723 . S
H157 C180 0.947 . S
H158 C181 0.948 . S
H159 C187 0.982 . S
H160 C188 0.979 . S
H161 C188 0.980 . S
H162 C188 0.983 . S
H163 C187 0.979 . S
H164 C187 0.977 . S
C165 C153 1.453 . S
C165 H194 0.982 . S
C165 H195 0.979 . S
C165 H196 0.977 . S
C166 C153 1.684 . S
C166 H191 0.979 . S
C166 H192 0.980 . S
C166 H193 0.983 . S
C167 C168 1.391 . S
C167 C172 1.391 . S
C167 H197 0.948 . S
C168 C167 1.391 . S
C168 C169 1.391 . S
C169 C168 1.391 . S
C169 C170 1.392 . S
C169 H198 0.947 . S
C170 C169 1.392 . S
C170 C171 1.419 . S
C170 H199 0.948 . S
C171 C170 1.419 . S
C171 C172 1.391 . S
C171 C175 1.397 . S
C172 C167 1.391 . S
C172 C171 1.391 . S
C172 C173 1.399 . S
C173 C172 1.399 . S
C173 C174 1.396 . S
C173 C176 1.453 . S
C173 C177 1.684 . S
C174 C155 1.723 . S
C174 C173 1.396 . S
C174 C175 1.394 . S
C175 C171 1.397 . S
C175 C174 1.394 . S
C175 C185 1.723 . S
C176 C173 1.453 . S
C176 H200 0.982 . S
C176 H201 0.979 . S
C176 H202 0.977 . S
C177 C173 1.684 . S
C177 H203 0.979 . S
C177 H204 0.980 . S
C177 H205 0.983 . S
C178 H154 0.948 . S
C178 C179 1.391 . S
C178 C183 1.391 . S
C179 C178 1.391 . S
C179 C180 1.391 . S
C180 H157 0.947 . S
C180 C179 1.391 . S
C180 C181 1.392 . S
C181 H158 0.948 . S
C181 C180 1.392 . S
C181 C182 1.419 . S
C182 C181 1.419 . S
C182 C183 1.391 . S
C182 C186 1.397 . S
C183 C178 1.391 . S
C183 C182 1.391 . S
C183 C184 1.399 . S
C184 C183 1.399 . S
C184 C185 1.396 . S
C184 C187 1.453 . S
C184 C188 1.684 . S
C185 C175 1.723 . S
C185 C184 1.396 . S
C185 C186 1.394 . S
C186 C156 1.723 . S
C186 C182 1.397 . S
C186 C185 1.394 . S
C187 H159 0.982 . S
C187 H163 0.979 . S
C187 H164 0.977 . S
C187 C184 1.453 . S
C188 H160 0.979 . S
C188 H161 0.980 . S
C188 H162 0.983 . S
C188 C184 1.684 . S
H189 C207 0.948 . S
H190 C148 0.948 . S
H191 C166 0.979 . S
H192 C166 0.980 . S
H193 C166 0.983 . S
H194 C165 0.982 . S
H195 C165 0.979 . S
H196 C165 0.977 . S
H197 C167 0.948 . S
H198 C169 0.947 . S
H199 C170 0.948 . S
H200 C176 0.982 . S
H201 C176 0.979 . S
H202 C176 0.977 . S
H203 C177 0.979 . S
H204 C177 0.980 . S
H205 C177 0.983 . S
H206 C150 0.947 . S
C207 C150 1.392 . S
C207 C151 1.419 . S
C207 H189 0.948 . S
C208 C209 1.391 . S
C208 C212 1.391 . S
C208 H250 0.948 . S
C209 C208 1.391 . S
C209 C210 1.391 . S
C210 C209 1.391 . S
C210 H266 0.947 . S
C210 C267 1.392 . S
C211 C212 1.391 . S
C211 C215 1.397 . S
C211 C267 1.419 . S
C212 C208 1.391 . S
C212 C211 1.391 . S
C212 C213 1.399 . S
C213 C212 1.399 . S
C213 C216 1.396 . S
C213 C225 1.453 . S
C213 C226 1.684 . S
H214 C238 0.948 . S
C215 C211 1.397 . S
C215 C216 1.394 . S
C215 C234 1.723 . S
C216 C213 1.396 . S
C216 C215 1.394 . S
C216 C246 1.723 . S
H217 C240 0.947 . S
H218 C241 0.948 . S
H219 C247 0.982 . S
H220 C248 0.979 . S
H221 C248 0.980 . S
H222 C248 0.983 . S
H223 C247 0.979 . S
H224 C247 0.977 . S
C225 C213 1.453 . S
C225 H254 0.982 . S
C225 H255 0.979 . S
C225 H256 0.977 . S
C226 C213 1.684 . S
C226 H251 0.979 . S
C226 H252 0.980 . S
C226 H253 0.983 . S
C227 C228 1.391 . S
C227 C232 1.391 . S
C227 H257 0.948 . S
C228 C227 1.391 . S
C228 C229 1.391 . S
C229 C228 1.391 . S
C229 C230 1.392 . S
C229 H258 0.947 . S
C230 C229 1.392 . S
C230 C231 1.419 . S
C230 H259 0.948 . S
C231 C230 1.419 . S
C231 C232 1.391 . S
C231 C235 1.397 . S
C232 C227 1.391 . S
C232 C231 1.391 . S
C232 C233 1.399 . S
C233 C232 1.399 . S
C233 C234 1.396 . S
C233 C236 1.453 . S
C233 C237 1.684 . S
C234 C215 1.723 . S
C234 C233 1.396 . S
C234 C235 1.394 . S
C235 C231 1.397 . S
C235 C234 1.394 . S
C235 C245 1.723 . S
C236 C233 1.453 . S
C236 H260 0.982 . S
C236 H261 0.979 . S
C236 H262 0.977 . S
C237 C233 1.684 . S
C237 H263 0.979 . S
C237 H264 0.980 . S
C237 H265 0.983 . S
C238 H214 0.948 . S
C238 C239 1.391 . S
C238 C243 1.391 . S
C239 C238 1.391 . S
C239 C240 1.391 . S
C240 H217 0.947 . S
C240 C239 1.391 . S
C240 C241 1.392 . S
C241 H218 0.948 . S
C241 C240 1.392 . S
C241 C242 1.419 . S
C242 C241 1.419 . S
C242 C243 1.391 . S
C242 C246 1.397 . S
C243 C238 1.391 . S
C243 C242 1.391 . S
C243 C244 1.399 . S
C244 C243 1.399 . S
C244 C245 1.396 . S
C244 C247 1.453 . S
C244 C248 1.684 . S
C245 C235 1.723 . S
C245 C244 1.396 . S
C245 C246 1.394 . S
C246 C216 1.723 . S
C246 C242 1.397 . S
C246 C245 1.394 . S
C247 H219 0.982 . S
C247 H223 0.979 . S
C247 H224 0.977 . S
C247 C244 1.453 . S
C248 H220 0.979 . S
C248 H221 0.980 . S
C248 H222 0.983 . S
C248 C244 1.684 . S
H249 C267 0.948 . S
H250 C208 0.948 . S
H251 C226 0.979 . S
H252 C226 0.980 . S
H253 C226 0.983 . S
H254 C225 0.982 . S
H255 C225 0.979 . S
H256 C225 0.977 . S
H257 C227 0.948 . S
H258 C229 0.947 . S
H259 C230 0.948 . S
H260 C236 0.982 . S
H261 C236 0.979 . S
H262 C236 0.977 . S
H263 C237 0.979 . S
H264 C237 0.980 . S
H265 C237 0.983 . S
H266 C210 0.947 . S
C267 C210 1.392 . S
C267 C211 1.419 . S
C267 H249 0.948 . S
C268 C269 1.391 . S
C268 C272 1.391 . S
C268 H310 0.948 . S
C269 C268 1.391 . S
C269 C270 1.391 . S
C270 C269 1.391 . S
C270 H326 0.947 . S
C270 C327 1.392 . S
C271 C272 1.391 . S
C271 C275 1.397 . S
C271 C327 1.419 . S
C272 C268 1.391 . S
C272 C271 1.391 . S
C272 C273 1.399 . S
C273 C272 1.399 . S
C273 C276 1.396 . S
C273 C285 1.453 . S
C273 C286 1.684 . S
H274 C298 0.948 . S
C275 C271 1.397 . S
C275 C276 1.394 . S
C275 C294 1.723 . S
C276 C273 1.396 . S
C276 C275 1.394 . S
C276 C306 1.723 . S
H277 C300 0.947 . S
H278 C301 0.948 . S
H279 C307 0.982 . S
H280 C308 0.979 . S
H281 C308 0.980 . S
H282 C308 0.983 . S
H283 C307 0.979 . S
H284 C307 0.977 . S
C285 C273 1.453 . S
C285 H314 0.982 . S
C285 H315 0.979 . S
C285 H316 0.977 . S
C286 C273 1.684 . S
C286 H311 0.979 . S
C286 H312 0.980 . S
C286 H313 0.983 . S
C287 C288 1.391 . S
C287 C292 1.391 . S
C287 H317 0.948 . S
C288 C287 1.391 . S
C288 C289 1.391 . S
C289 C288 1.391 . S
C289 C290 1.392 . S
C289 H318 0.947 . S
C290 C289 1.392 . S
C290 C291 1.419 . S
C290 H319 0.948 . S
C291 C290 1.419 . S
C291 C292 1.391 . S
C291 C295 1.397 . S
C292 C287 1.391 . S
C292 C291 1.391 . S
C292 C293 1.399 . S
C293 C292 1.399 . S
C293 C294 1.396 . S
C293 C296 1.453 . S
C293 C297 1.684 . S
C294 C275 1.723 . S
C294 C293 1.396 . S
C294 C295 1.394 . S
C295 C291 1.397 . S
C295 C294 1.394 . S
C295 C305 1.723 . S
C296 C293 1.453 . S
C296 H320 0.982 . S
C296 H321 0.979 . S
C296 H322 0.977 . S
C297 C293 1.684 . S
C297 H323 0.979 . S
C297 H324 0.980 . S
C297 H325 0.983 . S
C298 H274 0.948 . S
C298 C299 1.391 . S
C298 C303 1.391 . S
C299 C298 1.391 . S
C299 C300 1.391 . S
C300 H277 0.947 . S
C300 C299 1.391 . S
C300 C301 1.392 . S
C301 H278 0.948 . S
C301 C300 1.392 . S
C301 C302 1.419 . S
C302 C301 1.419 . S
C302 C303 1.391 . S
C302 C306 1.397 . S
C303 C298 1.391 . S
C303 C302 1.391 . S
C303 C304 1.399 . S
C304 C303 1.399 . S
C304 C305 1.396 . S
C304 C307 1.453 . S
C304 C308 1.684 . S
C305 C295 1.723 . S
C305 C304 1.396 . S
C305 C306 1.394 . S
C306 C276 1.723 . S
C306 C302 1.397 . S
C306 C305 1.394 . S
C307 H279 0.982 . S
C307 H283 0.979 . S
C307 H284 0.977 . S
C307 C304 1.453 . S
C308 H280 0.979 . S
C308 H281 0.980 . S
C308 H282 0.983 . S
C308 C304 1.684 . S
H309 C327 0.948 . S
H310 C268 0.948 . S
H311 C286 0.979 . S
H312 C286 0.980 . S
H313 C286 0.983 . S
H314 C285 0.982 . S
H315 C285 0.979 . S
H316 C285 0.977 . S
H317 C287 0.948 . S
H318 C289 0.947 . S
H319 C290 0.948 . S
H320 C296 0.982 . S
H321 C296 0.979 . S
H322 C296 0.977 . S
H323 C297 0.979 . S
H324 C297 0.980 . S
H325 C297 0.983 . S
H326 C270 0.947 . S
C327 C270 1.392 . S
C327 C271 1.419 . S
C327 H309 0.948 . S
C328 C329 1.391 . S
C328 C332 1.391 . S
C328 H370 0.948 . S
C329 C328 1.391 . S
C329 C330 1.391 . S
C330 C329 1.391 . S
C330 H386 0.947 . S
C330 C387 1.392 . S
C331 C332 1.391 . S
C331 C335 1.397 . S
C331 C387 1.419 . S
C332 C328 1.391 . S
C332 C331 1.391 . S
C332 C333 1.399 . S
C333 C332 1.399 . S
C333 C336 1.396 . S
C333 C345 1.453 . S
C333 C346 1.684 . S
H334 C358 0.948 . S
C335 C331 1.397 . S
C335 C336 1.394 . S
C335 C354 1.723 . S
C336 C333 1.396 . S
C336 C335 1.394 . S
C336 C366 1.723 . S
H337 C360 0.947 . S
H338 C361 0.948 . S
H339 C367 0.982 . S
H340 C368 0.979 . S
H341 C368 0.980 . S
H342 C368 0.983 . S
H343 C367 0.979 . S
H344 C367 0.977 . S
C345 C333 1.453 . S
C345 H374 0.982 . S
C345 H375 0.979 . S
C345 H376 0.977 . S
C346 C333 1.684 . S
C346 H371 0.979 . S
C346 H372 0.980 . S
C346 H373 0.983 . S
C347 C348 1.391 . S
C347 C352 1.391 . S
C347 H377 0.948 . S
C348 C347 1.391 . S
C348 C349 1.391 . S
C349 C348 1.391 . S
C349 C350 1.392 . S
C349 H378 0.947 . S
C350 C349 1.392 . S
C350 C351 1.419 . S
C350 H379 0.948 . S
C351 C350 1.419 . S
C351 C352 1.391 . S
C351 C355 1.397 . S
C352 C347 1.391 . S
C352 C351 1.391 . S
C352 C353 1.399 . S
C353 C352 1.399 . S
C353 C354 1.396 . S
C353 C356 1.453 . S
C353 C357 1.684 . S
C354 C335 1.723 . S
C354 C353 1.396 . S
C354 C355 1.394 . S
C355 C351 1.397 . S
C355 C354 1.394 . S
C355 C365 1.723 . S
C356 C353 1.453 . S
C356 H380 0.982 . S
C356 H381 0.979 . S
C356 H382 0.977 . S
C357 C353 1.684 . S
C357 H383 0.979 . S
C357 H384 0.980 . S
C357 H385 0.983 . S
C358 H334 0.948 . S
C358 C359 1.391 . S
C358 C363 1.391 . S
C359 C358 1.391 . S
C359 C360 1.391 . S
C360 H337 0.947 . S
C360 C359 1.391 . S
C360 C361 1.392 . S
C361 H338 0.948 . S
C361 C360 1.392 . S
C361 C362 1.419 . S
C362 C361 1.419 . S
C362 C363 1.391 . S
C362 C366 1.397 . S
C363 C358 1.391 . S
C363 C362 1.391 . S
C363 C364 1.399 . S
C364 C363 1.399 . S
C364 C365 1.396 . S
C364 C367 1.453 . S
C364 C368 1.684 . S
C365 C355 1.723 . S
C365 C364 1.396 . S
C365 C366 1.394 . S
C366 C336 1.723 . S
C366 C362 1.397 . S
C366 C365 1.394 . S
C367 H339 0.982 . S
C367 H343 0.979 . S
C367 H344 0.977 . S
C367 C364 1.453 . S
C368 H340 0.979 . S
C368 H341 0.980 . S
C368 H342 0.983 . S
C368 C364 1.684 . S
H369 C387 0.948 . S
H370 C328 0.948 . S
H371 C346 0.979 . S
H372 C346 0.980 . S
H373 C346 0.983 . S
H374 C345 0.982 . S
H375 C345 0.979 . S
H376 C345 0.977 . S
H377 C347 0.948 . S
H378 C349 0.947 . S
H379 C350 0.948 . S
H380 C356 0.982 . S
H381 C356 0.979 . S
H382 C356 0.977 . S
H383 C357 0.979 . S
H384 C357 0.980 . S
H385 C357 0.983 . S
H386 C330 0.947 . S
C387 C330 1.392 . S
C387 C331 1.419 . S
C387 H369 0.948 . S
C388 C389 1.391 . S
C388 C392 1.391 . S
C388 H430 0.948 . S
C389 C388 1.391 . S
C389 C390 1.391 . S
C390 C389 1.391 . S
C390 H446 0.947 . S
C390 C447 1.392 . S
C391 C392 1.391 . S
C391 C395 1.397 . S
C391 C447 1.419 . S
C392 C388 1.391 . S
C392 C391 1.391 . S
C392 C393 1.399 . S
C393 C392 1.399 . S
C393 C396 1.396 . S
C393 C405 1.453 . S
C393 C406 1.684 . S
H394 C418 0.948 . S
C395 C391 1.397 . S
C395 C396 1.394 . S
C395 C414 1.723 . S
C396 C393 1.396 . S
C396 C395 1.394 . S
C396 C426 1.723 . S
H397 C420 0.947 . S
H398 C421 0.948 . S
H399 C427 0.982 . S
H400 C428 0.979 . S
H401 C428 0.980 . S
H402 C428 0.983 . S
H403 C427 0.979 . S
H404 C427 0.977 . S
C405 C393 1.453 . S
C405 H434 0.982 . S
C405 H435 0.979 . S
C405 H436 0.977 . S
C406 C393 1.684 . S
C406 H431 0.979 . S
C406 H432 0.980 . S
C406 H433 0.983 . S
C407 C408 1.391 . S
C407 C412 1.391 . S
C407 H437 0.948 . S
C408 C407 1.391 . S
C408 C409 1.391 . S
C409 C408 1.391 . S
C409 C410 1.392 . S
C409 H438 0.947 . S
C410 C409 1.392 . S
C410 C411 1.419 . S
C410 H439 0.948 . S
C411 C410 1.419 . S
C411 C412 1.391 . S
C411 C415 1.397 . S
C412 C407 1.391 . S
C412 C411 1.391 . S
C412 C413 1.399 . S
C413 C412 1.399 . S
C413 C414 1.396 . S
C413 C416 1.453 . S
C413 C417 1.684 . S
C414 C395 1.723 . S
C414 C413 1.396 . S
C414 C415 1.394 . S
C415 C411 1.397 . S
C415 C414 1.394 . S
C415 C425 1.723 . S
C416 C413 1.453 . S
C416 H440 0.982 . S
C416 H441 0.979 . S
C416 H442 0.977 . S
C417 C413 1.684 . S
C417 H443 0.979 . S
C417 H444 0.980 . S
C417 H445 0.983 . S
C418 H394 0.948 . S
C418 C419 1.391 . S
C418 C423 1.391 . S
C419 C418 1.391 . S
C419 C420 1.391 . S
C420 H397 0.947 . S
C420 C419 1.391 . S
C420 C421 1.392 . S
C421 H398 0.948 . S
C421 C420 1.392 . S
C421 C422 1.419 . S
C422 C421 1.419 . S
C422 C423 1.391 . S
C422 C426 1.397 . S
C423 C418 1.391 . S
C423 C422 1.391 . S
C423 C424 1.399 . S
C424 C423 1.399 . S
C424 C425 1.396 . S
C424 C427 1.453 . S
C424 C428 1.684 . S
C425 C415 1.723 . S
C425 C424 1.396 . S
C425 C426 1.394 . S
C426 C396 1.723 . S
C426 C422 1.397 . S
C426 C425 1.394 . S
C427 H399 0.982 . S
C427 H403 0.979 . S
C427 H404 0.977 . S
C427 C424 1.453 . S
C428 H400 0.979 . S
C428 H401 0.980 . S
C428 H402 0.983 . S
C428 C424 1.684 . S
H429 C447 0.948 . S
H430 C388 0.948 . S
H431 C406 0.979 . S
H432 C406 0.980 . S
H433 C406 0.983 . S
H434 C405 0.982 . S
H435 C405 0.979 . S
H436 C405 0.977 . S
H437 C407 0.948 . S
H438 C409 0.947 . S
H439 C410 0.948 . S
H440 C416 0.982 . S
H441 C416 0.979 . S
H442 C416 0.977 . S
H443 C417 0.979 . S
H444 C417 0.980 . S
H445 C417 0.983 . S
H446 C390 0.947 . S
C447 C390 1.392 . S
C447 C391 1.419 . S
C447 H429 0.948 . S
C448 C449 1.391 . S
C448 C452 1.391 . S
C448 H490 0.948 . S
C449 C448 1.391 . S
C449 C450 1.391 . S
C450 C449 1.391 . S
C450 H506 0.947 . S
C450 C507 1.392 . S
C451 C452 1.391 . S
C451 C455 1.397 . S
C451 C507 1.419 . S
C452 C448 1.391 . S
C452 C451 1.391 . S
C452 C453 1.399 . S
C453 C452 1.399 . S
C453 C456 1.396 . S
C453 C465 1.453 . S
C453 C466 1.684 . S
H454 C478 0.948 . S
C455 C451 1.397 . S
C455 C456 1.394 . S
C455 C474 1.723 . S
C456 C453 1.396 . S
C456 C455 1.394 . S
C456 C486 1.723 . S
H457 C480 0.947 . S
H458 C481 0.948 . S
H459 C487 0.982 . S
H460 C488 0.979 . S
H461 C488 0.980 . S
H462 C488 0.983 . S
H463 C487 0.979 . S
H464 C487 0.977 . S
C465 C453 1.453 . S
C465 H494 0.982 . S
C465 H495 0.979 . S
C465 H496 0.977 . S
C466 C453 1.684 . S
C466 H491 0.979 . S
C466 H492 0.980 . S
C466 H493 0.983 . S
C467 C468 1.391 . S
C467 C472 1.391 . S
C467 H497 0.948 . S
C468 C467 1.391 . S
C468 C469 1.391 . S
C469 C468 1.391 . S
C469 C470 1.392 . S
C469 H498 0.947 . S
C470 C469 1.392 . S
C470 C471 1.419 . S
C470 H499 0.948 . S
C471 C470 1.419 . S
C471 C472 1.391 . S
C471 C475 1.397 . S
C472 C467 1.391 . S
C472 C471 1.391 . S
C472 C473 1.399 . S
C473 C472 1.399 . S
C473 C474 1.396 . S
C473 C476 1.453 . S
C473 C477 1.684 . S
C474 C455 1.723 . S
C474 C473 1.396 . S
C474 C475 1.394 . S
C475 C471 1.397 . S
C475 C474 1.394 . S
C475 C485 1.723 . S
C476 C473 1.453 . S
C476 H500 0.982 . S
C476 H501 0.979 . S
C476 H502 0.977 . S
C477 C473 1.684 . S
C477 H503 0.979 . S
C477 H504 0.980 . S
C477 H505 0.983 . S
C478 H454 0.948 . S
C478 C479 1.391 . S
C478 C483 1.391 . S
C479 C478 1.391 . S
C479 C480 1.391 . S
C480 H457 0.947 . S
C480 C479 1.391 . S
C480 C481 1.392 . S
C481 H458 0.948 . S
C481 C480 1.392 . S
C481 C482 1.419 . S
C482 C481 1.419 . S
C482 C483 1.391 . S
C482 C486 1.397 . S
C483 C478 1.391 . S
C483 C482 1.391 . S
C483 C484 1.399 . S
C484 C483 1.399 . S
C484 C485 1.396 . S
C484 C487 1.453 . S
C484 C488 1.684 . S
C485 C475 1.723 . S
C485 C484 1.396 . S
C485 C486 1.394 . S
C486 C456 1.723 . S
C486 C482 1.397 . S
C486 C485 1.394 . S
C487 H459 0.982 . S
C487 H463 0.979 . S
C487 H464 0.977 . S
C487 C484 1.453 . S
C488 H460 0.979 . S
C488 H461 0.980 . S
C488 H462 0.983 . S
C488 C484 1.684 . S
H489 C507 0.948 . S
H490 C448 0.948 . S
H491 C466 0.979 . S
H492 C466 0.980 . S
H493 C466 0.983 . S
H494 C465 0.982 . S
H495 C465 0.979 . S
H496 C465 0.977 . S
H497 C467 0.948 . S
H498 C469 0.947 . S
H499 C470 0.948 . S
H500 C476 0.982 . S
H501 C476 0.979 . S
H502 C476 0.977 . S
H503 C477 0.979 . S
H504 C477 0.980 . S
H505 C477 0.983 . S
H506 C450 0.947 . S
C507 C450 1.392 . S
C507 C451 1.419 . S
C507 H489 0.948 . S
C508 C509 1.391 . S
C508 C512 1.391 . S
C508 H550 0.948 . S
C509 C508 1.391 . S
C509 C510 1.391 . S
C510 C509 1.391 . S
C510 H566 0.947 . S
C510 C567 1.392 . S
C511 C512 1.391 . S
C511 C515 1.397 . S
C511 C567 1.419 . S
C512 C508 1.391 . S
C512 C511 1.391 . S
C512 C513 1.399 . S
C513 C512 1.399 . S
C513 C516 1.396 . S
C513 C525 1.453 . S
C513 C526 1.684 . S
H514 C538 0.948 . S
C515 C511 1.397 . S
C515 C516 1.394 . S
C515 C534 1.723 . S
C516 C513 1.396 . S
C516 C515 1.394 . S
C516 C546 1.723 . S
H517 C540 0.947 . S
H518 C541 0.948 . S
H519 C547 0.982 . S
H520 C548 0.979 . S
H521 C548 0.980 . S
H522 C548 0.983 . S
H523 C547 0.979 . S
H524 C547 0.977 . S
C525 C513 1.453 . S
C525 H554 0.982 . S
C525 H555 0.979 . S
C525 H556 0.977 . S
C526 C513 1.684 . S
C526 H551 0.979 . S
C526 H552 0.980 . S
C526 H553 0.983 . S
C527 C528 1.391 . S
C527 C532 1.391 . S
C527 H557 0.948 . S
C528 C527 1.391 . S
C528 C529 1.391 . S
C529 C528 1.391 . S
C529 C530 1.392 . S
C529 H558 0.947 . S
C530 C529 1.392 . S
C530 C531 1.419 . S
C530 H559 0.948 . S
C531 C530 1.419 . S
C531 C532 1.391 . S
C531 C535 1.397 . S
C532 C527 1.391 . S
C532 C531 1.391 . S
C532 C533 1.399 . S
C533 C532 1.399 . S
C533 C534 1.396 . S
C533 C536 1.453 . S
C533 C537 1.684 . S
C534 C515 1.723 . S
C534 C533 1.396 . S
C534 C535 1.394 . S
C535 C531 1.397 . S
C535 C534 1.394 . S
C535 C545 1.723 . S
C536 C533 1.453 . S
C536 H560 0.982 . S
C536 H561 0.979 . S
C536 H562 0.977 . S
C537 C533 1.684 . S
C537 H563 0.979 . S
C537 H564 0.980 . S
C537 H565 0.983 . S
C538 H514 0.948 . S
C538 C539 1.391 . S
C538 C543 1.391 . S
C539 C538 1.391 . S
C539 C540 1.391 . S
C540 H517 0.947 . S
C540 C539 1.391 . S
C540 C541 1.392 . S
C541 H518 0.948 . S
C541 C540 1.392 . S
C541 C542 1.419 . S
C542 C541 1.419 . S
C542 C543 1.391 . S
C542 C546 1.397 . S
C543 C538 1.391 . S
C543 C542 1.391 . S
C543 C544 1.399 . S
C544 C543 1.399 . S
C544 C545 1.396 . S
C544 C547 1.453 . S
C544 C548 1.684 . S
C545 C535 1.723 . S
C545 C544 1.396 . S
C545 C546 1.394 . S
C546 C516 1.723 . S
C546 C542 1.397 . S
C546 C545 1.394 . S
C547 H519 0.982 . S
C547 H523 0.979 . S
C547 H524 0.977 . S
C547 C544 1.453 . S
C548 H520 0.979 . S
C548 H521 0.980 . S
C548 H522 0.983 . S
C548 C544 1.684 . S
H549 C567 0.948 . S
H550 C508 0.948 . S
H551 C526 0.979 . S
H552 C526 0.980 . S
H553 C526 0.983 . S
H554 C525 0.982 . S
H555 C525 0.979 . S
H556 C525 0.977 . S
H557 C527 0.948 . S
H558 C529 0.947 . S
H559 C530 0.948 . S
H560 C536 0.982 . S
H561 C536 0.979 . S
H562 C536 0.977 . S
H563 C537 0.979 . S
H564 C537 0.980 . S
H565 C537 0.983 . S
H566 C510 0.947 . S
C567 C510 1.392 . S
C567 C511 1.419 . S
C567 H549 0.948 . S
C568 C569 1.391 . S
C568 C570 1.394 . S
C568 H584 0.931 . S
C569 C568 1.391 . S
C569 C573 1.376 . S
C570 C568 1.394 . S
C570 C571 1.369 . S
C570 C574 1.531 . S
C571 C570 1.369 . S
C571 C572 1.410 . S
C571 C579 1.503 1_565 S
C572 C571 1.410 . S
C572 C573 1.392 . S
C572 C575 1.511 . S
C573 C569 1.376 . S
C573 C572 1.392 . S
C573 H585 0.929 . S
C574 C570 1.531 . S
C574 H586 0.960 1_565 S
C574 H587 0.962 . S
C574 H588 0.960 . S
C575 C572 1.511 . S
C575 H589 0.961 . S
C575 H590 0.961 . S
C575 H591 0.961 . S
C576 C577 1.370 . S
C576 C578 1.363 . S
C576 H592 0.931 . S
C577 C576 1.370 . S
C577 C581 1.408 . S
C578 C576 1.363 . S
C578 C579 1.370 . S
C578 C582 1.524 1_545 S
C579 C571 1.503 1_545 S
C579 C578 1.370 . S
C579 C580 1.403 . S
C580 C579 1.403 . S
C580 C581 1.404 . S
C580 C583 1.539 . S
C581 C577 1.408 . S
C581 C580 1.404 . S
C581 H593 0.930 . S
C582 C578 1.524 1_565 S
C582 H594 0.956 . S
C582 H595 0.961 . S
C582 H596 0.961 . S
C583 C580 1.539 . S
C583 H597 0.958 . S
C583 H598 0.961 . S
C583 H599 0.960 . S
H584 C568 0.931 . S
H585 C573 0.929 . S
H586 C574 0.960 1_545 S
H587 C574 0.962 . S
H588 C574 0.960 . S
H589 C575 0.961 . S
H590 C575 0.961 . S
H591 C575 0.961 . S
H592 C576 0.931 . S
H593 C581 0.930 . S
H594 C582 0.956 . S
H595 C582 0.961 . S
H596 C582 0.961 . S
H597 C583 0.958 . S
H598 C583 0.961 . S
H599 C583 0.960 . S
C600 C601 1.391 . S
C600 C602 1.394 . S
C600 H616 0.931 . S
C601 C600 1.391 . S
C601 C605 1.376 . S
C602 C600 1.394 . S
C602 C603 1.369 . S
C602 C606 1.531 . S
C603 C602 1.369 . S
C603 C604 1.410 . S
C603 C611 1.503 . S
C604 C603 1.410 . S
C604 C605 1.392 . S
C604 C607 1.511 . S
C605 C601 1.376 . S
C605 C604 1.392 . S
C605 H617 0.929 . S
C606 C602 1.531 . S
C606 H618 0.960 . S
C606 H619 0.962 . S
C606 H620 0.960 . S
C607 C604 1.511 . S
C607 H621 0.961 . S
C607 H622 0.961 . S
C607 H623 0.961 . S
C608 C609 1.370 . S
C608 C610 1.363 . S
C608 H624 0.931 . S
C609 C608 1.370 . S
C609 C613 1.408 . S
C610 C608 1.363 . S
C610 C611 1.370 . S
C610 C614 1.524 . S
C611 C603 1.503 . S
C611 C610 1.370 . S
C611 C612 1.403 . S
C612 C611 1.403 . S
C612 C613 1.404 . S
C612 C615 1.539 . S
C613 C609 1.408 . S
C613 C612 1.404 . S
C613 H625 0.930 . S
C614 C610 1.524 . S
C614 H626 0.956 . S
C614 H627 0.961 . S
C614 H628 0.961 . S
C615 C612 1.539 . S
C615 H629 0.958 . S
C615 H630 0.961 . S
C615 H631 0.960 . S
H616 C600 0.931 . S
H617 C605 0.929 . S
H618 C606 0.960 . S
H619 C606 0.962 . S
H620 C606 0.960 . S
H621 C607 0.961 . S
H622 C607 0.961 . S
H623 C607 0.961 . S
H624 C608 0.931 . S
H625 C613 0.930 . S
H626 C614 0.956 . S
H627 C614 0.961 . S
H628 C614 0.961 . S
H629 C615 0.958 . S
H630 C615 0.961 . S
H631 C615 0.960 . S
C632 C633 1.391 . S
C632 C634 1.394 . S
C632 H648 0.931 . S
C633 C632 1.391 . S
C633 C637 1.376 . S
C634 C632 1.394 . S
C634 C635 1.369 . S
C634 C638 1.531 . S
C635 C634 1.369 . S
C635 C636 1.410 . S
C635 C643 1.503 . S
C636 C635 1.410 . S
C636 C637 1.392 . S
C636 C639 1.511 . S
C637 C633 1.376 . S
C637 C636 1.392 . S
C637 H649 0.929 . S
C638 C634 1.531 . S
C638 H650 0.960 . S
C638 H651 0.962 . S
C638 H652 0.960 . S
C639 C636 1.511 . S
C639 H653 0.961 . S
C639 H654 0.961 . S
C639 H655 0.961 . S
C640 C641 1.370 . S
C640 C642 1.363 . S
C640 H656 0.931 1_545 S
C641 C640 1.370 . S
C641 C645 1.408 . S
C642 C640 1.363 . S
C642 C643 1.370 . S
C642 C646 1.524 . S
C643 C635 1.503 . S
C643 C642 1.370 . S
C643 C644 1.403 . S
C644 C643 1.403 . S
C644 C645 1.404 . S
C644 C647 1.539 . S
C645 C641 1.408 . S
C645 C644 1.404 . S
C645 H657 0.930 . S
C646 C642 1.524 . S
C646 H658 0.956 . S
C646 H659 0.961 . S
C646 H660 0.961 . S
C647 C644 1.539 . S
C647 H661 0.958 . S
C647 H662 0.961 . S
C647 H663 0.960 . S
H648 C632 0.931 . S
H649 C637 0.929 . S
H650 C638 0.960 . S
H651 C638 0.962 . S
H652 C638 0.960 . S
H653 C639 0.961 . S
H654 C639 0.961 . S
H655 C639 0.961 . S
H656 C640 0.931 1_565 S
H657 C645 0.930 . S
H658 C646 0.956 . S
H659 C646 0.961 . S
H660 C646 0.961 . S
H661 C647 0.958 . S
H662 C647 0.961 . S
H663 C647 0.960 . S
C664 C665 1.391 . S
C664 C666 1.394 . S
C664 H680 0.931 . S
C665 C664 1.391 . S
C665 C669 1.376 . S
C666 C664 1.394 . S
C666 C667 1.369 . S
C666 C670 1.531 . S
C667 C666 1.369 . S
C667 C668 1.410 . S
C667 C675 1.503 . S
C668 C667 1.410 . S
C668 C669 1.392 . S
C668 C671 1.511 . S
C669 C665 1.376 . S
C669 C668 1.392 . S
C669 H681 0.929 . S
C670 C666 1.531 . S
C670 H682 0.960 . S
C670 H683 0.962 . S
C670 H684 0.960 . S
C671 C668 1.511 . S
C671 H685 0.961 . S
C671 H686 0.961 . S
C671 H687 0.961 . S
C672 C673 1.370 . S
C672 C674 1.363 . S
C672 H688 0.931 . S
C673 C672 1.370 . S
C673 C677 1.408 . S
C674 C672 1.363 . S
C674 C675 1.370 . S
C674 C678 1.524 . S
C675 C667 1.503 . S
C675 C674 1.370 . S
C675 C676 1.403 . S
C676 C675 1.403 . S
C676 C677 1.404 . S
C676 C679 1.539 . S
C677 C673 1.408 . S
C677 C676 1.404 . S
C677 H689 0.930 . S
C678 C674 1.524 . S
C678 H690 0.956 . S
C678 H691 0.961 . S
C678 H692 0.961 . S
C679 C676 1.539 . S
C679 H693 0.958 . S
C679 H694 0.961 . S
C679 H695 0.960 . S
H680 C664 0.931 . S
H681 C669 0.929 . S
H682 C670 0.960 . S
H683 C670 0.962 . S
H684 C670 0.960 . S
H685 C671 0.961 . S
H686 C671 0.961 . S
H687 C671 0.961 . S
H688 C672 0.931 . S
H689 C677 0.930 . S
H690 C678 0.956 . S
H691 C678 0.961 . S
H692 C678 0.961 . S
H693 C679 0.958 . S
H694 C679 0.961 . S
H695 C679 0.960 . S
C696 C697 1.391 . S
C696 C698 1.394 . S
C696 H712 0.931 . S
C697 C696 1.391 . S
C697 C701 1.376 . S
C698 C696 1.394 . S
C698 C699 1.369 . S
C698 C702 1.531 . S
C699 C698 1.369 . S
C699 C700 1.410 . S
C699 C707 1.503 . S
C700 C699 1.410 . S
C700 C701 1.392 . S
C700 C703 1.511 . S
C701 C697 1.376 . S
C701 C700 1.392 . S
C701 H713 0.929 . S
C702 C698 1.531 . S
C702 H714 0.960 . S
C702 H715 0.962 . S
C702 H716 0.960 . S
C703 C700 1.511 . S
C703 H717 0.961 . S
C703 H718 0.961 . S
C703 H719 0.961 . S
C704 C705 1.370 . S
C704 C706 1.363 . S
C704 H720 0.931 . S
C705 C704 1.370 . S
C705 C709 1.408 . S
C706 C704 1.363 . S
C706 C707 1.370 . S
C706 C710 1.524 . S
C707 C699 1.503 . S
C707 C706 1.370 . S
C707 C708 1.403 . S
C708 C707 1.403 . S
C708 C709 1.404 . S
C708 C711 1.539 . S
C709 C705 1.408 . S
C709 C708 1.404 . S
C709 H721 0.930 . S
C710 C706 1.524 . S
C710 H722 0.956 . S
C710 H723 0.961 . S
C710 H724 0.961 . S
C711 C708 1.539 . S
C711 H725 0.958 . S
C711 H726 0.961 . S
C711 H727 0.960 . S
H712 C696 0.931 . S
H713 C701 0.929 . S
H714 C702 0.960 . S
H715 C702 0.962 . S
H716 C702 0.960 . S
H717 C703 0.961 . S
H718 C703 0.961 . S
H719 C703 0.961 . S
H720 C704 0.931 . S
H721 C709 0.930 . S
H722 C710 0.956 . S
H723 C710 0.961 . S
H724 C710 0.961 . S
H725 C711 0.958 . S
H726 C711 0.961 . S
H727 C711 0.960 . S
C728 C729 1.391 . S
C728 C730 1.394 . S
C728 H744 0.931 . S
C729 C728 1.391 . S
C729 C733 1.376 . S
C730 C728 1.394 . S
C730 C731 1.369 . S
C730 C734 1.531 . S
C731 C730 1.369 . S
C731 C732 1.410 . S
C731 C739 1.503 1_655 S
C732 C731 1.410 . S
C732 C733 1.392 . S
C732 C735 1.511 . S
C733 C729 1.376 . S
C733 C732 1.392 . S
C733 H745 0.929 . S
C734 C730 1.531 . S
C734 H746 0.960 . S
C734 H747 0.962 . S
C734 H748 0.960 . S
C735 C732 1.511 . S
C735 H749 0.961 . S
C735 H750 0.961 . S
C735 H751 0.961 . S
C736 C737 1.370 . S
C736 C738 1.363 . S
C736 H752 0.931 . S
C737 C736 1.370 . S
C737 C741 1.408 . S
C738 C736 1.363 . S
C738 C739 1.370 . S
C738 C742 1.524 . S
C739 C731 1.503 1_455 S
C739 C738 1.370 . S
C739 C740 1.403 . S
C740 C739 1.403 . S
C740 C741 1.404 . S
C740 C743 1.539 1_455 S
C741 C737 1.408 . S
C741 C740 1.404 . S
C741 H753 0.930 . S
C742 C738 1.524 . S
C742 H754 0.956 . S
C742 H755 0.961 . S
C742 H756 0.961 . S
C743 C740 1.539 1_655 S
C743 H757 0.958 . S
C743 H758 0.961 . S
C743 H759 0.960 . S
H744 C728 0.931 . S
H745 C733 0.929 . S
H746 C734 0.960 . S
H747 C734 0.962 . S
H748 C734 0.960 . S
H749 C735 0.961 . S
H750 C735 0.961 . S
H751 C735 0.961 . S
H752 C736 0.931 . S
H753 C741 0.930 . S
H754 C742 0.956 . S
H755 C742 0.961 . S
H756 C742 0.961 . S
H757 C743 0.958 . S
H758 C743 0.961 . S
H759 C743 0.960 . S
C760 C761 1.391 . S
C760 C762 1.394 . S
C760 H776 0.931 . S
C761 C760 1.391 . S
C761 C765 1.376 . S
C762 C760 1.394 . S
C762 C763 1.369 . S
C762 C766 1.531 . S
C763 C762 1.369 . S
C763 C764 1.410 . S
C763 C771 1.503 . S
C764 C763 1.410 . S
C764 C765 1.392 . S
C764 C767 1.511 . S
C765 C761 1.376 . S
C765 C764 1.392 . S
C765 H777 0.929 . S
C766 C762 1.531 . S
C766 H778 0.960 . S
C766 H779 0.962 . S
C766 H780 0.960 . S
C767 C764 1.511 . S
C767 H781 0.961 . S
C767 H782 0.961 . S
C767 H783 0.961 . S
C768 C769 1.370 . S
C768 C770 1.363 . S
C768 H784 0.931 . S
C769 C768 1.370 . S
C769 C773 1.408 . S
C770 C768 1.363 . S
C770 C771 1.370 . S
C770 C774 1.524 . S
C771 C763 1.503 . S
C771 C770 1.370 . S
C771 C772 1.403 . S
C772 C771 1.403 . S
C772 C773 1.404 . S
C772 C775 1.539 . S
C773 C769 1.408 . S
C773 C772 1.404 . S
C773 H785 0.930 . S
C774 C770 1.524 . S
C774 H786 0.956 . S
C774 H787 0.961 . S
C774 H788 0.961 . S
C775 C772 1.539 . S
C775 H789 0.958 . S
C775 H790 0.961 . S
C775 H791 0.960 . S
H776 C760 0.931 . S
H777 C765 0.929 . S
H778 C766 0.960 . S
H779 C766 0.962 . S
H780 C766 0.960 . S
H781 C767 0.961 . S
H782 C767 0.961 . S
H783 C767 0.961 . S
H784 C768 0.931 . S
H785 C773 0.930 . S
H786 C774 0.956 . S
H787 C774 0.961 . S
H788 C774 0.961 . S
H789 C775 0.958 . S
H790 C775 0.961 . S
H791 C775 0.960 . S
C792 C793 1.391 1_556 S
C792 C794 1.394 . S
C792 H808 0.931 . S
C793 C792 1.391 1_554 S
C793 C797 1.376 . S
C794 C792 1.394 . S
C794 C795 1.369 . S
C794 C798 1.531 . S
C795 C794 1.369 . S
C795 C796 1.410 . S
C795 C803 1.503 . S
C796 C795 1.410 . S
C796 C797 1.392 1_556 S
C796 C799 1.511 . S
C797 C793 1.376 . S
C797 C796 1.392 1_554 S
C797 H809 0.929 . S
C798 C794 1.531 . S
C798 H810 0.960 . S
C798 H811 0.962 . S
C798 H812 0.960 . S
C799 C796 1.511 . S
C799 H813 0.961 1_556 S
C799 H814 0.961 . S
C799 H815 0.961 1_556 S
C800 C801 1.370 . S
C800 C802 1.363 . S
C800 H816 0.931 . S
C801 C800 1.370 . S
C801 C805 1.408 . S
C802 C800 1.363 . S
C802 C803 1.370 . S
C802 C806 1.524 . S
C803 C795 1.503 . S
C803 C802 1.370 . S
C803 C804 1.403 . S
C804 C803 1.403 . S
C804 C805 1.404 . S
C804 C807 1.539 . S
C805 C801 1.408 . S
C805 C804 1.404 . S
C805 H817 0.930 1_455 S
C806 C802 1.524 . S
C806 H818 0.956 . S
C806 H819 0.961 . S
C806 H820 0.961 . S
C807 C804 1.539 . S
C807 H821 0.958 . S
C807 H822 0.961 . S
C807 H823 0.960 . S
H808 C792 0.931 . S
H809 C797 0.929 . S
H810 C798 0.960 . S
H811 C798 0.962 . S
H812 C798 0.960 . S
H813 C799 0.961 1_554 S
H814 C799 0.961 . S
H815 C799 0.961 1_554 S
H816 C800 0.931 . S
H817 C805 0.930 1_655 S
H818 C806 0.956 . S
H819 C806 0.961 . S
H820 C806 0.961 . S
H821 C807 0.958 . S
H822 C807 0.961 . S
H823 C807 0.960 . S
C824 C825 1.391 . S
C824 C826 1.394 . S
C824 H840 0.931 . S
C825 C824 1.391 . S
C825 C829 1.376 . S
C826 C824 1.394 . S
C826 C827 1.369 . S
C826 C830 1.531 . S
C827 C826 1.369 . S
C827 C828 1.410 . S
C827 C835 1.503 1_545 S
C828 C827 1.410 . S
C828 C829 1.392 . S
C828 C831 1.511 . S
C829 C825 1.376 . S
C829 C828 1.392 . S
C829 H841 0.929 . S
C830 C826 1.531 . S
C830 H842 0.960 . S
C830 H843 0.962 . S
C830 H844 0.960 . S
C831 C828 1.511 . S
C831 H845 0.961 . S
C831 H846 0.961 1_545 S
C831 H847 0.961 . S
C832 C833 1.370 . S
C832 C834 1.363 . S
C832 H848 0.931 . S
C833 C832 1.370 . S
C833 C837 1.408 . S
C834 C832 1.363 . S
C834 C835 1.370 . S
C834 C838 1.524 . S
C835 C827 1.503 1_565 S
C835 C834 1.370 . S
C835 C836 1.403 . S
C836 C835 1.403 . S
C836 C837 1.404 . S
C836 C839 1.539 1_565 S
C837 C833 1.408 . S
C837 C836 1.404 . S
C837 H849 0.930 . S
C838 C834 1.524 . S
C838 H850 0.956 1_565 S
C838 H851 0.961 . S
C838 H852 0.961 . S
C839 C836 1.539 1_545 S
C839 H853 0.958 . S
C839 H854 0.961 1_545 S
C839 H855 0.960 . S
H840 C824 0.931 . S
H841 C829 0.929 . S
H842 C830 0.960 . S
H843 C830 0.962 . S
H844 C830 0.960 . S
H845 C831 0.961 . S
H846 C831 0.961 1_565 S
H847 C831 0.961 . S
H848 C832 0.931 . S
H849 C837 0.930 . S
H850 C838 0.956 1_545 S
H851 C838 0.961 . S
H852 C838 0.961 . S
H853 C839 0.958 . S
H854 C839 0.961 1_565 S
H855 C839 0.960 . S
C856 C857 1.391 . S
C856 C858 1.394 . S
C856 H872 0.931 . S
C857 C856 1.391 . S
C857 C861 1.376 . S
C858 C856 1.394 . S
C858 C859 1.369 . S
C858 C862 1.531 . S
C859 C858 1.369 . S
C859 C860 1.410 . S
C859 C867 1.503 . S
C860 C859 1.410 . S
C860 C861 1.392 . S
C860 C863 1.511 . S
C861 C857 1.376 . S
C861 C860 1.392 . S
C861 H873 0.929 . S
C862 C858 1.531 . S
C862 H874 0.960 . S
C862 H875 0.962 . S
C862 H876 0.960 . S
C863 C860 1.511 . S
C863 H877 0.961 . S
C863 H878 0.961 . S
C863 H879 0.961 . S
C864 C865 1.370 . S
C864 C866 1.363 . S
C864 H880 0.931 . S
C865 C864 1.370 . S
C865 C869 1.408 . S
C866 C864 1.363 . S
C866 C867 1.370 . S
C866 C870 1.524 . S
C867 C859 1.503 . S
C867 C866 1.370 . S
C867 C868 1.403 . S
C868 C867 1.403 . S
C868 C869 1.404 . S
C868 C871 1.539 . S
C869 C865 1.408 . S
C869 C868 1.404 . S
C869 H881 0.930 . S
C870 C866 1.524 . S
C870 H882 0.956 . S
C870 H883 0.961 . S
C870 H884 0.961 . S
C871 C868 1.539 . S
C871 H885 0.958 . S
C871 H886 0.961 . S
C871 H887 0.960 . S
H872 C856 0.931 . S
H873 C861 0.929 . S
H874 C862 0.960 . S
H875 C862 0.962 . S
H876 C862 0.960 . S
H877 C863 0.961 . S
H878 C863 0.961 . S
H879 C863 0.961 . S
H880 C864 0.931 . S
H881 C869 0.930 . S
H882 C870 0.956 . S
H883 C870 0.961 . S
H884 C870 0.961 . S
H885 C871 0.958 . S
H886 C871 0.961 . S
H887 C871 0.960 . S
C888 C889 1.391 1_556 S
C888 C890 1.394 . S
C888 H904 0.931 1_556 S
C889 C888 1.391 1_554 S
C889 C893 1.376 1_554 S
C890 C888 1.394 . S
C890 C891 1.369 . S
C890 C894 1.531 . S
C891 C890 1.369 . S
C891 C892 1.410 . S
C891 C899 1.503 . S
C892 C891 1.410 . S
C892 C893 1.392 . S
C892 C895 1.511 . S
C893 C889 1.376 1_556 S
C893 C892 1.392 . S
C893 H905 0.929 1_556 S
C894 C890 1.531 . S
C894 H906 0.960 . S
C894 H907 0.962 . S
C894 H908 0.960 . S
C895 C892 1.511 . S
C895 H909 0.961 . S
C895 H910 0.961 . S
C895 H911 0.961 . S
C896 C897 1.370 . S
C896 C898 1.363 . S
C896 H912 0.931 . S
C897 C896 1.370 . S
C897 C901 1.408 1_565 S
C898 C896 1.363 . S
C898 C899 1.370 . S
C898 C902 1.524 . S
C899 C891 1.503 . S
C899 C898 1.370 . S
C899 C900 1.403 . S
C900 C899 1.403 . S
C900 C901 1.404 1_565 S
C900 C903 1.539 . S
C901 C897 1.408 1_545 S
C901 C900 1.404 1_545 S
C901 H913 0.930 . S
C902 C898 1.524 . S
C902 H914 0.956 . S
C902 H915 0.961 . S
C902 H916 0.961 . S
C903 C900 1.539 . S
C903 H917 0.958 1_565 S
C903 H918 0.961 1_565 S
C903 H919 0.960 . S
H904 C888 0.931 1_554 S
H905 C893 0.929 1_554 S
H906 C894 0.960 . S
H907 C894 0.962 . S
H908 C894 0.960 . S
H909 C895 0.961 . S
H910 C895 0.961 . S
H911 C895 0.961 . S
H912 C896 0.931 . S
H913 C901 0.930 . S
H914 C902 0.956 . S
H915 C902 0.961 . S
H916 C902 0.961 . S
H917 C903 0.958 1_545 S
H918 C903 0.961 1_545 S
H919 C903 0.960 . S
C920 C921 1.391 . S
C920 C922 1.394 . S
C920 H936 0.931 . S
C921 C920 1.391 . S
C921 C925 1.376 . S
C922 C920 1.394 . S
C922 C923 1.369 . S
C922 C926 1.531 . S
C923 C922 1.369 . S
C923 C924 1.410 . S
C923 C931 1.503 . S
C924 C923 1.410 . S
C924 C925 1.392 . S
C924 C927 1.511 . S
C925 C921 1.376 . S
C925 C924 1.392 . S
C925 H937 0.929 . S
C926 C922 1.531 . S
C926 H938 0.960 . S
C926 H939 0.962 . S
C926 H940 0.960 . S
C927 C924 1.511 . S
C927 H941 0.961 . S
C927 H942 0.961 . S
C927 H943 0.961 . S
C928 C929 1.370 . S
C928 C930 1.363 . S
C928 H944 0.931 . S
C929 C928 1.370 . S
C929 C933 1.408 . S
C930 C928 1.363 . S
C930 C931 1.370 . S
C930 C934 1.524 . S
C931 C923 1.503 . S
C931 C930 1.370 . S
C931 C932 1.403 . S
C932 C931 1.403 . S
C932 C933 1.404 . S
C932 C935 1.539 . S
C933 C929 1.408 . S
C933 C932 1.404 . S
C933 H945 0.930 . S
C934 C930 1.524 . S
C934 H946 0.956 . S
C934 H947 0.961 . S
C934 H948 0.961 . S
C935 C932 1.539 . S
C935 H949 0.958 . S
C935 H950 0.961 . S
C935 H951 0.960 . S
H936 C920 0.931 . S
H937 C925 0.929 . S
H938 C926 0.960 . S
H939 C926 0.962 . S
H940 C926 0.960 . S
H941 C927 0.961 . S
H942 C927 0.961 . S
H943 C927 0.961 . S
H944 C928 0.931 . S
H945 C933 0.930 . S
H946 C934 0.956 . S
H947 C934 0.961 . S
H948 C934 0.961 . S
H949 C935 0.958 . S
H950 C935 0.961 . S
H951 C935 0.960 . S
C952 C953 1.391 . S
C952 C954 1.394 . S
C952 H968 0.931 . S
C953 C952 1.391 . S
C953 C957 1.376 . S
C954 C952 1.394 . S
C954 C955 1.369 . S
C954 C958 1.531 . S
C955 C954 1.369 . S
C955 C956 1.410 . S
C955 C963 1.503 . S
C956 C955 1.410 . S
C956 C957 1.392 . S
C956 C959 1.511 . S
C957 C953 1.376 . S
C957 C956 1.392 . S
C957 H969 0.929 . S
C958 C954 1.531 . S
C958 H970 0.960 . S
C958 H971 0.962 . S
C958 H972 0.960 . S
C959 C956 1.511 . S
C959 H973 0.961 . S
C959 H974 0.961 . S
C959 H975 0.961 . S
C960 C961 1.370 . S
C960 C962 1.363 . S
C960 H976 0.931 . S
C961 C960 1.370 . S
C961 C965 1.408 . S
C962 C960 1.363 . S
C962 C963 1.370 . S
C962 C966 1.524 . S
C963 C955 1.503 . S
C963 C962 1.370 . S
C963 C964 1.403 . S
C964 C963 1.403 . S
C964 C965 1.404 . S
C964 C967 1.539 . S
C965 C961 1.408 . S
C965 C964 1.404 . S
C965 H977 0.930 . S
C966 C962 1.524 . S
C966 H978 0.956 . S
C966 H979 0.961 . S
C966 H980 0.961 . S
C967 C964 1.539 . S
C967 H981 0.958 . S
C967 H982 0.961 . S
C967 H983 0.960 . S
H968 C952 0.931 . S
H969 C957 0.929 . S
H970 C958 0.960 . S
H971 C958 0.962 . S
H972 C958 0.960 . S
H973 C959 0.961 . S
H974 C959 0.961 . S
H975 C959 0.961 . S
H976 C960 0.931 . S
H977 C965 0.930 . S
H978 C966 0.956 . S
H979 C966 0.961 . S
H980 C966 0.961 . S
H981 C967 0.958 . S
H982 C967 0.961 . S
H983 C967 0.960 . S
C984 C985 1.391 . S
C984 C986 1.394 . S
C984 H1000 0.931 . S
C985 C984 1.391 . S
C985 C989 1.376 . S
C986 C984 1.394 . S
C986 C987 1.369 . S
C986 C990 1.531 . S
C987 C986 1.369 . S
C987 C988 1.410 . S
C987 C995 1.503 1_455 S
C988 C987 1.410 . S
C988 C989 1.392 . S
C988 C991 1.511 . S
C989 C985 1.376 . S
C989 C988 1.392 . S
C989 H1001 0.929 . S
C990 C986 1.531 . S
C990 H1002 0.960 1_455 S
C990 H1003 0.962 1_455 S
C990 H1004 0.960 . S
C991 C988 1.511 . S
C991 H1005 0.961 . S
C991 H1006 0.961 . S
C991 H1007 0.961 . S
C992 C993 1.370 . S
C992 C994 1.363 . S
C992 H1008 0.931 . S
C993 C992 1.370 . S
C993 C997 1.408 . S
C994 C992 1.363 . S
C994 C995 1.370 . S
C994 C998 1.524 . S
C995 C987 1.503 1_655 S
C995 C994 1.370 . S
C995 C996 1.403 . S
C996 C995 1.403 . S
C996 C997 1.404 . S
C996 C999 1.539 1_655 S
C997 C993 1.408 . S
C997 C996 1.404 . S
C997 H1009 0.930 . S
C998 C994 1.524 . S
C998 H1010 0.956 . S
C998 H1011 0.961 1_655 S
C998 H1012 0.961 . S
C999 C996 1.539 1_455 S
C999 H1013 0.958 . S
C999 H1014 0.961 . S
C999 H1015 0.960 . S
H1000 C984 0.931 . S
H1001 C989 0.929 . S
H1002 C990 0.960 1_655 S
H1003 C990 0.962 1_655 S
H1004 C990 0.960 . S
H1005 C991 0.961 . S
H1006 C991 0.961 . S
H1007 C991 0.961 . S
H1008 C992 0.931 . S
H1009 C997 0.930 . S
H1010 C998 0.956 . S
H1011 C998 0.961 1_455 S
H1012 C998 0.961 . S
H1013 C999 0.958 . S
H1014 C999 0.961 . S
H1015 C999 0.960 . S
C1016 C1017 1.391 . S
C1016 C1018 1.394 . S
C1016 H1032 0.931 . S
C1017 C1016 1.391 . S
C1017 C1021 1.376 . S
C1018 C1016 1.394 . S
C1018 C1019 1.369 . S
C1018 C1022 1.531 . S
C1019 C1018 1.369 . S
C1019 C1020 1.410 . S
C1019 C1027 1.503 . S
C1020 C1019 1.410 . S
C1020 C1021 1.392 . S
C1020 C1023 1.511 . S
C1021 C1017 1.376 . S
C1021 C1020 1.392 . S
C1021 H1033 0.929 . S
C1022 C1018 1.531 . S
C1022 H1034 0.960 . S
C1022 H1035 0.962 . S
C1022 H1036 0.960 . S
C1023 C1020 1.511 . S
C1023 H1037 0.961 . S
C1023 H1038 0.961 . S
C1023 H1039 0.961 . S
C1024 C1025 1.370 . S
C1024 C1026 1.363 . S
C1024 H1040 0.931 . S
C1025 C1024 1.370 . S
C1025 C1029 1.408 . S
C1026 C1024 1.363 . S
C1026 C1027 1.370 . S
C1026 C1030 1.524 . S
C1027 C1019 1.503 . S
C1027 C1026 1.370 . S
C1027 C1028 1.403 . S
C1028 C1027 1.403 . S
C1028 C1029 1.404 . S
C1028 C1031 1.539 . S
C1029 C1025 1.408 . S
C1029 C1028 1.404 . S
C1029 H1041 0.930 . S
C1030 C1026 1.524 . S
C1030 H1042 0.956 . S
C1030 H1043 0.961 . S
C1030 H1044 0.961 . S
C1031 C1028 1.539 . S
C1031 H1045 0.958 . S
C1031 H1046 0.961 . S
C1031 H1047 0.960 . S
H1032 C1016 0.931 . S
H1033 C1021 0.929 . S
H1034 C1022 0.960 . S
H1035 C1022 0.962 . S
H1036 C1022 0.960 . S
H1037 C1023 0.961 . S
H1038 C1023 0.961 . S
H1039 C1023 0.961 . S
H1040 C1024 0.931 . S
H1041 C1029 0.930 . S
H1042 C1030 0.956 . S
H1043 C1030 0.961 . S
H1044 C1030 0.961 . S
H1045 C1031 0.958 . S
H1046 C1031 0.961 . S
H1047 C1031 0.960 . S
C1048 C1049 1.391 . S
C1048 C1050 1.394 . S
C1048 H1064 0.931 . S
C1049 C1048 1.391 . S
C1049 C1053 1.376 . S
C1050 C1048 1.394 . S
C1050 C1051 1.369 . S
C1050 C1054 1.531 . S
C1051 C1050 1.369 . S
C1051 C1052 1.410 . S
C1051 C1059 1.503 . S
C1052 C1051 1.410 . S
C1052 C1053 1.392 . S
C1052 C1055 1.511 . S
C1053 C1049 1.376 . S
C1053 C1052 1.392 . S
C1053 H1065 0.929 . S
C1054 C1050 1.531 . S
C1054 H1066 0.960 . S
C1054 H1067 0.962 . S
C1054 H1068 0.960 . S
C1055 C1052 1.511 . S
C1055 H1069 0.961 . S
C1055 H1070 0.961 . S
C1055 H1071 0.961 . S
C1056 C1057 1.370 . S
C1056 C1058 1.363 . S
C1056 H1072 0.931 . S
C1057 C1056 1.370 . S
C1057 C1061 1.408 . S
C1058 C1056 1.363 . S
C1058 C1059 1.370 . S
C1058 C1062 1.524 . S
C1059 C1051 1.503 . S
C1059 C1058 1.370 . S
C1059 C1060 1.403 . S
C1060 C1059 1.403 . S
C1060 C1061 1.404 . S
C1060 C1063 1.539 . S
C1061 C1057 1.408 . S
C1061 C1060 1.404 . S
C1061 H1073 0.930 . S
C1062 C1058 1.524 . S
C1062 H1074 0.956 . S
C1062 H1075 0.961 . S
C1062 H1076 0.961 . S
C1063 C1060 1.539 . S
C1063 H1077 0.958 . S
C1063 H1078 0.961 . S
C1063 H1079 0.960 . S
H1064 C1048 0.931 . S
H1065 C1053 0.929 . S
H1066 C1054 0.960 . S
H1067 C1054 0.962 . S
H1068 C1054 0.960 . S
H1069 C1055 0.961 . S
H1070 C1055 0.961 . S
H1071 C1055 0.961 . S
H1072 C1056 0.931 . S
H1073 C1061 0.930 . S
H1074 C1062 0.956 . S
H1075 C1062 0.961 . S
H1076 C1062 0.961 . S
H1077 C1063 0.958 . S
H1078 C1063 0.961 . S
H1079 C1063 0.960 . S
C1080 C1081 1.391 . S
C1080 C1082 1.394 . S
C1080 H1096 0.931 . S
C1081 C1080 1.391 . S
C1081 C1085 1.376 . S
C1082 C1080 1.394 . S
C1082 C1083 1.369 . S
C1082 C1086 1.531 . S
C1083 C1082 1.369 . S
C1083 C1084 1.410 . S
C1083 C1091 1.503 . S
C1084 C1083 1.410 . S
C1084 C1085 1.392 . S
C1084 C1087 1.511 . S
C1085 C1081 1.376 . S
C1085 C1084 1.392 . S
C1085 H1097 0.929 . S
C1086 C1082 1.531 . S
C1086 H1098 0.960 . S
C1086 H1099 0.962 . S
C1086 H1100 0.960 . S
C1087 C1084 1.511 . S
C1087 H1101 0.961 . S
C1087 H1102 0.961 . S
C1087 H1103 0.961 . S
C1088 C1089 1.370 . S
C1088 C1090 1.363 . S
C1088 H1104 0.931 . S
C1089 C1088 1.370 . S
C1089 C1093 1.408 . S
C1090 C1088 1.363 . S
C1090 C1091 1.370 . S
C1090 C1094 1.524 . S
C1091 C1083 1.503 . S
C1091 C1090 1.370 . S
C1091 C1092 1.403 . S
C1092 C1091 1.403 . S
C1092 C1093 1.404 . S
C1092 C1095 1.539 . S
C1093 C1089 1.408 . S
C1093 C1092 1.404 . S
C1093 H1105 0.930 . S
C1094 C1090 1.524 . S
C1094 H1106 0.956 . S
C1094 H1107 0.961 . S
C1094 H1108 0.961 . S
C1095 C1092 1.539 . S
C1095 H1109 0.958 . S
C1095 H1110 0.961 . S
C1095 H1111 0.960 . S
H1096 C1080 0.931 . S
H1097 C1085 0.929 . S
H1098 C1086 0.960 . S
H1099 C1086 0.962 . S
H1100 C1086 0.960 . S
H1101 C1087 0.961 . S
H1102 C1087 0.961 . S
H1103 C1087 0.961 . S
H1104 C1088 0.931 . S
H1105 C1093 0.930 . S
H1106 C1094 0.956 . S
H1107 C1094 0.961 . S
H1108 C1094 0.961 . S
H1109 C1095 0.958 . S
H1110 C1095 0.961 . S
H1111 C1095 0.960 . S
C1112 C1113 1.391 . S
C1112 C1114 1.394 . S
C1112 H1128 0.931 . S
C1113 C1112 1.391 . S
C1113 C1117 1.376 . S
C1114 C1112 1.394 . S
C1114 C1115 1.369 . S
C1114 C1118 1.531 . S
C1115 C1114 1.369 . S
C1115 C1116 1.410 . S
C1115 C1123 1.503 . S
C1116 C1115 1.410 . S
C1116 C1117 1.392 . S
C1116 C1119 1.511 . S
C1117 C1113 1.376 . S
C1117 C1116 1.392 . S
C1117 H1129 0.929 . S
C1118 C1114 1.531 . S
C1118 H1130 0.960 . S
C1118 H1131 0.962 . S
C1118 H1132 0.960 . S
C1119 C1116 1.511 . S
C1119 H1133 0.961 . S
C1119 H1134 0.961 . S
C1119 H1135 0.961 . S
C1120 C1121 1.370 . S
C1120 C1122 1.363 . S
C1120 H1136 0.931 . S
C1121 C1120 1.370 . S
C1121 C1125 1.408 . S
C1122 C1120 1.363 . S
C1122 C1123 1.370 . S
C1122 C1126 1.524 . S
C1123 C1115 1.503 . S
C1123 C1122 1.370 . S
C1123 C1124 1.403 . S
C1124 C1123 1.403 . S
C1124 C1125 1.404 . S
C1124 C1127 1.539 . S
C1125 C1121 1.408 . S
C1125 C1124 1.404 . S
C1125 H1137 0.930 . S
C1126 C1122 1.524 . S
C1126 H1138 0.956 . S
C1126 H1139 0.961 . S
C1126 H1140 0.961 . S
C1127 C1124 1.539 . S
C1127 H1141 0.958 . S
C1127 H1142 0.961 . S
C1127 H1143 0.960 . S
H1128 C1112 0.931 . S
H1129 C1117 0.929 . S
H1130 C1118 0.960 . S
H1131 C1118 0.962 . S
H1132 C1118 0.960 . S
H1133 C1119 0.961 . S
H1134 C1119 0.961 . S
H1135 C1119 0.961 . S
H1136 C1120 0.931 . S
H1137 C1125 0.930 . S
H1138 C1126 0.956 . S
H1139 C1126 0.961 . S
H1140 C1126 0.961 . S
H1141 C1127 0.958 . S
H1142 C1127 0.961 . S
H1143 C1127 0.960 . S
C1144 C1145 1.391 . S
C1144 C1146 1.394 . S
C1144 H1160 0.931 . S
C1145 C1144 1.391 . S
C1145 C1149 1.376 . S
C1146 C1144 1.394 . S
C1146 C1147 1.369 . S
C1146 C1150 1.531 . S
C1147 C1146 1.369 . S
C1147 C1148 1.410 . S
C1147 C1155 1.503 . S
C1148 C1147 1.410 . S
C1148 C1149 1.392 . S
C1148 C1151 1.511 . S
C1149 C1145 1.376 . S
C1149 C1148 1.392 . S
C1149 H1161 0.929 . S
C1150 C1146 1.531 . S
C1150 H1162 0.960 . S
C1150 H1163 0.962 . S
C1150 H1164 0.960 . S
C1151 C1148 1.511 . S
C1151 H1165 0.961 . S
C1151 H1166 0.961 . S
C1151 H1167 0.961 . S
C1152 C1153 1.370 . S
C1152 C1154 1.363 . S
C1152 H1168 0.931 . S
C1153 C1152 1.370 . S
C1153 C1157 1.408 . S
C1154 C1152 1.363 . S
C1154 C1155 1.370 . S
C1154 C1158 1.524 . S
C1155 C1147 1.503 . S
C1155 C1154 1.370 . S
C1155 C1156 1.403 . S
C1156 C1155 1.403 . S
C1156 C1157 1.404 . S
C1156 C1159 1.539 . S
C1157 C1153 1.408 . S
C1157 C1156 1.404 . S
C1157 H1169 0.930 . S
C1158 C1154 1.524 . S
C1158 H1170 0.956 . S
C1158 H1171 0.961 . S
C1158 H1172 0.961 . S
C1159 C1156 1.539 . S
C1159 H1173 0.958 . S
C1159 H1174 0.961 . S
C1159 H1175 0.960 . S
H1160 C1144 0.931 . S
H1161 C1149 0.929 . S
H1162 C1150 0.960 . S
H1163 C1150 0.962 . S
H1164 C1150 0.960 . S
H1165 C1151 0.961 . S
H1166 C1151 0.961 . S
H1167 C1151 0.961 . S
H1168 C1152 0.931 . S
H1169 C1157 0.930 . S
H1170 C1158 0.956 . S
H1171 C1158 0.961 . S
H1172 C1158 0.961 . S
H1173 C1159 0.958 . S
H1174 C1159 0.961 . S
H1175 C1159 0.960 . S
C1176 C1177 1.391 . S
C1176 C1178 1.394 . S
C1176 H1192 0.931 . S
C1177 C1176 1.391 . S
C1177 C1181 1.376 . S
C1178 C1176 1.394 . S
C1178 C1179 1.369 . S
C1178 C1182 1.531 . S
C1179 C1178 1.369 . S
C1179 C1180 1.410 . S
C1179 C1187 1.503 . S
C1180 C1179 1.410 . S
C1180 C1181 1.392 . S
C1180 C1183 1.511 . S
C1181 C1177 1.376 . S
C1181 C1180 1.392 . S
C1181 H1193 0.929 . S
C1182 C1178 1.531 . S
C1182 H1194 0.960 . S
C1182 H1195 0.962 . S
C1182 H1196 0.960 . S
C1183 C1180 1.511 . S
C1183 H1197 0.961 . S
C1183 H1198 0.961 . S
C1183 H1199 0.961 . S
C1184 C1185 1.370 . S
C1184 C1186 1.363 . S
C1184 H1200 0.931 . S
C1185 C1184 1.370 . S
C1185 C1189 1.408 . S
C1186 C1184 1.363 . S
C1186 C1187 1.370 . S
C1186 C1190 1.524 . S
C1187 C1179 1.503 . S
C1187 C1186 1.370 . S
C1187 C1188 1.403 . S
C1188 C1187 1.403 . S
C1188 C1189 1.404 . S
C1188 C1191 1.539 . S
C1189 C1185 1.408 . S
C1189 C1188 1.404 . S
C1189 H1201 0.930 . S
C1190 C1186 1.524 . S
C1190 H1202 0.956 . S
C1190 H1203 0.961 . S
C1190 H1204 0.961 . S
C1191 C1188 1.539 . S
C1191 H1205 0.958 . S
C1191 H1206 0.961 . S
C1191 H1207 0.960 . S
H1192 C1176 0.931 . S
H1193 C1181 0.929 . S
H1194 C1182 0.960 . S
H1195 C1182 0.962 . S
H1196 C1182 0.960 . S
H1197 C1183 0.961 . S
H1198 C1183 0.961 . S
H1199 C1183 0.961 . S
H1200 C1184 0.931 . S
H1201 C1189 0.930 . S
H1202 C1190 0.956 . S
H1203 C1190 0.961 . S
H1204 C1190 0.961 . S
H1205 C1191 0.958 . S
H1206 C1191 0.961 . S
H1207 C1191 0.960 . S
C1208 C1209 1.391 . S
C1208 C1210 1.394 . S
C1208 H1224 0.931 . S
C1209 C1208 1.391 . S
C1209 C1213 1.376 . S
C1210 C1208 1.394 . S
C1210 C1211 1.369 . S
C1210 C1214 1.531 . S
C1211 C1210 1.369 . S
C1211 C1212 1.410 . S
C1211 C1219 1.503 . S
C1212 C1211 1.410 . S
C1212 C1213 1.392 . S
C1212 C1215 1.511 . S
C1213 C1209 1.376 . S
C1213 C1212 1.392 . S
C1213 H1225 0.929 . S
C1214 C1210 1.531 . S
C1214 H1226 0.960 . S
C1214 H1227 0.962 . S
C1214 H1228 0.960 . S
C1215 C1212 1.511 . S
C1215 H1229 0.961 . S
C1215 H1230 0.961 . S
C1215 H1231 0.961 . S
C1216 C1217 1.370 . S
C1216 C1218 1.363 . S
C1216 H1232 0.931 . S
C1217 C1216 1.370 . S
C1217 C1221 1.408 . S
C1218 C1216 1.363 . S
C1218 C1219 1.370 . S
C1218 C1222 1.524 . S
C1219 C1211 1.503 . S
C1219 C1218 1.370 . S
C1219 C1220 1.403 . S
C1220 C1219 1.403 . S
C1220 C1221 1.404 . S
C1220 C1223 1.539 . S
C1221 C1217 1.408 . S
C1221 C1220 1.404 . S
C1221 H1233 0.930 . S
C1222 C1218 1.524 . S
C1222 H1234 0.956 . S
C1222 H1235 0.961 . S
C1222 H1236 0.961 . S
C1223 C1220 1.539 . S
C1223 H1237 0.958 . S
C1223 H1238 0.961 . S
C1223 H1239 0.960 . S
H1224 C1208 0.931 . S
H1225 C1213 0.929 . S
H1226 C1214 0.960 . S
H1227 C1214 0.962 . S
H1228 C1214 0.960 . S
H1229 C1215 0.961 . S
H1230 C1215 0.961 . S
H1231 C1215 0.961 . S
H1232 C1216 0.931 . S
H1233 C1221 0.930 . S
H1234 C1222 0.956 . S
H1235 C1222 0.961 . S
H1236 C1222 0.961 . S
H1237 C1223 0.958 . S
H1238 C1223 0.961 . S
H1239 C1223 0.960 . S
C1240 C1241 1.391 . S
C1240 C1242 1.394 . S
C1240 H1256 0.931 . S
C1241 C1240 1.391 . S
C1241 C1245 1.376 . S
C1242 C1240 1.394 . S
C1242 C1243 1.369 . S
C1242 C1246 1.531 . S
C1243 C1242 1.369 . S
C1243 C1244 1.410 . S
C1243 C1251 1.503 . S
C1244 C1243 1.410 . S
C1244 C1245 1.392 . S
C1244 C1247 1.511 . S
C1245 C1241 1.376 . S
C1245 C1244 1.392 . S
C1245 H1257 0.929 . S
C1246 C1242 1.531 . S
C1246 H1258 0.960 . S
C1246 H1259 0.962 . S
C1246 H1260 0.960 . S
C1247 C1244 1.511 . S
C1247 H1261 0.961 . S
C1247 H1262 0.961 . S
C1247 H1263 0.961 . S
C1248 C1249 1.370 . S
C1248 C1250 1.363 . S
C1248 H1264 0.931 . S
C1249 C1248 1.370 . S
C1249 C1253 1.408 . S
C1250 C1248 1.363 . S
C1250 C1251 1.370 . S
C1250 C1254 1.524 . S
C1251 C1243 1.503 . S
C1251 C1250 1.370 . S
C1251 C1252 1.403 . S
C1252 C1251 1.403 . S
C1252 C1253 1.404 . S
C1252 C1255 1.539 . S
C1253 C1249 1.408 . S
C1253 C1252 1.404 . S
C1253 H1265 0.930 . S
C1254 C1250 1.524 . S
C1254 H1266 0.956 . S
C1254 H1267 0.961 . S
C1254 H1268 0.961 . S
C1255 C1252 1.539 . S
C1255 H1269 0.958 . S
C1255 H1270 0.961 . S
C1255 H1271 0.960 . S
H1256 C1240 0.931 . S
H1257 C1245 0.929 . S
H1258 C1246 0.960 . S
H1259 C1246 0.962 . S
H1260 C1246 0.960 . S
H1261 C1247 0.961 . S
H1262 C1247 0.961 . S
H1263 C1247 0.961 . S
H1264 C1248 0.931 . S
H1265 C1253 0.930 . S
H1266 C1254 0.956 . S
H1267 C1254 0.961 . S
H1268 C1254 0.961 . S
H1269 C1255 0.958 . S
H1270 C1255 0.961 . S
H1271 C1255 0.960 . S
C1272 C1273 1.391 . S
C1272 C1274 1.394 . S
C1272 H1288 0.931 . S
C1273 C1272 1.391 . S
C1273 C1277 1.376 . S
C1274 C1272 1.394 . S
C1274 C1275 1.369 . S
C1274 C1278 1.531 . S
C1275 C1274 1.369 . S
C1275 C1276 1.410 . S
C1275 C1283 1.503 . S
C1276 C1275 1.410 . S
C1276 C1277 1.392 . S
C1276 C1279 1.511 . S
C1277 C1273 1.376 . S
C1277 C1276 1.392 . S
C1277 H1289 0.929 . S
C1278 C1274 1.531 . S
C1278 H1290 0.960 . S
C1278 H1291 0.962 . S
C1278 H1292 0.960 . S
C1279 C1276 1.511 . S
C1279 H1293 0.961 . S
C1279 H1294 0.961 . S
C1279 H1295 0.961 . S
C1280 C1281 1.370 . S
C1280 C1282 1.363 . S
C1280 H1296 0.931 . S
C1281 C1280 1.370 . S
C1281 C1285 1.408 . S
C1282 C1280 1.363 . S
C1282 C1283 1.370 . S
C1282 C1286 1.524 . S
C1283 C1275 1.503 . S
C1283 C1282 1.370 . S
C1283 C1284 1.403 . S
C1284 C1283 1.403 . S
C1284 C1285 1.404 . S
C1284 C1287 1.539 . S
C1285 C1281 1.408 . S
C1285 C1284 1.404 . S
C1285 H1297 0.930 . S
C1286 C1282 1.524 . S
C1286 H1298 0.956 . S
C1286 H1299 0.961 . S
C1286 H1300 0.961 . S
C1287 C1284 1.539 . S
C1287 H1301 0.958 . S
C1287 H1302 0.961 . S
C1287 H1303 0.960 . S
H1288 C1272 0.931 . S
H1289 C1277 0.929 . S
H1290 C1278 0.960 . S
H1291 C1278 0.962 . S
H1292 C1278 0.960 . S
H1293 C1279 0.961 . S
H1294 C1279 0.961 . S
H1295 C1279 0.961 . S
H1296 C1280 0.931 . S
H1297 C1285 0.930 . S
H1298 C1286 0.956 . S
H1299 C1286 0.961 . S
H1300 C1286 0.961 . S
H1301 C1287 0.958 . S
H1302 C1287 0.961 . S
H1303 C1287 0.960 . S
C1304 C1305 1.391 . S
C1304 C1306 1.394 . S
C1304 H1320 0.931 . S
C1305 C1304 1.391 . S
C1305 C1309 1.376 . S
C1306 C1304 1.394 . S
C1306 C1307 1.369 . S
C1306 C1310 1.531 1_554 S
C1307 C1306 1.369 . S
C1307 C1308 1.410 . S
C1307 C1315 1.503 . S
C1308 C1307 1.410 . S
C1308 C1309 1.392 . S
C1308 C1311 1.511 . S
C1309 C1305 1.376 . S
C1309 C1308 1.392 . S
C1309 H1321 0.929 . S
C1310 C1306 1.531 1_556 S
C1310 H1322 0.960 . S
C1310 H1323 0.962 . S
C1310 H1324 0.960 . S
C1311 C1308 1.511 . S
C1311 H1325 0.961 . S
C1311 H1326 0.961 . S
C1311 H1327 0.961 . S
C1312 C1313 1.370 . S
C1312 C1314 1.363 . S
C1312 H1328 0.931 . S
C1313 C1312 1.370 . S
C1313 C1317 1.408 1_556 S
C1314 C1312 1.363 . S
C1314 C1315 1.370 1_556 S
C1314 C1318 1.524 . S
C1315 C1307 1.503 . S
C1315 C1314 1.370 1_554 S
C1315 C1316 1.403 . S
C1316 C1315 1.403 . S
C1316 C1317 1.404 . S
C1316 C1319 1.539 . S
C1317 C1313 1.408 1_554 S
C1317 C1316 1.404 . S
C1317 H1329 0.930 . S
C1318 C1314 1.524 . S
C1318 H1330 0.956 . S
C1318 H1331 0.961 . S
C1318 H1332 0.961 . S
C1319 C1316 1.539 . S
C1319 H1333 0.958 . S
C1319 H1334 0.961 . S
C1319 H1335 0.960 . S
H1320 C1304 0.931 . S
H1321 C1309 0.929 . S
H1322 C1310 0.960 . S
H1323 C1310 0.962 . S
H1324 C1310 0.960 . S
H1325 C1311 0.961 . S
H1326 C1311 0.961 . S
H1327 C1311 0.961 . S
H1328 C1312 0.931 . S
H1329 C1317 0.930 . S
H1330 C1318 0.956 . S
H1331 C1318 0.961 . S
H1332 C1318 0.961 . S
H1333 C1319 0.958 . S
H1334 C1319 0.961 . S
H1335 C1319 0.960 . S
C569 C7 1.311 . S
C577 C89 1.251 . S
C601 C37 1.586 . S
C609 C168 1.491 . S
C633 C54 1.408 . S
C641 C239 1.378 1_545 S
C673 C299 1.723 . S
C665 C87 1.710 . S
C705 C329 1.420 . S
C697 C30 1.552 . S
C729 C51 1.368 . S
C737 C419 1.368 . S
C761 C84 1.688 . S
C769 C479 1.694 . S
C793 C10 1.432 . S
C801 C528 1.399 1_455 S
C825 C59 1.370 . S
C833 C509 1.298 . S
C865 C348 1.535 . S
C857 C74 1.546 . S
C897 C408 1.240 1_565 S
C889 C18 1.438 . S
C921 C32 1.715 . S
C929 C468 1.605 . S
C961 C149 1.403 . S
C953 C73 1.602 . S
C985 C15 1.355 . S
C993 C228 1.296 . S
C1025 C288 1.617 . S
C1017 C43 1.698 . S
C1057 C108 1.370 1_655 S
C1049 C62 1.414 . S
C1089 C449 1.645 . S
C1081 C21 1.705 . S
C1121 C539 1.102 . S
C1113 C29 1.133 . S
C1145 C52 1.359 . S
C1153 C359 1.324 . S
C1185 C389 1.131 . S
C1177 C81 1.130 . S
C1217 C209 1.043 . S
C1209 C40 1.102 . S
C1241 C65 1.660 . S
C1249 C269 1.637 . S
C1281 C119 1.060 . S
C1273 C76 1.090 . S
C1313 C179 1.329 . S
C1305 C8 1.379 . S
