# Generated by pormake.
# Topology pts, (4,4)-cn, num edge types: 1
# Building blocks:
#     Node 0, Type 0, BuildingBlock: KUFVIS_clean_linker_0, # of connection points: 4
#     Node 1, Type 0, BuildingBlock: KUFVIS_clean_linker_0, # of connection points: 4
#     Node 2, Type 1, BuildingBlock: UXUYUI_clean_sbu_0, # of connection points: 4
#     Node 3, Type 1, BuildingBlock: UXUYUI_clean_sbu_0, # of connection points: 4
#     Edge 4, Type (0, 1), BuildingBlock: OJICUG_clean_linker_0, # of connection points: 2
#     Edge 5, Type (0, 1), BuildingBlock: OJICUG_clean_linker_0, # of connection points: 2
#     Edge 6, Type (0, 1), BuildingBlock: OJICUG_clean_linker_0, # of connection points: 2
#     Edge 7, Type (0, 1), BuildingBlock: OJICUG_clean_linker_0, # of connection points: 2
#     Edge 8, Type (0, 1), BuildingBlock: OJICUG_clean_linker_0, # of connection points: 2
#     Edge 9, Type (0, 1), BuildingBlock: OJICUG_clean_linker_0, # of connection points: 2
#     Edge 10, Type (0, 1), BuildingBlock: OJICUG_clean_linker_0, # of connection points: 2
#     Edge 11, Type (0, 1), BuildingBlock: OJICUG_clean_linker_0, # of connection points: 2
# Relax obj value: 0.008
# Max RMSD: 0.067
# Mean RMSD: 0.060
data_MOF--net-pts--node1-UXUYUI_clean_sbu_0--node2-KUFVIS_clean_linker_0--edge1-OJICUG_clean_linker_0
_symmetry_space_group_name_H-M    P1
_symmetry_Int_Tables_number       1
_symmetry_cell_setting            triclinic
loop_
_symmetry_equiv_pos_as_xyz
'x, y, z'
_cell_length_a     24.186981
_cell_length_b     24.182146
_cell_length_c     34.440758
_cell_angle_alpha  89.95753
_cell_angle_beta   89.94553
_cell_angle_gamma 90.015578
loop_
_atom_site_label
_atom_site_type_symbol
_atom_site_fract_x
_atom_site_fract_y
_atom_site_fract_z
_atom_type_partial_charge
H0 H 0.34644 0.0363 -0.02214 0.0
H1 H 0.49837 1.01328 0.91639 0.0
H2 H 0.49903 0.05907 0.03833 0.0
H3 H 0.57907 1.01415 0.03824 0.0
H4 H 0.73102 0.03627 -0.02342 0.0
H5 H 0.57843 0.0582 0.91594 0.0
C6 C 0.39133 0.03624 -0.0223 0.0
C7 C 0.41988 0.0481 0.01184 0.0
C8 C 0.41949 1.02432 0.94337 0.0
C9 C 0.47747 1.02411 0.94311 0.0
C10 C 0.50768 0.03619 -0.02267 0.0
C11 C 0.47785 0.04827 0.01174 0.0
C12 C 0.56977 0.03618 -0.02288 0.0
C13 C 0.59998 1.0246 0.01143 0.0
C14 C 0.65796 1.0248 0.01116 0.0
C15 C 0.68613 0.03621 -0.02326 0.0
C16 C 0.65758 0.04758 0.94251 0.0
C17 C 0.59961 0.04777 0.94261 0.0
H18 H 0.03929 0.72899 0.47645 0.0
H19 H 0.06267 0.57715 0.53798 0.0
H20 H 1.01683 0.57624 0.41606 0.0
H21 H 0.06187 0.49626 0.41618 0.0
H22 H 0.03999 0.34433 0.47793 0.0
H23 H 1.01787 0.49701 0.53848 0.0
C24 C 0.03946 0.68409 0.47663 0.0
C25 C 1.02764 0.65547 0.4425 0.0
C26 C 0.05145 0.65599 0.51097 0.0
C27 C 0.05178 0.598 0.51125 0.0
C28 C 0.03976 0.56772 0.47706 0.0
C29 C 1.0276 0.59749 0.44263 0.0
C30 C 0.03988 0.50561 0.4773 0.0
C31 C 0.05148 0.47537 0.443 0.0
C32 C 0.05136 0.41738 0.4433 0.0
C33 C 0.04001 0.38924 0.47774 0.0
C34 C 1.02861 0.41783 0.51196 0.0
C35 C 1.02834 0.4758 0.51182 0.0
Li36 Li 0.04052 0.08778 0.25288 0.0
Li37 Li 0.03617 0.9857 0.25268 0.0
Li38 Li 0.0896 0.03911 0.20166 0.0
Li39 Li 0.98753 0.0349 0.2015 0.0
C40 C 0.13777 0.05374 0.28625 0.0
N41 N 0.20786 0.09494 0.34262 0.0
C42 C 0.14095 1.02814 0.32258 0.0
C43 C 0.17097 0.09974 0.2784 0.0
C44 C 0.17646 0.04971 0.35074 0.0
C45 C 0.20591 0.12012 0.30732 0.0
C46 C 0.93863 1.0194 0.2859 0.0
C47 C 0.87037 0.95275 0.30652 0.0
N48 N 0.86804 0.97763 0.34189 0.0
C49 C 0.93505 0.04469 0.3223 0.0
C50 C 0.90558 0.97342 0.27779 0.0
C51 C 0.89929 1.02283 0.35026 0.0
C52 C 0.03614 0.2034 0.26687 0.0
N53 N 0.04326 0.15311 0.28391 0.0
C54 C 0.06054 0.19578 0.34518 0.0
C55 C 0.05433 0.14856 0.32243 0.0
C56 C 0.0548 0.24837 0.32825 0.0
C57 C 0.0417 0.25188 0.28863 0.0
H58 H 1.02651 0.20596 0.2363 0.0
H59 H 0.05858 0.10819 0.33553 0.0
C60 C 0.04087 0.86996 0.26624 0.0
N61 N 0.03328 0.92004 0.28343 0.0
C62 C 0.03548 0.82125 0.28783 0.0
C63 C 1.01573 0.87671 0.34451 0.0
C64 C 1.0218 0.92417 0.32194 0.0
C65 C 1.02205 0.82431 0.32743 0.0
H66 H 0.05082 0.86775 0.2357 0.0
H67 H 1.0172 0.96439 0.33516 0.0
C68 C 0.05602 0.13673 0.16849 0.0
N69 N 0.09784 0.20729 0.11251 0.0
C70 C 1.0307 0.14038 0.13212 0.0
C71 C 0.10205 0.16971 0.17659 0.0
C72 C 0.05258 0.17611 0.10415 0.0
C73 C 0.12275 0.20489 0.14786 0.0
C74 C 1.0214 0.9376 0.16807 0.0
C75 C 0.04693 0.93441 0.13172 0.0
C76 C 0.97539 0.90443 0.17595 0.0
C77 C 1.02528 0.89894 0.10356 0.0
C78 C 0.95493 0.86952 0.14704 0.0
N79 N 0.98004 0.86757 0.11172 0.0
C80 C 0.2053 0.03437 0.18805 0.0
C81 C 0.15109 0.05347 0.13237 0.0
C82 C 0.254 0.03981 0.16646 0.0
N83 N 0.15523 0.04197 0.17087 0.0
C84 C 0.19854 0.05959 0.1098 0.0
C85 C 0.25093 0.05329 0.12687 0.0
H86 H 0.20752 1.0244 0.21859 0.0
H87 H 0.11087 0.05808 0.11916 0.0
C88 C 0.87193 0.0395 0.18757 0.0
N89 N 0.92219 1.03228 0.17051 0.0
C90 C 0.82345 0.03405 0.16581 0.0
C91 C 0.87948 1.01513 0.10923 0.0
C92 C 0.9267 1.02123 0.13197 0.0
C93 C 0.82692 1.02097 0.12618 0.0
H94 H 0.86941 0.04912 0.21814 0.0
H95 H 0.96706 1.01692 0.11887 0.0
O96 O 0.10265 0.03357 0.2585 0.0
O97 O 0.97399 0.03985 0.25834 0.0
O98 O 0.03554 0.10138 0.19606 0.0
O99 O 0.04165 0.97268 0.19582 0.0
H100 H 0.11622 0.99209 0.32904 0.0
H101 H 0.16978 0.11952 0.25032 0.0
H102 H 0.17905 1.03049 0.37905 0.0
H103 H 0.23153 0.15592 0.30169 0.0
H104 H 0.84487 0.91696 0.30069 0.0
H105 H 0.95966 0.08072 0.32895 0.0
H106 H 0.90708 0.95387 0.24965 0.0
H107 H 0.89639 0.04181 0.37862 0.0
H108 H 0.06911 0.19108 0.37587 0.0
H109 H 0.03663 0.29158 0.27452 0.0
H110 H 0.04102 0.7817 0.27361 0.0
H111 H 1.00689 0.88107 0.37519 0.0
H112 H 0.99462 0.11583 0.12548 0.0
H113 H 0.12163 0.16815 0.20471 0.0
H114 H 0.03358 0.17907 0.07581 0.0
H115 H 0.15858 0.23034 0.15368 0.0
H116 H 0.08299 0.95912 0.12524 0.0
H117 H 0.95567 0.90562 0.20406 0.0
H118 H 0.04445 0.89634 0.07523 0.0
H119 H 0.91912 0.84393 0.15269 0.0
H120 H 0.29354 0.03429 0.18067 0.0
H121 H 0.19417 0.06845 0.07912 0.0
H122 H 0.78376 0.0392 0.17994 0.0
H123 H 0.88415 1.00657 0.07854 0.0
Li124 Li 0.98814 0.03816 0.75287 0.0
Li125 Li 0.09021 0.03387 0.75285 0.0
Li126 Li 0.03736 0.08731 0.70165 0.0
Li127 Li 0.04153 0.98522 0.70168 0.0
C128 C 1.02224 0.1366 0.78559 0.0
N129 N 0.98137 0.20922 0.84053 0.0
C130 C 0.04737 0.14065 0.82201 0.0
C131 C 0.97691 0.17023 0.77692 0.0
C132 C 1.02596 0.17742 0.84944 0.0
C133 C 0.95668 0.20645 0.80513 0.0
C134 C 0.05651 0.93731 0.78664 0.0
C135 C 0.12366 0.8705 0.80858 0.0
N136 N 0.0984 0.86898 0.84386 0.0
C137 C 1.03085 0.9346 0.82297 0.0
C138 C 0.10293 0.90456 0.77923 0.0
C139 C 0.05278 0.89996 0.85157 0.0
C140 C 0.87256 1.03193 0.76666 0.0
N141 N 0.92252 0.04091 0.78366 0.0
C142 C 0.87902 0.05968 0.84447 0.0
C143 C 0.92653 0.05365 0.82196 0.0
C144 C 0.82671 0.05203 0.82756 0.0
C145 C 0.82381 0.03727 0.7882 0.0
H146 H 0.87046 1.02092 0.7363 0.0
H147 H 0.96669 0.05919 0.83507 0.0
C148 C 0.20589 0.03713 0.76666 0.0
N149 N 0.15556 1.0311 0.78385 0.0
C150 C 0.25432 1.03162 0.78846 0.0
C151 C 0.1981 1.01497 0.84533 0.0
C152 C 0.15093 1.02112 0.82253 0.0
C153 C 0.25071 1.01966 0.82827 0.0
H154 H 0.20851 0.04585 0.73595 0.0
H155 H 0.11054 1.01761 0.8357 0.0
C156 C 0.93888 0.05335 0.66896 0.0
N157 N 0.8663 0.09439 0.61408 0.0
C158 C 0.93469 1.02819 0.63255 0.0
C159 C 0.90542 0.09881 0.67765 0.0
C160 C 0.89794 0.04968 0.60515 0.0
C161 C 0.8692 0.11912 0.64947 0.0
C162 C 0.13812 1.01877 0.66791 0.0
C163 C 0.14086 0.04435 0.63155 0.0
C164 C 0.17083 0.97233 0.67536 0.0
C165 C 0.17547 1.02233 0.60297 0.0
C166 C 0.20487 0.95151 0.64602 0.0
N167 N 0.20641 0.97669 0.61072 0.0
C168 C 0.04383 0.20289 0.68784 0.0
C169 C 1.02199 0.14891 0.63256 0.0
C170 C 0.0386 0.25164 0.66629 0.0
N171 N 0.03473 0.15292 0.67086 0.0
C172 C 1.01606 0.19642 0.61003 0.0
C173 C 1.02384 0.24874 0.62694 0.0
H174 H 0.05484 0.20499 0.71819 0.0
H175 H 1.01635 0.10875 0.61946 0.0
C176 C 0.0384 0.86951 0.68781 0.0
N177 N 0.04428 0.91988 0.67065 0.0
C178 C 0.04395 0.82111 0.66595 0.0
C179 C 0.06034 0.87745 0.60911 0.0
C180 C 0.05415 0.92458 0.63196 0.0
C181 C 0.05581 0.82479 0.62613 0.0
H182 H 1.02976 0.86683 0.71853 0.0
H183 H 0.05755 0.96501 0.61881 0.0
O184 O 0.04229 0.10028 0.75854 0.0
O185 O 0.036 0.97159 0.75846 0.0
O186 O 0.9752 0.03323 0.69598 0.0
O187 O 0.10386 0.03936 0.69607 0.0
H188 H 0.08294 0.11562 0.82909 0.0
H189 H 0.95761 0.16849 0.74872 0.0
H190 H 0.04482 0.18069 0.87782 0.0
H191 H 0.92141 0.23245 0.79884 0.0
H192 H 0.1598 0.84526 0.8033 0.0
H193 H 0.99451 0.95904 0.8291 0.0
H194 H 0.12286 0.90552 0.75117 0.0
H195 H 0.03352 0.89774 0.87989 0.0
H196 H 0.8833 0.06951 0.875 0.0
H197 H 0.78435 1.03068 0.7741 0.0
H198 H 0.29406 0.03586 0.77426 0.0
H199 H 0.19336 1.00725 0.87613 0.0
H200 H 0.95959 0.99253 0.62546 0.0
H201 H 0.90727 0.11814 0.70584 0.0
H202 H 0.89455 1.0308 0.57679 0.0
H203 H 0.84333 0.15448 0.65577 0.0
H204 H 0.11645 0.08071 0.62539 0.0
H205 H 0.16985 0.95246 0.70343 0.0
H206 H 0.17772 0.04153 0.57464 0.0
H207 H 0.23007 0.91534 0.65133 0.0
H208 H 0.04529 0.2911 0.68037 0.0
H209 H 1.00622 0.19215 0.57951 0.0
H210 H 0.03984 0.78133 0.68014 0.0
H211 H 0.06797 0.88225 0.5783 0.0
C212 C 0.38699 1.01956 0.07752 0.0
C213 C 0.38706 0.0584 0.04725 0.0
H214 H 0.3431 0.9871 0.12662 0.0
C215 C 0.34693 0.10029 0.04686 0.0
H216 H 0.41717 0.98646 0.07799 0.0
C217 C 0.30467 0.10068 0.07441 0.0
C218 C 0.3015 0.05894 0.10273 0.0
H219 H 0.34623 0.13057 0.02365 0.0
H220 H 0.27289 0.13211 0.07236 0.0
C221 C 0.34445 1.01982 0.10515 0.0
C222 C 0.05835 0.38438 0.57716 0.0
C223 C 1.01875 0.38505 0.54744 0.0
H224 H 0.0914 0.33996 0.62577 0.0
C225 C 0.97633 0.34547 0.54755 0.0
H226 H 0.09186 0.41411 0.57721 0.0
C227 C 0.97601 0.30317 0.57508 0.0
C228 C 1.01838 0.29939 0.60284 0.0
H229 H 0.9455 0.34521 0.52474 0.0
H230 H 0.94407 0.27184 0.57344 0.0
C231 C 0.05817 0.34179 0.60475 0.0
C232 C 0.73172 0.97354 0.046 0.0
C233 C 0.69113 1.01498 0.04645 0.0
H234 H 0.806 0.94235 0.07147 0.0
C235 C 0.69074 0.05371 0.07675 0.0
H236 H 0.73275 0.94331 0.02279 0.0
C237 C 0.73323 0.05377 0.10437 0.0
C238 C 0.77656 1.01509 0.10192 0.0
H239 H 0.66019 0.08645 0.07729 0.0
H240 H 0.73417 0.08638 0.1259 0.0
C241 C 0.77392 0.97347 0.07353 0.0
C242 C 0.10258 0.73037 0.54526 0.0
C243 C 0.06166 0.68924 0.54617 0.0
H244 H 0.13339 0.80504 0.57042 0.0
C245 C 1.02369 0.68825 0.57699 0.0
H246 H 0.13224 0.73185 0.52168 0.0
C247 C 1.02374 0.73068 0.60466 0.0
C248 C 0.06179 0.77454 0.60176 0.0
H249 H 0.99136 0.65726 0.5779 0.0
H250 H 0.99166 0.73114 0.62662 0.0
C251 C 0.10276 0.77252 0.57285 0.0
C252 C 0.38715 0.05209 0.87739 0.0
C253 C 0.3863 1.01404 0.90816 0.0
H254 H 0.34415 0.0841 0.82782 0.0
C255 C 0.34532 0.97297 0.90903 0.0
H256 H 0.41804 0.08453 0.87651 0.0
C257 C 0.30316 0.97272 0.88146 0.0
C258 C 0.30099 1.01376 0.8526 0.0
H259 H 0.34394 0.94325 0.93257 0.0
H260 H 0.27075 0.94198 0.88386 0.0
C261 C 0.34473 0.05196 0.84973 0.0
C262 C 1.02239 0.38464 0.37771 0.0
C263 C 0.06111 0.38416 0.40801 0.0
H264 H 0.98963 0.34129 0.32856 0.0
C265 C 0.10246 0.34347 0.40845 0.0
H266 H 0.98973 0.41528 0.37718 0.0
C267 C 0.10242 0.30126 0.3809 0.0
C268 C 0.0608 0.29871 0.35252 0.0
H269 H 0.13267 0.34237 0.43165 0.0
H270 H 0.13346 0.2691 0.38296 0.0
C271 C 1.02223 0.34215 0.35009 0.0
C272 C 0.69098 1.01782 0.87728 0.0
C273 C 0.69039 0.05741 0.90704 0.0
H274 H 0.73533 0.98469 0.82867 0.0
C275 C 0.73006 0.09974 0.90695 0.0
H276 H 0.66117 0.98437 0.87722 0.0
C277 C 0.77237 0.09998 0.87943 0.0
C278 C 0.77607 0.05761 0.85164 0.0
H279 H 0.73038 0.13056 0.92977 0.0
H280 H 0.80377 0.13184 0.88109 0.0
C281 C 0.73358 1.01791 0.8497 0.0
C282 C 0.05604 0.68833 0.37679 0.0
C283 C 1.01724 0.68823 0.40709 0.0
H284 H 0.08836 0.73222 0.32765 0.0
C285 C 0.97529 0.72829 0.40749 0.0
H286 H 0.08918 0.6582 0.37631 0.0
C287 C 0.97479 0.77053 0.37992 0.0
C288 C 1.01649 0.77373 0.35157 0.0
H289 H 0.94505 0.72896 0.43072 0.0
H290 H 0.94332 0.80226 0.38198 0.0
C291 C 0.05567 0.73084 0.34914 0.0
loop_
_geom_bond_atom_site_label_1
_geom_bond_atom_site_label_2
_geom_bond_distance
_geom_bond_site_symmetry_2
_ccdc_geom_bond_type
H0 C6 0.929 1_565 S
H1 C9 0.931 . S
H2 C11 0.930 1_565 S
H3 C13 0.930 . S
H4 C15 0.930 . S
H5 C17 0.928 1_565 S
C6 H0 0.929 1_545 S
C6 C7 1.380 1_545 S
C6 C8 1.394 1_554 S
C7 C6 1.380 1_565 S
C7 C11 1.382 1_565 S
C8 C6 1.394 1_556 S
C8 C9 1.400 . S
C9 H1 0.931 . S
C9 C8 1.400 . S
C9 C10 1.375 1_556 S
C10 C9 1.375 1_554 S
C10 C11 1.417 . S
C10 C12 1.501 . S
C11 H2 0.930 1_545 S
C11 C7 1.382 1_545 S
C11 C10 1.417 . S
C12 C10 1.501 . S
C12 C13 1.384 . S
C12 C17 1.411 1_554 S
C13 H3 0.930 . S
C13 C12 1.384 . S
C13 C14 1.389 . S
C14 C13 1.389 . S
C14 C15 1.405 . S
C15 H4 0.930 . S
C15 C14 1.405 . S
C15 C16 1.366 1_554 S
C16 C15 1.366 1_556 S
C16 C17 1.400 . S
C17 H5 0.928 1_545 S
C17 C12 1.411 1_556 S
C17 C16 1.400 . S
H18 C24 0.930 . S
H19 C27 0.931 . S
H20 C29 0.931 . S
H21 C31 0.930 . S
H22 C33 0.930 . S
H23 C35 0.931 . S
C24 H18 0.930 . S
C24 C25 1.380 . S
C24 C26 1.394 1_455 S
C25 C24 1.380 . S
C25 C29 1.382 . S
C26 C24 1.394 1_655 S
C26 C27 1.400 . S
C27 H19 0.931 . S
C27 C26 1.400 . S
C27 C28 1.375 1_655 S
C28 C27 1.375 1_455 S
C28 C29 1.415 . S
C28 C30 1.501 . S
C29 H20 0.931 . S
C29 C25 1.382 . S
C29 C28 1.415 . S
C30 C28 1.501 . S
C30 C31 1.384 1_455 S
C30 C35 1.408 . S
C31 H21 0.930 . S
C31 C30 1.384 1_655 S
C31 C32 1.389 . S
C32 C31 1.389 . S
C32 C33 1.405 1_655 S
C33 H22 0.930 . S
C33 C32 1.405 1_455 S
C33 C34 1.364 . S
C34 C33 1.364 . S
C34 C35 1.400 . S
C35 H23 0.931 . S
C35 C30 1.408 . S
C35 C34 1.400 . S
Li36 N53 1.990 . S
Li36 O96 1.956 . S
Li36 O97 1.970 1_455 S
Li36 O98 1.961 . S
Li37 N61 1.990 1_455 S
Li37 O96 1.970 1_565 S
Li37 O97 1.956 1_465 S
Li37 O99 1.961 . S
Li38 N83 1.990 . S
Li38 O96 1.961 . S
Li38 O98 1.956 . S
Li38 O99 1.970 1_545 S
Li39 N89 1.989 1_545 S
Li39 O97 1.962 . S
Li39 O98 1.986 1_655 S
Li39 O99 1.942 1_645 S
C40 C42 1.348 1_545 S
C40 C43 1.356 . S
C40 O96 1.325 . S
N41 C44 1.314 1_545 S
N41 C45 1.279 . S
C42 C40 1.348 1_565 S
C42 C44 1.353 . S
C42 H100 0.929 . S
C43 C40 1.356 . S
C43 C45 1.358 . S
C43 H101 0.930 . S
C44 N41 1.314 1_565 S
C44 C42 1.353 . S
C44 H102 0.930 . S
C45 N41 1.279 . S
C45 C43 1.358 . S
C45 H103 0.930 . S
C46 C49 1.348 . S
C46 C50 1.356 1_545 S
C46 O97 1.325 . S
C47 N48 1.279 . S
C47 C50 1.358 . S
C47 H104 0.930 . S
N48 C47 1.279 . S
N48 C51 1.314 1_565 S
C49 C46 1.348 . S
C49 C51 1.353 . S
C49 H105 0.929 . S
C50 C46 1.356 1_565 S
C50 C47 1.358 . S
C50 H106 0.930 . S
C51 N48 1.314 1_545 S
C51 C49 1.353 . S
C51 H107 0.930 . S
C52 N53 1.314 1_655 S
C52 C57 1.353 . S
C52 H58 0.930 . S
N53 Li36 1.990 . S
N53 C52 1.314 1_455 S
N53 C55 1.279 . S
C54 C55 1.358 . S
C54 C56 1.356 . S
C54 H108 0.930 . S
C55 N53 1.279 . S
C55 C54 1.358 . S
C55 H59 0.930 . S
C56 C54 1.356 . S
C56 C57 1.348 1_455 S
C57 C52 1.353 . S
C57 C56 1.348 1_655 S
C57 H109 0.929 . S
H58 C52 0.930 . S
H59 C55 0.930 . S
C60 N61 1.315 1_455 S
C60 C62 1.353 . S
C60 H66 0.930 . S
N61 Li37 1.990 1_655 S
N61 C60 1.315 1_655 S
N61 C64 1.279 . S
C62 C60 1.353 . S
C62 C65 1.348 . S
C62 H110 0.929 . S
C63 C64 1.358 . S
C63 C65 1.356 1_655 S
C63 H111 0.930 . S
C64 N61 1.279 . S
C64 C63 1.358 . S
C64 H67 0.930 . S
C65 C62 1.348 . S
C65 C63 1.356 1_455 S
H66 C60 0.930 . S
H67 C64 0.930 . S
C68 C70 1.348 1_455 S
C68 C71 1.356 . S
C68 O98 1.325 . S
N69 C72 1.314 1_455 S
N69 C73 1.279 . S
C70 C68 1.348 1_655 S
C70 C72 1.353 . S
C70 H112 0.929 . S
C71 C68 1.356 . S
C71 C73 1.358 . S
C71 H113 0.930 . S
C72 N69 1.314 1_655 S
C72 C70 1.353 . S
C72 H114 0.930 . S
C73 N69 1.279 . S
C73 C71 1.358 . S
C73 H115 0.930 . S
C74 C75 1.348 . S
C74 C76 1.356 1_455 S
C74 O99 1.325 . S
C75 C74 1.348 . S
C75 C77 1.353 . S
C75 H116 0.929 . S
C76 C74 1.356 1_655 S
C76 C78 1.358 . S
C76 H117 0.930 . S
C77 C75 1.353 . S
C77 N79 1.313 . S
C77 H118 0.930 . S
C78 C76 1.358 . S
C78 N79 1.280 1_655 S
C78 H119 0.930 . S
N79 C77 1.313 . S
N79 C78 1.280 1_455 S
C80 C82 1.353 . S
C80 N83 1.314 1_565 S
C80 H86 0.930 . S
C81 N83 1.279 . S
C81 C84 1.358 . S
C81 H87 0.930 . S
C82 C80 1.353 . S
C82 C85 1.348 1_565 S
C82 H120 0.929 . S
N83 Li38 1.990 . S
N83 C80 1.314 1_545 S
N83 C81 1.279 . S
C84 C81 1.358 . S
C84 C85 1.356 . S
C84 H121 0.930 . S
C85 C82 1.348 1_545 S
C85 C84 1.356 . S
H86 C80 0.930 . S
H87 C81 0.930 . S
C88 N89 1.314 1_545 S
C88 C90 1.353 . S
C88 H94 0.930 . S
N89 Li39 1.989 1_565 S
N89 C88 1.314 1_565 S
N89 C92 1.279 . S
C90 C88 1.353 . S
C90 C93 1.348 . S
C90 H122 0.929 . S
C91 C92 1.358 . S
C91 C93 1.356 1_565 S
C91 H123 0.930 . S
C92 N89 1.279 . S
C92 C91 1.358 . S
C92 H95 0.930 . S
C93 C90 1.348 . S
C93 C91 1.356 1_545 S
H94 C88 0.930 . S
H95 C92 0.930 . S
O96 Li36 1.956 . S
O96 Li37 1.970 1_545 S
O96 Li38 1.961 . S
O96 C40 1.325 . S
O97 Li36 1.970 1_655 S
O97 Li37 1.956 1_645 S
O97 Li39 1.962 . S
O97 C46 1.325 . S
O98 Li36 1.961 . S
O98 Li38 1.956 . S
O98 Li39 1.986 1_455 S
O98 C68 1.325 . S
O99 Li37 1.961 . S
O99 Li38 1.970 1_565 S
O99 Li39 1.942 1_465 S
O99 C74 1.325 . S
H100 C42 0.929 . S
H101 C43 0.930 . S
H102 C44 0.930 . S
H103 C45 0.930 . S
H104 C47 0.930 . S
H105 C49 0.929 . S
H106 C50 0.930 . S
H107 C51 0.930 . S
H108 C54 0.930 . S
H109 C57 0.929 . S
H110 C62 0.929 . S
H111 C63 0.930 . S
H112 C70 0.929 . S
H113 C71 0.930 . S
H114 C72 0.930 . S
H115 C73 0.930 . S
H116 C75 0.929 . S
H117 C76 0.930 . S
H118 C77 0.930 . S
H119 C78 0.930 . S
H120 C82 0.929 . S
H121 C84 0.930 . S
H122 C90 0.929 . S
H123 C91 0.930 . S
Li124 N141 1.990 . S
Li124 O184 1.956 1_655 S
Li124 O185 1.970 1_645 S
Li124 O186 1.961 . S
Li125 N149 1.990 1_545 S
Li125 O184 1.970 . S
Li125 O185 1.956 1_545 S
Li125 O187 1.961 . S
Li126 N171 1.990 1_455 S
Li126 O184 1.961 . S
Li126 O186 1.956 1_455 S
Li126 O187 1.970 . S
Li127 N177 1.990 . S
Li127 O185 1.961 . S
Li127 O186 1.970 1_465 S
Li127 O187 1.956 1_565 S
C128 C130 1.348 . S
C128 C131 1.356 1_455 S
C128 O184 1.325 . S
N129 C132 1.311 1_655 S
N129 C133 1.282 . S
C130 C128 1.348 . S
C130 C132 1.353 . S
C130 H188 0.929 . S
C131 C128 1.356 1_655 S
C131 C133 1.358 . S
C131 H189 0.930 . S
C132 N129 1.311 1_455 S
C132 C130 1.353 . S
C132 H190 0.930 . S
C133 N129 1.282 . S
C133 C131 1.358 . S
C133 H191 0.930 . S
C134 C137 1.348 1_455 S
C134 C138 1.356 . S
C134 O185 1.325 . S
C135 N136 1.279 . S
C135 C138 1.358 . S
C135 H192 0.930 . S
N136 C135 1.279 . S
N136 C139 1.314 1_455 S
C137 C134 1.348 1_655 S
C137 C139 1.353 . S
C137 H193 0.929 . S
C138 C134 1.356 . S
C138 C135 1.358 . S
C138 H194 0.930 . S
C139 N136 1.314 1_655 S
C139 C137 1.353 . S
C139 H195 0.930 . S
C140 N141 1.314 1_565 S
C140 C145 1.353 . S
C140 H146 0.930 . S
N141 Li124 1.990 . S
N141 C140 1.314 1_545 S
N141 C143 1.279 . S
C142 C143 1.358 . S
C142 C144 1.356 . S
C142 H196 0.930 . S
C143 N141 1.279 . S
C143 C142 1.358 . S
C143 H147 0.930 . S
C144 C142 1.356 . S
C144 C145 1.348 1_545 S
C145 C140 1.353 . S
C145 C144 1.348 1_565 S
C145 H197 0.929 . S
H146 C140 0.930 . S
H147 C143 0.930 . S
C148 N149 1.314 1_545 S
C148 C150 1.353 . S
C148 H154 0.930 . S
N149 Li125 1.990 1_565 S
N149 C148 1.314 1_565 S
N149 C152 1.279 . S
C150 C148 1.353 . S
C150 C153 1.348 . S
C150 H198 0.929 . S
C151 C152 1.358 . S
C151 C153 1.356 1_565 S
C151 H199 0.930 . S
C152 N149 1.279 . S
C152 C151 1.358 . S
C152 H155 0.930 . S
C153 C150 1.348 . S
C153 C151 1.356 1_545 S
H154 C148 0.930 . S
H155 C152 0.930 . S
C156 C158 1.348 1_545 S
C156 C159 1.356 . S
C156 O186 1.325 . S
N157 C160 1.314 1_545 S
N157 C161 1.279 . S
C158 C156 1.348 1_565 S
C158 C160 1.353 . S
C158 H200 0.929 . S
C159 C156 1.356 . S
C159 C161 1.358 . S
C159 H201 0.930 . S
C160 N157 1.314 1_565 S
C160 C158 1.353 . S
C160 H202 0.930 . S
C161 N157 1.279 . S
C161 C159 1.358 . S
C161 H203 0.930 . S
C162 C163 1.348 . S
C162 C164 1.356 1_545 S
C162 O187 1.325 . S
C163 C162 1.348 . S
C163 C165 1.353 . S
C163 H204 0.929 . S
C164 C162 1.356 1_565 S
C164 C166 1.358 . S
C164 H205 0.930 . S
C165 C163 1.353 . S
C165 N167 1.314 1_545 S
C165 H206 0.930 . S
C166 C164 1.358 . S
C166 N167 1.279 . S
C166 H207 0.930 . S
N167 C165 1.314 1_565 S
N167 C166 1.279 . S
C168 C170 1.353 . S
C168 N171 1.313 1_455 S
C168 H174 0.930 . S
C169 N171 1.281 . S
C169 C172 1.358 . S
C169 H175 0.930 . S
C170 C168 1.353 . S
C170 C173 1.348 . S
C170 H208 0.929 . S
N171 Li126 1.990 1_655 S
N171 C168 1.313 1_655 S
N171 C169 1.281 . S
C172 C169 1.358 . S
C172 C173 1.356 1_655 S
C172 H209 0.930 . S
C173 C170 1.348 . S
C173 C172 1.356 1_455 S
H174 C168 0.930 . S
H175 C169 0.930 . S
C176 N177 1.314 1_655 S
C176 C178 1.353 . S
C176 H182 0.930 . S
N177 Li127 1.990 . S
N177 C176 1.314 1_455 S
N177 C180 1.279 . S
C178 C176 1.353 . S
C178 C181 1.348 1_655 S
C178 H210 0.929 . S
C179 C180 1.358 . S
C179 C181 1.356 . S
C179 H211 0.930 . S
C180 N177 1.279 . S
C180 C179 1.358 . S
C180 H183 0.930 . S
C181 C178 1.348 1_455 S
C181 C179 1.356 . S
H182 C176 0.930 . S
H183 C180 0.930 . S
O184 Li124 1.956 1_455 S
O184 Li125 1.970 . S
O184 Li126 1.961 . S
O184 C128 1.325 . S
O185 Li124 1.970 1_465 S
O185 Li125 1.956 1_565 S
O185 Li127 1.961 . S
O185 C134 1.325 . S
O186 Li124 1.961 . S
O186 Li126 1.956 1_655 S
O186 Li127 1.970 1_645 S
O186 C156 1.325 . S
O187 Li125 1.961 . S
O187 Li126 1.970 . S
O187 Li127 1.956 1_545 S
O187 C162 1.325 . S
H188 C130 0.929 . S
H189 C131 0.930 . S
H190 C132 0.930 . S
H191 C133 0.930 . S
H192 C135 0.930 . S
H193 C137 0.929 . S
H194 C138 0.930 . S
H195 C139 0.930 . S
H196 C142 0.930 . S
H197 C145 0.929 . S
H198 C150 0.929 . S
H199 C151 0.930 . S
H200 C158 0.929 . S
H201 C159 0.930 . S
H202 C160 0.930 . S
H203 C161 0.930 . S
H204 C163 0.929 . S
H205 C164 0.930 . S
H206 C165 0.930 . S
H207 C166 0.930 . S
H208 C170 0.929 . S
H209 C172 0.930 . S
H210 C178 0.929 . S
H211 C179 0.930 . S
C212 C213 1.387 . S
C212 H216 0.950 . S
C212 C221 1.390 . S
C213 C212 1.387 . S
C213 C215 1.387 1_565 S
H214 C221 0.950 . S
C215 C213 1.387 1_545 S
C215 C217 1.390 . S
C215 H219 0.950 . S
H216 C212 0.950 . S
C217 C215 1.390 . S
C217 C218 1.407 . S
C217 H220 0.950 . S
C218 C217 1.407 . S
C218 C221 1.368 1_545 S
H219 C215 0.950 . S
H220 C217 0.950 . S
C221 C212 1.390 . S
C221 H214 0.950 . S
C221 C218 1.368 1_565 S
C222 C223 1.387 . S
C222 H226 0.950 . S
C222 C231 1.390 . S
C223 C222 1.387 . S
C223 C225 1.387 1_455 S
H224 C231 0.950 . S
C225 C223 1.387 1_655 S
C225 C227 1.390 . S
C225 H229 0.950 . S
H226 C222 0.950 . S
C227 C225 1.390 . S
C227 C228 1.387 1_655 S
C227 H230 0.950 . S
C228 C227 1.387 1_455 S
C228 C231 1.387 . S
H229 C225 0.950 . S
H230 C227 0.950 . S
C231 C222 1.390 . S
C231 H224 0.950 . S
C231 C228 1.387 . S
C232 C233 1.387 1_565 S
C232 H236 0.950 . S
C232 C241 1.390 . S
C233 C232 1.387 1_545 S
C233 C235 1.387 . S
H234 C241 0.950 . S
C235 C233 1.387 . S
C235 C237 1.390 . S
C235 H239 0.950 . S
H236 C232 0.950 . S
C237 C235 1.390 . S
C237 C238 1.387 . S
C237 H240 0.950 . S
C238 C237 1.387 . S
C238 C241 1.387 1_545 S
H239 C235 0.950 . S
H240 C237 0.950 . S
C241 C232 1.390 . S
C241 H234 0.950 . S
C241 C238 1.387 1_565 S
C242 C243 1.388 1_455 S
C242 H246 0.950 . S
C242 C251 1.390 . S
C243 C242 1.388 1_655 S
C243 C245 1.387 . S
H244 C251 0.950 . S
C245 C243 1.387 . S
C245 C247 1.390 . S
C245 H249 0.950 . S
H246 C242 0.950 . S
C247 C245 1.390 . S
C247 C248 1.387 1_655 S
C247 H250 0.950 . S
C248 C247 1.387 1_455 S
C248 C251 1.387 . S
H249 C245 0.950 . S
H250 C247 0.950 . S
C251 C242 1.390 . S
C251 H244 0.950 . S
C251 C248 1.387 . S
C252 C253 1.387 . S
C252 H256 0.950 . S
C252 C261 1.390 . S
C253 C252 1.387 . S
C253 C255 1.387 1_545 S
H254 C261 0.950 . S
C255 C253 1.387 1_565 S
C255 C257 1.390 . S
C255 H259 0.950 . S
H256 C252 0.950 . S
C257 C255 1.390 . S
C257 C258 1.387 1_565 S
C257 H260 0.950 . S
C258 C257 1.387 1_545 S
C258 C261 1.387 . S
H259 C255 0.950 . S
H260 C257 0.950 . S
C261 C252 1.390 . S
C261 H254 0.950 . S
C261 C258 1.387 . S
C262 C263 1.386 . S
C262 H266 0.950 . S
C262 C271 1.390 . S
C263 C262 1.386 . S
C263 C265 1.389 1_655 S
H264 C271 0.950 . S
C265 C263 1.389 1_455 S
C265 C267 1.390 . S
C265 H269 0.950 . S
H266 C262 0.950 . S
C267 C265 1.390 . S
C267 C268 1.387 . S
C267 H270 0.950 . S
C268 C267 1.387 . S
C268 C271 1.387 1_455 S
H269 C265 0.950 . S
H270 C267 0.950 . S
C271 C262 1.390 . S
C271 H264 0.950 . S
C271 C268 1.387 1_655 S
C272 C273 1.387 . S
C272 H276 0.950 . S
C272 C281 1.390 . S
C273 C272 1.387 . S
C273 C275 1.387 1_565 S
H274 C281 0.950 . S
C275 C273 1.387 1_545 S
C275 C277 1.390 . S
C275 H279 0.950 . S
H276 C272 0.950 . S
C277 C275 1.390 . S
C277 C278 1.387 . S
C277 H280 0.950 . S
C278 C277 1.387 . S
C278 C281 1.387 1_545 S
H279 C275 0.950 . S
H280 C277 0.950 . S
C281 C272 1.390 . S
C281 H274 0.950 . S
C281 C278 1.387 1_565 S
C282 C283 1.387 . S
C282 H286 0.950 . S
C282 C291 1.390 . S
C283 C282 1.387 . S
C283 C285 1.387 1_455 S
H284 C291 0.950 . S
C285 C283 1.387 1_655 S
C285 C287 1.390 . S
C285 H289 0.950 . S
H286 C282 0.950 . S
C287 C285 1.390 . S
C287 C288 1.387 1_655 S
C287 H290 0.950 . S
C288 C287 1.387 1_455 S
C288 C291 1.387 . S
H289 C285 0.950 . S
H290 C287 0.950 . S
C291 C282 1.390 . S
C291 H284 0.950 . S
C291 C288 1.387 . S
C218 C85 1.546 . S
C213 C7 1.483 . S
C228 C173 1.540 . S
C223 C34 1.480 . S
C238 C93 1.548 . S
C233 C14 1.494 . S
C248 C181 1.539 . S
C243 C26 1.487 . S
C258 C153 1.538 . S
C253 C8 1.484 . S
C268 C56 1.547 . S
C263 C32 1.491 . S
C278 C144 1.540 . S
C273 C16 1.479 1_565 S
C283 C25 1.484 . S
C288 C65 1.545 . S
