# Generated by pormake.
# Topology zzz, (3,6)-cn, num edge types: 1
# Building blocks:
#     Node 0, Type 0, BuildingBlock: VETTIZ_charged_linker_0, # of connection points: 3
#     Node 1, Type 0, BuildingBlock: VETTIZ_charged_linker_0, # of connection points: 3
#     Node 2, Type 0, BuildingBlock: VETTIZ_charged_linker_0, # of connection points: 3
#     Node 3, Type 0, BuildingBlock: VETTIZ_charged_linker_0, # of connection points: 3
#     Node 4, Type 0, BuildingBlock: VETTIZ_charged_linker_0, # of connection points: 3
#     Node 5, Type 0, BuildingBlock: VETTIZ_charged_linker_0, # of connection points: 3
#     Node 6, Type 0, BuildingBlock: VETTIZ_charged_linker_0, # of connection points: 3
#     Node 7, Type 0, BuildingBlock: VETTIZ_charged_linker_0, # of connection points: 3
#     Node 8, Type 1, BuildingBlock: PAMTUU_clean_sbu_0, # of connection points: 6
#     Node 9, Type 1, BuildingBlock: PAMTUU_clean_sbu_0, # of connection points: 6
#     Node 10, Type 1, BuildingBlock: PAMTUU_clean_sbu_0, # of connection points: 6
#     Node 11, Type 1, BuildingBlock: PAMTUU_clean_sbu_0, # of connection points: 6
#     Edge 12, Type (0, 1), BuildingBlock: AJUNOK_clean_linker_0, # of connection points: 2
#     Edge 13, Type (0, 1), BuildingBlock: AJUNOK_clean_linker_0, # of connection points: 2
#     Edge 14, Type (0, 1), BuildingBlock: AJUNOK_clean_linker_0, # of connection points: 2
#     Edge 15, Type (0, 1), BuildingBlock: AJUNOK_clean_linker_0, # of connection points: 2
#     Edge 16, Type (0, 1), BuildingBlock: AJUNOK_clean_linker_0, # of connection points: 2
#     Edge 17, Type (0, 1), BuildingBlock: AJUNOK_clean_linker_0, # of connection points: 2
#     Edge 18, Type (0, 1), BuildingBlock: AJUNOK_clean_linker_0, # of connection points: 2
#     Edge 19, Type (0, 1), BuildingBlock: AJUNOK_clean_linker_0, # of connection points: 2
#     Edge 20, Type (0, 1), BuildingBlock: AJUNOK_clean_linker_0, # of connection points: 2
#     Edge 21, Type (0, 1), BuildingBlock: AJUNOK_clean_linker_0, # of connection points: 2
#     Edge 22, Type (0, 1), BuildingBlock: AJUNOK_clean_linker_0, # of connection points: 2
#     Edge 23, Type (0, 1), BuildingBlock: AJUNOK_clean_linker_0, # of connection points: 2
#     Edge 24, Type (0, 1), BuildingBlock: AJUNOK_clean_linker_0, # of connection points: 2
#     Edge 25, Type (0, 1), BuildingBlock: AJUNOK_clean_linker_0, # of connection points: 2
#     Edge 26, Type (0, 1), BuildingBlock: AJUNOK_clean_linker_0, # of connection points: 2
#     Edge 27, Type (0, 1), BuildingBlock: AJUNOK_clean_linker_0, # of connection points: 2
#     Edge 28, Type (0, 1), BuildingBlock: AJUNOK_clean_linker_0, # of connection points: 2
#     Edge 29, Type (0, 1), BuildingBlock: AJUNOK_clean_linker_0, # of connection points: 2
#     Edge 30, Type (0, 1), BuildingBlock: AJUNOK_clean_linker_0, # of connection points: 2
#     Edge 31, Type (0, 1), BuildingBlock: AJUNOK_clean_linker_0, # of connection points: 2
#     Edge 32, Type (0, 1), BuildingBlock: AJUNOK_clean_linker_0, # of connection points: 2
#     Edge 33, Type (0, 1), BuildingBlock: AJUNOK_clean_linker_0, # of connection points: 2
#     Edge 34, Type (0, 1), BuildingBlock: AJUNOK_clean_linker_0, # of connection points: 2
#     Edge 35, Type (0, 1), BuildingBlock: AJUNOK_clean_linker_0, # of connection points: 2
# Relax obj value: 0.428
# Max RMSD: 0.291
# Mean RMSD: 0.223
data_MOF--net-zzz--node1-PAMTUU_clean_sbu_0--node2-VETTIZ_charged_linker_0--edge1-AJUNOK_clean_linker_0
_symmetry_space_group_name_H-M    P1
_symmetry_Int_Tables_number       1
_symmetry_cell_setting            triclinic
loop_
_symmetry_equiv_pos_as_xyz
'x, y, z'
_cell_length_a     43.31175
_cell_length_b     48.259662
_cell_length_c     16.323155
_cell_angle_alpha  100.78931
_cell_angle_beta   89.999328
_cell_angle_gamma 88.887604
loop_
_atom_site_label
_atom_site_type_symbol
_atom_site_fract_x
_atom_site_fract_y
_atom_site_fract_z
_atom_type_partial_charge
C0 C 0.84397 0.53024 0.54646 0.0
C1 C 0.86864 0.54611 0.59053 0.0
C2 C 0.87057 0.57482 0.5844 0.0
C3 C 0.82915 0.57055 0.48486 0.0
C4 C 0.82373 0.54345 0.49485 0.0
C5 C 0.79399 0.53325 0.44731 0.0
H6 H 0.68744 0.56405 0.15232 0.0
C7 C 0.80835 0.57852 0.42241 0.0
C8 C 0.78569 0.55786 0.40182 0.0
H9 H 0.68195 0.49244 0.27394 0.0
H10 H 0.72824 0.50847 0.35721 0.0
H11 H 0.70483 0.61138 0.30812 0.0
H12 H 0.74691 0.55778 0.10614 0.0
H13 H 0.77937 0.57771 0.14072 0.0
H14 H 0.74538 0.59436 0.10492 0.0
H15 H 0.70502 0.61435 0.20001 0.0
H16 H 0.73366 0.63139 0.2715 0.0
C17 C 0.76896 0.52964 0.51109 0.0
C18 C 0.80075 0.5057 0.38523 0.0
C19 C 0.85551 0.63044 0.21944 0.0
C20 C 0.84476 0.63004 0.13789 0.0
C21 C 0.81295 0.63486 0.12746 0.0
C22 C 0.79218 0.63111 0.19019 0.0
C23 C 0.80377 0.62167 0.26084 0.0
C24 C 0.83476 0.6242 0.27876 0.0
C25 C 0.84323 0.61318 0.35628 0.0
C26 C 0.81277 0.59944 0.3734 0.0
C27 C 0.79041 0.60353 0.3148 0.0
C28 C 0.85194 0.6388 0.42416 0.0
C29 C 0.87012 0.59118 0.33648 0.0
C30 C 0.69568 0.55177 0.19742 0.0
C31 C 0.68078 0.52704 0.2059 0.0
C32 C 0.69276 0.5118 0.2659 0.0
C33 C 0.71955 0.52105 0.31409 0.0
C34 C 0.73446 0.54587 0.30268 0.0
C35 C 0.72197 0.56047 0.24456 0.0
C36 C 0.74066 0.58501 0.23296 0.0
C37 C 0.76537 0.58473 0.29843 0.0
C38 C 0.76267 0.56152 0.33985 0.0
C39 C 0.72004 0.61205 0.25359 0.0
C40 C 0.75376 0.57867 0.14199 0.0
H41 H 0.8508 0.60947 0.53872 0.0
H42 H 0.84052 0.50857 0.55256 0.0
H43 H 0.8197 0.50871 0.34196 0.0
H44 H 0.78015 0.49874 0.34734 0.0
H45 H 0.80788 0.48859 0.41871 0.0
H46 H 0.76586 0.5494 0.55807 0.0
H47 H 0.77555 0.51235 0.54448 0.0
H48 H 0.74638 0.52471 0.48107 0.0
H49 H 0.87998 0.62916 0.23136 0.0
H50 H 0.80396 0.63661 0.06666 0.0
H51 H 0.768 0.63274 0.17769 0.0
H52 H 0.85797 0.65754 0.39718 0.0
H53 H 0.87286 0.63427 0.45902 0.0
H54 H 0.83254 0.64539 0.46855 0.0
H55 H 0.86423 0.57441 0.2825 0.0
H56 H 0.87577 0.58085 0.38954 0.0
H57 H 0.89175 0.60124 0.32182 0.0
H58 H 0.88839 0.588 0.61666 0.0
C59 C 0.85012 0.58718 0.53555 0.0
C60 C 0.12424 0.77805 0.0876 0.0
C61 C 0.11489 0.80093 0.05097 0.0
C62 C 0.08569 0.81387 0.07056 0.0
C63 C 0.07855 0.78561 0.17507 0.0
C64 C 0.10479 0.76995 0.14746 0.0
C65 C 0.1075 0.74378 0.18515 0.0
H66 H 1.00419 0.66112 0.25794 0.0
C67 C 0.06471 0.77408 0.24239 0.0
C68 C 0.08034 0.74868 0.24675 0.0
H69 H 0.0976 0.64066 0.16913 0.0
H70 H 0.11452 0.6866 0.24409 0.0
H71 H 0.03647 0.70877 0.47179 0.0
H72 H 0.99537 0.72662 0.24279 0.0
H73 H 0.97843 0.74171 0.3424 0.0
H74 H 0.97495 0.70468 0.30196 0.0
H75 H 1.00189 0.69072 0.43278 0.0
H76 H 1.00003 0.72783 0.47452 0.0
C77 C 0.13862 0.74359 0.2308 0.0
C78 C 0.10385 0.71771 0.11415 0.0
C79 C 1.01905 0.84004 0.48528 0.0
C80 C 1.01881 0.83701 0.56904 0.0
C81 C 1.02222 0.80972 0.58816 0.0
C82 C 1.02537 0.78577 0.52364 0.0
C83 C 1.02539 0.78948 0.44036 0.0
C84 C 1.02388 0.81636 0.42241 0.0
C85 C 0.03232 0.81658 0.33293 0.0
C86 C 0.04316 0.78595 0.30501 0.0
C87 C 0.03495 0.7699 0.36417 0.0
C88 C 0.05804 0.83822 0.32977 0.0
C89 C 1.00259 0.82343 0.28801 0.0
C90 C 1.02835 0.66626 0.25593 0.0
C91 C 0.04928 0.64816 0.20336 0.0
C92 C 0.08086 0.65492 0.20517 0.0
C93 C 0.09054 0.68132 0.24585 0.0
C94 C 0.06834 0.70085 0.28314 0.0
C95 C 0.039 0.69256 0.29853 0.0
C96 C 1.02107 0.717 0.35046 0.0
C97 C 0.04384 0.74113 0.3536 0.0
C98 C 0.06937 0.73153 0.30217 0.0
C99 C 1.01457 0.71077 0.43764 0.0
C100 C 0.99068 0.72281 0.3067 0.0
H101 H 0.04508 0.81597 0.14461 0.0
H102 H 0.14596 0.76701 0.07039 0.0
H103 H 0.07948 0.71079 0.10832 0.0
H104 H 0.11902 0.6998 0.12296 0.0
H105 H 0.1108 0.72212 0.05238 0.0
H106 H 0.14206 0.76406 0.27382 0.0
H107 H 0.15809 0.74 0.18548 0.0
H108 H 0.13966 0.72685 0.2688 0.0
H109 H 1.01744 0.86088 0.46979 0.0
H110 H 1.02313 0.80708 0.65256 0.0
H111 H 1.02963 0.76523 0.53907 0.0
H112 H 0.07981 0.83142 0.35694 0.0
H113 H 0.05137 0.85946 0.36474 0.0
H114 H 0.06278 0.84148 0.26612 0.0
H115 H 0.98357 0.80946 0.29963 0.0
H116 H 1.00544 0.8204 0.21991 0.0
H117 H 0.99497 0.84565 0.31109 0.0
H118 H 0.07784 0.83114 0.04131 0.0
C119 C 0.06723 0.8059 0.13171 0.0
C120 C 0.87686 0.00911 0.2382 0.0
C121 C 0.90027 0.02447 0.2048 0.0
C122 C 0.90151 0.05381 0.23359 0.0
C123 C 0.85332 0.05325 0.30685 0.0
C124 C 0.85389 0.02431 0.29272 0.0
C125 C 0.82825 0.01415 0.34502 0.0
H126 H 0.69926 0.05861 0.59796 0.0
C127 C 0.82576 0.06406 0.35419 0.0
C128 C 0.81131 0.04205 0.38406 0.0
H129 H 0.73509 0.97317 0.5431 0.0
H130 H 0.77656 0.98803 0.45813 0.0
H131 H 0.72513 0.10618 0.61734 0.0
H132 H 0.71776 0.08784 0.38667 0.0
H133 H 0.69997 0.1052 0.48365 0.0
H134 H 0.69547 0.06876 0.44605 0.0
H135 H 0.75753 0.12094 0.57222 0.0
H136 H 0.76368 0.09227 0.62398 0.0
C137 C 0.84343 0.99998 0.4122 0.0
C138 C 0.80688 0.99414 0.28772 0.0
C139 C 0.76701 0.14254 0.25785 0.0
C140 C 0.73719 0.15347 0.28115 0.0
C141 C 0.7271 0.15347 0.36352 0.0
C142 C 0.74367 0.13839 0.41489 0.0
C143 C 0.76931 0.12197 0.38187 0.0
C144 C 0.78235 0.12616 0.3083 0.0
C145 C 0.81084 0.10795 0.2861 0.0
C146 C 0.81018 0.09004 0.35466 0.0
C147 C 0.78432 0.09705 0.40599 0.0
C148 C 0.83882 0.12747 0.29041 0.0
C149 C 0.80736 0.08961 0.19826 0.0
C150 C 0.71628 0.04295 0.5698 0.0
C151 C 0.71376 0.01482 0.57927 0.0
C152 C 0.73615 0.99515 0.53758 0.0
C153 C 0.76037 0.00376 0.48888 0.0
C154 C 0.76223 0.03229 0.48063 0.0
C155 C 0.73981 0.051 0.52037 0.0
C156 C 0.74226 0.07983 0.50039 0.0
C157 C 0.77123 0.07643 0.44679 0.0
C158 C 0.78356 0.0485 0.43429 0.0
C159 C 0.74723 0.1011 0.58272 0.0
C160 C 0.71256 0.08592 0.45191 0.0
H161 H 0.88121 0.09007 0.31184 0.0
H162 H 0.87633 0.98634 0.22163 0.0
H163 H 0.79749 0.00458 0.23754 0.0
H164 H 0.7871 0.98796 0.32277 0.0
H165 H 0.81968 0.97466 0.25809 0.0
H166 H 0.86012 0.01441 0.44934 0.0
H167 H 0.85614 0.98039 0.38299 0.0
H168 H 0.82623 0.99445 0.45608 0.0
H169 H 0.77624 0.14363 0.19695 0.0
H170 H 0.70475 0.16212 0.38555 0.0
H171 H 0.73467 0.13819 0.47589 0.0
H172 H 0.83246 0.14817 0.27385 0.0
H173 H 0.85705 0.11848 0.24494 0.0
H174 H 0.84839 0.13162 0.35431 0.0
H175 H 0.80569 0.10291 0.14973 0.0
H176 H 0.78632 0.07661 0.19507 0.0
H177 H 0.82758 0.07522 0.18177 0.0
H178 H 0.92002 0.06585 0.21368 0.0
C179 C 0.87856 0.06807 0.28608 0.0
C180 C 0.58467 0.74524 0.46163 0.0
C181 C 0.60191 0.71971 0.46018 0.0
C182 C 0.61878 0.70793 0.38733 0.0
C183 C 0.59303 0.74011 0.31419 0.0
C184 C 0.58213 0.75606 0.38703 0.0
C185 C 0.5649 0.78194 0.36779 0.0
H186 H 0.51478 0.84274 0.03911 0.0
C187 C 0.57756 0.74905 0.24481 0.0
C188 C 0.56725 0.77687 0.27169 0.0
H189 H 0.5784 0.88369 0.22526 0.0
H190 H 0.58191 0.84044 0.28439 0.0
H191 H 0.55071 0.7858 0.99495 0.0
H192 H 0.47583 0.80463 0.17484 0.0
H193 H 0.47153 0.77112 0.11153 0.0
H194 H 0.46937 0.80218 0.06502 0.0
H195 H 0.51231 0.7947 0.96501 0.0
H196 H 0.52204 0.75963 0.97805 0.0
C197 C 0.58095 0.80891 0.41029 0.0
C198 C 0.531 0.78208 0.39663 0.0
C199 C 0.51889 0.6683 0.07927 0.0
C200 C 0.49308 0.66658 0.02717 0.0
C201 C 0.48098 0.69145 1.00474 0.0
C202 C 0.49428 0.71775 0.03608 0.0
C203 C 0.52006 0.71897 0.08927 0.0
C204 C 0.53189 0.69436 0.10968 0.0
C205 C 0.55729 0.69921 0.17278 0.0
C206 C 0.56003 0.73114 0.18408 0.0
C207 C 0.53745 0.74265 0.13761 0.0
C208 C 0.58703 0.68298 0.13695 0.0
C209 C 0.54561 0.68969 0.25281 0.0
C210 C 0.52804 0.84328 0.09556 0.0
C211 C 0.54533 0.86722 0.12913 0.0
C212 C 0.56421 0.86598 0.1993 0.0
C213 C 0.56566 0.84153 0.23508 0.0
C214 C 0.54739 0.81847 0.20211 0.0
C215 C 0.52961 0.81916 0.13209 0.0
C216 C 0.51667 0.79055 0.09669 0.0
C217 C 0.53312 0.77238 0.15045 0.0
C218 C 0.54834 0.78931 0.21696 0.0
C219 C 0.52575 0.78211 1.00357 0.0
C220 C 0.48144 0.79203 0.1121 0.0
H221 H 0.6263 0.70847 0.25734 0.0
H222 H 0.57248 0.75542 0.5174 0.0
H223 H 0.51965 0.76218 0.36758 0.0
H224 H 0.51791 0.80003 0.37856 0.0
H225 H 0.52957 0.78425 0.46551 0.0
H226 H 0.60421 0.81034 0.38275 0.0
H227 H 0.58376 0.80907 0.47808 0.0
H228 H 0.56689 0.82787 0.4042 0.0
H229 H 0.529 0.64944 0.09618 0.0
H230 H 0.46125 0.69055 0.96365 0.0
H231 H 0.48421 0.73609 0.01754 0.0
H232 H 0.58207 0.66496 0.08583 0.0
H233 H 0.59936 0.67358 0.18496 0.0
H234 H 0.60301 0.69695 0.11114 0.0
H235 H 0.52507 0.70254 0.279 0.0
H236 H 0.56323 0.69136 0.30201 0.0
H237 H 0.53904 0.66717 0.23951 0.0
H238 H 0.63288 0.689 0.38479 0.0
C239 C 0.61448 0.71828 0.3138 0.0
C240 C 0.3669 0.48727 0.44257 0.0
C241 C 0.37686 0.47957 0.51905 0.0
C242 C 0.35615 0.46487 0.56096 0.0
C243 C 0.31958 0.46113 0.44767 0.0
C244 C 0.33756 0.47806 0.40832 0.0
C245 C 0.32192 0.48233 0.32674 0.0
H246 H 0.20163 0.43729 0.05217 0.0
C247 C 0.29393 0.45015 0.39265 0.0
C248 C 0.29308 0.46378 0.32377 0.0
H249 H 0.21883 0.52525 0.14081 0.0
H250 H 0.25942 0.51251 0.23435 0.0
H251 H 0.27445 0.40498 0.08262 0.0
H252 H 0.18619 0.42359 0.1728 0.0
H253 H 0.2008 0.41733 0.26791 0.0
H254 H 0.1998 0.38954 0.17582 0.0
H255 H 0.23681 0.39125 0.0537 0.0
H256 H 0.25966 0.37769 0.13009 0.0
C257 C 0.34334 0.4714 0.25202 0.0
C258 C 0.31374 0.51373 0.33176 0.0
C259 C 0.21711 0.38169 0.45768 0.0
C260 C 0.19418 0.36792 0.40388 0.0
C261 C 0.20326 0.35627 0.32125 0.0
C262 C 0.2293 0.36678 0.2869 0.0
C263 C 0.24572 0.38819 0.33712 0.0
C264 C 0.24289 0.39204 0.4223 0.0
C265 C 0.26601 0.41278 0.4652 0.0
C266 C 0.27728 0.42512 0.39133 0.0
C267 C 0.26367 0.41159 0.31706 0.0
C268 C 0.29176 0.39593 0.50218 0.0
C269 C 0.24953 0.43559 0.53104 0.0
C270 C 0.21509 0.45392 0.0885 0.0
C271 C 0.20728 0.48212 0.08729 0.0
C272 C 0.22484 0.50321 0.13811 0.0
C273 C 0.2487 0.49592 0.19113 0.0
C274 C 0.25527 0.46731 0.19344 0.0
C275 C 0.23702 0.44711 0.14555 0.0
C276 C 0.23813 0.41956 0.1757 0.0
C277 C 0.25948 0.42663 0.25072 0.0
C278 C 0.27204 0.45371 0.25668 0.0
C279 C 0.25298 0.39701 0.10675 0.0
C280 C 0.20481 0.41202 0.19953 0.0
H281 H 0.31345 0.44455 0.56134 0.0
H282 H 0.38187 0.49912 0.40942 0.0
H283 H 0.29402 0.52032 0.37507 0.0
H284 H 0.30798 0.51817 0.26932 0.0
H285 H 0.3338 0.527 0.3545 0.0
H286 H 0.35008 0.44895 0.25037 0.0
H287 H 0.36467 0.48401 0.25594 0.0
H288 H 0.33148 0.47288 0.19255 0.0
H289 H 0.21266 0.38878 0.52348 0.0
H290 H 0.18799 0.34263 0.2802 0.0
H291 H 0.23422 0.36013 0.22157 0.0
H292 H 0.28877 0.37271 0.48556 0.0
H293 H 0.29204 0.40126 0.57139 0.0
H294 H 0.31498 0.39982 0.47832 0.0
H295 H 0.22819 0.44355 0.50451 0.0
H296 H 0.26405 0.45414 0.55209 0.0
H297 H 0.24298 0.42691 0.58686 0.0
H298 H 0.36232 0.45969 0.62075 0.0
C299 C 0.32793 0.45568 0.52597 0.0
C300 C 0.89507 0.22212 0.55015 0.0
C301 C 0.88617 0.19368 0.5314 0.0
C302 C 0.89009 0.17903 0.44851 0.0
C303 C 0.92011 0.21686 0.415 0.0
C304 C 0.91327 0.23283 0.49237 0.0
C305 C 0.93195 0.25928 0.50978 0.0
H306 H 0.05795 0.33035 0.43098 0.0
C307 C 0.94593 0.22999 0.37856 0.0
C308 C 0.95308 0.25486 0.43339 0.0
H309 H 0.98655 0.35472 0.61699 0.0
H310 H 0.95779 0.31373 0.55984 0.0
H311 H 0.05739 0.26107 0.43807 0.0
H312 H 1.02921 0.27607 0.2158 0.0
H313 H 0.04986 0.30513 0.27442 0.0
H314 H 1.00837 0.30601 0.26942 0.0
H315 H 0.07768 0.27771 0.36485 0.0
H316 H 0.06105 0.24348 0.33344 0.0
C317 C 0.95029 0.25931 0.59156 0.0
C318 C 0.90957 0.28496 0.51258 0.0
C319 C 0.99901 0.17222 0.12694 0.0
C320 C 1.02787 0.17305 0.08937 0.0
C321 C 0.04698 0.19628 0.11744 0.0
C322 C 0.03717 0.21829 0.18282 0.0
C323 C 1.00838 0.21653 0.22182 0.0
C324 C 0.99011 0.19352 0.19326 0.0
C325 C 0.9623 0.19245 0.24655 0.0
C326 C 0.9656 0.21942 0.30994 0.0
C327 C 0.99253 0.23382 0.2959 0.0
C328 C 0.96541 0.16554 0.28632 0.0
C329 C 0.93319 0.19356 0.19193 0.0
C330 C 0.03617 0.3265 0.45901 0.0
C331 C 1.02456 0.34537 0.52948 0.0
C332 C 0.996 0.34017 0.56374 0.0
C333 C 0.9793 0.31639 0.53039 0.0
C334 C 0.99143 0.29704 0.46275 0.0
C335 C 1.01902 0.30229 0.4264 0.0
C336 C 1.0271 0.27911 0.35269 0.0
C337 C 0.9995 0.25969 0.35081 0.0
C338 C 0.97928 0.27029 0.41737 0.0
C339 C 0.05752 0.26453 0.37257 0.0
C340 C 1.02891 0.29215 0.27351 0.0
H341 H 0.90909 0.178 0.32924 0.0
H342 H 0.89084 0.23484 0.61114 0.0
H343 H 0.88717 0.27876 0.48174 0.0
H344 H 0.91889 0.30076 0.47826 0.0
H345 H 0.90428 0.2954 0.57778 0.0
H346 H 0.96995 0.27367 0.59965 0.0
H347 H 0.96045 0.238 0.59231 0.0
H348 H 0.93502 0.26511 0.64705 0.0
H349 H 0.98431 0.15419 0.10864 0.0
H350 H 0.06954 0.1972 0.08958 0.0
H351 H 0.05258 0.23543 0.20193 0.0
H352 H 0.98916 0.15613 0.28021 0.0
H353 H 0.94958 0.1488 0.25653 0.0
H354 H 0.96116 0.17006 0.35445 0.0
H355 H 0.93618 0.20875 0.14908 0.0
H356 H 0.91228 0.20105 0.22902 0.0
H357 H 0.92869 0.17256 0.15312 0.0
H358 H 0.88414 0.15715 0.43074 0.0
C359 C 0.90604 0.19083 0.38978 0.0
C360 C 0.34865 0.98807 0.13541 0.0
C361 C 0.37334 0.97283 0.08735 0.0
C362 C 0.37684 0.94389 0.08829 0.0
C363 C 0.33545 0.94599 0.18926 0.0
C364 C 0.32928 0.97379 0.18465 0.0
C365 C 0.30029 0.98435 0.23651 0.0
H366 H 0.18707 0.94886 0.50228 0.0
C367 C 0.314 0.93696 0.24901 0.0
C368 C 0.29188 0.95866 0.27551 0.0
H369 H 0.19147 0.02864 0.42154 0.0
H370 H 0.2384 0.0123 0.33942 0.0
H371 H 0.20763 0.90625 0.3337 0.0
H372 H 0.27724 0.92215 0.51939 0.0
H373 H 0.23832 0.91478 0.54765 0.0
H374 H 0.25111 0.95002 0.55315 0.0
H375 H 0.20346 0.89877 0.43683 0.0
H376 H 0.23363 0.88217 0.36752 0.0
C377 C 0.27482 0.9914 0.17755 0.0
C378 C 0.30854 0.00994 0.30369 0.0
C379 C 0.34931 0.85732 0.3888 0.0
C380 C 0.33836 0.84869 0.46093 0.0
C381 C 0.30706 0.85373 0.48298 0.0
C382 C 0.28859 0.87103 0.44197 0.0
C383 C 0.30181 0.88373 0.37964 0.0
C384 C 0.33099 0.87531 0.35033 0.0
C385 C 0.3414 0.89069 0.28349 0.0
C386 C 0.31527 0.91254 0.28592 0.0
C387 C 0.29229 0.90826 0.34215 0.0
C388 C 0.34262 0.86914 0.19979 0.0
C389 C 0.37283 0.9045 0.30989 0.0
C390 C 0.19754 0.96271 0.46549 0.0
C391 C 0.18497 0.98968 0.46702 0.0
C392 C 0.20039 0.00747 0.42075 0.0
C393 C 0.2275 0.99799 0.373 0.0
C394 C 0.23976 0.97062 0.37266 0.0
C395 C 0.22465 0.95394 0.42012 0.0
C396 C 0.24181 0.92712 0.42356 0.0
C397 C 0.26842 0.92878 0.3648 0.0
C398 C 0.26789 0.95426 0.33357 0.0
C399 C 0.2206 0.90213 0.38918 0.0
C400 C 0.25261 0.92831 0.51528 0.0
H401 H 0.36244 0.90862 0.13532 0.0
H402 H 0.34452 0.01017 0.13409 0.0
H403 H 0.32849 0.00466 0.34121 0.0
H404 H 0.28909 0.01662 0.34715 0.0
H405 H 0.31488 0.02812 0.27463 0.0
H406 H 0.27104 0.97307 0.12632 0.0
H407 H 0.28141 0.00966 0.1492 0.0
H408 H 0.25255 0.99654 0.21026 0.0
H409 H 0.3731 0.85321 0.36919 0.0
H410 H 0.29775 0.84649 0.53669 0.0
H411 H 0.26539 0.87533 0.46423 0.0
H412 H 0.33303 0.84832 0.20518 0.0
H413 H 0.36672 0.86496 0.17679 0.0
H414 H 0.32858 0.8765 0.1508 0.0
H415 H 0.37171 0.9161 0.37552 0.0
H416 H 0.37994 0.91987 0.27197 0.0
H417 H 0.39166 0.88833 0.30512 0.0
H418 H 0.39495 0.93147 0.05194 0.0
C419 C 0.35806 0.93055 0.13763 0.0
C420 C 0.49461 0.25279 0.2193 0.0
C421 C 0.47435 0.27619 0.21668 0.0
C422 C 0.4516 0.28322 0.27965 0.0
C423 C 0.47655 0.25206 0.35819 0.0
C424 C 0.49411 0.24 0.29051 0.0
C425 C 0.51423 0.21639 0.31309 0.0
H426 H 0.55199 0.15829 0.65883 0.0
C427 C 0.48918 0.24353 0.43241 0.0
C428 C 0.50611 0.2183 0.40592 0.0
H429 H 0.50826 0.11005 0.44078 0.0
H430 H 0.50328 0.15301 0.38081 0.0
H431 H 0.59626 0.19049 0.60226 0.0
H432 H 0.50953 0.21594 0.68351 0.0
H433 H 0.53991 0.24059 0.71418 0.0
H434 H 0.54457 0.20511 0.7295 0.0
H435 H 0.5935 0.22531 0.65875 0.0
H436 H 0.59454 0.21902 0.54606 0.0
C437 C 0.54866 0.2223 0.30119 0.0
C438 C 0.50543 0.18797 0.25981 0.0
C439 C 0.52377 0.32964 0.63433 0.0
C440 C 0.55253 0.33499 0.673 0.0
C441 C 0.57255 0.31213 0.67961 0.0
C442 C 0.56411 0.28438 0.64566 0.0
C443 C 0.53553 0.27964 0.60576 0.0
C444 C 0.51649 0.30213 0.59704 0.0
C445 C 0.49153 0.29391 0.53334 0.0
C446 C 0.49948 0.26256 0.50416 0.0
C447 C 0.52407 0.25445 0.55096 0.0
C448 C 0.49428 0.31182 0.46375 0.0
C449 C 0.45999 0.29814 0.57802 0.0
C450 C 0.54237 0.15639 0.59691 0.0
C451 C 0.53043 0.13052 0.55548 0.0
C452 C 0.51722 0.12954 0.47541 0.0
C453 C 0.51514 0.15392 0.4393 0.0
C454 C 0.52762 0.17913 0.4817 0.0
C455 C 0.54069 0.18029 0.5595 0.0
C456 C 0.54956 0.20992 0.59869 0.0
C457 C 0.5351 0.22625 0.53635 0.0
C458 C 0.52515 0.20798 0.4647 0.0
C459 C 0.58528 0.21145 0.60129 0.0
C460 C 0.53501 0.21837 0.68644 0.0
H461 H 0.43646 0.27805 0.40089 0.0
H462 H 0.51135 0.24594 0.1701 0.0
H463 H 0.48148 0.18242 0.27407 0.0
H464 H 0.52158 0.17097 0.27115 0.0
H465 H 0.50681 0.1889 0.19238 0.0
H466 H 0.55486 0.24319 0.33831 0.0
H467 H 0.55394 0.22223 0.23454 0.0
H468 H 0.56353 0.20588 0.32176 0.0
H469 H 0.50809 0.34691 0.62823 0.0
H470 H 0.5952 0.31581 0.70709 0.0
H471 H 0.58063 0.26763 0.64602 0.0
H472 H 0.50978 0.30136 0.41246 0.0
H473 H 0.50379 0.33303 0.48636 0.0
H474 H 0.47143 0.31639 0.43854 0.0
H475 H 0.45977 0.28738 0.63262 0.0
H476 H 0.44108 0.28931 0.53631 0.0
H477 H 0.45489 0.32096 0.60057 0.0
H478 H 0.43508 0.30027 0.27837 0.0
C479 C 0.45253 0.27096 0.35063 0.0
Tb480 Tb 1.01162 0.01376 0.76033 0.0
Tb481 Tb 0.06503 0.99784 0.88172 0.0
C482 C 0.99514 0.00566 0.9429 0.0
C483 C 0.95103 0.05458 0.67401 0.0
C484 C 0.9147 0.10425 0.68223 0.0
C485 C 0.90065 0.07841 0.68481 0.0
C486 C 0.91871 0.05375 0.68073 0.0
C487 C 0.96501 0.08048 0.67291 0.0
C488 C 0.94709 0.10486 0.67608 0.0
C489 C 0.97003 0.02856 0.66853 0.0
O490 O 1.03047 0.05438 0.81927 0.0
O491 O 0.05625 0.04223 0.93115 0.0
O492 O 0.08629 0.01648 0.78332 0.0
O493 O 0.05249 0.99908 0.68261 0.0
O494 O 0.08284 0.98868 0.99383 0.0
O495 O 0.11238 0.98852 0.88786 0.0
O496 O 0.05467 0.95813 0.79796 0.0
O497 O 1.00645 0.96886 0.75484 0.0
O498 O 0.9904 0.02057 0.88416 0.0
O499 O 1.02143 0.99152 0.94588 0.0
C500 C 0.04459 0.06133 0.89155 0.0
O501 O 0.99954 0.03068 0.65531 0.0
O502 O 0.96484 0.0135 0.72525 0.0
C503 C 0.08044 0.00778 0.70395 0.0
C504 C 0.12003 0.95213 0.96042 0.0
C505 C 0.13971 0.89549 0.94398 0.0
C506 C 0.1611 0.91729 0.96317 0.0
C507 C 0.15131 0.94551 0.97073 0.0
C508 C 0.0988 0.93039 0.941 0.0
C509 C 0.10846 0.90244 0.93342 0.0
C510 C 0.10975 0.98118 0.96006 0.0
C511 C 1.02816 0.95026 0.76275 0.0
H512 H 0.87576 0.07718 0.68846 0.0
H513 H 0.90742 0.03399 0.68193 0.0
H514 H 0.98984 0.08195 0.66789 0.0
H515 H 0.95876 0.12403 0.67015 0.0
H516 H 0.18519 0.9125 0.97308 0.0
H517 H 0.16808 0.9621 0.98423 0.0
H518 H 0.0746 0.93501 0.93172 0.0
H519 H 0.09112 0.88631 0.92203 0.0
Tb520 Tb 0.53087 0.97337 0.75914 0.0
Tb521 Tb 0.55385 0.02058 0.91821 0.0
C522 C 0.54783 0.95716 0.93267 0.0
C523 C 0.49671 0.90904 0.63472 0.0
C524 C 0.44995 0.86874 0.614 0.0
C525 C 0.46043 0.88049 0.69437 0.0
C526 C 0.48349 0.90075 0.70472 0.0
C527 C 0.48823 0.89564 0.55472 0.0
C528 C 0.46506 0.87567 0.54434 0.0
C529 C 0.51743 0.93303 0.64368 0.0
O530 O 0.4874 0.98515 0.82774 0.0
O531 O 0.50634 0.01088 0.94981 0.0
O532 O 0.54462 0.04498 0.82072 0.0
O533 O 0.52709 0.01216 0.70949 0.0
O534 O 0.58396 0.03406 0.01746 0.0
O535 O 0.54315 0.05873 0.99933 0.0
O536 O 0.59358 0.01748 0.83365 0.0
O537 O 0.5807 0.97806 0.73825 0.0
O538 O 0.52943 0.95354 0.86811 0.0
O539 O 0.56517 0.97949 0.95042 0.0
C540 C 0.48333 0.9983 0.90573 0.0
O541 O 0.50391 0.95786 0.65439 0.0
O542 O 0.54073 0.93246 0.69394 0.0
C543 C 0.53442 0.03804 0.74381 0.0
C544 C 0.58689 0.08326 0.05649 0.0
C545 C 0.6302 0.12635 0.09472 0.0
C546 C 0.62666 0.11197 1.01199 0.0
C547 C 0.60516 0.09048 0.99299 0.0
C548 C 0.58839 0.09916 0.13728 0.0
C549 C 0.60987 0.12055 0.15637 0.0
C550 C 0.56851 0.05766 0.04171 0.0
C551 C 0.60033 0.99808 0.76754 0.0
H552 H 0.44958 0.87526 0.74914 0.0
H553 H 0.49001 0.91082 0.76715 0.0
H554 H 0.49834 0.90174 0.50015 0.0
H555 H 0.45739 0.86729 0.48156 0.0
H556 H 0.64202 0.11597 0.96331 0.0
H557 H 0.60404 0.07846 0.92998 0.0
H558 H 0.57432 0.09386 0.18684 0.0
H559 H 0.61236 0.13072 0.22099 0.0
Tb560 Tb 0.5095 0.48651 0.91073 0.0
Tb561 Tb 0.55292 0.51824 0.78947 0.0
C562 C 0.48699 0.49741 0.73213 0.0
C563 C 0.48109 0.42914 0.01891 0.0
C564 C 0.4828 0.37536 0.06566 0.0
C565 C 0.46038 0.3959 0.09908 0.0
C566 C 0.45959 0.42246 0.07606 0.0
C567 C 0.50378 0.40884 0.98595 0.0
C568 C 0.50469 0.38223 1.00928 0.0
C569 C 0.47749 0.45611 0.98851 0.0
O570 O 0.54861 0.45926 0.86864 0.0
O571 O 0.55719 0.47275 0.74386 0.0
O572 O 0.58311 0.50859 0.88962 0.0
O573 O 0.54771 0.5046 0.99145 0.0
O574 O 0.56639 0.52626 0.67169 0.0
O575 O 0.58937 0.5458 0.78414 0.0
O576 O 0.52791 0.55126 0.87191 0.0
O577 O 0.48784 0.52824 0.92303 0.0
O578 O 0.48977 0.47955 0.78398 0.0
O579 O 0.50644 0.5182 0.73541 0.0
C580 C 0.55882 0.45371 0.79192 0.0
O581 O 0.47794 0.45403 0.90798 0.0
O582 O 0.49318 0.47769 0.02534 0.0
C583 C 0.57642 0.50801 0.96833 0.0
C584 C 0.58634 0.5723 0.67637 0.0
C585 C 0.59057 0.62574 0.62903 0.0
C586 C 0.57049 0.62192 0.6936 0.0
C587 C 0.56858 0.59548 0.71754 0.0
C588 C 0.6058 0.57595 0.61075 0.0
C589 C 0.6079 0.60233 0.58732 0.0
C590 C 0.58663 0.54477 0.70422 0.0
C591 C 0.50071 0.55119 0.90734 0.0
H592 H 0.44336 0.39138 0.14313 0.0
H593 H 0.44169 0.43762 0.10168 0.0
H594 H 0.52028 0.41334 0.94064 0.0
H595 H 0.52197 0.36679 0.98162 0.0
H596 H 0.55681 0.63953 0.72669 0.0
H597 H 0.55369 0.59324 0.76905 0.0
H598 H 0.61977 0.55844 0.57826 0.0
H599 H 0.62309 0.60442 0.5362 0.0
Tb600 Tb 0.05186 0.51869 0.76399 0.0
Tb601 Tb 1.01771 0.48703 0.89111 0.0
C602 C 1.02926 0.55283 0.93554 0.0
C603 C 0.09294 0.50979 0.57857 0.0
C604 C 0.11228 0.45453 0.50659 0.0
C605 C 0.13238 0.47268 0.55747 0.0
C606 C 0.12295 0.50012 0.59246 0.0
C607 C 0.07422 0.49263 0.5198 0.0
C608 C 0.08378 0.46516 0.48437 0.0
C609 C 0.0784 0.53216 0.64231 0.0
O610 O 0.09026 0.50308 0.83312 0.0
O611 O 0.06449 0.49024 0.94296 0.0
O612 O 0.04453 0.45359 0.81404 0.0
O613 O 0.04291 0.47543 0.7028 0.0
O614 O 1.00509 0.48336 1.01288 0.0
O615 O 0.98501 0.45662 0.90663 0.0
O616 O 0.98524 0.49163 0.78983 0.0
O617 O 1.00334 0.53275 0.76365 0.0
O618 O 0.04931 0.55134 0.87441 0.0
O619 O 1.01049 0.53206 0.9398 0.0
C620 C 0.09041 0.49581 0.90727 0.0
O621 O 0.04843 0.53123 0.64753 0.0
O622 O 0.0909 0.53571 0.7162 0.0
C623 C 0.04717 0.45249 0.73365 0.0
C624 C 0.95125 0.48399 1.00498 0.0
C625 C 0.91244 0.53201 0.0198 0.0
C626 C 0.91181 0.51141 0.94705 0.0
C627 C 0.93101 0.48748 0.9397 0.0
C628 C 0.94842 0.50273 0.08172 0.0
C629 C 0.92938 0.52673 0.08876 0.0
C630 C 0.98104 0.46878 0.98447 0.0
C631 C 0.98076 0.51481 0.76003 0.0
H632 H 0.15504 0.46524 0.57285 0.0
H633 H 0.13815 0.51279 0.63648 0.0
H634 H 0.05102 0.49941 0.50693 0.0
H635 H 0.06814 0.45173 0.44386 0.0
H636 H 0.89824 0.51478 0.89388 0.0
H637 H 0.93222 0.47336 0.87979 0.0
H638 H 0.96352 0.50059 0.1332 0.0
H639 H 0.92922 0.54197 0.14668 0.0
C640 C 0.12903 0.98369 0.50464 0.0
C641 C 0.15684 0.99852 0.52093 0.0
C642 C 0.1041 0.98771 0.56202 0.0
C643 C 0.10599 0.00621 0.63979 0.0
H644 H 0.12689 0.96813 0.44785 0.0
H645 H 0.08366 0.97524 0.54662 0.0
S646 S 0.17349 0.05064 0.71244 0.0
N647 N 0.18427 0.03311 0.61973 0.0
N648 N 0.13815 0.04034 0.72788 0.0
C649 C 0.13348 0.02164 0.65594 0.0
C650 C 0.15862 0.01788 0.5967 0.0
C651 C 0.55697 0.10079 0.64773 0.0
C652 C 0.53132 0.10534 0.59807 0.0
C653 C 0.55759 0.07912 0.69452 0.0
C654 C 0.53299 0.06043 0.6923 0.0
H655 H 0.57685 0.11421 0.65108 0.0
H656 H 0.57773 0.07682 0.73227 0.0
S657 S 0.46023 0.06254 0.57398 0.0
N658 N 0.4801 0.08914 0.5522 0.0
N659 N 0.48234 0.04749 0.63627 0.0
C660 C 0.50757 0.06402 0.64155 0.0
C661 C 0.5065 0.0866 0.59535 0.0
C662 C 0.4191 0.51189 0.59068 0.0
C663 C 0.40862 0.48458 0.55715 0.0
C664 C 0.44528 0.51605 0.64399 0.0
C665 C 0.46172 0.49311 0.66736 0.0
H666 H 0.40607 0.53015 0.57929 0.0
H667 H 0.4517 0.53743 0.67049 0.0
S668 S 0.44622 0.41742 0.58821 0.0
N669 N 0.41911 0.43435 0.54484 0.0
N670 N 0.46706 0.4421 0.64525 0.0
C671 C 0.45234 0.46582 0.63068 0.0
C672 C 0.42625 0.46161 0.57572 0.0
C673 C 0.0352 0.39633 0.54013 0.0
C674 C 0.04061 0.37116 0.56959 0.0
C675 C 0.03946 0.42265 0.59212 0.0
C676 C 0.04906 0.42473 0.67567 0.0
H677 H 1.02511 0.39571 0.4791 0.0
H678 H 0.03292 0.4414 0.56831 0.0
S679 S 0.07124 0.36465 0.77716 0.0
N680 N 0.05963 0.34967 0.68316 0.0
N681 N 0.06803 0.39903 0.78083 0.0
C682 C 0.05721 0.39962 0.70304 0.0
C683 C 0.0529 0.37286 0.64996 0.0
C684 C 0.95393 0.00696 0.15381 0.0
C685 C 0.92262 0.01212 0.13623 0.0
C686 C 0.97706 0.00335 0.09075 0.0
C687 C 0.97009 0.00571 1.0077 0.0
H688 H 0.96086 0.0071 0.21764 0.0
H689 H 1.00081 1.00026 0.10827 0.0
S690 S 0.89144 0.01798 0.92843 0.0
N691 N 0.88596 0.01821 0.02868 0.0
N692 N 0.92879 0.01207 0.91153 0.0
C693 C 0.93866 0.00996 0.98919 0.0
C694 C 0.91521 0.01305 0.05287 0.0
C695 C 0.57324 0.90523 0.07151 0.0
C696 C 0.54534 0.89228 0.08652 0.0
C697 C 0.57398 0.9269 0.02419 0.0
C698 C 0.54692 0.93616 0.98898 0.0
H699 H 0.59488 0.89793 0.09398 0.0
H700 H 0.59602 0.93567 1.01247 0.0
S701 S 0.46738 0.91258 0.01983 0.0
N702 N 0.4895 0.89319 0.07033 0.0
N703 N 0.4911 0.93282 0.97947 0.0
C704 C 0.51878 0.9243 1.00642 0.0
C705 C 0.51794 0.90267 0.05553 0.0
C706 C 0.65825 0.51646 0.06087 0.0
C707 C 0.65421 0.51773 0.14735 0.0
C708 C 0.63329 0.51285 1.00457 0.0
C709 C 0.60259 0.51039 0.03118 0.0
H710 H 0.68106 0.51909 0.03645 0.0
H711 H 0.63823 0.51255 0.93938 0.0
S712 S 0.57919 0.5113 0.25117 0.0
N713 N 0.61697 0.5154 0.25663 0.0
N714 N 0.57007 0.50846 0.15167 0.0
C715 C 0.59827 0.51074 0.11746 0.0
C716 C 0.62393 0.51437 0.17501 0.0
C717 C 0.04729 0.62601 0.05333 0.0
C718 C 0.03883 0.62512 0.13607 0.0
C719 C 0.04255 0.60311 0.98841 0.0
C720 C 1.02898 0.57827 1.00314 0.0
H721 H 0.05874 0.64432 0.03906 0.0
H722 H 0.05055 0.60461 0.92654 0.0
S723 S 0.99991 0.56628 0.20774 0.0
N724 N 1.01413 0.59836 0.22864 0.0
N725 N 1.00506 0.55498 0.1066 0.0
C726 C 1.0187 0.57769 0.08497 0.0
C727 C 1.02362 0.6012 0.15142 0.0
C728 C 0.86458 0.15131 0.57803 0.0
C729 C 0.88085 0.17677 0.59811 0.0
C730 C 0.87282 0.12794 0.61358 0.0
C731 C 0.89631 0.12989 0.6737 0.0
H732 H 0.84844 0.14814 0.52654 0.0
H733 H 0.86327 0.10769 0.58677 0.0
S734 S 0.93411 0.19516 0.7784 0.0
N735 N 0.91409 0.2047 0.70193 0.0
N736 N 0.92678 0.1615 0.77395 0.0
C737 C 0.90694 0.15683 0.70844 0.0
C738 C 0.89971 0.1803 0.66982 0.0
C739 C 0.38781 0.82606 0.49482 0.0
C740 C 0.36166 0.84298 0.52274 0.0
C741 C 0.41655 0.83167 0.53324 0.0
C742 C 0.4199 0.85427 0.60082 0.0
H743 H 0.38693 0.81098 0.43669 0.0
H744 H 0.43679 0.8205 0.50384 0.0
S745 S 0.35664 0.8988 0.7128 0.0
N746 N 0.33953 0.87845 0.63408 0.0
N747 N 0.39339 0.88904 0.70582 0.0
C748 C 0.39297 0.8678 0.63809 0.0
C749 C 0.36374 0.86204 0.59913 0.0
C750 C 0.55689 0.38388 0.64524 0.0
C751 C 0.56181 0.36469 0.69955 0.0
C752 C 0.55908 0.41299 0.67339 0.0
C753 C 0.56631 0.42388 0.75685 0.0
H754 H 0.54956 0.3764 0.58159 0.0
H755 H 0.55267 0.42699 0.63122 0.0
S756 S 0.5877 0.38237 0.91906 0.0
N757 N 0.57855 0.3584 0.83699 0.0
N758 N 0.58361 0.41318 0.88968 0.0
C759 C 0.57455 0.40481 0.80925 0.0
C760 C 0.5721 0.37515 0.78065 0.0
C761 C 0.15234 0.38485 0.50766 0.0
C762 C 0.16129 0.37713 0.42326 0.0
C763 C 0.1336 0.40883 0.5345 0.0
C764 C 0.12189 0.42475 0.47719 0.0
H765 H 0.16352 0.37503 0.55461 0.0
H766 H 0.13058 0.41639 0.60089 0.0
S767 S 0.12471 0.40472 0.24725 0.0
N768 N 0.14693 0.38102 0.28073 0.0
N769 N 0.11153 0.42579 0.33189 0.0
C770 C 0.12464 0.41346 0.39208 0.0
C771 C 0.14402 0.38927 0.36469 0.0
C772 C 0.15569 0.83498 0.04881 0.0
C773 C 0.13615 0.81498 1.0027 0.0
C774 C 0.16144 0.86032 0.02212 0.0
C775 C 0.14805 0.8659 0.94828 0.0
H776 H 0.16234 0.83313 0.11162 0.0
H777 H 0.17253 0.87695 0.06526 0.0
S778 S 0.10542 0.81545 0.79164 0.0
N779 N 0.11069 0.79887 0.87058 0.0
N780 N 0.12275 0.84601 0.81804 0.0
C781 C 0.13418 0.84353 0.89395 0.0
C782 C 0.12789 0.81802 0.92186 0.0
C783 C 0.71414 0.13451 0.14284 0.0
C784 C 0.7138 0.1557 0.21534 0.0
C785 C 0.68734 0.12758 0.09671 0.0
C786 C 0.6591 0.14147 0.12114 0.0
H787 H 0.73408 0.1207 0.12671 0.0
H788 H 0.68818 0.109 0.04778 0.0
S789 S 0.64823 0.20503 0.28618 0.0
N790 N 0.68485 0.19568 0.29431 0.0
N791 N 0.634 0.18199 0.20827 0.0
C792 C 0.65946 0.16552 0.18481 0.0
C793 C 0.68696 0.17283 0.2316 0.0
C794 C 0.47788 0.61873 0.04747 0.0
C795 C 0.48142 0.63806 0.99314 0.0
C796 C 0.48009 0.58954 0.01786 0.0
C797 C 0.48561 0.57899 0.93309 0.0
H798 H 0.47681 0.62627 0.11428 0.0
H799 H 0.4809 0.5755 0.06246 0.0
S800 S 0.48756 0.62013 0.76296 0.0
N801 N 0.48427 0.64423 0.84903 0.0
N802 N 0.48773 0.58932 0.79321 0.0
C803 C 0.48452 0.59784 0.87704 0.0
C804 C 0.48243 0.62749 0.90711 0.0
C805 C 0.84741 0.58561 0.0339 0.0
C806 C 0.86211 0.61074 0.07124 0.0
C807 C 0.8642 0.56027 1.01114 0.0
C808 C 0.89615 0.55937 0.02406 0.0
H809 H 0.82247 0.58448 0.03229 0.0
H810 H 0.85178 0.54095 0.9906 0.0
S811 S 0.94658 0.62074 0.08844 0.0
N812 N 0.91116 0.63435 0.09662 0.0
N813 N 0.9428 0.58651 0.05469 0.0
C814 C 0.9116 0.58493 0.04808 0.0
C815 C 0.89454 0.61078 0.07011 0.0
C816 C 1.01959 0.13832 0.95733 0.0
C817 C 0.03803 0.14782 0.02762 0.0
C818 C 1.02322 0.1109 0.91043 0.0
C819 C 0.04507 0.09166 0.93292 0.0
H820 H 1.00102 0.15169 0.94131 0.0
H821 H 1.00745 0.10428 0.85931 0.0
S822 S 0.10122 0.10731 0.10685 0.0
N823 N 0.08059 0.13679 0.11334 0.0
N824 N 0.08751 0.08525 0.02593 0.0
C825 C 0.06496 0.10156 1.00006 0.0
C826 C 0.06144 0.12963 0.04714 0.0
C827 C 0.4028 0.97237 0.95307 0.0
C828 C 0.39686 0.98535 0.03684 0.0
C829 C 0.42975 0.97776 0.91015 0.0
C830 C 0.45254 0.99629 0.94877 0.0
H831 H 0.38716 0.95663 0.92159 0.0
H832 H 0.43336 0.96614 0.84729 0.0
S833 S 0.44728 0.03745 0.16567 0.0
N834 N 0.41542 0.01887 0.15498 0.0
N835 N 0.4657 0.02928 0.07549 0.0
C836 C 0.44607 0.01056 0.03129 0.0
C837 C 0.41845 0.0051 0.07476 0.0
C838 C 0.45324 0.30737 0.12185 0.0
C839 C 0.47901 0.29649 0.15905 0.0
C840 C 0.45507 0.33208 0.08832 0.0
C841 C 0.48279 0.34695 0.08999 0.0
H842 H 0.43098 0.29759 0.12298 0.0
H843 H 0.43427 0.3402 0.06357 0.0
S844 S 0.55753 0.32646 0.1748 0.0
N845 N 0.5336 0.30182 0.19123 0.0
N846 N 0.53711 0.34795 0.1272 0.0
C847 C 0.50923 0.33533 0.12191 0.0
C848 C 0.50734 0.31018 0.15649 0.0
C849 C 0.14972 0.47692 0.0652 0.0
C850 C 0.17776 0.48826 0.0436 0.0
C851 C 0.122 0.47963 0.0215 0.0
C852 C 0.12072 0.49346 0.95254 0.0
H853 H 0.14925 0.46552 0.11641 0.0
H854 H 0.10142 0.47034 0.04155 0.0
S855 S 0.18763 0.52721 0.87018 0.0
N856 N 0.20231 0.51428 0.94894 0.0
N857 N 0.15068 0.51915 0.86603 0.0
C858 C 0.14863 0.50511 0.93051 0.0
C859 C 0.17688 0.50263 0.97609 0.0
C860 C 0.04481 0.87183 0.67993 0.0
C861 C 1.01809 0.86317 0.63389 0.0
C862 C 0.04739 0.89964 0.7247 0.0
C863 C 1.02336 0.91988 0.72497 0.0
H864 H 0.06455 0.85755 0.67713 0.0
H865 H 0.06895 0.90558 0.75619 0.0
S866 S 0.94705 0.90618 0.62199 0.0
N867 N 0.96627 0.87591 0.59699 0.0
N868 N 0.97055 0.9278 0.68131 0.0
C869 C 0.99573 0.91069 0.68344 0.0
C870 C 0.99327 0.88248 0.63784 0.0
C871 C 0.67903 0.02488 0.70754 0.0
C872 C 0.68706 0.00721 0.63094 0.0
C873 C 0.65181 0.02122 0.75185 0.0
C874 C 0.6308 0.99962 0.72225 0.0
H875 H 0.69372 0.04234 0.73304 0.0
H876 H 0.64692 0.036 0.809 0.0
S877 S 0.64106 0.94667 0.52603 0.0
N878 N 0.67173 0.96663 0.52876 0.0
N879 N 0.62102 0.95946 0.61128 0.0
C880 C 0.63903 0.98114 0.64695 0.0
C881 C 0.66691 0.98492 0.60181 0.0
C882 C 0.56975 0.69163 0.5413 0.0
C883 C 0.5989 0.70206 0.52556 0.0
C884 C 0.567 0.66795 0.57978 0.0
C885 C 0.59332 0.65374 0.60329 0.0
H886 H 0.54908 0.70037 0.5177 0.0
H887 H 0.54426 0.65959 0.58596 0.0
S888 S 0.67446 0.67575 0.58962 0.0
N889 N 0.6542 0.69868 0.54704 0.0
N890 N 0.64911 0.65432 0.61871 0.0
C891 C 0.62234 0.66545 0.59427 0.0
C892 C 0.62511 0.68957 0.55575 0.0
C893 C 0.91105 0.51011 0.61038 0.0
C894 C 0.89321 0.53455 0.64267 0.0
C895 C 0.93868 0.50318 0.64996 0.0
C896 C 0.95011 0.52074 0.72238 0.0
H897 H 0.90454 0.49702 0.55185 0.0
H898 H 0.95195 0.48463 0.62144 0.0
S899 S 0.91053 0.58484 0.83882 0.0
N900 N 0.88747 0.57398 0.75933 0.0
N901 N 0.93993 0.56215 0.82835 0.0
C902 C 0.93184 0.54432 0.7573 0.0
C903 C 0.90334 0.55083 0.71909 0.0
loop_
_geom_bond_atom_site_label_1
_geom_bond_atom_site_label_2
_geom_bond_distance
_geom_bond_site_symmetry_2
_ccdc_geom_bond_type
C0 C1 1.391 . S
C0 C4 1.391 . S
C0 H42 0.948 . S
C1 C0 1.391 . S
C1 C2 1.391 . S
C2 C1 1.391 . S
C2 H58 0.947 . S
C2 C59 1.392 . S
C3 C4 1.391 . S
C3 C7 1.397 . S
C3 C59 1.419 . S
C4 C0 1.391 . S
C4 C3 1.391 . S
C4 C5 1.399 . S
C5 C4 1.399 . S
C5 C8 1.396 . S
C5 C17 1.453 . S
C5 C18 1.684 . S
H6 C30 0.948 . S
C7 C3 1.397 . S
C7 C8 1.394 . S
C7 C26 1.723 . S
C8 C5 1.396 . S
C8 C7 1.394 . S
C8 C38 1.723 . S
H9 C32 0.947 . S
H10 C33 0.948 . S
H11 C39 0.982 . S
H12 C40 0.979 . S
H13 C40 0.980 . S
H14 C40 0.983 . S
H15 C39 0.979 . S
H16 C39 0.977 . S
C17 C5 1.453 . S
C17 H46 0.982 . S
C17 H47 0.979 . S
C17 H48 0.977 . S
C18 C5 1.684 . S
C18 H43 0.979 . S
C18 H44 0.980 . S
C18 H45 0.983 . S
C19 C20 1.391 . S
C19 C24 1.391 . S
C19 H49 0.948 . S
C20 C19 1.391 . S
C20 C21 1.391 . S
C21 C20 1.391 . S
C21 C22 1.392 . S
C21 H50 0.947 . S
C22 C21 1.392 . S
C22 C23 1.419 . S
C22 H51 0.948 . S
C23 C22 1.419 . S
C23 C24 1.391 . S
C23 C27 1.397 . S
C24 C19 1.391 . S
C24 C23 1.391 . S
C24 C25 1.399 . S
C25 C24 1.399 . S
C25 C26 1.396 . S
C25 C28 1.453 . S
C25 C29 1.684 . S
C26 C7 1.723 . S
C26 C25 1.396 . S
C26 C27 1.394 . S
C27 C23 1.397 . S
C27 C26 1.394 . S
C27 C37 1.723 . S
C28 C25 1.453 . S
C28 H52 0.982 . S
C28 H53 0.979 . S
C28 H54 0.977 . S
C29 C25 1.684 . S
C29 H55 0.979 . S
C29 H56 0.980 . S
C29 H57 0.983 . S
C30 H6 0.948 . S
C30 C31 1.391 . S
C30 C35 1.391 . S
C31 C30 1.391 . S
C31 C32 1.391 . S
C32 H9 0.947 . S
C32 C31 1.391 . S
C32 C33 1.392 . S
C33 H10 0.948 . S
C33 C32 1.392 . S
C33 C34 1.419 . S
C34 C33 1.419 . S
C34 C35 1.391 . S
C34 C38 1.397 . S
C35 C30 1.391 . S
C35 C34 1.391 . S
C35 C36 1.399 . S
C36 C35 1.399 . S
C36 C37 1.396 . S
C36 C39 1.453 . S
C36 C40 1.684 . S
C37 C27 1.723 . S
C37 C36 1.396 . S
C37 C38 1.394 . S
C38 C8 1.723 . S
C38 C34 1.397 . S
C38 C37 1.394 . S
C39 H11 0.982 . S
C39 H15 0.979 . S
C39 H16 0.977 . S
C39 C36 1.453 . S
C40 H12 0.979 . S
C40 H13 0.980 . S
C40 H14 0.983 . S
C40 C36 1.684 . S
H41 C59 0.948 . S
H42 C0 0.948 . S
H43 C18 0.979 . S
H44 C18 0.980 . S
H45 C18 0.983 . S
H46 C17 0.982 . S
H47 C17 0.979 . S
H48 C17 0.977 . S
H49 C19 0.948 . S
H50 C21 0.947 . S
H51 C22 0.948 . S
H52 C28 0.982 . S
H53 C28 0.979 . S
H54 C28 0.977 . S
H55 C29 0.979 . S
H56 C29 0.980 . S
H57 C29 0.983 . S
H58 C2 0.947 . S
C59 C2 1.392 . S
C59 C3 1.419 . S
C59 H41 0.948 . S
C60 C61 1.391 . S
C60 C64 1.391 . S
C60 H102 0.948 . S
C61 C60 1.391 . S
C61 C62 1.391 . S
C62 C61 1.391 . S
C62 H118 0.947 . S
C62 C119 1.392 . S
C63 C64 1.391 . S
C63 C67 1.397 1_655 S
C63 C119 1.419 . S
C64 C60 1.391 . S
C64 C63 1.391 . S
C64 C65 1.399 . S
C65 C64 1.399 . S
C65 C68 1.396 1_655 S
C65 C77 1.453 1_655 S
C65 C78 1.684 . S
H66 C90 0.948 . S
C67 C63 1.397 1_455 S
C67 C68 1.394 . S
C67 C86 1.723 . S
C68 C65 1.396 1_455 S
C68 C67 1.394 . S
C68 C98 1.723 . S
H69 C92 0.947 . S
H70 C93 0.948 . S
H71 C99 0.982 . S
H72 C100 0.979 . S
H73 C100 0.980 . S
H74 C100 0.983 . S
H75 C99 0.979 . S
H76 C99 0.977 . S
C77 C65 1.453 1_455 S
C77 H106 0.982 . S
C77 H107 0.979 . S
C77 H108 0.977 . S
C78 C65 1.684 . S
C78 H103 0.979 . S
C78 H104 0.980 . S
C78 H105 0.983 . S
C79 C80 1.391 . S
C79 C84 1.391 . S
C79 H109 0.948 . S
C80 C79 1.391 . S
C80 C81 1.391 . S
C81 C80 1.391 . S
C81 C82 1.392 . S
C81 H110 0.947 . S
C82 C81 1.392 . S
C82 C83 1.419 . S
C82 H111 0.948 . S
C83 C82 1.419 . S
C83 C84 1.391 . S
C83 C87 1.397 1_655 S
C84 C79 1.391 . S
C84 C83 1.391 . S
C84 C85 1.399 . S
C85 C84 1.399 . S
C85 C86 1.396 1_655 S
C85 C88 1.453 1_655 S
C85 C89 1.684 . S
C86 C67 1.723 . S
C86 C85 1.396 1_455 S
C86 C87 1.394 . S
C87 C83 1.397 1_455 S
C87 C86 1.394 . S
C87 C97 1.723 . S
C88 C85 1.453 1_455 S
C88 H112 0.982 . S
C88 H113 0.979 . S
C88 H114 0.977 . S
C89 C85 1.684 . S
C89 H115 0.979 . S
C89 H116 0.980 . S
C89 H117 0.983 . S
C90 H66 0.948 . S
C90 C91 1.391 . S
C90 C95 1.391 . S
C91 C90 1.391 . S
C91 C92 1.391 . S
C92 H69 0.947 . S
C92 C91 1.391 . S
C92 C93 1.392 . S
C93 H70 0.948 . S
C93 C92 1.392 . S
C93 C94 1.419 . S
C94 C93 1.419 . S
C94 C95 1.391 . S
C94 C98 1.397 1_655 S
C95 C90 1.391 . S
C95 C94 1.391 . S
C95 C96 1.399 . S
C96 C95 1.399 . S
C96 C97 1.396 1_655 S
C96 C99 1.453 1_655 S
C96 C100 1.684 . S
C97 C87 1.723 . S
C97 C96 1.396 1_455 S
C97 C98 1.394 . S
C98 C68 1.723 . S
C98 C94 1.397 1_455 S
C98 C97 1.394 . S
C99 H71 0.982 . S
C99 H75 0.979 . S
C99 H76 0.977 . S
C99 C96 1.453 1_455 S
C100 H72 0.979 . S
C100 H73 0.980 . S
C100 H74 0.983 . S
C100 C96 1.684 . S
H101 C119 0.948 . S
H102 C60 0.948 . S
H103 C78 0.979 . S
H104 C78 0.980 . S
H105 C78 0.983 . S
H106 C77 0.982 . S
H107 C77 0.979 . S
H108 C77 0.977 . S
H109 C79 0.948 . S
H110 C81 0.947 . S
H111 C82 0.948 . S
H112 C88 0.982 . S
H113 C88 0.979 . S
H114 C88 0.977 . S
H115 C89 0.979 . S
H116 C89 0.980 . S
H117 C89 0.983 . S
H118 C62 0.947 . S
C119 C62 1.392 . S
C119 C63 1.419 . S
C119 H101 0.948 . S
C120 C121 1.391 . S
C120 C124 1.391 . S
C120 H162 0.948 . S
C121 C120 1.391 . S
C121 C122 1.391 . S
C122 C121 1.391 . S
C122 H178 0.947 . S
C122 C179 1.392 . S
C123 C124 1.391 . S
C123 C127 1.397 1_565 S
C123 C179 1.419 . S
C124 C120 1.391 . S
C124 C123 1.391 . S
C124 C125 1.399 . S
C125 C124 1.399 . S
C125 C128 1.396 1_565 S
C125 C137 1.453 1_565 S
C125 C138 1.684 . S
H126 C150 0.948 . S
C127 C123 1.397 1_545 S
C127 C128 1.394 . S
C127 C146 1.723 . S
C128 C125 1.396 1_545 S
C128 C127 1.394 . S
C128 C158 1.723 . S
H129 C152 0.947 . S
H130 C153 0.948 . S
H131 C159 0.982 . S
H132 C160 0.979 . S
H133 C160 0.980 . S
H134 C160 0.983 . S
H135 C159 0.979 . S
H136 C159 0.977 . S
C137 C125 1.453 1_545 S
C137 H166 0.982 . S
C137 H167 0.979 . S
C137 H168 0.977 . S
C138 C125 1.684 . S
C138 H163 0.979 . S
C138 H164 0.980 . S
C138 H165 0.983 . S
C139 C140 1.391 . S
C139 C144 1.391 . S
C139 H169 0.948 . S
C140 C139 1.391 . S
C140 C141 1.391 . S
C141 C140 1.391 . S
C141 C142 1.392 . S
C141 H170 0.947 . S
C142 C141 1.392 . S
C142 C143 1.419 . S
C142 H171 0.948 . S
C143 C142 1.419 . S
C143 C144 1.391 . S
C143 C147 1.397 1_565 S
C144 C139 1.391 . S
C144 C143 1.391 . S
C144 C145 1.399 . S
C145 C144 1.399 . S
C145 C146 1.396 1_565 S
C145 C148 1.453 1_565 S
C145 C149 1.684 . S
C146 C127 1.723 . S
C146 C145 1.396 1_545 S
C146 C147 1.394 . S
C147 C143 1.397 1_545 S
C147 C146 1.394 . S
C147 C157 1.723 . S
C148 C145 1.453 1_545 S
C148 H172 0.982 . S
C148 H173 0.979 . S
C148 H174 0.977 . S
C149 C145 1.684 . S
C149 H175 0.979 . S
C149 H176 0.980 . S
C149 H177 0.983 . S
C150 H126 0.948 . S
C150 C151 1.391 . S
C150 C155 1.391 . S
C151 C150 1.391 . S
C151 C152 1.391 . S
C152 H129 0.947 . S
C152 C151 1.391 . S
C152 C153 1.392 . S
C153 H130 0.948 . S
C153 C152 1.392 . S
C153 C154 1.419 . S
C154 C153 1.419 . S
C154 C155 1.391 . S
C154 C158 1.397 1_565 S
C155 C150 1.391 . S
C155 C154 1.391 . S
C155 C156 1.399 . S
C156 C155 1.399 . S
C156 C157 1.396 1_565 S
C156 C159 1.453 1_565 S
C156 C160 1.684 . S
C157 C147 1.723 . S
C157 C156 1.396 1_545 S
C157 C158 1.394 . S
C158 C128 1.723 . S
C158 C154 1.397 1_545 S
C158 C157 1.394 . S
C159 H131 0.982 . S
C159 H135 0.979 . S
C159 H136 0.977 . S
C159 C156 1.453 1_545 S
C160 H132 0.979 . S
C160 H133 0.980 . S
C160 H134 0.983 . S
C160 C156 1.684 . S
H161 C179 0.948 . S
H162 C120 0.948 . S
H163 C138 0.979 . S
H164 C138 0.980 . S
H165 C138 0.983 . S
H166 C137 0.982 . S
H167 C137 0.979 . S
H168 C137 0.977 . S
H169 C139 0.948 . S
H170 C141 0.947 . S
H171 C142 0.948 . S
H172 C148 0.982 . S
H173 C148 0.979 . S
H174 C148 0.977 . S
H175 C149 0.979 . S
H176 C149 0.980 . S
H177 C149 0.983 . S
H178 C122 0.947 . S
C179 C122 1.392 . S
C179 C123 1.419 . S
C179 H161 0.948 . S
C180 C181 1.391 . S
C180 C184 1.391 . S
C180 H222 0.948 . S
C181 C180 1.391 . S
C181 C182 1.391 . S
C182 C181 1.391 . S
C182 H238 0.947 . S
C182 C239 1.392 . S
C183 C184 1.391 . S
C183 C187 1.397 . S
C183 C239 1.419 . S
C184 C180 1.391 . S
C184 C183 1.391 . S
C184 C185 1.399 . S
C185 C184 1.399 . S
C185 C188 1.396 . S
C185 C197 1.453 . S
C185 C198 1.684 . S
H186 C210 0.948 . S
C187 C183 1.397 . S
C187 C188 1.394 . S
C187 C206 1.723 1_554 S
C188 C185 1.396 . S
C188 C187 1.394 . S
C188 C218 1.723 . S
H189 C212 0.947 . S
H190 C213 0.948 . S
H191 C219 0.982 . S
H192 C220 0.979 . S
H193 C220 0.980 . S
H194 C220 0.983 . S
H195 C219 0.979 . S
H196 C219 0.977 . S
C197 C185 1.453 . S
C197 H226 0.982 . S
C197 H227 0.979 . S
C197 H228 0.977 . S
C198 C185 1.684 . S
C198 H223 0.979 . S
C198 H224 0.980 . S
C198 H225 0.983 . S
C199 C200 1.391 . S
C199 C204 1.391 . S
C199 H229 0.948 . S
C200 C199 1.391 . S
C200 C201 1.391 . S
C201 C200 1.391 . S
C201 C202 1.392 . S
C201 H230 0.947 . S
C202 C201 1.392 . S
C202 C203 1.419 . S
C202 H231 0.948 . S
C203 C202 1.419 . S
C203 C204 1.391 . S
C203 C207 1.397 . S
C204 C199 1.391 . S
C204 C203 1.391 . S
C204 C205 1.399 . S
C205 C204 1.399 . S
C205 C206 1.396 . S
C205 C208 1.453 . S
C205 C209 1.684 . S
C206 C187 1.723 1_556 S
C206 C205 1.396 . S
C206 C207 1.394 . S
C207 C203 1.397 . S
C207 C206 1.394 . S
C207 C217 1.723 . S
C208 C205 1.453 . S
C208 H232 0.982 . S
C208 H233 0.979 . S
C208 H234 0.977 1_556 S
C209 C205 1.684 . S
C209 H235 0.979 . S
C209 H236 0.980 1_556 S
C209 H237 0.983 . S
C210 H186 0.948 . S
C210 C211 1.391 . S
C210 C215 1.391 . S
C211 C210 1.391 . S
C211 C212 1.391 1_556 S
C212 H189 0.947 . S
C212 C211 1.391 1_554 S
C212 C213 1.392 . S
C213 H190 0.948 . S
C213 C212 1.392 . S
C213 C214 1.425 . S
C214 C213 1.425 . S
C214 C215 1.381 1_554 S
C214 C218 1.399 . S
C215 C210 1.391 . S
C215 C214 1.381 1_556 S
C215 C216 1.399 . S
C216 C215 1.399 . S
C216 C217 1.396 . S
C216 C219 1.453 . S
C216 C220 1.684 . S
C217 C207 1.723 . S
C217 C216 1.396 . S
C217 C218 1.394 1_556 S
C218 C188 1.723 . S
C218 C214 1.399 . S
C218 C217 1.394 1_554 S
C219 H191 0.982 . S
C219 H195 0.979 . S
C219 H196 0.977 . S
C219 C216 1.453 . S
C220 H192 0.979 . S
C220 H193 0.980 . S
C220 H194 0.983 . S
C220 C216 1.684 . S
H221 C239 0.948 . S
H222 C180 0.948 . S
H223 C198 0.979 . S
H224 C198 0.980 . S
H225 C198 0.983 . S
H226 C197 0.982 . S
H227 C197 0.979 . S
H228 C197 0.977 . S
H229 C199 0.948 . S
H230 C201 0.947 . S
H231 C202 0.948 . S
H232 C208 0.982 . S
H233 C208 0.979 . S
H234 C208 0.977 1_554 S
H235 C209 0.979 . S
H236 C209 0.980 1_554 S
H237 C209 0.983 . S
H238 C182 0.947 . S
C239 C182 1.392 . S
C239 C183 1.419 . S
C239 H221 0.948 . S
C240 C241 1.391 . S
C240 C244 1.391 . S
C240 H282 0.948 . S
C241 C240 1.391 . S
C241 C242 1.391 . S
C242 C241 1.391 . S
C242 H298 0.947 . S
C242 C299 1.392 . S
C243 C244 1.391 . S
C243 C247 1.397 . S
C243 C299 1.419 . S
C244 C240 1.391 . S
C244 C243 1.391 . S
C244 C245 1.399 . S
C245 C244 1.399 . S
C245 C248 1.396 . S
C245 C257 1.453 . S
C245 C258 1.684 . S
H246 C270 0.948 . S
C247 C243 1.397 . S
C247 C248 1.394 . S
C247 C266 1.723 . S
C248 C245 1.396 . S
C248 C247 1.394 . S
C248 C278 1.723 . S
H249 C272 0.947 . S
H250 C273 0.948 . S
H251 C279 0.982 . S
H252 C280 0.979 . S
H253 C280 0.980 . S
H254 C280 0.983 . S
H255 C279 0.979 . S
H256 C279 0.977 . S
C257 C245 1.453 . S
C257 H286 0.982 . S
C257 H287 0.979 . S
C257 H288 0.977 1_554 S
C258 C245 1.684 . S
C258 H283 0.979 . S
C258 H284 0.980 1_554 S
C258 H285 0.983 . S
C259 C260 1.391 . S
C259 C264 1.391 . S
C259 H289 0.948 . S
C260 C259 1.391 . S
C260 C261 1.391 . S
C261 C260 1.391 . S
C261 C262 1.392 . S
C261 H290 0.947 . S
C262 C261 1.392 . S
C262 C263 1.419 . S
C262 H291 0.948 . S
C263 C262 1.419 . S
C263 C264 1.391 . S
C263 C267 1.397 . S
C264 C259 1.391 . S
C264 C263 1.391 . S
C264 C265 1.399 . S
C265 C264 1.399 . S
C265 C266 1.396 . S
C265 C268 1.453 . S
C265 C269 1.684 . S
C266 C247 1.723 . S
C266 C265 1.396 . S
C266 C267 1.394 . S
C267 C263 1.397 . S
C267 C266 1.394 . S
C267 C277 1.723 . S
C268 C265 1.453 . S
C268 H292 0.982 . S
C268 H293 0.979 . S
C268 H294 0.977 . S
C269 C265 1.684 . S
C269 H295 0.979 . S
C269 H296 0.980 . S
C269 H297 0.983 . S
C270 H246 0.948 . S
C270 C271 1.391 . S
C270 C275 1.391 . S
C271 C270 1.391 . S
C271 C272 1.391 . S
C272 H249 0.947 . S
C272 C271 1.391 . S
C272 C273 1.392 . S
C273 H250 0.948 . S
C273 C272 1.392 . S
C273 C274 1.419 1_556 S
C274 C273 1.419 1_554 S
C274 C275 1.391 1_554 S
C274 C278 1.397 . S
C275 C270 1.391 . S
C275 C274 1.391 1_556 S
C275 C276 1.399 1_556 S
C276 C275 1.399 1_554 S
C276 C277 1.396 . S
C276 C279 1.453 . S
C276 C280 1.684 . S
C277 C267 1.723 . S
C277 C276 1.396 . S
C277 C278 1.394 . S
C278 C248 1.723 . S
C278 C274 1.397 . S
C278 C277 1.394 . S
C279 H251 0.982 . S
C279 H255 0.979 . S
C279 H256 0.977 . S
C279 C276 1.453 . S
C280 H252 0.979 . S
C280 H253 0.980 . S
C280 H254 0.983 . S
C280 C276 1.684 . S
H281 C299 0.948 . S
H282 C240 0.948 . S
H283 C258 0.979 . S
H284 C258 0.980 1_556 S
H285 C258 0.983 . S
H286 C257 0.982 . S
H287 C257 0.979 . S
H288 C257 0.977 1_556 S
H289 C259 0.948 . S
H290 C261 0.947 . S
H291 C262 0.948 . S
H292 C268 0.982 . S
H293 C268 0.979 . S
H294 C268 0.977 . S
H295 C269 0.979 . S
H296 C269 0.980 . S
H297 C269 0.983 . S
H298 C242 0.947 . S
C299 C242 1.392 . S
C299 C243 1.419 . S
C299 H281 0.948 . S
C300 C301 1.391 . S
C300 C304 1.391 . S
C300 H342 0.948 . S
C301 C300 1.391 . S
C301 C302 1.391 . S
C302 C301 1.391 . S
C302 H358 0.947 . S
C302 C359 1.392 . S
C303 C304 1.391 . S
C303 C307 1.396 1_655 S
C303 C359 1.419 . S
C304 C300 1.391 . S
C304 C303 1.391 . S
C304 C305 1.399 . S
C305 C304 1.399 . S
C305 C308 1.396 1_655 S
C305 C317 1.453 1_655 S
C305 C318 1.684 . S
H306 C330 0.948 . S
C307 C303 1.396 1_455 S
C307 C308 1.395 . S
C307 C326 1.723 . S
C308 C305 1.396 1_455 S
C308 C307 1.395 . S
C308 C338 1.723 . S
H309 C332 0.947 . S
H310 C333 0.948 . S
H311 C339 0.982 . S
H312 C340 0.979 . S
H313 C340 0.980 . S
H314 C340 0.983 . S
H315 C339 0.979 . S
H316 C339 0.977 . S
C317 C305 1.453 1_455 S
C317 H346 0.982 . S
C317 H347 0.979 . S
C317 H348 0.977 . S
C318 C305 1.684 . S
C318 H343 0.979 . S
C318 H344 0.980 . S
C318 H345 0.983 . S
C319 C320 1.391 . S
C319 C324 1.391 1_556 S
C319 H349 0.948 . S
C320 C319 1.391 . S
C320 C321 1.391 . S
C321 C320 1.391 . S
C321 C322 1.392 . S
C321 H350 0.947 . S
C322 C321 1.392 . S
C322 C323 1.419 1_556 S
C322 H351 0.948 1_556 S
C323 C322 1.419 1_554 S
C323 C324 1.391 . S
C323 C327 1.396 1_655 S
C324 C319 1.391 1_554 S
C324 C323 1.391 . S
C324 C325 1.399 . S
C325 C324 1.399 . S
C325 C326 1.396 1_655 S
C325 C328 1.453 1_655 S
C325 C329 1.684 . S
C326 C307 1.723 . S
C326 C325 1.396 1_455 S
C326 C327 1.394 . S
C327 C323 1.396 1_455 S
C327 C326 1.394 . S
C327 C337 1.723 . S
C328 C325 1.453 1_455 S
C328 H352 0.982 . S
C328 H353 0.979 . S
C328 H354 0.977 . S
C329 C325 1.684 . S
C329 H355 0.979 . S
C329 H356 0.980 . S
C329 H357 0.983 . S
C330 H306 0.948 . S
C330 C331 1.391 . S
C330 C335 1.391 . S
C331 C330 1.391 . S
C331 C332 1.391 . S
C332 H309 0.947 . S
C332 C331 1.391 . S
C332 C333 1.392 . S
C333 H310 0.948 . S
C333 C332 1.392 . S
C333 C334 1.419 . S
C334 C333 1.419 . S
C334 C335 1.391 . S
C334 C338 1.397 1_655 S
C335 C330 1.391 . S
C335 C334 1.391 . S
C335 C336 1.399 . S
C336 C335 1.399 . S
C336 C337 1.396 1_655 S
C336 C339 1.453 1_655 S
C336 C340 1.684 . S
C337 C327 1.723 . S
C337 C336 1.396 1_455 S
C337 C338 1.395 . S
C338 C308 1.723 . S
C338 C334 1.397 1_455 S
C338 C337 1.395 . S
C339 H311 0.982 . S
C339 H315 0.979 . S
C339 H316 0.977 . S
C339 C336 1.453 1_455 S
C340 H312 0.979 . S
C340 H313 0.980 . S
C340 H314 0.983 . S
C340 C336 1.684 . S
H341 C359 0.948 . S
H342 C300 0.948 . S
H343 C318 0.979 . S
H344 C318 0.980 . S
H345 C318 0.983 . S
H346 C317 0.982 . S
H347 C317 0.979 . S
H348 C317 0.977 . S
H349 C319 0.948 . S
H350 C321 0.947 . S
H351 C322 0.948 1_554 S
H352 C328 0.982 . S
H353 C328 0.979 . S
H354 C328 0.977 . S
H355 C329 0.979 . S
H356 C329 0.980 . S
H357 C329 0.983 . S
H358 C302 0.947 . S
C359 C302 1.392 . S
C359 C303 1.419 . S
C359 H341 0.948 . S
C360 C361 1.391 . S
C360 C364 1.391 . S
C360 H402 0.948 . S
C361 C360 1.391 . S
C361 C362 1.391 . S
C362 C361 1.391 . S
C362 H418 0.947 . S
C362 C419 1.392 1_556 S
C363 C364 1.391 1_554 S
C363 C367 1.397 1_545 S
C363 C419 1.419 . S
C364 C360 1.391 . S
C364 C363 1.391 1_556 S
C364 C365 1.399 1_556 S
C365 C364 1.399 1_554 S
C365 C368 1.396 1_545 S
C365 C377 1.453 1_544 S
C365 C378 1.684 . S
H366 C390 0.948 . S
C367 C363 1.397 1_565 S
C367 C368 1.394 . S
C367 C386 1.723 . S
C368 C365 1.396 1_565 S
C368 C367 1.394 . S
C368 C398 1.723 . S
H369 C392 0.947 . S
H370 C393 0.948 . S
H371 C399 0.982 . S
H372 C400 0.979 . S
H373 C400 0.980 . S
H374 C400 0.983 . S
H375 C399 0.979 . S
H376 C399 0.977 . S
C377 C365 1.453 1_566 S
C377 H406 0.982 . S
C377 H407 0.979 . S
C377 H408 0.977 1_556 S
C378 C365 1.684 . S
C378 H403 0.979 . S
C378 H404 0.980 . S
C378 H405 0.983 1_554 S
C379 C380 1.391 . S
C379 C384 1.391 . S
C379 H409 0.948 . S
C380 C379 1.391 . S
C380 C381 1.391 . S
C381 C380 1.391 . S
C381 C382 1.392 . S
C381 H410 0.947 . S
C382 C381 1.392 . S
C382 C383 1.419 . S
C382 H411 0.948 . S
C383 C382 1.419 . S
C383 C384 1.391 . S
C383 C387 1.397 1_545 S
C384 C379 1.391 . S
C384 C383 1.391 . S
C384 C385 1.399 . S
C385 C384 1.399 . S
C385 C386 1.396 1_545 S
C385 C388 1.453 1_545 S
C385 C389 1.684 . S
C386 C367 1.723 . S
C386 C385 1.396 1_565 S
C386 C387 1.394 . S
C387 C383 1.397 1_565 S
C387 C386 1.394 . S
C387 C397 1.723 . S
C388 C385 1.453 1_565 S
C388 H412 0.982 . S
C388 H413 0.979 . S
C388 H414 0.977 . S
C389 C385 1.684 . S
C389 H415 0.979 . S
C389 H416 0.980 . S
C389 H417 0.983 . S
C390 H366 0.948 . S
C390 C391 1.391 . S
C390 C395 1.391 . S
C391 C390 1.391 . S
C391 C392 1.391 . S
C392 H369 0.947 . S
C392 C391 1.391 . S
C392 C393 1.392 . S
C393 H370 0.948 . S
C393 C392 1.392 . S
C393 C394 1.419 . S
C394 C393 1.419 . S
C394 C395 1.391 . S
C394 C398 1.397 1_545 S
C395 C390 1.391 . S
C395 C394 1.391 . S
C395 C396 1.399 . S
C396 C395 1.399 . S
C396 C397 1.396 1_545 S
C396 C399 1.453 1_545 S
C396 C400 1.684 . S
C397 C387 1.723 . S
C397 C396 1.396 1_565 S
C397 C398 1.394 . S
C398 C368 1.723 . S
C398 C394 1.397 1_565 S
C398 C397 1.394 . S
C399 H371 0.982 . S
C399 H375 0.979 . S
C399 H376 0.977 . S
C399 C396 1.453 1_565 S
C400 H372 0.979 . S
C400 H373 0.980 . S
C400 H374 0.983 . S
C400 C396 1.684 . S
H401 C419 0.948 . S
H402 C360 0.948 . S
H403 C378 0.979 . S
H404 C378 0.980 . S
H405 C378 0.983 1_556 S
H406 C377 0.982 . S
H407 C377 0.979 . S
H408 C377 0.977 1_554 S
H409 C379 0.948 . S
H410 C381 0.947 . S
H411 C382 0.948 . S
H412 C388 0.982 . S
H413 C388 0.979 . S
H414 C388 0.977 . S
H415 C389 0.979 . S
H416 C389 0.980 . S
H417 C389 0.983 . S
H418 C362 0.947 . S
C419 C362 1.392 1_554 S
C419 C363 1.419 . S
C419 H401 0.948 . S
C420 C421 1.391 . S
C420 C424 1.391 . S
C420 H462 0.948 . S
C421 C420 1.391 . S
C421 C422 1.391 . S
C422 C421 1.391 . S
C422 H478 0.947 . S
C422 C479 1.392 . S
C423 C424 1.391 . S
C423 C427 1.397 . S
C423 C479 1.419 . S
C424 C420 1.391 . S
C424 C423 1.391 . S
C424 C425 1.399 . S
C425 C424 1.399 . S
C425 C428 1.396 . S
C425 C437 1.453 . S
C425 C438 1.684 . S
H426 C450 0.948 . S
C427 C423 1.397 . S
C427 C428 1.394 . S
C427 C446 1.723 . S
C428 C425 1.396 . S
C428 C427 1.394 . S
C428 C458 1.723 . S
H429 C452 0.947 . S
H430 C453 0.948 . S
H431 C459 0.982 . S
H432 C460 0.979 . S
H433 C460 0.980 . S
H434 C460 0.983 . S
H435 C459 0.979 . S
H436 C459 0.977 . S
C437 C425 1.453 . S
C437 H466 0.982 . S
C437 H467 0.979 . S
C437 H468 0.977 . S
C438 C425 1.684 . S
C438 H463 0.979 . S
C438 H464 0.980 . S
C438 H465 0.983 . S
C439 C440 1.391 . S
C439 C444 1.391 . S
C439 H469 0.948 . S
C440 C439 1.391 . S
C440 C441 1.391 . S
C441 C440 1.391 . S
C441 C442 1.392 . S
C441 H470 0.947 . S
C442 C441 1.392 . S
C442 C443 1.419 . S
C442 H471 0.948 . S
C443 C442 1.419 . S
C443 C444 1.391 . S
C443 C447 1.397 . S
C444 C439 1.391 . S
C444 C443 1.391 . S
C444 C445 1.399 . S
C445 C444 1.399 . S
C445 C446 1.396 . S
C445 C448 1.453 . S
C445 C449 1.684 . S
C446 C427 1.723 . S
C446 C445 1.396 . S
C446 C447 1.394 . S
C447 C443 1.397 . S
C447 C446 1.394 . S
C447 C457 1.723 . S
C448 C445 1.453 . S
C448 H472 0.982 . S
C448 H473 0.979 . S
C448 H474 0.977 . S
C449 C445 1.684 . S
C449 H475 0.979 . S
C449 H476 0.980 . S
C449 H477 0.983 . S
C450 H426 0.948 . S
C450 C451 1.391 . S
C450 C455 1.391 . S
C451 C450 1.391 . S
C451 C452 1.391 . S
C452 H429 0.947 . S
C452 C451 1.391 . S
C452 C453 1.392 . S
C453 H430 0.948 . S
C453 C452 1.392 . S
C453 C454 1.419 . S
C454 C453 1.419 . S
C454 C455 1.391 . S
C454 C458 1.397 . S
C455 C450 1.391 . S
C455 C454 1.391 . S
C455 C456 1.399 . S
C456 C455 1.399 . S
C456 C457 1.396 . S
C456 C459 1.453 . S
C456 C460 1.684 . S
C457 C447 1.723 . S
C457 C456 1.396 . S
C457 C458 1.394 . S
C458 C428 1.723 . S
C458 C454 1.397 . S
C458 C457 1.394 . S
C459 H431 0.982 . S
C459 H435 0.979 . S
C459 H436 0.977 . S
C459 C456 1.453 . S
C460 H432 0.979 . S
C460 H433 0.980 . S
C460 H434 0.983 . S
C460 C456 1.684 . S
H461 C479 0.948 . S
H462 C420 0.948 . S
H463 C438 0.979 . S
H464 C438 0.980 . S
H465 C438 0.983 . S
H466 C437 0.982 . S
H467 C437 0.979 . S
H468 C437 0.977 . S
H469 C439 0.948 . S
H470 C441 0.947 . S
H471 C442 0.948 . S
H472 C448 0.982 . S
H473 C448 0.979 . S
H474 C448 0.977 . S
H475 C449 0.979 . S
H476 C449 0.980 . S
H477 C449 0.983 . S
H478 C422 0.947 . S
C479 C422 1.392 . S
C479 C423 1.419 . S
C479 H461 0.948 . S
Tb480 C489 2.764 . S
Tb480 O490 2.325 . S
Tb480 O493 2.303 1_655 S
Tb480 O497 2.322 1_545 S
Tb480 O498 2.349 . S
Tb480 O501 2.415 . S
Tb480 O502 2.399 . S
Tb481 O491 2.322 1_565 S
Tb481 O492 2.349 . S
Tb481 O494 2.415 . S
Tb481 O495 2.399 . S
Tb481 O496 2.325 . S
Tb481 O499 2.303 1_455 S
Tb481 C510 2.764 . S
C482 O498 1.261 . S
C482 O499 1.257 1_545 S
C483 C486 1.358 . S
C483 C487 1.332 . S
C483 C489 1.504 . S
C484 C485 1.373 . S
C484 C488 1.308 . S
C485 C484 1.373 . S
C485 C486 1.429 . S
C485 H512 0.932 . S
C486 C483 1.358 . S
C486 C485 1.429 . S
C486 H513 0.930 . S
C487 C483 1.332 . S
C487 C488 1.394 . S
C487 H514 0.906 1_655 S
C488 C484 1.308 . S
C488 C487 1.394 . S
C488 H515 0.929 . S
C489 Tb480 2.764 . S
C489 C483 1.504 . S
C489 O501 1.239 . S
C489 O502 1.263 . S
O490 Tb480 2.325 . S
O490 C500 1.236 1_655 S
O491 Tb481 2.322 1_545 S
O491 C500 1.257 . S
O492 Tb481 2.349 . S
O492 C503 1.261 . S
O493 Tb480 2.303 1_455 S
O493 C503 1.257 1_545 S
O494 Tb481 2.415 . S
O494 C510 1.239 . S
O495 Tb481 2.399 . S
O495 C510 1.263 . S
O496 Tb481 2.325 . S
O496 C511 1.236 1_455 S
O497 Tb480 2.322 1_565 S
O497 C511 1.257 . S
O498 Tb480 2.349 . S
O498 C482 1.261 . S
O499 Tb481 2.303 1_655 S
O499 C482 1.257 1_565 S
C500 O490 1.236 1_455 S
C500 O491 1.257 . S
O501 Tb480 2.415 . S
O501 C489 1.239 . S
O502 Tb480 2.399 . S
O502 C489 1.263 . S
C503 O492 1.261 . S
C503 O493 1.257 1_565 S
C504 C507 1.358 1_556 S
C504 C508 1.332 1_556 S
C504 C510 1.504 . S
C505 C506 1.373 . S
C505 C509 1.308 . S
C506 C505 1.373 . S
C506 C507 1.429 . S
C506 H516 0.932 . S
C507 C504 1.358 1_554 S
C507 C506 1.429 . S
C507 H517 0.930 1_554 S
C508 C504 1.332 1_554 S
C508 C509 1.394 . S
C508 H518 0.915 1_455 S
C509 C505 1.308 . S
C509 C508 1.394 . S
C509 H519 0.929 . S
C510 Tb481 2.764 . S
C510 O494 1.239 . S
C510 O495 1.263 . S
C510 C504 1.504 . S
C511 O496 1.236 1_655 S
C511 O497 1.257 . S
H512 C485 0.932 . S
H513 C486 0.930 . S
H514 C487 0.906 1_455 S
H515 C488 0.929 . S
H516 C506 0.932 . S
H517 C507 0.930 1_556 S
H518 C508 0.915 1_655 S
H519 C509 0.929 . S
Tb520 C529 2.764 . S
Tb520 O530 2.325 . S
Tb520 O533 2.303 1_565 S
Tb520 O537 2.322 . S
Tb520 O538 2.349 . S
Tb520 O541 2.415 1_565 S
Tb520 O542 2.399 . S
Tb521 O531 2.322 . S
Tb521 O532 2.349 . S
Tb521 O534 2.415 1_545 S
Tb521 O535 2.399 . S
Tb521 O536 2.325 . S
Tb521 O539 2.303 1_545 S
Tb521 C550 2.764 1_556 S
C522 O538 1.261 . S
C522 O539 1.257 . S
C523 C526 1.358 . S
C523 C527 1.318 1_565 S
C523 C529 1.504 . S
C524 C525 1.373 . S
C524 C528 1.308 . S
C525 C524 1.373 . S
C525 C526 1.429 . S
C525 H552 0.932 . S
C526 C523 1.358 . S
C526 C525 1.429 . S
C526 H553 0.930 . S
C527 C523 1.318 1_545 S
C527 C528 1.395 1_545 S
C527 H554 0.946 . S
C528 C524 1.308 . S
C528 C527 1.395 1_565 S
C528 H555 0.929 1_565 S
C529 Tb520 2.764 . S
C529 C523 1.504 . S
C529 O541 1.239 1_565 S
C529 O542 1.263 . S
O530 Tb520 2.325 . S
O530 C540 1.236 1_565 S
O531 Tb521 2.322 . S
O531 C540 1.257 . S
O532 Tb521 2.349 . S
O532 C543 1.261 . S
O533 Tb520 2.303 1_545 S
O533 C543 1.257 . S
O534 Tb521 2.415 1_565 S
O534 C550 1.239 1_566 S
O535 Tb521 2.399 . S
O535 C550 1.263 1_556 S
O536 Tb521 2.325 . S
O536 C551 1.236 1_545 S
O537 Tb520 2.322 . S
O537 C551 1.257 . S
O538 Tb520 2.349 . S
O538 C522 1.261 . S
O539 Tb521 2.303 1_565 S
O539 C522 1.257 . S
C540 O530 1.236 1_545 S
C540 O531 1.257 . S
O541 Tb520 2.415 1_545 S
O541 C529 1.239 1_545 S
O542 Tb520 2.399 . S
O542 C529 1.263 . S
C543 O532 1.261 . S
C543 O533 1.257 . S
C544 C547 1.358 . S
C544 C548 1.325 1_545 S
C544 C550 1.504 . S
C545 C546 1.373 . S
C545 C549 1.308 . S
C546 C545 1.373 . S
C546 C547 1.429 . S
C546 H556 0.932 . S
C547 C544 1.358 . S
C547 C546 1.429 . S
C547 H557 0.930 . S
C548 C544 1.325 1_565 S
C548 C549 1.394 1_565 S
C548 H558 0.938 . S
C549 C545 1.308 . S
C549 C548 1.394 1_545 S
C549 H559 0.929 1_545 S
C550 Tb521 2.764 1_554 S
C550 O534 1.239 1_544 S
C550 O535 1.263 1_554 S
C550 C544 1.504 . S
C551 O536 1.236 1_565 S
C551 O537 1.257 . S
H552 C525 0.932 . S
H553 C526 0.930 . S
H554 C527 0.946 . S
H555 C528 0.929 1_545 S
H556 C546 0.932 . S
H557 C547 0.930 . S
H558 C548 0.938 . S
H559 C549 0.929 1_565 S
Tb560 C569 2.764 1_556 S
Tb560 O570 2.325 . S
Tb560 O573 2.303 . S
Tb560 O577 2.322 . S
Tb560 O578 2.349 . S
Tb560 O581 2.415 1_556 S
Tb560 O582 2.399 . S
Tb561 O571 2.322 . S
Tb561 O572 2.349 . S
Tb561 O574 2.415 . S
Tb561 O575 2.399 . S
Tb561 O576 2.325 . S
Tb561 O579 2.303 . S
Tb561 C590 2.764 . S
C562 O578 1.261 . S
C562 O579 1.257 . S
C563 C566 1.358 . S
C563 C567 1.332 . S
C563 C569 1.504 . S
C564 C565 1.373 . S
C564 C568 1.308 . S
C565 C564 1.373 . S
C565 C566 1.429 . S
C565 H592 0.932 . S
C566 C563 1.358 . S
C566 C565 1.429 . S
C566 H593 0.930 . S
C567 C563 1.332 . S
C567 C568 1.394 . S
C567 H594 0.932 . S
C568 C564 1.308 . S
C568 C567 1.394 . S
C568 H595 0.929 . S
C569 Tb560 2.764 1_554 S
C569 C563 1.504 . S
C569 O581 1.239 . S
C569 O582 1.263 1_554 S
O570 Tb560 2.325 . S
O570 C580 1.236 . S
O571 Tb561 2.322 . S
O571 C580 1.257 . S
O572 Tb561 2.349 . S
O572 C583 1.261 . S
O573 Tb560 2.303 . S
O573 C583 1.257 . S
O574 Tb561 2.415 . S
O574 C590 1.239 . S
O575 Tb561 2.399 . S
O575 C590 1.263 . S
O576 Tb561 2.325 . S
O576 C591 1.236 . S
O577 Tb560 2.322 . S
O577 C591 1.257 . S
O578 Tb560 2.349 . S
O578 C562 1.261 . S
O579 Tb561 2.303 . S
O579 C562 1.257 . S
C580 O570 1.236 . S
C580 O571 1.257 . S
O581 Tb560 2.415 1_554 S
O581 C569 1.239 . S
O582 Tb560 2.399 . S
O582 C569 1.263 1_556 S
C583 O572 1.261 . S
C583 O573 1.257 . S
C584 C587 1.358 . S
C584 C588 1.332 . S
C584 C590 1.504 . S
C585 C586 1.373 . S
C585 C589 1.308 . S
C586 C585 1.373 . S
C586 C587 1.429 . S
C586 H596 0.932 . S
C587 C584 1.358 . S
C587 C586 1.429 . S
C587 H597 0.930 . S
C588 C584 1.332 . S
C588 C589 1.394 . S
C588 H598 0.932 . S
C589 C585 1.308 . S
C589 C588 1.394 . S
C589 H599 0.929 . S
C590 Tb561 2.764 . S
C590 O574 1.239 . S
C590 O575 1.263 . S
C590 C584 1.504 . S
C591 O576 1.236 . S
C591 O577 1.257 . S
H592 C565 0.932 . S
H593 C566 0.930 . S
H594 C567 0.932 . S
H595 C568 0.929 . S
H596 C586 0.932 . S
H597 C587 0.930 . S
H598 C588 0.932 . S
H599 C589 0.929 . S
Tb600 C609 2.764 . S
Tb600 O610 2.325 . S
Tb600 O613 2.303 . S
Tb600 O617 2.322 1_455 S
Tb600 O618 2.349 . S
Tb600 O621 2.415 . S
Tb600 O622 2.399 . S
Tb601 O611 2.322 1_655 S
Tb601 O612 2.349 . S
Tb601 O614 2.415 . S
Tb601 O615 2.399 . S
Tb601 O616 2.325 . S
Tb601 O619 2.303 . S
Tb601 C630 2.764 . S
C602 O618 1.261 . S
C602 O619 1.257 1_455 S
C603 C606 1.358 . S
C603 C607 1.332 . S
C603 C609 1.504 . S
C604 C605 1.373 . S
C604 C608 1.308 . S
C605 C604 1.373 . S
C605 C606 1.429 . S
C605 H632 0.932 . S
C606 C603 1.358 . S
C606 C605 1.429 . S
C606 H633 0.930 . S
C607 C603 1.332 . S
C607 C608 1.394 . S
C607 H634 0.932 . S
C608 C604 1.308 . S
C608 C607 1.394 . S
C608 H635 0.929 . S
C609 Tb600 2.764 . S
C609 C603 1.504 . S
C609 O621 1.239 . S
C609 O622 1.263 . S
O610 Tb600 2.325 . S
O610 C620 1.236 . S
O611 Tb601 2.322 1_455 S
O611 C620 1.257 . S
O612 Tb601 2.349 . S
O612 C623 1.261 . S
O613 Tb600 2.303 . S
O613 C623 1.257 1_455 S
O614 Tb601 2.415 . S
O614 C630 1.239 . S
O615 Tb601 2.399 . S
O615 C630 1.263 . S
O616 Tb601 2.325 . S
O616 C631 1.236 . S
O617 Tb600 2.322 1_655 S
O617 C631 1.257 . S
O618 Tb600 2.349 . S
O618 C602 1.261 . S
O619 Tb601 2.303 . S
O619 C602 1.257 1_655 S
C620 O610 1.236 . S
C620 O611 1.257 . S
O621 Tb600 2.415 . S
O621 C609 1.239 . S
O622 Tb600 2.399 . S
O622 C609 1.263 . S
C623 O612 1.261 . S
C623 O613 1.257 1_655 S
C624 C627 1.358 . S
C624 C628 1.332 . S
C624 C630 1.504 1_554 S
C625 C626 1.373 . S
C625 C629 1.308 . S
C626 C625 1.373 . S
C626 C627 1.429 . S
C626 H636 0.932 . S
C627 C624 1.358 . S
C627 C626 1.429 . S
C627 H637 0.930 1_554 S
C628 C624 1.332 . S
C628 C629 1.394 . S
C628 H638 0.932 . S
C629 C625 1.308 . S
C629 C628 1.394 . S
C629 H639 0.929 . S
C630 Tb601 2.764 . S
C630 O614 1.239 . S
C630 O615 1.263 . S
C630 C624 1.504 1_556 S
C631 O616 1.236 . S
C631 O617 1.257 . S
H632 C605 0.932 . S
H633 C606 0.930 . S
H634 C607 0.932 . S
H635 C608 0.929 . S
H636 C626 0.932 . S
H637 C627 0.930 1_556 S
H638 C628 0.932 . S
H639 C629 0.929 . S
C640 C641 1.361 1_565 S
C640 C642 1.419 . S
C640 H644 0.930 . S
C641 C640 1.361 1_545 S
C641 C650 1.430 . S
C642 C640 1.419 . S
C642 C643 1.363 1_565 S
C642 H645 0.929 . S
C643 C642 1.363 1_545 S
C643 C649 1.428 . S
H644 C640 0.930 . S
H645 C642 0.929 . S
S646 N647 1.613 . S
S646 N648 1.610 . S
N647 S646 1.613 . S
N647 C650 1.350 . S
N648 S646 1.610 . S
N648 C649 1.351 . S
C649 C643 1.428 . S
C649 N648 1.351 . S
C649 C650 1.434 . S
C650 C641 1.430 . S
C650 N647 1.350 . S
C650 C649 1.434 . S
C651 C652 1.369 . S
C651 C653 1.419 . S
C651 H655 0.930 . S
C652 C651 1.369 . S
C652 C661 1.429 . S
C653 C651 1.419 . S
C653 C654 1.363 . S
C653 H656 0.929 . S
C654 C653 1.363 . S
C654 C660 1.428 . S
H655 C651 0.930 . S
H656 C653 0.929 . S
S657 N658 1.613 . S
S657 N659 1.610 . S
N658 S657 1.613 . S
N658 C661 1.350 . S
N659 S657 1.610 . S
N659 C660 1.351 . S
C660 C654 1.428 . S
C660 N659 1.351 . S
C660 C661 1.434 . S
C661 C652 1.429 . S
C661 N658 1.350 . S
C661 C660 1.434 . S
C662 C663 1.369 . S
C662 C664 1.419 . S
C662 H666 0.930 . S
C663 C662 1.369 . S
C663 C672 1.429 . S
C664 C662 1.419 . S
C664 C665 1.363 . S
C664 H667 0.929 . S
C665 C664 1.363 . S
C665 C671 1.428 . S
H666 C662 0.930 . S
H667 C664 0.929 . S
S668 N669 1.613 . S
S668 N670 1.610 . S
N669 S668 1.613 . S
N669 C672 1.350 . S
N670 S668 1.610 . S
N670 C671 1.351 . S
C671 C665 1.428 . S
C671 N670 1.351 . S
C671 C672 1.434 . S
C672 C663 1.429 . S
C672 N669 1.350 . S
C672 C671 1.434 . S
C673 C674 1.362 1_655 S
C673 C675 1.419 . S
C673 H677 0.930 . S
C674 C673 1.362 1_455 S
C674 C683 1.436 . S
C675 C673 1.419 . S
C675 C676 1.363 1_655 S
C675 H678 0.929 . S
C676 C675 1.363 1_455 S
C676 C682 1.428 . S
H677 C673 0.930 . S
H678 C675 0.929 . S
S679 N680 1.613 . S
S679 N681 1.610 . S
N680 S679 1.613 . S
N680 C683 1.350 . S
N681 S679 1.610 . S
N681 C682 1.351 . S
C682 C676 1.428 . S
C682 N681 1.351 . S
C682 C683 1.434 . S
C683 C674 1.436 . S
C683 N680 1.350 . S
C683 C682 1.434 . S
C684 C685 1.369 1_545 S
C684 C686 1.419 . S
C684 H688 0.930 . S
C685 C684 1.369 1_565 S
C685 C694 1.429 . S
C686 C684 1.419 . S
C686 C687 1.363 1_545 S
C686 H689 0.929 . S
C687 C686 1.363 1_565 S
C687 C693 1.428 . S
H688 C684 0.930 . S
H689 C686 0.929 . S
S690 N691 1.613 . S
S690 N692 1.610 . S
N691 S690 1.613 . S
N691 C694 1.350 . S
N692 S690 1.610 . S
N692 C693 1.351 . S
C693 C687 1.428 . S
C693 N692 1.351 . S
C693 C694 1.434 . S
C694 C685 1.429 . S
C694 N691 1.350 . S
C694 C693 1.434 . S
C695 C696 1.369 . S
C695 C697 1.419 . S
C695 H699 0.930 . S
C696 C695 1.369 . S
C696 C705 1.429 . S
C697 C695 1.419 . S
C697 C698 1.363 . S
C697 H700 0.929 . S
C698 C697 1.363 . S
C698 C704 1.428 . S
H699 C695 0.930 . S
H700 C697 0.929 . S
S701 N702 1.613 . S
S701 N703 1.610 . S
N702 S701 1.613 . S
N702 C705 1.350 . S
N703 S701 1.610 . S
N703 C704 1.351 . S
C704 C698 1.428 . S
C704 N703 1.351 . S
C704 C705 1.434 . S
C705 C696 1.429 . S
C705 N702 1.350 . S
C705 C704 1.434 . S
C706 C707 1.369 . S
C706 C708 1.419 . S
C706 H710 0.930 . S
C707 C706 1.369 . S
C707 C716 1.429 . S
C708 C706 1.419 . S
C708 C709 1.363 . S
C708 H711 0.929 . S
C709 C708 1.363 . S
C709 C715 1.428 . S
H710 C706 0.930 . S
H711 C708 0.929 . S
S712 N713 1.613 . S
S712 N714 1.610 . S
N713 S712 1.613 . S
N713 C716 1.350 . S
N714 S712 1.610 . S
N714 C715 1.351 . S
C715 C709 1.428 . S
C715 N714 1.351 . S
C715 C716 1.434 . S
C716 C707 1.429 . S
C716 N713 1.350 . S
C716 C715 1.434 . S
C717 C718 1.373 . S
C717 C719 1.419 . S
C717 H721 0.930 . S
C718 C717 1.373 . S
C718 C727 1.425 1_655 S
C719 C717 1.419 . S
C719 C720 1.363 . S
C719 H722 0.929 . S
C720 C719 1.363 . S
C720 C726 1.428 1_655 S
H721 C717 0.930 . S
H722 C719 0.929 . S
S723 N724 1.613 . S
S723 N725 1.610 . S
N724 S723 1.613 . S
N724 C727 1.350 . S
N725 S723 1.610 . S
N725 C726 1.351 . S
C726 C720 1.428 1_455 S
C726 N725 1.351 . S
C726 C727 1.434 . S
C727 C718 1.425 1_455 S
C727 N724 1.350 . S
C727 C726 1.434 . S
C728 C729 1.369 . S
C728 C730 1.419 . S
C728 H732 0.930 . S
C729 C728 1.369 . S
C729 C738 1.429 . S
C730 C728 1.419 . S
C730 C731 1.363 . S
C730 H733 0.929 . S
C731 C730 1.363 . S
C731 C737 1.428 . S
H732 C728 0.930 . S
H733 C730 0.929 . S
S734 N735 1.613 . S
S734 N736 1.610 1_455 S
N735 S734 1.613 . S
N735 C738 1.350 1_455 S
N736 S734 1.610 1_655 S
N736 C737 1.351 . S
C737 C731 1.428 . S
C737 N736 1.351 . S
C737 C738 1.434 . S
C738 C729 1.429 . S
C738 N735 1.350 1_655 S
C738 C737 1.434 . S
C739 C740 1.369 1_565 S
C739 C741 1.419 . S
C739 H743 0.930 . S
C740 C739 1.369 1_545 S
C740 C749 1.429 . S
C741 C739 1.419 . S
C741 C742 1.363 . S
C741 H744 0.929 . S
C742 C741 1.363 . S
C742 C748 1.428 . S
H743 C739 0.930 . S
H744 C741 0.929 . S
S745 N746 1.613 . S
S745 N747 1.610 1_545 S
N746 S745 1.613 . S
N746 C749 1.350 . S
N747 S745 1.610 1_565 S
N747 C748 1.351 . S
C748 C742 1.428 . S
C748 N747 1.351 . S
C748 C749 1.434 1_565 S
C749 C740 1.429 . S
C749 N746 1.350 . S
C749 C748 1.434 1_545 S
C750 C751 1.369 . S
C750 C752 1.419 . S
C750 H754 0.930 . S
C751 C750 1.369 . S
C751 C760 1.429 . S
C752 C750 1.419 . S
C752 C753 1.363 . S
C752 H755 0.929 . S
C753 C752 1.363 . S
C753 C759 1.428 . S
H754 C750 0.930 . S
H755 C752 0.929 . S
S756 N757 1.613 . S
S756 N758 1.610 . S
N757 S756 1.613 . S
N757 C760 1.350 . S
N758 S756 1.610 . S
N758 C759 1.351 . S
C759 C753 1.428 . S
C759 N758 1.351 . S
C759 C760 1.434 . S
C760 C751 1.429 . S
C760 N757 1.350 . S
C760 C759 1.434 . S
C761 C762 1.369 . S
C761 C763 1.419 . S
C761 H765 0.930 . S
C762 C761 1.369 . S
C762 C771 1.429 . S
C763 C761 1.419 . S
C763 C764 1.363 . S
C763 H766 0.929 . S
C764 C763 1.363 . S
C764 C770 1.428 . S
H765 C761 0.930 . S
H766 C763 0.929 . S
S767 N768 1.613 . S
S767 N769 1.610 . S
N768 S767 1.613 . S
N768 C771 1.350 . S
N769 S767 1.610 . S
N769 C770 1.351 . S
C770 C764 1.428 . S
C770 N769 1.351 . S
C770 C771 1.434 . S
C771 C762 1.429 . S
C771 N768 1.350 . S
C771 C770 1.434 . S
C772 C773 1.369 . S
C772 C774 1.419 . S
C772 H776 0.930 . S
C773 C772 1.369 . S
C773 C782 1.429 . S
C774 C772 1.419 . S
C774 C775 1.363 . S
C774 H777 0.929 . S
C775 C774 1.363 . S
C775 C781 1.428 . S
H776 C772 0.930 . S
H777 C774 0.929 . S
S778 N779 1.613 . S
S778 N780 1.610 1_655 S
N779 S778 1.613 . S
N779 C782 1.350 1_655 S
N780 S778 1.610 1_455 S
N780 C781 1.351 . S
C781 C775 1.428 . S
C781 N780 1.351 . S
C781 C782 1.434 . S
C782 C773 1.429 . S
C782 N779 1.350 1_455 S
C782 C781 1.434 . S
C783 C784 1.369 . S
C783 C785 1.419 1_565 S
C783 H787 0.930 . S
C784 C783 1.369 . S
C784 C793 1.429 1_565 S
C785 C783 1.419 1_545 S
C785 C786 1.363 . S
C785 H788 0.929 . S
C786 C785 1.363 . S
C786 C792 1.428 . S
H787 C783 0.930 . S
H788 C785 0.929 . S
S789 N790 1.613 . S
S789 N791 1.610 . S
N790 S789 1.613 . S
N790 C793 1.350 . S
N791 S789 1.610 . S
N791 C792 1.351 . S
C792 C786 1.428 . S
C792 N791 1.351 . S
C792 C793 1.434 . S
C793 C784 1.429 1_545 S
C793 N790 1.350 . S
C793 C792 1.434 . S
C794 C795 1.369 . S
C794 C796 1.419 . S
C794 H798 0.930 . S
C795 C794 1.369 . S
C795 C804 1.429 . S
C796 C794 1.419 . S
C796 C797 1.363 . S
C796 H799 0.929 . S
C797 C796 1.363 . S
C797 C803 1.428 . S
H798 C794 0.930 . S
H799 C796 0.929 . S
S800 N801 1.613 . S
S800 N802 1.610 . S
N801 S800 1.613 . S
N801 C804 1.350 . S
N802 S800 1.610 . S
N802 C803 1.351 . S
C803 C797 1.428 . S
C803 N802 1.351 . S
C803 C804 1.434 . S
C804 C795 1.429 . S
C804 N801 1.350 . S
C804 C803 1.434 . S
C805 C806 1.369 . S
C805 C807 1.419 . S
C805 H809 0.930 . S
C806 C805 1.369 . S
C806 C815 1.429 . S
C807 C805 1.419 . S
C807 C808 1.363 . S
C807 H810 0.929 . S
C808 C807 1.363 . S
C808 C814 1.428 . S
H809 C805 0.930 . S
H810 C807 0.929 . S
S811 N812 1.613 . S
S811 N813 1.610 . S
N812 S811 1.613 . S
N812 C815 1.350 . S
N813 S811 1.610 . S
N813 C814 1.351 . S
C814 C808 1.428 . S
C814 N813 1.351 . S
C814 C815 1.434 . S
C815 C806 1.429 . S
C815 N812 1.350 . S
C815 C814 1.434 . S
C816 C817 1.369 1_655 S
C816 C818 1.419 . S
C816 H820 0.930 . S
C817 C816 1.369 1_455 S
C817 C826 1.429 . S
C818 C816 1.419 . S
C818 C819 1.363 1_655 S
C818 H821 0.929 . S
C819 C818 1.363 1_455 S
C819 C825 1.428 . S
H820 C816 0.930 . S
H821 C818 0.929 . S
S822 N823 1.613 . S
S822 N824 1.610 . S
N823 S822 1.613 . S
N823 C826 1.350 . S
N824 S822 1.610 . S
N824 C825 1.351 . S
C825 C819 1.428 . S
C825 N824 1.351 . S
C825 C826 1.434 . S
C826 C817 1.429 . S
C826 N823 1.350 . S
C826 C825 1.434 . S
C827 C828 1.368 . S
C827 C829 1.418 . S
C827 H831 0.931 1_545 S
C828 C827 1.368 . S
C828 C837 1.429 . S
C829 C827 1.418 . S
C829 C830 1.375 . S
C829 H832 0.919 1_545 S
C830 C829 1.375 . S
C830 C836 1.428 . S
H831 C827 0.931 1_565 S
H832 C829 0.919 1_565 S
S833 N834 1.613 . S
S833 N835 1.610 . S
N834 S833 1.613 . S
N834 C837 1.350 . S
N835 S833 1.610 . S
N835 C836 1.351 . S
C836 C830 1.428 . S
C836 N835 1.351 . S
C836 C837 1.434 . S
C837 C828 1.429 . S
C837 N834 1.350 . S
C837 C836 1.434 . S
C838 C839 1.369 . S
C838 C840 1.419 . S
C838 H842 0.930 . S
C839 C838 1.369 . S
C839 C848 1.429 . S
C840 C838 1.419 . S
C840 C841 1.363 . S
C840 H843 0.929 . S
C841 C840 1.363 . S
C841 C847 1.428 . S
H842 C838 0.930 . S
H843 C840 0.929 . S
S844 N845 1.613 . S
S844 N846 1.610 . S
N845 S844 1.613 . S
N845 C848 1.350 . S
N846 S844 1.610 . S
N846 C847 1.351 . S
C847 C841 1.428 . S
C847 N846 1.351 . S
C847 C848 1.434 . S
C848 C839 1.429 . S
C848 N845 1.350 . S
C848 C847 1.434 . S
C849 C850 1.369 . S
C849 C851 1.419 . S
C849 H853 0.930 . S
C850 C849 1.369 . S
C850 C859 1.429 . S
C851 C849 1.419 . S
C851 C852 1.363 . S
C851 H854 0.929 . S
C852 C851 1.363 . S
C852 C858 1.428 . S
H853 C849 0.930 . S
H854 C851 0.929 . S
S855 N856 1.613 1_554 S
S855 N857 1.610 1_554 S
N856 S855 1.613 1_556 S
N856 C859 1.350 . S
N857 S855 1.610 1_556 S
N857 C858 1.351 . S
C858 C852 1.428 . S
C858 N857 1.351 . S
C858 C859 1.434 . S
C859 C850 1.429 . S
C859 N856 1.350 . S
C859 C858 1.434 . S
C860 C861 1.369 1_455 S
C860 C862 1.419 1_455 S
C860 H864 0.930 . S
C861 C860 1.369 1_655 S
C861 C870 1.429 . S
C862 C860 1.419 1_655 S
C862 C863 1.363 . S
C862 H865 0.929 1_655 S
C863 C862 1.363 . S
C863 C869 1.428 . S
H864 C860 0.930 . S
H865 C862 0.929 1_455 S
S866 N867 1.613 . S
S866 N868 1.610 . S
N867 S866 1.613 . S
N867 C870 1.350 . S
N868 S866 1.610 . S
N868 C869 1.351 . S
C869 C863 1.428 . S
C869 N868 1.351 . S
C869 C870 1.434 . S
C870 C861 1.429 . S
C870 N867 1.350 . S
C870 C869 1.434 . S
C871 C872 1.369 1_545 S
C871 C873 1.419 . S
C871 H875 0.930 . S
C872 C871 1.369 1_565 S
C872 C881 1.429 . S
C873 C871 1.419 . S
C873 C874 1.363 1_545 S
C873 H876 0.929 . S
C874 C873 1.363 1_565 S
C874 C880 1.428 . S
H875 C871 0.930 . S
H876 C873 0.929 . S
S877 N878 1.613 . S
S877 N879 1.610 . S
N878 S877 1.613 . S
N878 C881 1.350 . S
N879 S877 1.610 . S
N879 C880 1.351 . S
C880 C874 1.428 . S
C880 N879 1.351 . S
C880 C881 1.434 . S
C881 C872 1.429 . S
C881 N878 1.350 . S
C881 C880 1.434 . S
C882 C883 1.369 . S
C882 C884 1.419 . S
C882 H886 0.930 . S
C883 C882 1.369 . S
C883 C892 1.429 . S
C884 C882 1.419 . S
C884 C885 1.363 . S
C884 H887 0.929 . S
C885 C884 1.363 . S
C885 C891 1.428 . S
H886 C882 0.930 . S
H887 C884 0.929 . S
S888 N889 1.613 . S
S888 N890 1.610 . S
N889 S888 1.613 . S
N889 C892 1.350 . S
N890 S888 1.610 . S
N890 C891 1.351 . S
C891 C885 1.428 . S
C891 N890 1.351 . S
C891 C892 1.434 . S
C892 C883 1.429 . S
C892 N889 1.350 . S
C892 C891 1.434 . S
C893 C894 1.369 . S
C893 C895 1.419 . S
C893 H897 0.930 . S
C894 C893 1.369 . S
C894 C903 1.429 . S
C895 C893 1.419 . S
C895 C896 1.363 . S
C895 H898 0.929 . S
C896 C895 1.363 . S
C896 C902 1.428 . S
H897 C893 0.930 . S
H898 C895 0.929 . S
S899 N900 1.613 . S
S899 N901 1.610 . S
N900 S899 1.613 . S
N900 C903 1.350 . S
N901 S899 1.610 . S
N901 C902 1.351 . S
C902 C896 1.428 . S
C902 N901 1.351 . S
C902 C903 1.434 . S
C903 C894 1.429 . S
C903 N900 1.350 . S
C903 C902 1.434 . S
C641 C391 2.764 . S
C643 C503 2.909 1_545 S
C654 C543 1.747 . S
C652 C451 1.728 . S
C665 C562 2.967 . S
C663 C241 2.413 . S
C676 C623 2.197 1_455 S
C674 C331 1.738 1_455 S
C687 C482 2.908 1_564 S
C685 C121 2.387 . S
C696 C211 1.657 . S
C698 C522 1.751 . S
C707 C31 2.787 . S
C709 C583 2.967 1_554 S
C718 C91 1.752 . S
C720 C602 2.193 1_654 S
C731 C484 1.008 . S
C729 C301 1.011 . S
C742 C524 0.592 . S
C740 C380 0.495 . S
C753 C580 1.649 . S
C751 C440 1.582 . S
C762 C260 0.743 . S
C764 C604 0.766 . S
C773 C61 1.078 1_455 S
C775 C505 1.014 . S
C786 C545 0.613 . S
C784 C140 0.590 . S
C797 C591 1.645 . S
C795 C200 1.467 . S
C806 C20 0.776 . S
C808 C625 0.756 . S
C817 C320 2.697 1_455 S
C819 C500 2.922 . S
C828 C361 2.911 . S
C830 C540 3.586 . S
C841 C564 2.112 . S
C839 C421 1.874 . S
C852 C620 3.574 . S
C850 C271 3.303 . S
C861 C80 2.672 . S
C863 C511 2.931 . S
C874 C551 3.589 . S
C872 C151 3.318 . S
C885 C585 2.114 . S
C883 C181 1.907 . S
C894 C1 2.897 . S
C896 C631 3.579 . S
