# Generated by pormake.
# Topology rtl, (3,6)-cn, num edge types: 1
# Building blocks:
#     Node 0, Type 0, BuildingBlock: ESEHIV_clean_linker_0, # of connection points: 3
#     Node 1, Type 0, BuildingBlock: ESEHIV_clean_linker_0, # of connection points: 3
#     Node 2, Type 0, BuildingBlock: ESEHIV_clean_linker_0, # of connection points: 3
#     Node 3, Type 0, BuildingBlock: ESEHIV_clean_linker_0, # of connection points: 3
#     Node 4, Type 1, BuildingBlock: VOLQOD_clean_sbu_1, # of connection points: 6
#     Node 5, Type 1, BuildingBlock: VOLQOD_clean_sbu_1, # of connection points: 6
#     Edge 6, Type (0, 1), BuildingBlock: FUNLAD_clean_linker_1, # of connection points: 2
#     Edge 7, Type (0, 1), BuildingBlock: FUNLAD_clean_linker_1, # of connection points: 2
#     Edge 8, Type (0, 1), BuildingBlock: FUNLAD_clean_linker_1, # of connection points: 2
#     Edge 9, Type (0, 1), BuildingBlock: FUNLAD_clean_linker_1, # of connection points: 2
#     Edge 10, Type (0, 1), BuildingBlock: FUNLAD_clean_linker_1, # of connection points: 2
#     Edge 11, Type (0, 1), BuildingBlock: FUNLAD_clean_linker_1, # of connection points: 2
#     Edge 12, Type (0, 1), BuildingBlock: FUNLAD_clean_linker_1, # of connection points: 2
#     Edge 13, Type (0, 1), BuildingBlock: FUNLAD_clean_linker_1, # of connection points: 2
#     Edge 14, Type (0, 1), BuildingBlock: FUNLAD_clean_linker_1, # of connection points: 2
#     Edge 15, Type (0, 1), BuildingBlock: FUNLAD_clean_linker_1, # of connection points: 2
#     Edge 16, Type (0, 1), BuildingBlock: FUNLAD_clean_linker_1, # of connection points: 2
#     Edge 17, Type (0, 1), BuildingBlock: FUNLAD_clean_linker_1, # of connection points: 2
# Relax obj value: 0.079
# Max RMSD: 0.156
# Mean RMSD: 0.088
data_MOF--net-rtl--node1-VOLQOD_clean_sbu_1--node2-ESEHIV_clean_linker_0--edge1-FUNLAD_clean_linker_1
_symmetry_space_group_name_H-M    P1
_symmetry_Int_Tables_number       1
_symmetry_cell_setting            triclinic
loop_
_symmetry_equiv_pos_as_xyz
'x, y, z'
_cell_length_a     36.322677
_cell_length_b     31.519586
_cell_length_c     23.549801
_cell_angle_alpha  90.100265
_cell_angle_beta   90.334996
_cell_angle_gamma 90.35056
loop_
_atom_site_label
_atom_site_type_symbol
_atom_site_fract_x
_atom_site_fract_y
_atom_site_fract_z
_atom_type_partial_charge
H0 H 0.07392 0.76193 0.02326 0.0
H1 H 0.16546 0.70324 0.10865 0.0
H2 H 0.16745 0.71912 0.92774 0.0
C3 C 0.10083 0.74748 0.02162 0.0
C4 C 0.11847 0.74184 0.96902 0.0
C5 C 0.11786 0.7339 0.07233 0.0
C6 C 0.1519 0.71319 0.06977 0.0
C7 C 0.1699 0.70828 0.01774 0.0
C8 C 0.15314 0.72258 0.96779 0.0
H9 H 0.55536 0.75044 0.49898 0.0
H10 H 0.64476 0.81656 0.41878 0.0
H11 H 0.6377 0.81321 0.6012 0.0
C12 C 0.57993 0.77011 0.50213 0.0
C13 C 0.59427 0.78026 0.55573 0.0
C14 C 0.59857 0.78174 0.45266 0.0
C15 C 0.63094 0.80623 0.45699 0.0
C16 C 0.64519 0.81779 0.51061 0.0
C17 C 0.62657 0.80488 0.55983 0.0
H18 H 0.92761 0.21514 0.01835 0.0
H19 H 0.8525 0.30201 0.0966 0.0
H20 H 0.86835 0.30422 0.91555 0.0
C21 C 0.90906 0.24182 0.01551 0.0
C22 C 0.90049 0.25807 0.96173 0.0
C23 C 0.89174 0.25746 0.06444 0.0
C24 C 0.86583 0.28999 0.05887 0.0
C25 C 0.8571 0.30685 0.00519 0.0
C26 C 0.87504 0.29126 0.95692 0.0
H27 H 0.4301 0.28346 0.51003 0.0
H28 H 0.33441 0.22758 0.58635 0.0
H29 H 0.35239 0.21542 0.4062 0.0
C30 C 0.40566 0.26369 0.50685 0.0
C31 C 0.3939 0.25007 0.45315 0.0
C32 C 0.38421 0.25563 0.5551 0.0
C33 C 0.35141 0.23222 0.54928 0.0
C34 C 0.34017 0.21641 0.49583 0.0
C35 C 0.36134 0.22619 0.44783 0.0
O36 O 0.91349 0.97849 0.50033 0.0
Zn37 Zn 0.95476 0.02165 0.5023 0.0
O38 O 0.00249 0.99374 0.51382 0.0
Zn39 Zn 0.02462 0.0143 0.58439 0.0
Zn40 Zn 0.99584 0.9317 0.51737 0.0
Zn41 Zn 0.03546 0.00816 0.45146 0.0
O42 O 0.07425 0.04113 0.5718 0.0
O43 O 0.08198 0.03717 0.47851 0.0
O44 O 0.94388 0.0629 0.5656 0.0
O45 O 0.99288 0.05789 0.62197 0.0
O46 O 0.03182 0.96661 0.63905 0.0
O47 O 0.01494 0.90812 0.59244 0.0
O48 O 0.02126 0.90251 0.45134 0.0
O49 O 0.95397 0.05506 0.4291 0.0
O50 O 0.04912 0.95617 0.40752 0.0
O51 O 0.01079 0.0472 0.39626 0.0
C52 C 0.91261 0.93821 0.50486 0.0
C53 C 0.09331 0.04813 0.52768 0.0
C54 C 0.02754 0.92659 0.63679 0.0
C55 C 0.96176 0.07397 0.60985 0.0
C56 C 0.04133 0.91691 0.41142 0.0
C57 C 0.97866 0.06269 0.39222 0.0
O58 O 0.94184 0.91666 0.51155 0.0
O59 O 0.60334 0.49352 0.00322 0.0
Zn60 Zn 0.56159 0.53526 0.00276 0.0
O61 O 0.5136 0.50713 0.00682 0.0
Zn62 Zn 0.48521 0.51868 0.93787 0.0
Zn63 Zn 0.52109 0.44596 0.01406 0.0
Zn64 Zn 0.48658 0.52891 0.07225 0.0
O65 O 0.43457 0.53991 0.95667 0.0
O66 O 0.43832 0.55509 0.04876 0.0
O67 O 0.56507 0.57122 0.93295 0.0
O68 O 0.51077 0.5631 0.88992 0.0
O69 O 0.47829 0.46567 0.89123 0.0
O70 O 0.50079 0.41453 0.94603 0.0
O71 O 0.4971 0.42336 0.08481 0.0
O72 O 0.56939 0.57455 0.06889 0.0
O73 O 0.47398 0.48105 0.12552 0.0
O74 O 0.51638 0.5726 0.11553 0.0
C75 C 0.6042 0.45359 0.01107 0.0
C76 C 0.42071 0.55491 0.00186 0.0
C77 C 0.48515 0.4267 0.90045 0.0
C78 C 0.54266 0.58013 0.89312 0.0
C79 C 0.47966 0.44124 0.12498 0.0
C80 C 0.549 0.58688 0.10929 0.0
O81 O 0.57491 0.43188 0.01756 0.0
H82 H 0.29384 0.19005 0.44514 0.0
C83 C 0.30545 0.19185 0.48778 0.0
H84 H 0.29877 0.17104 0.57285 0.0
H85 H 0.12534 0.15488 0.53328 0.0
H86 H 0.12799 0.22228 0.58277 0.0
H87 H 0.18764 0.2567 0.60438 0.0
H88 H 0.24498 0.22406 0.57593 0.0
C89 C 0.28814 0.17102 0.52974 0.0
C90 C 0.25255 0.14888 0.51903 0.0
C91 C 0.21939 0.1677 0.5375 0.0
C92 C 0.18509 0.14725 0.52648 0.0
C93 C 0.15227 0.16803 0.54259 0.0
C94 C 0.15336 0.20699 0.57057 0.0
C95 C 0.18693 0.22641 0.58263 0.0
C96 C 0.21964 0.20727 0.56615 0.0
H97 H 0.13881 0.07645 0.57744 0.0
C98 C 0.12894 0.07021 0.53452 0.0
H99 H 0.1396 0.07767 0.44695 0.0
H100 H 0.31127 0.10382 0.47933 0.0
H101 H 0.30882 0.03624 0.42995 0.0
H102 H 0.24941 0.00025 0.41168 0.0
H103 H 0.1921 0.03158 0.44267 0.0
C104 C 0.14866 0.08421 0.49016 0.0
C105 C 0.18419 0.10718 0.4988 0.0
C106 C 0.21739 0.0886 0.4798 0.0
C107 C 0.25164 0.10941 0.4901 0.0
C108 C 0.28446 0.0897 0.47186 0.0
C109 C 0.28346 0.05081 0.44369 0.0
C110 C 0.25002 0.03054 0.43343 0.0
C111 C 0.2173 0.04895 0.45135 0.0
H112 H 0.2281 0.71064 0.99248 0.0
C113 C 0.20779 0.69194 0.01534 0.0
H114 H 0.19665 0.63554 0.05979 0.0
H115 H 0.36255 0.62992 0.92943 0.0
H116 H 0.32963 0.64284 0.84144 0.0
H117 H 0.26195 0.64937 0.84042 0.0
H118 H 0.22725 0.64542 0.92788 0.0
C119 C 0.21721 0.65435 0.03765 0.0
C120 C 0.25598 0.63891 0.03577 0.0
C121 C 0.27516 0.6365 0.98346 0.0
C122 C 0.31353 0.62788 0.9832 0.0
C123 C 0.33291 0.63224 0.93146 0.0
C124 C 0.3144 0.64023 0.88067 0.0
C125 C 0.27637 0.64424 0.88015 0.0
C126 C 0.25683 0.6424 0.9308 0.0
H127 H 0.36392 0.55613 0.96907 0.0
C128 C 0.38263 0.57043 -9e-05 0.0
H129 H 0.38992 0.61611 0.06425 0.0
H130 H 0.22788 0.64072 0.14373 0.0
H131 H 0.25932 0.62024 0.23016 0.0
H132 H 0.32361 0.59568 0.22805 0.0
H133 H 0.35708 0.59238 0.13972 0.0
C134 C 0.3709 0.60179 0.0339 0.0
C135 C 0.33164 0.61569 0.03423 0.0
C136 C 0.31195 0.61579 0.08617 0.0
C137 C 0.27438 0.62837 0.08711 0.0
C138 C 0.25607 0.63032 0.14005 0.0
C139 C 0.27383 0.61875 0.19019 0.0
C140 C 0.31004 0.60501 0.18902 0.0
C141 C 0.329 0.60345 0.13784 0.0
H142 H 0.68278 0.86359 0.5531 0.0
C143 C 0.67977 0.84273 0.51651 0.0
H144 H 0.70624 0.81688 0.4447 0.0
H145 H 0.82154 0.96263 0.406 0.0
H146 H 0.7819 0.97053 0.32361 0.0
H147 H 0.72367 0.93023 0.31553 0.0
H148 H 0.70488 0.88151 0.38957 0.0
C149 C 0.70826 0.83828 0.48079 0.0
C150 C 0.74282 0.86354 0.48743 0.0
C151 C 0.75313 0.89242 0.44415 0.0
C152 C 0.78638 0.91625 0.44929 0.0
C153 C 0.79635 0.94416 0.40477 0.0
C154 C 0.77387 0.94897 0.35713 0.0
C155 C 0.74111 0.92625 0.35254 0.0
C156 C 0.73071 0.89829 0.39537 0.0
H157 H 0.87753 0.88087 0.50186 0.0
C158 C 0.87706 0.91537 0.50243 0.0
H159 H 0.84356 0.96994 0.50132 0.0
H160 H 0.73402 0.80693 0.57495 0.0
H161 H 0.7718 0.80194 0.65971 0.0
H162 H 0.82591 0.84865 0.67314 0.0
H163 H 0.84304 0.89979 0.60112 0.0
C164 C 0.84452 0.93549 0.50191 0.0
C165 C 0.8091 0.91151 0.498 0.0
C166 C 0.79825 0.88352 0.54211 0.0
C167 C 0.76574 0.85848 0.53597 0.0
C168 C 0.75724 0.82837 0.57862 0.0
C169 C 0.7789 0.8249 0.62737 0.0
C170 C 0.80945 0.85104 0.63481 0.0
C171 C 0.81915 0.88006 0.59287 0.0
H172 H 0.83023 0.36098 0.962 0.0
C173 C 0.82828 0.33952 0.99799 0.0
H174 H 0.79487 0.31888 0.06607 0.0
H175 H 0.70045 0.48233 0.09706 0.0
H176 H 0.74093 0.48795 0.17914 0.0
H177 H 0.79463 0.44094 0.18936 0.0
H178 H 0.80806 0.38786 0.11774 0.0
C179 C 0.79815 0.34069 0.03081 0.0
C180 C 0.76815 0.3717 0.02104 0.0
C181 C 0.76111 0.40304 0.06276 0.0
C182 C 0.73043 0.43045 0.05658 0.0
C183 C 0.72354 0.46086 0.09949 0.0
C184 C 0.74656 0.46444 0.14681 0.0
C185 C 0.77677 0.43796 0.15258 0.0
C186 C 0.78411 0.40756 0.11121 0.0
H187 H 0.63899 0.39693 0.01804 0.0
C188 C 0.63961 0.43115 0.0122 0.0
H189 H 0.67372 0.4853 0.00204 0.0
H190 H 0.77254 0.3137 0.93387 0.0
H191 H 0.73417 0.31108 0.84956 0.0
H192 H 0.68382 0.36229 0.83573 0.0
H193 H 0.67119 0.41594 0.90695 0.0
C194 C 0.67217 0.45101 0.00614 0.0
C195 C 0.70692 0.42641 0.00867 0.0
C196 C 0.71514 0.39672 0.96534 0.0
C197 C 0.74526 0.36857 0.97211 0.0
C198 C 0.75112 0.33717 0.93002 0.0
C199 C 0.72908 0.33507 0.88147 0.0
C200 C 0.70066 0.36379 0.87377 0.0
C201 C 0.69358 0.39426 0.91512 0.0
H202 H 0.10869 0.72179 0.16384 0.0
C203 C 0.10207 0.74306 0.12898 0.0
H204 H 0.07886 0.80219 0.10687 0.0
H205 H 0.97945 0.83111 0.3193 0.0
H206 H 0.93304 0.81226 0.24912 0.0
H207 H 0.95071 0.78321 0.15591 0.0
H208 H 0.01501 0.77312 0.13214 0.0
C209 C 0.0849 0.77972 0.14052 0.0
C210 C 0.07452 0.79195 0.19941 0.0
C211 C 0.03684 0.79673 0.21321 0.0
C212 C 0.02664 0.81294 0.26729 0.0
C213 C 0.9888 0.81858 0.27915 0.0
C214 C 0.96184 0.80789 0.23922 0.0
C215 C 0.97179 0.79156 0.18672 0.0
C216 C 0.00879 0.78602 0.17359 0.0
H217 H 0.07239 0.90286 0.33401 0.0
C218 C 0.05465 0.88874 0.366 0.0
H219 H 0.02477 0.83387 0.38964 0.0
H220 H 0.14979 0.78877 0.18673 0.0
H221 H 0.19568 0.80286 0.25925 0.0
H222 H 0.17746 0.82473 0.35566 0.0
H223 H 0.113 0.83356 0.3795 0.0
C224 C 0.04387 0.84813 0.35978 0.0
C225 C 0.05419 0.82416 0.3076 0.0
C226 C 0.09175 0.81649 0.2953 0.0
C227 C 0.10207 0.8016 0.24063 0.0
C228 C 0.14005 0.79789 0.22822 0.0
C229 C 0.16682 0.80624 0.26942 0.0
C230 C 0.15658 0.81872 0.32362 0.0
C231 C 0.11953 0.82392 0.33661 0.0
H232 H 0.54713 0.75399 0.60326 0.0
C233 C 0.57645 0.76107 0.60592 0.0
H234 H 0.62566 0.74882 0.65154 0.0
H235 H 0.5336 0.69462 0.8717 0.0
H236 H 0.55004 0.76643 0.89987 0.0
H237 H 0.57975 0.81536 0.83223 0.0
H238 H 0.59306 0.7928 0.73583 0.0
C239 C 0.59603 0.74439 0.64882 0.0
C240 C 0.57842 0.71485 0.6897 0.0
C241 C 0.57135 0.72832 0.74591 0.0
C242 C 0.55475 0.6999 0.7851 0.0
C243 C 0.54702 0.71456 0.84062 0.0
C244 C 0.55609 0.75579 0.85722 0.0
C245 C 0.57278 0.78336 0.81911 0.0
C246 C 0.5803 0.77001 0.76398 0.0
H247 H 0.58251 0.62367 0.85361 0.0
C248 C 0.55442 0.61166 0.85079 0.0
H249 H 0.50399 0.61457 0.80559 0.0
H250 H 0.59004 0.67797 0.58557 0.0
H251 H 0.5729 0.60661 0.55725 0.0
H252 H 0.54291 0.55785 0.62479 0.0
H253 H 0.53009 0.58022 0.72123 0.0
C254 C 0.53194 0.62663 0.8102 0.0
C255 C 0.54588 0.65782 0.76811 0.0
C256 C 0.55221 0.64462 0.71152 0.0
C257 C 0.56895 0.67297 0.67239 0.0
C258 C 0.5765 0.65827 0.61676 0.0
C259 C 0.56702 0.61721 0.59998 0.0
C260 C 0.55019 0.58974 0.63802 0.0
C261 C 0.54296 0.60303 0.69325 0.0
H262 H 0.87488 0.23952 0.15136 0.0
C263 C 0.89717 0.23742 0.12085 0.0
H264 H 0.95053 0.21316 0.10613 0.0
H265 H 0.93625 0.18301 0.38364 0.0
H266 H 0.93802 0.25979 0.39191 0.0
H267 H 0.9361 0.30502 0.30655 0.0
H268 H 0.93226 0.2738 0.21244 0.0
C269 C 0.92749 0.21554 0.13504 0.0
C270 C 0.92856 0.189 0.18704 0.0
C271 C 0.93088 0.20789 0.24164 0.0
C272 C 0.93248 0.18181 0.29081 0.0
C273 C 0.93503 0.20135 0.34489 0.0
C274 C 0.93609 0.24537 0.35024 0.0
C275 C 0.93496 0.27084 0.30217 0.0
C276 C 0.93255 0.2525 0.2484 0.0
H277 H 0.99178 0.09315 0.31083 0.0
C278 C 0.97051 0.08968 0.34285 0.0
H279 H 0.91718 0.10843 0.3681 0.0
H280 H 0.92263 0.14277 0.0886 0.0
H281 H 0.91977 0.06615 0.08063 0.0
H282 H 0.92171 0.02103 0.16609 0.0
H283 H 0.92669 0.05235 0.26001 0.0
C284 C 0.93843 0.10998 0.33589 0.0
C285 C 0.93243 0.13704 0.2851 0.0
C286 C 0.92892 0.11821 0.2306 0.0
C287 C 0.92733 0.14422 0.18147 0.0
C288 C 0.92408 0.12457 0.12745 0.0
C289 C 0.9223 0.08058 0.12223 0.0
C290 C 0.92343 0.05519 0.17033 0.0
C291 C 0.92657 0.07358 0.22398 0.0
H292 H 0.37044 0.28586 0.63698 0.0
C293 C 0.3932 0.27597 0.61033 0.0
H294 H 0.45099 0.27444 0.60137 0.0
H295 H 0.48403 0.44418 0.73143 0.0
H296 H 0.50277 0.46127 0.63562 0.0
H297 H 0.49042 0.41165 0.55657 0.0
H298 H 0.45975 0.34448 0.57302 0.0
C299 C 0.4279 0.28465 0.62699 0.0
C300 C 0.43564 0.31377 0.67548 0.0
C301 C 0.4532 0.35328 0.66488 0.0
C302 C 0.45945 0.38237 0.71016 0.0
C303 C 0.47784 0.42119 0.69853 0.0
C304 C 0.48888 0.43141 0.64367 0.0
C305 C 0.48199 0.40345 0.59921 0.0
C306 C 0.46439 0.36486 0.60938 0.0
H307 H 0.48743 0.36311 0.86126 0.0
C308 C 0.47585 0.39468 0.85691 0.0
H309 H 0.44262 0.43513 0.8074 0.0
H310 H 0.40609 0.23847 0.71192 0.0
H311 H 0.3841 0.22284 0.80672 0.0
H312 H 0.3889 0.27627 0.88313 0.0
H313 H 0.41657 0.34512 0.86559 0.0
C314 C 0.45389 0.40348 0.81242 0.0
C315 C 0.44748 0.37231 0.76579 0.0
C316 C 0.42942 0.33301 0.77625 0.0
C317 C 0.4246 0.30316 0.73139 0.0
C318 C 0.40882 0.26306 0.74378 0.0
C319 C 0.39632 0.25356 0.79811 0.0
C320 C 0.39918 0.28356 0.84119 0.0
C321 C 0.41544 0.32288 0.83062 0.0
H322 H 0.55583 0.75523 0.39558 0.0
C323 C 0.58467 0.7647 0.39789 0.0
H324 H 0.63648 0.75892 0.35827 0.0
H325 H 0.58524 0.58395 0.25024 0.0
H326 H 0.63042 0.56121 0.31963 0.0
H327 H 0.6593 0.6126 0.38552 0.0
H328 H 0.64305 0.68697 0.38249 0.0
C329 C 0.60701 0.75333 0.35533 0.0
C330 C 0.59313 0.72406 0.31045 0.0
C331 C 0.60384 0.68087 0.31172 0.0
C332 C 0.58759 0.65136 0.27322 0.0
C333 C 0.59745 0.60802 0.27729 0.0
C334 C 0.62318 0.59443 0.31727 0.0
C335 C 0.6394 0.62334 0.3544 0.0
C336 C 0.62984 0.66602 0.35207 0.0
H337 H 0.59304 0.62726 0.14531 0.0
C338 C 0.56431 0.618 0.14984 0.0
H339 H 0.51533 0.62718 0.1963 0.0
H340 H 0.56904 0.80514 0.29386 0.0
H341 H 0.52393 0.82814 0.22404 0.0
H342 H 0.49548 0.7769 0.15741 0.0
H343 H 0.51199 0.7024 0.16009 0.0
C344 C 0.54442 0.63471 0.19207 0.0
C345 C 0.56129 0.66534 0.23272 0.0
C346 C 0.55103 0.70863 0.23089 0.0
C347 C 0.56715 0.7381 0.2696 0.0
C348 C 0.55704 0.78132 0.26614 0.0
C349 C 0.53136 0.79496 0.22608 0.0
C350 C 0.51537 0.76612 0.18852 0.0
C351 C 0.52505 0.72344 0.19058 0.0
H352 H 0.94329 0.2217 0.91707 0.0
C353 C 0.91689 0.23734 0.91149 0.0
H354 H 0.87116 0.24475 0.85608 0.0
H355 H 0.96576 0.19019 0.64036 0.0
H356 H 0.95756 0.26516 0.62109 0.0
H357 H 0.92867 0.31206 0.69176 0.0
H358 H 0.90787 0.28427 0.78229 0.0
C359 C 0.89815 0.23097 0.8628 0.0
C360 C 0.91278 0.2021 0.81844 0.0
C361 C 0.9241 0.21869 0.76544 0.0
C362 C 0.94044 0.19155 0.72449 0.0
C363 C 0.95259 0.2092 0.67258 0.0
C364 C 0.9482 0.25222 0.66107 0.0
C365 C 0.93196 0.27865 0.70089 0.0
C366 C 0.92012 0.26229 0.75264 0.0
H367 H 0.91813 0.1175 0.63855 0.0
C368 C 0.9455 0.10565 0.64827 0.0
H369 H 0.99004 0.10686 0.70646 0.0
H370 H 0.88844 0.15862 0.91216 0.0
H371 H 0.89625 0.08373 0.93113 0.0
H372 H 0.9266 0.03718 0.86154 0.0
H373 H 0.94901 0.06531 0.77233 0.0
C374 C 0.96314 0.11931 0.69519 0.0
C375 C 0.94501 0.14783 0.7366 0.0
C376 C 0.93281 0.13103 0.78903 0.0
C377 C 0.91611 0.15803 0.82965 0.0
C378 C 0.90261 0.13998 0.8806 0.0
C379 C 0.90659 0.09688 0.89185 0.0
C380 C 0.92362 0.07068 0.85265 0.0
C381 C 0.93646 0.0873 0.80166 0.0
H382 H 0.44459 0.26579 0.40601 0.0
C383 C 0.41471 0.26441 0.40297 0.0
H384 H 0.36786 0.28319 0.35609 0.0
H385 H 0.50377 0.41032 0.26849 0.0
H386 H 0.50732 0.43511 0.36591 0.0
H387 H 0.46826 0.4031 0.43994 0.0
H388 H 0.42652 0.34539 0.41739 0.0
C389 C 0.39774 0.28304 0.35885 0.0
C390 C 0.41876 0.30543 0.31372 0.0
C391 C 0.44105 0.34132 0.32722 0.0
C392 C 0.46136 0.36203 0.28382 0.0
C393 C 0.48599 0.39519 0.29919 0.0
C394 C 0.48856 0.4095 0.35506 0.0
C395 C 0.46674 0.39133 0.39677 0.0
C396 C 0.44314 0.35777 0.38326 0.0
H397 H 0.44615 0.43095 0.20137 0.0
C398 C 0.46482 0.41561 0.17191 0.0
H399 H 0.49184 0.35875 0.15016 0.0
H400 H 0.37957 0.23706 0.27383 0.0
H401 H 0.37366 0.21474 0.17557 0.0
H402 H 0.40512 0.25408 0.09929 0.0
H403 H 0.44301 0.31563 0.1208 0.0
C404 C 0.47366 0.37466 0.17973 0.0
C405 C 0.45676 0.34937 0.22632 0.0
C406 C 0.43445 0.31362 0.21283 0.0
C407 C 0.41569 0.29143 0.25666 0.0
C408 C 0.39399 0.25547 0.24213 0.0
C409 C 0.3904 0.24225 0.18589 0.0
C410 C 0.40815 0.26436 0.14296 0.0
C411 C 0.42989 0.29966 0.15597 0.0
H412 H 0.11249 0.74171 0.8756 0.0
C413 C 0.10238 0.75635 0.91434 0.0
H414 H 0.06908 0.8057 0.94673 0.0
H415 H 0.10607 0.86564 0.68233 0.0
H416 H 0.16931 0.8722 0.715 0.0
H417 H 0.18684 0.85068 0.81208 0.0
H418 H 0.14154 0.8216 0.8764 0.0
C419 C 0.07945 0.78947 0.9095 0.0
C420 C 0.0685 0.80589 0.85259 0.0
C421 C 0.09516 0.82482 0.81656 0.0
C422 C 0.08468 0.83957 0.76182 0.0
C423 C 0.11222 0.85582 0.72532 0.0
C424 C 0.14868 0.85947 0.74337 0.0
C425 C 0.15857 0.84718 0.79791 0.0
C426 C 0.13227 0.83015 0.83429 0.0
H427 H 0.04945 0.91987 0.72332 0.0
C428 C 0.0382 0.90212 0.68747 0.0
H429 H 0.02304 0.84118 0.65723 0.0
H430 H 0.01095 0.77038 0.91031 0.0
H431 H 0.94735 0.76595 0.87843 0.0
H432 H 0.92871 0.79463 0.78526 0.0
H433 H 0.97358 0.82763 0.72312 0.0
C434 C 0.03526 0.85974 0.69146 0.0
C435 C 0.04719 0.83799 0.74459 0.0
C436 C 0.02066 0.81871 0.78028 0.0
C437 C 0.03134 0.80259 0.83431 0.0
C438 C 0.00428 0.78344 0.86907 0.0
C439 C 0.96769 0.78066 0.85128 0.0
C440 C 0.95719 0.79679 0.7988 0.0
C441 C 0.98323 0.81568 0.76356 0.0
loop_
_geom_bond_atom_site_label_1
_geom_bond_atom_site_label_2
_geom_bond_distance
_geom_bond_site_symmetry_2
_ccdc_geom_bond_type
H0 C3 0.931 . S
H1 C6 0.928 . S
H2 C8 0.930 . S
C3 H0 0.931 . S
C3 C4 1.413 1_554 S
C3 C5 1.360 . S
C4 C3 1.413 1_556 S
C4 C8 1.429 . S
C5 C3 1.360 . S
C5 C6 1.372 . S
C6 H1 0.928 . S
C6 C5 1.372 . S
C6 C7 1.404 . S
C7 C6 1.404 . S
C7 C8 1.391 1_554 S
C8 H2 0.930 . S
C8 C4 1.429 . S
C8 C7 1.391 1_556 S
H9 C12 0.931 . S
H10 C15 0.928 . S
H11 C17 0.930 . S
C12 H9 0.931 . S
C12 C13 1.413 . S
C12 C14 1.360 . S
C13 C12 1.413 . S
C13 C17 1.429 . S
C14 C12 1.360 . S
C14 C15 1.372 . S
C15 H10 0.928 . S
C15 C14 1.372 . S
C15 C16 1.404 . S
C16 C15 1.404 . S
C16 C17 1.391 . S
C17 H11 0.930 . S
C17 C13 1.429 . S
C17 C16 1.391 . S
H18 C21 0.931 . S
H19 C24 0.928 . S
H20 C26 0.930 . S
C21 H18 0.931 . S
C21 C22 1.413 1_554 S
C21 C23 1.360 . S
C22 C21 1.413 1_556 S
C22 C26 1.429 . S
C23 C21 1.360 . S
C23 C24 1.372 . S
C24 H19 0.928 . S
C24 C23 1.372 . S
C24 C25 1.404 . S
C25 C24 1.404 . S
C25 C26 1.391 1_554 S
C26 H20 0.930 . S
C26 C22 1.429 . S
C26 C25 1.391 1_556 S
H27 C30 0.931 . S
H28 C33 0.928 . S
H29 C35 0.930 . S
C30 H27 0.931 . S
C30 C31 1.413 . S
C30 C32 1.360 . S
C31 C30 1.413 . S
C31 C35 1.429 . S
C32 C30 1.360 . S
C32 C33 1.372 . S
C33 H28 0.928 . S
C33 C32 1.372 . S
C33 C34 1.404 . S
C34 C33 1.404 . S
C34 C35 1.391 . S
C35 H29 0.930 . S
C35 C31 1.429 . S
C35 C34 1.391 . S
O36 Zn37 1.953 1_565 S
O36 C52 1.225 . S
Zn37 O36 1.953 1_545 S
Zn37 O38 1.949 1_655 S
Zn37 O44 1.919 . S
Zn37 O49 1.924 . S
O38 Zn37 1.949 1_455 S
O38 Zn39 1.923 . S
O38 Zn40 1.950 1_445 S
O38 Zn41 1.945 . S
Zn39 O38 1.923 . S
Zn39 O42 1.933 . S
Zn39 O45 1.941 . S
Zn39 O46 1.965 1_545 S
Zn40 O38 1.950 1_665 S
Zn40 O47 1.938 1_655 S
Zn40 O48 1.906 1_655 S
Zn40 O58 1.953 . S
Zn41 O38 1.945 . S
Zn41 O43 1.932 . S
Zn41 O50 1.977 1_545 S
Zn41 O51 1.910 1_455 S
O42 Zn39 1.933 . S
O42 C53 1.226 . S
O43 Zn41 1.932 . S
O43 C53 1.307 . S
O44 Zn37 1.919 . S
O44 C55 1.253 . S
O45 Zn39 1.941 . S
O45 C55 1.283 1_455 S
O46 Zn39 1.965 1_565 S
O46 C54 1.303 . S
O47 Zn40 1.938 1_455 S
O47 C54 1.247 . S
O48 Zn40 1.906 1_455 S
O48 C56 1.304 . S
O49 Zn37 1.924 . S
O49 C57 1.311 . S
O50 Zn41 1.977 1_565 S
O50 C56 1.272 . S
O51 Zn41 1.910 1_655 S
O51 C57 1.231 . S
C52 O36 1.225 . S
C52 O58 1.298 . S
C53 O42 1.226 . S
C53 O43 1.307 . S
C54 O46 1.303 . S
C54 O47 1.247 . S
C55 O44 1.253 . S
C55 O45 1.283 1_655 S
C56 O48 1.304 . S
C56 O50 1.272 . S
C57 O49 1.311 . S
C57 O51 1.231 . S
O58 Zn40 1.953 . S
O58 C52 1.298 . S
O59 Zn60 1.953 . S
O59 C75 1.225 1_556 S
Zn60 O59 1.953 . S
Zn60 O61 1.949 1_556 S
Zn60 O67 1.919 . S
Zn60 O72 1.924 1_556 S
O61 Zn60 1.949 1_554 S
O61 Zn62 1.923 1_554 S
O61 Zn63 1.950 . S
O61 Zn64 1.945 . S
Zn62 O61 1.923 1_556 S
Zn62 O65 1.933 . S
Zn62 O68 1.941 . S
Zn62 O69 1.965 . S
Zn63 O61 1.950 . S
Zn63 O70 1.938 1_554 S
Zn63 O71 1.906 . S
Zn63 O81 1.953 . S
Zn64 O61 1.945 . S
Zn64 O66 1.932 . S
Zn64 O73 1.977 . S
Zn64 O74 1.910 . S
O65 Zn62 1.933 . S
O65 C76 1.226 1_556 S
O66 Zn64 1.932 . S
O66 C76 1.307 . S
O67 Zn60 1.919 . S
O67 C78 1.253 . S
O68 Zn62 1.941 . S
O68 C78 1.283 . S
O69 Zn62 1.965 . S
O69 C77 1.303 . S
O70 Zn63 1.938 1_556 S
O70 C77 1.247 . S
O71 Zn63 1.906 . S
O71 C79 1.304 . S
O72 Zn60 1.924 1_554 S
O72 C80 1.311 . S
O73 Zn64 1.977 . S
O73 C79 1.272 . S
O74 Zn64 1.910 . S
O74 C80 1.231 . S
C75 O59 1.225 1_554 S
C75 O81 1.298 . S
C76 O65 1.226 1_554 S
C76 O66 1.307 . S
C77 O69 1.303 . S
C77 O70 1.247 . S
C78 O67 1.253 . S
C78 O68 1.283 . S
C79 O71 1.304 . S
C79 O73 1.272 . S
C80 O72 1.311 . S
C80 O74 1.231 . S
O81 Zn63 1.953 . S
O81 C75 1.298 . S
H82 C83 0.951 . S
C83 H82 0.951 . S
C83 C89 1.265 . S
H84 C89 0.950 . S
H85 C93 0.949 . S
H86 C94 0.950 . S
H87 C95 0.951 . S
H88 C96 0.951 . S
C89 C83 1.265 . S
C89 H84 0.950 . S
C89 C90 1.478 . S
C90 C89 1.478 . S
C90 C91 1.397 . S
C90 C107 1.394 . S
C91 C90 1.397 . S
C91 C92 1.438 . S
C91 C96 1.429 . S
C92 C91 1.438 . S
C92 C93 1.428 . S
C92 C105 1.394 . S
C93 H85 0.949 . S
C93 C92 1.428 . S
C93 C94 1.345 . S
C94 H86 0.950 . S
C94 C93 1.345 . S
C94 C95 1.424 . S
C95 H87 0.951 . S
C95 C94 1.424 . S
C95 C96 1.347 . S
C96 H88 0.951 . S
C96 C91 1.429 . S
C96 C95 1.347 . S
H97 C98 0.951 . S
C98 H97 0.951 . S
C98 C104 1.265 . S
H99 C104 0.950 . S
H100 C108 0.949 . S
H101 C109 0.950 . S
H102 C110 0.951 . S
H103 C111 0.951 . S
C104 C98 1.265 . S
C104 H99 0.950 . S
C104 C105 1.478 . S
C105 C92 1.394 . S
C105 C104 1.478 . S
C105 C106 1.397 . S
C106 C105 1.397 . S
C106 C107 1.438 . S
C106 C111 1.429 . S
C107 C90 1.394 . S
C107 C106 1.438 . S
C107 C108 1.428 . S
C108 H100 0.949 . S
C108 C107 1.428 . S
C108 C109 1.345 . S
C109 H101 0.950 . S
C109 C108 1.345 . S
C109 C110 1.424 . S
C110 H102 0.951 . S
C110 C109 1.424 . S
C110 C111 1.347 . S
C111 H103 0.951 . S
C111 C106 1.429 . S
C111 C110 1.347 . S
H112 C113 0.951 . S
C113 H112 0.951 . S
C113 C119 1.265 . S
H114 C119 0.950 . S
H115 C123 0.949 . S
H116 C124 0.950 . S
H117 C125 0.951 . S
H118 C126 0.951 . S
C119 C113 1.265 . S
C119 H114 0.950 . S
C119 C120 1.478 . S
C120 C119 1.478 . S
C120 C121 1.397 1_554 S
C120 C137 1.394 . S
C121 C120 1.397 1_556 S
C121 C122 1.438 . S
C121 C126 1.429 . S
C122 C121 1.438 . S
C122 C123 1.428 . S
C122 C135 1.394 1_556 S
C123 H115 0.949 . S
C123 C122 1.428 . S
C123 C124 1.345 . S
C124 H116 0.950 . S
C124 C123 1.345 . S
C124 C125 1.424 . S
C125 H117 0.951 . S
C125 C124 1.424 . S
C125 C126 1.347 . S
C126 H118 0.951 . S
C126 C121 1.429 . S
C126 C125 1.347 . S
H127 C128 0.951 . S
C128 H127 0.951 . S
C128 C134 1.265 . S
H129 C134 0.950 . S
H130 C138 0.949 . S
H131 C139 0.950 . S
H132 C140 0.951 . S
H133 C141 0.951 . S
C134 C128 1.265 . S
C134 H129 0.950 . S
C134 C135 1.478 . S
C135 C122 1.394 1_554 S
C135 C134 1.478 . S
C135 C136 1.397 . S
C136 C135 1.397 . S
C136 C137 1.438 . S
C136 C141 1.429 . S
C137 C120 1.394 . S
C137 C136 1.438 . S
C137 C138 1.428 . S
C138 H130 0.949 . S
C138 C137 1.428 . S
C138 C139 1.345 . S
C139 H131 0.950 . S
C139 C138 1.345 . S
C139 C140 1.424 . S
C140 H132 0.951 . S
C140 C139 1.424 . S
C140 C141 1.347 . S
C141 H133 0.951 . S
C141 C136 1.429 . S
C141 C140 1.347 . S
H142 C143 0.951 . S
C143 H142 0.951 . S
C143 C149 1.265 . S
H144 C149 0.950 . S
H145 C153 0.949 . S
H146 C154 0.950 . S
H147 C155 0.951 . S
H148 C156 0.951 . S
C149 C143 1.265 . S
C149 H144 0.950 . S
C149 C150 1.478 . S
C150 C149 1.478 . S
C150 C151 1.397 . S
C150 C167 1.394 . S
C151 C150 1.397 . S
C151 C152 1.438 . S
C151 C156 1.429 . S
C152 C151 1.438 . S
C152 C153 1.428 . S
C152 C165 1.394 . S
C153 H145 0.949 . S
C153 C152 1.428 . S
C153 C154 1.345 . S
C154 H146 0.950 . S
C154 C153 1.345 . S
C154 C155 1.424 . S
C155 H147 0.951 . S
C155 C154 1.424 . S
C155 C156 1.347 . S
C156 H148 0.951 . S
C156 C151 1.429 . S
C156 C155 1.347 . S
H157 C158 0.951 . S
C158 H157 0.951 . S
C158 C164 1.265 . S
H159 C164 0.950 . S
H160 C168 0.949 . S
H161 C169 0.950 . S
H162 C170 0.951 . S
H163 C171 0.951 . S
C164 C158 1.265 . S
C164 H159 0.950 . S
C164 C165 1.478 . S
C165 C152 1.394 . S
C165 C164 1.478 . S
C165 C166 1.397 . S
C166 C165 1.397 . S
C166 C167 1.438 . S
C166 C171 1.429 . S
C167 C150 1.394 . S
C167 C166 1.438 . S
C167 C168 1.428 . S
C168 H160 0.949 . S
C168 C167 1.428 . S
C168 C169 1.345 . S
C169 H161 0.950 . S
C169 C168 1.345 . S
C169 C170 1.424 . S
C170 H162 0.951 . S
C170 C169 1.424 . S
C170 C171 1.347 . S
C171 H163 0.951 . S
C171 C166 1.429 . S
C171 C170 1.347 . S
H172 C173 0.951 . S
C173 H172 0.951 . S
C173 C179 1.265 . S
H174 C179 0.950 . S
H175 C183 0.949 . S
H176 C184 0.950 . S
H177 C185 0.951 . S
H178 C186 0.951 . S
C179 C173 1.265 . S
C179 H174 0.950 . S
C179 C180 1.478 . S
C180 C179 1.478 . S
C180 C181 1.397 . S
C180 C197 1.394 1_554 S
C181 C180 1.397 . S
C181 C182 1.438 . S
C181 C186 1.429 . S
C182 C181 1.438 . S
C182 C183 1.428 . S
C182 C195 1.394 . S
C183 H175 0.949 . S
C183 C182 1.428 . S
C183 C184 1.345 . S
C184 H176 0.950 . S
C184 C183 1.345 . S
C184 C185 1.424 . S
C185 H177 0.951 . S
C185 C184 1.424 . S
C185 C186 1.347 . S
C186 H178 0.951 . S
C186 C181 1.429 . S
C186 C185 1.347 . S
H187 C188 0.951 . S
C188 H187 0.951 . S
C188 C194 1.265 . S
H189 C194 0.950 . S
H190 C198 0.949 . S
H191 C199 0.950 . S
H192 C200 0.951 . S
H193 C201 0.951 . S
C194 C188 1.265 . S
C194 H189 0.950 . S
C194 C195 1.478 . S
C195 C182 1.394 . S
C195 C194 1.478 . S
C195 C196 1.397 1_554 S
C196 C195 1.397 1_556 S
C196 C197 1.438 . S
C196 C201 1.429 . S
C197 C180 1.394 1_556 S
C197 C196 1.438 . S
C197 C198 1.428 . S
C198 H190 0.949 . S
C198 C197 1.428 . S
C198 C199 1.345 . S
C199 H191 0.950 . S
C199 C198 1.345 . S
C199 C200 1.424 . S
C200 H192 0.951 . S
C200 C199 1.424 . S
C200 C201 1.347 . S
C201 H193 0.951 . S
C201 C196 1.429 . S
C201 C200 1.347 . S
H202 C203 0.951 . S
C203 H202 0.951 . S
C203 C209 1.265 . S
H204 C209 0.950 . S
H205 C213 0.949 . S
H206 C214 0.950 . S
H207 C215 0.951 . S
H208 C216 0.951 . S
C209 C203 1.265 . S
C209 H204 0.950 . S
C209 C210 1.478 . S
C210 C209 1.478 . S
C210 C211 1.397 . S
C210 C227 1.394 . S
C211 C210 1.397 . S
C211 C212 1.438 . S
C211 C216 1.429 . S
C212 C211 1.438 . S
C212 C213 1.428 . S
C212 C225 1.394 . S
C213 H205 0.949 . S
C213 C212 1.428 . S
C213 C214 1.345 1_455 S
C214 H206 0.950 . S
C214 C213 1.345 1_655 S
C214 C215 1.424 . S
C215 H207 0.951 . S
C215 C214 1.424 . S
C215 C216 1.347 1_655 S
C216 H208 0.951 . S
C216 C211 1.429 . S
C216 C215 1.347 1_455 S
H217 C218 0.951 . S
C218 H217 0.951 . S
C218 C224 1.265 . S
H219 C224 0.950 . S
H220 C228 0.949 . S
H221 C229 0.950 . S
H222 C230 0.951 . S
H223 C231 0.951 . S
C224 C218 1.265 . S
C224 H219 0.950 . S
C224 C225 1.478 . S
C225 C212 1.394 . S
C225 C224 1.478 . S
C225 C226 1.397 . S
C226 C225 1.397 . S
C226 C227 1.438 . S
C226 C231 1.429 . S
C227 C210 1.394 . S
C227 C226 1.438 . S
C227 C228 1.428 . S
C228 H220 0.949 . S
C228 C227 1.428 . S
C228 C229 1.345 . S
C229 H221 0.950 . S
C229 C228 1.345 . S
C229 C230 1.424 . S
C230 H222 0.951 . S
C230 C229 1.424 . S
C230 C231 1.347 . S
C231 H223 0.951 . S
C231 C226 1.429 . S
C231 C230 1.347 . S
H232 C233 0.951 . S
C233 H232 0.951 . S
C233 C239 1.265 . S
H234 C239 0.950 . S
H235 C243 0.949 . S
H236 C244 0.950 . S
H237 C245 0.951 . S
H238 C246 0.951 . S
C239 C233 1.265 . S
C239 H234 0.950 . S
C239 C240 1.478 . S
C240 C239 1.478 . S
C240 C241 1.397 . S
C240 C257 1.394 . S
C241 C240 1.397 . S
C241 C242 1.438 . S
C241 C246 1.429 . S
C242 C241 1.438 . S
C242 C243 1.428 . S
C242 C255 1.394 . S
C243 H235 0.949 . S
C243 C242 1.428 . S
C243 C244 1.345 . S
C244 H236 0.950 . S
C244 C243 1.345 . S
C244 C245 1.424 . S
C245 H237 0.951 . S
C245 C244 1.424 . S
C245 C246 1.347 . S
C246 H238 0.951 . S
C246 C241 1.429 . S
C246 C245 1.347 . S
H247 C248 0.951 . S
C248 H247 0.951 . S
C248 C254 1.265 . S
H249 C254 0.950 . S
H250 C258 0.949 . S
H251 C259 0.950 . S
H252 C260 0.951 . S
H253 C261 0.951 . S
C254 C248 1.265 . S
C254 H249 0.950 . S
C254 C255 1.478 . S
C255 C242 1.394 . S
C255 C254 1.478 . S
C255 C256 1.397 . S
C256 C255 1.397 . S
C256 C257 1.438 . S
C256 C261 1.429 . S
C257 C240 1.394 . S
C257 C256 1.438 . S
C257 C258 1.428 . S
C258 H250 0.949 . S
C258 C257 1.428 . S
C258 C259 1.345 . S
C259 H251 0.950 . S
C259 C258 1.345 . S
C259 C260 1.424 . S
C260 H252 0.951 . S
C260 C259 1.424 . S
C260 C261 1.347 . S
C261 H253 0.951 . S
C261 C256 1.429 . S
C261 C260 1.347 . S
H262 C263 0.951 . S
C263 H262 0.951 . S
C263 C269 1.265 . S
H264 C269 0.950 . S
H265 C273 0.949 . S
H266 C274 0.950 . S
H267 C275 0.951 . S
H268 C276 0.951 . S
C269 C263 1.265 . S
C269 H264 0.950 . S
C269 C270 1.478 . S
C270 C269 1.478 . S
C270 C271 1.397 . S
C270 C287 1.394 . S
C271 C270 1.397 . S
C271 C272 1.438 . S
C271 C276 1.429 . S
C272 C271 1.438 . S
C272 C273 1.428 . S
C272 C285 1.394 . S
C273 H265 0.949 . S
C273 C272 1.428 . S
C273 C274 1.345 . S
C274 H266 0.950 . S
C274 C273 1.345 . S
C274 C275 1.424 . S
C275 H267 0.951 . S
C275 C274 1.424 . S
C275 C276 1.347 . S
C276 H268 0.951 . S
C276 C271 1.429 . S
C276 C275 1.347 . S
H277 C278 0.951 . S
C278 H277 0.951 . S
C278 C284 1.265 . S
H279 C284 0.950 . S
H280 C288 0.949 . S
H281 C289 0.950 . S
H282 C290 0.951 . S
H283 C291 0.951 . S
C284 C278 1.265 . S
C284 H279 0.950 . S
C284 C285 1.478 . S
C285 C272 1.394 . S
C285 C284 1.478 . S
C285 C286 1.397 . S
C286 C285 1.397 . S
C286 C287 1.438 . S
C286 C291 1.429 . S
C287 C270 1.394 . S
C287 C286 1.438 . S
C287 C288 1.428 . S
C288 H280 0.949 . S
C288 C287 1.428 . S
C288 C289 1.345 . S
C289 H281 0.950 . S
C289 C288 1.345 . S
C289 C290 1.424 . S
C290 H282 0.951 . S
C290 C289 1.424 . S
C290 C291 1.347 . S
C291 H283 0.951 . S
C291 C286 1.429 . S
C291 C290 1.347 . S
H292 C293 0.951 . S
C293 H292 0.951 . S
C293 C299 1.265 . S
H294 C299 0.950 . S
H295 C303 0.949 . S
H296 C304 0.950 . S
H297 C305 0.951 . S
H298 C306 0.951 . S
C299 C293 1.265 . S
C299 H294 0.950 . S
C299 C300 1.478 . S
C300 C299 1.478 . S
C300 C301 1.397 . S
C300 C317 1.394 . S
C301 C300 1.397 . S
C301 C302 1.438 . S
C301 C306 1.429 . S
C302 C301 1.438 . S
C302 C303 1.428 . S
C302 C315 1.394 . S
C303 H295 0.949 . S
C303 C302 1.428 . S
C303 C304 1.345 . S
C304 H296 0.950 . S
C304 C303 1.345 . S
C304 C305 1.424 . S
C305 H297 0.951 . S
C305 C304 1.424 . S
C305 C306 1.347 . S
C306 H298 0.951 . S
C306 C301 1.429 . S
C306 C305 1.347 . S
H307 C308 0.951 . S
C308 H307 0.951 . S
C308 C314 1.265 . S
H309 C314 0.950 . S
H310 C318 0.949 . S
H311 C319 0.950 . S
H312 C320 0.951 . S
H313 C321 0.951 . S
C314 C308 1.265 . S
C314 H309 0.950 . S
C314 C315 1.478 . S
C315 C302 1.394 . S
C315 C314 1.478 . S
C315 C316 1.397 . S
C316 C315 1.397 . S
C316 C317 1.438 . S
C316 C321 1.429 . S
C317 C300 1.394 . S
C317 C316 1.438 . S
C317 C318 1.428 . S
C318 H310 0.949 . S
C318 C317 1.428 . S
C318 C319 1.345 . S
C319 H311 0.950 . S
C319 C318 1.345 . S
C319 C320 1.424 . S
C320 H312 0.951 . S
C320 C319 1.424 . S
C320 C321 1.347 . S
C321 H313 0.951 . S
C321 C316 1.429 . S
C321 C320 1.347 . S
H322 C323 0.951 . S
C323 H322 0.951 . S
C323 C329 1.265 . S
H324 C329 0.950 . S
H325 C333 0.949 . S
H326 C334 0.950 . S
H327 C335 0.951 . S
H328 C336 0.951 . S
C329 C323 1.265 . S
C329 H324 0.950 . S
C329 C330 1.478 . S
C330 C329 1.478 . S
C330 C331 1.397 . S
C330 C347 1.394 . S
C331 C330 1.397 . S
C331 C332 1.438 . S
C331 C336 1.429 . S
C332 C331 1.438 . S
C332 C333 1.428 . S
C332 C345 1.394 . S
C333 H325 0.949 . S
C333 C332 1.428 . S
C333 C334 1.345 . S
C334 H326 0.950 . S
C334 C333 1.345 . S
C334 C335 1.424 . S
C335 H327 0.951 . S
C335 C334 1.424 . S
C335 C336 1.347 . S
C336 H328 0.951 . S
C336 C331 1.429 . S
C336 C335 1.347 . S
H337 C338 0.951 . S
C338 H337 0.951 . S
C338 C344 1.265 . S
H339 C344 0.950 . S
H340 C348 0.949 . S
H341 C349 0.950 . S
H342 C350 0.951 . S
H343 C351 0.951 . S
C344 C338 1.265 . S
C344 H339 0.950 . S
C344 C345 1.478 . S
C345 C332 1.394 . S
C345 C344 1.478 . S
C345 C346 1.397 . S
C346 C345 1.397 . S
C346 C347 1.438 . S
C346 C351 1.429 . S
C347 C330 1.394 . S
C347 C346 1.438 . S
C347 C348 1.428 . S
C348 H340 0.949 . S
C348 C347 1.428 . S
C348 C349 1.345 . S
C349 H341 0.950 . S
C349 C348 1.345 . S
C349 C350 1.424 . S
C350 H342 0.951 . S
C350 C349 1.424 . S
C350 C351 1.347 . S
C351 H343 0.951 . S
C351 C346 1.429 . S
C351 C350 1.347 . S
H352 C353 0.951 . S
C353 H352 0.951 . S
C353 C359 1.265 . S
H354 C359 0.950 . S
H355 C363 0.949 . S
H356 C364 0.950 . S
H357 C365 0.951 . S
H358 C366 0.951 . S
C359 C353 1.265 . S
C359 H354 0.950 . S
C359 C360 1.478 . S
C360 C359 1.478 . S
C360 C361 1.397 . S
C360 C377 1.394 . S
C361 C360 1.397 . S
C361 C362 1.438 . S
C361 C366 1.429 . S
C362 C361 1.438 . S
C362 C363 1.428 . S
C362 C375 1.394 . S
C363 H355 0.949 . S
C363 C362 1.428 . S
C363 C364 1.345 . S
C364 H356 0.950 . S
C364 C363 1.345 . S
C364 C365 1.424 . S
C365 H357 0.951 . S
C365 C364 1.424 . S
C365 C366 1.347 . S
C366 H358 0.951 . S
C366 C361 1.429 . S
C366 C365 1.347 . S
H367 C368 0.951 . S
C368 H367 0.951 . S
C368 C374 1.265 . S
H369 C374 0.950 1_455 S
H370 C378 0.949 . S
H371 C379 0.950 . S
H372 C380 0.951 . S
H373 C381 0.951 . S
C374 C368 1.265 . S
C374 H369 0.950 1_655 S
C374 C375 1.478 . S
C375 C362 1.394 . S
C375 C374 1.478 . S
C375 C376 1.397 . S
C376 C375 1.397 . S
C376 C377 1.438 . S
C376 C381 1.429 . S
C377 C360 1.394 . S
C377 C376 1.438 . S
C377 C378 1.428 . S
C378 H370 0.949 . S
C378 C377 1.428 . S
C378 C379 1.345 . S
C379 H371 0.950 . S
C379 C378 1.345 . S
C379 C380 1.424 . S
C380 H372 0.951 . S
C380 C379 1.424 . S
C380 C381 1.347 . S
C381 H373 0.951 . S
C381 C376 1.429 . S
C381 C380 1.347 . S
H382 C383 0.951 . S
C383 H382 0.951 . S
C383 C389 1.265 . S
H384 C389 0.950 . S
H385 C393 0.949 . S
H386 C394 0.950 . S
H387 C395 0.951 . S
H388 C396 0.951 . S
C389 C383 1.265 . S
C389 H384 0.950 . S
C389 C390 1.478 . S
C390 C389 1.478 . S
C390 C391 1.397 . S
C390 C407 1.394 . S
C391 C390 1.397 . S
C391 C392 1.438 . S
C391 C396 1.429 . S
C392 C391 1.438 . S
C392 C393 1.428 . S
C392 C405 1.394 . S
C393 H385 0.949 . S
C393 C392 1.428 . S
C393 C394 1.345 . S
C394 H386 0.950 . S
C394 C393 1.345 . S
C394 C395 1.424 . S
C395 H387 0.951 . S
C395 C394 1.424 . S
C395 C396 1.347 . S
C396 H388 0.951 . S
C396 C391 1.429 . S
C396 C395 1.347 . S
H397 C398 0.951 . S
C398 H397 0.951 . S
C398 C404 1.265 . S
H399 C404 0.950 . S
H400 C408 0.949 . S
H401 C409 0.950 . S
H402 C410 0.951 . S
H403 C411 0.951 . S
C404 C398 1.265 . S
C404 H399 0.950 . S
C404 C405 1.478 . S
C405 C392 1.394 . S
C405 C404 1.478 . S
C405 C406 1.397 . S
C406 C405 1.397 . S
C406 C407 1.438 . S
C406 C411 1.429 . S
C407 C390 1.394 . S
C407 C406 1.438 . S
C407 C408 1.428 . S
C408 H400 0.949 . S
C408 C407 1.428 . S
C408 C409 1.345 . S
C409 H401 0.950 . S
C409 C408 1.345 . S
C409 C410 1.424 . S
C410 H402 0.951 . S
C410 C409 1.424 . S
C410 C411 1.347 . S
C411 H403 0.951 . S
C411 C406 1.429 . S
C411 C410 1.347 . S
H412 C413 0.951 . S
C413 H412 0.951 . S
C413 C419 1.265 . S
H414 C419 0.950 . S
H415 C423 0.949 . S
H416 C424 0.950 . S
H417 C425 0.951 . S
H418 C426 0.951 . S
C419 C413 1.265 . S
C419 H414 0.950 . S
C419 C420 1.478 . S
C420 C419 1.478 . S
C420 C421 1.397 . S
C420 C437 1.394 . S
C421 C420 1.397 . S
C421 C422 1.438 . S
C421 C426 1.429 . S
C422 C421 1.438 . S
C422 C423 1.428 . S
C422 C435 1.394 . S
C423 H415 0.949 . S
C423 C422 1.428 . S
C423 C424 1.345 . S
C424 H416 0.950 . S
C424 C423 1.345 . S
C424 C425 1.424 . S
C425 H417 0.951 . S
C425 C424 1.424 . S
C425 C426 1.347 . S
C426 H418 0.951 . S
C426 C421 1.429 . S
C426 C425 1.347 . S
H427 C428 0.951 . S
C428 H427 0.951 . S
C428 C434 1.265 . S
H429 C434 0.950 . S
H430 C438 0.949 . S
H431 C439 0.950 . S
H432 C440 0.951 . S
H433 C441 0.951 . S
C434 C428 1.265 . S
C434 H429 0.950 . S
C434 C435 1.478 . S
C435 C422 1.394 . S
C435 C434 1.478 . S
C435 C436 1.397 . S
C436 C435 1.397 . S
C436 C437 1.438 . S
C436 C441 1.429 1_455 S
C437 C420 1.394 . S
C437 C436 1.438 . S
C437 C438 1.428 . S
C438 H430 0.949 . S
C438 C437 1.428 . S
C438 C439 1.345 1_455 S
C439 H431 0.950 . S
C439 C438 1.345 1_655 S
C439 C440 1.424 . S
C440 H432 0.951 . S
C440 C439 1.424 . S
C440 C441 1.347 . S
C441 H433 0.951 . S
C441 C436 1.429 1_655 S
C441 C440 1.347 . S
C98 C53 1.506 . S
C83 C34 1.480 . S
C113 C7 1.472 . S
C128 C76 1.506 . S
C143 C16 1.545 . S
C158 C52 1.543 . S
C173 C25 1.545 . S
C188 C75 1.543 . S
C218 C56 1.460 . S
C203 C5 1.527 . S
C248 C78 1.471 . S
C233 C13 1.542 . S
C263 C23 1.487 . S
C278 C57 1.440 . S
C293 C32 1.520 . S
C308 C77 1.533 . S
C338 C80 1.523 . S
C323 C14 1.531 . S
C368 C55 1.467 . S
C353 C22 1.541 . S
C398 C79 1.520 . S
C383 C31 1.525 . S
C413 C4 1.541 . S
C428 C54 1.504 . S
