# Generated by pormake.
# Topology nom, (4,4)-cn, num edge types: 1
# Building blocks:
#     Node 0, Type 0, BuildingBlock: KUFVIS_clean_linker_0, # of connection points: 4
#     Node 1, Type 0, BuildingBlock: KUFVIS_clean_linker_0, # of connection points: 4
#     Node 2, Type 0, BuildingBlock: KUFVIS_clean_linker_0, # of connection points: 4
#     Node 3, Type 0, BuildingBlock: KUFVIS_clean_linker_0, # of connection points: 4
#     Node 4, Type 0, BuildingBlock: KUFVIS_clean_linker_0, # of connection points: 4
#     Node 5, Type 0, BuildingBlock: KUFVIS_clean_linker_0, # of connection points: 4
#     Node 6, Type 1, BuildingBlock: AZAVOO_clean_sbu_0, # of connection points: 4
#     Node 7, Type 1, BuildingBlock: AZAVOO_clean_sbu_0, # of connection points: 4
#     Node 8, Type 1, BuildingBlock: AZAVOO_clean_sbu_0, # of connection points: 4
#     Node 9, Type 1, BuildingBlock: AZAVOO_clean_sbu_0, # of connection points: 4
#     Node 10, Type 1, BuildingBlock: AZAVOO_clean_sbu_0, # of connection points: 4
#     Node 11, Type 1, BuildingBlock: AZAVOO_clean_sbu_0, # of connection points: 4
#     Edge 12, Type (0, 1), BuildingBlock: OJICUG_clean_linker_0, # of connection points: 2
#     Edge 13, Type (0, 1), BuildingBlock: OJICUG_clean_linker_0, # of connection points: 2
#     Edge 14, Type (0, 1), BuildingBlock: OJICUG_clean_linker_0, # of connection points: 2
#     Edge 15, Type (0, 1), BuildingBlock: OJICUG_clean_linker_0, # of connection points: 2
#     Edge 16, Type (0, 1), BuildingBlock: OJICUG_clean_linker_0, # of connection points: 2
#     Edge 17, Type (0, 1), BuildingBlock: OJICUG_clean_linker_0, # of connection points: 2
#     Edge 18, Type (0, 1), BuildingBlock: OJICUG_clean_linker_0, # of connection points: 2
#     Edge 19, Type (0, 1), BuildingBlock: OJICUG_clean_linker_0, # of connection points: 2
#     Edge 20, Type (0, 1), BuildingBlock: OJICUG_clean_linker_0, # of connection points: 2
#     Edge 21, Type (0, 1), BuildingBlock: OJICUG_clean_linker_0, # of connection points: 2
#     Edge 22, Type (0, 1), BuildingBlock: OJICUG_clean_linker_0, # of connection points: 2
#     Edge 23, Type (0, 1), BuildingBlock: OJICUG_clean_linker_0, # of connection points: 2
#     Edge 24, Type (0, 1), BuildingBlock: OJICUG_clean_linker_0, # of connection points: 2
#     Edge 25, Type (0, 1), BuildingBlock: OJICUG_clean_linker_0, # of connection points: 2
#     Edge 26, Type (0, 1), BuildingBlock: OJICUG_clean_linker_0, # of connection points: 2
#     Edge 27, Type (0, 1), BuildingBlock: OJICUG_clean_linker_0, # of connection points: 2
#     Edge 28, Type (0, 1), BuildingBlock: OJICUG_clean_linker_0, # of connection points: 2
#     Edge 29, Type (0, 1), BuildingBlock: OJICUG_clean_linker_0, # of connection points: 2
#     Edge 30, Type (0, 1), BuildingBlock: OJICUG_clean_linker_0, # of connection points: 2
#     Edge 31, Type (0, 1), BuildingBlock: OJICUG_clean_linker_0, # of connection points: 2
#     Edge 32, Type (0, 1), BuildingBlock: OJICUG_clean_linker_0, # of connection points: 2
#     Edge 33, Type (0, 1), BuildingBlock: OJICUG_clean_linker_0, # of connection points: 2
#     Edge 34, Type (0, 1), BuildingBlock: OJICUG_clean_linker_0, # of connection points: 2
#     Edge 35, Type (0, 1), BuildingBlock: OJICUG_clean_linker_0, # of connection points: 2
# Relax obj value: 0.031
# Max RMSD: 0.162
# Mean RMSD: 0.095
data_MOF--net-nom--node1-AZAVOO_clean_sbu_0--node2-KUFVIS_clean_linker_0--edge1-OJICUG_clean_linker_0
_symmetry_space_group_name_H-M    P1
_symmetry_Int_Tables_number       1
_symmetry_cell_setting            triclinic
loop_
_symmetry_equiv_pos_as_xyz
'x, y, z'
_cell_length_a     33.000322
_cell_length_b     33.749992
_cell_length_c     35.170886
_cell_angle_alpha  92.835296
_cell_angle_beta   92.949007
_cell_angle_gamma 119.8342
loop_
_atom_site_label
_atom_site_type_symbol
_atom_site_fract_x
_atom_site_fract_y
_atom_site_fract_z
_atom_type_partial_charge
H0 H 0.18892 0.61883 0.33039 0.0
H1 H 0.07559 0.57778 0.24438 0.0
H2 H 0.04829 0.52837 0.35676 0.0
H3 H 0.98009 0.5277 0.3418 0.0
H4 H 0.87005 0.45261 0.25266 0.0
H5 H 1.01285 0.50928 0.2268 0.0
C6 C 0.15161 0.6002 0.32176 0.0
C7 C 0.12026 0.57528 0.34824 0.0
C8 C 0.13583 0.60084 0.28425 0.0
C9 C 0.08755 0.57548 0.27298 0.0
C10 C 0.05503 0.54864 0.29869 0.0
C11 C 0.07215 0.54866 0.3364 0.0
C12 C 1.00355 0.52126 0.28621 0.0
C13 C 0.9696 0.5134 0.31237 0.0
C14 C 0.92156 0.48757 0.30037 0.0
C15 C 0.90723 0.47139 0.26195 0.0
C16 C 0.93992 0.4805 0.23512 0.0
C17 C 0.9879 0.50388 0.24758 0.0
H18 H 0.59181 0.17422 0.49095 0.0
H19 H 0.52001 0.06536 0.40186 0.0
H20 H 0.54306 0.03587 0.51678 0.0
H21 H 0.47536 0.97116 0.49992 0.0
H22 H 0.43659 0.86268 0.41239 0.0
H23 H 0.52322 1.00169 0.387 0.0
C24 C 0.57448 0.13801 0.48149 0.0
C25 C 0.56815 0.10651 0.50823 0.0
C26 C 0.55825 0.12361 0.44298 0.0
C27 C 0.53409 0.07637 0.43136 0.0
C28 C 0.52823 0.04375 0.45761 0.0
C29 C 0.54635 0.05969 0.49601 0.0
C30 C 0.50298 0.99335 0.4452 0.0
C31 C 0.47756 0.96043 0.47097 0.0
C32 C 0.45477 0.91322 0.45958 0.0
C33 C 0.45528 0.89899 0.42168 0.0
C34 C 0.47887 0.93067 0.39531 0.0
C35 C 0.50381 0.97764 0.40739 0.0
H36 H 0.59111 0.41285 0.56297 0.0
H37 H 0.53431 0.46266 0.64724 0.0
H38 H 0.54774 0.50893 0.5338 0.0
H39 H 0.48124 0.51214 0.55038 0.0
H40 H 0.47454 0.60168 0.6376 0.0
H41 H 0.55457 0.53667 0.66239 0.0
C42 C 0.5754 0.43334 0.57079 0.0
C43 C 0.56894 0.45909 0.5436 0.0
C44 C 0.56343 0.4348 0.60822 0.0
C45 C 0.54492 0.46284 0.6186 0.0
C46 C 0.5394 0.49031 0.59216 0.0
C47 C 0.55155 0.48808 0.55455 0.0
C48 C 0.52184 0.52173 0.6042 0.0
C49 C 0.49255 0.52977 0.57878 0.0
C50 C 0.47644 0.55956 0.5905 0.0
C51 C 0.48904 0.58071 0.62779 0.0
C52 C 0.516 0.57144 0.65382 0.0
C53 C 0.53303 0.54275 0.64192 0.0
H54 H 0.18766 0.58873 0.75088 0.0
H55 H 0.08973 0.51575 0.83213 0.0
H56 H 0.04149 0.53992 0.72354 0.0
H57 H 0.97891 0.46482 0.73601 0.0
H58 H 0.88301 0.44757 0.82019 0.0
H59 H 0.03067 0.53405 0.84953 0.0
C60 C 0.15202 0.57187 0.75923 0.0
C61 C 0.11561 0.56637 0.73348 0.0
C62 C 0.14291 0.55366 0.79465 0.0
C63 C 0.09669 0.53049 0.80489 0.0
C64 C 0.05959 0.52597 0.77967 0.0
C65 C 0.06943 0.54356 0.7436 0.0
C66 C 1.01079 0.50341 0.79096 0.0
C67 C 0.97273 0.47343 0.7644 0.0
C68 C 0.92656 0.45382 0.77472 0.0
C69 C 0.91855 0.46397 0.81166 0.0
C70 C 0.95592 0.49211 0.83872 0.0
C71 C 1.00197 0.51192 0.82843 0.0
H72 H 0.46572 0.87658 -0.00345 0.0
H73 H 0.53787 0.96946 0.91243 0.0
H74 H 0.51549 0.01981 0.02014 0.0
H75 H 0.59168 0.08037 0.00767 0.0
H76 H 0.61368 0.17135 0.92 0.0
H77 H 0.5226 0.02696 0.89374 0.0
C78 C 0.48272 0.91085 -0.01299 0.0
C79 C 0.48835 0.94727 0.01174 0.0
C80 C 0.5002 0.91829 0.95102 0.0
C81 C 0.52391 0.96333 0.9401 0.0
C82 C 0.52957 1.00043 -0.03528 0.0
C83 C 0.51177 0.99197 0.00078 0.0
C84 C 0.55319 0.04775 0.95254 0.0
C85 C 0.58376 0.08556 -0.02133 0.0
C86 C 0.60485 0.1302 -0.03289 0.0
C87 C 0.59607 0.13698 0.92939 0.0
C88 C 0.56726 0.09983 0.90297 0.0
C89 C 0.54543 0.05536 0.91448 0.0
H90 H 0.46216 0.61828 0.07319 0.0
H91 H 0.52139 0.57466 0.16159 0.0
H92 H 0.51227 0.52632 0.04351 0.0
H93 H 0.58022 0.52896 0.06675 0.0
H94 H 0.59404 0.44401 0.14731 0.0
H95 H 0.50579 0.50042 0.16881 0.0
C96 C 0.47793 0.59814 0.08163 0.0
C97 C 0.48707 0.57332 0.05365 0.0
C98 C 0.48972 0.59822 0.12042 0.0
C99 C 0.51091 0.57301 0.13159 0.0
C100 C 0.51877 0.54615 0.10408 0.0
C101 C 0.50644 0.54651 0.0651 0.0
C102 C 0.53977 0.51785 0.11591 0.0
C103 C 0.57065 0.512 0.09285 0.0
C104 C 0.58966 0.48455 0.10352 0.0
C105 C 0.57803 0.46354 0.13773 0.0
C106 C 0.54824 0.46946 0.16119 0.0
C107 C 0.52911 0.49649 0.1504 0.0
Mg108 Mg 0.63512 0.37339 0.32777 0.0
O109 O 0.62158 0.40471 0.38147 0.0
O110 O 0.64885 0.47928 0.37584 0.0
Mg111 Mg 0.67779 0.49536 0.3174 0.0
C112 C 0.62874 0.44391 0.39448 0.0
C113 C 0.58572 0.27055 0.35003 0.0
O114 O 0.55355 0.26543 0.32352 0.0
O115 O 0.71381 0.40923 0.34584 0.0
O116 O 0.73782 0.48193 0.33476 0.0
O117 O 0.56563 0.35722 0.29895 0.0
O118 O 0.63175 0.42261 0.29691 0.0
C119 C 0.74648 0.45073 0.34454 0.0
C120 C 0.58728 0.39834 0.28807 0.0
O121 O 0.62192 0.30994 0.35797 0.0
Mg122 Mg 0.28897 0.6595 0.56835 0.0
O123 O 0.23948 0.62849 0.51354 0.0
O124 O 0.19337 0.55324 0.51741 0.0
Mg125 Mg 0.21193 0.53659 0.57585 0.0
C126 C 0.2066 0.58909 0.49949 0.0
C127 C 0.33963 0.76309 0.54808 0.0
O128 O 0.31326 0.7664 0.57334 0.0
O129 O 0.33195 0.62678 0.55043 0.0
O130 O 0.28541 0.55308 0.55981 0.0
O131 O 0.23703 0.67289 0.5962 0.0
O132 O 0.23894 0.6085 0.59806 0.0
C133 C 0.32444 0.58586 0.55102 0.0
C134 C 0.21891 0.6317 0.60685 0.0
O135 O 0.3367 0.7245 0.54005 0.0
Mg136 Mg 0.63894 0.25941 0.73126 0.0
O137 O 0.62483 0.21269 0.67747 0.0
O138 O 0.65911 0.17065 0.68511 0.0
Mg139 Mg 0.69371 0.18974 0.74658 0.0
C140 C 0.63444 0.18255 0.66481 0.0
C141 C 0.61529 0.33595 0.71076 0.0
O142 O 0.63222 0.3519 0.74629 0.0
O143 O 0.71484 0.3056 0.71908 0.0
O144 O 0.74744 0.26324 0.7332 0.0
O145 O 0.57467 0.20597 0.75443 0.0
O146 O 0.64481 0.21296 0.7642 0.0
C147 C 0.7507 0.30068 0.72344 0.0
C148 C 0.60077 0.19108 0.7693 0.0
O149 O 0.61435 0.29991 0.69714 0.0
Mg150 Mg 0.43187 0.65493 0.83293 0.0
O151 O 0.44797 0.62662 0.88599 0.0
O152 O 0.41846 0.55134 0.87284 0.0
Mg153 Mg 0.38812 0.53276 0.81025 0.0
C154 C 0.43975 0.58753 0.89586 0.0
C155 C 0.47938 0.75922 0.86219 0.0
O156 O 0.50877 0.7628 0.83695 0.0
O157 O 0.3549 0.61993 0.84379 0.0
O158 O 0.32819 0.5464 0.82454 0.0
O159 O 0.49958 0.67097 0.80956 0.0
O160 O 0.43367 0.6047 0.79807 0.0
C161 C 0.32132 0.57866 0.83701 0.0
C162 C 0.47742 0.62969 0.79298 0.0
O163 O 0.44572 0.71981 0.86765 0.0
Mg164 Mg 0.78849 0.41504 0.0073 0.0
O165 O 0.83469 0.43148 0.06356 0.0
O166 O 0.88182 0.40232 0.05587 0.0
Mg167 Mg 0.86837 0.3705 -0.00569 0.0
C168 C 0.86686 0.42376 0.07643 0.0
C169 C 0.73197 0.46456 0.02966 0.0
O170 O 0.76012 0.49479 0.00744 0.0
O171 O 0.74638 0.33997 0.01886 0.0
O172 O 0.79445 0.31327 0.00594 0.0
O173 O 0.84048 0.48035 -0.0156 0.0
O174 O 0.84087 0.41522 -0.02282 0.0
C175 C 0.75474 0.30697 0.01501 0.0
C176 C 0.85979 0.45785 -0.02889 0.0
O177 O 0.73653 0.43012 0.03602 0.0
Mg178 Mg 0.38733 0.77659 0.17177 0.0
O179 O 0.42268 0.82187 0.22713 0.0
O180 O 0.49948 0.86631 0.22277 0.0
Mg181 Mg 0.51304 0.84985 0.16238 0.0
C182 C 0.46336 0.85278 0.2414 0.0
C183 C 0.28444 0.69976 0.18727 0.0
O184 O 0.28152 0.68649 0.151 0.0
O185 O 0.41831 0.73078 0.18436 0.0
O186 O 0.49346 0.77618 0.17399 0.0
O187 O 0.37568 0.8308 0.14846 0.0
O188 O 0.43926 0.82554 0.14215 0.0
C189 C 0.45972 0.7375 0.1816 0.0
C190 C 0.41707 0.8474 0.13651 0.0
O191 O 0.32247 0.7336 0.20272 0.0
C192 C 0.16863 0.60951 0.22012 0.0
C193 C 0.17069 0.62804 0.25734 0.0
H194 H 0.2032 0.61757 0.16865 0.0
C195 C 0.20873 0.67157 0.27006 0.0
H196 H 0.13989 0.57594 0.20961 0.0
C197 C 0.2451 0.69496 0.247 0.0
C198 C 0.24416 0.6757 0.21042 0.0
H199 H 0.21088 0.68722 0.29829 0.0
H200 H 0.27429 0.72799 0.25814 0.0
C201 C 0.20504 0.63319 0.19682 0.0
C202 C 0.53006 0.15358 0.3895 0.0
C203 C 0.56627 0.15878 0.4158 0.0
H204 H 0.50768 0.1849 0.34811 0.0
C205 C 0.60972 0.1998 0.41825 0.0
H206 H 0.49612 0.12255 0.38709 0.0
C207 C 0.61616 0.23561 0.39644 0.0
C208 C 0.57946 0.23124 0.37126 0.0
H209 H 0.63865 0.20459 0.43769 0.0
H210 H 0.64982 0.26701 0.39974 0.0
C211 C 0.53662 0.18946 0.3674 0.0
C212 C 0.44855 0.60841 0.5612 0.0
C213 C 0.44094 0.56443 0.56695 0.0
H214 H 0.41755 0.64974 0.5505 0.0
C215 C 0.39563 0.52655 0.55901 0.0
H216 H 0.48326 0.63814 0.56728 0.0
C217 C 0.35768 0.53311 0.54994 0.0
C218 C 0.36456 0.57768 0.54851 0.0
H219 H 0.38886 0.49234 0.56355 0.0
H220 H 0.32265 0.50353 0.54713 0.0
C221 C 0.41076 0.61498 0.55175 0.0
C222 C 0.88215 0.3757 0.7407 0.0
C223 C 0.88611 0.41856 0.7494 0.0
H224 H 0.83566 0.30417 0.72501 0.0
C225 C 0.84701 0.42383 0.74154 0.0
H226 H 0.91182 0.37083 0.74681 0.0
C227 C 0.80346 0.38587 0.72882 0.0
C228 C 0.79811 0.3418 0.72451 0.0
H229 H 0.84936 0.45665 0.74815 0.0
H230 H 0.77333 0.39058 0.72582 0.0
C231 C 0.83842 0.33753 0.72847 0.0
C232 C 0.45209 0.83635 0.92404 0.0
C233 C 0.49411 0.87868 0.92575 0.0
H234 H 0.41475 0.76563 0.9031 0.0
C235 C 0.53076 0.88186 0.90497 0.0
H236 H 0.42274 0.83287 0.93897 0.0
C237 C 0.52588 0.84321 0.88386 0.0
C238 C 0.48443 0.80061 0.8834 0.0
H239 H 0.56372 0.91381 0.90594 0.0
H240 H 0.55495 0.8465 0.86862 0.0
C241 C 0.44744 0.79775 0.90338 0.0
C242 C 0.62161 0.43624 0.07724 0.0
C243 C 0.62343 0.47883 0.08061 0.0
H244 H 0.65457 0.39859 0.05918 0.0
C245 C 0.66002 0.5163 0.06496 0.0
H246 H 0.59338 0.40637 0.0882 0.0
C247 C 0.69495 0.5116 0.04773 0.0
C248 C 0.69419 0.4695 0.04619 0.0
H249 H 0.66271 0.54966 0.06732 0.0
H250 H 0.72327 0.54128 0.03664 0.0
C251 C 0.65673 0.43174 0.0606 0.0
C252 C 0.43347 0.83821 0.48551 0.0
C253 C 0.42931 0.87774 0.48628 0.0
H254 H 0.40845 0.77122 0.50406 0.0
C255 C 0.39775 0.88076 0.50995 0.0
H256 H 0.45813 0.83518 0.46813 0.0
C257 C 0.36933 0.84399 0.53092 0.0
C258 C 0.37188 0.80353 0.52844 0.0
H259 H 0.39358 0.91066 0.511 0.0
H260 H 0.34435 0.84671 0.54807 0.0
C261 C 0.40498 0.80151 0.50612 0.0
C262 C 0.59341 0.4277 0.67322 0.0
C263 C 0.57201 0.40787 0.63636 0.0
H264 H 0.62408 0.42054 0.72578 0.0
C265 C 0.56214 0.36315 0.62537 0.0
H266 H 0.60174 0.46224 0.68238 0.0
C267 C 0.57538 0.33959 0.6499 0.0
C268 C 0.59851 0.36005 0.68615 0.0
H269 H 0.5449 0.34662 0.59742 0.0
H270 H 0.56808 0.30554 0.64013 0.0
C271 C 0.60648 0.40395 0.69794 0.0
C272 C 0.18955 0.5189 0.81747 0.0
C273 C 0.18256 0.55664 0.81845 0.0
H274 H 0.23939 0.49608 0.82313 0.0
C275 C 0.21937 0.59988 0.83299 0.0
H276 H 0.16168 0.48537 0.80583 0.0
C277 C 0.26387 0.60621 0.84288 0.0
C278 C 0.27245 0.56948 0.83769 0.0
H279 H 0.21472 0.6295 0.83354 0.0
H280 H 0.29227 0.64068 0.85139 0.0
C281 C 0.2342 0.52524 0.82704 0.0
C282 C 0.6854 0.17778 -0.00113 0.0
C283 C 0.63984 0.17047 -0.00782 0.0
H284 H 0.75811 0.22723 0.01195 0.0
C285 C 0.63142 0.20663 0.0007 0.0
H286 H 0.69265 0.15039 -0.00798 0.0
C287 C 0.66868 0.25059 0.01219 0.0
C288 C 0.71514 0.25925 0.01458 0.0
H289 H 0.59649 0.20168 -0.00463 0.0
H290 H 0.6613 0.27837 0.01583 0.0
C291 C 0.72285 0.2219 0.00994 0.0
C292 C 0.52017 0.6696 0.16349 0.0
C293 C 0.48202 0.62764 0.14809 0.0
H294 H 0.54296 0.73777 0.18725 0.0
C295 C 0.43628 0.61902 0.15192 0.0
H296 H 0.55574 0.677 0.16052 0.0
C297 C 0.42878 0.65351 0.1675 0.0
C298 C 0.46701 0.69753 0.17865 0.0
H299 H 0.40639 0.58686 0.13998 0.0
H300 H 0.39311 0.64695 0.16715 0.0
C301 C 0.51275 0.70437 0.17861 0.0
C302 C 0.87667 0.5163 0.33555 0.0
C303 C 0.88474 0.48016 0.32595 0.0
H304 H 0.82606 0.53534 0.34985 0.0
C305 C 0.85024 0.43515 0.3314 0.0
H306 H 0.90265 0.55122 0.33117 0.0
C307 C 0.80634 0.42586 0.34211 0.0
C308 C 0.79603 0.46145 0.34684 0.0
H309 H 0.85573 0.40675 0.32385 0.0
H310 H 0.77924 0.3904 0.34283 0.0
C311 C 0.8326 0.50703 0.34591 0.0
C312 C 0.12595 0.53888 0.40761 0.0
C313 C 0.13898 0.57832 0.38824 0.0
H314 H 0.1374 0.51115 0.45787 0.0
C315 C 0.17281 0.62122 0.40637 0.0
H316 H 0.10018 0.50536 0.39423 0.0
C317 C 0.19441 0.6246 0.44243 0.0
C318 C 0.18259 0.58514 0.46148 0.0
H319 H 0.18305 0.65233 0.39237 0.0
H320 H 0.22069 0.65826 0.4552 0.0
C321 C 0.1476 0.54224 0.4439 0.0
C322 C 0.57211 0.15507 0.56565 0.0
C323 C 0.58313 0.12327 0.5491 0.0
H324 H 0.57952 0.19855 0.6147 0.0
C325 C 0.60977 0.10947 0.57132 0.0
H326 H 0.55095 0.16576 0.54941 0.0
C327 C 0.62629 0.12832 0.60911 0.0
C328 C 0.61621 0.16112 0.6253 0.0
H329 H 0.61888 0.0851 0.55918 0.0
H330 H 0.64739 0.11764 0.6254 0.0
C331 C 0.58845 0.17378 0.60319 0.0
C332 C 0.54102 0.63283 0.70682 0.0
C333 C 0.5189 0.58605 0.69453 0.0
H334 H 0.54636 0.68343 0.74908 0.0
C335 C 0.49017 0.55355 0.71874 0.0
H336 H 0.56284 0.65837 0.68825 0.0
C337 C 0.47972 0.56775 0.75302 0.0
C338 C 0.4986 0.61464 0.7638 0.0
H339 H 0.47234 0.51729 0.70949 0.0
H340 H 0.45448 0.5421 0.76971 0.0
C341 C 0.53149 0.64705 0.74156 0.0
C342 C 0.94794 0.46604 0.9038 0.0
C343 C 0.94544 0.49569 0.87847 0.0
H344 H 0.92287 0.43108 0.95396 0.0
C345 C 0.9223 0.51964 0.88812 0.0
H346 H 0.96517 0.44684 0.89652 0.0
C347 C 0.89853 0.51109 0.9212 0.0
C348 C 0.89658 0.47752 0.94436 0.0
H349 H 0.91952 0.54217 0.86856 0.0
H350 H 0.87799 0.52744 0.92649 0.0
C351 C 0.92344 0.45681 0.93647 0.0
C352 C 0.50231 0.9385 0.07949 0.0
C353 C 0.4716 0.93718 0.04982 0.0
H354 H 0.50865 0.91128 0.13159 0.0
C355 C 0.42324 0.91453 0.05362 0.0
H356 H 0.5397 0.95549 0.07675 0.0
C357 C 0.40542 0.88937 0.08504 0.0
C358 C 0.43584 0.88588 0.1123 0.0
H359 H 0.3991 0.91274 0.03062 0.0
H360 H 0.36775 0.86878 0.08571 0.0
C361 C 0.48449 0.91282 0.11057 0.0
C362 C 0.56983 0.48017 0.23073 0.0
C363 C 0.54242 0.45073 0.19872 0.0
H364 H 0.60516 0.48613 0.28524 0.0
C365 C 0.52121 0.40312 0.20049 0.0
H366 H 0.5869 0.51701 0.22971 0.0
C367 C 0.53142 0.38538 0.23232 0.0
C368 C 0.56385 0.41521 0.26219 0.0
H369 H 0.50044 0.37994 0.17579 0.0
H370 H 0.51802 0.34879 0.23159 0.0
C371 C 0.58073 0.4625 0.26223 0.0
C372 C 0.43171 0.88029 0.33705 0.0
C373 C 0.47554 0.91361 0.35498 0.0
H374 H 0.39356 0.83492 0.28768 0.0
C375 C 0.5156 0.92811 0.3349 0.0
H376 H 0.40012 0.86897 0.35164 0.0
C377 C 0.51191 0.90851 0.2979 0.0
C378 C 0.46805 0.87422 0.28038 0.0
H379 H 0.54983 0.95361 0.34817 0.0
H380 H 0.54342 0.91989 0.28323 0.0
C381 C 0.428 0.86078 0.30032 0.0
C382 C 0.56954 0.41246 0.48638 0.0
C383 C 0.58142 0.45556 0.50413 0.0
H384 H 0.57532 0.375 0.43831 0.0
C385 C 0.60765 0.49488 0.48494 0.0
H386 H 0.5487 0.38143 0.5002 0.0
C387 C 0.62285 0.49121 0.44918 0.0
C388 C 0.61213 0.44812 0.432 0.0
H389 H 0.61765 0.52857 0.49804 0.0
H390 H 0.64363 0.52221 0.43534 0.0
C391 C 0.58483 0.40879 0.45086 0.0
C392 C 0.1503 0.62827 0.68977 0.0
C393 C 0.12724 0.58134 0.69504 0.0
H394 H 0.19683 0.68115 0.65641 0.0
C395 C 0.1272 0.55041 0.66694 0.0
H396 H 0.15134 0.65266 0.71159 0.0
C397 C 0.15393 0.56662 0.63589 0.0
C398 C 0.18074 0.61395 0.63244 0.0
H399 H 0.11014 0.51413 0.67089 0.0
H400 H 0.15607 0.54229 0.61613 0.0
C401 C 0.17645 0.64447 0.65833 0.0
C402 C 0.53575 0.12536 0.8499 0.0
C403 C 0.56487 0.10869 0.86274 0.0
H404 H 0.52359 0.16376 0.80877 0.0
C405 C 0.59994 0.11142 0.84036 0.0
H406 H 0.50897 0.12406 0.86724 0.0
C407 C 0.60895 0.13475 0.80741 0.0
C408 C 0.58278 0.15539 0.79638 0.0
H409 H 0.62306 0.09917 0.85022 0.0
H410 H 0.63853 0.13944 0.79226 0.0
C411 C 0.54429 0.14813 0.81656 0.0
C412 C 0.45485 0.53759 -0.01347 0.0
C413 C 0.47722 0.57676 0.01261 0.0
H414 H 0.4253 0.51012 0.92924 0.0
C415 C 0.48908 0.61961 -0.00047 0.0
H416 H 0.44507 0.50409 -0.00421 0.0
C417 C 0.47764 0.62314 0.96158 0.0
C418 C 0.4541 0.58388 0.93563 0.0
H419 H 0.50714 0.65057 0.01876 0.0
H420 H 0.48685 0.65669 0.95275 0.0
C421 C 0.44334 0.5411 0.94844 0.0
C422 C 0.94064 0.44592 0.17018 0.0
C423 C 0.92323 0.46757 0.19394 0.0
H424 H 0.93636 0.41477 0.11447 0.0
C425 C 0.88847 0.47614 0.17841 0.0
H426 H 0.96731 0.43877 0.18139 0.0
C427 C 0.87061 0.46237 0.14029 0.0
C428 C 0.88711 0.4397 0.11661 0.0
H429 H 0.87495 0.49356 0.19584 0.0
H430 H 0.84357 0.46923 0.12952 0.0
C431 C 0.92268 0.432 0.13191 0.0
loop_
_geom_bond_atom_site_label_1
_geom_bond_atom_site_label_2
_geom_bond_distance
_geom_bond_site_symmetry_2
_ccdc_geom_bond_type
H0 C6 0.930 . S
H1 C9 0.931 . S
H2 C11 0.931 . S
H3 C13 0.930 . S
H4 C15 0.930 . S
H5 C17 0.931 . S
C6 H0 0.930 . S
C6 C7 1.380 . S
C6 C8 1.394 . S
C7 C6 1.380 . S
C7 C11 1.382 . S
C8 C6 1.394 . S
C8 C9 1.400 . S
C9 H1 0.931 . S
C9 C8 1.400 . S
C9 C10 1.375 . S
C10 C9 1.375 . S
C10 C11 1.415 . S
C10 C12 1.501 1_455 S
C11 H2 0.931 . S
C11 C7 1.382 . S
C11 C10 1.415 . S
C12 C10 1.501 1_655 S
C12 C13 1.384 . S
C12 C17 1.408 . S
C13 H3 0.930 . S
C13 C12 1.384 . S
C13 C14 1.389 . S
C14 C13 1.389 . S
C14 C15 1.405 . S
C15 H4 0.930 . S
C15 C14 1.405 . S
C15 C16 1.364 . S
C16 C15 1.364 . S
C16 C17 1.400 . S
C17 H5 0.931 . S
C17 C12 1.408 . S
C17 C16 1.400 . S
H18 C24 0.930 . S
H19 C27 0.931 . S
H20 C29 0.931 . S
H21 C31 0.930 . S
H22 C33 0.930 . S
H23 C35 0.931 . S
C24 H18 0.930 . S
C24 C25 1.380 . S
C24 C26 1.394 . S
C25 C24 1.380 . S
C25 C29 1.382 . S
C26 C24 1.394 . S
C26 C27 1.400 . S
C27 H19 0.931 . S
C27 C26 1.400 . S
C27 C28 1.375 . S
C28 C27 1.375 . S
C28 C29 1.415 . S
C28 C30 1.501 1_545 S
C29 H20 0.931 . S
C29 C25 1.382 . S
C29 C28 1.415 . S
C30 C28 1.501 1_565 S
C30 C31 1.384 . S
C30 C35 1.408 . S
C31 H21 0.930 . S
C31 C30 1.384 . S
C31 C32 1.389 . S
C32 C31 1.389 . S
C32 C33 1.405 . S
C33 H22 0.930 . S
C33 C32 1.405 . S
C33 C34 1.364 . S
C34 C33 1.364 . S
C34 C35 1.400 . S
C35 H23 0.931 . S
C35 C30 1.408 . S
C35 C34 1.400 . S
H36 C42 0.930 . S
H37 C45 0.931 . S
H38 C47 0.931 . S
H39 C49 0.930 . S
H40 C51 0.930 . S
H41 C53 0.931 . S
C42 H36 0.930 . S
C42 C43 1.380 . S
C42 C44 1.394 . S
C43 C42 1.380 . S
C43 C47 1.382 . S
C44 C42 1.394 . S
C44 C45 1.400 . S
C45 H37 0.931 . S
C45 C44 1.400 . S
C45 C46 1.375 . S
C46 C45 1.375 . S
C46 C47 1.415 . S
C46 C48 1.501 . S
C47 H38 0.931 . S
C47 C43 1.382 . S
C47 C46 1.415 . S
C48 C46 1.501 . S
C48 C49 1.384 . S
C48 C53 1.408 . S
C49 H39 0.930 . S
C49 C48 1.384 . S
C49 C50 1.389 . S
C50 C49 1.389 . S
C50 C51 1.405 . S
C51 H40 0.930 . S
C51 C50 1.405 . S
C51 C52 1.364 . S
C52 C51 1.364 . S
C52 C53 1.400 . S
C53 H41 0.931 . S
C53 C48 1.408 . S
C53 C52 1.400 . S
H54 C60 0.930 . S
H55 C63 0.931 . S
H56 C65 0.931 . S
H57 C67 0.930 . S
H58 C69 0.930 . S
H59 C71 0.931 . S
C60 H54 0.930 . S
C60 C61 1.380 . S
C60 C62 1.394 . S
C61 C60 1.380 . S
C61 C65 1.382 . S
C62 C60 1.394 . S
C62 C63 1.400 . S
C63 H55 0.931 . S
C63 C62 1.400 . S
C63 C64 1.375 . S
C64 C63 1.375 . S
C64 C65 1.415 . S
C64 C66 1.501 1_455 S
C65 H56 0.931 . S
C65 C61 1.382 . S
C65 C64 1.415 . S
C66 C64 1.501 1_655 S
C66 C67 1.384 . S
C66 C71 1.408 . S
C67 H57 0.930 . S
C67 C66 1.384 . S
C67 C68 1.389 . S
C68 C67 1.389 . S
C68 C69 1.405 . S
C69 H58 0.930 . S
C69 C68 1.405 . S
C69 C70 1.364 . S
C70 C69 1.364 . S
C70 C71 1.400 . S
C71 H59 0.931 . S
C71 C66 1.408 . S
C71 C70 1.400 . S
H72 C78 0.930 . S
H73 C81 0.931 . S
H74 C83 0.931 1_545 S
H75 C85 0.930 . S
H76 C87 0.930 . S
H77 C89 0.931 . S
C78 H72 0.930 . S
C78 C79 1.380 . S
C78 C80 1.394 1_554 S
C79 C78 1.380 . S
C79 C83 1.382 . S
C80 C78 1.394 1_556 S
C80 C81 1.400 . S
C81 H73 0.931 . S
C81 C80 1.400 . S
C81 C82 1.375 . S
C82 C81 1.375 . S
C82 C83 1.415 1_556 S
C82 C84 1.501 1_565 S
C83 H74 0.931 1_565 S
C83 C79 1.382 . S
C83 C82 1.415 1_554 S
C84 C82 1.501 1_545 S
C84 C85 1.384 1_556 S
C84 C89 1.408 . S
C85 H75 0.930 . S
C85 C84 1.384 1_554 S
C85 C86 1.398 . S
C86 C85 1.398 . S
C86 C87 1.378 1_554 S
C87 H76 0.930 . S
C87 C86 1.378 1_556 S
C87 C88 1.364 . S
C88 C87 1.364 . S
C88 C89 1.400 . S
C89 H77 0.931 . S
C89 C84 1.408 . S
C89 C88 1.400 . S
H90 C96 0.930 . S
H91 C99 0.931 . S
H92 C101 0.931 . S
H93 C103 0.930 . S
H94 C105 0.930 . S
H95 C107 0.931 . S
C96 H90 0.930 . S
C96 C97 1.380 . S
C96 C98 1.394 . S
C97 C96 1.380 . S
C97 C101 1.382 . S
C98 C96 1.394 . S
C98 C99 1.400 . S
C99 H91 0.931 . S
C99 C98 1.400 . S
C99 C100 1.375 . S
C100 C99 1.375 . S
C100 C101 1.415 . S
C100 C102 1.501 . S
C101 H92 0.931 . S
C101 C97 1.382 . S
C101 C100 1.415 . S
C102 C100 1.501 . S
C102 C103 1.384 . S
C102 C107 1.408 . S
C103 H93 0.930 . S
C103 C102 1.384 . S
C103 C104 1.389 . S
C104 C103 1.389 . S
C104 C105 1.405 . S
C105 H94 0.930 . S
C105 C104 1.405 . S
C105 C106 1.364 . S
C106 C105 1.364 . S
C106 C107 1.400 . S
C107 H95 0.931 . S
C107 C102 1.408 . S
C107 C106 1.400 . S
Mg108 O109 2.028 . S
Mg108 O115 1.986 . S
Mg108 O117 2.114 . S
Mg108 O118 2.251 . S
Mg108 O121 2.010 . S
O109 Mg108 2.028 . S
O109 C112 1.250 . S
O110 Mg111 2.028 . S
O110 C112 1.248 . S
Mg111 O110 2.028 . S
Mg111 O116 2.032 . S
Mg111 O118 2.079 . S
C112 O109 1.250 . S
C112 O110 1.248 . S
C113 O114 1.264 . S
C113 O121 1.249 . S
O114 C113 1.264 . S
O115 Mg108 1.986 . S
O115 C119 1.246 . S
O116 Mg111 2.032 . S
O116 C119 1.259 . S
O117 Mg108 2.114 . S
O117 C120 1.252 . S
O118 Mg108 2.251 . S
O118 Mg111 2.079 . S
O118 C120 1.273 . S
C119 O115 1.246 . S
C119 O116 1.259 . S
C120 O117 1.252 . S
C120 O118 1.273 . S
O121 Mg108 2.010 . S
O121 C113 1.249 . S
Mg122 O123 2.028 . S
Mg122 O129 1.986 . S
Mg122 O131 2.114 . S
Mg122 O132 2.251 . S
Mg122 O135 2.010 . S
O123 Mg122 2.028 . S
O123 C126 1.250 . S
O124 Mg125 2.028 . S
O124 C126 1.248 . S
Mg125 O124 2.028 . S
Mg125 O130 2.032 . S
Mg125 O132 2.079 . S
C126 O123 1.250 . S
C126 O124 1.248 . S
C127 O128 1.264 . S
C127 O135 1.249 . S
O128 C127 1.264 . S
O129 Mg122 1.986 . S
O129 C133 1.246 . S
O130 Mg125 2.032 . S
O130 C133 1.259 . S
O131 Mg122 2.114 . S
O131 C134 1.252 . S
O132 Mg122 2.251 . S
O132 Mg125 2.079 . S
O132 C134 1.273 . S
C133 O129 1.246 . S
C133 O130 1.259 . S
C134 O131 1.252 . S
C134 O132 1.273 . S
O135 Mg122 2.010 . S
O135 C127 1.249 . S
Mg136 O137 2.028 . S
Mg136 O143 1.986 . S
Mg136 O145 2.114 . S
Mg136 O146 2.251 . S
Mg136 O149 2.010 . S
O137 Mg136 2.028 . S
O137 C140 1.250 . S
O138 Mg139 2.028 . S
O138 C140 1.248 . S
Mg139 O138 2.028 . S
Mg139 O144 2.032 . S
Mg139 O146 2.079 . S
C140 O137 1.250 . S
C140 O138 1.248 . S
C141 O142 1.264 . S
C141 O149 1.249 . S
O142 C141 1.264 . S
O143 Mg136 1.986 . S
O143 C147 1.246 . S
O144 Mg139 2.032 . S
O144 C147 1.259 . S
O145 Mg136 2.114 . S
O145 C148 1.252 . S
O146 Mg136 2.251 . S
O146 Mg139 2.079 . S
O146 C148 1.273 . S
C147 O143 1.246 . S
C147 O144 1.259 . S
C148 O145 1.252 . S
C148 O146 1.273 . S
O149 Mg136 2.010 . S
O149 C141 1.249 . S
Mg150 O151 2.028 . S
Mg150 O157 1.986 . S
Mg150 O159 2.114 . S
Mg150 O160 2.251 . S
Mg150 O163 2.010 . S
O151 Mg150 2.028 . S
O151 C154 1.250 . S
O152 Mg153 2.028 . S
O152 C154 1.248 . S
Mg153 O152 2.028 . S
Mg153 O158 2.032 . S
Mg153 O160 2.079 . S
C154 O151 1.250 . S
C154 O152 1.248 . S
C155 O156 1.264 . S
C155 O163 1.249 . S
O156 C155 1.264 . S
O157 Mg150 1.986 . S
O157 C161 1.246 . S
O158 Mg153 2.032 . S
O158 C161 1.259 . S
O159 Mg150 2.114 . S
O159 C162 1.252 . S
O160 Mg150 2.251 . S
O160 Mg153 2.079 . S
O160 C162 1.273 . S
C161 O157 1.246 . S
C161 O158 1.259 . S
C162 O159 1.252 . S
C162 O160 1.273 . S
O163 Mg150 2.010 . S
O163 C155 1.249 . S
Mg164 O165 2.028 . S
Mg164 O171 1.986 . S
Mg164 O173 2.114 . S
Mg164 O174 2.251 . S
Mg164 O177 2.010 . S
O165 Mg164 2.028 . S
O165 C168 1.250 . S
O166 Mg167 2.028 . S
O166 C168 1.248 . S
Mg167 O166 2.028 . S
Mg167 O172 2.032 . S
Mg167 O174 2.079 . S
C168 O165 1.250 . S
C168 O166 1.248 . S
C169 O170 1.264 . S
C169 O177 1.249 . S
O170 C169 1.264 . S
O171 Mg164 1.986 . S
O171 C175 1.246 . S
O172 Mg167 2.032 . S
O172 C175 1.259 . S
O173 Mg164 2.114 . S
O173 C176 1.252 . S
O174 Mg164 2.251 . S
O174 Mg167 2.079 . S
O174 C176 1.273 . S
C175 O171 1.246 . S
C175 O172 1.259 . S
C176 O173 1.252 . S
C176 O174 1.273 . S
O177 Mg164 2.010 . S
O177 C169 1.249 . S
Mg178 O179 2.028 . S
Mg178 O185 1.986 . S
Mg178 O187 2.114 . S
Mg178 O188 2.251 . S
Mg178 O191 2.010 . S
O179 Mg178 2.028 . S
O179 C182 1.250 . S
O180 Mg181 2.028 . S
O180 C182 1.248 . S
Mg181 O180 2.028 . S
Mg181 O186 2.032 . S
Mg181 O188 2.079 . S
C182 O179 1.250 . S
C182 O180 1.248 . S
C183 O184 1.264 . S
C183 O191 1.249 . S
O184 C183 1.264 . S
O185 Mg178 1.986 . S
O185 C189 1.246 . S
O186 Mg181 2.032 . S
O186 C189 1.259 . S
O187 Mg178 2.114 . S
O187 C190 1.252 . S
O188 Mg178 2.251 . S
O188 Mg181 2.079 . S
O188 C190 1.273 . S
C189 O185 1.246 . S
C189 O186 1.259 . S
C190 O187 1.252 . S
C190 O188 1.273 . S
O191 Mg178 2.010 . S
O191 C183 1.249 . S
C192 C193 1.387 . S
C192 H196 0.950 . S
C192 C201 1.390 . S
C193 C192 1.387 . S
C193 C195 1.387 . S
H194 C201 0.950 . S
C195 C193 1.387 . S
C195 C197 1.390 . S
C195 H199 0.950 . S
H196 C192 0.950 . S
C197 C195 1.390 . S
C197 C198 1.387 . S
C197 H200 0.950 . S
C198 C197 1.387 . S
C198 C201 1.387 . S
H199 C195 0.950 . S
H200 C197 0.950 . S
C201 C192 1.390 . S
C201 H194 0.950 . S
C201 C198 1.387 . S
C202 C203 1.387 . S
C202 H206 0.950 . S
C202 C211 1.390 . S
C203 C202 1.387 . S
C203 C205 1.387 . S
H204 C211 0.950 . S
C205 C203 1.387 . S
C205 C207 1.390 . S
C205 H209 0.950 . S
H206 C202 0.950 . S
C207 C205 1.390 . S
C207 C208 1.387 . S
C207 H210 0.950 . S
C208 C207 1.387 . S
C208 C211 1.387 . S
H209 C205 0.950 . S
H210 C207 0.950 . S
C211 C202 1.390 . S
C211 H204 0.950 . S
C211 C208 1.387 . S
C212 C213 1.387 . S
C212 H216 0.950 . S
C212 C221 1.390 . S
C213 C212 1.387 . S
C213 C215 1.387 . S
H214 C221 0.950 . S
C215 C213 1.387 . S
C215 C217 1.390 . S
C215 H219 0.950 . S
H216 C212 0.950 . S
C217 C215 1.390 . S
C217 C218 1.387 . S
C217 H220 0.950 . S
C218 C217 1.387 . S
C218 C221 1.387 . S
H219 C215 0.950 . S
H220 C217 0.950 . S
C221 C212 1.390 . S
C221 H214 0.950 . S
C221 C218 1.387 . S
C222 C223 1.387 . S
C222 H226 0.950 . S
C222 C231 1.390 . S
C223 C222 1.387 . S
C223 C225 1.387 . S
H224 C231 0.950 . S
C225 C223 1.387 . S
C225 C227 1.390 . S
C225 H229 0.950 . S
H226 C222 0.950 . S
C227 C225 1.390 . S
C227 C228 1.387 . S
C227 H230 0.950 . S
C228 C227 1.387 . S
C228 C231 1.387 . S
H229 C225 0.950 . S
H230 C227 0.950 . S
C231 C222 1.390 . S
C231 H224 0.950 . S
C231 C228 1.387 . S
C232 C233 1.387 . S
C232 H236 0.950 1_556 S
C232 C241 1.390 . S
C233 C232 1.387 . S
C233 C235 1.387 . S
H234 C241 0.950 . S
C235 C233 1.387 . S
C235 C237 1.390 . S
C235 H239 0.950 . S
H236 C232 0.950 1_554 S
C237 C235 1.390 . S
C237 C238 1.387 . S
C237 H240 0.950 . S
C238 C237 1.387 . S
C238 C241 1.387 . S
H239 C235 0.950 . S
H240 C237 0.950 . S
C241 C232 1.390 . S
C241 H234 0.950 . S
C241 C238 1.387 . S
C242 C243 1.387 . S
C242 H246 0.950 . S
C242 C251 1.390 . S
C243 C242 1.387 . S
C243 C245 1.387 . S
H244 C251 0.950 . S
C245 C243 1.387 . S
C245 C247 1.390 . S
C245 H249 0.950 . S
H246 C242 0.950 . S
C247 C245 1.390 . S
C247 C248 1.387 . S
C247 H250 0.950 . S
C248 C247 1.387 . S
C248 C251 1.387 . S
H249 C245 0.950 . S
H250 C247 0.950 . S
C251 C242 1.390 . S
C251 H244 0.950 . S
C251 C248 1.387 . S
C252 C253 1.387 . S
C252 H256 0.950 . S
C252 C261 1.390 . S
C253 C252 1.387 . S
C253 C255 1.387 . S
H254 C261 0.950 . S
C255 C253 1.387 . S
C255 C257 1.390 . S
C255 H259 0.950 . S
H256 C252 0.950 . S
C257 C255 1.390 . S
C257 C258 1.387 . S
C257 H260 0.950 . S
C258 C257 1.387 . S
C258 C261 1.387 . S
H259 C255 0.950 . S
H260 C257 0.950 . S
C261 C252 1.390 . S
C261 H254 0.950 . S
C261 C258 1.387 . S
C262 C263 1.387 . S
C262 H266 0.950 . S
C262 C271 1.390 . S
C263 C262 1.387 . S
C263 C265 1.387 . S
H264 C271 0.950 . S
C265 C263 1.387 . S
C265 C267 1.390 . S
C265 H269 0.950 . S
H266 C262 0.950 . S
C267 C265 1.390 . S
C267 C268 1.387 . S
C267 H270 0.950 . S
C268 C267 1.387 . S
C268 C271 1.387 . S
H269 C265 0.950 . S
H270 C267 0.950 . S
C271 C262 1.390 . S
C271 H264 0.950 . S
C271 C268 1.387 . S
C272 C273 1.387 . S
C272 H276 0.950 . S
C272 C281 1.390 . S
C273 C272 1.387 . S
C273 C275 1.387 . S
H274 C281 0.950 . S
C275 C273 1.387 . S
C275 C277 1.390 . S
C275 H279 0.950 . S
H276 C272 0.950 . S
C277 C275 1.390 . S
C277 C278 1.387 . S
C277 H280 0.950 . S
C278 C277 1.387 . S
C278 C281 1.387 . S
H279 C275 0.950 . S
H280 C277 0.950 . S
C281 C272 1.390 . S
C281 H274 0.950 . S
C281 C278 1.387 . S
C282 C283 1.387 1_556 S
C282 H286 0.950 . S
C282 C291 1.390 1_556 S
C283 C282 1.387 1_554 S
C283 C285 1.387 . S
H284 C291 0.950 1_556 S
C285 C283 1.387 . S
C285 C287 1.390 . S
C285 H289 0.950 . S
H286 C282 0.950 . S
C287 C285 1.390 . S
C287 C288 1.387 . S
C287 H290 0.950 . S
C288 C287 1.387 . S
C288 C291 1.387 . S
H289 C285 0.950 . S
H290 C287 0.950 . S
C291 C282 1.390 1_554 S
C291 H284 0.950 1_554 S
C291 C288 1.387 . S
C292 C293 1.387 . S
C292 H296 0.950 . S
C292 C301 1.390 . S
C293 C292 1.387 . S
C293 C295 1.387 . S
H294 C301 0.950 . S
C295 C293 1.387 . S
C295 C297 1.390 . S
C295 H299 0.950 . S
H296 C292 0.950 . S
C297 C295 1.390 . S
C297 C298 1.387 . S
C297 H300 0.950 . S
C298 C297 1.387 . S
C298 C301 1.387 . S
H299 C295 0.950 . S
H300 C297 0.950 . S
C301 C292 1.390 . S
C301 H294 0.950 . S
C301 C298 1.387 . S
C302 C303 1.387 . S
C302 H306 0.950 . S
C302 C311 1.390 . S
C303 C302 1.387 . S
C303 C305 1.387 . S
H304 C311 0.950 . S
C305 C303 1.387 . S
C305 C307 1.390 . S
C305 H309 0.950 . S
H306 C302 0.950 . S
C307 C305 1.390 . S
C307 C308 1.387 . S
C307 H310 0.950 . S
C308 C307 1.387 . S
C308 C311 1.387 . S
H309 C305 0.950 . S
H310 C307 0.950 . S
C311 C302 1.390 . S
C311 H304 0.950 . S
C311 C308 1.387 . S
C312 C313 1.387 . S
C312 H316 0.950 . S
C312 C321 1.390 . S
C313 C312 1.387 . S
C313 C315 1.387 . S
H314 C321 0.950 . S
C315 C313 1.387 . S
C315 C317 1.390 . S
C315 H319 0.950 . S
H316 C312 0.950 . S
C317 C315 1.390 . S
C317 C318 1.387 . S
C317 H320 0.950 . S
C318 C317 1.387 . S
C318 C321 1.387 . S
H319 C315 0.950 . S
H320 C317 0.950 . S
C321 C312 1.390 . S
C321 H314 0.950 . S
C321 C318 1.387 . S
C322 C323 1.387 . S
C322 H326 0.950 . S
C322 C331 1.390 . S
C323 C322 1.387 . S
C323 C325 1.387 . S
H324 C331 0.950 . S
C325 C323 1.387 . S
C325 C327 1.390 . S
C325 H329 0.950 . S
H326 C322 0.950 . S
C327 C325 1.390 . S
C327 C328 1.387 . S
C327 H330 0.950 . S
C328 C327 1.387 . S
C328 C331 1.387 . S
H329 C325 0.950 . S
H330 C327 0.950 . S
C331 C322 1.390 . S
C331 H324 0.950 . S
C331 C328 1.387 . S
C332 C333 1.387 . S
C332 H336 0.950 . S
C332 C341 1.390 . S
C333 C332 1.387 . S
C333 C335 1.387 . S
H334 C341 0.950 . S
C335 C333 1.387 . S
C335 C337 1.390 . S
C335 H339 0.950 . S
H336 C332 0.950 . S
C337 C335 1.390 . S
C337 C338 1.387 . S
C337 H340 0.950 . S
C338 C337 1.387 . S
C338 C341 1.387 . S
H339 C335 0.950 . S
H340 C337 0.950 . S
C341 C332 1.390 . S
C341 H334 0.950 . S
C341 C338 1.387 . S
C342 C343 1.387 . S
C342 H346 0.950 . S
C342 C351 1.390 . S
C343 C342 1.387 . S
C343 C345 1.387 . S
H344 C351 0.950 1_554 S
C345 C343 1.387 . S
C345 C347 1.390 . S
C345 H349 0.950 . S
H346 C342 0.950 . S
C347 C345 1.390 . S
C347 C348 1.387 . S
C347 H350 0.950 . S
C348 C347 1.387 . S
C348 C351 1.387 . S
H349 C345 0.950 . S
H350 C347 0.950 . S
C351 C342 1.390 . S
C351 H344 0.950 1_556 S
C351 C348 1.387 . S
C352 C353 1.387 . S
C352 H356 0.950 . S
C352 C361 1.390 . S
C353 C352 1.387 . S
C353 C355 1.387 . S
H354 C361 0.950 . S
C355 C353 1.387 . S
C355 C357 1.390 . S
C355 H359 0.950 . S
H356 C352 0.950 . S
C357 C355 1.390 . S
C357 C358 1.387 . S
C357 H360 0.950 . S
C358 C357 1.387 . S
C358 C361 1.387 . S
H359 C355 0.950 . S
H360 C357 0.950 . S
C361 C352 1.390 . S
C361 H354 0.950 . S
C361 C358 1.387 . S
C362 C363 1.387 . S
C362 H366 0.950 . S
C362 C371 1.390 . S
C363 C362 1.387 . S
C363 C365 1.387 . S
H364 C371 0.950 . S
C365 C363 1.387 . S
C365 C367 1.390 . S
C365 H369 0.950 . S
H366 C362 0.950 . S
C367 C365 1.390 . S
C367 C368 1.387 . S
C367 H370 0.950 . S
C368 C367 1.387 . S
C368 C371 1.387 . S
H369 C365 0.950 . S
H370 C367 0.950 . S
C371 C362 1.390 . S
C371 H364 0.950 . S
C371 C368 1.387 . S
C372 C373 1.387 . S
C372 H376 0.950 . S
C372 C381 1.390 . S
C373 C372 1.387 . S
C373 C375 1.387 . S
H374 C381 0.950 . S
C375 C373 1.387 . S
C375 C377 1.390 . S
C375 H379 0.950 . S
H376 C372 0.950 . S
C377 C375 1.390 . S
C377 C378 1.387 . S
C377 H380 0.950 . S
C378 C377 1.387 . S
C378 C381 1.387 . S
H379 C375 0.950 . S
H380 C377 0.950 . S
C381 C372 1.390 . S
C381 H374 0.950 . S
C381 C378 1.387 . S
C382 C383 1.387 . S
C382 H386 0.950 . S
C382 C391 1.390 . S
C383 C382 1.387 . S
C383 C385 1.387 . S
H384 C391 0.950 . S
C385 C383 1.387 . S
C385 C387 1.390 . S
C385 H389 0.950 . S
H386 C382 0.950 . S
C387 C385 1.390 . S
C387 C388 1.387 . S
C387 H390 0.950 . S
C388 C387 1.387 . S
C388 C391 1.387 . S
H389 C385 0.950 . S
H390 C387 0.950 . S
C391 C382 1.390 . S
C391 H384 0.950 . S
C391 C388 1.387 . S
C392 C393 1.387 . S
C392 H396 0.950 . S
C392 C401 1.390 . S
C393 C392 1.387 . S
C393 C395 1.387 . S
H394 C401 0.950 . S
C395 C393 1.387 . S
C395 C397 1.390 . S
C395 H399 0.950 . S
H396 C392 0.950 . S
C397 C395 1.390 . S
C397 C398 1.387 . S
C397 H400 0.950 . S
C398 C397 1.387 . S
C398 C401 1.387 . S
H399 C395 0.950 . S
H400 C397 0.950 . S
C401 C392 1.390 . S
C401 H394 0.950 . S
C401 C398 1.387 . S
C402 C403 1.387 . S
C402 H406 0.950 . S
C402 C411 1.390 . S
C403 C402 1.387 . S
C403 C405 1.387 . S
H404 C411 0.950 . S
C405 C403 1.387 . S
C405 C407 1.390 . S
C405 H409 0.950 . S
H406 C402 0.950 . S
C407 C405 1.390 . S
C407 C408 1.387 . S
C407 H410 0.950 . S
C408 C407 1.387 . S
C408 C411 1.387 . S
H409 C405 0.950 . S
H410 C407 0.950 . S
C411 C402 1.390 . S
C411 H404 0.950 . S
C411 C408 1.387 . S
C412 C413 1.387 . S
C412 H416 0.950 . S
C412 C421 1.390 1_554 S
C413 C412 1.387 . S
C413 C415 1.387 . S
H414 C421 0.950 . S
C415 C413 1.387 . S
C415 C417 1.390 . S
C415 H419 0.950 . S
H416 C412 0.950 . S
C417 C415 1.390 . S
C417 C418 1.387 1_554 S
C417 H420 0.950 . S
C418 C417 1.387 1_556 S
C418 C421 1.387 . S
H419 C415 0.950 . S
H420 C417 0.950 . S
C421 C412 1.390 1_556 S
C421 H414 0.950 . S
C421 C418 1.387 . S
C422 C423 1.387 . S
C422 H426 0.950 . S
C422 C431 1.390 . S
C423 C422 1.387 . S
C423 C425 1.387 . S
H424 C431 0.950 . S
C425 C423 1.387 . S
C425 C427 1.390 . S
C425 H429 0.950 . S
H426 C422 0.950 . S
C427 C425 1.390 . S
C427 C428 1.387 . S
C427 H430 0.950 . S
C428 C427 1.387 . S
C428 C431 1.387 . S
H429 C425 0.950 . S
H430 C427 0.950 . S
C431 C422 1.390 . S
C431 H424 0.950 . S
C431 C428 1.387 . S
C198 C183 1.304 . S
C193 C8 1.490 . S
C203 C26 1.514 . S
C208 C113 1.328 . S
C213 C50 1.492 . S
C218 C133 1.539 . S
C223 C68 1.454 . S
C228 C147 1.486 . S
C238 C155 1.267 . S
C233 C80 1.461 . S
C243 C104 1.467 . S
C248 C169 1.280 . S
C253 C32 1.497 . S
C258 C127 1.313 . S
C263 C44 1.466 . S
C268 C141 1.278 . S
C273 C62 1.440 . S
C278 C161 1.471 . S
C288 C175 1.505 . S
C283 C86 1.474 . S
C298 C189 1.509 . S
C293 C98 1.483 . S
C308 C119 1.527 . S
C303 C14 1.494 . S
C313 C7 1.444 . S
C318 C126 1.472 . S
C323 C25 1.445 . S
C328 C140 1.469 . S
C338 C162 1.487 . S
C333 C52 1.438 . S
C343 C70 1.440 . S
C348 C176 1.497 1_556 S
C358 C190 1.466 . S
C353 C79 1.402 . S
C368 C120 1.460 . S
C363 C106 1.402 . S
C378 C182 1.458 . S
C373 C34 1.438 . S
C383 C43 1.438 . S
C388 C112 1.465 . S
C398 C134 1.490 . S
C393 C61 1.432 . S
C403 C88 1.437 . S
C408 C148 1.486 . S
C413 C97 1.478 . S
C418 C154 1.498 . S
C423 C16 1.475 . S
C428 C168 1.493 . S
