# Generated by pormake.
# Topology tsx, (6,3)-cn, num edge types: 1
# Building blocks:
#     Node 0, Type 0, BuildingBlock: LEVNOQ01_clean_sbu_1, # of connection points: 6
#     Node 1, Type 0, BuildingBlock: LEVNOQ01_clean_sbu_1, # of connection points: 6
#     Node 2, Type 1, BuildingBlock: VETTIZ_charged_linker_0, # of connection points: 3
#     Node 3, Type 1, BuildingBlock: VETTIZ_charged_linker_0, # of connection points: 3
#     Node 4, Type 1, BuildingBlock: VETTIZ_charged_linker_0, # of connection points: 3
#     Node 5, Type 1, BuildingBlock: VETTIZ_charged_linker_0, # of connection points: 3
#     Edge 6, Type (0, 1), BuildingBlock: AJUNOK_clean_linker_0, # of connection points: 2
#     Edge 7, Type (0, 1), BuildingBlock: AJUNOK_clean_linker_0, # of connection points: 2
#     Edge 8, Type (0, 1), BuildingBlock: AJUNOK_clean_linker_0, # of connection points: 2
#     Edge 9, Type (0, 1), BuildingBlock: AJUNOK_clean_linker_0, # of connection points: 2
#     Edge 10, Type (0, 1), BuildingBlock: AJUNOK_clean_linker_0, # of connection points: 2
#     Edge 11, Type (0, 1), BuildingBlock: AJUNOK_clean_linker_0, # of connection points: 2
#     Edge 12, Type (0, 1), BuildingBlock: AJUNOK_clean_linker_0, # of connection points: 2
#     Edge 13, Type (0, 1), BuildingBlock: AJUNOK_clean_linker_0, # of connection points: 2
#     Edge 14, Type (0, 1), BuildingBlock: AJUNOK_clean_linker_0, # of connection points: 2
#     Edge 15, Type (0, 1), BuildingBlock: AJUNOK_clean_linker_0, # of connection points: 2
#     Edge 16, Type (0, 1), BuildingBlock: AJUNOK_clean_linker_0, # of connection points: 2
#     Edge 17, Type (0, 1), BuildingBlock: AJUNOK_clean_linker_0, # of connection points: 2
# Relax obj value: 0.135
# Max RMSD: 0.160
# Mean RMSD: 0.123
data_MOF--net-tsx--node1-LEVNOQ01_clean_sbu_1--node2-VETTIZ_charged_linker_0--edge1-AJUNOK_clean_linker_0
_symmetry_space_group_name_H-M    P1
_symmetry_Int_Tables_number       1
_symmetry_cell_setting            triclinic
loop_
_symmetry_equiv_pos_as_xyz
'x, y, z'
_cell_length_a     17.349936
_cell_length_b     20.919858
_cell_length_c     36.493046
_cell_angle_alpha  97.091872
_cell_angle_beta   90.400851
_cell_angle_gamma 90.654267
loop_
_atom_site_label
_atom_site_type_symbol
_atom_site_fract_x
_atom_site_fract_y
_atom_site_fract_z
_atom_type_partial_charge
O0 O 0.17307 -0.00423 0.05624 0.0
Mg1 Mg 0.2147 0.02434 0.00509 0.0
O2 O 0.05799 0.03562 0.04746 0.0
Mg3 Mg 0.07243 0.03057 -0.01494 0.0
O4 O 0.17144 0.11019 -0.00735 0.0
O5 O 0.29189 0.09872 0.01258 0.0
O6 O 0.0967 0.02357 0.92247 0.0
O7 O 0.00637 0.13243 -0.01395 0.0
Mg8 Mg 0.94522 0.03392 0.9595 0.0
O9 O 0.96863 0.95214 -0.01912 0.0
O10 O 0.98743 0.06784 0.91093 0.0
O11 O 0.89267 0.09891 -0.00073 0.0
O12 O 0.86852 0.96357 0.94283 0.0
C13 C 0.19457 0.91022 0.9666 0.0
C14 C 0.10657 0.01183 0.06813 0.0
C15 C 0.23881 0.13516 0.002 0.0
C16 C 0.05404 0.05049 0.90083 0.0
C17 C 0.93736 0.14548 -0.00384 0.0
C18 C 0.90329 0.93143 0.96577 0.0
O19 O 0.24485 0.95223 0.96175 0.0
O20 O 0.1326 0.92866 -0.01717 0.0
O21 O 0.6926 0.5146 0.55734 0.0
Mg22 Mg 0.73911 0.53718 0.50629 0.0
O23 O 0.56859 0.53336 0.54724 0.0
Mg24 Mg 0.56657 0.53835 0.48444 0.0
O25 O 0.67018 0.60651 0.49007 0.0
O26 O 0.79495 0.62357 0.50202 0.0
O27 O 0.5754 0.53682 0.42167 0.0
O28 O 0.50332 0.64418 0.49056 0.0
Mg29 Mg 0.44399 0.54888 0.47017 0.0
O30 O 0.46212 0.4589 0.48088 0.0
O31 O 0.46837 0.58949 0.42016 0.0
O32 O 0.40801 0.60682 0.51859 0.0
O33 O 0.35454 0.4909 0.45474 0.0
C34 C 0.69489 0.42018 0.46412 0.0
C35 C 0.62304 0.51795 0.56827 0.0
C36 C 0.72894 0.64529 0.49326 0.0
C37 C 0.52874 0.56813 0.40423 0.0
C38 C 0.43842 0.65432 0.50627 0.0
C39 C 0.39129 0.44773 0.46972 0.0
O40 O 0.75191 0.45852 0.46508 0.0
O41 O 0.62968 0.4402 0.47599 0.0
C42 C 0.16557 0.84568 0.4473 0.0
C43 C 0.2392 0.82615 0.43472 0.0
C44 C 0.26649 0.84813 0.40223 0.0
C45 C 0.14786 0.90708 0.39595 0.0
C46 C 0.12231 0.88861 0.42841 0.0
C47 C 0.05438 0.9286 0.44351 0.0
H48 H 0.78897 0.15651 0.38161 0.0
C49 C 0.09148 0.95155 0.3829 0.0
C50 C 0.03906 0.97303 0.41183 0.0
H51 H 0.81391 0.13143 0.49596 0.0
H52 H 0.92787 0.07905 0.48107 0.0
H53 H 0.94035 0.16101 0.35915 0.0
H54 H 0.78731 -0.00029 0.35945 0.0
H55 H 0.84396 0.97767 0.32058 0.0
H56 H 0.78641 0.04979 0.3231 0.0
H57 H 0.86688 0.14135 0.32461 0.0
H58 H 0.96379 0.11238 0.31862 0.0
C59 C 0.08688 0.95836 0.48224 0.0
C60 C 0.98602 0.88166 0.44643 0.0
C61 C 0.08344 0.95396 0.24274 0.0
C62 C 0.03136 0.98141 0.21955 0.0
C63 C 0.96228 0.00699 0.23439 0.0
C64 C 0.94844 0.011 0.27215 0.0
C65 C 0.00361 0.98828 0.29578 0.0
C66 C 0.06812 0.95784 0.2808 0.0
C67 C 0.11942 0.93581 0.31018 0.0
C68 C 0.07566 0.96009 0.34549 0.0
C69 C 0.00897 0.9911 0.33657 0.0
C70 C 0.19955 0.96913 0.30845 0.0
C71 C 0.12168 0.86141 0.30304 0.0
C72 C 0.81359 0.1337 0.4039 0.0
C73 C 0.79681 0.15591 0.44083 0.0
C74 C 0.83039 0.1223 0.46738 0.0
C75 C 0.89297 0.08197 0.45829 0.0
C76 C 0.91099 0.05761 0.42174 0.0
C77 C 0.86806 0.0844 0.39537 0.0
C78 C 0.8925 0.0616 0.35756 0.0
C79 C 0.96092 0.02056 0.36459 0.0
C80 C 0.97421 0.01441 0.40255 0.0
C81 C 0.91668 0.12169 0.33867 0.0
C82 C 0.82427 0.02045 0.33892 0.0
H83 H 0.24606 0.90423 0.35887 0.0
H84 H 0.14429 0.83093 0.47278 0.0
H85 H 0.93216 0.90298 0.4376 0.0
H86 H 0.97957 0.86878 0.47491 0.0
H87 H 0.99206 0.83589 0.42766 0.0
H88 H 0.14241 0.98397 0.47913 0.0
H89 H 0.09897 0.92036 0.50006 0.0
H90 H 0.05111 0.98875 0.50118 0.0
H91 H 0.13683 0.93332 0.2319 0.0
H92 H 0.92016 0.02661 0.2169 0.0
H93 H 0.89664 0.03477 0.28126 0.0
H94 H 0.19893 0.0091 0.29097 0.0
H95 H 0.24376 0.93447 0.29686 0.0
H96 H 0.21902 0.99225 0.336 0.0
H97 H 0.06239 0.84063 0.30331 0.0
H98 H 0.15595 0.83963 0.32363 0.0
H99 H 0.14713 0.84547 0.27561 0.0
H100 H 0.32274 0.83405 0.39161 0.0
C101 C 0.22145 0.88842 0.38299 0.0
C102 C 0.15153 0.22381 0.52128 0.0
C103 C 0.21868 0.25446 0.53652 0.0
C104 C 0.24285 0.24249 0.57182 0.0
C105 C 0.13278 0.17056 0.57571 0.0
C106 C 0.11016 0.18138 0.5411 0.0
C107 C 0.04322 0.13884 0.52666 0.0
H108 H 0.77323 0.91065 0.57933 0.0
C109 C 0.07822 0.12355 0.58857 0.0
C110 C 0.02946 0.09689 0.55892 0.0
H111 H 0.82716 0.9329 0.46684 0.0
H112 H 0.93986 0.98866 0.48873 0.0
H113 H 0.9279 0.9058 0.60603 0.0
H114 H 0.77974 0.06845 0.60835 0.0
H115 H 0.83244 0.08184 0.64983 0.0
H116 H 0.77161 0.01084 0.64066 0.0
H117 H 0.8522 0.92103 0.63909 0.0
H118 H 0.94873 0.95188 0.6482 0.0
C119 C 0.0731 0.10729 0.4885 0.0
C120 C 0.97423 0.1836 0.52352 0.0
C121 C 0.07711 0.11375 0.72666 0.0
C122 C 0.03003 0.08086 0.74936 0.0
C123 C 0.96097 0.05177 0.73469 0.0
C124 C 0.94247 0.05076 0.69728 0.0
C125 C 0.99371 0.07897 0.67408 0.0
C126 C 0.05762 0.11231 0.68926 0.0
C127 C 0.10465 0.14036 0.66077 0.0
C128 C 0.06162 0.11424 0.62549 0.0
C129 C 0.99683 0.07861 0.63349 0.0
C130 C 0.18763 0.11346 0.66188 0.0
C131 C 0.09914 0.21466 0.66928 0.0
C132 C 0.80234 0.9348 0.55874 0.0
C133 C 0.79249 0.9134 0.52082 0.0
C134 C 0.83557 0.94503 0.49625 0.0
C135 C 0.89822 0.98409 0.5089 0.0
C136 C 0.90594 0.01024 0.54592 0.0
C137 C 0.85729 0.98396 0.57031 0.0
C138 C 0.88054 0.00436 0.60933 0.0
C139 C 0.95026 0.04711 0.60466 0.0
C140 C 0.96623 0.05351 0.56723 0.0
C141 C 0.90304 0.94301 0.62692 0.0
C142 C 0.81276 0.04302 0.62833 0.0
H143 H 0.22164 0.19456 0.61826 0.0
H144 H 0.13294 0.23147 0.49384 0.0
H145 H 0.92014 0.15859 0.52933 0.0
H146 H 0.97082 0.20082 0.49594 0.0
H147 H 0.97712 0.22687 0.5446 0.0
H148 H 0.13287 0.08972 0.49092 0.0
H149 H 0.07465 0.14264 0.46818 0.0
H150 H 0.0398 0.06837 0.47394 0.0
H151 H 0.1305 0.13668 0.73706 0.0
H152 H 0.92239 0.02781 0.75201 0.0
H153 H 0.89049 0.0257 0.68778 0.0
H154 H 0.18979 0.06858 0.67532 0.0
H155 H 0.22765 0.14899 0.6774 0.0
H156 H 0.21064 0.09894 0.63386 0.0
H157 H 0.0385 0.22923 0.67513 0.0
H158 H 0.11707 0.24073 0.64628 0.0
H159 H 0.13458 0.23272 0.69396 0.0
H160 H 0.2939 0.26621 0.58454 0.0
C161 C 0.20037 0.20079 0.59141 0.0
C162 C 0.67876 0.35797 0.95357 0.0
C163 C 0.73922 0.32137 0.93673 0.0
C164 C 0.74102 0.31076 0.89796 0.0
C165 C 0.63414 0.38352 0.89406 0.0
C166 C 0.62738 0.38959 0.93163 0.0
C167 C 0.5597 0.43121 0.94463 0.0
H168 H 0.28168 0.63758 0.87297 0.0
C169 C 0.57828 0.42686 0.8793 0.0
C170 C 0.53497 0.46071 0.9086 0.0
H171 H 0.32009 0.63951 -0.01138 0.0
H172 H 0.42676 0.57379 0.97607 0.0
H173 H 0.45646 0.65713 0.86968 0.0
H174 H 0.29228 0.50783 0.83934 0.0
H175 H 0.36332 0.48735 0.80642 0.0
H176 H 0.31733 0.56451 0.80846 0.0
H177 H 0.39799 0.6521 0.82876 0.0
H178 H 0.49394 0.61891 0.82848 0.0
C179 C 0.59251 0.47803 0.9772 0.0
C180 C 0.49739 0.3844 0.95629 0.0
C181 C 0.57741 0.42764 0.7394 0.0
C182 C 0.54441 0.47019 0.71675 0.0
C183 C 0.49571 0.51887 0.73283 0.0
C184 C 0.48059 0.5258 0.77045 0.0
C185 C 0.51484 0.48411 0.79301 0.0
C186 C 0.56312 0.4367 0.77756 0.0
C187 C 0.60169 0.40294 0.80667 0.0
C188 C 0.56661 0.43716 0.84199 0.0
C189 C 0.514 0.48237 0.83341 0.0
C190 C 0.68995 0.41578 0.80435 0.0
C191 C 0.57662 0.33094 0.80015 0.0
C192 C 0.30838 0.61798 0.89603 0.0
C193 C 0.29263 0.64486 0.93198 0.0
C194 C 0.33103 0.61963 0.96053 0.0
C195 C 0.39187 0.57612 0.95307 0.0
C196 C 0.41022 0.54868 0.91694 0.0
C197 C 0.36762 0.57274 0.88937 0.0
C198 C 0.40395 0.55988 0.85307 0.0
C199 C 0.46706 0.51457 0.8609 0.0
C200 C 0.47532 0.50628 0.89886 0.0
C201 C 0.43948 0.62512 0.84413 0.0
C202 C 0.34159 0.5286 0.82522 0.0
H203 H 0.69375 0.32988 0.8475 0.0
H204 H 0.67291 0.36215 -0.01679 0.0
H205 H 0.44158 0.39452 0.94381 0.0
H206 H 0.49318 0.38683 -0.01323 0.0
H207 H 0.50833 0.33297 0.94598 0.0
H208 H 0.63774 0.50925 0.96708 0.0
H209 H 0.6191 0.45273 -0.00107 0.0
H210 H 0.54993 0.506 -0.00658 0.0
H211 H 0.61539 0.38965 0.72807 0.0
H212 H 0.47102 0.55347 0.71647 0.0
H213 H 0.44309 0.56415 0.78014 0.0
H214 H 0.70317 0.4589 0.79034 0.0
H215 H 0.71947 0.37432 0.78867 0.0
H216 H 0.71748 0.42701 0.83188 0.0
H217 H 0.51551 0.3258 0.79063 0.0
H218 H 0.57858 0.30722 0.82559 0.0
H219 H 0.61257 0.30353 0.77873 0.0
H220 H 0.78252 0.27836 0.88386 0.0
C221 C 0.68889 0.34111 0.87672 0.0
C222 C 0.63456 0.74414 0.02734 0.0
C223 C 0.70778 0.76466 0.04095 0.0
C224 C 0.73513 0.74402 0.07361 0.0
C225 C 0.6187 0.67975 0.0775 0.0
C226 C 0.59233 0.69865 0.0451 0.0
C227 C 0.52885 0.65368 0.0279 0.0
H228 H 0.255 0.42459 0.07991 0.0
C229 C 0.5657 0.63045 0.08856 0.0
C230 C 0.51566 0.60731 0.0586 0.0
H231 H 0.33494 0.41545 0.96956 0.0
H232 H 0.43725 0.48743 -0.00852 0.0
H233 H 0.40402 0.41371 0.10339 0.0
H234 H 0.26864 0.58456 0.10867 0.0
H235 H 0.32024 0.59189 0.15053 0.0
H236 H 0.25519 0.52415 0.13898 0.0
H237 H 0.3352 0.43363 0.1393 0.0
H238 H 0.43516 0.45827 0.14412 0.0
C239 C 0.56657 0.62721 -0.00967 0.0
C240 C 0.45654 0.69419 0.02293 0.0
C241 C 0.56128 0.61549 0.22676 0.0
C242 C 0.51165 0.58346 0.24873 0.0
C243 C 0.44442 0.55328 0.23311 0.0
C244 C 0.42808 0.55291 0.19558 0.0
C245 C 0.48069 0.58148 0.17305 0.0
C246 C 0.54485 0.61341 0.18893 0.0
C247 C 0.59385 0.64123 0.16095 0.0
C248 C 0.54997 0.61831 0.12521 0.0
C249 C 0.48421 0.5837 0.13266 0.0
C250 C 0.67521 0.61112 0.16171 0.0
C251 C 0.59278 0.71541 0.17084 0.0
C252 C 0.28676 0.44586 0.0589 0.0
C253 C 0.28756 0.4141 0.02293 0.0
C254 C 0.33413 0.43964 -0.00258 0.0
C255 C 0.39087 0.48599 0.00941 0.0
C256 C 0.3912 0.52018 0.04495 0.0
C257 C 0.33978 0.49688 0.0694 0.0
C258 C 0.36457 0.51549 0.10823 0.0
C259 C 0.43585 0.55599 0.10361 0.0
C260 C 0.45195 0.56343 0.06633 0.0
C261 C 0.38527 0.45254 0.12499 0.0
C262 C 0.29891 0.55576 0.12794 0.0
H263 H 0.71543 0.68746 0.1165 0.0
H264 H 0.61379 0.75952 0.00181 0.0
H265 H 0.40434 0.6686 0.03082 0.0
H266 H 0.45007 0.70562 -0.00587 0.0
H267 H 0.45788 0.74077 0.04131 0.0
H268 H 0.62527 0.60897 -0.00495 0.0
H269 H 0.57338 0.66597 0.97235 0.0
H270 H 0.53703 0.59137 0.97148 0.0
H271 H 0.61303 0.63954 0.23848 0.0
H272 H 0.40477 0.5295 0.25001 0.0
H273 H 0.37586 0.52884 0.18567 0.0
H274 H 0.67582 0.56742 0.17626 0.0
H275 H 0.71789 0.64584 0.17592 0.0
H276 H 0.69593 0.59386 0.13357 0.0
H277 H 0.53252 0.73254 0.17467 0.0
H278 H 0.61794 0.74205 0.14958 0.0
H279 H 0.62489 0.73016 0.19702 0.0
H280 H 0.7911 0.7601 0.08474 0.0
C281 C 0.69092 0.70192 0.09197 0.0
C282 C 0.19279 0.2483 -0.00302 0.0
C283 C 0.25254 0.20625 0.00454 0.0
C284 C 0.20299 0.31589 0.00284 0.0
C285 C 0.27306 0.34345 0.01684 0.0
H286 H 0.13737 0.22894 -0.01298 0.0
H287 H 0.15593 0.34654 -0.00331 0.0
S288 S 0.44917 0.25653 0.03883 0.0
N289 N 0.38601 0.19896 0.02486 0.0
N290 N 0.40378 0.32469 0.03635 0.0
C291 C 0.33346 0.30228 0.0236 0.0
C292 C 0.32365 0.23409 0.01735 0.0
C293 C 0.25873 0.82213 0.92634 0.0
C294 C 0.21083 0.84097 0.95646 0.0
C295 C 0.28062 0.75795 0.91762 0.0
C296 C 0.25619 0.70959 0.93883 0.0
H297 H 0.28083 0.85757 0.90968 0.0
H298 H 0.3204 0.74695 0.89503 0.0
S299 S 0.12825 0.73397 0.02042 0.0
N300 N 0.13758 0.8064 0.00724 0.0
N301 N 0.17912 0.68531 -0.00901 0.0
C302 C 0.20653 0.72756 0.96865 0.0
C303 C 0.18356 0.79322 0.97733 0.0
C304 C 0.87137 0.82163 -0.01646 0.0
C305 C 0.85516 0.88734 -0.01565 0.0
C306 C 0.82257 0.78142 0.00156 0.0
C307 C 0.75696 0.80624 0.02079 0.0
H308 H 0.9212 0.80137 0.96883 0.0
H309 H 0.83606 0.7308 0.00053 0.0
S310 S 0.69469 0.97588 0.03337 0.0
N311 N 0.77227 0.97592 0.00745 0.0
N312 N 0.68123 0.90039 0.041 0.0
C313 C 0.74137 0.87181 0.02206 0.0
C314 C 0.79051 0.91242 0.00392 0.0
C315 C 0.82593 0.21878 0.00483 0.0
C316 C 0.90063 0.20722 -0.00923 0.0
C317 C 0.77525 0.25941 -0.01101 0.0
C318 C 0.7979 0.29093 0.95887 0.0
H319 H 0.80381 0.19136 0.02589 0.0
H320 H 0.71629 0.2618 -0.00145 0.0
S321 S 0.9942 0.29217 0.9192 0.0
N322 N 0.99931 0.24032 0.94974 0.0
N323 N 0.90546 0.31983 0.92151 0.0
C324 C 0.87578 0.28697 0.94815 0.0
C325 C 0.92705 0.24465 0.96386 0.0
C326 C 0.77648 0.74387 0.47075 0.0
C327 C 0.72202 0.7147 0.49147 0.0
C328 C 0.7933 0.80946 0.47826 0.0
C329 C 0.75652 0.84914 0.50707 0.0
H330 H 0.81135 0.7147 0.45074 0.0
H331 H 0.84095 0.82688 0.4633 0.0
S332 S 0.59538 0.79707 0.56332 0.0
N333 N 0.62182 0.73037 0.53769 0.0
N334 N 0.65142 0.85521 0.55122 0.0
C335 C 0.69501 0.82151 0.52494 0.0
C336 C 0.67807 0.75397 0.51722 0.0
C337 C 0.6843 0.30878 0.43038 0.0
C338 C 0.71037 0.3511 0.46075 0.0
C339 C 0.707 0.24403 0.42584 0.0
C340 C 0.75747 0.21957 0.45125 0.0
H341 H 0.64855 0.32631 0.40939 0.0
H342 H 0.6866 0.21372 0.40147 0.0
S343 S 0.82578 0.31206 0.54029 0.0
N344 N 0.77652 0.36439 0.51968 0.0
N345 N 0.82103 0.24448 0.51183 0.0
C346 C 0.77738 0.2616 0.48373 0.0
C347 C 0.75373 0.32702 0.48816 0.0
C348 C 0.38514 0.34305 0.49662 0.0
C349 C 0.34736 0.39205 0.48059 0.0
C350 C 0.3432 0.29746 0.51383 0.0
C351 C 0.26221 0.29975 0.5159 0.0
H352 H 0.44752 0.34117 0.49702 0.0
H353 H 0.37446 0.26097 0.52625 0.0
S354 S 0.13555 0.41741 0.47757 0.0
N355 N 0.2235 0.43776 0.46635 0.0
N356 N 0.14601 0.35449 0.50016 0.0
C357 C 0.22379 0.34714 0.49894 0.0
C358 C 0.26604 0.39258 0.48085 0.0
C359 C 0.41577 0.75864 0.47999 0.0
C360 C 0.38593 0.70379 0.49396 0.0
C361 C 0.36791 0.79875 0.46167 0.0
C362 C 0.28846 0.78508 0.45601 0.0
H363 H 0.47692 0.76966 0.4823 0.0
H364 H 0.39367 0.84034 0.45136 0.0
S365 S 0.18163 0.64605 0.48595 0.0
N366 N 0.27048 0.63854 0.50096 0.0
N367 N 0.18286 0.7118 0.46528 0.0
C368 C 0.25777 0.73097 0.47032 0.0
C369 C 0.3058 0.69097 0.48957 0.0
C370 C 0.09364 0.94422 0.11948 0.0
C371 C 0.08662 0.00436 0.10639 0.0
C372 C 0.07565 0.93667 0.15618 0.0
C373 C 0.05107 0.98931 0.18088 0.0
H374 H 0.11224 0.90269 0.10109 0.0
H375 H 0.08032 0.88942 0.16518 0.0
S376 S 0.03181 0.15811 0.1606 0.0
N377 N 0.05769 0.1177 0.12094 0.0
N378 N 0.02648 0.10454 0.19017 0.0
C379 C 0.04579 0.04999 0.1681 0.0
C380 C 0.06288 0.05727 0.13074 0.0
C381 C 0.0579 0.00216 0.83617 0.0
C382 C 0.07534 0.05477 0.8626 0.0
C383 C 0.04776 0.01072 0.79908 0.0
C384 C 0.05434 0.07224 0.7874 0.0
H385 H 0.04571 0.95523 0.84463 0.0
H386 H 0.03072 0.96941 0.77972 0.0
S387 S 0.11572 0.2225 0.84554 0.0
N388 N 0.11136 0.16777 0.87449 0.0
N389 N 0.09125 0.18471 0.80459 0.0
C390 C 0.07968 0.12397 0.81314 0.0
C391 C 0.09029 0.11497 0.85092 0.0
C392 C 0.52727 0.49772 0.61656 0.0
C393 C 0.60455 0.49996 0.60538 0.0
C394 C 0.50798 0.48264 0.65166 0.0
C395 C 0.56513 0.47006 0.67733 0.0
H396 H 0.48102 0.50873 0.59835 0.0
H397 H 0.44772 0.4833 0.65929 0.0
S398 S 0.77557 0.46164 0.66048 0.0
N399 N 0.7384 0.48109 0.62166 0.0
N400 N 0.70179 0.45531 0.68811 0.0
C401 C 0.64227 0.46828 0.66587 0.0
C402 C 0.66208 0.48295 0.62989 0.0
C403 C 0.52894 0.63245 0.35144 0.0
C404 C 0.53879 0.57292 0.36484 0.0
C405 C 0.52527 0.63628 0.31341 0.0
C406 C 0.52926 0.5804 0.28794 0.0
H407 H 0.52167 0.67592 0.37051 0.0
H408 H 0.5151 0.68256 0.30394 0.0
S409 S 0.55861 0.41364 0.30908 0.0
N410 N 0.55716 0.45767 0.3499 0.0
N411 N 0.54728 0.46458 0.27833 0.0
C412 C 0.5421 0.52102 0.30097 0.0
C413 C 0.54774 0.51735 0.33956 0.0
loop_
_geom_bond_atom_site_label_1
_geom_bond_atom_site_label_2
_geom_bond_distance
_geom_bond_site_symmetry_2
_ccdc_geom_bond_type
O0 Mg1 1.990 . S
O0 C14 1.253 . S
Mg1 O0 1.990 . S
Mg1 O4 2.180 . S
Mg1 O5 2.117 . S
Mg1 O19 2.030 1_545 S
O2 Mg3 2.072 1_554 S
O2 C14 1.260 . S
Mg3 O2 2.072 1_556 S
Mg3 O4 2.099 1_556 S
Mg3 O6 2.079 . S
Mg3 O7 2.072 1_456 S
Mg3 O9 2.099 1_445 S
Mg3 O20 2.079 1_545 S
O4 Mg1 2.180 . S
O4 Mg3 2.099 1_554 S
O4 C15 1.279 . S
O5 Mg1 2.117 . S
O5 C15 1.250 . S
O6 Mg3 2.079 . S
O6 C16 1.264 . S
O7 Mg3 2.072 1_654 S
O7 C17 1.260 1_554 S
Mg8 O9 2.180 1_545 S
Mg8 O10 2.030 . S
Mg8 O11 1.990 . S
Mg8 O12 2.117 1_545 S
O9 Mg3 2.099 1_665 S
O9 Mg8 2.180 1_565 S
O9 C18 1.279 . S
O10 Mg8 2.030 . S
O10 C16 1.248 1_655 S
O11 Mg8 1.990 . S
O11 C17 1.253 . S
O12 Mg8 2.117 1_565 S
O12 C18 1.250 . S
C13 O19 1.248 . S
C13 O20 1.264 1_554 S
C14 O0 1.253 . S
C14 O2 1.260 . S
C15 O4 1.279 . S
C15 O5 1.250 . S
C16 O6 1.264 . S
C16 O10 1.248 1_455 S
C17 O7 1.260 1_556 S
C17 O11 1.253 . S
C18 O9 1.279 . S
C18 O12 1.250 . S
O19 Mg1 2.030 1_565 S
O19 C13 1.248 . S
O20 Mg3 2.079 1_565 S
O20 C13 1.264 1_556 S
O21 Mg22 1.990 . S
O21 C35 1.253 . S
Mg22 O21 1.990 . S
Mg22 O25 2.180 . S
Mg22 O26 2.117 . S
Mg22 O40 2.030 . S
O23 Mg24 2.072 . S
O23 C35 1.260 . S
Mg24 O23 2.072 . S
Mg24 O25 2.099 . S
Mg24 O27 2.079 . S
Mg24 O28 2.072 . S
Mg24 O30 2.099 . S
Mg24 O41 2.079 . S
O25 Mg22 2.180 . S
O25 Mg24 2.099 . S
O25 C36 1.279 . S
O26 Mg22 2.117 . S
O26 C36 1.250 . S
O27 Mg24 2.079 . S
O27 C37 1.264 . S
O28 Mg24 2.072 . S
O28 C38 1.260 . S
Mg29 O30 2.180 . S
Mg29 O31 2.030 . S
Mg29 O32 1.990 . S
Mg29 O33 2.117 . S
O30 Mg24 2.099 . S
O30 Mg29 2.180 . S
O30 C39 1.279 . S
O31 Mg29 2.030 . S
O31 C37 1.248 . S
O32 Mg29 1.990 . S
O32 C38 1.253 . S
O33 Mg29 2.117 . S
O33 C39 1.250 . S
C34 O40 1.248 . S
C34 O41 1.264 . S
C35 O21 1.253 . S
C35 O23 1.260 . S
C36 O25 1.279 . S
C36 O26 1.250 . S
C37 O27 1.264 . S
C37 O31 1.248 . S
C38 O28 1.260 . S
C38 O32 1.253 . S
C39 O30 1.279 . S
C39 O33 1.250 . S
O40 Mg22 2.030 . S
O40 C34 1.248 . S
O41 Mg24 2.079 . S
O41 C34 1.264 . S
C42 C43 1.391 . S
C42 C46 1.391 . S
C42 H84 0.948 . S
C43 C42 1.391 . S
C43 C44 1.391 . S
C44 C43 1.391 . S
C44 H100 0.947 . S
C44 C101 1.392 . S
C45 C46 1.391 . S
C45 C49 1.397 . S
C45 C101 1.419 . S
C46 C42 1.391 . S
C46 C45 1.391 . S
C46 C47 1.399 . S
C47 C46 1.399 . S
C47 C50 1.396 . S
C47 C59 1.453 1_565 S
C47 C60 1.684 . S
H48 C72 0.948 . S
C49 C45 1.397 . S
C49 C50 1.394 . S
C49 C68 1.723 . S
C50 C47 1.396 . S
C50 C49 1.394 . S
C50 C80 1.723 1_565 S
H51 C74 0.947 . S
H52 C75 0.948 . S
H53 C81 0.982 1_455 S
H54 C82 0.979 . S
H55 C82 0.980 . S
H56 C82 0.983 . S
H57 C81 0.979 . S
H58 C81 0.977 . S
C59 C47 1.453 1_545 S
C59 H88 0.982 . S
C59 H89 0.979 1_545 S
C59 H90 0.977 . S
C60 C47 1.684 . S
C60 H85 0.979 1_455 S
C60 H86 0.980 1_455 S
C60 H87 0.983 . S
C61 C62 1.391 . S
C61 C66 1.391 . S
C61 H91 0.948 . S
C62 C61 1.391 . S
C62 C63 1.391 1_465 S
C63 C62 1.391 1_645 S
C63 C64 1.392 . S
C63 H92 0.947 . S
C64 C63 1.392 . S
C64 C65 1.419 1_655 S
C64 H93 0.948 . S
C65 C64 1.419 1_455 S
C65 C66 1.391 1_545 S
C65 C69 1.397 . S
C66 C61 1.391 . S
C66 C65 1.391 1_565 S
C66 C67 1.399 . S
C67 C66 1.399 . S
C67 C68 1.396 . S
C67 C70 1.453 . S
C67 C71 1.684 . S
C68 C49 1.723 . S
C68 C67 1.396 . S
C68 C69 1.394 1_565 S
C69 C65 1.397 . S
C69 C68 1.394 1_545 S
C69 C79 1.723 1_455 S
C70 C67 1.453 . S
C70 H94 0.982 . S
C70 H95 0.979 . S
C70 H96 0.977 . S
C71 C67 1.684 . S
C71 H97 0.979 . S
C71 H98 0.980 . S
C71 H99 0.983 . S
C72 H48 0.948 . S
C72 C73 1.391 . S
C72 C77 1.391 . S
C73 C72 1.391 . S
C73 C74 1.391 . S
C74 H51 0.947 . S
C74 C73 1.391 . S
C74 C75 1.392 . S
C75 H52 0.948 . S
C75 C74 1.392 . S
C75 C76 1.419 . S
C76 C75 1.419 . S
C76 C77 1.391 . S
C76 C80 1.397 1_655 S
C77 C72 1.391 . S
C77 C76 1.391 . S
C77 C78 1.399 . S
C78 C77 1.399 . S
C78 C79 1.396 . S
C78 C81 1.453 . S
C78 C82 1.684 . S
C79 C69 1.723 1_655 S
C79 C78 1.396 . S
C79 C80 1.394 1_655 S
C80 C50 1.723 1_545 S
C80 C76 1.397 1_455 S
C80 C79 1.394 1_455 S
C81 H53 0.982 1_655 S
C81 H57 0.979 . S
C81 H58 0.977 . S
C81 C78 1.453 . S
C82 H54 0.979 . S
C82 H55 0.980 . S
C82 H56 0.983 . S
C82 C78 1.684 . S
H83 C101 0.948 . S
H84 C42 0.948 . S
H85 C60 0.979 1_655 S
H86 C60 0.980 1_655 S
H87 C60 0.983 . S
H88 C59 0.982 . S
H89 C59 0.979 1_565 S
H90 C59 0.977 . S
H91 C61 0.948 . S
H92 C63 0.947 . S
H93 C64 0.948 . S
H94 C70 0.982 . S
H95 C70 0.979 . S
H96 C70 0.977 . S
H97 C71 0.979 . S
H98 C71 0.980 . S
H99 C71 0.983 . S
H100 C44 0.947 . S
C101 C44 1.392 . S
C101 C45 1.419 . S
C101 H83 0.948 . S
C102 C103 1.391 . S
C102 C106 1.391 . S
C102 H144 0.948 . S
C103 C102 1.391 . S
C103 C104 1.391 . S
C104 C103 1.391 . S
C104 H160 0.947 . S
C104 C161 1.392 . S
C105 C106 1.391 . S
C105 C109 1.397 . S
C105 C161 1.419 . S
C106 C102 1.391 . S
C106 C105 1.391 . S
C106 C107 1.399 . S
C107 C106 1.399 . S
C107 C110 1.396 . S
C107 C119 1.453 . S
C107 C120 1.684 1_455 S
H108 C132 0.948 . S
C109 C105 1.397 . S
C109 C110 1.394 . S
C109 C128 1.723 . S
C110 C107 1.396 . S
C110 C109 1.394 . S
C110 C140 1.723 1_455 S
H111 C134 0.947 . S
H112 C135 0.948 1_545 S
H113 C141 0.982 . S
H114 C142 0.979 1_545 S
H115 C142 0.980 . S
H116 C142 0.983 . S
H117 C141 0.979 . S
H118 C141 0.977 . S
C119 C107 1.453 . S
C119 H148 0.982 . S
C119 H149 0.979 . S
C119 H150 0.977 . S
C120 C107 1.684 1_655 S
C120 H145 0.979 . S
C120 H146 0.980 . S
C120 H147 0.983 . S
C121 C122 1.391 1_455 S
C121 C126 1.391 . S
C121 H151 0.948 . S
C122 C121 1.391 1_655 S
C122 C123 1.391 . S
C123 C122 1.391 . S
C123 C124 1.392 . S
C123 H152 0.947 . S
C124 C123 1.392 . S
C124 C125 1.419 . S
C124 H153 0.948 . S
C125 C124 1.419 . S
C125 C126 1.391 1_655 S
C125 C129 1.397 . S
C126 C121 1.391 . S
C126 C125 1.391 1_455 S
C126 C127 1.399 . S
C127 C126 1.399 . S
C127 C128 1.396 . S
C127 C130 1.453 . S
C127 C131 1.684 . S
C128 C109 1.723 . S
C128 C127 1.396 . S
C128 C129 1.394 1_455 S
C129 C125 1.397 . S
C129 C128 1.394 1_655 S
C129 C139 1.723 . S
C130 C127 1.453 . S
C130 H154 0.982 . S
C130 H155 0.979 . S
C130 H156 0.977 . S
C131 C127 1.684 . S
C131 H157 0.979 . S
C131 H158 0.980 . S
C131 H159 0.983 . S
C132 H108 0.948 . S
C132 C133 1.391 . S
C132 C137 1.391 . S
C133 C132 1.391 . S
C133 C134 1.391 . S
C134 H111 0.947 . S
C134 C133 1.391 . S
C134 C135 1.392 . S
C135 H112 0.948 1_565 S
C135 C134 1.392 . S
C135 C136 1.419 . S
C136 C135 1.419 . S
C136 C137 1.391 . S
C136 C140 1.397 1_565 S
C137 C132 1.391 . S
C137 C136 1.391 . S
C137 C138 1.399 . S
C138 C137 1.399 . S
C138 C139 1.396 1_565 S
C138 C141 1.453 . S
C138 C142 1.684 . S
C139 C129 1.723 . S
C139 C138 1.396 1_545 S
C139 C140 1.394 . S
C140 C110 1.723 1_655 S
C140 C136 1.397 1_545 S
C140 C139 1.394 . S
C141 H113 0.982 . S
C141 H117 0.979 . S
C141 H118 0.977 . S
C141 C138 1.453 . S
C142 H114 0.979 1_565 S
C142 H115 0.980 . S
C142 H116 0.983 . S
C142 C138 1.684 . S
H143 C161 0.948 . S
H144 C102 0.948 . S
H145 C120 0.979 . S
H146 C120 0.980 . S
H147 C120 0.983 . S
H148 C119 0.982 . S
H149 C119 0.979 . S
H150 C119 0.977 . S
H151 C121 0.948 . S
H152 C123 0.947 . S
H153 C124 0.948 . S
H154 C130 0.982 . S
H155 C130 0.979 . S
H156 C130 0.977 . S
H157 C131 0.979 . S
H158 C131 0.980 . S
H159 C131 0.983 . S
H160 C104 0.947 . S
C161 C104 1.392 . S
C161 C105 1.419 . S
C161 H143 0.948 . S
C162 C163 1.395 . S
C162 C166 1.397 . S
C162 H204 0.939 1_556 S
C163 C162 1.395 . S
C163 C164 1.391 . S
C164 C163 1.391 . S
C164 H220 0.947 . S
C164 C221 1.392 . S
C165 C166 1.391 . S
C165 C169 1.397 . S
C165 C221 1.419 . S
C166 C162 1.397 . S
C166 C165 1.391 . S
C166 C167 1.399 . S
C167 C166 1.399 . S
C167 C170 1.396 . S
C167 C179 1.453 1_556 S
C167 C180 1.684 1_556 S
H168 C192 0.948 . S
C169 C165 1.397 . S
C169 C170 1.394 . S
C169 C188 1.723 . S
C170 C167 1.396 . S
C170 C169 1.394 . S
C170 C200 1.723 . S
H171 C194 0.947 . S
H172 C195 0.948 . S
H173 C201 0.982 . S
H174 C202 0.979 . S
H175 C202 0.980 . S
H176 C202 0.983 . S
H177 C201 0.979 . S
H178 C201 0.977 . S
C179 C167 1.453 1_554 S
C179 H208 0.982 . S
C179 H209 0.979 . S
C179 H210 0.977 . S
C180 C167 1.684 1_554 S
C180 H205 0.979 . S
C180 H206 0.980 . S
C180 H207 0.983 . S
C181 C182 1.391 . S
C181 C186 1.391 . S
C181 H211 0.948 . S
C182 C181 1.391 . S
C182 C183 1.391 . S
C183 C182 1.391 . S
C183 C184 1.392 . S
C183 H212 0.947 . S
C184 C183 1.392 . S
C184 C185 1.419 . S
C184 H213 0.948 . S
C185 C184 1.419 . S
C185 C186 1.391 . S
C185 C189 1.397 . S
C186 C181 1.391 . S
C186 C185 1.391 . S
C186 C187 1.399 . S
C187 C186 1.399 . S
C187 C188 1.396 . S
C187 C190 1.453 . S
C187 C191 1.684 . S
C188 C169 1.723 . S
C188 C187 1.396 . S
C188 C189 1.394 . S
C189 C185 1.397 . S
C189 C188 1.394 . S
C189 C199 1.723 . S
C190 C187 1.453 . S
C190 H214 0.982 . S
C190 H215 0.979 . S
C190 H216 0.977 . S
C191 C187 1.684 . S
C191 H217 0.979 . S
C191 H218 0.980 . S
C191 H219 0.983 . S
C192 H168 0.948 . S
C192 C193 1.391 1_556 S
C192 C197 1.391 . S
C193 C192 1.391 1_554 S
C193 C194 1.391 . S
C194 H171 0.947 . S
C194 C193 1.391 . S
C194 C195 1.392 . S
C195 H172 0.948 . S
C195 C194 1.392 . S
C195 C196 1.419 1_554 S
C196 C195 1.419 1_556 S
C196 C197 1.391 . S
C196 C200 1.397 . S
C197 C192 1.391 . S
C197 C196 1.391 . S
C197 C198 1.399 . S
C198 C197 1.399 . S
C198 C199 1.396 . S
C198 C201 1.453 . S
C198 C202 1.684 . S
C199 C189 1.723 . S
C199 C198 1.396 . S
C199 C200 1.394 . S
C200 C170 1.723 . S
C200 C196 1.397 . S
C200 C199 1.394 . S
C201 H173 0.982 . S
C201 H177 0.979 . S
C201 H178 0.977 . S
C201 C198 1.453 . S
C202 H174 0.979 . S
C202 H175 0.980 . S
C202 H176 0.983 . S
C202 C198 1.684 . S
H203 C221 0.948 . S
H204 C162 0.939 1_554 S
H205 C180 0.979 . S
H206 C180 0.980 . S
H207 C180 0.983 . S
H208 C179 0.982 . S
H209 C179 0.979 . S
H210 C179 0.977 . S
H211 C181 0.948 . S
H212 C183 0.947 . S
H213 C184 0.948 . S
H214 C190 0.982 . S
H215 C190 0.979 . S
H216 C190 0.977 . S
H217 C191 0.979 . S
H218 C191 0.980 . S
H219 C191 0.983 . S
H220 C164 0.947 . S
C221 C164 1.392 . S
C221 C165 1.419 . S
C221 H203 0.948 . S
C222 C223 1.391 . S
C222 C226 1.391 . S
C222 H264 0.948 1_554 S
C223 C222 1.391 . S
C223 C224 1.391 . S
C224 C223 1.391 . S
C224 H280 0.947 . S
C224 C281 1.392 . S
C225 C226 1.391 . S
C225 C229 1.397 . S
C225 C281 1.419 . S
C226 C222 1.391 . S
C226 C225 1.391 . S
C226 C227 1.399 . S
C227 C226 1.399 . S
C227 C230 1.396 . S
C227 C239 1.453 1_554 S
C227 C240 1.684 1_554 S
H228 C252 0.948 . S
C229 C225 1.397 . S
C229 C230 1.394 . S
C229 C248 1.723 . S
C230 C227 1.396 . S
C230 C229 1.394 . S
C230 C260 1.723 . S
H231 C254 0.947 . S
H232 C255 0.948 1_556 S
H233 C261 0.982 . S
H234 C262 0.979 . S
H235 C262 0.980 . S
H236 C262 0.983 . S
H237 C261 0.979 . S
H238 C261 0.977 . S
C239 C227 1.453 1_556 S
C239 H268 0.982 1_556 S
C239 H269 0.979 . S
C239 H270 0.977 . S
C240 C227 1.684 1_556 S
C240 H265 0.979 . S
C240 H266 0.980 . S
C240 H267 0.983 . S
C241 C242 1.391 . S
C241 C246 1.391 . S
C241 H271 0.948 . S
C242 C241 1.391 . S
C242 C243 1.391 . S
C243 C242 1.391 . S
C243 C244 1.392 . S
C243 H272 0.947 . S
C244 C243 1.392 . S
C244 C245 1.419 . S
C244 H273 0.948 . S
C245 C244 1.419 . S
C245 C246 1.391 . S
C245 C249 1.397 . S
C246 C241 1.391 . S
C246 C245 1.391 . S
C246 C247 1.399 . S
C247 C246 1.399 . S
C247 C248 1.396 . S
C247 C250 1.453 . S
C247 C251 1.684 . S
C248 C229 1.723 . S
C248 C247 1.396 . S
C248 C249 1.394 . S
C249 C245 1.397 . S
C249 C248 1.394 . S
C249 C259 1.723 . S
C250 C247 1.453 . S
C250 H274 0.982 . S
C250 H275 0.979 . S
C250 H276 0.977 . S
C251 C247 1.684 . S
C251 H277 0.979 . S
C251 H278 0.980 . S
C251 H279 0.983 . S
C252 H228 0.948 . S
C252 C253 1.391 . S
C252 C257 1.391 . S
C253 C252 1.391 . S
C253 C254 1.391 1_554 S
C254 H231 0.947 . S
C254 C253 1.391 1_556 S
C254 C255 1.392 1_556 S
C255 H232 0.948 1_554 S
C255 C254 1.392 1_554 S
C255 C256 1.419 . S
C256 C255 1.419 . S
C256 C257 1.391 . S
C256 C260 1.397 . S
C257 C252 1.391 . S
C257 C256 1.391 . S
C257 C258 1.399 . S
C258 C257 1.399 . S
C258 C259 1.396 . S
C258 C261 1.453 . S
C258 C262 1.684 . S
C259 C249 1.723 . S
C259 C258 1.396 . S
C259 C260 1.394 . S
C260 C230 1.723 . S
C260 C256 1.397 . S
C260 C259 1.394 . S
C261 H233 0.982 . S
C261 H237 0.979 . S
C261 H238 0.977 . S
C261 C258 1.453 . S
C262 H234 0.979 . S
C262 H235 0.980 . S
C262 H236 0.983 . S
C262 C258 1.684 . S
H263 C281 0.948 . S
H264 C222 0.948 1_556 S
H265 C240 0.979 . S
H266 C240 0.980 . S
H267 C240 0.983 . S
H268 C239 0.982 1_554 S
H269 C239 0.979 . S
H270 C239 0.977 . S
H271 C241 0.948 . S
H272 C243 0.947 . S
H273 C244 0.948 . S
H274 C250 0.982 . S
H275 C250 0.979 . S
H276 C250 0.977 . S
H277 C251 0.979 . S
H278 C251 0.980 . S
H279 C251 0.983 . S
H280 C224 0.947 . S
C281 C224 1.392 . S
C281 C225 1.419 . S
C281 H263 0.948 . S
C282 C283 1.369 1_556 S
C282 C284 1.419 . S
C282 H286 0.930 . S
C283 C282 1.369 1_554 S
C283 C292 1.429 . S
C284 C282 1.419 . S
C284 C285 1.363 1_556 S
C284 H287 0.929 . S
C285 C284 1.363 1_554 S
C285 C291 1.428 . S
H286 C282 0.930 . S
H287 C284 0.929 . S
S288 N289 1.613 . S
S288 N290 1.610 . S
N289 S288 1.613 . S
N289 C292 1.350 . S
N290 S288 1.610 . S
N290 C291 1.351 . S
C291 C285 1.428 . S
C291 N290 1.351 . S
C291 C292 1.434 . S
C292 C283 1.429 . S
C292 N289 1.350 . S
C292 C291 1.434 . S
C293 C294 1.369 1_556 S
C293 C295 1.419 . S
C293 H297 0.930 . S
C294 C293 1.369 1_554 S
C294 C303 1.429 . S
C295 C293 1.419 . S
C295 C296 1.363 1_556 S
C295 H298 0.929 . S
C296 C295 1.363 1_554 S
C296 C302 1.428 . S
H297 C293 0.930 . S
H298 C295 0.929 . S
S299 N300 1.613 . S
S299 N301 1.610 . S
N300 S299 1.613 . S
N300 C303 1.350 . S
N301 S299 1.610 . S
N301 C302 1.351 . S
C302 C296 1.428 . S
C302 N301 1.351 . S
C302 C303 1.434 . S
C303 C294 1.429 . S
C303 N300 1.350 . S
C303 C302 1.434 . S
C304 C305 1.369 . S
C304 C306 1.419 . S
C304 H308 0.930 1_554 S
C305 C304 1.369 . S
C305 C314 1.429 . S
C306 C304 1.419 . S
C306 C307 1.363 . S
C306 H309 0.929 1_554 S
C307 C306 1.363 . S
C307 C313 1.428 . S
H308 C304 0.930 1_556 S
H309 C306 0.929 1_556 S
S310 N311 1.613 . S
S310 N312 1.610 . S
N311 S310 1.613 . S
N311 C314 1.350 . S
N312 S310 1.610 . S
N312 C313 1.351 . S
C313 C307 1.428 . S
C313 N312 1.351 . S
C313 C314 1.434 . S
C314 C305 1.429 . S
C314 N311 1.350 . S
C314 C313 1.434 . S
C315 C316 1.369 1_554 S
C315 C317 1.419 . S
C315 H319 0.930 . S
C316 C315 1.369 1_556 S
C316 C325 1.429 . S
C317 C315 1.419 . S
C317 C318 1.363 1_554 S
C317 H320 0.929 . S
C318 C317 1.363 1_556 S
C318 C324 1.428 . S
H319 C315 0.930 . S
H320 C317 0.929 . S
S321 N322 1.613 . S
S321 N323 1.610 . S
N322 S321 1.613 . S
N322 C325 1.350 . S
N323 S321 1.610 . S
N323 C324 1.351 . S
C324 C318 1.428 . S
C324 N323 1.351 . S
C324 C325 1.434 . S
C325 C316 1.429 . S
C325 N322 1.350 . S
C325 C324 1.434 . S
C326 C327 1.369 . S
C326 C328 1.419 . S
C326 H330 0.930 . S
C327 C326 1.369 . S
C327 C336 1.429 . S
C328 C326 1.419 . S
C328 C329 1.363 . S
C328 H331 0.929 . S
C329 C328 1.363 . S
C329 C335 1.428 . S
H330 C326 0.930 . S
H331 C328 0.929 . S
S332 N333 1.613 . S
S332 N334 1.610 . S
N333 S332 1.613 . S
N333 C336 1.350 . S
N334 S332 1.610 . S
N334 C335 1.351 . S
C335 C329 1.428 . S
C335 N334 1.351 . S
C335 C336 1.434 . S
C336 C327 1.429 . S
C336 N333 1.350 . S
C336 C335 1.434 . S
C337 C338 1.369 . S
C337 C339 1.419 . S
C337 H341 0.930 . S
C338 C337 1.369 . S
C338 C347 1.429 . S
C339 C337 1.419 . S
C339 C340 1.363 . S
C339 H342 0.929 . S
C340 C339 1.363 . S
C340 C346 1.428 . S
H341 C337 0.930 . S
H342 C339 0.929 . S
S343 N344 1.613 . S
S343 N345 1.610 . S
N344 S343 1.613 . S
N344 C347 1.350 . S
N345 S343 1.610 . S
N345 C346 1.351 . S
C346 C340 1.428 . S
C346 N345 1.351 . S
C346 C347 1.434 . S
C347 C338 1.429 . S
C347 N344 1.350 . S
C347 C346 1.434 . S
C348 C349 1.369 . S
C348 C350 1.419 . S
C348 H352 0.930 . S
C349 C348 1.369 . S
C349 C358 1.429 . S
C350 C348 1.419 . S
C350 C351 1.363 . S
C350 H353 0.929 . S
C351 C350 1.363 . S
C351 C357 1.428 . S
H352 C348 0.930 . S
H353 C350 0.929 . S
S354 N355 1.613 . S
S354 N356 1.610 . S
N355 S354 1.613 . S
N355 C358 1.350 . S
N356 S354 1.610 . S
N356 C357 1.351 . S
C357 C351 1.428 . S
C357 N356 1.351 . S
C357 C358 1.434 . S
C358 C349 1.429 . S
C358 N355 1.350 . S
C358 C357 1.434 . S
C359 C360 1.369 . S
C359 C361 1.419 . S
C359 H363 0.930 . S
C360 C359 1.369 . S
C360 C369 1.429 . S
C361 C359 1.419 . S
C361 C362 1.363 . S
C361 H364 0.929 . S
C362 C361 1.363 . S
C362 C368 1.428 . S
H363 C359 0.930 . S
H364 C361 0.929 . S
S365 N366 1.613 . S
S365 N367 1.610 . S
N366 S365 1.613 . S
N366 C369 1.350 . S
N367 S365 1.610 . S
N367 C368 1.351 . S
C368 C362 1.428 . S
C368 N367 1.351 . S
C368 C369 1.434 . S
C369 C360 1.429 . S
C369 N366 1.350 . S
C369 C368 1.434 . S
C370 C371 1.369 1_565 S
C370 C372 1.419 . S
C370 H374 0.930 . S
C371 C370 1.369 1_545 S
C371 C380 1.429 . S
C372 C370 1.419 . S
C372 C373 1.363 . S
C372 H375 0.929 . S
C373 C372 1.363 . S
C373 C379 1.428 1_565 S
H374 C370 0.930 . S
H375 C372 0.929 . S
S376 N377 1.613 . S
S376 N378 1.610 . S
N377 S376 1.613 . S
N377 C380 1.350 1_655 S
N378 S376 1.610 . S
N378 C379 1.351 1_655 S
C379 C373 1.428 1_545 S
C379 N378 1.351 1_455 S
C379 C380 1.434 . S
C380 C371 1.429 . S
C380 N377 1.350 1_455 S
C380 C379 1.434 . S
C381 C382 1.369 . S
C381 C383 1.419 1_455 S
C381 H385 0.930 1_445 S
C382 C381 1.369 . S
C382 C391 1.429 . S
C383 C381 1.419 1_655 S
C383 C384 1.363 1_655 S
C383 H386 0.930 1_545 S
C384 C383 1.363 1_455 S
C384 C390 1.428 . S
H385 C381 0.930 1_665 S
H386 C383 0.930 1_565 S
S387 N388 1.613 . S
S387 N389 1.610 . S
N388 S387 1.613 . S
N388 C391 1.350 . S
N389 S387 1.610 . S
N389 C390 1.351 . S
C390 C384 1.428 . S
C390 N389 1.351 . S
C390 C391 1.434 . S
C391 C382 1.429 . S
C391 N388 1.350 . S
C391 C390 1.434 . S
C392 C393 1.369 . S
C392 C394 1.419 . S
C392 H396 0.930 . S
C393 C392 1.369 . S
C393 C402 1.429 . S
C394 C392 1.419 . S
C394 C395 1.363 . S
C394 H397 0.929 . S
C395 C394 1.363 . S
C395 C401 1.428 . S
H396 C392 0.930 . S
H397 C394 0.929 . S
S398 N399 1.613 . S
S398 N400 1.610 . S
N399 S398 1.613 . S
N399 C402 1.350 . S
N400 S398 1.610 . S
N400 C401 1.351 . S
C401 C395 1.428 . S
C401 N400 1.351 . S
C401 C402 1.434 . S
C402 C393 1.429 . S
C402 N399 1.350 . S
C402 C401 1.434 . S
C403 C404 1.369 . S
C403 C405 1.419 . S
C403 H407 0.930 . S
C404 C403 1.369 . S
C404 C413 1.429 . S
C405 C403 1.419 . S
C405 C406 1.363 . S
C405 H408 0.929 . S
C406 C405 1.363 . S
C406 C412 1.428 . S
H407 C403 0.930 . S
H408 C405 0.929 . S
S409 N410 1.613 . S
S409 N411 1.610 . S
N410 S409 1.613 . S
N410 C413 1.350 . S
N411 S409 1.610 . S
N411 C412 1.351 . S
C412 C406 1.428 . S
C412 N411 1.351 . S
C412 C413 1.434 . S
C413 C404 1.429 . S
C413 N410 1.350 . S
C413 C412 1.434 . S
C285 C253 1.622 . S
C283 C15 1.508 . S
C294 C13 1.610 . S
C296 C193 1.634 . S
C305 C18 1.308 1_554 S
C307 C223 1.471 . S
C316 C17 1.418 . S
C318 C163 1.377 . S
C327 C36 1.513 . S
C329 C133 1.623 . S
C338 C34 1.610 . S
C340 C73 1.634 . S
C351 C103 1.473 . S
C349 C39 1.303 . S
C362 C43 1.378 . S
C360 C38 1.412 . S
C371 C14 1.515 . S
C373 C62 1.521 . S
C382 C16 1.404 . S
C384 C122 1.436 1_455 S
C395 C182 1.527 . S
C393 C35 1.515 . S
C404 C37 1.405 . S
C406 C242 1.431 . S
