# Generated by pormake.
# Topology pyr, (3,6)-cn, num edge types: 1
# Building blocks:
#     Node 0, Type 0, BuildingBlock: QEWDON_clean_linker_0, # of connection points: 3
#     Node 1, Type 0, BuildingBlock: QEWDON_clean_linker_0, # of connection points: 3
#     Node 2, Type 0, BuildingBlock: QEWDON_clean_linker_0, # of connection points: 3
#     Node 3, Type 0, BuildingBlock: QEWDON_clean_linker_0, # of connection points: 3
#     Node 4, Type 0, BuildingBlock: QEWDON_clean_linker_0, # of connection points: 3
#     Node 5, Type 0, BuildingBlock: QEWDON_clean_linker_0, # of connection points: 3
#     Node 6, Type 0, BuildingBlock: QEWDON_clean_linker_0, # of connection points: 3
#     Node 7, Type 0, BuildingBlock: QEWDON_clean_linker_0, # of connection points: 3
#     Node 8, Type 1, BuildingBlock: PAMTOO_clean_sbu_0, # of connection points: 6
#     Node 9, Type 1, BuildingBlock: PAMTOO_clean_sbu_0, # of connection points: 6
#     Node 10, Type 1, BuildingBlock: PAMTOO_clean_sbu_0, # of connection points: 6
#     Node 11, Type 1, BuildingBlock: PAMTOO_clean_sbu_0, # of connection points: 6
#     Edge 12, Type (0, 1), BuildingBlock: XIVTED_clean_linker_0, # of connection points: 2
#     Edge 13, Type (0, 1), BuildingBlock: XIVTED_clean_linker_0, # of connection points: 2
#     Edge 14, Type (0, 1), BuildingBlock: XIVTED_clean_linker_0, # of connection points: 2
#     Edge 15, Type (0, 1), BuildingBlock: XIVTED_clean_linker_0, # of connection points: 2
#     Edge 16, Type (0, 1), BuildingBlock: XIVTED_clean_linker_0, # of connection points: 2
#     Edge 17, Type (0, 1), BuildingBlock: XIVTED_clean_linker_0, # of connection points: 2
#     Edge 18, Type (0, 1), BuildingBlock: XIVTED_clean_linker_0, # of connection points: 2
#     Edge 19, Type (0, 1), BuildingBlock: XIVTED_clean_linker_0, # of connection points: 2
#     Edge 20, Type (0, 1), BuildingBlock: XIVTED_clean_linker_0, # of connection points: 2
#     Edge 21, Type (0, 1), BuildingBlock: XIVTED_clean_linker_0, # of connection points: 2
#     Edge 22, Type (0, 1), BuildingBlock: XIVTED_clean_linker_0, # of connection points: 2
#     Edge 23, Type (0, 1), BuildingBlock: XIVTED_clean_linker_0, # of connection points: 2
#     Edge 24, Type (0, 1), BuildingBlock: XIVTED_clean_linker_0, # of connection points: 2
#     Edge 25, Type (0, 1), BuildingBlock: XIVTED_clean_linker_0, # of connection points: 2
#     Edge 26, Type (0, 1), BuildingBlock: XIVTED_clean_linker_0, # of connection points: 2
#     Edge 27, Type (0, 1), BuildingBlock: XIVTED_clean_linker_0, # of connection points: 2
#     Edge 28, Type (0, 1), BuildingBlock: XIVTED_clean_linker_0, # of connection points: 2
#     Edge 29, Type (0, 1), BuildingBlock: XIVTED_clean_linker_0, # of connection points: 2
#     Edge 30, Type (0, 1), BuildingBlock: XIVTED_clean_linker_0, # of connection points: 2
#     Edge 31, Type (0, 1), BuildingBlock: XIVTED_clean_linker_0, # of connection points: 2
#     Edge 32, Type (0, 1), BuildingBlock: XIVTED_clean_linker_0, # of connection points: 2
#     Edge 33, Type (0, 1), BuildingBlock: XIVTED_clean_linker_0, # of connection points: 2
#     Edge 34, Type (0, 1), BuildingBlock: XIVTED_clean_linker_0, # of connection points: 2
#     Edge 35, Type (0, 1), BuildingBlock: XIVTED_clean_linker_0, # of connection points: 2
# Relax obj value: 0.146
# Max RMSD: 0.247
# Mean RMSD: 0.179
data_MOF--net-pyr--node1-PAMTOO_clean_sbu_0--node2-QEWDON_clean_linker_0--edge1-XIVTED_clean_linker_0
_symmetry_space_group_name_H-M    P1
_symmetry_Int_Tables_number       1
_symmetry_cell_setting            triclinic
loop_
_symmetry_equiv_pos_as_xyz
'x, y, z'
_cell_length_a     37.399107
_cell_length_b     40.20975
_cell_length_c     42.942502
_cell_angle_alpha  90.203704
_cell_angle_beta   90.547132
_cell_angle_gamma 112.9725
loop_
_atom_site_label
_atom_site_type_symbol
_atom_site_fract_x
_atom_site_fract_y
_atom_site_fract_z
_atom_type_partial_charge
H0 H 0.40362 0.31436 0.16941 0.0
C1 C 0.38717 0.3052 0.19057 0.0
C2 C 0.38414 0.27242 0.20397 0.0
C3 C 0.36756 0.3254 0.20352 0.0
H4 H 0.36011 0.23545 0.24168 0.0
C5 C 0.36227 0.26057 0.23105 0.0
C6 C 0.34284 0.28058 0.24445 0.0
C7 C 0.34515 0.31276 0.23034 0.0
C8 C 0.37017 0.35956 0.18888 0.0
H9 H 0.33041 0.32846 0.2407 0.0
C10 C 0.33637 0.36601 0.1831 0.0
C11 C 0.33851 0.39829 0.16903 0.0
C12 C 0.40637 0.38574 0.18047 0.0
H13 H 0.43283 0.38145 0.18485 0.0
C14 C 0.40878 0.41796 0.1668 0.0
H15 H 0.30834 0.34535 0.18875 0.0
C16 C 0.37517 0.42429 0.16112 0.0
H17 H 0.37796 0.44969 0.15078 0.0
H18 H 0.43683 0.43815 0.16064 0.0
H19 H 0.15331 0.80713 0.76417 0.0
C20 C 0.17375 0.79698 0.75441 0.0
C21 C 0.20695 0.7997 0.77159 0.0
C22 C 0.16659 0.78088 0.72469 0.0
H23 H 0.25995 0.7905 0.7708 0.0
C24 C 0.23322 0.78665 0.75842 0.0
C25 C 0.22661 0.77062 0.72871 0.0
C26 C 0.19294 0.76751 0.71208 0.0
C27 C 0.13261 0.77949 0.70599 0.0
H28 H 0.18759 0.75537 0.68903 0.0
C29 C 0.1263 0.81123 0.70046 0.0
C30 C 0.09658 0.81075 0.67999 0.0
C31 C 0.10792 0.74695 0.69186 0.0
H32 H 0.11223 0.72218 0.69587 0.0
C33 C 0.07765 0.74622 0.67222 0.0
H34 H 0.14583 0.83664 0.71064 0.0
C35 C 0.07223 0.778 0.666 0.0
H36 H 0.04922 0.77712 0.65008 0.0
H37 H 0.05879 0.72108 0.66134 0.0
H38 H 0.69625 0.47629 0.88969 0.0
C39 C 0.68507 0.44746 0.89382 0.0
C40 C 0.70634 0.43299 0.91276 0.0
C41 C 0.64752 0.42523 0.88286 0.0
H42 H 0.70835 0.38435 0.93141 0.0
C43 C 0.69088 0.39574 0.91846 0.0
C44 C 0.65245 0.37364 0.91035 0.0
C45 C 0.63112 0.38852 0.89186 0.0
C46 C 0.62219 0.4419 0.8684 0.0
H47 H 0.60109 0.3723 0.88591 0.0
C48 C 0.62834 0.4569 0.83809 0.0
C49 C 0.60392 0.47349 0.8261 0.0
C50 C 0.59151 0.44342 0.88611 0.0
H51 H 0.5863 0.43222 0.90935 0.0
C52 C 0.56765 0.45983 0.87439 0.0
H53 H 0.6518 0.45577 0.82411 0.0
C54 C 0.57383 0.47485 0.84475 0.0
H55 H 0.55457 0.48715 0.83613 0.0
H56 H 0.5442 0.46093 0.88838 0.0
H57 H 0.91846 0.78472 0.36015 0.0
C58 C 0.89509 0.76673 0.37427 0.0
C59 C 0.89221 0.77573 0.40569 0.0
C60 C 0.86656 0.73551 0.36056 0.0
H61 H 0.85745 0.7604 0.44694 0.0
C62 C 0.86043 0.75315 0.42305 0.0
C63 C 0.83085 0.7229 0.40962 0.0
C64 C 0.83452 0.71378 0.37847 0.0
C65 C 0.86483 0.73062 0.32613 0.0
H66 H 0.81116 0.69133 0.36745 0.0
C67 C 0.88733 0.71502 0.30976 0.0
C68 C 0.88452 0.71189 0.2768 0.0
C69 C 0.83959 0.74236 0.30938 0.0
H70 H 0.82209 0.75429 0.32142 0.0
C71 C 0.83678 0.73919 0.27707 0.0
H72 H 0.90692 0.70584 0.32241 0.0
C73 C 0.85908 0.72423 0.26091 0.0
H74 H 0.85628 0.72207 0.23576 0.0
H75 H 0.81725 0.74846 0.26446 0.0
H76 H 0.70858 0.77978 0.95571 0.0
C77 C 0.71437 0.78956 0.93203 0.0
C78 C 0.74986 0.7941 0.91826 0.0
C79 C 0.68714 0.7994 0.91587 0.0
H80 H 0.78456 0.81068 0.87711 0.0
C81 C 0.75719 0.80722 0.88777 0.0
C82 C 0.72998 0.81641 0.87106 0.0
C83 C 0.69513 0.81284 0.88545 0.0
C84 C 0.65085 0.79679 0.93107 0.0
H85 H 0.67391 0.81999 0.87289 0.0
C86 C 0.6413 0.82726 0.93288 0.0
C87 C 0.60727 0.82538 0.94787 0.0
C88 C 0.6259 0.76412 0.9441 0.0
H89 H 0.63275 0.74034 0.94294 0.0
C90 C 0.59165 0.76183 0.9584 0.0
H91 H 0.6607 0.85256 0.92297 0.0
C92 C 0.58233 0.79221 0.96033 0.0
H93 H 0.55613 0.78995 0.9723 0.0
H94 H 0.57245 0.73652 0.96833 0.0
H95 H 0.86311 0.28265 0.47835 0.0
C96 C 0.84701 0.27298 0.45683 0.0
C97 C 0.85599 0.24844 0.4385 0.0
C98 C 0.81692 0.28395 0.44816 0.0
H99 H 0.84387 0.21795 0.39571 0.0
C100 C 0.83677 0.23681 0.40992 0.0
C101 C 0.80712 0.24786 0.40035 0.0
C102 C 0.79715 0.27114 0.4197 0.0
C103 C 0.8046 0.30662 0.46982 0.0
H104 H 0.7727 0.27776 0.41313 0.0
C105 C 0.78776 0.33013 0.45843 0.0
C106 C 0.77477 0.3502 0.47901 0.0
C107 C 0.80839 0.30396 0.50235 0.0
H108 H 0.81959 0.28526 0.51236 0.0
C109 C 0.7967 0.32472 0.52273 0.0
H110 H 0.7847 0.33305 0.4336 0.0
C111 C 0.77996 0.34769 0.51122 0.0
H112 H 0.76979 0.3625 0.5276 0.0
H113 H 0.79977 0.32234 0.54762 0.0
H114 H 0.44853 0.7866 0.24543 0.0
C115 C 0.41787 0.77297 0.23992 0.0
C116 C 0.40041 0.78865 0.21849 0.0
C117 C 0.39685 0.73796 0.25157 0.0
H118 H 0.34902 0.7812 0.19205 0.0
C119 C 0.36158 0.76948 0.20952 0.0
C120 C 0.34005 0.73452 0.22044 0.0
C121 C 0.35793 0.7191 0.24182 0.0
C122 C 0.41824 0.71715 0.26546 0.0
H123 H 0.3425 0.69157 0.24948 0.0
C124 C 0.42232 0.71322 0.29801 0.0
C125 C 0.4431 0.69257 0.30919 0.0
C126 C 0.43427 0.69997 0.24462 0.0
H127 H 0.43125 0.70244 0.2197 0.0
C128 C 0.45388 0.67917 0.25548 0.0
H129 H 0.41009 0.72644 0.31428 0.0
C130 C 0.45821 0.67542 0.28732 0.0
H131 H 0.47334 0.65868 0.29487 0.0
H132 H 0.46578 0.6658 0.2391 0.0
H133 H 0.22094 0.44555 0.7699 0.0
C134 C 0.20167 0.42292 0.75611 0.0
C135 C 0.2127 0.41692 0.72591 0.0
C136 C 0.16769 0.39749 0.76958 0.0
H137 H 0.19821 0.38131 0.68635 0.0
C138 C 0.18878 0.38613 0.70906 0.0
C139 C 0.15477 0.36047 0.72167 0.0
C140 C 0.1442 0.36682 0.75184 0.0
C141 C 0.16093 0.39769 0.80389 0.0
H142 H 0.11848 0.34705 0.76231 0.0
C143 C 0.15614 0.42657 0.82015 0.0
C144 C 0.14964 0.42426 0.85286 0.0
C145 C 0.1593 0.3672 0.82069 0.0
H146 H 0.16327 0.34493 0.80906 0.0
C147 C 0.15278 0.36486 0.85254 0.0
H148 H 0.1574 0.45031 0.80761 0.0
C149 C 0.14787 0.39292 0.86844 0.0
H150 H 0.1422 0.38982 0.89318 0.0
H151 H 0.15139 0.34105 0.86501 0.0
Dy152 Dy 0.06822 0.08353 0.54486 0.0
Dy153 Dy 0.98673 0.04996 0.5842 0.0
C154 C 0.05353 0.12524 0.6026 0.0
O155 O 0.07397 0.04083 0.575 0.0
O156 O 0.02704 0.03249 0.61192 0.0
O157 O 0.12076 0.1286 0.53334 0.0
O158 O 0.11002 0.07543 0.51442 0.0
O159 O 0.99052 1.0048 0.55559 0.0
O160 O 0.02506 0.03939 0.51546 0.0
O161 O 0.97285 0.07338 0.54119 0.0
O162 O 0.0333 0.11365 0.52708 0.0
O163 O 0.92546 0.01638 0.58648 0.0
O164 O 0.95485 0.05151 0.62532 0.0
C165 C 0.05714 0.02698 0.60131 0.0
O166 O 0.07864 0.11384 0.59016 0.0
O167 O 0.01627 0.10836 0.597 0.0
C168 C 0.14906 0.12588 0.48476 0.0
C169 C 0.18801 0.16146 0.43112 0.0
C170 C 0.15883 0.1707 0.44436 0.0
C171 C 0.13947 0.15304 0.47102 0.0
C172 C 0.17695 0.11566 0.47085 0.0
C173 C 0.19617 0.13316 0.44425 0.0
C174 C 0.13276 0.10959 0.51468 0.0
C175 C 1.00232 0.00781 0.52659 0.0
C176 C 0.99528 0.10207 0.526 0.0
C177 C 0.89884 1.00012 0.63721 0.0
C178 C 0.85066 0.95075 0.68053 0.0
C179 C 0.86318 0.93828 0.65374 0.0
C180 C 0.88709 0.96279 0.6322 0.0
C181 C 0.88655 0.0125 0.66395 0.0
C182 C 0.86288 0.98816 0.68543 0.0
C183 C 0.92243 0.02705 0.61472 0.0
H184 H 0.15198 0.19245 0.43485 0.0
H185 H 0.11787 0.16128 0.48133 0.0
H186 H 0.18461 0.09467 0.48104 0.0
H187 H 0.21786 0.12485 0.43421 0.0
H188 H 0.8541 0.90961 0.64924 0.0
H189 H 0.89612 0.95257 0.61165 0.0
H190 H 0.89524 0.0412 0.66821 0.0
H191 H 0.85457 0.99876 0.70611 0.0
Dy192 Dy 0.47972 0.06026 0.03926 0.0
Dy193 Dy 0.56543 0.092 0.07427 0.0
C194 C 0.49929 0.01756 0.09445 0.0
O195 O 0.47194 0.08475 0.08392 0.0
O196 O 0.53427 0.12536 0.09225 0.0
O197 O 0.41749 0.03137 0.04079 0.0
O198 O 0.44472 0.06026 0.99907 0.0
O199 O 0.5731 0.11963 0.02831 0.0
O200 O 0.51151 0.11764 0.02449 0.0
O201 O 0.5688 0.05051 0.04126 0.0
O202 O 0.51351 0.03642 1.01072 0.0
O203 O 0.61796 0.13708 0.08721 0.0
O204 O 0.61013 0.08284 0.10078 0.0
C205 C 0.49685 0.11425 0.09707 0.0
O206 O 0.48408 0.01458 0.06633 0.0
O207 O 0.52449 0.04884 0.10485 0.0
C208 C 0.38577 0.00978 0.99204 0.0
C209 C 0.33361 0.9559 0.9528 0.0
C210 C 0.34795 0.94643 0.98036 0.0
C211 C 0.3739 0.97316 0.99982 0.0
C212 C 0.37135 0.01924 0.96474 0.0
C213 C 0.34572 0.99264 0.94525 0.0
C214 C 0.41251 0.0389 1.01192 0.0
C215 C 0.54827 0.13229 0.01696 0.0
C216 C 0.54661 0.03364 0.01751 0.0
C217 C 0.64635 0.1303 0.13479 0.0
C218 C 0.67597 0.15519 0.19477 0.0
C219 C 0.64239 0.15921 0.18366 0.0
C220 C 0.62755 0.14667 0.15393 0.0
C221 C 0.67975 0.12623 0.14579 0.0
C222 C 0.69443 0.1385 0.17554 0.0
C223 C 0.63163 0.1172 0.10339 0.0
H224 H 0.33899 0.9184 0.98699 0.0
H225 H 0.38459 0.96518 0.02084 0.0
H226 H 0.38016 0.04735 0.95834 0.0
H227 H 0.33603 1.00096 0.92392 0.0
H228 H 0.62736 0.17163 0.1981 0.0
H229 H 0.60147 0.14977 0.1459 0.0
H230 H 0.69458 0.11364 0.1313 0.0
H231 H 0.72059 0.13541 0.18332 0.0
Dy232 Dy 0.51159 0.54332 0.55297 0.0
Dy233 Dy 0.52748 0.62178 0.58541 0.0
C234 C 0.55128 0.56355 0.62059 0.0
O235 O 0.45409 0.53601 0.5735 0.0
O236 O 0.4735 0.58388 0.60793 0.0
O237 O 0.51852 0.49266 0.55255 0.0
O238 O 0.48518 0.5045 0.51593 0.0
O239 O 0.48668 0.6153 0.54482 0.0
O240 O 0.51046 0.58162 0.51556 0.0
O241 O 0.5775 0.63271 0.55326 0.0
O242 O 0.57469 0.57529 0.54417 0.0
O243 O 0.53869 0.67843 0.58073 0.0
O244 O 0.53387 0.65487 0.6265 0.0
C245 C 0.44769 0.55293 0.59778 0.0
O246 O 0.5255 0.53854 0.60317 0.0
O247 O 0.56262 0.59797 0.61356 0.0
C248 C 0.52474 0.47306 0.50271 0.0
C249 C 0.58029 0.45521 0.47083 0.0
C250 C 0.58313 0.49114 0.47172 0.0
C251 C 0.55559 0.5 0.48762 0.0
C252 C 0.52018 0.43694 0.49998 0.0
C253 C 0.54767 0.42803 0.48407 0.0
C254 C 0.50159 0.48301 0.52545 0.0
C255 C 0.49306 0.60424 0.51742 0.0
C256 C 0.59241 0.61057 0.54185 0.0
C257 C 0.50542 0.69673 0.61906 0.0
C258 C 0.4457 0.71716 0.63985 0.0
C259 C 0.44005 0.69501 0.61336 0.0
C260 C 0.46956 0.6847 0.60317 0.0
C261 C 0.51158 0.71958 0.64501 0.0
C262 C 0.48191 0.72971 0.65538 0.0
C263 C 0.53477 0.68262 0.61046 0.0
H264 H 0.60766 0.51263 0.46147 0.0
H265 H 0.55961 0.52811 0.48964 0.0
H266 H 0.49675 0.4159 0.51179 0.0
H267 H 0.5448 0.40017 0.48419 0.0
H268 H 0.4123 0.68451 0.60121 0.0
H269 H 0.46396 0.66648 0.58339 0.0
H270 H 0.53894 0.72882 0.6577 0.0
H271 H 0.48713 0.74702 0.67574 0.0
Dy272 Dy 0.03829 0.62037 0.04113 0.0
Dy273 Dy 0.01809 0.54421 0.07886 0.0
C274 C 0.99486 0.60636 0.10806 0.0
O275 O 0.09522 0.62622 0.06275 0.0
O276 O 0.07217 0.58369 0.10119 0.0
O277 O 0.06082 0.67871 0.04011 0.0
O278 O 0.03676 0.64775 0.99825 0.0
O279 O 0.0622 0.54633 0.04292 0.0
O280 O 0.04943 0.58259 1.00748 0.0
O281 O 0.97018 0.53326 0.04369 0.0
O282 O 0.9742 0.5909 0.03565 0.0
O283 O 0.99882 0.48613 0.07718 0.0
O284 O 0.01552 0.51446 0.12125 0.0
C285 C 0.09991 0.61187 0.08918 0.0
O286 O 0.01885 0.62928 0.08854 0.0
O287 O 0.98487 0.57125 0.10504 0.0
C288 C 0.02093 0.69743 1.00813 0.0
C289 C 0.9638 0.72553 0.99699 0.0
C290 C 0.96053 0.70248 0.0223 0.0
C291 C 0.98876 0.68847 0.02774 0.0
C292 C 0.02497 0.72113 0.98337 0.0
C293 C 0.99666 0.73517 0.97786 0.0
C294 C 0.0479 0.67921 1.01188 0.0
C295 C 0.06336 0.55811 0.01428 0.0
C296 C 0.95571 0.55585 0.03264 0.0
C297 C 0.03608 0.4669 0.11227 0.0
C298 C 0.09679 0.44345 0.12475 0.0
C299 C 0.08609 0.44729 0.0939 0.0
C300 C 0.05625 0.45905 0.08772 0.0
C301 C 0.04538 0.46138 0.14303 0.0
C302 C 0.0755 0.44984 0.14925 0.0
C303 C 0.00845 0.48429 0.10621 0.0
H304 H 0.9359 0.6949 0.0377 0.0
H305 H 0.98498 0.66992 0.04686 0.0
H306 H 0.04938 0.72794 0.96779 0.0
H307 H 0.9998 0.75249 0.95794 0.0
H308 H 0.10129 0.44188 0.07445 0.0
H309 H 0.04989 0.46305 0.06369 0.0
H310 H 0.03037 0.46738 0.16234 0.0
H311 H 0.08313 0.44746 0.17328 0.0
H312 H 0.26895 0.27509 0.25719 0.0
H313 H 0.26621 0.184 0.42311 0.0
H314 H 0.36563 0.25621 0.29702 0.0
H315 H 0.1631 0.18669 0.37912 0.0
H316 H 0.30424 0.21615 0.379 0.0
H317 H 0.23103 0.24899 0.30384 0.0
C318 C 0.28227 0.26579 0.2759 0.0
C319 C 0.32032 0.26749 0.27322 0.0
C320 C 0.2733 0.20975 0.37891 0.0
C321 C 0.27731 0.23761 0.32632 0.0
C322 C 0.25148 0.19115 0.40404 0.0
C323 C 0.21127 0.18213 0.40462 0.0
C324 C 0.25493 0.21961 0.35406 0.0
C325 C 0.19403 0.19312 0.37965 0.0
C326 C 0.2606 0.25073 0.30237 0.0
C327 C 0.33619 0.25489 0.29798 0.0
N328 N 0.21595 0.21115 0.35525 0.0
N329 N 0.31459 0.24043 0.32341 0.0
H330 H 0.19789 0.86139 0.79007 0.0
H331 H 0.33596 0.89049 0.93722 0.0
H332 H 0.23699 0.77996 0.82341 0.0
H333 H 0.2716 0.95728 0.9188 0.0
H334 H 0.29733 0.84803 0.89733 0.0
H335 H 0.22145 0.89532 0.83848 0.0
C336 C 0.21076 0.85029 0.80778 0.0
C337 C 0.21598 0.81802 0.80246 0.0
C338 C 0.29134 0.87177 0.90227 0.0
C339 C 0.24373 0.8571 0.85763 0.0
C340 C 0.3133 0.89599 0.9252 0.0
C341 C 0.30744 0.92783 0.93116 0.0
C342 C 0.2636 0.8796 0.88491 0.0
C343 C 0.27787 0.93359 0.91446 0.0
C344 C 0.22441 0.86978 0.83537 0.0
C345 C 0.23322 0.80516 0.82619 0.0
N346 N 0.25741 0.90996 0.89184 0.0
N347 N 0.24695 0.82496 0.85254 0.0
H348 H 0.59894 0.43915 0.76978 0.0
H349 H 0.59165 0.60579 0.67021 0.0
H350 H 0.61526 0.54245 0.80991 0.0
H351 H 0.54511 0.49553 0.63693 0.0
H352 H 0.61185 0.58562 0.71868 0.0
H353 H 0.59145 0.46217 0.71809 0.0
C354 C 0.60201 0.46696 0.76757 0.0
C355 C 0.6079 0.48896 0.79415 0.0
C356 C 0.59744 0.56588 0.70067 0.0
C357 C 0.59877 0.51539 0.73523 0.0
C358 C 0.58597 0.57741 0.6729 0.0
C359 C 0.56634 0.55236 0.64938 0.0
C360 C 0.58968 0.52903 0.70499 0.0
C361 C 0.55984 0.51586 0.65441 0.0
C362 C 0.59729 0.47999 0.73814 0.0
C363 C 0.61086 0.52462 0.79001 0.0
N364 N 0.57138 0.50535 0.68155 0.0
N365 N 0.60612 0.53663 0.76125 0.0
H366 H 0.88271 0.64257 0.27655 0.0
H367 H 0.00719 0.67704 0.11947 0.0
H368 H 0.93673 0.74575 0.23202 0.0
H369 H 0.94899 0.57051 0.15774 0.0
H370 H 0.98492 0.70232 0.16306 0.0
H371 H 0.91095 0.61574 0.23684 0.0
C372 C 0.90136 0.65973 0.25893 0.0
C373 C 0.90767 0.69651 0.25773 0.0
C374 C 0.97693 0.67339 0.16208 0.0
C375 C 0.9393 0.66598 0.21184 0.0
C376 C 0.98965 0.6588 0.13701 0.0
C377 C 0.97998 0.62139 0.13462 0.0
C378 C 0.95415 0.65066 0.18536 0.0
C379 C 0.9571 0.59945 0.15839 0.0
C380 C 0.91709 0.64435 0.23605 0.0
C381 C 0.93132 0.71734 0.23394 0.0
N382 N 0.94496 0.61437 0.1827 0.0
N383 N 0.94601 0.70183 0.21201 0.0
H384 H 0.45778 0.29347 0.18052 0.0
H385 H 0.42348 0.0952 0.11939 0.0
H386 H 0.35205 0.19961 0.19392 0.0
H387 H 0.53556 0.18401 0.11782 0.0
H388 H 0.39716 0.13362 0.14667 0.0
H389 H 0.48696 0.25466 0.15661 0.0
C390 C 0.44073 0.26473 0.17836 0.0
C391 C 0.4025 0.2497 0.18929 0.0
C392 C 0.42758 0.14471 0.14056 0.0
C393 C 0.43561 0.20524 0.1622 0.0
C394 C 0.44266 0.12275 0.12495 0.0
C395 C 0.48176 0.13645 0.11615 0.0
C396 C 0.45162 0.18082 0.14724 0.0
C397 C 0.50524 0.17233 0.12417 0.0
C398 C 0.45745 0.24259 0.16493 0.0
C399 C 0.38178 0.21227 0.18618 0.0
N400 N 0.48972 0.1934 0.13905 0.0
N401 N 0.39855 0.1914 0.17286 0.0
H402 H 0.08489 0.86052 0.71793 0.0
H403 H 0.10834 0.99912 0.58017 0.0
H404 H 0.10094 0.83823 0.62199 0.0
H405 H 0.03344 0.99327 0.65775 0.0
H406 H 0.12078 0.94867 0.6016 0.0
H407 H 0.07907 0.91704 0.70168 0.0
C408 C 0.08727 0.86766 0.69352 0.0
C409 C 0.09304 0.84479 0.67114 0.0
C410 C 0.10191 0.95868 0.61406 0.0
C411 C 0.08744 0.9091 0.6527 0.0
C412 C 0.09492 0.98767 0.60198 0.0
C413 C 0.06941 1.00032 0.61699 0.0
C414 C 0.08372 0.94235 0.64159 0.0
C415 C 0.05306 0.98424 0.64527 0.0
C416 C 0.08391 0.89969 0.68431 0.0
C417 C 0.09607 0.85505 0.63983 0.0
N418 N 0.06037 0.95591 0.65665 0.0
N419 N 0.09347 0.88657 0.63155 0.0
H420 H 0.72193 0.42686 0.97391 0.0
H421 H 0.92836 0.58921 0.98798 0.0
H422 H 0.77107 0.49251 0.89363 0.0
H423 H 0.89753 0.48902 0.03778 0.0
H424 H 0.86699 0.56271 0.9581 0.0
H425 H 0.7817 0.45887 1.00287 0.0
C426 C 0.74542 0.44798 0.96223 0.0
C427 C 0.74179 0.45611 0.93081 0.0
C428 C 0.87379 0.54671 0.97562 0.0
C429 C 0.81047 0.49379 0.96459 0.0
C430 C 0.90858 0.5618 0.99283 0.0
C431 C 0.91806 0.54126 0.01546 0.0
C432 C 0.848 0.51121 0.98169 0.0
C433 C 0.89153 0.50582 0.02056 0.0
C434 C 0.77953 0.46634 0.97893 0.0
C435 C 0.77275 0.48499 0.91761 0.0
N436 N 0.8577 0.49207 1.004 0.0
N437 N 0.80603 0.50274 0.93453 0.0
H438 H 0.78806 0.64942 0.4164 0.0
H439 H 0.63864 0.6819 0.53395 0.0
H440 H 0.79039 0.75366 0.44345 0.0
H441 H 0.62953 0.57503 0.50794 0.0
H442 H 0.69544 0.70766 0.50129 0.0
H443 H 0.73032 0.6206 0.44906 0.0
C444 C 0.77639 0.6662 0.42906 0.0
C445 C 0.79452 0.70404 0.42754 0.0
C446 C 0.6812 0.67854 0.5027 0.0
C447 C 0.72879 0.67141 0.46494 0.0
C448 C 0.64867 0.66374 0.52153 0.0
C449 C 0.62903 0.62614 0.52383 0.0
C450 C 0.69456 0.65577 0.48575 0.0
C451 C 0.64369 0.60417 0.50699 0.0
C452 C 0.7436 0.64978 0.44781 0.0
C453 C 0.77807 0.72445 0.44441 0.0
N454 N 0.67548 0.61929 0.4886 0.0
N455 N 0.74644 0.70795 0.46235 0.0
H456 H 0.32183 0.43003 0.11752 0.0
H457 H 0.10696 0.40002 0.17058 0.0
H458 H 0.27297 0.38056 0.20468 0.0
H459 H 0.16602 0.46794 0.09398 0.0
H460 H 0.16545 0.38854 0.18157 0.0
H461 H 0.26285 0.44024 0.10665 0.0
C462 C 0.29885 0.42154 0.13452 0.0
C463 C 0.30257 0.40455 0.16216 0.0
C464 C 0.1655 0.40589 0.16232 0.0
C465 C 0.23446 0.41562 0.14953 0.0
C466 C 0.13217 0.41256 0.15609 0.0
C467 C 0.13141 0.43491 0.13124 0.0
C468 C 0.1983 0.42158 0.14352 0.0
C469 C 0.16486 0.44999 0.11302 0.0
C470 C 0.26503 0.42718 0.12818 0.0
C471 C 0.2713 0.39339 0.18292 0.0
N472 N 0.19685 0.44306 0.11952 0.0
N473 N 0.23857 0.39912 0.17618 0.0
H474 H 0.66603 0.35331 0.96871 0.0
H475 H 0.5072 0.15601 0.97526 0.0
H476 H 0.59605 0.3099 0.88616 0.0
H477 H 0.62165 0.1847 0.01538 0.0
H478 H 0.53098 0.21357 0.94678 0.0
H479 H 0.64123 0.29359 0.99129 0.0
C480 C 0.64588 0.33122 0.95493 0.0
C481 C 0.63441 0.33685 0.92472 0.0
C482 C 0.55082 0.20694 0.9616 0.0
C483 C 0.60421 0.26793 0.95174 0.0
C484 C 0.53733 0.17427 0.97795 0.0
C485 C 0.56249 0.16553 0.99779 0.0
C486 C 0.5894 0.2314 0.96586 0.0
C487 C 0.60124 0.19016 1.0003 0.0
C488 C 0.63147 0.29705 0.96814 0.0
C489 C 0.60617 0.30702 0.90928 0.0
N490 N 0.61331 0.22212 0.98493 0.0
N491 N 0.59194 0.27377 0.92299 0.0
H492 H 0.92594 0.78615 0.46365 0.0
H493 H 0.00479 1.00248 0.46255 0.0
H494 H 0.91809 0.84469 0.3817 0.0
H495 H 0.97364 0.93746 0.54539 0.0
H496 H 0.98451 0.94681 0.43093 0.0
H497 H 0.95672 0.84332 0.49181 0.0
C498 C 0.93129 0.81111 0.4514 0.0
C499 C 0.91894 0.81048 0.42031 0.0
C500 C 0.98226 0.94485 0.45603 0.0
C501 C 0.95417 0.8764 0.45266 0.0
C502 C 0.99384 0.97658 0.47411 0.0
C503 C 0.99066 0.97472 0.50672 0.0
C504 C 0.96809 0.91104 0.47071 0.0
C505 C 0.9763 0.94036 0.52037 0.0
C506 C 0.94869 0.84378 0.46757 0.0
C507 C 0.92719 0.84383 0.40558 0.0
N508 N 0.96571 0.91005 0.50237 0.0
N509 N 0.94392 0.87544 0.42196 0.0
H510 H 0.26795 0.73576 0.75704 0.0
H511 H 0.39437 0.7377 0.60728 0.0
H512 H 0.25307 0.77978 0.66861 0.0
H513 H 0.42263 0.71476 0.70026 0.0
H514 H 0.33898 0.74843 0.62801 0.0
H515 H 0.32091 0.72245 0.73514 0.0
C516 C 0.27577 0.74257 0.73298 0.0
C517 C 0.25619 0.75917 0.71471 0.0
C518 C 0.35738 0.74115 0.64387 0.0
C519 C 0.31671 0.74376 0.68941 0.0
C520 C 0.3889 0.73495 0.63205 0.0
C521 C 0.41318 0.72546 0.65212 0.0
C522 C 0.34989 0.73749 0.67593 0.0
C523 C 0.40497 0.72251 0.68404 0.0
C524 C 0.30599 0.73492 0.72048 0.0
C525 C 0.2671 0.7667 0.68349 0.0
N526 N 0.37394 0.72836 0.69493 0.0
N527 N 0.29675 0.75907 0.67185 0.0
H528 H 0.71699 0.87306 0.84518 0.0
H529 H 0.85505 0.88815 0.70185 0.0
H530 H 0.76415 0.79328 0.82423 0.0
H531 H 0.78971 0.95531 0.71266 0.0
H532 H 0.81858 0.85049 0.74449 0.0
H533 H 0.73955 0.90109 0.79483 0.0
C534 C 0.73152 0.86107 0.82979 0.0
C535 C 0.73917 0.83107 0.83913 0.0
C536 C 0.81193 0.87325 0.73732 0.0
C537 C 0.7657 0.8634 0.78172 0.0
C538 C 0.83263 0.89467 0.71284 0.0
C539 C 0.82585 0.92527 0.70393 0.0
C540 C 0.78445 0.88264 0.75315 0.0
C541 C 0.79663 0.93253 0.71926 0.0
C542 C 0.74459 0.8772 0.8011 0.0
C543 C 0.75845 0.81691 0.8183 0.0
N544 N 0.77733 0.91164 0.74334 0.0
N545 N 0.77144 0.83343 0.79075 0.0
H546 H 0.78121 0.17856 0.37771 0.0
H547 H 0.68587 0.21973 0.22259 0.0
H548 H 0.7822 0.28377 0.35643 0.0
H549 H 0.70261 0.12084 0.23841 0.0
H550 H 0.71519 0.24197 0.27374 0.0
H551 H 0.74704 0.15549 0.32869 0.0
C552 C 0.77447 0.19691 0.36262 0.0
C553 C 0.78508 0.23331 0.37103 0.0
C554 C 0.71235 0.21538 0.26602 0.0
C555 C 0.74526 0.20682 0.31497 0.0
C556 C 0.69542 0.2026 0.23695 0.0
C557 C 0.69202 0.16847 0.2262 0.0
C558 C 0.72571 0.19376 0.28453 0.0
C559 C 0.70519 0.14752 0.2456 0.0
C560 C 0.75472 0.18363 0.3347 0.0
C561 C 0.77451 0.25551 0.35092 0.0
N562 N 0.72147 0.16051 0.27379 0.0
N563 N 0.75529 0.24194 0.32375 0.0
H564 H 0.39141 0.67574 0.3586 0.0
H565 H 0.52603 0.60724 0.46076 0.0
H566 H 0.51096 0.69816 0.33715 0.0
H567 H 0.44077 0.63691 0.50701 0.0
H568 H 0.51382 0.63335 0.41276 0.0
H569 H 0.40264 0.65697 0.41139 0.0
C570 C 0.42011 0.67742 0.3651 0.0
C571 C 0.45009 0.688 0.34309 0.0
C572 C 0.49773 0.63425 0.43337 0.0
C573 C 0.46276 0.66573 0.40295 0.0
C574 C 0.5045 0.61907 0.46084 0.0
C575 C 0.48439 0.61975 0.48812 0.0
C576 C 0.47001 0.64981 0.43259 0.0
C577 C 0.45701 0.63583 0.48657 0.0
C578 C 0.42641 0.66648 0.39514 0.0
C579 C 0.48667 0.68943 0.35292 0.0
N580 N 0.45032 0.64994 0.4592 0.0
N581 N 0.49171 0.6779 0.3817 0.0
H582 H 0.10055 0.46004 0.84187 0.0
H583 H 0.10904 0.51906 0.02041 0.0
H584 H 0.18429 0.45295 0.90838 0.0
H585 H 0.05521 0.56165 0.95051 0.0
H586 H 0.13405 0.4923 0.97916 0.0
H587 H 0.08206 0.49656 0.87988 0.0
C588 C 0.11568 0.46684 0.86409 0.0
C589 C 0.1438 0.45304 0.87196 0.0
C590 C 0.11699 0.5077 0.97274 0.0
C591 C 0.12202 0.49389 0.91589 0.0
C592 C 0.10256 0.52295 0.99638 0.0
C593 C 0.08 0.54284 0.98909 0.0
C594 C 0.1084 0.51165 0.94132 0.0
C595 C 0.07264 0.54676 0.95733 0.0
C596 C 0.10486 0.4874 0.88592 0.0
C597 C 0.16207 0.46248 0.90136 0.0
N598 N 0.08644 0.53106 0.93469 0.0
N599 N 0.15053 0.48171 0.92225 0.0
H600 H 0.5373 0.83233 0.94144 0.0
H601 H 0.61826 0.03072 0.01467 0.0
H602 H 0.65808 0.89344 0.96408 0.0
H603 H 0.50042 0.97668 0.98085 0.0
H604 H 0.63418 0.98239 0.99252 0.0
H605 H 0.52364 0.88594 0.95262 0.0
C606 C 0.56097 0.85706 0.94862 0.0
C607 C 0.59886 0.85831 0.952 0.0
C608 C 0.60493 0.98124 0.98957 0.0
C609 C 0.58347 0.91978 0.96476 0.0
C610 C 0.59581 0.00889 1.00222 0.0
C611 C 0.55785 0.00762 0.99985 0.0
C612 C 0.57579 0.95174 0.97476 0.0
C613 C 0.53006 0.97877 0.98325 0.0
C614 C 0.55319 0.88771 0.95482 0.0
C615 C 0.6285 0.89124 0.96093 0.0
N616 N 0.53945 0.9517 0.9717 0.0
N617 N 0.6201 0.92051 0.96726 0.0
H618 H 0.85149 0.21896 0.49562 0.0
H619 H 0.02696 0.15637 0.48304 0.0
H620 H 0.91624 0.23693 0.41033 0.0
H621 H 0.92113 0.09694 0.53233 0.0
H622 H 0.99555 0.19458 0.46048 0.0
H623 H 0.88743 0.18417 0.51538 0.0
C624 C 0.87381 0.2161 0.48126 0.0
C625 C 0.88104 0.23089 0.45135 0.0
C626 C 0.97938 0.17292 0.47606 0.0
C627 C 0.9219 0.19074 0.4737 0.0
C628 C 0.99716 0.15118 0.48892 0.0
C629 C 0.97664 0.12344 0.50961 0.0
C630 C 0.94134 0.16725 0.48466 0.0
C631 C 0.93811 0.11787 0.51645 0.0
C632 C 0.89398 0.19593 0.49242 0.0
C633 C 0.90981 0.22579 0.4335 0.0
N634 N 0.92193 0.13983 0.5043 0.0
N635 N 0.9294 0.2061 0.44499 0.0
H636 H 0.30807 0.66214 0.20386 0.0
H637 H 0.15002 0.68301 0.09012 0.0
H638 H 0.28323 0.75842 0.20263 0.0
H639 H 0.13244 0.57977 0.13048 0.0
H640 H 0.20663 0.71151 0.12463 0.0
H641 H 0.24933 0.63111 0.17232 0.0
C642 C 0.29009 0.67667 0.19754 0.0
C643 C 0.30118 0.71327 0.20581 0.0
C644 C 0.19041 0.68259 0.1258 0.0
C645 C 0.23473 0.67813 0.16854 0.0
C646 C 0.15838 0.66628 0.10591 0.0
C647 C 0.13649 0.62898 0.10743 0.0
C648 C 0.20115 0.66137 0.14689 0.0
C649 C 0.14844 0.60866 0.12864 0.0
C650 C 0.25675 0.65897 0.17921 0.0
C651 C 0.27666 0.73057 0.19627 0.0
N652 N 0.1801 0.62506 0.14741 0.0
N653 N 0.24508 0.71309 0.1778 0.0
H654 H 0.26641 0.39423 0.70214 0.0
H655 H 0.41493 0.58402 0.64005 0.0
H656 H 0.24575 0.4912 0.71766 0.0
H657 H 0.39884 0.4814 0.59811 0.0
H658 H 0.35918 0.55304 0.67382 0.0
H659 H 0.32278 0.4285 0.67098 0.0
C660 C 0.274 0.42293 0.6992 0.0
C661 C 0.25089 0.43974 0.71213 0.0
C662 C 0.36778 0.53744 0.65707 0.0
C663 C 0.31588 0.47938 0.67629 0.0
C664 C 0.39955 0.55503 0.63775 0.0
C665 C 0.41165 0.53529 0.6161 0.0
C666 C 0.34846 0.49973 0.6552 0.0
C667 C 0.39055 0.49782 0.61422 0.0
C668 C 0.30611 0.44244 0.68124 0.0
C669 C 0.26269 0.47717 0.70806 0.0
N670 N 0.36035 0.4813 0.63369 0.0
N671 N 0.29431 0.49578 0.69029 0.0
H672 H 0.74094 0.73387 0.95242 0.0
H673 H 0.97019 0.79254 0.97747 0.0
H674 H 0.82733 0.83576 0.92298 0.0
H675 H 0.88517 0.68677 0.99966 0.0
H676 H 0.91755 0.8111 0.96255 0.0
H677 H 0.79268 0.71865 0.9758 0.0
C678 C 0.77074 0.75319 0.95125 0.0
C679 C 0.77998 0.78589 0.93543 0.0
C680 C 0.91039 0.78388 0.97087 0.0
C681 C 0.83919 0.76868 0.9618 0.0
C682 C 0.94046 0.77323 0.97924 0.0
C683 C 0.93215 0.73799 0.98968 0.0
C684 C 0.87164 0.75911 0.97285 0.0
C685 C 0.89299 0.71432 0.99203 0.0
C686 C 0.80026 0.74444 0.9644 0.0
C687 C 0.81905 0.80995 0.93446 0.0
N688 N 0.86423 0.72524 0.98351 0.0
N689 N 0.8472 0.80077 0.94726 0.0
H690 H 0.40969 0.79638 0.15615 0.0
H691 H 0.51514 0.01262 0.15695 0.0
H692 H 0.44141 0.85771 0.24172 0.0
H693 H 0.45844 0.94733 0.077 0.0
H694 H 0.49618 0.95735 0.18828 0.0
H695 H 0.43685 0.85224 0.12675 0.0
C696 C 0.42287 0.82174 0.16875 0.0
C697 C 0.42302 0.82244 0.20142 0.0
C698 C 0.48799 0.95525 0.16387 0.0
C699 C 0.45396 0.88701 0.16776 0.0
C700 C 0.49878 0.98676 0.14595 0.0
C701 C 0.48824 0.98476 0.11424 0.0
C702 C 0.46692 0.92146 0.14989 0.0
C703 C 0.46708 0.95044 0.10132 0.0
C704 C 0.43822 0.85371 0.15194 0.0
C705 C 0.44077 0.85604 0.21655 0.0
N706 N 0.45727 0.92035 0.11911 0.0
N707 N 0.45527 0.88711 0.19958 0.0
H708 H 0.14433 0.34917 0.65805 0.0
H709 H 0.01874 0.1402 0.6535 0.0
H710 H 0.11645 0.29137 0.74504 0.0
H711 H 0.11876 0.18675 0.59486 0.0
H712 H 0.04034 0.19717 0.6835 0.0
H713 H 0.12017 0.2915 0.63014 0.0
C714 C 0.13314 0.32455 0.67145 0.0
C715 C 0.13353 0.32561 0.70428 0.0
C716 C 0.05751 0.19473 0.66412 0.0
C717 C 0.10415 0.25924 0.6719 0.0
C718 C 0.04526 0.16239 0.64699 0.0
C719 C 0.06718 0.15873 0.6218 0.0
C720 C 0.09111 0.22399 0.65525 0.0
C721 C 0.10125 0.18832 0.6143 0.0
C722 C 0.11919 0.29163 0.65534 0.0
C723 C 0.11682 0.29236 0.71988 0.0
N724 N 0.11189 0.21988 0.63066 0.0
N725 N 0.1028 0.26057 0.70357 0.0
H726 H 0.71542 0.32975 0.43618 0.0
H727 H 0.65757 0.49423 0.48193 0.0
H728 H 0.78387 0.41874 0.49596 0.0
H729 H 0.57898 0.39626 0.43724 0.0
H730 H 0.71054 0.47422 0.47457 0.0
H731 H 0.67227 0.36089 0.42443 0.0
C732 C 0.72188 0.35623 0.44625 0.0
C733 C 0.75292 0.37153 0.4674 0.0
C734 C 0.68185 0.45735 0.46589 0.0
C735 C 0.70356 0.40704 0.45435 0.0
C736 C 0.65157 0.46892 0.46981 0.0
C737 C 0.61356 0.44665 0.46056 0.0
C738 C 0.67414 0.42319 0.45277 0.0
C739 C 0.60765 0.41393 0.44532 0.0
C740 C 0.69711 0.37387 0.4397 0.0
C741 C 0.75983 0.40576 0.47996 0.0
N742 N 0.63752 0.40294 0.44228 0.0
N743 N 0.7351 0.42219 0.47351 0.0
loop_
_geom_bond_atom_site_label_1
_geom_bond_atom_site_label_2
_geom_bond_distance
_geom_bond_site_symmetry_2
_ccdc_geom_bond_type
H0 C1 0.949 . S
C1 H0 0.949 . S
C1 C2 1.395 . S
C1 C3 1.391 . S
C2 C1 1.395 . S
C2 C5 1.390 . S
C3 C1 1.391 . S
C3 C7 1.387 . S
C3 C8 1.491 . S
H4 C5 0.950 . S
C5 C2 1.390 . S
C5 H4 0.950 . S
C5 C6 1.378 . S
C6 C5 1.378 . S
C6 C7 1.409 . S
C7 C3 1.387 . S
C7 C6 1.409 . S
C7 H9 0.951 . S
C8 C3 1.491 . S
C8 C10 1.382 . S
C8 C12 1.404 . S
H9 C7 0.951 . S
C10 C8 1.382 . S
C10 C11 1.390 . S
C10 H15 0.949 . S
C11 C10 1.390 . S
C11 C16 1.399 . S
C12 C8 1.404 . S
C12 H13 0.950 . S
C12 C14 1.375 . S
H13 C12 0.950 . S
C14 C12 1.375 . S
C14 C16 1.382 . S
C14 H18 0.950 . S
H15 C10 0.949 . S
C16 C11 1.399 . S
C16 C14 1.382 . S
C16 H17 0.952 . S
H17 C16 0.952 . S
H18 C14 0.950 . S
H19 C20 0.949 . S
C20 H19 0.949 . S
C20 C21 1.395 . S
C20 C22 1.391 . S
C21 C20 1.395 . S
C21 C24 1.390 . S
C22 C20 1.391 . S
C22 C26 1.387 . S
C22 C27 1.491 . S
H23 C24 0.950 . S
C24 C21 1.390 . S
C24 H23 0.950 . S
C24 C25 1.378 . S
C25 C24 1.378 . S
C25 C26 1.409 . S
C26 C22 1.387 . S
C26 C25 1.409 . S
C26 H28 0.951 . S
C27 C22 1.491 . S
C27 C29 1.382 . S
C27 C31 1.404 . S
H28 C26 0.951 . S
C29 C27 1.382 . S
C29 C30 1.390 . S
C29 H34 0.949 . S
C30 C29 1.390 . S
C30 C35 1.399 . S
C31 C27 1.404 . S
C31 H32 0.950 . S
C31 C33 1.375 . S
H32 C31 0.950 . S
C33 C31 1.375 . S
C33 C35 1.382 . S
C33 H37 0.950 . S
H34 C29 0.949 . S
C35 C30 1.399 . S
C35 C33 1.382 . S
C35 H36 0.952 . S
H36 C35 0.952 . S
H37 C33 0.950 . S
H38 C39 0.949 . S
C39 H38 0.949 . S
C39 C40 1.395 . S
C39 C41 1.391 . S
C40 C39 1.395 . S
C40 C43 1.390 . S
C41 C39 1.391 . S
C41 C45 1.387 . S
C41 C46 1.491 . S
H42 C43 0.950 . S
C43 C40 1.390 . S
C43 H42 0.950 . S
C43 C44 1.378 . S
C44 C43 1.378 . S
C44 C45 1.409 . S
C45 C41 1.387 . S
C45 C44 1.409 . S
C45 H47 0.951 . S
C46 C41 1.491 . S
C46 C48 1.382 . S
C46 C50 1.404 . S
H47 C45 0.951 . S
C48 C46 1.382 . S
C48 C49 1.390 . S
C48 H53 0.949 . S
C49 C48 1.390 . S
C49 C54 1.399 . S
C50 C46 1.404 . S
C50 H51 0.950 . S
C50 C52 1.375 . S
H51 C50 0.950 . S
C52 C50 1.375 . S
C52 C54 1.382 . S
C52 H56 0.950 . S
H53 C48 0.949 . S
C54 C49 1.399 . S
C54 C52 1.382 . S
C54 H55 0.952 . S
H55 C54 0.952 . S
H56 C52 0.950 . S
H57 C58 0.949 . S
C58 H57 0.949 . S
C58 C59 1.395 . S
C58 C60 1.391 . S
C59 C58 1.395 . S
C59 C62 1.390 . S
C60 C58 1.391 . S
C60 C64 1.387 . S
C60 C65 1.491 . S
H61 C62 0.950 . S
C62 C59 1.390 . S
C62 H61 0.950 . S
C62 C63 1.378 . S
C63 C62 1.378 . S
C63 C64 1.409 . S
C64 C60 1.387 . S
C64 C63 1.409 . S
C64 H66 0.951 . S
C65 C60 1.491 . S
C65 C67 1.382 . S
C65 C69 1.404 . S
H66 C64 0.951 . S
C67 C65 1.382 . S
C67 C68 1.390 . S
C67 H72 0.949 . S
C68 C67 1.390 . S
C68 C73 1.399 . S
C69 C65 1.404 . S
C69 H70 0.950 . S
C69 C71 1.375 . S
H70 C69 0.950 . S
C71 C69 1.375 . S
C71 C73 1.382 . S
C71 H75 0.950 . S
H72 C67 0.949 . S
C73 C68 1.399 . S
C73 C71 1.382 . S
C73 H74 0.952 . S
H74 C73 0.952 . S
H75 C71 0.950 . S
H76 C77 0.949 . S
C77 H76 0.949 . S
C77 C78 1.395 . S
C77 C79 1.391 . S
C78 C77 1.395 . S
C78 C81 1.390 . S
C79 C77 1.391 . S
C79 C83 1.387 . S
C79 C84 1.491 . S
H80 C81 0.950 . S
C81 C78 1.390 . S
C81 H80 0.950 . S
C81 C82 1.378 . S
C82 C81 1.378 . S
C82 C83 1.409 . S
C83 C79 1.387 . S
C83 C82 1.409 . S
C83 H85 0.951 . S
C84 C79 1.491 . S
C84 C86 1.382 . S
C84 C88 1.404 . S
H85 C83 0.951 . S
C86 C84 1.382 . S
C86 C87 1.390 . S
C86 H91 0.949 . S
C87 C86 1.390 . S
C87 C92 1.399 . S
C88 C84 1.404 . S
C88 H89 0.950 . S
C88 C90 1.375 . S
H89 C88 0.950 . S
C90 C88 1.375 . S
C90 C92 1.382 . S
C90 H94 0.950 . S
H91 C86 0.949 . S
C92 C87 1.399 . S
C92 C90 1.382 . S
C92 H93 0.952 . S
H93 C92 0.952 . S
H94 C90 0.950 . S
H95 C96 0.949 . S
C96 H95 0.949 . S
C96 C97 1.395 . S
C96 C98 1.391 . S
C97 C96 1.395 . S
C97 C100 1.390 . S
C98 C96 1.391 . S
C98 C102 1.387 . S
C98 C103 1.491 . S
H99 C100 0.950 . S
C100 C97 1.390 . S
C100 H99 0.950 . S
C100 C101 1.378 . S
C101 C100 1.378 . S
C101 C102 1.409 . S
C102 C98 1.387 . S
C102 C101 1.409 . S
C102 H104 0.951 . S
C103 C98 1.491 . S
C103 C105 1.382 . S
C103 C107 1.404 . S
H104 C102 0.951 . S
C105 C103 1.382 . S
C105 C106 1.390 . S
C105 H110 0.949 . S
C106 C105 1.390 . S
C106 C111 1.399 . S
C107 C103 1.404 . S
C107 H108 0.950 . S
C107 C109 1.375 . S
H108 C107 0.950 . S
C109 C107 1.375 . S
C109 C111 1.382 . S
C109 H113 0.950 . S
H110 C105 0.949 . S
C111 C106 1.399 . S
C111 C109 1.382 . S
C111 H112 0.952 . S
H112 C111 0.952 . S
H113 C109 0.950 . S
H114 C115 0.949 . S
C115 H114 0.949 . S
C115 C116 1.395 . S
C115 C117 1.391 . S
C116 C115 1.395 . S
C116 C119 1.390 . S
C117 C115 1.391 . S
C117 C121 1.387 . S
C117 C122 1.491 . S
H118 C119 0.950 . S
C119 C116 1.390 . S
C119 H118 0.950 . S
C119 C120 1.378 . S
C120 C119 1.378 . S
C120 C121 1.409 . S
C121 C117 1.387 . S
C121 C120 1.409 . S
C121 H123 0.951 . S
C122 C117 1.491 . S
C122 C124 1.382 . S
C122 C126 1.404 . S
H123 C121 0.951 . S
C124 C122 1.382 . S
C124 C125 1.390 . S
C124 H129 0.949 . S
C125 C124 1.390 . S
C125 C130 1.399 . S
C126 C122 1.404 . S
C126 H127 0.950 . S
C126 C128 1.375 . S
H127 C126 0.950 . S
C128 C126 1.375 . S
C128 C130 1.382 . S
C128 H132 0.950 . S
H129 C124 0.949 . S
C130 C125 1.399 . S
C130 C128 1.382 . S
C130 H131 0.952 . S
H131 C130 0.952 . S
H132 C128 0.950 . S
H133 C134 0.949 . S
C134 H133 0.949 . S
C134 C135 1.395 . S
C134 C136 1.391 . S
C135 C134 1.395 . S
C135 C138 1.390 . S
C136 C134 1.391 . S
C136 C140 1.387 . S
C136 C141 1.491 . S
H137 C138 0.950 . S
C138 C135 1.390 . S
C138 H137 0.950 . S
C138 C139 1.378 . S
C139 C138 1.378 . S
C139 C140 1.409 . S
C140 C136 1.387 . S
C140 C139 1.409 . S
C140 H142 0.951 . S
C141 C136 1.491 . S
C141 C143 1.382 . S
C141 C145 1.404 . S
H142 C140 0.951 . S
C143 C141 1.382 . S
C143 C144 1.390 . S
C143 H148 0.949 . S
C144 C143 1.390 . S
C144 C149 1.399 . S
C145 C141 1.404 . S
C145 H146 0.950 . S
C145 C147 1.375 . S
H146 C145 0.950 . S
C147 C145 1.375 . S
C147 C149 1.382 . S
C147 H151 0.950 . S
H148 C143 0.949 . S
C149 C144 1.399 . S
C149 C147 1.382 . S
C149 H150 0.952 . S
H150 C149 0.952 . S
H151 C147 0.950 . S
Dy152 O155 2.307 . S
Dy152 O157 2.395 . S
Dy152 O158 2.379 . S
Dy152 O160 2.339 1_545 S
Dy152 O162 2.298 . S
Dy152 O166 2.275 . S
Dy152 C174 2.738 . S
Dy153 O156 2.298 1_655 S
Dy153 O159 2.275 1_545 S
Dy153 O161 2.307 . S
Dy153 O163 2.395 1_545 S
Dy153 O164 2.379 . S
Dy153 O167 2.339 1_655 S
Dy153 C183 2.738 1_545 S
C154 O166 1.254 . S
C154 O167 1.257 . S
O155 Dy152 2.307 . S
O155 C165 1.266 1_545 S
O156 Dy153 2.298 1_455 S
O156 C165 1.236 1_545 S
O157 Dy152 2.395 . S
O157 C174 1.255 . S
O158 Dy152 2.379 . S
O158 C174 1.249 . S
O159 Dy153 2.275 1_565 S
O159 C175 1.254 . S
O160 Dy152 2.339 1_565 S
O160 C175 1.257 1_455 S
O161 Dy153 2.307 . S
O161 C176 1.266 . S
O162 Dy152 2.298 . S
O162 C176 1.236 1_455 S
O163 Dy153 2.395 1_565 S
O163 C183 1.255 . S
O164 Dy153 2.379 . S
O164 C183 1.249 1_545 S
C165 O155 1.266 1_565 S
C165 O156 1.236 1_565 S
O166 Dy152 2.275 . S
O166 C154 1.254 . S
O167 Dy153 2.339 1_455 S
O167 C154 1.257 . S
C168 C171 1.344 . S
C168 C172 1.328 . S
C168 C174 1.516 . S
C169 C170 1.304 . S
C169 C173 1.323 . S
C170 C169 1.304 . S
C170 C171 1.371 . S
C170 H184 0.930 . S
C171 C168 1.344 . S
C171 C170 1.371 . S
C171 H185 0.931 . S
C172 C168 1.328 . S
C172 C173 1.433 . S
C172 H186 0.931 . S
C173 C169 1.323 . S
C173 C172 1.433 . S
C173 H187 0.933 . S
C174 Dy152 2.738 . S
C174 O157 1.255 . S
C174 O158 1.249 . S
C174 C168 1.516 . S
C175 O159 1.254 . S
C175 O160 1.257 1_655 S
C176 O161 1.266 . S
C176 O162 1.236 1_655 S
C177 C180 1.344 . S
C177 C181 1.328 . S
C177 C183 1.516 . S
C178 C179 1.304 . S
C178 C182 1.323 . S
C179 C178 1.304 . S
C179 C180 1.371 . S
C179 H188 0.930 . S
C180 C177 1.344 . S
C180 C179 1.371 . S
C180 H189 0.931 . S
C181 C177 1.328 . S
C181 C182 1.433 . S
C181 H190 0.931 . S
C182 C178 1.323 . S
C182 C181 1.433 . S
C182 H191 0.933 . S
C183 Dy153 2.738 1_565 S
C183 O163 1.255 . S
C183 O164 1.249 1_565 S
C183 C177 1.516 . S
H184 C170 0.930 . S
H185 C171 0.931 . S
H186 C172 0.931 . S
H187 C173 0.933 . S
H188 C179 0.930 . S
H189 C180 0.931 . S
H190 C181 0.931 . S
H191 C182 0.933 . S
Dy192 O195 2.307 . S
Dy192 O197 2.395 1_545 S
Dy192 O198 2.379 1_554 S
Dy192 O200 2.339 . S
Dy192 O202 2.284 1_545 S
Dy192 O206 2.275 1_545 S
Dy192 C214 2.738 1_545 S
Dy193 O196 2.298 . S
Dy193 O199 2.275 . S
Dy193 O201 2.307 . S
Dy193 O203 2.395 . S
Dy193 O204 2.379 . S
Dy193 O207 2.339 1_545 S
Dy193 C223 2.738 . S
C194 O206 1.254 . S
C194 O207 1.257 . S
O195 Dy192 2.307 . S
O195 C205 1.266 . S
O196 Dy193 2.298 . S
O196 C205 1.236 . S
O197 Dy192 2.395 1_565 S
O197 C214 1.255 . S
O198 Dy192 2.379 1_556 S
O198 C214 1.249 1_546 S
O199 Dy193 2.275 . S
O199 C215 1.254 . S
O200 Dy192 2.339 . S
O200 C215 1.257 . S
O201 Dy193 2.307 . S
O201 C216 1.266 1_545 S
O202 Dy192 2.284 1_565 S
O202 C216 1.249 . S
O203 Dy193 2.395 . S
O203 C223 1.255 . S
O204 Dy193 2.379 . S
O204 C223 1.249 . S
C205 O195 1.266 . S
C205 O196 1.236 . S
O206 Dy192 2.275 1_565 S
O206 C194 1.254 . S
O207 Dy193 2.339 1_565 S
O207 C194 1.257 . S
C208 C211 1.344 . S
C208 C212 1.328 . S
C208 C214 1.516 1_556 S
C209 C210 1.304 . S
C209 C213 1.323 . S
C210 C209 1.304 . S
C210 C211 1.371 . S
C210 H224 0.930 . S
C211 C208 1.344 . S
C211 C210 1.371 . S
C211 H225 0.931 . S
C212 C208 1.328 . S
C212 C213 1.433 . S
C212 H226 0.931 . S
C213 C209 1.323 . S
C213 C212 1.433 . S
C213 H227 0.933 . S
C214 Dy192 2.738 1_565 S
C214 O197 1.255 . S
C214 O198 1.249 1_564 S
C214 C208 1.516 1_554 S
C215 O199 1.254 . S
C215 O200 1.257 . S
C216 O201 1.266 1_565 S
C216 O202 1.249 . S
C217 C220 1.344 . S
C217 C221 1.328 . S
C217 C223 1.516 . S
C218 C219 1.304 . S
C218 C222 1.323 . S
C219 C218 1.304 . S
C219 C220 1.371 . S
C219 H228 0.930 . S
C220 C217 1.344 . S
C220 C219 1.371 . S
C220 H229 0.931 . S
C221 C217 1.328 . S
C221 C222 1.433 . S
C221 H230 0.931 . S
C222 C218 1.323 . S
C222 C221 1.433 . S
C222 H231 0.933 . S
C223 Dy193 2.738 . S
C223 O203 1.255 . S
C223 O204 1.249 . S
C223 C217 1.516 . S
H224 C210 0.930 . S
H225 C211 0.931 . S
H226 C212 0.931 . S
H227 C213 0.933 . S
H228 C219 0.930 . S
H229 C220 0.931 . S
H230 C221 0.931 . S
H231 C222 0.933 . S
Dy232 O235 2.307 . S
Dy232 O237 2.395 . S
Dy232 O238 2.379 . S
Dy232 O240 2.339 . S
Dy232 O242 2.298 . S
Dy232 O246 2.275 . S
Dy232 C254 2.738 . S
Dy233 O236 2.298 . S
Dy233 O239 2.275 . S
Dy233 O241 2.307 . S
Dy233 O243 2.395 . S
Dy233 O244 2.379 . S
Dy233 O247 2.339 . S
Dy233 C263 2.738 . S
C234 O246 1.254 . S
C234 O247 1.257 . S
O235 Dy232 2.307 . S
O235 C245 1.266 . S
O236 Dy233 2.298 . S
O236 C245 1.236 . S
O237 Dy232 2.395 . S
O237 C254 1.255 . S
O238 Dy232 2.379 . S
O238 C254 1.249 . S
O239 Dy233 2.275 . S
O239 C255 1.254 . S
O240 Dy232 2.339 . S
O240 C255 1.257 . S
O241 Dy233 2.307 . S
O241 C256 1.266 . S
O242 Dy232 2.298 . S
O242 C256 1.236 . S
O243 Dy233 2.395 . S
O243 C263 1.255 . S
O244 Dy233 2.379 . S
O244 C263 1.249 . S
C245 O235 1.266 . S
C245 O236 1.236 . S
O246 Dy232 2.275 . S
O246 C234 1.254 . S
O247 Dy233 2.339 . S
O247 C234 1.257 . S
C248 C251 1.344 . S
C248 C252 1.328 . S
C248 C254 1.516 . S
C249 C250 1.304 . S
C249 C253 1.323 . S
C250 C249 1.304 . S
C250 C251 1.371 . S
C250 H264 0.930 . S
C251 C248 1.344 . S
C251 C250 1.371 . S
C251 H265 0.931 . S
C252 C248 1.328 . S
C252 C253 1.433 . S
C252 H266 0.931 . S
C253 C249 1.323 . S
C253 C252 1.433 . S
C253 H267 0.933 . S
C254 Dy232 2.738 . S
C254 O237 1.255 . S
C254 O238 1.249 . S
C254 C248 1.516 . S
C255 O239 1.254 . S
C255 O240 1.257 . S
C256 O241 1.266 . S
C256 O242 1.236 . S
C257 C260 1.344 . S
C257 C261 1.328 . S
C257 C263 1.516 . S
C258 C259 1.304 . S
C258 C262 1.323 . S
C259 C258 1.304 . S
C259 C260 1.371 . S
C259 H268 0.930 . S
C260 C257 1.344 . S
C260 C259 1.371 . S
C260 H269 0.931 . S
C261 C257 1.328 . S
C261 C262 1.433 . S
C261 H270 0.931 . S
C262 C258 1.323 . S
C262 C261 1.433 . S
C262 H271 0.933 . S
C263 Dy233 2.738 . S
C263 O243 1.255 . S
C263 O244 1.249 . S
C263 C257 1.516 . S
H264 C250 0.930 . S
H265 C251 0.931 . S
H266 C252 0.931 . S
H267 C253 0.933 . S
H268 C259 0.930 . S
H269 C260 0.931 . S
H270 C261 0.931 . S
H271 C262 0.933 . S
Dy272 O275 2.307 1_556 S
Dy272 O277 2.394 . S
Dy272 O278 2.379 . S
Dy272 O280 2.339 . S
Dy272 O282 2.298 1_455 S
Dy272 O286 2.275 1_556 S
Dy272 C294 2.738 . S
Dy273 O276 2.298 . S
Dy273 O279 2.275 1_554 S
Dy273 O281 2.307 1_455 S
Dy273 O283 2.395 . S
Dy273 O284 2.379 . S
Dy273 O287 2.339 . S
Dy273 C303 2.738 . S
C274 O286 1.254 . S
C274 O287 1.257 . S
O275 Dy272 2.307 1_554 S
O275 C285 1.266 . S
O276 Dy273 2.298 . S
O276 C285 1.236 . S
O277 Dy272 2.394 . S
O277 C294 1.255 . S
O278 Dy272 2.379 . S
O278 C294 1.249 . S
O279 Dy273 2.275 1_556 S
O279 C295 1.254 . S
O280 Dy272 2.339 . S
O280 C295 1.257 . S
O281 Dy273 2.307 1_655 S
O281 C296 1.266 1_554 S
O282 Dy272 2.298 1_655 S
O282 C296 1.236 . S
O283 Dy273 2.395 . S
O283 C303 1.255 . S
O284 Dy273 2.379 . S
O284 C303 1.249 . S
C285 O275 1.266 . S
C285 O276 1.236 . S
O286 Dy272 2.275 1_554 S
O286 C274 1.254 . S
O287 Dy273 2.339 . S
O287 C274 1.257 . S
C288 C291 1.344 . S
C288 C292 1.328 . S
C288 C294 1.516 1_655 S
C289 C290 1.304 . S
C289 C293 1.323 . S
C290 C289 1.304 . S
C290 C291 1.371 . S
C290 H304 0.930 . S
C291 C288 1.344 . S
C291 C290 1.371 . S
C291 H305 0.931 . S
C292 C288 1.328 . S
C292 C293 1.433 . S
C292 H306 0.931 1_655 S
C293 C289 1.323 . S
C293 C292 1.433 . S
C293 H307 0.933 . S
C294 Dy272 2.738 . S
C294 O277 1.255 . S
C294 O278 1.249 . S
C294 C288 1.516 1_455 S
C295 O279 1.254 . S
C295 O280 1.257 . S
C296 O281 1.266 1_556 S
C296 O282 1.236 . S
C297 C300 1.344 . S
C297 C301 1.328 . S
C297 C303 1.516 . S
C298 C299 1.304 . S
C298 C302 1.323 . S
C299 C298 1.304 . S
C299 C300 1.371 . S
C299 H308 0.930 . S
C300 C297 1.344 . S
C300 C299 1.371 . S
C300 H309 0.931 . S
C301 C297 1.328 . S
C301 C302 1.433 . S
C301 H310 0.931 . S
C302 C298 1.323 . S
C302 C301 1.433 . S
C302 H311 0.933 . S
C303 Dy273 2.738 . S
C303 O283 1.255 . S
C303 O284 1.249 . S
C303 C297 1.516 . S
H304 C290 0.930 . S
H305 C291 0.931 . S
H306 C292 0.931 1_455 S
H307 C293 0.933 . S
H308 C299 0.930 . S
H309 C300 0.931 . S
H310 C301 0.931 . S
H311 C302 0.933 . S
H312 C318 0.930 . S
H313 C322 0.930 . S
H314 C327 0.929 . S
H315 C325 0.929 . S
H316 C320 0.929 . S
H317 C326 0.929 . S
C318 H312 0.930 . S
C318 C319 1.367 . S
C318 C326 1.378 . S
C319 C318 1.367 . S
C319 C327 1.433 . S
C320 H316 0.929 . S
C320 C322 1.378 . S
C320 C324 1.350 . S
C321 C324 1.463 . S
C321 C326 1.350 . S
C321 N329 1.427 . S
C322 H313 0.930 . S
C322 C320 1.378 . S
C322 C323 1.367 . S
C323 C322 1.367 . S
C323 C325 1.433 . S
C324 C320 1.350 . S
C324 C321 1.463 . S
C324 N328 1.427 . S
C325 H315 0.929 . S
C325 C323 1.433 . S
C325 N328 1.384 . S
C326 H317 0.929 . S
C326 C318 1.378 . S
C326 C321 1.350 . S
C327 H314 0.929 . S
C327 C319 1.433 . S
C327 N329 1.384 . S
N328 C324 1.427 . S
N328 C325 1.384 . S
N329 C321 1.427 . S
N329 C327 1.384 . S
H330 C336 0.930 . S
H331 C340 0.930 . S
H332 C345 0.929 . S
H333 C343 0.929 . S
H334 C338 0.929 . S
H335 C344 0.929 . S
C336 H330 0.930 . S
C336 C337 1.367 . S
C336 C344 1.378 . S
C337 C336 1.367 . S
C337 C345 1.433 . S
C338 H334 0.929 . S
C338 C340 1.378 . S
C338 C342 1.350 . S
C339 C342 1.463 . S
C339 C344 1.350 . S
C339 N347 1.427 . S
C340 H331 0.930 . S
C340 C338 1.378 . S
C340 C341 1.367 . S
C341 C340 1.367 . S
C341 C343 1.433 . S
C342 C338 1.350 . S
C342 C339 1.463 . S
C342 N346 1.427 . S
C343 H333 0.929 . S
C343 C341 1.433 . S
C343 N346 1.384 . S
C344 H335 0.929 . S
C344 C336 1.378 . S
C344 C339 1.350 . S
C345 H332 0.929 . S
C345 C337 1.433 . S
C345 N347 1.384 . S
N346 C342 1.427 . S
N346 C343 1.384 . S
N347 C339 1.427 . S
N347 C345 1.384 . S
H348 C354 0.930 . S
H349 C358 0.930 . S
H350 C363 0.929 . S
H351 C361 0.929 . S
H352 C356 0.929 . S
H353 C362 0.929 . S
C354 H348 0.930 . S
C354 C355 1.367 . S
C354 C362 1.378 . S
C355 C354 1.367 . S
C355 C363 1.433 . S
C356 H352 0.929 . S
C356 C358 1.378 . S
C356 C360 1.350 . S
C357 C360 1.463 . S
C357 C362 1.350 . S
C357 N365 1.427 . S
C358 H349 0.930 . S
C358 C356 1.378 . S
C358 C359 1.367 . S
C359 C358 1.367 . S
C359 C361 1.433 . S
C360 C356 1.350 . S
C360 C357 1.463 . S
C360 N364 1.427 . S
C361 H351 0.929 . S
C361 C359 1.433 . S
C361 N364 1.384 . S
C362 H353 0.929 . S
C362 C354 1.378 . S
C362 C357 1.350 . S
C363 H350 0.929 . S
C363 C355 1.433 . S
C363 N365 1.384 . S
N364 C360 1.427 . S
N364 C361 1.384 . S
N365 C357 1.427 . S
N365 C363 1.384 . S
H366 C372 0.930 . S
H367 C376 0.930 . S
H368 C381 0.929 . S
H369 C379 0.929 . S
H370 C374 0.929 1_455 S
H371 C380 0.929 . S
C372 H366 0.930 . S
C372 C373 1.367 . S
C372 C380 1.378 . S
C373 C372 1.367 . S
C373 C381 1.433 . S
C374 H370 0.929 1_655 S
C374 C376 1.378 1_655 S
C374 C378 1.350 . S
C375 C378 1.463 . S
C375 C380 1.350 . S
C375 N383 1.427 . S
C376 H367 0.930 . S
C376 C374 1.378 1_455 S
C376 C377 1.367 1_455 S
C377 C376 1.367 1_655 S
C377 C379 1.433 . S
C378 C374 1.350 . S
C378 C375 1.463 . S
C378 N382 1.427 . S
C379 H369 0.929 . S
C379 C377 1.433 . S
C379 N382 1.384 . S
C380 H371 0.929 . S
C380 C372 1.378 . S
C380 C375 1.350 . S
C381 H368 0.929 . S
C381 C373 1.433 . S
C381 N383 1.384 . S
N382 C378 1.427 . S
N382 C379 1.384 . S
N383 C375 1.427 . S
N383 C381 1.384 . S
H384 C390 0.930 . S
H385 C394 0.930 . S
H386 C399 0.929 . S
H387 C397 0.929 . S
H388 C392 0.929 . S
H389 C398 0.929 . S
C390 H384 0.930 . S
C390 C391 1.367 . S
C390 C398 1.378 . S
C391 C390 1.367 . S
C391 C399 1.433 . S
C392 H388 0.929 . S
C392 C394 1.378 . S
C392 C396 1.350 . S
C393 C396 1.463 . S
C393 C398 1.350 . S
C393 N401 1.427 . S
C394 H385 0.930 . S
C394 C392 1.378 . S
C394 C395 1.367 . S
C395 C394 1.367 . S
C395 C397 1.433 . S
C396 C392 1.350 . S
C396 C393 1.463 . S
C396 N400 1.427 . S
C397 H387 0.929 . S
C397 C395 1.433 . S
C397 N400 1.384 . S
C398 H389 0.929 . S
C398 C390 1.378 . S
C398 C393 1.350 . S
C399 H386 0.929 . S
C399 C391 1.433 . S
C399 N401 1.384 . S
N400 C396 1.427 . S
N400 C397 1.384 . S
N401 C393 1.427 . S
N401 C399 1.384 . S
H402 C408 0.930 . S
H403 C412 0.930 1_655 S
H404 C417 0.929 . S
H405 C415 0.929 1_545 S
H406 C410 0.930 . S
H407 C416 0.929 . S
C408 H402 0.930 . S
C408 C409 1.367 . S
C408 C416 1.378 . S
C409 C408 1.367 . S
C409 C417 1.433 . S
C410 H406 0.930 . S
C410 C412 1.378 . S
C410 C414 1.350 . S
C411 C414 1.463 . S
C411 C416 1.350 . S
C411 N419 1.427 . S
C412 H403 0.930 1_455 S
C412 C410 1.378 . S
C412 C413 1.367 . S
C413 C412 1.367 . S
C413 C415 1.433 . S
C414 C410 1.350 . S
C414 C411 1.463 . S
C414 N418 1.427 . S
C415 H405 0.929 1_565 S
C415 C413 1.433 . S
C415 N418 1.384 . S
C416 H407 0.929 . S
C416 C408 1.378 . S
C416 C411 1.350 . S
C417 H404 0.929 . S
C417 C409 1.433 . S
C417 N419 1.384 . S
N418 C414 1.427 . S
N418 C415 1.384 . S
N419 C411 1.427 . S
N419 C417 1.384 . S
H420 C426 0.930 . S
H421 C430 0.930 . S
H422 C435 0.929 . S
H423 C433 0.929 1_554 S
H424 C428 0.929 . S
H425 C434 0.929 . S
C426 H420 0.930 . S
C426 C427 1.367 . S
C426 C434 1.378 . S
C427 C426 1.367 . S
C427 C435 1.433 . S
C428 H424 0.929 . S
C428 C430 1.378 . S
C428 C432 1.350 . S
C429 C432 1.463 . S
C429 C434 1.350 . S
C429 N437 1.427 . S
C430 H421 0.930 . S
C430 C428 1.378 . S
C430 C431 1.367 . S
C431 C430 1.367 . S
C431 C433 1.433 . S
C432 C428 1.350 . S
C432 C429 1.463 . S
C432 N436 1.427 . S
C433 H423 0.929 1_556 S
C433 C431 1.433 . S
C433 N436 1.384 . S
C434 H425 0.929 . S
C434 C426 1.378 . S
C434 C429 1.350 . S
C435 H422 0.929 . S
C435 C427 1.433 . S
C435 N437 1.384 . S
N436 C432 1.427 . S
N436 C433 1.384 . S
N437 C429 1.427 . S
N437 C435 1.384 . S
H438 C444 0.930 . S
H439 C448 0.930 . S
H440 C453 0.929 . S
H441 C451 0.929 . S
H442 C446 0.929 . S
H443 C452 0.929 . S
C444 H438 0.930 . S
C444 C445 1.367 . S
C444 C452 1.378 . S
C445 C444 1.367 . S
C445 C453 1.433 . S
C446 H442 0.929 . S
C446 C448 1.378 . S
C446 C450 1.350 . S
C447 C450 1.463 . S
C447 C452 1.350 . S
C447 N455 1.427 . S
C448 H439 0.930 . S
C448 C446 1.378 . S
C448 C449 1.367 . S
C449 C448 1.367 . S
C449 C451 1.433 . S
C450 C446 1.350 . S
C450 C447 1.463 . S
C450 N454 1.427 . S
C451 H441 0.929 . S
C451 C449 1.433 . S
C451 N454 1.384 . S
C452 H443 0.929 . S
C452 C444 1.378 . S
C452 C447 1.350 . S
C453 H440 0.929 . S
C453 C445 1.433 . S
C453 N455 1.384 . S
N454 C450 1.427 . S
N454 C451 1.384 . S
N455 C447 1.427 . S
N455 C453 1.384 . S
H456 C462 0.930 . S
H457 C466 0.930 . S
H458 C471 0.929 . S
H459 C469 0.929 . S
H460 C464 0.929 . S
H461 C470 0.929 . S
C462 H456 0.930 . S
C462 C463 1.367 . S
C462 C470 1.378 . S
C463 C462 1.367 . S
C463 C471 1.433 . S
C464 H460 0.929 . S
C464 C466 1.378 . S
C464 C468 1.350 . S
C465 C468 1.463 . S
C465 C470 1.350 . S
C465 N473 1.427 . S
C466 H457 0.930 . S
C466 C464 1.378 . S
C466 C467 1.367 . S
C467 C466 1.367 . S
C467 C469 1.433 . S
C468 C464 1.350 . S
C468 C465 1.463 . S
C468 N472 1.427 . S
C469 H459 0.929 . S
C469 C467 1.433 . S
C469 N472 1.384 . S
C470 H461 0.929 . S
C470 C462 1.378 . S
C470 C465 1.350 . S
C471 H458 0.929 . S
C471 C463 1.433 . S
C471 N473 1.384 . S
N472 C468 1.427 . S
N472 C469 1.384 . S
N473 C465 1.427 . S
N473 C471 1.384 . S
H474 C480 0.930 . S
H475 C484 0.930 . S
H476 C489 0.929 . S
H477 C487 0.929 . S
H478 C482 0.929 . S
H479 C488 0.929 1_554 S
C480 H474 0.930 . S
C480 C481 1.367 . S
C480 C488 1.378 . S
C481 C480 1.367 . S
C481 C489 1.433 . S
C482 H478 0.929 . S
C482 C484 1.378 . S
C482 C486 1.350 . S
C483 C486 1.463 . S
C483 C488 1.350 . S
C483 N491 1.427 . S
C484 H475 0.930 . S
C484 C482 1.378 . S
C484 C485 1.367 1_556 S
C485 C484 1.367 1_554 S
C485 C487 1.433 . S
C486 C482 1.350 . S
C486 C483 1.463 . S
C486 N490 1.427 1_556 S
C487 H477 0.929 . S
C487 C485 1.433 . S
C487 N490 1.384 . S
C488 H479 0.929 1_556 S
C488 C480 1.378 . S
C488 C483 1.350 . S
C489 H476 0.929 . S
C489 C481 1.433 . S
C489 N491 1.384 . S
N490 C486 1.427 1_554 S
N490 C487 1.384 . S
N491 C483 1.427 . S
N491 C489 1.384 . S
H492 C498 0.930 . S
H493 C502 0.930 . S
H494 C507 0.929 . S
H495 C505 0.929 . S
H496 C500 0.929 . S
H497 C506 0.929 . S
C498 H492 0.930 . S
C498 C499 1.367 . S
C498 C506 1.378 . S
C499 C498 1.367 . S
C499 C507 1.433 . S
C500 H496 0.929 . S
C500 C502 1.378 . S
C500 C504 1.350 . S
C501 C504 1.463 . S
C501 C506 1.350 . S
C501 N509 1.427 . S
C502 H493 0.930 . S
C502 C500 1.378 . S
C502 C503 1.367 . S
C503 C502 1.367 . S
C503 C505 1.433 . S
C504 C500 1.350 . S
C504 C501 1.463 . S
C504 N508 1.427 . S
C505 H495 0.929 . S
C505 C503 1.433 . S
C505 N508 1.384 . S
C506 H497 0.929 . S
C506 C498 1.378 . S
C506 C501 1.350 . S
C507 H494 0.929 . S
C507 C499 1.433 . S
C507 N509 1.384 . S
N508 C504 1.427 . S
N508 C505 1.384 . S
N509 C501 1.427 . S
N509 C507 1.384 . S
H510 C516 0.930 . S
H511 C520 0.930 . S
H512 C525 0.929 . S
H513 C523 0.929 . S
H514 C518 0.929 . S
H515 C524 0.929 . S
C516 H510 0.930 . S
C516 C517 1.367 . S
C516 C524 1.378 . S
C517 C516 1.367 . S
C517 C525 1.433 . S
C518 H514 0.929 . S
C518 C520 1.378 . S
C518 C522 1.350 . S
C519 C522 1.463 . S
C519 C524 1.350 . S
C519 N527 1.427 . S
C520 H511 0.930 . S
C520 C518 1.378 . S
C520 C521 1.367 . S
C521 C520 1.367 . S
C521 C523 1.433 . S
C522 C518 1.350 . S
C522 C519 1.463 . S
C522 N526 1.427 . S
C523 H513 0.929 . S
C523 C521 1.433 . S
C523 N526 1.384 . S
C524 H515 0.929 . S
C524 C516 1.378 . S
C524 C519 1.350 . S
C525 H512 0.929 . S
C525 C517 1.433 . S
C525 N527 1.384 . S
N526 C522 1.427 . S
N526 C523 1.384 . S
N527 C519 1.427 . S
N527 C525 1.384 . S
H528 C534 0.930 . S
H529 C538 0.930 . S
H530 C543 0.929 . S
H531 C541 0.929 . S
H532 C536 0.929 . S
H533 C542 0.929 . S
C534 H528 0.930 . S
C534 C535 1.367 . S
C534 C542 1.378 . S
C535 C534 1.367 . S
C535 C543 1.433 . S
C536 H532 0.929 . S
C536 C538 1.378 . S
C536 C540 1.350 . S
C537 C540 1.463 . S
C537 C542 1.350 . S
C537 N545 1.427 . S
C538 H529 0.930 . S
C538 C536 1.378 . S
C538 C539 1.367 . S
C539 C538 1.367 . S
C539 C541 1.433 . S
C540 C536 1.350 . S
C540 C537 1.463 . S
C540 N544 1.427 . S
C541 H531 0.929 . S
C541 C539 1.433 . S
C541 N544 1.384 . S
C542 H533 0.929 . S
C542 C534 1.378 . S
C542 C537 1.350 . S
C543 H530 0.929 . S
C543 C535 1.433 . S
C543 N545 1.384 . S
N544 C540 1.427 . S
N544 C541 1.384 . S
N545 C537 1.427 . S
N545 C543 1.384 . S
H546 C552 0.930 . S
H547 C556 0.930 . S
H548 C561 0.929 . S
H549 C559 0.929 . S
H550 C554 0.929 . S
H551 C560 0.929 . S
C552 H546 0.930 . S
C552 C553 1.367 . S
C552 C560 1.378 . S
C553 C552 1.367 . S
C553 C561 1.433 . S
C554 H550 0.929 . S
C554 C556 1.378 . S
C554 C558 1.350 . S
C555 C558 1.463 . S
C555 C560 1.350 . S
C555 N563 1.427 . S
C556 H547 0.930 . S
C556 C554 1.378 . S
C556 C557 1.367 . S
C557 C556 1.367 . S
C557 C559 1.433 . S
C558 C554 1.350 . S
C558 C555 1.463 . S
C558 N562 1.427 . S
C559 H549 0.929 . S
C559 C557 1.433 . S
C559 N562 1.384 . S
C560 H551 0.929 . S
C560 C552 1.378 . S
C560 C555 1.350 . S
C561 H548 0.929 . S
C561 C553 1.433 . S
C561 N563 1.384 . S
N562 C558 1.427 . S
N562 C559 1.384 . S
N563 C555 1.427 . S
N563 C561 1.384 . S
H564 C570 0.930 . S
H565 C574 0.930 . S
H566 C579 0.929 . S
H567 C577 0.929 . S
H568 C572 0.929 . S
H569 C578 0.929 . S
C570 H564 0.930 . S
C570 C571 1.367 . S
C570 C578 1.378 . S
C571 C570 1.367 . S
C571 C579 1.433 . S
C572 H568 0.929 . S
C572 C574 1.378 . S
C572 C576 1.350 . S
C573 C576 1.463 . S
C573 C578 1.350 . S
C573 N581 1.427 . S
C574 H565 0.930 . S
C574 C572 1.378 . S
C574 C575 1.367 . S
C575 C574 1.367 . S
C575 C577 1.433 . S
C576 C572 1.350 . S
C576 C573 1.463 . S
C576 N580 1.427 . S
C577 H567 0.929 . S
C577 C575 1.433 . S
C577 N580 1.384 . S
C578 H569 0.929 . S
C578 C570 1.378 . S
C578 C573 1.350 . S
C579 H566 0.929 . S
C579 C571 1.433 . S
C579 N581 1.384 . S
N580 C576 1.427 . S
N580 C577 1.384 . S
N581 C573 1.427 . S
N581 C579 1.384 . S
H582 C588 0.930 . S
H583 C592 0.930 . S
H584 C597 0.929 . S
H585 C595 0.929 . S
H586 C590 0.929 . S
H587 C596 0.929 . S
C588 H582 0.930 . S
C588 C589 1.367 . S
C588 C596 1.378 . S
C589 C588 1.367 . S
C589 C597 1.433 . S
C590 H586 0.929 . S
C590 C592 1.378 . S
C590 C594 1.350 . S
C591 C594 1.463 . S
C591 C596 1.350 . S
C591 N599 1.427 . S
C592 H583 0.930 . S
C592 C590 1.378 . S
C592 C593 1.367 . S
C593 C592 1.367 . S
C593 C595 1.433 . S
C594 C590 1.350 . S
C594 C591 1.463 . S
C594 N598 1.427 . S
C595 H585 0.929 . S
C595 C593 1.433 . S
C595 N598 1.384 . S
C596 H587 0.929 . S
C596 C588 1.378 . S
C596 C591 1.350 . S
C597 H584 0.929 . S
C597 C589 1.433 . S
C597 N599 1.384 . S
N598 C594 1.427 . S
N598 C595 1.384 . S
N599 C591 1.427 . S
N599 C597 1.384 . S
H600 C606 0.930 . S
H601 C610 0.930 . S
H602 C615 0.929 . S
H603 C613 0.929 . S
H604 C608 0.929 . S
H605 C614 0.929 . S
C606 H600 0.930 . S
C606 C607 1.367 . S
C606 C614 1.378 . S
C607 C606 1.367 . S
C607 C615 1.433 . S
C608 H604 0.929 . S
C608 C610 1.378 . S
C608 C612 1.350 1_554 S
C609 C612 1.463 . S
C609 C614 1.350 . S
C609 N617 1.427 . S
C610 H601 0.930 . S
C610 C608 1.378 . S
C610 C611 1.367 . S
C611 C610 1.367 . S
C611 C613 1.433 1_554 S
C612 C608 1.350 1_556 S
C612 C609 1.463 . S
C612 N616 1.427 . S
C613 H603 0.929 . S
C613 C611 1.433 1_556 S
C613 N616 1.384 . S
C614 H605 0.929 . S
C614 C606 1.378 . S
C614 C609 1.350 . S
C615 H602 0.929 . S
C615 C607 1.433 . S
C615 N617 1.384 . S
N616 C612 1.427 . S
N616 C613 1.384 . S
N617 C609 1.427 . S
N617 C615 1.384 . S
H618 C624 0.930 . S
H619 C628 0.902 1_455 S
H620 C633 0.929 . S
H621 C631 0.929 . S
H622 C626 0.929 1_455 S
H623 C632 0.929 . S
C624 H618 0.930 . S
C624 C625 1.367 . S
C624 C632 1.378 . S
C625 C624 1.367 . S
C625 C633 1.433 . S
C626 H622 0.929 1_655 S
C626 C628 1.394 . S
C626 C630 1.350 . S
C627 C630 1.463 . S
C627 C632 1.350 . S
C627 N635 1.427 . S
C628 H619 0.902 1_655 S
C628 C626 1.394 . S
C628 C629 1.379 . S
C629 C628 1.379 . S
C629 C631 1.433 . S
C630 C626 1.350 . S
C630 C627 1.463 . S
C630 N634 1.427 . S
C631 H621 0.929 . S
C631 C629 1.433 . S
C631 N634 1.384 . S
C632 H623 0.929 . S
C632 C624 1.378 . S
C632 C627 1.350 . S
C633 H620 0.929 . S
C633 C625 1.433 . S
C633 N635 1.384 . S
N634 C630 1.427 . S
N634 C631 1.384 . S
N635 C627 1.427 . S
N635 C633 1.384 . S
H636 C642 0.930 . S
H637 C646 0.930 . S
H638 C651 0.929 . S
H639 C649 0.929 . S
H640 C644 0.929 . S
H641 C650 0.929 . S
C642 H636 0.930 . S
C642 C643 1.367 . S
C642 C650 1.378 . S
C643 C642 1.367 . S
C643 C651 1.433 . S
C644 H640 0.929 . S
C644 C646 1.378 . S
C644 C648 1.350 . S
C645 C648 1.463 . S
C645 C650 1.350 . S
C645 N653 1.427 . S
C646 H637 0.930 . S
C646 C644 1.378 . S
C646 C647 1.367 . S
C647 C646 1.367 . S
C647 C649 1.433 . S
C648 C644 1.350 . S
C648 C645 1.463 . S
C648 N652 1.427 . S
C649 H639 0.929 . S
C649 C647 1.433 . S
C649 N652 1.384 . S
C650 H641 0.929 . S
C650 C642 1.378 . S
C650 C645 1.350 . S
C651 H638 0.929 . S
C651 C643 1.433 . S
C651 N653 1.384 . S
N652 C648 1.427 . S
N652 C649 1.384 . S
N653 C645 1.427 . S
N653 C651 1.384 . S
H654 C660 0.930 . S
H655 C664 0.930 . S
H656 C669 0.929 . S
H657 C667 0.929 . S
H658 C662 0.929 . S
H659 C668 0.929 . S
C660 H654 0.930 . S
C660 C661 1.367 . S
C660 C668 1.378 . S
C661 C660 1.367 . S
C661 C669 1.433 . S
C662 H658 0.929 . S
C662 C664 1.378 . S
C662 C666 1.350 . S
C663 C666 1.463 . S
C663 C668 1.350 . S
C663 N671 1.427 . S
C664 H655 0.930 . S
C664 C662 1.378 . S
C664 C665 1.367 . S
C665 C664 1.367 . S
C665 C667 1.433 . S
C666 C662 1.350 . S
C666 C663 1.463 . S
C666 N670 1.427 . S
C667 H657 0.929 . S
C667 C665 1.433 . S
C667 N670 1.384 . S
C668 H659 0.929 . S
C668 C660 1.378 . S
C668 C663 1.350 . S
C669 H656 0.929 . S
C669 C661 1.433 . S
C669 N671 1.384 . S
N670 C666 1.427 . S
N670 C667 1.384 . S
N671 C663 1.427 . S
N671 C669 1.384 . S
H672 C678 0.930 . S
H673 C682 0.930 . S
H674 C687 0.929 . S
H675 C685 0.929 . S
H676 C680 0.929 . S
H677 C686 0.929 . S
C678 H672 0.930 . S
C678 C679 1.367 . S
C678 C686 1.378 . S
C679 C678 1.367 . S
C679 C687 1.433 . S
C680 H676 0.929 . S
C680 C682 1.378 . S
C680 C684 1.350 . S
C681 C684 1.463 . S
C681 C686 1.350 . S
C681 N689 1.427 . S
C682 H673 0.930 . S
C682 C680 1.378 . S
C682 C683 1.367 . S
C683 C682 1.367 . S
C683 C685 1.433 . S
C684 C680 1.350 . S
C684 C681 1.463 . S
C684 N688 1.427 . S
C685 H675 0.929 . S
C685 C683 1.433 . S
C685 N688 1.384 . S
C686 H677 0.929 . S
C686 C678 1.378 . S
C686 C681 1.350 . S
C687 H674 0.929 . S
C687 C679 1.433 . S
C687 N689 1.384 . S
N688 C684 1.427 . S
N688 C685 1.384 . S
N689 C681 1.427 . S
N689 C687 1.384 . S
H690 C696 0.930 . S
H691 C700 0.930 . S
H692 C705 0.929 . S
H693 C703 0.929 . S
H694 C698 0.929 . S
H695 C704 0.929 . S
C696 H690 0.930 . S
C696 C697 1.367 . S
C696 C704 1.378 . S
C697 C696 1.367 . S
C697 C705 1.433 . S
C698 H694 0.929 . S
C698 C700 1.378 . S
C698 C702 1.350 . S
C699 C702 1.463 . S
C699 C704 1.350 . S
C699 N707 1.427 . S
C700 H691 0.930 . S
C700 C698 1.378 . S
C700 C701 1.367 . S
C701 C700 1.367 . S
C701 C703 1.433 . S
C702 C698 1.350 . S
C702 C699 1.463 . S
C702 N706 1.427 . S
C703 H693 0.929 . S
C703 C701 1.433 . S
C703 N706 1.384 . S
C704 H695 0.929 . S
C704 C696 1.378 . S
C704 C699 1.350 . S
C705 H692 0.929 . S
C705 C697 1.433 . S
C705 N707 1.384 . S
N706 C702 1.427 . S
N706 C703 1.384 . S
N707 C699 1.427 . S
N707 C705 1.384 . S
H708 C714 0.930 . S
H709 C718 0.930 . S
H710 C723 0.929 . S
H711 C721 0.929 . S
H712 C716 0.929 . S
H713 C722 0.929 . S
C714 H708 0.930 . S
C714 C715 1.367 . S
C714 C722 1.378 . S
C715 C714 1.367 . S
C715 C723 1.433 . S
C716 H712 0.929 . S
C716 C718 1.378 . S
C716 C720 1.350 . S
C717 C720 1.463 . S
C717 C722 1.350 . S
C717 N725 1.427 . S
C718 H709 0.930 . S
C718 C716 1.378 . S
C718 C719 1.367 . S
C719 C718 1.367 . S
C719 C721 1.433 . S
C720 C716 1.350 . S
C720 C717 1.463 . S
C720 N724 1.427 . S
C721 H711 0.929 . S
C721 C719 1.433 . S
C721 N724 1.384 . S
C722 H713 0.929 . S
C722 C714 1.378 . S
C722 C717 1.350 . S
C723 H710 0.929 . S
C723 C715 1.433 . S
C723 N725 1.384 . S
N724 C720 1.427 . S
N724 C721 1.384 . S
N725 C717 1.427 . S
N725 C723 1.384 . S
H726 C732 0.930 . S
H727 C736 0.930 . S
H728 C741 0.929 . S
H729 C739 0.929 . S
H730 C734 0.929 . S
H731 C740 0.929 . S
C732 H726 0.930 . S
C732 C733 1.367 . S
C732 C740 1.378 . S
C733 C732 1.367 . S
C733 C741 1.433 . S
C734 H730 0.929 . S
C734 C736 1.378 . S
C734 C738 1.350 . S
C735 C738 1.463 . S
C735 C740 1.350 . S
C735 N743 1.427 . S
C736 H727 0.930 . S
C736 C734 1.378 . S
C736 C737 1.367 . S
C737 C736 1.367 . S
C737 C739 1.433 . S
C738 C734 1.350 . S
C738 C735 1.463 . S
C738 N742 1.427 . S
C739 H729 0.929 . S
C739 C737 1.433 . S
C739 N742 1.384 . S
C740 H731 0.929 . S
C740 C732 1.378 . S
C740 C735 1.350 . S
C741 H728 0.929 . S
C741 C733 1.433 . S
C741 N743 1.384 . S
N742 C738 1.427 . S
N742 C739 1.384 . S
N743 C735 1.427 . S
N743 C741 1.384 . S
C319 C6 1.177 . S
C323 C169 1.208 . S
C337 C21 1.445 . S
C341 C209 1.500 . S
C359 C234 1.835 . S
C355 C49 1.815 . S
C373 C68 2.147 . S
C377 C274 2.219 1_655 S
C395 C205 2.515 . S
C391 C2 2.433 . S
C413 C165 1.450 . S
C409 C30 1.409 . S
C431 C296 1.599 . S
C427 C40 1.605 . S
C449 C256 1.526 . S
C445 C63 1.591 . S
C463 C11 1.146 . S
C467 C298 1.269 . S
C485 C215 2.431 . S
C481 C44 2.479 . S
C499 C59 1.733 . S
C503 C175 1.722 . S
C517 C25 1.841 . S
C521 C258 1.812 . S
C539 C178 1.426 . S
C535 C82 1.402 . S
C553 C101 1.163 . S
C557 C218 1.201 . S
C571 C125 2.180 . S
C575 C255 2.212 . S
C589 C144 1.874 . S
C593 C295 1.917 . S
C607 C87 1.416 . S
C611 C216 1.511 . S
C629 C176 2.459 . S
C625 C97 2.367 . S
C647 C285 1.493 . S
C643 C120 1.551 . S
C665 C245 1.627 . S
C661 C135 1.628 . S
C679 C78 1.858 . S
C683 C289 1.902 . S
C701 C194 1.690 . S
C697 C116 1.702 . S
C719 C154 2.406 . S
C715 C139 2.455 . S
C733 C106 0.995 . S
C737 C249 1.258 . S
