# Generated by pormake.
# Topology llk, (3,12)-cn, num edge types: 1
# Building blocks:
#     Node 0, Type 0, BuildingBlock: KAKCAD_clean_linker_0, # of connection points: 3
#     Node 1, Type 0, BuildingBlock: KAKCAD_clean_linker_0, # of connection points: 3
#     Node 2, Type 0, BuildingBlock: KAKCAD_clean_linker_0, # of connection points: 3
#     Node 3, Type 0, BuildingBlock: KAKCAD_clean_linker_0, # of connection points: 3
#     Node 4, Type 0, BuildingBlock: KAKCAD_clean_linker_0, # of connection points: 3
#     Node 5, Type 0, BuildingBlock: KAKCAD_clean_linker_0, # of connection points: 3
#     Node 6, Type 0, BuildingBlock: KAKCAD_clean_linker_0, # of connection points: 3
#     Node 7, Type 0, BuildingBlock: KAKCAD_clean_linker_0, # of connection points: 3
#     Node 8, Type 0, BuildingBlock: KAKCAD_clean_linker_0, # of connection points: 3
#     Node 9, Type 0, BuildingBlock: KAKCAD_clean_linker_0, # of connection points: 3
#     Node 10, Type 0, BuildingBlock: KAKCAD_clean_linker_0, # of connection points: 3
#     Node 11, Type 0, BuildingBlock: KAKCAD_clean_linker_0, # of connection points: 3
#     Node 12, Type 0, BuildingBlock: KAKCAD_clean_linker_0, # of connection points: 3
#     Node 13, Type 0, BuildingBlock: KAKCAD_clean_linker_0, # of connection points: 3
#     Node 14, Type 0, BuildingBlock: KAKCAD_clean_linker_0, # of connection points: 3
#     Node 15, Type 0, BuildingBlock: KAKCAD_clean_linker_0, # of connection points: 3
#     Node 16, Type 0, BuildingBlock: KAKCAD_clean_linker_0, # of connection points: 3
#     Node 17, Type 0, BuildingBlock: KAKCAD_clean_linker_0, # of connection points: 3
#     Node 18, Type 0, BuildingBlock: KAKCAD_clean_linker_0, # of connection points: 3
#     Node 19, Type 0, BuildingBlock: KAKCAD_clean_linker_0, # of connection points: 3
#     Node 20, Type 0, BuildingBlock: KAKCAD_clean_linker_0, # of connection points: 3
#     Node 21, Type 0, BuildingBlock: KAKCAD_clean_linker_0, # of connection points: 3
#     Node 22, Type 0, BuildingBlock: KAKCAD_clean_linker_0, # of connection points: 3
#     Node 23, Type 0, BuildingBlock: KAKCAD_clean_linker_0, # of connection points: 3
#     Node 24, Type 1, BuildingBlock: QEWDON_clean_sbu_0, # of connection points: 12
#     Node 25, Type 1, BuildingBlock: QEWDON_clean_sbu_0, # of connection points: 12
#     Node 26, Type 1, BuildingBlock: QEWDON_clean_sbu_0, # of connection points: 12
#     Node 27, Type 1, BuildingBlock: QEWDON_clean_sbu_0, # of connection points: 12
#     Node 28, Type 1, BuildingBlock: QEWDON_clean_sbu_0, # of connection points: 12
#     Node 29, Type 1, BuildingBlock: QEWDON_clean_sbu_0, # of connection points: 12
#     Edge 30, Type (0, 1), BuildingBlock: XIVTED_clean_linker_0, # of connection points: 2
#     Edge 31, Type (0, 1), BuildingBlock: XIVTED_clean_linker_0, # of connection points: 2
#     Edge 32, Type (0, 1), BuildingBlock: XIVTED_clean_linker_0, # of connection points: 2
#     Edge 33, Type (0, 1), BuildingBlock: XIVTED_clean_linker_0, # of connection points: 2
#     Edge 34, Type (0, 1), BuildingBlock: XIVTED_clean_linker_0, # of connection points: 2
#     Edge 35, Type (0, 1), BuildingBlock: XIVTED_clean_linker_0, # of connection points: 2
#     Edge 36, Type (0, 1), BuildingBlock: XIVTED_clean_linker_0, # of connection points: 2
#     Edge 37, Type (0, 1), BuildingBlock: XIVTED_clean_linker_0, # of connection points: 2
#     Edge 38, Type (0, 1), BuildingBlock: XIVTED_clean_linker_0, # of connection points: 2
#     Edge 39, Type (0, 1), BuildingBlock: XIVTED_clean_linker_0, # of connection points: 2
#     Edge 40, Type (0, 1), BuildingBlock: XIVTED_clean_linker_0, # of connection points: 2
#     Edge 41, Type (0, 1), BuildingBlock: XIVTED_clean_linker_0, # of connection points: 2
#     Edge 42, Type (0, 1), BuildingBlock: XIVTED_clean_linker_0, # of connection points: 2
#     Edge 43, Type (0, 1), BuildingBlock: XIVTED_clean_linker_0, # of connection points: 2
#     Edge 44, Type (0, 1), BuildingBlock: XIVTED_clean_linker_0, # of connection points: 2
#     Edge 45, Type (0, 1), BuildingBlock: XIVTED_clean_linker_0, # of connection points: 2
#     Edge 46, Type (0, 1), BuildingBlock: XIVTED_clean_linker_0, # of connection points: 2
#     Edge 47, Type (0, 1), BuildingBlock: XIVTED_clean_linker_0, # of connection points: 2
#     Edge 48, Type (0, 1), BuildingBlock: XIVTED_clean_linker_0, # of connection points: 2
#     Edge 49, Type (0, 1), BuildingBlock: XIVTED_clean_linker_0, # of connection points: 2
#     Edge 50, Type (0, 1), BuildingBlock: XIVTED_clean_linker_0, # of connection points: 2
#     Edge 51, Type (0, 1), BuildingBlock: XIVTED_clean_linker_0, # of connection points: 2
#     Edge 52, Type (0, 1), BuildingBlock: XIVTED_clean_linker_0, # of connection points: 2
#     Edge 53, Type (0, 1), BuildingBlock: XIVTED_clean_linker_0, # of connection points: 2
#     Edge 54, Type (0, 1), BuildingBlock: XIVTED_clean_linker_0, # of connection points: 2
#     Edge 55, Type (0, 1), BuildingBlock: XIVTED_clean_linker_0, # of connection points: 2
#     Edge 56, Type (0, 1), BuildingBlock: XIVTED_clean_linker_0, # of connection points: 2
#     Edge 57, Type (0, 1), BuildingBlock: XIVTED_clean_linker_0, # of connection points: 2
#     Edge 58, Type (0, 1), BuildingBlock: XIVTED_clean_linker_0, # of connection points: 2
#     Edge 59, Type (0, 1), BuildingBlock: XIVTED_clean_linker_0, # of connection points: 2
#     Edge 60, Type (0, 1), BuildingBlock: XIVTED_clean_linker_0, # of connection points: 2
#     Edge 61, Type (0, 1), BuildingBlock: XIVTED_clean_linker_0, # of connection points: 2
#     Edge 62, Type (0, 1), BuildingBlock: XIVTED_clean_linker_0, # of connection points: 2
#     Edge 63, Type (0, 1), BuildingBlock: XIVTED_clean_linker_0, # of connection points: 2
#     Edge 64, Type (0, 1), BuildingBlock: XIVTED_clean_linker_0, # of connection points: 2
#     Edge 65, Type (0, 1), BuildingBlock: XIVTED_clean_linker_0, # of connection points: 2
#     Edge 66, Type (0, 1), BuildingBlock: XIVTED_clean_linker_0, # of connection points: 2
#     Edge 67, Type (0, 1), BuildingBlock: XIVTED_clean_linker_0, # of connection points: 2
#     Edge 68, Type (0, 1), BuildingBlock: XIVTED_clean_linker_0, # of connection points: 2
#     Edge 69, Type (0, 1), BuildingBlock: XIVTED_clean_linker_0, # of connection points: 2
#     Edge 70, Type (0, 1), BuildingBlock: XIVTED_clean_linker_0, # of connection points: 2
#     Edge 71, Type (0, 1), BuildingBlock: XIVTED_clean_linker_0, # of connection points: 2
#     Edge 72, Type (0, 1), BuildingBlock: XIVTED_clean_linker_0, # of connection points: 2
#     Edge 73, Type (0, 1), BuildingBlock: XIVTED_clean_linker_0, # of connection points: 2
#     Edge 74, Type (0, 1), BuildingBlock: XIVTED_clean_linker_0, # of connection points: 2
#     Edge 75, Type (0, 1), BuildingBlock: XIVTED_clean_linker_0, # of connection points: 2
#     Edge 76, Type (0, 1), BuildingBlock: XIVTED_clean_linker_0, # of connection points: 2
#     Edge 77, Type (0, 1), BuildingBlock: XIVTED_clean_linker_0, # of connection points: 2
#     Edge 78, Type (0, 1), BuildingBlock: XIVTED_clean_linker_0, # of connection points: 2
#     Edge 79, Type (0, 1), BuildingBlock: XIVTED_clean_linker_0, # of connection points: 2
#     Edge 80, Type (0, 1), BuildingBlock: XIVTED_clean_linker_0, # of connection points: 2
#     Edge 81, Type (0, 1), BuildingBlock: XIVTED_clean_linker_0, # of connection points: 2
#     Edge 82, Type (0, 1), BuildingBlock: XIVTED_clean_linker_0, # of connection points: 2
#     Edge 83, Type (0, 1), BuildingBlock: XIVTED_clean_linker_0, # of connection points: 2
#     Edge 84, Type (0, 1), BuildingBlock: XIVTED_clean_linker_0, # of connection points: 2
#     Edge 85, Type (0, 1), BuildingBlock: XIVTED_clean_linker_0, # of connection points: 2
#     Edge 86, Type (0, 1), BuildingBlock: XIVTED_clean_linker_0, # of connection points: 2
#     Edge 87, Type (0, 1), BuildingBlock: XIVTED_clean_linker_0, # of connection points: 2
#     Edge 88, Type (0, 1), BuildingBlock: XIVTED_clean_linker_0, # of connection points: 2
#     Edge 89, Type (0, 1), BuildingBlock: XIVTED_clean_linker_0, # of connection points: 2
#     Edge 90, Type (0, 1), BuildingBlock: XIVTED_clean_linker_0, # of connection points: 2
#     Edge 91, Type (0, 1), BuildingBlock: XIVTED_clean_linker_0, # of connection points: 2
#     Edge 92, Type (0, 1), BuildingBlock: XIVTED_clean_linker_0, # of connection points: 2
#     Edge 93, Type (0, 1), BuildingBlock: XIVTED_clean_linker_0, # of connection points: 2
#     Edge 94, Type (0, 1), BuildingBlock: XIVTED_clean_linker_0, # of connection points: 2
#     Edge 95, Type (0, 1), BuildingBlock: XIVTED_clean_linker_0, # of connection points: 2
#     Edge 96, Type (0, 1), BuildingBlock: XIVTED_clean_linker_0, # of connection points: 2
#     Edge 97, Type (0, 1), BuildingBlock: XIVTED_clean_linker_0, # of connection points: 2
#     Edge 98, Type (0, 1), BuildingBlock: XIVTED_clean_linker_0, # of connection points: 2
#     Edge 99, Type (0, 1), BuildingBlock: XIVTED_clean_linker_0, # of connection points: 2
#     Edge 100, Type (0, 1), BuildingBlock: XIVTED_clean_linker_0, # of connection points: 2
#     Edge 101, Type (0, 1), BuildingBlock: XIVTED_clean_linker_0, # of connection points: 2
# Relax obj value: 0.129
# Max RMSD: 0.164
# Mean RMSD: 0.147
data_MOF--net-llk--node1-QEWDON_clean_sbu_0--node2-KAKCAD_clean_linker_0--edge1-XIVTED_clean_linker_0
_symmetry_space_group_name_H-M    P1
_symmetry_Int_Tables_number       1
_symmetry_cell_setting            triclinic
loop_
_symmetry_equiv_pos_as_xyz
'x, y, z'
_cell_length_a     55.8119
_cell_length_b     57.244542
_cell_length_c     56.509745
_cell_angle_alpha  89.995564
_cell_angle_beta   90.044713
_cell_angle_gamma 89.608545
loop_
_atom_site_label
_atom_site_type_symbol
_atom_site_fract_x
_atom_site_fract_y
_atom_site_fract_z
_atom_type_partial_charge
C0 C 0.01916 0.34528 0.3192 0.0
C1 C 0.03591 0.34377 0.33769 0.0
C2 C 0.01866 0.32832 0.30151 0.0
C3 C 0.03509 0.3096 0.30179 0.0
C4 C 0.05154 0.30785 0.32062 0.0
C5 C 0.05185 0.32472 0.33849 0.0
C6 C 0.03516 0.29215 0.28235 0.0
C7 C 0.03149 0.29919 0.25886 0.0
C8 C 0.0312 0.28285 0.24037 0.0
C9 C 0.03465 0.25895 0.24544 0.0
C10 C 0.03846 0.2517 0.26901 0.0
C11 C 0.03871 0.26841 0.28719 0.0
C12 C 0.04043 0.22682 0.27593 0.0
C13 C 0.02051 0.2122 0.27361 0.0
C14 C 0.0598 0.21945 0.29007 0.0
C15 C 0.05826 0.19904 0.30356 0.0
C16 C 0.03721 0.1857 0.30331 0.0
C17 C 0.02796 0.29181 0.216 0.0
C18 C 0.0068 0.30394 0.2101 0.0
C19 C 0.04765 0.29294 0.20063 0.0
C20 C 0.0468 0.30739 0.18062 0.0
C21 C 0.02609 0.32059 0.17548 0.0
C22 C 0.00579 0.31801 0.18988 0.0
C23 C 0.0189 0.19181 0.28721 0.0
H24 H 0.00638 0.35959 0.31846 0.0
H25 H 0.00537 0.32987 0.28762 0.0
H26 H 0.06456 0.29375 0.32126 0.0
H27 H 0.06499 0.32326 0.35254 0.0
H28 H 0.02933 0.3176 0.25478 0.0
H29 H 0.04081 0.26272 0.30539 0.0
H30 H 0.03426 0.24619 0.23129 0.0
H31 H 0.00528 0.21759 0.26299 0.0
H32 H 0.0753 0.23055 0.29221 0.0
H33 H 0.07267 0.19494 0.31574 0.0
H34 H 0.99156 0.30367 0.22196 0.0
H35 H 0.06427 0.28408 0.20506 0.0
H36 H 0.00261 0.18166 0.2863 0.0
H37 H 0.98972 0.3282 0.18646 0.0
H38 H 0.06268 0.30913 0.16977 0.0
C39 C 0.69664 0.06094 0.31916 0.0
C40 C 0.67874 0.0444 0.31483 0.0
C41 C 0.71593 0.06292 0.30352 0.0
C42 C 0.71753 0.04816 0.28367 0.0
C43 C 0.69989 0.03115 0.28004 0.0
C44 C 0.68059 0.02944 0.29535 0.0
C45 C 0.73725 0.05029 0.2664 0.0
C46 C 0.76091 0.05331 0.27377 0.0
C47 C 0.77977 0.05323 0.25725 0.0
C48 C 0.77478 0.04991 0.23307 0.0
C49 C 0.75096 0.04718 0.22568 0.0
C50 C 0.73244 0.04781 0.2423 0.0
C51 C 0.74416 0.04315 0.20091 0.0
C52 C 0.74274 0.06208 0.18525 0.0
C53 C 0.7325 0.02226 0.19529 0.0
C54 C 0.7177 0.02102 0.1755 0.0
C55 C 0.71438 0.04065 0.16083 0.0
C56 C 0.80447 0.05478 0.26634 0.0
C57 C 0.80996 0.07224 0.28282 0.0
C58 C 0.82076 0.03637 0.26267 0.0
C59 C 0.84089 0.03406 0.27729 0.0
C60 C 0.84484 0.05009 0.29577 0.0
C61 C 0.82989 0.06991 0.29743 0.0
C62 C 0.728 0.06081 0.16525 0.0
H63 H 0.69548 0.07246 0.33432 0.0
H64 H 0.72929 0.07618 0.30671 0.0
H65 H 0.70102 0.01902 0.26537 0.0
H66 H 0.66721 0.01617 0.29214 0.0
H67 H 0.76483 0.05463 0.29252 0.0
H68 H 0.71406 0.04604 0.23631 0.0
H69 H 0.78921 0.04926 0.22026 0.0
H70 H 0.75129 0.07847 0.18956 0.0
H71 H 0.73301 0.00764 0.20748 0.0
H72 H 0.70735 0.00529 0.17297 0.0
H73 H 0.79765 0.08666 0.28583 0.0
H74 H 0.81685 0.02271 0.25001 0.0
H75 H 0.7262 0.07608 0.15407 0.0
H76 H 0.83213 0.0826 0.31145 0.0
H77 H 0.85238 0.01888 0.27519 0.0
C78 C 0.007 0.71677 0.33522 0.0
C79 C 0.02616 0.70068 0.33522 0.0
C80 C 0.00389 0.73223 0.31639 0.0
C81 C 0.01973 0.73175 0.29713 0.0
C82 C 0.03857 0.71541 0.29685 0.0
C83 C 0.04182 0.70007 0.31577 0.0
C84 C 0.01718 0.74887 0.27777 0.0
C85 C 0.0142 0.77251 0.28298 0.0
C86 C 0.01248 0.78922 0.26491 0.0
C87 C 0.01362 0.78201 0.24104 0.0
C88 C 0.01652 0.75805 0.23565 0.0
C89 C 0.01831 0.74175 0.25417 0.0
C90 C 0.01682 0.74887 0.2111 0.0
C91 C -0.0032 0.75178 0.19625 0.0
C92 C 0.03477 0.73276 0.20461 0.0
C93 C 0.03165 0.71816 0.18509 0.0
C94 C 0.0107 0.71961 0.17148 0.0
C95 C 0.01049 0.81395 0.27227 0.0
C96 C -0.00756 0.8202 0.28845 0.0
C97 C 0.02958 0.82937 0.26842 0.0
C98 C 0.03157 0.84978 0.28204 0.0
C99 C 0.01461 0.85474 0.29973 0.0
C100 C -0.00542 0.8403 0.30217 0.0
C101 C -0.00625 0.73719 0.17651 0.0
H102 H -0.00574 0.7173 0.34966 0.0
H103 H 0.98903 0.74451 0.31683 0.0
H104 H 0.05117 0.71491 0.28228 0.0
H105 H 0.05689 0.68807 0.31534 0.0
H106 H 0.01395 0.77807 0.30134 0.0
H107 H 0.02008 0.72328 0.25021 0.0
H108 H 0.01229 0.79479 0.22695 0.0
H109 H 0.9826 0.76388 0.20102 0.0
H110 H 0.05038 0.73019 0.21575 0.0
H111 H 0.04495 0.70475 0.18147 0.0
H112 H 0.97767 0.80848 0.29186 0.0
H113 H 0.04392 0.8247 0.25638 0.0
H114 H 0.97743 0.73851 0.16621 0.0
H115 H 0.98121 0.84394 0.31559 0.0
H116 H 0.04717 0.86075 0.27994 0.0
C117 C 0.32651 0.01382 0.30646 0.0
C118 C 0.32359 0.99767 0.32491 0.0
C119 C 0.31238 0.01243 0.28619 0.0
C120 C 0.29507 0.99485 0.28402 0.0
C121 C 0.29289 0.97809 0.30202 0.0
C122 C 0.30709 0.97945 0.32228 0.0
C123 C 0.27816 0.99518 0.26389 0.0
C124 C 0.2862 1.00015 0.24105 0.0
C125 C 0.26991 1.00308 0.22236 0.0
C126 C 0.24526 1.00082 0.22648 0.0
C127 C 0.23708 0.99557 0.24932 0.0
C128 C 0.25358 0.99259 0.26784 0.0
C129 C 0.21142 0.99594 0.25523 0.0
C130 C 0.1984 0.01687 0.25313 0.0
C131 C 0.20154 0.97714 0.2677 0.0
C132 C 0.17993 0.97992 0.27973 0.0
C133 C 0.16806 1.00163 0.27967 0.0
C134 C 0.27938 0.00918 0.19894 0.0
C135 C 0.29447 0.02852 0.19692 0.0
C136 C 0.27705 0.99371 0.17987 0.0
C137 C 0.29139 0.99643 0.15977 0.0
C138 C 0.30812 0.01469 0.15861 0.0
C139 C 0.30873 0.03125 0.17698 0.0
C140 C 0.17686 0.01974 0.26538 0.0
H141 H 0.33939 0.02783 0.30791 0.0
H142 H 0.31433 0.0257 0.27267 0.0
H143 H 0.27985 0.96423 0.30065 0.0
H144 H 0.30446 0.96681 0.33629 0.0
H145 H 0.30526 1.00194 0.23779 0.0
H146 H 0.2471 0.9897 0.28569 0.0
H147 H 0.23258 0.00368 0.21221 0.0
H148 H 0.20589 0.03166 0.24381 0.0
H149 H 0.21147 0.96092 0.26963 0.0
H150 H 0.17368 0.96573 0.29076 0.0
H151 H 0.29648 0.04063 0.21152 0.0
H152 H 0.2655 0.97864 0.18122 0.0
H153 H 0.16793 0.0366 0.26496 0.0
H154 H 0.32153 0.04537 0.17692 0.0
H155 H 0.29025 0.98361 0.14573 0.0
C156 C 0.96729 0.70036 0.70077 0.0
C157 C 0.98277 0.7016 0.68119 0.0
C158 C 0.96925 0.71637 0.71932 0.0
C159 C 0.98661 0.73398 0.71852 0.0
C160 C 0.00211 0.73518 0.69902 0.0
C161 C 0.00026 0.71914 0.68059 0.0
C162 C 0.98866 0.75122 0.73787 0.0
C163 C 0.98909 0.74408 0.76154 0.0
C164 C -0.00725 0.76032 0.77983 0.0
C165 C -0.00439 0.78417 0.77424 0.0
C166 C -0.00538 0.79142 0.75044 0.0
C167 C 0.99119 0.77488 0.73253 0.0
C168 C -0.00235 0.81589 0.74291 0.0
C169 C 0.97775 0.83102 0.74237 0.0
C170 C 0.01815 0.8216 0.72984 0.0
C171 C 0.01803 0.84098 0.71488 0.0
C172 C -0.00259 0.85503 0.71268 0.0
C173 C -0.00518 0.75129 0.8043 0.0
C174 C 0.97635 0.73755 0.81362 0.0
C175 C 0.01671 0.7525 0.81649 0.0
C176 C 0.02059 0.73888 0.8368 0.0
C177 C 0.0025 0.72414 0.8454 0.0
C178 C 0.98008 0.72425 0.83403 0.0
C179 C 0.97767 0.8506 0.72744 0.0
H180 H 0.95351 0.68716 0.70166 0.0
H181 H 0.95698 0.71521 0.73411 0.0
H182 H 0.01594 0.74835 0.69817 0.0
H183 H 0.01288 0.72024 0.66609 0.0
H184 H 0.98761 0.72565 0.76572 0.0
H185 H 0.99052 0.78056 0.71421 0.0
H186 H -0.00133 0.79683 0.78815 0.0
H187 H 0.96155 0.8266 0.75189 0.0
H188 H 0.03351 0.80993 0.72967 0.0
H189 H 0.03363 0.84422 0.70399 0.0
H190 H 0.95941 0.73615 0.80436 0.0
H191 H 0.03131 0.76275 0.80945 0.0
H192 H 0.96155 0.86116 0.72609 0.0
H193 H 0.96584 0.71297 0.84008 0.0
H194 H 0.03797 0.73928 0.84532 0.0
C195 C 0.33781 0.98453 0.71185 0.0
C196 C 0.34176 0.00377 0.69703 0.0
C197 C 0.31901 0.98483 0.72794 0.0
C198 C 0.30377 0.00435 0.7295 0.0
C199 C 0.30667 0.023 0.71363 0.0
C200 C 0.32565 0.02275 0.69753 0.0
C201 C 0.28596 0.00559 0.74872 0.0
C202 C 0.29278 0.9998 0.7718 0.0
C203 C 0.27599 0.99947 0.79028 0.0
C204 C 0.25198 0.00538 0.78545 0.0
C205 C 0.24518 0.01176 0.76239 0.0
C206 C 0.26225 0.01195 0.74417 0.0
C207 C 0.22007 0.01636 0.75602 0.0
C208 C 0.20371 0.99789 0.75609 0.0
C209 C 0.21425 0.03716 0.74422 0.0
C210 C 0.19373 0.03848 0.73025 0.0
C211 C 0.17887 0.0189 0.72776 0.0
C212 C 0.28451 0.99417 0.81454 0.0
C213 C 0.30205 0.97677 0.81803 0.0
C214 C 0.27832 0.00883 0.8335 0.0
C215 C 0.29138 0.00784 0.85461 0.0
C216 C 0.31101 0.9924 0.85695 0.0
C217 C 0.31529 0.97599 0.83893 0.0
C218 C 0.18317 0.99915 0.74199 0.0
H219 H 0.35004 0.96975 0.71199 0.0
H220 H 0.31685 0.97008 0.73974 0.0
H221 H 0.29501 0.03819 0.71445 0.0
H222 H 0.32821 0.03768 0.68605 0.0
H223 H 0.31148 0.99598 0.77543 0.0
H224 H 0.25683 0.01611 0.7262 0.0
H225 H 0.2387 0.00497 0.79942 0.0
H226 H 0.20801 0.98165 0.76502 0.0
H227 H 0.22678 0.05155 0.74392 0.0
H228 H 0.19105 0.05393 0.71948 0.0
H229 H 0.30682 0.96486 0.80386 0.0
H230 H 0.26476 0.0223 0.8314 0.0
H231 H 0.17178 0.98395 0.74068 0.0
H232 H 0.3302 0.96384 0.83998 0.0
H233 H 0.28718 0.02031 0.86844 0.0
C234 C -0.00327 0.32572 0.68164 0.0
C235 C 0.01331 0.34402 0.68169 0.0
C236 C -0.00266 0.30881 0.69944 0.0
C237 C 0.01467 0.30984 0.71749 0.0
C238 C 0.03166 0.32781 0.71711 0.0
C239 C 0.03095 0.34477 0.69941 0.0
C240 C 0.01476 0.29245 0.73691 0.0
C241 C 0.01091 0.26884 0.73208 0.0
C242 C 0.01064 0.25221 0.75031 0.0
C243 C 0.01424 0.25938 0.7739 0.0
C244 C 0.01814 0.28319 0.77893 0.0
C245 C 0.01844 0.29946 0.76035 0.0
C246 C 0.0208 0.29219 0.80335 0.0
C247 C 0.0013 0.29175 0.81899 0.0
C248 C 0.04094 0.30561 0.80918 0.0
C249 C 0.04097 0.31958 0.82946 0.0
C250 C 0.02069 0.32066 0.84416 0.0
C251 C 0.00773 0.22748 0.74339 0.0
C252 C 0.98753 0.22116 0.73004 0.0
C253 C 0.02752 0.21222 0.74426 0.0
C254 C 0.02802 0.19215 0.73004 0.0
C255 C 0.00865 0.18707 0.71508 0.0
C256 C 0.988 0.2011 0.71597 0.0
C257 C 0.00119 0.30597 0.83918 0.0
H258 H 0.98285 0.32488 0.66826 0.0
H259 H 0.98387 0.29528 0.6994 0.0
H260 H 0.04552 0.32878 0.7305 0.0
H261 H 0.04421 0.35851 0.69958 0.0
H262 H 0.00869 0.2632 0.71389 0.0
H263 H 0.02082 0.31784 0.76432 0.0
H264 H 0.01402 0.24666 0.7881 0.0
H265 H 0.98545 0.28178 0.81468 0.0
H266 H 0.05607 0.30642 0.79721 0.0
H267 H 0.05618 0.3308 0.83266 0.0
H268 H 0.97223 0.23286 0.72884 0.0
H269 H 0.04344 0.21697 0.75407 0.0
H270 H 0.9854 0.30628 0.85032 0.0
H271 H 0.973 0.19761 0.70434 0.0
H272 H 0.04421 0.18162 0.72936 0.0
C273 C 0.7268 0.01686 0.6995 0.0
C274 C 0.70861 0.0335 0.6957 0.0
C275 C 0.74269 0.01937 0.71839 0.0
C276 C 0.74066 0.03856 0.7338 0.0
C277 C 0.72262 0.0553 0.72984 0.0
C278 C 0.70679 0.05282 0.71096 0.0
C279 C 0.75726 0.04112 0.75402 0.0
C280 C 0.78173 0.03679 0.75113 0.0
C281 C 0.7976 0.03878 0.77025 0.0
C282 C 0.7889 0.04548 0.79259 0.0
C283 C 0.76423 0.04982 0.79575 0.0
C284 C 0.74865 0.04761 0.77633 0.0
C285 C 0.75381 0.05463 0.8194 0.0
C286 C 0.7597 0.04036 0.83877 0.0
C287 C 0.73502 0.07095 0.82174 0.0
C288 C 0.72075 0.07122 0.842 0.0
C289 C 0.72508 0.05529 0.86047 0.0
C290 C 0.82321 0.03429 0.76576 0.0
C291 C 0.83001 0.01321 0.75495 0.0
C292 C 0.83966 0.05265 0.76696 0.0
C293 C 0.8616 0.05084 0.75512 0.0
C294 C 0.86723 0.03067 0.74192 0.0
C295 C 0.85183 0.01139 0.74315 0.0
C296 C 0.74551 0.04075 0.85916 0.0
H297 H 0.72849 1.00169 0.68815 0.0
H298 H 0.75631 0.00608 0.72119 0.0
H299 H 0.72091 0.07046 0.74119 0.0
H300 H 0.69329 0.06622 0.70817 0.0
H301 H 0.78859 0.03222 0.73377 0.0
H302 H 0.72952 0.05002 0.77877 0.0
H303 H 0.80117 0.04701 0.80737 0.0
H304 H 0.7741 0.02764 0.83751 0.0
H305 H 0.73034 0.08245 0.8072 0.0
H306 H 0.70522 0.08265 0.84226 0.0
H307 H 0.81748 0.99887 0.75379 0.0
H308 H 0.83468 0.0691 0.77513 0.0
H309 H 0.74973 0.02864 0.87332 0.0
H310 H 0.85544 0.99565 0.73309 0.0
H311 H 0.87331 0.06584 0.7548 0.0
C312 C 0.32296 0.31629 0.99763 0.0
C313 C 0.32531 0.33383 0.01481 0.0
C314 C 0.30367 0.30099 0.99842 0.0
C315 C 0.28639 0.30296 0.01639 0.0
C316 C 0.28852 0.32077 0.03332 0.0
C317 C 0.30782 0.33607 0.03254 0.0
C318 C 0.2666 0.28601 0.01784 0.0
C319 C 0.27118 0.26225 0.01453 0.0
C320 C 0.25271 0.24585 0.01575 0.0
C321 C 0.2291 0.25338 0.02053 0.0
C322 C 0.22432 0.2774 0.02407 0.0
C323 C 0.24321 0.29346 0.02263 0.0
C324 C 0.19981 0.28687 0.02789 0.0
C325 C 0.18165 0.28287 0.01123 0.0
C326 C 0.19601 0.30379 0.04553 0.0
C327 C 0.17569 0.31814 0.04505 0.0
C328 C 0.15852 0.3158 0.02698 0.0
C329 C 0.25966 0.22109 0.01263 0.0
C330 C 0.27071 0.21447 0.99134 0.0
C331 C 0.26247 0.20679 0.03261 0.0
C332 C 0.27826 0.18764 0.03197 0.0
C333 C 0.29156 0.18264 0.01136 0.0
C334 C 0.2865 0.19546 0.99069 0.0
C335 C 0.16115 0.29716 0.01081 0.0
H336 H 0.33628 0.31409 0.98387 0.0
H337 H 0.30231 0.28756 0.98498 0.0
H338 H 0.27554 0.32257 0.04746 0.0
H339 H 0.30908 0.34965 0.04583 0.0
H340 H 0.28942 0.25633 0.01143 0.0
H341 H 0.23957 0.31199 0.02455 0.0
H342 H 0.21473 0.24079 0.02148 0.0
H343 H 0.18414 0.26997 0.99741 0.0
H344 H 0.20971 0.30714 0.05868 0.0
H345 H 0.17452 0.33222 0.05779 0.0
H346 H 0.26912 0.2255 0.97582 0.0
H347 H 0.25438 0.21175 0.04931 0.0
H348 H 0.14801 0.29441 0.99701 0.0
H349 H 0.29642 0.19236 0.97452 0.0
H350 H 0.28131 0.17781 0.04807 0.0
C351 C 0.30995 0.72338 0.02844 0.0
C352 C 0.30855 0.70672 0.01031 0.0
C353 C 0.29321 0.74157 0.02959 0.0
C354 C 0.27463 0.74306 0.01285 0.0
C355 C 0.27334 0.72633 0.99471 0.0
C356 C 0.2903 0.70839 0.99335 0.0
C357 C 0.25635 0.76178 0.01453 0.0
C358 C 0.26309 0.78497 0.01816 0.0
C359 C 0.24578 0.80285 0.01976 0.0
C360 C 0.2213 0.79727 0.01787 0.0
C361 C 0.21445 0.77394 0.01431 0.0
C362 C 0.23205 0.75641 0.01258 0.0
C363 C 0.18915 0.76676 0.01291 0.0
C364 C 0.17451 0.76768 0.03307 0.0
C365 C 0.18156 0.75405 0.99313 0.0
C366 C 0.16084 0.74068 0.99419 0.0
C367 C 0.14721 0.73969 0.01513 0.0
C368 C 0.2541 0.82717 0.02257 0.0
C369 C 0.27159 0.83216 0.03964 0.0
C370 C 0.24771 0.84444 0.00604 0.0
C371 C 0.26005 0.86568 0.00545 0.0
C372 C 0.27885 0.86997 0.02147 0.0
C373 C 0.28384 0.85327 0.0391 0.0
C374 C 0.15365 0.7542 0.03419 0.0
H375 H 0.32406 0.72237 0.04159 0.0
H376 H 0.29451 0.7542 0.0438 0.0
H377 H 0.25928 0.72722 0.9815 0.0
H378 H 0.289 0.69561 0.97927 0.0
H379 H 0.28198 0.78922 0.01908 0.0
H380 H 0.22673 0.73836 0.01027 0.0
H381 H 0.20778 0.81089 0.01916 0.0
H382 H 0.18019 0.77725 0.04861 0.0
H383 H 0.19274 0.75294 0.97748 0.0
H384 H 0.15678 0.72959 0.97922 0.0
H385 H 0.27679 0.81912 0.0526 0.0
H386 H 0.23433 0.84093 0.99262 0.0
H387 H 0.14338 0.75409 0.05044 0.0
H388 H 0.29835 0.85574 0.05156 0.0
H389 H 0.25557 0.87831 0.99185 0.0
C390 C 0.73739 0.33743 0.98058 0.0
C391 C 0.72036 0.33784 -0.00117 0.0
C392 C 0.75482 0.31991 0.9798 0.0
C393 C 0.75556 0.30247 0.99726 0.0
C394 C 0.73811 0.30248 0.01516 0.0
C395 C 0.72066 0.32003 0.01594 0.0
C396 C 0.77502 0.2848 0.99721 0.0
C397 C 0.79861 0.29151 0.99277 0.0
C398 C 0.81742 0.27508 0.99256 0.0
C399 C 0.81235 0.25141 0.99728 0.0
C400 C 0.7886 0.24454 0.00204 0.0
C401 C 0.77016 0.26135 0.00185 0.0
C402 C 0.78187 0.21994 0.00645 0.0
C403 C 0.78571 0.2028 0.9891 0.0
C404 C 0.76724 0.21471 0.02593 0.0
C405 C 0.75497 0.1936 0.02701 0.0
C406 C 0.75707 0.17713 0.00863 0.0
C407 C 0.8421 0.28384 0.98861 0.0
C408 C 0.84609 0.30062 0.97091 0.0
C409 C 0.86047 0.27906 0.00491 0.0
C410 C 0.8814 0.29249 0.00493 0.0
C411 C 0.88423 0.31111 0.98881 0.0
C412 C 0.86675 0.3142 0.9711 0.0
C413 C 0.77338 0.18155 0.99016 0.0
H414 H 0.73768 0.35102 0.96724 0.0
H415 H 0.76786 0.32013 0.96561 0.0
H416 H 0.73831 0.2893 0.02891 0.0
H417 H 0.70751 0.31976 0.03003 0.0
H418 H 0.80247 0.30987 0.99013 0.0
H419 H 0.75179 0.25603 0.00482 0.0
H420 H 0.82666 0.23853 0.99732 0.0
H421 H 0.79678 0.20649 0.97383 0.0
H422 H 0.76397 0.2277 0.03952 0.0
H423 H 0.74247 0.19106 0.04141 0.0
H424 H 0.83234 0.30447 0.9579 0.0
H425 H 0.85793 0.26618 0.01871 0.0
H426 H 0.77575 0.16909 0.97593 0.0
H427 H 0.86797 0.32827 0.95838 0.0
H428 H 0.89476 0.28905 0.0184 0.0
C429 C 0.72115 0.70808 0.01385 0.0
C430 C 0.701 0.71319 -7e-05 0.0
C431 C 0.7403 0.72362 0.01465 0.0
C432 C 0.73965 0.7443 0.00122 0.0
C433 C 0.71943 0.74908 0.98705 0.0
C434 C 0.70016 0.73377 0.98663 0.0
C435 C 0.75986 0.76096 0.00188 0.0
C436 C 0.78369 0.75312 0.00249 0.0
C437 C 0.80272 0.76904 0.00166 0.0
C438 C 0.7979 0.79317 3e-05 0.0
C439 C 0.77402 0.80107 -0.0002 0.0
C440 C 0.7553 0.78497 0.00108 0.0
C441 C 0.76711 0.82582 0.99765 0.0
C442 C 0.76377 0.83903 0.01832 0.0
C443 C 0.75565 0.83285 0.97669 0.0
C444 C 0.73869 0.85084 0.97712 0.0
C445 C 0.73311 0.86217 -0.00154 0.0
C446 C 0.82735 0.75958 0.00169 0.0
C447 C 0.83523 0.74632 0.0211 0.0
C448 C 0.84117 0.75996 0.98096 0.0
C449 C 0.86183 0.74603 0.97916 0.0
C450 C 0.86908 0.7319 0.99824 0.0
C451 C 0.85602 0.73277 0.01947 0.0
C452 C 0.74691 0.85727 0.0187 0.0
H453 H 0.72191 0.69223 0.02431 0.0
H454 H 0.75542 0.71957 0.02598 0.0
H455 H 0.71855 0.76456 0.97606 0.0
H456 H 0.68475 0.73779 0.97564 0.0
H457 H 0.78756 0.73454 0.0028 0.0
H458 H 0.73695 0.79136 0.0013 0.0
H459 H 0.81246 0.80555 -0.00104 0.0
H460 H 0.77208 0.83357 0.03477 0.0
H461 H 0.75766 0.82261 0.96068 0.0
H462 H 0.72842 0.85448 0.96124 0.0
H463 H 0.82458 0.74552 0.03711 0.0
H464 H 0.83515 0.76982 0.96568 0.0
H465 H 0.74291 0.86579 0.03537 0.0
H466 H 0.86103 0.72183 0.03434 0.0
H467 H 0.87165 0.74564 0.96264 0.0
C468 C 0.5131 0.8442 0.80207 0.0
C469 C 0.53186 0.84515 0.81869 0.0
C470 C 0.51238 0.82647 0.78519 0.0
C471 C 0.53023 0.80913 0.7847 0.0
C472 C 0.54871 0.80967 0.80158 0.0
C473 C 0.54957 0.82756 0.81839 0.0
C474 C 0.52956 0.79063 0.76645 0.0
C475 C 0.52567 0.79639 0.74271 0.0
C476 C 0.52517 0.77908 0.72516 0.0
C477 C 0.52824 0.75537 0.73163 0.0
C478 C 0.53203 0.74943 0.75566 0.0
C479 C 0.53277 0.76723 0.77274 0.0
C480 C 0.53476 0.72505 0.76429 0.0
C481 C 0.51511 0.70982 0.76423 0.0
C482 C 0.55485 0.71932 0.7782 0.0
C483 C 0.55436 0.70022 0.79356 0.0
C484 C 0.53382 0.68627 0.7953 0.0
C485 C 0.52274 0.78717 0.70033 0.0
C486 C 0.50115 0.79771 0.69298 0.0
C487 C 0.54345 0.79064 0.68673 0.0
C488 C 0.54301 0.80588 0.66729 0.0
C489 C 0.52178 0.81772 0.66093 0.0
C490 C 0.50061 0.81265 0.67331 0.0
C491 C 0.51468 0.69048 0.77958 0.0
H492 H 0.49879 0.85706 0.80219 0.0
H493 H 0.4977 0.82619 0.77264 0.0
H494 H 0.56277 0.79652 0.80147 0.0
H495 H 0.56435 0.82786 0.83081 0.0
H496 H 0.52365 0.8146 0.73771 0.0
H497 H 0.53529 0.76275 0.79124 0.0
H498 H 0.52788 0.74185 0.71823 0.0
H499 H 0.49927 0.71402 0.75395 0.0
H500 H 0.57017 0.73084 0.77867 0.0
H501 H 0.56951 0.69722 0.8052 0.0
H502 H 0.4851 0.79583 0.70356 0.0
H503 H 0.56042 0.7832 0.69237 0.0
H504 H 0.49861 0.68002 0.78052 0.0
H505 H 0.48406 0.82169 0.669 0.0
H506 H 0.55958 0.80943 0.65803 0.0
C507 C 0.22689 0.55585 0.81608 0.0
C508 C 0.20751 0.54137 0.81061 0.0
C509 C 0.24694 0.55635 0.80129 0.0
C510 C 0.24809 0.54197 0.7811 0.0
C511 C 0.22873 0.52709 0.77614 0.0
C512 C 0.20854 0.52703 0.79059 0.0
C513 C 0.26919 0.54248 0.76506 0.0
C514 C 0.29243 0.54539 0.77393 0.0
C515 C 0.31245 0.54531 0.75878 0.0
C516 C 0.30905 0.54159 0.73429 0.0
C517 C 0.28573 0.53847 0.7253 0.0
C518 C 0.26611 0.53949 0.7407 0.0
C519 C 0.28052 0.53402 0.70003 0.0
C520 C 0.28248 0.55204 0.68335 0.0
C521 C 0.26762 0.51388 0.69404 0.0
C522 C 0.25494 0.51271 0.6728 0.0
C523 C 0.25491 0.53165 0.65693 0.0
C524 C 0.33658 0.54818 0.76953 0.0
C525 C 0.34009 0.56553 0.78675 0.0
C526 C 0.35492 0.53173 0.76554 0.0
C527 C 0.37547 0.53151 0.77989 0.0
C528 C 0.37804 0.54773 0.79852 0.0
C529 C 0.36046 0.56527 0.80109 0.0
C530 C 0.26984 0.55083 0.66191 0.0
H531 H 0.22633 0.56702 0.83155 0.0
H532 H 0.26133 0.56823 0.80553 0.0
H533 H 0.2292 0.51527 0.7612 0.0
H534 H 0.19387 0.51544 0.78637 0.0
H535 H 0.2951 0.547 0.79285 0.0
H536 H 0.24819 0.53799 0.73344 0.0
H537 H 0.32429 0.54104 0.72243 0.0
H538 H 0.29209 0.56784 0.6877 0.0
H539 H 0.26561 0.49989 0.7068 0.0
H540 H 0.24357 0.49774 0.66987 0.0
H541 H 0.32634 0.57857 0.79007 0.0
H542 H 0.35271 0.51815 0.75238 0.0
H543 H 0.27067 0.56553 0.64989 0.0
H544 H 0.36151 0.57798 0.81523 0.0
H545 H 0.38885 0.51804 0.77699 0.0
C546 C 0.46566 0.21903 0.82909 0.0
C547 C 0.48096 0.19971 0.82556 0.0
C548 C 0.46311 0.23615 0.81149 0.0
C549 C 0.47586 0.2343 0.79007 0.0
C550 C 0.49072 0.21469 0.7865 0.0
C551 C 0.493 0.19756 0.80384 0.0
C552 C 0.47489 0.25307 0.77183 0.0
C553 C 0.47472 0.27669 0.77836 0.0
C554 C 0.47736 0.29446 0.76138 0.0
C555 C 0.48045 0.28834 0.73729 0.0
C556 C 0.47999 0.26459 0.73048 0.0
C557 C 0.47663 0.24737 0.74778 0.0
C558 C 0.48519 0.25625 0.7061 0.0
C559 C 0.4673 0.25615 0.6886 0.0
C560 C 0.50595 0.24277 0.70248 0.0
C561 C 0.5081 0.22816 0.68279 0.0
C562 C 0.4896 0.22668 0.66584 0.0
C563 C 0.47904 0.31887 0.77021 0.0
C564 C 0.4604 0.32811 0.78421 0.0
C565 C 0.50104 0.33063 0.76959 0.0
C566 C 0.50496 0.35004 0.78427 0.0
C567 C 0.48678 0.35826 0.79941 0.0
C568 C 0.46418 0.34772 0.79853 0.0
C569 C 0.46955 0.24163 0.66859 0.0
H570 H 0.4562 0.22129 0.84566 0.0
H571 H 0.45134 0.25091 0.81477 0.0
H572 H 0.50125 0.21278 0.77052 0.0
H573 H 0.50457 0.18271 0.80026 0.0
H574 H 0.47395 0.28135 0.79694 0.0
H575 H 0.47624 0.22919 0.7424 0.0
H576 H 0.48356 0.30177 0.72417 0.0
H577 H 0.45092 0.26607 0.69117 0.0
H578 H 0.51977 0.24212 0.71596 0.0
H579 H 0.52367 0.21684 0.68192 0.0
H580 H 0.44339 0.31916 0.7853 0.0
H581 H 0.51582 0.32365 0.75932 0.0
H582 H 0.4551 0.24146 0.65581 0.0
H583 H 0.45 0.35355 0.81026 0.0
H584 H 0.52259 0.35782 0.78479 0.0
C585 C 0.81459 0.52163 0.81013 0.0
C586 C 0.81185 0.50647 0.82939 0.0
C587 C 0.79754 0.52193 0.79201 0.0
C588 C 0.77773 0.50687 0.79291 0.0
C589 C 0.77587 0.49094 0.81177 0.0
C590 C 0.79265 0.49093 0.82998 0.0
C591 C 0.75851 0.50817 0.77484 0.0
C592 C 0.76385 0.51142 0.75093 0.0
C593 C 0.74562 0.51186 0.73381 0.0
C594 C 0.72154 0.50874 0.74071 0.0
C595 C 0.71602 0.50544 0.76486 0.0
C596 C 0.73457 0.50574 0.78161 0.0
C597 C 0.69136 0.50148 0.77382 0.0
C598 C 0.67316 0.51819 0.77058 0.0
C599 C 0.68758 0.48318 0.78993 0.0
C600 C 0.6673 0.48289 0.8043 0.0
C601 C 0.64984 0.50069 0.8027 0.0
C602 C 0.75321 0.51445 0.70893 0.0
C603 C 0.76371 0.53555 0.70195 0.0
C604 C 0.75717 0.49437 0.69522 0.0
C605 C 0.77345 0.49483 0.67636 0.0
C606 C 0.78608 0.51539 0.67103 0.0
C607 C 0.77991 0.53606 0.68311 0.0
C608 C 0.6525 0.51772 0.78479 0.0
H609 H 0.82941 0.53374 0.80955 0.0
H610 H 0.79944 0.53446 0.77779 0.0
H611 H 0.76122 0.47866 0.81265 0.0
H612 H 0.79052 0.47898 0.84469 0.0
H613 H 0.78239 0.51299 0.74542 0.0
H614 H 0.73024 0.50414 0.80024 0.0
H615 H 0.70744 0.50858 0.72752 0.0
H616 H 0.67563 0.53252 0.75832 0.0
H617 H 0.70134 0.47001 0.79275 0.0
H618 H 0.66639 0.46955 0.81782 0.0
H619 H 0.76129 0.55115 0.71258 0.0
H620 H 0.74956 0.47781 0.70053 0.0
H621 H 0.63921 0.53137 0.78244 0.0
H622 H 0.78932 0.55219 0.67967 0.0
H623 H 0.77746 0.4787 0.66712 0.0
C624 C 0.4747 0.19949 0.21588 0.0
C625 C 0.48992 0.2007 0.19613 0.0
C626 C 0.47521 0.217 0.23314 0.0
C627 C 0.49099 0.23592 0.23094 0.0
C628 C 0.50648 0.23681 0.21139 0.0
C629 C 0.50593 0.21942 0.19418 0.0
C630 C 0.49177 0.25461 0.24903 0.0
C631 C 0.49192 0.24908 0.27311 0.0
C632 C 0.49499 0.26645 0.29036 0.0
C633 C 0.49764 0.29005 0.2832 0.0
C634 C 0.497 0.29582 0.25881 0.0
C635 C 0.4939 0.27796 0.24213 0.0
C636 C 0.50038 0.31984 0.24927 0.0
C637 C 0.48182 0.33656 0.25046 0.0
C638 C 0.51944 0.32371 0.23349 0.0
C639 C 0.51905 0.34275 0.21796 0.0
C640 C 0.49975 0.35857 0.21797 0.0
C641 C 0.49732 0.25832 0.31526 0.0
C642 C 0.47815 0.24632 0.32577 0.0
C643 C 0.52014 0.25646 0.32562 0.0
C644 C 0.52408 0.24144 0.34493 0.0
C645 C 0.50518 0.2283 0.35447 0.0
C646 C 0.48199 0.23167 0.34531 0.0
C647 C 0.48156 0.35586 0.23497 0.0
H648 H 0.46216 0.18526 0.21775 0.0
H649 H 0.46303 0.21592 0.248 0.0
H650 H 0.51928 0.25083 0.20953 0.0
H651 H 0.51828 0.2205 0.17945 0.0
H652 H 0.49085 0.23092 0.2785 0.0
H653 H 0.49336 0.28232 0.22345 0.0
H654 H 0.50053 0.30356 0.29629 0.0
H655 H 0.46664 0.33374 0.26202 0.0
H656 H 0.53375 0.31093 0.23189 0.0
H657 H 0.53326 0.34442 0.20502 0.0
H658 H 0.4605 0.24696 0.31778 0.0
H659 H 0.53531 0.26508 0.31757 0.0
H660 H 0.4664 0.36778 0.23522 0.0
H661 H 0.46711 0.22168 0.35218 0.0
H662 H 0.54211 0.23928 0.35175 0.0
C663 C 0.81904 0.49385 0.22289 0.0
C664 C 0.82082 0.51099 0.20523 0.0
C665 C 0.79893 0.49301 0.23744 0.0
C666 C 0.78017 0.50927 0.23461 0.0
C667 C 0.78155 0.52593 0.21644 0.0
C668 C 0.80175 0.52682 0.2019 0.0
C669 C 0.75981 0.50938 0.25134 0.0
C670 C 0.76412 0.50719 0.27561 0.0
C671 C 0.74519 0.50678 0.29188 0.0
C672 C 0.72143 0.50855 0.28371 0.0
C673 C 0.71692 0.51082 0.25928 0.0
C674 C 0.73618 0.51148 0.2433 0.0
C675 C 0.69239 0.51094 0.24949 0.0
C676 C 0.67877 0.49043 0.24992 0.0
C677 C 0.68466 0.52983 0.23555 0.0
C678 C 0.66443 0.52776 0.22116 0.0
C679 C 0.65187 0.50659 0.2201 0.0
C680 C 0.75143 0.50515 0.31723 0.0
C681 C 0.76601 0.48657 0.32488 0.0
C682 C 0.74814 0.52454 0.33207 0.0
C683 C 0.76115 0.5263 0.35321 0.0
C684 C 0.7776 0.50867 0.35975 0.0
C685 C 0.77894 0.48827 0.34593 0.0
C686 C 0.65875 0.48818 0.23516 0.0
H687 H 0.83351 0.48151 0.22596 0.0
H688 H 0.79817 0.47979 0.25113 0.0
H689 H 0.76736 0.5387 0.21393 0.0
H690 H 0.80254 0.54003 0.1882 0.0
H691 H 0.78244 0.50624 0.282 0.0
H692 H 0.73268 0.51275 0.22445 0.0
H693 H 0.70668 0.50801 0.29614 0.0
H694 H 0.68464 0.47555 0.26033 0.0
H695 H 0.69512 0.5457 0.23475 0.0
H696 H 0.65964 0.54216 0.2096 0.0
H697 H 0.76898 0.47155 0.31355 0.0
H698 H 0.73717 0.53918 0.32637 0.0
H699 H 0.64928 0.47174 0.23474 0.0
H700 H 0.79152 0.47442 0.35022 0.0
H701 H 0.75941 0.54206 0.36368 0.0
C702 C 0.52948 0.83107 0.19531 0.0
C703 C 0.54537 0.84999 0.19585 0.0
C704 C 0.53155 0.81304 0.21178 0.0
C705 C 0.54946 0.81362 0.22922 0.0
C706 C 0.56569 0.83231 0.22948 0.0
C707 C 0.56375 0.85028 0.21282 0.0
C708 C 0.55041 0.7953 0.24769 0.0
C709 C 0.54784 0.77177 0.24166 0.0
C710 C 0.54716 0.7544 0.25914 0.0
C711 C 0.54891 0.76079 0.28325 0.0
C712 C 0.55171 0.78456 0.2895 0.0
C713 C 0.55254 0.80149 0.27152 0.0
C714 C 0.55234 0.79301 0.31441 0.0
C715 C 0.53277 0.7895 0.32956 0.0
C716 C 0.57008 0.80899 0.32121 0.0
C717 C 0.56726 0.82276 0.34148 0.0
C718 C 0.5466 0.82088 0.3556 0.0
C719 C 0.54433 0.72996 0.251 0.0
C720 C 0.5229 0.72353 0.23979 0.0
C721 C 0.56449 0.71528 0.24882 0.0
C722 C 0.56359 0.69526 0.23446 0.0
C723 C 0.54244 0.68949 0.22228 0.0
C724 C 0.5219 0.70344 0.22577 0.0
C725 C 0.52993 0.80328 0.34997 0.0
H726 H 0.51533 0.8303 0.18221 0.0
H727 H 0.51868 0.79896 0.21127 0.0
H728 H 0.57977 0.83307 0.24266 0.0
H729 H 0.57619 0.86471 0.21361 0.0
H730 H 0.54642 0.76686 0.22317 0.0
H731 H 0.55377 0.81982 0.2762 0.0
H732 H 0.54801 0.74752 0.29689 0.0
H733 H 0.51874 0.77741 0.32471 0.0
H734 H 0.58535 0.81209 0.30983 0.0
H735 H 0.58048 0.83607 0.34497 0.0
H736 H 0.50733 0.73492 0.24065 0.0
H737 H 0.58135 0.72017 0.25685 0.0
H738 H 0.51407 0.80089 0.36069 0.0
H739 H 0.50544 0.69966 0.2164 0.0
H740 H 0.57966 0.68478 0.23219 0.0
C741 C 0.23352 0.52664 0.18789 0.0
C742 C 0.21369 0.54166 0.18841 0.0
C743 C 0.25037 0.52728 0.20596 0.0
C744 C 0.24793 0.54331 0.22468 0.0
C745 C 0.22769 0.55811 0.22537 0.0
C746 C 0.21055 0.55717 0.20734 0.0
C747 C 0.26671 0.54441 0.24318 0.0
C748 C 0.29077 0.54153 0.23698 0.0
C749 C 0.30876 0.54008 0.25425 0.0
C750 C 0.30267 0.54266 0.27828 0.0
C751 C 0.27853 0.54644 0.28464 0.0
C752 C 0.26076 0.54714 0.26702 0.0
C753 C 0.27048 0.54786 0.30947 0.0
C754 C 0.27148 0.52793 0.32388 0.0
C755 C 0.25595 0.56677 0.31629 0.0
C756 C 0.24037 0.56469 0.33542 0.0
C757 C 0.23906 0.54361 0.34817 0.0
C758 C 0.33351 0.53578 0.24592 0.0
C759 C 0.3376 0.51735 0.23001 0.0
C760 C 0.35124 0.55275 0.24893 0.0
C761 C 0.3716 0.55261 0.23439 0.0
C762 C 0.37438 0.53559 0.21654 0.0
C763 C 0.35767 0.51732 0.21539 0.0
C764 C 0.2559 0.52583 0.34317 0.0
H765 H 0.23588 0.51433 0.17349 0.0
H766 H 0.26532 0.51514 0.20526 0.0
H767 H 0.22534 0.57067 0.23952 0.0
H768 H 0.19514 0.56877 0.20793 0.0
H769 H 0.29564 0.54029 0.21844 0.0
H770 H 0.24208 0.54883 0.27206 0.0
H771 H 0.3164 0.54148 0.29181 0.0
H772 H 0.28251 0.51309 0.31886 0.0
H773 H 0.25484 0.58228 0.30532 0.0
H774 H 0.22774 0.57878 0.33856 0.0
H775 H 0.3241 0.50407 0.22735 0.0
H776 H 0.34842 0.56716 0.26106 0.0
H777 H 0.2558 0.5096 0.35301 0.0
H778 H 0.35885 0.50397 0.20186 0.0
H779 H 0.38441 0.56661 0.2362 0.0
C780 C 0.84048 0.82934 0.47669 0.0
C781 C 0.84296 0.84516 0.49547 0.0
C782 C 0.8221 0.81292 0.47688 0.0
C783 C 0.8057 0.81223 0.49573 0.0
C784 C 0.80781 0.82847 0.51423 0.0
C785 C 0.82639 0.84469 0.51417 0.0
C786 C 0.78689 0.79413 0.49635 0.0
C787 C 0.79283 0.77083 0.49167 0.0
C788 C 0.77534 0.75328 0.49184 0.0
C789 C 0.75132 0.75944 0.49691 0.0
C790 C 0.7452 0.78291 0.50187 0.0
C791 C 0.76315 0.80001 0.50164 0.0
C792 C 0.7202 0.79069 0.50633 0.0
C793 C 0.70267 0.78856 0.48865 0.0
C794 C 0.71516 0.80448 0.5263 0.0
C795 C 0.69394 0.81748 0.52767 0.0
C796 C 0.67725 0.81711 0.509 0.0
C797 C 0.78335 0.72871 0.48787 0.0
C798 C 0.80055 0.72384 0.47032 0.0
C799 C 0.77731 0.71095 0.50388 0.0
C800 C 0.78994 0.68966 0.50379 0.0
C801 C 0.809 0.68578 0.48781 0.0
C802 C 0.81331 0.70277 0.47038 0.0
C803 C 0.68138 0.80169 0.48995 0.0
H804 H 0.85311 0.82929 0.46214 0.0
H805 H 0.82073 0.80071 0.46231 0.0
H806 H 0.79547 0.82823 0.52901 0.0
H807 H 0.82784 0.85687 0.52877 0.0
H808 H 0.81144 0.76625 0.48855 0.0
H809 H 0.75846 0.81814 0.50491 0.0
H810 H 0.73758 0.74616 0.49704 0.0
H811 H 0.70619 0.77817 0.473 0.0
H812 H 0.72844 0.80645 0.54015 0.0
H813 H 0.69158 0.82919 0.54254 0.0
H814 H 0.80533 0.73705 0.45746 0.0
H815 H 0.76408 0.71411 0.51755 0.0
H816 H 0.66874 0.80067 0.47545 0.0
H817 H 0.82776 0.70068 0.45778 0.0
H818 H 0.78554 0.67674 0.51705 0.0
C819 C 0.8446 0.22338 0.50205 0.0
C820 C 0.84445 0.20554 0.48503 0.0
C821 C 0.82624 0.23995 0.50267 0.0
C822 C 0.80726 0.23893 0.48637 0.0
C823 C 0.80741 0.22144 0.46891 0.0
C824 C 0.82602 0.20494 0.46814 0.0
C825 C 0.78713 0.25576 0.48833 0.0
C826 C 0.79185 0.27941 0.49204 0.0
C827 C 0.77324 0.29533 0.49644 0.0
C828 C 0.74944 0.28759 0.49711 0.0
C829 C 0.7444 0.26386 0.49305 0.0
C830 C 0.76333 0.24812 0.48846 0.0
C831 C 0.71974 0.25472 0.49466 0.0
C832 C 0.70646 0.25696 0.51567 0.0
C833 C 0.71059 0.24116 0.47611 0.0
C834 C 0.68908 0.22922 0.47882 0.0
C835 C 0.67636 0.23032 0.50026 0.0
C836 C 0.77989 0.31966 0.50131 0.0
C837 C 0.79287 0.32441 0.52194 0.0
C838 C 0.77901 0.33634 0.48315 0.0
C839 C 0.79256 0.35677 0.48488 0.0
C840 C 0.80726 0.36063 0.50475 0.0
C841 C 0.80641 0.34466 0.52368 0.0
C842 C 0.68501 0.24466 0.51854 0.0
H843 H 0.85865 0.22414 0.51527 0.0
H844 H 0.82648 0.25311 0.51645 0.0
H845 H 0.79304 0.22041 0.45607 0.0
H846 H 0.82547 0.19116 0.45502 0.0
H847 H 0.81022 0.2855 0.49181 0.0
H848 H 0.75958 0.2297 0.48615 0.0
H849 H 0.73505 0.29983 0.50093 0.0
H850 H 0.7133 0.26719 0.53028 0.0
H851 H 0.72058 0.23914 0.45979 0.0
H852 H 0.68306 0.21813 0.4645 0.0
H853 H 0.79414 0.31148 0.53591 0.0
H854 H 0.76937 0.33274 0.46692 0.0
H855 H 0.67551 0.24589 0.5352 0.0
H856 H 0.81771 0.34675 0.5391 0.0
H857 H 0.79253 0.36888 0.47016 0.0
C858 C 0.20486 0.84347 0.50498 0.0
C859 C 0.18571 0.84217 0.52106 0.0
C860 C 0.2235 0.82712 0.50575 0.0
C861 C 0.22342 0.80912 0.52266 0.0
C862 C 0.20455 0.80817 0.53911 0.0
C863 C 0.18588 0.82453 0.53832 0.0
C864 C 0.24253 0.79094 0.52262 0.0
C865 C 0.26642 0.79683 0.51838 0.0
C866 C 0.28452 0.77966 0.51763 0.0
C867 C 0.27849 0.75603 0.52177 0.0
C868 C 0.25438 0.74989 0.52628 0.0
C869 C 0.23673 0.76752 0.52632 0.0
C870 C 0.24629 0.72537 0.52996 0.0
C871 C 0.2519 0.7077 0.51362 0.0
C872 C 0.22905 0.72072 0.54747 0.0
C873 C 0.21578 0.70012 0.54704 0.0
C874 C 0.21967 0.68322 0.52935 0.0
C875 C 0.30942 0.78758 0.51294 0.0
C876 C 0.3137 0.80261 0.49374 0.0
C877 C 0.32766 0.78422 0.52974 0.0
C878 C 0.34891 0.79721 0.52842 0.0
C879 C 0.35231 0.8138 0.51027 0.0
C880 C 0.33479 0.81555 0.49242 0.0
C881 C 0.23884 0.68678 0.51342 0.0
H882 H 0.20536 0.85708 0.49168 0.0
H883 H 0.23764 0.82826 0.4927 0.0
H884 H 0.20412 0.7947 0.55256 0.0
H885 H 0.17129 0.823 0.55084 0.0
H886 H 0.27109 0.81504 0.51598 0.0
H887 H 0.21808 0.76284 0.52857 0.0
H888 H 0.2923 0.74265 0.52139 0.0
H889 H 0.26514 0.71067 0.49997 0.0
H890 H 0.22454 0.73387 0.56055 0.0
H891 H 0.20133 0.69842 0.55965 0.0
H892 H 0.29993 0.80554 0.48052 0.0
H893 H 0.32482 0.77284 0.54478 0.0
H894 H 0.24309 0.67392 0.50001 0.0
H895 H 0.33648 0.82815 0.47824 0.0
H896 H 0.3622 0.79497 0.54222 0.0
C897 C 0.20678 0.19897 0.54266 0.0
C898 C 0.1851 0.20296 0.53053 0.0
C899 C 0.22555 0.21499 0.54106 0.0
C900 C 0.22314 0.23522 0.5271 0.0
C901 C 0.20145 0.23914 0.51504 0.0
C902 C 0.18262 0.22345 0.51701 0.0
C903 C 0.24294 0.25238 0.52503 0.0
C904 C 0.26698 0.24516 0.52391 0.0
C905 C 0.28544 0.26151 0.52081 0.0
C906 C 0.27977 0.2854 0.51856 0.0
C907 C 0.25576 0.29271 0.5199 0.0
C908 C 0.23767 0.27626 0.52344 0.0
C909 C 0.24827 0.31727 0.51743 0.0
C910 C 0.24877 0.33208 0.53722 0.0
C911 C 0.23426 0.32346 0.49777 0.0
C912 C 0.21913 0.34288 0.49876 0.0
C913 C 0.2178 0.35646 0.51942 0.0
C914 C 0.31044 0.25293 0.51988 0.0
C915 C 0.31939 0.23966 0.5388 0.0
C916 C 0.32414 0.25503 0.49916 0.0
C917 C 0.3458 0.24264 0.49686 0.0
C918 C 0.35415 0.22837 0.51542 0.0
C919 C 0.34106 0.22764 0.53667 0.0
C920 C 0.23367 0.35172 0.53816 0.0
H921 H 0.20948 0.18328 0.55304 0.0
H922 H 0.24189 0.21154 0.55083 0.0
H923 H 0.19899 0.25427 0.50377 0.0
H924 H 0.16609 0.22748 0.50778 0.0
H925 H 0.27142 0.22671 0.52479 0.0
H926 H 0.21928 0.28231 0.52499 0.0
H927 H 0.29383 0.2981 0.51592 0.0
H928 H 0.25911 0.3273 0.55273 0.0
H929 H 0.23338 0.31204 0.4825 0.0
H930 H 0.2073 0.34641 0.48395 0.0
H931 H 0.30904 0.23774 0.55489 0.0
H932 H 0.31742 0.26508 0.4843 0.0
H933 H 0.23295 0.36197 0.55425 0.0
H934 H 0.34678 0.21658 0.55119 0.0
H935 H 0.35557 0.24358 0.48034 0.0
Zn936 Zn 0.97645 0.99668 0.46279 0.0
Zn937 Zn 0.97269 0.0531 0.46819 0.0
O938 O -0.00433 0.02621 0.46534 0.0
H939 H 0.00967 0.02663 0.45538 0.0
C940 C 0.96341 0.96912 0.51806 0.0
O941 O 0.95887 0.98938 0.50803 0.0
Zn942 Zn 0.05743 0.05194 0.54823 0.0
Zn943 Zn 0.05198 0.99525 0.55206 0.0
O944 O 0.03393 0.02562 0.54925 0.0
H945 H 0.02003 0.02531 0.55926 0.0
Zn946 Zn 0.986 0.99937 0.5526 0.0
O947 O 0.98838 0.02762 0.53105 0.0
Zn948 Zn 0.98282 0.05397 0.55384 0.0
H949 H -0.00352 0.02789 0.51597 0.0
Zn950 Zn 0.04016 0.99842 0.46363 0.0
O951 O 0.04322 0.02635 0.48548 0.0
H952 H 0.03548 0.02732 0.50071 0.0
Zn953 Zn 0.05069 0.05276 0.46354 0.0
C954 C 0.06236 0.96582 0.49666 0.0
O955 O 0.06603 0.98517 0.50857 0.0
O956 O 0.94416 0.00521 0.44776 0.0
O957 O 0.94062 0.04332 0.45508 0.0
O958 O 0.08385 1.00201 0.5684 0.0
O959 O 0.08651 0.04084 0.56648 0.0
O960 O 0.9691 0.00642 0.58444 0.0
O961 O 0.9601 0.04389 0.57889 0.0
C962 C 0.00545 0.08088 0.44222 0.0
O963 O 0.05537 0.00426 0.43098 0.0
O964 O 0.06796 0.0409 0.43492 0.0
O965 O 0.03299 0.96884 0.56901 0.0
C966 C 0.93265 0.02443 0.44607 0.0
O967 O -0.00628 0.97023 0.44421 0.0
C968 C 0.0242 0.08123 0.57427 0.0
O969 O 0.97574 0.96857 0.53696 0.0
C970 C 0.09444 0.02101 0.57349 0.0
O971 O 0.05051 0.96671 0.4775 0.0
C972 C 0.9635 0.07974 0.51439 0.0
O973 O 0.98328 0.07897 0.44658 0.0
O974 O 0.01967 0.06753 0.4535 0.0
C975 C 0.95843 0.02513 0.59083 0.0
O976 O 0.04481 0.08104 0.56477 0.0
O977 O 0.0122 0.06255 0.57334 0.0
C978 C 0.07151 0.07662 0.50279 0.0
O979 O 0.96696 0.08037 0.53663 0.0
O980 O 0.97327 0.06358 0.50231 0.0
C981 C 0.06702 0.02179 0.42339 0.0
O982 O 0.06958 0.077 0.4804 0.0
O983 O 0.06341 0.05916 0.51402 0.0
C984 C 0.0223 0.97442 0.5881 0.0
O985 O 0.02305 0.99624 0.59525 0.0
C986 C 0.00076 0.97635 0.42375 0.0
O987 O -0.00241 0.99817 0.41717 0.0
Zn988 Zn 0.48019 0.06352 0.03437 0.0
Zn989 Zn 0.48133 0.06703 0.97766 0.0
O990 O 0.48562 0.04469 0.00454 0.0
H991 H 0.48956 0.02826 0.00396 0.0
C992 C 0.53021 0.08643 0.07158 0.0
O993 O 0.52983 0.06361 0.07403 0.0
Zn994 Zn 0.54827 0.9804 0.97276 0.0
Zn995 Zn 0.54823 0.98882 0.02884 0.0
O996 O 0.54061 0.0042 0.99763 0.0
H997 H 0.52884 0.01637 0.99524 0.0
Zn998 Zn 0.56248 0.07568 0.03193 0.0
O999 O 0.54455 0.06229 0.00482 0.0
Zn1000 Zn 0.56599 0.0623 0.9768 0.0
H1001 H 0.52886 0.05554 0.00612 0.0
Zn1002 Zn 0.47214 0.97849 0.03104 0.0
O1003 O 0.4917 0.97778 0.00136 0.0
H1004 H 0.5066 0.96911 0.00106 0.0
Zn1005 Zn 0.46771 0.9818 0.97489 0.0
C1006 C 0.5079 0.95788 0.06378 0.0
O1007 O 0.52029 0.95478 0.04429 0.0
O1008 O 0.45762 0.09116 0.02736 0.0
O1009 O 0.45952 0.09399 0.98816 0.0
O1010 O 0.57282 0.96275 0.02401 0.0
O1011 O 0.56765 0.95305 0.98624 0.0
O1012 O 0.59685 0.08482 0.02322 0.0
O1013 O 0.59966 0.07427 0.98535 0.0
C1014 C 0.4565 0.02994 0.95233 0.0
O1015 O 0.43834 0.96679 0.02443 0.0
O1016 O 0.43459 0.96986 0.98538 0.0
O1017 O 0.5585 0.00826 0.05761 0.0
C1018 C 0.45086 0.10056 0.00804 0.0
O1019 O 0.46622 0.0454 0.06254 0.0
C1020 C 0.57766 0.01577 0.95143 0.0
O1021 O 0.54293 0.0955 0.05541 0.0
C1022 C 0.57784 0.95001 0.00627 0.0
O1023 O 0.48749 0.96781 0.06267 0.0
C1024 C 0.52769 0.08499 0.95093 0.0
O1025 O 0.46189 0.05147 0.95261 0.0
O1026 O 0.46742 0.0162 0.96648 0.0
C1027 C 0.60892 0.08278 0.00419 0.0
O1028 O 0.57115 0.99462 0.94951 0.0
O1029 O 0.56571 0.02912 0.96503 0.0
C1030 C 0.50275 0.96201 0.94421 0.0
O1031 O 0.55038 0.08263 0.95208 0.0
O1032 O 0.51497 0.07485 0.96649 0.0
C1033 C 0.42598 0.9646 0.00564 0.0
O1034 O 0.48015 0.96372 0.94662 0.0
O1035 O 0.51597 0.97197 0.95937 0.0
C1036 C 0.57346 0.02455 0.05441 0.0
O1037 O 0.57824 0.03124 0.0327 0.0
C1038 C 0.45244 0.02845 0.05784 0.0
O1039 O 0.45083 0.02116 0.03586 0.0
Zn1040 Zn 0.98252 0.50108 0.96929 0.0
Zn1041 Zn 0.96821 0.55654 0.97426 0.0
O1042 O -0.00465 0.5333 0.97669 0.0
H1043 H 0.00767 0.53554 0.98837 0.0
C1044 C 0.96755 0.46081 0.01852 0.0
O1045 O 0.96382 0.47777 0.00333 0.0
Zn1046 Zn 0.05431 0.55893 0.04138 0.0
Zn1047 Zn 0.0479 0.502 0.04931 0.0
O1048 O 0.03116 0.53184 0.03854 0.0
H1049 H 0.01761 0.53191 0.02797 0.0
Zn1050 Zn 0.98029 0.49966 0.05212 0.0
O1051 O 0.97259 0.5277 0.03127 0.0
Zn1052 Zn 0.97303 0.55462 0.05472 0.0
H1053 H 0.96238 0.52595 0.01758 0.0
Zn1054 Zn 0.05071 0.50232 0.96398 0.0
O1055 O 0.05085 0.53173 0.98395 0.0
H1056 H 0.05859 0.5312 -0.00078 0.0
Zn1057 Zn 0.04903 0.55908 0.96072 0.0
C1058 C 0.06895 0.46501 0.99833 0.0
O1059 O 0.0693 0.48151 0.01443 0.0
O1060 O 0.94767 0.5033 0.95948 0.0
O1061 O 0.93897 0.54135 0.95967 0.0
O1062 O 0.08211 0.50888 0.0595 0.0
O1063 O 0.08549 0.54745 0.05523 0.0
O1064 O 0.96605 0.50523 0.08515 0.0
O1065 O 0.95919 0.54364 0.08547 0.0
C1066 C 0.00035 0.58686 0.95083 0.0
O1067 O 0.06674 0.51011 0.93261 0.0
O1068 O 0.06446 0.54899 0.93001 0.0
O1069 O 0.03264 0.47583 0.07032 0.0
C1070 C 0.93333 0.52017 0.95543 0.0
O1071 O -0.00071 0.47659 0.94743 0.0
C1072 C 0.01833 0.58327 0.06636 0.0
O1073 O 0.97465 0.46578 0.0393 0.0
C1074 C 0.0941 0.52762 0.06127 0.0
O1075 O 0.06181 0.46985 0.9775 0.0
C1076 C 0.95495 0.58489 0.01987 0.0
O1077 O 0.97827 0.58415 0.95533 0.0
O1078 O 0.01475 0.57051 0.95686 0.0
C1079 C 0.95795 0.52357 0.09523 0.0
O1080 O 0.04059 0.58399 0.06213 0.0
O1081 O 0.00675 0.56571 0.05881 0.0
C1082 C 0.06906 0.58818 0.9959 0.0
O1083 O 0.95564 0.58257 0.04218 0.0
O1084 O 0.96148 0.56758 0.00731 0.0
C1085 C 0.07094 0.52915 0.92178 0.0
O1086 O 0.0673 0.58596 0.97364 0.0
O1087 O 0.0599 0.57238 0.00882 0.0
C1088 C 0.02699 0.45578 0.06242 0.0
O1089 O 0.02759 0.45204 0.0395 0.0
C1090 C 0.00834 0.45745 0.95474 0.0
O1091 O 0.01065 0.4539 0.97759 0.0
Zn1092 Zn 0.48472 0.48732 0.98702 0.0
Zn1093 Zn 0.48024 0.48731 0.04488 0.0
O1094 O 0.48989 0.50716 0.01649 0.0
H1095 H 0.4895 0.52395 0.01508 0.0
C1096 C 0.52169 0.46389 0.93764 0.0
O1097 O 0.52326 0.48663 0.9351 0.0
Zn1098 Zn 0.54968 0.56213 0.04675 0.0
Zn1099 Zn 0.54235 0.5564 0.9898 0.0
O1100 O 0.53524 0.54104 0.02171 0.0
H1101 H 0.53074 0.52493 0.02364 0.0
Zn1102 Zn 0.54429 0.47221 0.98611 0.0
O1103 O 0.52786 0.47388 0.01846 0.0
Zn1104 Zn 0.55371 0.47646 0.04395 0.0
H1105 H 0.51292 0.46567 0.0203 0.0
Zn1106 Zn 0.48858 0.57826 0.98825 0.0
O1107 O 0.50547 0.57837 0.02041 0.0
H1108 H 0.51991 0.58726 0.02283 0.0
Zn1109 Zn 0.47992 0.57347 0.04526 0.0
C1110 C 0.50716 0.58495 0.93855 0.0
O1111 O 0.50229 0.56267 0.93628 0.0
O1112 O 0.46532 0.45812 0.99453 0.0
O1113 O 0.46011 0.46066 0.03357 0.0
O1114 O 0.56388 0.58492 0.99294 0.0
O1115 O 0.57019 0.58691 0.03187 0.0
O1116 O 0.57914 0.46181 0.99166 0.0
O1117 O 0.5837 0.46169 0.03095 0.0
C1118 C 0.46296 0.52873 0.06823 0.0
O1119 O 0.45326 0.58759 0.99337 0.0
O1120 O 0.44897 0.58655 0.03263 0.0
O1121 O 0.54709 0.53905 0.95755 0.0
C1122 C 0.4564 0.45061 0.01377 0.0
O1123 O 0.47655 0.50135 0.9537 0.0
C1124 C 0.56795 0.52091 0.07011 0.0
O1125 O 0.5282 0.45461 0.95716 0.0
C1126 C 0.5736 0.59436 0.01087 0.0
O1127 O 0.50412 0.59474 0.9586 0.0
C1128 C 0.52113 0.46255 0.07838 0.0
O1129 O 0.46188 0.5066 0.06786 0.0
O1130 O 0.47521 0.53927 0.05256 0.0
C1131 C 0.59161 0.45764 0.01013 0.0
O1132 O 0.56791 0.54307 0.07003 0.0
O1133 O 0.56039 0.51012 0.05188 0.0
C1134 C 0.51083 0.58946 0.08123 0.0
O1135 O 0.5434 0.46082 0.07429 0.0
O1136 O 0.5083 0.47309 0.06301 0.0
C1137 C 0.44072 0.59074 0.01198 0.0
O1138 O 0.48893 0.5899 0.07521 0.0
O1139 O 0.52576 0.57892 0.06792 0.0
C1140 C 0.56221 0.52266 0.95424 0.0
O1141 O 0.57379 0.51392 0.9725 0.0
C1142 C 0.46711 0.52108 0.94889 0.0
O1143 O 0.46268 0.5359 0.96612 0.0
Zn1144 Zn 0.97201 0.49904 0.47452 0.0
Zn1145 Zn 0.96688 0.55473 0.47561 0.0
O1146 O 0.99035 0.52858 0.48006 0.0
H1147 H 0.00432 0.52925 0.49013 0.0
C1148 C 0.94619 0.46728 0.51973 0.0
O1149 O 0.94367 0.48802 0.51015 0.0
Zn1150 Zn 0.06089 0.55728 0.54345 0.0
Zn1151 Zn 0.06303 0.50168 0.541 0.0
O1152 O 0.04043 0.52919 0.53988 0.0
H1153 H 0.02542 0.52889 0.53137 0.0
Zn1154 Zn 0.97324 0.49441 0.554 0.0
O1155 O 0.9747 0.52387 0.53408 0.0
Zn1156 Zn 0.97408 0.55035 0.55712 0.0
H1157 H 0.96807 0.52449 0.51835 0.0
Zn1158 Zn 0.05842 0.49634 0.46736 0.0
O1159 O 0.05352 0.52613 0.48568 0.0
H1160 H 0.06056 0.52698 0.5012 0.0
Zn1161 Zn 0.05273 0.5523 0.46237 0.0
C1162 C 0.09173 0.47585 0.49974 0.0
O1163 O 0.09805 0.49792 0.50011 0.0
O1164 O 0.93842 0.50482 0.46035 0.0
O1165 O 0.93631 0.54369 0.45936 0.0
O1166 O 0.09656 0.51031 0.55381 0.0
O1167 O 0.09339 0.54892 0.55795 0.0
O1168 O 0.95272 0.50141 0.58319 0.0
O1169 O 0.95574 0.53999 0.58658 0.0
C1170 C 0.00584 0.57919 0.45349 0.0
O1171 O 0.0779 0.50393 0.43766 0.0
O1172 O 0.06979 0.54171 0.43235 0.0
O1173 O 0.0476 0.472 0.55461 0.0
C1174 C 0.92729 0.52365 0.45513 0.0
O1175 O 0.99135 0.47091 0.46188 0.0
C1176 C 0.01965 0.57856 0.56666 0.0
O1177 O 0.95965 0.46493 0.53774 0.0
C1178 C 0.10533 0.52987 0.5601 0.0
O1179 O 0.0739 0.46989 0.48715 0.0
C1180 C 0.94741 0.57808 0.52295 0.0
O1181 O 0.98337 0.58013 0.45735 0.0
O1182 O 0.01766 0.56142 0.46037 0.0
C1183 C 0.94714 0.52048 0.59342 0.0
O1184 O 0.04198 0.58096 0.56252 0.0
O1185 O 0.00902 0.56031 0.55951 0.0
C1186 C 0.07863 0.58014 0.4961 0.0
O1187 O 0.95255 0.57604 0.54473 0.0
O1188 O 0.95967 0.56606 0.5084 0.0
C1189 C 0.08051 0.52287 0.42615 0.0
O1190 O 0.07398 0.57834 0.47419 0.0
O1191 O 0.06571 0.56851 0.51026 0.0
C1192 C 0.0313 0.47552 0.56991 0.0
O1193 O 0.0252 0.49709 0.57523 0.0
C1194 C 0.00816 0.47503 0.44737 0.0
O1195 O 0.01289 0.4968 0.44177 0.0
Zn1196 Zn 0.48017 1.0014 0.47364 0.0
Zn1197 Zn 0.46773 0.0585 0.47952 0.0
O1198 O 0.49402 0.03339 0.48134 0.0
H1199 H 0.51011 0.0352 0.48718 0.0
C1200 C 0.4601 0.95363 0.51499 0.0
O1201 O 0.46887 0.96303 0.49573 0.0
Zn1202 Zn 0.55285 0.06478 0.53879 0.0
Zn1203 Zn 0.5477 0.00695 0.54553 0.0
O1204 O 0.53066 0.03685 0.53449 0.0
H1205 H 0.5154 0.03709 0.52655 0.0
Zn1206 Zn 0.4813 0.99512 0.54302 0.0
O1207 O 0.47155 0.02634 0.52795 0.0
Zn1208 Zn 0.47338 0.05143 0.55367 0.0
H1209 H 0.46034 0.02618 0.51492 0.0
Zn1210 Zn 0.55184 1.00248 0.48013 0.0
O1211 O 0.55498 0.0358 0.49331 0.0
H1212 H 0.55395 0.0195 0.48905 0.0
Zn1213 Zn 0.5487 0.05869 0.46636 0.0
C1214 C 0.57821 0.96351 0.50953 0.0
O1215 O 0.57123 0.97319 0.52937 0.0
O1216 O 0.44533 0.00579 0.4639 0.0
O1217 O 0.43909 0.04437 0.46312 0.0
O1218 O 0.58029 0.01515 0.56002 0.0
O1219 O 0.5812 0.05411 0.55774 0.0
O1220 O 0.48266 0.99859 0.57911 0.0
O1221 O 0.47068 0.03546 0.58473 0.0
C1222 C 0.50161 0.08856 0.45838 0.0
O1223 O 0.55147 1.00355 0.444 0.0
O1224 O 0.55503 0.04167 0.43635 0.0
O1225 O 0.53207 0.9784 0.56384 0.0
C1226 C 0.43215 0.02347 0.45931 0.0
O1227 O 0.49696 0.97438 0.45366 0.0
C1228 C 0.51484 0.08757 0.56246 0.0
O1229 O 0.46301 0.9639 0.53476 0.0
C1230 C 0.59018 0.03465 0.56438 0.0
O1231 O 0.57292 0.97316 0.48991 0.0
C1232 C 0.44688 0.08207 0.52738 0.0
O1233 O 0.47933 0.08693 0.46234 0.0
O1234 O 0.51491 0.07145 0.46466 0.0
C1235 C 0.47614 0.01523 0.59266 0.0
O1236 O 0.53688 0.08975 0.55777 0.0
O1237 O 0.50418 0.06972 0.55412 0.0
C1238 C 0.5715 0.09276 0.4917 0.0
O1239 O 0.44853 0.07584 0.54886 0.0
O1240 O 0.45713 0.06908 0.51208 0.0
C1241 C 0.55434 0.02041 0.42964 0.0
O1242 O 0.56928 0.08646 0.4703 0.0
O1243 O 0.56317 0.07932 0.50764 0.0
C1244 C 0.52324 0.95966 0.5554 0.0
O1245 O 0.5203 0.95775 0.53243 0.0
C1246 C 0.51362 0.96034 0.45991 0.0
O1247 O 0.52384 0.96299 0.48064 0.0
H1248 H 0.1709 0.17405 0.56725 0.0
H1249 H 0.06441 0.12151 0.49072 0.0
H1250 H 0.15451 0.19156 0.49455 0.0
H1251 H 0.10214 0.0782 0.54105 0.0
H1252 H 0.08882 0.15463 0.50252 0.0
H1253 H 0.13891 0.14471 0.56624 0.0
C1254 C 0.16065 0.17186 0.55114 0.0
C1255 C 0.16545 0.18551 0.53097 0.0
C1256 C 0.09148 0.13799 0.51132 0.0
C1257 C 0.12852 0.15272 0.53017 0.0
C1258 C 0.07754 0.11915 0.50468 0.0
C1259 C 0.08171 0.09709 0.51463 0.0
C1260 C 0.10992 0.13472 0.52786 0.0
C1261 C 0.09859 0.09497 0.53291 0.0
C1262 C 0.14232 0.15528 0.55072 0.0
C1263 C 0.15125 0.18206 0.51077 0.0
N1264 N 0.11257 0.11356 0.53868 0.0
N1265 N 0.13347 0.16612 0.51095 0.0
H1266 H 0.854 0.17954 0.52369 0.0
H1267 H 0.96686 0.11051 0.47676 0.0
H1268 H 0.87441 0.18775 0.45057 0.0
H1269 H 0.91899 0.08475 0.53043 0.0
H1270 H 0.93673 0.14072 0.46637 0.0
H1271 H 0.88241 0.14738 0.52741 0.0
C1272 C 0.86462 0.17456 0.50842 0.0
C1273 C 0.86199 0.18624 0.48683 0.0
C1274 C 0.93276 0.12807 0.48004 0.0
C1275 C 0.89447 0.14931 0.49086 0.0
C1276 C 0.94978 0.11083 0.48581 0.0
C1277 C 0.94521 0.09533 0.50445 0.0
C1278 C 0.9115 0.12965 0.49332 0.0
C1279 C 0.92317 0.09662 0.51611 0.0
C1280 C 0.88067 0.1561 0.51047 0.0
C1281 C 0.87598 0.17899 0.46749 0.0
N1282 N 0.90726 0.11363 0.51053 0.0
N1283 N 0.89189 0.16098 0.46997 0.0
H1284 H 0.85818 0.87426 0.46014 0.0
H1285 H 0.96504 0.92569 0.53802 0.0
H1286 H 0.87384 0.8532 0.53182 0.0
H1287 H 0.93263 0.9643 0.48048 0.0
H1288 H 0.93833 0.89318 0.5297 0.0
H1289 H 0.8914 0.90219 0.46204 0.0
C1290 C 0.86874 0.87543 0.47618 0.0
C1291 C 0.86321 0.86165 0.49595 0.0
C1292 C 0.93725 0.90869 0.51876 0.0
C1293 C 0.90115 0.89307 0.4981 0.0
C1294 C 0.95256 0.92723 0.5234 0.0
C1295 C 0.95069 0.94795 0.51026 0.0
C1296 C 0.92005 0.91082 0.50077 0.0
C1297 C 0.9344 0.94877 0.49131 0.0
C1298 C 0.88759 0.89133 0.47726 0.0
C1299 C 0.87734 0.86378 0.51633 0.0
N1300 N 0.91946 0.93053 0.48728 0.0
N1301 N 0.89567 0.8792 0.51688 0.0
H1302 H 0.16201 0.86508 0.55692 0.0
H1303 H 0.07039 0.92797 0.46852 0.0
H1304 H 0.16268 0.85659 0.48102 0.0
H1305 H 0.08559 0.95518 0.53817 0.0
H1306 H 0.0982 0.89585 0.47589 0.0
H1307 H 0.1285 0.89283 0.55291 0.0
C1308 C 0.15504 0.86896 0.53945 0.0
C1309 C 0.16527 0.8587 0.51923 0.0
C1310 C 0.09526 0.90869 0.48967 0.0
C1311 C 0.12707 0.89015 0.51461 0.0
C1312 C 0.07925 0.92696 0.48556 0.0
C1313 C 0.07591 0.94443 0.50266 0.0
C1314 C 0.10787 0.9077 0.51113 0.0
C1315 C 0.08791 0.9422 0.52441 0.0
C1316 C 0.13603 0.88482 0.5372 0.0
C1317 C 0.15562 0.86439 0.49703 0.0
N1318 N 0.10353 0.9242 0.528 0.0
N1319 N 0.13708 0.87972 0.49533 0.0
H1320 H 0.48839 0.15303 0.20143 0.0
H1321 H 0.51727 0.13183 0.06512 0.0
H1322 H 0.49032 0.20722 0.1484 0.0
H1323 H 0.51421 0.07592 0.11623 0.0
H1324 H 0.50134 0.15865 0.09465 0.0
H1325 H 0.49205 0.12364 0.17004 0.0
C1326 C 0.48922 0.15871 0.18316 0.0
C1327 C 0.48943 0.18257 0.17748 0.0
C1328 C 0.50394 0.14049 0.09944 0.0
C1329 C 0.49376 0.14921 0.14165 0.0
C1330 C 0.51308 0.12517 0.08257 0.0
C1331 C 0.51753 0.10176 0.08843 0.0
C1332 C 0.49953 0.13244 0.1225 0.0
C1333 C 0.51128 0.09394 0.11112 0.0
C1334 C 0.49139 0.14196 0.16529 0.0
C1335 C 0.49062 0.18901 0.15358 0.0
N1336 N 0.50295 0.10937 0.12752 0.0
N1337 N 0.49296 0.17245 0.13659 0.0
H1338 H 0.84506 0.55059 0.19347 0.0
H1339 H 0.94214 0.48308 0.11537 0.0
H1340 H 0.84711 0.47565 0.18508 0.0
H1341 H 0.93982 0.5581 0.1236 0.0
H1342 H 0.91066 0.47962 0.14494 0.0
H1343 H 0.88203 0.55339 0.17069 0.0
C1344 C 0.85324 0.53473 0.1867 0.0
C1345 C 0.84295 0.51287 0.19103 0.0
C1346 C 0.91728 0.49682 0.14054 0.0
C1347 C 0.88545 0.51589 0.16531 0.0
C1348 C 0.9354 0.49882 0.12377 0.0
C1349 C 0.94331 0.52097 0.1167 0.0
C1350 C 0.90705 0.5171 0.15029 0.0
C1351 C 0.93396 0.54071 0.12824 0.0
C1352 C 0.87447 0.53631 0.17391 0.0
C1353 C 0.85454 0.49284 0.18227 0.0
N1354 N 0.91608 0.53832 0.14426 0.0
N1355 N 0.87514 0.49484 0.16971 0.0
H1356 H 0.57939 0.87133 0.16844 0.0
H1357 H 0.48295 0.95434 0.10517 0.0
H1358 H 0.50405 0.8732 0.18536 0.0
H1359 H 0.55115 0.93681 0.0735 0.0
H1360 H 0.49413 0.93172 0.14005 0.0
H1361 H 0.57256 0.90199 0.13867 0.0
C1362 C 0.56149 0.87838 0.16603 0.0
C1363 C 0.54217 0.86957 0.17907 0.0
C1364 C 0.50674 0.933 0.12555 0.0
C1365 C 0.53431 0.90449 0.14541 0.0
C1366 C 0.50042 0.94598 0.10565 0.0
C1367 C 0.51596 0.9471 0.08619 0.0
C1368 C 0.52881 0.92112 0.12611 0.0
C1369 C 0.53846 0.93608 0.08796 0.0
C1370 C 0.55761 0.89576 0.14905 0.0
C1371 C 0.51934 0.87924 0.17535 0.0
N1372 N 0.54415 0.92333 0.10751 0.0
N1373 N 0.51603 0.89612 0.15882 0.0
H1374 H 0.16943 0.5226 0.18906 0.0
H1375 H 0.13022 0.55974 0.06155 0.0
H1376 H 0.21979 0.55775 0.14381 0.0
H1377 H 0.10831 0.49429 0.09256 0.0
H1378 H 0.16166 0.56275 0.09174 0.0
H1379 H 0.14302 0.51678 0.15481 0.0
C1380 C 0.17465 0.52933 0.17191 0.0
C1381 C 0.19648 0.54075 0.16896 0.0
C1382 C 0.15017 0.54758 0.09156 0.0
C1383 C 0.16698 0.53403 0.13014 0.0
C1384 C 0.13235 0.54581 0.07438 0.0
C1385 C 0.11648 0.52695 0.07486 0.0
C1386 C 0.1515 0.53068 0.10948 0.0
C1387 C 0.12007 0.50923 0.09167 0.0
C1388 C 0.15987 0.52578 0.15244 0.0
C1389 C 0.20287 0.549 0.14653 0.0
N1390 N 0.13688 0.51181 0.10872 0.0
N1391 N 0.18805 0.54561 0.12783 0.0
H1392 H 0.52056 0.89118 0.81156 0.0
H1393 H 0.54137 0.93224 0.9449 0.0
H1394 H 0.54544 0.84343 0.86559 0.0
H1395 H 0.486 0.96 0.89944 0.0
H1396 H 0.55309 0.90488 0.91315 0.0
H1397 H 0.51802 0.92202 0.84122 0.0
C1398 C 0.52552 0.88715 0.82964 0.0
C1399 C 0.53272 0.8645 0.83617 0.0
C1400 C 0.53864 0.91726 0.91012 0.0
C1401 C 0.53045 0.89997 0.87002 0.0
C1402 C 0.5321 0.93289 0.92806 0.0
C1403 C 0.51267 0.94817 0.92464 0.0
C1404 C 0.52599 0.91752 0.88863 0.0
C1405 C 0.50098 0.94831 0.90271 0.0
C1406 C 0.52423 0.90482 0.84649 0.0
C1407 C 0.53977 0.8606 0.85975 0.0
N1408 N 0.50783 0.9332 0.88551 0.0
N1409 N 0.53828 0.87815 0.87592 0.0
H1410 H 0.16131 0.55139 0.7988 0.0
H1411 H 0.10741 0.49844 0.91579 0.0
H1412 H 0.20593 0.529 0.85695 0.0
H1413 H 0.07396 0.55901 0.88396 0.0
H1414 H 0.1404 0.50161 0.88771 0.0
H1415 H 0.12581 0.54748 0.82431 0.0
C1416 C 0.16353 0.54577 0.81698 0.0
C1417 C 0.18635 0.54059 0.82601 0.0
C1418 C 0.12564 0.51396 0.88669 0.0
C1419 C 0.14631 0.53551 0.85464 0.0
C1420 C 0.10669 0.51203 0.90245 0.0
C1421 C 0.08798 0.52851 0.90206 0.0
C1422 C 0.12556 0.53213 0.87013 0.0
C1423 C 0.08814 0.54602 0.88474 0.0
C1424 C 0.14343 0.54356 0.8314 0.0
C1425 C 0.18855 0.53329 0.84954 0.0
N1426 N 0.10674 0.54738 0.86929 0.0
N1427 N 0.16868 0.5307 0.86305 0.0
H1428 H 0.44907 0.18097 0.85788 0.0
H1429 H 0.54829 0.09325 0.90865 0.0
H1430 H 0.52351 0.17903 0.8371 0.0
H1431 H 0.48385 0.108 0.94823 0.0
H1432 H 0.5349 0.11983 0.87797 0.0
H1433 H 0.45783 0.15107 0.8881 0.0
C1434 C 0.4672 0.17435 0.85966 0.0
C1435 C 0.4855 0.18229 0.84461 0.0
C1436 C 0.52358 0.11734 0.89331 0.0
C1437 C 0.49541 0.148 0.87867 0.0
C1438 C 0.53119 0.10206 0.91085 0.0
C1439 C 0.51736 0.09874 0.93125 0.0
C1440 C 0.50197 0.12967 0.89607 0.0
C1441 C 0.4951 0.11024 0.93283 0.0
C1442 C 0.47211 0.15724 0.8768 0.0
C1443 C 0.50863 0.17304 0.84771 0.0
N1444 N 0.48814 0.1255 0.91552 0.0
N1445 N 0.51283 0.15639 0.86422 0.0
H1446 H 0.80229 0.52438 0.87264 0.0
H1447 H 0.92481 0.48153 0.92892 0.0
H1448 H 0.85786 0.49081 0.83178 0.0
H1449 H 0.89314 0.54755 0.94958 0.0
H1450 H 0.8933 0.47674 0.89954 0.0
H1451 H 0.82957 0.52572 0.90686 0.0
C1452 C 0.82027 0.51731 0.87101 0.0
C1453 C 0.82815 0.50763 0.84962 0.0
C1454 C 0.89311 0.49207 0.91079 0.0
C1455 C 0.85876 0.50855 0.88827 0.0
C1456 C 0.91091 0.49478 0.92771 0.0
C1457 C 0.91171 0.51517 0.94151 0.0
C1458 C 0.87576 0.50959 0.90801 0.0
C1459 C 0.89326 0.53173 0.93908 0.0
C1460 C 0.83568 0.51806 0.89038 0.0
C1461 C 0.85139 0.49852 0.84809 0.0
N1462 N 0.87597 0.52863 0.92247 0.0
N1463 N 0.86595 0.49908 0.86731 0.0
H1464 H 0.70084 0.66942 0.98172 0.0
H1465 H 0.58032 0.63169 0.03981 0.0
H1466 H 0.65584 0.72047 0.01632 0.0
H1467 H 0.60341 0.60147 0.9736 0.0
H1468 H 0.60964 0.66298 0.03458 0.0
H1469 H 0.66721 0.64199 0.98156 0.0
C1470 C 0.68379 0.67475 0.98921 0.0
C1471 C 0.68086 0.69695 -0.00085 0.0
C1472 C 0.60806 0.6496 0.02113 0.0
C1473 C 0.64284 0.666 -0.00072 0.0
C1474 C 0.59154 0.63175 0.02416 0.0
C1475 C 0.58977 0.61402 0.0072 0.0
C1476 C 0.62325 0.64918 0.00137 0.0
C1477 C 0.60438 0.61489 0.98707 0.0
C1478 C 0.66468 0.65928 0.98897 0.0
C1479 C 0.65858 0.70336 0.00857 0.0
N1480 N 0.62089 0.63202 0.98489 0.0
N1481 N 0.64037 0.68777 0.00873 0.0
H1482 H 0.33999 0.69735 0.97489 0.0
H1483 H 0.40583 0.59522 0.0457 0.0
H1484 H 0.31651 0.67279 0.04307 0.0
H1485 H 0.4226 0.61367 0.97348 0.0
H1486 H 0.37107 0.62128 0.04409 0.0
H1487 H 0.3695 0.66553 0.97345 0.0
C1488 C 0.34099 0.68503 0.98942 0.0
C1489 C 0.32605 0.68751 0.00913 0.0
C1490 C 0.3822 0.6194 0.02851 0.0
C1491 C 0.3593 0.6511 0.00761 0.0
C1492 C 0.402 0.60449 0.0294 0.0
C1493 C 0.41732 0.60257 0.00982 0.0
C1494 C 0.37791 0.63264 0.00801 0.0
C1495 C 0.41137 0.61474 0.98906 0.0
C1496 C 0.35771 0.66688 0.98861 0.0
C1497 C 0.328 0.67141 0.02769 0.0
N1498 N 0.39232 0.62956 0.98883 0.0
N1499 N 0.34439 0.65384 0.0265 0.0
H1500 H 0.35264 0.34753 0.05229 0.0
H1501 H 0.43489 0.4316 0.97489 0.0
H1502 H 0.34555 0.35544 0.97662 0.0
H1503 H 0.44064 0.42434 0.05079 0.0
H1504 H 0.40449 0.40119 0.97457 0.0
H1505 H 0.38685 0.37377 0.0516 0.0
C1506 C 0.35826 0.35489 0.03554 0.0
C1507 C 0.3462 0.34947 0.0145 0.0
C1508 C 0.41255 0.40612 0.99126 0.0
C1509 C 0.38544 0.37923 0.01352 0.0
C1510 C 0.42996 0.4234 0.99145 0.0
C1511 C 0.44005 0.43065 0.01295 0.0
C1512 C 0.4053 0.39604 0.01271 0.0
C1513 C 0.43304 0.41949 0.03387 0.0
C1514 C 0.37788 0.36971 0.03512 0.0
C1515 C 0.35448 0.35908 0.99322 0.0
N1516 N 0.41596 0.40281 0.03324 0.0
N1517 N 0.37356 0.37361 0.99328 0.0
H1518 H 0.70666 0.36189 0.03836 0.0
H1519 H 0.61182 0.44129 0.96922 0.0
H1520 H 0.69466 0.35816 0.96297 0.0
H1521 H 0.62321 0.44455 0.04481 0.0
H1522 H 0.6453 0.41404 0.96599 0.0
H1523 H 0.67826 0.3944 0.04065 0.0
C1524 C 0.69793 0.36785 0.0223 0.0
C1525 C 0.7029 0.35727 0.00046 0.0
C1526 C 0.64065 0.42092 0.98325 0.0
C1527 C 0.67074 0.39467 0.00287 0.0
C1528 C 0.62159 0.43659 0.98511 0.0
C1529 C 0.61443 0.44489 0.0074 0.0
C1530 C 0.65261 0.41352 0.0038 0.0
C1531 C 0.62789 0.43832 0.02732 0.0
C1532 C 0.68191 0.38654 0.02358 0.0
C1533 C 0.69146 0.36596 0.98014 0.0
N1534 N 0.64619 0.42278 0.02507 0.0
N1535 N 0.67582 0.38412 0.98186 0.0
H1536 H 0.98797 0.70918 0.63358 0.0
H1537 H 0.9855 0.57361 0.60064 0.0
H1538 H 0.9744 0.65453 0.68445 0.0
H1539 H 0.02521 0.62527 0.56179 0.0
H1540 H 0.96983 0.60461 0.62651 0.0
H1541 H 0.99057 0.67969 0.60245 0.0
C1542 C 0.98539 0.69101 0.6382 0.0
C1543 C 0.98138 0.68428 0.66175 0.0
C1544 C 0.98159 0.60916 0.612 0.0
C1545 C 0.98386 0.6506 0.62614 0.0
C1546 C 0.99031 0.59156 0.59718 0.0
C1547 C 0.00671 0.59704 0.57932 0.0
C1548 C 0.98916 0.63226 0.60858 0.0
C1549 C 0.01279 0.62044 0.57564 0.0
C1550 C 0.98672 0.67425 0.6204 0.0
C1551 C 0.97747 0.66054 0.66656 0.0
N1552 N 0.00412 0.63723 0.59028 0.0
N1553 N 0.97905 0.6445 0.64892 0.0
H1554 H 0.37213 0.04059 0.6933 0.0
H1555 H 0.46214 0.97277 0.60919 0.0
H1556 H 0.3627 0.96927 0.67045 0.0
H1557 H 0.4706 0.04478 0.63007 0.0
H1558 H 0.43138 0.9683 0.63925 0.0
H1559 H 0.4116 0.0407 0.67492 0.0
C1560 C 0.37827 0.02505 0.68414 0.0
C1561 C 0.36417 0.0049 0.68332 0.0
C1562 C 0.44042 0.98491 0.63773 0.0
C1563 C 0.40956 0.00464 0.66295 0.0
C1564 C 0.4583 0.98739 0.62081 0.0
C1565 C 0.46809 0.0095 0.61658 0.0
C1566 C 0.43267 0.00464 0.65041 0.0
C1567 C 0.46278 0.02766 0.63234 0.0
C1568 C 0.40097 0.02497 0.67403 0.0
C1569 C 0.37315 0.9851 0.67162 0.0
N1570 N 0.44483 0.02505 0.64819 0.0
N1571 N 0.3953 0.98548 0.66182 0.0
H1572 H 0.00793 0.33992 0.63361 0.0
H1573 H 0.00949 0.47788 0.61292 0.0
H1574 H 0.01493 0.39086 0.68944 0.0
H1575 H 0.03267 0.42879 0.5595 0.0
H1576 H 0.00062 0.44528 0.63924 0.0
H1577 H 0.007 0.37186 0.60453 0.0
C1578 C 0.00908 0.35782 0.63972 0.0
C1579 C 0.01179 0.36284 0.66387 0.0
C1580 C 0.00736 0.44166 0.62164 0.0
C1581 C 0.01047 0.39913 0.63099 0.0
C1582 C 0.01232 0.46022 0.60657 0.0
C1583 C 0.02226 0.45598 0.58419 0.0
C1584 C 0.01208 0.41872 0.61415 0.0
C1585 C 0.02543 0.43276 0.57682 0.0
C1586 C 0.00861 0.37594 0.62317 0.0
C1587 C 0.01322 0.38626 0.67093 0.0
N1588 N 0.02051 0.41492 0.59187 0.0
N1589 N 0.01257 0.40355 0.65455 0.0
H1590 H 0.71779 0.01913 0.65018 0.0
H1591 H 0.59291 0.06276 0.60222 0.0
H1592 H 0.66045 0.04187 0.69621 0.0
H1593 H 0.6299 0.00638 0.56677 0.0
H1594 H 0.62171 0.06028 0.6346 0.0
H1595 H 0.68927 0.01798 0.61713 0.0
C1596 C 0.6992 0.02361 0.6534 0.0
C1597 C 0.69151 0.03093 0.6759 0.0
C1598 C 0.62369 0.04861 0.61963 0.0
C1599 C 0.65927 0.03009 0.63831 0.0
C1600 C 0.60752 0.05024 0.60106 0.0
C1601 C 0.60946 0.03499 0.5818 0.0
C1602 C 0.64219 0.03197 0.61864 0.0
C1603 C 0.62815 0.01854 0.58135 0.0
C1604 C 0.68304 0.02301 0.63457 0.0
C1605 C 0.66728 0.03673 0.67904 0.0
N1606 N 0.64409 0.01757 0.59953 0.0
N1607 N 0.65206 0.03644 0.66039 0.0
H1608 H 0.03711 0.3394 0.386 0.0
H1609 H 0.03451 0.47757 0.40675 0.0
H1610 H 0.03743 0.3906 0.33 0.0
H1611 H 0.00723 0.42833 0.45778 0.0
H1612 H 0.04656 0.44496 0.38144 0.0
H1613 H 0.03627 0.37126 0.41518 0.0
C1614 C 0.03728 0.35734 0.37991 0.0
C1615 C 0.03704 0.36249 0.35564 0.0
C1616 C 0.03821 0.44131 0.39833 0.0
C1617 C 0.03635 0.39872 0.38864 0.0
C1618 C 0.03143 0.45989 0.41283 0.0
C1619 C 0.01937 0.45562 0.43414 0.0
C1620 C 0.03314 0.41835 0.40532 0.0
C1621 C 0.01606 0.43237 0.44124 0.0
C1622 C 0.03674 0.37544 0.39649 0.0
C1623 C 0.03723 0.38595 0.34857 0.0
N1624 N 0.0227 0.41454 0.42673 0.0
N1625 N 0.03681 0.40321 0.365 0.0
H1626 H 0.6799 0.03454 0.36182 0.0
H1627 H 0.54429 0.04161 0.38771 0.0
H1628 H 0.63163 0.04721 0.30349 0.0
H1629 H 0.58919 0.98919 0.42048 0.0
H1630 H 0.57421 0.04595 0.35631 0.0
H1631 H 0.64562 0.02296 0.38623 0.0
C1632 C 0.66201 0.03521 0.35437 0.0
C1633 C 0.65833 0.04166 0.33079 0.0
C1634 C 0.57708 0.03299 0.37 0.0
C1635 C 0.61961 0.02814 0.35801 0.0
C1636 C 0.55994 0.0303 0.38762 0.0
C1637 C 0.5646 0.01527 0.40661 0.0
C1638 C 0.599 0.02109 0.37214 0.0
C1639 C 0.58508 1.00101 0.40603 0.0
C1640 C 0.64264 0.02824 0.36804 0.0
C1641 C 0.63496 0.04218 0.32168 0.0
N1642 N 0.60209 0.00489 0.38948 0.0
N1643 N 0.61632 0.03553 0.33539 0.0
H1644 H 0.02022 0.70968 0.3825 0.0
H1645 H 0.04102 0.57678 0.42014 0.0
H1646 H 0.04003 0.65466 0.33383 0.0
H1647 H -0.004 0.62527 0.45831 0.0
H1648 H 0.05294 0.60854 0.39355 0.0
H1649 H 0.02256 0.68166 0.41504 0.0
C1650 C 0.02515 0.69175 0.37865 0.0
C1651 C 0.02956 0.68442 0.35534 0.0
C1652 C 0.04088 0.61228 0.4081 0.0
C1653 C 0.03283 0.65253 0.39252 0.0
C1654 C 0.03429 0.59427 0.42334 0.0
C1655 C 0.01735 0.59853 0.4411 0.0
C1656 C 0.03056 0.63455 0.41097 0.0
C1657 C 0.00885 0.62134 0.44449 0.0
C1658 C 0.02671 0.67586 0.39725 0.0
C1659 C 0.03656 0.66112 0.35151 0.0
N1660 N 0.01537 0.63852 0.42937 0.0
N1661 N 0.03777 0.64593 0.3699 0.0
H1662 H 0.34612 0.96409 0.35144 0.0
H1663 H 0.40074 0.05612 0.44166 0.0
H1664 H 0.3304 0.038 0.34955 0.0
H1665 H 0.41326 0.98164 0.44588 0.0
H1666 H 0.37023 0.04924 0.4116 0.0
H1667 H 0.36741 0.96965 0.38879 0.0
C1668 C 0.34704 0.98145 0.359 0.0
C1669 C 0.3367 1.00064 0.34736 0.0
C1670 C 0.37945 0.03439 0.41935 0.0
C1671 C 0.36088 0.00717 0.38997 0.0
C1672 C 0.39678 0.03831 0.4366 0.0
C1673 C 0.41001 0.01949 0.4458 0.0
C1674 C 0.37553 0.01154 0.41121 0.0
C1675 C 0.40386 0.99674 0.43888 0.0
C1676 C 0.35914 0.98463 0.3803 0.0
C1677 C 0.33853 0.02281 0.35776 0.0
N1678 N 0.38736 0.99343 0.42166 0.0
N1679 N 0.3505 0.02548 0.37844 0.0
H1680 H -0.00354 0.17996 0.32902 0.0
H1681 H 0.0472 0.08028 0.41561 0.0
H1682 H 0.06824 0.15236 0.32183 0.0
H1683 H 0.98091 0.11825 0.42539 0.0
H1684 H 0.05583 0.10486 0.38083 0.0
H1685 H 0.9903 0.15482 0.36299 0.0
C1686 C 0.01083 0.16825 0.33428 0.0
C1687 C 0.03284 0.16819 0.32232 0.0
C1688 C 0.03953 0.10788 0.39078 0.0
C1689 C 0.02609 0.13951 0.36202 0.0
C1690 C 0.0347 0.09398 0.41071 0.0
C1691 C 0.01326 0.09715 0.42337 0.0
C1692 C 0.02277 0.12497 0.38361 0.0
C1693 C -0.00244 0.115 0.41609 0.0
C1694 C 0.00741 0.15406 0.35398 0.0
C1695 C 0.05099 0.15303 0.33056 0.0
N1696 N 0.00257 0.12807 0.39673 0.0
N1697 N 0.04723 0.13927 0.34991 0.0
H1698 H 0.85413 0.00713 0.3155 0.0
H1699 H 0.90756 0.06345 0.4325 0.0
H1700 H 0.87243 0.08007 0.32219 0.0
H1701 H 0.91577 0.98992 0.41686 0.0
H1702 H 0.88754 0.0688 0.39455 0.0
H1703 H 0.87325 0.99955 0.35358 0.0
C1704 C 0.8626 0.02151 0.32463 0.0
C1705 C 0.86126 0.04441 0.31569 0.0
C1706 C 0.89355 0.05147 0.39956 0.0
C1707 C 0.88213 0.03589 0.35981 0.0
C1708 C 0.90465 0.0483 0.42141 0.0
C1709 C 0.9138 0.02628 0.42776 0.0
C1710 C 0.89136 0.03246 0.38406 0.0
C1711 C 0.90925 0.00728 0.41264 0.0
C1712 C 0.87319 0.01717 0.34658 0.0
C1713 C 0.8724 0.06226 0.32863 0.0
N1714 N 0.8986 0.01087 0.39131 0.0
N1715 N 0.88201 0.05769 0.3502 0.0
H1716 H 0.0168 0.90202 0.29255 0.0
H1717 H 0.01041 0.92978 0.43102 0.0
H1718 H 0.02129 0.84939 0.3469 0.0
H1719 H 0.01057 0.98301 0.3769 0.0
H1720 H 0.01919 0.90042 0.40073 0.0
H1721 H 0.01882 0.93238 0.32323 0.0
C1722 C 0.01861 0.89695 0.31094 0.0
C1723 C 0.01865 0.87334 0.31736 0.0
C1724 C 0.01752 0.91856 0.39551 0.0
C1725 C 0.02094 0.90766 0.35245 0.0
C1726 C 0.01251 0.93532 0.41281 0.0
C1727 C 0.00931 0.95882 0.40642 0.0
C1728 C 0.01912 0.92532 0.37163 0.0
C1729 C 0.01256 0.96505 0.3826 0.0
C1730 C 0.01972 0.91419 0.32844 0.0
C1731 C 0.02091 0.86751 0.34137 0.0
N1732 N 0.01697 0.94837 0.36604 0.0
N1733 N 0.0218 0.88454 0.35806 0.0
H1734 H 0.12941 0.97466 0.29162 0.0
H1735 H 0.10315 0.04959 0.408 0.0
H1736 H 0.16529 0.03889 0.30929 0.0
H1737 H 0.06162 0.98923 0.3883 0.0
H1738 H 0.1257 0.04589 0.37137 0.0
H1739 H 0.10318 0.98013 0.32598 0.0
C1740 C 0.13148 0.99007 0.30253 0.0
C1741 C 0.14941 0.0064 0.29759 0.0
C1742 C 0.11151 0.03357 0.3749 0.0
C1743 C 0.11994 0.01256 0.33696 0.0
C1744 C 0.09861 0.03569 0.39582 0.0
C1745 C 0.08039 0.01979 0.40108 0.0
C1746 C 0.10609 0.01548 0.35903 0.0
C1747 C 0.07555 1.00186 0.38487 0.0
C1748 C 0.1166 0.99316 0.32213 0.0
C1749 C 0.15143 0.02607 0.31224 0.0
N1750 N 0.08834 1.00019 0.36451 0.0
N1751 N 0.13703 0.02847 0.33138 0.0
H1752 H 0.98159 0.90069 0.71475 0.0
H1753 H 0.02157 0.92694 0.58135 0.0
H1754 H 0.00911 0.8488 0.66639 0.0
H1755 H -0.00034 0.9806 0.63062 0.0
H1756 H 0.01027 0.89732 0.61031 0.0
H1757 H 0.98181 0.92945 0.68245 0.0
C1758 C 0.98751 0.89535 0.69731 0.0
C1759 C -0.00412 0.87252 0.69334 0.0
C1760 C 0.00772 0.91557 0.61472 0.0
C1761 C -0.00396 0.9051 0.65637 0.0
C1762 C 0.01413 0.93251 0.59814 0.0
C1763 C 0.01207 0.9563 0.60376 0.0
C1764 C -0.00073 0.92247 0.63712 0.0
C1765 C 0.00198 0.96245 0.62569 0.0
C1766 C 0.98765 0.91172 0.6789 0.0
C1767 C 0.00316 0.86641 0.67037 0.0
N1768 N -0.00375 0.94566 0.64168 0.0
N1769 N 0.00321 0.8826 0.65283 0.0
H1770 H 0.1487 0.05282 0.71021 0.0
H1771 H 0.11655 0.98264 0.59286 0.0
H1772 H 0.17323 0.98223 0.69747 0.0
H1773 H 0.11183 0.05779 0.59895 0.0
H1774 H 0.13559 0.98107 0.63172 0.0
H1775 H 0.13046 0.05327 0.67087 0.0
C1776 C 0.14991 0.0373 0.6993 0.0
C1777 C 0.16269 0.01756 0.70706 0.0
C1778 C 0.13068 0.99791 0.62437 0.0
C1779 C 0.14226 0.01807 0.66201 0.0
C1780 C 0.12004 0.99886 0.60208 0.0
C1781 C 0.11227 0.02037 0.59275 0.0
C1782 C 0.13338 0.01857 0.63742 0.0
C1783 C 0.11735 0.0408 0.60547 0.0
C1784 C 0.13971 0.03764 0.6768 0.0
C1785 C 0.16341 0.99779 0.69233 0.0
N1786 N 0.12723 0.03936 0.62736 0.0
N1787 N 0.15353 0.99862 0.6704 0.0
H1788 H -0.00246 0.14037 0.7136 0.0
H1789 H 0.04263 0.12499 0.57975 0.0
H1790 H 0.02594 0.19658 0.67171 0.0
H1791 H -0.00293 0.07486 0.61434 0.0
H1792 H 0.03938 0.15032 0.6145 0.0
H1793 H 0.00063 0.11439 0.67888 0.0
C1794 C 0.00454 0.14711 0.69709 0.0
C1795 C 0.01161 0.17046 0.69532 0.0
C1796 C 0.02996 0.13384 0.61444 0.0
C1797 C 0.01496 0.14127 0.65576 0.0
C1798 C 0.03175 0.11943 0.59456 0.0
C1799 C 0.02001 0.09785 0.59403 0.0
C1800 C 0.01662 0.12652 0.63415 0.0
C1801 C 0.00625 0.09145 0.61384 0.0
C1802 C 0.00618 0.13241 0.67731 0.0
C1803 C 0.02048 0.17856 0.67367 0.0
N1804 N 0.00511 0.10563 0.63316 0.0
N1805 N 0.02191 0.16401 0.65474 0.0
H1806 H 0.89827 0.99543 0.72855 0.0
H1807 H 0.93533 0.06254 0.61035 0.0
H1808 H 0.8783 0.06668 0.71234 0.0
H1809 H 0.95254 0.98994 0.62334 0.0
H1810 H 0.91689 0.06491 0.64917 0.0
H1811 H 0.922 0.9941 0.69217 0.0
C1812 C 0.89921 0.01091 0.71758 0.0
C1813 C 0.8861 0.03113 0.72345 0.0
C1814 C 0.92469 0.04844 0.64358 0.0
C1815 C 0.91297 0.02964 0.68179 0.0
C1816 C 0.93513 0.04701 0.62131 0.0
C1817 C 0.94553 0.02598 0.61356 0.0
C1818 C 0.92456 0.0287 0.65829 0.0
C1819 C 0.94474 0.0065 0.62861 0.0
C1820 C 0.91267 0.01011 0.6968 0.0
C1821 C 0.88823 0.05077 0.70874 0.0
N1822 N 0.93442 0.00834 0.65031 0.0
N1823 N 0.90115 0.04943 0.68848 0.0
H1824 H 0.32756 0.05271 0.13653 0.0
H1825 H 0.42194 0.99122 0.05599 0.0
H1826 H 0.33248 0.97738 0.13937 0.0
H1827 H 0.43982 0.05125 0.0984 0.0
H1828 H 0.38584 0.98568 0.07984 0.0
H1829 H 0.3646 0.05338 0.11362 0.0
C1830 C 0.33626 0.0363 0.13216 0.0
C1831 C 0.32712 0.015 0.14031 0.0
C1832 C 0.39795 0.9998 0.08405 0.0
C1833 C 0.36917 0.01573 0.11386 0.0
C1834 C 0.4186 1.0029 0.07056 0.0
C1835 C 0.43385 0.02179 0.07503 0.0
C1836 C 0.39233 0.01616 0.10162 0.0
C1837 C 0.42855 0.03651 0.09419 0.0
C1838 C 0.35738 0.03674 0.11919 0.0
C1839 C 0.3388 0.99422 0.13342 0.0
N1840 N 0.40792 0.03368 0.10648 0.0
N1841 N 0.35937 0.99508 0.12059 0.0
H1842 H 0.05688 0.35699 0.17305 0.0
H1843 H 0.00987 0.41188 0.05283 0.0
H1844 H -0.00397 0.32716 0.13741 0.0
H1845 H 0.03781 0.4541 0.10965 0.0
H1846 H 0.00895 0.37822 0.0798 0.0
H1847 H 0.05556 0.39011 0.14557 0.0
C1848 C 0.04347 0.35728 0.15917 0.0
C1849 C 0.02662 0.33932 0.15735 0.0
C1850 C 0.01505 0.39494 0.08633 0.0
C1851 C 0.02499 0.37709 0.12593 0.0
C1852 C 0.01553 0.41416 0.07101 0.0
C1853 C 0.02381 0.43592 0.079 0.0
C1854 C 0.02353 0.39735 0.10959 0.0
C1855 C 0.03116 0.43775 0.10271 0.0
C1856 C 0.04258 0.37625 0.14368 0.0
C1857 C 0.00935 0.34069 0.13931 0.0
N1858 N 0.03115 0.41868 0.11704 0.0
N1859 N 0.00907 0.35921 0.12413 0.0
H1860 H 0.68382 0.07683 0.14927 0.0
H1861 H 0.59054 0.99421 0.08711 0.0
H1862 H 0.69931 0.00464 0.13248 0.0
H1863 H 0.59655 0.0657 0.06394 0.0
H1864 H 0.62535 0.99963 0.1126 0.0
H1865 H 0.64797 0.07483 0.12433 0.0
C1866 C 0.68003 0.0607 0.14004 0.0
C1867 C 0.69467 0.0408 0.14312 0.0
C1868 C 0.61889 0.0142 0.10209 0.0
C1869 C 0.6532 0.03831 0.11554 0.0
C1870 C 0.59887 0.01124 0.0878 0.0
C1871 C 0.59089 0.02953 0.07323 0.0
C1872 C 0.63075 0.0357 0.10214 0.0
C1873 C 0.6025 0.05113 0.07461 0.0
C1874 C 0.65943 0.05957 0.12605 0.0
C1875 C 0.68839 0.02027 0.13109 0.0
N1876 N 0.62198 0.05369 0.08886 0.0
N1877 N 0.66798 0.01948 0.1181 0.0
H1878 H -0.00247 0.67552 0.18204 0.0
H1879 H 0.01911 0.62815 0.05164 0.0
H1880 H 0.0122 0.72061 0.12289 0.0
H1881 H -0.00583 0.58463 0.10855 0.0
H1882 H 0.01188 0.66275 0.076 0.0
H1883 H 0.99227 0.64272 0.15473 0.0
C1884 C -0.00066 0.67847 0.16318 0.0
C1885 C 0.00528 0.70065 0.15459 0.0
C1886 C 0.00745 0.64574 0.08307 0.0
C1887 C -0.00039 0.66323 0.12321 0.0
C1888 C 0.01143 0.62599 0.0691 0.0
C1889 C 0.00711 0.60358 0.07811 0.0
C1890 C -0.00037 0.64305 0.10652 0.0
C1891 C -0.00257 0.60165 0.10088 0.0
C1892 C -0.00369 0.6598 0.1476 0.0
C1893 C 0.00754 0.70372 0.13011 0.0
N1894 N -0.00559 0.62113 0.11449 0.0
N1895 N 0.00496 0.68513 0.11526 0.0
H1896 H 0.33856 0.95961 0.8809 0.0
H1897 H 0.4271 0.05826 0.92704 0.0
H1898 H 0.32643 0.03398 0.87465 0.0
H1899 H 0.43851 0.98543 0.94365 0.0
H1900 H 0.39045 0.04834 0.90696 0.0
H1901 H 0.3744 0.96749 0.9047 0.0
C1902 C 0.34317 0.97755 0.88479 0.0
C1903 C 0.32946 0.99615 0.87553 0.0
C1904 C 0.40081 0.03442 0.91507 0.0
C1905 C 0.37041 0.00519 0.90254 0.0
C1906 C 0.42201 0.04004 0.92644 0.0
C1907 C 0.43589 0.02267 0.93757 0.0
C1908 C 0.3932 0.01115 0.9145 0.0
C1909 C 0.42818 0.99943 0.9359 0.0
C1910 C 0.36362 0.982 0.89835 0.0
C1911 C 0.33612 0.01899 0.88149 0.0
N1912 N 0.40725 0.9943 0.92462 0.0
N1913 N 0.35618 0.02281 0.89435 0.0
H1914 H 0.05455 0.3337 0.87702 0.0
H1915 H 0.98568 0.45059 0.91258 0.0
H1916 H 0.98306 0.35014 0.85284 0.0
H1917 H 0.03795 0.41923 0.95923 0.0
H1918 H 0.98843 0.41636 0.88685 0.0
H1919 H 0.05239 0.36712 0.90426 0.0
C1920 C 0.03834 0.3442 0.8776 0.0
C1921 C 0.0189 0.33904 0.86271 0.0
C1922 C -0.00054 0.41705 0.90262 0.0
C1923 C 0.01654 0.37744 0.89342 0.0
C1924 C -0.00191 0.43668 0.91719 0.0
C1925 C 0.01182 0.43785 0.93797 0.0
C1926 C 0.01503 0.3986 0.90855 0.0
C1927 C 0.02722 0.41908 0.94328 0.0
C1928 C 0.03712 0.36321 0.89314 0.0
C1929 C -0.00166 0.35325 0.8642 0.0
N1930 N 0.02857 0.40026 0.92857 0.0
N1931 N -0.0022 0.37191 0.87906 0.0
H1932 H 0.69597 0.08773 0.88303 0.0
H1933 H 0.61415 0.98757 0.93822 0.0
H1934 H 0.71087 0.01368 0.87923 0.0
H1935 H 0.5931 0.06024 0.9394 0.0
H1936 H 0.65191 0.99822 0.92036 0.0
H1937 H 0.66086 0.0794 0.90768 0.0
C1938 C 0.69208 0.06978 0.88757 0.0
C1939 C 0.70643 0.05139 0.87885 0.0
C1940 C 0.63914 0.01196 0.92445 0.0
C1941 C 0.66633 0.04182 0.90698 0.0
C1942 C 0.61741 0.00586 0.93455 0.0
C1943 C 0.60028 0.02304 0.94011 0.0
C1944 C 0.64394 0.03547 0.91952 0.0
C1945 C 0.60582 0.04647 0.93541 0.0
C1946 C 0.67205 0.06507 0.90164 0.0
C1947 C 0.70069 0.02852 0.88567 0.0
N1948 N 0.62717 0.05203 0.92518 0.0
N1949 N 0.68105 0.02444 0.89909 0.0
H1950 H 0.041 0.69448 0.85064 0.0
H1951 H 0.98126 0.62905 0.96059 0.0
H1952 H 0.97455 0.7147 0.88396 0.0
H1953 H 0.03554 0.59621 0.91743 0.0
H1954 H 0.98586 0.66499 0.93823 0.0
H1955 H 0.04562 0.66291 0.87984 0.0
C1956 C 0.02764 0.69257 0.86438 0.0
C1957 C 0.00728 0.70718 0.86482 0.0
C1958 C -0.00297 0.6501 0.93373 0.0
C1959 C 0.01244 0.67113 0.89813 0.0
C1960 C -0.0055 0.62955 0.94658 0.0
C1961 C 0.0078 0.60949 0.94063 0.0
C1962 C 0.01287 0.65075 0.91452 0.0
C1963 C 0.0249 0.61127 0.92253 0.0
C1964 C 0.03021 0.67445 0.8809 0.0
C1965 C 0.99039 0.70374 0.88282 0.0
N1966 N 0.0267 0.6315 0.90979 0.0
N1967 N -0.00669 0.68607 0.89864 0.0
H1968 H 0.14175 0.33318 0.98482 0.0
H1969 H 0.07948 0.44569 0.04185 0.0
H1970 H 0.1338 0.34203 0.06034 0.0
H1971 H 0.0805 0.43043 0.96706 0.0
H1972 H 0.09724 0.4071 0.0496 0.0
H1973 H 0.11663 0.36737 0.97856 0.0
C1974 C 0.13434 0.34194 0.00016 0.0
C1975 C 0.14014 0.33455 0.02319 0.0
C1976 C 0.09336 0.41215 0.03152 0.0
C1977 C 0.11174 0.37463 0.01602 0.0
C1978 C 0.08326 0.43419 0.02707 0.0
C1979 C 0.07844 0.44133 0.00374 0.0
C1980 C 0.09896 0.39728 0.01247 0.0
C1981 C 0.08372 0.42568 0.98533 0.0
C1982 C 0.12013 0.36175 0.99654 0.0
C1983 C 0.13027 0.34722 0.04225 0.0
N1984 N 0.09382 0.40454 0.99008 0.0
N1985 N 0.1168 0.36677 0.03825 0.0
H1986 H 0.13814 0.71236 0.05425 0.0
H1987 H 0.10672 0.6095 0.97595 0.0
H1988 H 0.11523 0.72356 0.98208 0.0
H1989 H 0.05913 0.61467 0.03579 0.0
H1990 H 0.12146 0.64855 0.9846 0.0
H1991 H 0.11675 0.67502 0.05437 0.0
C1992 C 0.12804 0.70743 0.03869 0.0
C1993 C 0.12904 0.72094 0.01786 0.0
C1994 C 0.10802 0.64095 0.99603 0.0
C1995 C 0.10535 0.67813 0.01789 0.0
C1996 C 0.09973 0.61866 0.99127 0.0
C1997 C 0.08161 0.60886 0.00518 0.0
C1998 C 0.09832 0.65359 0.01495 0.0
C1999 C 0.07331 0.62149 0.0249 0.0
C2000 C 0.11599 0.68605 0.03881 0.0
C2001 C 0.11568 0.71344 0.99825 0.0
N2002 N 0.08164 0.64347 0.0292 0.0
N2003 N 0.10499 0.69224 -0.00148 0.0
H2004 H 0.30884 0.15278 0.97689 0.0
H2005 H 0.43009 0.122 0.04635 0.0
H2006 H 0.32413 0.17751 0.04746 0.0
H2007 H 0.42102 0.11198 0.97116 0.0
H2008 H 0.3902 0.1398 0.04813 0.0
H2009 H 0.34815 0.13365 0.97603 0.0
C2010 C 0.32032 0.15404 0.99229 0.0
C2011 C 0.31313 0.16707 0.01218 0.0
C2012 C 0.39704 0.13393 0.0312 0.0
C2013 C 0.35827 0.14519 0.01125 0.0
C2014 C 0.41992 0.12393 0.03012 0.0
C2015 C 0.42909 0.1156 0.00852 0.0
C2016 C 0.38302 0.13542 0.0106 0.0
C2017 C 0.41489 0.11838 0.98815 0.0
C2018 C 0.3428 0.14316 0.99175 0.0
C2019 C 0.32867 0.16758 0.03179 0.0
N2020 N 0.39252 0.12785 0.98973 0.0
N2021 N 0.35052 0.15698 0.03075 0.0
H2022 H 0.90379 0.32658 0.03061 0.0
H2023 H 0.95526 0.44297 0.975 0.0
H2024 H 0.90785 0.33761 0.95506 0.0
H2025 H 0.965 0.42312 0.04809 0.0
H2026 H 0.94038 0.40367 0.96651 0.0
H2027 H 0.9292 0.36026 0.03659 0.0
C2028 C 0.91038 0.33566 0.01516 0.0
C2029 C 0.90322 0.32914 0.99225 0.0
C2030 C 0.94606 0.40784 0.98434 0.0
C2031 C 0.93191 0.36869 -0.0008 0.0
C2032 C 0.9545 0.4303 0.98922 0.0
C2033 C 0.96113 0.43646 0.01238 0.0
C2034 C 0.94397 0.39152 0.00281 0.0
C2035 C 0.95999 0.41924 0.03001 0.0
C2036 C 0.92479 0.35518 0.01866 0.0
C2037 C 0.91223 0.3422 0.97311 0.0
N2038 N 0.95129 0.3977 0.02492 0.0
N2039 N 0.92574 0.36154 0.97703 0.0
H2040 H 0.72554 0.90611 0.017 0.0
H2041 H 0.58657 0.90893 0.98272 0.0
H2042 H 0.68895 0.84779 0.98539 0.0
H2043 H 0.61795 0.9571 0.03241 0.0
H2044 H 0.62445 0.88694 0.98203 0.0
H2045 H 0.68681 0.92661 0.02078 0.0
C2046 C 0.70935 0.8977 0.01086 0.0
C2047 C 0.71039 0.87548 0.0005 0.0
C2048 C 0.62296 0.90223 0.99323 0.0
C2049 C 0.66626 0.89842 0.00504 0.0
C2050 C 0.60135 0.91468 0.99366 0.0
C2051 C 0.59911 0.93466 0.00777 0.0
C2052 C 0.6426 0.91024 0.0065 0.0
C2053 C 0.61883 0.94153 0.02154 0.0
C2054 C 0.68731 0.90929 0.01309 0.0
C2055 C 0.68895 0.86518 0.99293 0.0
N2056 N 0.63985 0.92951 0.02034 0.0
N2057 N 0.6678 0.87674 0.99531 0.0
H2058 H 0.90717 0.72435 0.02756 0.0
H2059 H 0.93027 0.596 0.97873 0.0
H2060 H 0.87451 0.6991 0.96342 0.0
H2061 H 0.96596 0.62647 0.03886 0.0
H2062 H 0.91478 0.63512 0.9681 0.0
H2063 H 0.93408 0.69063 0.02746 0.0
C2064 C 0.90601 0.71186 0.01321 0.0
C2065 C 0.88852 0.71435 0.99561 0.0
C2066 C 0.92636 0.63323 0.98337 0.0
C2067 C 0.91882 0.67526 0.9956 0.0
C2068 C 0.9352 0.61096 0.98936 0.0
C2069 C 0.94884 0.60804 0.01001 0.0
C2070 C 0.9314 0.65243 0.99815 0.0
C2071 C 0.95495 0.62791 0.02313 0.0
C2072 C 0.92134 0.69255 0.01312 0.0
C2073 C 0.88781 0.69775 0.97731 0.0
N2074 N 0.94599 0.64913 0.01715 0.0
N2075 N 0.90243 0.67862 0.97801 0.0
H2076 H 0.2959 0.88862 0.97999 0.0
H2077 H 0.40417 0.94883 0.04569 0.0
H2078 H 0.29981 0.89699 0.05582 0.0
H2079 H 0.39194 0.95809 0.97075 0.0
H2080 H 0.36519 0.93076 0.04927 0.0
H2081 H 0.32906 0.91595 0.97569 0.0
C2082 C 0.3033 0.8966 0.99573 0.0
C2083 C 0.29526 0.89012 0.01836 0.0
C2084 C 0.37081 0.937 0.03206 0.0
C2085 C 0.3337 0.92093 0.01351 0.0
C2086 C 0.3932 0.9473 0.02995 0.0
C2087 C 0.40151 0.95491 0.0078 0.0
C2088 C 0.35648 0.93405 0.0119 0.0
C2089 C 0.38637 0.95231 0.98812 0.0
C2090 C 0.3224 0.91207 0.99324 0.0
C2091 C 0.30578 0.90095 0.03806 0.0
N2092 N 0.36463 0.94189 0.99059 0.0
N2093 N 0.32467 0.91549 0.03519 0.0
H2094 H 0.74015 0.15003 0.0452 0.0
H2095 H 0.63935 0.08855 0.9662 0.0
H2096 H 0.73463 0.15894 0.9695 0.0
H2097 H 0.63553 0.09687 0.04209 0.0
H2098 H 0.67902 0.10681 0.96675 0.0
H2099 H 0.70666 0.12285 0.04375 0.0
C2100 C 0.73212 0.1461 0.02822 0.0
C2101 C 0.74008 0.15716 0.00749 0.0
C2102 C 0.6695 0.10445 0.98326 0.0
C2103 C 0.70175 0.12582 0.00571 0.0
C2104 C 0.64689 0.094 0.98297 0.0
C2105 C 0.63388 0.09149 0.00408 0.0
C2106 C 0.6792 0.11224 0.00481 0.0
C2107 C 0.64468 0.09871 0.02531 0.0
C2108 C 0.713 0.13053 0.02741 0.0
C2109 C 0.72926 0.15085 0.98595 0.0
N2110 N 0.66658 0.10886 0.0251 0.0
N2111 N 0.71049 0.13581 0.98565 0.0
H2112 H 0.51899 0.64023 0.7952 0.0
H2113 H 0.51983 0.6311 0.93687 0.0
H2114 H 0.54231 0.69525 0.84175 0.0
H2115 H 0.50886 0.57117 0.89191 0.0
H2116 H 0.52731 0.6548 0.9018 0.0
H2117 H 0.51414 0.61453 0.82985 0.0
C2118 C 0.52313 0.64686 0.81268 0.0
C2119 C 0.53128 0.66983 0.81558 0.0
C2120 C 0.52342 0.63643 0.89955 0.0
C2121 C 0.52551 0.64077 0.85523 0.0
C2122 C 0.51915 0.62286 0.91963 0.0
C2123 C 0.51364 0.59908 0.91742 0.0
C2124 C 0.52204 0.62631 0.87692 0.0
C2125 C 0.51303 0.58943 0.89451 0.0
C2126 C 0.52043 0.6322 0.83242 0.0
C2127 C 0.53637 0.67755 0.83862 0.0
N2128 N 0.51701 0.60309 0.87516 0.0
N2129 N 0.53329 0.66315 0.85747 0.0
H2130 H 0.40223 0.58199 0.82328 0.0
H2131 H 0.46599 0.49119 0.91116 0.0
H2132 H 0.39741 0.50702 0.8163 0.0
H2133 H 0.44947 0.56239 0.93067 0.0
H2134 H 0.44927 0.49853 0.87189 0.0
H2135 H 0.42774 0.57655 0.85812 0.0
C2136 C 0.40663 0.56438 0.82887 0.0
C2137 C 0.39717 0.54494 0.81689 0.0
C2138 C 0.4495 0.51261 0.88469 0.0
C2139 C 0.42679 0.53869 0.85664 0.0
C2140 C 0.45915 0.50848 0.90711 0.0
C2141 C 0.45902 0.52615 0.92436 0.0
C2142 C 0.43971 0.53463 0.87931 0.0
C2143 C 0.44978 0.54818 0.91803 0.0
C2144 C 0.42127 0.56133 0.84875 0.0
C2145 C 0.40424 0.52259 0.8247 0.0
N2146 N 0.4404 0.55177 0.89605 0.0
N2147 N 0.41842 0.52011 0.84414 0.0
H2148 H 0.51394 0.34975 0.83809 0.0
H2149 H 0.50565 0.47775 0.89366 0.0
H2150 H 0.47173 0.40396 0.80512 0.0
H2151 H 0.52193 0.41605 0.93467 0.0
H2152 H 0.49648 0.45279 0.85955 0.0
H2153 H 0.52122 0.3756 0.87184 0.0
C2154 C 0.50646 0.36727 0.8379 0.0
C2155 C 0.49241 0.37485 0.8188 0.0
C2156 C 0.50191 0.44476 0.87608 0.0
C2157 C 0.50058 0.4046 0.85738 0.0
C2158 C 0.50711 0.45898 0.89561 0.0
C2159 C 0.51454 0.44903 0.9172 0.0
C2160 C 0.50459 0.42041 0.87798 0.0
C2161 C 0.51628 0.42457 0.91849 0.0
C2162 C 0.51044 0.38195 0.85722 0.0
C2163 C 0.48278 0.39756 0.81952 0.0
N2164 N 0.51156 0.41118 0.89915 0.0
N2165 N 0.48718 0.41175 0.83845 0.0
H2166 H 0.62866 0.54071 0.82064 0.0
H2167 H 0.58752 0.48405 0.93945 0.0
H2168 H 0.62754 0.46555 0.82822 0.0
H2169 H 0.55421 0.54731 0.91344 0.0
H2170 H 0.60416 0.47705 0.89986 0.0
H2171 H 0.60267 0.54406 0.85505 0.0
C2172 C 0.62268 0.52482 0.82908 0.0
C2173 C 0.63082 0.50277 0.82137 0.0
C2174 C 0.59292 0.49227 0.90279 0.0
C2175 C 0.60159 0.50675 0.86168 0.0
C2176 C 0.58349 0.49632 0.92537 0.0
C2177 C 0.56965 0.51642 0.92983 0.0
C2178 C 0.58896 0.50872 0.88472 0.0
C2179 C 0.56487 0.53164 0.91086 0.0
C2180 C 0.60792 0.52683 0.84896 0.0
C2181 C 0.62254 0.483 0.83374 0.0
N2182 N 0.57487 0.52772 0.88927 0.0
N2183 N 0.60882 0.48548 0.85349 0.0
H2184 H 0.48889 0.3499 0.17202 0.0
H2185 H 0.53049 0.47352 0.12426 0.0
H2186 H 0.50628 0.40627 0.21929 0.0
H2187 H 0.49085 0.42522 0.08123 0.0
H2188 H 0.52096 0.45015 0.15943 0.0
H2189 H 0.48906 0.37736 0.13871 0.0
C2190 C 0.49248 0.36818 0.17536 0.0
C2191 C 0.49755 0.37587 0.19839 0.0
C2192 C 0.51396 0.44484 0.1424 0.0
C2193 C 0.49822 0.40745 0.16026 0.0
C2194 C 0.51929 0.45825 0.12235 0.0
C2195 C 0.51117 0.45143 0.09989 0.0
C2196 C 0.50107 0.42396 0.1399 0.0
C2197 C 0.49712 0.43126 0.09829 0.0
C2198 C 0.49254 0.38387 0.15637 0.0
C2199 C 0.50221 0.39969 0.20179 0.0
N2200 N 0.49285 0.41805 0.11793 0.0
N2201 N 0.50273 0.41459 0.18291 0.0
H2202 H 0.61356 0.53456 0.20898 0.0
H2203 H 0.60083 0.48573 0.07969 0.0
H2204 H 0.64963 0.47105 0.18795 0.0
H2205 H 0.54854 0.53124 0.11214 0.0
H2206 H 0.61716 0.47692 0.11932 0.0
H2207 H 0.58799 0.53171 0.17398 0.0
C2208 C 0.61578 0.5198 0.19715 0.0
C2209 C 0.6337 0.50304 0.2013 0.0
C2210 C 0.6017 0.48834 0.11776 0.0
C2211 C 0.6049 0.49985 0.16089 0.0
C2212 C 0.59232 0.49319 0.09519 0.0
C2213 C 0.57356 0.50939 0.09277 0.0
C2214 C 0.59233 0.50007 0.13769 0.0
C2215 C 0.56325 0.51883 0.11333 0.0
C2216 C 0.60118 0.51811 0.17719 0.0
C2217 C 0.63588 0.48426 0.18542 0.0
N2218 N 0.57301 0.51438 0.13483 0.0
N2219 N 0.62196 0.48337 0.16565 0.0
H2220 H 0.57416 0.68114 0.18603 0.0
H2221 H 0.48454 0.59402 0.12139 0.0
H2222 H 0.50926 0.65487 0.21724 0.0
H2223 H 0.55399 0.61002 0.09256 0.0
H2224 H 0.49529 0.61406 0.15779 0.0
H2225 H 0.56934 0.65353 0.15309 0.0
C2226 C 0.55919 0.6692 0.18622 0.0
C2227 C 0.54198 0.67041 0.20434 0.0
C2228 C 0.50832 0.61319 0.14363 0.0
C2229 C 0.5362 0.63898 0.16659 0.0
C2230 C 0.50215 0.6017 0.12278 0.0
C2231 C 0.51832 0.60043 0.10384 0.0
C2232 C 0.53065 0.62421 0.14552 0.0
C2233 C 0.54098 0.61062 0.10675 0.0
C2234 C 0.55638 0.65353 0.16734 0.0
C2235 C 0.52278 0.65474 0.20351 0.0
N2236 N 0.54635 0.62242 0.12707 0.0
N2237 N 0.52034 0.63987 0.18492 0.0
H2238 H 0.39896 0.50122 0.19223 0.0
H2239 H 0.48346 0.55074 0.10551 0.0
H2240 H 0.3904 0.57626 0.19596 0.0
H2241 H 0.41539 0.53037 0.07649 0.0
H2242 H 0.46415 0.55659 0.1443 0.0
H2243 H 0.42127 0.50596 0.15531 0.0
C2244 C 0.40199 0.51869 0.18559 0.0
C2245 C 0.39233 0.53834 0.19719 0.0
C2246 C 0.45338 0.55179 0.12913 0.0
C2247 C 0.41845 0.54368 0.15538 0.0
C2248 C 0.46423 0.54885 0.107 0.0
C2249 C 0.45076 0.5408 0.08773 0.0
C2250 C 0.42914 0.5462 0.13181 0.0
C2251 C 0.42618 0.53713 0.09085 0.0
C2252 C 0.41481 0.52131 0.16462 0.0
C2253 C 0.39753 0.56059 0.18784 0.0
N2254 N 0.4162 0.5394 0.11264 0.0
N2255 N 0.41007 0.56267 0.16729 0.0
H2256 H 0.80254 0.54814 0.6392 0.0
H2257 H 0.92882 0.4839 0.61875 0.0
H2258 H 0.82067 0.48123 0.66982 0.0
H2259 H 0.91554 0.5563 0.60153 0.0
H2260 H 0.88857 0.48157 0.63567 0.0
H2261 H 0.84253 0.54965 0.62147 0.0
C2262 C 0.81481 0.53366 0.64202 0.0
C2263 C 0.80821 0.51464 0.65625 0.0
C2264 C 0.89457 0.49804 0.62846 0.0
C2265 C 0.85415 0.51637 0.63621 0.0
C2266 C 0.91766 0.49946 0.61904 0.0
C2267 C 0.92573 0.52039 0.60892 0.0
C2268 C 0.87924 0.5176 0.62747 0.0
C2269 C 0.9103 0.5399 0.60948 0.0
C2270 C 0.83768 0.53459 0.63198 0.0
C2271 C 0.82478 0.49619 0.65888 0.0
N2272 N 0.88774 0.53795 0.61833 0.0
N2273 N 0.84699 0.49761 0.64915 0.0
H2274 H 0.55146 0.85517 0.66181 0.0
H2275 H 0.50227 0.9174 0.5448 0.0
H2276 H 0.49301 0.82597 0.62196 0.0
H2277 H 0.53793 0.95411 0.60132 0.0
H2278 H 0.5016 0.88214 0.56965 0.0
H2279 H 0.55055 0.8896 0.6362 0.0
C2280 C 0.53865 0.85587 0.64741 0.0
C2281 C 0.52238 0.83761 0.64392 0.0
C2282 C 0.50939 0.89799 0.57661 0.0
C2283 C 0.52113 0.87716 0.61449 0.0
C2284 C 0.50977 0.91815 0.56247 0.0
C2285 C 0.52021 0.93884 0.57093 0.0
C2286 C 0.51987 0.89841 0.59923 0.0
C2287 C 0.52966 0.93867 0.59398 0.0
C2288 C 0.53798 0.87564 0.63293 0.0
C2289 C 0.50586 0.83967 0.62523 0.0
N2290 N 0.52947 0.91879 0.60717 0.0
N2291 N 0.50573 0.85903 0.6111 0.0
H2292 H 0.22939 0.5697 0.64084 0.0
H2293 H 0.1347 0.49268 0.57068 0.0
H2294 H 0.23853 0.49568 0.62871 0.0
H2295 H 0.13162 0.56803 0.57362 0.0
H2296 H 0.17375 0.49362 0.59006 0.0
H2297 H 0.19539 0.56981 0.61384 0.0
C2298 C 0.22467 0.55352 0.63214 0.0
C2299 C 0.2369 0.53259 0.63736 0.0
C2300 C 0.16465 0.50996 0.58629 0.0
C2301 C 0.19721 0.53252 0.6068 0.0
C2302 C 0.14228 0.50946 0.57523 0.0
C2303 C 0.12966 0.53032 0.57068 0.0
C2304 C 0.17453 0.53147 0.59301 0.0
C2305 C 0.14051 0.5515 0.577 0.0
C2306 C 0.20499 0.55358 0.61686 0.0
C2307 C 0.22943 0.51216 0.62571 0.0
N2308 N 0.1622 0.55151 0.58798 0.0
N2309 N 0.20993 0.51259 0.61125 0.0
H2310 H 0.52938 0.20833 0.64323 0.0
H2311 H 0.47612 0.11719 0.55533 0.0
H2312 H 0.45225 0.20222 0.64474 0.0
H2313 H 0.53126 0.09909 0.60546 0.0
H2314 H 0.4668 0.15256 0.579 0.0
H2315 H 0.53144 0.17348 0.6186 0.0
C2316 C 0.51281 0.19984 0.63845 0.0
C2317 C 0.49063 0.20811 0.64696 0.0
C2318 C 0.48046 0.14043 0.58505 0.0
C2319 C 0.49303 0.16839 0.61764 0.0
C2320 C 0.48544 0.12008 0.57183 0.0
C2321 C 0.50397 0.10485 0.57885 0.0
C2322 C 0.49473 0.14574 0.60486 0.0
C2323 C 0.51659 0.11017 0.59962 0.0
C2324 C 0.51406 0.17996 0.62419 0.0
C2325 C 0.46981 0.19664 0.63887 0.0
N2326 N 0.51203 0.13026 0.61161 0.0
N2327 N 0.47151 0.17729 0.62476 0.0
H2328 H 0.80178 0.54906 0.36939 0.0
H2329 H 0.89945 0.48483 0.44959 0.0
H2330 H 0.79578 0.47739 0.39231 0.0
H2331 H 0.90067 0.55879 0.43466 0.0
H2332 H 0.86069 0.48221 0.43 0.0
H2333 H 0.83645 0.55368 0.39518 0.0
C2334 C 0.80736 0.53442 0.38025 0.0
C2335 C 0.79582 0.51274 0.37853 0.0
C2336 C 0.86933 0.49905 0.43111 0.0
C2337 C 0.83609 0.51778 0.40767 0.0
C2338 C 0.89156 0.50056 0.44227 0.0
C2339 C 0.90343 0.52207 0.44377 0.0
C2340 C 0.85891 0.51914 0.42112 0.0
C2341 C 0.8922 0.54185 0.43395 0.0
C2342 C 0.82737 0.53702 0.39482 0.0
C2343 C 0.8043 0.49432 0.39275 0.0
N2344 N 0.87066 0.53987 0.4229 0.0
N2345 N 0.82404 0.49719 0.40652 0.0
H2346 H 0.50305 0.84039 0.36739 0.0
H2347 H 0.55555 0.93491 0.45829 0.0
H2348 H 0.57804 0.84336 0.38592 0.0
H2349 H 0.4845 0.93794 0.42846 0.0
H2350 H 0.56374 0.89951 0.43493 0.0
H2351 H 0.49526 0.87318 0.3938 0.0
C2352 C 0.51789 0.84761 0.37726 0.0
C2353 C 0.54132 0.83896 0.37415 0.0
C2354 C 0.54636 0.90793 0.43351 0.0
C2355 C 0.53247 0.87732 0.4042 0.0
C2356 C 0.5417 0.92814 0.44681 0.0
C2357 C 0.51938 0.93953 0.44518 0.0
C2358 C 0.52839 0.89876 0.41878 0.0
C2359 C 0.50207 0.92997 0.43004 0.0
C2360 C 0.51343 0.86663 0.39217 0.0
C2361 C 0.55974 0.84957 0.38731 0.0
N2362 N 0.50689 0.91014 0.41758 0.0
N2363 N 0.55496 0.86821 0.40162 0.0
H2364 H 0.21483 0.57396 0.37772 0.0
H2365 H 0.10848 0.48721 0.40859 0.0
H2366 H 0.21383 0.5028 0.35229 0.0
H2367 H 0.10054 0.56233 0.40753 0.0
H2368 H 0.14841 0.49125 0.3913 0.0
H2369 H 0.17495 0.56832 0.39447 0.0
C2370 C 0.2064 0.55708 0.37584 0.0
C2371 C 0.21767 0.53898 0.36317 0.0
C2372 C 0.13774 0.50679 0.39456 0.0
C2373 C 0.17199 0.53243 0.38239 0.0
C2374 C 0.11483 0.50452 0.4042 0.0
C2375 C 0.10109 0.52448 0.40969 0.0
C2376 C 0.14706 0.52916 0.39063 0.0
C2377 C 0.1104 0.54643 0.40368 0.0
C2378 C 0.18358 0.55392 0.38532 0.0
C2379 C 0.20602 0.51728 0.36195 0.0
N2380 N 0.13293 0.5482 0.39483 0.0
N2381 N 0.18376 0.51466 0.37128 0.0
H2382 H 0.53626 0.19128 0.35091 0.0
H2383 H 0.49059 0.13255 0.47142 0.0
H2384 H 0.48409 0.22203 0.39785 0.0
H2385 H 0.53108 0.09413 0.41934 0.0
H2386 H 0.49551 0.16809 0.44817 0.0
H2387 H 0.54074 0.15817 0.37836 0.0
C2388 C 0.52609 0.19126 0.36723 0.0
C2389 C 0.50983 0.20947 0.37217 0.0
C2390 C 0.50365 0.15204 0.44188 0.0
C2391 C 0.51491 0.17168 0.40369 0.0
C2392 C 0.50104 0.13175 0.45528 0.0
C2393 C 0.51044 0.11036 0.4473 0.0
C2394 C 0.51547 0.15105 0.41998 0.0
C2395 C 0.52374 0.11031 0.42622 0.0
C2396 C 0.52857 0.1723 0.38282 0.0
C2397 C 0.49679 0.20836 0.39334 0.0
N2398 N 0.52556 0.1303 0.41307 0.0
N2399 N 0.49963 0.18985 0.40827 0.0
H2400 H 0.66129 0.84183 0.47046 0.0
H2401 H 0.58536 0.9337 0.54708 0.0
H2402 H 0.64905 0.834 0.54546 0.0
H2403 H 0.59927 0.94076 0.47229 0.0
H2404 H 0.60562 0.89559 0.54652 0.0
H2405 H 0.63457 0.87562 0.47024 0.0
C2406 C 0.65261 0.84685 0.48683 0.0
C2407 C 0.65772 0.83505 0.50807 0.0
C2408 C 0.60419 0.90547 0.53023 0.0
C2409 C 0.62746 0.87443 0.50804 0.0
C2410 C 0.59275 0.92731 0.53056 0.0
C2411 C 0.59078 0.94059 0.50972 0.0
C2412 C 0.6138 0.89686 0.50893 0.0
C2413 C 0.6004 0.93122 0.4888 0.0
C2414 C 0.63752 0.86641 0.48673 0.0
C2415 C 0.64608 0.84279 0.52874 0.0
N2416 N 0.61154 0.91004 0.48897 0.0
N2417 N 0.63172 0.86211 0.52826 0.0
H2418 H 0.66658 0.20197 0.53821 0.0
H2419 H 0.57154 0.13036 0.46296 0.0
H2420 H 0.63885 0.22296 0.47015 0.0
H2421 H 0.59515 0.10785 0.53205 0.0
H2422 H 0.59193 0.16719 0.46861 0.0
H2423 H 0.63652 0.1709 0.53982 0.0
C2424 C 0.6538 0.2004 0.52387 0.0
C2425 C 0.65544 0.21482 0.50382 0.0
C2426 C 0.59264 0.15438 0.4827 0.0
C2427 C 0.62133 0.17919 0.5054 0.0
C2428 C 0.58105 0.13322 0.47942 0.0
C2429 C 0.58209 0.11582 0.49687 0.0
C2430 C 0.60583 0.15823 0.50346 0.0
C2431 C 0.59416 0.12075 0.51807 0.0
C2432 C 0.63677 0.18256 0.52473 0.0
C2433 C 0.63853 0.21194 0.48572 0.0
N2434 N 0.60595 0.14142 0.52064 0.0
N2435 N 0.62242 0.19433 0.48683 0.0
H2436 H 0.83463 0.66069 0.45397 0.0
H2437 H 0.91442 0.59684 0.55253 0.0
H2438 H 0.82372 0.6657 0.52949 0.0
H2439 H 0.93112 0.59134 0.47814 0.0
H2440 H 0.87909 0.61948 0.54297 0.0
H2441 H 0.8675 0.6329 0.46108 0.0
C2442 C 0.83891 0.65589 0.47202 0.0
C2443 C 0.82629 0.6659 0.49115 0.0
C2444 C 0.89038 0.61348 0.5286 0.0
C2445 C 0.86389 0.63386 0.4993 0.0
C2446 C 0.91079 0.60054 0.53406 0.0
C2447 C 0.92611 0.59235 0.51613 0.0
C2448 C 0.88498 0.61868 0.50494 0.0
C2449 C 0.91996 0.59746 0.49254 0.0
C2450 C 0.85768 0.63993 0.47601 0.0
C2451 C 0.83248 0.65846 0.51405 0.0
N2452 N 0.89991 0.61047 0.48761 0.0
N2453 N 0.85083 0.64312 0.51742 0.0
H2454 H 0.37228 0.83454 0.54945 0.0
H2455 H 0.44731 0.92842 0.47553 0.0
H2456 H 0.37794 0.83319 0.47326 0.0
H2457 H 0.44262 0.92758 0.55176 0.0
H2458 H 0.42419 0.89221 0.4742 0.0
H2459 H 0.40088 0.86646 0.55052 0.0
C2460 C 0.37981 0.84059 0.53292 0.0
C2461 C 0.37237 0.83107 0.5112 0.0
C2462 C 0.42831 0.89989 0.49122 0.0
C2463 C 0.40491 0.86843 0.51233 0.0
C2464 C 0.4415 0.92062 0.492 0.0
C2465 C 0.44675 0.93125 0.5138 0.0
C2466 C 0.4203 0.88966 0.51238 0.0
C2467 C 0.43882 0.9202 0.53453 0.0
C2468 C 0.39602 0.85909 0.53355 0.0
C2469 C 0.38265 0.84018 0.49042 0.0
N2470 N 0.42596 0.90014 0.5333 0.0
N2471 N 0.39818 0.85842 0.49149 0.0
H2472 H 0.17057 0.34862 0.51198 0.0
H2473 H 0.13331 0.48253 0.52451 0.0
H2474 H 0.2196 0.40228 0.53405 0.0
H2475 H 0.08624 0.42836 0.49936 0.0
H2476 H 0.16276 0.45266 0.53545 0.0
H2477 H 0.13766 0.37673 0.5141 0.0
C2478 C 0.17436 0.36642 0.51723 0.0
C2479 C 0.19787 0.37336 0.52227 0.0
C2480 C 0.14587 0.4473 0.52781 0.0
C2481 C 0.16026 0.40568 0.52482 0.0
C2482 C 0.129 0.46433 0.52161 0.0
C2483 C 0.10751 0.45795 0.51047 0.0
C2484 C 0.14123 0.42376 0.52273 0.0
C2485 C 0.10275 0.43411 0.50749 0.0
C2486 C 0.15555 0.38243 0.5186 0.0
C2487 C 0.20174 0.39638 0.52973 0.0
N2488 N 0.11963 0.41791 0.51325 0.0
N2489 N 0.18314 0.41187 0.53045 0.0
H2490 H 0.39089 0.21957 0.54619 0.0
H2491 H 0.43846 0.10298 0.48354 0.0
H2492 H 0.36374 0.1995 0.47771 0.0
H2493 H 0.42874 0.1132 0.55866 0.0
H2494 H 0.4211 0.14233 0.47676 0.0
H2495 H 0.41745 0.18551 0.54573 0.0
C2496 C 0.39089 0.20825 0.53083 0.0
C2497 C 0.37467 0.21203 0.51224 0.0
C2498 C 0.42296 0.13577 0.49465 0.0
C2499 C 0.40484 0.17291 0.51168 0.0
C2500 C 0.43271 0.11336 0.49852 0.0
C2501 C 0.43503 0.10468 0.52169 0.0
C2502 C 0.41609 0.14955 0.51414 0.0
C2503 C 0.42731 0.11895 0.54046 0.0
C2504 C 0.40598 0.18879 0.53059 0.0
C2505 C 0.37583 0.19708 0.4925 0.0
N2506 N 0.41841 0.14059 0.53628 0.0
N2507 N 0.39034 0.17783 0.49291 0.0
H2508 H 0.82229 0.38728 0.54221 0.0
H2509 H 0.92128 0.46135 0.47844 0.0
H2510 H 0.83469 0.3763 0.46755 0.0
H2511 H 0.93093 0.43201 0.54815 0.0
H2512 H 0.88623 0.43607 0.47272 0.0
H2513 H 0.85787 0.41172 0.54375 0.0
C2514 C 0.83234 0.39012 0.52609 0.0
C2515 C 0.82568 0.37929 0.50483 0.0
C2516 C 0.8963 0.43505 0.48909 0.0
C2517 C 0.86621 0.40755 0.50649 0.0
C2518 C 0.91622 0.44937 0.49234 0.0
C2519 C 0.92878 0.44894 0.51388 0.0
C2520 C 0.88873 0.42076 0.50776 0.0
C2521 C 0.92174 0.43296 0.53129 0.0
C2522 C 0.85265 0.40402 0.52703 0.0
C2523 C 0.83906 0.3843 0.48434 0.0
N2524 N 0.90189 0.41983 0.52803 0.0
N2525 N 0.85881 0.39805 0.48568 0.0
H2526 H 0.20614 0.66201 0.4877 0.0
H2527 H 0.09163 0.59696 0.54052 0.0
H2528 H 0.19204 0.65992 0.56289 0.0
H2529 H 0.11618 0.59167 0.46831 0.0
H2530 H 0.12826 0.61899 0.55026 0.0
H2531 H 0.17406 0.6345 0.48146 0.0
C2532 C 0.19671 0.65555 0.50306 0.0
C2533 C 0.20205 0.66374 0.52591 0.0
C2534 C 0.1256 0.61283 0.53234 0.0
C2535 C 0.164 0.63244 0.51857 0.0
C2536 C 0.1047 0.60032 0.52679 0.0
C2537 C 0.10057 0.59282 0.50347 0.0
C2538 C 0.14242 0.6177 0.51444 0.0
C2539 C 0.11821 0.59752 0.48642 0.0
C2540 C 0.17801 0.63991 0.49939 0.0
C2541 C 0.18839 0.65476 0.54484 0.0
N2542 N 0.13814 0.60964 0.49221 0.0
N2543 N 0.16986 0.63986 0.54073 0.0
loop_
_geom_bond_atom_site_label_1
_geom_bond_atom_site_label_2
_geom_bond_distance
_geom_bond_site_symmetry_2
_ccdc_geom_bond_type
C0 C1 1.386 . S
C0 C2 1.397 . S
C0 H24 0.931 . S
C1 C0 1.386 . S
C1 C5 1.397 . S
C2 C0 1.397 . S
C2 C3 1.384 . S
C2 H25 0.930 . S
C3 C2 1.384 . S
C3 C4 1.377 . S
C3 C6 1.481 . S
C4 C3 1.377 . S
C4 C5 1.389 . S
C4 H26 0.929 . S
C5 C1 1.397 . S
C5 C4 1.389 . S
C5 H27 0.931 . S
C6 C3 1.481 . S
C6 C7 1.387 . S
C6 C11 1.390 . S
C7 C6 1.387 . S
C7 C8 1.401 . S
C7 H28 0.930 . S
C8 C7 1.401 . S
C8 C9 1.376 . S
C8 C17 1.511 . S
C9 C8 1.376 . S
C9 C10 1.392 . S
C9 H30 0.931 . S
C10 C9 1.392 . S
C10 C11 1.361 . S
C10 C12 1.500 . S
C11 C6 1.390 . S
C11 C10 1.361 . S
C11 H29 0.931 . S
C12 C10 1.500 . S
C12 C13 1.371 . S
C12 C14 1.365 . S
C13 C12 1.371 . S
C13 C23 1.386 . S
C13 H31 0.931 . S
C14 C12 1.365 . S
C14 C15 1.409 . S
C14 H32 0.929 . S
C15 C14 1.409 . S
C15 C16 1.380 . S
C15 H33 0.930 . S
C16 C15 1.380 . S
C16 C23 1.357 . S
C17 C8 1.511 . S
C17 C18 1.341 . S
C17 C19 1.371 . S
C18 C17 1.341 . S
C18 C22 1.394 . S
C18 H34 0.930 . S
C19 C17 1.371 . S
C19 C20 1.392 . S
C19 H35 0.931 . S
C20 C19 1.392 . S
C20 C21 1.331 . S
C20 H38 0.932 . S
C21 C20 1.331 . S
C21 C22 1.336 . S
C22 C18 1.394 . S
C22 C21 1.336 . S
C22 H37 0.929 . S
C23 C13 1.386 . S
C23 C16 1.357 . S
C23 H36 0.928 . S
H24 C0 0.931 . S
H25 C2 0.930 . S
H26 C4 0.929 . S
H27 C5 0.931 . S
H28 C7 0.930 . S
H29 C11 0.931 . S
H30 C9 0.931 . S
H31 C13 0.931 . S
H32 C14 0.929 . S
H33 C15 0.930 . S
H34 C18 0.930 . S
H35 C19 0.931 . S
H36 C23 0.928 . S
H37 C22 0.929 . S
H38 C20 0.932 . S
C39 C40 1.386 . S
C39 C41 1.397 . S
C39 H63 0.931 . S
C40 C39 1.386 . S
C40 C44 1.397 . S
C41 C39 1.397 . S
C41 C42 1.384 . S
C41 H64 0.930 . S
C42 C41 1.384 . S
C42 C43 1.377 . S
C42 C45 1.481 . S
C43 C42 1.377 . S
C43 C44 1.389 . S
C43 H65 0.929 . S
C44 C40 1.397 . S
C44 C43 1.389 . S
C44 H66 0.931 . S
C45 C42 1.481 . S
C45 C46 1.387 . S
C45 C50 1.390 . S
C46 C45 1.387 . S
C46 C47 1.401 . S
C46 H67 0.930 . S
C47 C46 1.401 . S
C47 C48 1.376 . S
C47 C56 1.511 . S
C48 C47 1.376 . S
C48 C49 1.392 . S
C48 H69 0.931 . S
C49 C48 1.392 . S
C49 C50 1.361 . S
C49 C51 1.500 . S
C50 C45 1.390 . S
C50 C49 1.361 . S
C50 H68 0.931 . S
C51 C49 1.500 . S
C51 C52 1.371 . S
C51 C53 1.365 . S
C52 C51 1.371 . S
C52 C62 1.386 . S
C52 H70 0.931 . S
C53 C51 1.365 . S
C53 C54 1.409 . S
C53 H71 0.929 . S
C54 C53 1.409 . S
C54 C55 1.380 . S
C54 H72 0.930 . S
C55 C54 1.380 . S
C55 C62 1.357 . S
C56 C47 1.511 . S
C56 C57 1.341 . S
C56 C58 1.371 . S
C57 C56 1.341 . S
C57 C61 1.394 . S
C57 H73 0.930 . S
C58 C56 1.371 . S
C58 C59 1.392 . S
C58 H74 0.931 . S
C59 C58 1.392 . S
C59 C60 1.331 . S
C59 H77 0.932 . S
C60 C59 1.331 . S
C60 C61 1.336 . S
C61 C57 1.394 . S
C61 C60 1.336 . S
C61 H76 0.929 . S
C62 C52 1.386 . S
C62 C55 1.357 . S
C62 H75 0.928 . S
H63 C39 0.931 . S
H64 C41 0.930 . S
H65 C43 0.929 . S
H66 C44 0.931 . S
H67 C46 0.930 . S
H68 C50 0.931 . S
H69 C48 0.931 . S
H70 C52 0.931 . S
H71 C53 0.929 . S
H72 C54 0.930 . S
H73 C57 0.930 . S
H74 C58 0.931 . S
H75 C62 0.928 . S
H76 C61 0.929 . S
H77 C59 0.932 . S
C78 C79 1.386 . S
C78 C80 1.397 . S
C78 H102 0.910 1_455 S
C79 C78 1.386 . S
C79 C83 1.397 . S
C80 C78 1.397 . S
C80 C81 1.384 . S
C80 H103 0.930 1_455 S
C81 C80 1.384 . S
C81 C82 1.377 . S
C81 C84 1.481 . S
C82 C81 1.377 . S
C82 C83 1.389 . S
C82 H104 0.929 . S
C83 C79 1.397 . S
C83 C82 1.389 . S
C83 H105 0.931 . S
C84 C81 1.481 . S
C84 C85 1.387 . S
C84 C89 1.390 . S
C85 C84 1.387 . S
C85 C86 1.401 . S
C85 H106 0.930 . S
C86 C85 1.401 . S
C86 C87 1.376 . S
C86 C95 1.511 . S
C87 C86 1.376 . S
C87 C88 1.392 . S
C87 H108 0.931 . S
C88 C87 1.392 . S
C88 C89 1.361 . S
C88 C90 1.500 . S
C89 C84 1.390 . S
C89 C88 1.361 . S
C89 H107 0.931 . S
C90 C88 1.500 . S
C90 C91 1.371 . S
C90 C92 1.365 . S
C91 C90 1.371 . S
C91 C101 1.386 . S
C91 H109 0.931 . S
C92 C90 1.365 . S
C92 C93 1.409 . S
C92 H110 0.929 . S
C93 C92 1.409 . S
C93 C94 1.380 . S
C93 H111 0.930 . S
C94 C93 1.380 . S
C94 C101 1.357 . S
C95 C86 1.511 . S
C95 C96 1.341 . S
C95 C97 1.371 . S
C96 C95 1.341 . S
C96 C100 1.394 . S
C96 H112 0.930 . S
C97 C95 1.371 . S
C97 C98 1.392 . S
C97 H113 0.931 . S
C98 C97 1.392 . S
C98 C99 1.331 . S
C98 H116 0.932 . S
C99 C98 1.331 . S
C99 C100 1.336 . S
C100 C96 1.394 . S
C100 C99 1.336 . S
C100 H115 0.929 . S
C101 C91 1.386 . S
C101 C94 1.357 . S
C101 H114 0.928 . S
H102 C78 0.910 1_655 S
H103 C80 0.930 1_655 S
H104 C82 0.929 . S
H105 C83 0.931 . S
H106 C85 0.930 . S
H107 C89 0.931 . S
H108 C87 0.931 . S
H109 C91 0.931 . S
H110 C92 0.929 . S
H111 C93 0.930 . S
H112 C96 0.930 . S
H113 C97 0.931 . S
H114 C101 0.928 . S
H115 C100 0.929 . S
H116 C98 0.932 . S
C117 C118 1.386 . S
C117 C119 1.397 . S
C117 H141 0.931 . S
C118 C117 1.386 . S
C118 C122 1.397 1_545 S
C119 C117 1.397 . S
C119 C120 1.384 . S
C119 H142 0.930 . S
C120 C119 1.384 . S
C120 C121 1.377 1_545 S
C120 C123 1.481 . S
C121 C120 1.377 1_565 S
C121 C122 1.389 . S
C121 H143 0.929 . S
C122 C118 1.397 1_565 S
C122 C121 1.389 . S
C122 H144 0.931 . S
C123 C120 1.481 . S
C123 C124 1.387 . S
C123 C128 1.390 . S
C124 C123 1.387 . S
C124 C125 1.401 . S
C124 H145 0.930 . S
C125 C124 1.401 . S
C125 C126 1.376 . S
C125 C134 1.511 . S
C126 C125 1.376 . S
C126 C127 1.392 . S
C126 H147 0.931 . S
C127 C126 1.392 . S
C127 C128 1.361 . S
C127 C129 1.500 . S
C128 C123 1.390 . S
C128 C127 1.361 . S
C128 H146 0.931 . S
C129 C127 1.500 . S
C129 C130 1.371 . S
C129 C131 1.365 1_545 S
C130 C129 1.371 . S
C130 C140 1.386 . S
C130 H148 0.931 . S
C131 C129 1.365 1_565 S
C131 C132 1.409 . S
C131 H149 0.929 . S
C132 C131 1.409 . S
C132 C133 1.380 1_565 S
C132 H150 0.930 . S
C133 C132 1.380 1_545 S
C133 C140 1.357 . S
C134 C125 1.511 . S
C134 C135 1.341 . S
C134 C136 1.371 1_545 S
C135 C134 1.341 . S
C135 C139 1.394 . S
C135 H151 0.930 . S
C136 C134 1.371 1_565 S
C136 C137 1.392 . S
C136 H152 0.931 . S
C137 C136 1.392 . S
C137 C138 1.331 1_565 S
C137 H155 0.932 . S
C138 C137 1.331 1_545 S
C138 C139 1.336 . S
C139 C135 1.394 . S
C139 C138 1.336 . S
C139 H154 0.929 . S
C140 C130 1.386 . S
C140 C133 1.357 . S
C140 H153 0.928 . S
H141 C117 0.931 . S
H142 C119 0.930 . S
H143 C121 0.929 . S
H144 C122 0.931 . S
H145 C124 0.930 . S
H146 C128 0.931 . S
H147 C126 0.931 . S
H148 C130 0.931 . S
H149 C131 0.929 . S
H150 C132 0.930 . S
H151 C135 0.930 . S
H152 C136 0.931 . S
H153 C140 0.928 . S
H154 C139 0.929 . S
H155 C137 0.932 . S
C156 C157 1.383 1_655 S
C156 C158 1.397 . S
C156 H180 0.931 . S
C157 C156 1.383 1_455 S
C157 C161 1.400 . S
C158 C156 1.397 . S
C158 C159 1.378 1_655 S
C158 H181 0.930 . S
C159 C158 1.378 1_455 S
C159 C160 1.383 . S
C159 C162 1.480 1_455 S
C160 C159 1.383 . S
C160 C161 1.389 . S
C160 H182 0.929 . S
C161 C157 1.400 . S
C161 C160 1.389 . S
C161 H183 0.931 . S
C162 C159 1.480 1_655 S
C162 C163 1.386 . S
C162 C167 1.390 1_655 S
C163 C162 1.386 . S
C163 C164 1.400 . S
C163 H184 0.934 . S
C164 C163 1.400 . S
C164 C165 1.376 . S
C164 C173 1.511 . S
C165 C164 1.376 . S
C165 C166 1.392 1_655 S
C165 H186 0.932 . S
C166 C165 1.392 1_455 S
C166 C167 1.361 . S
C166 C168 1.500 . S
C167 C162 1.390 1_455 S
C167 C166 1.361 . S
C167 H185 0.931 . S
C168 C166 1.500 . S
C168 C169 1.371 1_455 S
C168 C170 1.365 . S
C169 C168 1.371 1_655 S
C169 C179 1.386 . S
C169 H187 0.931 . S
C170 C168 1.365 . S
C170 C171 1.409 . S
C170 H188 0.929 . S
C171 C170 1.409 . S
C171 C172 1.392 . S
C171 H189 0.930 . S
C172 C171 1.392 . S
C172 C179 1.346 1_455 S
C173 C164 1.511 . S
C173 C174 1.341 . S
C173 C175 1.371 1_655 S
C174 C173 1.341 . S
C174 C178 1.394 . S
C174 H190 0.930 . S
C175 C173 1.371 1_455 S
C175 C176 1.392 . S
C175 H191 0.931 . S
C176 C175 1.392 . S
C176 C177 1.330 1_455 S
C176 H194 0.932 . S
C177 C176 1.330 1_655 S
C177 C178 1.337 . S
C178 C174 1.394 . S
C178 C177 1.337 . S
C178 H193 0.929 . S
C179 C169 1.386 . S
C179 C172 1.346 1_655 S
C179 H192 0.928 . S
H180 C156 0.931 . S
H181 C158 0.930 . S
H182 C160 0.929 . S
H183 C161 0.931 . S
H184 C163 0.934 . S
H185 C167 0.931 . S
H186 C165 0.932 . S
H187 C169 0.931 . S
H188 C170 0.929 . S
H189 C171 0.930 . S
H190 C174 0.930 . S
H191 C175 0.931 . S
H192 C179 0.928 . S
H193 C178 0.929 . S
H194 C176 0.932 . S
C195 C196 1.386 1_565 S
C195 C197 1.397 . S
C195 H219 0.931 . S
C196 C195 1.386 1_545 S
C196 C200 1.397 . S
C197 C195 1.397 . S
C197 C198 1.384 1_565 S
C197 H220 0.930 . S
C198 C197 1.384 1_545 S
C198 C199 1.377 . S
C198 C201 1.481 . S
C199 C198 1.377 . S
C199 C200 1.389 . S
C199 H221 0.929 . S
C200 C196 1.397 . S
C200 C199 1.389 . S
C200 H222 0.931 . S
C201 C198 1.481 . S
C201 C202 1.387 . S
C201 C206 1.390 . S
C202 C201 1.387 . S
C202 C203 1.401 . S
C202 H223 0.930 . S
C203 C202 1.401 . S
C203 C204 1.376 . S
C203 C212 1.511 . S
C204 C203 1.376 . S
C204 C205 1.392 . S
C204 H225 0.931 . S
C205 C204 1.392 . S
C205 C206 1.361 . S
C205 C207 1.500 . S
C206 C201 1.390 . S
C206 C205 1.361 . S
C206 H224 0.931 . S
C207 C205 1.500 . S
C207 C208 1.371 1_545 S
C207 C209 1.365 . S
C208 C207 1.371 1_565 S
C208 C218 1.386 . S
C208 H226 0.931 . S
C209 C207 1.365 . S
C209 C210 1.409 . S
C209 H227 0.929 . S
C210 C209 1.409 . S
C210 C211 1.380 . S
C210 H228 0.930 . S
C211 C210 1.380 . S
C211 C218 1.357 1_545 S
C212 C203 1.511 . S
C212 C213 1.341 1_545 S
C212 C214 1.371 . S
C213 C212 1.341 1_565 S
C213 C217 1.395 . S
C213 H229 0.930 . S
C214 C212 1.371 . S
C214 C215 1.392 . S
C214 H230 0.931 . S
C215 C214 1.392 . S
C215 C216 1.331 . S
C215 H233 0.932 . S
C216 C215 1.331 . S
C216 C217 1.326 1_545 S
C217 C213 1.395 . S
C217 C216 1.326 1_565 S
C217 H232 0.939 . S
C218 C208 1.386 . S
C218 C211 1.357 1_565 S
C218 H231 0.928 . S
H219 C195 0.931 . S
H220 C197 0.930 . S
H221 C199 0.929 . S
H222 C200 0.931 . S
H223 C202 0.930 . S
H224 C206 0.931 . S
H225 C204 0.931 . S
H226 C208 0.931 . S
H227 C209 0.929 . S
H228 C210 0.930 . S
H229 C213 0.930 . S
H230 C214 0.931 . S
H231 C218 0.928 . S
H232 C217 0.939 . S
H233 C215 0.932 . S
C234 C235 1.386 . S
C234 C236 1.397 . S
C234 H258 0.904 1_455 S
C235 C234 1.386 . S
C235 C239 1.397 . S
C236 C234 1.397 . S
C236 C237 1.384 . S
C236 H259 0.930 1_455 S
C237 C236 1.384 . S
C237 C238 1.377 . S
C237 C240 1.481 . S
C238 C237 1.377 . S
C238 C239 1.389 . S
C238 H260 0.929 . S
C239 C235 1.397 . S
C239 C238 1.389 . S
C239 H261 0.931 . S
C240 C237 1.481 . S
C240 C241 1.387 . S
C240 C245 1.390 . S
C241 C240 1.387 . S
C241 C242 1.401 . S
C241 H262 0.930 . S
C242 C241 1.401 . S
C242 C243 1.376 . S
C242 C251 1.511 . S
C243 C242 1.376 . S
C243 C244 1.392 . S
C243 H264 0.931 . S
C244 C243 1.392 . S
C244 C245 1.361 . S
C244 C246 1.500 . S
C245 C240 1.390 . S
C245 C244 1.361 . S
C245 H263 0.931 . S
C246 C244 1.500 . S
C246 C247 1.371 . S
C246 C248 1.365 . S
C247 C246 1.371 . S
C247 C257 1.386 . S
C247 H265 0.931 . S
C248 C246 1.365 . S
C248 C249 1.409 . S
C248 H266 0.929 . S
C249 C248 1.409 . S
C249 C250 1.380 . S
C249 H267 0.930 . S
C250 C249 1.380 . S
C250 C257 1.357 . S
C251 C242 1.511 . S
C251 C252 1.341 . S
C251 C253 1.371 . S
C252 C251 1.341 . S
C252 C256 1.394 . S
C252 H268 0.930 . S
C253 C251 1.371 . S
C253 C254 1.392 . S
C253 H269 0.931 . S
C254 C253 1.392 . S
C254 C255 1.331 . S
C254 H272 0.932 . S
C255 C254 1.331 . S
C255 C256 1.336 . S
C256 C252 1.394 . S
C256 C255 1.336 . S
C256 H271 0.929 . S
C257 C247 1.386 . S
C257 C250 1.357 . S
C257 H270 0.928 . S
H258 C234 0.904 1_655 S
H259 C236 0.930 1_655 S
H260 C238 0.929 . S
H261 C239 0.931 . S
H262 C241 0.930 . S
H263 C245 0.931 . S
H264 C243 0.931 . S
H265 C247 0.931 . S
H266 C248 0.929 . S
H267 C249 0.930 . S
H268 C252 0.930 . S
H269 C253 0.931 . S
H270 C257 0.928 . S
H271 C256 0.929 . S
H272 C254 0.932 . S
C273 C274 1.386 . S
C273 C275 1.397 . S
C273 H297 0.931 . S
C274 C273 1.386 . S
C274 C278 1.397 . S
C275 C273 1.397 . S
C275 C276 1.384 . S
C275 H298 0.930 . S
C276 C275 1.384 . S
C276 C277 1.377 . S
C276 C279 1.481 . S
C277 C276 1.377 . S
C277 C278 1.389 . S
C277 H299 0.929 . S
C278 C274 1.397 . S
C278 C277 1.389 . S
C278 H300 0.931 . S
C279 C276 1.481 . S
C279 C280 1.387 . S
C279 C284 1.390 . S
C280 C279 1.387 . S
C280 C281 1.401 . S
C280 H301 0.930 . S
C281 C280 1.401 . S
C281 C282 1.376 . S
C281 C290 1.511 . S
C282 C281 1.376 . S
C282 C283 1.392 . S
C282 H303 0.931 . S
C283 C282 1.392 . S
C283 C284 1.361 . S
C283 C285 1.500 . S
C284 C279 1.390 . S
C284 C283 1.361 . S
C284 H302 0.931 . S
C285 C283 1.500 . S
C285 C286 1.371 . S
C285 C287 1.365 . S
C286 C285 1.371 . S
C286 C296 1.386 . S
C286 H304 0.931 . S
C287 C285 1.365 . S
C287 C288 1.409 . S
C287 H305 0.929 . S
C288 C287 1.409 . S
C288 C289 1.380 . S
C288 H306 0.930 . S
C289 C288 1.380 . S
C289 C296 1.357 . S
C290 C281 1.511 . S
C290 C291 1.341 . S
C290 C292 1.371 . S
C291 C290 1.341 . S
C291 C295 1.394 . S
C291 H307 0.930 . S
C292 C290 1.371 . S
C292 C293 1.392 . S
C292 H308 0.931 . S
C293 C292 1.392 . S
C293 C294 1.331 . S
C293 H311 0.932 . S
C294 C293 1.331 . S
C294 C295 1.336 . S
C295 C291 1.394 . S
C295 C294 1.336 . S
C295 H310 0.929 . S
C296 C286 1.386 . S
C296 C289 1.357 . S
C296 H309 0.928 . S
H297 C273 0.931 . S
H298 C275 0.930 . S
H299 C277 0.929 . S
H300 C278 0.931 . S
H301 C280 0.930 . S
H302 C284 0.931 . S
H303 C282 0.931 . S
H304 C286 0.931 . S
H305 C287 0.929 . S
H306 C288 0.930 . S
H307 C291 0.930 . S
H308 C292 0.931 . S
H309 C296 0.928 . S
H310 C295 0.929 . S
H311 C293 0.932 . S
C312 C313 1.386 . S
C312 C314 1.397 . S
C312 H336 0.931 1_554 S
C313 C312 1.386 . S
C313 C317 1.397 . S
C314 C312 1.397 . S
C314 C315 1.384 . S
C314 H337 0.930 1_554 S
C315 C314 1.384 . S
C315 C316 1.377 . S
C315 C318 1.481 . S
C316 C315 1.377 . S
C316 C317 1.389 . S
C316 H338 0.929 . S
C317 C313 1.397 . S
C317 C316 1.389 . S
C317 H339 0.931 . S
C318 C315 1.481 . S
C318 C319 1.387 . S
C318 C323 1.390 . S
C319 C318 1.387 . S
C319 C320 1.401 . S
C319 H340 0.930 . S
C320 C319 1.401 . S
C320 C321 1.376 . S
C320 C329 1.511 . S
C321 C320 1.376 . S
C321 C322 1.392 . S
C321 H342 0.931 . S
C322 C321 1.392 . S
C322 C323 1.361 . S
C322 C324 1.500 . S
C323 C318 1.390 . S
C323 C322 1.361 . S
C323 H341 0.931 . S
C324 C322 1.500 . S
C324 C325 1.371 . S
C324 C326 1.365 . S
C325 C324 1.371 . S
C325 C335 1.386 . S
C325 H343 0.931 . S
C326 C324 1.365 . S
C326 C327 1.409 . S
C326 H344 0.929 . S
C327 C326 1.409 . S
C327 C328 1.380 . S
C327 H345 0.930 . S
C328 C327 1.380 . S
C328 C335 1.357 . S
C329 C320 1.511 . S
C329 C330 1.341 . S
C329 C331 1.371 . S
C330 C329 1.341 . S
C330 C334 1.394 . S
C330 H346 0.930 . S
C331 C329 1.371 . S
C331 C332 1.392 . S
C331 H347 0.931 . S
C332 C331 1.392 . S
C332 C333 1.331 . S
C332 H350 0.932 . S
C333 C332 1.331 . S
C333 C334 1.336 . S
C334 C330 1.394 . S
C334 C333 1.336 . S
C334 H349 0.929 . S
C335 C325 1.386 . S
C335 C328 1.357 . S
C335 H348 0.928 . S
H336 C312 0.931 1_556 S
H337 C314 0.930 1_556 S
H338 C316 0.929 . S
H339 C317 0.931 . S
H340 C319 0.930 . S
H341 C323 0.931 . S
H342 C321 0.931 . S
H343 C325 0.931 . S
H344 C326 0.929 . S
H345 C327 0.930 . S
H346 C330 0.930 . S
H347 C331 0.931 . S
H348 C335 0.928 . S
H349 C334 0.929 . S
H350 C332 0.932 . S
C351 C352 1.386 . S
C351 C353 1.397 . S
C351 H375 0.931 . S
C352 C351 1.386 . S
C352 C356 1.397 . S
C353 C351 1.397 . S
C353 C354 1.384 . S
C353 H376 0.930 . S
C354 C353 1.384 . S
C354 C355 1.377 . S
C354 C357 1.481 . S
C355 C354 1.377 . S
C355 C356 1.389 . S
C355 H377 0.929 1_554 S
C356 C352 1.397 . S
C356 C355 1.389 . S
C356 H378 0.931 1_554 S
C357 C354 1.481 . S
C357 C358 1.387 . S
C357 C362 1.390 . S
C358 C357 1.387 . S
C358 C359 1.401 . S
C358 H379 0.930 . S
C359 C358 1.401 . S
C359 C360 1.376 . S
C359 C368 1.511 . S
C360 C359 1.376 . S
C360 C361 1.392 . S
C360 H381 0.931 . S
C361 C360 1.392 . S
C361 C362 1.361 . S
C361 C363 1.500 . S
C362 C357 1.390 . S
C362 C361 1.361 . S
C362 H380 0.931 . S
C363 C361 1.500 . S
C363 C364 1.371 . S
C363 C365 1.365 . S
C364 C363 1.371 . S
C364 C374 1.386 . S
C364 H382 0.931 . S
C365 C363 1.365 . S
C365 C366 1.409 . S
C365 H383 0.929 1_554 S
C366 C365 1.409 . S
C366 C367 1.380 . S
C366 H384 0.930 1_554 S
C367 C366 1.380 . S
C367 C374 1.357 . S
C368 C359 1.511 . S
C368 C369 1.341 . S
C368 C370 1.371 . S
C369 C368 1.341 . S
C369 C373 1.394 . S
C369 H385 0.930 . S
C370 C368 1.371 . S
C370 C371 1.392 . S
C370 H386 0.931 . S
C371 C370 1.392 . S
C371 C372 1.331 . S
C371 H389 0.932 . S
C372 C371 1.331 . S
C372 C373 1.336 . S
C373 C369 1.394 . S
C373 C372 1.336 . S
C373 H388 0.929 . S
C374 C364 1.386 . S
C374 C367 1.357 . S
C374 H387 0.928 . S
H375 C351 0.931 . S
H376 C353 0.930 . S
H377 C355 0.929 1_556 S
H378 C356 0.931 1_556 S
H379 C358 0.930 . S
H380 C362 0.931 . S
H381 C360 0.931 . S
H382 C364 0.931 . S
H383 C365 0.929 1_556 S
H384 C366 0.930 1_556 S
H385 C369 0.930 . S
H386 C370 0.931 . S
H387 C374 0.928 . S
H388 C373 0.929 . S
H389 C371 0.932 . S
C390 C391 1.386 1_556 S
C390 C392 1.397 . S
C390 H414 0.931 . S
C391 C390 1.386 1_554 S
C391 C395 1.397 . S
C392 C390 1.397 . S
C392 C393 1.384 1_556 S
C392 H415 0.930 . S
C393 C392 1.384 1_554 S
C393 C394 1.377 . S
C393 C396 1.481 . S
C394 C393 1.377 . S
C394 C395 1.389 . S
C394 H416 0.929 . S
C395 C391 1.397 . S
C395 C394 1.389 . S
C395 H417 0.931 . S
C396 C393 1.481 . S
C396 C397 1.387 . S
C396 C401 1.390 . S
C397 C396 1.387 . S
C397 C398 1.401 . S
C397 H418 0.930 . S
C398 C397 1.401 . S
C398 C399 1.376 . S
C398 C407 1.512 . S
C399 C398 1.376 . S
C399 C400 1.392 . S
C399 H420 0.933 . S
C400 C399 1.392 . S
C400 C401 1.361 . S
C400 C402 1.500 . S
C401 C396 1.390 . S
C401 C400 1.361 . S
C401 H419 0.931 . S
C402 C400 1.500 . S
C402 C403 1.371 1_554 S
C402 C404 1.365 . S
C403 C402 1.371 1_556 S
C403 C413 1.386 . S
C403 H421 0.931 . S
C404 C402 1.365 . S
C404 C405 1.409 . S
C404 H422 0.929 . S
C405 C404 1.409 . S
C405 C406 1.380 . S
C405 H423 0.930 . S
C406 C405 1.380 . S
C406 C413 1.357 1_554 S
C407 C398 1.512 . S
C407 C408 1.334 1_554 S
C407 C409 1.379 . S
C408 C407 1.334 1_556 S
C408 C412 1.394 . S
C408 H424 0.930 . S
C409 C407 1.379 . S
C409 C410 1.392 . S
C409 H425 0.931 . S
C410 C409 1.392 . S
C410 C411 1.331 . S
C410 H428 0.932 . S
C411 C410 1.331 . S
C411 C412 1.336 1_554 S
C412 C408 1.394 . S
C412 C411 1.336 1_556 S
C412 H427 0.929 . S
C413 C403 1.386 . S
C413 C406 1.357 1_556 S
C413 H426 0.928 . S
H414 C390 0.931 . S
H415 C392 0.930 . S
H416 C394 0.929 . S
H417 C395 0.931 . S
H418 C397 0.930 . S
H419 C401 0.931 . S
H420 C399 0.933 . S
H421 C403 0.931 . S
H422 C404 0.929 . S
H423 C405 0.930 . S
H424 C408 0.930 . S
H425 C409 0.931 . S
H426 C413 0.928 . S
H427 C412 0.929 . S
H428 C410 0.932 . S
C429 C430 1.386 . S
C429 C431 1.397 . S
C429 H453 0.931 . S
C430 C429 1.386 . S
C430 C434 1.397 1_554 S
C431 C429 1.397 . S
C431 C432 1.384 . S
C431 H454 0.930 . S
C432 C431 1.384 . S
C432 C433 1.377 1_554 S
C432 C435 1.481 . S
C433 C432 1.377 1_556 S
C433 C434 1.389 . S
C433 H455 0.929 . S
C434 C430 1.397 1_556 S
C434 C433 1.389 . S
C434 H456 0.931 . S
C435 C432 1.481 . S
C435 C436 1.387 . S
C435 C440 1.390 . S
C436 C435 1.387 . S
C436 C437 1.401 . S
C436 H457 0.930 . S
C437 C436 1.401 . S
C437 C438 1.376 . S
C437 C446 1.511 . S
C438 C437 1.376 . S
C438 C439 1.392 . S
C438 H459 0.931 . S
C439 C438 1.392 . S
C439 C440 1.361 . S
C439 C441 1.500 . S
C440 C435 1.390 . S
C440 C439 1.361 . S
C440 H458 0.931 . S
C441 C439 1.500 . S
C441 C442 1.371 . S
C441 C443 1.365 1_554 S
C442 C441 1.371 . S
C442 C452 1.386 . S
C442 H460 0.931 . S
C443 C441 1.365 1_556 S
C443 C444 1.409 . S
C443 H461 0.929 . S
C444 C443 1.409 . S
C444 C445 1.380 1_556 S
C444 H462 0.930 . S
C445 C444 1.380 1_554 S
C445 C452 1.357 . S
C446 C437 1.511 . S
C446 C447 1.341 . S
C446 C448 1.371 1_554 S
C447 C446 1.341 . S
C447 C451 1.394 . S
C447 H463 0.930 . S
C448 C446 1.371 1_556 S
C448 C449 1.392 . S
C448 H464 0.931 . S
C449 C448 1.392 . S
C449 C450 1.331 1_556 S
C449 H467 0.932 . S
C450 C449 1.331 1_554 S
C450 C451 1.336 . S
C451 C447 1.394 . S
C451 C450 1.336 . S
C451 H466 0.929 . S
C452 C442 1.386 . S
C452 C445 1.357 . S
C452 H465 0.928 . S
H453 C429 0.931 . S
H454 C431 0.930 . S
H455 C433 0.929 . S
H456 C434 0.931 . S
H457 C436 0.930 . S
H458 C440 0.931 . S
H459 C438 0.931 . S
H460 C442 0.931 . S
H461 C443 0.929 . S
H462 C444 0.930 . S
H463 C447 0.930 . S
H464 C448 0.931 . S
H465 C452 0.928 . S
H466 C451 0.929 . S
H467 C449 0.932 . S
C468 C469 1.386 . S
C468 C470 1.397 . S
C468 H492 0.931 . S
C469 C468 1.386 . S
C469 C473 1.397 . S
C470 C468 1.397 . S
C470 C471 1.384 . S
C470 H493 0.930 . S
C471 C470 1.384 . S
C471 C472 1.377 . S
C471 C474 1.481 . S
C472 C471 1.377 . S
C472 C473 1.389 . S
C472 H494 0.929 . S
C473 C469 1.397 . S
C473 C472 1.389 . S
C473 H495 0.931 . S
C474 C471 1.481 . S
C474 C475 1.387 . S
C474 C479 1.390 . S
C475 C474 1.387 . S
C475 C476 1.401 . S
C475 H496 0.930 . S
C476 C475 1.401 . S
C476 C477 1.376 . S
C476 C485 1.511 . S
C477 C476 1.376 . S
C477 C478 1.392 . S
C477 H498 0.931 . S
C478 C477 1.392 . S
C478 C479 1.361 . S
C478 C480 1.500 . S
C479 C474 1.390 . S
C479 C478 1.361 . S
C479 H497 0.931 . S
C480 C478 1.500 . S
C480 C481 1.371 . S
C480 C482 1.365 . S
C481 C480 1.371 . S
C481 C491 1.386 . S
C481 H499 0.931 . S
C482 C480 1.365 . S
C482 C483 1.409 . S
C482 H500 0.929 . S
C483 C482 1.409 . S
C483 C484 1.380 . S
C483 H501 0.930 . S
C484 C483 1.380 . S
C484 C491 1.357 . S
C485 C476 1.511 . S
C485 C486 1.341 . S
C485 C487 1.371 . S
C486 C485 1.341 . S
C486 C490 1.394 . S
C486 H502 0.930 . S
C487 C485 1.371 . S
C487 C488 1.392 . S
C487 H503 0.931 . S
C488 C487 1.392 . S
C488 C489 1.331 . S
C488 H506 0.932 . S
C489 C488 1.331 . S
C489 C490 1.336 . S
C490 C486 1.394 . S
C490 C489 1.336 . S
C490 H505 0.929 . S
C491 C481 1.386 . S
C491 C484 1.357 . S
C491 H504 0.928 . S
H492 C468 0.931 . S
H493 C470 0.930 . S
H494 C472 0.929 . S
H495 C473 0.931 . S
H496 C475 0.930 . S
H497 C479 0.931 . S
H498 C477 0.931 . S
H499 C481 0.931 . S
H500 C482 0.929 . S
H501 C483 0.930 . S
H502 C486 0.930 . S
H503 C487 0.931 . S
H504 C491 0.928 . S
H505 C490 0.929 . S
H506 C488 0.932 . S
C507 C508 1.386 . S
C507 C509 1.397 . S
C507 H531 0.931 . S
C508 C507 1.386 . S
C508 C512 1.397 . S
C509 C507 1.397 . S
C509 C510 1.384 . S
C509 H532 0.930 . S
C510 C509 1.384 . S
C510 C511 1.377 . S
C510 C513 1.481 . S
C511 C510 1.377 . S
C511 C512 1.389 . S
C511 H533 0.929 . S
C512 C508 1.397 . S
C512 C511 1.389 . S
C512 H534 0.931 . S
C513 C510 1.481 . S
C513 C514 1.387 . S
C513 C518 1.390 . S
C514 C513 1.387 . S
C514 C515 1.401 . S
C514 H535 0.930 . S
C515 C514 1.401 . S
C515 C516 1.376 . S
C515 C524 1.511 . S
C516 C515 1.376 . S
C516 C517 1.392 . S
C516 H537 0.931 . S
C517 C516 1.392 . S
C517 C518 1.361 . S
C517 C519 1.500 . S
C518 C513 1.390 . S
C518 C517 1.361 . S
C518 H536 0.931 . S
C519 C517 1.500 . S
C519 C520 1.371 . S
C519 C521 1.365 . S
C520 C519 1.371 . S
C520 C530 1.386 . S
C520 H538 0.931 . S
C521 C519 1.365 . S
C521 C522 1.409 . S
C521 H539 0.929 . S
C522 C521 1.409 . S
C522 C523 1.380 . S
C522 H540 0.930 . S
C523 C522 1.380 . S
C523 C530 1.357 . S
C524 C515 1.511 . S
C524 C525 1.341 . S
C524 C526 1.371 . S
C525 C524 1.341 . S
C525 C529 1.394 . S
C525 H541 0.930 . S
C526 C524 1.371 . S
C526 C527 1.392 . S
C526 H542 0.931 . S
C527 C526 1.392 . S
C527 C528 1.331 . S
C527 H545 0.932 . S
C528 C527 1.331 . S
C528 C529 1.336 . S
C529 C525 1.394 . S
C529 C528 1.336 . S
C529 H544 0.929 . S
C530 C520 1.386 . S
C530 C523 1.357 . S
C530 H543 0.928 . S
H531 C507 0.931 . S
H532 C509 0.930 . S
H533 C511 0.929 . S
H534 C512 0.931 . S
H535 C514 0.930 . S
H536 C518 0.931 . S
H537 C516 0.931 . S
H538 C520 0.931 . S
H539 C521 0.929 . S
H540 C522 0.930 . S
H541 C525 0.930 . S
H542 C526 0.931 . S
H543 C530 0.928 . S
H544 C529 0.929 . S
H545 C527 0.932 . S
C546 C547 1.386 . S
C546 C548 1.397 . S
C546 H570 0.931 . S
C547 C546 1.386 . S
C547 C551 1.397 . S
C548 C546 1.397 . S
C548 C549 1.384 . S
C548 H571 0.930 . S
C549 C548 1.384 . S
C549 C550 1.377 . S
C549 C552 1.481 . S
C550 C549 1.377 . S
C550 C551 1.389 . S
C550 H572 0.929 . S
C551 C547 1.397 . S
C551 C550 1.389 . S
C551 H573 0.931 . S
C552 C549 1.481 . S
C552 C553 1.387 . S
C552 C557 1.390 . S
C553 C552 1.387 . S
C553 C554 1.401 . S
C553 H574 0.930 . S
C554 C553 1.401 . S
C554 C555 1.376 . S
C554 C563 1.511 . S
C555 C554 1.376 . S
C555 C556 1.392 . S
C555 H576 0.931 . S
C556 C555 1.392 . S
C556 C557 1.361 . S
C556 C558 1.500 . S
C557 C552 1.390 . S
C557 C556 1.361 . S
C557 H575 0.931 . S
C558 C556 1.500 . S
C558 C559 1.371 . S
C558 C560 1.365 . S
C559 C558 1.371 . S
C559 C569 1.386 . S
C559 H577 0.931 . S
C560 C558 1.365 . S
C560 C561 1.409 . S
C560 H578 0.929 . S
C561 C560 1.409 . S
C561 C562 1.380 . S
C561 H579 0.930 . S
C562 C561 1.380 . S
C562 C569 1.357 . S
C563 C554 1.511 . S
C563 C564 1.341 . S
C563 C565 1.371 . S
C564 C563 1.341 . S
C564 C568 1.394 . S
C564 H580 0.930 . S
C565 C563 1.371 . S
C565 C566 1.392 . S
C565 H581 0.931 . S
C566 C565 1.392 . S
C566 C567 1.331 . S
C566 H584 0.932 . S
C567 C566 1.331 . S
C567 C568 1.336 . S
C568 C564 1.394 . S
C568 C567 1.336 . S
C568 H583 0.929 . S
C569 C559 1.386 . S
C569 C562 1.357 . S
C569 H582 0.928 . S
H570 C546 0.931 . S
H571 C548 0.930 . S
H572 C550 0.929 . S
H573 C551 0.931 . S
H574 C553 0.930 . S
H575 C557 0.931 . S
H576 C555 0.931 . S
H577 C559 0.931 . S
H578 C560 0.929 . S
H579 C561 0.930 . S
H580 C564 0.930 . S
H581 C565 0.931 . S
H582 C569 0.928 . S
H583 C568 0.929 . S
H584 C566 0.932 . S
C585 C586 1.386 . S
C585 C587 1.397 . S
C585 H609 0.931 . S
C586 C585 1.386 . S
C586 C590 1.397 . S
C587 C585 1.397 . S
C587 C588 1.384 . S
C587 H610 0.930 . S
C588 C587 1.384 . S
C588 C589 1.377 . S
C588 C591 1.481 . S
C589 C588 1.377 . S
C589 C590 1.389 . S
C589 H611 0.929 . S
C590 C586 1.397 . S
C590 C589 1.389 . S
C590 H612 0.931 . S
C591 C588 1.481 . S
C591 C592 1.387 . S
C591 C596 1.390 . S
C592 C591 1.387 . S
C592 C593 1.401 . S
C592 H613 0.930 . S
C593 C592 1.401 . S
C593 C594 1.376 . S
C593 C602 1.511 . S
C594 C593 1.376 . S
C594 C595 1.392 . S
C594 H615 0.931 . S
C595 C594 1.392 . S
C595 C596 1.361 . S
C595 C597 1.500 . S
C596 C591 1.390 . S
C596 C595 1.361 . S
C596 H614 0.931 . S
C597 C595 1.500 . S
C597 C598 1.371 . S
C597 C599 1.365 . S
C598 C597 1.371 . S
C598 C608 1.386 . S
C598 H616 0.931 . S
C599 C597 1.365 . S
C599 C600 1.409 . S
C599 H617 0.929 . S
C600 C599 1.409 . S
C600 C601 1.380 . S
C600 H618 0.930 . S
C601 C600 1.380 . S
C601 C608 1.357 . S
C602 C593 1.511 . S
C602 C603 1.341 . S
C602 C604 1.371 . S
C603 C602 1.341 . S
C603 C607 1.394 . S
C603 H619 0.930 . S
C604 C602 1.371 . S
C604 C605 1.392 . S
C604 H620 0.931 . S
C605 C604 1.392 . S
C605 C606 1.331 . S
C605 H623 0.932 . S
C606 C605 1.331 . S
C606 C607 1.336 . S
C607 C603 1.394 . S
C607 C606 1.336 . S
C607 H622 0.929 . S
C608 C598 1.386 . S
C608 C601 1.357 . S
C608 H621 0.928 . S
H609 C585 0.931 . S
H610 C587 0.930 . S
H611 C589 0.929 . S
H612 C590 0.931 . S
H613 C592 0.930 . S
H614 C596 0.931 . S
H615 C594 0.931 . S
H616 C598 0.931 . S
H617 C599 0.929 . S
H618 C600 0.930 . S
H619 C603 0.930 . S
H620 C604 0.931 . S
H621 C608 0.928 . S
H622 C607 0.929 . S
H623 C605 0.932 . S
C624 C625 1.386 . S
C624 C626 1.397 . S
C624 H648 0.931 . S
C625 C624 1.386 . S
C625 C629 1.397 . S
C626 C624 1.397 . S
C626 C627 1.384 . S
C626 H649 0.930 . S
C627 C626 1.384 . S
C627 C628 1.377 . S
C627 C630 1.481 . S
C628 C627 1.377 . S
C628 C629 1.389 . S
C628 H650 0.929 . S
C629 C625 1.397 . S
C629 C628 1.389 . S
C629 H651 0.931 . S
C630 C627 1.481 . S
C630 C631 1.387 . S
C630 C635 1.390 . S
C631 C630 1.387 . S
C631 C632 1.401 . S
C631 H652 0.930 . S
C632 C631 1.401 . S
C632 C633 1.376 . S
C632 C641 1.511 . S
C633 C632 1.376 . S
C633 C634 1.392 . S
C633 H654 0.931 . S
C634 C633 1.392 . S
C634 C635 1.361 . S
C634 C636 1.500 . S
C635 C630 1.390 . S
C635 C634 1.361 . S
C635 H653 0.931 . S
C636 C634 1.500 . S
C636 C637 1.371 . S
C636 C638 1.365 . S
C637 C636 1.371 . S
C637 C647 1.386 . S
C637 H655 0.931 . S
C638 C636 1.365 . S
C638 C639 1.409 . S
C638 H656 0.929 . S
C639 C638 1.409 . S
C639 C640 1.380 . S
C639 H657 0.930 . S
C640 C639 1.380 . S
C640 C647 1.357 . S
C641 C632 1.511 . S
C641 C642 1.341 . S
C641 C643 1.371 . S
C642 C641 1.341 . S
C642 C646 1.394 . S
C642 H658 0.930 . S
C643 C641 1.371 . S
C643 C644 1.392 . S
C643 H659 0.931 . S
C644 C643 1.392 . S
C644 C645 1.331 . S
C644 H662 0.932 . S
C645 C644 1.331 . S
C645 C646 1.336 . S
C646 C642 1.394 . S
C646 C645 1.336 . S
C646 H661 0.929 . S
C647 C637 1.386 . S
C647 C640 1.357 . S
C647 H660 0.928 . S
H648 C624 0.931 . S
H649 C626 0.930 . S
H650 C628 0.929 . S
H651 C629 0.931 . S
H652 C631 0.930 . S
H653 C635 0.931 . S
H654 C633 0.931 . S
H655 C637 0.931 . S
H656 C638 0.929 . S
H657 C639 0.930 . S
H658 C642 0.930 . S
H659 C643 0.931 . S
H660 C647 0.928 . S
H661 C646 0.929 . S
H662 C644 0.932 . S
C663 C664 1.386 . S
C663 C665 1.397 . S
C663 H687 0.931 . S
C664 C663 1.386 . S
C664 C668 1.397 . S
C665 C663 1.397 . S
C665 C666 1.384 . S
C665 H688 0.930 . S
C666 C665 1.384 . S
C666 C667 1.377 . S
C666 C669 1.481 . S
C667 C666 1.377 . S
C667 C668 1.389 . S
C667 H689 0.929 . S
C668 C664 1.397 . S
C668 C667 1.389 . S
C668 H690 0.931 . S
C669 C666 1.481 . S
C669 C670 1.387 . S
C669 C674 1.390 . S
C670 C669 1.387 . S
C670 C671 1.401 . S
C670 H691 0.930 . S
C671 C670 1.401 . S
C671 C672 1.376 . S
C671 C680 1.511 . S
C672 C671 1.376 . S
C672 C673 1.392 . S
C672 H693 0.931 . S
C673 C672 1.392 . S
C673 C674 1.361 . S
C673 C675 1.500 . S
C674 C669 1.390 . S
C674 C673 1.361 . S
C674 H692 0.931 . S
C675 C673 1.500 . S
C675 C676 1.371 . S
C675 C677 1.365 . S
C676 C675 1.371 . S
C676 C686 1.386 . S
C676 H694 0.931 . S
C677 C675 1.365 . S
C677 C678 1.409 . S
C677 H695 0.929 . S
C678 C677 1.409 . S
C678 C679 1.380 . S
C678 H696 0.930 . S
C679 C678 1.380 . S
C679 C686 1.357 . S
C680 C671 1.511 . S
C680 C681 1.341 . S
C680 C682 1.371 . S
C681 C680 1.341 . S
C681 C685 1.394 . S
C681 H697 0.930 . S
C682 C680 1.371 . S
C682 C683 1.392 . S
C682 H698 0.931 . S
C683 C682 1.392 . S
C683 C684 1.331 . S
C683 H701 0.932 . S
C684 C683 1.331 . S
C684 C685 1.336 . S
C685 C681 1.394 . S
C685 C684 1.336 . S
C685 H700 0.929 . S
C686 C676 1.386 . S
C686 C679 1.357 . S
C686 H699 0.928 . S
H687 C663 0.931 . S
H688 C665 0.930 . S
H689 C667 0.929 . S
H690 C668 0.931 . S
H691 C670 0.930 . S
H692 C674 0.931 . S
H693 C672 0.931 . S
H694 C676 0.931 . S
H695 C677 0.929 . S
H696 C678 0.930 . S
H697 C681 0.930 . S
H698 C682 0.931 . S
H699 C686 0.928 . S
H700 C685 0.929 . S
H701 C683 0.932 . S
C702 C703 1.386 . S
C702 C704 1.397 . S
C702 H726 0.931 . S
C703 C702 1.386 . S
C703 C707 1.397 . S
C704 C702 1.397 . S
C704 C705 1.384 . S
C704 H727 0.930 . S
C705 C704 1.384 . S
C705 C706 1.377 . S
C705 C708 1.481 . S
C706 C705 1.377 . S
C706 C707 1.389 . S
C706 H728 0.929 . S
C707 C703 1.397 . S
C707 C706 1.389 . S
C707 H729 0.931 . S
C708 C705 1.481 . S
C708 C709 1.387 . S
C708 C713 1.390 . S
C709 C708 1.387 . S
C709 C710 1.401 . S
C709 H730 0.930 . S
C710 C709 1.401 . S
C710 C711 1.376 . S
C710 C719 1.511 . S
C711 C710 1.376 . S
C711 C712 1.392 . S
C711 H732 0.931 . S
C712 C711 1.392 . S
C712 C713 1.361 . S
C712 C714 1.500 . S
C713 C708 1.390 . S
C713 C712 1.361 . S
C713 H731 0.931 . S
C714 C712 1.500 . S
C714 C715 1.371 . S
C714 C716 1.365 . S
C715 C714 1.371 . S
C715 C725 1.386 . S
C715 H733 0.931 . S
C716 C714 1.365 . S
C716 C717 1.409 . S
C716 H734 0.929 . S
C717 C716 1.409 . S
C717 C718 1.380 . S
C717 H735 0.930 . S
C718 C717 1.380 . S
C718 C725 1.357 . S
C719 C710 1.511 . S
C719 C720 1.341 . S
C719 C721 1.371 . S
C720 C719 1.341 . S
C720 C724 1.394 . S
C720 H736 0.930 . S
C721 C719 1.371 . S
C721 C722 1.392 . S
C721 H737 0.931 . S
C722 C721 1.392 . S
C722 C723 1.331 . S
C722 H740 0.932 . S
C723 C722 1.331 . S
C723 C724 1.336 . S
C724 C720 1.394 . S
C724 C723 1.336 . S
C724 H739 0.929 . S
C725 C715 1.386 . S
C725 C718 1.357 . S
C725 H738 0.928 . S
H726 C702 0.931 . S
H727 C704 0.930 . S
H728 C706 0.929 . S
H729 C707 0.931 . S
H730 C709 0.930 . S
H731 C713 0.931 . S
H732 C711 0.931 . S
H733 C715 0.931 . S
H734 C716 0.929 . S
H735 C717 0.930 . S
H736 C720 0.930 . S
H737 C721 0.931 . S
H738 C725 0.928 . S
H739 C724 0.929 . S
H740 C722 0.932 . S
C741 C742 1.386 . S
C741 C743 1.397 . S
C741 H765 0.931 . S
C742 C741 1.386 . S
C742 C746 1.397 . S
C743 C741 1.397 . S
C743 C744 1.384 . S
C743 H766 0.930 . S
C744 C743 1.384 . S
C744 C745 1.377 . S
C744 C747 1.481 . S
C745 C744 1.377 . S
C745 C746 1.389 . S
C745 H767 0.929 . S
C746 C742 1.397 . S
C746 C745 1.389 . S
C746 H768 0.931 . S
C747 C744 1.481 . S
C747 C748 1.387 . S
C747 C752 1.390 . S
C748 C747 1.387 . S
C748 C749 1.401 . S
C748 H769 0.930 . S
C749 C748 1.401 . S
C749 C750 1.376 . S
C749 C758 1.511 . S
C750 C749 1.376 . S
C750 C751 1.392 . S
C750 H771 0.931 . S
C751 C750 1.392 . S
C751 C752 1.361 . S
C751 C753 1.500 . S
C752 C747 1.390 . S
C752 C751 1.361 . S
C752 H770 0.931 . S
C753 C751 1.500 . S
C753 C754 1.371 . S
C753 C755 1.365 . S
C754 C753 1.371 . S
C754 C764 1.386 . S
C754 H772 0.931 . S
C755 C753 1.365 . S
C755 C756 1.409 . S
C755 H773 0.929 . S
C756 C755 1.409 . S
C756 C757 1.380 . S
C756 H774 0.930 . S
C757 C756 1.380 . S
C757 C764 1.357 . S
C758 C749 1.511 . S
C758 C759 1.341 . S
C758 C760 1.371 . S
C759 C758 1.341 . S
C759 C763 1.394 . S
C759 H775 0.930 . S
C760 C758 1.371 . S
C760 C761 1.392 . S
C760 H776 0.931 . S
C761 C760 1.392 . S
C761 C762 1.331 . S
C761 H779 0.932 . S
C762 C761 1.331 . S
C762 C763 1.336 . S
C763 C759 1.394 . S
C763 C762 1.336 . S
C763 H778 0.929 . S
C764 C754 1.386 . S
C764 C757 1.357 . S
C764 H777 0.928 . S
H765 C741 0.931 . S
H766 C743 0.930 . S
H767 C745 0.929 . S
H768 C746 0.931 . S
H769 C748 0.930 . S
H770 C752 0.931 . S
H771 C750 0.931 . S
H772 C754 0.931 . S
H773 C755 0.929 . S
H774 C756 0.930 . S
H775 C759 0.930 . S
H776 C760 0.931 . S
H777 C764 0.928 . S
H778 C763 0.929 . S
H779 C761 0.932 . S
C780 C781 1.386 . S
C780 C782 1.397 . S
C780 H804 0.931 . S
C781 C780 1.386 . S
C781 C785 1.397 . S
C782 C780 1.397 . S
C782 C783 1.384 . S
C782 H805 0.930 . S
C783 C782 1.384 . S
C783 C784 1.377 . S
C783 C786 1.481 . S
C784 C783 1.377 . S
C784 C785 1.389 . S
C784 H806 0.929 . S
C785 C781 1.397 . S
C785 C784 1.389 . S
C785 H807 0.931 . S
C786 C783 1.481 . S
C786 C787 1.387 . S
C786 C791 1.390 . S
C787 C786 1.387 . S
C787 C788 1.401 . S
C787 H808 0.930 . S
C788 C787 1.401 . S
C788 C789 1.376 . S
C788 C797 1.511 . S
C789 C788 1.376 . S
C789 C790 1.392 . S
C789 H810 0.931 . S
C790 C789 1.392 . S
C790 C791 1.361 . S
C790 C792 1.500 . S
C791 C786 1.390 . S
C791 C790 1.361 . S
C791 H809 0.931 . S
C792 C790 1.500 . S
C792 C793 1.371 . S
C792 C794 1.365 . S
C793 C792 1.371 . S
C793 C803 1.386 . S
C793 H811 0.931 . S
C794 C792 1.365 . S
C794 C795 1.409 . S
C794 H812 0.929 . S
C795 C794 1.409 . S
C795 C796 1.380 . S
C795 H813 0.930 . S
C796 C795 1.380 . S
C796 C803 1.357 . S
C797 C788 1.511 . S
C797 C798 1.341 . S
C797 C799 1.371 . S
C798 C797 1.341 . S
C798 C802 1.394 . S
C798 H814 0.930 . S
C799 C797 1.371 . S
C799 C800 1.392 . S
C799 H815 0.931 . S
C800 C799 1.392 . S
C800 C801 1.331 . S
C800 H818 0.932 . S
C801 C800 1.331 . S
C801 C802 1.336 . S
C802 C798 1.394 . S
C802 C801 1.336 . S
C802 H817 0.929 . S
C803 C793 1.386 . S
C803 C796 1.357 . S
C803 H816 0.928 . S
H804 C780 0.931 . S
H805 C782 0.930 . S
H806 C784 0.929 . S
H807 C785 0.931 . S
H808 C787 0.930 . S
H809 C791 0.931 . S
H810 C789 0.931 . S
H811 C793 0.931 . S
H812 C794 0.929 . S
H813 C795 0.930 . S
H814 C798 0.930 . S
H815 C799 0.931 . S
H816 C803 0.928 . S
H817 C802 0.929 . S
H818 C800 0.932 . S
C819 C820 1.386 . S
C819 C821 1.397 . S
C819 H843 0.931 . S
C820 C819 1.386 . S
C820 C824 1.397 . S
C821 C819 1.397 . S
C821 C822 1.384 . S
C821 H844 0.930 . S
C822 C821 1.384 . S
C822 C823 1.377 . S
C822 C825 1.481 . S
C823 C822 1.377 . S
C823 C824 1.389 . S
C823 H845 0.929 . S
C824 C820 1.397 . S
C824 C823 1.389 . S
C824 H846 0.931 . S
C825 C822 1.481 . S
C825 C826 1.387 . S
C825 C830 1.390 . S
C826 C825 1.387 . S
C826 C827 1.401 . S
C826 H847 0.930 . S
C827 C826 1.401 . S
C827 C828 1.376 . S
C827 C836 1.511 . S
C828 C827 1.376 . S
C828 C829 1.392 . S
C828 H849 0.931 . S
C829 C828 1.392 . S
C829 C830 1.361 . S
C829 C831 1.500 . S
C830 C825 1.390 . S
C830 C829 1.361 . S
C830 H848 0.931 . S
C831 C829 1.500 . S
C831 C832 1.371 . S
C831 C833 1.365 . S
C832 C831 1.371 . S
C832 C842 1.386 . S
C832 H850 0.931 . S
C833 C831 1.365 . S
C833 C834 1.409 . S
C833 H851 0.929 . S
C834 C833 1.409 . S
C834 C835 1.380 . S
C834 H852 0.930 . S
C835 C834 1.380 . S
C835 C842 1.357 . S
C836 C827 1.511 . S
C836 C837 1.341 . S
C836 C838 1.371 . S
C837 C836 1.341 . S
C837 C841 1.394 . S
C837 H853 0.930 . S
C838 C836 1.371 . S
C838 C839 1.392 . S
C838 H854 0.931 . S
C839 C838 1.392 . S
C839 C840 1.331 . S
C839 H857 0.932 . S
C840 C839 1.331 . S
C840 C841 1.336 . S
C841 C837 1.394 . S
C841 C840 1.336 . S
C841 H856 0.929 . S
C842 C832 1.386 . S
C842 C835 1.357 . S
C842 H855 0.928 . S
H843 C819 0.931 . S
H844 C821 0.930 . S
H845 C823 0.929 . S
H846 C824 0.931 . S
H847 C826 0.930 . S
H848 C830 0.931 . S
H849 C828 0.931 . S
H850 C832 0.931 . S
H851 C833 0.929 . S
H852 C834 0.930 . S
H853 C837 0.930 . S
H854 C838 0.931 . S
H855 C842 0.928 . S
H856 C841 0.929 . S
H857 C839 0.932 . S
C858 C859 1.386 . S
C858 C860 1.397 . S
C858 H882 0.931 . S
C859 C858 1.386 . S
C859 C863 1.397 . S
C860 C858 1.397 . S
C860 C861 1.384 . S
C860 H883 0.930 . S
C861 C860 1.384 . S
C861 C862 1.377 . S
C861 C864 1.481 . S
C862 C861 1.377 . S
C862 C863 1.389 . S
C862 H884 0.929 . S
C863 C859 1.397 . S
C863 C862 1.389 . S
C863 H885 0.931 . S
C864 C861 1.481 . S
C864 C865 1.387 . S
C864 C869 1.390 . S
C865 C864 1.387 . S
C865 C866 1.401 . S
C865 H886 0.930 . S
C866 C865 1.401 . S
C866 C867 1.376 . S
C866 C875 1.511 . S
C867 C866 1.376 . S
C867 C868 1.392 . S
C867 H888 0.931 . S
C868 C867 1.392 . S
C868 C869 1.361 . S
C868 C870 1.500 . S
C869 C864 1.390 . S
C869 C868 1.361 . S
C869 H887 0.931 . S
C870 C868 1.500 . S
C870 C871 1.371 . S
C870 C872 1.365 . S
C871 C870 1.371 . S
C871 C881 1.386 . S
C871 H889 0.931 . S
C872 C870 1.365 . S
C872 C873 1.409 . S
C872 H890 0.929 . S
C873 C872 1.409 . S
C873 C874 1.380 . S
C873 H891 0.930 . S
C874 C873 1.380 . S
C874 C881 1.357 . S
C875 C866 1.511 . S
C875 C876 1.341 . S
C875 C877 1.371 . S
C876 C875 1.341 . S
C876 C880 1.394 . S
C876 H892 0.930 . S
C877 C875 1.371 . S
C877 C878 1.392 . S
C877 H893 0.931 . S
C878 C877 1.392 . S
C878 C879 1.331 . S
C878 H896 0.932 . S
C879 C878 1.331 . S
C879 C880 1.336 . S
C880 C876 1.394 . S
C880 C879 1.336 . S
C880 H895 0.929 . S
C881 C871 1.386 . S
C881 C874 1.357 . S
C881 H894 0.928 . S
H882 C858 0.931 . S
H883 C860 0.930 . S
H884 C862 0.929 . S
H885 C863 0.931 . S
H886 C865 0.930 . S
H887 C869 0.931 . S
H888 C867 0.931 . S
H889 C871 0.931 . S
H890 C872 0.929 . S
H891 C873 0.930 . S
H892 C876 0.930 . S
H893 C877 0.931 . S
H894 C881 0.928 . S
H895 C880 0.929 . S
H896 C878 0.932 . S
C897 C898 1.386 . S
C897 C899 1.397 . S
C897 H921 0.931 . S
C898 C897 1.386 . S
C898 C902 1.397 . S
C899 C897 1.397 . S
C899 C900 1.384 . S
C899 H922 0.930 . S
C900 C899 1.384 . S
C900 C901 1.377 . S
C900 C903 1.481 . S
C901 C900 1.377 . S
C901 C902 1.389 . S
C901 H923 0.929 . S
C902 C898 1.397 . S
C902 C901 1.389 . S
C902 H924 0.931 . S
C903 C900 1.481 . S
C903 C904 1.387 . S
C903 C908 1.390 . S
C904 C903 1.387 . S
C904 C905 1.401 . S
C904 H925 0.930 . S
C905 C904 1.401 . S
C905 C906 1.376 . S
C905 C914 1.511 . S
C906 C905 1.376 . S
C906 C907 1.392 . S
C906 H927 0.931 . S
C907 C906 1.392 . S
C907 C908 1.361 . S
C907 C909 1.500 . S
C908 C903 1.390 . S
C908 C907 1.361 . S
C908 H926 0.931 . S
C909 C907 1.500 . S
C909 C910 1.371 . S
C909 C911 1.365 . S
C910 C909 1.371 . S
C910 C920 1.386 . S
C910 H928 0.931 . S
C911 C909 1.365 . S
C911 C912 1.409 . S
C911 H929 0.929 . S
C912 C911 1.409 . S
C912 C913 1.380 . S
C912 H930 0.930 . S
C913 C912 1.380 . S
C913 C920 1.357 . S
C914 C905 1.511 . S
C914 C915 1.341 . S
C914 C916 1.371 . S
C915 C914 1.341 . S
C915 C919 1.394 . S
C915 H931 0.930 . S
C916 C914 1.371 . S
C916 C917 1.392 . S
C916 H932 0.931 . S
C917 C916 1.392 . S
C917 C918 1.331 . S
C917 H935 0.932 . S
C918 C917 1.331 . S
C918 C919 1.336 . S
C919 C915 1.394 . S
C919 C918 1.336 . S
C919 H934 0.929 . S
C920 C910 1.386 . S
C920 C913 1.357 . S
C920 H933 0.928 . S
H921 C897 0.931 . S
H922 C899 0.930 . S
H923 C901 0.929 . S
H924 C902 0.931 . S
H925 C904 0.930 . S
H926 C908 0.931 . S
H927 C906 0.931 . S
H928 C910 0.931 . S
H929 C911 0.929 . S
H930 C912 0.930 . S
H931 C915 0.930 . S
H932 C916 0.931 . S
H933 C920 0.928 . S
H934 C919 0.929 . S
H935 C917 0.932 . S
Zn936 O938 1.933 1_665 S
Zn936 O956 1.985 1_565 S
Zn936 O967 1.953 1_655 S
Zn937 O938 1.911 1_655 S
Zn937 O957 1.970 . S
Zn937 O973 1.945 1_655 S
Zn937 O980 1.981 . S
O938 Zn936 1.933 1_445 S
O938 Zn937 1.911 1_455 S
O938 H939 0.841 . S
H939 O938 0.841 . S
C940 O941 1.246 . S
C940 O969 1.276 . S
O941 C940 1.246 . S
Zn942 O944 1.911 . S
Zn942 O959 1.970 . S
Zn942 O976 1.945 . S
Zn942 O983 1.981 . S
Zn943 O944 1.933 1_565 S
Zn943 O958 1.994 . S
Zn943 O965 1.955 . S
O944 Zn942 1.911 . S
O944 Zn943 1.933 1_545 S
O944 H945 0.841 . S
H945 O944 0.841 . S
Zn946 O947 1.933 1_565 S
Zn946 O960 1.985 1_565 S
Zn946 O969 1.955 . S
O947 Zn946 1.933 1_545 S
O947 Zn948 1.911 . S
O947 H949 0.841 . S
Zn948 O947 1.911 . S
Zn948 O961 1.970 . S
Zn948 O977 1.981 1_655 S
Zn948 O979 1.945 . S
H949 O947 0.841 . S
Zn950 O951 1.933 1_565 S
Zn950 O963 1.985 . S
Zn950 O971 1.955 . S
O951 Zn950 1.933 1_545 S
O951 H952 0.841 . S
O951 Zn953 1.911 . S
H952 O951 0.841 . S
Zn953 O951 1.911 . S
Zn953 O964 1.970 . S
Zn953 O974 1.981 . S
Zn953 O982 1.945 . S
C954 O955 1.246 . S
C954 O971 1.276 . S
O955 C954 1.246 . S
O956 Zn936 1.985 1_545 S
O956 C966 1.245 . S
O957 Zn937 1.970 . S
O957 C966 1.263 . S
O958 Zn943 1.994 . S
O958 C970 1.203 1_565 S
O959 Zn942 1.970 . S
O959 C970 1.263 . S
O960 Zn946 1.985 1_545 S
O960 C975 1.245 . S
O961 Zn948 1.970 . S
O961 C975 1.263 . S
C962 O973 1.262 . S
C962 O974 1.245 . S
O963 Zn950 1.985 . S
O963 C981 1.245 1_565 S
O964 Zn953 1.970 . S
O964 C981 1.263 . S
O965 Zn943 1.955 . S
O965 C984 1.276 . S
C966 O956 1.245 . S
C966 O957 1.263 . S
O967 Zn936 1.953 1_455 S
O967 C986 1.283 . S
C968 O976 1.262 . S
C968 O977 1.245 . S
O969 C940 1.276 . S
O969 Zn946 1.955 . S
C970 O958 1.203 1_545 S
C970 O959 1.263 . S
O971 Zn950 1.955 . S
O971 C954 1.276 . S
C972 O979 1.262 . S
C972 O980 1.245 . S
O973 Zn937 1.945 1_455 S
O973 C962 1.262 . S
O974 Zn953 1.981 . S
O974 C962 1.245 . S
C975 O960 1.245 . S
C975 O961 1.263 . S
O976 Zn942 1.945 . S
O976 C968 1.262 . S
O977 Zn948 1.981 1_455 S
O977 C968 1.245 . S
C978 O982 1.262 . S
C978 O983 1.245 . S
O979 Zn948 1.945 . S
O979 C972 1.262 . S
O980 Zn937 1.981 . S
O980 C972 1.245 . S
C981 O963 1.245 1_545 S
C981 O964 1.263 . S
O982 Zn953 1.945 . S
O982 C978 1.262 . S
O983 Zn942 1.981 . S
O983 C978 1.245 . S
C984 O965 1.276 . S
C984 O985 1.246 . S
O985 C984 1.246 . S
C986 O967 1.283 . S
C986 O987 1.246 . S
O987 C986 1.246 . S
Zn988 O990 1.933 . S
Zn988 O1008 1.985 . S
Zn988 O1019 1.955 . S
Zn989 O990 1.911 1_556 S
Zn989 O1009 1.970 . S
Zn989 O1025 1.945 . S
Zn989 O1032 1.981 . S
O990 Zn988 1.933 . S
O990 Zn989 1.911 1_554 S
O990 H991 0.841 . S
H991 O990 0.841 . S
C992 O993 1.246 . S
C992 O1021 1.276 . S
O993 C992 1.246 . S
Zn994 O996 1.911 1_566 S
Zn994 O1011 1.970 . S
Zn994 O1028 1.958 . S
Zn994 O1035 1.981 . S
Zn995 O996 1.933 1_565 S
Zn995 O1010 1.985 . S
Zn995 O1017 1.955 1_565 S
O996 Zn994 1.911 1_544 S
O996 Zn995 1.933 1_545 S
O996 H997 0.841 . S
H997 O996 0.841 . S
Zn998 O999 1.933 . S
Zn998 O1012 1.985 . S
Zn998 O1021 1.955 . S
O999 Zn998 1.933 . S
O999 Zn1000 1.911 1_554 S
O999 H1001 0.841 . S
Zn1000 O999 1.911 1_556 S
Zn1000 O1013 1.970 . S
Zn1000 O1029 1.981 . S
Zn1000 O1031 1.945 . S
H1001 O999 0.841 . S
Zn1002 O1003 1.933 . S
Zn1002 O1015 1.985 . S
Zn1002 O1023 1.955 . S
O1003 Zn1002 1.933 . S
O1003 H1004 0.841 . S
O1003 Zn1005 1.911 1_554 S
H1004 O1003 0.841 . S
Zn1005 O1003 1.911 1_556 S
Zn1005 O1016 1.970 . S
Zn1005 O1026 1.981 1_565 S
Zn1005 O1034 1.945 . S
C1006 O1007 1.246 . S
C1006 O1023 1.276 . S
O1007 C1006 1.246 . S
O1008 Zn988 1.985 . S
O1008 C1018 1.245 . S
O1009 Zn989 1.970 . S
O1009 C1018 1.263 1_556 S
O1010 Zn995 1.985 . S
O1010 C1022 1.245 . S
O1011 Zn994 1.970 . S
O1011 C1022 1.263 1_556 S
O1012 Zn998 1.985 . S
O1012 C1027 1.245 . S
O1013 Zn1000 1.970 . S
O1013 C1027 1.263 1_556 S
C1014 O1025 1.262 . S
C1014 O1026 1.245 . S
O1015 Zn1002 1.985 . S
O1015 C1033 1.245 . S
O1016 Zn1005 1.970 . S
O1016 C1033 1.263 1_556 S
O1017 Zn995 1.955 1_545 S
O1017 C1036 1.276 . S
C1018 O1008 1.245 . S
C1018 O1009 1.263 1_554 S
O1019 Zn988 1.955 . S
O1019 C1038 1.276 . S
C1020 O1028 1.228 1_545 S
C1020 O1029 1.245 . S
O1021 C992 1.276 . S
O1021 Zn998 1.955 . S
C1022 O1010 1.245 . S
C1022 O1011 1.263 1_554 S
O1023 Zn1002 1.955 . S
O1023 C1006 1.276 . S
C1024 O1031 1.262 . S
C1024 O1032 1.245 . S
O1025 Zn989 1.945 . S
O1025 C1014 1.262 . S
O1026 Zn1005 1.981 1_545 S
O1026 C1014 1.245 . S
C1027 O1012 1.245 . S
C1027 O1013 1.263 1_554 S
O1028 Zn994 1.958 . S
O1028 C1020 1.228 1_565 S
O1029 Zn1000 1.981 . S
O1029 C1020 1.245 . S
C1030 O1034 1.262 . S
C1030 O1035 1.245 . S
O1031 Zn1000 1.945 . S
O1031 C1024 1.262 . S
O1032 Zn989 1.981 . S
O1032 C1024 1.245 . S
C1033 O1015 1.245 . S
C1033 O1016 1.263 1_554 S
O1034 Zn1005 1.945 . S
O1034 C1030 1.262 . S
O1035 Zn994 1.981 . S
O1035 C1030 1.245 . S
C1036 O1017 1.276 . S
C1036 O1037 1.246 . S
O1037 C1036 1.246 . S
C1038 O1019 1.276 . S
C1038 O1039 1.246 . S
O1039 C1038 1.246 . S
Zn1040 O1042 1.933 1_655 S
Zn1040 O1060 1.985 . S
Zn1040 O1071 1.955 1_655 S
Zn1041 O1042 1.911 1_655 S
Zn1041 O1061 1.970 . S
Zn1041 O1077 1.945 . S
Zn1041 O1084 1.981 . S
O1042 Zn1040 1.933 1_455 S
O1042 Zn1041 1.911 1_455 S
O1042 H1043 0.841 . S
H1043 O1042 0.841 . S
C1044 O1045 1.246 1_554 S
C1044 O1073 1.276 . S
O1045 C1044 1.246 1_556 S
Zn1046 O1048 1.911 . S
Zn1046 O1063 1.970 . S
Zn1046 O1080 1.945 . S
Zn1046 O1087 1.981 . S
Zn1047 O1048 1.933 . S
Zn1047 O1062 1.985 . S
Zn1047 O1069 1.955 . S
O1048 Zn1046 1.911 . S
O1048 Zn1047 1.933 . S
O1048 H1049 0.841 . S
H1049 O1048 0.841 . S
Zn1050 O1051 1.933 . S
Zn1050 O1064 1.985 . S
Zn1050 O1073 1.955 . S
O1051 Zn1050 1.933 . S
O1051 Zn1052 1.911 . S
O1051 H1053 0.841 . S
Zn1052 O1051 1.911 . S
Zn1052 O1065 1.970 . S
Zn1052 O1081 1.981 1_655 S
Zn1052 O1083 1.945 . S
H1053 O1051 0.841 . S
Zn1054 O1055 1.933 . S
Zn1054 O1067 1.985 . S
Zn1054 O1075 1.955 . S
O1055 Zn1054 1.933 . S
O1055 H1056 0.841 1_556 S
O1055 Zn1057 1.911 . S
H1056 O1055 0.841 1_554 S
Zn1057 O1055 1.911 . S
Zn1057 O1068 1.970 . S
Zn1057 O1078 1.981 . S
Zn1057 O1086 1.945 . S
C1058 O1059 1.246 . S
C1058 O1075 1.276 1_554 S
O1059 C1058 1.246 . S
O1060 Zn1040 1.985 . S
O1060 C1070 1.245 . S
O1061 Zn1041 1.970 . S
O1061 C1070 1.263 . S
O1062 Zn1047 1.985 . S
O1062 C1074 1.245 . S
O1063 Zn1046 1.970 . S
O1063 C1074 1.263 . S
O1064 Zn1050 1.985 . S
O1064 C1079 1.245 . S
O1065 Zn1052 1.970 . S
O1065 C1079 1.263 . S
C1066 O1077 1.262 1_455 S
C1066 O1078 1.245 . S
O1067 Zn1054 1.985 . S
O1067 C1085 1.245 . S
O1068 Zn1057 1.970 . S
O1068 C1085 1.263 . S
O1069 Zn1047 1.955 . S
O1069 C1088 1.276 . S
C1070 O1060 1.245 . S
C1070 O1061 1.263 . S
O1071 Zn1040 1.955 1_455 S
O1071 C1090 1.276 . S
C1072 O1080 1.262 . S
C1072 O1081 1.245 . S
O1073 C1044 1.276 . S
O1073 Zn1050 1.955 . S
C1074 O1062 1.245 . S
C1074 O1063 1.263 . S
O1075 Zn1054 1.955 . S
O1075 C1058 1.276 1_556 S
C1076 O1083 1.262 . S
C1076 O1084 1.245 1_554 S
O1077 Zn1041 1.945 . S
O1077 C1066 1.262 1_655 S
O1078 Zn1057 1.981 . S
O1078 C1066 1.245 . S
C1079 O1064 1.245 . S
C1079 O1065 1.263 . S
O1080 Zn1046 1.945 . S
O1080 C1072 1.262 . S
O1081 Zn1052 1.981 1_455 S
O1081 C1072 1.245 . S
C1082 O1086 1.262 1_554 S
C1082 O1087 1.245 . S
O1083 Zn1052 1.945 . S
O1083 C1076 1.262 . S
O1084 Zn1041 1.981 . S
O1084 C1076 1.245 1_556 S
C1085 O1067 1.245 . S
C1085 O1068 1.263 . S
O1086 Zn1057 1.945 . S
O1086 C1082 1.262 1_556 S
O1087 Zn1046 1.981 . S
O1087 C1082 1.245 . S
C1088 O1069 1.276 . S
C1088 O1089 1.246 . S
O1089 C1088 1.246 . S
C1090 O1071 1.276 . S
C1090 O1091 1.246 . S
O1091 C1090 1.246 . S
Zn1092 O1094 1.933 1_556 S
Zn1092 O1112 1.985 . S
Zn1092 O1123 1.955 . S
Zn1093 O1094 1.911 . S
Zn1093 O1113 1.970 . S
Zn1093 O1129 1.945 . S
Zn1093 O1136 1.981 . S
O1094 Zn1092 1.933 1_554 S
O1094 Zn1093 1.911 . S
O1094 H1095 0.841 . S
H1095 O1094 0.841 . S
C1096 O1097 1.246 . S
C1096 O1125 1.276 . S
O1097 C1096 1.246 . S
Zn1098 O1100 1.911 . S
Zn1098 O1115 1.970 . S
Zn1098 O1132 1.945 . S
Zn1098 O1139 1.981 . S
Zn1099 O1100 1.933 1_556 S
Zn1099 O1114 1.985 . S
Zn1099 O1121 1.955 . S
O1100 Zn1098 1.911 . S
O1100 Zn1099 1.933 1_554 S
O1100 H1101 0.841 . S
H1101 O1100 0.841 . S
Zn1102 O1103 1.933 1_556 S
Zn1102 O1116 1.985 . S
Zn1102 O1125 1.955 . S
O1103 Zn1102 1.933 1_554 S
O1103 Zn1104 1.911 . S
O1103 H1105 0.841 . S
Zn1104 O1103 1.911 . S
Zn1104 O1117 1.970 . S
Zn1104 O1133 1.981 . S
Zn1104 O1135 1.945 . S
H1105 O1103 0.841 . S
Zn1106 O1107 1.933 1_556 S
Zn1106 O1119 1.985 . S
Zn1106 O1127 1.955 . S
O1107 Zn1106 1.933 1_554 S
O1107 H1108 0.841 . S
O1107 Zn1109 1.911 . S
H1108 O1107 0.841 . S
Zn1109 O1107 1.911 . S
Zn1109 O1120 1.970 . S
Zn1109 O1130 1.981 . S
Zn1109 O1138 1.945 . S
C1110 O1111 1.246 . S
C1110 O1127 1.276 . S
O1111 C1110 1.246 . S
O1112 Zn1092 1.985 . S
O1112 C1122 1.245 1_556 S
O1113 Zn1093 1.970 . S
O1113 C1122 1.263 . S
O1114 Zn1099 1.985 . S
O1114 C1126 1.245 1_556 S
O1115 Zn1098 1.970 . S
O1115 C1126 1.263 . S
O1116 Zn1102 1.985 . S
O1116 C1131 1.245 1_556 S
O1117 Zn1104 1.970 . S
O1117 C1131 1.263 . S
C1118 O1129 1.262 . S
C1118 O1130 1.245 . S
O1119 Zn1106 1.985 . S
O1119 C1137 1.245 1_556 S
O1120 Zn1109 1.970 . S
O1120 C1137 1.263 . S
O1121 Zn1099 1.955 . S
O1121 C1140 1.276 . S
C1122 O1112 1.245 1_554 S
C1122 O1113 1.263 . S
O1123 Zn1092 1.955 . S
O1123 C1142 1.276 . S
C1124 O1132 1.262 . S
C1124 O1133 1.245 . S
O1125 C1096 1.276 . S
O1125 Zn1102 1.955 . S
C1126 O1114 1.245 1_554 S
C1126 O1115 1.263 . S
O1127 Zn1106 1.955 . S
O1127 C1110 1.276 . S
C1128 O1135 1.262 . S
C1128 O1136 1.245 . S
O1129 Zn1093 1.945 . S
O1129 C1118 1.262 . S
O1130 Zn1109 1.981 . S
O1130 C1118 1.245 . S
C1131 O1116 1.245 1_554 S
C1131 O1117 1.263 . S
O1132 Zn1098 1.945 . S
O1132 C1124 1.262 . S
O1133 Zn1104 1.981 . S
O1133 C1124 1.245 . S
C1134 O1138 1.262 . S
C1134 O1139 1.245 . S
O1135 Zn1104 1.945 . S
O1135 C1128 1.262 . S
O1136 Zn1093 1.981 . S
O1136 C1128 1.245 . S
C1137 O1119 1.245 1_554 S
C1137 O1120 1.263 . S
O1138 Zn1109 1.945 . S
O1138 C1134 1.262 . S
O1139 Zn1098 1.981 . S
O1139 C1134 1.245 . S
C1140 O1121 1.276 . S
C1140 O1141 1.246 . S
O1141 C1140 1.246 . S
C1142 O1123 1.276 . S
C1142 O1143 1.246 . S
O1143 C1142 1.246 . S
Zn1144 O1146 1.933 1_655 S
Zn1144 O1164 1.985 . S
Zn1144 O1175 1.955 1_655 S
Zn1145 O1146 1.911 1_655 S
Zn1145 O1165 1.970 . S
Zn1145 O1181 1.945 . S
Zn1145 O1188 1.981 . S
O1146 Zn1144 1.933 1_455 S
O1146 Zn1145 1.911 1_455 S
O1146 H1147 0.841 . S
H1147 O1146 0.841 . S
C1148 O1149 1.246 . S
C1148 O1177 1.276 . S
O1149 C1148 1.246 . S
Zn1150 O1152 1.911 . S
Zn1150 O1167 1.970 . S
Zn1150 O1184 1.945 . S
Zn1150 O1191 1.981 . S
Zn1151 O1152 1.933 . S
Zn1151 O1166 1.985 . S
Zn1151 O1173 1.955 . S
O1152 Zn1150 1.911 . S
O1152 Zn1151 1.933 . S
O1152 H1153 0.841 . S
H1153 O1152 0.841 . S
Zn1154 O1155 1.933 . S
Zn1154 O1168 1.985 . S
Zn1154 O1177 1.955 . S
O1155 Zn1154 1.933 . S
O1155 Zn1156 1.911 . S
O1155 H1157 0.841 . S
Zn1156 O1155 1.911 . S
Zn1156 O1169 1.970 . S
Zn1156 O1185 1.981 1_655 S
Zn1156 O1187 1.945 . S
H1157 O1155 0.841 . S
Zn1158 O1159 1.933 . S
Zn1158 O1171 1.985 . S
Zn1158 O1179 1.955 . S
O1159 Zn1158 1.933 . S
O1159 H1160 0.841 . S
O1159 Zn1161 1.911 . S
H1160 O1159 0.841 . S
Zn1161 O1159 1.911 . S
Zn1161 O1172 1.970 . S
Zn1161 O1182 1.981 . S
Zn1161 O1190 1.945 . S
C1162 O1163 1.246 . S
C1162 O1179 1.276 . S
O1163 C1162 1.246 . S
O1164 Zn1144 1.985 . S
O1164 C1174 1.245 . S
O1165 Zn1145 1.970 . S
O1165 C1174 1.263 . S
O1166 Zn1151 1.985 . S
O1166 C1178 1.245 . S
O1167 Zn1150 1.970 . S
O1167 C1178 1.263 . S
O1168 Zn1154 1.985 . S
O1168 C1183 1.245 . S
O1169 Zn1156 1.970 . S
O1169 C1183 1.263 . S
C1170 O1181 1.262 1_455 S
C1170 O1182 1.245 . S
O1171 Zn1158 1.985 . S
O1171 C1189 1.245 . S
O1172 Zn1161 1.970 . S
O1172 C1189 1.263 . S
O1173 Zn1151 1.955 . S
O1173 C1192 1.276 . S
C1174 O1164 1.245 . S
C1174 O1165 1.263 . S
O1175 Zn1144 1.955 1_455 S
O1175 C1194 1.276 . S
C1176 O1184 1.262 . S
C1176 O1185 1.245 . S
O1177 C1148 1.276 . S
O1177 Zn1154 1.955 . S
C1178 O1166 1.245 . S
C1178 O1167 1.263 . S
O1179 Zn1158 1.955 . S
O1179 C1162 1.276 . S
C1180 O1187 1.262 . S
C1180 O1188 1.245 . S
O1181 Zn1145 1.945 . S
O1181 C1170 1.262 1_655 S
O1182 Zn1161 1.981 . S
O1182 C1170 1.245 . S
C1183 O1168 1.245 . S
C1183 O1169 1.263 . S
O1184 Zn1150 1.945 . S
O1184 C1176 1.262 . S
O1185 Zn1156 1.981 1_455 S
O1185 C1176 1.245 . S
C1186 O1190 1.262 . S
C1186 O1191 1.245 . S
O1187 Zn1156 1.945 . S
O1187 C1180 1.262 . S
O1188 Zn1145 1.981 . S
O1188 C1180 1.245 . S
C1189 O1171 1.245 . S
C1189 O1172 1.263 . S
O1190 Zn1161 1.945 . S
O1190 C1186 1.262 . S
O1191 Zn1150 1.981 . S
O1191 C1186 1.245 . S
C1192 O1173 1.276 . S
C1192 O1193 1.246 . S
O1193 C1192 1.246 . S
C1194 O1175 1.276 . S
C1194 O1195 1.246 . S
O1195 C1194 1.246 . S
Zn1196 O1198 1.933 1_565 S
Zn1196 O1216 1.991 . S
Zn1196 O1227 1.955 . S
Zn1197 O1198 1.911 . S
Zn1197 O1217 1.970 . S
Zn1197 O1233 1.945 . S
Zn1197 O1240 1.981 . S
O1198 Zn1196 1.933 1_545 S
O1198 Zn1197 1.911 . S
O1198 H1199 0.841 . S
H1199 O1198 0.841 . S
C1200 O1201 1.246 . S
C1200 O1229 1.276 . S
O1201 C1200 1.246 . S
Zn1202 O1204 1.911 . S
Zn1202 O1219 1.970 . S
Zn1202 O1236 1.945 . S
Zn1202 O1243 1.981 . S
Zn1203 O1204 1.933 1_565 S
Zn1203 O1218 1.985 1_565 S
Zn1203 O1225 1.955 . S
O1204 Zn1202 1.911 . S
O1204 Zn1203 1.933 1_545 S
O1204 H1205 0.841 . S
H1205 O1204 0.841 . S
Zn1206 O1207 1.933 1_565 S
Zn1206 O1220 1.993 . S
Zn1206 O1229 1.955 . S
O1207 Zn1206 1.933 1_545 S
O1207 Zn1208 1.911 . S
O1207 H1209 0.841 . S
Zn1208 O1207 1.911 . S
Zn1208 O1221 1.970 . S
Zn1208 O1237 1.981 . S
Zn1208 O1239 1.945 . S
H1209 O1207 0.841 . S
Zn1210 O1211 1.933 1_565 S
Zn1210 O1223 1.985 1_565 S
Zn1210 O1231 1.955 . S
O1211 Zn1210 1.933 1_545 S
O1211 H1212 0.841 . S
O1211 Zn1213 1.911 . S
H1212 O1211 0.841 . S
Zn1213 O1211 1.911 . S
Zn1213 O1224 1.970 . S
Zn1213 O1234 1.981 . S
Zn1213 O1242 1.945 . S
C1214 O1215 1.246 . S
C1214 O1231 1.276 . S
O1215 C1214 1.246 . S
O1216 Zn1196 1.991 . S
O1216 C1226 1.214 1_565 S
O1217 Zn1197 1.970 . S
O1217 C1226 1.263 . S
O1218 Zn1203 1.985 1_545 S
O1218 C1230 1.245 . S
O1219 Zn1202 1.970 . S
O1219 C1230 1.263 . S
O1220 Zn1206 1.993 . S
O1220 C1235 1.211 1_565 S
O1221 Zn1208 1.970 . S
O1221 C1235 1.263 . S
C1222 O1233 1.262 . S
C1222 O1234 1.245 . S
O1223 Zn1210 1.985 1_545 S
O1223 C1241 1.245 . S
O1224 Zn1213 1.970 . S
O1224 C1241 1.263 . S
O1225 Zn1203 1.955 . S
O1225 C1244 1.276 . S
C1226 O1216 1.214 1_545 S
C1226 O1217 1.263 . S
O1227 Zn1196 1.955 . S
O1227 C1246 1.276 . S
C1228 O1236 1.262 . S
C1228 O1237 1.245 . S
O1229 C1200 1.276 . S
O1229 Zn1206 1.955 . S
C1230 O1218 1.245 . S
C1230 O1219 1.263 . S
O1231 Zn1210 1.955 . S
O1231 C1214 1.276 . S
C1232 O1239 1.262 . S
C1232 O1240 1.245 . S
O1233 Zn1197 1.945 . S
O1233 C1222 1.262 . S
O1234 Zn1213 1.981 . S
O1234 C1222 1.245 . S
C1235 O1220 1.211 1_545 S
C1235 O1221 1.263 . S
O1236 Zn1202 1.945 . S
O1236 C1228 1.262 . S
O1237 Zn1208 1.981 . S
O1237 C1228 1.245 . S
C1238 O1242 1.262 . S
C1238 O1243 1.245 . S
O1239 Zn1208 1.945 . S
O1239 C1232 1.262 . S
O1240 Zn1197 1.981 . S
O1240 C1232 1.245 . S
C1241 O1223 1.245 . S
C1241 O1224 1.263 . S
O1242 Zn1213 1.945 . S
O1242 C1238 1.262 . S
O1243 Zn1202 1.981 . S
O1243 C1238 1.245 . S
C1244 O1225 1.276 . S
C1244 O1245 1.246 . S
O1245 C1244 1.246 . S
C1246 O1227 1.276 . S
C1246 O1247 1.246 . S
O1247 C1246 1.246 . S
H1248 C1254 0.930 . S
H1249 C1258 0.930 . S
H1250 C1263 0.929 . S
H1251 C1261 0.929 . S
H1252 C1256 0.929 . S
H1253 C1262 0.929 . S
C1254 H1248 0.930 . S
C1254 C1255 1.367 . S
C1254 C1262 1.378 . S
C1255 C1254 1.367 . S
C1255 C1263 1.433 . S
C1256 H1252 0.929 . S
C1256 C1258 1.378 . S
C1256 C1260 1.350 . S
C1257 C1260 1.463 . S
C1257 C1262 1.350 . S
C1257 N1265 1.427 . S
C1258 H1249 0.930 . S
C1258 C1256 1.378 . S
C1258 C1259 1.367 . S
C1259 C1258 1.367 . S
C1259 C1261 1.433 . S
C1260 C1256 1.350 . S
C1260 C1257 1.463 . S
C1260 N1264 1.427 . S
C1261 H1251 0.929 . S
C1261 C1259 1.433 . S
C1261 N1264 1.384 . S
C1262 H1253 0.929 . S
C1262 C1254 1.378 . S
C1262 C1257 1.350 . S
C1263 H1250 0.929 . S
C1263 C1255 1.433 . S
C1263 N1265 1.384 . S
N1264 C1260 1.427 . S
N1264 C1261 1.384 . S
N1265 C1257 1.427 . S
N1265 C1263 1.384 . S
H1266 C1272 0.930 . S
H1267 C1276 0.930 . S
H1268 C1281 0.929 . S
H1269 C1279 0.929 . S
H1270 C1274 0.929 . S
H1271 C1280 0.929 . S
C1272 H1266 0.930 . S
C1272 C1273 1.367 . S
C1272 C1280 1.378 . S
C1273 C1272 1.367 . S
C1273 C1281 1.433 . S
C1274 H1270 0.929 . S
C1274 C1276 1.378 . S
C1274 C1278 1.350 . S
C1275 C1278 1.463 . S
C1275 C1280 1.350 . S
C1275 N1283 1.427 . S
C1276 H1267 0.930 . S
C1276 C1274 1.378 . S
C1276 C1277 1.367 . S
C1277 C1276 1.367 . S
C1277 C1279 1.433 . S
C1278 C1274 1.350 . S
C1278 C1275 1.463 . S
C1278 N1282 1.427 . S
C1279 H1269 0.929 . S
C1279 C1277 1.433 . S
C1279 N1282 1.384 . S
C1280 H1271 0.929 . S
C1280 C1272 1.378 . S
C1280 C1275 1.350 . S
C1281 H1268 0.929 . S
C1281 C1273 1.433 . S
C1281 N1283 1.384 . S
N1282 C1278 1.427 . S
N1282 C1279 1.384 . S
N1283 C1275 1.427 . S
N1283 C1281 1.384 . S
H1284 C1290 0.930 . S
H1285 C1294 0.930 . S
H1286 C1299 0.929 . S
H1287 C1297 0.929 . S
H1288 C1292 0.929 . S
H1289 C1298 0.929 . S
C1290 H1284 0.930 . S
C1290 C1291 1.367 . S
C1290 C1298 1.378 . S
C1291 C1290 1.367 . S
C1291 C1299 1.433 . S
C1292 H1288 0.929 . S
C1292 C1294 1.378 . S
C1292 C1296 1.350 . S
C1293 C1296 1.463 . S
C1293 C1298 1.350 . S
C1293 N1301 1.427 . S
C1294 H1285 0.930 . S
C1294 C1292 1.378 . S
C1294 C1295 1.367 . S
C1295 C1294 1.367 . S
C1295 C1297 1.433 . S
C1296 C1292 1.350 . S
C1296 C1293 1.463 . S
C1296 N1300 1.427 . S
C1297 H1287 0.929 . S
C1297 C1295 1.433 . S
C1297 N1300 1.384 . S
C1298 H1289 0.929 . S
C1298 C1290 1.378 . S
C1298 C1293 1.350 . S
C1299 H1286 0.929 . S
C1299 C1291 1.433 . S
C1299 N1301 1.384 . S
N1300 C1296 1.427 . S
N1300 C1297 1.384 . S
N1301 C1293 1.427 . S
N1301 C1299 1.384 . S
H1302 C1308 0.930 . S
H1303 C1312 0.930 . S
H1304 C1317 0.929 . S
H1305 C1315 0.929 . S
H1306 C1310 0.929 . S
H1307 C1316 0.929 . S
C1308 H1302 0.930 . S
C1308 C1309 1.367 . S
C1308 C1316 1.378 . S
C1309 C1308 1.367 . S
C1309 C1317 1.433 . S
C1310 H1306 0.929 . S
C1310 C1312 1.378 . S
C1310 C1314 1.350 . S
C1311 C1314 1.463 . S
C1311 C1316 1.350 . S
C1311 N1319 1.427 . S
C1312 H1303 0.930 . S
C1312 C1310 1.378 . S
C1312 C1313 1.367 . S
C1313 C1312 1.367 . S
C1313 C1315 1.433 . S
C1314 C1310 1.350 . S
C1314 C1311 1.463 . S
C1314 N1318 1.427 . S
C1315 H1305 0.929 . S
C1315 C1313 1.433 . S
C1315 N1318 1.384 . S
C1316 H1307 0.929 . S
C1316 C1308 1.378 . S
C1316 C1311 1.350 . S
C1317 H1304 0.929 . S
C1317 C1309 1.433 . S
C1317 N1319 1.384 . S
N1318 C1314 1.427 . S
N1318 C1315 1.384 . S
N1319 C1311 1.427 . S
N1319 C1317 1.384 . S
H1320 C1326 0.930 . S
H1321 C1330 0.930 . S
H1322 C1335 0.929 . S
H1323 C1333 0.929 . S
H1324 C1328 0.929 . S
H1325 C1334 0.929 . S
C1326 H1320 0.930 . S
C1326 C1327 1.367 . S
C1326 C1334 1.378 . S
C1327 C1326 1.367 . S
C1327 C1335 1.433 . S
C1328 H1324 0.929 . S
C1328 C1330 1.378 . S
C1328 C1332 1.350 . S
C1329 C1332 1.463 . S
C1329 C1334 1.350 . S
C1329 N1337 1.427 . S
C1330 H1321 0.930 . S
C1330 C1328 1.378 . S
C1330 C1331 1.367 . S
C1331 C1330 1.367 . S
C1331 C1333 1.433 . S
C1332 C1328 1.350 . S
C1332 C1329 1.463 . S
C1332 N1336 1.427 . S
C1333 H1323 0.929 . S
C1333 C1331 1.433 . S
C1333 N1336 1.384 . S
C1334 H1325 0.929 . S
C1334 C1326 1.378 . S
C1334 C1329 1.350 . S
C1335 H1322 0.929 . S
C1335 C1327 1.433 . S
C1335 N1337 1.384 . S
N1336 C1332 1.427 . S
N1336 C1333 1.384 . S
N1337 C1329 1.427 . S
N1337 C1335 1.384 . S
H1338 C1344 0.930 . S
H1339 C1348 0.930 . S
H1340 C1353 0.929 . S
H1341 C1351 0.929 . S
H1342 C1346 0.929 . S
H1343 C1352 0.929 . S
C1344 H1338 0.930 . S
C1344 C1345 1.367 . S
C1344 C1352 1.378 . S
C1345 C1344 1.367 . S
C1345 C1353 1.433 . S
C1346 H1342 0.929 . S
C1346 C1348 1.378 . S
C1346 C1350 1.350 . S
C1347 C1350 1.463 . S
C1347 C1352 1.350 . S
C1347 N1355 1.427 . S
C1348 H1339 0.930 . S
C1348 C1346 1.378 . S
C1348 C1349 1.367 . S
C1349 C1348 1.367 . S
C1349 C1351 1.433 . S
C1350 C1346 1.350 . S
C1350 C1347 1.463 . S
C1350 N1354 1.427 . S
C1351 H1341 0.929 . S
C1351 C1349 1.433 . S
C1351 N1354 1.384 . S
C1352 H1343 0.929 . S
C1352 C1344 1.378 . S
C1352 C1347 1.350 . S
C1353 H1340 0.929 . S
C1353 C1345 1.433 . S
C1353 N1355 1.384 . S
N1354 C1350 1.427 . S
N1354 C1351 1.384 . S
N1355 C1347 1.427 . S
N1355 C1353 1.384 . S
H1356 C1362 0.930 . S
H1357 C1366 0.930 . S
H1358 C1371 0.929 . S
H1359 C1369 0.929 . S
H1360 C1364 0.929 . S
H1361 C1370 0.929 . S
C1362 H1356 0.930 . S
C1362 C1363 1.367 . S
C1362 C1370 1.378 . S
C1363 C1362 1.367 . S
C1363 C1371 1.433 . S
C1364 H1360 0.929 . S
C1364 C1366 1.378 . S
C1364 C1368 1.350 . S
C1365 C1368 1.463 . S
C1365 C1370 1.350 . S
C1365 N1373 1.427 . S
C1366 H1357 0.930 . S
C1366 C1364 1.378 . S
C1366 C1367 1.367 . S
C1367 C1366 1.367 . S
C1367 C1369 1.433 . S
C1368 C1364 1.350 . S
C1368 C1365 1.463 . S
C1368 N1372 1.427 . S
C1369 H1359 0.929 . S
C1369 C1367 1.433 . S
C1369 N1372 1.384 . S
C1370 H1361 0.929 . S
C1370 C1362 1.378 . S
C1370 C1365 1.350 . S
C1371 H1358 0.929 . S
C1371 C1363 1.433 . S
C1371 N1373 1.384 . S
N1372 C1368 1.427 . S
N1372 C1369 1.384 . S
N1373 C1365 1.427 . S
N1373 C1371 1.384 . S
H1374 C1380 0.930 . S
H1375 C1384 0.930 . S
H1376 C1389 0.929 . S
H1377 C1387 0.929 . S
H1378 C1382 0.929 . S
H1379 C1388 0.929 . S
C1380 H1374 0.930 . S
C1380 C1381 1.367 . S
C1380 C1388 1.378 . S
C1381 C1380 1.367 . S
C1381 C1389 1.433 . S
C1382 H1378 0.929 . S
C1382 C1384 1.378 . S
C1382 C1386 1.350 . S
C1383 C1386 1.463 . S
C1383 C1388 1.350 . S
C1383 N1391 1.427 . S
C1384 H1375 0.930 . S
C1384 C1382 1.378 . S
C1384 C1385 1.367 . S
C1385 C1384 1.367 . S
C1385 C1387 1.433 . S
C1386 C1382 1.350 . S
C1386 C1383 1.463 . S
C1386 N1390 1.427 . S
C1387 H1377 0.929 . S
C1387 C1385 1.433 . S
C1387 N1390 1.384 . S
C1388 H1379 0.929 . S
C1388 C1380 1.378 . S
C1388 C1383 1.350 . S
C1389 H1376 0.929 . S
C1389 C1381 1.433 . S
C1389 N1391 1.384 . S
N1390 C1386 1.427 . S
N1390 C1387 1.384 . S
N1391 C1383 1.427 . S
N1391 C1389 1.384 . S
H1392 C1398 0.930 . S
H1393 C1402 0.930 . S
H1394 C1407 0.929 . S
H1395 C1405 0.929 . S
H1396 C1400 0.929 . S
H1397 C1406 0.929 . S
C1398 H1392 0.930 . S
C1398 C1399 1.367 . S
C1398 C1406 1.378 . S
C1399 C1398 1.367 . S
C1399 C1407 1.433 . S
C1400 H1396 0.929 . S
C1400 C1402 1.378 . S
C1400 C1404 1.350 . S
C1401 C1404 1.463 . S
C1401 C1406 1.350 . S
C1401 N1409 1.427 . S
C1402 H1393 0.930 . S
C1402 C1400 1.378 . S
C1402 C1403 1.367 . S
C1403 C1402 1.367 . S
C1403 C1405 1.433 . S
C1404 C1400 1.350 . S
C1404 C1401 1.463 . S
C1404 N1408 1.427 . S
C1405 H1395 0.929 . S
C1405 C1403 1.433 . S
C1405 N1408 1.384 . S
C1406 H1397 0.929 . S
C1406 C1398 1.378 . S
C1406 C1401 1.350 . S
C1407 H1394 0.929 . S
C1407 C1399 1.433 . S
C1407 N1409 1.384 . S
N1408 C1404 1.427 . S
N1408 C1405 1.384 . S
N1409 C1401 1.427 . S
N1409 C1407 1.384 . S
H1410 C1416 0.930 . S
H1411 C1420 0.930 . S
H1412 C1425 0.929 . S
H1413 C1423 0.929 . S
H1414 C1418 0.929 . S
H1415 C1424 0.929 . S
C1416 H1410 0.930 . S
C1416 C1417 1.367 . S
C1416 C1424 1.378 . S
C1417 C1416 1.367 . S
C1417 C1425 1.433 . S
C1418 H1414 0.929 . S
C1418 C1420 1.378 . S
C1418 C1422 1.350 . S
C1419 C1422 1.463 . S
C1419 C1424 1.350 . S
C1419 N1427 1.427 . S
C1420 H1411 0.930 . S
C1420 C1418 1.378 . S
C1420 C1421 1.367 . S
C1421 C1420 1.367 . S
C1421 C1423 1.433 . S
C1422 C1418 1.350 . S
C1422 C1419 1.463 . S
C1422 N1426 1.427 . S
C1423 H1413 0.929 . S
C1423 C1421 1.433 . S
C1423 N1426 1.384 . S
C1424 H1415 0.929 . S
C1424 C1416 1.378 . S
C1424 C1419 1.350 . S
C1425 H1412 0.929 . S
C1425 C1417 1.433 . S
C1425 N1427 1.384 . S
N1426 C1422 1.427 . S
N1426 C1423 1.384 . S
N1427 C1419 1.427 . S
N1427 C1425 1.384 . S
H1428 C1434 0.930 . S
H1429 C1438 0.930 . S
H1430 C1443 0.929 . S
H1431 C1441 0.929 . S
H1432 C1436 0.929 . S
H1433 C1442 0.929 . S
C1434 H1428 0.930 . S
C1434 C1435 1.367 . S
C1434 C1442 1.378 . S
C1435 C1434 1.367 . S
C1435 C1443 1.433 . S
C1436 H1432 0.929 . S
C1436 C1438 1.378 . S
C1436 C1440 1.350 . S
C1437 C1440 1.463 . S
C1437 C1442 1.350 . S
C1437 N1445 1.427 . S
C1438 H1429 0.930 . S
C1438 C1436 1.378 . S
C1438 C1439 1.367 . S
C1439 C1438 1.367 . S
C1439 C1441 1.433 . S
C1440 C1436 1.350 . S
C1440 C1437 1.463 . S
C1440 N1444 1.427 . S
C1441 H1431 0.929 . S
C1441 C1439 1.433 . S
C1441 N1444 1.384 . S
C1442 H1433 0.929 . S
C1442 C1434 1.378 . S
C1442 C1437 1.350 . S
C1443 H1430 0.929 . S
C1443 C1435 1.433 . S
C1443 N1445 1.384 . S
N1444 C1440 1.427 . S
N1444 C1441 1.384 . S
N1445 C1437 1.427 . S
N1445 C1443 1.384 . S
H1446 C1452 0.930 . S
H1447 C1456 0.930 . S
H1448 C1461 0.929 . S
H1449 C1459 0.929 . S
H1450 C1454 0.929 . S
H1451 C1460 0.929 . S
C1452 H1446 0.930 . S
C1452 C1453 1.367 . S
C1452 C1460 1.378 . S
C1453 C1452 1.367 . S
C1453 C1461 1.433 . S
C1454 H1450 0.929 . S
C1454 C1456 1.378 . S
C1454 C1458 1.350 . S
C1455 C1458 1.463 . S
C1455 C1460 1.350 . S
C1455 N1463 1.427 . S
C1456 H1447 0.930 . S
C1456 C1454 1.378 . S
C1456 C1457 1.367 . S
C1457 C1456 1.367 . S
C1457 C1459 1.433 . S
C1458 C1454 1.350 . S
C1458 C1455 1.463 . S
C1458 N1462 1.427 . S
C1459 H1449 0.929 . S
C1459 C1457 1.433 . S
C1459 N1462 1.384 . S
C1460 H1451 0.929 . S
C1460 C1452 1.378 . S
C1460 C1455 1.350 . S
C1461 H1448 0.929 . S
C1461 C1453 1.433 . S
C1461 N1463 1.384 . S
N1462 C1458 1.427 . S
N1462 C1459 1.384 . S
N1463 C1455 1.427 . S
N1463 C1461 1.384 . S
H1464 C1470 0.930 . S
H1465 C1474 0.930 . S
H1466 C1479 0.929 . S
H1467 C1477 0.929 . S
H1468 C1472 0.929 . S
H1469 C1478 0.929 . S
C1470 H1464 0.930 . S
C1470 C1471 1.367 1_556 S
C1470 C1478 1.378 . S
C1471 C1470 1.367 1_554 S
C1471 C1479 1.433 . S
C1472 H1468 0.929 . S
C1472 C1474 1.378 . S
C1472 C1476 1.350 . S
C1473 C1476 1.463 . S
C1473 C1478 1.350 1_554 S
C1473 N1481 1.427 . S
C1474 H1465 0.930 . S
C1474 C1472 1.378 . S
C1474 C1475 1.367 . S
C1475 C1474 1.367 . S
C1475 C1477 1.433 1_554 S
C1476 C1472 1.350 . S
C1476 C1473 1.463 . S
C1476 N1480 1.427 1_554 S
C1477 H1467 0.929 . S
C1477 C1475 1.433 1_556 S
C1477 N1480 1.384 . S
C1478 H1469 0.929 . S
C1478 C1470 1.378 . S
C1478 C1473 1.350 1_556 S
C1479 H1466 0.929 . S
C1479 C1471 1.433 . S
C1479 N1481 1.384 . S
N1480 C1476 1.427 1_556 S
N1480 C1477 1.384 . S
N1481 C1473 1.427 . S
N1481 C1479 1.384 . S
H1482 C1488 0.937 . S
H1483 C1492 0.930 . S
H1484 C1497 0.929 . S
H1485 C1495 0.929 . S
H1486 C1490 0.929 . S
H1487 C1496 0.929 . S
C1488 H1482 0.937 . S
C1488 C1489 1.359 1_556 S
C1488 C1496 1.378 . S
C1489 C1488 1.359 1_554 S
C1489 C1497 1.433 . S
C1490 H1486 0.929 . S
C1490 C1492 1.378 . S
C1490 C1494 1.350 . S
C1491 C1494 1.463 . S
C1491 C1496 1.350 1_554 S
C1491 N1499 1.427 . S
C1492 H1483 0.930 . S
C1492 C1490 1.378 . S
C1492 C1493 1.367 . S
C1493 C1492 1.367 . S
C1493 C1495 1.433 1_554 S
C1494 C1490 1.350 . S
C1494 C1491 1.463 . S
C1494 N1498 1.427 1_554 S
C1495 H1485 0.929 . S
C1495 C1493 1.433 1_556 S
C1495 N1498 1.384 . S
C1496 H1487 0.929 . S
C1496 C1488 1.378 . S
C1496 C1491 1.350 1_556 S
C1497 H1484 0.929 . S
C1497 C1489 1.433 . S
C1497 N1499 1.384 . S
N1498 C1494 1.427 1_556 S
N1498 C1495 1.384 . S
N1499 C1491 1.427 . S
N1499 C1497 1.384 . S
H1500 C1506 0.930 . S
H1501 C1510 0.930 . S
H1502 C1515 0.929 . S
H1503 C1513 0.929 . S
H1504 C1508 0.929 . S
H1505 C1514 0.929 . S
C1506 H1500 0.930 . S
C1506 C1507 1.367 . S
C1506 C1514 1.378 . S
C1507 C1506 1.367 . S
C1507 C1515 1.433 1_554 S
C1508 H1504 0.929 . S
C1508 C1510 1.378 . S
C1508 C1512 1.350 1_556 S
C1509 C1512 1.463 . S
C1509 C1514 1.350 . S
C1509 N1517 1.427 1_554 S
C1510 H1501 0.930 . S
C1510 C1508 1.378 . S
C1510 C1511 1.367 1_556 S
C1511 C1510 1.367 1_554 S
C1511 C1513 1.433 . S
C1512 C1508 1.350 1_554 S
C1512 C1509 1.463 . S
C1512 N1516 1.427 . S
C1513 H1503 0.929 . S
C1513 C1511 1.433 . S
C1513 N1516 1.384 . S
C1514 H1505 0.929 . S
C1514 C1506 1.378 . S
C1514 C1509 1.350 . S
C1515 H1502 0.929 . S
C1515 C1507 1.433 1_556 S
C1515 N1517 1.384 . S
N1516 C1512 1.427 . S
N1516 C1513 1.384 . S
N1517 C1509 1.427 1_556 S
N1517 C1515 1.384 . S
H1518 C1524 0.930 . S
H1519 C1528 0.930 . S
H1520 C1533 0.929 . S
H1521 C1531 0.929 . S
H1522 C1526 0.929 . S
H1523 C1532 0.929 . S
C1524 H1518 0.930 . S
C1524 C1525 1.367 . S
C1524 C1532 1.378 . S
C1525 C1524 1.367 . S
C1525 C1533 1.433 1_554 S
C1526 H1522 0.929 . S
C1526 C1528 1.378 . S
C1526 C1530 1.350 1_556 S
C1527 C1530 1.463 . S
C1527 C1532 1.350 . S
C1527 N1535 1.427 1_554 S
C1528 H1519 0.930 . S
C1528 C1526 1.378 . S
C1528 C1529 1.367 1_556 S
C1529 C1528 1.367 1_554 S
C1529 C1531 1.433 . S
C1530 C1526 1.350 1_554 S
C1530 C1527 1.463 . S
C1530 N1534 1.427 . S
C1531 H1521 0.929 . S
C1531 C1529 1.433 . S
C1531 N1534 1.384 . S
C1532 H1523 0.929 . S
C1532 C1524 1.378 . S
C1532 C1527 1.350 . S
C1533 H1520 0.929 . S
C1533 C1525 1.433 1_556 S
C1533 N1535 1.384 . S
N1534 C1530 1.427 . S
N1534 C1531 1.384 . S
N1535 C1527 1.427 1_556 S
N1535 C1533 1.384 . S
H1536 C1542 0.930 . S
H1537 C1546 0.930 . S
H1538 C1551 0.927 1_655 S
H1539 C1549 0.929 . S
H1540 C1544 0.929 . S
H1541 C1550 0.929 . S
C1542 H1536 0.930 . S
C1542 C1543 1.367 . S
C1542 C1550 1.378 . S
C1543 C1542 1.367 . S
C1543 C1551 1.433 . S
C1544 H1540 0.929 . S
C1544 C1546 1.378 . S
C1544 C1548 1.350 . S
C1545 C1548 1.463 . S
C1545 C1550 1.350 . S
C1545 N1553 1.427 . S
C1546 H1537 0.930 . S
C1546 C1544 1.378 . S
C1546 C1547 1.367 . S
C1547 C1546 1.367 . S
C1547 C1549 1.433 . S
C1548 C1544 1.350 . S
C1548 C1545 1.463 . S
C1548 N1552 1.427 . S
C1549 H1539 0.929 . S
C1549 C1547 1.433 . S
C1549 N1552 1.384 . S
C1550 H1541 0.929 . S
C1550 C1542 1.378 . S
C1550 C1545 1.350 . S
C1551 H1538 0.927 1_455 S
C1551 C1543 1.433 . S
C1551 N1553 1.384 . S
N1552 C1548 1.427 . S
N1552 C1549 1.384 . S
N1553 C1545 1.427 . S
N1553 C1551 1.384 . S
H1554 C1560 0.930 . S
H1555 C1564 0.907 1_565 S
H1556 C1569 0.929 . S
H1557 C1567 0.929 . S
H1558 C1562 0.929 . S
H1559 C1568 0.929 . S
C1560 H1554 0.930 . S
C1560 C1561 1.367 . S
C1560 C1568 1.378 . S
C1561 C1560 1.367 . S
C1561 C1569 1.433 1_545 S
C1562 H1558 0.929 . S
C1562 C1564 1.374 1_565 S
C1562 C1566 1.350 1_565 S
C1563 C1566 1.463 . S
C1563 C1568 1.350 . S
C1563 N1571 1.427 1_545 S
C1564 H1555 0.907 1_545 S
C1564 C1562 1.374 1_545 S
C1564 C1565 1.396 . S
C1565 C1564 1.396 . S
C1565 C1567 1.433 . S
C1566 C1562 1.350 1_545 S
C1566 C1563 1.463 . S
C1566 N1570 1.427 . S
C1567 H1557 0.929 . S
C1567 C1565 1.433 . S
C1567 N1570 1.384 . S
C1568 H1559 0.929 . S
C1568 C1560 1.378 . S
C1568 C1563 1.350 . S
C1569 H1556 0.929 . S
C1569 C1561 1.433 1_565 S
C1569 N1571 1.384 . S
N1570 C1566 1.427 . S
N1570 C1567 1.384 . S
N1571 C1563 1.427 1_565 S
N1571 C1569 1.384 . S
H1572 C1578 0.930 . S
H1573 C1582 0.930 . S
H1574 C1587 0.929 . S
H1575 C1585 0.929 1_655 S
H1576 C1580 0.929 . S
H1577 C1586 0.929 1_655 S
C1578 H1572 0.930 . S
C1578 C1579 1.367 . S
C1578 C1586 1.378 . S
C1579 C1578 1.367 . S
C1579 C1587 1.433 . S
C1580 H1576 0.929 . S
C1580 C1582 1.378 . S
C1580 C1584 1.350 . S
C1581 C1584 1.463 . S
C1581 C1586 1.350 . S
C1581 N1589 1.427 . S
C1582 H1573 0.930 . S
C1582 C1580 1.378 . S
C1582 C1583 1.367 . S
C1583 C1582 1.367 . S
C1583 C1585 1.433 . S
C1584 C1580 1.350 . S
C1584 C1581 1.463 . S
C1584 N1588 1.427 . S
C1585 H1575 0.929 1_455 S
C1585 C1583 1.433 . S
C1585 N1588 1.384 . S
C1586 H1577 0.929 1_455 S
C1586 C1578 1.378 . S
C1586 C1581 1.350 . S
C1587 H1574 0.929 . S
C1587 C1579 1.433 . S
C1587 N1589 1.384 . S
N1588 C1584 1.427 . S
N1588 C1585 1.384 . S
N1589 C1581 1.427 . S
N1589 C1587 1.384 . S
H1590 C1596 0.930 . S
H1591 C1600 0.930 . S
H1592 C1605 0.929 . S
H1593 C1603 0.929 . S
H1594 C1598 0.929 . S
H1595 C1604 0.929 . S
C1596 H1590 0.930 . S
C1596 C1597 1.367 . S
C1596 C1604 1.378 . S
C1597 C1596 1.367 . S
C1597 C1605 1.433 . S
C1598 H1594 0.929 . S
C1598 C1600 1.378 . S
C1598 C1602 1.350 . S
C1599 C1602 1.463 . S
C1599 C1604 1.350 . S
C1599 N1607 1.427 . S
C1600 H1591 0.930 . S
C1600 C1598 1.378 . S
C1600 C1601 1.367 . S
C1601 C1600 1.367 . S
C1601 C1603 1.433 . S
C1602 C1598 1.350 . S
C1602 C1599 1.463 . S
C1602 N1606 1.427 . S
C1603 H1593 0.929 . S
C1603 C1601 1.433 . S
C1603 N1606 1.384 . S
C1604 H1595 0.929 . S
C1604 C1596 1.378 . S
C1604 C1599 1.350 . S
C1605 H1592 0.929 . S
C1605 C1597 1.433 . S
C1605 N1607 1.384 . S
N1606 C1602 1.427 . S
N1606 C1603 1.384 . S
N1607 C1599 1.427 . S
N1607 C1605 1.384 . S
H1608 C1614 0.930 . S
H1609 C1618 0.930 . S
H1610 C1623 0.929 . S
H1611 C1621 0.929 . S
H1612 C1616 0.929 . S
H1613 C1622 0.929 . S
C1614 H1608 0.930 . S
C1614 C1615 1.367 . S
C1614 C1622 1.378 . S
C1615 C1614 1.367 . S
C1615 C1623 1.433 . S
C1616 H1612 0.929 . S
C1616 C1618 1.378 . S
C1616 C1620 1.350 . S
C1617 C1620 1.463 . S
C1617 C1622 1.350 . S
C1617 N1625 1.427 . S
C1618 H1609 0.930 . S
C1618 C1616 1.378 . S
C1618 C1619 1.367 . S
C1619 C1618 1.367 . S
C1619 C1621 1.433 . S
C1620 C1616 1.350 . S
C1620 C1617 1.463 . S
C1620 N1624 1.427 . S
C1621 H1611 0.929 . S
C1621 C1619 1.433 . S
C1621 N1624 1.384 . S
C1622 H1613 0.929 . S
C1622 C1614 1.378 . S
C1622 C1617 1.350 . S
C1623 H1610 0.929 . S
C1623 C1615 1.433 . S
C1623 N1625 1.384 . S
N1624 C1620 1.427 . S
N1624 C1621 1.384 . S
N1625 C1617 1.427 . S
N1625 C1623 1.384 . S
H1626 C1632 0.930 . S
H1627 C1636 0.930 . S
H1628 C1641 0.929 . S
H1629 C1639 0.929 . S
H1630 C1634 0.929 . S
H1631 C1640 0.929 . S
C1632 H1626 0.930 . S
C1632 C1633 1.367 . S
C1632 C1640 1.378 . S
C1633 C1632 1.367 . S
C1633 C1641 1.433 . S
C1634 H1630 0.929 . S
C1634 C1636 1.378 . S
C1634 C1638 1.350 . S
C1635 C1638 1.463 . S
C1635 C1640 1.350 . S
C1635 N1643 1.427 . S
C1636 H1627 0.930 . S
C1636 C1634 1.378 . S
C1636 C1637 1.367 . S
C1637 C1636 1.367 . S
C1637 C1639 1.433 . S
C1638 C1634 1.350 . S
C1638 C1635 1.463 . S
C1638 N1642 1.427 . S
C1639 H1629 0.929 . S
C1639 C1637 1.433 . S
C1639 N1642 1.384 . S
C1640 H1631 0.929 . S
C1640 C1632 1.378 . S
C1640 C1635 1.350 . S
C1641 H1628 0.929 . S
C1641 C1633 1.433 . S
C1641 N1643 1.384 . S
N1642 C1638 1.427 . S
N1642 C1639 1.384 . S
N1643 C1635 1.427 . S
N1643 C1641 1.384 . S
H1644 C1650 0.930 . S
H1645 C1654 0.930 . S
H1646 C1659 0.929 . S
H1647 C1657 0.929 . S
H1648 C1652 0.929 . S
H1649 C1658 0.929 . S
C1650 H1644 0.930 . S
C1650 C1651 1.367 . S
C1650 C1658 1.378 . S
C1651 C1650 1.367 . S
C1651 C1659 1.433 . S
C1652 H1648 0.929 . S
C1652 C1654 1.378 . S
C1652 C1656 1.350 . S
C1653 C1656 1.463 . S
C1653 C1658 1.350 . S
C1653 N1661 1.427 . S
C1654 H1645 0.930 . S
C1654 C1652 1.378 . S
C1654 C1655 1.367 . S
C1655 C1654 1.367 . S
C1655 C1657 1.433 . S
C1656 C1652 1.350 . S
C1656 C1653 1.463 . S
C1656 N1660 1.427 . S
C1657 H1647 0.929 . S
C1657 C1655 1.433 . S
C1657 N1660 1.384 . S
C1658 H1649 0.929 . S
C1658 C1650 1.378 . S
C1658 C1653 1.350 . S
C1659 H1646 0.929 . S
C1659 C1651 1.433 . S
C1659 N1661 1.384 . S
N1660 C1656 1.427 . S
N1660 C1657 1.384 . S
N1661 C1653 1.427 . S
N1661 C1659 1.384 . S
H1662 C1668 0.930 . S
H1663 C1672 0.930 . S
H1664 C1677 0.929 . S
H1665 C1675 0.929 . S
H1666 C1670 0.929 . S
H1667 C1676 0.929 . S
C1668 H1662 0.930 . S
C1668 C1669 1.367 1_565 S
C1668 C1676 1.378 . S
C1669 C1668 1.367 1_545 S
C1669 C1677 1.433 . S
C1670 H1666 0.929 . S
C1670 C1672 1.378 . S
C1670 C1674 1.350 . S
C1671 C1674 1.463 . S
C1671 C1676 1.350 1_545 S
C1671 N1679 1.427 . S
C1672 H1663 0.930 . S
C1672 C1670 1.378 . S
C1672 C1673 1.367 . S
C1673 C1672 1.367 . S
C1673 C1675 1.433 1_545 S
C1674 C1670 1.350 . S
C1674 C1671 1.463 . S
C1674 N1678 1.427 1_545 S
C1675 H1665 0.929 . S
C1675 C1673 1.433 1_565 S
C1675 N1678 1.384 . S
C1676 H1667 0.929 . S
C1676 C1668 1.378 . S
C1676 C1671 1.350 1_565 S
C1677 H1664 0.929 . S
C1677 C1669 1.433 . S
C1677 N1679 1.384 . S
N1678 C1674 1.427 1_565 S
N1678 C1675 1.384 . S
N1679 C1671 1.427 . S
N1679 C1677 1.384 . S
H1680 C1686 0.930 . S
H1681 C1690 0.930 . S
H1682 C1695 0.929 . S
H1683 C1693 0.929 . S
H1684 C1688 0.929 . S
H1685 C1694 0.929 . S
C1686 H1680 0.930 . S
C1686 C1687 1.367 . S
C1686 C1694 1.378 . S
C1687 C1686 1.367 . S
C1687 C1695 1.433 . S
C1688 H1684 0.929 . S
C1688 C1690 1.378 . S
C1688 C1692 1.350 . S
C1689 C1692 1.463 . S
C1689 C1694 1.350 . S
C1689 N1697 1.427 . S
C1690 H1681 0.930 . S
C1690 C1688 1.378 . S
C1690 C1691 1.367 . S
C1691 C1690 1.367 . S
C1691 C1693 1.433 . S
C1692 C1688 1.350 . S
C1692 C1689 1.463 . S
C1692 N1696 1.427 . S
C1693 H1683 0.929 . S
C1693 C1691 1.433 . S
C1693 N1696 1.384 . S
C1694 H1685 0.929 . S
C1694 C1686 1.378 . S
C1694 C1689 1.350 . S
C1695 H1682 0.929 . S
C1695 C1687 1.433 . S
C1695 N1697 1.384 . S
N1696 C1692 1.427 . S
N1696 C1693 1.384 . S
N1697 C1689 1.427 . S
N1697 C1695 1.384 . S
H1698 C1704 0.930 . S
H1699 C1708 0.930 . S
H1700 C1713 0.929 . S
H1701 C1711 0.929 1_565 S
H1702 C1706 0.929 . S
H1703 C1712 0.929 . S
C1704 H1698 0.930 . S
C1704 C1705 1.367 . S
C1704 C1712 1.378 . S
C1705 C1704 1.367 . S
C1705 C1713 1.433 . S
C1706 H1702 0.929 . S
C1706 C1708 1.378 . S
C1706 C1710 1.350 . S
C1707 C1710 1.463 . S
C1707 C1712 1.350 . S
C1707 N1715 1.427 . S
C1708 H1699 0.930 . S
C1708 C1706 1.378 . S
C1708 C1709 1.367 . S
C1709 C1708 1.367 . S
C1709 C1711 1.433 . S
C1710 C1706 1.350 . S
C1710 C1707 1.463 . S
C1710 N1714 1.427 . S
C1711 H1701 0.929 1_545 S
C1711 C1709 1.433 . S
C1711 N1714 1.384 . S
C1712 H1703 0.929 . S
C1712 C1704 1.378 . S
C1712 C1707 1.350 . S
C1713 H1700 0.929 . S
C1713 C1705 1.433 . S
C1713 N1715 1.384 . S
N1714 C1710 1.427 . S
N1714 C1711 1.384 . S
N1715 C1707 1.427 . S
N1715 C1713 1.384 . S
H1716 C1722 0.930 . S
H1717 C1726 0.930 . S
H1718 C1731 0.929 . S
H1719 C1729 0.929 . S
H1720 C1724 0.929 . S
H1721 C1730 0.929 . S
C1722 H1716 0.930 . S
C1722 C1723 1.367 . S
C1722 C1730 1.378 . S
C1723 C1722 1.367 . S
C1723 C1731 1.433 . S
C1724 H1720 0.929 . S
C1724 C1726 1.378 . S
C1724 C1728 1.350 . S
C1725 C1728 1.463 . S
C1725 C1730 1.350 . S
C1725 N1733 1.427 . S
C1726 H1717 0.930 . S
C1726 C1724 1.378 . S
C1726 C1727 1.367 . S
C1727 C1726 1.367 . S
C1727 C1729 1.433 . S
C1728 C1724 1.350 . S
C1728 C1725 1.463 . S
C1728 N1732 1.427 . S
C1729 H1719 0.929 . S
C1729 C1727 1.433 . S
C1729 N1732 1.384 . S
C1730 H1721 0.929 . S
C1730 C1722 1.378 . S
C1730 C1725 1.350 . S
C1731 H1718 0.929 . S
C1731 C1723 1.433 . S
C1731 N1733 1.384 . S
N1732 C1728 1.427 . S
N1732 C1729 1.384 . S
N1733 C1725 1.427 . S
N1733 C1731 1.384 . S
H1734 C1740 0.930 . S
H1735 C1744 0.930 . S
H1736 C1749 0.929 . S
H1737 C1747 0.929 . S
H1738 C1742 0.929 . S
H1739 C1748 0.918 1_565 S
C1740 H1734 0.930 . S
C1740 C1741 1.367 1_565 S
C1740 C1748 1.374 1_565 S
C1741 C1740 1.367 1_545 S
C1741 C1749 1.433 . S
C1742 H1738 0.929 . S
C1742 C1744 1.378 . S
C1742 C1746 1.350 . S
C1743 C1746 1.463 . S
C1743 C1748 1.367 . S
C1743 N1751 1.427 . S
C1744 H1735 0.930 . S
C1744 C1742 1.378 . S
C1744 C1745 1.367 . S
C1745 C1744 1.367 . S
C1745 C1747 1.433 . S
C1746 C1742 1.350 . S
C1746 C1743 1.463 . S
C1746 N1750 1.427 . S
C1747 H1737 0.929 . S
C1747 C1745 1.433 . S
C1747 N1750 1.384 . S
C1748 H1739 0.918 1_545 S
C1748 C1740 1.374 1_545 S
C1748 C1743 1.367 . S
C1749 H1736 0.929 . S
C1749 C1741 1.433 . S
C1749 N1751 1.384 . S
N1750 C1746 1.427 . S
N1750 C1747 1.384 . S
N1751 C1743 1.427 . S
N1751 C1749 1.384 . S
H1752 C1758 0.930 . S
H1753 C1762 0.930 . S
H1754 C1767 0.929 . S
H1755 C1765 0.929 . S
H1756 C1760 0.929 . S
H1757 C1766 0.928 1_655 S
C1758 H1752 0.930 . S
C1758 C1759 1.367 1_655 S
C1758 C1766 1.377 1_655 S
C1759 C1758 1.367 1_455 S
C1759 C1767 1.433 . S
C1760 H1756 0.929 . S
C1760 C1762 1.378 . S
C1760 C1764 1.350 . S
C1761 C1764 1.463 . S
C1761 C1766 1.351 . S
C1761 N1769 1.427 . S
C1762 H1753 0.930 . S
C1762 C1760 1.378 . S
C1762 C1763 1.367 . S
C1763 C1762 1.367 . S
C1763 C1765 1.433 . S
C1764 C1760 1.350 . S
C1764 C1761 1.463 . S
C1764 N1768 1.427 . S
C1765 H1755 0.929 . S
C1765 C1763 1.433 . S
C1765 N1768 1.384 . S
C1766 H1757 0.928 1_455 S
C1766 C1758 1.377 1_455 S
C1766 C1761 1.351 . S
C1767 H1754 0.929 . S
C1767 C1759 1.433 . S
C1767 N1769 1.384 . S
N1768 C1764 1.427 . S
N1768 C1765 1.384 . S
N1769 C1761 1.427 . S
N1769 C1767 1.384 . S
H1770 C1776 0.930 . S
H1771 C1780 0.930 . S
H1772 C1785 0.929 . S
H1773 C1783 0.929 . S
H1774 C1778 0.929 . S
H1775 C1784 0.929 . S
C1776 H1770 0.930 . S
C1776 C1777 1.367 . S
C1776 C1784 1.378 . S
C1777 C1776 1.367 . S
C1777 C1785 1.433 1_545 S
C1778 H1774 0.929 . S
C1778 C1780 1.378 . S
C1778 C1782 1.350 1_565 S
C1779 C1782 1.463 . S
C1779 C1784 1.350 . S
C1779 N1787 1.427 1_545 S
C1780 H1771 0.930 . S
C1780 C1778 1.378 . S
C1780 C1781 1.367 1_565 S
C1781 C1780 1.367 1_545 S
C1781 C1783 1.433 . S
C1782 C1778 1.350 1_545 S
C1782 C1779 1.463 . S
C1782 N1786 1.427 . S
C1783 H1773 0.929 . S
C1783 C1781 1.433 . S
C1783 N1786 1.384 . S
C1784 H1775 0.929 . S
C1784 C1776 1.378 . S
C1784 C1779 1.350 . S
C1785 H1772 0.929 . S
C1785 C1777 1.433 1_565 S
C1785 N1787 1.384 . S
N1786 C1782 1.427 . S
N1786 C1783 1.384 . S
N1787 C1779 1.427 1_565 S
N1787 C1785 1.384 . S
H1788 C1794 0.930 . S
H1789 C1798 0.930 . S
H1790 C1803 0.929 . S
H1791 C1801 0.929 . S
H1792 C1796 0.929 . S
H1793 C1802 0.929 . S
C1794 H1788 0.930 . S
C1794 C1795 1.367 . S
C1794 C1802 1.378 . S
C1795 C1794 1.367 . S
C1795 C1803 1.433 . S
C1796 H1792 0.929 . S
C1796 C1798 1.378 . S
C1796 C1800 1.350 . S
C1797 C1800 1.463 . S
C1797 C1802 1.350 . S
C1797 N1805 1.427 . S
C1798 H1789 0.930 . S
C1798 C1796 1.378 . S
C1798 C1799 1.367 . S
C1799 C1798 1.367 . S
C1799 C1801 1.433 . S
C1800 C1796 1.350 . S
C1800 C1797 1.463 . S
C1800 N1804 1.427 . S
C1801 H1791 0.929 . S
C1801 C1799 1.433 . S
C1801 N1804 1.384 . S
C1802 H1793 0.929 . S
C1802 C1794 1.378 . S
C1802 C1797 1.350 . S
C1803 H1790 0.929 . S
C1803 C1795 1.433 . S
C1803 N1805 1.384 . S
N1804 C1800 1.427 . S
N1804 C1801 1.384 . S
N1805 C1797 1.427 . S
N1805 C1803 1.384 . S
H1806 C1812 0.903 1_565 S
H1807 C1816 0.930 . S
H1808 C1821 0.929 . S
H1809 C1819 0.929 1_565 S
H1810 C1814 0.929 . S
H1811 C1820 0.929 1_565 S
C1812 H1806 0.903 1_545 S
C1812 C1813 1.367 . S
C1812 C1820 1.378 . S
C1813 C1812 1.367 . S
C1813 C1821 1.433 . S
C1814 H1810 0.929 . S
C1814 C1816 1.378 . S
C1814 C1818 1.350 . S
C1815 C1818 1.463 . S
C1815 C1820 1.350 . S
C1815 N1823 1.427 . S
C1816 H1807 0.930 . S
C1816 C1814 1.378 . S
C1816 C1817 1.367 . S
C1817 C1816 1.367 . S
C1817 C1819 1.433 . S
C1818 C1814 1.350 . S
C1818 C1815 1.463 . S
C1818 N1822 1.427 . S
C1819 H1809 0.929 1_545 S
C1819 C1817 1.433 . S
C1819 N1822 1.384 . S
C1820 H1811 0.929 1_545 S
C1820 C1812 1.378 . S
C1820 C1815 1.350 . S
C1821 H1808 0.929 . S
C1821 C1813 1.433 . S
C1821 N1823 1.384 . S
N1822 C1818 1.427 . S
N1822 C1819 1.384 . S
N1823 C1815 1.427 . S
N1823 C1821 1.384 . S
H1824 C1830 0.930 . S
H1825 C1834 0.930 . S
H1826 C1839 0.929 . S
H1827 C1837 0.929 . S
H1828 C1832 0.929 . S
H1829 C1838 0.929 . S
C1830 H1824 0.930 . S
C1830 C1831 1.367 . S
C1830 C1838 1.378 . S
C1831 C1830 1.367 . S
C1831 C1839 1.433 1_545 S
C1832 H1828 0.929 . S
C1832 C1834 1.378 . S
C1832 C1836 1.350 1_565 S
C1833 C1836 1.463 . S
C1833 C1838 1.350 . S
C1833 N1841 1.427 1_545 S
C1834 H1825 0.930 . S
C1834 C1832 1.378 . S
C1834 C1835 1.367 1_565 S
C1835 C1834 1.367 1_545 S
C1835 C1837 1.433 . S
C1836 C1832 1.350 1_545 S
C1836 C1833 1.463 . S
C1836 N1840 1.427 . S
C1837 H1827 0.929 . S
C1837 C1835 1.433 . S
C1837 N1840 1.384 . S
C1838 H1829 0.929 . S
C1838 C1830 1.378 . S
C1838 C1833 1.350 . S
C1839 H1826 0.929 . S
C1839 C1831 1.433 1_565 S
C1839 N1841 1.384 . S
N1840 C1836 1.427 . S
N1840 C1837 1.384 . S
N1841 C1833 1.427 1_565 S
N1841 C1839 1.384 . S
H1842 C1848 0.930 . S
H1843 C1852 0.930 . S
H1844 C1857 0.929 . S
H1845 C1855 0.929 . S
H1846 C1850 0.929 . S
H1847 C1856 0.929 . S
C1848 H1842 0.930 . S
C1848 C1849 1.367 . S
C1848 C1856 1.378 . S
C1849 C1848 1.367 . S
C1849 C1857 1.433 . S
C1850 H1846 0.929 . S
C1850 C1852 1.378 . S
C1850 C1854 1.350 . S
C1851 C1854 1.463 . S
C1851 C1856 1.350 . S
C1851 N1859 1.427 . S
C1852 H1843 0.930 . S
C1852 C1850 1.378 . S
C1852 C1853 1.367 . S
C1853 C1852 1.367 . S
C1853 C1855 1.433 . S
C1854 C1850 1.350 . S
C1854 C1851 1.463 . S
C1854 N1858 1.427 . S
C1855 H1845 0.929 . S
C1855 C1853 1.433 . S
C1855 N1858 1.384 . S
C1856 H1847 0.929 . S
C1856 C1848 1.378 . S
C1856 C1851 1.350 . S
C1857 H1844 0.929 . S
C1857 C1849 1.433 . S
C1857 N1859 1.384 . S
N1858 C1854 1.427 . S
N1858 C1855 1.384 . S
N1859 C1851 1.427 . S
N1859 C1857 1.384 . S
H1860 C1866 0.930 . S
H1861 C1870 0.930 1_565 S
H1862 C1875 0.929 . S
H1863 C1873 0.929 . S
H1864 C1868 0.952 . S
H1865 C1874 0.929 . S
C1866 H1860 0.930 . S
C1866 C1867 1.367 . S
C1866 C1874 1.378 . S
C1867 C1866 1.367 . S
C1867 C1875 1.433 . S
C1868 H1864 0.952 . S
C1868 C1870 1.378 . S
C1868 C1872 1.350 . S
C1869 C1872 1.463 . S
C1869 C1874 1.350 . S
C1869 N1877 1.427 . S
C1870 H1861 0.930 1_545 S
C1870 C1868 1.378 . S
C1870 C1871 1.367 . S
C1871 C1870 1.367 . S
C1871 C1873 1.433 . S
C1872 C1868 1.350 . S
C1872 C1869 1.463 . S
C1872 N1876 1.427 . S
C1873 H1863 0.929 . S
C1873 C1871 1.433 . S
C1873 N1876 1.384 . S
C1874 H1865 0.929 . S
C1874 C1866 1.378 . S
C1874 C1869 1.350 . S
C1875 H1862 0.929 . S
C1875 C1867 1.433 . S
C1875 N1877 1.384 . S
N1876 C1872 1.427 . S
N1876 C1873 1.384 . S
N1877 C1869 1.427 . S
N1877 C1875 1.384 . S
H1878 C1884 0.930 . S
H1879 C1888 0.930 . S
H1880 C1893 0.929 . S
H1881 C1891 0.929 . S
H1882 C1886 0.929 . S
H1883 C1892 0.929 . S
C1884 H1878 0.930 . S
C1884 C1885 1.367 . S
C1884 C1892 1.378 . S
C1885 C1884 1.367 . S
C1885 C1893 1.433 . S
C1886 H1882 0.929 . S
C1886 C1888 1.378 . S
C1886 C1890 1.350 . S
C1887 C1890 1.463 . S
C1887 C1892 1.350 . S
C1887 N1895 1.427 . S
C1888 H1879 0.930 . S
C1888 C1886 1.378 . S
C1888 C1889 1.367 . S
C1889 C1888 1.367 . S
C1889 C1891 1.433 . S
C1890 C1886 1.350 . S
C1890 C1887 1.463 . S
C1890 N1894 1.427 . S
C1891 H1881 0.929 . S
C1891 C1889 1.433 . S
C1891 N1894 1.384 . S
C1892 H1883 0.929 . S
C1892 C1884 1.378 . S
C1892 C1887 1.350 . S
C1893 H1880 0.929 . S
C1893 C1885 1.433 . S
C1893 N1895 1.384 . S
N1894 C1890 1.427 . S
N1894 C1891 1.384 . S
N1895 C1887 1.427 . S
N1895 C1893 1.384 . S
H1896 C1902 0.930 . S
H1897 C1906 0.930 . S
H1898 C1911 0.929 . S
H1899 C1909 0.929 . S
H1900 C1904 0.929 . S
H1901 C1910 0.929 . S
C1902 H1896 0.930 . S
C1902 C1903 1.367 1_565 S
C1902 C1910 1.378 . S
C1903 C1902 1.367 1_545 S
C1903 C1911 1.433 . S
C1904 H1900 0.929 . S
C1904 C1906 1.378 . S
C1904 C1908 1.350 . S
C1905 C1908 1.463 . S
C1905 C1910 1.350 1_545 S
C1905 N1913 1.427 . S
C1906 H1897 0.930 . S
C1906 C1904 1.378 . S
C1906 C1907 1.367 . S
C1907 C1906 1.367 . S
C1907 C1909 1.433 1_545 S
C1908 C1904 1.350 . S
C1908 C1905 1.463 . S
C1908 N1912 1.427 1_545 S
C1909 H1899 0.929 . S
C1909 C1907 1.433 1_565 S
C1909 N1912 1.384 . S
C1910 H1901 0.929 . S
C1910 C1902 1.378 . S
C1910 C1905 1.350 1_565 S
C1911 H1898 0.929 . S
C1911 C1903 1.433 . S
C1911 N1913 1.384 . S
N1912 C1908 1.427 1_565 S
N1912 C1909 1.384 . S
N1913 C1905 1.427 . S
N1913 C1911 1.384 . S
H1914 C1920 0.930 . S
H1915 C1924 0.927 1_655 S
H1916 C1929 0.929 1_655 S
H1917 C1927 0.929 . S
H1918 C1922 0.929 1_655 S
H1919 C1928 0.929 . S
C1920 H1914 0.930 . S
C1920 C1921 1.367 . S
C1920 C1928 1.378 . S
C1921 C1920 1.367 . S
C1921 C1929 1.433 . S
C1922 H1918 0.929 1_455 S
C1922 C1924 1.378 . S
C1922 C1926 1.350 . S
C1923 C1926 1.463 . S
C1923 C1928 1.350 . S
C1923 N1931 1.427 . S
C1924 H1915 0.927 1_455 S
C1924 C1922 1.378 . S
C1924 C1925 1.367 . S
C1925 C1924 1.367 . S
C1925 C1927 1.433 . S
C1926 C1922 1.350 . S
C1926 C1923 1.463 . S
C1926 N1930 1.427 . S
C1927 H1917 0.929 . S
C1927 C1925 1.433 . S
C1927 N1930 1.384 . S
C1928 H1919 0.929 . S
C1928 C1920 1.378 . S
C1928 C1923 1.350 . S
C1929 H1916 0.929 1_455 S
C1929 C1921 1.433 . S
C1929 N1931 1.384 . S
N1930 C1926 1.427 . S
N1930 C1927 1.384 . S
N1931 C1923 1.427 . S
N1931 C1929 1.384 . S
H1932 C1938 0.930 . S
H1933 C1942 0.930 1_565 S
H1934 C1947 0.929 . S
H1935 C1945 0.929 . S
H1936 C1940 0.929 1_565 S
H1937 C1946 0.929 . S
C1938 H1932 0.930 . S
C1938 C1939 1.367 . S
C1938 C1946 1.378 . S
C1939 C1938 1.367 . S
C1939 C1947 1.433 . S
C1940 H1936 0.929 1_545 S
C1940 C1942 1.378 . S
C1940 C1944 1.350 . S
C1941 C1944 1.463 . S
C1941 C1946 1.350 . S
C1941 N1949 1.427 . S
C1942 H1933 0.930 1_545 S
C1942 C1940 1.378 . S
C1942 C1943 1.367 . S
C1943 C1942 1.367 . S
C1943 C1945 1.433 . S
C1944 C1940 1.350 . S
C1944 C1941 1.463 . S
C1944 N1948 1.427 . S
C1945 H1935 0.929 . S
C1945 C1943 1.433 . S
C1945 N1948 1.384 . S
C1946 H1937 0.929 . S
C1946 C1938 1.378 . S
C1946 C1941 1.350 . S
C1947 H1934 0.929 . S
C1947 C1939 1.433 . S
C1947 N1949 1.384 . S
N1948 C1944 1.427 . S
N1948 C1945 1.384 . S
N1949 C1941 1.427 . S
N1949 C1947 1.384 . S
H1950 C1956 0.930 . S
H1951 C1960 0.930 1_655 S
H1952 C1965 0.929 . S
H1953 C1963 0.929 . S
H1954 C1958 0.929 . S
H1955 C1964 0.929 . S
C1956 H1950 0.930 . S
C1956 C1957 1.367 . S
C1956 C1964 1.378 . S
C1957 C1956 1.367 . S
C1957 C1965 1.433 1_455 S
C1958 H1954 0.929 . S
C1958 C1960 1.378 1_655 S
C1958 C1962 1.350 1_655 S
C1959 C1962 1.463 . S
C1959 C1964 1.350 . S
C1959 N1967 1.427 1_455 S
C1960 H1951 0.930 1_455 S
C1960 C1958 1.378 1_455 S
C1960 C1961 1.367 . S
C1961 C1960 1.367 . S
C1961 C1963 1.433 . S
C1962 C1958 1.350 1_455 S
C1962 C1959 1.463 . S
C1962 N1966 1.427 . S
C1963 H1953 0.929 . S
C1963 C1961 1.433 . S
C1963 N1966 1.384 . S
C1964 H1955 0.929 . S
C1964 C1956 1.378 . S
C1964 C1959 1.350 . S
C1965 H1952 0.929 . S
C1965 C1957 1.433 1_655 S
C1965 N1967 1.384 . S
N1966 C1962 1.427 . S
N1966 C1963 1.384 . S
N1967 C1959 1.427 1_655 S
N1967 C1965 1.384 . S
H1968 C1974 0.918 1_556 S
H1969 C1978 0.930 . S
H1970 C1983 0.929 . S
H1971 C1981 0.929 . S
H1972 C1976 0.929 . S
H1973 C1982 0.927 1_556 S
C1974 H1968 0.918 1_554 S
C1974 C1975 1.380 . S
C1974 C1982 1.378 . S
C1975 C1974 1.380 . S
C1975 C1983 1.433 . S
C1976 H1972 0.929 . S
C1976 C1978 1.378 . S
C1976 C1980 1.350 . S
C1977 C1980 1.463 . S
C1977 C1982 1.351 . S
C1977 N1985 1.427 . S
C1978 H1969 0.930 . S
C1978 C1976 1.378 . S
C1978 C1979 1.367 . S
C1979 C1978 1.367 . S
C1979 C1981 1.433 1_554 S
C1980 C1976 1.350 . S
C1980 C1977 1.463 . S
C1980 N1984 1.410 1_554 S
C1981 H1971 0.929 . S
C1981 C1979 1.433 1_556 S
C1981 N1984 1.384 . S
C1982 H1973 0.927 1_554 S
C1982 C1974 1.378 . S
C1982 C1977 1.351 . S
C1983 H1970 0.929 . S
C1983 C1975 1.433 . S
C1983 N1985 1.384 . S
N1984 C1980 1.410 1_556 S
N1984 C1981 1.384 . S
N1985 C1977 1.427 . S
N1985 C1983 1.384 . S
H1986 C1992 0.930 . S
H1987 C1996 0.930 . S
H1988 C2001 0.929 . S
H1989 C1999 0.929 . S
H1990 C1994 0.929 . S
H1991 C2000 0.929 . S
C1992 H1986 0.930 . S
C1992 C1993 1.367 . S
C1992 C2000 1.378 . S
C1993 C1992 1.367 . S
C1993 C2001 1.433 1_554 S
C1994 H1990 0.929 . S
C1994 C1996 1.378 . S
C1994 C1998 1.350 1_556 S
C1995 C1998 1.463 . S
C1995 C2000 1.350 . S
C1995 N2003 1.427 1_554 S
C1996 H1987 0.930 . S
C1996 C1994 1.378 . S
C1996 C1997 1.367 1_556 S
C1997 C1996 1.367 1_554 S
C1997 C1999 1.433 . S
C1998 C1994 1.350 1_554 S
C1998 C1995 1.463 . S
C1998 N2002 1.427 . S
C1999 H1989 0.929 . S
C1999 C1997 1.433 . S
C1999 N2002 1.384 . S
C2000 H1991 0.929 . S
C2000 C1992 1.378 . S
C2000 C1995 1.350 . S
C2001 H1988 0.929 . S
C2001 C1993 1.433 1_556 S
C2001 N2003 1.384 . S
N2002 C1998 1.427 . S
N2002 C1999 1.384 . S
N2003 C1995 1.427 1_556 S
N2003 C2001 1.384 . S
H2004 C2010 0.930 . S
H2005 C2014 0.930 . S
H2006 C2019 0.929 . S
H2007 C2017 0.929 . S
H2008 C2012 0.929 . S
H2009 C2018 0.929 . S
C2010 H2004 0.930 . S
C2010 C2011 1.367 1_556 S
C2010 C2018 1.378 . S
C2011 C2010 1.367 1_554 S
C2011 C2019 1.433 . S
C2012 H2008 0.929 . S
C2012 C2014 1.378 . S
C2012 C2016 1.350 . S
C2013 C2016 1.463 . S
C2013 C2018 1.350 1_554 S
C2013 N2021 1.427 . S
C2014 H2005 0.930 . S
C2014 C2012 1.378 . S
C2014 C2015 1.367 . S
C2015 C2014 1.367 . S
C2015 C2017 1.433 1_554 S
C2016 C2012 1.350 . S
C2016 C2013 1.463 . S
C2016 N2020 1.427 1_554 S
C2017 H2007 0.929 . S
C2017 C2015 1.433 1_556 S
C2017 N2020 1.384 . S
C2018 H2009 0.929 . S
C2018 C2010 1.378 . S
C2018 C2013 1.350 1_556 S
C2019 H2006 0.929 . S
C2019 C2011 1.433 . S
C2019 N2021 1.384 . S
N2020 C2016 1.427 1_556 S
N2020 C2017 1.384 . S
N2021 C2013 1.427 . S
N2021 C2019 1.384 . S
H2022 C2028 0.930 . S
H2023 C2032 0.930 . S
H2024 C2037 0.929 . S
H2025 C2035 0.929 . S
H2026 C2030 0.929 . S
H2027 C2036 0.929 . S
C2028 H2022 0.930 . S
C2028 C2029 1.367 . S
C2028 C2036 1.378 . S
C2029 C2028 1.367 . S
C2029 C2037 1.433 1_554 S
C2030 H2026 0.929 . S
C2030 C2032 1.378 . S
C2030 C2034 1.350 1_556 S
C2031 C2034 1.463 . S
C2031 C2036 1.350 . S
C2031 N2039 1.427 1_554 S
C2032 H2023 0.930 . S
C2032 C2030 1.378 . S
C2032 C2033 1.367 1_556 S
C2033 C2032 1.367 1_554 S
C2033 C2035 1.433 . S
C2034 C2030 1.350 1_554 S
C2034 C2031 1.463 . S
C2034 N2038 1.427 . S
C2035 H2025 0.929 . S
C2035 C2033 1.433 . S
C2035 N2038 1.384 . S
C2036 H2027 0.929 . S
C2036 C2028 1.378 . S
C2036 C2031 1.350 . S
C2037 H2024 0.929 . S
C2037 C2029 1.433 1_556 S
C2037 N2039 1.384 . S
N2038 C2034 1.427 . S
N2038 C2035 1.384 . S
N2039 C2031 1.427 1_556 S
N2039 C2037 1.384 . S
H2040 C2046 0.930 . S
H2041 C2050 0.930 . S
H2042 C2055 0.928 1_556 S
H2043 C2053 0.929 . S
H2044 C2048 0.929 . S
H2045 C2054 0.929 . S
C2046 H2040 0.930 . S
C2046 C2047 1.367 . S
C2046 C2054 1.378 . S
C2047 C2046 1.367 . S
C2047 C2055 1.433 . S
C2048 H2044 0.929 . S
C2048 C2050 1.378 . S
C2048 C2052 1.350 . S
C2049 C2052 1.463 . S
C2049 C2054 1.350 . S
C2049 N2057 1.427 . S
C2050 H2041 0.930 . S
C2050 C2048 1.378 . S
C2050 C2051 1.367 . S
C2051 C2050 1.367 . S
C2051 C2053 1.433 . S
C2052 C2048 1.350 . S
C2052 C2049 1.463 . S
C2052 N2056 1.427 . S
C2053 H2043 0.929 . S
C2053 C2051 1.433 . S
C2053 N2056 1.384 . S
C2054 H2045 0.929 . S
C2054 C2046 1.378 . S
C2054 C2049 1.350 . S
C2055 H2042 0.928 1_554 S
C2055 C2047 1.433 . S
C2055 N2057 1.384 . S
N2056 C2052 1.427 . S
N2056 C2053 1.384 . S
N2057 C2049 1.427 . S
N2057 C2055 1.384 . S
H2058 C2064 0.930 . S
H2059 C2068 0.930 . S
H2060 C2073 0.929 . S
H2061 C2071 0.929 . S
H2062 C2066 0.929 . S
H2063 C2072 0.929 . S
C2064 H2058 0.930 . S
C2064 C2065 1.367 . S
C2064 C2072 1.378 . S
C2065 C2064 1.367 . S
C2065 C2073 1.433 1_554 S
C2066 H2062 0.929 . S
C2066 C2068 1.378 . S
C2066 C2070 1.350 1_556 S
C2067 C2070 1.463 . S
C2067 C2072 1.350 . S
C2067 N2075 1.427 1_554 S
C2068 H2059 0.930 . S
C2068 C2066 1.378 . S
C2068 C2069 1.367 1_556 S
C2069 C2068 1.367 1_554 S
C2069 C2071 1.433 . S
C2070 C2066 1.350 1_554 S
C2070 C2067 1.463 . S
C2070 N2074 1.427 . S
C2071 H2061 0.929 . S
C2071 C2069 1.433 . S
C2071 N2074 1.384 . S
C2072 H2063 0.929 . S
C2072 C2064 1.378 . S
C2072 C2067 1.350 . S
C2073 H2060 0.929 . S
C2073 C2065 1.433 1_556 S
C2073 N2075 1.384 . S
N2074 C2070 1.427 . S
N2074 C2071 1.384 . S
N2075 C2067 1.427 1_556 S
N2075 C2073 1.384 . S
H2076 C2082 0.930 1_556 S
H2077 C2086 0.930 . S
H2078 C2091 0.929 . S
H2079 C2089 0.923 1_556 S
H2080 C2084 0.929 . S
H2081 C2090 0.929 1_556 S
C2082 H2076 0.930 1_554 S
C2082 C2083 1.367 . S
C2082 C2090 1.378 . S
C2083 C2082 1.367 . S
C2083 C2091 1.433 . S
C2084 H2080 0.929 . S
C2084 C2086 1.378 . S
C2084 C2088 1.350 . S
C2085 C2088 1.463 . S
C2085 C2090 1.350 . S
C2085 N2093 1.427 . S
C2086 H2077 0.930 . S
C2086 C2084 1.378 . S
C2086 C2087 1.367 . S
C2087 C2086 1.367 . S
C2087 C2089 1.439 . S
C2088 C2084 1.350 . S
C2088 C2085 1.463 . S
C2088 N2092 1.427 . S
C2089 H2079 0.923 1_554 S
C2089 C2087 1.439 . S
C2089 N2092 1.384 . S
C2090 H2081 0.929 1_554 S
C2090 C2082 1.378 . S
C2090 C2085 1.350 . S
C2091 H2078 0.929 . S
C2091 C2083 1.433 . S
C2091 N2093 1.384 . S
N2092 C2088 1.427 . S
N2092 C2089 1.384 . S
N2093 C2085 1.427 . S
N2093 C2091 1.384 . S
H2094 C2100 0.930 . S
H2095 C2104 0.930 . S
H2096 C2109 0.929 . S
H2097 C2107 0.929 . S
H2098 C2102 0.929 . S
H2099 C2108 0.929 . S
C2100 H2094 0.930 . S
C2100 C2101 1.367 . S
C2100 C2108 1.378 . S
C2101 C2100 1.367 . S
C2101 C2109 1.433 1_554 S
C2102 H2098 0.929 . S
C2102 C2104 1.378 . S
C2102 C2106 1.350 1_556 S
C2103 C2106 1.463 . S
C2103 C2108 1.350 . S
C2103 N2111 1.427 1_554 S
C2104 H2095 0.930 . S
C2104 C2102 1.378 . S
C2104 C2105 1.367 1_556 S
C2105 C2104 1.367 1_554 S
C2105 C2107 1.433 . S
C2106 C2102 1.350 1_554 S
C2106 C2103 1.463 . S
C2106 N2110 1.427 . S
C2107 H2097 0.929 . S
C2107 C2105 1.433 . S
C2107 N2110 1.384 . S
C2108 H2099 0.929 . S
C2108 C2100 1.378 . S
C2108 C2103 1.350 . S
C2109 H2096 0.929 . S
C2109 C2101 1.433 1_556 S
C2109 N2111 1.384 . S
N2110 C2106 1.427 . S
N2110 C2107 1.384 . S
N2111 C2103 1.427 1_556 S
N2111 C2109 1.384 . S
H2112 C2118 0.930 . S
H2113 C2122 0.930 . S
H2114 C2127 0.929 . S
H2115 C2125 0.929 . S
H2116 C2120 0.929 . S
H2117 C2126 0.929 . S
C2118 H2112 0.930 . S
C2118 C2119 1.367 . S
C2118 C2126 1.378 . S
C2119 C2118 1.367 . S
C2119 C2127 1.433 . S
C2120 H2116 0.929 . S
C2120 C2122 1.378 . S
C2120 C2124 1.350 . S
C2121 C2124 1.463 . S
C2121 C2126 1.350 . S
C2121 N2129 1.427 . S
C2122 H2113 0.930 . S
C2122 C2120 1.378 . S
C2122 C2123 1.367 . S
C2123 C2122 1.367 . S
C2123 C2125 1.433 . S
C2124 C2120 1.350 . S
C2124 C2121 1.463 . S
C2124 N2128 1.427 . S
C2125 H2115 0.929 . S
C2125 C2123 1.433 . S
C2125 N2128 1.384 . S
C2126 H2117 0.929 . S
C2126 C2118 1.378 . S
C2126 C2121 1.350 . S
C2127 H2114 0.929 . S
C2127 C2119 1.433 . S
C2127 N2129 1.384 . S
N2128 C2124 1.427 . S
N2128 C2125 1.384 . S
N2129 C2121 1.427 . S
N2129 C2127 1.384 . S
H2130 C2136 0.930 . S
H2131 C2140 0.930 . S
H2132 C2145 0.929 . S
H2133 C2143 0.929 . S
H2134 C2138 0.929 . S
H2135 C2144 0.929 . S
C2136 H2130 0.930 . S
C2136 C2137 1.367 . S
C2136 C2144 1.378 . S
C2137 C2136 1.367 . S
C2137 C2145 1.433 . S
C2138 H2134 0.929 . S
C2138 C2140 1.378 . S
C2138 C2142 1.350 . S
C2139 C2142 1.463 . S
C2139 C2144 1.350 . S
C2139 N2147 1.427 . S
C2140 H2131 0.930 . S
C2140 C2138 1.378 . S
C2140 C2141 1.367 . S
C2141 C2140 1.367 . S
C2141 C2143 1.433 . S
C2142 C2138 1.350 . S
C2142 C2139 1.463 . S
C2142 N2146 1.427 . S
C2143 H2133 0.929 . S
C2143 C2141 1.433 . S
C2143 N2146 1.384 . S
C2144 H2135 0.929 . S
C2144 C2136 1.378 . S
C2144 C2139 1.350 . S
C2145 H2132 0.929 . S
C2145 C2137 1.433 . S
C2145 N2147 1.384 . S
N2146 C2142 1.427 . S
N2146 C2143 1.384 . S
N2147 C2139 1.427 . S
N2147 C2145 1.384 . S
H2148 C2154 0.930 . S
H2149 C2158 0.930 . S
H2150 C2163 0.929 . S
H2151 C2161 0.929 . S
H2152 C2156 0.929 . S
H2153 C2162 0.929 . S
C2154 H2148 0.930 . S
C2154 C2155 1.367 . S
C2154 C2162 1.378 . S
C2155 C2154 1.367 . S
C2155 C2163 1.433 . S
C2156 H2152 0.929 . S
C2156 C2158 1.378 . S
C2156 C2160 1.350 . S
C2157 C2160 1.463 . S
C2157 C2162 1.350 . S
C2157 N2165 1.427 . S
C2158 H2149 0.930 . S
C2158 C2156 1.378 . S
C2158 C2159 1.367 . S
C2159 C2158 1.367 . S
C2159 C2161 1.433 . S
C2160 C2156 1.350 . S
C2160 C2157 1.463 . S
C2160 N2164 1.427 . S
C2161 H2151 0.929 . S
C2161 C2159 1.433 . S
C2161 N2164 1.384 . S
C2162 H2153 0.929 . S
C2162 C2154 1.378 . S
C2162 C2157 1.350 . S
C2163 H2150 0.929 . S
C2163 C2155 1.433 . S
C2163 N2165 1.384 . S
N2164 C2160 1.427 . S
N2164 C2161 1.384 . S
N2165 C2157 1.427 . S
N2165 C2163 1.384 . S
H2166 C2172 0.930 . S
H2167 C2176 0.930 . S
H2168 C2181 0.929 . S
H2169 C2179 0.929 . S
H2170 C2174 0.929 . S
H2171 C2180 0.929 . S
C2172 H2166 0.930 . S
C2172 C2173 1.367 . S
C2172 C2180 1.378 . S
C2173 C2172 1.367 . S
C2173 C2181 1.433 . S
C2174 H2170 0.929 . S
C2174 C2176 1.378 . S
C2174 C2178 1.350 . S
C2175 C2178 1.463 . S
C2175 C2180 1.350 . S
C2175 N2183 1.427 . S
C2176 H2167 0.930 . S
C2176 C2174 1.378 . S
C2176 C2177 1.367 . S
C2177 C2176 1.367 . S
C2177 C2179 1.433 . S
C2178 C2174 1.350 . S
C2178 C2175 1.463 . S
C2178 N2182 1.427 . S
C2179 H2169 0.929 . S
C2179 C2177 1.433 . S
C2179 N2182 1.384 . S
C2180 H2171 0.929 . S
C2180 C2172 1.378 . S
C2180 C2175 1.350 . S
C2181 H2168 0.929 . S
C2181 C2173 1.433 . S
C2181 N2183 1.384 . S
N2182 C2178 1.427 . S
N2182 C2179 1.384 . S
N2183 C2175 1.427 . S
N2183 C2181 1.384 . S
H2184 C2190 0.930 . S
H2185 C2194 0.930 . S
H2186 C2199 0.929 . S
H2187 C2197 0.929 . S
H2188 C2192 0.929 . S
H2189 C2198 0.929 . S
C2190 H2184 0.930 . S
C2190 C2191 1.367 . S
C2190 C2198 1.378 . S
C2191 C2190 1.367 . S
C2191 C2199 1.433 . S
C2192 H2188 0.929 . S
C2192 C2194 1.378 . S
C2192 C2196 1.350 . S
C2193 C2196 1.463 . S
C2193 C2198 1.350 . S
C2193 N2201 1.427 . S
C2194 H2185 0.930 . S
C2194 C2192 1.378 . S
C2194 C2195 1.367 . S
C2195 C2194 1.367 . S
C2195 C2197 1.433 . S
C2196 C2192 1.350 . S
C2196 C2193 1.463 . S
C2196 N2200 1.427 . S
C2197 H2187 0.929 . S
C2197 C2195 1.433 . S
C2197 N2200 1.384 . S
C2198 H2189 0.929 . S
C2198 C2190 1.378 . S
C2198 C2193 1.350 . S
C2199 H2186 0.929 . S
C2199 C2191 1.433 . S
C2199 N2201 1.384 . S
N2200 C2196 1.427 . S
N2200 C2197 1.384 . S
N2201 C2193 1.427 . S
N2201 C2199 1.384 . S
H2202 C2208 0.930 . S
H2203 C2212 0.930 . S
H2204 C2217 0.929 . S
H2205 C2215 0.929 . S
H2206 C2210 0.929 . S
H2207 C2216 0.929 . S
C2208 H2202 0.930 . S
C2208 C2209 1.367 . S
C2208 C2216 1.378 . S
C2209 C2208 1.367 . S
C2209 C2217 1.433 . S
C2210 H2206 0.929 . S
C2210 C2212 1.378 . S
C2210 C2214 1.350 . S
C2211 C2214 1.463 . S
C2211 C2216 1.350 . S
C2211 N2219 1.427 . S
C2212 H2203 0.930 . S
C2212 C2210 1.378 . S
C2212 C2213 1.367 . S
C2213 C2212 1.367 . S
C2213 C2215 1.433 . S
C2214 C2210 1.350 . S
C2214 C2211 1.463 . S
C2214 N2218 1.427 . S
C2215 H2205 0.929 . S
C2215 C2213 1.433 . S
C2215 N2218 1.384 . S
C2216 H2207 0.929 . S
C2216 C2208 1.378 . S
C2216 C2211 1.350 . S
C2217 H2204 0.929 . S
C2217 C2209 1.433 . S
C2217 N2219 1.384 . S
N2218 C2214 1.427 . S
N2218 C2215 1.384 . S
N2219 C2211 1.427 . S
N2219 C2217 1.384 . S
H2220 C2226 0.930 . S
H2221 C2230 0.930 . S
H2222 C2235 0.929 . S
H2223 C2233 0.929 . S
H2224 C2228 0.929 . S
H2225 C2234 0.929 . S
C2226 H2220 0.930 . S
C2226 C2227 1.367 . S
C2226 C2234 1.378 . S
C2227 C2226 1.367 . S
C2227 C2235 1.433 . S
C2228 H2224 0.929 . S
C2228 C2230 1.378 . S
C2228 C2232 1.350 . S
C2229 C2232 1.463 . S
C2229 C2234 1.350 . S
C2229 N2237 1.427 . S
C2230 H2221 0.930 . S
C2230 C2228 1.378 . S
C2230 C2231 1.367 . S
C2231 C2230 1.367 . S
C2231 C2233 1.433 . S
C2232 C2228 1.350 . S
C2232 C2229 1.463 . S
C2232 N2236 1.427 . S
C2233 H2223 0.929 . S
C2233 C2231 1.433 . S
C2233 N2236 1.384 . S
C2234 H2225 0.929 . S
C2234 C2226 1.378 . S
C2234 C2229 1.350 . S
C2235 H2222 0.929 . S
C2235 C2227 1.433 . S
C2235 N2237 1.384 . S
N2236 C2232 1.427 . S
N2236 C2233 1.384 . S
N2237 C2229 1.427 . S
N2237 C2235 1.384 . S
H2238 C2244 0.930 . S
H2239 C2248 0.930 . S
H2240 C2253 0.929 . S
H2241 C2251 0.929 . S
H2242 C2246 0.929 . S
H2243 C2252 0.929 . S
C2244 H2238 0.930 . S
C2244 C2245 1.367 . S
C2244 C2252 1.378 . S
C2245 C2244 1.367 . S
C2245 C2253 1.433 . S
C2246 H2242 0.929 . S
C2246 C2248 1.378 . S
C2246 C2250 1.350 . S
C2247 C2250 1.463 . S
C2247 C2252 1.350 . S
C2247 N2255 1.427 . S
C2248 H2239 0.930 . S
C2248 C2246 1.378 . S
C2248 C2249 1.367 . S
C2249 C2248 1.367 . S
C2249 C2251 1.433 . S
C2250 C2246 1.350 . S
C2250 C2247 1.463 . S
C2250 N2254 1.427 . S
C2251 H2241 0.929 . S
C2251 C2249 1.433 . S
C2251 N2254 1.384 . S
C2252 H2243 0.929 . S
C2252 C2244 1.378 . S
C2252 C2247 1.350 . S
C2253 H2240 0.929 . S
C2253 C2245 1.433 . S
C2253 N2255 1.384 . S
N2254 C2250 1.427 . S
N2254 C2251 1.384 . S
N2255 C2247 1.427 . S
N2255 C2253 1.384 . S
H2256 C2262 0.930 . S
H2257 C2266 0.930 . S
H2258 C2271 0.929 . S
H2259 C2269 0.929 . S
H2260 C2264 0.929 . S
H2261 C2270 0.929 . S
C2262 H2256 0.930 . S
C2262 C2263 1.367 . S
C2262 C2270 1.378 . S
C2263 C2262 1.367 . S
C2263 C2271 1.433 . S
C2264 H2260 0.929 . S
C2264 C2266 1.378 . S
C2264 C2268 1.350 . S
C2265 C2268 1.463 . S
C2265 C2270 1.350 . S
C2265 N2273 1.427 . S
C2266 H2257 0.930 . S
C2266 C2264 1.378 . S
C2266 C2267 1.367 . S
C2267 C2266 1.367 . S
C2267 C2269 1.433 . S
C2268 C2264 1.350 . S
C2268 C2265 1.463 . S
C2268 N2272 1.427 . S
C2269 H2259 0.929 . S
C2269 C2267 1.433 . S
C2269 N2272 1.384 . S
C2270 H2261 0.929 . S
C2270 C2262 1.378 . S
C2270 C2265 1.350 . S
C2271 H2258 0.929 . S
C2271 C2263 1.433 . S
C2271 N2273 1.384 . S
N2272 C2268 1.427 . S
N2272 C2269 1.384 . S
N2273 C2265 1.427 . S
N2273 C2271 1.384 . S
H2274 C2280 0.930 . S
H2275 C2284 0.930 . S
H2276 C2289 0.929 . S
H2277 C2287 0.929 . S
H2278 C2282 0.929 . S
H2279 C2288 0.929 . S
C2280 H2274 0.930 . S
C2280 C2281 1.367 . S
C2280 C2288 1.378 . S
C2281 C2280 1.367 . S
C2281 C2289 1.433 . S
C2282 H2278 0.929 . S
C2282 C2284 1.378 . S
C2282 C2286 1.350 . S
C2283 C2286 1.463 . S
C2283 C2288 1.350 . S
C2283 N2291 1.427 . S
C2284 H2275 0.930 . S
C2284 C2282 1.378 . S
C2284 C2285 1.367 . S
C2285 C2284 1.367 . S
C2285 C2287 1.433 . S
C2286 C2282 1.350 . S
C2286 C2283 1.463 . S
C2286 N2290 1.427 . S
C2287 H2277 0.929 . S
C2287 C2285 1.433 . S
C2287 N2290 1.384 . S
C2288 H2279 0.929 . S
C2288 C2280 1.378 . S
C2288 C2283 1.350 . S
C2289 H2276 0.929 . S
C2289 C2281 1.433 . S
C2289 N2291 1.384 . S
N2290 C2286 1.427 . S
N2290 C2287 1.384 . S
N2291 C2283 1.427 . S
N2291 C2289 1.384 . S
H2292 C2298 0.930 . S
H2293 C2302 0.930 . S
H2294 C2307 0.929 . S
H2295 C2305 0.929 . S
H2296 C2300 0.929 . S
H2297 C2306 0.929 . S
C2298 H2292 0.930 . S
C2298 C2299 1.367 . S
C2298 C2306 1.378 . S
C2299 C2298 1.367 . S
C2299 C2307 1.433 . S
C2300 H2296 0.929 . S
C2300 C2302 1.378 . S
C2300 C2304 1.350 . S
C2301 C2304 1.463 . S
C2301 C2306 1.350 . S
C2301 N2309 1.427 . S
C2302 H2293 0.930 . S
C2302 C2300 1.378 . S
C2302 C2303 1.367 . S
C2303 C2302 1.367 . S
C2303 C2305 1.433 . S
C2304 C2300 1.350 . S
C2304 C2301 1.463 . S
C2304 N2308 1.427 . S
C2305 H2295 0.929 . S
C2305 C2303 1.433 . S
C2305 N2308 1.384 . S
C2306 H2297 0.929 . S
C2306 C2298 1.378 . S
C2306 C2301 1.350 . S
C2307 H2294 0.929 . S
C2307 C2299 1.433 . S
C2307 N2309 1.384 . S
N2308 C2304 1.427 . S
N2308 C2305 1.384 . S
N2309 C2301 1.427 . S
N2309 C2307 1.384 . S
H2310 C2316 0.930 . S
H2311 C2320 0.930 . S
H2312 C2325 0.929 . S
H2313 C2323 0.929 . S
H2314 C2318 0.929 . S
H2315 C2324 0.929 . S
C2316 H2310 0.930 . S
C2316 C2317 1.367 . S
C2316 C2324 1.378 . S
C2317 C2316 1.367 . S
C2317 C2325 1.433 . S
C2318 H2314 0.929 . S
C2318 C2320 1.378 . S
C2318 C2322 1.350 . S
C2319 C2322 1.463 . S
C2319 C2324 1.350 . S
C2319 N2327 1.427 . S
C2320 H2311 0.930 . S
C2320 C2318 1.378 . S
C2320 C2321 1.367 . S
C2321 C2320 1.367 . S
C2321 C2323 1.433 . S
C2322 C2318 1.350 . S
C2322 C2319 1.463 . S
C2322 N2326 1.427 . S
C2323 H2313 0.929 . S
C2323 C2321 1.433 . S
C2323 N2326 1.384 . S
C2324 H2315 0.929 . S
C2324 C2316 1.378 . S
C2324 C2319 1.350 . S
C2325 H2312 0.929 . S
C2325 C2317 1.433 . S
C2325 N2327 1.384 . S
N2326 C2322 1.427 . S
N2326 C2323 1.384 . S
N2327 C2319 1.427 . S
N2327 C2325 1.384 . S
H2328 C2334 0.930 . S
H2329 C2338 0.930 . S
H2330 C2343 0.929 . S
H2331 C2341 0.929 . S
H2332 C2336 0.929 . S
H2333 C2342 0.929 . S
C2334 H2328 0.930 . S
C2334 C2335 1.367 . S
C2334 C2342 1.378 . S
C2335 C2334 1.367 . S
C2335 C2343 1.433 . S
C2336 H2332 0.929 . S
C2336 C2338 1.378 . S
C2336 C2340 1.350 . S
C2337 C2340 1.463 . S
C2337 C2342 1.350 . S
C2337 N2345 1.427 . S
C2338 H2329 0.930 . S
C2338 C2336 1.378 . S
C2338 C2339 1.367 . S
C2339 C2338 1.367 . S
C2339 C2341 1.433 . S
C2340 C2336 1.350 . S
C2340 C2337 1.463 . S
C2340 N2344 1.427 . S
C2341 H2331 0.929 . S
C2341 C2339 1.433 . S
C2341 N2344 1.384 . S
C2342 H2333 0.929 . S
C2342 C2334 1.378 . S
C2342 C2337 1.350 . S
C2343 H2330 0.929 . S
C2343 C2335 1.433 . S
C2343 N2345 1.384 . S
N2344 C2340 1.427 . S
N2344 C2341 1.384 . S
N2345 C2337 1.427 . S
N2345 C2343 1.384 . S
H2346 C2352 0.930 . S
H2347 C2356 0.930 . S
H2348 C2361 0.929 . S
H2349 C2359 0.929 . S
H2350 C2354 0.929 . S
H2351 C2360 0.929 . S
C2352 H2346 0.930 . S
C2352 C2353 1.367 . S
C2352 C2360 1.378 . S
C2353 C2352 1.367 . S
C2353 C2361 1.433 . S
C2354 H2350 0.929 . S
C2354 C2356 1.378 . S
C2354 C2358 1.350 . S
C2355 C2358 1.463 . S
C2355 C2360 1.350 . S
C2355 N2363 1.427 . S
C2356 H2347 0.930 . S
C2356 C2354 1.378 . S
C2356 C2357 1.367 . S
C2357 C2356 1.367 . S
C2357 C2359 1.433 . S
C2358 C2354 1.350 . S
C2358 C2355 1.463 . S
C2358 N2362 1.427 . S
C2359 H2349 0.929 . S
C2359 C2357 1.433 . S
C2359 N2362 1.384 . S
C2360 H2351 0.929 . S
C2360 C2352 1.378 . S
C2360 C2355 1.350 . S
C2361 H2348 0.929 . S
C2361 C2353 1.433 . S
C2361 N2363 1.384 . S
N2362 C2358 1.427 . S
N2362 C2359 1.384 . S
N2363 C2355 1.427 . S
N2363 C2361 1.384 . S
H2364 C2370 0.930 . S
H2365 C2374 0.930 . S
H2366 C2379 0.929 . S
H2367 C2377 0.929 . S
H2368 C2372 0.929 . S
H2369 C2378 0.929 . S
C2370 H2364 0.930 . S
C2370 C2371 1.367 . S
C2370 C2378 1.378 . S
C2371 C2370 1.367 . S
C2371 C2379 1.433 . S
C2372 H2368 0.929 . S
C2372 C2374 1.378 . S
C2372 C2376 1.350 . S
C2373 C2376 1.463 . S
C2373 C2378 1.350 . S
C2373 N2381 1.427 . S
C2374 H2365 0.930 . S
C2374 C2372 1.378 . S
C2374 C2375 1.367 . S
C2375 C2374 1.367 . S
C2375 C2377 1.433 . S
C2376 C2372 1.350 . S
C2376 C2373 1.463 . S
C2376 N2380 1.427 . S
C2377 H2367 0.929 . S
C2377 C2375 1.433 . S
C2377 N2380 1.384 . S
C2378 H2369 0.929 . S
C2378 C2370 1.378 . S
C2378 C2373 1.350 . S
C2379 H2366 0.929 . S
C2379 C2371 1.433 . S
C2379 N2381 1.384 . S
N2380 C2376 1.427 . S
N2380 C2377 1.384 . S
N2381 C2373 1.427 . S
N2381 C2379 1.384 . S
H2382 C2388 0.930 . S
H2383 C2392 0.930 . S
H2384 C2397 0.929 . S
H2385 C2395 0.929 . S
H2386 C2390 0.929 . S
H2387 C2396 0.929 . S
C2388 H2382 0.930 . S
C2388 C2389 1.367 . S
C2388 C2396 1.378 . S
C2389 C2388 1.367 . S
C2389 C2397 1.433 . S
C2390 H2386 0.929 . S
C2390 C2392 1.378 . S
C2390 C2394 1.350 . S
C2391 C2394 1.463 . S
C2391 C2396 1.350 . S
C2391 N2399 1.427 . S
C2392 H2383 0.930 . S
C2392 C2390 1.378 . S
C2392 C2393 1.367 . S
C2393 C2392 1.367 . S
C2393 C2395 1.433 . S
C2394 C2390 1.350 . S
C2394 C2391 1.463 . S
C2394 N2398 1.427 . S
C2395 H2385 0.929 . S
C2395 C2393 1.433 . S
C2395 N2398 1.384 . S
C2396 H2387 0.929 . S
C2396 C2388 1.378 . S
C2396 C2391 1.350 . S
C2397 H2384 0.929 . S
C2397 C2389 1.433 . S
C2397 N2399 1.384 . S
N2398 C2394 1.427 . S
N2398 C2395 1.384 . S
N2399 C2391 1.427 . S
N2399 C2397 1.384 . S
H2400 C2406 0.930 . S
H2401 C2410 0.930 . S
H2402 C2415 0.929 . S
H2403 C2413 0.929 . S
H2404 C2408 0.929 . S
H2405 C2414 0.929 . S
C2406 H2400 0.930 . S
C2406 C2407 1.367 . S
C2406 C2414 1.378 . S
C2407 C2406 1.367 . S
C2407 C2415 1.433 . S
C2408 H2404 0.929 . S
C2408 C2410 1.378 . S
C2408 C2412 1.350 . S
C2409 C2412 1.463 . S
C2409 C2414 1.350 . S
C2409 N2417 1.427 . S
C2410 H2401 0.930 . S
C2410 C2408 1.378 . S
C2410 C2411 1.367 . S
C2411 C2410 1.367 . S
C2411 C2413 1.433 . S
C2412 C2408 1.350 . S
C2412 C2409 1.463 . S
C2412 N2416 1.427 . S
C2413 H2403 0.929 . S
C2413 C2411 1.433 . S
C2413 N2416 1.384 . S
C2414 H2405 0.929 . S
C2414 C2406 1.378 . S
C2414 C2409 1.350 . S
C2415 H2402 0.929 . S
C2415 C2407 1.433 . S
C2415 N2417 1.384 . S
N2416 C2412 1.427 . S
N2416 C2413 1.384 . S
N2417 C2409 1.427 . S
N2417 C2415 1.384 . S
H2418 C2424 0.930 . S
H2419 C2428 0.930 . S
H2420 C2433 0.929 . S
H2421 C2431 0.929 . S
H2422 C2426 0.929 . S
H2423 C2432 0.929 . S
C2424 H2418 0.930 . S
C2424 C2425 1.367 . S
C2424 C2432 1.378 . S
C2425 C2424 1.367 . S
C2425 C2433 1.433 . S
C2426 H2422 0.929 . S
C2426 C2428 1.378 . S
C2426 C2430 1.350 . S
C2427 C2430 1.463 . S
C2427 C2432 1.350 . S
C2427 N2435 1.427 . S
C2428 H2419 0.930 . S
C2428 C2426 1.378 . S
C2428 C2429 1.367 . S
C2429 C2428 1.367 . S
C2429 C2431 1.433 . S
C2430 C2426 1.350 . S
C2430 C2427 1.463 . S
C2430 N2434 1.427 . S
C2431 H2421 0.929 . S
C2431 C2429 1.433 . S
C2431 N2434 1.384 . S
C2432 H2423 0.929 . S
C2432 C2424 1.378 . S
C2432 C2427 1.350 . S
C2433 H2420 0.929 . S
C2433 C2425 1.433 . S
C2433 N2435 1.384 . S
N2434 C2430 1.427 . S
N2434 C2431 1.384 . S
N2435 C2427 1.427 . S
N2435 C2433 1.384 . S
H2436 C2442 0.930 . S
H2437 C2446 0.930 . S
H2438 C2451 0.929 . S
H2439 C2449 0.929 . S
H2440 C2444 0.929 . S
H2441 C2450 0.929 . S
C2442 H2436 0.930 . S
C2442 C2443 1.367 . S
C2442 C2450 1.378 . S
C2443 C2442 1.367 . S
C2443 C2451 1.433 . S
C2444 H2440 0.929 . S
C2444 C2446 1.378 . S
C2444 C2448 1.350 . S
C2445 C2448 1.463 . S
C2445 C2450 1.350 . S
C2445 N2453 1.427 . S
C2446 H2437 0.930 . S
C2446 C2444 1.378 . S
C2446 C2447 1.367 . S
C2447 C2446 1.367 . S
C2447 C2449 1.433 . S
C2448 C2444 1.350 . S
C2448 C2445 1.463 . S
C2448 N2452 1.427 . S
C2449 H2439 0.929 . S
C2449 C2447 1.433 . S
C2449 N2452 1.384 . S
C2450 H2441 0.929 . S
C2450 C2442 1.378 . S
C2450 C2445 1.350 . S
C2451 H2438 0.929 . S
C2451 C2443 1.433 . S
C2451 N2453 1.384 . S
N2452 C2448 1.427 . S
N2452 C2449 1.384 . S
N2453 C2445 1.427 . S
N2453 C2451 1.384 . S
H2454 C2460 0.930 . S
H2455 C2464 0.930 . S
H2456 C2469 0.929 . S
H2457 C2467 0.929 . S
H2458 C2462 0.929 . S
H2459 C2468 0.929 . S
C2460 H2454 0.930 . S
C2460 C2461 1.367 . S
C2460 C2468 1.378 . S
C2461 C2460 1.367 . S
C2461 C2469 1.433 . S
C2462 H2458 0.929 . S
C2462 C2464 1.378 . S
C2462 C2466 1.350 . S
C2463 C2466 1.463 . S
C2463 C2468 1.350 . S
C2463 N2471 1.427 . S
C2464 H2455 0.930 . S
C2464 C2462 1.378 . S
C2464 C2465 1.367 . S
C2465 C2464 1.367 . S
C2465 C2467 1.433 . S
C2466 C2462 1.350 . S
C2466 C2463 1.463 . S
C2466 N2470 1.427 . S
C2467 H2457 0.929 . S
C2467 C2465 1.433 . S
C2467 N2470 1.384 . S
C2468 H2459 0.929 . S
C2468 C2460 1.378 . S
C2468 C2463 1.350 . S
C2469 H2456 0.929 . S
C2469 C2461 1.433 . S
C2469 N2471 1.384 . S
N2470 C2466 1.427 . S
N2470 C2467 1.384 . S
N2471 C2463 1.427 . S
N2471 C2469 1.384 . S
H2472 C2478 0.930 . S
H2473 C2482 0.930 . S
H2474 C2487 0.929 . S
H2475 C2485 0.929 . S
H2476 C2480 0.929 . S
H2477 C2486 0.929 . S
C2478 H2472 0.930 . S
C2478 C2479 1.367 . S
C2478 C2486 1.378 . S
C2479 C2478 1.367 . S
C2479 C2487 1.433 . S
C2480 H2476 0.929 . S
C2480 C2482 1.378 . S
C2480 C2484 1.350 . S
C2481 C2484 1.463 . S
C2481 C2486 1.350 . S
C2481 N2489 1.427 . S
C2482 H2473 0.930 . S
C2482 C2480 1.378 . S
C2482 C2483 1.367 . S
C2483 C2482 1.367 . S
C2483 C2485 1.433 . S
C2484 C2480 1.350 . S
C2484 C2481 1.463 . S
C2484 N2488 1.427 . S
C2485 H2475 0.929 . S
C2485 C2483 1.433 . S
C2485 N2488 1.384 . S
C2486 H2477 0.929 . S
C2486 C2478 1.378 . S
C2486 C2481 1.350 . S
C2487 H2474 0.929 . S
C2487 C2479 1.433 . S
C2487 N2489 1.384 . S
N2488 C2484 1.427 . S
N2488 C2485 1.384 . S
N2489 C2481 1.427 . S
N2489 C2487 1.384 . S
H2490 C2496 0.930 . S
H2491 C2500 0.930 . S
H2492 C2505 0.929 . S
H2493 C2503 0.929 . S
H2494 C2498 0.929 . S
H2495 C2504 0.929 . S
C2496 H2490 0.930 . S
C2496 C2497 1.367 . S
C2496 C2504 1.378 . S
C2497 C2496 1.367 . S
C2497 C2505 1.433 . S
C2498 H2494 0.929 . S
C2498 C2500 1.378 . S
C2498 C2502 1.350 . S
C2499 C2502 1.463 . S
C2499 C2504 1.350 . S
C2499 N2507 1.427 . S
C2500 H2491 0.930 . S
C2500 C2498 1.378 . S
C2500 C2501 1.367 . S
C2501 C2500 1.367 . S
C2501 C2503 1.433 . S
C2502 C2498 1.350 . S
C2502 C2499 1.463 . S
C2502 N2506 1.427 . S
C2503 H2493 0.929 . S
C2503 C2501 1.433 . S
C2503 N2506 1.384 . S
C2504 H2495 0.929 . S
C2504 C2496 1.378 . S
C2504 C2499 1.350 . S
C2505 H2492 0.929 . S
C2505 C2497 1.433 . S
C2505 N2507 1.384 . S
N2506 C2502 1.427 . S
N2506 C2503 1.384 . S
N2507 C2499 1.427 . S
N2507 C2505 1.384 . S
H2508 C2514 0.930 . S
H2509 C2518 0.930 . S
H2510 C2523 0.929 . S
H2511 C2521 0.929 . S
H2512 C2516 0.929 . S
H2513 C2522 0.929 . S
C2514 H2508 0.930 . S
C2514 C2515 1.367 . S
C2514 C2522 1.378 . S
C2515 C2514 1.367 . S
C2515 C2523 1.433 . S
C2516 H2512 0.929 . S
C2516 C2518 1.378 . S
C2516 C2520 1.350 . S
C2517 C2520 1.463 . S
C2517 C2522 1.350 . S
C2517 N2525 1.427 . S
C2518 H2509 0.930 . S
C2518 C2516 1.378 . S
C2518 C2519 1.367 . S
C2519 C2518 1.367 . S
C2519 C2521 1.433 . S
C2520 C2516 1.350 . S
C2520 C2517 1.463 . S
C2520 N2524 1.427 . S
C2521 H2511 0.929 . S
C2521 C2519 1.433 . S
C2521 N2524 1.384 . S
C2522 H2513 0.929 . S
C2522 C2514 1.378 . S
C2522 C2517 1.350 . S
C2523 H2510 0.929 . S
C2523 C2515 1.433 . S
C2523 N2525 1.384 . S
N2524 C2520 1.427 . S
N2524 C2521 1.384 . S
N2525 C2517 1.427 . S
N2525 C2523 1.384 . S
H2526 C2532 0.930 . S
H2527 C2536 0.930 . S
H2528 C2541 0.929 . S
H2529 C2539 0.929 . S
H2530 C2534 0.929 . S
H2531 C2540 0.929 . S
C2532 H2526 0.930 . S
C2532 C2533 1.367 . S
C2532 C2540 1.378 . S
C2533 C2532 1.367 . S
C2533 C2541 1.433 . S
C2534 H2530 0.929 . S
C2534 C2536 1.378 . S
C2534 C2538 1.350 . S
C2535 C2538 1.463 . S
C2535 C2540 1.350 . S
C2535 N2543 1.427 . S
C2536 H2527 0.930 . S
C2536 C2534 1.378 . S
C2536 C2537 1.367 . S
C2537 C2536 1.367 . S
C2537 C2539 1.433 . S
C2538 C2534 1.350 . S
C2538 C2535 1.463 . S
C2538 N2542 1.427 . S
C2539 H2529 0.929 . S
C2539 C2537 1.433 . S
C2539 N2542 1.384 . S
C2540 H2531 0.929 . S
C2540 C2532 1.378 . S
C2540 C2535 1.350 . S
C2541 H2528 0.929 . S
C2541 C2533 1.433 . S
C2541 N2543 1.384 . S
N2542 C2538 1.427 . S
N2542 C2539 1.384 . S
N2543 C2535 1.427 . S
N2543 C2541 1.384 . S
C1259 C978 0.983 . S
C1255 C898 1.017 . S
C1273 C820 1.040 . S
C1277 C972 1.015 . S
C1295 C940 1.130 . S
C1291 C781 1.193 . S
C1309 C859 1.223 . S
C1313 C954 1.144 . S
C1331 C992 1.570 . S
C1327 C625 1.671 . S
C1349 C1079 1.079 . S
C1345 C664 1.105 . S
C1363 C703 1.730 . S
C1367 C1006 1.649 . S
C1385 C1074 0.740 . S
C1381 C742 0.728 . S
C1399 C469 1.731 . S
C1403 C1030 1.644 . S
C1421 C1085 1.133 . S
C1417 C508 1.169 . S
C1435 C547 1.669 . S
C1439 C1024 1.597 . S
C1453 C586 0.779 . S
C1457 C1070 0.768 . S
C1475 C1126 0.787 . S
C1471 C430 0.781 . S
C1489 C352 1.211 . S
C1493 C1137 1.193 . S
C1507 C313 0.853 . S
C1511 C1122 0.845 . S
C1529 C1131 1.255 . S
C1525 C391 1.282 . S
C1543 C157 1.161 . S
C1547 C1176 1.112 . S
C1561 C196 0.250 . S
C1565 C1235 0.338 . S
C1579 C235 1.314 . S
C1583 C1192 1.220 . S
C1597 C274 0.709 . S
C1601 C1230 0.706 . S
C1619 C1194 1.261 . S
C1615 C1 1.342 . S
C1637 C1241 0.346 . S
C1633 C40 0.231 . S
C1651 C79 1.137 . S
C1655 C1170 1.080 . S
C1673 C1226 0.684 . S
C1669 C118 0.672 . S
C1691 C962 1.900 . S
C1687 C16 1.912 . S
C1705 C60 1.641 . S
C1709 C966 1.675 . S
C1723 C99 1.968 . S
C1727 C986 1.917 . S
C1741 C133 1.325 . S
C1745 C981 1.415 . S
C1759 C172 1.979 . S
C1763 C984 1.946 . S
C1781 C970 1.654 . S
C1777 C211 1.613 . S
C1795 C255 1.920 . S
C1799 C968 1.884 . S
C1817 C975 1.410 . S
C1813 C294 1.301 . S
C1835 C1038 1.922 . S
C1831 C138 1.957 . S
C1849 C21 2.211 . S
C1853 C1088 2.258 . S
C1871 C1036 1.528 . S
C1867 C55 1.561 . S
C1889 C1072 2.130 . S
C1885 C94 2.080 . S
C1903 C216 1.503 . S
C1907 C1014 1.477 . S
C1925 C1090 2.208 . S
C1921 C250 2.181 . S
C1943 C1020 1.872 . S
C1939 C289 1.894 . S
C1961 C1066 2.165 . S
C1957 C177 2.119 1_455 S
C1979 C1058 1.979 . S
C1975 C328 1.884 . S
C1993 C367 1.742 . S
C1997 C1082 1.862 . S
C2015 C1018 1.622 . S
C2011 C333 1.578 . S
C2033 C1044 1.921 . S
C2029 C411 1.806 . S
C2047 C445 1.519 . S
C2051 C1022 1.562 . S
C2065 C450 1.827 . S
C2069 C1076 1.934 . S
C2087 C1033 1.948 . S
C2083 C372 1.813 . S
C2105 C1027 2.006 . S
C2101 C406 1.847 . S
C2123 C1110 2.380 . S
C2119 C484 2.303 . S
C2141 C1142 2.040 . S
C2137 C528 1.917 . S
C2155 C567 2.269 . S
C2159 C1096 2.369 . S
C2177 C1140 1.626 . S
C2173 C601 1.551 . S
C2195 C1128 2.328 . S
C2191 C640 2.227 . S
C2209 C679 1.844 . S
C2213 C1124 1.971 . S
C2227 C723 2.304 . S
C2231 C1134 2.425 . S
C2249 C1118 1.568 . S
C2245 C762 1.466 . S
C2267 C1183 1.859 . S
C2263 C606 1.813 . S
C2281 C489 1.990 . S
C2285 C1244 2.096 . S
C2303 C1178 1.613 . S
C2299 C523 1.474 . S
C2321 C1228 2.072 . S
C2317 C562 1.925 . S
C2339 C1174 1.538 . S
C2335 C684 1.404 . S
C2353 C718 1.890 . S
C2357 C1246 2.001 . S
C2375 C1189 1.779 . S
C2371 C757 1.734 . S
C2393 C1222 1.928 . S
C2389 C645 1.832 . S
C2411 C1214 2.088 . S
C2407 C796 2.023 . S
C2425 C835 2.085 . S
C2429 C1238 2.122 . S
C2447 C1180 1.749 . S
C2443 C801 1.773 . S
C2461 C879 2.177 . S
C2465 C1200 2.211 . S
C2483 C1162 1.789 . S
C2479 C913 1.818 . S
C2501 C1232 2.001 . S
C2497 C918 1.932 . S
C2519 C1148 1.783 . S
C2515 C840 1.826 . S
C2533 C874 1.781 . S
C2537 C1186 1.754 . S
