# Generated by pormake.
# Topology zzz, (3,6)-cn, num edge types: 1
# Building blocks:
#     Node 0, Type 0, BuildingBlock: BETDIP_clean_linker_0, # of connection points: 3
#     Node 1, Type 0, BuildingBlock: BETDIP_clean_linker_0, # of connection points: 3
#     Node 2, Type 0, BuildingBlock: BETDIP_clean_linker_0, # of connection points: 3
#     Node 3, Type 0, BuildingBlock: BETDIP_clean_linker_0, # of connection points: 3
#     Node 4, Type 0, BuildingBlock: BETDIP_clean_linker_0, # of connection points: 3
#     Node 5, Type 0, BuildingBlock: BETDIP_clean_linker_0, # of connection points: 3
#     Node 6, Type 0, BuildingBlock: BETDIP_clean_linker_0, # of connection points: 3
#     Node 7, Type 0, BuildingBlock: BETDIP_clean_linker_0, # of connection points: 3
#     Node 8, Type 1, BuildingBlock: VOLQOD_clean_sbu_1, # of connection points: 6
#     Node 9, Type 1, BuildingBlock: VOLQOD_clean_sbu_1, # of connection points: 6
#     Node 10, Type 1, BuildingBlock: VOLQOD_clean_sbu_1, # of connection points: 6
#     Node 11, Type 1, BuildingBlock: VOLQOD_clean_sbu_1, # of connection points: 6
#     Edge 12, Type (0, 1), BuildingBlock: XUDNAN_clean_linker_2, # of connection points: 2
#     Edge 13, Type (0, 1), BuildingBlock: XUDNAN_clean_linker_2, # of connection points: 2
#     Edge 14, Type (0, 1), BuildingBlock: XUDNAN_clean_linker_2, # of connection points: 2
#     Edge 15, Type (0, 1), BuildingBlock: XUDNAN_clean_linker_2, # of connection points: 2
#     Edge 16, Type (0, 1), BuildingBlock: XUDNAN_clean_linker_2, # of connection points: 2
#     Edge 17, Type (0, 1), BuildingBlock: XUDNAN_clean_linker_2, # of connection points: 2
#     Edge 18, Type (0, 1), BuildingBlock: XUDNAN_clean_linker_2, # of connection points: 2
#     Edge 19, Type (0, 1), BuildingBlock: XUDNAN_clean_linker_2, # of connection points: 2
#     Edge 20, Type (0, 1), BuildingBlock: XUDNAN_clean_linker_2, # of connection points: 2
#     Edge 21, Type (0, 1), BuildingBlock: XUDNAN_clean_linker_2, # of connection points: 2
#     Edge 22, Type (0, 1), BuildingBlock: XUDNAN_clean_linker_2, # of connection points: 2
#     Edge 23, Type (0, 1), BuildingBlock: XUDNAN_clean_linker_2, # of connection points: 2
#     Edge 24, Type (0, 1), BuildingBlock: XUDNAN_clean_linker_2, # of connection points: 2
#     Edge 25, Type (0, 1), BuildingBlock: XUDNAN_clean_linker_2, # of connection points: 2
#     Edge 26, Type (0, 1), BuildingBlock: XUDNAN_clean_linker_2, # of connection points: 2
#     Edge 27, Type (0, 1), BuildingBlock: XUDNAN_clean_linker_2, # of connection points: 2
#     Edge 28, Type (0, 1), BuildingBlock: XUDNAN_clean_linker_2, # of connection points: 2
#     Edge 29, Type (0, 1), BuildingBlock: XUDNAN_clean_linker_2, # of connection points: 2
#     Edge 30, Type (0, 1), BuildingBlock: XUDNAN_clean_linker_2, # of connection points: 2
#     Edge 31, Type (0, 1), BuildingBlock: XUDNAN_clean_linker_2, # of connection points: 2
#     Edge 32, Type (0, 1), BuildingBlock: XUDNAN_clean_linker_2, # of connection points: 2
#     Edge 33, Type (0, 1), BuildingBlock: XUDNAN_clean_linker_2, # of connection points: 2
#     Edge 34, Type (0, 1), BuildingBlock: XUDNAN_clean_linker_2, # of connection points: 2
#     Edge 35, Type (0, 1), BuildingBlock: XUDNAN_clean_linker_2, # of connection points: 2
# Relax obj value: 0.197
# Max RMSD: 0.236
# Mean RMSD: 0.111
data_MOF--net-zzz--node1-VOLQOD_clean_sbu_1--node2-BETDIP_clean_linker_0--edge1-XUDNAN_clean_linker_2
_symmetry_space_group_name_H-M    P1
_symmetry_Int_Tables_number       1
_symmetry_cell_setting            triclinic
loop_
_symmetry_equiv_pos_as_xyz
'x, y, z'
_cell_length_a     51.442531
_cell_length_b     51.021907
_cell_length_c     17.253302
_cell_angle_alpha  90.203612
_cell_angle_beta   89.920447
_cell_angle_gamma 90.728116
loop_
_atom_site_label
_atom_site_type_symbol
_atom_site_fract_x
_atom_site_fract_y
_atom_site_fract_z
_atom_type_partial_charge
H0 H 0.75841 0.52727 0.27256 0.0
H1 H 0.77565 0.53596 0.0285 0.0
H2 H 0.83759 0.52907 0.19249 0.0
H3 H 0.74013 0.57046 0.06885 0.0
C4 C 0.72736 0.55403 0.08335 0.0
C5 C 0.77238 0.52866 0.22568 0.0
C6 C 0.79917 0.52857 0.24179 0.0
C7 C 0.76375 0.53193 0.14874 0.0
C8 C 0.78207 0.53374 0.08788 0.0
C9 C 0.80866 0.53279 0.10428 0.0
C10 C 0.81689 0.53013 0.18062 0.0
N11 N 0.73676 0.53416 0.13317 0.0
H12 H 0.9953 0.76339 0.19331 0.0
H13 H 0.04988 0.76719 0.00561 0.0
H14 H 0.03728 0.83489 0.15003 0.0
H15 H 0.99765 0.75513 0.96241 0.0
C16 C 0.00305 0.73686 0.99014 0.0
C17 C 0.01003 0.77421 0.16134 0.0
C18 C 0.0157 0.80051 0.1806 0.0
C19 C 0.02197 0.76263 0.09653 0.0
C20 C 0.04066 0.77687 0.05401 0.0
C21 C 0.04628 0.80333 0.07109 0.0
C22 C 0.03384 0.81457 0.13557 0.0
N23 N 0.01288 0.73809 0.06719 0.0
H24 H 0.75499 0.99196 0.2477 0.0
H25 H 0.74295 0.03437 0.03512 0.0
H26 H 0.68033 0.02462 0.1971 0.0
H27 H 0.7729 0.99864 -0.00059 0.0
C28 C 0.78714 0.00377 0.0436 0.0
C29 C 0.74261 0.00357 0.21086 0.0
C30 C 0.71633 0.00681 0.23009 0.0
C31 C 0.7524 0.01351 0.1406 0.0
C32 C 0.73584 0.0273 0.09044 0.0
C33 C 0.70993 0.03186 0.11179 0.0
C34 C 0.70065 0.02206 0.1822 0.0
N35 N 0.77874 0.00881 0.12067 0.0
H36 H 0.49647 0.74197 0.25039 0.0
H37 H 0.44822 0.71591 0.06154 0.0
H38 H 0.45016 0.67182 0.27333 0.0
H39 H 0.49165 0.73238 0.00757 0.0
C40 C 0.4878 0.75185 0.03036 0.0
C41 C 0.48168 0.72867 0.22797 0.0
C42 C 0.4743 0.7064 0.27075 0.0
C43 C 0.47146 0.73267 0.1535 0.0
C44 C 0.45448 0.71375 0.12104 0.0
C45 C 0.44707 0.69136 0.16339 0.0
C46 C 0.45566 0.68903 0.24012 0.0
N47 N 0.48014 0.75454 0.10915 0.0
H48 H 0.24765 0.48848 0.10123 0.0
H49 H 0.24288 0.53942 0.30018 0.0
H50 H 0.17837 0.5325 0.14427 0.0
H51 H 0.29082 0.54525 0.25293 0.0
C52 C 0.29271 0.52414 0.25849 0.0
C53 C 0.23725 0.5031 0.13427 0.0
C54 C 0.21151 0.50914 0.11481 0.0
C55 C 0.24922 0.51508 0.19881 0.0
C56 C 0.23478 0.53221 0.2461 0.0
C57 C 0.20909 0.53837 0.22651 0.0
C58 C 0.19834 0.52794 0.15868 0.0
N59 N 0.27457 0.50722 0.2206 0.0
H60 H 0.03739 0.24 0.10997 0.0
H61 H 0.97948 0.22157 0.28363 0.0
H62 H 0.0064 0.16169 0.12932 0.0
H63 H 0.96706 0.26408 0.24053 0.0
C64 C 0.98587 0.27279 0.25478 0.0
C65 C 0.02443 0.22604 0.13791 0.0
C66 C 0.02334 0.19984 0.11216 0.0
C67 C 0.00809 0.23423 0.19886 0.0
C68 C 0.99147 0.21574 0.23506 0.0
C69 C 0.99049 0.18962 0.20974 0.0
C70 C 0.00647 0.18199 0.14832 0.0
N71 N 0.00862 0.26083 0.22461 0.0
H72 H 0.26806 0.03451 0.06 0.0
H73 H 0.29408 0.02475 0.29674 0.0
H74 H 0.34933 0.03135 0.11256 0.0
H75 H 0.25488 0.03884 0.32681 0.0
C76 C 0.24175 0.03221 0.28143 0.0
C77 C 0.28358 0.03325 0.10216 0.0
C78 C 0.30959 0.0346 0.0776 0.0
C79 C 0.27759 0.03034 0.18153 0.0
C80 C 0.29803 0.02791 0.23593 0.0
C81 C 0.32398 0.02919 0.21117 0.0
C82 C 0.32931 0.03211 0.13233 0.0
N83 N 0.25095 0.0291 0.20411 0.0
H84 H 0.48499 0.2618 0.15184 0.0
H85 H 0.5303 0.27518 0.3571 0.0
H86 H 0.50176 0.34039 0.22597 0.0
H87 H 0.50311 0.24074 0.40073 0.0
C88 C 0.50573 0.22769 0.35148 0.0
C89 C 0.49384 0.27529 0.19299 0.0
C90 C 0.49258 0.30245 0.18062 0.0
C91 C 0.50595 0.26555 0.25976 0.0
C92 C 0.51902 0.28307 0.31008 0.0
C93 C 0.51811 0.31037 0.29849 0.0
C94 C 0.50379 0.31959 0.23509 0.0
N95 N 0.5052 0.23812 0.27496 0.0
O96 O 0.07429 0.00876 0.60253 0.0
Zn97 Zn 0.05049 0.00527 0.69533 0.0
O98 O 0.01432 0.99933 0.65946 0.0
Zn99 Zn 0.99386 0.02896 0.69281 0.0
Zn100 Zn 0.01295 0.99597 0.54606 0.0
Zn101 Zn 0.99903 0.96752 0.70429 0.0
O102 O 0.96598 0.01841 0.76829 0.0
O103 O 0.96768 0.9749 0.77291 0.0
O104 O 0.0549 0.03914 0.75919 0.0
O105 O 0.01577 0.05615 0.74509 0.0
O106 O 0.97765 0.04675 0.6026 0.0
O107 O 0.98946 0.02328 0.49996 0.0
O108 O 1.00063 0.95982 0.51209 0.0
O109 O 0.06286 0.97357 0.75531 0.0
O110 O 0.98922 0.94071 0.62246 0.0
O111 O 0.02656 0.94944 0.76456 0.0
C112 C 0.07114 0.00671 0.52946 0.0
C113 C 0.95753 0.99651 0.79347 0.0
C114 C 0.9773 0.04242 0.52999 0.0
C115 C 0.03903 0.05786 0.76952 0.0
C116 C 0.99171 0.94006 0.54904 0.0
C117 C 0.05062 0.95319 0.77846 0.0
O118 O 0.04883 1.00175 0.50039 0.0
O119 O 0.5092 0.04845 0.63237 0.0
Zn120 Zn 0.50696 0.0187 0.71151 0.0
O121 O 0.5138 0.98443 0.6606 0.0
Zn122 Zn 0.48295 0.96181 0.66325 0.0
Zn123 Zn 0.52409 0.99 0.5536 0.0
Zn124 Zn 0.54196 0.96601 0.71003 0.0
O125 O 0.48961 0.9263 0.71283 0.0
O126 O 0.53085 0.93062 0.75026 0.0
O127 O 0.46985 0.01913 0.75733 0.0
O128 O 0.45545 0.97945 0.72365 0.0
O129 O 0.46641 0.95931 0.55726 0.0
O130 O 0.49716 0.97629 0.48202 0.0
O131 O 0.55909 0.97567 0.52676 0.0
O132 O 0.53561 0.0264 0.79169 0.0
O133 O 0.57272 0.96074 0.63979 0.0
O134 O 0.55671 0.98856 0.79238 0.0
C135 C 0.51745 0.04907 0.56259 0.0
C136 C 0.50975 0.91736 0.74616 0.0
C137 C 0.47446 0.96664 0.49087 0.0
C138 C 0.45178 1.00167 0.7551 0.0
C139 C 0.57656 0.96533 0.56835 0.0
C140 C 0.55404 0.01201 0.81603 0.0
O141 O 0.52484 0.0283 0.52853 0.0
O142 O 0.44082 0.49013 0.66176 0.0
Zn143 Zn 0.46373 0.49399 0.75624 0.0
O144 O 0.49856 0.50679 0.72532 0.0
Zn145 Zn 0.52481 0.48368 0.76728 0.0
Zn146 Zn 0.50155 0.5086 0.61196 0.0
Zn147 Zn 0.5052 0.54146 0.76653 0.0
O148 O 0.55222 0.50234 0.83215 0.0
O149 O 0.5389 0.54344 0.8262 0.0
O150 O 0.46564 0.45855 0.81001 0.0
O151 O 0.50827 0.45382 0.82535 0.0
O152 O 0.54227 0.46499 0.68132 0.0
O153 O 0.52418 0.47886 0.5724 0.0
O154 O 0.51468 0.54443 0.5758 0.0
O155 O 0.44615 0.52008 0.82802 0.0
O156 O 0.50728 0.56822 0.68165 0.0
O157 O 0.47632 0.55169 0.83654 0.0
C158 C 0.44394 0.49576 0.59041 0.0
C159 C 0.55527 0.52655 0.84862 0.0
C160 C 0.53943 0.46353 0.60828 0.0
C161 C 0.485 0.44563 0.83448 0.0
C162 C 0.51303 0.56655 0.61009 0.0
C163 C 0.45422 0.54205 0.85447 0.0
O164 O 0.46574 0.50391 0.56403 0.0
O165 O 0.96505 0.5201 0.55023 0.0
Zn166 Zn 1.00125 0.52459 0.60022 0.0
O167 O 0.00908 0.49489 0.66851 0.0
Zn168 Zn 0.01887 0.50838 0.77005 0.0
Zn169 Zn 0.97932 0.47161 0.67921 0.0
Zn170 Zn 0.0369 0.47388 0.62687 0.0
O171 O 0.05235 0.49247 0.80738 0.0
O172 O 0.06467 0.46814 0.70685 0.0
O173 O 1.0008 0.5581 0.66359 0.0
O174 O 0.02173 0.54801 0.77167 0.0
O175 O 0.98955 0.50215 0.84374 0.0
O176 O 0.96249 0.47466 0.78395 0.0
O177 O 0.98645 0.43453 0.64509 0.0
O178 O 0.03112 0.52991 0.52271 0.0
O179 O 0.02429 0.43873 0.58411 0.0
O180 O 0.0549 0.49471 0.54595 0.0
C181 C 0.94757 0.50256 0.56287 0.0
C182 C 0.06844 0.47705 0.775 0.0
C183 C 0.96825 0.48923 0.8416 0.0
C184 C 0.01107 0.56485 0.72803 0.0
C185 C 0.00413 0.42515 0.60152 0.0
C186 C 0.05149 0.51634 0.51122 0.0
O187 O 0.95157 0.4838 0.60934 0.0
H188 H 0.22018 0.03496 0.42467 0.0
H189 H 0.20105 0.01892 0.18424 0.0
H190 H 0.1551 0.01116 0.22117 0.0
H191 H 0.17806 0.98586 0.50696 0.0
H192 H 0.16933 0.00561 0.5896 0.0
H193 H 0.20048 0.01033 0.54368 0.0
H194 H 0.19052 0.05954 0.52408 0.0
H195 H 0.15933 0.05496 0.56994 0.0
H196 H 0.16129 0.0687 0.47398 0.0
H197 H 0.11109 0.00511 0.28532 0.0
H198 H 0.07287 1.00049 0.37121 0.0
H199 H 0.12126 0.02006 0.56978 0.0
C200 C 0.20628 0.02988 0.37982 0.0
C201 C 0.21411 0.02759 0.3017 0.0
C202 C 0.19546 0.0208 0.24451 0.0
C203 C 0.16932 0.01638 0.26494 0.0
C204 C 0.16223 0.01877 0.3427 0.0
C205 C 0.1802 0.02532 0.39923 0.0
C206 C 0.16774 0.02631 0.47872 0.0
C207 C 0.17961 0.0058 0.53291 0.0
C208 C 0.16985 0.05403 0.51371 0.0
C209 C 0.13991 0.01929 0.45822 0.0
C210 C 0.13708 0.01508 0.3795 0.0
C211 C 0.1131 0.00836 0.34705 0.0
C212 C 0.09148 0.00581 0.39639 0.0
C213 C 0.09398 0.00989 0.47742 0.0
C214 C 0.1186 0.01676 0.50825 0.0
H215 H 0.5016 0.20326 0.49065 0.0
H216 H 0.5156 0.18808 0.24672 0.0
H217 H 0.52054 0.14089 0.27508 0.0
H218 H 0.54703 0.1569 0.56576 0.0
H219 H 0.52665 0.14718 0.64599 0.0
H220 H 0.52422 0.17969 0.60653 0.0
H221 H 0.47489 0.1723 0.58375 0.0
H222 H 0.47715 0.1398 0.62337 0.0
H223 H 0.46397 0.14439 0.52771 0.0
H224 H 0.5247 0.09561 0.33055 0.0
H225 H 0.52608 0.05509 0.40724 0.0
H226 H 0.50839 0.09941 0.61581 0.0
C227 C 0.50566 0.18995 0.44324 0.0
C228 C 0.50822 0.19926 0.36652 0.0
C229 C 0.51351 0.18135 0.30587 0.0
C230 C 0.51639 0.15453 0.3215 0.0
C231 C 0.51383 0.146 0.39794 0.0
C232 C 0.50844 0.16314 0.45778 0.0
C233 C 0.50636 0.1489 0.53465 0.0
C234 C 0.52732 0.15876 0.59158 0.0
C235 C 0.47896 0.1515 0.56939 0.0
C236 C 0.51148 0.12101 0.50881 0.0
C237 C 0.51585 0.11983 0.42978 0.0
C238 C 0.52125 0.09631 0.39242 0.0
C239 C 0.52207 0.07337 0.43675 0.0
C240 C 0.51737 0.07394 0.51786 0.0
C241 C 0.51203 0.09821 0.55408 0.0
H242 H 0.33877 0.54862 0.29208 0.0
H243 H 0.29581 0.47594 0.32692 0.0
H244 H 0.3311 0.45973 0.41055 0.0
H245 H 0.40358 0.51808 0.28459 0.0
H246 H 0.41911 0.5454 0.33317 0.0
H247 H 0.3909 0.55062 0.27369 0.0
H248 H 0.36789 0.57286 0.38982 0.0
H249 H 0.39593 0.56746 0.44966 0.0
H250 H 0.36447 0.55531 0.47987 0.0
H251 H 0.36851 0.45374 0.50221 0.0
H252 H 0.4078 0.45637 0.58475 0.0
H253 H 0.42871 0.53092 0.48072 0.0
C254 C 0.33703 0.52916 0.31664 0.0
C255 C 0.31466 0.51349 0.30322 0.0
C256 C 0.3129 0.48816 0.33609 0.0
C257 C 0.33281 0.47883 0.3838 0.0
C258 C 0.35455 0.49486 0.39659 0.0
C259 C 0.35703 0.5193 0.36282 0.0
C260 C 0.38237 0.53263 0.38609 0.0
C261 C 0.40004 0.53692 0.31517 0.0
C262 C 0.37735 0.55859 0.42892 0.0
C263 C 0.39339 0.51221 0.4401 0.0
C264 C 0.37694 0.49065 0.44572 0.0
C265 C 0.38183 0.47024 0.497 0.0
C266 C 0.40409 0.47191 0.54377 0.0
C267 C 0.42139 0.49358 0.53788 0.0
C268 C 0.41609 0.51382 0.48476 0.0
H269 H 0.02428 0.31007 0.28855 0.0
H270 H 0.94854 0.28076 0.36053 0.0
H271 H 0.94719 0.31395 0.46451 0.0
H272 H 0.04866 0.32835 0.48265 0.0
H273 H 0.06437 0.35802 0.44936 0.0
H274 H 0.06091 0.33032 0.38487 0.0
H275 H 0.03745 0.35946 0.28494 0.0
H276 H 0.04092 0.38722 0.34895 0.0
H277 H 0.00917 0.37748 0.3145 0.0
H278 H 0.95278 0.35066 0.55677 0.0
H279 H 0.96325 0.39153 0.62638 0.0
H280 H 0.03464 0.3996 0.49304 0.0
C281 C 0.00766 0.31049 0.3271 0.0
C282 C 0.98659 0.29272 0.31732 0.0
C283 C 0.96488 0.29417 0.36746 0.0
C284 C 0.96399 0.31286 0.42689 0.0
C285 C 0.98488 0.33023 0.43503 0.0
C286 C 0.00623 0.32949 0.38629 0.0
C287 C 0.02498 0.35195 0.40444 0.0
C288 C 0.05129 0.34153 0.43197 0.0
C289 C 0.02831 0.3701 0.33402 0.0
C290 C 0.01059 0.3655 0.47005 0.0
C291 C 0.98773 0.3523 0.48731 0.0
C292 C 0.97069 0.36116 0.54408 0.0
C293 C 0.97685 0.38447 0.58339 0.0
C294 C 0.99979 0.39893 0.56547 0.0
C295 C 0.01706 0.38898 0.50868 0.0
H296 H 0.8092 0.98046 0.91802 0.0
H297 H 0.82797 0.02562 0.12431 0.0
H298 H 0.87438 0.02613 0.08663 0.0
H299 H 0.86816 0.94037 0.9208 0.0
H300 H 0.87097 0.93988 0.81666 0.0
H301 H 0.83942 0.94221 0.86151 0.0
H302 H 0.83051 0.98458 0.78409 0.0
H303 H 0.86198 0.98237 0.73902 0.0
H304 H 0.85318 0.01174 0.79058 0.0
H305 H 0.91773 0.02565 0.01944 0.0
H306 H 0.9557 0.02145 0.93204 0.0
H307 H 0.90972 0.97339 0.77511 0.0
C308 C 0.82318 0.99021 0.95552 0.0
C309 C 0.81511 0.00299 0.02398 0.0
C310 C 0.83382 0.01558 0.07182 0.0
C311 C 0.86019 0.01598 0.05085 0.0
C312 C 0.86753 0.00331 0.98265 0.0
C313 C 0.84963 0.99034 0.93621 0.0
C314 C 0.86257 0.97852 0.86548 0.0
C315 C 0.86013 0.94846 0.86619 0.0
C316 C 0.8514 0.99 0.79037 0.0
C317 C 0.89044 0.98743 0.87828 0.0
C318 C 0.89285 1.0018 0.94612 0.0
C319 C 0.91622 0.01395 0.96716 0.0
C320 C 0.93763 0.0115 0.91734 0.0
C321 C 0.93561 0.99664 0.84825 0.0
C322 C 0.91184 0.98419 0.82894 0.0
H323 H 0.46635 0.80118 0.03172 0.0
H324 H 0.5246 0.75363 0.91883 0.0
H325 H 0.53662 0.7909 0.83426 0.0
H326 H 0.44519 0.83272 0.85614 0.0
H327 H 0.43927 0.8639 0.90192 0.0
H328 H 0.43622 0.83411 0.95712 0.0
H329 H 0.46936 0.85223 0.05742 0.0
H330 H 0.47241 0.88212 0.00271 0.0
H331 H 0.50091 0.86341 0.02495 0.0
H332 H 0.54365 0.83361 0.76638 0.0
H333 H 0.54258 0.87817 0.71039 0.0
H334 H 0.47668 0.89696 0.8562 0.0
C335 C 0.48181 0.79882 0.98971 0.0
C336 C 0.49494 0.77477 0.98233 0.0
C337 C 0.51455 0.77204 0.92553 0.0
C338 C 0.52149 0.79307 0.87738 0.0
C339 C 0.50818 0.81652 0.88563 0.0
C340 C 0.48851 0.81946 0.93955 0.0
C341 C 0.47642 0.84637 0.93333 0.0
C342 C 0.44756 0.84413 0.91077 0.0
C343 C 0.48 0.86195 0.00911 0.0
C344 C 0.49255 0.85812 0.8681 0.0
C345 C 0.51098 0.84063 0.84227 0.0
C346 C 0.52908 0.84735 0.78531 0.0
C347 C 0.52835 0.87263 0.75391 0.0
C348 C 0.50931 0.89064 0.77822 0.0
C349 C 0.49107 0.88325 0.83564 0.0
H350 H 0.69299 0.51255 0.06154 0.0
H351 H 0.70083 0.59697 0.04215 0.0
H352 H 0.6563 0.59927 0.9895 0.0
H353 H 0.66023 0.50377 0.88279 0.0
H354 H 0.63917 0.47755 0.91555 0.0
H355 H 0.67046 0.4826 0.96015 0.0
H356 H 0.64845 0.48632 0.09482 0.0
H357 H 0.61706 0.48122 0.05057 0.0
H358 H 0.62309 0.5099 0.10947 0.0
H359 H 0.61205 0.59254 0.93468 0.0
H360 H 0.57159 0.57711 0.87265 0.0
H361 H 0.59271 0.49653 0.91968 0.0
C362 C 0.68504 0.53151 0.04768 0.0
C363 C 0.70006 0.5547 0.057 0.0
C364 C 0.68944 0.57908 0.03604 0.0
C365 C 0.66418 0.58057 0.00631 0.0
C366 C 0.6499 0.55741 0.99692 0.0
C367 C 0.65993 0.53329 0.01638 0.0
C368 C 0.64118 0.51129 0.99436 0.0
C369 C 0.6535 0.49272 0.93466 0.0
C370 C 0.63189 0.4963 0.06662 0.0
C371 C 0.61926 0.52683 0.95877 0.0
C372 C 0.62459 0.55341 0.96202 0.0
C373 C 0.60758 0.57177 0.93199 0.0
C374 C 0.5846 0.56277 0.89686 0.0
C375 C 0.57887 0.53558 0.89105 0.0
C376 C 0.59644 0.51743 0.92316 0.0
H377 H 0.01883 0.68619 0.02717 0.0
H378 H 0.98475 0.73304 0.84509 0.0
H379 H 0.9838 0.69455 0.75852 0.0
H380 H 0.05982 0.64766 0.90301 0.0
H381 H 0.05512 0.61756 0.95588 0.0
H382 H 0.05277 0.64859 0.00538 0.0
H383 H 0.00657 0.636 0.05353 0.0
H384 H 0.00887 0.60486 0.0046 0.0
H385 H 0.9821 0.6262 0.98415 0.0
H386 H 0.98702 0.65186 0.6905 0.0
H387 H 0.99273 0.60643 0.6458 0.0
H388 H 0.02479 0.58611 0.8703 0.0
C389 C 0.01102 0.68821 0.9693 0.0
C390 C 1.00178 0.71259 0.94272 0.0
C391 C 0.99185 0.71452 0.86653 0.0
C392 C 0.99127 0.69279 0.81685 0.0
C393 C 1.00071 0.66913 0.8441 0.0
C394 C 0.01027 0.66654 0.91853 0.0
C395 C 0.0192 0.63867 0.93246 0.0
C396 C 0.04847 0.6381 0.95022 0.0
C397 C 0.00323 0.62567 -0.00246 0.0
C398 C 0.01322 0.6262 0.85423 0.0
C399 C 0.00259 0.64421 0.80432 0.0
C400 C 0.9953 0.63752 0.72902 0.0
C401 C 0.99868 0.61162 0.70412 0.0
C402 C 0.00927 0.59258 0.75424 0.0
C403 C 0.01679 0.60015 0.83025 0.0
H404 H 0.98534 0.18285 0.3659 0.0
H405 H 0.96121 0.15003 0.14502 0.0
H406 H 0.9456 0.11008 0.21096 0.0
H407 H 0.01197 0.13086 0.43719 0.0
H408 H 1.00166 0.13391 0.5367 0.0
H409 H 0.00393 0.16249 0.47696 0.0
H410 H 0.95575 0.17316 0.5052 0.0
H411 H 0.95338 0.14462 0.56634 0.0
H412 H 0.93087 0.14868 0.48742 0.0
H413 H 0.94536 0.07027 0.29214 0.0
H414 H 0.9558 0.03541 0.38593 0.0
H415 H 0.97599 0.09457 0.55704 0.0
C416 C 0.97546 0.16788 0.33203 0.0
C417 C 0.97466 0.16942 0.25046 0.0
C418 C 0.96228 0.14908 0.20764 0.0
C419 C 0.95316 0.12639 0.24466 0.0
C420 C 0.95587 0.12466 0.32477 0.0
C421 C 0.966 0.14521 0.36838 0.0
C422 C 0.97006 0.13715 0.45179 0.0
C423 C 0.99859 0.14133 0.47701 0.0
C424 C 0.95139 0.15177 0.50588 0.0
C425 C 0.96288 0.10834 0.44654 0.0
C426 C 0.95429 0.10157 0.37316 0.0
C427 C 0.95095 0.07541 0.35074 0.0
C428 C 0.95707 0.05574 0.40407 0.0
C429 C 0.96614 0.0624 0.47895 0.0
C430 C 0.96814 0.08899 0.50105 0.0
H431 H 0.33159 0.99233 0.32683 0.0
H432 H 0.36758 0.05943 0.21314 0.0
H433 H 0.41029 0.04626 0.26151 0.0
H434 H 0.37568 0.99896 0.50325 0.0
H435 H 0.37579 0.96401 0.51798 0.0
H436 H 0.34764 0.97935 0.47691 0.0
H437 H 0.35051 0.94764 0.35968 0.0
H438 H 0.37935 0.933 0.39871 0.0
H439 H 0.37992 0.94686 0.30275 0.0
H440 H 0.44885 0.02108 0.29469 0.0
H441 H 0.48235 0.99725 0.36417 0.0
H442 H 0.42254 0.95098 0.48125 0.0
C443 C 0.34831 0.00478 0.31483 0.0
C444 C 0.34649 0.02634 0.26381 0.0
C445 C 0.36874 0.04237 0.25016 0.0
C446 C 0.3931 0.03496 0.27674 0.0
C447 C 0.39466 0.01228 0.32053 0.0
C448 C 0.37288 0.99835 0.34415 0.0
C449 C 0.38048 0.97588 0.3968 0.0
C450 C 0.36924 0.97979 0.4786 0.0
C451 C 0.37205 0.94927 0.36239 0.0
C452 C 0.40991 0.97904 0.39628 0.0
C453 C 0.41743 0.99962 0.34935 0.0
C454 C 0.44332 0.0055 0.33406 0.0
C455 C 0.46224 0.99149 0.3733 0.0
C456 C 0.45516 0.97261 0.43008 0.0
C457 C 0.42861 0.96543 0.4389 0.0
H458 H 0.53475 0.36157 0.2684 0.0
H459 H 0.53168 0.30357 0.45317 0.0
H460 H 0.54925 0.33633 0.5431 0.0
H461 H 0.58776 0.40509 0.34176 0.0
H462 H 0.57006 0.43413 0.31687 0.0
H463 H 0.56614 0.4047 0.25962 0.0
H464 H 0.5163 0.40568 0.28182 0.0
H465 H 0.52007 0.43511 0.33819 0.0
H466 H 0.50389 0.40688 0.37952 0.0
H467 H 0.56118 0.376 0.61786 0.0
H468 H 0.55719 0.41937 0.67739 0.0
H469 H 0.54271 0.45335 0.45127 0.0
C470 C 0.5375 0.35532 0.32752 0.0
C471 C 0.53148 0.32942 0.35224 0.0
C472 C 0.53659 0.32272 0.43055 0.0
C473 C 0.54661 0.34137 0.48277 0.0
C474 C 0.55092 0.36689 0.45685 0.0
C475 C 0.54597 0.374 0.38136 0.0
C476 C 0.54634 0.40355 0.37195 0.0
C477 C 0.56893 0.41238 0.31944 0.0
C478 C 0.5201 0.41336 0.34113 0.0
C479 C 0.55094 0.41199 0.45507 0.0
C480 C 0.55496 0.39049 0.50205 0.0
C481 C 0.55826 0.39299 0.58164 0.0
C482 C 0.55598 0.41786 0.61487 0.0
C483 C 0.54941 0.43985 0.56897 0.0
C484 C 0.5479 0.43699 0.48765 0.0
H485 H 0.19678 0.51696 0.36346 0.0
H486 H 0.17753 0.58093 0.21109 0.0
H487 H 0.13532 0.58587 0.27827 0.0
H488 H 0.14002 0.487 0.34831 0.0
H489 H 0.13729 0.47472 0.44586 0.0
H490 H 0.1688 0.48128 0.40503 0.0
H491 H 0.18042 0.51295 0.51778 0.0
H492 H 0.14929 0.50568 0.56127 0.0
H493 H 0.15868 0.53919 0.54203 0.0
H494 H 0.09171 0.57759 0.34528 0.0
H495 H 0.05287 0.55914 0.41237 0.0
H496 H 0.10098 0.49844 0.5109 0.0
C497 C 0.18445 0.53318 0.34797 0.0
C498 C 0.19062 0.54905 0.2838 0.0
C499 C 0.17337 0.56912 0.26178 0.0
C500 C 0.14925 0.57184 0.29911 0.0
C501 C 0.14278 0.55434 0.35821 0.0
C502 C 0.16018 0.53569 0.38344 0.0
C503 C 0.14741 0.51657 0.43876 0.0
C504 C 0.14845 0.48825 0.40756 0.0
C505 C 0.15967 0.51874 0.51978 0.0
C506 C 0.11997 0.52669 0.43858 0.0
C507 C 0.11758 0.54872 0.39312 0.0
C508 C 0.09351 0.56056 0.38201 0.0
C509 C 0.07151 0.54983 0.41965 0.0
C510 C 0.07373 0.52719 0.4663 0.0
C511 C 0.09837 0.51562 0.47521 0.0
H512 H 0.07179 0.85101 0.10075 0.0
H513 H 0.0555 0.79565 0.91368 0.0
H514 H 0.07034 0.82799 0.82043 0.0
H515 H 0.03699 0.89678 0.01796 0.0
H516 H 0.0558 0.9249 0.04951 0.0
H517 H 0.05636 0.89527 0.10481 0.0
H518 H 0.10654 0.89408 0.093 0.0
H519 H 0.10613 0.92397 0.03748 0.0
H520 H 0.12159 0.89525 -0.00137 0.0
H521 H 0.07448 0.8677 0.74465 0.0
H522 H 0.06295 0.91113 0.69459 0.0
H523 H 0.06765 0.94369 0.92607 0.0
C524 C 0.07136 0.84528 0.04047 0.0
C525 C 0.06173 0.82036 0.0163 0.0
C526 C 0.063 0.81402 0.93613 0.0
C527 C 0.07143 0.83254 0.88166 0.0
C528 C 0.07808 0.85766 0.90723 0.0
C529 C 0.07797 0.86414 0.98499 0.0
C530 C 0.07897 0.89366 0.99657 0.0
C531 C 0.05564 0.90319 0.04496 0.0
C532 C 0.10486 0.90224 0.0336 0.0
C533 C 0.0774 0.90274 0.91317 0.0
C534 C 0.07846 0.88161 0.8626 0.0
C535 C 0.07437 0.88444 0.78333 0.0
C536 C 0.06782 0.90915 0.75538 0.0
C537 C 0.06501 0.93057 0.8066 0.0
C538 C 0.07067 0.92765 0.88592 0.0
H539 H 0.69773 0.01128 0.97249 0.0
H540 H 0.67677 0.0728 0.13302 0.0
H541 H 0.63529 0.07887 0.06312 0.0
H542 H 0.66204 0.03707 0.79462 0.0
H543 H 0.65275 0.00408 0.7679 0.0
H544 H 0.68331 0.01024 0.81604 0.0
H545 H 0.67011 0.97655 0.92147 0.0
H546 H 0.63926 0.97091 0.87556 0.0
H547 H 0.64049 0.98122 0.97554 0.0
H548 H 0.59259 0.07226 0.98963 0.0
H549 H 0.55436 0.05457 0.91716 0.0
H550 H 0.60365 0.99558 0.8136 0.0
C551 C 0.68512 0.02712 0.98974 0.0
C552 C 0.69061 0.04203 0.05659 0.0
C553 C 0.67306 0.06165 0.08054 0.0
C554 C 0.64942 0.0651 0.04146 0.0
C555 C 0.6437 0.04876 0.97865 0.0
C556 C 0.66133 0.03041 0.95225 0.0
C557 C 0.64928 0.01251 0.89201 0.0
C558 C 0.66263 0.01621 0.81295 0.0
C559 C 0.64982 0.98361 0.91776 0.0
C560 C 0.62191 0.02281 0.89111 0.0
C561 C 0.61899 0.04406 0.93986 0.0
C562 C 0.59479 0.05582 0.95047 0.0
C563 C 0.57316 0.04559 0.9097 0.0
C564 C 0.57591 0.02345 0.86094 0.0
C565 C 0.6007 0.01226 0.85149 0.0
H566 H 0.45924 0.64017 0.18557 0.0
H567 H 0.40956 0.68981 0.04779 0.0
H568 H 0.39686 0.65126 0.96843 0.0
H569 H 0.48535 0.60747 0.04501 0.0
H570 H 0.48693 0.57603 0.09205 0.0
H571 H 0.48632 0.60531 0.1493 0.0
H572 H 0.44572 0.58793 0.22312 0.0
H573 H 0.44621 0.55829 0.16587 0.0
H574 H 0.41724 0.57774 0.16969 0.0
H575 H 0.3974 0.61004 0.88862 0.0
H576 H 0.41323 0.57196 0.81373 0.0
H577 H 0.46151 0.54964 0.00659 0.0
C578 C 0.44452 0.64291 0.14176 0.0
C579 C 0.43512 0.66811 0.12402 0.0
C580 C 0.41703 0.67075 0.0628 0.0
C581 C 0.40947 0.64887 0.01798 0.0
C582 C 0.41982 0.62444 0.03594 0.0
C583 C 0.43675 0.6214 0.09726 0.0
C584 C 0.44854 0.59441 0.09798 0.0
C585 C 0.47853 0.59593 0.09584 0.0
C586 C 0.43885 0.57866 0.16834 0.0
C587 C 0.43741 0.5834 0.0236 0.0
C588 C 0.42009 0.60054 0.98993 0.0
C589 C 0.41017 0.5961 0.91567 0.0
C590 C 0.41912 0.57437 0.87363 0.0
C591 C 0.43793 0.55771 0.90591 0.0
C592 C 0.44633 0.56166 0.98252 0.0
H593 H 0.82242 0.49531 -0.00066 0.0
H594 H 0.84234 0.57295 0.08447 0.0
H595 H 0.88635 0.56904 0.02919 0.0
H596 H 0.87918 0.46583 0.04021 0.0
H597 H 0.88209 0.44589 0.95426 0.0
H598 H 0.8505 0.45579 0.98739 0.0
H599 H 0.84061 0.47722 0.855 0.0
H600 H 0.87169 0.46631 0.82001 0.0
H601 H 0.86349 0.50049 0.8145 0.0
H602 H 0.92972 0.55322 0.9918 0.0
H603 H 0.96805 0.53229 0.93551 0.0
H604 H 0.92015 0.46567 0.86403 0.0
C605 C 0.8356 0.51201 0.00195 0.0
C606 C 0.82907 0.53461 0.04477 0.0
C607 C 0.84699 0.55579 0.05021 0.0
C608 C 0.87209 0.55356 0.02011 0.0
C609 C 0.87865 0.53024 0.98338 0.0
C610 C 0.86071 0.51027 0.97089 0.0
C611 C 0.8733 0.48702 0.93135 0.0
C612 C 0.87113 0.46218 0.98133 0.0
C613 C 0.86159 0.4825 0.85039 0.0
C614 C 0.90122 0.49677 0.92633 0.0
C615 C 0.90383 0.52156 0.95796 0.0
C616 C 0.92786 0.53411 0.9648 0.0
C617 C 0.94963 0.52178 0.93362 0.0
C618 C 0.94715 0.49737 0.89446 0.0
C619 C 0.9227 0.48434 0.89324 0.0
H620 H 0.00661 0.19231 0.96649 0.0
H621 H 0.07237 0.18053 0.1171 0.0
H622 H 0.08879 0.1463 0.02836 0.0
H623 H 0.99257 0.13057 0.94299 0.0
H624 H 0.98218 0.13101 0.84326 0.0
H625 H 0.9803 0.16024 0.90082 0.0
H626 H 0.0087 0.18581 0.80207 0.0
H627 H 0.01006 0.15681 0.74222 0.0
H628 H 0.0397 0.17295 0.77285 0.0
H629 H 0.09173 0.10625 0.94161 0.0
H630 H 0.08214 0.06666 0.86236 0.0
H631 H 0.01337 0.10417 0.77212 0.0
C632 C 0.02546 0.18385 0.97736 0.0
C633 C 0.03879 0.18965 0.04675 0.0
C634 C 0.06252 0.17706 0.0625 0.0
C635 C 0.07179 0.15737 0.01272 0.0
C636 C 0.05711 0.15064 0.9474 0.0
C637 C 0.03467 0.16398 0.9288 0.0
C638 C 0.01993 0.15036 0.86397 0.0
C639 C 0.99213 0.14259 0.88936 0.0
C640 C 0.01959 0.1675 0.79094 0.0
C641 C 0.03664 0.12651 0.8521 0.0
C642 C 0.05833 0.12716 0.89924 0.0
C643 C 0.07515 0.10589 0.90306 0.0
C644 C 0.06952 0.08341 0.8581 0.0
C645 C 0.04699 0.08223 0.81109 0.0
C646 C 0.0308 0.10438 0.80724 0.0
H647 H 0.34439 0.06858 0.01468 0.0
H648 H 0.29573 1.00125 0.96047 0.0
H649 H 0.32451 0.99048 0.85073 0.0
H650 H 0.37252 0.08139 0.80822 0.0
H651 H 0.40385 0.08865 0.85035 0.0
H652 H 0.37457 0.09719 0.90167 0.0
H653 H 0.39087 0.0712 0.02007 0.0
H654 H 0.41958 0.06153 0.9688 0.0
H655 H 0.39813 0.03691 0.00918 0.0
H656 H 0.36385 0.9796 0.77645 0.0
H657 H 0.40826 0.97169 0.73166 0.0
H658 H 0.43441 0.04421 0.84073 0.0
C659 C 0.33891 0.05265 0.97613 0.0
C660 C 0.31779 0.03584 0.99532 0.0
C661 C 0.31148 0.01464 0.94575 0.0
C662 C 0.32797 0.00824 0.8838 0.0
C663 C 0.35049 0.02338 0.87231 0.0
C664 C 0.35572 0.04557 0.91609 0.0
C665 C 0.38343 0.05537 0.90338 0.0
C666 C 0.3836 0.08224 0.8635 0.0
C667 C 0.39888 0.05628 0.97988 0.0
C668 C 0.39351 0.03431 0.84958 0.0
C669 C 0.37399 0.01645 0.83106 0.0
C670 C 0.37907 0.99383 0.78886 0.0
C671 C 0.40457 0.98939 0.76449 0.0
C672 C 0.42504 0.00733 0.78274 0.0
C673 C 0.41925 0.03026 0.82521 0.0
H674 H 0.45886 0.34312 0.1663 0.0
H675 H 0.5054 0.28916 0.03244 0.0
H676 H 0.50134 0.3177 0.91802 0.0
H677 H 0.41737 0.36896 -0.00238 0.0
H678 H 0.4186 0.40151 0.03851 0.0
H679 H 0.41831 0.37333 0.10132 0.0
H680 H 0.46044 0.39066 0.16661 0.0
H681 H 0.46138 0.41844 0.1031 0.0
H682 H 0.48886 0.39694 0.10795 0.0
H683 H 0.50288 0.35672 0.8329 0.0
H684 H 0.50525 0.40118 0.77683 0.0
H685 H 0.45728 0.43063 0.96345 0.0
C686 C 0.46704 0.33671 0.11165 0.0
C687 C 0.48232 0.31387 0.10791 0.0
C688 C 0.49322 0.30628 0.03614 0.0
C689 C 0.49115 0.32252 0.97101 0.0
C690 C 0.47778 0.34605 0.97844 0.0
C691 C 0.46531 0.35285 0.04649 0.0
C692 C 0.45553 0.38078 0.04336 0.0
C693 C 0.42567 0.38116 0.04529 0.0
C694 C 0.46726 0.39768 0.10911 0.0
C695 C 0.46582 0.3892 0.96489 0.0
C696 C 0.47831 0.36874 0.92802 0.0
C697 C 0.49238 0.37259 0.85983 0.0
C698 C 0.49379 0.3979 0.82874 0.0
C699 C 0.48105 0.41901 0.86535 0.0
C700 C 0.4665 0.41455 0.93341 0.0
H701 H 0.1631 0.48832 0.12971 0.0
H702 H 0.22591 0.49781 0.96418 0.0
H703 H 0.19675 0.48149 0.85961 0.0
H704 H 0.12736 0.43214 0.03455 0.0
H705 H 0.09647 0.4464 0.05842 0.0
H706 H 0.12395 0.45133 0.12184 0.0
H707 H 0.11821 0.5016 0.11236 0.0
H708 H 0.09098 0.49692 0.04869 0.0
H709 H 0.11826 0.5169 0.01832 0.0
H710 H 0.15864 0.47115 0.77101 0.0
H711 H 0.11579 0.47095 0.70632 0.0
H712 H 0.07761 0.47343 0.93025 0.0
C713 C 0.17095 0.48635 0.07171 0.0
C714 C 0.19668 0.49445 0.05468 0.0
C715 C 0.20631 0.49148 0.97841 0.0
C716 C 0.18985 0.48225 0.91885 0.0
C717 C 0.16399 0.47604 0.93701 0.0
C718 C 0.15469 0.47794 0.01197 0.0
C719 C 0.12547 0.47456 0.01547 0.0
C720 C 0.11787 0.44962 0.06021 0.0
C721 C 0.11249 0.49895 0.05073 0.0
C722 C 0.11944 0.47169 0.93026 0.0
C723 C 0.14191 0.47164 0.88599 0.0
C724 C 0.14101 0.47075 0.80527 0.0
C725 C 0.11658 0.47059 0.76906 0.0
C726 C 0.09347 0.47209 0.81357 0.0
C727 C 0.09499 0.47207 0.89505 0.0
H728 H 0.99538 0.84964 0.17685 0.0
H729 H 0.00717 0.78383 0.33047 0.0
H730 H 0.99449 0.81155 0.44232 0.0
H731 H 0.02734 0.89362 0.29007 0.0
H732 H 0.00732 0.92135 0.26796 0.0
H733 H 0.01013 0.89501 0.19925 0.0
H734 H 0.96008 0.8887 0.1982 0.0
H735 H 0.95701 0.91531 0.26652 0.0
H736 H 0.94293 0.88364 0.28822 0.0
H737 H 0.98741 0.84856 0.53877 0.0
H738 H 0.9883 0.89059 0.61017 0.0
H739 H 0.98552 0.9327 0.3924 0.0
C740 C 0.99469 0.84081 0.23382 0.0
C741 C 0.00239 0.81456 0.24504 0.0
C742 C 1.00107 0.80376 0.32038 0.0
C743 C 0.99399 0.81944 0.38422 0.0
C744 C 0.98821 0.8458 0.37149 0.0
C745 C 0.98838 0.8563 0.29779 0.0
C746 C 0.98537 0.88579 0.29967 0.0
C747 C 0.00894 0.89974 0.26206 0.0
C748 C 0.95982 0.89383 0.26086 0.0
C749 C 0.98448 0.89053 0.3862 0.0
C750 C 0.98541 0.8672 0.42673 0.0
C751 C 0.98629 0.86685 0.50748 0.0
C752 C 0.98676 0.89088 0.54759 0.0
C753 C 0.98692 0.91501 0.50694 0.0
C754 C 0.98524 0.91465 0.42523 0.0
H755 H 0.67273 0.97718 0.22015 0.0
H756 H 0.73074 0.00462 0.38406 0.0
H757 H 0.70361 0.98745 0.49225 0.0
H758 H 0.62196 1.00045 0.31785 0.0
H759 H 0.59926 0.97452 0.29339 0.0
H760 H 0.62609 0.98165 0.2301 0.0
H761 H 0.64116 0.93346 0.23926 0.0
H762 H 0.61414 0.92607 0.30254 0.0
H763 H 0.64684 0.91912 0.33297 0.0
H764 H 0.66652 0.97454 0.58186 0.0
H765 H 0.62321 0.97011 0.64313 0.0
H766 H 0.58876 0.95479 0.41818 0.0
C767 C 0.68009 0.97885 0.27879 0.0
C768 C 0.70371 0.99221 0.2942 0.0
C769 C 0.71278 0.99418 0.37131 0.0
C770 C 0.69748 0.98448 0.43287 0.0
C771 C 0.67343 0.97274 0.41575 0.0
C772 C 0.66493 0.96981 0.34019 0.0
C773 C 0.63687 0.96079 0.33639 0.0
C774 C 0.62008 0.98053 0.29188 0.0
C775 C 0.63463 0.93321 0.30069 0.0
C776 C 0.63028 0.9604 0.42162 0.0
C777 C 0.65177 0.96645 0.46683 0.0
C778 C 0.64975 0.96927 0.54705 0.0
C779 C 0.62508 0.96667 0.58138 0.0
C780 C 0.60274 0.962 0.53514 0.0
C781 C 0.60559 0.95809 0.45477 0.0
H782 H 0.45723 0.69315 0.41543 0.0
H783 H 0.52541 0.6947 0.26835 0.0
H784 H 0.54624 0.66202 0.35214 0.0
H785 H 0.49365 0.67903 0.60697 0.0
H786 H 0.46711 0.65826 0.63861 0.0
H787 H 0.46078 0.68655 0.57952 0.0
H788 H 0.43647 0.65661 0.48145 0.0
H789 H 0.44338 0.62813 0.53827 0.0
H790 H 0.45324 0.62941 0.43805 0.0
H791 H 0.55364 0.62067 0.42702 0.0
H792 H 0.55099 0.58002 0.50541 0.0
H793 H 0.47981 0.60727 0.61094 0.0
C794 C 0.4772 0.68785 0.40414 0.0
C795 C 0.48994 0.69675 0.33645 0.0
C796 C 0.51565 0.68865 0.32113 0.0
C797 C 0.5275 0.66983 0.36798 0.0
C798 C 0.51362 0.65986 0.43103 0.0
C799 C 0.4894 0.66932 0.451 0.0
C800 C 0.47738 0.65347 0.51628 0.0
C801 C 0.47458 0.67033 0.58972 0.0
C802 C 0.45108 0.64119 0.49199 0.0
C803 C 0.49785 0.63273 0.52671 0.0
C804 C 0.51863 0.63668 0.47702 0.0
C805 C 0.53802 0.61795 0.46841 0.0
C806 C 0.53628 0.59485 0.51244 0.0
C807 C 0.51553 0.59096 0.56509 0.0
C808 C 0.49631 0.61027 0.57277 0.0
H809 H 0.83355 0.5618 0.30966 0.0
H810 H 0.79202 0.48849 0.3445 0.0
H811 H 0.82369 0.47632 0.44556 0.0
H812 H 0.89179 0.53577 0.30363 0.0
H813 H 0.91002 0.56154 0.35136 0.0
H814 H 0.88029 0.569 0.30212 0.0
H815 H 0.86092 0.58913 0.42703 0.0
H816 H 0.89103 0.58276 0.4765 0.0
H817 H 0.86076 0.57044 0.51551 0.0
H818 H 0.86456 0.46792 0.51791 0.0
H819 H 0.90906 0.46536 0.56818 0.0
H820 H 0.92613 0.54331 0.47959 0.0
C821 C 0.83031 0.54391 0.34213 0.0
C822 C 0.8102 0.5262 0.32052 0.0
C823 C 0.80691 0.50253 0.36172 0.0
C824 C 0.82502 0.4954 0.41851 0.0
C825 C 0.84608 0.51227 0.43324 0.0
C826 C 0.84853 0.53633 0.39735 0.0
C827 C 0.87482 0.54901 0.41365 0.0
C828 C 0.89011 0.55411 0.33821 0.0
C829 C 0.87169 0.57434 0.46102 0.0
C830 C 0.88733 0.5278 0.46138 0.0
C831 C 0.87025 0.50701 0.47302 0.0
C832 C 0.87786 0.48434 0.51068 0.0
C833 C 0.90335 0.48304 0.53849 0.0
C834 C 0.92124 0.50421 0.52811 0.0
C835 C 0.913 0.52685 0.48869 0.0
loop_
_geom_bond_atom_site_label_1
_geom_bond_atom_site_label_2
_geom_bond_distance
_geom_bond_site_symmetry_2
_ccdc_geom_bond_type
H0 C5 0.930 . S
H1 C8 0.930 . S
H2 C10 0.930 . S
H3 C4 1.016 . S
C4 H3 1.016 . S
C4 N11 1.286 1_556 S
C5 H0 0.930 . S
C5 C6 1.397 . S
C5 C7 1.361 . S
C6 C5 1.397 . S
C6 C10 1.390 . S
C7 C5 1.361 . S
C7 C8 1.393 1_554 S
C7 N11 1.413 . S
C8 H1 0.930 . S
C8 C7 1.393 1_556 S
C8 C9 1.399 . S
C9 C8 1.399 . S
C9 C10 1.381 1_556 S
C10 H2 0.930 . S
C10 C6 1.390 . S
C10 C9 1.381 1_554 S
N11 C4 1.286 1_554 S
N11 C7 1.413 . S
H12 C17 0.930 . S
H13 C20 0.930 . S
H14 C22 0.930 . S
H15 C16 1.016 1_556 S
C16 H15 1.016 1_554 S
C16 N23 1.286 1_655 S
C17 H12 0.930 . S
C17 C18 1.397 . S
C17 C19 1.361 . S
C18 C17 1.397 . S
C18 C22 1.390 1_455 S
C19 C17 1.361 . S
C19 C20 1.393 . S
C19 N23 1.413 . S
C20 H13 0.930 . S
C20 C19 1.393 . S
C20 C21 1.399 . S
C21 C20 1.399 . S
C21 C22 1.381 1_455 S
C22 H14 0.930 . S
C22 C18 1.390 1_655 S
C22 C21 1.381 1_655 S
N23 C16 1.286 1_455 S
N23 C19 1.413 . S
H24 C29 0.930 . S
H25 C32 0.930 1_556 S
H26 C34 0.930 . S
H27 C28 1.016 1_556 S
C28 H27 1.016 1_554 S
C28 N35 1.286 1_565 S
C29 H24 0.930 . S
C29 C30 1.397 . S
C29 C31 1.361 . S
C30 C29 1.397 . S
C30 C34 1.390 1_545 S
C31 C29 1.361 . S
C31 C32 1.393 . S
C31 N35 1.413 . S
C32 H25 0.930 1_554 S
C32 C31 1.393 . S
C32 C33 1.404 . S
C33 C32 1.404 . S
C33 C34 1.378 1_545 S
C34 H26 0.930 . S
C34 C30 1.390 1_565 S
C34 C33 1.378 1_565 S
N35 C28 1.286 1_545 S
N35 C31 1.413 . S
H36 C41 0.930 . S
H37 C44 0.930 . S
H38 C46 0.930 . S
H39 C40 1.016 . S
C40 H39 1.016 . S
C40 N47 1.286 1_556 S
C41 H36 0.930 . S
C41 C42 1.397 . S
C41 C43 1.361 . S
C42 C41 1.397 . S
C42 C46 1.390 . S
C43 C41 1.361 . S
C43 C44 1.393 1_554 S
C43 N47 1.413 . S
C44 H37 0.930 . S
C44 C43 1.393 1_556 S
C44 C45 1.399 . S
C45 C44 1.399 . S
C45 C46 1.381 1_556 S
C46 H38 0.930 . S
C46 C42 1.390 . S
C46 C45 1.381 1_554 S
N47 C40 1.286 1_554 S
N47 C43 1.413 . S
H48 C53 0.930 . S
H49 C56 0.930 . S
H50 C58 0.930 . S
H51 C52 1.016 . S
C52 H51 1.016 . S
C52 N59 1.286 . S
C53 H48 0.930 . S
C53 C54 1.397 . S
C53 C55 1.361 . S
C54 C53 1.397 . S
C54 C58 1.390 . S
C55 C53 1.361 . S
C55 C56 1.393 . S
C55 N59 1.413 . S
C56 H49 0.930 . S
C56 C55 1.393 . S
C56 C57 1.399 . S
C57 C56 1.399 . S
C57 C58 1.381 . S
C58 H50 0.930 . S
C58 C54 1.390 . S
C58 C57 1.381 . S
N59 C52 1.286 . S
N59 C55 1.413 . S
H60 C65 0.930 . S
H61 C68 0.930 . S
H62 C70 0.930 . S
H63 C64 1.016 . S
C64 H63 1.016 . S
C64 N71 1.286 . S
C65 H60 0.930 . S
C65 C66 1.397 . S
C65 C67 1.361 . S
C66 C65 1.397 . S
C66 C70 1.390 . S
C67 C65 1.361 . S
C67 C68 1.393 . S
C67 N71 1.413 . S
C68 H61 0.930 . S
C68 C67 1.393 . S
C68 C69 1.399 . S
C69 C68 1.399 . S
C69 C70 1.381 . S
C70 H62 0.930 . S
C70 C66 1.390 . S
C70 C69 1.381 . S
N71 C64 1.286 . S
N71 C67 1.413 . S
H72 C77 0.930 . S
H73 C80 0.930 . S
H74 C82 0.930 . S
H75 C76 1.016 . S
C76 H75 1.016 . S
C76 N83 1.286 . S
C77 H72 0.930 . S
C77 C78 1.397 . S
C77 C79 1.361 . S
C78 C77 1.397 . S
C78 C82 1.390 . S
C79 C77 1.361 . S
C79 C80 1.393 . S
C79 N83 1.413 . S
C80 H73 0.930 . S
C80 C79 1.393 . S
C80 C81 1.399 . S
C81 C80 1.399 . S
C81 C82 1.381 . S
C82 H74 0.930 . S
C82 C78 1.390 . S
C82 C81 1.381 . S
N83 C76 1.286 . S
N83 C79 1.413 . S
H84 C89 0.930 . S
H85 C92 0.930 . S
H86 C94 0.930 . S
H87 C88 1.016 . S
C88 H87 1.016 . S
C88 N95 1.286 . S
C89 H84 0.930 . S
C89 C90 1.397 . S
C89 C91 1.361 . S
C90 C89 1.397 . S
C90 C94 1.390 . S
C91 C89 1.361 . S
C91 C92 1.393 . S
C91 N95 1.413 . S
C92 H85 0.930 . S
C92 C91 1.393 . S
C92 C93 1.399 . S
C93 C92 1.399 . S
C93 C94 1.381 . S
C94 H86 0.930 . S
C94 C90 1.390 . S
C94 C93 1.381 . S
N95 C88 1.286 . S
N95 C91 1.413 . S
O96 Zn97 1.956 . S
O96 C112 1.225 1_545 S
Zn97 O96 1.956 . S
Zn97 O98 1.948 1_545 S
Zn97 O104 1.949 . S
Zn97 O109 1.888 1_545 S
O98 Zn97 1.948 1_565 S
O98 Zn99 1.901 1_465 S
O98 Zn100 1.952 . S
O98 Zn101 1.965 1_455 S
Zn99 O98 1.901 1_645 S
Zn99 O102 1.933 . S
Zn99 O105 1.941 1_655 S
Zn99 O106 1.965 . S
Zn100 O98 1.952 . S
Zn100 O107 1.938 1_565 S
Zn100 O108 1.906 . S
Zn100 O118 1.953 . S
Zn101 O98 1.965 1_655 S
Zn101 O103 1.932 . S
Zn101 O110 1.977 . S
Zn101 O111 1.910 1_655 S
O102 Zn99 1.933 . S
O102 C113 1.226 . S
O103 Zn101 1.932 . S
O103 C113 1.307 1_565 S
O104 Zn97 1.949 . S
O104 C115 1.253 . S
O105 Zn99 1.941 1_455 S
O105 C115 1.283 . S
O106 Zn99 1.965 . S
O106 C114 1.303 1_655 S
O107 Zn100 1.938 1_545 S
O107 C114 1.247 . S
O108 Zn100 1.906 . S
O108 C116 1.304 1_455 S
O109 Zn97 1.888 1_565 S
O109 C117 1.311 . S
O110 Zn101 1.977 . S
O110 C116 1.272 . S
O111 Zn101 1.910 1_455 S
O111 C117 1.231 . S
C112 O96 1.225 1_565 S
C112 O118 1.298 . S
C113 O102 1.226 . S
C113 O103 1.307 1_545 S
C114 O106 1.303 1_455 S
C114 O107 1.247 . S
C115 O104 1.253 . S
C115 O105 1.283 . S
C116 O108 1.304 1_655 S
C116 O110 1.272 . S
C117 O109 1.311 . S
C117 O111 1.231 . S
O118 Zn100 1.953 . S
O118 C112 1.298 . S
O119 Zn120 1.953 . S
O119 C135 1.225 . S
Zn120 O119 1.953 . S
Zn120 O121 1.949 . S
Zn120 O127 1.919 . S
Zn120 O132 1.924 . S
O121 Zn120 1.949 . S
O121 Zn122 1.923 1_545 S
O121 Zn123 1.950 . S
O121 Zn124 1.945 1_545 S
Zn122 O121 1.923 1_565 S
Zn122 O125 1.933 . S
Zn122 O128 1.941 . S
Zn122 O129 1.965 . S
Zn123 O121 1.950 . S
Zn123 O130 1.938 . S
Zn123 O131 1.906 . S
Zn123 O141 1.953 . S
Zn124 O121 1.945 1_565 S
Zn124 O126 1.932 . S
Zn124 O133 1.977 . S
Zn124 O134 1.910 1_565 S
O125 Zn122 1.933 . S
O125 C136 1.226 . S
O126 Zn124 1.932 . S
O126 C136 1.307 . S
O127 Zn120 1.919 . S
O127 C138 1.253 . S
O128 Zn122 1.941 . S
O128 C138 1.283 1_565 S
O129 Zn122 1.965 . S
O129 C137 1.303 1_565 S
O130 Zn123 1.938 . S
O130 C137 1.247 . S
O131 Zn123 1.906 . S
O131 C139 1.304 1_545 S
O132 Zn120 1.924 . S
O132 C140 1.311 . S
O133 Zn124 1.977 . S
O133 C139 1.272 . S
O134 Zn124 1.910 1_545 S
O134 C140 1.231 . S
C135 O119 1.225 . S
C135 O141 1.298 . S
C136 O125 1.226 . S
C136 O126 1.307 . S
C137 O129 1.303 1_545 S
C137 O130 1.247 . S
C138 O127 1.253 . S
C138 O128 1.283 1_545 S
C139 O131 1.304 1_565 S
C139 O133 1.272 . S
C140 O132 1.311 . S
C140 O134 1.231 . S
O141 Zn123 1.953 . S
O141 C135 1.298 . S
O142 Zn143 1.953 . S
O142 C158 1.225 . S
Zn143 O142 1.953 . S
Zn143 O144 1.949 . S
Zn143 O150 1.919 . S
Zn143 O155 1.924 . S
O144 Zn143 1.949 . S
O144 Zn145 1.923 . S
O144 Zn146 1.950 . S
O144 Zn147 1.945 . S
Zn145 O144 1.923 . S
Zn145 O148 1.933 . S
Zn145 O151 1.941 . S
Zn145 O152 1.965 . S
Zn146 O144 1.950 . S
Zn146 O153 1.938 . S
Zn146 O154 1.906 . S
Zn146 O164 1.953 . S
Zn147 O144 1.945 . S
Zn147 O149 1.932 . S
Zn147 O156 1.977 . S
Zn147 O157 1.910 . S
O148 Zn145 1.933 . S
O148 C159 1.226 . S
O149 Zn147 1.932 . S
O149 C159 1.307 . S
O150 Zn143 1.919 . S
O150 C161 1.253 . S
O151 Zn145 1.941 . S
O151 C161 1.283 . S
O152 Zn145 1.965 . S
O152 C160 1.303 . S
O153 Zn146 1.938 . S
O153 C160 1.247 . S
O154 Zn146 1.906 . S
O154 C162 1.304 . S
O155 Zn143 1.924 . S
O155 C163 1.311 . S
O156 Zn147 1.977 . S
O156 C162 1.272 . S
O157 Zn147 1.910 . S
O157 C163 1.231 . S
C158 O142 1.225 . S
C158 O164 1.298 . S
C159 O148 1.226 . S
C159 O149 1.307 . S
C160 O152 1.303 . S
C160 O153 1.247 . S
C161 O150 1.253 . S
C161 O151 1.283 . S
C162 O154 1.304 . S
C162 O156 1.272 . S
C163 O155 1.311 . S
C163 O157 1.231 . S
O164 Zn146 1.953 . S
O164 C158 1.298 . S
O165 Zn166 1.921 1_655 S
O165 C181 1.225 . S
Zn166 O165 1.921 1_455 S
Zn166 O167 1.949 . S
Zn166 O173 1.919 . S
Zn166 O178 1.958 . S
O167 Zn166 1.949 . S
O167 Zn168 1.918 1_455 S
O167 Zn169 1.929 1_455 S
O167 Zn170 1.973 . S
Zn168 O167 1.918 1_655 S
Zn168 O171 1.933 1_655 S
Zn168 O174 1.941 . S
Zn168 O175 1.965 . S
Zn169 O167 1.929 1_655 S
Zn169 O176 1.938 . S
Zn169 O177 1.906 . S
Zn169 O187 1.953 . S
Zn170 O167 1.973 . S
Zn170 O172 1.932 . S
Zn170 O179 1.977 . S
Zn170 O180 1.910 . S
O171 Zn168 1.933 1_455 S
O171 C182 1.226 . S
O172 Zn170 1.932 . S
O172 C182 1.307 . S
O173 Zn166 1.919 . S
O173 C184 1.253 . S
O174 Zn168 1.941 . S
O174 C184 1.283 1_655 S
O175 Zn168 1.965 . S
O175 C183 1.303 . S
O176 Zn169 1.938 . S
O176 C183 1.247 . S
O177 Zn169 1.906 . S
O177 C185 1.304 1_655 S
O178 Zn166 1.958 . S
O178 C186 1.311 . S
O179 Zn170 1.977 . S
O179 C185 1.272 . S
O180 Zn170 1.910 . S
O180 C186 1.231 . S
C181 O165 1.225 . S
C181 O187 1.298 . S
C182 O171 1.226 . S
C182 O172 1.307 . S
C183 O175 1.303 . S
C183 O176 1.247 . S
C184 O173 1.253 . S
C184 O174 1.283 1_455 S
C185 O177 1.304 1_455 S
C185 O179 1.272 . S
C186 O178 1.311 . S
C186 O180 1.231 . S
O187 Zn169 1.953 . S
O187 C181 1.298 . S
H188 C200 0.930 . S
H189 C202 0.930 . S
H190 C203 0.930 . S
H191 C207 0.959 . S
H192 C207 0.959 . S
H193 C207 0.961 . S
H194 C208 0.960 . S
H195 C208 0.961 . S
H196 C208 0.959 . S
H197 C211 0.929 . S
H198 C212 0.931 . S
H199 C214 0.930 . S
C200 H188 0.930 . S
C200 C201 1.399 . S
C200 C205 1.399 . S
C201 C200 1.399 . S
C201 C202 1.376 1_545 S
C202 H189 0.930 . S
C202 C201 1.376 1_565 S
C202 C203 1.388 . S
C203 H190 0.930 . S
C203 C202 1.388 . S
C203 C204 1.390 . S
C204 C203 1.390 . S
C204 C205 1.394 1_565 S
C204 C210 1.465 . S
C205 C200 1.399 . S
C205 C204 1.394 1_545 S
C205 C206 1.516 . S
C206 C205 1.516 . S
C206 C207 1.502 . S
C206 C208 1.561 . S
C206 C209 1.526 . S
C207 H191 0.959 . S
C207 H192 0.959 . S
C207 H193 0.961 . S
C207 C206 1.502 . S
C208 H194 0.960 . S
C208 H195 0.961 . S
C208 H196 0.959 . S
C208 C206 1.561 . S
C209 C206 1.526 . S
C209 C210 1.396 1_545 S
C209 C214 1.390 . S
C210 C204 1.465 . S
C210 C209 1.396 1_565 S
C210 C211 1.399 . S
C211 H197 0.929 . S
C211 C210 1.399 . S
C211 C212 1.385 . S
C212 H198 0.931 . S
C212 C211 1.385 . S
C212 C213 1.389 . S
C213 C212 1.389 . S
C213 C214 1.387 1_565 S
C214 H199 0.930 . S
C214 C209 1.390 . S
C214 C213 1.387 1_545 S
H215 C227 0.930 . S
H216 C229 0.930 . S
H217 C230 0.930 . S
H218 C234 0.959 . S
H219 C234 0.959 . S
H220 C234 0.961 . S
H221 C235 0.960 . S
H222 C235 0.961 . S
H223 C235 0.959 . S
H224 C238 0.929 . S
H225 C239 0.931 . S
H226 C241 0.930 . S
C227 H215 0.930 . S
C227 C228 1.399 . S
C227 C232 1.399 . S
C228 C227 1.399 . S
C228 C229 1.376 . S
C229 H216 0.930 . S
C229 C228 1.376 . S
C229 C230 1.388 . S
C230 H217 0.930 . S
C230 C229 1.388 . S
C230 C231 1.390 . S
C231 C230 1.390 . S
C231 C232 1.394 . S
C231 C237 1.465 . S
C232 C227 1.399 . S
C232 C231 1.394 . S
C232 C233 1.516 . S
C233 C232 1.516 . S
C233 C234 1.502 . S
C233 C235 1.561 . S
C233 C236 1.526 . S
C234 H218 0.959 . S
C234 H219 0.959 . S
C234 H220 0.961 . S
C234 C233 1.502 . S
C235 H221 0.960 . S
C235 H222 0.961 . S
C235 H223 0.959 . S
C235 C233 1.561 . S
C236 C233 1.526 . S
C236 C237 1.396 . S
C236 C241 1.390 . S
C237 C231 1.465 . S
C237 C236 1.396 . S
C237 C238 1.399 . S
C238 H224 0.929 . S
C238 C237 1.399 . S
C238 C239 1.385 . S
C239 H225 0.931 . S
C239 C238 1.385 . S
C239 C240 1.389 . S
C240 C239 1.389 . S
C240 C241 1.387 . S
C241 H226 0.930 . S
C241 C236 1.390 . S
C241 C240 1.387 . S
H242 C254 0.930 . S
H243 C256 0.930 . S
H244 C257 0.930 . S
H245 C261 0.959 . S
H246 C261 0.959 . S
H247 C261 0.961 . S
H248 C262 0.960 . S
H249 C262 0.961 . S
H250 C262 0.959 . S
H251 C265 0.929 . S
H252 C266 0.931 . S
H253 C268 0.930 . S
C254 H242 0.930 . S
C254 C255 1.399 . S
C254 C259 1.399 . S
C255 C254 1.399 . S
C255 C256 1.376 . S
C256 H243 0.930 . S
C256 C255 1.376 . S
C256 C257 1.388 . S
C257 H244 0.930 . S
C257 C256 1.388 . S
C257 C258 1.390 . S
C258 C257 1.390 . S
C258 C259 1.394 . S
C258 C264 1.465 . S
C259 C254 1.399 . S
C259 C258 1.394 . S
C259 C260 1.516 . S
C260 C259 1.516 . S
C260 C261 1.502 . S
C260 C262 1.561 . S
C260 C263 1.526 . S
C261 H245 0.959 . S
C261 H246 0.959 . S
C261 H247 0.961 . S
C261 C260 1.502 . S
C262 H248 0.960 . S
C262 H249 0.961 . S
C262 H250 0.959 . S
C262 C260 1.561 . S
C263 C260 1.526 . S
C263 C264 1.396 . S
C263 C268 1.390 . S
C264 C258 1.465 . S
C264 C263 1.396 . S
C264 C265 1.399 . S
C265 H251 0.929 . S
C265 C264 1.399 . S
C265 C266 1.385 . S
C266 H252 0.931 . S
C266 C265 1.385 . S
C266 C267 1.389 . S
C267 C266 1.389 . S
C267 C268 1.387 . S
C268 H253 0.930 . S
C268 C263 1.390 . S
C268 C267 1.387 . S
H269 C281 0.930 . S
H270 C283 0.930 . S
H271 C284 0.930 . S
H272 C288 0.959 . S
H273 C288 0.959 . S
H274 C288 0.961 . S
H275 C289 0.960 . S
H276 C289 0.961 . S
H277 C289 0.959 1_655 S
H278 C292 0.929 . S
H279 C293 0.931 1_655 S
H280 C295 0.930 . S
C281 H269 0.930 . S
C281 C282 1.399 . S
C281 C286 1.399 . S
C282 C281 1.399 . S
C282 C283 1.376 . S
C283 H270 0.930 . S
C283 C282 1.376 . S
C283 C284 1.388 . S
C284 H271 0.930 . S
C284 C283 1.388 . S
C284 C285 1.390 . S
C285 C284 1.390 . S
C285 C286 1.394 . S
C285 C291 1.465 . S
C286 C281 1.399 . S
C286 C285 1.394 . S
C286 C287 1.516 . S
C287 C286 1.516 . S
C287 C288 1.502 . S
C287 C289 1.561 . S
C287 C290 1.526 . S
C288 H272 0.959 . S
C288 H273 0.959 . S
C288 H274 0.961 . S
C288 C287 1.502 . S
C289 H275 0.960 . S
C289 H276 0.961 . S
C289 H277 0.959 1_455 S
C289 C287 1.561 . S
C290 C287 1.526 . S
C290 C291 1.396 . S
C290 C295 1.390 . S
C291 C285 1.465 . S
C291 C290 1.396 . S
C291 C292 1.399 . S
C292 H278 0.929 . S
C292 C291 1.399 . S
C292 C293 1.385 . S
C293 H279 0.931 1_455 S
C293 C292 1.385 . S
C293 C294 1.389 . S
C294 C293 1.389 . S
C294 C295 1.387 . S
C295 H280 0.930 . S
C295 C290 1.390 . S
C295 C294 1.387 . S
H296 C308 0.930 . S
H297 C310 0.930 . S
H298 C311 0.930 . S
H299 C315 0.959 1_554 S
H300 C315 0.959 . S
H301 C315 0.961 1_554 S
H302 C316 0.960 . S
H303 C316 0.961 . S
H304 C316 0.959 . S
H305 C319 0.929 . S
H306 C320 0.931 . S
H307 C322 0.930 . S
C308 H296 0.930 . S
C308 C309 1.399 1_565 S
C308 C313 1.399 . S
C309 C308 1.399 1_545 S
C309 C310 1.376 . S
C310 H297 0.930 . S
C310 C309 1.376 . S
C310 C311 1.388 . S
C311 H298 0.930 . S
C311 C310 1.388 . S
C311 C312 1.390 . S
C312 C311 1.390 . S
C312 C313 1.394 1_545 S
C312 C318 1.465 . S
C313 C308 1.399 . S
C313 C312 1.394 1_565 S
C313 C314 1.516 . S
C314 C313 1.516 . S
C314 C315 1.502 . S
C314 C316 1.561 . S
C314 C317 1.526 . S
C315 H299 0.959 1_556 S
C315 H300 0.959 . S
C315 H301 0.961 1_556 S
C315 C314 1.502 . S
C316 H302 0.960 . S
C316 H303 0.961 . S
C316 H304 0.959 . S
C316 C314 1.561 . S
C317 C314 1.526 . S
C317 C318 1.396 1_565 S
C317 C322 1.390 . S
C318 C312 1.465 . S
C318 C317 1.396 1_545 S
C318 C319 1.399 . S
C319 H305 0.929 . S
C319 C318 1.399 . S
C319 C320 1.385 . S
C320 H306 0.931 . S
C320 C319 1.385 . S
C320 C321 1.389 . S
C321 C320 1.389 . S
C321 C322 1.387 1_545 S
C322 H307 0.930 . S
C322 C317 1.390 . S
C322 C321 1.387 1_565 S
H323 C335 0.930 1_554 S
H324 C337 0.930 . S
H325 C338 0.930 . S
H326 C342 0.959 . S
H327 C342 0.959 . S
H328 C342 0.961 . S
H329 C343 0.952 1_554 S
H330 C343 0.960 1_554 S
H331 C343 0.959 . S
H332 C346 0.929 . S
H333 C347 0.931 . S
H334 C349 0.930 . S
C335 H323 0.930 1_556 S
C335 C336 1.399 . S
C335 C340 1.399 . S
C336 C335 1.399 . S
C336 C337 1.376 . S
C337 H324 0.930 . S
C337 C336 1.376 . S
C337 C338 1.388 . S
C338 H325 0.930 . S
C338 C337 1.388 . S
C338 C339 1.390 . S
C339 C338 1.390 . S
C339 C340 1.394 . S
C339 C345 1.465 . S
C340 C335 1.399 . S
C340 C339 1.394 . S
C340 C341 1.516 . S
C341 C340 1.516 . S
C341 C342 1.502 . S
C341 C343 1.570 . S
C341 C344 1.526 . S
C342 H326 0.959 . S
C342 H327 0.959 . S
C342 H328 0.961 . S
C342 C341 1.502 . S
C343 H329 0.952 1_556 S
C343 H330 0.960 1_556 S
C343 H331 0.959 . S
C343 C341 1.570 . S
C344 C341 1.526 . S
C344 C345 1.396 . S
C344 C349 1.390 . S
C345 C339 1.465 . S
C345 C344 1.396 . S
C345 C346 1.399 . S
C346 H332 0.929 . S
C346 C345 1.399 . S
C346 C347 1.385 . S
C347 H333 0.931 . S
C347 C346 1.385 . S
C347 C348 1.389 . S
C348 C347 1.389 . S
C348 C349 1.387 . S
C349 H334 0.930 . S
C349 C344 1.390 . S
C349 C348 1.387 . S
H350 C362 0.930 . S
H351 C364 0.930 . S
H352 C365 0.930 . S
H353 C369 0.959 . S
H354 C369 0.959 . S
H355 C369 0.961 . S
H356 C370 0.960 . S
H357 C370 0.961 . S
H358 C370 0.959 . S
H359 C373 0.929 . S
H360 C374 0.931 . S
H361 C376 0.930 . S
C362 H350 0.930 . S
C362 C363 1.399 . S
C362 C367 1.399 . S
C363 C362 1.399 . S
C363 C364 1.376 . S
C364 H351 0.930 . S
C364 C363 1.376 . S
C364 C365 1.388 . S
C365 H352 0.930 . S
C365 C364 1.388 . S
C365 C366 1.390 . S
C366 C365 1.390 . S
C366 C367 1.394 . S
C366 C372 1.465 . S
C367 C362 1.399 . S
C367 C366 1.394 . S
C367 C368 1.516 . S
C368 C367 1.516 . S
C368 C369 1.502 . S
C368 C370 1.561 . S
C368 C371 1.526 . S
C369 H353 0.959 . S
C369 H354 0.959 . S
C369 H355 0.961 . S
C369 C368 1.502 . S
C370 H356 0.960 . S
C370 H357 0.961 . S
C370 H358 0.959 . S
C370 C368 1.561 . S
C371 C368 1.526 . S
C371 C372 1.396 . S
C371 C376 1.390 . S
C372 C366 1.465 . S
C372 C371 1.396 . S
C372 C373 1.399 . S
C373 H359 0.929 . S
C373 C372 1.399 . S
C373 C374 1.385 . S
C374 H360 0.931 . S
C374 C373 1.385 . S
C374 C375 1.389 . S
C375 C374 1.389 . S
C375 C376 1.387 . S
C376 H361 0.930 . S
C376 C371 1.390 . S
C376 C375 1.387 . S
H377 C389 0.930 . S
H378 C391 0.930 . S
H379 C392 0.930 . S
H380 C396 0.959 . S
H381 C396 0.959 . S
H382 C396 0.961 1_554 S
H383 C397 0.960 . S
H384 C397 0.961 . S
H385 C397 0.959 . S
H386 C400 0.929 . S
H387 C401 0.931 . S
H388 C403 0.930 . S
C389 H377 0.930 . S
C389 C390 1.399 1_455 S
C389 C394 1.399 1_554 S
C390 C389 1.399 1_655 S
C390 C391 1.376 1_554 S
C391 H378 0.930 . S
C391 C390 1.376 1_556 S
C391 C392 1.388 . S
C392 H379 0.930 . S
C392 C391 1.388 . S
C392 C393 1.390 . S
C393 C392 1.390 . S
C393 C394 1.394 1_655 S
C393 C399 1.465 . S
C394 C389 1.399 1_556 S
C394 C393 1.394 1_455 S
C394 C395 1.516 . S
C395 C394 1.516 . S
C395 C396 1.502 . S
C395 C397 1.561 1_456 S
C395 C398 1.526 . S
C396 H380 0.959 . S
C396 H381 0.959 . S
C396 H382 0.961 1_556 S
C396 C395 1.502 . S
C397 H383 0.960 . S
C397 H384 0.961 . S
C397 H385 0.959 . S
C397 C395 1.561 1_654 S
C398 C395 1.526 . S
C398 C399 1.396 1_455 S
C398 C403 1.390 . S
C399 C393 1.465 . S
C399 C398 1.396 1_655 S
C399 C400 1.399 . S
C400 H386 0.929 . S
C400 C399 1.399 . S
C400 C401 1.385 . S
C401 H387 0.931 . S
C401 C400 1.385 . S
C401 C402 1.389 1_655 S
C402 C401 1.389 1_455 S
C402 C403 1.387 . S
C403 H388 0.930 . S
C403 C398 1.390 . S
C403 C402 1.387 . S
H404 C416 0.930 . S
H405 C418 0.930 . S
H406 C419 0.930 . S
H407 C423 0.959 . S
H408 C423 0.959 . S
H409 C423 0.961 . S
H410 C424 0.960 . S
H411 C424 0.961 . S
H412 C424 0.959 1_655 S
H413 C427 0.929 . S
H414 C428 0.931 . S
H415 C430 0.930 . S
C416 H404 0.930 . S
C416 C417 1.399 . S
C416 C421 1.399 . S
C417 C416 1.399 . S
C417 C418 1.376 . S
C418 H405 0.930 . S
C418 C417 1.376 . S
C418 C419 1.388 . S
C419 H406 0.930 . S
C419 C418 1.388 . S
C419 C420 1.390 . S
C420 C419 1.390 . S
C420 C421 1.394 . S
C420 C426 1.465 . S
C421 C416 1.399 . S
C421 C420 1.394 . S
C421 C422 1.516 . S
C422 C421 1.516 . S
C422 C423 1.502 . S
C422 C424 1.561 . S
C422 C425 1.526 . S
C423 H407 0.959 . S
C423 H408 0.959 . S
C423 H409 0.961 . S
C423 C422 1.502 . S
C424 H410 0.960 . S
C424 H411 0.961 . S
C424 H412 0.959 1_455 S
C424 C422 1.561 . S
C425 C422 1.526 . S
C425 C426 1.396 . S
C425 C430 1.390 . S
C426 C420 1.465 . S
C426 C425 1.396 . S
C426 C427 1.399 . S
C427 H413 0.929 . S
C427 C426 1.399 . S
C427 C428 1.385 . S
C428 H414 0.931 . S
C428 C427 1.385 . S
C428 C429 1.389 . S
C429 C428 1.389 . S
C429 C430 1.387 . S
C430 H415 0.930 . S
C430 C425 1.390 . S
C430 C429 1.387 . S
H431 C443 0.930 . S
H432 C445 0.930 . S
H433 C446 0.930 . S
H434 C450 0.959 . S
H435 C450 0.959 . S
H436 C450 0.961 . S
H437 C451 0.960 . S
H438 C451 0.961 . S
H439 C451 0.959 . S
H440 C454 0.929 . S
H441 C455 0.931 . S
H442 C457 0.930 . S
C443 H431 0.930 . S
C443 C444 1.399 1_565 S
C443 C448 1.399 . S
C444 C443 1.399 1_545 S
C444 C445 1.376 . S
C445 H432 0.930 . S
C445 C444 1.376 . S
C445 C446 1.388 . S
C446 H433 0.930 . S
C446 C445 1.388 . S
C446 C447 1.390 . S
C447 C446 1.390 . S
C447 C448 1.394 1_545 S
C447 C453 1.465 . S
C448 C443 1.399 . S
C448 C447 1.394 1_565 S
C448 C449 1.516 . S
C449 C448 1.516 . S
C449 C450 1.502 . S
C449 C451 1.561 . S
C449 C452 1.526 . S
C450 H434 0.959 . S
C450 H435 0.959 . S
C450 H436 0.961 . S
C450 C449 1.502 . S
C451 H437 0.960 . S
C451 H438 0.961 . S
C451 H439 0.959 . S
C451 C449 1.561 . S
C452 C449 1.526 . S
C452 C453 1.396 1_565 S
C452 C457 1.390 . S
C453 C447 1.465 . S
C453 C452 1.396 1_545 S
C453 C454 1.399 . S
C454 H440 0.929 . S
C454 C453 1.399 . S
C454 C455 1.385 . S
C455 H441 0.931 . S
C455 C454 1.385 . S
C455 C456 1.389 . S
C456 C455 1.389 . S
C456 C457 1.387 1_545 S
C457 H442 0.930 . S
C457 C452 1.390 . S
C457 C456 1.387 1_565 S
H458 C470 0.930 . S
H459 C472 0.930 . S
H460 C473 0.930 . S
H461 C477 0.959 . S
H462 C477 0.959 . S
H463 C477 0.961 . S
H464 C478 0.960 . S
H465 C478 0.961 . S
H466 C478 0.959 . S
H467 C481 0.929 . S
H468 C482 0.931 . S
H469 C484 0.930 . S
C470 H458 0.930 . S
C470 C471 1.399 . S
C470 C475 1.399 . S
C471 C470 1.399 . S
C471 C472 1.376 . S
C472 H459 0.930 . S
C472 C471 1.376 . S
C472 C473 1.388 . S
C473 H460 0.930 . S
C473 C472 1.388 . S
C473 C474 1.390 . S
C474 C473 1.390 . S
C474 C475 1.394 . S
C474 C480 1.465 . S
C475 C470 1.399 . S
C475 C474 1.394 . S
C475 C476 1.516 . S
C476 C475 1.516 . S
C476 C477 1.502 . S
C476 C478 1.561 . S
C476 C479 1.526 . S
C477 H461 0.959 . S
C477 H462 0.959 . S
C477 H463 0.961 . S
C477 C476 1.502 . S
C478 H464 0.960 . S
C478 H465 0.961 . S
C478 H466 0.959 . S
C478 C476 1.561 . S
C479 C476 1.526 . S
C479 C480 1.396 . S
C479 C484 1.390 . S
C480 C474 1.465 . S
C480 C479 1.396 . S
C480 C481 1.399 . S
C481 H467 0.929 . S
C481 C480 1.399 . S
C481 C482 1.385 . S
C482 H468 0.931 . S
C482 C481 1.385 . S
C482 C483 1.389 . S
C483 C482 1.389 . S
C483 C484 1.387 . S
C484 H469 0.930 . S
C484 C479 1.390 . S
C484 C483 1.387 . S
H485 C497 0.930 . S
H486 C499 0.930 . S
H487 C500 0.930 . S
H488 C504 0.959 . S
H489 C504 0.959 . S
H490 C504 0.961 . S
H491 C505 0.960 . S
H492 C505 0.961 . S
H493 C505 0.959 . S
H494 C508 0.929 . S
H495 C509 0.931 . S
H496 C511 0.930 . S
C497 H485 0.930 . S
C497 C498 1.399 . S
C497 C502 1.399 . S
C498 C497 1.399 . S
C498 C499 1.376 . S
C499 H486 0.930 . S
C499 C498 1.376 . S
C499 C500 1.388 . S
C500 H487 0.930 . S
C500 C499 1.388 . S
C500 C501 1.390 . S
C501 C500 1.390 . S
C501 C502 1.394 . S
C501 C507 1.465 . S
C502 C497 1.399 . S
C502 C501 1.394 . S
C502 C503 1.516 . S
C503 C502 1.516 . S
C503 C504 1.502 . S
C503 C505 1.561 . S
C503 C506 1.526 . S
C504 H488 0.959 . S
C504 H489 0.959 . S
C504 H490 0.961 . S
C504 C503 1.502 . S
C505 H491 0.960 . S
C505 H492 0.961 . S
C505 H493 0.959 . S
C505 C503 1.561 . S
C506 C503 1.526 . S
C506 C507 1.396 . S
C506 C511 1.390 . S
C507 C501 1.465 . S
C507 C506 1.396 . S
C507 C508 1.399 . S
C508 H494 0.929 . S
C508 C507 1.399 . S
C508 C509 1.385 . S
C509 H495 0.931 . S
C509 C508 1.385 . S
C509 C510 1.389 . S
C510 C509 1.389 . S
C510 C511 1.387 . S
C511 H496 0.930 . S
C511 C506 1.390 . S
C511 C510 1.387 . S
H512 C524 0.930 1_655 S
H513 C526 0.930 . S
H514 C527 0.930 . S
H515 C531 0.959 . S
H516 C531 0.950 1_455 S
H517 C531 0.961 . S
H518 C532 0.960 . S
H519 C532 0.961 . S
H520 C532 0.959 . S
H521 C535 0.929 . S
H522 C536 0.931 . S
H523 C538 0.930 . S
C524 H512 0.930 1_455 S
C524 C525 1.399 . S
C524 C529 1.399 . S
C525 C524 1.399 . S
C525 C526 1.376 1_554 S
C526 H513 0.930 . S
C526 C525 1.376 1_556 S
C526 C527 1.388 . S
C527 H514 0.930 . S
C527 C526 1.388 . S
C527 C528 1.390 . S
C528 C527 1.390 . S
C528 C529 1.394 1_556 S
C528 C534 1.465 . S
C529 C524 1.399 . S
C529 C528 1.394 1_554 S
C529 C530 1.516 . S
C530 C529 1.516 . S
C530 C531 1.502 1_455 S
C530 C532 1.561 . S
C530 C533 1.526 1_554 S
C531 H515 0.959 . S
C531 H516 0.950 1_655 S
C531 H517 0.961 . S
C531 C530 1.502 1_655 S
C532 H518 0.960 . S
C532 H519 0.961 . S
C532 H520 0.959 . S
C532 C530 1.561 . S
C533 C530 1.526 1_556 S
C533 C534 1.396 . S
C533 C538 1.390 . S
C534 C528 1.465 . S
C534 C533 1.396 . S
C534 C535 1.399 . S
C535 H521 0.929 . S
C535 C534 1.399 . S
C535 C536 1.385 . S
C536 H522 0.931 . S
C536 C535 1.385 . S
C536 C537 1.389 . S
C537 C536 1.389 . S
C537 C538 1.387 . S
C538 H523 0.930 . S
C538 C533 1.390 . S
C538 C537 1.387 . S
H539 C551 0.930 . S
H540 C553 0.930 . S
H541 C554 0.930 . S
H542 C558 0.959 . S
H543 C558 0.959 . S
H544 C558 0.961 . S
H545 C559 0.960 . S
H546 C559 0.961 . S
H547 C559 0.959 . S
H548 C562 0.929 . S
H549 C563 0.931 . S
H550 C565 0.930 1_565 S
C551 H539 0.930 . S
C551 C552 1.399 1_565 S
C551 C556 1.399 . S
C552 C551 1.399 1_545 S
C552 C553 1.376 1_556 S
C553 H540 0.930 . S
C553 C552 1.376 1_554 S
C553 C554 1.388 1_554 S
C554 H541 0.930 . S
C554 C553 1.388 1_556 S
C554 C555 1.390 . S
C555 C554 1.390 . S
C555 C556 1.394 1_545 S
C555 C561 1.465 . S
C556 C551 1.399 . S
C556 C555 1.394 1_565 S
C556 C557 1.516 . S
C557 C556 1.516 . S
C557 C558 1.502 . S
C557 C559 1.561 . S
C557 C560 1.526 1_565 S
C558 H542 0.959 . S
C558 H543 0.959 . S
C558 H544 0.961 . S
C558 C557 1.502 . S
C559 H545 0.960 . S
C559 H546 0.961 . S
C559 H547 0.959 . S
C559 C557 1.561 . S
C560 C557 1.526 1_545 S
C560 C561 1.396 . S
C560 C565 1.390 . S
C561 C555 1.465 . S
C561 C560 1.396 . S
C561 C562 1.399 . S
C562 H548 0.929 . S
C562 C561 1.399 . S
C562 C563 1.385 . S
C563 H549 0.931 . S
C563 C562 1.385 . S
C563 C564 1.389 . S
C564 C563 1.389 . S
C564 C565 1.387 . S
C565 H550 0.930 1_545 S
C565 C560 1.390 . S
C565 C564 1.387 . S
H566 C578 0.930 1_554 S
H567 C580 0.930 . S
H568 C581 0.930 . S
H569 C585 0.959 . S
H570 C585 0.959 . S
H571 C585 0.961 1_554 S
H572 C586 0.960 . S
H573 C586 0.961 . S
H574 C586 0.959 . S
H575 C589 0.929 . S
H576 C590 0.931 . S
H577 C592 0.930 . S
C578 H566 0.930 1_556 S
C578 C579 1.399 . S
C578 C583 1.399 . S
C579 C578 1.399 . S
C579 C580 1.376 . S
C580 H567 0.930 . S
C580 C579 1.376 . S
C580 C581 1.388 . S
C581 H568 0.930 . S
C581 C580 1.388 . S
C581 C582 1.390 . S
C582 C581 1.390 . S
C582 C583 1.394 . S
C582 C588 1.465 . S
C583 C578 1.399 . S
C583 C582 1.394 . S
C583 C584 1.516 . S
C584 C583 1.516 . S
C584 C585 1.502 . S
C584 C586 1.561 1_556 S
C584 C587 1.526 . S
C585 H569 0.959 . S
C585 H570 0.959 . S
C585 H571 0.961 1_556 S
C585 C584 1.502 . S
C586 H572 0.960 . S
C586 H573 0.961 . S
C586 H574 0.959 . S
C586 C584 1.561 1_554 S
C587 C584 1.526 . S
C587 C588 1.396 . S
C587 C592 1.390 . S
C588 C582 1.465 . S
C588 C587 1.396 . S
C588 C589 1.399 . S
C589 H575 0.929 . S
C589 C588 1.399 . S
C589 C590 1.385 . S
C590 H576 0.931 . S
C590 C589 1.385 . S
C590 C591 1.389 . S
C591 C590 1.389 . S
C591 C592 1.387 . S
C592 H577 0.930 . S
C592 C587 1.390 . S
C592 C591 1.387 . S
H593 C605 0.930 . S
H594 C607 0.930 1_554 S
H595 C608 0.930 1_554 S
H596 C612 0.959 . S
H597 C612 0.959 . S
H598 C612 0.961 . S
H599 C613 0.960 . S
H600 C613 0.961 . S
H601 C613 0.959 . S
H602 C616 0.929 . S
H603 C617 0.931 . S
H604 C619 0.930 . S
C605 H593 0.930 . S
C605 C606 1.399 . S
C605 C610 1.399 . S
C606 C605 1.399 . S
C606 C607 1.376 . S
C607 H594 0.930 1_556 S
C607 C606 1.376 . S
C607 C608 1.388 . S
C608 H595 0.930 1_556 S
C608 C607 1.388 . S
C608 C609 1.390 . S
C609 C608 1.390 . S
C609 C610 1.394 . S
C609 C615 1.465 . S
C610 C605 1.399 . S
C610 C609 1.394 . S
C610 C611 1.516 . S
C611 C610 1.516 . S
C611 C612 1.502 . S
C611 C613 1.561 . S
C611 C614 1.526 . S
C612 H596 0.959 . S
C612 H597 0.959 . S
C612 H598 0.961 . S
C612 C611 1.502 . S
C613 H599 0.960 . S
C613 H600 0.961 . S
C613 H601 0.959 . S
C613 C611 1.561 . S
C614 C611 1.526 . S
C614 C615 1.396 . S
C614 C619 1.390 . S
C615 C609 1.465 . S
C615 C614 1.396 . S
C615 C616 1.399 . S
C616 H602 0.929 . S
C616 C615 1.399 . S
C616 C617 1.385 . S
C617 H603 0.931 . S
C617 C616 1.385 . S
C617 C618 1.389 . S
C618 C617 1.389 . S
C618 C619 1.387 . S
C619 H604 0.930 . S
C619 C614 1.390 . S
C619 C618 1.387 . S
H620 C632 0.930 . S
H621 C634 0.930 . S
H622 C635 0.930 1_556 S
H623 C639 0.959 . S
H624 C639 0.959 . S
H625 C639 0.961 . S
H626 C640 0.960 . S
H627 C640 0.961 . S
H628 C640 0.959 . S
H629 C643 0.929 . S
H630 C644 0.931 . S
H631 C646 0.930 . S
C632 H620 0.930 . S
C632 C633 1.399 . S
C632 C637 1.399 . S
C633 C632 1.399 . S
C633 C634 1.376 . S
C634 H621 0.930 . S
C634 C633 1.376 . S
C634 C635 1.388 . S
C635 H622 0.930 1_554 S
C635 C634 1.388 . S
C635 C636 1.390 . S
C636 C635 1.390 . S
C636 C637 1.394 . S
C636 C642 1.465 . S
C637 C632 1.399 . S
C637 C636 1.394 . S
C637 C638 1.516 . S
C638 C637 1.516 . S
C638 C639 1.502 . S
C638 C640 1.561 1_455 S
C638 C641 1.526 . S
C639 H623 0.959 . S
C639 H624 0.959 . S
C639 H625 0.961 . S
C639 C638 1.502 . S
C640 H626 0.960 . S
C640 H627 0.961 . S
C640 H628 0.959 . S
C640 C638 1.561 1_655 S
C641 C638 1.526 . S
C641 C642 1.396 . S
C641 C646 1.390 . S
C642 C636 1.465 . S
C642 C641 1.396 . S
C642 C643 1.399 1_554 S
C643 H629 0.929 . S
C643 C642 1.399 1_556 S
C643 C644 1.385 . S
C644 H630 0.931 . S
C644 C643 1.385 . S
C644 C645 1.389 . S
C645 C644 1.389 . S
C645 C646 1.387 1_556 S
C646 H631 0.930 . S
C646 C641 1.390 . S
C646 C645 1.387 1_554 S
H647 C659 0.930 . S
H648 C661 0.930 . S
H649 C662 0.930 . S
H650 C666 0.959 . S
H651 C666 0.959 . S
H652 C666 0.961 . S
H653 C667 0.960 . S
H654 C667 0.961 1_556 S
H655 C667 0.959 . S
H656 C670 0.929 1_554 S
H657 C671 0.931 . S
H658 C673 0.930 . S
C659 H647 0.930 . S
C659 C660 1.399 . S
C659 C664 1.399 . S
C660 C659 1.399 . S
C660 C661 1.376 1_545 S
C661 H648 0.930 . S
C661 C660 1.376 1_565 S
C661 C662 1.388 . S
C662 H649 0.930 . S
C662 C661 1.388 . S
C662 C663 1.390 . S
C663 C662 1.390 . S
C663 C664 1.394 1_565 S
C663 C669 1.465 . S
C664 C659 1.399 . S
C664 C663 1.394 1_545 S
C664 C665 1.516 1_554 S
C665 C664 1.516 1_556 S
C665 C666 1.502 . S
C665 C667 1.561 1_556 S
C665 C668 1.526 . S
C666 H650 0.959 . S
C666 H651 0.959 . S
C666 H652 0.961 . S
C666 C665 1.502 . S
C667 H653 0.960 . S
C667 H654 0.961 1_554 S
C667 H655 0.959 . S
C667 C665 1.561 1_554 S
C668 C665 1.526 . S
C668 C669 1.396 1_546 S
C668 C673 1.390 . S
C669 C663 1.465 . S
C669 C668 1.396 1_564 S
C669 C670 1.399 1_554 S
C670 H656 0.929 1_556 S
C670 C669 1.399 1_556 S
C670 C671 1.385 . S
C671 H657 0.931 . S
C671 C670 1.385 . S
C671 C672 1.389 1_565 S
C672 C671 1.389 1_545 S
C672 C673 1.387 . S
C673 H658 0.930 . S
C673 C668 1.390 . S
C673 C672 1.387 . S
H674 C686 0.930 . S
H675 C688 0.930 . S
H676 C689 0.930 . S
H677 C693 0.959 . S
H678 C693 0.959 . S
H679 C693 0.961 . S
H680 C694 0.960 . S
H681 C694 0.961 1_556 S
H682 C694 0.959 . S
H683 C697 0.929 . S
H684 C698 0.931 . S
H685 C700 0.930 . S
C686 H674 0.930 . S
C686 C687 1.399 . S
C686 C691 1.399 . S
C687 C686 1.399 . S
C687 C688 1.376 . S
C688 H675 0.930 . S
C688 C687 1.376 . S
C688 C689 1.388 . S
C689 H676 0.930 . S
C689 C688 1.388 . S
C689 C690 1.390 . S
C690 C689 1.390 . S
C690 C691 1.394 . S
C690 C696 1.465 1_554 S
C691 C686 1.399 . S
C691 C690 1.394 . S
C691 C692 1.516 1_554 S
C692 C691 1.516 1_556 S
C692 C693 1.502 . S
C692 C694 1.561 1_556 S
C692 C695 1.526 . S
C693 H677 0.959 . S
C693 H678 0.959 . S
C693 H679 0.961 . S
C693 C692 1.502 . S
C694 H680 0.960 . S
C694 H681 0.961 1_554 S
C694 H682 0.959 . S
C694 C692 1.561 1_554 S
C695 C692 1.526 . S
C695 C696 1.396 . S
C695 C700 1.390 . S
C696 C690 1.465 1_556 S
C696 C695 1.396 . S
C696 C697 1.399 . S
C697 H683 0.929 . S
C697 C696 1.399 . S
C697 C698 1.385 . S
C698 H684 0.931 . S
C698 C697 1.385 . S
C698 C699 1.389 . S
C699 C698 1.389 . S
C699 C700 1.387 . S
C700 H685 0.930 . S
C700 C695 1.390 . S
C700 C699 1.387 . S
H701 C713 0.930 . S
H702 C715 0.930 . S
H703 C716 0.930 . S
H704 C720 0.959 . S
H705 C720 0.959 . S
H706 C720 0.961 . S
H707 C721 0.960 . S
H708 C721 0.961 . S
H709 C721 0.959 . S
H710 C724 0.929 . S
H711 C725 0.931 . S
H712 C727 0.930 . S
C713 H701 0.930 . S
C713 C714 1.399 . S
C713 C718 1.399 . S
C714 C713 1.399 . S
C714 C715 1.376 . S
C715 H702 0.930 . S
C715 C714 1.376 . S
C715 C716 1.388 . S
C716 H703 0.930 . S
C716 C715 1.388 . S
C716 C717 1.390 . S
C717 C716 1.390 . S
C717 C718 1.394 . S
C717 C723 1.465 1_554 S
C718 C713 1.399 . S
C718 C717 1.394 . S
C718 C719 1.516 1_554 S
C719 C718 1.516 1_556 S
C719 C720 1.502 . S
C719 C721 1.561 . S
C719 C722 1.526 . S
C720 H704 0.959 . S
C720 H705 0.959 . S
C720 H706 0.961 . S
C720 C719 1.502 . S
C721 H707 0.960 . S
C721 H708 0.961 . S
C721 H709 0.959 . S
C721 C719 1.561 . S
C722 C719 1.526 . S
C722 C723 1.396 . S
C722 C727 1.390 . S
C723 C717 1.465 1_556 S
C723 C722 1.396 . S
C723 C724 1.399 1_556 S
C724 H710 0.929 . S
C724 C723 1.399 1_554 S
C724 C725 1.385 1_554 S
C725 H711 0.931 . S
C725 C724 1.385 1_556 S
C725 C726 1.389 . S
C726 C725 1.389 . S
C726 C727 1.387 . S
C727 H712 0.930 . S
C727 C722 1.390 . S
C727 C726 1.387 . S
H728 C740 0.930 . S
H729 C742 0.930 . S
H730 C743 0.930 . S
H731 C747 0.959 . S
H732 C747 0.959 . S
H733 C747 0.961 . S
H734 C748 0.960 . S
H735 C748 0.961 . S
H736 C748 0.959 . S
H737 C751 0.936 . S
H738 C752 0.931 . S
H739 C754 0.930 . S
C740 H728 0.930 . S
C740 C741 1.396 1_655 S
C740 C745 1.399 . S
C741 C740 1.396 1_455 S
C741 C742 1.379 . S
C742 H729 0.930 . S
C742 C741 1.379 . S
C742 C743 1.388 . S
C743 H730 0.930 . S
C743 C742 1.388 . S
C743 C744 1.390 1_455 S
C744 C743 1.390 1_655 S
C744 C745 1.394 . S
C744 C750 1.465 . S
C745 C740 1.399 . S
C745 C744 1.394 . S
C745 C746 1.516 . S
C746 C745 1.516 . S
C746 C747 1.502 . S
C746 C748 1.561 1_655 S
C746 C749 1.526 . S
C747 H731 0.959 . S
C747 H732 0.959 . S
C747 H733 0.961 . S
C747 C746 1.502 . S
C748 H734 0.960 . S
C748 H735 0.961 . S
C748 H736 0.959 . S
C748 C746 1.561 1_455 S
C749 C746 1.526 . S
C749 C750 1.396 . S
C749 C754 1.390 . S
C750 C744 1.465 . S
C750 C749 1.396 . S
C750 C751 1.399 . S
C751 H737 0.936 . S
C751 C750 1.399 . S
C751 C752 1.385 . S
C752 H738 0.931 . S
C752 C751 1.385 . S
C752 C753 1.389 . S
C753 C752 1.389 . S
C753 C754 1.387 . S
C754 H739 0.930 . S
C754 C749 1.390 . S
C754 C753 1.387 . S
H755 C767 0.930 . S
H756 C769 0.930 . S
H757 C770 0.930 . S
H758 C774 0.959 . S
H759 C774 0.959 . S
H760 C774 0.961 . S
H761 C775 0.960 . S
H762 C775 0.961 . S
H763 C775 0.959 . S
H764 C778 0.929 . S
H765 C779 0.931 . S
H766 C781 0.930 . S
C767 H755 0.930 . S
C767 C768 1.376 1_565 S
C767 C772 1.399 . S
C768 C767 1.376 1_545 S
C768 C769 1.402 . S
C769 H756 0.930 . S
C769 C768 1.402 . S
C769 C770 1.388 . S
C770 H757 0.930 . S
C770 C769 1.388 . S
C770 C771 1.390 . S
C771 C770 1.390 . S
C771 C772 1.394 1_545 S
C771 C777 1.469 . S
C772 C767 1.399 . S
C772 C771 1.394 1_565 S
C772 C773 1.516 . S
C773 C772 1.516 . S
C773 C774 1.502 . S
C773 C775 1.561 . S
C773 C776 1.526 . S
C774 H758 0.959 . S
C774 H759 0.959 . S
C774 H760 0.961 . S
C774 C773 1.502 . S
C775 H761 0.960 . S
C775 H762 0.961 . S
C775 H763 0.959 . S
C775 C773 1.561 . S
C776 C773 1.526 . S
C776 C777 1.365 1_565 S
C776 C781 1.390 . S
C777 C771 1.469 . S
C777 C776 1.365 1_545 S
C777 C778 1.420 . S
C778 H764 0.929 . S
C778 C777 1.420 . S
C778 C779 1.385 . S
C779 H765 0.931 . S
C779 C778 1.385 . S
C779 C780 1.389 1_545 S
C780 C779 1.389 1_565 S
C780 C781 1.387 . S
C781 H766 0.930 . S
C781 C776 1.390 . S
C781 C780 1.387 . S
H782 C794 0.930 . S
H783 C796 0.930 . S
H784 C797 0.930 . S
H785 C801 0.959 . S
H786 C801 0.959 . S
H787 C801 0.961 . S
H788 C802 0.960 . S
H789 C802 0.961 . S
H790 C802 0.959 . S
H791 C805 0.929 . S
H792 C806 0.931 . S
H793 C808 0.930 . S
C794 H782 0.930 . S
C794 C795 1.399 . S
C794 C799 1.399 . S
C795 C794 1.399 . S
C795 C796 1.376 . S
C796 H783 0.930 . S
C796 C795 1.376 . S
C796 C797 1.388 . S
C797 H784 0.930 . S
C797 C796 1.388 . S
C797 C798 1.390 . S
C798 C797 1.390 . S
C798 C799 1.394 . S
C798 C804 1.465 . S
C799 C794 1.399 . S
C799 C798 1.394 . S
C799 C800 1.516 . S
C800 C799 1.516 . S
C800 C801 1.502 . S
C800 C802 1.561 . S
C800 C803 1.526 . S
C801 H785 0.959 . S
C801 H786 0.959 . S
C801 H787 0.961 . S
C801 C800 1.502 . S
C802 H788 0.960 . S
C802 H789 0.961 . S
C802 H790 0.959 . S
C802 C800 1.561 . S
C803 C800 1.526 . S
C803 C804 1.396 . S
C803 C808 1.390 . S
C804 C798 1.465 . S
C804 C803 1.396 . S
C804 C805 1.399 . S
C805 H791 0.929 . S
C805 C804 1.399 . S
C805 C806 1.385 . S
C806 H792 0.931 . S
C806 C805 1.385 . S
C806 C807 1.389 . S
C807 C806 1.389 . S
C807 C808 1.387 . S
C808 H793 0.930 . S
C808 C803 1.390 . S
C808 C807 1.387 . S
H809 C821 0.930 . S
H810 C823 0.930 . S
H811 C824 0.930 . S
H812 C828 0.959 . S
H813 C828 0.959 . S
H814 C828 0.961 . S
H815 C829 0.960 . S
H816 C829 0.961 . S
H817 C829 0.959 . S
H818 C832 0.929 . S
H819 C833 0.931 . S
H820 C835 0.930 . S
C821 H809 0.930 . S
C821 C822 1.399 . S
C821 C826 1.399 . S
C822 C821 1.399 . S
C822 C823 1.376 . S
C823 H810 0.930 . S
C823 C822 1.376 . S
C823 C824 1.388 . S
C824 H811 0.930 . S
C824 C823 1.388 . S
C824 C825 1.390 . S
C825 C824 1.390 . S
C825 C826 1.394 . S
C825 C831 1.465 . S
C826 C821 1.399 . S
C826 C825 1.394 . S
C826 C827 1.516 . S
C827 C826 1.516 . S
C827 C828 1.502 . S
C827 C829 1.561 . S
C827 C830 1.526 . S
C828 H812 0.959 . S
C828 H813 0.959 . S
C828 H814 0.961 . S
C828 C827 1.502 . S
C829 H815 0.960 . S
C829 H816 0.961 . S
C829 H817 0.959 . S
C829 C827 1.561 . S
C830 C827 1.526 . S
C830 C831 1.396 . S
C830 C835 1.390 . S
C831 C825 1.465 . S
C831 C830 1.396 . S
C831 C832 1.399 . S
C832 H818 0.929 . S
C832 C831 1.399 . S
C832 C833 1.385 . S
C833 H819 0.931 . S
C833 C832 1.385 . S
C833 C834 1.389 . S
C834 C833 1.389 . S
C834 C835 1.387 . S
C835 H820 0.930 . S
C835 C830 1.390 . S
C835 C834 1.387 . S
C201 C76 1.577 . S
C213 C112 1.574 . S
C240 C135 1.595 . S
C228 C88 1.610 . S
C267 C158 1.629 . S
C255 C52 1.613 . S
C294 C185 1.549 . S
C282 C64 1.512 . S
C321 C113 1.567 . S
C309 C28 1.508 1_546 S
C336 C40 1.459 . S
C348 C136 1.510 . S
C363 C4 1.482 . S
C375 C159 1.478 . S
C390 C16 1.537 . S
C402 C184 1.576 . S
C429 C114 0.407 . S
C417 C69 0.367 . S
C456 C137 0.456 . S
C444 C81 0.357 . S
C483 C160 0.469 . S
C471 C93 0.574 . S
C498 C57 0.640 . S
C510 C186 0.608 . S
C525 C21 0.718 . S
C537 C117 0.745 . S
C564 C140 0.786 . S
C552 C33 0.597 1_556 S
C591 C163 0.728 . S
C579 C45 0.653 . S
C606 C9 0.427 . S
C618 C183 0.383 . S
C633 C66 1.601 . S
C645 C115 1.523 . S
C660 C78 1.499 . S
C672 C138 1.558 . S
C699 C161 1.570 . S
C687 C90 1.517 . S
C726 C182 1.396 . S
C714 C54 1.301 . S
C741 C18 1.571 . S
C753 C116 1.556 . S
C780 C139 1.442 . S
C768 C30 1.579 . S
C807 C162 1.512 . S
C795 C42 1.538 . S
C822 C6 1.677 . S
C834 C181 1.718 . S
