# Generated by pormake.
# Topology pyr, (3,6)-cn, num edge types: 1
# Building blocks:
#     Node 0, Type 0, BuildingBlock: BETDIP_clean_linker_0, # of connection points: 3
#     Node 1, Type 0, BuildingBlock: BETDIP_clean_linker_0, # of connection points: 3
#     Node 2, Type 0, BuildingBlock: BETDIP_clean_linker_0, # of connection points: 3
#     Node 3, Type 0, BuildingBlock: BETDIP_clean_linker_0, # of connection points: 3
#     Node 4, Type 0, BuildingBlock: BETDIP_clean_linker_0, # of connection points: 3
#     Node 5, Type 0, BuildingBlock: BETDIP_clean_linker_0, # of connection points: 3
#     Node 6, Type 0, BuildingBlock: BETDIP_clean_linker_0, # of connection points: 3
#     Node 7, Type 0, BuildingBlock: BETDIP_clean_linker_0, # of connection points: 3
#     Node 8, Type 1, BuildingBlock: BETGAK_clean_sbu_0, # of connection points: 6
#     Node 9, Type 1, BuildingBlock: BETGAK_clean_sbu_0, # of connection points: 6
#     Node 10, Type 1, BuildingBlock: BETGAK_clean_sbu_0, # of connection points: 6
#     Node 11, Type 1, BuildingBlock: BETGAK_clean_sbu_0, # of connection points: 6
#     Edge 12, Type (0, 1), None
#     Edge 13, Type (0, 1), None
#     Edge 14, Type (0, 1), None
#     Edge 15, Type (0, 1), None
#     Edge 16, Type (0, 1), None
#     Edge 17, Type (0, 1), None
#     Edge 18, Type (0, 1), None
#     Edge 19, Type (0, 1), None
#     Edge 20, Type (0, 1), None
#     Edge 21, Type (0, 1), None
#     Edge 22, Type (0, 1), None
#     Edge 23, Type (0, 1), None
#     Edge 24, Type (0, 1), None
#     Edge 25, Type (0, 1), None
#     Edge 26, Type (0, 1), None
#     Edge 27, Type (0, 1), None
#     Edge 28, Type (0, 1), None
#     Edge 29, Type (0, 1), None
#     Edge 30, Type (0, 1), None
#     Edge 31, Type (0, 1), None
#     Edge 32, Type (0, 1), None
#     Edge 33, Type (0, 1), None
#     Edge 34, Type (0, 1), None
#     Edge 35, Type (0, 1), None
# Relax obj value: 0.390
# Max RMSD: 0.225
# Mean RMSD: 0.148
data_MOF--net-pyr--node1-BETGAK_clean_sbu_0--node2-BETDIP_clean_linker_0--edge1-none
_symmetry_space_group_name_H-M    P1
_symmetry_Int_Tables_number       1
_symmetry_cell_setting            triclinic
loop_
_symmetry_equiv_pos_as_xyz
'x, y, z'
_cell_length_a     17.047415
_cell_length_b     17.212429
_cell_length_c     16.617635
_cell_angle_alpha  91.567111
_cell_angle_beta   86.023636
_cell_angle_gamma 113.46722
loop_
_atom_site_label
_atom_site_type_symbol
_atom_site_fract_x
_atom_site_fract_y
_atom_site_fract_z
_atom_type_partial_charge
H0 H 0.49241 0.52848 0.28353 0.0
H1 H 0.66552 0.43429 0.16212 0.0
H2 H 0.52611 0.31782 0.38027 0.0
H3 H 0.53187 0.60041 1.06653 0.0
C4 C 0.51553 0.55946 1.11896 0.0
C5 C 0.52438 0.48587 0.2805 0.0
C6 C 0.49924 0.41971 0.33546 0.0
C7 C 0.57883 0.48708 0.21401 0.0
C8 C 0.62534 0.43507 0.21461 0.0
C9 C 0.60933 0.37539 0.27718 0.0
C10 C 0.54737 0.37051 0.3383 0.0
N11 N 0.57965 0.53134 0.14244 0.0
H12 H 0.12341 1.02283 0.88333 0.0
H13 H 0.27814 0.94979 0.70932 0.0
H14 H 0.3229 0.95488 0.95972 0.0
H15 H 0.23131 1.01125 0.61707 0.0
C16 C 0.20057 1.0468 0.65184 0.0
C17 C 0.172 0.99856 0.87016 0.0
C18 C 0.21848 0.98964 0.93251 0.0
C19 C 0.19613 0.98891 0.78999 0.0
C20 C 0.26037 0.95939 0.77138 0.0
C21 C 0.30367 0.94417 0.8332 0.0
C22 C 0.28324 0.95971 0.91353 0.0
N23 N 0.16371 1.02276 0.73088 0.0
H24 H 0.85876 0.63554 0.96221 0.0
H25 H 0.63809 0.40635 0.92534 0.0
H26 H 0.81411 0.41456 1.10332 0.0
H27 H 0.69245 0.48705 0.77963 0.0
C28 C 0.68313 0.54251 0.80325 0.0
C29 C 0.82093 0.57033 0.97771 0.0
C30 C 0.84969 0.5302 1.03655 0.0
C31 C 0.74499 0.52684 0.93629 0.0
C32 C 0.69702 0.43994 0.95476 0.0
C33 C 0.72138 0.3979 1.01489 0.0
C34 C 0.7974 0.44439 1.05495 0.0
N35 N 0.71505 0.57263 0.88157 0.0
H36 H 0.7973 0.65905 0.46869 0.0
H37 H 1.02628 0.88788 0.42683 0.0
H38 H 0.8355 0.8788 0.61506 0.0
H39 H 1.04156 0.81026 0.31064 0.0
C40 C 1.0048 0.74278 0.31902 0.0
C41 C 0.83503 0.72465 0.48217 0.0
C42 C 0.80581 0.76415 0.54581 0.0
C43 C 0.9143 0.76695 0.43768 0.0
C44 C 0.96448 0.85408 0.45804 0.0
C45 C 0.93584 0.89558 0.52293 0.0
C46 C 0.85717 0.84863 0.56529 0.0
N47 N 0.94105 0.71634 0.37868 0.0
H48 H 0.58082 0.9629 0.14395 0.0
H49 H 0.63236 0.78316 0.99415 0.0
H50 H 0.58935 0.98535 0.88978 0.0
H51 H 0.6495 0.72678 1.11864 0.0
C52 C 0.68831 0.79181 0.13424 0.0
C53 C 0.5774 0.93353 1.08585 0.0
C54 C 0.56212 0.97135 1.01698 0.0
C55 C 0.6042 0.86629 1.07828 0.0
C56 C 0.60986 0.83361 1.00136 0.0
C57 C 0.62153 0.88696 0.93596 0.0
C58 C 0.58219 0.94503 0.94121 0.0
N59 N 0.64592 0.84851 0.14269 0.0
H60 H 1.04483 0.34031 0.4146 0.0
H61 H 0.82999 0.32074 0.57411 0.0
H62 H 0.84125 0.39314 0.32829 0.0
H63 H 0.89393 0.27285 0.66525 0.0
C64 C 0.92415 0.2393 0.62679 0.0
C65 C 0.98586 0.34759 0.42601 0.0
C66 C 0.94783 0.36432 0.36089 0.0
C67 C 0.94048 0.32371 0.50046 0.0
C68 C 0.86513 0.33677 0.51601 0.0
C69 C 0.83302 0.36769 0.4548 0.0
C70 C 0.87323 0.37979 0.3769 0.0
N71 N 0.96345 0.272 0.55033 0.0
H72 H 0.32655 0.72849 0.33165 0.0
H73 H 0.53817 0.96466 0.37071 0.0
H74 H 0.38067 0.9401 0.1713 0.0
H75 H 0.46505 0.78639 0.46262 0.0
C76 C 0.47675 0.73261 0.44458 0.0
C77 C 0.36634 0.79211 0.31177 0.0
C78 C 0.34343 0.82699 0.24392 0.0
C79 C 0.43717 0.84114 0.35807 0.0
C80 C 0.48495 0.92679 0.33545 0.0
C81 C 0.46655 0.96365 0.26767 0.0
C82 C 0.39537 0.91279 0.22315 0.0
N83 N 0.45722 0.80857 0.43479 0.0
H84 H 0.10232 0.38312 0.85619 0.0
H85 H 0.33169 0.61519 0.82447 0.0
H86 H 0.28847 0.40878 0.659 0.0
H87 H 0.26793 0.67399 0.90753 0.0
C88 C 0.21279 0.63118 0.94274 0.0
C89 C 0.16273 0.42018 0.82402 0.0
C90 C 0.19011 0.3842 0.75422 0.0
C91 C 0.21131 0.50549 0.85036 0.0
C92 C 0.29116 0.55188 0.80654 0.0
C93 C 0.31913 0.51741 0.73732 0.0
C94 C 0.26735 0.43496 0.71219 0.0
N95 N 0.17815 0.54248 0.91852 0.0
La96 La 0.09638 0.17963 0.55517 0.0
La97 La 1.02728 1.1014 0.71749 0.0
C98 C 0.14497 0.27403 0.43514 0.0
C99 C 0.23158 0.31303 0.39874 0.0
C100 C 0.27388 0.26154 0.37145 0.0
C101 C 0.36142 0.29642 0.3554 0.0
C102 C 0.40882 0.38367 0.3656 0.0
C103 C 0.36597 0.43584 0.3907 0.0
C104 C 0.27761 0.40064 0.40679 0.0
C105 C 0.18678 1.1085 0.61834 0.0
C106 C 0.13982 0.29674 0.71853 0.0
C107 C 0.97492 1.00386 0.8349 0.0
C108 C 0.88648 0.97138 0.86788 0.0
C109 C 0.85078 1.02901 0.89359 0.0
C110 C 0.76332 1.00233 0.9071 0.0
C111 C 0.70881 0.91674 0.89687 0.0
C112 C 0.74467 0.85881 0.87094 0.0
C113 C 0.83299 0.88603 0.85651 0.0
C114 C 0.93717 0.17483 0.6562 0.0
C115 C 0.98715 0.98376 0.55608 0.0
O116 O 0.10619 0.19172 0.42926 0.0
O117 O 0.1359 0.30124 0.5078 0.0
O118 O 0.19143 1.12184 0.54183 0.0
O119 O 0.148 0.14835 0.65455 0.0
O120 O 0.13247 0.29115 0.63882 0.0
O121 O 0.11393 0.22652 0.7625 0.0
O122 O 1.01912 1.08539 0.84278 0.0
O123 O 0.98382 0.97755 0.76188 0.0
O124 O 0.93179 0.15826 0.73207 0.0
O125 O 0.97562 1.13515 0.61848 0.0
O126 O 0.99737 0.99023 0.63501 0.0
O127 O 1.00892 1.05356 0.51231 0.0
H128 H 0.24018 0.19363 0.36515 0.0
H129 H 0.3913 0.25439 0.33369 0.0
H130 H 0.40053 0.50346 0.39799 0.0
H131 H 0.24572 0.4411 0.42885 0.0
H132 H 0.88998 1.09564 0.90173 0.0
H133 H 0.73952 1.04888 0.92995 0.0
H134 H 0.70495 0.79208 0.86514 0.0
H135 H 0.85941 0.84091 0.83499 0.0
La136 La 0.66511 0.17013 0.15777 0.0
La137 La 0.5239 0.19103 0.1225 0.0
C138 C 0.80842 0.15795 0.14966 0.0
C139 C 0.89498 0.22195 0.15782 0.0
C140 C 0.94447 0.20291 0.21125 0.0
C141 C 0.98092 0.26038 0.27234 0.0
C142 C 0.96661 0.3359 0.27913 0.0
C143 C 0.94021 0.3633 0.21131 0.0
C144 C 0.90651 0.30651 0.14889 0.0
C145 C 0.52508 1.05319 0.24015 0.0
C146 C 0.61907 0.29492 0.26044 0.0
C147 C 0.38456 0.21099 0.13086 0.0
C148 C 0.29679 0.14941 0.12628 0.0
C149 C 0.24771 0.16893 1.07263 0.0
C150 C 0.20761 1.10985 1.01395 0.0
C151 C 0.21509 1.031 1.01148 0.0
C152 C 0.24311 1.00546 1.07948 0.0
C153 C 0.2827 1.06449 0.13816 0.0
C154 C 0.6635 0.30845 1.04204 0.0
C155 C 0.56384 1.05767 1.02417 0.0
O156 O 0.75879 0.14703 0.21567 0.0
O157 O 0.76988 0.16433 1.08663 0.0
O158 O 0.59981 1.09461 0.2674 0.0
O159 O 0.53059 1.07868 0.16865 0.0
O160 O 0.68659 0.29197 0.2192 0.0
O161 O 0.54715 0.23216 0.24659 0.0
O162 O 0.43161 0.21592 1.06419 0.0
O163 O 0.42391 0.206 0.1936 0.0
O164 O 0.59024 0.26559 1.01311 0.0
O165 O 0.65738 0.28307 1.11362 0.0
O166 O 0.49825 1.06856 1.06177 0.0
O167 O 0.63901 1.11633 1.0371 0.0
H168 H 0.93974 1.13853 0.21658 0.0
H169 H 1.0046 0.23733 0.32113 0.0
H170 H 0.93189 0.42221 0.2132 0.0
H171 H 0.87385 0.32316 1.10334 0.0
H172 H 0.25556 0.23401 1.06482 0.0
H173 H 0.18425 1.13209 0.96432 0.0
H174 H 0.2461 0.94416 1.0811 0.0
H175 H 0.31719 1.04748 0.18211 0.0
La176 La 0.54133 0.56977 0.59959 0.0
La177 La 0.58202 0.70753 0.6819 0.0
C178 C 0.5349 0.4347 0.53447 0.0
C179 C 0.60786 0.41395 0.50888 0.0
C180 C 0.60894 0.33647 0.53065 0.0
C181 C 0.68181 0.32015 0.51149 0.0
C182 C 0.75394 0.38143 0.47061 0.0
C183 C 0.7518 0.4579 0.44714 0.0
C184 C 0.67954 0.47432 0.46666 0.0
C185 C 0.40011 0.56604 0.68645 0.0
C186 C 0.64637 0.57982 0.75348 0.0
C187 C 0.57434 0.83207 0.75814 0.0
C188 C 0.50446 0.86024 0.77546 0.0
C189 C 0.5025 0.929 0.73358 0.0
C190 C 0.43691 0.95667 0.75203 0.0
C191 C 0.37374 0.91673 0.8135 0.0
C192 C 0.37688 0.84944 0.85613 0.0
C193 C 0.44053 0.82018 0.83645 0.0
C194 C 0.72512 0.7178 0.59749 0.0
C195 C 0.50375 0.70268 0.50915 0.0
O196 O 0.5239 0.44241 0.61202 0.0
O197 O 0.52926 0.4967 0.49555 0.0
O198 O 0.40549 0.54748 0.6114 0.0
O199 O 0.47505 0.5897 0.71018 0.0
O200 O 0.62967 0.54915 0.68011 0.0
O201 O 0.62669 0.64477 0.77397 0.0
O202 O 0.60486 0.83713 0.68351 0.0
O203 O 0.56383 0.76077 0.79153 0.0
O204 O 0.71939 0.74158 0.67109 0.0
O205 O 0.65008 0.68797 0.57206 0.0
O206 O 0.51065 0.73521 0.58331 0.0
O207 O 0.52384 0.63701 0.49729 0.0
H208 H 0.55416 0.28945 0.56334 0.0
H209 H 0.68212 0.26015 0.52909 0.0
H210 H 0.80689 0.50591 0.4157 0.0
H211 H 0.67981 0.53442 0.44886 0.0
H212 H 0.55166 0.96142 0.68701 0.0
H213 H 0.43625 1.00993 0.71924 0.0
H214 H 0.32978 0.81941 0.90452 0.0
H215 H 0.44082 0.76774 0.87084 0.0
La216 La 0.09662 0.59699 0.17249 0.0
La217 La 0.10436 0.7529 1.09583 0.0
C218 C 0.15663 0.48597 0.19276 0.0
C219 C 0.24753 0.49363 0.18937 0.0
C220 C 0.31189 0.56368 0.22346 0.0
C221 C 0.39889 0.58299 0.203 0.0
C222 C 0.42439 0.52943 0.15224 0.0
C223 C 0.36047 0.45572 0.12267 0.0
C224 C 0.27295 0.43838 0.14051 0.0
C225 C 1.02773 0.68657 0.26572 0.0
C226 C 0.26313 0.77643 0.19775 0.0
C227 C 1.04846 0.86599 1.0741 0.0
C228 C 0.95879 0.86088 1.07833 0.0
C229 C 0.89778 0.80519 1.02845 0.0
C230 C 0.81011 0.78457 1.04573 0.0
C231 C 0.78162 0.82253 1.11089 0.0
C232 C 0.84282 0.88457 0.1561 0.0
C233 C 0.93058 0.9028 0.1406 0.0
C234 C 0.17945 0.66982 1.00193 0.0
C235 C 0.93424 0.57753 1.07746 0.0
O236 O 0.12954 0.52241 0.2524 0.0
O237 O 0.13189 0.50035 0.1242 0.0
O238 O 0.99968 0.60366 0.26865 0.0
O239 O 0.09235 0.71207 0.21614 0.0
O240 O 0.22548 0.69249 0.20522 0.0
O241 O 0.22664 0.81627 0.15566 0.0
O242 O 1.07311 0.82723 1.01473 0.0
O243 O 0.07394 0.85273 0.14274 0.0
O244 O 0.2055 0.75223 1.00693 0.0
O245 O 0.11153 0.63711 1.04814 0.0
O246 O 0.97302 0.66108 1.06933 0.0
O247 O 0.97144 0.536 1.11654 0.0
H248 H 0.29498 0.60589 0.26302 0.0
H249 H 0.44655 0.6409 0.22583 0.0
H250 H 0.37803 0.41422 1.08194 0.0
H251 H 0.22513 0.38402 1.11277 0.0
H252 H 0.91777 0.77498 0.97805 0.0
H253 H 0.76431 0.73765 1.00886 0.0
H254 H 0.82263 0.91518 0.20634 0.0
H255 H 0.97613 0.94672 0.17978 0.0
loop_
_geom_bond_atom_site_label_1
_geom_bond_atom_site_label_2
_geom_bond_distance
_geom_bond_site_symmetry_2
_ccdc_geom_bond_type
H0 C5 0.930 . S
H1 C8 0.930 . S
H2 C10 0.930 . S
H3 C4 1.016 . S
C4 H3 1.016 . S
C4 N11 1.286 . S
C5 H0 0.930 . S
C5 C6 1.397 . S
C5 C7 1.361 . S
C6 C5 1.397 . S
C6 C10 1.390 . S
C7 C5 1.361 . S
C7 C8 1.393 . S
C7 N11 1.413 . S
C8 H1 0.930 . S
C8 C7 1.393 . S
C8 C9 1.399 . S
C9 C8 1.399 . S
C9 C10 1.381 . S
C10 H2 0.930 . S
C10 C6 1.390 . S
C10 C9 1.381 . S
N11 C4 1.286 . S
N11 C7 1.413 . S
H12 C17 0.930 . S
H13 C20 0.930 . S
H14 C22 0.930 . S
H15 C16 1.016 1_455 S
C16 H15 1.016 1_655 S
C16 N23 1.286 . S
C17 H12 0.930 . S
C17 C18 1.397 . S
C17 C19 1.361 . S
C18 C17 1.397 . S
C18 C22 1.390 . S
C19 C17 1.361 . S
C19 C20 1.393 . S
C19 N23 1.413 1_455 S
C20 H13 0.930 . S
C20 C19 1.393 . S
C20 C21 1.399 . S
C21 C20 1.399 . S
C21 C22 1.381 . S
C22 H14 0.930 . S
C22 C18 1.390 . S
C22 C21 1.381 . S
N23 C16 1.286 . S
N23 C19 1.413 1_655 S
H24 C29 0.930 . S
H25 C32 0.930 . S
H26 C34 0.930 . S
H27 C28 1.016 . S
C28 H27 1.016 . S
C28 N35 1.286 . S
C29 H24 0.930 . S
C29 C30 1.397 . S
C29 C31 1.361 . S
C30 C29 1.397 . S
C30 C34 1.390 . S
C31 C29 1.361 . S
C31 C32 1.393 . S
C31 N35 1.413 . S
C32 H25 0.930 . S
C32 C31 1.393 . S
C32 C33 1.399 . S
C33 C32 1.399 . S
C33 C34 1.381 . S
C34 H26 0.930 . S
C34 C30 1.390 . S
C34 C33 1.381 . S
N35 C28 1.286 . S
N35 C31 1.413 . S
H36 C41 0.930 . S
H37 C44 0.930 . S
H38 C46 0.930 . S
H39 C40 1.016 . S
C40 H39 1.016 . S
C40 N47 1.286 . S
C41 H36 0.930 . S
C41 C42 1.397 . S
C41 C43 1.361 . S
C42 C41 1.397 . S
C42 C46 1.390 . S
C43 C41 1.361 . S
C43 C44 1.393 . S
C43 N47 1.413 . S
C44 H37 0.930 . S
C44 C43 1.393 . S
C44 C45 1.399 . S
C45 C44 1.399 . S
C45 C46 1.381 . S
C46 H38 0.930 . S
C46 C42 1.390 . S
C46 C45 1.381 . S
N47 C40 1.286 . S
N47 C43 1.413 . S
H48 C53 0.930 . S
H49 C56 0.930 . S
H50 C58 0.930 . S
H51 C52 1.016 . S
C52 H51 1.016 . S
C52 N59 1.286 . S
C53 H48 0.930 . S
C53 C54 1.397 . S
C53 C55 1.361 . S
C54 C53 1.397 . S
C54 C58 1.390 . S
C55 C53 1.361 . S
C55 C56 1.393 . S
C55 N59 1.413 . S
C56 H49 0.930 . S
C56 C55 1.393 . S
C56 C57 1.399 . S
C57 C56 1.399 . S
C57 C58 1.381 . S
C58 H50 0.930 . S
C58 C54 1.390 . S
C58 C57 1.381 . S
N59 C52 1.286 . S
N59 C55 1.413 . S
H60 C65 0.930 . S
H61 C68 0.930 . S
H62 C70 0.930 . S
H63 C64 1.016 . S
C64 H63 1.016 . S
C64 N71 1.286 1_455 S
C65 H60 0.930 . S
C65 C66 1.397 . S
C65 C67 1.361 . S
C66 C65 1.397 . S
C66 C70 1.390 . S
C67 C65 1.361 . S
C67 C68 1.393 . S
C67 N71 1.413 . S
C68 H61 0.930 . S
C68 C67 1.393 . S
C68 C69 1.399 . S
C69 C68 1.399 . S
C69 C70 1.381 . S
C70 H62 0.930 . S
C70 C66 1.390 . S
C70 C69 1.381 . S
N71 C64 1.286 1_655 S
N71 C67 1.413 . S
H72 C77 0.930 . S
H73 C80 0.930 . S
H74 C82 0.930 . S
H75 C76 1.016 . S
C76 H75 1.016 . S
C76 N83 1.286 . S
C77 H72 0.930 . S
C77 C78 1.397 . S
C77 C79 1.361 . S
C78 C77 1.397 . S
C78 C82 1.390 . S
C79 C77 1.361 . S
C79 C80 1.393 . S
C79 N83 1.413 . S
C80 H73 0.930 . S
C80 C79 1.393 . S
C80 C81 1.399 . S
C81 C80 1.399 . S
C81 C82 1.381 . S
C82 H74 0.930 . S
C82 C78 1.390 . S
C82 C81 1.381 . S
N83 C76 1.286 . S
N83 C79 1.413 . S
H84 C89 0.930 . S
H85 C92 0.930 . S
H86 C94 0.930 . S
H87 C88 1.016 . S
C88 H87 1.016 . S
C88 N95 1.286 . S
C89 H84 0.930 . S
C89 C90 1.397 . S
C89 C91 1.361 . S
C90 C89 1.397 . S
C90 C94 1.390 . S
C91 C89 1.361 . S
C91 C92 1.393 . S
C91 N95 1.413 . S
C92 H85 0.930 . S
C92 C91 1.393 . S
C92 C93 1.399 . S
C93 C92 1.399 . S
C93 C94 1.381 . S
C94 H86 0.930 . S
C94 C90 1.390 . S
C94 C93 1.381 . S
N95 C88 1.286 . S
N95 C91 1.413 . S
La96 C98 2.928 . S
La96 O116 2.521 . S
La96 O117 2.628 . S
La96 O118 2.554 1_545 S
La96 O119 2.757 1_545 S
La96 O120 2.470 . S
La96 O125 2.482 1_455 S
La96 O127 2.503 1_445 S
La97 C107 2.928 1_545 S
La97 O119 2.482 1_645 S
La97 O121 2.503 1_655 S
La97 O122 2.521 1_545 S
La97 O123 2.628 1_545 S
La97 O124 2.554 . S
La97 O125 2.757 . S
La97 O126 2.470 1_545 S
C98 La96 2.928 . S
C98 C99 1.503 . S
C98 O116 1.261 . S
C98 O117 1.243 . S
C99 C98 1.503 . S
C99 C100 1.394 . S
C99 C104 1.373 . S
C100 C99 1.394 . S
C100 C101 1.380 . S
C100 H128 0.930 . S
C101 C100 1.380 . S
C101 C102 1.376 . S
C101 H129 0.930 . S
C102 C101 1.376 . S
C102 C103 1.370 . S
C103 C102 1.370 . S
C103 C104 1.396 . S
C103 H130 0.929 . S
C104 C99 1.373 . S
C104 C103 1.396 . S
C104 H131 0.929 . S
C105 O118 1.240 . S
C105 O119 1.289 . S
C106 O120 1.258 . S
C106 O121 1.256 . S
C107 La97 2.928 1_565 S
C107 C108 1.503 . S
C107 O122 1.261 . S
C107 O123 1.243 . S
C108 C107 1.503 . S
C108 C109 1.394 . S
C108 C113 1.373 . S
C109 C108 1.394 . S
C109 C110 1.380 . S
C109 H132 0.930 . S
C110 C109 1.380 . S
C110 C111 1.376 . S
C110 H133 0.930 . S
C111 C110 1.376 . S
C111 C112 1.370 . S
C112 C111 1.370 . S
C112 C113 1.396 . S
C112 H134 0.929 . S
C113 C108 1.373 . S
C113 C112 1.396 . S
C113 H135 0.929 . S
C114 O124 1.240 . S
C114 O125 1.289 . S
C115 O126 1.258 . S
C115 O127 1.256 . S
O116 La96 2.521 . S
O116 C98 1.261 . S
O117 La96 2.628 . S
O117 C98 1.243 . S
O118 La96 2.554 1_565 S
O118 C105 1.240 . S
O119 La96 2.757 1_565 S
O119 La97 2.482 1_465 S
O119 C105 1.289 . S
O120 La96 2.470 . S
O120 C106 1.258 . S
O121 La97 2.503 1_455 S
O121 C106 1.256 . S
O122 La97 2.521 1_565 S
O122 C107 1.261 . S
O123 La97 2.628 1_565 S
O123 C107 1.243 . S
O124 La97 2.554 . S
O124 C114 1.240 . S
O125 La96 2.482 1_655 S
O125 La97 2.757 . S
O125 C114 1.289 . S
O126 La97 2.470 1_565 S
O126 C115 1.258 . S
O127 La96 2.503 1_665 S
O127 C115 1.256 . S
H128 C100 0.930 . S
H129 C101 0.930 . S
H130 C103 0.929 . S
H131 C104 0.929 . S
H132 C109 0.930 . S
H133 C110 0.930 . S
H134 C112 0.929 . S
H135 C113 0.929 . S
La136 C138 2.928 . S
La136 O156 2.521 . S
La136 O157 2.628 . S
La136 O158 2.554 1_545 S
La136 O159 2.757 1_545 S
La136 O160 2.470 . S
La136 O165 2.482 1_554 S
La136 O167 2.503 1_544 S
La137 C147 2.928 1_545 S
La137 O159 2.482 1_546 S
La137 O161 2.503 1_556 S
La137 O162 2.521 1_545 S
La137 O163 2.628 1_545 S
La137 O164 2.554 . S
La137 O165 2.757 . S
La137 O166 2.470 1_545 S
C138 La136 2.928 . S
C138 C139 1.503 . S
C138 O156 1.261 . S
C138 O157 1.243 . S
C139 C138 1.503 . S
C139 C140 1.394 . S
C139 C144 1.373 . S
C140 C139 1.394 . S
C140 C141 1.380 . S
C140 H168 0.930 . S
C141 C140 1.380 . S
C141 C142 1.376 . S
C141 H169 0.930 . S
C142 C141 1.376 . S
C142 C143 1.370 . S
C143 C142 1.370 . S
C143 C144 1.396 . S
C143 H170 0.929 . S
C144 C139 1.373 . S
C144 C143 1.396 . S
C144 H171 0.929 . S
C145 O158 1.240 . S
C145 O159 1.289 . S
C146 O160 1.258 . S
C146 O161 1.256 . S
C147 La137 2.928 1_565 S
C147 C148 1.503 . S
C147 O162 1.261 . S
C147 O163 1.243 . S
C148 C147 1.503 . S
C148 C149 1.394 . S
C148 C153 1.373 . S
C149 C148 1.394 . S
C149 C150 1.380 . S
C149 H172 0.930 . S
C150 C149 1.380 . S
C150 C151 1.376 . S
C150 H173 0.930 . S
C151 C150 1.376 . S
C151 C152 1.370 . S
C152 C151 1.370 . S
C152 C153 1.396 . S
C152 H174 0.929 . S
C153 C148 1.373 . S
C153 C152 1.396 . S
C153 H175 0.929 . S
C154 O164 1.240 . S
C154 O165 1.289 . S
C155 O166 1.258 . S
C155 O167 1.256 . S
O156 La136 2.521 . S
O156 C138 1.261 . S
O157 La136 2.628 . S
O157 C138 1.243 . S
O158 La136 2.554 1_565 S
O158 C145 1.240 . S
O159 La136 2.757 1_565 S
O159 La137 2.482 1_564 S
O159 C145 1.289 . S
O160 La136 2.470 . S
O160 C146 1.258 . S
O161 La137 2.503 1_554 S
O161 C146 1.256 . S
O162 La137 2.521 1_565 S
O162 C147 1.261 . S
O163 La137 2.628 1_565 S
O163 C147 1.243 . S
O164 La137 2.554 . S
O164 C154 1.240 . S
O165 La136 2.482 1_556 S
O165 La137 2.757 . S
O165 C154 1.289 . S
O166 La137 2.470 1_565 S
O166 C155 1.258 . S
O167 La136 2.503 1_566 S
O167 C155 1.256 . S
H168 C140 0.930 . S
H169 C141 0.930 . S
H170 C143 0.929 . S
H171 C144 0.929 . S
H172 C149 0.930 . S
H173 C150 0.930 . S
H174 C152 0.929 . S
H175 C153 0.929 . S
La176 C178 2.928 . S
La176 O196 2.521 . S
La176 O197 2.628 . S
La176 O198 2.554 . S
La176 O199 2.757 . S
La176 O200 2.470 . S
La176 O205 2.482 . S
La176 O207 2.503 . S
La177 C187 2.928 . S
La177 O199 2.482 . S
La177 O201 2.503 . S
La177 O202 2.521 . S
La177 O203 2.628 . S
La177 O204 2.554 . S
La177 O205 2.757 . S
La177 O206 2.470 . S
C178 La176 2.928 . S
C178 C179 1.503 . S
C178 O196 1.261 . S
C178 O197 1.243 . S
C179 C178 1.503 . S
C179 C180 1.394 . S
C179 C184 1.373 . S
C180 C179 1.394 . S
C180 C181 1.380 . S
C180 H208 0.930 . S
C181 C180 1.380 . S
C181 C182 1.376 . S
C181 H209 0.930 . S
C182 C181 1.376 . S
C182 C183 1.370 . S
C183 C182 1.370 . S
C183 C184 1.396 . S
C183 H210 0.929 . S
C184 C179 1.373 . S
C184 C183 1.396 . S
C184 H211 0.929 . S
C185 O198 1.240 . S
C185 O199 1.289 . S
C186 O200 1.258 . S
C186 O201 1.256 . S
C187 La177 2.928 . S
C187 C188 1.503 . S
C187 O202 1.261 . S
C187 O203 1.243 . S
C188 C187 1.503 . S
C188 C189 1.394 . S
C188 C193 1.373 . S
C189 C188 1.394 . S
C189 C190 1.380 . S
C189 H212 0.930 . S
C190 C189 1.380 . S
C190 C191 1.376 . S
C190 H213 0.930 . S
C191 C190 1.376 . S
C191 C192 1.370 . S
C192 C191 1.370 . S
C192 C193 1.396 . S
C192 H214 0.929 . S
C193 C188 1.373 . S
C193 C192 1.396 . S
C193 H215 0.929 . S
C194 O204 1.240 . S
C194 O205 1.289 . S
C195 O206 1.258 . S
C195 O207 1.256 . S
O196 La176 2.521 . S
O196 C178 1.261 . S
O197 La176 2.628 . S
O197 C178 1.243 . S
O198 La176 2.554 . S
O198 C185 1.240 . S
O199 La176 2.757 . S
O199 La177 2.482 . S
O199 C185 1.289 . S
O200 La176 2.470 . S
O200 C186 1.258 . S
O201 La177 2.503 . S
O201 C186 1.256 . S
O202 La177 2.521 . S
O202 C187 1.261 . S
O203 La177 2.628 . S
O203 C187 1.243 . S
O204 La177 2.554 . S
O204 C194 1.240 . S
O205 La176 2.482 . S
O205 La177 2.757 . S
O205 C194 1.289 . S
O206 La177 2.470 . S
O206 C195 1.258 . S
O207 La176 2.503 . S
O207 C195 1.256 . S
H208 C180 0.930 . S
H209 C181 0.930 . S
H210 C183 0.929 . S
H211 C184 0.929 . S
H212 C189 0.930 . S
H213 C190 0.930 . S
H214 C192 0.929 . S
H215 C193 0.929 . S
La216 C218 2.928 . S
La216 O236 2.521 . S
La216 O237 2.628 . S
La216 O238 2.554 1_455 S
La216 O239 2.757 1_455 S
La216 O240 2.470 . S
La216 O245 2.482 1_554 S
La216 O247 2.503 1_454 S
La217 C227 2.928 1_455 S
La217 O239 2.482 1_456 S
La217 O241 2.503 1_556 S
La217 O242 2.521 1_455 S
La217 O243 2.628 1_455 S
La217 O244 2.554 . S
La217 O245 2.757 . S
La217 O246 2.470 1_455 S
C218 La216 2.928 . S
C218 C219 1.503 . S
C218 O236 1.261 . S
C218 O237 1.243 . S
C219 C218 1.503 . S
C219 C220 1.394 . S
C219 C224 1.373 . S
C220 C219 1.394 . S
C220 C221 1.380 . S
C220 H248 0.930 . S
C221 C220 1.380 . S
C221 C222 1.376 . S
C221 H249 0.930 . S
C222 C221 1.376 . S
C222 C223 1.370 . S
C223 C222 1.370 . S
C223 C224 1.396 . S
C223 H250 0.929 . S
C224 C219 1.373 . S
C224 C223 1.396 . S
C224 H251 0.929 . S
C225 O238 1.240 . S
C225 O239 1.289 . S
C226 O240 1.258 . S
C226 O241 1.256 . S
C227 La217 2.928 1_655 S
C227 C228 1.503 . S
C227 O242 1.261 . S
C227 O243 1.243 . S
C228 C227 1.503 . S
C228 C229 1.394 . S
C228 C233 1.373 . S
C229 C228 1.394 . S
C229 C230 1.380 . S
C229 H252 0.930 . S
C230 C229 1.380 . S
C230 C231 1.376 . S
C230 H253 0.930 . S
C231 C230 1.376 . S
C231 C232 1.370 . S
C232 C231 1.370 . S
C232 C233 1.396 . S
C232 H254 0.929 . S
C233 C228 1.373 . S
C233 C232 1.396 . S
C233 H255 0.929 . S
C234 O244 1.240 . S
C234 O245 1.289 . S
C235 O246 1.258 . S
C235 O247 1.256 . S
O236 La216 2.521 . S
O236 C218 1.261 . S
O237 La216 2.628 . S
O237 C218 1.243 . S
O238 La216 2.554 1_655 S
O238 C225 1.240 . S
O239 La216 2.757 1_655 S
O239 La217 2.482 1_654 S
O239 C225 1.289 . S
O240 La216 2.470 . S
O240 C226 1.258 . S
O241 La217 2.503 1_554 S
O241 C226 1.256 . S
O242 La217 2.521 1_655 S
O242 C227 1.261 . S
O243 La217 2.628 1_655 S
O243 C227 1.243 . S
O244 La217 2.554 . S
O244 C234 1.240 . S
O245 La216 2.482 1_556 S
O245 La217 2.757 . S
O245 C234 1.289 . S
O246 La217 2.470 1_655 S
O246 C235 1.258 . S
O247 La216 2.503 1_656 S
O247 C235 1.256 . S
H248 C220 0.930 . S
H249 C221 0.930 . S
H250 C223 0.929 . S
H251 C224 0.929 . S
H252 C229 0.930 . S
H253 C230 0.930 . S
H254 C232 0.929 . S
H255 C233 0.929 . S
C6 C102 1.020 . S
C18 C151 1.513 . S
C186 C28 3.886 . S
C40 C225 2.838 . S
C146 C9 2.800 . S
C105 C16 2.039 1_455 S
C235 C30 2.509 . S
C194 C42 1.960 . S
C4 C222 2.438 . S
C154 C33 3.784 . S
C45 C115 3.009 . S
C21 C191 2.267 . S
C111 C57 1.174 . S
C66 C142 1.804 . S
C76 C195 3.982 . S
C88 C234 2.702 . S
C54 C155 2.872 . S
C114 C64 2.190 1_655 S
C226 C78 2.414 . S
C185 C93 2.077 . S
C52 C231 2.472 . S
C145 C81 3.769 . S
C106 C90 3.013 . S
C69 C182 2.172 . S
