# Generated by pormake.
# Topology zzz, (3,6)-cn, num edge types: 1
# Building blocks:
#     Node 0, Type 0, BuildingBlock: BELTOD_clean_linker_0, # of connection points: 3
#     Node 1, Type 0, BuildingBlock: BELTOD_clean_linker_0, # of connection points: 3
#     Node 2, Type 0, BuildingBlock: BELTOD_clean_linker_0, # of connection points: 3
#     Node 3, Type 0, BuildingBlock: BELTOD_clean_linker_0, # of connection points: 3
#     Node 4, Type 0, BuildingBlock: BELTOD_clean_linker_0, # of connection points: 3
#     Node 5, Type 0, BuildingBlock: BELTOD_clean_linker_0, # of connection points: 3
#     Node 6, Type 0, BuildingBlock: BELTOD_clean_linker_0, # of connection points: 3
#     Node 7, Type 0, BuildingBlock: BELTOD_clean_linker_0, # of connection points: 3
#     Node 8, Type 1, BuildingBlock: FUNLAD_clean_sbu_0, # of connection points: 6
#     Node 9, Type 1, BuildingBlock: FUNLAD_clean_sbu_0, # of connection points: 6
#     Node 10, Type 1, BuildingBlock: FUNLAD_clean_sbu_0, # of connection points: 6
#     Node 11, Type 1, BuildingBlock: FUNLAD_clean_sbu_0, # of connection points: 6
#     Edge 12, Type (0, 1), None
#     Edge 13, Type (0, 1), None
#     Edge 14, Type (0, 1), None
#     Edge 15, Type (0, 1), None
#     Edge 16, Type (0, 1), None
#     Edge 17, Type (0, 1), None
#     Edge 18, Type (0, 1), None
#     Edge 19, Type (0, 1), None
#     Edge 20, Type (0, 1), None
#     Edge 21, Type (0, 1), None
#     Edge 22, Type (0, 1), None
#     Edge 23, Type (0, 1), None
#     Edge 24, Type (0, 1), None
#     Edge 25, Type (0, 1), None
#     Edge 26, Type (0, 1), None
#     Edge 27, Type (0, 1), None
#     Edge 28, Type (0, 1), None
#     Edge 29, Type (0, 1), None
#     Edge 30, Type (0, 1), None
#     Edge 31, Type (0, 1), None
#     Edge 32, Type (0, 1), None
#     Edge 33, Type (0, 1), None
#     Edge 34, Type (0, 1), None
#     Edge 35, Type (0, 1), None
# Relax obj value: 0.225
# Max RMSD: 0.251
# Mean RMSD: 0.190
data_MOF--net-zzz--node1-FUNLAD_clean_sbu_0--node2-BELTOD_clean_linker_0--edge1-none
_symmetry_space_group_name_H-M    P1
_symmetry_Int_Tables_number       1
_symmetry_cell_setting            triclinic
loop_
_symmetry_equiv_pos_as_xyz
'x, y, z'
_cell_length_a     28.959356
_cell_length_b     34.240023
_cell_length_c     11.096986
_cell_angle_alpha  83.969971
_cell_angle_beta   82.851532
_cell_angle_gamma 91.501874
loop_
_atom_site_label
_atom_site_type_symbol
_atom_site_fract_x
_atom_site_fract_y
_atom_site_fract_z
_atom_type_partial_charge
P0 P 0.78825 0.40126 0.38869 0.0
H1 H 0.8035 0.3608 0.62049 0.0
H2 H 0.85503 0.38195 0.75933 0.0
H3 H 0.84611 0.50246 0.60781 0.0
H4 H 0.79417 0.48112 0.46854 0.0
H5 H 0.78319 0.40364 0.12782 0.0
H6 H 0.73496 0.43789 0.99158 0.0
H7 H 0.67142 0.49805 0.29026 0.0
H8 H 0.7179 0.4613 0.42829 0.0
H9 H 0.83258 0.3472 0.22395 0.0
H10 H 0.872 0.45308 0.37224 0.0
O11 O 0.76377 0.35601 0.41492 0.0
H12 H 0.90189 0.35716 0.07116 0.0
H13 H 0.94066 0.46177 0.22626 0.0
C14 C 0.79566 0.41917 0.53219 0.0
C15 C 0.81007 0.39203 0.62184 0.0
C16 C 0.84013 0.40415 0.70039 0.0
C17 C 0.85601 0.44361 0.69013 0.0
C18 C 0.83476 0.47178 0.61643 0.0
C19 C 0.80435 0.45953 0.53767 0.0
C20 C 0.75521 0.43058 0.28812 0.0
C21 C 0.75953 0.42468 0.16405 0.0
C22 C 0.73199 0.44467 0.08528 0.0
C23 C 0.69924 0.47109 0.12886 0.0
C24 C 0.69584 0.47765 0.25313 0.0
C25 C 0.72292 0.45701 0.33239 0.0
C26 C 0.8463 0.39956 0.30935 0.0
C27 C 0.85699 0.37137 0.22807 0.0
C28 C 0.89684 0.37683 0.14165 0.0
C29 C 0.92608 0.4105 0.13678 0.0
C30 C 0.91842 0.43569 0.22801 0.0
C31 C 0.87859 0.4306 0.31226 0.0
P32 P 0.02768 0.7554 0.21482 0.0
H33 H 0.02195 0.75831 0.47867 0.0
H34 H 0.99997 0.81321 0.59366 0.0
H35 H 0.9328 0.86562 0.29379 0.0
H36 H 0.95218 0.8091 0.18172 0.0
H37 H 0.05469 0.72395 0.98537 0.0
H38 H 0.02429 0.66937 0.8907 0.0
H39 H 0.91492 0.64662 0.19377 0.0
H40 H 0.94416 0.70324 0.28602 0.0
H41 H 0.09603 0.81768 0.2294 0.0
H42 H 0.00567 0.78502 0.97209 0.0
O43 O 0.07064 0.73521 0.2839 0.0
H44 H 0.10715 0.88368 0.11931 0.0
H45 H 0.01826 0.84928 0.85972 0.0
C46 C 0.98963 0.78001 0.32057 0.0
C47 C 1.00007 0.78025 0.44031 0.0
C48 C 0.98776 0.81189 0.50568 0.0
C49 C 0.96563 0.84393 0.451 0.0
C50 C 0.9502 0.84136 0.33717 0.0
C51 C 0.96106 0.80892 0.27369 0.0
C52 C 1.0007 0.71843 0.14054 0.0
C53 C 0.02297 0.70838 0.02918 0.0
C54 C 0.00552 0.6773 0.9748 0.0
C55 C 0.96668 0.65455 0.03368 0.0
C56 C 0.94425 0.66449 0.14552 0.0
C57 C 0.96103 0.69654 0.19833 0.0
C58 C 0.05123 0.7959 0.10711 0.0
C59 C 0.08067 0.82396 0.14567 0.0
C60 C 0.08648 0.86179 0.08374 0.0
C61 C 0.0631 0.87175 0.98197 0.0
C62 C 0.03676 0.84258 0.93798 0.0
C63 C 0.03026 0.80524 0.00114 0.0
P64 P 0.78177 0.04482 0.20888 0.0
H65 H 0.75482 0.08993 0.41157 0.0
H66 H 0.68897 0.08011 0.56985 0.0
H67 H 0.67164 0.95958 0.49623 0.0
H68 H 0.73907 0.96963 0.33648 0.0
H69 H 0.8059 0.01225 0.97527 0.0
H70 H 0.87893 0.99193 0.874 0.0
H71 H 0.94339 0.00321 0.19997 0.0
H72 H 0.86881 0.02253 0.3033 0.0
H73 H 0.72122 0.10538 0.11737 0.0
H74 H 0.73391 0.98015 0.11859 0.0
O75 O 0.80145 0.09144 0.19987 0.0
H76 H 0.6497 0.10157 0.02168 0.0
H77 H 0.66235 0.97582 0.02655 0.0
C78 C 0.75215 0.03064 0.36101 0.0
C79 C 0.73842 0.06081 0.43205 0.0
C80 C 0.69986 0.05532 0.52163 0.0
C81 C 0.67386 0.01943 0.54277 0.0
C82 C 0.69041 0.98779 0.48071 0.0
C83 C 0.72938 0.9934 0.39036 0.0
C84 C 0.831 0.0178 0.14904 0.0
C85 C 0.83482 0.00864 0.02781 0.0
C86 C 0.87718 -0.00256 0.96879 0.0
C87 C 0.91737 -0.00378 0.02811 0.0
C88 C 0.91319 0.00388 0.15126 0.0
C89 C 0.87039 0.01454 0.21103 0.0
C90 C 0.7338 0.04322 0.12082 0.0
C91 C 0.70904 0.07716 0.09531 0.0
C92 C 0.66771 0.07486 0.04269 0.0
C93 C 0.65011 0.0384 0.01727 0.0
C94 C 0.67468 0.00442 0.04545 0.0
C95 C 0.71606 0.00686 0.09658 0.0
P96 P 0.47718 0.69682 0.27727 0.0
H97 H 0.47345 0.69962 0.54017 0.0
H98 H 0.49794 0.65142 0.69484 0.0
H99 H 0.58212 0.59736 0.41498 0.0
H100 H 0.55866 0.64636 0.25996 0.0
H101 H 0.44973 0.73785 0.05804 0.0
H102 H 0.47507 0.80011 0.93768 0.0
H103 H 0.57825 0.81752 0.17878 0.0
H104 H 0.55254 0.75469 0.29938 0.0
H105 H 0.40903 0.63085 0.28257 0.0
H106 H 0.53172 0.68131 0.05211 0.0
O107 O 0.42488 0.70552 0.34864 0.0
H108 H 0.40666 0.57662 0.15293 0.0
H109 H 0.52973 0.62789 0.92552 0.0
C110 C 0.51271 0.67569 0.38815 0.0
C111 C 0.49911 0.67883 0.51213 0.0
C112 C 0.51348 0.65142 0.60076 0.0
C113 C 0.54162 0.62059 0.56639 0.0
C114 C 0.56087 0.62109 0.44389 0.0
C115 C 0.54675 0.64884 0.35502 0.0
C116 C 0.49955 0.74158 0.18689 0.0
C117 C 0.47834 0.75476 0.08394 0.0
C118 C 0.4931 0.79022 0.0145 0.0
C119 C 0.52889 0.81362 0.04801 0.0
C120 C 0.55054 0.80009 0.15074 0.0
C121 C 0.53595 0.76426 0.21975 0.0
C122 C 0.47008 0.6604 0.17525 0.0
C123 C 0.4347 0.63074 0.20286 0.0
C124 C 0.43332 0.59989 0.12937 0.0
C125 C 0.4681 0.5983 0.03029 0.0
C126 C 0.50265 0.6285 0.00208 0.0
C127 C 0.5036 0.65924 0.07372 0.0
P128 P 0.182 0.46978 0.25161 0.0
H129 H 0.19626 0.42194 0.04778 0.0
H130 H 0.14253 0.42185 0.89622 0.0
H131 H 0.11084 0.54203 0.94816 0.0
H132 H 0.16527 0.54189 0.09867 0.0
H133 H 0.21542 0.43305 0.46678 0.0
H134 H 0.27486 0.4512 0.58817 0.0
H135 H 0.31402 0.55394 0.33062 0.0
H136 H 0.25397 0.53478 0.20662 0.0
H137 H 0.08428 0.45879 0.22897 0.0
H138 H 0.16797 0.53166 0.41949 0.0
O139 O 0.17184 0.4213 0.28322 0.0
H140 H 0.01437 0.47603 0.35524 0.0
H141 H 0.09805 0.5484 0.54675 0.0
C142 C 0.18236 0.4811 0.08981 0.0
C143 C 0.17997 0.4491 0.0214 0.0
C144 C 0.14851 0.44885 0.93579 0.0
C145 C 0.12022 0.48107 0.91671 0.0
C146 C 0.13081 0.51615 0.96488 0.0
C147 C 0.16276 0.51637 0.04946 0.0
C148 C 0.23133 0.48192 0.32566 0.0
C149 C 0.23732 0.45912 0.43463 0.0
C150 C 0.27077 0.46999 0.50567 0.0
C151 C 0.29882 0.5043 0.47022 0.0
C152 C 0.29301 0.52721 0.36016 0.0
C153 C 0.25911 0.51622 0.28869 0.0
C154 C 0.1313 0.4922 0.31983 0.0
C155 C 0.08744 0.47954 0.29508 0.0
C156 C 0.0474 0.49027 0.36481 0.0
C157 C 0.05114 0.51297 0.46163 0.0
C158 C 0.09433 0.53095 0.47224 0.0
C159 C 0.13452 0.52031 0.40199 0.0
P160 P 0.16572 0.18725 0.44666 0.0
H161 H 0.22332 0.1223 0.39582 0.0
H162 H 0.2119 0.07603 0.25 0.0
H163 H 0.14134 0.16404 0.04135 0.0
H164 H 0.15142 0.2099 0.19099 0.0
H165 H 0.20161 0.25991 0.52233 0.0
H166 H 0.15991 0.3164 0.5885 0.0
H167 H 0.03873 0.27674 0.43723 0.0
H168 H 0.08115 0.2207 0.36847 0.0
H169 H 0.11853 0.17263 0.69478 0.0
H170 H 0.10171 0.13354 0.34504 0.0
O171 O 0.20724 0.18316 0.53846 0.0
H172 H 0.06223 0.1215 0.79417 0.0
H173 H 0.04801 0.08099 0.44402 0.0
C174 C 0.18714 0.16911 0.30562 0.0
C175 C 0.20804 0.13258 0.31457 0.0
C176 C 0.20115 0.10586 0.23134 0.0
C177 C 0.17375 0.11587 0.13795 0.0
C178 C 0.16119 0.15521 0.11552 0.0
C179 C 0.16753 0.18175 0.19996 0.0
C180 C 0.14417 0.23587 0.44232 0.0
C181 C 0.16672 0.26413 0.49915 0.0
C182 C 0.14259 0.2961 0.53855 0.0
C183 C 0.09553 0.30009 0.52195 0.0
C184 C 0.07481 0.2742 0.45235 0.0
C185 C 0.09913 0.24228 0.41238 0.0
C186 C 0.11691 0.15515 0.51389 0.0
C187 C 0.10245 0.15336 0.63921 0.0
C188 C 0.06971 0.12445 0.6954 0.0
C189 C 0.05198 0.09633 0.62703 0.0
C190 C 0.06148 0.1018 0.49938 0.0
C191 C 0.09349 0.13135 0.44302 0.0
P192 P 0.31757 0.03101 0.36312 0.0
H193 H 0.34401 0.0869 0.14701 0.0
H194 H 0.41121 0.0863 0.99243 0.0
H195 H 0.4223 0.96192 0.09325 0.0
H196 H 0.35488 0.96284 0.24925 0.0
H197 H 0.29113 0.00356 0.61901 0.0
H198 H 0.2168 0.98512 0.7381 0.0
H199 H 0.15284 0.98485 0.40683 0.0
H200 H 0.22908 0.00286 0.28571 0.0
H201 H 0.39521 0.08251 0.38719 0.0
H202 H 0.3526 0.9612 0.49888 0.0
O203 O 0.30414 0.07802 0.36653 0.0
H204 H 0.46653 0.07299 0.47733 0.0
H205 H 0.42394 0.95155 0.5962 0.0
C206 C 0.34397 0.02484 0.21047 0.0
C207 C 0.35941 0.05901 0.1328 0.0
C208 C 0.39872 0.05888 0.04566 0.0
C209 C 0.42333 0.02442 0.03348 0.0
C210 C 0.40481 0.98925 0.10195 0.0
C211 C 0.36541 0.98947 0.18942 0.0
C212 C 0.26656 0.00328 0.44237 0.0
C213 C 0.26201 -0.00242 0.57051 0.0
C214 C 0.21891 0.98759 0.63939 0.0
C215 C 0.17863 0.98365 0.58246 0.0
C216 C 0.18328 0.98726 0.45367 0.0
C217 C 0.22692 -0.00267 0.38418 0.0
C218 C 0.36739 0.02328 0.44306 0.0
C219 C 0.40081 0.05394 0.43377 0.0
C220 C 0.44204 0.04815 0.4838 0.0
C221 C 0.4507 0.01152 0.54552 0.0
C222 C 0.41823 0.98007 0.54947 0.0
C223 C 0.37704 0.98582 0.49667 0.0
P224 P 0.45509 0.34098 0.38654 0.0
H225 H 0.3805 0.37399 0.25633 0.0
H226 H 0.38819 0.422 0.07552 0.0
H227 H 0.53106 0.39102 0.98796 0.0
H228 H 0.52325 0.34314 0.16802 0.0
H229 H 0.40853 0.27424 0.54374 0.0
H230 H 0.43696 0.21325 0.63557 0.0
H231 H 0.57163 0.23924 0.4235 0.0
H232 H 0.54327 0.30113 0.3333 0.0
H233 H 0.4806 0.42318 0.29441 0.0
H234 H 0.51367 0.33866 0.58563 0.0
O235 O 0.40295 0.34633 0.4647 0.0
H236 H 0.51694 0.4752 0.38503 0.0
H237 H 0.54988 0.39162 0.67712 0.0
C238 C 0.45153 0.35508 0.22692 0.0
C239 C 0.41277 0.37586 0.19486 0.0
C240 C 0.41721 0.40369 0.09175 0.0
C241 C 0.46061 0.4111 0.02037 0.0
C242 C 0.49739 0.38643 0.04321 0.0
C243 C 0.49275 0.35841 0.14531 0.0
C244 C 0.47353 0.29214 0.42998 0.0
C245 C 0.44399 0.26674 0.51509 0.0
C246 C 0.46043 0.23204 0.56899 0.0
C247 C 0.5067 0.22183 0.53815 0.0
C248 C 0.53579 0.24644 0.44898 0.0
C249 C 0.51942 0.28155 0.39611 0.0
C250 C 0.49439 0.37662 0.43257 0.0
C251 C 0.4977 0.41518 0.37409 0.0
C252 C 0.51916 0.44513 0.42504 0.0
C253 C 0.53669 0.43721 0.5367 0.0
C254 C 0.5378 0.39816 0.58887 0.0
C255 C 0.51627 0.36799 0.53764 0.0
C256 C 0.06207 0.91275 0.92774 0.0
N257 N 0.99499 0.94338 0.62421 0.0
C258 C 0.00809 0.94446 0.5018 0.0
C259 C 0.99404 0.91377 0.43883 0.0
C260 C 0.96701 0.88176 0.50349 0.0
C261 C 0.95047 0.88336 0.6266 0.0
C262 C 0.96468 0.91474 0.68529 0.0
Zn263 Zn 0.03056 0.97478 0.73329 0.0
C264 C 0.96359 0.99028 0.95797 0.0
N265 N 0.10024 0.02595 0.99373 0.0
C266 C 0.14639 0.02182 0.00286 0.0
C267 C 0.07739 0.05714 0.03462 0.0
C268 C 0.10121 0.08663 0.08114 0.0
C269 C 0.14928 0.08443 0.08559 0.0
C270 C 0.17176 0.05088 0.04956 0.0
Zn271 Zn 0.06557 -0.0056 0.88465 0.0
O272 O 0.04147 0.92028 0.83382 0.0
C273 C 0.13228 0.98075 0.65872 0.0
O274 O 0.07851 0.94079 0.97773 0.0
H275 H 0.04103 0.06049 0.02471 0.0
H276 H 0.0326 0.96716 0.45525 0.0
H277 H 0.16407 -0.00298 0.96867 0.0
O278 O 0.09541 0.97011 0.6175 0.0
O279 O 0.12893 0.99166 0.76546 0.0
H280 H 0.95511 0.91391 0.78281 0.0
O281 O 0.05369 0.04804 0.7899 0.0
O282 O 0.02249 0.02972 0.63377 0.0
O283 O 1.00116 -0.00329 0.00218 0.0
O284 O 0.96613 0.98129 0.84894 0.0
C285 C 0.03812 0.05692 0.68935 0.0
H286 H 0.00797 0.91315 0.34381 0.0
H287 H 0.92994 0.85903 0.67923 0.0
H288 H 0.08202 0.11116 0.11256 0.0
H289 H 0.20864 0.04773 0.054 0.0
C290 C 0.48952 0.00939 0.62019 0.0
N291 N 0.54607 0.11226 0.7065 0.0
C292 C 0.55744 0.12176 0.58373 0.0
C293 C 0.54705 0.15833 0.52774 0.0
C294 C 0.52389 0.18522 0.59812 0.0
C295 C 0.51439 0.17551 0.72529 0.0
C296 C 0.52605 0.13873 0.77802 0.0
Zn297 Zn 0.54896 0.05401 0.77252 0.0
C298 C 0.46825 0.02525 0.9515 0.0
N299 N 0.54887 0.93044 0.86989 0.0
C300 C 0.54713 0.90014 0.80026 0.0
C301 C 0.54739 0.92364 0.99354 0.0
C302 C 0.54324 0.88553 0.05218 0.0
C303 C 0.53981 0.85371 0.98378 0.0
C304 C 0.54239 0.86126 0.85581 0.0
Zn305 Zn 0.54831 0.98866 0.80276 0.0
O306 O 0.50732 0.04169 0.6417 0.0
C307 C 0.62883 0.01695 0.62447 0.0
O308 O 0.50077 0.97746 0.67676 0.0
H309 H 0.54758 0.94793 0.04824 0.0
H310 H 0.57207 0.10014 0.52732 0.0
H311 H 0.54801 0.90614 0.70232 0.0
O312 O 0.61068 0.04874 0.65236 0.0
O313 O 0.60825 0.98423 0.66855 0.0
H314 H 0.51692 0.13066 0.87508 0.0
O315 O 0.59597 0.00219 0.92489 0.0
O316 O 0.59157 0.06643 0.90413 0.0
O317 O 0.48858 0.99348 0.93472 0.0
O318 O 0.48664 0.05737 0.89588 0.0
C319 C 0.60932 0.03569 0.95034 0.0
H320 H 0.55454 0.16454 0.42938 0.0
H321 H 0.4969 0.19571 0.78283 0.0
H322 H 0.54033 0.88121 0.15099 0.0
H323 H 0.53987 0.83744 0.79971 0.0
C324 C 0.53384 0.46809 0.61799 0.0
N325 N 0.4081 0.52109 0.68488 0.0
C326 C 0.41611 0.52973 0.56111 0.0
C327 C 0.38017 0.52668 0.48967 0.0
C328 C 0.3354 0.5144 0.54572 0.0
C329 C 0.32739 0.50794 0.67429 0.0
C330 C 0.3645 0.51134 0.74252 0.0
Zn331 Zn 0.4659 0.51719 0.77392 0.0
C332 C 0.47042 0.44757 0.9362 0.0
N333 N 0.59716 0.5086 0.89977 0.0
C334 C 0.64199 0.50656 0.8478 0.0
C335 C 0.58572 0.50238 0.02328 0.0
C336 C 0.619 0.49186 0.09918 0.0
C337 C 0.66526 0.4879 0.04894 0.0
C338 C 0.6769 0.49644 0.9213 0.0
Zn339 Zn 0.54011 0.51373 0.8071 0.0
O340 O 0.49409 0.48234 0.64053 0.0
C341 C 0.5349 0.58302 0.64463 0.0
O342 O 0.56615 0.47568 0.68048 0.0
H343 H 0.54992 0.50334 0.06375 0.0
H344 H 0.45105 0.53698 0.51633 0.0
H345 H 0.65037 0.51127 0.74949 0.0
O346 O 0.49346 0.56884 0.66813 0.0
O347 O 0.56795 0.56466 0.68795 0.0
H348 H 0.35889 0.50457 0.84079 0.0
O349 O 0.51285 0.55254 0.93148 0.0
O350 O 0.43857 0.55234 0.90809 0.0
O351 O 0.51142 0.46281 0.92062 0.0
O352 O 0.43885 0.4651 0.88438 0.0
C353 C 0.47224 0.5647 0.95883 0.0
H354 H 0.38812 0.53155 0.39113 0.0
H355 H 0.29312 0.499 0.72141 0.0
H356 H 0.60762 0.48469 0.19585 0.0
H357 H 0.71225 0.49422 0.87821 0.0
C358 C 0.02059 0.50117 0.57486 0.0
N359 N 0.01871 0.38462 0.70862 0.0
C360 C 0.01089 0.37938 0.59273 0.0
C361 C 0.03497 0.35131 0.52995 0.0
C362 C 0.0673 0.32863 0.58728 0.0
C363 C 0.07247 0.33309 0.70939 0.0
C364 C 0.04777 0.36142 0.76857 0.0
Zn365 Zn 0.99732 0.43421 0.78091 0.0
C366 C 0.07564 0.47584 0.86716 0.0
N367 N 0.96091 0.54559 0.89075 0.0
C368 C 0.95055 0.57833 0.82004 0.0
C369 C 0.96637 0.5469 0.01051 0.0
C370 C 0.96331 0.58212 0.06224 0.0
C371 C 0.9562 0.61668 0.98923 0.0
C372 C 0.94861 0.61463 0.86749 0.0
Zn373 Zn 0.9787 0.49464 0.81835 0.0
O374 O 0.01886 0.4648 0.61114 0.0
C375 C 0.90077 0.4527 0.73315 0.0
O376 O 0.0059 0.52546 0.64809 0.0
H377 H 0.97645 0.52126 0.06474 0.0
H378 H 0.98791 0.39842 0.5464 0.0
H379 H 0.94666 0.57681 0.72498 0.0
O380 O 0.93053 0.42607 0.73473 0.0
O381 O 0.91168 0.48692 0.75861 0.0
H382 H 0.05358 0.36621 0.86037 0.0
O383 O 0.95259 0.46207 0.98662 0.0
O384 O 0.97462 0.40304 0.95107 0.0
O385 O 0.04532 0.50183 0.87577 0.0
O386 O 0.06486 0.44344 0.82984 0.0
C387 C 0.95458 0.42573 0.02237 0.0
H388 H 0.02982 0.34859 0.43613 0.0
H389 H 0.09609 0.31534 0.75809 0.0
H390 H 0.97062 0.58285 0.15546 0.0
H391 H 0.94372 0.64103 0.80833 0.0
loop_
_geom_bond_atom_site_label_1
_geom_bond_atom_site_label_2
_geom_bond_distance
_geom_bond_site_symmetry_2
_ccdc_geom_bond_type
P0 O11 1.490 . S
P0 C14 1.812 . S
P0 C20 1.803 . S
P0 C26 1.819 . S
H1 C15 0.941 . S
H2 C16 0.939 . S
H3 C18 0.940 . S
H4 C19 0.940 . S
H5 C21 0.939 . S
H6 C22 0.942 . S
H7 C24 0.940 . S
H8 C25 0.939 . S
H9 C27 0.941 . S
H10 C31 0.939 . S
O11 P0 1.490 . S
H12 C28 0.939 1_455 S
H13 C30 0.940 . S
C14 P0 1.812 . S
C14 C15 1.389 . S
C14 C19 1.391 . S
C15 H1 0.941 . S
C15 C14 1.389 . S
C15 C16 1.397 . S
C16 H2 0.939 . S
C16 C15 1.397 . S
C16 C17 1.378 . S
C17 C16 1.378 . S
C17 C18 1.378 . S
C18 H3 0.940 . S
C18 C17 1.378 . S
C18 C19 1.396 . S
C19 H4 0.940 . S
C19 C14 1.391 . S
C19 C18 1.396 . S
C20 P0 1.803 . S
C20 C21 1.378 . S
C20 C25 1.400 . S
C21 H5 0.939 . S
C21 C20 1.378 . S
C21 C22 1.361 . S
C22 H6 0.942 . S
C22 C21 1.361 . S
C22 C23 1.369 . S
C23 C22 1.369 . S
C23 C24 1.404 . S
C24 H7 0.940 . S
C24 C23 1.404 . S
C24 C25 1.389 . S
C25 H8 0.939 . S
C25 C20 1.400 . S
C25 C24 1.389 . S
C26 P0 1.819 . S
C26 C27 1.391 . S
C26 C31 1.391 . S
C27 H9 0.941 . S
C27 C26 1.391 . S
C27 C28 1.396 . S
C28 H12 0.939 1_655 S
C28 C27 1.396 . S
C28 C29 1.397 1_554 S
C29 C28 1.397 1_556 S
C29 C30 1.385 . S
C30 H13 0.940 . S
C30 C29 1.385 . S
C30 C31 1.388 1_556 S
C31 H10 0.939 . S
C31 C26 1.391 . S
C31 C30 1.388 1_554 S
P32 O43 1.490 . S
P32 C46 1.811 1_456 S
P32 C52 1.803 1_455 S
P32 C58 1.819 1_455 S
H33 C47 0.941 . S
H34 C48 0.939 1_455 S
H35 C50 0.940 . S
H36 C51 0.940 . S
H37 C53 0.939 . S
H38 C54 0.942 1_455 S
H39 C56 0.940 1_554 S
H40 C57 0.939 . S
H41 C59 0.941 1_455 S
H42 C63 0.939 . S
O43 P32 1.490 . S
H44 C60 0.939 . S
H45 C62 0.940 . S
C46 P32 1.811 1_654 S
C46 C47 1.389 1_655 S
C46 C51 1.391 . S
C47 H33 0.941 . S
C47 C46 1.389 1_455 S
C47 C48 1.397 1_455 S
C48 H34 0.939 1_655 S
C48 C47 1.397 1_655 S
C48 C49 1.378 . S
C49 C48 1.378 . S
C49 C50 1.378 . S
C50 H35 0.940 . S
C50 C49 1.378 . S
C50 C51 1.396 . S
C51 H36 0.940 . S
C51 C46 1.391 . S
C51 C50 1.396 . S
C52 P32 1.803 1_655 S
C52 C53 1.378 1_655 S
C52 C57 1.400 1_556 S
C53 H37 0.939 . S
C53 C52 1.378 1_455 S
C53 C54 1.361 1_455 S
C54 H38 0.942 1_655 S
C54 C53 1.361 1_655 S
C54 C55 1.369 . S
C55 C54 1.369 . S
C55 C56 1.404 . S
C56 H39 0.940 1_556 S
C56 C55 1.404 . S
C56 C57 1.389 1_556 S
C57 H40 0.939 . S
C57 C52 1.400 1_554 S
C57 C56 1.389 1_554 S
C58 P32 1.819 1_655 S
C58 C59 1.391 . S
C58 C63 1.391 . S
C59 H41 0.941 1_655 S
C59 C58 1.391 . S
C59 C60 1.396 . S
C60 H44 0.939 . S
C60 C59 1.396 . S
C60 C61 1.397 . S
C61 C60 1.397 . S
C61 C62 1.385 . S
C62 H45 0.940 . S
C62 C61 1.385 . S
C62 C63 1.388 . S
C63 H42 0.939 . S
C63 C58 1.391 . S
C63 C62 1.388 . S
P64 O75 1.490 . S
P64 C78 1.812 . S
P64 C84 1.803 . S
P64 C90 1.819 . S
H65 C79 0.941 . S
H66 C80 0.939 . S
H67 C82 0.940 . S
H68 C83 0.952 . S
H69 C85 0.939 1_556 S
H70 C86 0.946 . S
H71 C88 0.940 . S
H72 C89 0.939 . S
H73 C91 0.941 . S
H74 C95 0.939 1_565 S
O75 P64 1.490 . S
H76 C92 0.939 . S
H77 C94 0.940 . S
C78 P64 1.812 . S
C78 C79 1.389 . S
C78 C83 1.376 1_545 S
C79 H65 0.941 . S
C79 C78 1.389 . S
C79 C80 1.397 . S
C80 H66 0.939 . S
C80 C79 1.397 . S
C80 C81 1.378 . S
C81 C80 1.378 . S
C81 C82 1.378 1_545 S
C82 H67 0.940 . S
C82 C81 1.378 1_565 S
C82 C83 1.401 . S
C83 H68 0.952 . S
C83 C78 1.376 1_565 S
C83 C82 1.401 . S
C84 P64 1.803 . S
C84 C85 1.378 . S
C84 C89 1.400 1_545 S
C85 H69 0.939 1_554 S
C85 C84 1.378 . S
C85 C86 1.359 1_554 S
C86 H70 0.946 . S
C86 C85 1.359 1_556 S
C86 C87 1.367 1_556 S
C87 C86 1.367 1_554 S
C87 C88 1.404 1_545 S
C88 H71 0.940 . S
C88 C87 1.404 1_565 S
C88 C89 1.389 . S
C89 H72 0.939 . S
C89 C84 1.400 1_565 S
C89 C88 1.389 . S
C90 P64 1.819 . S
C90 C91 1.391 . S
C90 C95 1.391 1_554 S
C91 H73 0.941 . S
C91 C90 1.391 . S
C91 C92 1.396 1_554 S
C92 H76 0.939 . S
C92 C91 1.396 1_556 S
C92 C93 1.397 . S
C93 C92 1.397 . S
C93 C94 1.385 1_545 S
C94 H77 0.940 . S
C94 C93 1.385 1_565 S
C94 C95 1.388 1_565 S
C95 H74 0.939 1_545 S
C95 C90 1.391 1_556 S
C95 C94 1.388 1_545 S
P96 O107 1.490 . S
P96 C110 1.812 . S
P96 C116 1.803 . S
P96 C122 1.819 . S
H97 C111 0.941 . S
H98 C112 0.939 . S
H99 C114 0.940 . S
H100 C115 0.940 . S
H101 C117 0.939 . S
H102 C118 0.942 . S
H103 C120 0.940 . S
H104 C121 0.939 . S
H105 C123 0.941 . S
H106 C127 0.939 . S
O107 P96 1.490 . S
H108 C124 0.939 . S
H109 C126 0.940 . S
C110 P96 1.812 . S
C110 C111 1.389 . S
C110 C115 1.391 . S
C111 H97 0.941 . S
C111 C110 1.389 . S
C111 C112 1.397 . S
C112 H98 0.939 . S
C112 C111 1.397 . S
C112 C113 1.378 . S
C113 C112 1.378 . S
C113 C114 1.378 . S
C114 H99 0.940 . S
C114 C113 1.378 . S
C114 C115 1.396 . S
C115 H100 0.940 . S
C115 C110 1.391 . S
C115 C114 1.396 . S
C116 P96 1.803 . S
C116 C117 1.378 . S
C116 C121 1.400 . S
C117 H101 0.939 . S
C117 C116 1.378 . S
C117 C118 1.361 . S
C118 H102 0.942 . S
C118 C117 1.361 . S
C118 C119 1.369 . S
C119 C118 1.369 . S
C119 C120 1.404 . S
C120 H103 0.940 . S
C120 C119 1.404 . S
C120 C121 1.389 . S
C121 H104 0.939 . S
C121 C116 1.400 . S
C121 C120 1.389 . S
C122 P96 1.819 . S
C122 C123 1.391 . S
C122 C127 1.391 1_554 S
C123 H105 0.941 . S
C123 C122 1.391 . S
C123 C124 1.396 . S
C124 H108 0.939 . S
C124 C123 1.396 . S
C124 C125 1.397 1_554 S
C125 C124 1.397 1_556 S
C125 C126 1.385 . S
C126 H109 0.940 . S
C126 C125 1.385 . S
C126 C127 1.388 . S
C127 H106 0.939 . S
C127 C122 1.391 1_556 S
C127 C126 1.388 . S
P128 O139 1.490 . S
P128 C142 1.812 . S
P128 C148 1.803 . S
P128 C154 1.819 . S
H129 C143 0.941 . S
H130 C144 0.939 1_556 S
H131 C146 0.940 . S
H132 C147 0.940 . S
H133 C149 0.939 . S
H134 C150 0.942 . S
H135 C152 0.940 . S
H136 C153 0.939 . S
H137 C155 0.941 . S
H138 C159 0.939 . S
O139 P128 1.490 . S
H140 C156 0.939 . S
H141 C158 0.940 . S
C142 P128 1.812 . S
C142 C143 1.389 . S
C142 C147 1.391 . S
C143 H129 0.941 . S
C143 C142 1.389 . S
C143 C144 1.397 . S
C144 H130 0.939 1_554 S
C144 C143 1.397 . S
C144 C145 1.378 1_554 S
C145 C144 1.378 1_556 S
C145 C146 1.378 1_556 S
C146 H131 0.940 . S
C146 C145 1.378 1_554 S
C146 C147 1.396 . S
C147 H132 0.940 . S
C147 C142 1.391 . S
C147 C146 1.396 . S
C148 P128 1.803 . S
C148 C149 1.378 . S
C148 C153 1.400 . S
C149 H133 0.939 . S
C149 C148 1.378 . S
C149 C150 1.361 . S
C150 H134 0.942 . S
C150 C149 1.361 . S
C150 C151 1.369 . S
C151 C150 1.369 . S
C151 C152 1.404 . S
C152 H135 0.940 . S
C152 C151 1.404 . S
C152 C153 1.389 . S
C153 H136 0.939 . S
C153 C148 1.400 . S
C153 C152 1.389 . S
C154 P128 1.819 . S
C154 C155 1.391 . S
C154 C159 1.391 . S
C155 H137 0.941 . S
C155 C154 1.391 . S
C155 C156 1.396 . S
C156 H140 0.939 . S
C156 C155 1.396 . S
C156 C157 1.397 . S
C157 C156 1.397 . S
C157 C158 1.385 . S
C158 H141 0.940 . S
C158 C157 1.385 . S
C158 C159 1.388 . S
C159 H138 0.939 . S
C159 C154 1.391 . S
C159 C158 1.388 . S
P160 O171 1.490 . S
P160 C174 1.812 . S
P160 C180 1.803 . S
P160 C186 1.819 . S
H161 C175 0.941 . S
H162 C176 0.939 . S
H163 C178 0.940 . S
H164 C179 0.940 . S
H165 C181 0.939 . S
H166 C182 0.942 . S
H167 C184 0.940 . S
H168 C185 0.939 . S
H169 C187 0.941 . S
H170 C191 0.939 . S
O171 P160 1.490 . S
H172 C188 0.939 . S
H173 C190 0.940 . S
C174 P160 1.812 . S
C174 C175 1.389 . S
C174 C179 1.391 . S
C175 H161 0.941 . S
C175 C174 1.389 . S
C175 C176 1.397 . S
C176 H162 0.939 . S
C176 C175 1.397 . S
C176 C177 1.378 . S
C177 C176 1.378 . S
C177 C178 1.378 . S
C178 H163 0.940 . S
C178 C177 1.378 . S
C178 C179 1.396 . S
C179 H164 0.940 . S
C179 C174 1.391 . S
C179 C178 1.396 . S
C180 P160 1.803 . S
C180 C181 1.378 . S
C180 C185 1.400 . S
C181 H165 0.939 . S
C181 C180 1.378 . S
C181 C182 1.361 . S
C182 H166 0.942 . S
C182 C181 1.361 . S
C182 C183 1.369 . S
C183 C182 1.369 . S
C183 C184 1.404 . S
C184 H167 0.940 . S
C184 C183 1.404 . S
C184 C185 1.389 . S
C185 H168 0.939 . S
C185 C180 1.400 . S
C185 C184 1.389 . S
C186 P160 1.819 . S
C186 C187 1.391 . S
C186 C191 1.391 . S
C187 H169 0.941 . S
C187 C186 1.391 . S
C187 C188 1.396 . S
C188 H172 0.939 . S
C188 C187 1.396 . S
C188 C189 1.397 . S
C189 C188 1.397 . S
C189 C190 1.385 . S
C190 H173 0.940 . S
C190 C189 1.385 . S
C190 C191 1.388 . S
C191 H170 0.939 . S
C191 C186 1.391 . S
C191 C190 1.388 . S
P192 O203 1.490 . S
P192 C206 1.812 . S
P192 C212 1.803 . S
P192 C218 1.819 . S
H193 C207 0.941 . S
H194 C208 0.939 1_556 S
H195 C210 0.940 . S
H196 C211 0.945 . S
H197 C213 0.939 . S
H198 C214 0.942 . S
H199 C216 0.940 . S
H200 C217 0.958 . S
H201 C219 0.941 . S
H202 C223 0.932 1_565 S
O203 P192 1.490 . S
H204 C220 0.939 . S
H205 C222 0.940 . S
C206 P192 1.812 . S
C206 C207 1.389 . S
C206 C211 1.381 1_545 S
C207 H193 0.941 . S
C207 C206 1.389 . S
C207 C208 1.397 . S
C208 H194 0.939 1_554 S
C208 C207 1.397 . S
C208 C209 1.378 . S
C209 C208 1.378 . S
C209 C210 1.378 1_545 S
C210 H195 0.940 . S
C210 C209 1.378 1_565 S
C210 C211 1.402 . S
C211 H196 0.945 . S
C211 C206 1.381 1_565 S
C211 C210 1.402 . S
C212 P192 1.803 . S
C212 C213 1.378 . S
C212 C217 1.374 1_545 S
C213 H197 0.939 . S
C213 C212 1.378 . S
C213 C214 1.361 . S
C214 H198 0.942 . S
C214 C213 1.361 . S
C214 C215 1.369 . S
C215 C214 1.369 . S
C215 C216 1.404 1_545 S
C216 H199 0.940 . S
C216 C215 1.404 1_565 S
C216 C217 1.398 . S
C217 H200 0.958 . S
C217 C212 1.374 1_565 S
C217 C216 1.398 . S
C218 P192 1.819 . S
C218 C219 1.391 . S
C218 C223 1.391 . S
C219 H201 0.941 . S
C219 C218 1.391 . S
C219 C220 1.396 . S
C220 H204 0.939 . S
C220 C219 1.396 . S
C220 C221 1.397 . S
C221 C220 1.397 . S
C221 C222 1.385 1_545 S
C222 H205 0.940 . S
C222 C221 1.385 1_565 S
C222 C223 1.388 1_565 S
C223 H202 0.932 1_545 S
C223 C218 1.391 . S
C223 C222 1.388 1_545 S
P224 O235 1.490 . S
P224 C238 1.812 . S
P224 C244 1.803 . S
P224 C250 1.819 . S
H225 C239 0.941 . S
H226 C240 0.939 . S
H227 C242 0.940 . S
H228 C243 0.940 . S
H229 C245 0.939 . S
H230 C246 0.942 . S
H231 C248 0.940 . S
H232 C249 0.939 . S
H233 C251 0.941 . S
H234 C255 0.939 . S
O235 P224 1.490 . S
H236 C252 0.939 . S
H237 C254 0.940 . S
C238 P224 1.812 . S
C238 C239 1.389 . S
C238 C243 1.391 . S
C239 H225 0.941 . S
C239 C238 1.389 . S
C239 C240 1.397 . S
C240 H226 0.939 . S
C240 C239 1.397 . S
C240 C241 1.378 . S
C241 C240 1.378 . S
C241 C242 1.378 . S
C242 H227 0.940 . S
C242 C241 1.378 . S
C242 C243 1.396 . S
C243 H228 0.940 . S
C243 C238 1.391 . S
C243 C242 1.396 . S
C244 P224 1.803 . S
C244 C245 1.378 . S
C244 C249 1.400 . S
C245 H229 0.939 . S
C245 C244 1.378 . S
C245 C246 1.361 . S
C246 H230 0.942 . S
C246 C245 1.361 . S
C246 C247 1.369 . S
C247 C246 1.369 . S
C247 C248 1.404 . S
C248 H231 0.940 . S
C248 C247 1.404 . S
C248 C249 1.389 . S
C249 H232 0.939 . S
C249 C244 1.400 . S
C249 C248 1.389 . S
C250 P224 1.819 . S
C250 C251 1.391 . S
C250 C255 1.391 . S
C251 H233 0.941 . S
C251 C250 1.391 . S
C251 C252 1.396 . S
C252 H236 0.939 . S
C252 C251 1.396 . S
C252 C253 1.397 . S
C253 C252 1.397 . S
C253 C254 1.385 . S
C254 H237 0.940 . S
C254 C253 1.385 . S
C254 C255 1.388 . S
C255 H234 0.939 . S
C255 C250 1.391 . S
C255 C254 1.388 . S
C256 O272 1.251 1_455 S
C256 O274 1.254 . S
N257 C258 1.333 . S
N257 C262 1.307 . S
N257 Zn263 2.020 1_655 S
C258 N257 1.333 . S
C258 C259 1.379 . S
C258 H276 0.952 1_655 S
C259 C258 1.379 . S
C259 C260 1.390 . S
C259 H286 0.949 . S
C260 C259 1.390 . S
C260 C261 1.357 . S
C261 C260 1.357 . S
C261 C262 1.370 . S
C261 H287 0.950 . S
C262 N257 1.307 . S
C262 C261 1.370 . S
C262 H280 0.948 1_565 S
Zn263 N257 2.020 1_455 S
Zn263 O272 2.039 1_455 S
Zn263 O278 2.034 . S
Zn263 O282 2.025 1_565 S
Zn263 O284 2.024 1_465 S
C264 O283 1.246 . S
C264 O284 1.249 . S
N265 C266 1.307 . S
N265 C267 1.333 . S
N265 Zn271 2.020 1_554 S
C266 N265 1.307 . S
C266 C270 1.370 . S
C266 H277 0.948 1_545 S
C267 N265 1.333 . S
C267 C268 1.379 . S
C267 H275 0.952 . S
C268 C267 1.379 . S
C268 C269 1.390 . S
C268 H288 0.949 . S
C269 C268 1.390 . S
C269 C270 1.357 . S
C270 C266 1.370 . S
C270 C269 1.357 . S
C270 H289 0.950 . S
Zn271 N265 2.020 1_556 S
Zn271 O274 2.025 1_545 S
Zn271 O279 2.024 1_545 S
Zn271 O281 2.039 . S
Zn271 O283 2.034 1_455 S
O272 C256 1.251 1_655 S
O272 Zn263 2.039 1_655 S
C273 O278 1.246 . S
C273 O279 1.249 . S
O274 C256 1.254 . S
O274 Zn271 2.025 1_565 S
H275 C267 0.952 . S
H276 C258 0.952 1_455 S
H277 C266 0.948 1_565 S
O278 Zn263 2.034 . S
O278 C273 1.246 . S
O279 Zn271 2.024 1_565 S
O279 C273 1.249 . S
H280 C262 0.948 1_545 S
O281 Zn271 2.039 . S
O281 C285 1.251 . S
O282 Zn263 2.025 1_545 S
O282 C285 1.254 . S
O283 C264 1.246 . S
O283 Zn271 2.034 1_655 S
O284 Zn263 2.024 1_645 S
O284 C264 1.249 . S
C285 O281 1.251 . S
C285 O282 1.254 . S
H286 C259 0.949 . S
H287 C261 0.950 . S
H288 C268 0.949 . S
H289 C270 0.950 . S
C290 O306 1.251 1_565 S
C290 O308 1.254 . S
N291 C292 1.333 . S
N291 C296 1.307 . S
N291 Zn297 2.020 . S
C292 N291 1.333 . S
C292 C293 1.379 . S
C292 H310 0.952 . S
C293 C292 1.379 . S
C293 C294 1.390 . S
C293 H320 0.949 . S
C294 C293 1.390 . S
C294 C295 1.357 . S
C295 C294 1.357 . S
C295 C296 1.370 . S
C295 H321 0.950 . S
C296 N291 1.307 . S
C296 C295 1.370 . S
C296 H314 0.948 . S
Zn297 N291 2.020 . S
Zn297 O306 2.039 . S
Zn297 O312 2.034 . S
Zn297 O316 2.025 . S
Zn297 O318 2.024 . S
C298 O317 1.246 1_545 S
C298 O318 1.249 . S
N299 C300 1.307 . S
N299 C301 1.333 . S
N299 Zn305 2.020 . S
C300 N299 1.307 . S
C300 C304 1.370 . S
C300 H311 0.948 . S
C301 N299 1.333 . S
C301 C302 1.379 1_556 S
C301 H309 0.952 1_556 S
C302 C301 1.379 1_554 S
C302 C303 1.390 1_554 S
C302 H322 0.949 . S
C303 C302 1.390 1_556 S
C303 C304 1.357 . S
C304 C300 1.370 . S
C304 C303 1.357 . S
C304 H323 0.950 . S
Zn305 N299 2.020 . S
Zn305 O308 2.025 . S
Zn305 O313 2.024 . S
Zn305 O315 2.039 . S
Zn305 O317 2.034 . S
O306 C290 1.251 1_545 S
O306 Zn297 2.039 . S
C307 O312 1.246 1_565 S
C307 O313 1.249 . S
O308 C290 1.254 . S
O308 Zn305 2.025 . S
H309 C301 0.952 1_554 S
H310 C292 0.952 . S
H311 C300 0.948 . S
O312 Zn297 2.034 . S
O312 C307 1.246 1_545 S
O313 Zn305 2.024 . S
O313 C307 1.249 . S
H314 C296 0.948 . S
O315 Zn305 2.039 . S
O315 C319 1.251 1_565 S
O316 Zn297 2.025 . S
O316 C319 1.254 . S
O317 C298 1.246 1_565 S
O317 Zn305 2.034 . S
O318 Zn297 2.024 . S
O318 C298 1.249 . S
C319 O315 1.251 1_545 S
C319 O316 1.254 . S
H320 C293 0.949 . S
H321 C295 0.950 . S
H322 C302 0.949 . S
H323 C304 0.950 . S
C324 O340 1.251 . S
C324 O342 1.254 . S
N325 C326 1.333 . S
N325 C330 1.307 . S
N325 Zn331 2.020 . S
C326 N325 1.333 . S
C326 C327 1.379 . S
C326 H344 0.952 . S
C327 C326 1.379 . S
C327 C328 1.390 . S
C327 H354 0.949 . S
C328 C327 1.390 . S
C328 C329 1.357 . S
C329 C328 1.357 . S
C329 C330 1.370 . S
C329 H355 0.950 . S
C330 N325 1.307 . S
C330 C329 1.370 . S
C330 H348 0.948 . S
Zn331 N325 2.020 . S
Zn331 O340 2.039 . S
Zn331 O346 2.034 . S
Zn331 O350 2.025 . S
Zn331 O352 2.024 . S
C332 O351 1.246 . S
C332 O352 1.249 . S
N333 C334 1.307 . S
N333 C335 1.333 . S
N333 Zn339 2.020 . S
C334 N333 1.307 . S
C334 C338 1.370 . S
C334 H345 0.948 . S
C335 N333 1.333 . S
C335 C336 1.379 . S
C335 H343 0.952 1_556 S
C336 C335 1.379 . S
C336 C337 1.390 . S
C336 H356 0.949 1_556 S
C337 C336 1.390 . S
C337 C338 1.357 . S
C338 C334 1.370 . S
C338 C337 1.357 . S
C338 H357 0.950 . S
Zn339 N333 2.020 . S
Zn339 O342 2.025 . S
Zn339 O347 2.024 . S
Zn339 O349 2.039 . S
Zn339 O351 2.034 . S
O340 C324 1.251 . S
O340 Zn331 2.039 . S
C341 O346 1.246 . S
C341 O347 1.249 . S
O342 C324 1.254 . S
O342 Zn339 2.025 . S
H343 C335 0.952 1_554 S
H344 C326 0.952 . S
H345 C334 0.948 . S
O346 Zn331 2.034 . S
O346 C341 1.246 . S
O347 Zn339 2.024 . S
O347 C341 1.249 . S
H348 C330 0.948 . S
O349 Zn339 2.039 . S
O349 C353 1.251 . S
O350 Zn331 2.025 . S
O350 C353 1.254 . S
O351 C332 1.246 . S
O351 Zn339 2.034 . S
O352 Zn331 2.024 . S
O352 C332 1.249 . S
C353 O349 1.251 . S
C353 O350 1.254 . S
H354 C327 0.949 . S
H355 C329 0.950 . S
H356 C336 0.949 1_554 S
H357 C338 0.950 . S
C358 O374 1.251 . S
C358 O376 1.254 . S
N359 C360 1.333 . S
N359 C364 1.307 . S
N359 Zn365 2.020 . S
C360 N359 1.333 . S
C360 C361 1.379 . S
C360 H378 0.952 . S
C361 C360 1.379 . S
C361 C362 1.390 . S
C361 H388 0.949 . S
C362 C361 1.390 . S
C362 C363 1.357 . S
C363 C362 1.357 . S
C363 C364 1.370 . S
C363 H389 0.950 . S
C364 N359 1.307 . S
C364 C363 1.370 . S
C364 H382 0.948 . S
Zn365 N359 2.020 . S
Zn365 O374 2.039 . S
Zn365 O380 2.034 1_455 S
Zn365 O384 2.025 1_455 S
Zn365 O386 2.024 . S
C366 O385 1.246 . S
C366 O386 1.249 . S
N367 C368 1.307 1_655 S
N367 C369 1.343 . S
N367 Zn373 2.015 1_655 S
C368 N367 1.307 1_455 S
C368 C372 1.370 1_455 S
C368 H379 0.948 . S
C369 N367 1.343 . S
C369 C370 1.379 . S
C369 H377 0.952 . S
C370 C369 1.379 . S
C370 C371 1.390 . S
C370 H390 0.949 1_556 S
C371 C370 1.390 . S
C371 C372 1.357 . S
C372 C368 1.370 1_655 S
C372 C371 1.357 . S
C372 H391 0.951 . S
Zn373 N367 2.015 1_455 S
Zn373 O376 2.025 . S
Zn373 O381 2.024 1_455 S
Zn373 O383 2.039 1_455 S
Zn373 O385 2.034 . S
O374 C358 1.251 . S
O374 Zn365 2.039 . S
C375 O380 1.246 . S
C375 O381 1.249 . S
O376 C358 1.254 . S
O376 Zn373 2.025 . S
H377 C369 0.952 . S
H378 C360 0.952 . S
H379 C368 0.948 . S
O380 Zn365 2.034 1_655 S
O380 C375 1.246 . S
O381 Zn373 2.024 1_655 S
O381 C375 1.249 . S
H382 C364 0.948 . S
O383 Zn373 2.039 1_655 S
O383 C387 1.251 . S
O384 Zn365 2.025 1_655 S
O384 C387 1.254 . S
O385 C366 1.246 . S
O385 Zn373 2.034 . S
O386 Zn365 2.024 . S
O386 C366 1.249 . S
C387 O383 1.251 . S
C387 O384 1.254 . S
H388 C361 0.949 . S
H389 C363 0.950 . S
H390 C370 0.949 1_554 S
H391 C372 0.951 . S
C215 C273 2.536 1_545 S
C294 C247 2.195 . S
C328 C151 2.762 . S
C362 C183 2.079 . S
C264 C87 2.432 1_556 S
C119 C303 1.896 1_554 S
C23 C337 2.802 1_554 S
C55 C371 1.730 . S
C285 C189 3.346 . S
C290 C221 1.415 1_565 S
C324 C253 1.736 . S
C157 C358 0.452 . S
C61 C256 2.962 1_655 S
C319 C93 1.288 . S
C353 C125 1.197 . S
C29 C387 0.904 . S
C177 C269 2.658 . S
C209 C298 2.736 1_554 S
C332 C241 2.174 1_556 S
C366 C145 2.174 . S
C49 C260 2.474 . S
C307 C81 2.758 1_565 S
C341 C113 2.049 . S
C17 C375 2.399 . S
