# Generated by pormake.
# Topology pyr, (3,6)-cn, num edge types: 1
# Building blocks:
#     Node 0, Type 0, BuildingBlock: ESEHIV_clean_linker_0, # of connection points: 3
#     Node 1, Type 0, BuildingBlock: ESEHIV_clean_linker_0, # of connection points: 3
#     Node 2, Type 0, BuildingBlock: ESEHIV_clean_linker_0, # of connection points: 3
#     Node 3, Type 0, BuildingBlock: ESEHIV_clean_linker_0, # of connection points: 3
#     Node 4, Type 0, BuildingBlock: ESEHIV_clean_linker_0, # of connection points: 3
#     Node 5, Type 0, BuildingBlock: ESEHIV_clean_linker_0, # of connection points: 3
#     Node 6, Type 0, BuildingBlock: ESEHIV_clean_linker_0, # of connection points: 3
#     Node 7, Type 0, BuildingBlock: ESEHIV_clean_linker_0, # of connection points: 3
#     Node 8, Type 1, BuildingBlock: BETFAJ_clean_sbu_0, # of connection points: 6
#     Node 9, Type 1, BuildingBlock: BETFAJ_clean_sbu_0, # of connection points: 6
#     Node 10, Type 1, BuildingBlock: BETFAJ_clean_sbu_0, # of connection points: 6
#     Node 11, Type 1, BuildingBlock: BETFAJ_clean_sbu_0, # of connection points: 6
#     Edge 12, Type (0, 1), BuildingBlock: XIVTED_clean_linker_0, # of connection points: 2
#     Edge 13, Type (0, 1), BuildingBlock: XIVTED_clean_linker_0, # of connection points: 2
#     Edge 14, Type (0, 1), BuildingBlock: XIVTED_clean_linker_0, # of connection points: 2
#     Edge 15, Type (0, 1), BuildingBlock: XIVTED_clean_linker_0, # of connection points: 2
#     Edge 16, Type (0, 1), BuildingBlock: XIVTED_clean_linker_0, # of connection points: 2
#     Edge 17, Type (0, 1), BuildingBlock: XIVTED_clean_linker_0, # of connection points: 2
#     Edge 18, Type (0, 1), BuildingBlock: XIVTED_clean_linker_0, # of connection points: 2
#     Edge 19, Type (0, 1), BuildingBlock: XIVTED_clean_linker_0, # of connection points: 2
#     Edge 20, Type (0, 1), BuildingBlock: XIVTED_clean_linker_0, # of connection points: 2
#     Edge 21, Type (0, 1), BuildingBlock: XIVTED_clean_linker_0, # of connection points: 2
#     Edge 22, Type (0, 1), BuildingBlock: XIVTED_clean_linker_0, # of connection points: 2
#     Edge 23, Type (0, 1), BuildingBlock: XIVTED_clean_linker_0, # of connection points: 2
#     Edge 24, Type (0, 1), BuildingBlock: XIVTED_clean_linker_0, # of connection points: 2
#     Edge 25, Type (0, 1), BuildingBlock: XIVTED_clean_linker_0, # of connection points: 2
#     Edge 26, Type (0, 1), BuildingBlock: XIVTED_clean_linker_0, # of connection points: 2
#     Edge 27, Type (0, 1), BuildingBlock: XIVTED_clean_linker_0, # of connection points: 2
#     Edge 28, Type (0, 1), BuildingBlock: XIVTED_clean_linker_0, # of connection points: 2
#     Edge 29, Type (0, 1), BuildingBlock: XIVTED_clean_linker_0, # of connection points: 2
#     Edge 30, Type (0, 1), BuildingBlock: XIVTED_clean_linker_0, # of connection points: 2
#     Edge 31, Type (0, 1), BuildingBlock: XIVTED_clean_linker_0, # of connection points: 2
#     Edge 32, Type (0, 1), BuildingBlock: XIVTED_clean_linker_0, # of connection points: 2
#     Edge 33, Type (0, 1), BuildingBlock: XIVTED_clean_linker_0, # of connection points: 2
#     Edge 34, Type (0, 1), BuildingBlock: XIVTED_clean_linker_0, # of connection points: 2
#     Edge 35, Type (0, 1), BuildingBlock: XIVTED_clean_linker_0, # of connection points: 2
# Relax obj value: 0.136
# Max RMSD: 0.131
# Mean RMSD: 0.063
data_MOF--net-pyr--node1-BETFAJ_clean_sbu_0--node2-ESEHIV_clean_linker_0--edge1-XIVTED_clean_linker_0
_symmetry_space_group_name_H-M    P1
_symmetry_Int_Tables_number       1
_symmetry_cell_setting            triclinic
loop_
_symmetry_equiv_pos_as_xyz
'x, y, z'
_cell_length_a     36.831937
_cell_length_b     38.219251
_cell_length_c     33.955208
_cell_angle_alpha  90.076458
_cell_angle_beta   88.463264
_cell_angle_gamma 102.69955
loop_
_atom_site_label
_atom_site_type_symbol
_atom_site_fract_x
_atom_site_fract_y
_atom_site_fract_z
_atom_type_partial_charge
H0 H 0.33049 0.35521 0.27744 0.0
H1 H 0.40509 0.28342 0.28312 0.0
H2 H 0.39014 0.3338 0.17342 0.0
C3 C 0.35211 0.34359 0.26409 0.0
C4 C 0.36048 0.34944 0.22374 0.0
C5 C 0.36745 0.3194 0.28585 0.0
C6 C 0.39344 0.30259 0.26698 0.0
C7 C 0.40113 0.30697 0.22631 0.0
C8 C 0.38494 0.33087 0.20494 0.0
H9 H 0.16978 0.85909 0.72176 0.0
H10 H 0.2221 0.76983 0.72081 0.0
H11 H 0.15342 0.78533 0.62457 0.0
C12 C 0.17304 0.83415 0.70837 0.0
C13 C 0.15733 0.82385 0.67178 0.0
C14 C 0.19609 0.81457 0.72618 0.0
C15 C 0.20231 0.78349 0.70807 0.0
C16 C 0.18736 0.77289 0.67112 0.0
C17 C 0.16435 0.79289 0.65341 0.0
H18 H 0.6976 0.35449 0.9315 0.0
H19 H 0.70569 0.44422 0.85273 0.0
H20 H 0.61354 0.35298 0.84563 0.0
C21 C 0.68705 0.36705 0.90702 0.0
C22 C 0.65366 0.34908 0.88986 0.0
C23 C 0.70622 0.40146 0.8942 0.0
C24 C 0.69093 0.41817 0.86349 0.0
C25 C 0.65748 0.40105 0.84544 0.0
C26 C 0.63919 0.36643 0.85903 0.0
H27 H 0.8406 0.74568 0.42869 0.0
H28 H 0.92499 0.7464 0.33919 0.0
H29 H 0.82628 0.66089 0.34326 0.0
C30 C 0.85031 0.73336 0.40294 0.0
C31 C 0.82866 0.70109 0.38835 0.0
C32 C 0.88449 0.75042 0.385 0.0
C33 C 0.89811 0.73389 0.35216 0.0
C34 C 0.87803 0.70061 0.33739 0.0
C35 C 0.84294 0.68514 0.35545 0.0
H36 H 0.63293 0.82484 0.83345 0.0
H37 H 0.71224 0.75768 0.83754 0.0
H38 H 0.64695 0.77021 0.94066 0.0
C39 C 0.64486 0.80538 0.8488 0.0
C40 C 0.63573 0.79844 0.88887 0.0
C41 C 0.67331 0.79176 0.83014 0.0
C42 C 0.68905 0.76713 0.8507 0.0
C43 C 0.67935 0.75883 0.89036 0.0
C44 C 0.65275 0.77469 0.90938 0.0
H45 H 0.67022 0.22987 0.47832 0.0
H46 H 0.75867 0.17985 0.44081 0.0
H47 H 0.73032 0.18434 0.5643 0.0
C48 C 0.69128 0.21515 0.48525 0.0
C49 C 0.69686 0.20723 0.52472 0.0
C50 C 0.71373 0.20587 0.45484 0.0
C51 C 0.74188 0.18817 0.46423 0.0
C52 C 0.74797 0.18015 0.50351 0.0
C53 C 0.72538 0.1898 0.53383 0.0
H54 H 0.34123 0.75246 0.18072 0.0
H55 H 0.33313 0.66452 0.26213 0.0
H56 H 0.42723 0.75416 0.26447 0.0
C57 C 0.35206 0.74024 0.20527 0.0
C58 C 0.38614 0.75805 0.22122 0.0
C59 C 0.33254 0.70635 0.21937 0.0
C60 C 0.34785 0.6903 0.25059 0.0
C61 C 0.38221 0.70709 0.26698 0.0
C62 C 0.40119 0.74083 0.25172 0.0
H63 H 0.11959 0.36379 0.77024 0.0
H64 H 0.20713 0.36703 0.68303 0.0
H65 H 0.21356 0.45452 0.7634 0.0
C66 C 0.14611 0.37729 0.7572 0.0
C67 C 0.16447 0.41143 0.77162 0.0
C68 C 0.16099 0.36115 0.72471 0.0
C69 C 0.19488 0.37952 0.70711 0.0
C70 C 0.21378 0.41335 0.72031 0.0
C71 C 0.19866 0.42873 0.75292 0.0
Sm72 Sm 0.03643 0.07211 0.51623 0.0
Sm73 Sm 0.00985 1.0362 0.59437 0.0
C74 C 0.05743 0.11735 0.45692 0.0
C75 C 0.0913 0.14578 0.45315 0.0
C76 C 0.09598 0.17119 0.42274 0.0
C77 C 0.12975 0.19635 0.41804 0.0
C78 C 0.15917 0.19618 0.44366 0.0
C79 C 0.15363 0.17159 0.47506 0.0
C80 C 0.12001 0.14662 0.47974 0.0
C81 C 0.08198 1.03088 0.54568 0.0
C82 C 0.05752 0.11986 0.59742 0.0
C83 C 0.9941 1.00291 0.66252 0.0
C84 C 0.96147 0.97531 0.6751 0.0
C85 C 0.94402 0.97856 0.71164 0.0
C86 C 0.90933 0.95654 0.721 0.0
C87 C 0.89166 0.93085 0.69399 0.0
C88 C 0.90999 0.92641 0.65819 0.0
C89 C 0.94451 0.9487 0.64865 0.0
C90 C 0.95434 0.05588 0.55255 0.0
C91 C 0.99274 0.98935 0.51382 0.0
O92 O 0.03345 0.12221 0.48426 0.0
O93 O 0.06317 0.08486 0.45717 0.0
O94 O 0.06632 0.05155 0.56541 0.0
O95 O 0.07573 1.03325 0.50856 0.0
O96 O 0.06275 0.11748 0.55889 0.0
O97 O 0.03815 0.09235 0.6181 0.0
O98 O 0.01633 0.99332 0.63582 0.0
O99 O 0.98707 1.03442 0.65559 0.0
O100 O 0.98698 0.07397 0.55585 0.0
O101 O 0.9495 1.02668 0.57315 0.0
O102 O 1.00323 0.9887 0.55078 0.0
O103 O 0.99572 1.02043 0.49522 0.0
H104 H 0.07403 0.17092 0.40206 0.0
H105 H 0.13343 0.21478 0.39332 0.0
H106 H 0.17568 0.17104 0.49538 0.0
H107 H 0.11685 0.12719 0.50347 0.0
H108 H 0.95648 0.99913 0.73222 0.0
H109 H 0.89591 0.96012 0.74905 0.0
H110 H 0.89685 0.90693 0.63684 0.0
H111 H 0.95715 0.94609 0.61992 0.0
Sm112 Sm 0.55685 0.06252 0.06984 0.0
Sm113 Sm 0.48118 0.04507 1.04036 0.0
C114 C 0.62419 0.09285 0.0941 0.0
C115 C 0.64026 0.12366 0.1185 0.0
C116 C 0.67262 0.12327 0.13892 0.0
C117 C 0.68463 0.14883 0.16781 0.0
C118 C 0.6643 0.17512 0.17683 0.0
C119 C 0.63328 0.17689 0.15425 0.0
C120 C 0.6213 0.15127 0.12529 0.0
C121 C 0.51543 0.99813 0.10011 0.0
C122 C 0.49392 0.10193 0.10952 0.0
C123 C 0.4138 1.01622 1.01525 0.0
C124 C 0.39556 0.98558 0.99165 0.0
C125 C 0.35738 0.97145 0.99745 0.0
C126 C 0.33863 0.94506 0.97226 0.0
C127 C 0.35789 0.93266 0.9408 0.0
C128 C 0.3966 0.94549 0.93645 0.0
C129 C 0.41534 0.97172 0.9618 0.0
C130 C 0.52303 0.10944 1.01058 0.0
C131 C 0.54339 1.0043 1.00203 0.0
O132 O 0.61173 0.09988 0.06001 0.0
O133 O 0.60177 0.06658 0.11286 0.0
O134 O 0.50343 1.02664 0.09633 0.0
O135 O 0.55017 1.00362 0.08898 0.0
O136 O 0.52963 0.10412 0.10183 0.0
O137 O 0.46847 0.07663 0.09379 0.0
O138 O 0.42536 1.00893 1.04968 0.0
O139 O 0.43742 1.04152 0.99631 0.0
O140 O 0.53465 0.0807 1.01389 0.0
O141 O 0.48847 0.10431 1.02221 0.0
O142 O 0.50775 1.00247 1.0097 0.0
O143 O 0.56906 1.02986 1.01707 0.0
H144 H 0.68743 0.10201 0.13408 0.0
H145 H 0.70829 0.14629 0.18497 0.0
H146 H 0.61727 0.19702 0.16023 0.0
H147 H 0.59629 0.15203 0.10957 0.0
H148 H 0.34179 0.98183 1.0205 0.0
H149 H 0.30875 0.9359 0.97604 0.0
H150 H 0.41212 0.9361 0.91264 0.0
H151 H 0.44496 0.98213 0.95715 0.0
Sm152 Sm 0.5227 0.5264 0.5314 0.0
Sm153 Sm 0.52097 0.58719 0.57964 0.0
C154 C 0.54206 0.47129 0.49687 0.0
C155 C 0.55114 0.43927 0.51451 0.0
C156 C 0.58488 0.43021 0.50384 0.0
C157 C 0.59696 0.40359 0.52449 0.0
C158 C 0.57536 0.38535 0.556 0.0
C159 C 0.54102 0.3936 0.56599 0.0
C160 C 0.52916 0.42067 0.54567 0.0
C161 C 0.45476 0.51936 0.57103 0.0
C162 C 0.55531 0.52698 0.6225 0.0
C163 C 0.49865 0.63982 0.61673 0.0
C164 C 0.46444 0.65334 0.61324 0.0
C165 C 0.44246 0.65554 0.64707 0.0
C166 C 0.40721 0.66295 0.64384 0.0
C167 C 0.39332 0.66831 0.60667 0.0
C168 C 0.41588 0.66729 0.57287 0.0
C169 C 0.4511 0.65977 0.5761 0.0
C170 C 0.58902 0.59468 0.5401 0.0
C171 C 0.48799 0.5853 0.49008 0.0
O172 O 0.56589 0.50123 0.50404 0.0
O173 O 0.50741 0.47431 0.50018 0.0
O174 O 0.48631 0.53074 0.58585 0.0
O175 O 0.45848 0.51134 0.5342 0.0
O176 O 0.55189 0.51174 0.58742 0.0
O177 O 0.54392 0.55695 0.62865 0.0
O178 O 0.49361 0.60742 0.63119 0.0
O179 O 0.52217 0.64524 0.58668 0.0
O180 O 0.55756 0.58275 0.52526 0.0
O181 O 0.58501 0.60381 0.57652 0.0
O182 O 0.48244 0.59342 0.52733 0.0
O183 O 0.50891 0.56222 0.48196 0.0
H184 H 0.60243 0.44451 0.48028 0.0
H185 H 0.62324 0.39717 0.51575 0.0
H186 H 0.5239 0.37977 0.59009 0.0
H187 H 0.50333 0.42767 0.55506 0.0
H188 H 0.45212 0.65046 0.67593 0.0
H189 H 0.39076 0.66434 0.67049 0.0
H190 H 0.40589 0.67128 0.54385 0.0
H191 H 0.46737 0.658 0.54943 0.0
Sm192 Sm 0.02081 0.52082 0.07679 0.0
Sm193 Sm 0.01928 0.58639 1.03493 0.0
C194 C 0.0403 0.46418 0.10741 0.0
C195 C 0.07631 0.45476 0.11473 0.0
C196 C 0.10363 0.45682 0.08452 0.0
C197 C 0.13815 0.44921 0.09239 0.0
C198 C 0.14619 0.4399 0.13068 0.0
C199 C 0.11883 0.43779 0.1608 0.0
C200 C 0.08417 0.44501 0.15284 0.0
C201 C 0.98045 0.56305 0.11852 0.0
C202 C 0.09265 0.58949 0.08487 0.0
C203 C 1.00048 0.64412 1.00563 0.0
C204 C 0.96486 0.65382 0.99802 0.0
C205 C 0.93123 0.63137 1.01099 0.0
C206 C 0.8973 0.64021 1.00325 0.0
C207 C 0.89649 0.67208 0.98313 0.0
C208 C 0.93027 0.69489 0.97079 0.0
C209 C 0.96423 0.68568 0.97799 0.0
C210 C 0.0599 0.5445 0.99318 0.0
C211 C 0.94767 0.51698 1.0266 0.0
O212 O 0.03129 0.46608 0.07064 0.0
O213 O 0.03244 0.49007 0.12884 0.0
O214 O 0.01118 0.5743 0.10018 0.0
O215 O 0.97026 0.52842 0.1153 0.0
O216 O 0.0813 0.55418 0.08486 0.0
O217 O 0.07161 0.60964 0.06994 0.0
O218 O 0.00753 0.64052 1.04268 0.0
O219 O 0.00861 0.61866 0.98371 0.0
O220 O 0.02912 0.53298 1.01144 0.0
O221 O 0.06984 0.57916 0.99646 0.0
O222 O 0.95926 0.55225 1.02585 0.0
O223 O 0.96846 0.49692 1.04215 0.0
H224 H 0.09854 0.46468 1.05488 0.0
H225 H 0.15883 0.45131 0.06872 0.0
H226 H 0.12414 0.43027 0.19049 0.0
H227 H 0.06358 0.44332 0.17657 0.0
H228 H 0.93116 0.60709 1.02729 0.0
H229 H 0.87171 0.62239 1.01349 0.0
H230 H 0.93036 0.71953 0.95502 0.0
H231 H 0.98995 0.7034 0.96792 0.0
H232 H 0.3388 0.35695 0.34443 0.0
H233 H 0.22544 0.17563 0.44366 0.0
H234 H 0.35472 0.25089 0.31612 0.0
H235 H 0.17818 0.26765 0.42355 0.0
H236 H 0.28584 0.21004 0.41963 0.0
H237 H 0.29321 0.33034 0.39583 0.0
C238 C 0.3335 0.32828 0.34943 0.0
C239 C 0.3499 0.30613 0.3247 0.0
C240 C 0.26241 0.2229 0.42132 0.0
C241 C 0.29886 0.27597 0.3843 0.0
C242 C 0.22797 0.20338 0.43512 0.0
C243 C 0.19668 0.21873 0.43508 0.0
C244 C 0.26562 0.25803 0.40756 0.0
C245 C 0.20152 0.25468 0.42335 0.0
C246 C 0.3076 0.31324 0.37889 0.0
C247 C 0.34296 0.26934 0.3339 0.0
N248 N 0.23534 0.27308 0.40962 0.0
N249 N 0.31756 0.2554 0.36253 0.0
H250 H 0.24037 0.88104 0.729 0.0
H251 H 0.30134 0.8726 0.94983 0.0
H252 H 0.20583 0.78364 0.79709 0.0
H253 H 0.3661 0.94244 0.86162 0.0
H254 H 0.26208 0.84113 0.89761 0.0
H255 H 0.28183 0.90677 0.78133 0.0
C256 C 0.24124 0.86527 0.75531 0.0
C257 C 0.21941 0.83041 0.75914 0.0
C258 C 0.28524 0.86303 0.88981 0.0
C259 C 0.26711 0.85945 0.81887 0.0
C260 C 0.30752 0.88098 0.91947 0.0
C261 C 0.33695 0.91011 0.90993 0.0
C262 C 0.29213 0.8749 0.85067 0.0
C263 C 0.34395 0.9199 0.87022 0.0
C264 C 0.2652 0.87977 0.78493 0.0
C265 C 0.22217 0.81073 0.79335 0.0
N266 N 0.32141 0.90262 0.84212 0.0
N267 N 0.24548 0.82567 0.82223 0.0
H268 H 0.62605 0.37175 0.77631 0.0
H269 H 0.57526 0.55321 0.6967 0.0
H270 H 0.65337 0.47224 0.83829 0.0
H271 H 0.57129 0.45967 0.62436 0.0
H272 H 0.59989 0.52302 0.75038 0.0
H273 H 0.60172 0.40209 0.72259 0.0
C274 C 0.62677 0.40013 0.77887 0.0
C275 C 0.64197 0.41926 0.81226 0.0
C276 C 0.5937 0.5091 0.72275 0.0
C277 C 0.61388 0.45451 0.7502 0.0
C278 C 0.57954 0.52637 0.69196 0.0
C279 C 0.5711 0.5092 0.65558 0.0
C280 C 0.5992 0.47403 0.71765 0.0
C281 C 0.57739 0.47424 0.65162 0.0
C282 C 0.61303 0.41755 0.74793 0.0
C283 C 0.64239 0.45625 0.81321 0.0
N284 N 0.59079 0.4579 0.68212 0.0
N285 N 0.6285 0.47248 0.78295 0.0
H286 H 0.92376 0.72933 0.27304 0.0
H287 H 0.92408 0.53835 0.1727 0.0
H288 H 0.86865 0.62752 0.3243 0.0
H289 H 0.99982 0.6358 0.13472 0.0
H290 H 0.89955 0.57191 0.22468 0.0
H291 H 0.94852 0.69712 0.21976 0.0
C292 C 0.91683 0.70031 0.27346 0.0
C293 C 0.8936 0.6815 0.30379 0.0
C294 C 0.9215 0.58609 0.20503 0.0
C295 C 0.92173 0.64415 0.24161 0.0
C296 C 0.93551 0.56688 0.17512 0.0
C297 C 0.96426 0.5841 0.14915 0.0
C298 C 0.93593 0.62316 0.20918 0.0
C299 C 0.97776 0.62127 0.15401 0.0
C300 C 0.93093 0.68189 0.24267 0.0
C301 C 0.88555 0.64368 0.30159 0.0
N302 N 0.96351 0.63948 0.18327 0.0
N303 N 0.89937 0.62652 0.27129 0.0
H304 H 0.37726 0.26739 0.1617 0.0
H305 H 0.5363 0.15599 0.15304 0.0
H306 H 0.4659 0.28667 0.24492 0.0
H307 H 0.42447 0.11585 0.11329 0.0
H308 H 0.51667 0.20871 0.18032 0.0
H309 H 0.40145 0.2178 0.13429 0.0
C310 C 0.40237 0.26173 0.1736 0.0
C311 C 0.41971 0.28126 0.20553 0.0
C312 C 0.49651 0.18813 0.16585 0.0
C313 C 0.44704 0.22394 0.17484 0.0
C314 C 0.50761 0.15804 0.1504 0.0
C315 C 0.48199 0.13143 0.13084 0.0
C316 C 0.45981 0.19184 0.16095 0.0
C317 C 0.44519 0.13552 0.12822 0.0
C318 C 0.41584 0.23308 0.15832 0.0
C319 C 0.45172 0.27217 0.22033 0.0
N320 N 0.43534 0.1653 0.1427 0.0
N321 N 0.4644 0.24405 0.20489 0.0
H322 H 0.10842 0.86229 0.70186 0.0
H323 H 0.10176 0.97539 0.50645 0.0
H324 H 0.16574 0.84361 0.59387 0.0
H325 H 0.09025 1.01685 0.62328 0.0
H326 H 0.11585 0.92144 0.53547 0.0
H327 H 0.08951 0.91258 0.67015 0.0
C328 C 0.1166 0.86844 0.67133 0.0
C329 C 0.13908 0.84896 0.65066 0.0
C330 C 0.11029 0.9424 0.55468 0.0
C331 C 0.11745 0.90628 0.61431 0.0
C332 C 0.10247 0.97322 0.53822 0.0
C333 C 0.09455 1.00036 0.56264 0.0
C334 C 0.10974 0.93866 0.59579 0.0
C335 C 0.09577 0.99627 0.60352 0.0
C336 C 0.10593 0.89719 0.65337 0.0
C337 C 0.14823 0.85768 0.61091 0.0
N338 N 0.10289 0.96578 0.61889 0.0
N339 N 0.13759 0.88591 0.59407 0.0
H340 H 0.73289 0.47369 0.91033 0.0
H341 H 0.91673 0.44504 1.01738 0.0
H342 H 0.76231 0.37098 0.92166 0.0
H343 H 0.89548 0.54951 0.99387 0.0
H344 H 0.85871 0.41756 0.9853 0.0
H345 H 0.79077 0.5019 0.94248 0.0
C346 C 0.75146 0.45698 0.91926 0.0
C347 C 0.74213 0.41963 0.91314 0.0
C348 C 0.86664 0.44651 0.98719 0.0
C349 C 0.80878 0.45206 0.95088 0.0
C350 C 0.89985 0.46229 1.0057 0.0
C351 C 0.91132 0.4998 1.00857 0.0
C352 C 0.84428 0.4682 0.97133 0.0
C353 C 0.888 0.52054 0.99255 0.0
C354 C 0.78454 0.47317 0.93794 0.0
C355 C 0.76752 0.39966 0.92618 0.0
N356 N 0.85576 0.50453 0.97474 0.0
N357 N 0.79936 0.41602 0.94435 0.0
H358 H 0.7787 0.73485 0.42728 0.0
H359 H 0.61139 0.56937 0.46938 0.0
H360 H 0.79187 0.62894 0.3943 0.0
H361 H 0.64628 0.65108 0.55654 0.0
H362 H 0.66932 0.59356 0.43074 0.0
H363 H 0.72177 0.70771 0.46377 0.0
C364 C 0.77015 0.7059 0.42775 0.0
C365 C 0.79145 0.68442 0.40802 0.0
C366 C 0.66418 0.60602 0.45839 0.0
C367 C 0.72415 0.65316 0.44877 0.0
C368 C 0.63117 0.59234 0.48037 0.0
C369 C 0.62399 0.60813 0.51635 0.0
C370 C 0.68957 0.63642 0.47187 0.0
C371 C 0.65064 0.63789 0.52914 0.0
C372 C 0.73718 0.69047 0.44847 0.0
C373 C 0.77688 0.64698 0.40864 0.0
N374 N 0.68186 0.65129 0.50676 0.0
N375 N 0.7442 0.63261 0.42852 0.0
H376 H 0.32537 0.33135 0.15398 0.0
H377 H 0.19098 0.46477 0.19206 0.0
H378 H 0.34388 0.41388 0.24263 0.0
H379 H 0.18499 0.39796 0.08893 0.0
H380 H 0.24957 0.449 0.20841 0.0
H381 H 0.27785 0.35869 0.12568 0.0
C382 C 0.32021 0.3558 0.16683 0.0
C383 C 0.33835 0.37015 0.20099 0.0
C384 C 0.2357 0.43803 0.18197 0.0
C385 C 0.28324 0.40096 0.16946 0.0
C386 C 0.20211 0.44683 0.17282 0.0
C387 C 0.18295 0.43234 0.13934 0.0
C388 C 0.25007 0.41416 0.15776 0.0
C389 C 0.19892 0.40972 0.11501 0.0
C390 C 0.29279 0.37122 0.15088 0.0
C391 C 0.33011 0.40162 0.21667 0.0
N392 N 0.23134 0.40096 0.12496 0.0
N393 N 0.30278 0.41562 0.20117 0.0
H394 H 0.57824 0.32238 0.90322 0.0
H395 H 0.59685 0.12881 0.98422 0.0
H396 H 0.6838 0.29198 0.9117 0.0
H397 H 0.49614 0.16854 0.99337 0.0
H398 H 0.62879 0.18619 0.95355 0.0
H399 H 0.54721 0.26402 0.93112 0.0
C400 C 0.59495 0.3034 0.91055 0.0
C401 C 0.63388 0.31254 0.90503 0.0
C402 C 0.59968 0.1823 0.96223 0.0
C403 C 0.59823 0.24508 0.93756 0.0
C404 C 0.58142 0.14948 0.97974 0.0
C405 C 0.54366 0.14365 0.99145 0.0
C406 C 0.58001 0.2095 0.95601 0.0
C407 C 0.5252 0.17162 0.98486 0.0
C408 C 0.57718 0.27004 0.92683 0.0
C409 C 0.65384 0.28658 0.91577 0.0
N410 N 0.5434 0.20302 0.96761 0.0
N411 N 0.63589 0.25425 0.93138 0.0
H412 H 0.91548 0.8142 0.34614 0.0
H413 H 0.97669 0.92194 0.5463 0.0
H414 H 0.90033 0.76694 0.46222 0.0
H415 H 0.97541 0.97606 0.43511 0.0
H416 H 0.95361 0.86467 0.51412 0.0
H417 H 0.94287 0.87267 0.3759 0.0
C418 C 0.91836 0.81596 0.37778 0.0
C419 C 0.90536 0.78544 0.40163 0.0
C420 C 0.95831 0.88897 0.49659 0.0
C421 C 0.93653 0.8525 0.43603 0.0
C422 C 0.97159 0.92193 0.51504 0.0
C423 C 0.97804 0.95429 0.49359 0.0
C424 C 0.95144 0.88775 0.45602 0.0
C425 C 0.97076 0.952 0.45301 0.0
C426 C 0.93371 0.84945 0.3948 0.0
C427 C 0.90955 0.78962 0.44257 0.0
N428 N 0.95796 0.91942 0.43559 0.0
N429 N 0.92462 0.82226 0.45829 0.0
H430 H 0.2121 0.77691 0.59415 0.0
H431 H 0.37148 0.71823 0.56053 0.0
H432 H 0.19833 0.70806 0.69654 0.0
H433 H 0.32929 0.63448 0.64562 0.0
H434 H 0.3117 0.73507 0.56277 0.0
H435 H 0.25421 0.74281 0.56472 0.0
C436 C 0.21722 0.75401 0.61008 0.0
C437 C 0.20256 0.74596 0.64841 0.0
C438 C 0.31475 0.71231 0.58017 0.0
C439 C 0.25282 0.70822 0.616 0.0
C440 C 0.34922 0.70281 0.57899 0.0
C441 C 0.35558 0.67543 0.60354 0.0
C442 C 0.28637 0.69421 0.60614 0.0
C443 C 0.32585 0.65644 0.62703 0.0
C444 C 0.24208 0.73496 0.59357 0.0
C445 C 0.20997 0.71583 0.66741 0.0
N446 N 0.29276 0.66656 0.62819 0.0
N447 N 0.23525 0.69857 0.6514 0.0
H448 H 0.7082 0.76292 0.76881 0.0
H449 H 0.83217 0.95658 0.71984 0.0
H450 H 0.68591 0.86312 0.81091 0.0
H451 H 0.8641 0.85839 0.68658 0.0
H452 H 0.77049 0.92215 0.73929 0.0
H453 H 0.75657 0.79681 0.72416 0.0
C454 C 0.71272 0.79189 0.76807 0.0
C455 C 0.69338 0.81003 0.79456 0.0
C456 C 0.79078 0.90803 0.72743 0.0
C457 C 0.74846 0.84883 0.74346 0.0
C458 C 0.82607 0.92768 0.71662 0.0
C459 C 0.85341 0.91015 0.70254 0.0
C460 C 0.78285 0.87045 0.72468 0.0
C461 C 0.8438 0.8728 0.69777 0.0
C462 C 0.74035 0.81119 0.74256 0.0
C463 C 0.69981 0.84759 0.79136 0.0
N464 N 0.80941 0.85405 0.70948 0.0
N465 N 0.72717 0.86565 0.7669 0.0
H466 H 0.76579 0.23041 0.39617 0.0
H467 H 0.61383 0.19031 0.23102 0.0
H468 H 0.64709 0.19998 0.41874 0.0
H469 H 0.73212 0.20706 0.20695 0.0
H470 H 0.62638 0.21073 0.29816 0.0
H471 H 0.75446 0.23672 0.3262 0.0
C472 C 0.73734 0.22526 0.38644 0.0
C473 C 0.70735 0.21393 0.41322 0.0
C474 C 0.64965 0.21059 0.27802 0.0
C475 C 0.69422 0.22158 0.33339 0.0
C476 C 0.64252 0.19929 0.23943 0.0
C477 C 0.67199 0.19622 0.2135 0.0
C478 C 0.68645 0.21855 0.29086 0.0
C479 C 0.70855 0.20807 0.22632 0.0
C480 C 0.73091 0.22916 0.34658 0.0
C481 C 0.67107 0.20868 0.39919 0.0
N482 N 0.71476 0.21806 0.26438 0.0
N483 N 0.66554 0.2121 0.36017 0.0
H484 H 0.45357 0.69658 0.27372 0.0
H485 H 0.42784 0.61762 0.49375 0.0
H486 H 0.34748 0.6769 0.33589 0.0
H487 H 0.51012 0.59324 0.41179 0.0
H488 H 0.40194 0.6469 0.44005 0.0
H489 H 0.47878 0.66669 0.32741 0.0
C490 C 0.43559 0.68618 0.29873 0.0
C491 C 0.39821 0.68932 0.30002 0.0
C492 C 0.42562 0.63508 0.43381 0.0
C493 C 0.42723 0.65524 0.36222 0.0
C494 C 0.44054 0.61841 0.46453 0.0
C495 C 0.47126 0.60268 0.45749 0.0
C496 C 0.44193 0.63694 0.39567 0.0
C497 C 0.48633 0.60466 0.41877 0.0
C498 C 0.44998 0.66891 0.32932 0.0
C499 C 0.37632 0.67495 0.33331 0.0
N500 N 0.47181 0.62166 0.38959 0.0
N501 N 0.39115 0.65892 0.36306 0.0
H502 H 0.12098 0.38114 0.83685 0.0
H503 H 0.11495 0.57037 0.9381 0.0
H504 H 0.16917 0.48411 0.78393 0.0
H505 H 0.04203 0.47159 0.97692 0.0
H506 H 0.13952 0.53774 0.88537 0.0
H507 H 0.09545 0.41204 0.89086 0.0
C508 C 0.12622 0.41013 0.83621 0.0
C509 C 0.14788 0.42968 0.80526 0.0
C510 C 0.11817 0.52305 0.90535 0.0
C511 C 0.11891 0.46553 0.86822 0.0
C512 C 0.10415 0.54173 0.93571 0.0
C513 C 0.07613 0.52388 0.96213 0.0
C514 C 0.10459 0.48586 0.90119 0.0
C515 C 0.06346 0.4866 0.95726 0.0
C516 C 0.11169 0.4278 0.8674 0.0
C517 C 0.15371 0.46742 0.80713 0.0
N518 N 0.07776 0.46888 0.92755 0.0
N519 N 0.1396 0.48385 0.83784 0.0
H520 H 0.65707 0.83559 0.95571 0.0
H521 H 0.50062 0.95005 0.95926 0.0
H522 H 0.57066 0.81797 0.86989 0.0
H523 H 0.61212 0.9887 1.00059 0.0
H524 H 0.51926 0.89613 0.93398 0.0
H525 H 0.63238 0.88483 0.98316 0.0
C526 C 0.63223 0.84141 0.94333 0.0
C527 C 0.61581 0.8226 0.91051 0.0
C528 C 0.53955 0.91664 0.94838 0.0
C529 C 0.58805 0.87962 0.94118 0.0
C530 C 0.52906 0.94742 0.96263 0.0
C531 C 0.5549 0.97401 0.98193 0.0
C532 C 0.57584 0.9122 0.9543 0.0
C533 C 0.5913 0.96911 0.9857 0.0
C534 C 0.61853 0.86991 0.95862 0.0
C535 C 0.58415 0.83193 0.89515 0.0
N536 N 0.60055 0.93867 0.97238 0.0
N537 N 0.57132 0.85998 0.91052 0.0
H538 H 0.74496 0.12174 0.55108 0.0
H539 H 0.95903 0.11822 0.5124 0.0
H540 H 0.81951 0.19686 0.47511 0.0
H541 H 0.87986 1.03055 0.56714 0.0
H542 H 0.90848 0.14845 0.50024 0.0
H543 H 0.7948 0.08957 0.56094 0.0
C544 C 0.77193 0.13158 0.5368 0.0
C545 C 0.77823 0.16184 0.51219 0.0
C546 C 0.90207 0.12247 0.51465 0.0
C547 C 0.83497 0.12526 0.52292 0.0
C548 C 0.93089 0.1052 0.52146 0.0
C549 C 0.92351 0.07199 0.54088 0.0
C550 C 0.86569 0.10654 0.52772 0.0
C551 C 0.88663 0.0562 0.55207 0.0
C552 C 0.80019 0.11309 0.5421 0.0
C553 C 0.81348 0.17339 0.49402 0.0
N554 N 0.85905 0.0738 0.54564 0.0
N555 N 0.84053 0.1551 0.49978 0.0
H556 H 0.30572 0.63386 0.20488 0.0
H557 H 0.12305 0.66138 0.09469 0.0
H558 H 0.27648 0.73639 0.19102 0.0
H559 H 0.14485 0.55708 0.11795 0.0
H560 H 0.18044 0.68904 0.12767 0.0
H561 H 0.24818 0.60518 0.17235 0.0
C562 C 0.28722 0.65043 0.19537 0.0
C563 C 0.29653 0.68787 0.20083 0.0
C564 C 0.17279 0.6601 0.12554 0.0
C565 C 0.2303 0.6549 0.16263 0.0
C566 C 0.13994 0.6442 0.1065 0.0
C567 C 0.1288 0.60669 0.10328 0.0
C568 C 0.19515 0.63853 0.14166 0.0
C569 C 0.15211 0.58606 0.11953 0.0
C570 C 0.25436 0.63396 0.17646 0.0
C571 C 0.27126 0.70764 0.18705 0.0
N572 N 0.18401 0.60219 0.13791 0.0
N573 N 0.23964 0.69102 0.16868 0.0
H574 H 0.22761 0.41863 0.64051 0.0
H575 H 0.44209 0.52308 0.65141 0.0
H576 H 0.28001 0.45208 0.75051 0.0
H577 H 0.3861 0.48827 0.54372 0.0
H578 H 0.38337 0.49997 0.68857 0.0
H579 H 0.28524 0.44631 0.60525 0.0
C580 C 0.25129 0.43172 0.65738 0.0
C581 C 0.24877 0.43251 0.69878 0.0
C582 C 0.38391 0.49752 0.65681 0.0
C583 C 0.31561 0.46494 0.65803 0.0
C584 C 0.41745 0.51076 0.63555 0.0
C585 C 0.41917 0.50748 0.59431 0.0
C586 C 0.35175 0.48087 0.63673 0.0
C587 C 0.38627 0.4913 0.57542 0.0
C588 C 0.2843 0.44775 0.63709 0.0
C589 C 0.28042 0.45077 0.71867 0.0
N590 N 0.35417 0.47858 0.59668 0.0
N591 N 0.3125 0.466 0.69819 0.0
H592 H 0.71688 0.78165 0.95698 0.0
H593 H 0.83502 0.62932 0.95121 0.0
H594 H 0.69738 0.69452 0.8739 0.0
H595 H 0.8762 0.73579 0.99635 0.0
H596 H 0.77646 0.64604 0.93529 0.0
H597 H 0.76661 0.75731 0.98536 0.0
C598 C 0.72234 0.75678 0.94551 0.0
C599 C 0.70306 0.73998 0.9131 0.0
C600 C 0.79825 0.66561 0.94893 0.0
C601 C 0.76018 0.71246 0.94489 0.0
C602 C 0.83154 0.6561 0.95809 0.0
C603 C 0.86049 0.68135 0.97481 0.0
C604 C 0.79373 0.70043 0.95714 0.0
C605 C 0.85471 0.71572 0.983 0.0
C606 C 0.75098 0.74318 0.96138 0.0
C607 C 0.71171 0.70823 0.89886 0.0
N608 N 0.82196 0.72427 0.97409 0.0
N609 N 0.73984 0.69557 0.91469 0.0
H610 H 0.46146 0.78468 0.20655 0.0
H611 H 0.44148 0.97806 0.12595 0.0
H612 H 0.35575 0.81502 0.19952 0.0
H613 H 0.5429 0.93946 0.11772 0.0
H614 H 0.40989 0.92049 0.1565 0.0
H615 H 0.49216 0.84309 0.17851 0.0
C616 C 0.44464 0.80363 0.19946 0.0
C617 C 0.40576 0.79446 0.20545 0.0
C618 C 0.43909 0.92468 0.14805 0.0
C619 C 0.44103 0.86201 0.17279 0.0
C620 C 0.45714 0.95761 0.13063 0.0
C621 C 0.49499 0.96382 0.11921 0.0
C622 C 0.45904 0.89772 0.15445 0.0
C623 C 0.51375 0.9361 0.126 0.0
C624 C 0.46222 0.83704 0.18312 0.0
C625 C 0.38566 0.8204 0.19504 0.0
N626 N 0.49573 0.90456 0.14313 0.0
N627 N 0.40342 0.85277 0.17937 0.0
H628 H 0.12425 0.2986 0.76344 0.0
H629 H 0.0964 0.18278 0.5637 0.0
H630 H 0.15349 0.34196 0.64679 0.0
H631 H 0.05375 0.13779 0.67656 0.0
H632 H 0.11896 0.24056 0.59514 0.0
H633 H 0.09852 0.23968 0.73389 0.0
C634 C 0.12501 0.29595 0.73169 0.0
C635 C 0.14166 0.32554 0.70779 0.0
C636 C 0.10471 0.21814 0.6132 0.0
C637 C 0.11256 0.25777 0.67365 0.0
C638 C 0.09185 0.18487 0.59519 0.0
C639 C 0.07301 0.15494 0.61732 0.0
C640 C 0.09902 0.22208 0.65397 0.0
C641 C 0.0681 0.15989 0.65814 0.0
C642 C 0.11052 0.26217 0.71482 0.0
C643 C 0.14184 0.32006 0.66672 0.0
N644 N 0.08099 0.19266 0.67508 0.0
N645 N 0.12786 0.28711 0.6512 0.0
H646 H 0.72253 0.24966 0.58733 0.0
H647 H 0.64323 0.38933 0.58774 0.0
H648 H 0.62141 0.19688 0.53177 0.0
H649 H 0.53751 0.31662 0.57111 0.0
H650 H 0.66999 0.33907 0.60519 0.0
H651 H 0.68835 0.28938 0.62122 0.0
C652 C 0.69284 0.24577 0.58325 0.0
C653 C 0.67491 0.22102 0.55568 0.0
C654 C 0.6406 0.33379 0.59935 0.0
C655 C 0.63625 0.26756 0.5921 0.0
C656 C 0.62543 0.36268 0.58893 0.0
C657 C 0.58852 0.35683 0.57688 0.0
C658 C 0.61874 0.29871 0.59696 0.0
C659 C 0.56632 0.32208 0.57963 0.0
C660 C 0.67342 0.26891 0.60199 0.0
C661 C 0.63638 0.21654 0.55191 0.0
N662 N 0.58207 0.29414 0.5883 0.0
N663 N 0.6185 0.24029 0.56903 0.0
loop_
_geom_bond_atom_site_label_1
_geom_bond_atom_site_label_2
_geom_bond_distance
_geom_bond_site_symmetry_2
_ccdc_geom_bond_type
H0 C3 0.931 . S
H1 C6 0.928 . S
H2 C8 0.930 . S
C3 H0 0.931 . S
C3 C4 1.413 . S
C3 C5 1.360 . S
C4 C3 1.413 . S
C4 C8 1.429 . S
C5 C3 1.360 . S
C5 C6 1.372 . S
C6 H1 0.928 . S
C6 C5 1.372 . S
C6 C7 1.404 . S
C7 C6 1.404 . S
C7 C8 1.391 . S
C8 H2 0.930 . S
C8 C4 1.429 . S
C8 C7 1.391 . S
H9 C12 0.931 . S
H10 C15 0.928 . S
H11 C17 0.930 . S
C12 H9 0.931 . S
C12 C13 1.413 . S
C12 C14 1.360 . S
C13 C12 1.413 . S
C13 C17 1.429 . S
C14 C12 1.360 . S
C14 C15 1.372 . S
C15 H10 0.928 . S
C15 C14 1.372 . S
C15 C16 1.404 . S
C16 C15 1.404 . S
C16 C17 1.391 . S
C17 H11 0.930 . S
C17 C13 1.429 . S
C17 C16 1.391 . S
H18 C21 0.931 . S
H19 C24 0.928 . S
H20 C26 0.930 . S
C21 H18 0.931 . S
C21 C22 1.413 . S
C21 C23 1.360 . S
C22 C21 1.413 . S
C22 C26 1.429 . S
C23 C21 1.360 . S
C23 C24 1.372 . S
C24 H19 0.928 . S
C24 C23 1.372 . S
C24 C25 1.404 . S
C25 C24 1.404 . S
C25 C26 1.391 . S
C26 H20 0.930 . S
C26 C22 1.429 . S
C26 C25 1.391 . S
H27 C30 0.931 . S
H28 C33 0.928 . S
H29 C35 0.930 . S
C30 H27 0.931 . S
C30 C31 1.413 . S
C30 C32 1.360 . S
C31 C30 1.413 . S
C31 C35 1.429 . S
C32 C30 1.360 . S
C32 C33 1.372 . S
C33 H28 0.928 . S
C33 C32 1.372 . S
C33 C34 1.404 . S
C34 C33 1.404 . S
C34 C35 1.391 . S
C35 H29 0.930 . S
C35 C31 1.429 . S
C35 C34 1.391 . S
H36 C39 0.931 . S
H37 C42 0.928 . S
H38 C44 0.930 . S
C39 H36 0.931 . S
C39 C40 1.413 . S
C39 C41 1.360 . S
C40 C39 1.413 . S
C40 C44 1.429 . S
C41 C39 1.360 . S
C41 C42 1.372 . S
C42 H37 0.928 . S
C42 C41 1.372 . S
C42 C43 1.404 . S
C43 C42 1.404 . S
C43 C44 1.391 . S
C44 H38 0.930 . S
C44 C40 1.429 . S
C44 C43 1.391 . S
H45 C48 0.931 . S
H46 C51 0.928 . S
H47 C53 0.930 . S
C48 H45 0.931 . S
C48 C49 1.413 . S
C48 C50 1.360 . S
C49 C48 1.413 . S
C49 C53 1.429 . S
C50 C48 1.360 . S
C50 C51 1.372 . S
C51 H46 0.928 . S
C51 C50 1.372 . S
C51 C52 1.404 . S
C52 C51 1.404 . S
C52 C53 1.391 . S
C53 H47 0.930 . S
C53 C49 1.429 . S
C53 C52 1.391 . S
H54 C57 0.931 . S
H55 C60 0.928 . S
H56 C62 0.930 . S
C57 H54 0.931 . S
C57 C58 1.413 . S
C57 C59 1.360 . S
C58 C57 1.413 . S
C58 C62 1.429 . S
C59 C57 1.360 . S
C59 C60 1.372 . S
C60 H55 0.928 . S
C60 C59 1.372 . S
C60 C61 1.404 . S
C61 C60 1.404 . S
C61 C62 1.391 . S
C62 H56 0.930 . S
C62 C58 1.429 . S
C62 C61 1.391 . S
H63 C66 0.931 . S
H64 C69 0.928 . S
H65 C71 0.930 . S
C66 H63 0.931 . S
C66 C67 1.413 . S
C66 C68 1.360 . S
C67 C66 1.413 . S
C67 C71 1.429 . S
C68 C66 1.360 . S
C68 C69 1.372 . S
C69 H64 0.928 . S
C69 C68 1.372 . S
C69 C70 1.404 . S
C70 C69 1.404 . S
C70 C71 1.391 . S
C71 H65 0.930 . S
C71 C67 1.429 . S
C71 C70 1.391 . S
Sm72 C74 2.846 . S
Sm72 O92 2.543 . S
Sm72 O93 2.450 . S
Sm72 O94 2.681 1_545 S
Sm72 O95 2.464 1_545 S
Sm72 O96 2.396 . S
Sm72 O100 2.386 1_455 S
Sm72 O103 2.408 1_445 S
Sm73 C83 2.846 1_545 S
Sm73 O94 2.386 1_645 S
Sm73 O97 2.408 1_655 S
Sm73 O98 2.543 1_545 S
Sm73 O99 2.450 1_545 S
Sm73 O100 2.681 . S
Sm73 O101 2.464 . S
Sm73 O102 2.396 1_545 S
C74 Sm72 2.846 . S
C74 C75 1.506 . S
C74 O92 1.261 . S
C74 O93 1.242 . S
C75 C74 1.506 . S
C75 C76 1.358 . S
C75 C80 1.382 . S
C76 C75 1.358 . S
C76 C77 1.385 . S
C76 H104 0.930 . S
C77 C76 1.385 . S
C77 C78 1.395 . S
C77 H105 0.929 . S
C78 C77 1.395 . S
C78 C79 1.335 . S
C79 C78 1.335 . S
C79 C80 1.398 . S
C79 H106 0.930 . S
C80 C75 1.382 . S
C80 C79 1.398 . S
C80 H107 0.929 . S
C81 O94 1.271 . S
C81 O95 1.251 . S
C82 O96 1.252 . S
C82 O97 1.272 . S
C83 Sm73 2.846 1_565 S
C83 C84 1.506 . S
C83 O98 1.261 . S
C83 O99 1.242 . S
C84 C83 1.506 . S
C84 C85 1.358 . S
C84 C89 1.382 . S
C85 C84 1.358 . S
C85 C86 1.385 . S
C85 H108 0.930 . S
C86 C85 1.385 . S
C86 C87 1.395 . S
C86 H109 0.929 . S
C87 C86 1.395 . S
C87 C88 1.335 . S
C88 C87 1.335 . S
C88 C89 1.398 . S
C88 H110 0.930 . S
C89 C84 1.382 . S
C89 C88 1.398 . S
C89 H111 0.929 . S
C90 O100 1.271 . S
C90 O101 1.251 . S
C91 O102 1.252 . S
C91 O103 1.272 . S
O92 Sm72 2.543 . S
O92 C74 1.261 . S
O93 Sm72 2.450 . S
O93 C74 1.242 . S
O94 Sm72 2.681 1_565 S
O94 Sm73 2.386 1_465 S
O94 C81 1.271 . S
O95 Sm72 2.464 1_565 S
O95 C81 1.251 . S
O96 Sm72 2.396 . S
O96 C82 1.252 . S
O97 Sm73 2.408 1_455 S
O97 C82 1.272 . S
O98 Sm73 2.543 1_565 S
O98 C83 1.261 . S
O99 Sm73 2.450 1_565 S
O99 C83 1.242 . S
O100 Sm72 2.386 1_655 S
O100 Sm73 2.681 . S
O100 C90 1.271 . S
O101 Sm73 2.464 . S
O101 C90 1.251 . S
O102 Sm73 2.396 1_565 S
O102 C91 1.252 . S
O103 Sm72 2.408 1_665 S
O103 C91 1.272 . S
H104 C76 0.930 . S
H105 C77 0.929 . S
H106 C79 0.930 . S
H107 C80 0.929 . S
H108 C85 0.930 . S
H109 C86 0.929 . S
H110 C88 0.930 . S
H111 C89 0.929 . S
Sm112 C114 2.846 . S
Sm112 O132 2.543 . S
Sm112 O133 2.450 . S
Sm112 O134 2.681 1_545 S
Sm112 O135 2.464 1_545 S
Sm112 O136 2.396 . S
Sm112 O140 2.386 1_554 S
Sm112 O143 2.408 1_544 S
Sm113 C123 2.846 1_545 S
Sm113 O134 2.386 1_546 S
Sm113 O137 2.408 1_556 S
Sm113 O138 2.543 1_545 S
Sm113 O139 2.450 . S
Sm113 O140 2.681 . S
Sm113 O141 2.464 . S
Sm113 O142 2.396 1_545 S
C114 Sm112 2.846 . S
C114 C115 1.506 . S
C114 O132 1.261 . S
C114 O133 1.242 . S
C115 C114 1.506 . S
C115 C116 1.358 . S
C115 C120 1.382 . S
C116 C115 1.358 . S
C116 C117 1.385 . S
C116 H144 0.930 . S
C117 C116 1.385 . S
C117 C118 1.395 . S
C117 H145 0.929 . S
C118 C117 1.395 . S
C118 C119 1.335 . S
C119 C118 1.335 . S
C119 C120 1.398 . S
C119 H146 0.930 . S
C120 C115 1.382 . S
C120 C119 1.398 . S
C120 H147 0.929 . S
C121 O134 1.271 . S
C121 O135 1.251 . S
C122 O136 1.252 . S
C122 O137 1.272 . S
C123 Sm113 2.846 1_565 S
C123 C124 1.506 . S
C123 O138 1.261 . S
C123 O139 1.237 1_565 S
C124 C123 1.506 . S
C124 C125 1.358 . S
C124 C129 1.382 . S
C125 C124 1.358 . S
C125 C126 1.385 . S
C125 H148 0.930 . S
C126 C125 1.385 . S
C126 C127 1.395 . S
C126 H149 0.929 . S
C127 C126 1.395 . S
C127 C128 1.335 . S
C128 C127 1.335 . S
C128 C129 1.398 . S
C128 H150 0.930 . S
C129 C124 1.382 . S
C129 C128 1.398 . S
C129 H151 0.929 . S
C130 O140 1.271 . S
C130 O141 1.251 . S
C131 O142 1.252 . S
C131 O143 1.272 . S
O132 Sm112 2.543 . S
O132 C114 1.261 . S
O133 Sm112 2.450 . S
O133 C114 1.242 . S
O134 Sm112 2.681 1_565 S
O134 Sm113 2.386 1_564 S
O134 C121 1.271 . S
O135 Sm112 2.464 1_565 S
O135 C121 1.251 . S
O136 Sm112 2.396 . S
O136 C122 1.252 . S
O137 Sm113 2.408 1_554 S
O137 C122 1.272 . S
O138 Sm113 2.543 1_565 S
O138 C123 1.261 . S
O139 Sm113 2.450 . S
O139 C123 1.237 1_545 S
O140 Sm112 2.386 1_556 S
O140 Sm113 2.681 . S
O140 C130 1.271 . S
O141 Sm113 2.464 . S
O141 C130 1.251 . S
O142 Sm113 2.396 1_565 S
O142 C131 1.252 . S
O143 Sm112 2.408 1_566 S
O143 C131 1.272 . S
H144 C116 0.930 . S
H145 C117 0.929 . S
H146 C119 0.930 . S
H147 C120 0.929 . S
H148 C125 0.930 . S
H149 C126 0.929 . S
H150 C128 0.930 . S
H151 C129 0.929 . S
Sm152 C154 2.846 . S
Sm152 O172 2.543 . S
Sm152 O173 2.450 . S
Sm152 O174 2.681 . S
Sm152 O175 2.464 . S
Sm152 O176 2.396 . S
Sm152 O180 2.386 . S
Sm152 O183 2.408 . S
Sm153 C163 2.846 . S
Sm153 O174 2.386 . S
Sm153 O177 2.408 . S
Sm153 O178 2.543 . S
Sm153 O179 2.450 . S
Sm153 O180 2.681 . S
Sm153 O181 2.464 . S
Sm153 O182 2.396 . S
C154 Sm152 2.846 . S
C154 C155 1.506 . S
C154 O172 1.261 . S
C154 O173 1.242 . S
C155 C154 1.506 . S
C155 C156 1.358 . S
C155 C160 1.382 . S
C156 C155 1.358 . S
C156 C157 1.385 . S
C156 H184 0.930 . S
C157 C156 1.385 . S
C157 C158 1.395 . S
C157 H185 0.929 . S
C158 C157 1.395 . S
C158 C159 1.335 . S
C159 C158 1.335 . S
C159 C160 1.398 . S
C159 H186 0.930 . S
C160 C155 1.382 . S
C160 C159 1.398 . S
C160 H187 0.929 . S
C161 O174 1.271 . S
C161 O175 1.251 . S
C162 O176 1.252 . S
C162 O177 1.272 . S
C163 Sm153 2.846 . S
C163 C164 1.506 . S
C163 O178 1.261 . S
C163 O179 1.242 . S
C164 C163 1.506 . S
C164 C165 1.358 . S
C164 C169 1.382 . S
C165 C164 1.358 . S
C165 C166 1.385 . S
C165 H188 0.930 . S
C166 C165 1.385 . S
C166 C167 1.395 . S
C166 H189 0.929 . S
C167 C166 1.395 . S
C167 C168 1.335 . S
C168 C167 1.335 . S
C168 C169 1.398 . S
C168 H190 0.930 . S
C169 C164 1.382 . S
C169 C168 1.398 . S
C169 H191 0.929 . S
C170 O180 1.271 . S
C170 O181 1.251 . S
C171 O182 1.252 . S
C171 O183 1.272 . S
O172 Sm152 2.543 . S
O172 C154 1.261 . S
O173 Sm152 2.450 . S
O173 C154 1.242 . S
O174 Sm152 2.681 . S
O174 Sm153 2.386 . S
O174 C161 1.271 . S
O175 Sm152 2.464 . S
O175 C161 1.251 . S
O176 Sm152 2.396 . S
O176 C162 1.252 . S
O177 Sm153 2.408 . S
O177 C162 1.272 . S
O178 Sm153 2.543 . S
O178 C163 1.261 . S
O179 Sm153 2.450 . S
O179 C163 1.242 . S
O180 Sm152 2.386 . S
O180 Sm153 2.681 . S
O180 C170 1.271 . S
O181 Sm153 2.464 . S
O181 C170 1.251 . S
O182 Sm153 2.396 . S
O182 C171 1.252 . S
O183 Sm152 2.408 . S
O183 C171 1.272 . S
H184 C156 0.930 . S
H185 C157 0.929 . S
H186 C159 0.930 . S
H187 C160 0.929 . S
H188 C165 0.930 . S
H189 C166 0.929 . S
H190 C168 0.930 . S
H191 C169 0.929 . S
Sm192 C194 2.846 . S
Sm192 O212 2.543 . S
Sm192 O213 2.450 . S
Sm192 O214 2.681 1_455 S
Sm192 O215 2.464 1_455 S
Sm192 O216 2.396 . S
Sm192 O220 2.386 1_554 S
Sm192 O223 2.408 1_454 S
Sm193 C203 2.846 1_455 S
Sm193 O214 2.386 1_456 S
Sm193 O217 2.408 1_556 S
Sm193 O218 2.543 1_455 S
Sm193 O219 2.450 1_455 S
Sm193 O220 2.681 . S
Sm193 O221 2.464 . S
Sm193 O222 2.396 1_455 S
C194 Sm192 2.846 . S
C194 C195 1.506 . S
C194 O212 1.261 . S
C194 O213 1.242 . S
C195 C194 1.506 . S
C195 C196 1.358 . S
C195 C200 1.382 . S
C196 C195 1.358 . S
C196 C197 1.385 . S
C196 H224 0.930 . S
C197 C196 1.385 . S
C197 C198 1.395 . S
C197 H225 0.929 . S
C198 C197 1.395 . S
C198 C199 1.335 . S
C199 C198 1.335 . S
C199 C200 1.398 . S
C199 H226 0.930 . S
C200 C195 1.382 . S
C200 C199 1.398 . S
C200 H227 0.929 . S
C201 O214 1.271 . S
C201 O215 1.251 . S
C202 O216 1.252 . S
C202 O217 1.272 . S
C203 Sm193 2.846 1_655 S
C203 C204 1.506 . S
C203 O218 1.261 . S
C203 O219 1.242 . S
C204 C203 1.506 . S
C204 C205 1.358 . S
C204 C209 1.382 . S
C205 C204 1.358 . S
C205 C206 1.385 . S
C205 H228 0.930 . S
C206 C205 1.385 . S
C206 C207 1.395 . S
C206 H229 0.929 . S
C207 C206 1.395 . S
C207 C208 1.335 . S
C208 C207 1.335 . S
C208 C209 1.398 . S
C208 H230 0.930 . S
C209 C204 1.382 . S
C209 C208 1.398 . S
C209 H231 0.929 . S
C210 O220 1.271 . S
C210 O221 1.251 . S
C211 O222 1.252 . S
C211 O223 1.272 . S
O212 Sm192 2.543 . S
O212 C194 1.261 . S
O213 Sm192 2.450 . S
O213 C194 1.242 . S
O214 Sm192 2.681 1_655 S
O214 Sm193 2.386 1_654 S
O214 C201 1.271 . S
O215 Sm192 2.464 1_655 S
O215 C201 1.251 . S
O216 Sm192 2.396 . S
O216 C202 1.252 . S
O217 Sm193 2.408 1_554 S
O217 C202 1.272 . S
O218 Sm193 2.543 1_655 S
O218 C203 1.261 . S
O219 Sm193 2.450 1_655 S
O219 C203 1.242 . S
O220 Sm192 2.386 1_556 S
O220 Sm193 2.681 . S
O220 C210 1.271 . S
O221 Sm193 2.464 . S
O221 C210 1.251 . S
O222 Sm193 2.396 1_655 S
O222 C211 1.252 . S
O223 Sm192 2.408 1_656 S
O223 C211 1.272 . S
H224 C196 0.930 . S
H225 C197 0.929 . S
H226 C199 0.930 . S
H227 C200 0.929 . S
H228 C205 0.930 . S
H229 C206 0.929 . S
H230 C208 0.930 . S
H231 C209 0.929 . S
H232 C238 0.930 . S
H233 C242 0.930 . S
H234 C247 0.929 . S
H235 C245 0.929 . S
H236 C240 0.929 . S
H237 C246 0.929 . S
C238 H232 0.930 . S
C238 C239 1.367 . S
C238 C246 1.378 . S
C239 C238 1.367 . S
C239 C247 1.433 . S
C240 H236 0.929 . S
C240 C242 1.378 . S
C240 C244 1.350 . S
C241 C244 1.463 . S
C241 C246 1.350 . S
C241 N249 1.427 . S
C242 H233 0.930 . S
C242 C240 1.378 . S
C242 C243 1.367 . S
C243 C242 1.367 . S
C243 C245 1.433 . S
C244 C240 1.350 . S
C244 C241 1.463 . S
C244 N248 1.427 . S
C245 H235 0.929 . S
C245 C243 1.433 . S
C245 N248 1.384 . S
C246 H237 0.929 . S
C246 C238 1.378 . S
C246 C241 1.350 . S
C247 H234 0.929 . S
C247 C239 1.433 . S
C247 N249 1.384 . S
N248 C244 1.427 . S
N248 C245 1.384 . S
N249 C241 1.427 . S
N249 C247 1.384 . S
H250 C256 0.930 . S
H251 C260 0.930 . S
H252 C265 0.929 . S
H253 C263 0.929 . S
H254 C258 0.929 . S
H255 C264 0.929 . S
C256 H250 0.930 . S
C256 C257 1.367 . S
C256 C264 1.378 . S
C257 C256 1.367 . S
C257 C265 1.433 . S
C258 H254 0.929 . S
C258 C260 1.378 . S
C258 C262 1.350 . S
C259 C262 1.463 . S
C259 C264 1.350 . S
C259 N267 1.427 . S
C260 H251 0.930 . S
C260 C258 1.378 . S
C260 C261 1.367 . S
C261 C260 1.367 . S
C261 C263 1.433 . S
C262 C258 1.350 . S
C262 C259 1.463 . S
C262 N266 1.427 . S
C263 H253 0.929 . S
C263 C261 1.433 . S
C263 N266 1.384 . S
C264 H255 0.929 . S
C264 C256 1.378 . S
C264 C259 1.350 . S
C265 H252 0.929 . S
C265 C257 1.433 . S
C265 N267 1.384 . S
N266 C262 1.427 . S
N266 C263 1.384 . S
N267 C259 1.427 . S
N267 C265 1.384 . S
H268 C274 0.930 . S
H269 C278 0.930 . S
H270 C283 0.929 . S
H271 C281 0.929 . S
H272 C276 0.929 . S
H273 C282 0.929 . S
C274 H268 0.930 . S
C274 C275 1.367 . S
C274 C282 1.378 . S
C275 C274 1.367 . S
C275 C283 1.433 . S
C276 H272 0.929 . S
C276 C278 1.378 . S
C276 C280 1.350 . S
C277 C280 1.463 . S
C277 C282 1.350 . S
C277 N285 1.427 . S
C278 H269 0.930 . S
C278 C276 1.378 . S
C278 C279 1.367 . S
C279 C278 1.367 . S
C279 C281 1.433 . S
C280 C276 1.350 . S
C280 C277 1.463 . S
C280 N284 1.427 . S
C281 H271 0.929 . S
C281 C279 1.433 . S
C281 N284 1.384 . S
C282 H273 0.929 . S
C282 C274 1.378 . S
C282 C277 1.350 . S
C283 H270 0.929 . S
C283 C275 1.433 . S
C283 N285 1.384 . S
N284 C280 1.427 . S
N284 C281 1.384 . S
N285 C277 1.427 . S
N285 C283 1.384 . S
H286 C292 0.930 . S
H287 C296 0.930 . S
H288 C301 0.929 . S
H289 C299 0.929 . S
H290 C294 0.929 . S
H291 C300 0.929 . S
C292 H286 0.930 . S
C292 C293 1.367 . S
C292 C300 1.378 . S
C293 C292 1.367 . S
C293 C301 1.433 . S
C294 H290 0.929 . S
C294 C296 1.378 . S
C294 C298 1.350 . S
C295 C298 1.463 . S
C295 C300 1.350 . S
C295 N303 1.427 . S
C296 H287 0.930 . S
C296 C294 1.378 . S
C296 C297 1.367 . S
C297 C296 1.367 . S
C297 C299 1.433 . S
C298 C294 1.350 . S
C298 C295 1.463 . S
C298 N302 1.427 . S
C299 H289 0.929 . S
C299 C297 1.433 . S
C299 N302 1.384 . S
C300 H291 0.929 . S
C300 C292 1.378 . S
C300 C295 1.350 . S
C301 H288 0.929 . S
C301 C293 1.433 . S
C301 N303 1.384 . S
N302 C298 1.427 . S
N302 C299 1.384 . S
N303 C295 1.427 . S
N303 C301 1.384 . S
H304 C310 0.930 . S
H305 C314 0.930 . S
H306 C319 0.929 . S
H307 C317 0.929 . S
H308 C312 0.929 . S
H309 C318 0.929 . S
C310 H304 0.930 . S
C310 C311 1.367 . S
C310 C318 1.378 . S
C311 C310 1.367 . S
C311 C319 1.433 . S
C312 H308 0.929 . S
C312 C314 1.378 . S
C312 C316 1.350 . S
C313 C316 1.463 . S
C313 C318 1.350 . S
C313 N321 1.427 . S
C314 H305 0.930 . S
C314 C312 1.378 . S
C314 C315 1.367 . S
C315 C314 1.367 . S
C315 C317 1.433 . S
C316 C312 1.350 . S
C316 C313 1.463 . S
C316 N320 1.427 . S
C317 H307 0.929 . S
C317 C315 1.433 . S
C317 N320 1.384 . S
C318 H309 0.929 . S
C318 C310 1.378 . S
C318 C313 1.350 . S
C319 H306 0.929 . S
C319 C311 1.433 . S
C319 N321 1.384 . S
N320 C316 1.427 . S
N320 C317 1.384 . S
N321 C313 1.427 . S
N321 C319 1.384 . S
H322 C328 0.930 . S
H323 C332 0.930 . S
H324 C337 0.929 . S
H325 C335 0.929 . S
H326 C330 0.929 . S
H327 C336 0.929 . S
C328 H322 0.930 . S
C328 C329 1.367 . S
C328 C336 1.378 . S
C329 C328 1.367 . S
C329 C337 1.433 . S
C330 H326 0.929 . S
C330 C332 1.378 . S
C330 C334 1.350 . S
C331 C334 1.463 . S
C331 C336 1.350 . S
C331 N339 1.427 . S
C332 H323 0.930 . S
C332 C330 1.378 . S
C332 C333 1.367 . S
C333 C332 1.367 . S
C333 C335 1.433 . S
C334 C330 1.350 . S
C334 C331 1.463 . S
C334 N338 1.427 . S
C335 H325 0.929 . S
C335 C333 1.433 . S
C335 N338 1.384 . S
C336 H327 0.929 . S
C336 C328 1.378 . S
C336 C331 1.350 . S
C337 H324 0.929 . S
C337 C329 1.433 . S
C337 N339 1.384 . S
N338 C334 1.427 . S
N338 C335 1.384 . S
N339 C331 1.427 . S
N339 C337 1.384 . S
H340 C346 0.930 . S
H341 C350 0.930 . S
H342 C355 0.929 . S
H343 C353 0.929 . S
H344 C348 0.929 . S
H345 C354 0.929 . S
C346 H340 0.930 . S
C346 C347 1.367 . S
C346 C354 1.378 . S
C347 C346 1.367 . S
C347 C355 1.433 . S
C348 H344 0.929 . S
C348 C350 1.378 . S
C348 C352 1.350 . S
C349 C352 1.463 . S
C349 C354 1.350 . S
C349 N357 1.427 . S
C350 H341 0.930 . S
C350 C348 1.378 . S
C350 C351 1.367 . S
C351 C350 1.367 . S
C351 C353 1.433 . S
C352 C348 1.350 . S
C352 C349 1.463 . S
C352 N356 1.427 . S
C353 H343 0.929 . S
C353 C351 1.433 . S
C353 N356 1.384 . S
C354 H345 0.929 . S
C354 C346 1.378 . S
C354 C349 1.350 . S
C355 H342 0.929 . S
C355 C347 1.433 . S
C355 N357 1.384 . S
N356 C352 1.427 . S
N356 C353 1.384 . S
N357 C349 1.427 . S
N357 C355 1.384 . S
H358 C364 0.930 . S
H359 C368 0.930 . S
H360 C373 0.929 . S
H361 C371 0.929 . S
H362 C366 0.929 . S
H363 C372 0.929 . S
C364 H358 0.930 . S
C364 C365 1.367 . S
C364 C372 1.378 . S
C365 C364 1.367 . S
C365 C373 1.433 . S
C366 H362 0.929 . S
C366 C368 1.378 . S
C366 C370 1.350 . S
C367 C370 1.463 . S
C367 C372 1.350 . S
C367 N375 1.427 . S
C368 H359 0.930 . S
C368 C366 1.378 . S
C368 C369 1.367 . S
C369 C368 1.367 . S
C369 C371 1.433 . S
C370 C366 1.350 . S
C370 C367 1.463 . S
C370 N374 1.427 . S
C371 H361 0.929 . S
C371 C369 1.433 . S
C371 N374 1.384 . S
C372 H363 0.929 . S
C372 C364 1.378 . S
C372 C367 1.350 . S
C373 H360 0.929 . S
C373 C365 1.433 . S
C373 N375 1.384 . S
N374 C370 1.427 . S
N374 C371 1.384 . S
N375 C367 1.427 . S
N375 C373 1.384 . S
H376 C382 0.930 . S
H377 C386 0.930 . S
H378 C391 0.929 . S
H379 C389 0.929 . S
H380 C384 0.929 . S
H381 C390 0.929 . S
C382 H376 0.930 . S
C382 C383 1.367 . S
C382 C390 1.378 . S
C383 C382 1.367 . S
C383 C391 1.433 . S
C384 H380 0.929 . S
C384 C386 1.378 . S
C384 C388 1.350 . S
C385 C388 1.463 . S
C385 C390 1.350 . S
C385 N393 1.427 . S
C386 H377 0.930 . S
C386 C384 1.378 . S
C386 C387 1.367 . S
C387 C386 1.367 . S
C387 C389 1.433 . S
C388 C384 1.350 . S
C388 C385 1.463 . S
C388 N392 1.427 . S
C389 H379 0.929 . S
C389 C387 1.433 . S
C389 N392 1.384 . S
C390 H381 0.929 . S
C390 C382 1.378 . S
C390 C385 1.350 . S
C391 H378 0.929 . S
C391 C383 1.433 . S
C391 N393 1.384 . S
N392 C388 1.427 . S
N392 C389 1.384 . S
N393 C385 1.427 . S
N393 C391 1.384 . S
H394 C400 0.930 . S
H395 C404 0.930 . S
H396 C409 0.929 . S
H397 C407 0.929 . S
H398 C402 0.929 . S
H399 C408 0.929 . S
C400 H394 0.930 . S
C400 C401 1.367 . S
C400 C408 1.378 . S
C401 C400 1.367 . S
C401 C409 1.433 . S
C402 H398 0.929 . S
C402 C404 1.378 . S
C402 C406 1.350 . S
C403 C406 1.463 . S
C403 C408 1.350 . S
C403 N411 1.427 . S
C404 H395 0.930 . S
C404 C402 1.378 . S
C404 C405 1.367 . S
C405 C404 1.367 . S
C405 C407 1.433 . S
C406 C402 1.350 . S
C406 C403 1.463 . S
C406 N410 1.427 . S
C407 H397 0.929 . S
C407 C405 1.433 . S
C407 N410 1.384 . S
C408 H399 0.929 . S
C408 C400 1.378 . S
C408 C403 1.350 . S
C409 H396 0.929 . S
C409 C401 1.433 . S
C409 N411 1.384 . S
N410 C406 1.427 . S
N410 C407 1.384 . S
N411 C403 1.427 . S
N411 C409 1.384 . S
H412 C418 0.930 . S
H413 C422 0.930 . S
H414 C427 0.929 . S
H415 C425 0.929 . S
H416 C420 0.929 . S
H417 C426 0.929 . S
C418 H412 0.930 . S
C418 C419 1.367 . S
C418 C426 1.378 . S
C419 C418 1.367 . S
C419 C427 1.433 . S
C420 H416 0.929 . S
C420 C422 1.378 . S
C420 C424 1.350 . S
C421 C424 1.463 . S
C421 C426 1.350 . S
C421 N429 1.427 . S
C422 H413 0.930 . S
C422 C420 1.378 . S
C422 C423 1.367 . S
C423 C422 1.367 . S
C423 C425 1.433 . S
C424 C420 1.350 . S
C424 C421 1.463 . S
C424 N428 1.427 . S
C425 H415 0.929 . S
C425 C423 1.433 . S
C425 N428 1.384 . S
C426 H417 0.929 . S
C426 C418 1.378 . S
C426 C421 1.350 . S
C427 H414 0.929 . S
C427 C419 1.433 . S
C427 N429 1.384 . S
N428 C424 1.427 . S
N428 C425 1.384 . S
N429 C421 1.427 . S
N429 C427 1.384 . S
H430 C436 0.930 . S
H431 C440 0.930 . S
H432 C445 0.929 . S
H433 C443 0.929 . S
H434 C438 0.929 . S
H435 C444 0.929 . S
C436 H430 0.930 . S
C436 C437 1.367 . S
C436 C444 1.378 . S
C437 C436 1.367 . S
C437 C445 1.433 . S
C438 H434 0.929 . S
C438 C440 1.378 . S
C438 C442 1.350 . S
C439 C442 1.463 . S
C439 C444 1.350 . S
C439 N447 1.427 . S
C440 H431 0.930 . S
C440 C438 1.378 . S
C440 C441 1.367 . S
C441 C440 1.367 . S
C441 C443 1.433 . S
C442 C438 1.350 . S
C442 C439 1.463 . S
C442 N446 1.427 . S
C443 H433 0.929 . S
C443 C441 1.433 . S
C443 N446 1.384 . S
C444 H435 0.929 . S
C444 C436 1.378 . S
C444 C439 1.350 . S
C445 H432 0.929 . S
C445 C437 1.433 . S
C445 N447 1.384 . S
N446 C442 1.427 . S
N446 C443 1.384 . S
N447 C439 1.427 . S
N447 C445 1.384 . S
H448 C454 0.930 . S
H449 C458 0.930 . S
H450 C463 0.929 . S
H451 C461 0.929 . S
H452 C456 0.929 . S
H453 C462 0.929 . S
C454 H448 0.930 . S
C454 C455 1.367 . S
C454 C462 1.378 . S
C455 C454 1.367 . S
C455 C463 1.433 . S
C456 H452 0.929 . S
C456 C458 1.378 . S
C456 C460 1.350 . S
C457 C460 1.463 . S
C457 C462 1.350 . S
C457 N465 1.427 . S
C458 H449 0.930 . S
C458 C456 1.378 . S
C458 C459 1.367 . S
C459 C458 1.367 . S
C459 C461 1.433 . S
C460 C456 1.350 . S
C460 C457 1.463 . S
C460 N464 1.427 . S
C461 H451 0.929 . S
C461 C459 1.433 . S
C461 N464 1.384 . S
C462 H453 0.929 . S
C462 C454 1.378 . S
C462 C457 1.350 . S
C463 H450 0.929 . S
C463 C455 1.433 . S
C463 N465 1.384 . S
N464 C460 1.427 . S
N464 C461 1.384 . S
N465 C457 1.427 . S
N465 C463 1.384 . S
H466 C472 0.930 . S
H467 C476 0.930 . S
H468 C481 0.929 . S
H469 C479 0.929 . S
H470 C474 0.929 . S
H471 C480 0.929 . S
C472 H466 0.930 . S
C472 C473 1.367 . S
C472 C480 1.378 . S
C473 C472 1.367 . S
C473 C481 1.433 . S
C474 H470 0.929 . S
C474 C476 1.378 . S
C474 C478 1.350 . S
C475 C478 1.463 . S
C475 C480 1.350 . S
C475 N483 1.427 . S
C476 H467 0.930 . S
C476 C474 1.378 . S
C476 C477 1.367 . S
C477 C476 1.367 . S
C477 C479 1.433 . S
C478 C474 1.350 . S
C478 C475 1.463 . S
C478 N482 1.427 . S
C479 H469 0.929 . S
C479 C477 1.433 . S
C479 N482 1.384 . S
C480 H471 0.929 . S
C480 C472 1.378 . S
C480 C475 1.350 . S
C481 H468 0.929 . S
C481 C473 1.433 . S
C481 N483 1.384 . S
N482 C478 1.427 . S
N482 C479 1.384 . S
N483 C475 1.427 . S
N483 C481 1.384 . S
H484 C490 0.930 . S
H485 C494 0.930 . S
H486 C499 0.929 . S
H487 C497 0.929 . S
H488 C492 0.929 . S
H489 C498 0.929 . S
C490 H484 0.930 . S
C490 C491 1.367 . S
C490 C498 1.378 . S
C491 C490 1.367 . S
C491 C499 1.433 . S
C492 H488 0.929 . S
C492 C494 1.378 . S
C492 C496 1.350 . S
C493 C496 1.463 . S
C493 C498 1.350 . S
C493 N501 1.427 . S
C494 H485 0.930 . S
C494 C492 1.378 . S
C494 C495 1.367 . S
C495 C494 1.367 . S
C495 C497 1.433 . S
C496 C492 1.350 . S
C496 C493 1.463 . S
C496 N500 1.427 . S
C497 H487 0.929 . S
C497 C495 1.433 . S
C497 N500 1.384 . S
C498 H489 0.929 . S
C498 C490 1.378 . S
C498 C493 1.350 . S
C499 H486 0.929 . S
C499 C491 1.433 . S
C499 N501 1.384 . S
N500 C496 1.427 . S
N500 C497 1.384 . S
N501 C493 1.427 . S
N501 C499 1.384 . S
H502 C508 0.930 . S
H503 C512 0.930 . S
H504 C517 0.929 . S
H505 C515 0.929 . S
H506 C510 0.929 . S
H507 C516 0.929 . S
C508 H502 0.930 . S
C508 C509 1.367 . S
C508 C516 1.378 . S
C509 C508 1.367 . S
C509 C517 1.433 . S
C510 H506 0.929 . S
C510 C512 1.378 . S
C510 C514 1.350 . S
C511 C514 1.463 . S
C511 C516 1.350 . S
C511 N519 1.427 . S
C512 H503 0.930 . S
C512 C510 1.378 . S
C512 C513 1.367 . S
C513 C512 1.367 . S
C513 C515 1.433 . S
C514 C510 1.350 . S
C514 C511 1.463 . S
C514 N518 1.427 . S
C515 H505 0.929 . S
C515 C513 1.433 . S
C515 N518 1.384 . S
C516 H507 0.929 . S
C516 C508 1.378 . S
C516 C511 1.350 . S
C517 H504 0.929 . S
C517 C509 1.433 . S
C517 N519 1.384 . S
N518 C514 1.427 . S
N518 C515 1.384 . S
N519 C511 1.427 . S
N519 C517 1.384 . S
H520 C526 0.930 . S
H521 C530 0.930 . S
H522 C535 0.929 . S
H523 C533 0.929 . S
H524 C528 0.929 . S
H525 C534 0.929 . S
C526 H520 0.930 . S
C526 C527 1.367 . S
C526 C534 1.378 . S
C527 C526 1.367 . S
C527 C535 1.433 . S
C528 H524 0.929 . S
C528 C530 1.378 . S
C528 C532 1.350 . S
C529 C532 1.463 . S
C529 C534 1.350 . S
C529 N537 1.427 . S
C530 H521 0.930 . S
C530 C528 1.378 . S
C530 C531 1.367 . S
C531 C530 1.367 . S
C531 C533 1.433 . S
C532 C528 1.350 . S
C532 C529 1.463 . S
C532 N536 1.427 . S
C533 H523 0.929 . S
C533 C531 1.433 . S
C533 N536 1.384 . S
C534 H525 0.929 . S
C534 C526 1.378 . S
C534 C529 1.350 . S
C535 H522 0.929 . S
C535 C527 1.433 . S
C535 N537 1.384 . S
N536 C532 1.427 . S
N536 C533 1.384 . S
N537 C529 1.427 . S
N537 C535 1.384 . S
H538 C544 0.930 . S
H539 C548 0.930 . S
H540 C553 0.929 . S
H541 C551 0.929 . S
H542 C546 0.929 . S
H543 C552 0.929 . S
C544 H538 0.930 . S
C544 C545 1.367 . S
C544 C552 1.378 . S
C545 C544 1.367 . S
C545 C553 1.433 . S
C546 H542 0.929 . S
C546 C548 1.378 . S
C546 C550 1.350 . S
C547 C550 1.463 . S
C547 C552 1.350 . S
C547 N555 1.427 . S
C548 H539 0.930 . S
C548 C546 1.378 . S
C548 C549 1.367 . S
C549 C548 1.367 . S
C549 C551 1.433 . S
C550 C546 1.350 . S
C550 C547 1.463 . S
C550 N554 1.427 . S
C551 H541 0.929 . S
C551 C549 1.433 . S
C551 N554 1.384 . S
C552 H543 0.929 . S
C552 C544 1.378 . S
C552 C547 1.350 . S
C553 H540 0.929 . S
C553 C545 1.433 . S
C553 N555 1.384 . S
N554 C550 1.427 . S
N554 C551 1.384 . S
N555 C547 1.427 . S
N555 C553 1.384 . S
H556 C562 0.930 . S
H557 C566 0.930 . S
H558 C571 0.929 . S
H559 C569 0.929 . S
H560 C564 0.929 . S
H561 C570 0.929 . S
C562 H556 0.930 . S
C562 C563 1.367 . S
C562 C570 1.378 . S
C563 C562 1.367 . S
C563 C571 1.433 . S
C564 H560 0.929 . S
C564 C566 1.378 . S
C564 C568 1.350 . S
C565 C568 1.463 . S
C565 C570 1.350 . S
C565 N573 1.427 . S
C566 H557 0.930 . S
C566 C564 1.378 . S
C566 C567 1.367 . S
C567 C566 1.367 . S
C567 C569 1.433 . S
C568 C564 1.350 . S
C568 C565 1.463 . S
C568 N572 1.427 . S
C569 H559 0.929 . S
C569 C567 1.433 . S
C569 N572 1.384 . S
C570 H561 0.929 . S
C570 C562 1.378 . S
C570 C565 1.350 . S
C571 H558 0.929 . S
C571 C563 1.433 . S
C571 N573 1.384 . S
N572 C568 1.427 . S
N572 C569 1.384 . S
N573 C565 1.427 . S
N573 C571 1.384 . S
H574 C580 0.930 . S
H575 C584 0.930 . S
H576 C589 0.929 . S
H577 C587 0.929 . S
H578 C582 0.929 . S
H579 C588 0.929 . S
C580 H574 0.930 . S
C580 C581 1.367 . S
C580 C588 1.378 . S
C581 C580 1.367 . S
C581 C589 1.433 . S
C582 H578 0.929 . S
C582 C584 1.378 . S
C582 C586 1.350 . S
C583 C586 1.463 . S
C583 C588 1.350 . S
C583 N591 1.427 . S
C584 H575 0.930 . S
C584 C582 1.378 . S
C584 C585 1.367 . S
C585 C584 1.367 . S
C585 C587 1.433 . S
C586 C582 1.350 . S
C586 C583 1.463 . S
C586 N590 1.427 . S
C587 H577 0.929 . S
C587 C585 1.433 . S
C587 N590 1.384 . S
C588 H579 0.929 . S
C588 C580 1.378 . S
C588 C583 1.350 . S
C589 H576 0.929 . S
C589 C581 1.433 . S
C589 N591 1.384 . S
N590 C586 1.427 . S
N590 C587 1.384 . S
N591 C583 1.427 . S
N591 C589 1.384 . S
H592 C598 0.930 . S
H593 C602 0.930 . S
H594 C607 0.929 . S
H595 C605 0.929 . S
H596 C600 0.929 . S
H597 C606 0.929 . S
C598 H592 0.930 . S
C598 C599 1.367 . S
C598 C606 1.378 . S
C599 C598 1.367 . S
C599 C607 1.433 . S
C600 H596 0.929 . S
C600 C602 1.378 . S
C600 C604 1.350 . S
C601 C604 1.463 . S
C601 C606 1.350 . S
C601 N609 1.427 . S
C602 H593 0.930 . S
C602 C600 1.378 . S
C602 C603 1.367 . S
C603 C602 1.367 . S
C603 C605 1.433 . S
C604 C600 1.350 . S
C604 C601 1.463 . S
C604 N608 1.427 . S
C605 H595 0.929 . S
C605 C603 1.433 . S
C605 N608 1.384 . S
C606 H597 0.929 . S
C606 C598 1.378 . S
C606 C601 1.350 . S
C607 H594 0.929 . S
C607 C599 1.433 . S
C607 N609 1.384 . S
N608 C604 1.427 . S
N608 C605 1.384 . S
N609 C601 1.427 . S
N609 C607 1.384 . S
H610 C616 0.930 . S
H611 C620 0.930 . S
H612 C625 0.929 . S
H613 C623 0.929 . S
H614 C618 0.929 . S
H615 C624 0.929 . S
C616 H610 0.930 . S
C616 C617 1.367 . S
C616 C624 1.378 . S
C617 C616 1.367 . S
C617 C625 1.433 . S
C618 H614 0.929 . S
C618 C620 1.378 . S
C618 C622 1.350 . S
C619 C622 1.463 . S
C619 C624 1.350 . S
C619 N627 1.427 . S
C620 H611 0.930 . S
C620 C618 1.378 . S
C620 C621 1.367 . S
C621 C620 1.367 . S
C621 C623 1.433 . S
C622 C618 1.350 . S
C622 C619 1.463 . S
C622 N626 1.427 . S
C623 H613 0.929 . S
C623 C621 1.433 . S
C623 N626 1.384 . S
C624 H615 0.929 . S
C624 C616 1.378 . S
C624 C619 1.350 . S
C625 H612 0.929 . S
C625 C617 1.433 . S
C625 N627 1.384 . S
N626 C622 1.427 . S
N626 C623 1.384 . S
N627 C619 1.427 . S
N627 C625 1.384 . S
H628 C634 0.930 . S
H629 C638 0.930 . S
H630 C643 0.929 . S
H631 C641 0.929 . S
H632 C636 0.929 . S
H633 C642 0.929 . S
C634 H628 0.930 . S
C634 C635 1.367 . S
C634 C642 1.378 . S
C635 C634 1.367 . S
C635 C643 1.433 . S
C636 H632 0.929 . S
C636 C638 1.378 . S
C636 C640 1.350 . S
C637 C640 1.463 . S
C637 C642 1.350 . S
C637 N645 1.427 . S
C638 H629 0.930 . S
C638 C636 1.378 . S
C638 C639 1.367 . S
C639 C638 1.367 . S
C639 C641 1.433 . S
C640 C636 1.350 . S
C640 C637 1.463 . S
C640 N644 1.427 . S
C641 H631 0.929 . S
C641 C639 1.433 . S
C641 N644 1.384 . S
C642 H633 0.929 . S
C642 C634 1.378 . S
C642 C637 1.350 . S
C643 H630 0.929 . S
C643 C635 1.433 . S
C643 N645 1.384 . S
N644 C640 1.427 . S
N644 C641 1.384 . S
N645 C637 1.427 . S
N645 C643 1.384 . S
H646 C652 0.930 . S
H647 C656 0.930 . S
H648 C661 0.929 . S
H649 C659 0.929 . S
H650 C654 0.929 . S
H651 C660 0.929 . S
C652 H646 0.930 . S
C652 C653 1.367 . S
C652 C660 1.378 . S
C653 C652 1.367 . S
C653 C661 1.433 . S
C654 H650 0.929 . S
C654 C656 1.378 . S
C654 C658 1.350 . S
C655 C658 1.463 . S
C655 C660 1.350 . S
C655 N663 1.427 . S
C656 H647 0.930 . S
C656 C654 1.378 . S
C656 C657 1.367 . S
C657 C656 1.367 . S
C657 C659 1.433 . S
C658 C654 1.350 . S
C658 C655 1.463 . S
C658 N662 1.427 . S
C659 H649 0.929 . S
C659 C657 1.433 . S
C659 N662 1.384 . S
C660 H651 0.929 . S
C660 C652 1.378 . S
C660 C655 1.350 . S
C661 H648 0.929 . S
C661 C653 1.433 . S
C661 N663 1.384 . S
N662 C658 1.427 . S
N662 C659 1.384 . S
N663 C655 1.427 . S
N663 C661 1.384 . S
C239 C5 1.010 . S
C243 C78 1.013 . S
C257 C14 0.931 . S
C261 C127 0.931 . S
C279 C162 2.493 . S
C275 C25 2.539 . S
C293 C34 2.452 . S
C297 C201 2.397 . S
C315 C122 2.031 . S
C311 C7 1.942 . S
C333 C81 0.733 . S
C329 C13 0.745 . S
C351 C211 1.917 . S
C347 C23 1.966 . S
C369 C170 1.694 . S
C365 C31 1.719 . S
C383 C4 1.401 . S
C387 C198 1.442 . S
C405 C130 2.331 . S
C401 C22 2.413 . S
C419 C32 2.358 . S
C423 C91 2.349 . S
C437 C16 0.846 . S
C441 C167 0.841 . S
C459 C87 1.003 . S
C455 C41 1.000 . S
C473 C50 0.927 . S
C477 C118 0.923 . S
C491 C61 2.532 . S
C495 C171 2.488 . S
C509 C67 2.462 . S
C513 C210 2.405 . S
C527 C40 1.966 . S
C531 C131 2.051 . S
C549 C90 0.737 . S
C545 C52 0.720 . S
C567 C202 1.925 . S
C563 C59 1.976 . S
C585 C161 1.688 . S
C581 C70 1.715 . S
C599 C43 1.394 . S
C603 C207 1.437 . S
C621 C121 2.337 . S
C617 C58 2.425 . S
C639 C82 2.329 . S
C635 C68 2.339 . S
C653 C49 0.842 . S
C657 C158 0.853 . S
