# Generated by pormake.
# Topology pto, (3,4)-cn, num edge types: 1
# Building blocks:
#     Node 0, Type 0, BuildingBlock: WUSLED_clean_sbu_0, # of connection points: 3
#     Node 1, Type 0, BuildingBlock: WUSLED_clean_sbu_0, # of connection points: 3
#     Node 2, Type 0, BuildingBlock: WUSLED_clean_sbu_0, # of connection points: 3
#     Node 3, Type 0, BuildingBlock: WUSLED_clean_sbu_0, # of connection points: 3
#     Node 4, Type 0, BuildingBlock: WUSLED_clean_sbu_0, # of connection points: 3
#     Node 5, Type 0, BuildingBlock: WUSLED_clean_sbu_0, # of connection points: 3
#     Node 6, Type 0, BuildingBlock: WUSLED_clean_sbu_0, # of connection points: 3
#     Node 7, Type 0, BuildingBlock: WUSLED_clean_sbu_0, # of connection points: 3
#     Node 8, Type 1, BuildingBlock: KUFVIS_clean_linker_0, # of connection points: 4
#     Node 9, Type 1, BuildingBlock: KUFVIS_clean_linker_0, # of connection points: 4
#     Node 10, Type 1, BuildingBlock: KUFVIS_clean_linker_0, # of connection points: 4
#     Node 11, Type 1, BuildingBlock: KUFVIS_clean_linker_0, # of connection points: 4
#     Node 12, Type 1, BuildingBlock: KUFVIS_clean_linker_0, # of connection points: 4
#     Node 13, Type 1, BuildingBlock: KUFVIS_clean_linker_0, # of connection points: 4
#     Edge 14, Type (0, 1), BuildingBlock: UVAHIK_clean_linker_0, # of connection points: 2
#     Edge 15, Type (0, 1), BuildingBlock: UVAHIK_clean_linker_0, # of connection points: 2
#     Edge 16, Type (0, 1), BuildingBlock: UVAHIK_clean_linker_0, # of connection points: 2
#     Edge 17, Type (0, 1), BuildingBlock: UVAHIK_clean_linker_0, # of connection points: 2
#     Edge 18, Type (0, 1), BuildingBlock: UVAHIK_clean_linker_0, # of connection points: 2
#     Edge 19, Type (0, 1), BuildingBlock: UVAHIK_clean_linker_0, # of connection points: 2
#     Edge 20, Type (0, 1), BuildingBlock: UVAHIK_clean_linker_0, # of connection points: 2
#     Edge 21, Type (0, 1), BuildingBlock: UVAHIK_clean_linker_0, # of connection points: 2
#     Edge 22, Type (0, 1), BuildingBlock: UVAHIK_clean_linker_0, # of connection points: 2
#     Edge 23, Type (0, 1), BuildingBlock: UVAHIK_clean_linker_0, # of connection points: 2
#     Edge 24, Type (0, 1), BuildingBlock: UVAHIK_clean_linker_0, # of connection points: 2
#     Edge 25, Type (0, 1), BuildingBlock: UVAHIK_clean_linker_0, # of connection points: 2
#     Edge 26, Type (0, 1), BuildingBlock: UVAHIK_clean_linker_0, # of connection points: 2
#     Edge 27, Type (0, 1), BuildingBlock: UVAHIK_clean_linker_0, # of connection points: 2
#     Edge 28, Type (0, 1), BuildingBlock: UVAHIK_clean_linker_0, # of connection points: 2
#     Edge 29, Type (0, 1), BuildingBlock: UVAHIK_clean_linker_0, # of connection points: 2
#     Edge 30, Type (0, 1), BuildingBlock: UVAHIK_clean_linker_0, # of connection points: 2
#     Edge 31, Type (0, 1), BuildingBlock: UVAHIK_clean_linker_0, # of connection points: 2
#     Edge 32, Type (0, 1), BuildingBlock: UVAHIK_clean_linker_0, # of connection points: 2
#     Edge 33, Type (0, 1), BuildingBlock: UVAHIK_clean_linker_0, # of connection points: 2
#     Edge 34, Type (0, 1), BuildingBlock: UVAHIK_clean_linker_0, # of connection points: 2
#     Edge 35, Type (0, 1), BuildingBlock: UVAHIK_clean_linker_0, # of connection points: 2
#     Edge 36, Type (0, 1), BuildingBlock: UVAHIK_clean_linker_0, # of connection points: 2
#     Edge 37, Type (0, 1), BuildingBlock: UVAHIK_clean_linker_0, # of connection points: 2
# Relax obj value: 0.002
# Max RMSD: 0.051
# Mean RMSD: 0.028
data_MOF--net-pto--node1-WUSLED_clean_sbu_0--node2-KUFVIS_clean_linker_0--edge1-UVAHIK_clean_linker_0
_symmetry_space_group_name_H-M    P1
_symmetry_Int_Tables_number       1
_symmetry_cell_setting            triclinic
loop_
_symmetry_equiv_pos_as_xyz
'x, y, z'
_cell_length_a     48.375599
_cell_length_b     80.606601
_cell_length_c     65.07439
_cell_angle_alpha  89.535774
_cell_angle_beta   90.749871
_cell_angle_gamma 90.541139
loop_
_atom_site_label
_atom_site_type_symbol
_atom_site_fract_x
_atom_site_fract_y
_atom_site_fract_z
_atom_type_partial_charge
C0 C 0.20622 0.23079 0.3493 0.0
C1 C 0.21991 0.21755 0.3401 0.0
C2 C 0.20398 0.19869 0.36704 0.0
C3 C 0.21885 0.20166 0.3489 0.0
C4 C 0.19023 0.21204 0.37614 0.0
C5 C 0.19137 0.22793 0.36734 0.0
U6 U 0.22766 0.2595 0.30582 0.0
O7 O 0.20615 0.28004 0.29024 0.0
O8 O 0.24585 0.28469 0.30604 0.0
C9 C 0.22484 0.29111 0.29586 0.0
C10 C 0.2073 0.24754 0.34014 0.0
C11 C 0.21451 0.30711 0.30325 0.0
C12 C 0.18015 0.32382 0.32029 0.0
C13 C 0.19062 0.30824 0.31517 0.0
C14 C 0.21775 0.33721 0.30215 0.0
C15 C 0.19336 0.3385 0.31354 0.0
C16 C 0.22816 0.32169 0.29707 0.0
C17 C 0.26536 0.24165 0.26034 0.0
C18 C 0.27499 0.25845 0.23008 0.0
C19 C 0.29579 0.23136 0.23404 0.0
C20 C 0.28239 0.22919 0.2528 0.0
C21 C 0.29234 0.24606 0.22247 0.0
C22 C 0.2617 0.25629 0.24887 0.0
C23 C 0.25198 0.23941 0.28033 0.0
O24 O 0.23214 0.2542 0.33891 0.0
O25 O 0.19243 0.24954 0.32326 0.0
O26 O 0.22514 0.2418 0.28033 0.0
O27 O 0.26489 0.24644 0.29592 0.0
H28 H 0.23139 0.21952 0.32609 0.0
H29 H 0.2294 0.19165 0.34136 0.0
H30 H 0.17891 0.21026 0.39024 0.0
H31 H 0.18072 0.23801 0.37467 0.0
H32 H 0.16124 0.32436 0.32898 0.0
H33 H 0.17975 0.29712 0.3201 0.0
H34 H 0.22873 0.34822 0.29702 0.0
H35 H 0.24666 0.32108 0.2879 0.0
H36 H 0.27159 0.26983 0.22148 0.0
H37 H 0.30932 0.22168 0.22884 0.0
H38 H 0.28557 0.21786 0.26154 0.0
H39 H 0.24863 0.26606 0.2545 0.0
C40 C 0.20519 0.80494 0.67179 0.0
C41 C 0.2209 0.81783 0.6806 0.0
C42 C 0.20363 0.83723 0.6546 0.0
C43 C 0.22019 0.83382 0.67206 0.0
C44 C 0.18774 0.82426 0.64597 0.0
C45 C 0.18856 0.80826 0.65448 0.0
U46 U 0.22692 0.77499 0.71431 0.0
O47 O 0.20524 0.75387 0.72858 0.0
O48 O 0.24454 0.74989 0.71287 0.0
C49 C 0.2236 0.74307 0.72256 0.0
C50 C 0.20613 0.78801 0.68044 0.0
C51 C 0.21288 0.72722 0.71443 0.0
C52 C 0.17673 0.71046 0.69825 0.0
C53 C 0.18755 0.72604 0.70372 0.0
C54 C 0.21683 0.6972 0.71353 0.0
C55 C 0.19102 0.69584 0.70347 0.0
C56 C 0.22759 0.71272 0.71896 0.0
C57 C 0.26594 0.79046 0.76113 0.0
C58 C 0.28003 0.77079 0.78764 0.0
C59 C 0.29225 0.79989 0.7909 0.0
C60 C 0.27874 0.80328 0.77221 0.0
C61 C 0.29321 0.78358 0.79878 0.0
C62 C 0.26653 0.77421 0.76898 0.0
C63 C 0.25232 0.79398 0.74128 0.0
O64 O 0.23084 0.78138 0.68156 0.0
O65 O 0.19161 0.78556 0.69715 0.0
O66 O 0.22541 0.79163 0.74089 0.0
O67 O 0.26464 0.78778 0.72522 0.0
H68 H 0.23377 0.8155 0.69405 0.0
H69 H 0.23242 0.84355 0.67923 0.0
H70 H 0.17505 0.82639 0.63239 0.0
H71 H 0.17632 0.79845 0.64746 0.0
H72 H 0.15673 0.70985 0.69061 0.0
H73 H 0.17582 0.73708 0.70008 0.0
H74 H 0.22861 0.68624 0.71745 0.0
H75 H 0.24719 0.71337 0.72719 0.0
H76 H 0.28008 0.75814 0.79337 0.0
H77 H 0.30248 0.80998 0.79894 0.0
H78 H 0.27851 0.81589 0.76632 0.0
H79 H 0.25666 0.76415 0.76061 0.0
C80 C 0.74512 0.79177 0.26272 0.0
C81 C 0.74379 0.77563 0.25486 0.0
C82 C 0.71754 0.78551 0.22508 0.0
C83 C 0.73012 0.77252 0.23621 0.0
C84 C 0.71929 0.80173 0.23293 0.0
C85 C 0.73295 0.80481 0.25162 0.0
U86 U 0.78402 0.77545 0.30916 0.0
O87 O 0.81943 0.78577 0.32655 0.0
O88 O 0.7801 0.78099 0.34203 0.0
C89 C 0.80494 0.78769 0.3433 0.0
C90 C 0.75879 0.79494 0.2826 0.0
C91 C 0.8062 0.80437 0.35235 0.0
C92 C 0.79507 0.83373 0.35117 0.0
C93 C 0.79386 0.81795 0.34233 0.0
C94 C 0.82101 0.82251 0.38009 0.0
C95 C 0.8087 0.83622 0.37016 0.0
C96 C 0.81976 0.80675 0.37126 0.0
C97 C 0.79771 0.72781 0.3079 0.0
C98 C 0.8336 0.71098 0.32398 0.0
C99 C 0.79404 0.69772 0.30762 0.0
C100 C 0.78326 0.71327 0.30262 0.0
C101 C 0.81959 0.69636 0.31801 0.0
C102 C 0.82277 0.7266 0.31893 0.0
C103 C 0.78707 0.74379 0.30019 0.0
O104 O 0.74644 0.78824 0.29855 0.0
O105 O 0.78569 0.7928 0.28292 0.0
O106 O 0.8055 0.75492 0.2944 0.0
O107 O 0.76622 0.75016 0.31008 0.0
H108 H 0.75318 0.76541 0.26323 0.0
H109 H 0.72945 0.75994 0.23049 0.0
H110 H 0.70954 0.81197 0.22487 0.0
H111 H 0.73376 0.81734 0.25751 0.0
H112 H 0.78562 0.84402 0.343 0.0
H113 H 0.78332 0.81633 0.32768 0.0
H114 H 0.83129 0.82389 0.39487 0.0
H115 H 0.8293 0.79639 0.37924 0.0
H116 H 0.8534 0.71037 0.3319 0.0
H117 H 0.78247 0.68674 0.30312 0.0
H118 H 0.76388 0.71395 0.29412 0.0
H119 H 0.8343 0.73767 0.32315 0.0
C120 C 0.77669 0.21294 0.69942 0.0
C121 C 0.78632 0.2156 0.67941 0.0
C122 C 0.78415 0.18579 0.67291 0.0
C123 C 0.79004 0.20212 0.66625 0.0
C124 C 0.77471 0.1833 0.69307 0.0
C125 C 0.77101 0.19673 0.70614 0.0
U126 U 0.78208 0.25868 0.71733 0.0
O127 O 0.75101 0.27332 0.73331 0.0
O128 O 0.79048 0.26765 0.7487 0.0
C129 C 0.76556 0.27378 0.75052 0.0
C130 C 0.77214 0.22671 0.71366 0.0
C131 C 0.7509 0.26944 0.76967 0.0
C132 C 0.70952 0.26057 0.78776 0.0
C133 C 0.7234 0.26364 0.76938 0.0
C134 C 0.7505 0.26868 0.80706 0.0
C135 C 0.72282 0.26316 0.80686 0.0
C136 C 0.76431 0.27186 0.78869 0.0
C137 C 0.81608 0.29377 0.68816 0.0
C138 C 0.81344 0.32179 0.70152 0.0
C139 C 0.84269 0.31614 0.67252 0.0
C140 C 0.83466 0.2994 0.67326 0.0
C141 C 0.83225 0.32755 0.68669 0.0
C142 C 0.8055 0.30507 0.70227 0.0
C143 C 0.80825 0.27609 0.68931 0.0
O144 O 0.7943 0.23277 0.72289 0.0
O145 O 0.75475 0.2382 0.70744 0.0
O146 O 0.78153 0.27298 0.68839 0.0
O147 O 0.82105 0.26754 0.70379 0.0
H148 H 0.79081 0.22806 0.67396 0.0
H149 H 0.79711 0.20452 0.65078 0.0
H150 H 0.77043 0.17092 0.69886 0.0
H151 H 0.76367 0.19444 0.72158 0.0
H152 H 0.6881 0.25656 0.78698 0.0
H153 H 0.71239 0.26171 0.75499 0.0
H154 H 0.76156 0.27058 0.82144 0.0
H155 H 0.78547 0.27637 0.78934 0.0
H156 H 0.80469 0.33022 0.71249 0.0
H157 H 0.8575 0.32005 0.66109 0.0
H158 H 0.84317 0.29083 0.66232 0.0
H159 H 0.79114 0.30093 0.71393 0.0
C160 C 0.79464 0.7255 0.71294 0.0
C161 C 0.79179 0.72104 0.69218 0.0
C162 C 0.81631 0.69516 0.699 0.0
C163 C 0.80253 0.706 0.68528 0.0
C164 C 0.81954 0.69992 0.71965 0.0
C165 C 0.80878 0.71488 0.72652 0.0
U166 U 0.77424 0.77203 0.71181 0.0
O167 O 0.73612 0.78346 0.72271 0.0
O168 O 0.77589 0.78968 0.73749 0.0
C169 C 0.74887 0.79113 0.73792 0.0
C170 C 0.78211 0.74065 0.72122 0.0
C171 C 0.73623 0.78951 0.75833 0.0
C172 C 0.70771 0.77466 0.78303 0.0
C173 C 0.72061 0.77544 0.76391 0.0
C174 C 0.72664 0.80172 0.79147 0.0
C175 C 0.71035 0.78786 0.79699 0.0
C176 C 0.73935 0.80253 0.77232 0.0
C177 C 0.7899 0.80201 0.66839 0.0
C178 C 0.77171 0.83004 0.66895 0.0
C179 C 0.80444 0.82238 0.6429 0.0
C180 C 0.80561 0.80631 0.65118 0.0
C181 C 0.78746 0.83445 0.65168 0.0
C182 C 0.77299 0.81399 0.67726 0.0
C183 C 0.7915 0.78515 0.67719 0.0
O184 O 0.79935 0.75256 0.7267 0.0
O185 O 0.75963 0.74611 0.71192 0.0
O186 O 0.76771 0.77727 0.67889 0.0
O187 O 0.80734 0.78371 0.69366 0.0
H188 H 0.78096 0.72903 0.68139 0.0
H189 H 0.79952 0.70271 0.6693 0.0
H190 H 0.8305 0.6921 0.73057 0.0
H191 H 0.81127 0.7181 0.74258 0.0
H192 H 0.69512 0.76387 0.78664 0.0
H193 H 0.71801 0.76518 0.7534 0.0
H194 H 0.72959 0.81197 0.80194 0.0
H195 H 0.75146 0.81345 0.76836 0.0
H196 H 0.7587 0.83907 0.67624 0.0
H197 H 0.81659 0.82529 0.62946 0.0
H198 H 0.81879 0.79723 0.64414 0.0
H199 H 0.76085 0.81093 0.69067 0.0
C200 C 0.73627 0.24889 0.26424 0.0
C201 C 0.7372 0.26507 0.25618 0.0
C202 C 0.71128 0.25608 0.22583 0.0
C203 C 0.72482 0.26864 0.23713 0.0
C204 C 0.71071 0.23984 0.23395 0.0
C205 C 0.7231 0.23629 0.253 0.0
U206 U 0.77346 0.26298 0.31289 0.0
O207 O 0.76697 0.25584 0.34516 0.0
O208 O 0.80688 0.25111 0.33081 0.0
C209 C 0.79111 0.24857 0.34686 0.0
C210 C 0.7486 0.24512 0.28447 0.0
C211 C 0.79034 0.23141 0.35476 0.0
C212 C 0.77389 0.20287 0.3524 0.0
C213 C 0.77468 0.21912 0.34465 0.0
C214 C 0.80461 0.21099 0.38032 0.0
C215 C 0.78887 0.19859 0.37033 0.0
C216 C 0.80531 0.22724 0.3726 0.0
C217 C 0.79122 0.31007 0.3161 0.0
C218 C 0.82827 0.32497 0.33391 0.0
C219 C 0.78867 0.33994 0.32055 0.0
C220 C 0.77717 0.32508 0.31337 0.0
C221 C 0.8146 0.34014 0.33059 0.0
C222 C 0.81668 0.31006 0.32673 0.0
C223 C 0.77968 0.295 0.30637 0.0
O224 O 0.77559 0.24695 0.28576 0.0
O225 O 0.73566 0.25141 0.30019 0.0
O226 O 0.75755 0.28846 0.31483 0.0
O227 O 0.79747 0.28388 0.30028 0.0
H228 H 0.74737 0.27495 0.26468 0.0
H229 H 0.72592 0.28123 0.23123 0.0
H230 H 0.70012 0.22993 0.22581 0.0
H231 H 0.72214 0.22374 0.25906 0.0
H232 H 0.76183 0.1936 0.3442 0.0
H233 H 0.76308 0.22211 0.33078 0.0
H234 H 0.8161 0.20819 0.3943 0.0
H235 H 0.81746 0.23657 0.38062 0.0
H236 H 0.84836 0.32466 0.34143 0.0
H237 H 0.77734 0.35131 0.31805 0.0
H238 H 0.75749 0.32536 0.30523 0.0
H239 H 0.82794 0.29863 0.32903 0.0
C240 C 0.22236 0.2322 0.66435 0.0
C241 C 0.21954 0.21789 0.67667 0.0
C242 C 0.22784 0.20035 0.64706 0.0
C243 C 0.22208 0.2021 0.66806 0.0
C244 C 0.23066 0.21473 0.63483 0.0
C245 C 0.22788 0.23047 0.64339 0.0
U246 U 0.23566 0.26289 0.70778 0.0
O247 O 0.25033 0.28888 0.70675 0.0
O248 O 0.21014 0.28271 0.7203 0.0
C249 C 0.22752 0.29452 0.71479 0.0
C250 C 0.22035 0.249 0.67307 0.0
C251 C 0.21541 0.30934 0.70488 0.0
C252 C 0.17916 0.32287 0.68484 0.0
C253 C 0.19156 0.30837 0.6924 0.0
C254 C 0.21485 0.33941 0.70152 0.0
C255 C 0.19045 0.33859 0.68956 0.0
C256 C 0.22713 0.32493 0.70912 0.0
C257 C 0.2719 0.24814 0.75682 0.0
C258 C 0.28802 0.26736 0.78304 0.0
C259 C 0.29068 0.23771 0.78915 0.0
C260 C 0.27901 0.23481 0.76972 0.0
C261 C 0.29552 0.25402 0.79598 0.0
C262 C 0.27623 0.26444 0.76364 0.0
C263 C 0.26031 0.24488 0.73624 0.0
O264 O 0.2037 0.25064 0.68874 0.0
O265 O 0.24399 0.25696 0.67548 0.0
O266 O 0.27349 0.25202 0.72097 0.0
O267 O 0.2333 0.24605 0.73453 0.0
H268 H 0.21556 0.2189 0.69295 0.0
H269 H 0.22006 0.19128 0.67792 0.0
H270 H 0.23477 0.21381 0.61856 0.0
H271 H 0.23018 0.24134 0.63363 0.0
H272 H 0.1606 0.32179 0.67544 0.0
H273 H 0.18221 0.29646 0.68884 0.0
H274 H 0.22393 0.35127 0.70566 0.0
H275 H 0.24547 0.32595 0.71879 0.0
H276 H 0.29119 0.28005 0.78793 0.0
H277 H 0.29652 0.22717 0.79863 0.0
H278 H 0.2758 0.22215 0.76468 0.0
H279 H 0.27068 0.27488 0.75389 0.0
C280 C 0.20403 0.73783 0.34196 0.0
C281 C 0.19382 0.72864 0.3252 0.0
C282 C 0.18568 0.70466 0.34756 0.0
C283 C 0.18463 0.71226 0.32799 0.0
C284 C 0.19641 0.71388 0.3642 0.0
C285 C 0.20541 0.73028 0.36142 0.0
U286 U 0.2372 0.77203 0.30965 0.0
O287 O 0.22688 0.79836 0.3055 0.0
O288 O 0.26757 0.79146 0.31806 0.0
C289 C 0.25036 0.80356 0.31372 0.0
C290 C 0.21354 0.75516 0.33938 0.0
C291 C 0.24892 0.81706 0.32893 0.0
C292 C 0.22304 0.8352 0.35128 0.0
C293 C 0.22398 0.8215 0.3382 0.0
C294 C 0.272 0.84001 0.3464 0.0
C295 C 0.24703 0.84469 0.35544 0.0
C296 C 0.27289 0.82639 0.33327 0.0
C297 C 0.26182 0.7613 0.25579 0.0
C298 C 0.27986 0.78196 0.23196 0.0
C299 C 0.28404 0.7527 0.22444 0.0
C300 C 0.27058 0.74873 0.24273 0.0
C301 C 0.28897 0.76937 0.21884 0.0
C302 C 0.26646 0.77795 0.25031 0.0
C303 C 0.24863 0.75679 0.2753 0.0
O304 O 0.24045 0.75726 0.33822 0.0
O305 O 0.19967 0.76418 0.32591 0.0
O306 O 0.22468 0.76374 0.27874 0.0
O307 O 0.26517 0.75676 0.29148 0.0
H308 H 0.19275 0.73416 0.30998 0.0
H309 H 0.1762 0.70568 0.31485 0.0
H310 H 0.19804 0.70839 0.3794 0.0
H311 H 0.21348 0.7371 0.3745 0.0
H312 H 0.20355 0.83836 0.35819 0.0
H313 H 0.20513 0.81452 0.33517 0.0
H314 H 0.29078 0.84714 0.34906 0.0
H315 H 0.2923 0.82332 0.32616 0.0
H316 H 0.28304 0.79491 0.22805 0.0
H317 H 0.29118 0.74268 0.21494 0.0
H318 H 0.26732 0.73581 0.24682 0.0
H319 H 0.25988 0.78783 0.26027 0.0
H320 H 0.00974 0.46014 0.35663 0.0
H321 H 0.96574 0.50571 0.35974 0.0
H322 H 0.05301 0.50566 0.34471 0.0
H323 H 0.05379 0.53012 0.35937 0.0
H324 H 0.00941 0.57562 0.35582 0.0
H325 H 0.96583 0.53009 0.34475 0.0
C326 C 0.00975 0.4736 0.35565 0.0
C327 C 0.03426 0.48206 0.35111 0.0
C328 C 0.98503 0.48207 0.35814 0.0
C329 C 0.98493 0.49946 0.35676 0.0
C330 C 0.00949 0.50852 0.35233 0.0
C331 C 0.03399 0.49942 0.34889 0.0
C332 C 0.00974 0.52727 0.35213 0.0
C333 C 0.03446 0.53635 0.35631 0.0
C334 C 0.03429 0.55374 0.35738 0.0
C335 C 0.00944 0.56218 0.35485 0.0
C336 C 0.98476 0.55368 0.35067 0.0
C337 C 0.98504 0.53633 0.34868 0.0
H338 H 7e-05 0.57432 0.66444 0.0
H339 H 0.04368 0.52909 0.67487 0.0
H340 H 0.95513 0.52849 0.66255 0.0
H341 H 0.95608 0.5039 0.67671 0.0
H342 H -0.00132 0.45874 0.66539 0.0
H343 H 0.04322 0.50461 0.66105 0.0
C344 C -3e-05 0.56086 0.66536 0.0
C345 C 0.97491 0.55225 0.66363 0.0
C346 C 0.02473 0.55254 0.66907 0.0
C347 C 0.02438 0.53518 0.67126 0.0
C348 C -0.00051 0.52592 0.66853 0.0
C349 C 0.97467 0.53484 0.66492 0.0
C350 C -0.00044 0.50716 0.66868 0.0
C351 C 0.97503 0.49786 0.6725 0.0
C352 C 0.97465 0.48051 0.67076 0.0
C353 C -0.00107 0.47219 0.66622 0.0
C354 C 0.02369 0.48085 0.66337 0.0
C355 C 0.02398 0.49825 0.6643 0.0
H356 H 0.22301 0.07538 0.50672 0.0
H357 H 0.23397 0.0307 0.5418 0.0
H358 H 0.20987 0.0286 0.47735 0.0
H359 H 0.23435 1.00508 0.47864 0.0
H360 H 0.22913 0.96008 0.51388 0.0
H361 H 0.21132 1.00617 0.54286 0.0
C362 C 0.22269 0.06192 0.5076 0.0
C363 C 0.21618 0.05281 0.49004 0.0
C364 C 0.22865 0.054 0.52628 0.0
C365 C 0.22834 0.03659 0.52736 0.0
C366 C 0.22195 0.02697 0.50972 0.0
C367 C 0.21552 0.0354 0.49107 0.0
C368 C 0.22283 1.0083 0.51065 0.0
C369 C 0.22977 0.99897 0.49309 0.0
C370 C 0.23192 0.98161 0.49422 0.0
C371 C 0.22747 0.97349 0.51295 0.0
C372 C 0.22025 0.98231 0.53041 0.0
C373 C 0.21752 0.99962 0.52924 0.0
H374 H 0.50413 0.77783 0.08322 0.0
H375 H 0.54764 0.7688 0.02773 0.0
H376 H 0.46129 0.78287 0.02552 0.0
H377 H 0.4611 0.76812 0.99678 0.0
H378 H 0.50637 0.76998 0.94065 0.0
H379 H 0.54826 0.7813 0.99712 0.0
C380 C 0.50421 0.77733 0.06656 0.0
C381 C 0.47993 0.78062 0.05544 0.0
C382 C 0.52859 0.77331 0.05657 0.0
C383 C 0.52873 0.77247 0.03506 0.0
C384 C 0.50451 0.77576 0.02333 0.0
C385 C 0.4801 0.77988 0.03388 0.0
C386 C 0.50473 0.77461 1.00029 0.0
C387 C 0.48041 0.77048 0.98903 0.0
C388 C 0.48089 0.76893 0.96755 0.0
C389 C 0.50587 0.77109 0.95725 0.0
C390 C 0.53004 0.77537 0.96794 0.0
C391 C 0.52943 0.77744 0.98929 0.0
H392 H 0.80115 0.07459 0.50983 0.0
H393 H 0.80296 0.02916 0.54411 0.0
H394 H 0.78586 0.02906 0.47835 0.0
H395 H 0.80429 1.00454 0.47907 0.0
H396 H 0.79948 0.95906 0.51299 0.0
H397 H 0.78418 1.00454 0.54402 0.0
C398 C 0.79936 0.06116 0.51028 0.0
C399 C 0.79405 0.0526 0.49208 0.0
C400 C 0.80171 0.05276 0.52906 0.0
C401 C 0.79961 0.03535 0.52951 0.0
C402 C 0.79444 0.02622 0.51125 0.0
C403 C 0.7908 0.03527 0.49261 0.0
C404 C 0.79417 1.00744 0.51151 0.0
C405 C 0.79996 0.99834 0.49347 0.0
C406 C 0.80136 0.98095 0.49399 0.0
C407 C 0.79785 0.97249 0.51255 0.0
C408 C 0.79207 0.98101 0.53053 0.0
C409 C 0.78946 0.99835 0.52995 0.0
H410 H 0.50217 0.27192 0.08192 0.0
H411 H 0.54747 0.26973 0.02606 0.0
H412 H 0.4595 0.2586 0.02641 0.0
H413 H 0.46064 0.26864 0.99481 0.0
H414 H 0.50498 0.25802 0.94012 0.0
H415 H 0.54692 0.25467 0.99827 0.0
C416 C 0.50251 0.26994 0.06545 0.0
C417 C 0.47798 0.26578 0.05507 0.0
C418 C 0.52762 0.27082 0.05512 0.0
C419 C 0.52799 0.26817 0.03384 0.0
C420 C 0.50344 0.26402 0.02283 0.0
C421 C 0.47857 0.26237 0.03397 0.0
C422 C 0.50368 0.26181 0.99988 0.0
C423 C 0.47959 0.26467 0.98781 0.0
C424 C 0.47995 0.26313 0.96634 0.0
C425 C 0.50458 0.25893 0.95673 0.0
C426 C 0.52879 0.25617 0.96818 0.0
C427 C 0.52818 0.25738 0.98969 0.0
C428 C 0.18104 0.36742 0.30221 0.0
C429 C 0.18137 0.3551 0.31765 0.0
C430 C 0.1695 0.38295 0.30581 0.0
C431 C 0.14851 0.41119 0.34734 0.0
H432 H 0.10018 0.42987 0.30535 0.0
C433 C 0.06719 0.46069 0.364 0.0
C434 C 0.05964 0.47214 0.34859 0.0
C435 C 0.08693 0.4486 0.36028 0.0
C436 C 0.11407 0.42506 0.31709 0.0
H437 H 0.17006 0.34959 0.34911 0.0
H438 H 0.14953 0.37664 0.35532 0.0
H439 H 0.12426 0.40411 0.29875 0.0
H440 H 0.06795 0.48063 0.31765 0.0
H441 H 0.10302 0.45956 0.31112 0.0
H442 H 0.13791 0.432 0.36582 0.0
C443 C 0.1585 0.37432 0.34047 0.0
C444 C 0.12782 0.41021 0.31333 0.0
C445 C 0.16997 0.35874 0.33684 0.0
C446 C 0.07357 0.472 0.32981 0.0
C447 C 0.09334 0.45981 0.32603 0.0
C448 C 0.13483 0.42607 0.35108 0.0
C449 C 0.158 0.38659 0.32496 0.0
C450 C 0.14484 0.40294 0.32853 0.0
C451 C 0.0996 0.44763 0.34102 0.0
C452 C 0.11703 0.43305 0.33614 0.0
H453 H 0.18933 0.36499 0.28716 0.0
H454 H 0.16966 0.39214 0.29357 0.0
H455 H 0.16187 0.4061 0.35925 0.0
H456 H 0.05668 0.46054 0.3786 0.0
H457 H 0.09094 0.4394 0.37214 0.0
C458 C 0.18037 0.66648 0.71421 0.0
C459 C 0.17864 0.67919 0.6993 0.0
C460 C 0.16825 0.65094 0.71067 0.0
C461 C 0.14126 0.62351 0.66952 0.0
H462 H 0.09791 0.60383 0.71326 0.0
C463 C 0.05653 0.57435 0.65541 0.0
C464 C 0.05051 0.56257 0.67077 0.0
C465 C 0.07708 0.58636 0.65853 0.0
C466 C 0.11041 0.60892 0.701 0.0
H467 H 0.16315 0.68536 0.66882 0.0
H468 H 0.14167 0.65825 0.66271 0.0
H469 H 0.12352 0.62948 0.71943 0.0
H470 H 0.06238 0.5534 0.70092 0.0
H471 H 0.09887 0.57432 0.70637 0.0
H472 H 0.12774 0.60309 0.65098 0.0
C473 C 0.15266 0.6603 0.67709 0.0
C474 C 0.12503 0.6237 0.70452 0.0
C475 C 0.16469 0.6759 0.68067 0.0
C476 C 0.06673 0.56231 0.68881 0.0
C477 C 0.08735 0.57441 0.69199 0.0
C478 C 0.12672 0.60869 0.66602 0.0
C479 C 0.15414 0.64767 0.69211 0.0
C480 C 0.14023 0.63134 0.68872 0.0
C481 C 0.09215 0.5869 0.67714 0.0
C482 C 0.11066 0.60137 0.6816 0.0
H483 H 0.19066 0.66864 0.72884 0.0
H484 H 0.16996 0.64146 0.7225 0.0
H485 H 0.15318 0.62891 0.65714 0.0
H486 H 0.0443 0.57479 0.64134 0.0
H487 H 0.07994 0.59581 0.64681 0.0
C488 C 0.83082 0.66758 0.30637 0.0
C489 C 0.83199 0.67974 0.32176 0.0
C490 C 0.84291 0.65207 0.30955 0.0
C491 C 0.86846 0.62345 0.35018 0.0
H492 H 0.91338 0.60584 0.30667 0.0
C493 C 0.9525 0.57467 0.36432 0.0
C494 C 0.95908 0.56349 0.34871 0.0
C495 C 0.93213 0.58658 0.36116 0.0
C496 C 0.90044 0.61034 0.31884 0.0
H497 H 0.84649 0.68498 0.35271 0.0
H498 H 0.86789 0.65793 0.35821 0.0
H499 H 0.88801 0.63143 0.30091 0.0
H500 H 0.94842 0.5553 0.31802 0.0
H501 H 0.91222 0.57607 0.31248 0.0
H502 H 0.88126 0.6025 0.36823 0.0
C503 C 0.85737 0.66037 0.34372 0.0
C504 C 0.88597 0.62509 0.31556 0.0
C505 C 0.84538 0.67594 0.34049 0.0
C506 C 0.94361 0.56373 0.33032 0.0
C507 C 0.92316 0.57575 0.3271 0.0
C508 C 0.88284 0.60866 0.35343 0.0
C509 C 0.85642 0.64828 0.32823 0.0
C510 C 0.87021 0.63199 0.33131 0.0
C511 C 0.9178 0.58765 0.34227 0.0
C512 C 0.89947 0.60208 0.33794 0.0
H513 H 0.82097 0.67014 0.29166 0.0
H514 H 0.84162 0.64301 0.29737 0.0
H515 H 0.8561 0.62826 0.3625 0.0
H516 H 0.96419 0.57473 0.37864 0.0
H517 H 0.92885 0.59558 0.37313 0.0
C518 C 0.8453 0.3537 0.66748 0.0
C519 C 0.84131 0.34529 0.68625 0.0
C520 C 0.85454 0.3702 0.66711 0.0
C521 C 0.89235 0.40089 0.69898 0.0
H522 H 0.86713 0.43191 0.65707 0.0
C523 C 0.94033 0.46625 0.69332 0.0
C524 C 0.94931 0.47041 0.67352 0.0
C525 C 0.92162 0.45308 0.6962 0.0
C526 C 0.87437 0.4234 0.66889 0.0
H527 H 0.84386 0.34783 0.7194 0.0
H528 H 0.85935 0.37666 0.71875 0.0
H529 H 0.84568 0.40442 0.65952 0.0
H530 H 0.94507 0.46482 0.64119 0.0
H531 H 0.91223 0.44202 0.64606 0.0
H532 H 0.92146 0.41967 0.70805 0.0
C533 C 0.85563 0.37043 0.70428 0.0
C534 C 0.86216 0.40761 0.67024 0.0
C535 C 0.84643 0.35393 0.70465 0.0
C536 C 0.93799 0.46198 0.65657 0.0
C537 C 0.91922 0.44891 0.6594 0.0
C538 C 0.9045 0.41667 0.69766 0.0
C539 C 0.86002 0.37876 0.68551 0.0
C540 C 0.87134 0.39604 0.68507 0.0
C541 C 0.91162 0.44387 0.67931 0.0
C542 C 0.89603 0.42802 0.68236 0.0
H543 H 0.84125 0.34753 0.65302 0.0
H544 H 0.85799 0.37613 0.65236 0.0
H545 H 0.90025 0.39226 0.71042 0.0
H546 H 0.94919 0.47243 0.70662 0.0
H547 H 0.91592 0.44964 0.71171 0.0
C548 C 0.17824 0.17554 0.3849 0.0
C549 C 0.20292 0.18179 0.37652 0.0
C550 C 0.17739 0.15987 0.39428 0.0
C551 C 0.21539 0.12005 0.39913 0.0
H552 H 0.1758 0.11604 0.45035 0.0
C553 C 0.233 0.06725 0.45864 0.0
C554 C 0.21073 0.06213 0.47081 0.0
C555 C 0.22965 0.07993 0.44402 0.0
C556 C 0.18651 0.11679 0.43586 0.0
H557 H 0.2461 0.17634 0.37145 0.0
H558 H 0.24468 0.14906 0.3879 0.0
H559 H 0.17489 0.14209 0.43134 0.0
H560 H 0.16736 0.06559 0.47687 0.0
H561 H 0.16111 0.08741 0.45088 0.0
H562 H 0.2275 0.09478 0.40398 0.0
C563 C 0.22582 0.15617 0.38692 0.0
C564 C 0.18604 0.13179 0.42495 0.0
C565 C 0.22665 0.17184 0.37751 0.0
C566 C 0.18467 0.06916 0.46736 0.0
C567 C 0.18127 0.08182 0.45271 0.0
C568 C 0.21587 0.105 0.41007 0.0
C569 C 0.20123 0.15002 0.39557 0.0
C570 C 0.20068 0.13369 0.40654 0.0
C571 C 0.20397 0.08781 0.44142 0.0
C572 C 0.20163 0.10322 0.42868 0.0
H573 H 0.15945 0.18273 0.38409 0.0
H574 H 0.15798 0.15544 0.40046 0.0
H575 H 0.22657 0.12098 0.38485 0.0
H576 H 0.25342 0.06224 0.46144 0.0
H577 H 0.24765 0.0843 0.43579 0.0
C578 C 0.30728 0.79053 0.83512 0.0
C579 C 0.30859 0.77983 0.81819 0.0
C580 C 0.32269 0.7873 0.85303 0.0
C581 C 0.38541 0.76566 0.87033 0.0
H582 H 0.3574 0.77302 0.92505 0.0
C583 C 0.45467 0.75349 0.94039 0.0
C584 C 0.45537 0.76601 0.95526 0.0
C585 C 0.43347 0.75294 0.92564 0.0
C586 C 0.36556 0.77098 0.90987 0.0
H587 H 0.32697 0.75725 0.80695 0.0
H588 H 0.3535 0.75152 0.83823 0.0
H589 H 0.32684 0.77671 0.89513 0.0
H590 H 0.43375 0.78715 0.96722 0.0
H591 H 0.39681 0.78642 0.94122 0.0
H592 H 0.42422 0.7604 0.88477 0.0
C593 C 0.34071 0.76248 0.83761 0.0
C594 C 0.34806 0.7731 0.89274 0.0
C595 C 0.32527 0.76568 0.81975 0.0
C596 C 0.43349 0.77729 0.956 0.0
C597 C 0.41237 0.77686 0.94108 0.0
C598 C 0.40287 0.7636 0.88738 0.0
C599 C 0.33986 0.77334 0.85438 0.0
C600 C 0.35785 0.77053 0.87276 0.0
C601 C 0.4127 0.76505 0.92526 0.0
C602 C 0.39324 0.76628 0.90738 0.0
H603 H 0.29438 0.80143 0.83451 0.0
H604 H 0.32174 0.79598 0.86561 0.0
H605 H 0.39379 0.76389 0.85516 0.0
H606 H 0.47125 0.74458 0.93961 0.0
H607 H 0.43398 0.7434 0.91404 0.0
C608 C 0.83425 0.85848 0.38982 0.0
C609 C 0.81001 0.85298 0.37972 0.0
C610 C 0.83521 0.87387 0.39956 0.0
C611 C 0.80009 0.91453 0.40291 0.0
H612 H 0.83431 0.91546 0.45708 0.0
C613 C 0.78497 0.96767 0.46149 0.0
C614 C 0.80659 0.97105 0.47545 0.0
C615 C 0.78742 0.95491 0.44714 0.0
C616 C 0.82514 0.91558 0.44181 0.0
H617 H 0.76781 0.85959 0.37178 0.0
H618 H 0.7695 0.88648 0.38879 0.0
H619 H 0.8344 0.88998 0.43748 0.0
H620 H 0.84817 0.96456 0.4848 0.0
H621 H 0.85306 0.94277 0.45926 0.0
H622 H 0.79055 0.94016 0.40745 0.0
C623 C 0.78789 0.87892 0.38896 0.0
C624 C 0.82513 0.90089 0.43057 0.0
C625 C 0.78693 0.86349 0.37921 0.0
C626 C 0.83134 0.96224 0.47402 0.0
C627 C 0.83392 0.94961 0.45959 0.0
C628 C 0.80018 0.92929 0.41417 0.0
C629 C 0.81195 0.88422 0.39947 0.0
C630 C 0.81252 0.90013 0.41101 0.0
C631 C 0.81159 0.94531 0.44653 0.0
C632 C 0.81265 0.92999 0.43381 0.0
H633 H 0.8526 0.85088 0.39016 0.0
H634 H 0.85424 0.87768 0.40717 0.0
H635 H 0.79044 0.91441 0.3878 0.0
H636 H 0.7655 0.97412 0.46262 0.0
H637 H 0.76973 0.9519 0.43747 0.0
C638 C 0.6884 0.24752 0.82854 0.0
C639 C 0.70762 0.2606 0.82642 0.0
C640 C 0.67313 0.24565 0.84653 0.0
C641 C 0.64908 0.26978 0.89086 0.0
H642 H 0.62714 0.22645 0.91162 0.0
C643 C 0.57819 0.26327 0.96077 0.0
C644 C 0.55488 0.25314 0.95716 0.0
C645 C 0.60083 0.2627 0.94762 0.0
C646 C 0.63315 0.23863 0.90601 0.0
H647 H 0.72601 0.28187 0.84184 0.0
H648 H 0.70013 0.27828 0.87338 0.0
H649 H 0.6592 0.22851 0.883 0.0
H650 H 0.53771 0.23364 0.93802 0.0
H651 H 0.57722 0.23255 0.91516 0.0
H652 H 0.62275 0.27988 0.91366 0.0
C653 C 0.69649 0.26961 0.86099 0.0
C654 C 0.65141 0.23982 0.88955 0.0
C655 C 0.71163 0.27153 0.84296 0.0
C656 C 0.5554 0.24164 0.94107 0.0
C657 C 0.57809 0.24096 0.92806 0.0
C658 C 0.63099 0.26858 0.90738 0.0
C659 C 0.67679 0.25677 0.86292 0.0
C660 C 0.65922 0.25542 0.88152 0.0
C661 C 0.60065 0.25186 0.93077 0.0
C662 C 0.62245 0.253 0.91492 0.0
H663 H 0.68502 0.23872 0.81625 0.0
H664 H 0.65794 0.23572 0.84733 0.0
H665 H 0.65422 0.28199 0.88491 0.0
H666 H 0.57824 0.27231 0.97299 0.0
H667 H 0.61807 0.27112 0.95022 0.0
C668 C 0.2278 0.86344 0.6431 0.0
C669 C 0.20321 0.85417 0.64524 0.0
C670 C 0.22756 0.8791 0.63367 0.0
C671 C 0.18584 0.90478 0.5977 0.0
H672 H 0.23543 0.93998 0.61577 0.0
C673 C 0.18917 0.96751 0.55489 0.0
C674 C 0.21585 0.97283 0.54962 0.0
C675 C 0.18551 0.95502 0.56973 0.0
C676 C 0.22147 0.93027 0.61053 0.0
H677 H 0.15892 0.85442 0.6397 0.0
H678 H 0.15844 0.88177 0.62339 0.0
H679 H 0.23313 0.91401 0.63529 0.0
H680 H 0.2595 0.9699 0.55599 0.0
H681 H 0.25327 0.94828 0.5821 0.0
H682 H 0.17454 0.9209 0.57276 0.0
C683 C 0.17804 0.87679 0.62865 0.0
C684 C 0.22022 0.91535 0.62167 0.0
C685 C 0.1783 0.8611 0.63801 0.0
C686 C 0.23872 0.96618 0.56016 0.0
C687 C 0.23509 0.95378 0.57506 0.0
C688 C 0.18703 0.91971 0.58661 0.0
C689 C 0.2027 0.88596 0.62619 0.0
C690 C 0.20269 0.9023 0.61523 0.0
C691 C 0.2085 0.94764 0.57952 0.0
C692 C 0.20515 0.93255 0.5927 0.0
H693 H 0.2474 0.85839 0.64823 0.0
H694 H 0.24702 0.88564 0.63176 0.0
H695 H 0.17241 0.89496 0.59206 0.0
H696 H 0.1713 0.97228 0.54665 0.0
H697 H 0.16475 0.95069 0.57297 0.0
C698 C 0.68433 0.76812 0.20435 0.0
C699 C 0.70188 0.78208 0.20574 0.0
C700 C 0.66858 0.76523 0.18658 0.0
C701 C 0.66156 0.77617 0.13141 0.0
H702 H 0.58452 0.76475 0.13989 0.0
C703 C 0.57639 0.78124 0.06802 0.0
C704 C 0.55372 0.77031 0.06914 0.0
C705 C 0.59742 0.78066 0.083 0.0
C706 C 0.60609 0.76759 0.13714 0.0
H707 H 0.7173 0.80365 0.18922 0.0
H708 H 0.68945 0.79872 0.15823 0.0
H709 H 0.6154 0.76772 0.16933 0.0
H710 H 0.53606 0.74942 0.0856 0.0
H711 H 0.57321 0.74789 0.11125 0.0
H712 H 0.65204 0.77618 0.09913 0.0
C713 C 0.68804 0.78996 0.17089 0.0
C714 C 0.6238 0.76935 0.15409 0.0
C715 C 0.70375 0.79289 0.18873 0.0
C716 C 0.55335 0.75802 0.08452 0.0
C717 C 0.57447 0.75729 0.0993 0.0
C718 C 0.64381 0.77431 0.11437 0.0
C719 C 0.67001 0.77621 0.16972 0.0
C720 C 0.65169 0.77375 0.15146 0.0
C721 C 0.59618 0.76903 0.09925 0.0
C722 C 0.61579 0.77007 0.11705 0.0
H723 H 0.6822 0.75962 0.21722 0.0
H724 H 0.65509 0.75443 0.18609 0.0
H725 H 0.68303 0.77942 0.12888 0.0
H726 H 0.5769 0.79092 0.05638 0.0
H727 H 0.61371 0.78995 0.08251 0.0
C728 C 0.76856 0.15812 0.65904 0.0
C729 C 0.78777 0.17135 0.65903 0.0
C730 C 0.7722 0.14436 0.64643 0.0
C731 C 0.80747 0.13113 0.59944 0.0
H732 H 0.79151 0.08674 0.61977 0.0
C733 C 0.8269 0.07473 0.54884 0.0
C734 C 0.80573 0.06271 0.54795 0.0
C735 C 0.82731 0.08669 0.56426 0.0
C736 C 0.79588 0.09905 0.61381 0.0
H737 H 0.82601 0.18034 0.64574 0.0
H738 H 0.83226 0.15638 0.62364 0.0
H739 H 0.78661 0.11048 0.64251 0.0
H740 H 0.76925 0.05317 0.56305 0.0
H741 H 0.76969 0.0742 0.58999 0.0
H742 H 0.81623 0.11987 0.57068 0.0
C743 C 0.81422 0.15674 0.63329 0.0
C744 C 0.79305 0.11267 0.62684 0.0
C745 C 0.8106 0.1705 0.64594 0.0
C746 C 0.78595 0.06221 0.56354 0.0
C747 C 0.78621 0.0743 0.57893 0.0
C748 C 0.81023 0.11756 0.58642 0.0
C749 C 0.79509 0.14347 0.63342 0.0
C750 C 0.79873 0.12889 0.61979 0.0
C751 C 0.80637 0.08704 0.57904 0.0
C752 C 0.80444 0.10132 0.5934 0.0
H753 H 0.75046 0.15847 0.66863 0.0
H754 H 0.75679 0.13453 0.64664 0.0
H755 H 0.81155 0.14345 0.59337 0.0
H756 H 0.84247 0.07532 0.53703 0.0
H757 H 0.84357 0.09602 0.56416 0.0
C758 C 0.31098 0.23551 0.18908 0.0
C759 C 0.30746 0.24864 0.20289 0.0
C760 C 0.32627 0.23783 0.17115 0.0
C761 C 0.38088 0.2649 0.14994 0.0
H762 H 0.36039 0.24485 0.09786 0.0
C763 C 0.44442 0.27868 0.07858 0.0
C764 C 0.45212 0.26494 0.06693 0.0
C765 C 0.42345 0.27723 0.093 0.0
C766 C 0.36644 0.25044 0.11233 0.0
H767 H 0.31709 0.27458 0.20847 0.0
H768 H 0.34309 0.2787 0.17708 0.0
H769 H 0.33028 0.24122 0.12755 0.0
H770 H 0.44311 0.23919 0.06028 0.0
H771 H 0.4064 0.23652 0.0858 0.0
H772 H 0.41709 0.27395 0.135 0.0
C773 C 0.33435 0.26654 0.18022 0.0
C774 C 0.34923 0.24835 0.12934 0.0
C775 C 0.31913 0.26422 0.19812 0.0
C776 C 0.43733 0.24998 0.06902 0.0
C777 C 0.41638 0.24847 0.08362 0.0
C778 C 0.39799 0.26699 0.13301 0.0
C779 C 0.33842 0.25332 0.16664 0.0
C780 C 0.35626 0.25559 0.14834 0.0
C781 C 0.40991 0.26195 0.09628 0.0
C782 C 0.39098 0.25985 0.11397 0.0
H783 H 0.30198 0.2234 0.19213 0.0
H784 H 0.32917 0.22735 0.16111 0.0
H785 H 0.3873 0.27032 0.16443 0.0
H786 H 0.45545 0.29038 0.07711 0.0
H787 H 0.41851 0.28797 0.10211 0.0
C788 C 0.84025 0.67757 0.67287 0.0
C789 C 0.82726 0.67895 0.69198 0.0
C790 C 0.85175 0.66252 0.66685 0.0
C791 C 0.8529 0.61714 0.67877 0.0
H792 H 0.9255 0.61977 0.65445 0.0
C793 C 0.93045 0.56262 0.67754 0.0
C794 C 0.94934 0.5621 0.66138 0.0
C795 C 0.91101 0.57538 0.67839 0.0
C796 C 0.90499 0.61874 0.66084 0.0
H797 H 0.81516 0.66525 0.71932 0.0
H798 H 0.83579 0.63922 0.70909 0.0
H799 H 0.90073 0.64509 0.66148 0.0
H800 H 0.96138 0.57351 0.63263 0.0
H801 H 0.92689 0.59539 0.63363 0.0
H802 H 0.85764 0.5907 0.67858 0.0
C803 C 0.83692 0.64972 0.69864 0.0
C804 C 0.89075 0.63333 0.66491 0.0
C805 C 0.82541 0.66475 0.70464 0.0
C806 C 0.94696 0.57366 0.64522 0.0
C807 C 0.92745 0.5863 0.64596 0.0
C808 C 0.86719 0.6025 0.6747 0.0
C809 C 0.85054 0.64844 0.67977 0.0
C810 C 0.86465 0.63276 0.67414 0.0
C811 C 0.91011 0.5878 0.66303 0.0
C812 C 0.89355 0.60312 0.66585 0.0
H813 H 0.8422 0.68824 0.66276 0.0
H814 H 0.86177 0.66195 0.65209 0.0
H815 H 0.83266 0.61622 0.68563 0.0
H816 H 0.93218 0.55398 0.69033 0.0
H817 H 0.89809 0.57616 0.6918 0.0
C818 C 0.84275 0.35758 0.35532 0.0
C819 C 0.8278 0.35618 0.33673 0.0
C820 C 0.85598 0.37251 0.36058 0.0
C821 C 0.85882 0.41764 0.34793 0.0
H822 H 0.93366 0.41449 0.36944 0.0
C823 C 0.93887 0.4717 0.34596 0.0
C824 C 0.95952 0.47212 0.36129 0.0
C825 C 0.91885 0.45901 0.3459 0.0
C826 C 0.91258 0.41568 0.36385 0.0
H827 H 0.81518 0.36947 0.30908 0.0
H828 H 0.83819 0.3954 0.31823 0.0
H829 H 0.90676 0.38935 0.36365 0.0
H830 H 0.97426 0.4606 0.38945 0.0
H831 H 0.93881 0.43885 0.38986 0.0
H832 H 0.86499 0.44403 0.34774 0.0
C833 C 0.83929 0.38506 0.32895 0.0
C834 C 0.89714 0.4012 0.36048 0.0
C835 C 0.82609 0.37016 0.32369 0.0
C836 C 0.95849 0.46051 0.37747 0.0
C837 C 0.93841 0.44795 0.37753 0.0
C838 C 0.8743 0.43217 0.35133 0.0
C839 C 0.85461 0.3864 0.34738 0.0
C840 C 0.87018 0.40196 0.35226 0.0
C841 C 0.91912 0.44657 0.36124 0.0
C842 C 0.9015 0.43136 0.35916 0.0
H843 H 0.84416 0.34715 0.36587 0.0
H844 H 0.86728 0.37316 0.37503 0.0
H845 H 0.83797 0.41869 0.34183 0.0
H846 H 0.9395 0.48039 0.33318 0.0
H847 H 0.90442 0.45832 0.33307 0.0
C848 C 0.1473 0.3553 0.68435 0.0
C849 C 0.17618 0.35409 0.68297 0.0
C850 C 0.13392 0.37012 0.67935 0.0
C851 C 0.14621 0.41538 0.67409 0.0
H852 H 0.07363 0.41396 0.64824 0.0
C853 C 0.06864 0.46968 0.67625 0.0
C854 C 0.04901 0.47108 0.66029 0.0
C855 C 0.08811 0.45692 0.67613 0.0
C856 C 0.09409 0.4147 0.65514 0.0
H857 H 0.21356 0.36748 0.6747 0.0
H858 H 0.19017 0.39333 0.66579 0.0
H859 H 0.09919 0.38845 0.65311 0.0
H860 H 0.03545 0.46122 0.63102 0.0
H861 H 0.07016 0.43944 0.63022 0.0
H862 H 0.14108 0.44171 0.67596 0.0
C863 C 0.17791 0.38287 0.6711 0.0
C864 C 0.1086 0.39997 0.65824 0.0
C865 C 0.19131 0.36804 0.67616 0.0
C866 C 0.05053 0.4604 0.64344 0.0
C867 C 0.07015 0.44779 0.64317 0.0
C868 C 0.1317 0.43017 0.67091 0.0
C869 C 0.14904 0.38414 0.67275 0.0
C870 C 0.13464 0.40005 0.66807 0.0
C871 C 0.08836 0.44539 0.65997 0.0
C872 C 0.10526 0.43001 0.66164 0.0
H873 H 0.13505 0.34492 0.6899 0.0
H874 H 0.11174 0.37069 0.6812 0.0
H875 H 0.16614 0.41593 0.68183 0.0
H876 H 0.06752 0.47761 0.68957 0.0
H877 H 0.10163 0.45544 0.6894 0.0
C878 C 0.17859 0.67515 0.33565 0.0
C879 C 0.17501 0.68738 0.35068 0.0
C880 C 0.1675 0.65916 0.33827 0.0
C881 C 0.11278 0.63687 0.36698 0.0
H882 H 0.14925 0.5974 0.34769 0.0
C883 C 0.06177 0.57355 0.3786 0.0
C884 C 0.05961 0.56378 0.3609 0.0
C885 C 0.08044 0.58685 0.37948 0.0
C886 C 0.13881 0.60832 0.35312 0.0
H887 H 0.15709 0.69214 0.38044 0.0
H888 H 0.13865 0.66427 0.38528 0.0
H889 H 0.17254 0.6244 0.34492 0.0
H890 H 0.07618 0.55956 0.33072 0.0
H891 H 0.10898 0.58288 0.33215 0.0
H892 H 0.07896 0.62098 0.37493 0.0
C893 C 0.14962 0.66709 0.37126 0.0
C894 C 0.15209 0.62381 0.35147 0.0
C895 C 0.16056 0.68307 0.3686 0.0
C896 C 0.07789 0.56675 0.34468 0.0
C897 C 0.09654 0.58016 0.34549 0.0
C898 C 0.09961 0.62145 0.3687 0.0
C899 C 0.15259 0.65497 0.35602 0.0
C900 C 0.13917 0.63831 0.35831 0.0
C901 C 0.09711 0.59081 0.36254 0.0
C902 C 0.11237 0.60696 0.36175 0.0
H903 H 0.18994 0.67791 0.32178 0.0
H904 H 0.17003 0.65023 0.32612 0.0
H905 H 0.10184 0.64776 0.37197 0.0
H906 H 0.04766 0.57157 0.3912 0.0
H907 H 0.08076 0.59459 0.39302 0.0
C908 C 0.76089 0.85986 0.64081 0.0
C909 C 0.78625 0.85156 0.64286 0.0
C910 C 0.75973 0.8758 0.63214 0.0
C911 C 0.8032 0.91263 0.61955 0.0
H912 H 0.74645 0.92147 0.57839 0.0
C913 C 0.8138 0.96334 0.55751 0.0
C914 C 0.79011 0.97127 0.54981 0.0
C915 C 0.81165 0.95098 0.57258 0.0
C916 C 0.7621 0.91939 0.59016 0.0
H917 H 0.83036 0.85374 0.63785 0.0
H918 H 0.82831 0.88139 0.6225 0.0
H919 H 0.74592 0.89521 0.5972 0.0
H920 H 0.74572 0.97309 0.55222 0.0
H921 H 0.7418 0.95154 0.57896 0.0
H922 H 0.81976 0.93665 0.61217 0.0
C923 C 0.80931 0.87564 0.62772 0.0
C924 C 0.76184 0.90428 0.60091 0.0
C925 C 0.81045 0.85969 0.63629 0.0
C926 C 0.7643 0.96728 0.55818 0.0
C927 C 0.76208 0.95481 0.57326 0.0
C928 C 0.80343 0.92775 0.60883 0.0
C929 C 0.78393 0.88387 0.62543 0.0
C930 C 0.78273 0.90056 0.61542 0.0
C931 C 0.78567 0.94617 0.58019 0.0
C932 C 0.78324 0.93118 0.59367 0.0
H933 H 0.74182 0.85391 0.64557 0.0
H934 H 0.73987 0.88182 0.63074 0.0
H935 H 0.81929 0.91031 0.63091 0.0
H936 H 0.83386 0.96606 0.55099 0.0
H937 H 0.83022 0.9445 0.57729 0.0
C938 C 0.69805 0.24896 0.18937 0.0
C939 C 0.697 0.25998 0.20599 0.0
C940 C 0.68335 0.25222 0.17115 0.0
C941 C 0.62252 0.27508 0.15245 0.0
H942 H 0.65058 0.26523 0.09838 0.0
C943 C 0.55493 0.28666 0.08136 0.0
C944 C 0.55333 0.27358 0.06727 0.0
C945 C 0.57607 0.28721 0.09615 0.0
C946 C 0.64242 0.26798 0.11338 0.0
H947 H 0.67997 0.28323 0.21629 0.0
H948 H 0.65475 0.28906 0.18445 0.0
H949 H 0.6805 0.26172 0.12868 0.0
H950 H 0.57341 0.25141 0.05669 0.0
H951 H 0.61026 0.25217 0.08276 0.0
H952 H 0.58431 0.2809 0.13745 0.0
C953 C 0.66673 0.27779 0.18557 0.0
C954 C 0.65954 0.26596 0.13073 0.0
C955 C 0.68144 0.27454 0.20376 0.0
C956 C 0.57436 0.2617 0.0673 0.0
C957 C 0.59543 0.26215 0.08226 0.0
C958 C 0.60544 0.27706 0.13518 0.0
C959 C 0.66719 0.26657 0.16915 0.0
C960 C 0.64971 0.2694 0.15048 0.0
C961 C 0.5959 0.27457 0.09736 0.0
C962 C 0.61507 0.27347 0.11541 0.0
H963 H 0.71012 0.23773 0.19049 0.0
H964 H 0.68399 0.24326 0.15887 0.0
H965 H 0.61407 0.27752 0.16744 0.0
H966 H 0.53903 0.29604 0.08154 0.0
H967 H 0.57622 0.2972 0.10719 0.0
C968 C 0.21246 0.17064 0.64237 0.0
C969 C 0.23106 0.18364 0.63784 0.0
C970 C 0.21478 0.15521 0.63279 0.0
C971 C 0.24419 0.13647 0.58624 0.0
H972 H 0.22796 0.09466 0.61366 0.0
C973 C 0.25744 0.07569 0.54342 0.0
C974 C 0.23507 0.06452 0.54429 0.0
C975 C 0.25983 0.08863 0.55748 0.0
C976 C 0.23246 0.10625 0.60579 0.0
H977 H 0.26749 0.19034 0.6205 0.0
H978 H 0.27178 0.16348 0.60405 0.0
H979 H 0.22632 0.12058 0.63297 0.0
H980 H 0.19849 0.05745 0.56111 0.0
H981 H 0.20248 0.08021 0.5858 0.0
H982 H 0.25001 0.12233 0.55908 0.0
C983 C 0.25492 0.16528 0.61455 0.0
C984 C 0.23145 0.12111 0.61683 0.0
C985 C 0.2525 0.1807 0.62401 0.0
C986 C 0.21612 0.0658 0.56034 0.0
C987 C 0.2184 0.07887 0.57441 0.0
C988 C 0.24527 0.12168 0.57529 0.0
C989 C 0.23584 0.1524 0.61854 0.0
C990 C 0.23732 0.13643 0.60717 0.0
C991 C 0.23969 0.09082 0.5726 0.0
C992 C 0.23946 0.10636 0.58487 0.0
H993 H 0.1956 0.17255 0.65286 0.0
H994 H 0.19953 0.14566 0.63609 0.0
H995 H 0.24816 0.148 0.57812 0.0
H996 H 0.27224 0.07495 0.53111 0.0
H997 H 0.27684 0.09737 0.55594 0.0
C998 C 0.32427 0.78637 0.1997 0.0
C999 C 0.30445 0.7735 0.19978 0.0
C1000 C 0.34014 0.78953 0.18228 0.0
C1001 C 0.34538 0.78096 0.12631 0.0
H1002 H 0.42346 0.78883 0.13668 0.0
C1003 C 0.43119 0.77384 0.06526 0.0
C1004 C 0.45454 0.78424 0.06698 0.0
C1005 C 0.40988 0.77484 0.07958 0.0
C1006 C 0.40164 0.78695 0.13344 0.0
H1007 H 0.28502 0.75433 0.18118 0.0
H1008 H 0.31324 0.75955 0.15102 0.0
H1009 H 0.39227 0.78608 0.1654 0.0
H1010 H 0.47297 0.80472 0.08372 0.0
H1011 H 0.43557 0.80681 0.10831 0.0
H1012 H 0.35513 0.78145 0.09423 0.0
C1013 C 0.31632 0.76732 0.16436 0.0
C1014 C 0.3837 0.78537 0.14997 0.0
C1015 C 0.30038 0.76418 0.18178 0.0
C1016 C 0.45524 0.79649 0.08219 0.0
C1017 C 0.43395 0.79757 0.09636 0.0
C1018 C 0.36341 0.78253 0.10971 0.0
C1019 C 0.33671 0.77987 0.16451 0.0
C1020 C 0.35536 0.78228 0.14666 0.0
C1021 C 0.41158 0.7863 0.09577 0.0
C1022 C 0.39179 0.7855 0.1131 0.0
H1023 H 0.32816 0.79372 0.21331 0.0
H1024 H 0.35537 0.79946 0.18284 0.0
H1025 H 0.32361 0.77875 0.12321 0.0
H1026 H 0.43033 0.7642 0.05375 0.0
H1027 H 0.393 0.76594 0.07871 0.0
C1028 C 0.81217 0.17387 0.38652 0.0
C1029 C 0.78803 0.18132 0.37869 0.0
C1030 C 0.81132 0.15785 0.39492 0.0
C1031 C 0.76365 0.12777 0.419 0.0
H1032 H 0.82438 0.09742 0.41167 0.0
C1033 C 0.76749 0.06511 0.46257 0.0
C1034 C 0.7928 0.06232 0.47272 0.0
C1035 C 0.76547 0.07738 0.44722 0.0
C1036 C 0.80725 0.10574 0.41388 0.0
H1037 H 0.74403 0.17765 0.3735 0.0
H1038 H 0.7426 0.14961 0.38799 0.0
H1039 H 0.82353 0.12359 0.39257 0.0
H1040 H 0.836 0.06941 0.47433 0.0
H1041 H 0.83271 0.0906 0.44754 0.0
H1042 H 0.74779 0.11017 0.44076 0.0
C1043 C 0.76218 0.15623 0.38773 0.0
C1044 C 0.8068 0.12077 0.40298 0.0
C1045 C 0.76306 0.17225 0.37924 0.0
C1046 C 0.81634 0.07123 0.4665 0.0
C1047 C 0.8144 0.08336 0.45113 0.0
C1048 C 0.76411 0.11274 0.42993 0.0
C1049 C 0.78629 0.14886 0.39577 0.0
C1050 C 0.78532 0.13215 0.40574 0.0
C1051 C 0.78879 0.08697 0.44173 0.0
C1052 C 0.78624 0.10171 0.42786 0.0
H1053 H 0.83181 0.18042 0.38614 0.0
H1054 H 0.83023 0.15267 0.40119 0.0
H1055 H 0.74692 0.13629 0.42167 0.0
H1056 H 0.74902 0.05851 0.46734 0.0
H1057 H 0.7455 0.07974 0.44014 0.0
C1058 C 0.33012 0.26911 0.81821 0.0
C1059 C 0.30912 0.25704 0.81625 0.0
C1060 C 0.34404 0.27135 0.83696 0.0
C1061 C 0.36092 0.24909 0.88522 0.0
H1062 H 0.38784 0.29239 0.90222 0.0
C1063 C 0.43042 0.25684 0.95728 0.0
C1064 C 0.45483 0.26586 0.95352 0.0
C1065 C 0.40837 0.25736 0.94313 0.0
C1066 C 0.38042 0.28022 0.89769 0.0
H1067 H 0.28552 0.23831 0.83268 0.0
H1068 H 0.30965 0.2423 0.86547 0.0
H1069 H 0.35712 0.2901 0.8723 0.0
H1070 H 0.47472 0.28333 0.93288 0.0
H1071 H 0.43634 0.28432 0.90827 0.0
H1072 H 0.38468 0.23919 0.91036 0.0
C1073 C 0.31575 0.24983 0.8524 0.0
C1074 C 0.36291 0.27889 0.8805 0.0
C1075 C 0.3019 0.24754 0.83361 0.0
C1076 C 0.45616 0.27618 0.93606 0.0
C1077 C 0.4341 0.27682 0.92205 0.0
C1078 C 0.37833 0.25043 0.90246 0.0
C1079 C 0.33722 0.26163 0.85425 0.0
C1080 C 0.35344 0.26327 0.87377 0.0
C1081 C 0.41026 0.26706 0.92511 0.0
C1082 C 0.38877 0.26597 0.90862 0.0
H1083 H 0.33645 0.27648 0.80507 0.0
H1084 H 0.36078 0.28035 0.83768 0.0
H1085 H 0.35435 0.23684 0.88036 0.0
H1086 H 0.42895 0.24875 0.9706 0.0
H1087 H 0.39014 0.24982 0.94599 0.0
C1088 C 0.26735 0.86271 0.38327 0.0
C1089 C 0.24607 0.85956 0.36886 0.0
C1090 C 0.26687 0.87685 0.39555 0.0
C1091 C 0.23711 0.91884 0.39894 0.0
H1092 H 0.25659 0.91437 0.45665 0.0
C1093 C 0.21963 0.97051 0.4594 0.0
C1094 C 0.23827 0.9714 0.47607 0.0
C1095 C 0.22221 0.95805 0.44464 0.0
C1096 C 0.25157 0.91596 0.4405 0.0
H1097 H 0.20768 0.86897 0.35597 0.0
H1098 H 0.20669 0.89361 0.37761 0.0
H1099 H 0.25723 0.89013 0.43472 0.0
H1100 H 0.27523 0.96089 0.48972 0.0
H1101 H 0.28049 0.93962 0.46365 0.0
H1102 H 0.23142 0.94472 0.40479 0.0
C1103 C 0.22386 0.88515 0.37929 0.0
C1104 C 0.25184 0.902 0.42792 0.0
C1105 C 0.22426 0.87093 0.36706 0.0
C1106 C 0.26058 0.96041 0.477 0.0
C1107 C 0.26334 0.94811 0.4622 0.0
C1108 C 0.23696 0.93287 0.41153 0.0
C1109 C 0.24515 0.88827 0.3937 0.0
C1110 C 0.24466 0.90324 0.40698 0.0
C1111 C 0.24359 0.94633 0.44627 0.0
C1112 C 0.24427 0.93162 0.43249 0.0
H1113 H 0.28435 0.85415 0.38517 0.0
H1114 H 0.28373 0.87894 0.40637 0.0
H1115 H 0.23174 0.92025 0.38281 0.0
H1116 H 0.20206 0.97873 0.45853 0.0
H1117 H 0.20656 0.95704 0.43266 0.0
C1118 C 0.68353 0.80191 0.82466 0.0
C1119 C 0.69554 0.78744 0.81695 0.0
C1120 C 0.66899 0.8015 0.84307 0.0
C1121 C 0.65686 0.77599 0.89013 0.0
H1122 H 0.5892 0.80129 0.89224 0.0
C1123 C 0.56965 0.76412 0.94867 0.0
C1124 C 0.55558 0.77789 0.95617 0.0
C1125 C 0.59034 0.76622 0.93406 0.0
C1126 C 0.60828 0.79437 0.89206 0.0
H1127 H 0.70206 0.76124 0.82294 0.0
H1128 H 0.67587 0.76041 0.85466 0.0
H1129 H 0.61765 0.80291 0.86176 0.0
H1130 H 0.5522 0.8046 0.95494 0.0
H1131 H 0.58855 0.80839 0.92935 0.0
H1132 H 0.64677 0.76704 0.92028 0.0
C1133 C 0.6781 0.77216 0.84664 0.0
C1134 C 0.62464 0.79529 0.87455 0.0
C1135 C 0.69281 0.77258 0.82826 0.0
C1136 C 0.56315 0.79386 0.94952 0.0
C1137 C 0.58369 0.79597 0.93476 0.0
C1138 C 0.64035 0.77498 0.90762 0.0
C1139 C 0.66583 0.7866 0.85422 0.0
C1140 C 0.64907 0.78604 0.87328 0.0
C1141 C 0.59699 0.78214 0.92647 0.0
C1142 C 0.61579 0.78409 0.90871 0.0
H1143 H 0.68487 0.81354 0.81628 0.0
H1144 H 0.66016 0.81292 0.84854 0.0
H1145 H 0.67574 0.76889 0.88984 0.0
H1146 H 0.56372 0.75169 0.95341 0.0
H1147 H 0.59998 0.75532 0.92783 0.0
loop_
_geom_bond_atom_site_label_1
_geom_bond_atom_site_label_2
_geom_bond_distance
_geom_bond_site_symmetry_2
_ccdc_geom_bond_type
C0 C1 1.264 . S
C0 C5 1.479 . S
C0 C10 1.465 . S
C1 C0 1.264 . S
C1 C3 1.339 . S
C1 H28 0.931 . S
C2 C3 1.395 . S
C2 C4 1.320 . S
C3 C1 1.339 . S
C3 C2 1.395 . S
C3 H29 0.929 . S
C4 C2 1.320 . S
C4 C5 1.405 . S
C4 H30 0.930 . S
C5 C0 1.479 . S
C5 C4 1.405 . S
C5 H31 0.931 . S
U6 O7 2.454 . S
U6 O8 2.458 . S
U6 C9 2.984 . S
U6 C10 2.847 . S
U6 C23 2.882 . S
U6 O24 2.441 . S
U6 O25 2.420 . S
U6 O26 2.455 . S
U6 O27 2.449 . S
O7 U6 2.454 . S
O7 C9 1.353 . S
O8 U6 2.458 . S
O8 C9 1.286 . S
C9 U6 2.984 . S
C9 O7 1.353 . S
C9 O8 1.286 . S
C9 C11 1.363 . S
C10 C0 1.465 . S
C10 U6 2.847 . S
C10 O24 1.249 . S
C10 O25 1.202 . S
C11 C9 1.363 . S
C11 C13 1.408 . S
C11 C16 1.342 . S
C12 C13 1.310 . S
C12 C15 1.461 . S
C12 H32 0.932 . S
C13 C11 1.408 . S
C13 C12 1.310 . S
C13 H33 0.930 . S
C14 C15 1.474 . S
C14 C16 1.285 . S
C14 H34 0.929 . S
C15 C12 1.461 . S
C15 C14 1.474 . S
C16 C11 1.342 . S
C16 C14 1.285 . S
C16 H35 0.930 . S
C17 C20 1.424 . S
C17 C22 1.245 . S
C17 C23 1.428 . S
C18 C21 1.260 . S
C18 C22 1.477 . S
C18 H36 0.932 . S
C19 C20 1.384 . S
C19 C21 1.479 . S
C19 H37 0.929 . S
C20 C17 1.424 . S
C20 C19 1.384 . S
C20 H38 0.928 . S
C21 C18 1.260 . S
C21 C19 1.479 . S
C22 C17 1.245 . S
C22 C18 1.477 . S
C22 H39 0.932 . S
C23 U6 2.882 . S
C23 C17 1.428 . S
C23 O26 1.301 . S
C23 O27 1.282 . S
O24 U6 2.441 . S
O24 C10 1.249 . S
O25 U6 2.420 . S
O25 C10 1.202 . S
O26 U6 2.455 . S
O26 C23 1.301 . S
O27 U6 2.449 . S
O27 C23 1.282 . S
H28 C1 0.931 . S
H29 C3 0.929 . S
H30 C4 0.930 . S
H31 C5 0.931 . S
H32 C12 0.932 . S
H33 C13 0.930 . S
H34 C14 0.929 . S
H35 C16 0.930 . S
H36 C18 0.932 . S
H37 C19 0.929 . S
H38 C20 0.928 . S
H39 C22 0.932 . S
C40 C41 1.264 . S
C40 C45 1.479 . S
C40 C50 1.465 . S
C41 C40 1.264 . S
C41 C43 1.339 . S
C41 H68 0.931 . S
C42 C43 1.395 . S
C42 C44 1.320 . S
C43 C41 1.339 . S
C43 C42 1.395 . S
C43 H69 0.929 . S
C44 C42 1.320 . S
C44 C45 1.405 . S
C44 H70 0.930 . S
C45 C40 1.479 . S
C45 C44 1.405 . S
C45 H71 0.931 . S
U46 O47 2.454 . S
U46 O48 2.458 . S
U46 C49 2.984 . S
U46 C50 2.847 . S
U46 C63 2.882 . S
U46 O64 2.441 . S
U46 O65 2.420 . S
U46 O66 2.455 . S
U46 O67 2.449 . S
O47 U46 2.454 . S
O47 C49 1.353 . S
O48 U46 2.458 . S
O48 C49 1.286 . S
C49 U46 2.984 . S
C49 O47 1.353 . S
C49 O48 1.286 . S
C49 C51 1.363 . S
C50 C40 1.465 . S
C50 U46 2.847 . S
C50 O64 1.249 . S
C50 O65 1.202 . S
C51 C49 1.363 . S
C51 C53 1.408 . S
C51 C56 1.342 . S
C52 C53 1.310 . S
C52 C55 1.461 . S
C52 H72 0.932 . S
C53 C51 1.408 . S
C53 C52 1.310 . S
C53 H73 0.930 . S
C54 C55 1.474 . S
C54 C56 1.285 . S
C54 H74 0.929 . S
C55 C52 1.461 . S
C55 C54 1.474 . S
C56 C51 1.342 . S
C56 C54 1.285 . S
C56 H75 0.930 . S
C57 C60 1.424 . S
C57 C62 1.245 . S
C57 C63 1.428 . S
C58 C61 1.260 . S
C58 C62 1.477 . S
C58 H76 0.932 . S
C59 C60 1.384 . S
C59 C61 1.479 . S
C59 H77 0.929 . S
C60 C57 1.424 . S
C60 C59 1.384 . S
C60 H78 0.928 . S
C61 C58 1.260 . S
C61 C59 1.479 . S
C62 C57 1.245 . S
C62 C58 1.477 . S
C62 H79 0.932 . S
C63 U46 2.882 . S
C63 C57 1.428 . S
C63 O66 1.301 . S
C63 O67 1.282 . S
O64 U46 2.441 . S
O64 C50 1.249 . S
O65 U46 2.420 . S
O65 C50 1.202 . S
O66 U46 2.455 . S
O66 C63 1.301 . S
O67 U46 2.449 . S
O67 C63 1.282 . S
H68 C41 0.931 . S
H69 C43 0.929 . S
H70 C44 0.930 . S
H71 C45 0.931 . S
H72 C52 0.932 . S
H73 C53 0.930 . S
H74 C54 0.929 . S
H75 C56 0.930 . S
H76 C58 0.932 . S
H77 C59 0.929 . S
H78 C60 0.928 . S
H79 C62 0.932 . S
C80 C81 1.264 . S
C80 C85 1.479 . S
C80 C90 1.465 . S
C81 C80 1.264 . S
C81 C83 1.339 . S
C81 H108 0.931 . S
C82 C83 1.395 . S
C82 C84 1.320 . S
C83 C81 1.339 . S
C83 C82 1.395 . S
C83 H109 0.929 . S
C84 C82 1.320 . S
C84 C85 1.405 . S
C84 H110 0.930 . S
C85 C80 1.479 . S
C85 C84 1.405 . S
C85 H111 0.931 . S
U86 O87 2.454 . S
U86 O88 2.458 . S
U86 C89 2.984 . S
U86 C90 2.847 . S
U86 C103 2.882 . S
U86 O104 2.441 . S
U86 O105 2.420 . S
U86 O106 2.455 . S
U86 O107 2.449 . S
O87 U86 2.454 . S
O87 C89 1.353 . S
O88 U86 2.458 . S
O88 C89 1.286 . S
C89 U86 2.984 . S
C89 O87 1.353 . S
C89 O88 1.286 . S
C89 C91 1.363 . S
C90 C80 1.465 . S
C90 U86 2.847 . S
C90 O104 1.249 . S
C90 O105 1.202 . S
C91 C89 1.363 . S
C91 C93 1.408 . S
C91 C96 1.342 . S
C92 C93 1.310 . S
C92 C95 1.461 . S
C92 H112 0.932 . S
C93 C91 1.408 . S
C93 C92 1.310 . S
C93 H113 0.930 . S
C94 C95 1.474 . S
C94 C96 1.285 . S
C94 H114 0.929 . S
C95 C92 1.461 . S
C95 C94 1.474 . S
C96 C91 1.342 . S
C96 C94 1.285 . S
C96 H115 0.930 . S
C97 C100 1.424 . S
C97 C102 1.245 . S
C97 C103 1.428 . S
C98 C101 1.260 . S
C98 C102 1.477 . S
C98 H116 0.932 . S
C99 C100 1.384 . S
C99 C101 1.479 . S
C99 H117 0.929 . S
C100 C97 1.424 . S
C100 C99 1.384 . S
C100 H118 0.928 . S
C101 C98 1.260 . S
C101 C99 1.479 . S
C102 C97 1.245 . S
C102 C98 1.477 . S
C102 H119 0.932 . S
C103 U86 2.882 . S
C103 C97 1.428 . S
C103 O106 1.301 . S
C103 O107 1.282 . S
O104 U86 2.441 . S
O104 C90 1.249 . S
O105 U86 2.420 . S
O105 C90 1.202 . S
O106 U86 2.455 . S
O106 C103 1.301 . S
O107 U86 2.449 . S
O107 C103 1.282 . S
H108 C81 0.931 . S
H109 C83 0.929 . S
H110 C84 0.930 . S
H111 C85 0.931 . S
H112 C92 0.932 . S
H113 C93 0.930 . S
H114 C94 0.929 . S
H115 C96 0.930 . S
H116 C98 0.932 . S
H117 C99 0.929 . S
H118 C100 0.928 . S
H119 C102 0.932 . S
C120 C121 1.264 . S
C120 C125 1.479 . S
C120 C130 1.465 . S
C121 C120 1.264 . S
C121 C123 1.339 . S
C121 H148 0.931 . S
C122 C123 1.395 . S
C122 C124 1.320 . S
C123 C121 1.339 . S
C123 C122 1.395 . S
C123 H149 0.929 . S
C124 C122 1.320 . S
C124 C125 1.405 . S
C124 H150 0.930 . S
C125 C120 1.479 . S
C125 C124 1.405 . S
C125 H151 0.931 . S
U126 O127 2.454 . S
U126 O128 2.458 . S
U126 C129 2.984 . S
U126 C130 2.847 . S
U126 C143 2.882 . S
U126 O144 2.441 . S
U126 O145 2.420 . S
U126 O146 2.455 . S
U126 O147 2.449 . S
O127 U126 2.454 . S
O127 C129 1.353 . S
O128 U126 2.458 . S
O128 C129 1.286 . S
C129 U126 2.984 . S
C129 O127 1.353 . S
C129 O128 1.286 . S
C129 C131 1.363 . S
C130 C120 1.465 . S
C130 U126 2.847 . S
C130 O144 1.249 . S
C130 O145 1.202 . S
C131 C129 1.363 . S
C131 C133 1.408 . S
C131 C136 1.342 . S
C132 C133 1.310 . S
C132 C135 1.461 . S
C132 H152 0.932 . S
C133 C131 1.408 . S
C133 C132 1.310 . S
C133 H153 0.930 . S
C134 C135 1.474 . S
C134 C136 1.285 . S
C134 H154 0.929 . S
C135 C132 1.461 . S
C135 C134 1.474 . S
C136 C131 1.342 . S
C136 C134 1.285 . S
C136 H155 0.930 . S
C137 C140 1.424 . S
C137 C142 1.245 . S
C137 C143 1.428 . S
C138 C141 1.260 . S
C138 C142 1.477 . S
C138 H156 0.932 . S
C139 C140 1.384 . S
C139 C141 1.479 . S
C139 H157 0.929 . S
C140 C137 1.424 . S
C140 C139 1.384 . S
C140 H158 0.928 . S
C141 C138 1.260 . S
C141 C139 1.479 . S
C142 C137 1.245 . S
C142 C138 1.477 . S
C142 H159 0.932 . S
C143 U126 2.882 . S
C143 C137 1.428 . S
C143 O146 1.301 . S
C143 O147 1.282 . S
O144 U126 2.441 . S
O144 C130 1.249 . S
O145 U126 2.420 . S
O145 C130 1.202 . S
O146 U126 2.455 . S
O146 C143 1.301 . S
O147 U126 2.449 . S
O147 C143 1.282 . S
H148 C121 0.931 . S
H149 C123 0.929 . S
H150 C124 0.930 . S
H151 C125 0.931 . S
H152 C132 0.932 . S
H153 C133 0.930 . S
H154 C134 0.929 . S
H155 C136 0.930 . S
H156 C138 0.932 . S
H157 C139 0.929 . S
H158 C140 0.928 . S
H159 C142 0.932 . S
C160 C161 1.264 . S
C160 C165 1.479 . S
C160 C170 1.465 . S
C161 C160 1.264 . S
C161 C163 1.339 . S
C161 H188 0.931 . S
C162 C163 1.395 . S
C162 C164 1.320 . S
C163 C161 1.339 . S
C163 C162 1.395 . S
C163 H189 0.929 . S
C164 C162 1.320 . S
C164 C165 1.405 . S
C164 H190 0.930 . S
C165 C160 1.479 . S
C165 C164 1.405 . S
C165 H191 0.931 . S
U166 O167 2.454 . S
U166 O168 2.458 . S
U166 C169 2.984 . S
U166 C170 2.847 . S
U166 C183 2.882 . S
U166 O184 2.441 . S
U166 O185 2.420 . S
U166 O186 2.455 . S
U166 O187 2.449 . S
O167 U166 2.454 . S
O167 C169 1.353 . S
O168 U166 2.458 . S
O168 C169 1.286 . S
C169 U166 2.984 . S
C169 O167 1.353 . S
C169 O168 1.286 . S
C169 C171 1.363 . S
C170 C160 1.465 . S
C170 U166 2.847 . S
C170 O184 1.249 . S
C170 O185 1.202 . S
C171 C169 1.363 . S
C171 C173 1.408 . S
C171 C176 1.342 . S
C172 C173 1.310 . S
C172 C175 1.461 . S
C172 H192 0.932 . S
C173 C171 1.408 . S
C173 C172 1.310 . S
C173 H193 0.930 . S
C174 C175 1.474 . S
C174 C176 1.285 . S
C174 H194 0.929 . S
C175 C172 1.461 . S
C175 C174 1.474 . S
C176 C171 1.342 . S
C176 C174 1.285 . S
C176 H195 0.930 . S
C177 C180 1.424 . S
C177 C182 1.245 . S
C177 C183 1.428 . S
C178 C181 1.260 . S
C178 C182 1.477 . S
C178 H196 0.932 . S
C179 C180 1.384 . S
C179 C181 1.479 . S
C179 H197 0.929 . S
C180 C177 1.424 . S
C180 C179 1.384 . S
C180 H198 0.928 . S
C181 C178 1.260 . S
C181 C179 1.479 . S
C182 C177 1.245 . S
C182 C178 1.477 . S
C182 H199 0.932 . S
C183 U166 2.882 . S
C183 C177 1.428 . S
C183 O186 1.301 . S
C183 O187 1.282 . S
O184 U166 2.441 . S
O184 C170 1.249 . S
O185 U166 2.420 . S
O185 C170 1.202 . S
O186 U166 2.455 . S
O186 C183 1.301 . S
O187 U166 2.449 . S
O187 C183 1.282 . S
H188 C161 0.931 . S
H189 C163 0.929 . S
H190 C164 0.930 . S
H191 C165 0.931 . S
H192 C172 0.932 . S
H193 C173 0.930 . S
H194 C174 0.929 . S
H195 C176 0.930 . S
H196 C178 0.932 . S
H197 C179 0.929 . S
H198 C180 0.928 . S
H199 C182 0.932 . S
C200 C201 1.264 . S
C200 C205 1.479 . S
C200 C210 1.465 . S
C201 C200 1.264 . S
C201 C203 1.339 . S
C201 H228 0.931 . S
C202 C203 1.395 . S
C202 C204 1.320 . S
C203 C201 1.339 . S
C203 C202 1.395 . S
C203 H229 0.929 . S
C204 C202 1.320 . S
C204 C205 1.405 . S
C204 H230 0.930 . S
C205 C200 1.479 . S
C205 C204 1.405 . S
C205 H231 0.931 . S
U206 O207 2.454 . S
U206 O208 2.458 . S
U206 C209 2.984 . S
U206 C210 2.847 . S
U206 C223 2.882 . S
U206 O224 2.441 . S
U206 O225 2.420 . S
U206 O226 2.455 . S
U206 O227 2.449 . S
O207 U206 2.454 . S
O207 C209 1.353 . S
O208 U206 2.458 . S
O208 C209 1.286 . S
C209 U206 2.984 . S
C209 O207 1.353 . S
C209 O208 1.286 . S
C209 C211 1.363 . S
C210 C200 1.465 . S
C210 U206 2.847 . S
C210 O224 1.249 . S
C210 O225 1.202 . S
C211 C209 1.363 . S
C211 C213 1.408 . S
C211 C216 1.342 . S
C212 C213 1.310 . S
C212 C215 1.461 . S
C212 H232 0.932 . S
C213 C211 1.408 . S
C213 C212 1.310 . S
C213 H233 0.930 . S
C214 C215 1.474 . S
C214 C216 1.285 . S
C214 H234 0.929 . S
C215 C212 1.461 . S
C215 C214 1.474 . S
C216 C211 1.342 . S
C216 C214 1.285 . S
C216 H235 0.930 . S
C217 C220 1.424 . S
C217 C222 1.245 . S
C217 C223 1.428 . S
C218 C221 1.260 . S
C218 C222 1.477 . S
C218 H236 0.932 . S
C219 C220 1.384 . S
C219 C221 1.479 . S
C219 H237 0.929 . S
C220 C217 1.424 . S
C220 C219 1.384 . S
C220 H238 0.928 . S
C221 C218 1.260 . S
C221 C219 1.479 . S
C222 C217 1.245 . S
C222 C218 1.477 . S
C222 H239 0.932 . S
C223 U206 2.882 . S
C223 C217 1.428 . S
C223 O226 1.301 . S
C223 O227 1.282 . S
O224 U206 2.441 . S
O224 C210 1.249 . S
O225 U206 2.420 . S
O225 C210 1.202 . S
O226 U206 2.455 . S
O226 C223 1.301 . S
O227 U206 2.449 . S
O227 C223 1.282 . S
H228 C201 0.931 . S
H229 C203 0.929 . S
H230 C204 0.930 . S
H231 C205 0.931 . S
H232 C212 0.932 . S
H233 C213 0.930 . S
H234 C214 0.929 . S
H235 C216 0.930 . S
H236 C218 0.932 . S
H237 C219 0.929 . S
H238 C220 0.928 . S
H239 C222 0.932 . S
C240 C241 1.264 . S
C240 C245 1.479 . S
C240 C250 1.465 . S
C241 C240 1.264 . S
C241 C243 1.339 . S
C241 H268 0.931 . S
C242 C243 1.395 . S
C242 C244 1.320 . S
C243 C241 1.339 . S
C243 C242 1.395 . S
C243 H269 0.929 . S
C244 C242 1.320 . S
C244 C245 1.405 . S
C244 H270 0.930 . S
C245 C240 1.479 . S
C245 C244 1.405 . S
C245 H271 0.931 . S
U246 O247 2.454 . S
U246 O248 2.458 . S
U246 C249 2.984 . S
U246 C250 2.847 . S
U246 C263 2.882 . S
U246 O264 2.441 . S
U246 O265 2.420 . S
U246 O266 2.455 . S
U246 O267 2.449 . S
O247 U246 2.454 . S
O247 C249 1.353 . S
O248 U246 2.458 . S
O248 C249 1.286 . S
C249 U246 2.984 . S
C249 O247 1.353 . S
C249 O248 1.286 . S
C249 C251 1.363 . S
C250 C240 1.465 . S
C250 U246 2.847 . S
C250 O264 1.249 . S
C250 O265 1.202 . S
C251 C249 1.363 . S
C251 C253 1.408 . S
C251 C256 1.342 . S
C252 C253 1.310 . S
C252 C255 1.461 . S
C252 H272 0.932 . S
C253 C251 1.408 . S
C253 C252 1.310 . S
C253 H273 0.930 . S
C254 C255 1.474 . S
C254 C256 1.285 . S
C254 H274 0.929 . S
C255 C252 1.461 . S
C255 C254 1.474 . S
C256 C251 1.342 . S
C256 C254 1.285 . S
C256 H275 0.930 . S
C257 C260 1.424 . S
C257 C262 1.245 . S
C257 C263 1.428 . S
C258 C261 1.260 . S
C258 C262 1.477 . S
C258 H276 0.932 . S
C259 C260 1.384 . S
C259 C261 1.479 . S
C259 H277 0.929 . S
C260 C257 1.424 . S
C260 C259 1.384 . S
C260 H278 0.928 . S
C261 C258 1.260 . S
C261 C259 1.479 . S
C262 C257 1.245 . S
C262 C258 1.477 . S
C262 H279 0.932 . S
C263 U246 2.882 . S
C263 C257 1.428 . S
C263 O266 1.301 . S
C263 O267 1.282 . S
O264 U246 2.441 . S
O264 C250 1.249 . S
O265 U246 2.420 . S
O265 C250 1.202 . S
O266 U246 2.455 . S
O266 C263 1.301 . S
O267 U246 2.449 . S
O267 C263 1.282 . S
H268 C241 0.931 . S
H269 C243 0.929 . S
H270 C244 0.930 . S
H271 C245 0.931 . S
H272 C252 0.932 . S
H273 C253 0.930 . S
H274 C254 0.929 . S
H275 C256 0.930 . S
H276 C258 0.932 . S
H277 C259 0.929 . S
H278 C260 0.928 . S
H279 C262 0.932 . S
C280 C281 1.264 . S
C280 C285 1.479 . S
C280 C290 1.465 . S
C281 C280 1.264 . S
C281 C283 1.339 . S
C281 H308 0.931 . S
C282 C283 1.395 . S
C282 C284 1.320 . S
C283 C281 1.339 . S
C283 C282 1.395 . S
C283 H309 0.929 . S
C284 C282 1.320 . S
C284 C285 1.405 . S
C284 H310 0.930 . S
C285 C280 1.479 . S
C285 C284 1.405 . S
C285 H311 0.931 . S
U286 O287 2.454 . S
U286 O288 2.458 . S
U286 C289 2.984 . S
U286 C290 2.847 . S
U286 C303 2.882 . S
U286 O304 2.441 . S
U286 O305 2.420 . S
U286 O306 2.455 . S
U286 O307 2.449 . S
O287 U286 2.454 . S
O287 C289 1.353 . S
O288 U286 2.458 . S
O288 C289 1.286 . S
C289 U286 2.984 . S
C289 O287 1.353 . S
C289 O288 1.286 . S
C289 C291 1.363 . S
C290 C280 1.465 . S
C290 U286 2.847 . S
C290 O304 1.249 . S
C290 O305 1.202 . S
C291 C289 1.363 . S
C291 C293 1.408 . S
C291 C296 1.342 . S
C292 C293 1.310 . S
C292 C295 1.461 . S
C292 H312 0.932 . S
C293 C291 1.408 . S
C293 C292 1.310 . S
C293 H313 0.930 . S
C294 C295 1.474 . S
C294 C296 1.285 . S
C294 H314 0.929 . S
C295 C292 1.461 . S
C295 C294 1.474 . S
C296 C291 1.342 . S
C296 C294 1.285 . S
C296 H315 0.930 . S
C297 C300 1.424 . S
C297 C302 1.245 . S
C297 C303 1.428 . S
C298 C301 1.260 . S
C298 C302 1.477 . S
C298 H316 0.932 . S
C299 C300 1.384 . S
C299 C301 1.479 . S
C299 H317 0.929 . S
C300 C297 1.424 . S
C300 C299 1.384 . S
C300 H318 0.928 . S
C301 C298 1.260 . S
C301 C299 1.479 . S
C302 C297 1.245 . S
C302 C298 1.477 . S
C302 H319 0.932 . S
C303 U286 2.882 . S
C303 C297 1.428 . S
C303 O306 1.301 . S
C303 O307 1.282 . S
O304 U286 2.441 . S
O304 C290 1.249 . S
O305 U286 2.420 . S
O305 C290 1.202 . S
O306 U286 2.455 . S
O306 C303 1.301 . S
O307 U286 2.449 . S
O307 C303 1.282 . S
H308 C281 0.931 . S
H309 C283 0.929 . S
H310 C284 0.930 . S
H311 C285 0.931 . S
H312 C292 0.932 . S
H313 C293 0.930 . S
H314 C294 0.929 . S
H315 C296 0.930 . S
H316 C298 0.932 . S
H317 C299 0.929 . S
H318 C300 0.928 . S
H319 C302 0.932 . S
H320 C326 0.930 . S
H321 C329 0.931 . S
H322 C331 0.931 . S
H323 C333 0.930 . S
H324 C335 0.930 . S
H325 C337 0.931 . S
C326 H320 0.930 . S
C326 C327 1.380 . S
C326 C328 1.394 1_455 S
C327 C326 1.380 . S
C327 C331 1.382 . S
C328 C326 1.394 1_655 S
C328 C329 1.400 . S
C329 H321 0.931 . S
C329 C328 1.400 . S
C329 C330 1.375 1_655 S
C330 C329 1.375 1_455 S
C330 C331 1.415 . S
C330 C332 1.501 . S
C331 H322 0.931 . S
C331 C327 1.382 . S
C331 C330 1.415 . S
C332 C330 1.501 . S
C332 C333 1.384 . S
C332 C337 1.408 1_455 S
C333 H323 0.930 . S
C333 C332 1.384 . S
C333 C334 1.389 . S
C334 C333 1.389 . S
C334 C335 1.405 . S
C335 H324 0.930 . S
C335 C334 1.405 . S
C335 C336 1.364 1_455 S
C336 C335 1.364 1_655 S
C336 C337 1.400 . S
C337 H325 0.931 . S
C337 C332 1.408 1_655 S
C337 C336 1.400 . S
H338 C344 0.930 . S
H339 C347 0.931 . S
H340 C349 0.931 . S
H341 C351 0.930 . S
H342 C353 0.930 . S
H343 C355 0.931 . S
C344 H338 0.930 . S
C344 C345 1.380 1_455 S
C344 C346 1.394 . S
C345 C344 1.380 1_655 S
C345 C349 1.382 . S
C346 C344 1.394 . S
C346 C347 1.400 . S
C347 H339 0.931 . S
C347 C346 1.400 . S
C347 C348 1.375 . S
C348 C347 1.375 . S
C348 C349 1.415 1_455 S
C348 C350 1.501 . S
C349 H340 0.931 . S
C349 C345 1.382 . S
C349 C348 1.415 1_655 S
C350 C348 1.501 . S
C350 C351 1.384 1_455 S
C350 C355 1.408 . S
C351 H341 0.930 . S
C351 C350 1.384 1_655 S
C351 C352 1.389 . S
C352 C351 1.389 . S
C352 C353 1.405 1_655 S
C353 H342 0.930 . S
C353 C352 1.405 1_455 S
C353 C354 1.364 . S
C354 C353 1.364 . S
C354 C355 1.400 . S
C355 H343 0.931 . S
C355 C350 1.408 . S
C355 C354 1.400 . S
H356 C362 0.930 . S
H357 C365 0.931 . S
H358 C367 0.931 . S
H359 C369 0.930 . S
H360 C371 0.930 . S
H361 C373 0.931 . S
C362 H356 0.930 . S
C362 C363 1.380 . S
C362 C364 1.394 . S
C363 C362 1.380 . S
C363 C367 1.382 . S
C364 C362 1.394 . S
C364 C365 1.400 . S
C365 H357 0.931 . S
C365 C364 1.400 . S
C365 C366 1.375 . S
C366 C365 1.375 . S
C366 C367 1.415 . S
C366 C368 1.501 1_545 S
C367 H358 0.931 . S
C367 C363 1.382 . S
C367 C366 1.415 . S
C368 C366 1.501 1_565 S
C368 C369 1.384 . S
C368 C373 1.408 . S
C369 H359 0.930 . S
C369 C368 1.384 . S
C369 C370 1.389 . S
C370 C369 1.389 . S
C370 C371 1.405 . S
C371 H360 0.930 . S
C371 C370 1.405 . S
C371 C372 1.364 . S
C372 C371 1.364 . S
C372 C373 1.400 . S
C373 H361 0.931 . S
C373 C368 1.408 . S
C373 C372 1.400 . S
H374 C380 0.930 . S
H375 C383 0.931 . S
H376 C385 0.931 . S
H377 C387 0.930 . S
H378 C389 0.930 . S
H379 C391 0.931 . S
C380 H374 0.930 . S
C380 C381 1.380 . S
C380 C382 1.394 . S
C381 C380 1.380 . S
C381 C385 1.382 . S
C382 C380 1.394 . S
C382 C383 1.400 . S
C383 H375 0.931 . S
C383 C382 1.400 . S
C383 C384 1.375 . S
C384 C383 1.375 . S
C384 C385 1.415 . S
C384 C386 1.501 1_554 S
C385 H376 0.931 . S
C385 C381 1.382 . S
C385 C384 1.415 . S
C386 C384 1.501 1_556 S
C386 C387 1.384 . S
C386 C391 1.408 . S
C387 H377 0.930 . S
C387 C386 1.384 . S
C387 C388 1.389 . S
C388 C387 1.389 . S
C388 C389 1.405 . S
C389 H378 0.930 . S
C389 C388 1.405 . S
C389 C390 1.364 . S
C390 C389 1.364 . S
C390 C391 1.400 . S
C391 H379 0.931 . S
C391 C386 1.408 . S
C391 C390 1.400 . S
H392 C398 0.930 . S
H393 C401 0.931 . S
H394 C403 0.931 . S
H395 C405 0.930 . S
H396 C407 0.930 . S
H397 C409 0.931 . S
C398 H392 0.930 . S
C398 C399 1.380 . S
C398 C400 1.394 . S
C399 C398 1.380 . S
C399 C403 1.382 . S
C400 C398 1.394 . S
C400 C401 1.400 . S
C401 H393 0.931 . S
C401 C400 1.400 . S
C401 C402 1.375 . S
C402 C401 1.375 . S
C402 C403 1.415 . S
C402 C404 1.501 1_545 S
C403 H394 0.931 . S
C403 C399 1.382 . S
C403 C402 1.415 . S
C404 C402 1.501 1_565 S
C404 C405 1.384 . S
C404 C409 1.408 . S
C405 H395 0.930 . S
C405 C404 1.384 . S
C405 C406 1.389 . S
C406 C405 1.389 . S
C406 C407 1.405 . S
C407 H396 0.930 . S
C407 C406 1.405 . S
C407 C408 1.364 . S
C408 C407 1.364 . S
C408 C409 1.400 . S
C409 H397 0.931 . S
C409 C404 1.408 . S
C409 C408 1.400 . S
H410 C416 0.930 . S
H411 C419 0.931 . S
H412 C421 0.931 . S
H413 C423 0.930 . S
H414 C425 0.930 . S
H415 C427 0.931 . S
C416 H410 0.930 . S
C416 C417 1.380 . S
C416 C418 1.394 . S
C417 C416 1.380 . S
C417 C421 1.382 . S
C418 C416 1.394 . S
C418 C419 1.400 . S
C419 H411 0.931 . S
C419 C418 1.400 . S
C419 C420 1.375 . S
C420 C419 1.375 . S
C420 C421 1.415 . S
C420 C422 1.501 1_554 S
C421 H412 0.931 . S
C421 C417 1.382 . S
C421 C420 1.415 . S
C422 C420 1.501 1_556 S
C422 C423 1.384 . S
C422 C427 1.408 . S
C423 H413 0.930 . S
C423 C422 1.384 . S
C423 C424 1.389 . S
C424 C423 1.389 . S
C424 C425 1.405 . S
C425 H414 0.930 . S
C425 C424 1.405 . S
C425 C426 1.364 . S
C426 C425 1.364 . S
C426 C427 1.400 . S
C427 H415 0.931 . S
C427 C422 1.408 . S
C427 C426 1.400 . S
C428 C429 1.349 . S
C428 C430 1.327 . S
C428 H453 0.950 . S
C429 C428 1.349 . S
C429 C445 1.349 . S
C430 C428 1.327 . S
C430 C449 1.429 . S
C430 H454 0.950 . S
C431 C448 1.574 . S
C431 C450 1.368 . S
C431 H455 0.949 . S
H432 C436 0.949 . S
C433 C434 1.349 . S
C433 C435 1.327 . S
C433 H456 0.950 . S
C434 C433 1.349 . S
C434 C446 1.349 . S
C435 C433 1.327 . S
C435 C451 1.429 . S
C435 H457 0.950 . S
C436 H432 0.949 . S
C436 C444 1.574 . S
C436 C452 1.368 . S
H437 C445 0.950 . S
H438 C443 0.950 . S
H439 C444 0.949 . S
H440 C446 0.950 . S
H441 C447 0.950 . S
H442 C448 0.949 . S
C443 H438 0.950 . S
C443 C445 1.327 . S
C443 C449 1.429 . S
C444 C436 1.574 . S
C444 H439 0.949 . S
C444 C450 1.368 . S
C445 C429 1.349 . S
C445 H437 0.950 . S
C445 C443 1.327 . S
C446 C434 1.349 . S
C446 H440 0.950 . S
C446 C447 1.327 . S
C447 H441 0.950 . S
C447 C446 1.327 . S
C447 C451 1.429 . S
C448 C431 1.574 . S
C448 H442 0.949 . S
C448 C452 1.368 . S
C449 C430 1.429 . S
C449 C443 1.429 . S
C449 C450 1.523 . S
C450 C431 1.368 . S
C450 C444 1.368 . S
C450 C449 1.523 . S
C451 C435 1.429 . S
C451 C447 1.429 . S
C451 C452 1.523 . S
C452 C436 1.368 . S
C452 C448 1.368 . S
C452 C451 1.523 . S
H453 C428 0.950 . S
H454 C430 0.950 . S
H455 C431 0.949 . S
H456 C433 0.950 . S
H457 C435 0.950 . S
C458 C459 1.349 . S
C458 C460 1.327 . S
C458 H483 0.950 . S
C459 C458 1.349 . S
C459 C475 1.349 . S
C460 C458 1.327 . S
C460 C479 1.429 . S
C460 H484 0.950 . S
C461 C478 1.574 . S
C461 C480 1.368 . S
C461 H485 0.949 . S
H462 C466 0.949 . S
C463 C464 1.349 . S
C463 C465 1.327 . S
C463 H486 0.950 . S
C464 C463 1.349 . S
C464 C476 1.349 . S
C465 C463 1.327 . S
C465 C481 1.429 . S
C465 H487 0.950 . S
C466 H462 0.949 . S
C466 C474 1.574 . S
C466 C482 1.368 . S
H467 C475 0.950 . S
H468 C473 0.950 . S
H469 C474 0.949 . S
H470 C476 0.950 . S
H471 C477 0.950 . S
H472 C478 0.949 . S
C473 H468 0.950 . S
C473 C475 1.327 . S
C473 C479 1.429 . S
C474 C466 1.574 . S
C474 H469 0.949 . S
C474 C480 1.368 . S
C475 C459 1.349 . S
C475 H467 0.950 . S
C475 C473 1.327 . S
C476 C464 1.349 . S
C476 H470 0.950 . S
C476 C477 1.327 . S
C477 H471 0.950 . S
C477 C476 1.327 . S
C477 C481 1.429 . S
C478 C461 1.574 . S
C478 H472 0.949 . S
C478 C482 1.368 . S
C479 C460 1.429 . S
C479 C473 1.429 . S
C479 C480 1.523 . S
C480 C461 1.368 . S
C480 C474 1.368 . S
C480 C479 1.523 . S
C481 C465 1.429 . S
C481 C477 1.429 . S
C481 C482 1.523 . S
C482 C466 1.368 . S
C482 C478 1.368 . S
C482 C481 1.523 . S
H483 C458 0.950 . S
H484 C460 0.950 . S
H485 C461 0.949 . S
H486 C463 0.950 . S
H487 C465 0.950 . S
C488 C489 1.349 . S
C488 C490 1.327 . S
C488 H513 0.950 . S
C489 C488 1.349 . S
C489 C505 1.349 . S
C490 C488 1.327 . S
C490 C509 1.429 . S
C490 H514 0.950 . S
C491 C508 1.574 . S
C491 C510 1.368 . S
C491 H515 0.949 . S
H492 C496 0.949 . S
C493 C494 1.349 . S
C493 C495 1.327 . S
C493 H516 0.950 . S
C494 C493 1.349 . S
C494 C506 1.349 . S
C495 C493 1.327 . S
C495 C511 1.429 . S
C495 H517 0.950 . S
C496 H492 0.949 . S
C496 C504 1.574 . S
C496 C512 1.368 . S
H497 C505 0.950 . S
H498 C503 0.950 . S
H499 C504 0.949 . S
H500 C506 0.950 . S
H501 C507 0.950 . S
H502 C508 0.949 . S
C503 H498 0.950 . S
C503 C505 1.327 . S
C503 C509 1.429 . S
C504 C496 1.574 . S
C504 H499 0.949 . S
C504 C510 1.368 . S
C505 C489 1.349 . S
C505 H497 0.950 . S
C505 C503 1.327 . S
C506 C494 1.349 . S
C506 H500 0.950 . S
C506 C507 1.327 . S
C507 H501 0.950 . S
C507 C506 1.327 . S
C507 C511 1.429 . S
C508 C491 1.574 . S
C508 H502 0.949 . S
C508 C512 1.368 . S
C509 C490 1.429 . S
C509 C503 1.429 . S
C509 C510 1.523 . S
C510 C491 1.368 . S
C510 C504 1.368 . S
C510 C509 1.523 . S
C511 C495 1.429 . S
C511 C507 1.429 . S
C511 C512 1.523 . S
C512 C496 1.368 . S
C512 C508 1.368 . S
C512 C511 1.523 . S
H513 C488 0.950 . S
H514 C490 0.950 . S
H515 C491 0.949 . S
H516 C493 0.950 . S
H517 C495 0.950 . S
C518 C519 1.349 . S
C518 C520 1.327 . S
C518 H543 0.950 . S
C519 C518 1.349 . S
C519 C535 1.349 . S
C520 C518 1.327 . S
C520 C539 1.429 . S
C520 H544 0.950 . S
C521 C538 1.574 . S
C521 C540 1.368 . S
C521 H545 0.949 . S
H522 C526 0.949 . S
C523 C524 1.349 . S
C523 C525 1.327 . S
C523 H546 0.950 . S
C524 C523 1.349 . S
C524 C536 1.349 . S
C525 C523 1.327 . S
C525 C541 1.429 . S
C525 H547 0.950 . S
C526 H522 0.949 . S
C526 C534 1.574 . S
C526 C542 1.368 . S
H527 C535 0.950 . S
H528 C533 0.950 . S
H529 C534 0.949 . S
H530 C536 0.950 . S
H531 C537 0.950 . S
H532 C538 0.949 . S
C533 H528 0.950 . S
C533 C535 1.327 . S
C533 C539 1.429 . S
C534 C526 1.574 . S
C534 H529 0.949 . S
C534 C540 1.368 . S
C535 C519 1.349 . S
C535 H527 0.950 . S
C535 C533 1.327 . S
C536 C524 1.349 . S
C536 H530 0.950 . S
C536 C537 1.327 . S
C537 H531 0.950 . S
C537 C536 1.327 . S
C537 C541 1.429 . S
C538 C521 1.574 . S
C538 H532 0.949 . S
C538 C542 1.368 . S
C539 C520 1.429 . S
C539 C533 1.429 . S
C539 C540 1.523 . S
C540 C521 1.368 . S
C540 C534 1.368 . S
C540 C539 1.523 . S
C541 C525 1.429 . S
C541 C537 1.429 . S
C541 C542 1.523 . S
C542 C526 1.368 . S
C542 C538 1.368 . S
C542 C541 1.523 . S
H543 C518 0.950 . S
H544 C520 0.950 . S
H545 C521 0.949 . S
H546 C523 0.950 . S
H547 C525 0.950 . S
C548 C549 1.349 . S
C548 C550 1.327 . S
C548 H573 0.950 . S
C549 C548 1.349 . S
C549 C565 1.349 . S
C550 C548 1.327 . S
C550 C569 1.429 . S
C550 H574 0.950 . S
C551 C568 1.574 . S
C551 C570 1.368 . S
C551 H575 0.949 . S
H552 C556 0.949 . S
C553 C554 1.349 . S
C553 C555 1.327 . S
C553 H576 0.950 . S
C554 C553 1.349 . S
C554 C566 1.349 . S
C555 C553 1.327 . S
C555 C571 1.429 . S
C555 H577 0.950 . S
C556 H552 0.949 . S
C556 C564 1.574 . S
C556 C572 1.368 . S
H557 C565 0.950 . S
H558 C563 0.950 . S
H559 C564 0.949 . S
H560 C566 0.950 . S
H561 C567 0.950 . S
H562 C568 0.949 . S
C563 H558 0.950 . S
C563 C565 1.327 . S
C563 C569 1.429 . S
C564 C556 1.574 . S
C564 H559 0.949 . S
C564 C570 1.368 . S
C565 C549 1.349 . S
C565 H557 0.950 . S
C565 C563 1.327 . S
C566 C554 1.349 . S
C566 H560 0.950 . S
C566 C567 1.327 . S
C567 H561 0.950 . S
C567 C566 1.327 . S
C567 C571 1.429 . S
C568 C551 1.574 . S
C568 H562 0.949 . S
C568 C572 1.368 . S
C569 C550 1.429 . S
C569 C563 1.429 . S
C569 C570 1.523 . S
C570 C551 1.368 . S
C570 C564 1.368 . S
C570 C569 1.523 . S
C571 C555 1.429 . S
C571 C567 1.429 . S
C571 C572 1.523 . S
C572 C556 1.368 . S
C572 C568 1.368 . S
C572 C571 1.523 . S
H573 C548 0.950 . S
H574 C550 0.950 . S
H575 C551 0.949 . S
H576 C553 0.950 . S
H577 C555 0.950 . S
C578 C579 1.349 . S
C578 C580 1.327 . S
C578 H603 0.950 . S
C579 C578 1.349 . S
C579 C595 1.349 . S
C580 C578 1.327 . S
C580 C599 1.429 . S
C580 H604 0.950 . S
C581 C598 1.574 . S
C581 C600 1.368 . S
C581 H605 0.949 . S
H582 C586 0.949 . S
C583 C584 1.349 . S
C583 C585 1.327 . S
C583 H606 0.950 . S
C584 C583 1.349 . S
C584 C596 1.349 . S
C585 C583 1.327 . S
C585 C601 1.429 . S
C585 H607 0.950 . S
C586 H582 0.949 . S
C586 C594 1.574 . S
C586 C602 1.368 . S
H587 C595 0.950 . S
H588 C593 0.950 . S
H589 C594 0.949 . S
H590 C596 0.950 . S
H591 C597 0.950 . S
H592 C598 0.949 . S
C593 H588 0.950 . S
C593 C595 1.327 . S
C593 C599 1.429 . S
C594 C586 1.574 . S
C594 H589 0.949 . S
C594 C600 1.368 . S
C595 C579 1.349 . S
C595 H587 0.950 . S
C595 C593 1.327 . S
C596 C584 1.349 . S
C596 H590 0.950 . S
C596 C597 1.327 . S
C597 H591 0.950 . S
C597 C596 1.327 . S
C597 C601 1.429 . S
C598 C581 1.574 . S
C598 H592 0.949 . S
C598 C602 1.368 . S
C599 C580 1.429 . S
C599 C593 1.429 . S
C599 C600 1.523 . S
C600 C581 1.368 . S
C600 C594 1.368 . S
C600 C599 1.523 . S
C601 C585 1.429 . S
C601 C597 1.429 . S
C601 C602 1.523 . S
C602 C586 1.368 . S
C602 C598 1.368 . S
C602 C601 1.523 . S
H603 C578 0.950 . S
H604 C580 0.950 . S
H605 C581 0.949 . S
H606 C583 0.950 . S
H607 C585 0.950 . S
C608 C609 1.349 . S
C608 C610 1.327 . S
C608 H633 0.950 . S
C609 C608 1.349 . S
C609 C625 1.349 . S
C610 C608 1.327 . S
C610 C629 1.429 . S
C610 H634 0.950 . S
C611 C628 1.574 . S
C611 C630 1.368 . S
C611 H635 0.949 . S
H612 C616 0.949 . S
C613 C614 1.349 . S
C613 C615 1.327 . S
C613 H636 0.950 . S
C614 C613 1.349 . S
C614 C626 1.349 . S
C615 C613 1.327 . S
C615 C631 1.429 . S
C615 H637 0.950 . S
C616 H612 0.949 . S
C616 C624 1.574 . S
C616 C632 1.368 . S
H617 C625 0.950 . S
H618 C623 0.950 . S
H619 C624 0.949 . S
H620 C626 0.950 . S
H621 C627 0.950 . S
H622 C628 0.949 . S
C623 H618 0.950 . S
C623 C625 1.327 . S
C623 C629 1.429 . S
C624 C616 1.574 . S
C624 H619 0.949 . S
C624 C630 1.368 . S
C625 C609 1.349 . S
C625 H617 0.950 . S
C625 C623 1.327 . S
C626 C614 1.349 . S
C626 H620 0.950 . S
C626 C627 1.327 . S
C627 H621 0.950 . S
C627 C626 1.327 . S
C627 C631 1.429 . S
C628 C611 1.574 . S
C628 H622 0.949 . S
C628 C632 1.368 . S
C629 C610 1.429 . S
C629 C623 1.429 . S
C629 C630 1.523 . S
C630 C611 1.368 . S
C630 C624 1.368 . S
C630 C629 1.523 . S
C631 C615 1.429 . S
C631 C627 1.429 . S
C631 C632 1.523 . S
C632 C616 1.368 . S
C632 C628 1.368 . S
C632 C631 1.523 . S
H633 C608 0.950 . S
H634 C610 0.950 . S
H635 C611 0.949 . S
H636 C613 0.950 . S
H637 C615 0.950 . S
C638 C639 1.349 . S
C638 C640 1.327 . S
C638 H663 0.950 . S
C639 C638 1.349 . S
C639 C655 1.349 . S
C640 C638 1.327 . S
C640 C659 1.429 . S
C640 H664 0.950 . S
C641 C658 1.574 . S
C641 C660 1.368 . S
C641 H665 0.949 . S
H642 C646 0.949 . S
C643 C644 1.349 . S
C643 C645 1.327 . S
C643 H666 0.950 . S
C644 C643 1.349 . S
C644 C656 1.349 . S
C645 C643 1.327 . S
C645 C661 1.429 . S
C645 H667 0.950 . S
C646 H642 0.949 . S
C646 C654 1.574 . S
C646 C662 1.368 . S
H647 C655 0.950 . S
H648 C653 0.950 . S
H649 C654 0.949 . S
H650 C656 0.950 . S
H651 C657 0.950 . S
H652 C658 0.949 . S
C653 H648 0.950 . S
C653 C655 1.327 . S
C653 C659 1.429 . S
C654 C646 1.574 . S
C654 H649 0.949 . S
C654 C660 1.368 . S
C655 C639 1.349 . S
C655 H647 0.950 . S
C655 C653 1.327 . S
C656 C644 1.349 . S
C656 H650 0.950 . S
C656 C657 1.327 . S
C657 H651 0.950 . S
C657 C656 1.327 . S
C657 C661 1.429 . S
C658 C641 1.574 . S
C658 H652 0.949 . S
C658 C662 1.368 . S
C659 C640 1.429 . S
C659 C653 1.429 . S
C659 C660 1.523 . S
C660 C641 1.368 . S
C660 C654 1.368 . S
C660 C659 1.523 . S
C661 C645 1.429 . S
C661 C657 1.429 . S
C661 C662 1.523 . S
C662 C646 1.368 . S
C662 C658 1.368 . S
C662 C661 1.523 . S
H663 C638 0.950 . S
H664 C640 0.950 . S
H665 C641 0.949 . S
H666 C643 0.950 . S
H667 C645 0.950 . S
C668 C669 1.349 . S
C668 C670 1.327 . S
C668 H693 0.950 . S
C669 C668 1.349 . S
C669 C685 1.349 . S
C670 C668 1.327 . S
C670 C689 1.429 . S
C670 H694 0.950 . S
C671 C688 1.574 . S
C671 C690 1.368 . S
C671 H695 0.949 . S
H672 C676 0.949 . S
C673 C674 1.349 . S
C673 C675 1.327 . S
C673 H696 0.950 . S
C674 C673 1.349 . S
C674 C686 1.349 . S
C675 C673 1.327 . S
C675 C691 1.429 . S
C675 H697 0.950 . S
C676 H672 0.949 . S
C676 C684 1.574 . S
C676 C692 1.368 . S
H677 C685 0.950 . S
H678 C683 0.950 . S
H679 C684 0.949 . S
H680 C686 0.950 . S
H681 C687 0.950 . S
H682 C688 0.949 . S
C683 H678 0.950 . S
C683 C685 1.327 . S
C683 C689 1.429 . S
C684 C676 1.574 . S
C684 H679 0.949 . S
C684 C690 1.368 . S
C685 C669 1.349 . S
C685 H677 0.950 . S
C685 C683 1.327 . S
C686 C674 1.349 . S
C686 H680 0.950 . S
C686 C687 1.327 . S
C687 H681 0.950 . S
C687 C686 1.327 . S
C687 C691 1.429 . S
C688 C671 1.574 . S
C688 H682 0.949 . S
C688 C692 1.368 . S
C689 C670 1.429 . S
C689 C683 1.429 . S
C689 C690 1.523 . S
C690 C671 1.368 . S
C690 C684 1.368 . S
C690 C689 1.523 . S
C691 C675 1.429 . S
C691 C687 1.429 . S
C691 C692 1.523 . S
C692 C676 1.368 . S
C692 C688 1.368 . S
C692 C691 1.523 . S
H693 C668 0.950 . S
H694 C670 0.950 . S
H695 C671 0.949 . S
H696 C673 0.950 . S
H697 C675 0.950 . S
C698 C699 1.349 . S
C698 C700 1.327 . S
C698 H723 0.950 . S
C699 C698 1.349 . S
C699 C715 1.349 . S
C700 C698 1.327 . S
C700 C719 1.429 . S
C700 H724 0.950 . S
C701 C718 1.574 . S
C701 C720 1.368 . S
C701 H725 0.949 . S
H702 C706 0.949 . S
C703 C704 1.349 . S
C703 C705 1.327 . S
C703 H726 0.950 . S
C704 C703 1.349 . S
C704 C716 1.349 . S
C705 C703 1.327 . S
C705 C721 1.429 . S
C705 H727 0.950 . S
C706 H702 0.949 . S
C706 C714 1.574 . S
C706 C722 1.368 . S
H707 C715 0.950 . S
H708 C713 0.950 . S
H709 C714 0.949 . S
H710 C716 0.950 . S
H711 C717 0.950 . S
H712 C718 0.949 . S
C713 H708 0.950 . S
C713 C715 1.327 . S
C713 C719 1.429 . S
C714 C706 1.574 . S
C714 H709 0.949 . S
C714 C720 1.368 . S
C715 C699 1.349 . S
C715 H707 0.950 . S
C715 C713 1.327 . S
C716 C704 1.349 . S
C716 H710 0.950 . S
C716 C717 1.327 . S
C717 H711 0.950 . S
C717 C716 1.327 . S
C717 C721 1.429 . S
C718 C701 1.574 . S
C718 H712 0.949 . S
C718 C722 1.368 . S
C719 C700 1.429 . S
C719 C713 1.429 . S
C719 C720 1.523 . S
C720 C701 1.368 . S
C720 C714 1.368 . S
C720 C719 1.523 . S
C721 C705 1.429 . S
C721 C717 1.429 . S
C721 C722 1.523 . S
C722 C706 1.368 . S
C722 C718 1.368 . S
C722 C721 1.523 . S
H723 C698 0.950 . S
H724 C700 0.950 . S
H725 C701 0.949 . S
H726 C703 0.950 . S
H727 C705 0.950 . S
C728 C729 1.349 . S
C728 C730 1.327 . S
C728 H753 0.950 . S
C729 C728 1.349 . S
C729 C745 1.349 . S
C730 C728 1.327 . S
C730 C749 1.429 . S
C730 H754 0.950 . S
C731 C748 1.574 . S
C731 C750 1.368 . S
C731 H755 0.949 . S
H732 C736 0.949 . S
C733 C734 1.349 . S
C733 C735 1.327 . S
C733 H756 0.950 . S
C734 C733 1.349 . S
C734 C746 1.349 . S
C735 C733 1.327 . S
C735 C751 1.429 . S
C735 H757 0.950 . S
C736 H732 0.949 . S
C736 C744 1.574 . S
C736 C752 1.368 . S
H737 C745 0.950 . S
H738 C743 0.950 . S
H739 C744 0.949 . S
H740 C746 0.950 . S
H741 C747 0.950 . S
H742 C748 0.949 . S
C743 H738 0.950 . S
C743 C745 1.327 . S
C743 C749 1.429 . S
C744 C736 1.574 . S
C744 H739 0.949 . S
C744 C750 1.368 . S
C745 C729 1.349 . S
C745 H737 0.950 . S
C745 C743 1.327 . S
C746 C734 1.349 . S
C746 H740 0.950 . S
C746 C747 1.327 . S
C747 H741 0.950 . S
C747 C746 1.327 . S
C747 C751 1.429 . S
C748 C731 1.574 . S
C748 H742 0.949 . S
C748 C752 1.368 . S
C749 C730 1.429 . S
C749 C743 1.429 . S
C749 C750 1.523 . S
C750 C731 1.368 . S
C750 C744 1.368 . S
C750 C749 1.523 . S
C751 C735 1.429 . S
C751 C747 1.429 . S
C751 C752 1.523 . S
C752 C736 1.368 . S
C752 C748 1.368 . S
C752 C751 1.523 . S
H753 C728 0.950 . S
H754 C730 0.950 . S
H755 C731 0.949 . S
H756 C733 0.950 . S
H757 C735 0.950 . S
C758 C759 1.349 . S
C758 C760 1.327 . S
C758 H783 0.950 . S
C759 C758 1.349 . S
C759 C775 1.349 . S
C760 C758 1.327 . S
C760 C779 1.429 . S
C760 H784 0.950 . S
C761 C778 1.574 . S
C761 C780 1.368 . S
C761 H785 0.949 . S
H762 C766 0.949 . S
C763 C764 1.349 . S
C763 C765 1.327 . S
C763 H786 0.950 . S
C764 C763 1.349 . S
C764 C776 1.349 . S
C765 C763 1.327 . S
C765 C781 1.429 . S
C765 H787 0.950 . S
C766 H762 0.949 . S
C766 C774 1.574 . S
C766 C782 1.368 . S
H767 C775 0.950 . S
H768 C773 0.950 . S
H769 C774 0.949 . S
H770 C776 0.950 . S
H771 C777 0.950 . S
H772 C778 0.949 . S
C773 H768 0.950 . S
C773 C775 1.327 . S
C773 C779 1.429 . S
C774 C766 1.574 . S
C774 H769 0.949 . S
C774 C780 1.368 . S
C775 C759 1.349 . S
C775 H767 0.950 . S
C775 C773 1.327 . S
C776 C764 1.349 . S
C776 H770 0.950 . S
C776 C777 1.327 . S
C777 H771 0.950 . S
C777 C776 1.327 . S
C777 C781 1.429 . S
C778 C761 1.574 . S
C778 H772 0.949 . S
C778 C782 1.368 . S
C779 C760 1.429 . S
C779 C773 1.429 . S
C779 C780 1.523 . S
C780 C761 1.368 . S
C780 C774 1.368 . S
C780 C779 1.523 . S
C781 C765 1.429 . S
C781 C777 1.429 . S
C781 C782 1.523 . S
C782 C766 1.368 . S
C782 C778 1.368 . S
C782 C781 1.523 . S
H783 C758 0.950 . S
H784 C760 0.950 . S
H785 C761 0.949 . S
H786 C763 0.950 . S
H787 C765 0.950 . S
C788 C789 1.349 . S
C788 C790 1.327 . S
C788 H813 0.950 . S
C789 C788 1.349 . S
C789 C805 1.349 . S
C790 C788 1.327 . S
C790 C809 1.429 . S
C790 H814 0.950 . S
C791 C808 1.574 . S
C791 C810 1.368 . S
C791 H815 0.949 . S
H792 C796 0.949 . S
C793 C794 1.349 . S
C793 C795 1.327 . S
C793 H816 0.950 . S
C794 C793 1.349 . S
C794 C806 1.349 . S
C795 C793 1.327 . S
C795 C811 1.429 . S
C795 H817 0.950 . S
C796 H792 0.949 . S
C796 C804 1.574 . S
C796 C812 1.368 . S
H797 C805 0.950 . S
H798 C803 0.950 . S
H799 C804 0.949 . S
H800 C806 0.950 . S
H801 C807 0.950 . S
H802 C808 0.949 . S
C803 H798 0.950 . S
C803 C805 1.327 . S
C803 C809 1.429 . S
C804 C796 1.574 . S
C804 H799 0.949 . S
C804 C810 1.368 . S
C805 C789 1.349 . S
C805 H797 0.950 . S
C805 C803 1.327 . S
C806 C794 1.349 . S
C806 H800 0.950 . S
C806 C807 1.327 . S
C807 H801 0.950 . S
C807 C806 1.327 . S
C807 C811 1.429 . S
C808 C791 1.574 . S
C808 H802 0.949 . S
C808 C812 1.368 . S
C809 C790 1.429 . S
C809 C803 1.429 . S
C809 C810 1.523 . S
C810 C791 1.368 . S
C810 C804 1.368 . S
C810 C809 1.523 . S
C811 C795 1.429 . S
C811 C807 1.429 . S
C811 C812 1.523 . S
C812 C796 1.368 . S
C812 C808 1.368 . S
C812 C811 1.523 . S
H813 C788 0.950 . S
H814 C790 0.950 . S
H815 C791 0.949 . S
H816 C793 0.950 . S
H817 C795 0.950 . S
C818 C819 1.349 . S
C818 C820 1.327 . S
C818 H843 0.950 . S
C819 C818 1.349 . S
C819 C835 1.349 . S
C820 C818 1.327 . S
C820 C839 1.429 . S
C820 H844 0.950 . S
C821 C838 1.574 . S
C821 C840 1.368 . S
C821 H845 0.949 . S
H822 C826 0.949 . S
C823 C824 1.349 . S
C823 C825 1.327 . S
C823 H846 0.950 . S
C824 C823 1.349 . S
C824 C836 1.349 . S
C825 C823 1.327 . S
C825 C841 1.429 . S
C825 H847 0.950 . S
C826 H822 0.949 . S
C826 C834 1.574 . S
C826 C842 1.368 . S
H827 C835 0.950 . S
H828 C833 0.950 . S
H829 C834 0.949 . S
H830 C836 0.950 . S
H831 C837 0.950 . S
H832 C838 0.949 . S
C833 H828 0.950 . S
C833 C835 1.327 . S
C833 C839 1.429 . S
C834 C826 1.574 . S
C834 H829 0.949 . S
C834 C840 1.368 . S
C835 C819 1.349 . S
C835 H827 0.950 . S
C835 C833 1.327 . S
C836 C824 1.349 . S
C836 H830 0.950 . S
C836 C837 1.327 . S
C837 H831 0.950 . S
C837 C836 1.327 . S
C837 C841 1.429 . S
C838 C821 1.574 . S
C838 H832 0.949 . S
C838 C842 1.368 . S
C839 C820 1.429 . S
C839 C833 1.429 . S
C839 C840 1.523 . S
C840 C821 1.368 . S
C840 C834 1.368 . S
C840 C839 1.523 . S
C841 C825 1.429 . S
C841 C837 1.429 . S
C841 C842 1.523 . S
C842 C826 1.368 . S
C842 C838 1.368 . S
C842 C841 1.523 . S
H843 C818 0.950 . S
H844 C820 0.950 . S
H845 C821 0.949 . S
H846 C823 0.950 . S
H847 C825 0.950 . S
C848 C849 1.349 . S
C848 C850 1.327 . S
C848 H873 0.950 . S
C849 C848 1.349 . S
C849 C865 1.349 . S
C850 C848 1.327 . S
C850 C869 1.429 . S
C850 H874 0.950 . S
C851 C868 1.574 . S
C851 C870 1.368 . S
C851 H875 0.949 . S
H852 C856 0.949 . S
C853 C854 1.349 . S
C853 C855 1.327 . S
C853 H876 0.950 . S
C854 C853 1.349 . S
C854 C866 1.349 . S
C855 C853 1.327 . S
C855 C871 1.429 . S
C855 H877 0.950 . S
C856 H852 0.949 . S
C856 C864 1.574 . S
C856 C872 1.368 . S
H857 C865 0.950 . S
H858 C863 0.950 . S
H859 C864 0.949 . S
H860 C866 0.950 . S
H861 C867 0.950 . S
H862 C868 0.949 . S
C863 H858 0.950 . S
C863 C865 1.327 . S
C863 C869 1.429 . S
C864 C856 1.574 . S
C864 H859 0.949 . S
C864 C870 1.368 . S
C865 C849 1.349 . S
C865 H857 0.950 . S
C865 C863 1.327 . S
C866 C854 1.349 . S
C866 H860 0.950 . S
C866 C867 1.327 . S
C867 H861 0.950 . S
C867 C866 1.327 . S
C867 C871 1.429 . S
C868 C851 1.574 . S
C868 H862 0.949 . S
C868 C872 1.368 . S
C869 C850 1.429 . S
C869 C863 1.429 . S
C869 C870 1.523 . S
C870 C851 1.368 . S
C870 C864 1.368 . S
C870 C869 1.523 . S
C871 C855 1.429 . S
C871 C867 1.429 . S
C871 C872 1.523 . S
C872 C856 1.368 . S
C872 C868 1.368 . S
C872 C871 1.523 . S
H873 C848 0.950 . S
H874 C850 0.950 . S
H875 C851 0.949 . S
H876 C853 0.950 . S
H877 C855 0.950 . S
C878 C879 1.349 . S
C878 C880 1.327 . S
C878 H903 0.950 . S
C879 C878 1.349 . S
C879 C895 1.349 . S
C880 C878 1.327 . S
C880 C899 1.429 . S
C880 H904 0.950 . S
C881 C898 1.574 . S
C881 C900 1.368 . S
C881 H905 0.949 . S
H882 C886 0.949 . S
C883 C884 1.349 . S
C883 C885 1.327 . S
C883 H906 0.950 . S
C884 C883 1.349 . S
C884 C896 1.349 . S
C885 C883 1.327 . S
C885 C901 1.429 . S
C885 H907 0.950 . S
C886 H882 0.949 . S
C886 C894 1.574 . S
C886 C902 1.368 . S
H887 C895 0.950 . S
H888 C893 0.950 . S
H889 C894 0.949 . S
H890 C896 0.950 . S
H891 C897 0.950 . S
H892 C898 0.949 . S
C893 H888 0.950 . S
C893 C895 1.327 . S
C893 C899 1.429 . S
C894 C886 1.574 . S
C894 H889 0.949 . S
C894 C900 1.368 . S
C895 C879 1.349 . S
C895 H887 0.950 . S
C895 C893 1.327 . S
C896 C884 1.349 . S
C896 H890 0.950 . S
C896 C897 1.327 . S
C897 H891 0.950 . S
C897 C896 1.327 . S
C897 C901 1.429 . S
C898 C881 1.574 . S
C898 H892 0.949 . S
C898 C902 1.368 . S
C899 C880 1.429 . S
C899 C893 1.429 . S
C899 C900 1.523 . S
C900 C881 1.368 . S
C900 C894 1.368 . S
C900 C899 1.523 . S
C901 C885 1.429 . S
C901 C897 1.429 . S
C901 C902 1.523 . S
C902 C886 1.368 . S
C902 C898 1.368 . S
C902 C901 1.523 . S
H903 C878 0.950 . S
H904 C880 0.950 . S
H905 C881 0.949 . S
H906 C883 0.950 . S
H907 C885 0.950 . S
C908 C909 1.349 . S
C908 C910 1.327 . S
C908 H933 0.950 . S
C909 C908 1.349 . S
C909 C925 1.349 . S
C910 C908 1.327 . S
C910 C929 1.429 . S
C910 H934 0.950 . S
C911 C928 1.574 . S
C911 C930 1.368 . S
C911 H935 0.949 . S
H912 C916 0.949 . S
C913 C914 1.349 . S
C913 C915 1.327 . S
C913 H936 0.950 . S
C914 C913 1.349 . S
C914 C926 1.349 . S
C915 C913 1.327 . S
C915 C931 1.429 . S
C915 H937 0.950 . S
C916 H912 0.949 . S
C916 C924 1.574 . S
C916 C932 1.368 . S
H917 C925 0.950 . S
H918 C923 0.950 . S
H919 C924 0.949 . S
H920 C926 0.950 . S
H921 C927 0.950 . S
H922 C928 0.949 . S
C923 H918 0.950 . S
C923 C925 1.327 . S
C923 C929 1.429 . S
C924 C916 1.574 . S
C924 H919 0.949 . S
C924 C930 1.368 . S
C925 C909 1.349 . S
C925 H917 0.950 . S
C925 C923 1.327 . S
C926 C914 1.349 . S
C926 H920 0.950 . S
C926 C927 1.327 . S
C927 H921 0.950 . S
C927 C926 1.327 . S
C927 C931 1.429 . S
C928 C911 1.574 . S
C928 H922 0.949 . S
C928 C932 1.368 . S
C929 C910 1.429 . S
C929 C923 1.429 . S
C929 C930 1.523 . S
C930 C911 1.368 . S
C930 C924 1.368 . S
C930 C929 1.523 . S
C931 C915 1.429 . S
C931 C927 1.429 . S
C931 C932 1.523 . S
C932 C916 1.368 . S
C932 C928 1.368 . S
C932 C931 1.523 . S
H933 C908 0.950 . S
H934 C910 0.950 . S
H935 C911 0.949 . S
H936 C913 0.950 . S
H937 C915 0.950 . S
C938 C939 1.349 . S
C938 C940 1.327 . S
C938 H963 0.950 . S
C939 C938 1.349 . S
C939 C955 1.349 . S
C940 C938 1.327 . S
C940 C959 1.429 . S
C940 H964 0.950 . S
C941 C958 1.574 . S
C941 C960 1.368 . S
C941 H965 0.949 . S
H942 C946 0.949 . S
C943 C944 1.349 . S
C943 C945 1.327 . S
C943 H966 0.950 . S
C944 C943 1.349 . S
C944 C956 1.349 . S
C945 C943 1.327 . S
C945 C961 1.429 . S
C945 H967 0.950 . S
C946 H942 0.949 . S
C946 C954 1.574 . S
C946 C962 1.368 . S
H947 C955 0.950 . S
H948 C953 0.950 . S
H949 C954 0.949 . S
H950 C956 0.950 . S
H951 C957 0.950 . S
H952 C958 0.949 . S
C953 H948 0.950 . S
C953 C955 1.327 . S
C953 C959 1.429 . S
C954 C946 1.574 . S
C954 H949 0.949 . S
C954 C960 1.368 . S
C955 C939 1.349 . S
C955 H947 0.950 . S
C955 C953 1.327 . S
C956 C944 1.349 . S
C956 H950 0.950 . S
C956 C957 1.327 . S
C957 H951 0.950 . S
C957 C956 1.327 . S
C957 C961 1.429 . S
C958 C941 1.574 . S
C958 H952 0.949 . S
C958 C962 1.368 . S
C959 C940 1.429 . S
C959 C953 1.429 . S
C959 C960 1.523 . S
C960 C941 1.368 . S
C960 C954 1.368 . S
C960 C959 1.523 . S
C961 C945 1.429 . S
C961 C957 1.429 . S
C961 C962 1.523 . S
C962 C946 1.368 . S
C962 C958 1.368 . S
C962 C961 1.523 . S
H963 C938 0.950 . S
H964 C940 0.950 . S
H965 C941 0.949 . S
H966 C943 0.950 . S
H967 C945 0.950 . S
C968 C969 1.349 . S
C968 C970 1.327 . S
C968 H993 0.950 . S
C969 C968 1.349 . S
C969 C985 1.349 . S
C970 C968 1.327 . S
C970 C989 1.429 . S
C970 H994 0.950 . S
C971 C988 1.574 . S
C971 C990 1.368 . S
C971 H995 0.949 . S
H972 C976 0.949 . S
C973 C974 1.349 . S
C973 C975 1.327 . S
C973 H996 0.950 . S
C974 C973 1.349 . S
C974 C986 1.349 . S
C975 C973 1.327 . S
C975 C991 1.429 . S
C975 H997 0.950 . S
C976 H972 0.949 . S
C976 C984 1.574 . S
C976 C992 1.368 . S
H977 C985 0.950 . S
H978 C983 0.950 . S
H979 C984 0.949 . S
H980 C986 0.950 . S
H981 C987 0.950 . S
H982 C988 0.949 . S
C983 H978 0.950 . S
C983 C985 1.327 . S
C983 C989 1.429 . S
C984 C976 1.574 . S
C984 H979 0.949 . S
C984 C990 1.368 . S
C985 C969 1.349 . S
C985 H977 0.950 . S
C985 C983 1.327 . S
C986 C974 1.349 . S
C986 H980 0.950 . S
C986 C987 1.327 . S
C987 H981 0.950 . S
C987 C986 1.327 . S
C987 C991 1.429 . S
C988 C971 1.574 . S
C988 H982 0.949 . S
C988 C992 1.368 . S
C989 C970 1.429 . S
C989 C983 1.429 . S
C989 C990 1.523 . S
C990 C971 1.368 . S
C990 C984 1.368 . S
C990 C989 1.523 . S
C991 C975 1.429 . S
C991 C987 1.429 . S
C991 C992 1.523 . S
C992 C976 1.368 . S
C992 C988 1.368 . S
C992 C991 1.523 . S
H993 C968 0.950 . S
H994 C970 0.950 . S
H995 C971 0.949 . S
H996 C973 0.950 . S
H997 C975 0.950 . S
C998 C999 1.349 . S
C998 C1000 1.327 . S
C998 H1023 0.950 . S
C999 C998 1.349 . S
C999 C1015 1.349 . S
C1000 C998 1.327 . S
C1000 C1019 1.429 . S
C1000 H1024 0.950 . S
C1001 C1018 1.574 . S
C1001 C1020 1.368 . S
C1001 H1025 0.949 . S
H1002 C1006 0.949 . S
C1003 C1004 1.349 . S
C1003 C1005 1.327 . S
C1003 H1026 0.950 . S
C1004 C1003 1.349 . S
C1004 C1016 1.349 . S
C1005 C1003 1.327 . S
C1005 C1021 1.429 . S
C1005 H1027 0.950 . S
C1006 H1002 0.949 . S
C1006 C1014 1.574 . S
C1006 C1022 1.368 . S
H1007 C1015 0.950 . S
H1008 C1013 0.950 . S
H1009 C1014 0.949 . S
H1010 C1016 0.950 . S
H1011 C1017 0.950 . S
H1012 C1018 0.949 . S
C1013 H1008 0.950 . S
C1013 C1015 1.327 . S
C1013 C1019 1.429 . S
C1014 C1006 1.574 . S
C1014 H1009 0.949 . S
C1014 C1020 1.368 . S
C1015 C999 1.349 . S
C1015 H1007 0.950 . S
C1015 C1013 1.327 . S
C1016 C1004 1.349 . S
C1016 H1010 0.950 . S
C1016 C1017 1.327 . S
C1017 H1011 0.950 . S
C1017 C1016 1.327 . S
C1017 C1021 1.429 . S
C1018 C1001 1.574 . S
C1018 H1012 0.949 . S
C1018 C1022 1.368 . S
C1019 C1000 1.429 . S
C1019 C1013 1.429 . S
C1019 C1020 1.523 . S
C1020 C1001 1.368 . S
C1020 C1014 1.368 . S
C1020 C1019 1.523 . S
C1021 C1005 1.429 . S
C1021 C1017 1.429 . S
C1021 C1022 1.523 . S
C1022 C1006 1.368 . S
C1022 C1018 1.368 . S
C1022 C1021 1.523 . S
H1023 C998 0.950 . S
H1024 C1000 0.950 . S
H1025 C1001 0.949 . S
H1026 C1003 0.950 . S
H1027 C1005 0.950 . S
C1028 C1029 1.349 . S
C1028 C1030 1.327 . S
C1028 H1053 0.950 . S
C1029 C1028 1.349 . S
C1029 C1045 1.349 . S
C1030 C1028 1.327 . S
C1030 C1049 1.429 . S
C1030 H1054 0.950 . S
C1031 C1048 1.574 . S
C1031 C1050 1.368 . S
C1031 H1055 0.949 . S
H1032 C1036 0.949 . S
C1033 C1034 1.349 . S
C1033 C1035 1.327 . S
C1033 H1056 0.950 . S
C1034 C1033 1.349 . S
C1034 C1046 1.349 . S
C1035 C1033 1.327 . S
C1035 C1051 1.429 . S
C1035 H1057 0.950 . S
C1036 H1032 0.949 . S
C1036 C1044 1.574 . S
C1036 C1052 1.368 . S
H1037 C1045 0.950 . S
H1038 C1043 0.950 . S
H1039 C1044 0.949 . S
H1040 C1046 0.950 . S
H1041 C1047 0.950 . S
H1042 C1048 0.949 . S
C1043 H1038 0.950 . S
C1043 C1045 1.327 . S
C1043 C1049 1.429 . S
C1044 C1036 1.574 . S
C1044 H1039 0.949 . S
C1044 C1050 1.368 . S
C1045 C1029 1.349 . S
C1045 H1037 0.950 . S
C1045 C1043 1.327 . S
C1046 C1034 1.349 . S
C1046 H1040 0.950 . S
C1046 C1047 1.327 . S
C1047 H1041 0.950 . S
C1047 C1046 1.327 . S
C1047 C1051 1.429 . S
C1048 C1031 1.574 . S
C1048 H1042 0.949 . S
C1048 C1052 1.368 . S
C1049 C1030 1.429 . S
C1049 C1043 1.429 . S
C1049 C1050 1.523 . S
C1050 C1031 1.368 . S
C1050 C1044 1.368 . S
C1050 C1049 1.523 . S
C1051 C1035 1.429 . S
C1051 C1047 1.429 . S
C1051 C1052 1.523 . S
C1052 C1036 1.368 . S
C1052 C1048 1.368 . S
C1052 C1051 1.523 . S
H1053 C1028 0.950 . S
H1054 C1030 0.950 . S
H1055 C1031 0.949 . S
H1056 C1033 0.950 . S
H1057 C1035 0.950 . S
C1058 C1059 1.349 . S
C1058 C1060 1.327 . S
C1058 H1083 0.950 . S
C1059 C1058 1.349 . S
C1059 C1075 1.349 . S
C1060 C1058 1.327 . S
C1060 C1079 1.429 . S
C1060 H1084 0.950 . S
C1061 C1078 1.574 . S
C1061 C1080 1.368 . S
C1061 H1085 0.949 . S
H1062 C1066 0.949 . S
C1063 C1064 1.349 . S
C1063 C1065 1.327 . S
C1063 H1086 0.950 . S
C1064 C1063 1.349 . S
C1064 C1076 1.349 . S
C1065 C1063 1.327 . S
C1065 C1081 1.429 . S
C1065 H1087 0.950 . S
C1066 H1062 0.949 . S
C1066 C1074 1.574 . S
C1066 C1082 1.368 . S
H1067 C1075 0.950 . S
H1068 C1073 0.950 . S
H1069 C1074 0.949 . S
H1070 C1076 0.950 . S
H1071 C1077 0.950 . S
H1072 C1078 0.949 . S
C1073 H1068 0.950 . S
C1073 C1075 1.327 . S
C1073 C1079 1.429 . S
C1074 C1066 1.574 . S
C1074 H1069 0.949 . S
C1074 C1080 1.368 . S
C1075 C1059 1.349 . S
C1075 H1067 0.950 . S
C1075 C1073 1.327 . S
C1076 C1064 1.349 . S
C1076 H1070 0.950 . S
C1076 C1077 1.327 . S
C1077 H1071 0.950 . S
C1077 C1076 1.327 . S
C1077 C1081 1.429 . S
C1078 C1061 1.574 . S
C1078 H1072 0.949 . S
C1078 C1082 1.368 . S
C1079 C1060 1.429 . S
C1079 C1073 1.429 . S
C1079 C1080 1.523 . S
C1080 C1061 1.368 . S
C1080 C1074 1.368 . S
C1080 C1079 1.523 . S
C1081 C1065 1.429 . S
C1081 C1077 1.429 . S
C1081 C1082 1.523 . S
C1082 C1066 1.368 . S
C1082 C1078 1.368 . S
C1082 C1081 1.523 . S
H1083 C1058 0.950 . S
H1084 C1060 0.950 . S
H1085 C1061 0.949 . S
H1086 C1063 0.950 . S
H1087 C1065 0.950 . S
C1088 C1089 1.349 . S
C1088 C1090 1.327 . S
C1088 H1113 0.950 . S
C1089 C1088 1.349 . S
C1089 C1105 1.349 . S
C1090 C1088 1.327 . S
C1090 C1109 1.429 . S
C1090 H1114 0.950 . S
C1091 C1108 1.574 . S
C1091 C1110 1.368 . S
C1091 H1115 0.949 . S
H1092 C1096 0.949 . S
C1093 C1094 1.349 . S
C1093 C1095 1.327 . S
C1093 H1116 0.950 . S
C1094 C1093 1.349 . S
C1094 C1106 1.349 . S
C1095 C1093 1.327 . S
C1095 C1111 1.429 . S
C1095 H1117 0.950 . S
C1096 H1092 0.949 . S
C1096 C1104 1.574 . S
C1096 C1112 1.368 . S
H1097 C1105 0.950 . S
H1098 C1103 0.950 . S
H1099 C1104 0.949 . S
H1100 C1106 0.950 . S
H1101 C1107 0.950 . S
H1102 C1108 0.949 . S
C1103 H1098 0.950 . S
C1103 C1105 1.327 . S
C1103 C1109 1.429 . S
C1104 C1096 1.574 . S
C1104 H1099 0.949 . S
C1104 C1110 1.368 . S
C1105 C1089 1.349 . S
C1105 H1097 0.950 . S
C1105 C1103 1.327 . S
C1106 C1094 1.349 . S
C1106 H1100 0.950 . S
C1106 C1107 1.327 . S
C1107 H1101 0.950 . S
C1107 C1106 1.327 . S
C1107 C1111 1.429 . S
C1108 C1091 1.574 . S
C1108 H1102 0.949 . S
C1108 C1112 1.368 . S
C1109 C1090 1.429 . S
C1109 C1103 1.429 . S
C1109 C1110 1.523 . S
C1110 C1091 1.368 . S
C1110 C1104 1.368 . S
C1110 C1109 1.523 . S
C1111 C1095 1.429 . S
C1111 C1107 1.429 . S
C1111 C1112 1.523 . S
C1112 C1096 1.368 . S
C1112 C1108 1.368 . S
C1112 C1111 1.523 . S
H1113 C1088 0.950 . S
H1114 C1090 0.950 . S
H1115 C1091 0.949 . S
H1116 C1093 0.950 . S
H1117 C1095 0.950 . S
C1118 C1119 1.349 . S
C1118 C1120 1.327 . S
C1118 H1143 0.950 . S
C1119 C1118 1.349 . S
C1119 C1135 1.349 . S
C1120 C1118 1.327 . S
C1120 C1139 1.429 . S
C1120 H1144 0.950 . S
C1121 C1138 1.574 . S
C1121 C1140 1.368 . S
C1121 H1145 0.949 . S
H1122 C1126 0.949 . S
C1123 C1124 1.349 . S
C1123 C1125 1.327 . S
C1123 H1146 0.950 . S
C1124 C1123 1.349 . S
C1124 C1136 1.349 . S
C1125 C1123 1.327 . S
C1125 C1141 1.429 . S
C1125 H1147 0.950 . S
C1126 H1122 0.949 . S
C1126 C1134 1.574 . S
C1126 C1142 1.368 . S
H1127 C1135 0.950 . S
H1128 C1133 0.950 . S
H1129 C1134 0.949 . S
H1130 C1136 0.950 . S
H1131 C1137 0.950 . S
H1132 C1138 0.949 . S
C1133 H1128 0.950 . S
C1133 C1135 1.327 . S
C1133 C1139 1.429 . S
C1134 C1126 1.574 . S
C1134 H1129 0.949 . S
C1134 C1140 1.368 . S
C1135 C1119 1.349 . S
C1135 H1127 0.950 . S
C1135 C1133 1.327 . S
C1136 C1124 1.349 . S
C1136 H1130 0.950 . S
C1136 C1137 1.327 . S
C1137 H1131 0.950 . S
C1137 C1136 1.327 . S
C1137 C1141 1.429 . S
C1138 C1121 1.574 . S
C1138 H1132 0.949 . S
C1138 C1142 1.368 . S
C1139 C1120 1.429 . S
C1139 C1133 1.429 . S
C1139 C1140 1.523 . S
C1140 C1121 1.368 . S
C1140 C1134 1.368 . S
C1140 C1139 1.523 . S
C1141 C1125 1.429 . S
C1141 C1137 1.429 . S
C1141 C1142 1.523 . S
C1142 C1126 1.368 . S
C1142 C1138 1.368 . S
C1142 C1141 1.523 . S
H1143 C1118 0.950 . S
H1144 C1120 0.950 . S
H1145 C1121 0.949 . S
H1146 C1123 0.950 . S
H1147 C1125 0.950 . S
C434 C327 1.544 . S
C429 C15 1.592 . S
C464 C346 1.550 . S
C459 C55 1.599 . S
C494 C336 1.602 . S
C489 C101 1.624 . S
C524 C352 1.622 . S
C519 C141 1.680 . S
C554 C363 1.522 . S
C549 C2 1.556 . S
C584 C388 1.487 . S
C579 C61 1.527 . S
C609 C95 1.664 . S
C614 C406 1.592 . S
C644 C426 1.484 . S
C639 C135 1.546 . S
C674 C372 1.515 . S
C669 C42 1.544 . S
C699 C82 1.529 . S
C704 C382 1.498 . S
C734 C400 1.604 . S
C729 C122 1.675 . S
C764 C417 1.488 . S
C759 C21 1.529 . S
C789 C162 1.714 . S
C794 C345 1.642 . S
C824 C328 1.620 . S
C819 C221 1.678 . S
C849 C255 1.645 . S
C854 C354 1.565 . S
C879 C282 1.609 . S
C884 C334 1.574 . S
C914 C408 1.635 . S
C909 C181 1.747 . S
C944 C418 1.503 . S
C939 C202 1.562 . S
C974 C364 1.542 . S
C969 C242 1.611 . S
C999 C301 1.545 . S
C1004 C381 1.497 . S
C1034 C399 1.620 . S
C1029 C215 1.716 . S
C1064 C424 1.502 . S
C1059 C261 1.566 . S
C1094 C370 1.554 . S
C1089 C295 1.620 . S
C1119 C175 1.564 . S
C1124 C390 1.490 . S
