# Generated by pormake.
# Topology csq, (4,8)-cn, num edge types: 1
# Building blocks:
#     Node 0, Type 0, BuildingBlock: MUDLON_clean_linker_0, # of connection points: 4
#     Node 1, Type 0, BuildingBlock: MUDLON_clean_linker_0, # of connection points: 4
#     Node 2, Type 0, BuildingBlock: MUDLON_clean_linker_0, # of connection points: 4
#     Node 3, Type 0, BuildingBlock: MUDLON_clean_linker_0, # of connection points: 4
#     Node 4, Type 0, BuildingBlock: MUDLON_clean_linker_0, # of connection points: 4
#     Node 5, Type 0, BuildingBlock: MUDLON_clean_linker_0, # of connection points: 4
#     Node 6, Type 1, BuildingBlock: TAGTUT_clean_sbu_1, # of connection points: 8
#     Node 7, Type 1, BuildingBlock: TAGTUT_clean_sbu_1, # of connection points: 8
#     Node 8, Type 1, BuildingBlock: TAGTUT_clean_sbu_1, # of connection points: 8
#     Edge 9, Type (0, 1), BuildingBlock: XIVTED_clean_linker_0, # of connection points: 2
#     Edge 10, Type (0, 1), BuildingBlock: XIVTED_clean_linker_0, # of connection points: 2
#     Edge 11, Type (0, 1), BuildingBlock: XIVTED_clean_linker_0, # of connection points: 2
#     Edge 12, Type (0, 1), BuildingBlock: XIVTED_clean_linker_0, # of connection points: 2
#     Edge 13, Type (0, 1), BuildingBlock: XIVTED_clean_linker_0, # of connection points: 2
#     Edge 14, Type (0, 1), BuildingBlock: XIVTED_clean_linker_0, # of connection points: 2
#     Edge 15, Type (0, 1), BuildingBlock: XIVTED_clean_linker_0, # of connection points: 2
#     Edge 16, Type (0, 1), BuildingBlock: XIVTED_clean_linker_0, # of connection points: 2
#     Edge 17, Type (0, 1), BuildingBlock: XIVTED_clean_linker_0, # of connection points: 2
#     Edge 18, Type (0, 1), BuildingBlock: XIVTED_clean_linker_0, # of connection points: 2
#     Edge 19, Type (0, 1), BuildingBlock: XIVTED_clean_linker_0, # of connection points: 2
#     Edge 20, Type (0, 1), BuildingBlock: XIVTED_clean_linker_0, # of connection points: 2
#     Edge 21, Type (0, 1), BuildingBlock: XIVTED_clean_linker_0, # of connection points: 2
#     Edge 22, Type (0, 1), BuildingBlock: XIVTED_clean_linker_0, # of connection points: 2
#     Edge 23, Type (0, 1), BuildingBlock: XIVTED_clean_linker_0, # of connection points: 2
#     Edge 24, Type (0, 1), BuildingBlock: XIVTED_clean_linker_0, # of connection points: 2
#     Edge 25, Type (0, 1), BuildingBlock: XIVTED_clean_linker_0, # of connection points: 2
#     Edge 26, Type (0, 1), BuildingBlock: XIVTED_clean_linker_0, # of connection points: 2
#     Edge 27, Type (0, 1), BuildingBlock: XIVTED_clean_linker_0, # of connection points: 2
#     Edge 28, Type (0, 1), BuildingBlock: XIVTED_clean_linker_0, # of connection points: 2
#     Edge 29, Type (0, 1), BuildingBlock: XIVTED_clean_linker_0, # of connection points: 2
#     Edge 30, Type (0, 1), BuildingBlock: XIVTED_clean_linker_0, # of connection points: 2
#     Edge 31, Type (0, 1), BuildingBlock: XIVTED_clean_linker_0, # of connection points: 2
#     Edge 32, Type (0, 1), BuildingBlock: XIVTED_clean_linker_0, # of connection points: 2
# Relax obj value: 0.046
# Max RMSD: 0.134
# Mean RMSD: 0.093
data_MOF--net-csq--node1-TAGTUT_clean_sbu_1--node2-MUDLON_clean_linker_0--edge1-XIVTED_clean_linker_0
_symmetry_space_group_name_H-M    P1
_symmetry_Int_Tables_number       1
_symmetry_cell_setting            triclinic
loop_
_symmetry_equiv_pos_as_xyz
'x, y, z'
_cell_length_a     70.516618
_cell_length_b     69.665652
_cell_length_c     23.749198
_cell_angle_alpha  92.733492
_cell_angle_beta   92.446382
_cell_angle_gamma 119.95144
loop_
_atom_site_label
_atom_site_type_symbol
_atom_site_fract_x
_atom_site_fract_y
_atom_site_fract_z
_atom_type_partial_charge
H0 H 0.33777 0.49823 0.18892 0.0
N1 N 0.30157 0.46021 0.14179 0.0
H2 H 0.35747 0.50274 0.27979 0.0
H3 H 0.29136 0.43038 0.21733 0.0
H4 H 0.31018 0.435 0.31009 0.0
H5 H 0.30907 0.43339 0.07588 0.0
H6 H 0.331 0.44254 0.99388 0.0
H7 H 0.32194 0.50068 0.09727 0.0
H8 H 0.34404 0.51011 0.01506 0.0
H9 H 0.29914 0.49631 0.18182 0.0
H10 H 0.26131 0.42965 0.10321 0.0
H11 H 0.2653 0.49747 0.19316 0.0
H12 H 0.22753 0.43082 0.11241 0.0
H13 H 0.17557 0.49762 0.23425 0.0
H14 H 0.15961 0.50468 0.31587 0.0
H15 H 0.11466 0.43385 0.31698 0.0
H16 H 0.12912 0.42766 0.23111 0.0
H17 H 0.14866 0.43238 0.0769 0.0
H18 H 0.13729 0.43924 0.98522 0.0
H19 H 0.14259 0.49976 0.06008 0.0
H20 H 0.15558 0.4937 0.1494 0.0
H21 H 0.1983 0.49506 0.15377 0.0
H22 H 0.23397 0.4975 0.14419 0.0
H23 H 0.20633 0.42982 0.1899 0.0
N24 N 0.16017 0.45772 0.17326 0.0
H25 H 0.17078 0.42743 0.19729 0.0
C26 C 0.31338 0.46372 0.19579 0.0
C27 C 0.33177 0.4843 0.21481 0.0
C28 C 0.34284 0.48694 0.26742 0.0
C29 C 0.33552 0.4692 0.30251 0.0
C30 C 0.31661 0.4489 0.28392 0.0
C31 C 0.30577 0.4462 0.23103 0.0
C32 C 0.31399 0.4663 0.09267 0.0
C33 C 0.31656 0.45011 0.06247 0.0
C34 C 0.32895 0.45536 0.01547 0.0
C35 C 0.3392 0.47705 0.99777 0.0
C36 C 0.33646 0.4933 0.02786 0.0
C37 C 0.32384 0.48794 0.07478 0.0
C38 C 0.28256 0.46273 0.14213 0.0
C39 C 0.28356 0.48208 0.16613 0.0
C40 C 0.26422 0.48272 0.17248 0.0
C41 C 0.24368 0.46407 0.1547 0.0
C42 C 0.243 0.44525 0.12801 0.0
C43 C 0.26225 0.4446 0.12205 0.0
C44 C 0.15279 0.4622 0.22526 0.0
C45 C 0.16198 0.48373 0.25165 0.0
C46 C 0.15301 0.48763 0.29933 0.0
C47 C 0.1353 0.46992 0.32332 0.0
C48 C 0.12749 0.44816 0.29897 0.0
C49 C 0.13591 0.44445 0.25008 0.0
C50 C 0.15261 0.46215 0.12063 0.0
C51 C 0.14737 0.44713 0.07326 0.0
C52 C 0.14076 0.45107 0.02088 0.0
C53 C 0.13878 0.47002 0.01479 0.0
C54 C 0.14422 0.48517 0.0624 0.0
C55 C 0.15135 0.48147 0.11442 0.0
C56 C 0.18196 0.46093 0.17573 0.0
C57 C 0.20012 0.48092 0.16237 0.0
C58 C 0.22045 0.48227 0.15696 0.0
C59 C 0.22287 0.46369 0.16515 0.0
C60 C 0.20489 0.44422 0.18172 0.0
C61 C 0.18465 0.44287 0.18669 0.0
H62 H 0.69484 0.10511 0.22384 0.0
N63 N 0.70846 0.13948 0.16123 0.0
H64 H 0.67886 0.10062 0.31499 0.0
H65 H 0.70161 0.16998 0.2201 0.0
H66 H 0.68591 0.16587 0.31193 0.0
H67 H 0.67805 0.15152 0.13204 0.0
H68 H 0.65151 0.13672 0.04996 0.0
H69 H 0.70357 0.10923 0.08042 0.0
H70 H 0.67656 0.09374 -0.00148 0.0
H71 H 0.74669 0.14963 0.21358 0.0
H72 H 0.71708 0.17526 0.09922 0.0
H73 H 0.7822 0.18309 0.20927 0.0
H74 H 0.75257 0.20761 0.09064 0.0
H75 H 0.89427 0.28692 0.18492 0.0
H76 H 0.91579 0.31922 0.25227 0.0
H77 H 0.86183 0.33219 0.24921 0.0
H78 H 0.84018 0.29928 0.18579 0.0
H79 H 0.84574 0.30486 0.08938 0.0
H80 H 0.86308 0.32786 0.01358 0.0
H81 H 0.89344 0.28864 0.97287 0.0
H82 H 0.87722 0.26673 0.05294 0.0
H83 H 0.8468 0.23396 0.14868 0.0
H84 H 0.81094 0.20104 0.15431 0.0
H85 H 0.78022 0.24089 0.13119 0.0
N86 N 0.85574 0.2747 0.13133 0.0
H87 H 0.81588 0.27294 0.12016 0.0
C88 C 0.6993 0.13773 0.21519 0.0
C89 C 0.69296 0.11842 0.24304 0.0
C90 C 0.68406 0.11603 0.29537 0.0
C91 C 0.68126 0.13298 0.32112 0.0
C92 C 0.68772 0.15245 0.29317 0.0
C93 C 0.69669 0.15483 0.24071 0.0
C94 C 0.6927 0.13128 0.11266 0.0
C95 C 0.67784 0.13891 0.10324 0.0
C96 C 0.66263 0.13039 0.05615 0.0
C97 C 0.66177 0.11391 0.01764 0.0
C98 C 0.67691 0.1066 0.02678 0.0
C99 C 0.69222 0.11525 0.07378 0.0
C100 C 0.72914 0.15958 0.15649 0.0
C101 C 0.74791 0.16234 0.18695 0.0
C102 C 0.76827 0.18144 0.18388 0.0
C103 C 0.77052 0.19815 0.14901 0.0
C104 C 0.75161 0.1954 0.11865 0.0
C105 C 0.73113 0.17654 0.12298 0.0
C106 C 0.86571 0.29066 0.17971 0.0
C107 C 0.88692 0.29639 0.20036 0.0
C108 C 0.89931 0.31512 0.23802 0.0
C109 C 0.89082 0.32878 0.25516 0.0
C110 C 0.86899 0.32215 0.23727 0.0
C111 C 0.8565 0.30319 0.20041 0.0
C112 C 0.86063 0.28433 0.07781 0.0
C113 C 0.85581 0.30089 0.06385 0.0
C114 C 0.86572 0.31405 0.01966 0.0
C115 C 0.88021 0.31058 0.98747 0.0
C116 C 0.88305 0.2924 0.99788 0.0
C117 C 0.87352 0.27958 0.04302 0.0
C118 C 0.83415 0.25598 0.13522 0.0
C119 C 0.83224 0.23545 0.14473 0.0
C120 C 0.81168 0.2167 0.14852 0.0
C121 C 0.79247 0.21816 0.14403 0.0
C122 C 0.79448 0.23889 0.13429 0.0
C123 C 0.81506 0.2575 0.12902 0.0
H124 H 0.59558 0.8876 0.9482 0.0
N125 N 0.57853 0.86573 0.03759 0.0
H126 H 0.57569 0.89093 0.86592 0.0
H127 H 0.5343 0.83924 0.00911 0.0
H128 H 0.51419 0.84335 0.92823 0.0
H129 H 0.54305 0.86148 0.09162 0.0
H130 H 0.5422 0.88981 0.15268 0.0
H131 H 0.6125 0.90431 0.07876 0.0
H132 H 0.61166 0.93328 0.13971 0.0
H133 H 0.6078 0.85429 0.01233 0.0
H134 H 0.54864 0.8325 0.09835 0.0
H135 H 0.60782 0.82025 0.03254 0.0
H136 H 0.54895 0.79895 0.12066 0.0
H137 H 0.60364 0.70785 0.09645 0.0
H138 H 0.59861 0.67969 0.02241 0.0
H139 H 0.54951 0.68902 0.93321 0.0
H140 H 0.55452 0.71693 0.00688 0.0
H141 H 0.53479 0.69353 0.08742 0.0
H142 H 0.51412 0.66265 0.14474 0.0
H143 H 0.56791 0.69173 0.27389 0.0
H144 H 0.58885 0.72255 0.21566 0.0
H145 H 0.61273 0.76624 0.11821 0.0
H146 H 0.61329 0.80122 0.10672 0.0
H147 H 0.54269 0.76489 0.07394 0.0
N148 N 0.57832 0.72558 0.10926 0.0
H149 H 0.54225 0.73034 0.08767 0.0
C150 C 0.56648 0.86361 0.98513 0.0
C151 C 0.57787 0.87735 0.94304 0.0
C152 C 0.56648 0.87919 0.89621 0.0
C153 C 0.54342 0.8675 0.89122 0.0
C154 C 0.53197 0.85262 0.93154 0.0
C155 C 0.54346 0.85039 0.97783 0.0
C156 C 0.57801 0.88064 0.08082 0.0
C157 C 0.55827 0.87677 0.10261 0.0
C158 C 0.5577 0.89322 0.137 0.0
C159 C 0.57678 0.91392 0.15024 0.0
C160 C 0.59669 0.91747 0.13034 0.0
C161 C 0.59723 0.90096 0.09581 0.0
C162 C 0.57841 0.84608 0.05398 0.0
C163 C 0.59502 0.84229 0.03634 0.0
C164 C 0.59505 0.8229 0.04825 0.0
C165 C 0.57841 0.80687 0.07842 0.0
C166 C 0.56186 0.81083 0.09675 0.0
C167 C 0.56178 0.8302 0.08439 0.0
C168 C 0.57942 0.71441 0.05784 0.0
C169 C 0.5924 0.70439 0.05983 0.0
C170 C 0.58943 0.68826 0.01769 0.0
C171 C 0.57332 0.68188 0.97283 0.0
C172 C 0.56172 0.69334 0.96807 0.0
C173 C 0.56478 0.70953 0.01005 0.0
C174 C 0.56363 0.71036 0.14714 0.0
C175 C 0.54203 0.6937 0.1286 0.0
C176 C 0.53019 0.67592 0.16121 0.0
C177 C 0.53953 0.67472 0.21328 0.0
C178 C 0.56029 0.69232 0.23393 0.0
C179 C 0.57226 0.70994 0.20091 0.0
C180 C 0.57759 0.7457 0.10364 0.0
C181 C 0.59741 0.76594 0.10895 0.0
C182 C 0.59768 0.78585 0.10201 0.0
C183 C 0.57803 0.78586 0.08909 0.0
C184 C 0.55809 0.76554 0.08462 0.0
C185 C 0.55784 0.74566 0.09206 0.0
H186 H 0.88212 0.57108 0.13567 0.0
N187 N 0.84508 0.54641 0.07148 0.0
H188 H 0.89371 0.56207 0.22447 0.0
H189 H 0.82218 0.50778 0.1228 0.0
H190 H 0.83377 0.49842 0.21135 0.0
H191 H 0.82813 0.50353 0.02665 0.0
H192 H 0.8396 0.49136 0.94376 0.0
H193 H 0.87402 0.57181 0.00116 0.0
H194 H 0.88684 0.55985 0.92003 0.0
H195 H 0.83903 0.57455 0.13651 0.0
H196 H 0.80499 0.51918 0.01057 0.0
H197 H 0.80536 0.57556 0.14666 0.0
H198 H 0.77184 0.52112 0.01737 0.0
H199 H 0.70154 0.58252 0.16054 0.0
H200 H 0.67849 0.5739 0.24035 0.0
H201 H 0.6621 0.50527 0.21762 0.0
H202 H 0.68506 0.51403 0.13797 0.0
H203 H 0.67315 0.516 0.0442 0.0
H204 H 0.65292 0.51156 0.95429 0.0
H205 H 0.6974 0.58064 0.92889 0.0
H206 H 0.71659 0.58513 0.02095 0.0
H207 H 0.74873 0.58755 0.11169 0.0
H208 H 0.7821 0.58559 0.10427 0.0
H209 H 0.74268 0.51415 0.07086 0.0
N210 N 0.70765 0.55472 0.0942 0.0
H211 H 0.70951 0.51676 0.07376 0.0
C212 C 0.85152 0.54006 0.12251 0.0
C213 C 0.87156 0.55519 0.15202 0.0
C214 C 0.87801 0.55008 0.20286 0.0
C215 C 0.86456 0.52959 0.225 0.0
C216 C 0.8445 0.51428 0.19509 0.0
C217 C 0.83793 0.51954 0.14442 0.0
C218 C 0.85011 0.53868 0.01985 0.0
C219 C 0.84061 0.51595 0.00296 0.0
C220 C 0.84742 0.509 0.95564 0.0
C221 C 0.8644 0.52455 0.92508 0.0
C222 C 0.8735 0.54733 0.94155 0.0
C223 C 0.86633 0.55425 0.98824 0.0
C224 C 0.82486 0.54693 0.0729 0.0
C225 C 0.82438 0.56281 0.11044 0.0
C226 C 0.80508 0.56345 0.11583 0.0
C227 C 0.78572 0.54848 0.08265 0.0
C228 C 0.78623 0.53266 0.04451 0.0
C229 C 0.80548 0.5317 0.04008 0.0
C230 C 0.69504 0.54903 0.14312 0.0
C231 C 0.69313 0.56568 0.17326 0.0
C232 C 0.68005 0.56072 0.21897 0.0
C233 C 0.66845 0.53887 0.23539 0.0
C234 C 0.67065 0.52222 0.2057 0.0
C235 C 0.68389 0.52725 0.16013 0.0
C236 C 0.69604 0.55112 0.03992 0.0
C237 C 0.67844 0.53022 0.01956 0.0
C238 C 0.66707 0.52764 0.96746 0.0
C239 C 0.67335 0.54579 0.93415 0.0
C240 C 0.69169 0.56641 0.95376 0.0
C241 C 0.70277 0.56902 0.00621 0.0
C242 C 0.72675 0.55234 0.0946 0.0
C243 C 0.74742 0.57149 0.10327 0.0
C244 C 0.76647 0.57026 0.09929 0.0
C245 C 0.76527 0.54966 0.0874 0.0
C246 C 0.74438 0.53035 0.0794 0.0
C247 C 0.72529 0.53172 0.08222 0.0
H248 H 0.16136 0.68706 0.15948 0.0
N249 N 0.15331 0.71826 0.11572 0.0
H250 H 0.1437 0.66549 0.23714 0.0
H251 H 0.13397 0.72912 0.19466 0.0
H252 H 0.11737 0.70853 0.27637 0.0
H253 H 0.11515 0.70803 0.06352 0.0
H254 H 0.09196 0.67589 0.99732 0.0
H255 H 0.16629 0.69137 0.0631 0.0
H256 H 0.14268 0.65811 0.00081 0.0
H257 H 0.19284 0.72053 0.1418 0.0
H258 H 0.16283 0.75589 0.07237 0.0
H259 H 0.22924 0.7524 0.13214 0.0
H260 H 0.19903 0.78747 0.06032 0.0
H261 H 0.32088 0.835 0.13601 0.0
H262 H 0.34773 0.85562 0.21672 0.0
H263 H 0.33827 0.91165 0.19533 0.0
H264 H 0.31223 0.89119 0.11385 0.0
H265 H 0.28346 0.85753 0.97505 0.0
H266 H 0.29832 0.86299 0.88247 0.0
H267 H 0.35105 0.85392 0.95005 0.0
H268 H 0.33502 0.84678 0.04068 0.0
H269 H 0.29062 0.80772 0.05449 0.0
H270 H 0.25508 0.77434 0.06501 0.0
H271 H 0.22893 0.81613 0.11876 0.0
N272 N 0.29975 0.85062 0.06985 0.0
H273 H 0.26409 0.84907 0.10586 0.0
C274 C 0.14858 0.7095 0.17035 0.0
C275 C 0.15217 0.69222 0.18515 0.0
C276 C 0.14208 0.67987 0.2304 0.0
C277 C 0.12856 0.68483 0.26271 0.0
C278 C 0.127 0.70368 0.25139 0.0
C279 C 0.13677 0.71574 0.20528 0.0
C280 C 0.1422 0.70187 0.06881 0.0
C281 C 0.1214 0.69748 0.04855 0.0
C282 C 0.10805 0.67884 0.01157 0.0
C283 C 0.11508 0.66386 0.99498 0.0
C284 C 0.13659 0.66914 0.01256 0.0
C285 C 0.15014 0.68813 0.04861 0.0
C286 C 0.1751 0.73606 0.10862 0.0
C287 C 0.19404 0.73508 0.12424 0.0
C288 C 0.21489 0.75329 0.11826 0.0
C289 C 0.21709 0.77264 0.09617 0.0
C290 C 0.198 0.77311 0.07888 0.0
C291 C 0.1773 0.75505 0.08529 0.0
C292 C 0.31495 0.86184 0.11858 0.0
C293 C 0.3247 0.85174 0.14887 0.0
C294 C 0.33986 0.86347 0.19527 0.0
C295 C 0.34535 0.8854 0.21222 0.0
C296 C 0.33484 0.89501 0.18277 0.0
C297 C 0.31991 0.88337 0.13636 0.0
C298 C 0.30833 0.85226 0.01512 0.0
C299 C 0.29806 0.85643 0.9694 0.0
C300 C 0.30673 0.85974 0.91661 0.0
C301 C 0.32624 0.85938 0.90853 0.0
C302 C 0.33595 0.85418 0.95402 0.0
C303 C 0.32694 0.85039 0.00653 0.0
C304 C 0.2797 0.83074 0.07876 0.0
C305 C 0.27715 0.80953 0.0685 0.0
C306 C 0.2569 0.79053 0.07487 0.0
C307 C 0.23904 0.79254 0.09199 0.0
C308 C 0.2421 0.81392 0.10409 0.0
C309 C 0.26219 0.83277 0.09725 0.0
H310 H 0.55116 0.37634 0.17511 0.0
N311 N 0.52579 0.33303 0.18123 0.0
H312 H 0.54729 0.39864 0.10453 0.0
H313 H 0.50374 0.31649 0.07565 0.0
H314 H 0.50056 0.33854 0.0039 0.0
H315 H 0.48412 0.32619 0.16175 0.0
H316 H 0.46654 0.34043 0.22436 0.0
H317 H 0.53687 0.34581 0.29052 0.0
H318 H 0.51868 0.35914 0.35432 0.0
H319 H 0.5581 0.32431 0.19178 0.0
H320 H 0.48821 0.29292 0.15393 0.0
H321 H 0.5557 0.28813 0.18334 0.0
H322 H 0.48566 0.2567 0.14215 0.0
H323 H 0.54417 0.16966 0.1411 0.0
H324 H 0.53206 0.13656 0.0783 0.0
H325 H 0.47121 0.13549 0.03509 0.0
H326 H 0.48315 0.16794 0.10205 0.0
H327 H 0.47991 0.15998 0.20778 0.0
H328 H 0.47193 0.13799 0.28881 0.0
H329 H 0.54164 0.16788 0.33351 0.0
H330 H 0.54919 0.19141 0.25533 0.0
H331 H 0.54991 0.22357 0.12785 0.0
H332 H 0.55002 0.25848 0.12072 0.0
H333 H 0.48756 0.23002 0.19494 0.0
N334 N 0.52068 0.18749 0.173 0.0
H335 H 0.48696 0.19505 0.19823 0.0
C336 C 0.52769 0.34478 0.13142 0.0
C337 C 0.54062 0.36802 0.13692 0.0
C338 C 0.53834 0.38073 0.09644 0.0
C339 C 0.52323 0.37038 0.04905 0.0
C340 C 0.51188 0.34704 0.04075 0.0
C341 C 0.51394 0.33434 0.08168 0.0
C342 C 0.51213 0.33538 0.22128 0.0
C343 C 0.49157 0.33285 0.20408 0.0
C344 C 0.48151 0.34099 0.23975 0.0
C345 C 0.49143 0.35098 0.29364 0.0
C346 C 0.51075 0.35141 0.31286 0.0
C347 C 0.52109 0.34379 0.27669 0.0
C348 C 0.52347 0.31133 0.17339 0.0
C349 C 0.54228 0.30956 0.18079 0.0
C350 C 0.54085 0.28886 0.17534 0.0
C351 C 0.52048 0.26939 0.16158 0.0
C352 C 0.50158 0.27125 0.15343 0.0
C353 C 0.50302 0.292 0.15977 0.0
C354 C 0.51472 0.17133 0.12584 0.0
C355 C 0.52845 0.16254 0.11695 0.0
C356 C 0.52142 0.14356 0.08073 0.0
C357 C 0.50053 0.1331 0.05123 0.0
C358 C 0.4872 0.14273 0.05782 0.0
C359 C 0.49414 0.16156 0.09531 0.0
C360 C 0.51523 0.17775 0.22625 0.0
C361 C 0.49342 0.1627 0.23677 0.0
C362 C 0.48891 0.14965 0.28255 0.0
C363 C 0.50611 0.15068 0.31734 0.0
C364 C 0.52787 0.16669 0.30842 0.0
C365 C 0.5323 0.18019 0.26358 0.0
C366 C 0.51878 0.20681 0.16458 0.0
C367 C 0.53612 0.22485 0.14167 0.0
C368 C 0.53622 0.24483 0.13821 0.0
C369 C 0.51902 0.2473 0.15842 0.0
C370 C 0.50106 0.22879 0.17874 0.0
C371 C 0.50082 0.20867 0.18128 0.0
C372 C 0.9801 0.43585 0.76471 0.0
C373 C 0.04542 0.48211 0.72106 0.0
C374 C 0.01804 0.54093 0.71406 0.0
Mg375 Mg 0.00144 0.4531 0.65297 0.0
O376 O 0.99159 0.4731 0.67082 0.0
Mg377 Mg 0.00306 0.49064 0.746 0.0
Mg378 Mg 0.00025 0.49819 0.62213 0.0
O379 O 0.00918 0.52331 0.5736 0.0
Mg380 Mg -6e-05 0.5439 0.59057 0.0
Mg381 Mg 0.99895 0.50626 0.49783 0.0
C382 C 0.98331 0.45581 0.52951 0.0
C383 C 0.03953 0.50124 0.5485 0.0
O384 O 0.98591 0.45589 0.78278 0.0
O385 O 0.9842 0.43084 0.71583 0.0
O386 O 0.03573 0.49051 0.74843 0.0
O387 O 0.03582 0.46818 0.67825 0.0
O388 O 0.98987 0.4461 0.56353 0.0
O389 O 0.98314 0.47369 0.54464 0.0
C390 C 0.96138 0.4946 0.69829 0.0
O391 O 0.96884 0.49833 0.64909 0.0
O392 O 0.97128 0.49103 0.73934 0.0
O393 O 0.01713 0.54119 0.46243 0.0
O394 O 0.01839 0.56618 0.52882 0.0
O395 O 0.96662 0.50695 0.49285 0.0
C396 C 0.02308 0.56126 0.48064 0.0
O397 O 0.96571 0.52917 0.56205 0.0
O398 O 0.01155 0.55085 0.68048 0.0
C399 C 0.95662 0.51535 0.51871 0.0
O400 O 0.01764 0.5228 0.69845 0.0
O401 O 0.03134 0.49769 0.59667 0.0
O402 O 0.03058 0.50523 0.50617 0.0
C403 C 0.4645 0.00357 0.78988 0.0
C404 C 0.43713 0.94771 0.66443 0.0
C405 C 0.52153 0.96603 0.6542 0.0
Mg406 Mg 0.46039 0.99837 0.65867 0.0
O407 O 0.48777 0.00066 0.67457 0.0
Mg408 Mg 0.48934 0.97895 0.72385 0.0
Mg409 Mg 0.50503 -0.00046 0.61213 0.0
O410 O 0.52244 0.99865 0.54935 0.0
Mg411 Mg 0.55027 0.00304 0.57059 0.0
Mg412 Mg 0.52175 0.02169 0.50329 0.0
C413 C 0.48817 0.03242 0.56811 0.0
C414 C 0.47237 0.97885 0.49673 0.0
O415 O 0.47479 0.99263 0.79067 0.0
O416 O 0.45766 0.00783 0.74385 0.0
O417 O 0.45441 0.95099 0.69311 0.0
O418 O 0.43622 0.96359 0.64209 0.0
O419 O 0.47045 0.02254 0.59398 0.0
O420 O 0.50391 0.02829 0.5751 0.0
C421 C 0.53816 0.02211 0.72669 0.0
O422 O 0.53601 0.02299 0.67306 0.0
O423 O 0.52303 0.00704 0.75291 0.0
O424 O 0.53906 0.01097 0.43663 0.0
O425 O 0.55755 0.99795 0.48688 0.0
O426 O 0.5559 0.04961 0.53835 0.0
C427 C 0.55168 0.00254 0.43998 0.0
O428 O 0.57315 0.03764 0.59468 0.0
O429 O 0.53921 0.97672 0.62858 0.0
C430 C 0.57254 0.05334 0.57063 0.0
O431 O 0.50596 0.97058 0.65063 0.0
O432 O 0.47425 0.97671 0.5499 0.0
O433 O 0.48807 0.99401 0.47185 0.0
C434 C 0.51749 0.55314 0.44295 0.0
C435 C 0.5552 0.52177 0.49418 0.0
C436 C 0.47826 0.45657 0.55747 0.0
Mg437 Mg 0.53893 0.54985 0.5558 0.0
O438 O 0.51052 0.52568 0.55558 0.0
Mg439 Mg 0.5002 0.50252 0.49042 0.0
Mg440 Mg 0.50333 0.50702 0.62026 0.0
O441 O 0.49615 0.48825 0.68504 0.0
Mg442 Mg 0.46782 0.46359 0.6848 0.0
Mg443 Mg 0.50589 0.51198 0.74858 0.0
C444 C 0.53047 0.55664 0.68398 0.0
C445 C 0.54884 0.51782 0.68869 0.0
O446 O 0.50642 0.53179 0.43391 0.0
O447 O 0.53059 0.56317 0.48701 0.0
O448 O 0.53513 0.50843 0.47668 0.0
O449 O 0.56057 0.53842 0.52929 0.0
O450 O 0.54223 0.56388 0.64172 0.0
O451 O 0.51312 0.53732 0.68164 0.0
C452 C 0.45766 0.49648 0.55304 0.0
O453 O 0.46777 0.49987 0.60189 0.0
O454 O 0.46655 0.4968 0.50704 0.0
O455 O 0.49922 0.48374 0.80692 0.0
O456 O 0.4747 0.45119 0.75938 0.0
O457 O 0.47075 0.5059 0.75807 0.0
C458 C 0.48774 0.46238 0.80284 0.0
O459 O 0.44584 0.4755 0.70545 0.0
O460 O 0.4668 0.44887 0.6002 0.0
C461 C 0.45086 0.49245 0.73923 0.0
O462 O 0.49374 0.47697 0.55821 0.0
O463 O 0.53891 0.51424 0.63943 0.0
O464 O 0.53975 0.51767 0.73429 0.0
H465 H 0.15254 0.50513 0.40663 0.0
H466 H 0.04174 0.46379 0.55833 0.0
H467 H 0.09222 0.44456 0.34999 0.0
H468 H 0.07861 0.53097 0.5105 0.0
H469 H 0.06825 0.45555 0.51512 0.0
H470 H 0.13243 0.51353 0.47568 0.0
C471 C 0.13523 0.49347 0.40843 0.0
C472 C 0.1242 0.47415 0.37097 0.0
C473 C 0.07085 0.47226 0.51583 0.0
C474 C 0.10156 0.48329 0.45266 0.0
C475 C 0.05594 0.47702 0.54086 0.0
C476 C 0.05822 0.4981 0.5381 0.0
C477 C 0.08829 0.48887 0.48908 0.0
C478 C 0.07649 0.51456 0.51362 0.0
C479 C 0.12389 0.49824 0.44853 0.0
C480 C 0.10182 0.45946 0.37779 0.0
N481 N 0.09085 0.50959 0.48974 0.0
N482 N 0.09131 0.46436 0.41765 0.0
H483 H 0.65082 0.14433 0.35195 0.0
H484 H 0.61485 0.06279 0.59618 0.0
H485 H 0.68708 0.11384 0.41396 0.0
H486 H 0.57761 0.09175 0.53068 0.0
H487 H 0.64663 0.08995 0.55045 0.0
H488 H 0.62927 0.1334 0.43434 0.0
C489 C 0.65459 0.13574 0.38344 0.0
C490 C 0.6705 0.12959 0.37528 0.0
C491 C 0.63168 0.09075 0.54728 0.0
C492 C 0.6456 0.11669 0.46956 0.0
C493 C 0.61353 0.07536 0.57403 0.0
C494 C 0.59326 0.07446 0.56563 0.0
C495 C 0.62947 0.10527 0.51197 0.0
C496 C 0.59273 0.09141 0.53697 0.0
C497 C 0.64219 0.12941 0.43048 0.0
C498 C 0.67455 0.11837 0.41761 0.0
N499 N 0.61036 0.10572 0.50986 0.0
N500 N 0.66196 0.11199 0.46238 0.0
H501 H 0.52299 0.632 0.16902 0.0
H502 H 0.51308 0.58798 0.47573 0.0
H503 H 0.53271 0.67097 0.32542 0.0
H504 H 0.51291 0.55032 0.32606 0.0
H505 H 0.51177 0.61497 0.41721 0.0
H506 H 0.51127 0.59897 0.22181 0.0
C507 C 0.52214 0.63346 0.21434 0.0
C508 C 0.52896 0.65421 0.24317 0.0
C509 C 0.51186 0.60078 0.39681 0.0
C510 C 0.51582 0.61673 0.30348 0.0
C511 C 0.51264 0.58537 0.43022 0.0
C512 C 0.5136 0.56723 0.40555 0.0
C513 C 0.5124 0.5983 0.3381 0.0
C514 C 0.51242 0.56427 0.3465 0.0
C515 C 0.51561 0.61467 0.24438 0.0
C516 C 0.52782 0.65532 0.3018 0.0
N517 N 0.51229 0.57996 0.31455 0.0
N518 N 0.52156 0.63687 0.33004 0.0
H519 H 0.88225 0.55597 0.32377 0.0
H520 H 0.92836 0.48179 0.44088 0.0
H521 H 0.86381 0.49101 0.24745 0.0
H522 H 0.93786 0.5414 0.53206 0.0
H523 H 0.90022 0.48192 0.37775 0.0
H524 H 0.89868 0.54867 0.40675 0.0
C525 C 0.8815 0.54008 0.32477 0.0
C526 C 0.87195 0.52419 0.27835 0.0
C527 C 0.90812 0.49474 0.41222 0.0
C528 C 0.89076 0.51571 0.37315 0.0
C529 C 0.92417 0.49464 0.44845 0.0
C530 C 0.93578 0.51185 0.4912 0.0
C531 C 0.90388 0.51238 0.4182 0.0
C532 C 0.92947 0.52791 0.49939 0.0
C533 C 0.89076 0.53586 0.37229 0.0
C534 C 0.87105 0.50373 0.28227 0.0
N535 N 0.91428 0.52806 0.46241 0.0
N536 N 0.88066 0.50021 0.32843 0.0
H537 H 0.37685 0.92906 0.21422 0.0
H538 H 0.43842 0.93638 0.51323 0.0
H539 H 0.35418 0.87248 0.31408 0.0
H540 H 0.4589 0.9888 0.40009 0.0
H541 H 0.40592 0.91283 0.4469 0.0
H542 H 0.40551 0.95135 0.28766 0.0
C543 C 0.37773 0.92133 0.25198 0.0
C544 C 0.36287 0.89885 0.25799 0.0
C545 C 0.41758 0.92954 0.43702 0.0
C546 C 0.39637 0.92442 0.34277 0.0
C547 C 0.43603 0.94296 0.47486 0.0
C548 C 0.45158 0.96444 0.46173 0.0
C549 C 0.41474 0.93788 0.38641 0.0
C550 C 0.44764 0.97222 0.41164 0.0
C551 C 0.3943 0.93408 0.29399 0.0
C552 C 0.36536 0.88972 0.30749 0.0
N553 N 0.42977 0.95898 0.37605 0.0
N554 N 0.38183 0.90254 0.34809 0.0
H555 H 0.47792 0.34518 0.40067 0.0
H556 H 0.49698 0.46503 0.45527 0.0
H557 H 0.4883 0.38623 0.26199 0.0
H558 H 0.45226 0.41144 0.55065 0.0
H559 H 0.49557 0.43748 0.38455 0.0
H560 H 0.47003 0.37006 0.45892 0.0
C561 C 0.47815 0.35924 0.38241 0.0
C562 C 0.48359 0.36371 0.32671 0.0
C563 C 0.4858 0.43186 0.42057 0.0
C564 C 0.47529 0.39241 0.3929 0.0
C565 C 0.4866 0.44756 0.46096 0.0
C566 C 0.47493 0.44061 0.50938 0.0
C567 C 0.47363 0.40916 0.42942 0.0
C568 C 0.46171 0.41766 0.51433 0.0
C569 C 0.47365 0.37338 0.41541 0.0
C570 C 0.48394 0.38222 0.30477 0.0
N571 N 0.46175 0.40278 0.47546 0.0
N572 N 0.48022 0.39617 0.33828 0.0
H573 H 0.54811 0.8687 0.77801 0.0
H574 H 0.4955 0.94616 0.74182 0.0
H575 H 0.51334 0.88051 0.90764 0.0
H576 H 0.54132 0.94202 0.634 0.0
H577 H 0.49404 0.91557 0.79297 0.0
H578 H 0.53661 0.88772 0.71304 0.0
C579 C 0.5376 0.87487 0.79223 0.0
C580 C 0.53187 0.87335 0.84819 0.0
C581 C 0.50421 0.92131 0.75771 0.0
C582 C 0.51922 0.89571 0.77504 0.0
C583 C 0.5051 0.93876 0.72872 0.0
C584 C 0.51897 0.94699 0.68458 0.0
C585 C 0.51701 0.91195 0.74154 0.0
C586 C 0.53084 0.93663 0.66873 0.0
C587 C 0.53113 0.88584 0.75538 0.0
C588 C 0.5181 0.88144 0.86467 0.0
N589 N 0.52965 0.91978 0.6973 0.0
N590 N 0.51259 0.89273 0.82853 0.0
H591 H 0.66455 0.57686 0.89255 0.0
H592 H 0.56421 0.489 0.68883 0.0
H593 H 0.65124 0.50977 0.85511 0.0
H594 H 0.5845 0.5585 0.70966 0.0
H595 H 0.59965 0.49735 0.73453 0.0
H596 H 0.63939 0.57185 0.81295 0.0
C597 C 0.65671 0.56118 0.86705 0.0
C598 C 0.65994 0.54362 0.88142 0.0
C599 C 0.59668 0.5109 0.72749 0.0
C600 C 0.63033 0.53755 0.7904 0.0
C601 C 0.57658 0.50614 0.70082 0.0
C602 C 0.57171 0.52316 0.69527 0.0
C603 C 0.61166 0.53275 0.74957 0.0
C604 C 0.58787 0.54501 0.71283 0.0
C605 C 0.64216 0.55828 0.82152 0.0
C606 C 0.64887 0.5236 0.84682 0.0
N607 N 0.60701 0.54915 0.74009 0.0
N608 N 0.63431 0.52099 0.80351 0.0
H609 H 0.07046 0.63792 0.00052 0.0
H610 H 0.05433 0.54369 0.76795 0.0
H611 H 0.12432 0.64042 0.9142 0.0
H612 H 0.00741 0.56585 0.78321 0.0
H613 H 0.07772 0.57117 0.8456 0.0
H614 H 0.04514 0.60404 0.94224 0.0
C615 C 0.07705 0.63151 0.96928 0.0
C616 C 0.09966 0.6425 0.96162 0.0
C617 C 0.06206 0.5696 0.83261 0.0
C618 C 0.07067 0.60303 0.89676 0.0
C619 C 0.04863 0.55383 0.78889 0.0
C620 C 0.02905 0.55272 0.76912 0.0
C621 C 0.05554 0.5839 0.85719 0.0
C622 C 0.0225 0.56637 0.79713 0.0
C623 C 0.06255 0.61198 0.9366 0.0
C624 C 0.10713 0.63264 0.92195 0.0
N625 N 0.03579 0.58151 0.83966 0.0
N626 N 0.09265 0.6135 0.89086 0.0
H627 H 0.45807 0.09761 0.03179 0.0
H628 H 0.4945 0.01853 0.88069 0.0
H629 H 0.52464 0.11935 0.99065 0.0
H630 H 0.43584 0.01773 0.81689 0.0
H631 H 0.50128 0.04826 0.95179 0.0
H632 H 0.44605 0.06211 0.97747 0.0
C633 C 0.47019 0.09512 0.01136 0.0
C634 C 0.49253 0.11172 0.01633 0.0
C635 C 0.48663 0.04112 0.92306 0.0
C636 C 0.47886 0.07069 0.95697 0.0
C637 C 0.48259 0.02399 0.88295 0.0
C638 C 0.4647 0.01585 0.84246 0.0
C639 C 0.47248 0.0498 0.92327 0.0
C640 C 0.44994 0.02376 0.84707 0.0
C641 C 0.46328 0.07473 0.98107 0.0
C642 C 0.50739 0.10706 0.98969 0.0
N643 N 0.45427 0.04052 0.88648 0.0
N644 N 0.50031 0.08697 0.96165 0.0
H645 H 0.3313 0.45289 0.89626 0.0
H646 H 0.45475 0.52553 0.81478 0.0
H647 H 0.37964 0.51387 0.98995 0.0
H648 H 0.40628 0.46445 0.72124 0.0
H649 H 0.42595 0.52488 0.86951 0.0
H650 H 0.35693 0.4599 0.82336 0.0
C651 C 0.34727 0.46785 0.90128 0.0
C652 C 0.35344 0.48266 0.94972 0.0
C653 C 0.42155 0.51178 0.83647 0.0
C654 C 0.38293 0.49082 0.86626 0.0
C655 C 0.438 0.51217 0.80497 0.0
C656 C 0.43305 0.49479 0.76391 0.0
C657 C 0.39997 0.49384 0.82714 0.0
C658 C 0.41097 0.47807 0.75288 0.0
C659 C 0.36187 0.4719 0.8595 0.0
C660 C 0.37417 0.50201 0.95336 0.0
N661 N 0.39533 0.47784 0.78489 0.0
N662 N 0.38827 0.50538 0.9126 0.0
H663 H 0.86982 0.33644 0.92248 0.0
H664 H 0.98056 0.39719 0.77341 0.0
H665 H 0.92252 0.32335 0.96269 0.0
H666 H 0.94866 0.4326 0.83284 0.0
H667 H 0.95568 0.36542 0.82489 0.0
H668 H 0.89478 0.36734 0.86967 0.0
C669 C 0.88652 0.33989 0.92026 0.0
C670 C 0.894 0.32724 0.94802 0.0
C671 C 0.95427 0.38023 0.82674 0.0
C672 C 0.92233 0.36219 0.886 0.0
C673 C 0.9684 0.39829 0.79759 0.0
C674 C 0.96669 0.41752 0.79941 0.0
C675 C 0.93796 0.38123 0.85628 0.0
C676 C 0.95064 0.41814 0.83105 0.0
C677 C 0.90069 0.35751 0.88993 0.0
C678 C 0.91574 0.33226 0.94165 0.0
N679 N 0.93666 0.4001 0.85777 0.0
N680 N 0.92912 0.34931 0.91125 0.0
H681 H 0.86871 0.48748 0.91913 0.0
H682 H 0.94934 0.5253 0.67188 0.0
H683 H 0.88203 0.54444 0.8272 0.0
H684 H 0.92859 0.46537 0.7566 0.0
H685 H 0.92114 0.53032 0.71707 0.0
H686 H 0.88676 0.47691 0.85015 0.0
C687 C 0.87503 0.49763 0.88392 0.0
C688 C 0.87378 0.51701 0.87957 0.0
C689 C 0.92243 0.5158 0.72464 0.0
C690 C 0.89545 0.50523 0.8005 0.0
C691 C 0.93835 0.51283 0.69839 0.0
C692 C 0.94128 0.49497 0.71092 0.0
C693 C 0.90954 0.50078 0.76344 0.0
C694 C 0.92692 0.47946 0.74625 0.0
C695 C 0.88559 0.49163 0.8445 0.0
C696 C 0.88294 0.52963 0.83324 0.0
N697 N 0.9119 0.48286 0.77171 0.0
N698 N 0.89362 0.52368 0.79592 0.0
H699 H 0.32674 0.89 0.83856 0.0
H700 H 0.43213 0.90868 0.70032 0.0
H701 H 0.35149 0.84477 0.85527 0.0
H702 H 0.39489 0.93927 0.64644 0.0
H703 H 0.40018 0.88104 0.74465 0.0
H704 H 0.34846 0.90443 0.75847 0.0
C705 C 0.33632 0.88267 0.8249 0.0
C706 C 0.33734 0.86622 0.85482 0.0
C707 C 0.39878 0.89343 0.72181 0.0
C708 C 0.36307 0.88343 0.76317 0.0
C709 C 0.41702 0.90918 0.69615 0.0
C710 C 0.41643 0.92675 0.67094 0.0
C711 C 0.37996 0.89546 0.72294 0.0
C712 C 0.39629 0.9263 0.66623 0.0
C713 C 0.34889 0.89108 0.77897 0.0
C714 C 0.35057 0.85789 0.83494 0.0
N715 N 0.37906 0.91133 0.69344 0.0
N716 N 0.36321 0.86686 0.79111 0.0
H717 H 0.4827 0.35962 0.00171 0.0
H718 H 0.52284 0.4777 0.88101 0.0
H719 H 0.55068 0.41189 0.01365 0.0
H720 H 0.46154 0.41882 0.82311 0.0
H721 H 0.53132 0.45548 0.94292 0.0
H722 H 0.47318 0.38253 0.94629 0.0
C723 C 0.49572 0.37576 0.99202 0.0
C724 C 0.51761 0.3837 0.01205 0.0
C725 C 0.51596 0.4475 0.91691 0.0
C726 C 0.50658 0.41033 0.95012 0.0
C727 C 0.51099 0.46019 0.882 0.0
C728 C 0.4915 0.45005 0.84659 0.0
C729 C 0.50122 0.4246 0.9168 0.0
C730 C 0.47683 0.42727 0.84938 0.0
C731 C 0.49019 0.38893 0.96088 0.0
C732 C 0.53358 0.40511 -0.00043 0.0
N733 N 0.48203 0.41529 0.88375 0.0
N734 N 0.52773 0.41771 0.96951 0.0
H735 H 0.10853 0.43837 0.93461 0.0
H736 H 0.07556 0.51629 0.79494 0.0
H737 H 0.14906 0.50958 0.96901 0.0
H738 H 0.06235 0.45458 0.70768 0.0
H739 H 0.10377 0.51548 0.85679 0.0
H740 H 0.09218 0.44429 0.84998 0.0
C741 C 0.11438 0.45527 0.92413 0.0
C742 C 0.13015 0.47348 0.95998 0.0
C743 C 0.09508 0.50243 0.82315 0.0
C744 C 0.11078 0.48029 0.86327 0.0
C745 C 0.07901 0.50289 0.7878 0.0
C746 C 0.06635 0.4853 0.7467 0.0
C747 C 0.09809 0.48399 0.81816 0.0
C748 C 0.07159 0.46842 0.73907 0.0
C749 C 0.10491 0.45861 0.87563 0.0
C750 C 0.13652 0.49496 0.94399 0.0
N751 N 0.08667 0.46786 0.7755 0.0
N752 N 0.12652 0.49777 0.89743 0.0
H753 H 0.61883 0.10319 0.01854 0.0
H754 H 0.5821 0.04312 0.70489 0.0
H755 H 0.66486 0.10075 0.90834 0.0
H756 H 0.53809 0.04019 0.82919 0.0
H757 H 0.61345 0.06856 0.77197 0.0
H758 H 0.58997 0.08462 0.9428 0.0
C759 C 0.62299 0.09902 0.97815 0.0
C760 C 0.64439 0.10357 0.97007 0.0
C761 C 0.59689 0.06249 0.78412 0.0
C762 C 0.61102 0.08166 0.88278 0.0
C763 C 0.57906 0.04816 0.7457 0.0
C764 C 0.55754 0.03949 0.7617 0.0
C765 C 0.593 0.06822 0.83834 0.0
C766 C 0.55445 0.04628 0.81539 0.0
C767 C 0.60639 0.08821 0.93486 0.0
C768 C 0.64854 0.09729 0.91682 0.0
N769 N 0.57191 0.06012 0.85166 0.0
N770 N 0.63198 0.08655 0.87524 0.0
H771 H 0.53209 0.64787 0.94001 0.0
H772 H 0.57198 0.58879 0.71997 0.0
H773 H 0.60039 0.67027 0.92 0.0
H774 H 0.50505 0.55863 0.76569 0.0
H775 H 0.5829 0.61771 0.79637 0.0
H776 H 0.52185 0.61468 0.87781 0.0
C777 C 0.54493 0.64586 0.92211 0.0
C778 C 0.56712 0.66197 0.9344 0.0
C779 C 0.56587 0.60465 0.7903 0.0
C780 C 0.55553 0.62389 0.86403 0.0
C781 C 0.55961 0.58812 0.74668 0.0
C782 C 0.53752 0.57151 0.73614 0.0
C783 C 0.54986 0.60478 0.82309 0.0
C784 C 0.52224 0.57123 0.77237 0.0
C785 C 0.53908 0.62679 0.88721 0.0
C786 C 0.5831 0.65827 0.91139 0.0
N787 N 0.52864 0.5879 0.81379 0.0
N788 N 0.57698 0.63969 0.87687 0.0
H789 H 0.47322 0.10685 0.30823 0.0
H790 H 0.52612 0.06856 0.54262 0.0
H791 H 0.52893 0.15494 0.41908 0.0
H792 H 0.45578 0.03499 0.50773 0.0
H793 H 0.52969 0.09813 0.48434 0.0
H794 H 0.46815 0.07821 0.37053 0.0
C795 C 0.48419 0.11161 0.34604 0.0
C796 C 0.50158 0.13357 0.35813 0.0
C797 C 0.51352 0.08426 0.48959 0.0
C798 C 0.49629 0.10037 0.42806 0.0
C799 C 0.51147 0.06732 0.52223 0.0
C800 C 0.49061 0.04938 0.5299 0.0
C801 C 0.49463 0.08292 0.46352 0.0
C802 C 0.47213 0.04864 0.50301 0.0
C803 C 0.48135 0.0951 0.38123 0.0
C804 C 0.51558 0.13826 0.40713 0.0
N805 N 0.47458 0.06513 0.47053 0.0
N806 N 0.5128 0.12173 0.43993 0.0
H807 H 0.34239 0.43766 0.34919 0.0
H808 H 0.44302 0.52582 0.55131 0.0
H809 H 0.35809 0.50586 0.37926 0.0
H810 H 0.42146 0.45597 0.53528 0.0
H811 H 0.40783 0.51779 0.50487 0.0
H812 H 0.3667 0.4427 0.43102 0.0
C813 C 0.35059 0.45361 0.37351 0.0
C814 C 0.34833 0.47145 0.35643 0.0
C815 C 0.41044 0.5041 0.51315 0.0
C816 C 0.37688 0.47751 0.45004 0.0
C817 C 0.4304 0.50869 0.5403 0.0
C818 C 0.43487 0.49147 0.5473 0.0
C819 C 0.3952 0.4822 0.49197 0.0
C820 C 0.4184 0.46962 0.53097 0.0
C821 C 0.36463 0.45651 0.42033 0.0
C822 C 0.35975 0.49179 0.38967 0.0
N823 N 0.39942 0.46562 0.50309 0.0
N824 N 0.37378 0.49436 0.43429 0.0
H825 H 0.87911 0.34964 0.33679 0.0
H826 H 0.9978 0.43498 0.45881 0.0
H827 H 0.935 0.35768 0.25007 0.0
H828 H 0.94493 0.4485 0.47717 0.0
H829 H 0.97565 0.40663 0.38213 0.0
H830 H 0.90283 0.38521 0.3907 0.0
C831 C 0.89627 0.35887 0.32856 0.0
C832 C 0.90501 0.35037 0.28895 0.0
C833 C 0.96909 0.41617 0.40196 0.0
C834 C 0.93229 0.39099 0.35148 0.0
C835 C 0.98174 0.43237 0.44543 0.0
C836 C 0.97307 0.44395 0.47412 0.0
C837 C 0.94743 0.41108 0.38852 0.0
C838 C 0.95217 0.43994 0.45572 0.0
C839 C 0.90979 0.37922 0.35941 0.0
C840 C 0.92754 0.36311 0.28115 0.0
N841 N 0.93977 0.42339 0.41489 0.0
N842 N 0.94044 0.38263 0.31262 0.0
H843 H 0.5454 0.92603 0.14114 0.0
H844 H 0.58981 0.00261 0.42925 0.0
H845 H 0.60576 0.94238 0.23642 0.0
H846 H 0.53016 0.98844 0.33408 0.0
H847 H 0.59884 0.98572 0.35055 0.0
H848 H 0.54206 0.95299 0.20333 0.0
C849 C 0.55799 0.93535 0.17509 0.0
C850 C 0.57569 0.93167 0.1843 0.0
C851 C 0.58392 0.98653 0.34634 0.0
C852 C 0.57209 0.96271 0.25517 0.0
C853 C 0.57876 0.9962 0.39126 0.0
C854 C 0.55904 0.99656 0.38836 0.0
C855 C 0.56906 0.9768 0.29841 0.0
C856 C 0.54548 0.98837 0.33799 0.0
C857 C 0.55616 0.95086 0.21026 0.0
C858 C 0.59182 0.94463 0.22787 0.0
N859 N 0.55054 0.97841 0.29523 0.0
N860 N 0.58949 0.95938 0.26208 0.0
H861 H 0.67538 0.56255 0.33731 0.0
H862 H 0.55076 0.4904 0.41184 0.0
H863 H 0.62707 0.50292 0.23862 0.0
H864 H 0.59982 0.5489 0.51324 0.0
H865 H 0.57948 0.49179 0.35528 0.0
H866 H 0.64898 0.55532 0.40825 0.0
C867 C 0.65924 0.54787 0.3307 0.0
C868 C 0.65338 0.53345 0.2816 0.0
C869 C 0.58401 0.50415 0.39037 0.0
C870 C 0.623 0.52501 0.36286 0.0
C871 C 0.5676 0.50333 0.42291 0.0
C872 C 0.57277 0.51977 0.46695 0.0
C873 C 0.60576 0.5216 0.4017 0.0
C874 C 0.59495 0.536 0.47936 0.0
C875 C 0.6442 0.54368 0.37138 0.0
C876 C 0.63236 0.51445 0.27586 0.0
N877 N 0.61055 0.53668 0.44646 0.0
N878 N 0.61786 0.51091 0.31564 0.0
H879 H 0.13707 0.65806 0.32914 0.0
H880 H 0.02463 0.60098 0.4727 0.0
H881 H 0.08691 0.67466 0.28761 0.0
H882 H 0.05478 0.56361 0.41489 0.0
H883 H 0.05111 0.63268 0.42357 0.0
H884 H 0.11087 0.62784 0.38171 0.0
C885 C 0.12068 0.65554 0.33111 0.0
C886 C 0.11424 0.6689 0.30286 0.0
C887 C 0.05179 0.61746 0.4216 0.0
C888 C 0.0845 0.63473 0.36454 0.0
C889 C 0.03674 0.59944 0.44938 0.0
C890 C 0.03747 0.57966 0.4473 0.0
C891 C 0.06802 0.61585 0.39317 0.0
C892 C 0.05352 0.57849 0.41684 0.0
C893 C 0.1058 0.63831 0.36129 0.0
C894 C 0.09289 0.66512 0.30894 0.0
N895 N 0.06836 0.59646 0.39143 0.0
N896 N 0.07878 0.64837 0.33909 0.0
loop_
_geom_bond_atom_site_label_1
_geom_bond_atom_site_label_2
_geom_bond_distance
_geom_bond_site_symmetry_2
_ccdc_geom_bond_type
H0 C27 0.929 . S
N1 C26 1.433 . S
N1 C32 1.435 . S
N1 C38 1.423 . S
H2 C28 0.930 . S
H3 C31 0.931 . S
H4 C30 0.929 . S
H5 C33 0.930 . S
H6 C34 0.932 . S
H7 C37 0.929 . S
H8 C36 0.931 . S
H9 C39 0.929 . S
H10 C43 0.932 . S
H11 C40 0.931 . S
H12 C42 0.929 . S
H13 C45 0.929 . S
H14 C46 0.930 . S
H15 C48 0.929 . S
H16 C49 0.931 . S
H17 C51 0.930 . S
H18 C52 0.932 . S
H19 C54 0.931 1_556 S
H20 C55 0.929 . S
H21 C57 0.929 . S
H22 C58 0.931 . S
H23 C60 0.929 . S
N24 C44 1.433 . S
N24 C50 1.435 . S
N24 C56 1.423 . S
H25 C61 0.932 . S
C26 N1 1.433 . S
C26 C27 1.363 . S
C26 C31 1.370 . S
C27 H0 0.929 . S
C27 C26 1.363 . S
C27 C28 1.385 . S
C28 H2 0.930 . S
C28 C27 1.385 . S
C28 C29 1.357 . S
C29 C28 1.357 . S
C29 C30 1.406 . S
C30 H4 0.929 . S
C30 C29 1.406 . S
C30 C31 1.391 . S
C31 H3 0.931 . S
C31 C26 1.370 . S
C31 C30 1.391 . S
C32 N1 1.435 . S
C32 C33 1.358 . S
C32 C37 1.371 . S
C33 H5 0.930 . S
C33 C32 1.358 . S
C33 C34 1.405 . S
C34 H6 0.932 . S
C34 C33 1.405 . S
C34 C35 1.383 . S
C35 C34 1.383 . S
C35 C36 1.393 . S
C36 H8 0.931 . S
C36 C35 1.393 . S
C36 C37 1.382 . S
C37 H7 0.929 . S
C37 C32 1.371 . S
C37 C36 1.382 . S
C38 N1 1.423 . S
C38 C39 1.362 . S
C38 C43 1.388 . S
C39 H9 0.929 . S
C39 C38 1.362 . S
C39 C40 1.376 . S
C40 H11 0.931 . S
C40 C39 1.376 . S
C40 C41 1.396 . S
C41 C40 1.396 . S
C41 C42 1.348 . S
C41 C59 1.472 . S
C42 H12 0.929 . S
C42 C41 1.348 . S
C42 C43 1.443 . S
C43 H10 0.932 . S
C43 C38 1.388 . S
C43 C42 1.443 . S
C44 N24 1.433 . S
C44 C45 1.363 . S
C44 C49 1.370 . S
C45 H13 0.929 . S
C45 C44 1.363 . S
C45 C46 1.385 . S
C46 H14 0.930 . S
C46 C45 1.385 . S
C46 C47 1.357 . S
C47 C46 1.357 . S
C47 C48 1.406 . S
C48 H15 0.929 . S
C48 C47 1.406 . S
C48 C49 1.391 . S
C49 H16 0.931 . S
C49 C44 1.370 . S
C49 C48 1.391 . S
C50 N24 1.435 . S
C50 C51 1.358 . S
C50 C55 1.371 . S
C51 H17 0.930 . S
C51 C50 1.358 . S
C51 C52 1.405 . S
C52 H18 0.932 . S
C52 C51 1.405 . S
C52 C53 1.383 . S
C53 C52 1.383 . S
C53 C54 1.393 . S
C54 H19 0.931 1_554 S
C54 C53 1.393 . S
C54 C55 1.382 . S
C55 H20 0.929 . S
C55 C50 1.371 . S
C55 C54 1.382 . S
C56 N24 1.423 . S
C56 C57 1.362 . S
C56 C61 1.388 . S
C57 H21 0.929 . S
C57 C56 1.362 . S
C57 C58 1.376 . S
C58 H22 0.931 . S
C58 C57 1.376 . S
C58 C59 1.396 . S
C59 C41 1.472 . S
C59 C58 1.396 . S
C59 C60 1.348 . S
C60 H23 0.929 . S
C60 C59 1.348 . S
C60 C61 1.443 . S
C61 H25 0.932 . S
C61 C56 1.388 . S
C61 C60 1.443 . S
H62 C89 0.929 . S
N63 C88 1.433 . S
N63 C94 1.435 . S
N63 C100 1.423 . S
H64 C90 0.930 . S
H65 C93 0.931 . S
H66 C92 0.929 . S
H67 C95 0.930 . S
H68 C96 0.932 . S
H69 C99 0.929 . S
H70 C98 0.931 . S
H71 C101 0.929 . S
H72 C105 0.932 . S
H73 C102 0.931 . S
H74 C104 0.929 . S
H75 C107 0.929 . S
H76 C108 0.930 . S
H77 C110 0.929 . S
H78 C111 0.931 . S
H79 C113 0.930 . S
H80 C114 0.932 . S
H81 C116 0.931 1_556 S
H82 C117 0.929 . S
H83 C119 0.929 . S
H84 C120 0.931 . S
H85 C122 0.929 . S
N86 C106 1.433 . S
N86 C112 1.435 . S
N86 C118 1.423 . S
H87 C123 0.932 . S
C88 N63 1.433 . S
C88 C89 1.363 . S
C88 C93 1.370 . S
C89 H62 0.929 . S
C89 C88 1.363 . S
C89 C90 1.385 . S
C90 H64 0.930 . S
C90 C89 1.385 . S
C90 C91 1.357 . S
C91 C90 1.357 . S
C91 C92 1.406 . S
C92 H66 0.929 . S
C92 C91 1.406 . S
C92 C93 1.391 . S
C93 H65 0.931 . S
C93 C88 1.370 . S
C93 C92 1.391 . S
C94 N63 1.435 . S
C94 C95 1.358 . S
C94 C99 1.371 . S
C95 H67 0.930 . S
C95 C94 1.358 . S
C95 C96 1.405 . S
C96 H68 0.932 . S
C96 C95 1.405 . S
C96 C97 1.383 1_554 S
C97 C96 1.383 1_556 S
C97 C98 1.393 . S
C98 H70 0.931 . S
C98 C97 1.393 . S
C98 C99 1.382 1_556 S
C99 H69 0.929 . S
C99 C94 1.371 . S
C99 C98 1.382 1_554 S
C100 N63 1.423 . S
C100 C101 1.362 . S
C100 C105 1.388 . S
C101 H71 0.929 . S
C101 C100 1.362 . S
C101 C102 1.376 . S
C102 H73 0.931 . S
C102 C101 1.376 . S
C102 C103 1.396 . S
C103 C102 1.396 . S
C103 C104 1.348 . S
C103 C121 1.472 . S
C104 H74 0.929 . S
C104 C103 1.348 . S
C104 C105 1.443 . S
C105 H72 0.932 . S
C105 C100 1.388 . S
C105 C104 1.443 . S
C106 N86 1.433 . S
C106 C107 1.363 . S
C106 C111 1.370 . S
C107 H75 0.929 . S
C107 C106 1.363 . S
C107 C108 1.385 . S
C108 H76 0.930 . S
C108 C107 1.385 . S
C108 C109 1.357 . S
C109 C108 1.357 . S
C109 C110 1.406 . S
C110 H77 0.929 . S
C110 C109 1.406 . S
C110 C111 1.391 . S
C111 H78 0.931 . S
C111 C106 1.370 . S
C111 C110 1.391 . S
C112 N86 1.435 . S
C112 C113 1.358 . S
C112 C117 1.371 . S
C113 H79 0.930 . S
C113 C112 1.358 . S
C113 C114 1.405 . S
C114 H80 0.932 . S
C114 C113 1.405 . S
C114 C115 1.383 . S
C115 C114 1.383 . S
C115 C116 1.393 . S
C116 H81 0.931 1_554 S
C116 C115 1.393 . S
C116 C117 1.382 . S
C117 H82 0.929 . S
C117 C112 1.371 . S
C117 C116 1.382 . S
C118 N86 1.423 . S
C118 C119 1.362 . S
C118 C123 1.388 . S
C119 H83 0.929 . S
C119 C118 1.362 . S
C119 C120 1.376 . S
C120 H84 0.931 . S
C120 C119 1.376 . S
C120 C121 1.396 . S
C121 C103 1.472 . S
C121 C120 1.396 . S
C121 C122 1.348 . S
C122 H85 0.929 . S
C122 C121 1.348 . S
C122 C123 1.443 . S
C123 H87 0.932 . S
C123 C118 1.388 . S
C123 C122 1.443 . S
H124 C151 0.929 . S
N125 C150 1.433 1_554 S
N125 C156 1.435 . S
N125 C162 1.423 . S
H126 C152 0.930 . S
H127 C155 0.931 . S
H128 C154 0.929 . S
H129 C157 0.930 . S
H130 C158 0.932 . S
H131 C161 0.929 . S
H132 C160 0.931 . S
H133 C163 0.929 1_556 S
H134 C167 0.932 . S
H135 C164 0.931 1_556 S
H136 C166 0.929 . S
H137 C169 0.929 . S
H138 C170 0.930 . S
H139 C172 0.929 . S
H140 C173 0.931 . S
H141 C175 0.930 . S
H142 C176 0.932 . S
H143 C178 0.931 . S
H144 C179 0.929 . S
H145 C181 0.929 1_556 S
H146 C182 0.931 1_556 S
H147 C184 0.929 . S
N148 C168 1.433 1_554 S
N148 C174 1.435 . S
N148 C180 1.423 . S
H149 C185 0.932 . S
C150 N125 1.433 1_556 S
C150 C151 1.363 . S
C150 C155 1.370 . S
C151 H124 0.929 . S
C151 C150 1.363 . S
C151 C152 1.385 . S
C152 H126 0.930 . S
C152 C151 1.385 . S
C152 C153 1.357 . S
C153 C152 1.357 . S
C153 C154 1.406 . S
C154 H128 0.929 . S
C154 C153 1.406 . S
C154 C155 1.391 . S
C155 H127 0.931 . S
C155 C150 1.370 . S
C155 C154 1.391 . S
C156 N125 1.435 . S
C156 C157 1.358 . S
C156 C161 1.371 . S
C157 H129 0.930 . S
C157 C156 1.358 . S
C157 C158 1.405 . S
C158 H130 0.932 . S
C158 C157 1.405 . S
C158 C159 1.383 . S
C159 C158 1.383 . S
C159 C160 1.393 . S
C160 H132 0.931 . S
C160 C159 1.393 . S
C160 C161 1.382 . S
C161 H131 0.929 . S
C161 C156 1.371 . S
C161 C160 1.382 . S
C162 N125 1.423 . S
C162 C163 1.362 . S
C162 C167 1.388 . S
C163 H133 0.929 1_554 S
C163 C162 1.362 . S
C163 C164 1.376 . S
C164 H135 0.931 1_554 S
C164 C163 1.376 . S
C164 C165 1.396 . S
C165 C164 1.396 . S
C165 C166 1.348 . S
C165 C183 1.472 . S
C166 H136 0.929 . S
C166 C165 1.348 . S
C166 C167 1.443 . S
C167 H134 0.932 . S
C167 C162 1.388 . S
C167 C166 1.443 . S
C168 N148 1.433 1_556 S
C168 C169 1.363 . S
C168 C173 1.370 . S
C169 H137 0.929 . S
C169 C168 1.363 . S
C169 C170 1.385 . S
C170 H138 0.930 . S
C170 C169 1.385 . S
C170 C171 1.357 . S
C171 C170 1.357 . S
C171 C172 1.406 . S
C172 H139 0.929 . S
C172 C171 1.406 . S
C172 C173 1.391 . S
C173 H140 0.931 . S
C173 C168 1.370 . S
C173 C172 1.391 . S
C174 N148 1.435 . S
C174 C175 1.358 . S
C174 C179 1.371 . S
C175 H141 0.930 . S
C175 C174 1.358 . S
C175 C176 1.405 . S
C176 H142 0.932 . S
C176 C175 1.405 . S
C176 C177 1.383 . S
C177 C176 1.383 . S
C177 C178 1.393 . S
C178 H143 0.931 . S
C178 C177 1.393 . S
C178 C179 1.382 . S
C179 H144 0.929 . S
C179 C174 1.371 . S
C179 C178 1.382 . S
C180 N148 1.423 . S
C180 C181 1.362 . S
C180 C185 1.388 . S
C181 H145 0.929 1_554 S
C181 C180 1.362 . S
C181 C182 1.376 . S
C182 H146 0.931 1_554 S
C182 C181 1.376 . S
C182 C183 1.396 . S
C183 C165 1.472 . S
C183 C182 1.396 . S
C183 C184 1.348 . S
C184 H147 0.929 . S
C184 C183 1.348 . S
C184 C185 1.443 . S
C185 H149 0.932 . S
C185 C180 1.388 . S
C185 C184 1.443 . S
H186 C213 0.929 . S
N187 C212 1.433 . S
N187 C218 1.435 . S
N187 C224 1.423 . S
H188 C214 0.930 . S
H189 C217 0.931 . S
H190 C216 0.929 . S
H191 C219 0.930 . S
H192 C220 0.932 . S
H193 C223 0.929 . S
H194 C222 0.931 . S
H195 C225 0.929 . S
H196 C229 0.932 1_556 S
H197 C226 0.931 . S
H198 C228 0.929 1_556 S
H199 C231 0.929 . S
H200 C232 0.930 . S
H201 C234 0.929 . S
H202 C235 0.931 . S
H203 C237 0.930 . S
H204 C238 0.932 . S
H205 C240 0.931 . S
H206 C241 0.929 . S
H207 C243 0.929 . S
H208 C244 0.931 . S
H209 C246 0.929 1_556 S
N210 C230 1.433 . S
N210 C236 1.435 . S
N210 C242 1.423 . S
H211 C247 0.932 1_556 S
C212 N187 1.433 . S
C212 C213 1.363 . S
C212 C217 1.370 . S
C213 H186 0.929 . S
C213 C212 1.363 . S
C213 C214 1.385 . S
C214 H188 0.930 . S
C214 C213 1.385 . S
C214 C215 1.357 . S
C215 C214 1.357 . S
C215 C216 1.406 . S
C216 H190 0.929 . S
C216 C215 1.406 . S
C216 C217 1.391 . S
C217 H189 0.931 . S
C217 C212 1.370 . S
C217 C216 1.391 . S
C218 N187 1.435 . S
C218 C219 1.358 . S
C218 C223 1.371 1_554 S
C219 H191 0.930 . S
C219 C218 1.358 . S
C219 C220 1.405 1_554 S
C220 H192 0.932 . S
C220 C219 1.405 1_556 S
C220 C221 1.383 . S
C221 C220 1.383 . S
C221 C222 1.393 . S
C222 H194 0.931 . S
C222 C221 1.393 . S
C222 C223 1.382 . S
C223 H193 0.929 . S
C223 C218 1.371 1_556 S
C223 C222 1.382 . S
C224 N187 1.423 . S
C224 C225 1.362 . S
C224 C229 1.388 . S
C225 H195 0.929 . S
C225 C224 1.362 . S
C225 C226 1.376 . S
C226 H197 0.931 . S
C226 C225 1.376 . S
C226 C227 1.396 . S
C227 C226 1.396 . S
C227 C228 1.348 . S
C227 C245 1.472 . S
C228 H198 0.929 1_554 S
C228 C227 1.348 . S
C228 C229 1.443 . S
C229 H196 0.932 1_554 S
C229 C224 1.388 . S
C229 C228 1.443 . S
C230 N210 1.433 . S
C230 C231 1.363 . S
C230 C235 1.370 . S
C231 H199 0.929 . S
C231 C230 1.363 . S
C231 C232 1.385 . S
C232 H200 0.930 . S
C232 C231 1.385 . S
C232 C233 1.357 . S
C233 C232 1.357 . S
C233 C234 1.406 . S
C234 H201 0.929 . S
C234 C233 1.406 . S
C234 C235 1.391 . S
C235 H202 0.931 . S
C235 C230 1.370 . S
C235 C234 1.391 . S
C236 N210 1.435 . S
C236 C237 1.358 . S
C236 C241 1.371 1_554 S
C237 H203 0.930 . S
C237 C236 1.358 . S
C237 C238 1.405 1_554 S
C238 H204 0.932 . S
C238 C237 1.405 1_556 S
C238 C239 1.383 . S
C239 C238 1.383 . S
C239 C240 1.393 . S
C240 H205 0.931 . S
C240 C239 1.393 . S
C240 C241 1.382 . S
C241 H206 0.929 . S
C241 C236 1.371 1_556 S
C241 C240 1.382 . S
C242 N210 1.423 . S
C242 C243 1.362 . S
C242 C247 1.388 . S
C243 H207 0.929 . S
C243 C242 1.362 . S
C243 C244 1.376 . S
C244 H208 0.931 . S
C244 C243 1.376 . S
C244 C245 1.396 . S
C245 C227 1.472 . S
C245 C244 1.396 . S
C245 C246 1.348 . S
C246 H209 0.929 1_554 S
C246 C245 1.348 . S
C246 C247 1.443 . S
C247 H211 0.932 1_554 S
C247 C242 1.388 . S
C247 C246 1.443 . S
H248 C275 0.929 . S
N249 C274 1.433 . S
N249 C280 1.435 . S
N249 C286 1.423 . S
H250 C276 0.930 . S
H251 C279 0.931 . S
H252 C278 0.929 . S
H253 C281 0.930 . S
H254 C282 0.932 . S
H255 C285 0.929 . S
H256 C284 0.931 . S
H257 C287 0.929 . S
H258 C291 0.932 . S
H259 C288 0.931 . S
H260 C290 0.929 . S
H261 C293 0.929 . S
H262 C294 0.930 . S
H263 C296 0.929 . S
H264 C297 0.931 . S
H265 C299 0.930 . S
H266 C300 0.932 . S
H267 C302 0.931 . S
H268 C303 0.929 . S
H269 C305 0.929 . S
H270 C306 0.931 . S
H271 C308 0.929 . S
N272 C292 1.433 . S
N272 C298 1.435 . S
N272 C304 1.423 . S
H273 C309 0.932 . S
C274 N249 1.433 . S
C274 C275 1.363 . S
C274 C279 1.370 . S
C275 H248 0.929 . S
C275 C274 1.363 . S
C275 C276 1.385 . S
C276 H250 0.930 . S
C276 C275 1.385 . S
C276 C277 1.357 . S
C277 C276 1.357 . S
C277 C278 1.406 . S
C278 H252 0.929 . S
C278 C277 1.406 . S
C278 C279 1.391 . S
C279 H251 0.931 . S
C279 C274 1.370 . S
C279 C278 1.391 . S
C280 N249 1.435 . S
C280 C281 1.358 . S
C280 C285 1.371 1_554 S
C281 H253 0.930 . S
C281 C280 1.358 . S
C281 C282 1.405 1_554 S
C282 H254 0.932 . S
C282 C281 1.405 1_556 S
C282 C283 1.383 . S
C283 C282 1.383 . S
C283 C284 1.393 . S
C284 H256 0.931 . S
C284 C283 1.393 . S
C284 C285 1.382 . S
C285 H255 0.929 . S
C285 C280 1.371 1_556 S
C285 C284 1.382 . S
C286 N249 1.423 . S
C286 C287 1.362 . S
C286 C291 1.388 . S
C287 H257 0.929 . S
C287 C286 1.362 . S
C287 C288 1.376 . S
C288 H259 0.931 . S
C288 C287 1.376 . S
C288 C289 1.396 . S
C289 C288 1.396 . S
C289 C290 1.348 . S
C289 C307 1.472 . S
C290 H260 0.929 . S
C290 C289 1.348 . S
C290 C291 1.443 . S
C291 H258 0.932 . S
C291 C286 1.388 . S
C291 C290 1.443 . S
C292 N272 1.433 . S
C292 C293 1.363 . S
C292 C297 1.370 . S
C293 H261 0.929 . S
C293 C292 1.363 . S
C293 C294 1.385 . S
C294 H262 0.930 . S
C294 C293 1.385 . S
C294 C295 1.357 . S
C295 C294 1.357 . S
C295 C296 1.406 . S
C296 H263 0.929 . S
C296 C295 1.406 . S
C296 C297 1.391 . S
C297 H264 0.931 . S
C297 C292 1.370 . S
C297 C296 1.391 . S
C298 N272 1.435 . S
C298 C299 1.358 . S
C298 C303 1.371 . S
C299 H265 0.930 . S
C299 C298 1.358 . S
C299 C300 1.405 . S
C300 H266 0.932 . S
C300 C299 1.405 . S
C300 C301 1.383 1_554 S
C301 C300 1.383 1_556 S
C301 C302 1.393 . S
C302 H267 0.931 . S
C302 C301 1.393 . S
C302 C303 1.382 1_556 S
C303 H268 0.929 . S
C303 C298 1.371 . S
C303 C302 1.382 1_554 S
C304 N272 1.423 . S
C304 C305 1.362 . S
C304 C309 1.388 . S
C305 H269 0.929 . S
C305 C304 1.362 . S
C305 C306 1.376 . S
C306 H270 0.931 . S
C306 C305 1.376 . S
C306 C307 1.396 . S
C307 C289 1.472 . S
C307 C306 1.396 . S
C307 C308 1.348 . S
C308 H271 0.929 . S
C308 C307 1.348 . S
C308 C309 1.443 . S
C309 H273 0.932 . S
C309 C304 1.388 . S
C309 C308 1.443 . S
H310 C337 0.929 . S
N311 C336 1.433 . S
N311 C342 1.435 . S
N311 C348 1.423 . S
H312 C338 0.930 . S
H313 C341 0.931 . S
H314 C340 0.929 . S
H315 C343 0.930 . S
H316 C344 0.932 . S
H317 C347 0.929 . S
H318 C346 0.931 . S
H319 C349 0.929 . S
H320 C353 0.932 . S
H321 C350 0.931 . S
H322 C352 0.929 . S
H323 C355 0.929 . S
H324 C356 0.930 . S
H325 C358 0.929 . S
H326 C359 0.931 . S
H327 C361 0.930 . S
H328 C362 0.932 . S
H329 C364 0.931 . S
H330 C365 0.929 . S
H331 C367 0.929 . S
H332 C368 0.931 . S
H333 C370 0.929 . S
N334 C354 1.433 . S
N334 C360 1.435 . S
N334 C366 1.423 . S
H335 C371 0.932 . S
C336 N311 1.433 . S
C336 C337 1.363 . S
C336 C341 1.370 . S
C337 H310 0.929 . S
C337 C336 1.363 . S
C337 C338 1.385 . S
C338 H312 0.930 . S
C338 C337 1.385 . S
C338 C339 1.357 . S
C339 C338 1.357 . S
C339 C340 1.406 . S
C340 H314 0.929 . S
C340 C339 1.406 . S
C340 C341 1.391 . S
C341 H313 0.931 . S
C341 C336 1.370 . S
C341 C340 1.391 . S
C342 N311 1.435 . S
C342 C343 1.358 . S
C342 C347 1.371 . S
C343 H315 0.930 . S
C343 C342 1.358 . S
C343 C344 1.405 . S
C344 H316 0.932 . S
C344 C343 1.405 . S
C344 C345 1.383 . S
C345 C344 1.383 . S
C345 C346 1.393 . S
C346 H318 0.931 . S
C346 C345 1.393 . S
C346 C347 1.382 . S
C347 H317 0.929 . S
C347 C342 1.371 . S
C347 C346 1.382 . S
C348 N311 1.423 . S
C348 C349 1.362 . S
C348 C353 1.388 . S
C349 H319 0.929 . S
C349 C348 1.362 . S
C349 C350 1.376 . S
C350 H321 0.931 . S
C350 C349 1.376 . S
C350 C351 1.396 . S
C351 C350 1.396 . S
C351 C352 1.348 . S
C351 C369 1.472 . S
C352 H322 0.929 . S
C352 C351 1.348 . S
C352 C353 1.443 . S
C353 H320 0.932 . S
C353 C348 1.388 . S
C353 C352 1.443 . S
C354 N334 1.433 . S
C354 C355 1.363 . S
C354 C359 1.370 . S
C355 H323 0.929 . S
C355 C354 1.363 . S
C355 C356 1.385 . S
C356 H324 0.930 . S
C356 C355 1.385 . S
C356 C357 1.357 . S
C357 C356 1.357 . S
C357 C358 1.406 . S
C358 H325 0.929 . S
C358 C357 1.406 . S
C358 C359 1.391 . S
C359 H326 0.931 . S
C359 C354 1.370 . S
C359 C358 1.391 . S
C360 N334 1.435 . S
C360 C361 1.358 . S
C360 C365 1.371 . S
C361 H327 0.930 . S
C361 C360 1.358 . S
C361 C362 1.405 . S
C362 H328 0.932 . S
C362 C361 1.405 . S
C362 C363 1.383 . S
C363 C362 1.383 . S
C363 C364 1.393 . S
C364 H329 0.931 . S
C364 C363 1.393 . S
C364 C365 1.382 . S
C365 H330 0.929 . S
C365 C360 1.371 . S
C365 C364 1.382 . S
C366 N334 1.423 . S
C366 C367 1.362 . S
C366 C371 1.388 . S
C367 H331 0.929 . S
C367 C366 1.362 . S
C367 C368 1.376 . S
C368 H332 0.931 . S
C368 C367 1.376 . S
C368 C369 1.396 . S
C369 C351 1.472 . S
C369 C368 1.396 . S
C369 C370 1.348 . S
C370 H333 0.929 . S
C370 C369 1.348 . S
C370 C371 1.443 . S
C371 H335 0.932 . S
C371 C366 1.388 . S
C371 C370 1.443 . S
C372 O384 1.241 . S
C372 O385 1.280 . S
C373 O386 1.277 . S
C373 O387 1.245 . S
C374 O398 1.247 . S
C374 O400 1.289 . S
Mg375 O376 1.946 1_655 S
Mg375 O385 1.984 . S
Mg375 O387 1.988 1_655 S
Mg375 O388 2.061 . S
O376 Mg375 1.946 1_455 S
O376 Mg377 1.985 . S
O376 Mg378 1.913 . S
Mg377 O376 1.985 . S
Mg377 O384 2.042 1_455 S
Mg377 O386 2.041 . S
Mg377 O392 2.038 1_455 S
Mg377 O400 2.238 . S
Mg378 O376 1.913 . S
Mg378 O379 1.917 . S
Mg378 O389 2.106 1_455 S
Mg378 O391 2.079 1_455 S
Mg378 O400 2.106 . S
Mg378 O401 2.079 . S
O379 Mg378 1.917 . S
O379 Mg380 1.926 . S
O379 Mg381 1.986 . S
Mg380 O379 1.926 . S
Mg380 O394 1.984 . S
Mg380 O397 1.988 1_455 S
Mg380 O398 2.061 . S
Mg381 O379 1.986 . S
Mg381 O389 2.238 1_455 S
Mg381 O393 2.042 . S
Mg381 O395 2.041 1_455 S
Mg381 O402 2.038 . S
C382 O388 1.247 . S
C382 O389 1.289 . S
C383 O401 1.245 . S
C383 O402 1.274 . S
O384 C372 1.241 . S
O384 Mg377 2.042 1_655 S
O385 C372 1.280 . S
O385 Mg375 1.984 . S
O386 C373 1.277 . S
O386 Mg377 2.041 . S
O387 C373 1.245 . S
O387 Mg375 1.988 1_455 S
O388 Mg375 2.061 . S
O388 C382 1.247 . S
O389 Mg378 2.106 1_655 S
O389 Mg381 2.238 1_655 S
O389 C382 1.289 . S
C390 O391 1.245 . S
C390 O392 1.274 . S
O391 Mg378 2.079 1_655 S
O391 C390 1.245 . S
O392 Mg377 2.038 1_655 S
O392 C390 1.274 . S
O393 Mg381 2.042 . S
O393 C396 1.241 . S
O394 Mg380 1.984 . S
O394 C396 1.280 . S
O395 Mg381 2.041 1_655 S
O395 C399 1.277 . S
C396 O393 1.241 . S
C396 O394 1.280 . S
O397 Mg380 1.988 1_655 S
O397 C399 1.245 . S
O398 C374 1.247 . S
O398 Mg380 2.061 . S
C399 O395 1.277 . S
C399 O397 1.245 . S
O400 C374 1.289 . S
O400 Mg377 2.238 . S
O400 Mg378 2.106 . S
O401 Mg378 2.079 . S
O401 C383 1.245 . S
O402 Mg381 2.038 . S
O402 C383 1.274 . S
C403 O415 1.241 . S
C403 O416 1.280 . S
C404 O417 1.277 . S
C404 O418 1.245 . S
C405 O429 1.247 . S
C405 O431 1.289 . S
Mg406 O407 1.926 . S
Mg406 O416 1.984 . S
Mg406 O418 1.988 1_545 S
Mg406 O419 2.061 . S
O407 Mg406 1.926 . S
O407 Mg408 1.986 . S
O407 Mg409 1.917 . S
Mg408 O407 1.986 . S
Mg408 O415 2.042 . S
Mg408 O417 2.041 1_545 S
Mg408 O423 2.038 . S
Mg408 O431 2.238 1_545 S
Mg409 O407 1.917 . S
Mg409 O410 1.917 1_545 S
Mg409 O420 2.106 . S
Mg409 O422 2.079 . S
Mg409 O431 2.106 1_545 S
Mg409 O432 2.079 1_545 S
O410 Mg409 1.917 1_565 S
O410 Mg411 1.926 . S
O410 Mg412 1.986 1_565 S
Mg411 O410 1.926 . S
Mg411 O425 1.984 . S
Mg411 O428 1.988 1_565 S
Mg411 O429 2.061 . S
Mg412 O410 1.986 1_545 S
Mg412 O420 2.238 . S
Mg412 O424 2.042 1_545 S
Mg412 O426 2.041 . S
Mg412 O433 2.038 1_545 S
C413 O419 1.247 . S
C413 O420 1.289 . S
C414 O432 1.245 . S
C414 O433 1.274 . S
O415 C403 1.241 . S
O415 Mg408 2.042 . S
O416 C403 1.280 . S
O416 Mg406 1.984 . S
O417 C404 1.277 . S
O417 Mg408 2.041 1_565 S
O418 C404 1.245 . S
O418 Mg406 1.988 1_565 S
O419 Mg406 2.061 . S
O419 C413 1.247 . S
O420 Mg409 2.106 . S
O420 Mg412 2.238 . S
O420 C413 1.289 . S
C421 O422 1.245 . S
C421 O423 1.274 . S
O422 Mg409 2.079 . S
O422 C421 1.245 . S
O423 Mg408 2.038 . S
O423 C421 1.274 . S
O424 Mg412 2.042 1_565 S
O424 C427 1.241 . S
O425 Mg411 1.984 . S
O425 C427 1.280 . S
O426 Mg412 2.041 . S
O426 C430 1.277 . S
C427 O424 1.241 . S
C427 O425 1.280 . S
O428 Mg411 1.988 1_545 S
O428 C430 1.245 . S
O429 C405 1.247 . S
O429 Mg411 2.061 . S
C430 O426 1.277 . S
C430 O428 1.245 . S
O431 C405 1.289 . S
O431 Mg408 2.238 1_565 S
O431 Mg409 2.106 1_565 S
O432 Mg409 2.079 1_565 S
O432 C414 1.245 . S
O433 Mg412 2.038 1_565 S
O433 C414 1.274 . S
C434 O446 1.241 . S
C434 O447 1.280 . S
C435 O448 1.277 . S
C435 O449 1.245 . S
C436 O460 1.247 . S
C436 O462 1.289 . S
Mg437 O438 1.926 . S
Mg437 O447 1.984 . S
Mg437 O449 1.988 . S
Mg437 O450 2.061 . S
O438 Mg437 1.926 . S
O438 Mg439 1.986 . S
O438 Mg440 1.917 . S
Mg439 O438 1.986 . S
Mg439 O446 2.042 . S
Mg439 O448 2.041 . S
Mg439 O454 2.038 . S
Mg439 O462 2.238 . S
Mg440 O438 1.917 . S
Mg440 O441 1.917 . S
Mg440 O451 2.106 . S
Mg440 O453 2.079 . S
Mg440 O462 2.106 . S
Mg440 O463 2.079 . S
O441 Mg440 1.917 . S
O441 Mg442 1.926 . S
O441 Mg443 1.986 . S
Mg442 O441 1.926 . S
Mg442 O456 1.984 . S
Mg442 O459 1.988 . S
Mg442 O460 2.061 . S
Mg443 O441 1.986 . S
Mg443 O451 2.238 . S
Mg443 O455 2.042 . S
Mg443 O457 2.041 . S
Mg443 O464 2.038 . S
C444 O450 1.247 . S
C444 O451 1.289 . S
C445 O463 1.245 . S
C445 O464 1.274 . S
O446 C434 1.241 . S
O446 Mg439 2.042 . S
O447 C434 1.280 . S
O447 Mg437 1.984 . S
O448 C435 1.277 . S
O448 Mg439 2.041 . S
O449 C435 1.245 . S
O449 Mg437 1.988 . S
O450 Mg437 2.061 . S
O450 C444 1.247 . S
O451 Mg440 2.106 . S
O451 Mg443 2.238 . S
O451 C444 1.289 . S
C452 O453 1.245 . S
C452 O454 1.274 . S
O453 Mg440 2.079 . S
O453 C452 1.245 . S
O454 Mg439 2.038 . S
O454 C452 1.274 . S
O455 Mg443 2.042 . S
O455 C458 1.241 . S
O456 Mg442 1.984 . S
O456 C458 1.280 . S
O457 Mg443 2.041 . S
O457 C461 1.277 . S
C458 O455 1.241 . S
C458 O456 1.280 . S
O459 Mg442 1.988 . S
O459 C461 1.245 . S
O460 C436 1.247 . S
O460 Mg442 2.061 . S
C461 O457 1.277 . S
C461 O459 1.245 . S
O462 C436 1.289 . S
O462 Mg439 2.238 . S
O462 Mg440 2.106 . S
O463 Mg440 2.079 . S
O463 C445 1.245 . S
O464 Mg443 2.038 . S
O464 C445 1.274 . S
H465 C471 0.930 . S
H466 C475 0.930 . S
H467 C480 0.929 . S
H468 C478 0.929 . S
H469 C473 0.929 . S
H470 C479 0.929 . S
C471 H465 0.930 . S
C471 C472 1.367 . S
C471 C479 1.378 . S
C472 C471 1.367 . S
C472 C480 1.433 . S
C473 H469 0.929 . S
C473 C475 1.378 . S
C473 C477 1.350 . S
C474 C477 1.463 . S
C474 C479 1.350 . S
C474 N482 1.427 . S
C475 H466 0.930 . S
C475 C473 1.378 . S
C475 C476 1.367 . S
C476 C475 1.367 . S
C476 C478 1.433 . S
C477 C473 1.350 . S
C477 C474 1.463 . S
C477 N481 1.427 . S
C478 H468 0.929 . S
C478 C476 1.433 . S
C478 N481 1.384 . S
C479 H470 0.929 . S
C479 C471 1.378 . S
C479 C474 1.350 . S
C480 H467 0.929 . S
C480 C472 1.433 . S
C480 N482 1.384 . S
N481 C477 1.427 . S
N481 C478 1.384 . S
N482 C474 1.427 . S
N482 C480 1.384 . S
H483 C489 0.930 . S
H484 C493 0.930 . S
H485 C498 0.929 . S
H486 C496 0.929 . S
H487 C491 0.929 . S
H488 C497 0.929 . S
C489 H483 0.930 . S
C489 C490 1.367 . S
C489 C497 1.378 . S
C490 C489 1.367 . S
C490 C498 1.433 . S
C491 H487 0.929 . S
C491 C493 1.378 . S
C491 C495 1.350 . S
C492 C495 1.463 . S
C492 C497 1.350 . S
C492 N500 1.427 . S
C493 H484 0.930 . S
C493 C491 1.378 . S
C493 C494 1.367 . S
C494 C493 1.367 . S
C494 C496 1.433 . S
C495 C491 1.350 . S
C495 C492 1.463 . S
C495 N499 1.427 . S
C496 H486 0.929 . S
C496 C494 1.433 . S
C496 N499 1.384 . S
C497 H488 0.929 . S
C497 C489 1.378 . S
C497 C492 1.350 . S
C498 H485 0.929 . S
C498 C490 1.433 . S
C498 N500 1.384 . S
N499 C495 1.427 . S
N499 C496 1.384 . S
N500 C492 1.427 . S
N500 C498 1.384 . S
H501 C507 0.930 . S
H502 C511 0.930 . S
H503 C516 0.929 . S
H504 C514 0.929 . S
H505 C509 0.929 . S
H506 C515 0.929 . S
C507 H501 0.930 . S
C507 C508 1.367 . S
C507 C515 1.378 . S
C508 C507 1.367 . S
C508 C516 1.433 . S
C509 H505 0.929 . S
C509 C511 1.378 . S
C509 C513 1.350 . S
C510 C513 1.463 . S
C510 C515 1.350 . S
C510 N518 1.427 . S
C511 H502 0.930 . S
C511 C509 1.378 . S
C511 C512 1.367 . S
C512 C511 1.367 . S
C512 C514 1.433 . S
C513 C509 1.350 . S
C513 C510 1.463 . S
C513 N517 1.427 . S
C514 H504 0.929 . S
C514 C512 1.433 . S
C514 N517 1.384 . S
C515 H506 0.929 . S
C515 C507 1.378 . S
C515 C510 1.350 . S
C516 H503 0.929 . S
C516 C508 1.433 . S
C516 N518 1.384 . S
N517 C513 1.427 . S
N517 C514 1.384 . S
N518 C510 1.427 . S
N518 C516 1.384 . S
H519 C525 0.930 . S
H520 C529 0.930 . S
H521 C534 0.929 . S
H522 C532 0.929 . S
H523 C527 0.929 . S
H524 C533 0.929 . S
C525 H519 0.930 . S
C525 C526 1.367 . S
C525 C533 1.378 . S
C526 C525 1.367 . S
C526 C534 1.433 . S
C527 H523 0.929 . S
C527 C529 1.378 . S
C527 C531 1.350 . S
C528 C531 1.463 . S
C528 C533 1.350 . S
C528 N536 1.427 . S
C529 H520 0.930 . S
C529 C527 1.378 . S
C529 C530 1.367 . S
C530 C529 1.367 . S
C530 C532 1.433 . S
C531 C527 1.350 . S
C531 C528 1.463 . S
C531 N535 1.427 . S
C532 H522 0.929 . S
C532 C530 1.433 . S
C532 N535 1.384 . S
C533 H524 0.929 . S
C533 C525 1.378 . S
C533 C528 1.350 . S
C534 H521 0.929 . S
C534 C526 1.433 . S
C534 N536 1.384 . S
N535 C531 1.427 . S
N535 C532 1.384 . S
N536 C528 1.427 . S
N536 C534 1.384 . S
H537 C543 0.930 . S
H538 C547 0.930 . S
H539 C552 0.929 . S
H540 C550 0.929 . S
H541 C545 0.929 . S
H542 C551 0.929 . S
C543 H537 0.930 . S
C543 C544 1.367 . S
C543 C551 1.378 . S
C544 C543 1.367 . S
C544 C552 1.433 . S
C545 H541 0.929 . S
C545 C547 1.378 . S
C545 C549 1.350 . S
C546 C549 1.463 . S
C546 C551 1.350 . S
C546 N554 1.427 . S
C547 H538 0.930 . S
C547 C545 1.378 . S
C547 C548 1.367 . S
C548 C547 1.367 . S
C548 C550 1.433 . S
C549 C545 1.350 . S
C549 C546 1.463 . S
C549 N553 1.427 . S
C550 H540 0.929 . S
C550 C548 1.433 . S
C550 N553 1.384 . S
C551 H542 0.929 . S
C551 C543 1.378 . S
C551 C546 1.350 . S
C552 H539 0.929 . S
C552 C544 1.433 . S
C552 N554 1.384 . S
N553 C549 1.427 . S
N553 C550 1.384 . S
N554 C546 1.427 . S
N554 C552 1.384 . S
H555 C561 0.930 . S
H556 C565 0.930 . S
H557 C570 0.929 . S
H558 C568 0.929 . S
H559 C563 0.929 . S
H560 C569 0.929 . S
C561 H555 0.930 . S
C561 C562 1.367 . S
C561 C569 1.378 . S
C562 C561 1.367 . S
C562 C570 1.433 . S
C563 H559 0.929 . S
C563 C565 1.378 . S
C563 C567 1.350 . S
C564 C567 1.463 . S
C564 C569 1.350 . S
C564 N572 1.427 . S
C565 H556 0.930 . S
C565 C563 1.378 . S
C565 C566 1.367 . S
C566 C565 1.367 . S
C566 C568 1.433 . S
C567 C563 1.350 . S
C567 C564 1.463 . S
C567 N571 1.427 . S
C568 H558 0.929 . S
C568 C566 1.433 . S
C568 N571 1.384 . S
C569 H560 0.929 . S
C569 C561 1.378 . S
C569 C564 1.350 . S
C570 H557 0.929 . S
C570 C562 1.433 . S
C570 N572 1.384 . S
N571 C567 1.427 . S
N571 C568 1.384 . S
N572 C564 1.427 . S
N572 C570 1.384 . S
H573 C579 0.930 . S
H574 C583 0.930 . S
H575 C588 0.929 . S
H576 C586 0.929 . S
H577 C581 0.929 . S
H578 C587 0.929 . S
C579 H573 0.930 . S
C579 C580 1.367 . S
C579 C587 1.378 . S
C580 C579 1.367 . S
C580 C588 1.433 . S
C581 H577 0.929 . S
C581 C583 1.378 . S
C581 C585 1.350 . S
C582 C585 1.463 . S
C582 C587 1.350 . S
C582 N590 1.427 . S
C583 H574 0.930 . S
C583 C581 1.378 . S
C583 C584 1.367 . S
C584 C583 1.367 . S
C584 C586 1.433 . S
C585 C581 1.350 . S
C585 C582 1.463 . S
C585 N589 1.427 . S
C586 H576 0.929 . S
C586 C584 1.433 . S
C586 N589 1.384 . S
C587 H578 0.929 . S
C587 C579 1.378 . S
C587 C582 1.350 . S
C588 H575 0.929 . S
C588 C580 1.433 . S
C588 N590 1.384 . S
N589 C585 1.427 . S
N589 C586 1.384 . S
N590 C582 1.427 . S
N590 C588 1.384 . S
H591 C597 0.930 . S
H592 C601 0.930 . S
H593 C606 0.929 . S
H594 C604 0.929 . S
H595 C599 0.929 . S
H596 C605 0.929 . S
C597 H591 0.930 . S
C597 C598 1.367 . S
C597 C605 1.378 . S
C598 C597 1.367 . S
C598 C606 1.433 . S
C599 H595 0.929 . S
C599 C601 1.378 . S
C599 C603 1.350 . S
C600 C603 1.463 . S
C600 C605 1.350 . S
C600 N608 1.427 . S
C601 H592 0.930 . S
C601 C599 1.378 . S
C601 C602 1.367 . S
C602 C601 1.367 . S
C602 C604 1.433 . S
C603 C599 1.350 . S
C603 C600 1.463 . S
C603 N607 1.427 . S
C604 H594 0.929 . S
C604 C602 1.433 . S
C604 N607 1.384 . S
C605 H596 0.929 . S
C605 C597 1.378 . S
C605 C600 1.350 . S
C606 H593 0.929 . S
C606 C598 1.433 . S
C606 N608 1.384 . S
N607 C603 1.427 . S
N607 C604 1.384 . S
N608 C600 1.427 . S
N608 C606 1.384 . S
H609 C615 0.930 . S
H610 C619 0.930 . S
H611 C624 0.929 . S
H612 C622 0.929 . S
H613 C617 0.929 . S
H614 C623 0.929 . S
C615 H609 0.930 . S
C615 C616 1.367 . S
C615 C623 1.378 . S
C616 C615 1.367 . S
C616 C624 1.433 . S
C617 H613 0.929 . S
C617 C619 1.378 . S
C617 C621 1.350 . S
C618 C621 1.463 . S
C618 C623 1.350 . S
C618 N626 1.427 . S
C619 H610 0.930 . S
C619 C617 1.378 . S
C619 C620 1.367 . S
C620 C619 1.367 . S
C620 C622 1.433 . S
C621 C617 1.350 . S
C621 C618 1.463 . S
C621 N625 1.427 . S
C622 H612 0.929 . S
C622 C620 1.433 . S
C622 N625 1.384 . S
C623 H614 0.929 . S
C623 C615 1.378 . S
C623 C618 1.350 . S
C624 H611 0.929 . S
C624 C616 1.433 . S
C624 N626 1.384 . S
N625 C621 1.427 . S
N625 C622 1.384 . S
N626 C618 1.427 . S
N626 C624 1.384 . S
H627 C633 0.930 . S
H628 C637 0.930 . S
H629 C642 0.929 . S
H630 C640 0.929 . S
H631 C635 0.929 . S
H632 C641 0.929 . S
C633 H627 0.930 . S
C633 C634 1.367 . S
C633 C641 1.378 . S
C634 C633 1.367 . S
C634 C642 1.433 . S
C635 H631 0.929 . S
C635 C637 1.378 . S
C635 C639 1.350 . S
C636 C639 1.463 . S
C636 C641 1.350 . S
C636 N644 1.427 . S
C637 H628 0.930 . S
C637 C635 1.378 . S
C637 C638 1.367 . S
C638 C637 1.367 . S
C638 C640 1.433 . S
C639 C635 1.350 . S
C639 C636 1.463 . S
C639 N643 1.427 . S
C640 H630 0.929 . S
C640 C638 1.433 . S
C640 N643 1.384 . S
C641 H632 0.929 . S
C641 C633 1.378 . S
C641 C636 1.350 . S
C642 H629 0.929 . S
C642 C634 1.433 . S
C642 N644 1.384 . S
N643 C639 1.427 . S
N643 C640 1.384 . S
N644 C636 1.427 . S
N644 C642 1.384 . S
H645 C651 0.930 . S
H646 C655 0.930 . S
H647 C660 0.929 1_554 S
H648 C658 0.929 . S
H649 C653 0.929 . S
H650 C659 0.929 . S
C651 H645 0.930 . S
C651 C652 1.367 . S
C651 C659 1.378 . S
C652 C651 1.367 . S
C652 C660 1.433 . S
C653 H649 0.929 . S
C653 C655 1.378 . S
C653 C657 1.350 . S
C654 C657 1.463 . S
C654 C659 1.350 . S
C654 N662 1.427 . S
C655 H646 0.930 . S
C655 C653 1.378 . S
C655 C656 1.367 . S
C656 C655 1.367 . S
C656 C658 1.433 . S
C657 C653 1.350 . S
C657 C654 1.463 . S
C657 N661 1.427 . S
C658 H648 0.929 . S
C658 C656 1.433 . S
C658 N661 1.384 . S
C659 H650 0.929 . S
C659 C651 1.378 . S
C659 C654 1.350 . S
C660 H647 0.929 1_556 S
C660 C652 1.433 . S
C660 N662 1.384 . S
N661 C657 1.427 . S
N661 C658 1.384 . S
N662 C654 1.427 . S
N662 C660 1.384 . S
H663 C669 0.930 1_554 S
H664 C673 0.930 . S
H665 C678 0.929 . S
H666 C676 0.929 . S
H667 C671 0.929 . S
H668 C677 0.929 . S
C669 H663 0.930 1_556 S
C669 C670 1.367 . S
C669 C677 1.378 . S
C670 C669 1.367 . S
C670 C678 1.433 . S
C671 H667 0.929 . S
C671 C673 1.378 . S
C671 C675 1.350 . S
C672 C675 1.463 . S
C672 C677 1.350 . S
C672 N680 1.427 . S
C673 H664 0.930 . S
C673 C671 1.378 . S
C673 C674 1.367 . S
C674 C673 1.367 . S
C674 C676 1.433 . S
C675 C671 1.350 . S
C675 C672 1.463 . S
C675 N679 1.427 . S
C676 H666 0.929 . S
C676 C674 1.433 . S
C676 N679 1.384 . S
C677 H668 0.929 . S
C677 C669 1.378 . S
C677 C672 1.350 . S
C678 H665 0.929 . S
C678 C670 1.433 . S
C678 N680 1.384 . S
N679 C675 1.427 . S
N679 C676 1.384 . S
N680 C672 1.427 . S
N680 C678 1.384 . S
H681 C687 0.930 . S
H682 C691 0.930 . S
H683 C696 0.929 . S
H684 C694 0.929 . S
H685 C689 0.929 . S
H686 C695 0.929 . S
C687 H681 0.930 . S
C687 C688 1.367 . S
C687 C695 1.378 . S
C688 C687 1.367 . S
C688 C696 1.433 . S
C689 H685 0.929 . S
C689 C691 1.378 . S
C689 C693 1.350 . S
C690 C693 1.463 . S
C690 C695 1.350 . S
C690 N698 1.427 . S
C691 H682 0.930 . S
C691 C689 1.378 . S
C691 C692 1.367 . S
C692 C691 1.367 . S
C692 C694 1.433 . S
C693 C689 1.350 . S
C693 C690 1.463 . S
C693 N697 1.427 . S
C694 H684 0.929 . S
C694 C692 1.433 . S
C694 N697 1.384 . S
C695 H686 0.929 . S
C695 C687 1.378 . S
C695 C690 1.350 . S
C696 H683 0.929 . S
C696 C688 1.433 . S
C696 N698 1.384 . S
N697 C693 1.427 . S
N697 C694 1.384 . S
N698 C690 1.427 . S
N698 C696 1.384 . S
H699 C705 0.930 . S
H700 C709 0.930 . S
H701 C714 0.929 . S
H702 C712 0.929 . S
H703 C707 0.929 . S
H704 C713 0.929 . S
C705 H699 0.930 . S
C705 C706 1.367 . S
C705 C713 1.378 . S
C706 C705 1.367 . S
C706 C714 1.433 . S
C707 H703 0.929 . S
C707 C709 1.378 . S
C707 C711 1.350 . S
C708 C711 1.463 . S
C708 C713 1.350 . S
C708 N716 1.427 . S
C709 H700 0.930 . S
C709 C707 1.378 . S
C709 C710 1.367 . S
C710 C709 1.367 . S
C710 C712 1.433 . S
C711 C707 1.350 . S
C711 C708 1.463 . S
C711 N715 1.427 . S
C712 H702 0.929 . S
C712 C710 1.433 . S
C712 N715 1.384 . S
C713 H704 0.929 . S
C713 C705 1.378 . S
C713 C708 1.350 . S
C714 H701 0.929 . S
C714 C706 1.433 . S
C714 N716 1.384 . S
N715 C711 1.427 . S
N715 C712 1.384 . S
N716 C708 1.427 . S
N716 C714 1.384 . S
H717 C723 0.930 . S
H718 C727 0.930 . S
H719 C732 0.929 . S
H720 C730 0.929 . S
H721 C725 0.929 . S
H722 C731 0.929 . S
C723 H717 0.930 . S
C723 C724 1.367 . S
C723 C731 1.378 . S
C724 C723 1.367 . S
C724 C732 1.433 1_556 S
C725 H721 0.929 . S
C725 C727 1.378 . S
C725 C729 1.350 . S
C726 C729 1.463 . S
C726 C731 1.350 . S
C726 N734 1.427 . S
C727 H718 0.930 . S
C727 C725 1.378 . S
C727 C728 1.367 . S
C728 C727 1.367 . S
C728 C730 1.433 . S
C729 C725 1.350 . S
C729 C726 1.463 . S
C729 N733 1.427 . S
C730 H720 0.929 . S
C730 C728 1.433 . S
C730 N733 1.384 . S
C731 H722 0.929 . S
C731 C723 1.378 . S
C731 C726 1.350 . S
C732 H719 0.929 . S
C732 C724 1.433 1_554 S
C732 N734 1.384 1_554 S
N733 C729 1.427 . S
N733 C730 1.384 . S
N734 C726 1.427 . S
N734 C732 1.384 1_556 S
H735 C741 0.930 . S
H736 C745 0.930 . S
H737 C750 0.929 . S
H738 C748 0.929 . S
H739 C743 0.929 . S
H740 C749 0.929 . S
C741 H735 0.930 . S
C741 C742 1.367 . S
C741 C749 1.378 . S
C742 C741 1.367 . S
C742 C750 1.433 . S
C743 H739 0.929 . S
C743 C745 1.378 . S
C743 C747 1.350 . S
C744 C747 1.463 . S
C744 C749 1.350 . S
C744 N752 1.427 . S
C745 H736 0.930 . S
C745 C743 1.378 . S
C745 C746 1.367 . S
C746 C745 1.367 . S
C746 C748 1.433 . S
C747 C743 1.350 . S
C747 C744 1.463 . S
C747 N751 1.427 . S
C748 H738 0.929 . S
C748 C746 1.433 . S
C748 N751 1.384 . S
C749 H740 0.929 . S
C749 C741 1.378 . S
C749 C744 1.350 . S
C750 H737 0.929 . S
C750 C742 1.433 . S
C750 N752 1.384 . S
N751 C747 1.427 . S
N751 C748 1.384 . S
N752 C744 1.427 . S
N752 C750 1.384 . S
H753 C759 0.930 . S
H754 C763 0.930 . S
H755 C768 0.929 . S
H756 C766 0.929 . S
H757 C761 0.929 . S
H758 C767 0.929 . S
C759 H753 0.930 . S
C759 C760 1.367 . S
C759 C767 1.378 . S
C760 C759 1.367 . S
C760 C768 1.433 . S
C761 H757 0.929 . S
C761 C763 1.378 . S
C761 C765 1.350 . S
C762 C765 1.463 . S
C762 C767 1.350 . S
C762 N770 1.427 . S
C763 H754 0.930 . S
C763 C761 1.378 . S
C763 C764 1.367 . S
C764 C763 1.367 . S
C764 C766 1.433 . S
C765 C761 1.350 . S
C765 C762 1.463 . S
C765 N769 1.427 . S
C766 H756 0.929 . S
C766 C764 1.433 . S
C766 N769 1.384 . S
C767 H758 0.929 . S
C767 C759 1.378 . S
C767 C762 1.350 . S
C768 H755 0.929 . S
C768 C760 1.433 . S
C768 N770 1.384 . S
N769 C765 1.427 . S
N769 C766 1.384 . S
N770 C762 1.427 . S
N770 C768 1.384 . S
H771 C777 0.930 . S
H772 C781 0.930 . S
H773 C786 0.929 . S
H774 C784 0.929 . S
H775 C779 0.929 . S
H776 C785 0.929 . S
C777 H771 0.930 . S
C777 C778 1.367 . S
C777 C785 1.378 . S
C778 C777 1.367 . S
C778 C786 1.433 . S
C779 H775 0.929 . S
C779 C781 1.378 . S
C779 C783 1.350 . S
C780 C783 1.463 . S
C780 C785 1.350 . S
C780 N788 1.427 . S
C781 H772 0.930 . S
C781 C779 1.378 . S
C781 C782 1.367 . S
C782 C781 1.367 . S
C782 C784 1.433 . S
C783 C779 1.350 . S
C783 C780 1.463 . S
C783 N787 1.427 . S
C784 H774 0.929 . S
C784 C782 1.433 . S
C784 N787 1.384 . S
C785 H776 0.929 . S
C785 C777 1.378 . S
C785 C780 1.350 . S
C786 H773 0.929 . S
C786 C778 1.433 . S
C786 N788 1.384 . S
N787 C783 1.427 . S
N787 C784 1.384 . S
N788 C780 1.427 . S
N788 C786 1.384 . S
H789 C795 0.930 . S
H790 C799 0.930 . S
H791 C804 0.929 . S
H792 C802 0.929 . S
H793 C797 0.929 . S
H794 C803 0.929 . S
C795 H789 0.930 . S
C795 C796 1.367 . S
C795 C803 1.378 . S
C796 C795 1.367 . S
C796 C804 1.433 . S
C797 H793 0.929 . S
C797 C799 1.378 . S
C797 C801 1.350 . S
C798 C801 1.463 . S
C798 C803 1.350 . S
C798 N806 1.427 . S
C799 H790 0.930 . S
C799 C797 1.378 . S
C799 C800 1.367 . S
C800 C799 1.367 . S
C800 C802 1.433 . S
C801 C797 1.350 . S
C801 C798 1.463 . S
C801 N805 1.427 . S
C802 H792 0.929 . S
C802 C800 1.433 . S
C802 N805 1.384 . S
C803 H794 0.929 . S
C803 C795 1.378 . S
C803 C798 1.350 . S
C804 H791 0.929 . S
C804 C796 1.433 . S
C804 N806 1.384 . S
N805 C801 1.427 . S
N805 C802 1.384 . S
N806 C798 1.427 . S
N806 C804 1.384 . S
H807 C813 0.930 . S
H808 C817 0.930 . S
H809 C822 0.929 . S
H810 C820 0.929 . S
H811 C815 0.929 . S
H812 C821 0.929 . S
C813 H807 0.930 . S
C813 C814 1.367 . S
C813 C821 1.378 . S
C814 C813 1.367 . S
C814 C822 1.433 . S
C815 H811 0.929 . S
C815 C817 1.378 . S
C815 C819 1.350 . S
C816 C819 1.463 . S
C816 C821 1.350 . S
C816 N824 1.427 . S
C817 H808 0.930 . S
C817 C815 1.378 . S
C817 C818 1.367 . S
C818 C817 1.367 . S
C818 C820 1.433 . S
C819 C815 1.350 . S
C819 C816 1.463 . S
C819 N823 1.427 . S
C820 H810 0.929 . S
C820 C818 1.433 . S
C820 N823 1.384 . S
C821 H812 0.929 . S
C821 C813 1.378 . S
C821 C816 1.350 . S
C822 H809 0.929 . S
C822 C814 1.433 . S
C822 N824 1.384 . S
N823 C819 1.427 . S
N823 C820 1.384 . S
N824 C816 1.427 . S
N824 C822 1.384 . S
H825 C831 0.930 . S
H826 C835 0.930 . S
H827 C840 0.929 . S
H828 C838 0.929 . S
H829 C833 0.929 . S
H830 C839 0.929 . S
C831 H825 0.930 . S
C831 C832 1.367 . S
C831 C839 1.378 . S
C832 C831 1.367 . S
C832 C840 1.433 . S
C833 H829 0.929 . S
C833 C835 1.378 . S
C833 C837 1.350 . S
C834 C837 1.463 . S
C834 C839 1.350 . S
C834 N842 1.427 . S
C835 H826 0.930 . S
C835 C833 1.378 . S
C835 C836 1.367 . S
C836 C835 1.367 . S
C836 C838 1.433 . S
C837 C833 1.350 . S
C837 C834 1.463 . S
C837 N841 1.427 . S
C838 H828 0.929 . S
C838 C836 1.433 . S
C838 N841 1.384 . S
C839 H830 0.929 . S
C839 C831 1.378 . S
C839 C834 1.350 . S
C840 H827 0.929 . S
C840 C832 1.433 . S
C840 N842 1.384 . S
N841 C837 1.427 . S
N841 C838 1.384 . S
N842 C834 1.427 . S
N842 C840 1.384 . S
H843 C849 0.930 . S
H844 C853 0.930 . S
H845 C858 0.929 . S
H846 C856 0.929 . S
H847 C851 0.929 . S
H848 C857 0.929 . S
C849 H843 0.930 . S
C849 C850 1.367 . S
C849 C857 1.378 . S
C850 C849 1.367 . S
C850 C858 1.433 . S
C851 H847 0.929 . S
C851 C853 1.378 . S
C851 C855 1.350 . S
C852 C855 1.463 . S
C852 C857 1.350 . S
C852 N860 1.427 . S
C853 H844 0.930 . S
C853 C851 1.378 . S
C853 C854 1.367 . S
C854 C853 1.367 . S
C854 C856 1.433 . S
C855 C851 1.350 . S
C855 C852 1.463 . S
C855 N859 1.427 . S
C856 H846 0.929 . S
C856 C854 1.433 . S
C856 N859 1.384 . S
C857 H848 0.929 . S
C857 C849 1.378 . S
C857 C852 1.350 . S
C858 H845 0.929 . S
C858 C850 1.433 . S
C858 N860 1.384 . S
N859 C855 1.427 . S
N859 C856 1.384 . S
N860 C852 1.427 . S
N860 C858 1.384 . S
H861 C867 0.930 . S
H862 C871 0.930 . S
H863 C876 0.929 . S
H864 C874 0.929 . S
H865 C869 0.929 . S
H866 C875 0.929 . S
C867 H861 0.930 . S
C867 C868 1.367 . S
C867 C875 1.378 . S
C868 C867 1.367 . S
C868 C876 1.433 . S
C869 H865 0.929 . S
C869 C871 1.378 . S
C869 C873 1.350 . S
C870 C873 1.463 . S
C870 C875 1.350 . S
C870 N878 1.427 . S
C871 H862 0.930 . S
C871 C869 1.378 . S
C871 C872 1.367 . S
C872 C871 1.367 . S
C872 C874 1.433 . S
C873 C869 1.350 . S
C873 C870 1.463 . S
C873 N877 1.427 . S
C874 H864 0.929 . S
C874 C872 1.433 . S
C874 N877 1.384 . S
C875 H866 0.929 . S
C875 C867 1.378 . S
C875 C870 1.350 . S
C876 H863 0.929 . S
C876 C868 1.433 . S
C876 N878 1.384 . S
N877 C873 1.427 . S
N877 C874 1.384 . S
N878 C870 1.427 . S
N878 C876 1.384 . S
H879 C885 0.930 . S
H880 C889 0.930 . S
H881 C894 0.929 . S
H882 C892 0.929 . S
H883 C887 0.929 . S
H884 C893 0.929 . S
C885 H879 0.930 . S
C885 C886 1.367 . S
C885 C893 1.378 . S
C886 C885 1.367 . S
C886 C894 1.433 . S
C887 H883 0.929 . S
C887 C889 1.378 . S
C887 C891 1.350 . S
C888 C891 1.463 . S
C888 C893 1.350 . S
C888 N896 1.427 . S
C889 H880 0.930 . S
C889 C887 1.378 . S
C889 C890 1.367 . S
C890 C889 1.367 . S
C890 C892 1.433 . S
C891 C887 1.350 . S
C891 C888 1.463 . S
C891 N895 1.427 . S
C892 H882 0.929 . S
C892 C890 1.433 . S
C892 N895 1.384 . S
C893 H884 0.929 . S
C893 C885 1.378 . S
C893 C888 1.350 . S
C894 H881 0.929 . S
C894 C886 1.433 . S
C894 N896 1.384 . S
N895 C891 1.427 . S
N895 C892 1.384 . S
N896 C888 1.427 . S
N896 C894 1.384 . S
C472 C47 2.009 . S
C476 C383 2.124 . S
C490 C91 1.836 . S
C494 C430 1.910 . S
C512 C434 1.824 . S
C508 C177 1.906 . S
C530 C399 1.780 . S
C526 C215 1.763 . S
C544 C295 1.936 . S
C548 C414 1.999 . S
C566 C436 0.882 . S
C562 C345 0.899 . S
C584 C405 1.695 . S
C580 C153 1.638 . S
C598 C239 1.339 . S
C602 C445 1.305 . S
C620 C374 1.250 . S
C616 C283 1.289 . S
C634 C357 1.658 1_556 S
C638 C403 1.705 . S
C652 C35 1.962 1_556 S
C656 C461 1.896 . S
C674 C372 1.467 . S
C670 C115 1.522 1_556 S
C692 C390 1.720 . S
C688 C221 1.785 . S
C710 C404 1.546 . S
C706 C301 1.559 . S
C728 C458 2.103 . S
C724 C339 2.064 1_556 S
C746 C373 1.518 . S
C742 C53 1.560 1_556 S
C764 C421 1.691 . S
C760 C97 1.790 . S
C778 C171 1.209 . S
C782 C444 1.254 . S
C800 C413 1.297 . S
C796 C363 1.318 . S
C818 C452 1.702 . S
C814 C29 1.576 . S
C836 C382 1.545 . S
C832 C109 1.547 . S
C854 C427 1.435 . S
C850 C159 1.497 . S
C868 C233 2.168 . S
C872 C435 2.193 . S
C886 C277 1.713 . S
C890 C396 1.810 . S
