# Generated by pormake.
# Topology bwt, (3,3)-cn, num edge types: 1
# Building blocks:
#     Node 0, Type 0, BuildingBlock: OLANEW_clean_sbu_2, # of connection points: 3
#     Node 1, Type 0, BuildingBlock: OLANEW_clean_sbu_2, # of connection points: 3
#     Node 2, Type 0, BuildingBlock: OLANEW_clean_sbu_2, # of connection points: 3
#     Node 3, Type 0, BuildingBlock: OLANEW_clean_sbu_2, # of connection points: 3
#     Node 4, Type 0, BuildingBlock: OLANEW_clean_sbu_2, # of connection points: 3
#     Node 5, Type 0, BuildingBlock: OLANEW_clean_sbu_2, # of connection points: 3
#     Node 6, Type 0, BuildingBlock: OLANEW_clean_sbu_2, # of connection points: 3
#     Node 7, Type 0, BuildingBlock: OLANEW_clean_sbu_2, # of connection points: 3
#     Node 8, Type 0, BuildingBlock: OLANEW_clean_sbu_2, # of connection points: 3
#     Node 9, Type 0, BuildingBlock: OLANEW_clean_sbu_2, # of connection points: 3
#     Node 10, Type 0, BuildingBlock: OLANEW_clean_sbu_2, # of connection points: 3
#     Node 11, Type 0, BuildingBlock: OLANEW_clean_sbu_2, # of connection points: 3
#     Node 12, Type 0, BuildingBlock: OLANEW_clean_sbu_2, # of connection points: 3
#     Node 13, Type 0, BuildingBlock: OLANEW_clean_sbu_2, # of connection points: 3
#     Node 14, Type 0, BuildingBlock: OLANEW_clean_sbu_2, # of connection points: 3
#     Node 15, Type 0, BuildingBlock: OLANEW_clean_sbu_2, # of connection points: 3
#     Node 16, Type 0, BuildingBlock: OLANEW_clean_sbu_2, # of connection points: 3
#     Node 17, Type 0, BuildingBlock: OLANEW_clean_sbu_2, # of connection points: 3
#     Node 18, Type 0, BuildingBlock: OLANEW_clean_sbu_2, # of connection points: 3
#     Node 19, Type 0, BuildingBlock: OLANEW_clean_sbu_2, # of connection points: 3
#     Node 20, Type 0, BuildingBlock: OLANEW_clean_sbu_2, # of connection points: 3
#     Node 21, Type 0, BuildingBlock: OLANEW_clean_sbu_2, # of connection points: 3
#     Node 22, Type 0, BuildingBlock: OLANEW_clean_sbu_2, # of connection points: 3
#     Node 23, Type 0, BuildingBlock: OLANEW_clean_sbu_2, # of connection points: 3
#     Node 24, Type 1, BuildingBlock: CUQRIR_clean_linker_1, # of connection points: 3
#     Node 25, Type 1, BuildingBlock: CUQRIR_clean_linker_1, # of connection points: 3
#     Node 26, Type 1, BuildingBlock: CUQRIR_clean_linker_1, # of connection points: 3
#     Node 27, Type 1, BuildingBlock: CUQRIR_clean_linker_1, # of connection points: 3
#     Node 28, Type 1, BuildingBlock: CUQRIR_clean_linker_1, # of connection points: 3
#     Node 29, Type 1, BuildingBlock: CUQRIR_clean_linker_1, # of connection points: 3
#     Node 30, Type 1, BuildingBlock: CUQRIR_clean_linker_1, # of connection points: 3
#     Node 31, Type 1, BuildingBlock: CUQRIR_clean_linker_1, # of connection points: 3
#     Node 32, Type 1, BuildingBlock: CUQRIR_clean_linker_1, # of connection points: 3
#     Node 33, Type 1, BuildingBlock: CUQRIR_clean_linker_1, # of connection points: 3
#     Node 34, Type 1, BuildingBlock: CUQRIR_clean_linker_1, # of connection points: 3
#     Node 35, Type 1, BuildingBlock: CUQRIR_clean_linker_1, # of connection points: 3
#     Node 36, Type 1, BuildingBlock: CUQRIR_clean_linker_1, # of connection points: 3
#     Node 37, Type 1, BuildingBlock: CUQRIR_clean_linker_1, # of connection points: 3
#     Node 38, Type 1, BuildingBlock: CUQRIR_clean_linker_1, # of connection points: 3
#     Node 39, Type 1, BuildingBlock: CUQRIR_clean_linker_1, # of connection points: 3
#     Node 40, Type 1, BuildingBlock: CUQRIR_clean_linker_1, # of connection points: 3
#     Node 41, Type 1, BuildingBlock: CUQRIR_clean_linker_1, # of connection points: 3
#     Node 42, Type 1, BuildingBlock: CUQRIR_clean_linker_1, # of connection points: 3
#     Node 43, Type 1, BuildingBlock: CUQRIR_clean_linker_1, # of connection points: 3
#     Node 44, Type 1, BuildingBlock: CUQRIR_clean_linker_1, # of connection points: 3
#     Node 45, Type 1, BuildingBlock: CUQRIR_clean_linker_1, # of connection points: 3
#     Node 46, Type 1, BuildingBlock: CUQRIR_clean_linker_1, # of connection points: 3
#     Node 47, Type 1, BuildingBlock: CUQRIR_clean_linker_1, # of connection points: 3
#     Edge 48, Type (0, 1), None
#     Edge 49, Type (0, 1), None
#     Edge 50, Type (0, 1), None
#     Edge 51, Type (0, 1), None
#     Edge 52, Type (0, 1), None
#     Edge 53, Type (0, 1), None
#     Edge 54, Type (0, 1), None
#     Edge 55, Type (0, 1), None
#     Edge 56, Type (0, 1), None
#     Edge 57, Type (0, 1), None
#     Edge 58, Type (0, 1), None
#     Edge 59, Type (0, 1), None
#     Edge 60, Type (0, 1), None
#     Edge 61, Type (0, 1), None
#     Edge 62, Type (0, 1), None
#     Edge 63, Type (0, 1), None
#     Edge 64, Type (0, 1), None
#     Edge 65, Type (0, 1), None
#     Edge 66, Type (0, 1), None
#     Edge 67, Type (0, 1), None
#     Edge 68, Type (0, 1), None
#     Edge 69, Type (0, 1), None
#     Edge 70, Type (0, 1), None
#     Edge 71, Type (0, 1), None
#     Edge 72, Type (0, 1), None
#     Edge 73, Type (0, 1), None
#     Edge 74, Type (0, 1), None
#     Edge 75, Type (0, 1), None
#     Edge 76, Type (0, 1), None
#     Edge 77, Type (0, 1), None
#     Edge 78, Type (0, 1), None
#     Edge 79, Type (0, 1), None
#     Edge 80, Type (0, 1), None
#     Edge 81, Type (0, 1), None
#     Edge 82, Type (0, 1), None
#     Edge 83, Type (0, 1), None
#     Edge 84, Type (0, 1), None
#     Edge 85, Type (0, 1), None
#     Edge 86, Type (0, 1), None
#     Edge 87, Type (0, 1), None
#     Edge 88, Type (0, 1), None
#     Edge 89, Type (0, 1), None
#     Edge 90, Type (0, 1), None
#     Edge 91, Type (0, 1), None
#     Edge 92, Type (0, 1), None
#     Edge 93, Type (0, 1), None
#     Edge 94, Type (0, 1), None
#     Edge 95, Type (0, 1), None
#     Edge 96, Type (0, 1), None
#     Edge 97, Type (0, 1), None
#     Edge 98, Type (0, 1), None
#     Edge 99, Type (0, 1), None
#     Edge 100, Type (0, 1), None
#     Edge 101, Type (0, 1), None
#     Edge 102, Type (0, 1), None
#     Edge 103, Type (0, 1), None
#     Edge 104, Type (0, 1), None
#     Edge 105, Type (0, 1), None
#     Edge 106, Type (0, 1), None
#     Edge 107, Type (0, 1), None
#     Edge 108, Type (0, 1), None
#     Edge 109, Type (0, 1), None
#     Edge 110, Type (0, 1), None
#     Edge 111, Type (0, 1), None
#     Edge 112, Type (0, 1), None
#     Edge 113, Type (0, 1), None
#     Edge 114, Type (0, 1), None
#     Edge 115, Type (0, 1), None
#     Edge 116, Type (0, 1), None
#     Edge 117, Type (0, 1), None
#     Edge 118, Type (0, 1), None
#     Edge 119, Type (0, 1), None
# Relax obj value: 0.046
# Max RMSD: 0.134
# Mean RMSD: 0.079
data_MOF--net-bwt--node1-OLANEW_clean_sbu_2--node2-CUQRIR_clean_linker_1--edge1-none
_symmetry_space_group_name_H-M    P1
_symmetry_Int_Tables_number       1
_symmetry_cell_setting            triclinic
loop_
_symmetry_equiv_pos_as_xyz
'x, y, z'
_cell_length_a     23.523335
_cell_length_b     23.522982
_cell_length_c     23.523025
_cell_angle_alpha  92.258299
_cell_angle_beta   92.258332
_cell_angle_gamma 92.258623
loop_
_atom_site_label
_atom_site_type_symbol
_atom_site_fract_x
_atom_site_fract_y
_atom_site_fract_z
_atom_type_partial_charge
O0 O 0.25542 0.53075 0.4319 0.0
Cd1 Cd 0.24833 0.58896 0.34827 0.0
O2 O 0.2963 0.59747 0.48892 0.0
Cd3 Cd 0.3152 0.6439 0.41336 0.0
O4 O 0.37862 0.63427 0.34905 0.0
C5 C 0.38557 0.58349 0.33091 0.0
O6 O 0.3506 0.54329 0.34778 0.0
C7 C 0.27421 0.54747 0.48139 0.0
C8 C 0.1437 0.56658 0.29156 0.0
O9 O 0.18474 0.53281 0.28671 0.0
O10 O 0.15251 0.61218 0.32283 0.0
O11 O 0.26903 0.47465 0.94691 0.0
Cd12 Cd 0.27181 0.42076 0.85628 0.0
O13 O 0.23893 0.40209 0.99488 0.0
Cd14 Cd 0.21408 0.35863 0.91293 0.0
O15 O 0.15011 0.38372 0.84945 0.0
C16 C 0.12059 0.35458 0.81149 0.0
O17 O 0.13073 0.30044 0.8036 0.0
C18 C 0.25706 0.45374 0.99423 0.0
C19 C 0.3694 0.44994 0.79843 0.0
O20 O 0.32456 0.47894 0.79545 0.0
O21 O 0.368 0.40622 0.82926 0.0
O22 O 0.75853 0.00263 0.53101 0.0
Cd23 Cd 0.75296 0.96292 0.6248 0.0
O24 O 0.77538 0.92175 0.4863 0.0
Cd25 Cd 0.78927 0.88349 0.56844 0.0
O26 O 0.84448 0.90627 0.64315 0.0
C27 C 0.88771 0.87827 0.65609 0.0
O28 O 0.89451 0.82979 0.62815 0.0
C29 C 0.76557 0.97444 0.4847 0.0
C30 C 0.65066 0.98033 0.67754 0.0
O31 O 0.65694 0.93562 0.64585 0.0
O32 O 0.69268 0.01675 0.683 0.0
O33 O 0.75221 0.9976 0.0625 0.0
Cd34 Cd 0.75938 0.03266 0.16176 0.0
O35 O 0.71286 0.07304 0.02871 0.0
Cd36 Cd 0.70032 0.10614 0.11537 0.0
O37 O 0.64116 0.08482 0.18143 0.0
C38 C 0.60837 0.11899 0.20569 0.0
O39 O 0.61401 0.17337 0.19555 0.0
C40 C 0.73261 0.02398 0.02025 0.0
C41 C 0.86114 0.01003 0.22095 0.0
O42 O 0.81891 0.97376 0.21841 0.0
O43 O 0.85549 0.05573 0.19378 0.0
O44 O 0.43184 0.25523 0.53074 0.0
Cd45 Cd 0.34816 0.24813 0.5889 0.0
O46 O 0.48881 0.29609 0.5975 0.0
Cd47 Cd 0.41319 0.3149 0.64388 0.0
O48 O 0.34871 0.37814 0.63418 0.0
C49 C 0.33072 0.38515 0.58337 0.0
O50 O 0.34783 0.35034 0.54316 0.0
C51 C 0.48131 0.27402 0.5475 0.0
C52 C 0.2915 0.14348 0.5665 0.0
O53 O 0.28661 0.18453 0.53275 0.0
O54 O 0.32275 0.1523 0.61212 0.0
O55 O 0.06232 0.75216 0.99754 0.0
Cd56 Cd 0.16158 0.75934 0.0326 0.0
O57 O 0.02855 0.71283 0.07301 0.0
Cd58 Cd 0.11521 0.70031 0.10609 0.0
O59 O 0.18129 0.64117 0.08477 0.0
C60 C 0.20553 0.60835 0.11893 0.0
O61 O 0.19535 0.61396 0.1733 0.0
C62 C 0.02008 0.73258 0.02394 0.0
C63 C 0.22077 0.86111 0.00999 0.0
O64 O 0.21824 0.81889 0.97372 0.0
O65 O 0.19359 0.85545 0.05569 0.0
O66 O 0.94691 0.26936 0.47465 0.0
Cd67 Cd 0.8563 0.27214 0.42069 0.0
O68 O 0.99487 0.23911 0.40214 0.0
Cd69 Cd 0.91291 0.21421 0.35871 0.0
O70 O 0.84939 0.15029 0.38381 0.0
C71 C 0.81141 0.12079 0.35466 0.0
O72 O 0.80357 0.13093 0.30051 0.0
C73 C 0.99422 0.25732 0.45376 0.0
C74 C 0.79835 0.36968 0.44986 0.0
O75 O 0.79533 0.32481 0.47882 0.0
O76 O 0.82925 0.36833 0.40619 0.0
O77 O 0.53093 0.75852 0.00273 0.0
Cd78 Cd 0.62472 0.75291 0.96305 0.0
O79 O 0.48628 0.77548 0.92185 0.0
Cd80 Cd 0.56844 0.78934 0.88363 0.0
O81 O 0.64318 0.84451 0.9064 0.0
C82 C 0.65615 0.88772 0.87839 0.0
O83 O 0.62823 0.89453 0.82991 0.0
C84 C 0.48463 0.76563 0.97452 0.0
C85 C 0.67748 0.65061 0.98048 0.0
O86 O 0.64577 0.65688 0.93579 0.0
O87 O 0.68293 0.69264 0.0169 0.0
O88 O 0.53082 0.43184 0.25537 0.0
Cd89 Cd 0.58883 0.34806 0.24818 0.0
O90 O 0.5977 0.48864 0.29627 0.0
Cd91 Cd 0.64398 0.41293 0.31496 0.0
O92 O 0.63422 0.34846 0.37822 0.0
C93 C 0.5834 0.33051 0.38523 0.0
O94 O 0.54321 0.34764 0.35041 0.0
C95 C 0.54767 0.48126 0.27422 0.0
C96 C 0.56638 0.29147 0.1435 0.0
O97 O 0.5326 0.28661 0.18454 0.0
O98 O 0.61201 0.32268 0.15234 0.0
O99 O 0.99758 0.06238 0.75213 0.0
Cd100 Cd 0.03264 0.16164 0.75933 0.0
O101 O 0.07302 0.02863 0.71274 0.0
Cd102 Cd 0.10609 0.1153 0.70022 0.0
O103 O 0.08476 0.18143 0.64114 0.0
C104 C 0.11891 0.20567 0.60832 0.0
O105 O 0.17328 0.19545 0.61389 0.0
C106 C 0.02397 0.02015 0.73252 0.0
C107 C 0.01009 0.22082 0.86112 0.0
O108 O 0.9738 0.2183 0.81892 0.0
O109 O 0.05578 0.19363 0.85545 0.0
O110 O 0.47456 0.94703 0.26919 0.0
Cd111 Cd 0.42055 0.85645 0.27198 0.0
O112 O 0.40206 0.99505 0.23901 0.0
Cd113 Cd 0.35856 0.91312 0.21415 0.0
O114 O 0.38368 0.84954 0.15028 0.0
C115 C 0.35455 0.81153 0.1208 0.0
O116 O 0.30039 0.80367 0.13094 0.0
C117 C 0.45369 0.99436 0.25719 0.0
C118 C 0.44969 0.79854 0.36954 0.0
O119 O 0.47866 0.79551 0.32468 0.0
O120 O 0.40602 0.82944 0.36817 0.0
O121 O 0.00255 0.53097 0.75867 0.0
Cd122 Cd 0.96296 0.6248 0.75302 0.0
O123 O 0.92159 0.48635 0.77541 0.0
Cd124 Cd 0.8834 0.56854 0.78923 0.0
O125 O 0.9062 0.64325 0.84443 0.0
C126 C 0.87818 0.65622 0.88765 0.0
O127 O 0.82968 0.62834 0.89443 0.0
C128 C 0.97429 0.48468 0.76568 0.0
C129 C 0.98043 0.67744 0.65067 0.0
O130 O 0.93571 0.64578 0.65697 0.0
O131 O 0.01685 0.68291 0.6927 0.0
O132 O 0.81069 0.38245 0.57135 0.0
Cd133 Cd 0.83233 0.33661 0.66028 0.0
O134 O 0.72833 0.40034 0.60576 0.0
Cd135 Cd 0.64087 0.42698 0.61575 0.0
O136 O 0.56425 0.46073 0.65226 0.0
C137 C 0.54048 0.43426 0.69164 0.0
O138 O 0.56277 0.38708 0.70828 0.0
C139 C 0.76207 0.40359 0.56481 0.0
C140 C 0.93907 0.37064 0.71038 0.0
O141 O 0.93132 0.32215 0.68385 0.0
O142 O 0.8963 0.40237 0.71183 0.0
O143 O 0.67243 0.62635 0.10101 0.0
Cd144 Cd 0.66653 0.65177 0.20156 0.0
O145 O 0.75931 0.61157 0.12997 0.0
Cd146 Cd 0.84836 0.58974 0.12836 0.0
O147 O 0.92779 0.55577 0.1597 0.0
C148 C 0.96276 0.5867 0.19107 0.0
O149 O 0.95131 0.64027 0.20124 0.0
C150 C 0.7213 0.60901 0.08986 0.0
C151 C 0.56817 0.60252 0.2449 0.0
O152 O 0.57255 0.65576 0.23556 0.0
O153 O 0.61085 0.5728 0.2332 0.0
O154 O 0.3158 0.11657 0.44894 0.0
Cd155 Cd 0.33131 0.14743 0.35264 0.0
O156 O 0.23464 0.0891 0.40709 0.0
Cd157 Cd 0.14686 0.05675 0.40114 0.0
O158 O 0.06682 0.01662 0.36947 0.0
C159 C 0.03705 0.04282 0.33362 0.0
O160 O 0.05495 0.09398 0.32017 0.0
C161 C 0.26681 0.09236 0.45186 0.0
C162 C 0.43118 0.11129 0.30369 0.0
O163 O 0.4265 0.16282 0.32209 0.0
O164 O 0.38889 0.07672 0.31043 0.0
O165 O 0.20066 0.88898 0.88977 0.0
Cd166 Cd 0.18301 0.88081 0.787 0.0
O167 O 0.28444 0.90339 0.85593 0.0
Cd168 Cd 0.37483 0.92693 0.85081 0.0
O169 O 0.45258 0.9656 0.819 0.0
C170 C 0.4786 0.94167 0.77879 0.0
O171 O 0.4588 0.89182 0.75802 0.0
C172 C 0.25275 0.904 0.89858 0.0
C173 C 0.07267 0.90576 0.75021 0.0
O174 O 0.08964 0.85471 0.75111 0.0
O175 O 0.10822 0.94549 0.76851 0.0
O176 O 0.57118 0.81091 0.38235 0.0
Cd177 Cd 0.66016 0.83254 0.33661 0.0
O178 O 0.60559 0.72855 0.40025 0.0
Cd179 Cd 0.6156 0.6411 0.4269 0.0
O180 O 0.65213 0.56449 0.46067 0.0
C181 C 0.69152 0.54073 0.4342 0.0
O182 O 0.70815 0.56302 0.38702 0.0
C183 C 0.56464 0.76229 0.40349 0.0
C184 C 0.71026 0.93928 0.37065 0.0
O185 O 0.68381 0.93152 0.32213 0.0
O186 O 0.71162 0.89654 0.40242 0.0
O187 O 0.8899 0.20072 0.88908 0.0
Cd188 Cd 0.78713 0.18301 0.88092 0.0
O189 O 0.85606 0.28451 0.90346 0.0
Cd190 Cd 0.85093 0.37492 0.92695 0.0
O191 O 0.81913 0.45268 0.96561 0.0
C192 C 0.77884 0.47863 0.94174 0.0
O193 O 0.75798 0.45877 0.89195 0.0
C194 C 0.89871 0.25282 0.90407 0.0
C195 C 0.75034 0.07266 0.90586 0.0
O196 O 0.75123 0.08963 0.85481 0.0
O197 O 0.76866 0.1082 0.94559 0.0
O198 O 0.10091 0.67213 0.62644 0.0
Cd199 Cd 0.20139 0.666 0.65203 0.0
O200 O 0.13005 0.75892 0.61148 0.0
Cd201 Cd 0.12863 0.84794 0.5895 0.0
O202 O 0.15995 0.92738 0.55553 0.0
C203 C 0.19122 0.96241 0.5865 0.0
O204 O 0.20132 0.95099 0.6401 0.0
C205 C 0.08987 0.72099 0.60899 0.0
C206 C 0.24462 0.56766 0.60261 0.0
O207 O 0.23517 0.57191 0.65583 0.0
O208 O 0.23308 0.61045 0.57299 0.0
O209 O 0.44881 0.31578 0.11652 0.0
Cd210 Cd 0.35247 0.33128 0.14728 0.0
O211 O 0.40698 0.23459 0.08911 0.0
Cd212 Cd 0.40104 0.14678 0.05682 0.0
O213 O 0.36938 0.06674 0.01671 0.0
C214 C 0.33347 0.037 0.04287 0.0
O215 O 0.31995 0.05493 0.09399 0.0
C216 C 0.45174 0.26677 0.09235 0.0
C217 C 0.30353 0.43117 0.11116 0.0
O218 O 0.32191 0.42646 0.16269 0.0
O219 O 0.3103 0.38889 0.07657 0.0
O220 O 0.38227 0.57144 0.81085 0.0
Cd221 Cd 0.33653 0.66041 0.83252 0.0
O222 O 0.40014 0.60585 0.72849 0.0
Cd223 Cd 0.42675 0.61587 0.64102 0.0
O224 O 0.46048 0.65238 0.56439 0.0
C225 C 0.43401 0.69176 0.54062 0.0
O226 O 0.38684 0.70841 0.56292 0.0
C227 C 0.40338 0.5649 0.76222 0.0
C228 C 0.37057 0.71041 0.9393 0.0
O229 O 0.32204 0.68398 0.93151 0.0
O230 O 0.40234 0.7118 0.89656 0.0
O231 O 0.88897 0.88982 0.20072 0.0
Cd232 Cd 0.88073 0.78706 0.18298 0.0
O233 O 0.90347 0.85589 0.28445 0.0
Cd234 Cd 0.92709 0.85068 0.37482 0.0
O235 O 0.96576 0.81887 0.45257 0.0
C236 C 0.94184 0.77865 0.47857 0.0
O237 O 0.892 0.75787 0.45876 0.0
C238 C 0.90404 0.89858 0.25281 0.0
C239 C 0.90569 0.75032 0.07263 0.0
O240 O 0.85463 0.75125 0.08958 0.0
O241 O 0.94542 0.76858 0.10819 0.0
O242 O 0.62639 0.10079 0.67225 0.0
Cd243 Cd 0.65193 0.20128 0.66614 0.0
O244 O 0.61144 0.12993 0.75904 0.0
Cd245 Cd 0.58946 0.12848 0.84806 0.0
O246 O 0.55545 0.15982 0.92747 0.0
C247 C 0.58641 0.19112 0.96247 0.0
O248 O 0.64 0.20123 0.95105 0.0
C249 C 0.60896 0.08974 0.72112 0.0
C250 C 0.60254 0.24447 0.56777 0.0
O251 O 0.65577 0.23505 0.57205 0.0
O252 O 0.5729 0.23293 0.61055 0.0
O253 O 0.11667 0.44899 0.31574 0.0
Cd254 Cd 0.14729 0.35259 0.33125 0.0
O255 O 0.08933 0.40721 0.23451 0.0
Cd256 Cd 0.05711 0.40129 0.14667 0.0
O257 O 0.01695 0.36957 0.06666 0.0
C258 C 0.04308 0.33361 0.03695 0.0
O259 O 0.09419 0.32008 0.05488 0.0
C260 C 0.09256 0.45195 0.26671 0.0
C261 C 0.11116 0.30371 0.43116 0.0
O262 O 0.16271 0.32201 0.42642 0.0
O263 O 0.07656 0.31053 0.38891 0.0
C264 C 0.27946 0.47131 0.6061 0.0
N265 N 0.26643 0.51935 0.57869 0.0
N266 N 0.30155 0.43235 0.56989 0.0
C267 C 0.26564 0.46038 0.66691 0.0
C268 C 0.2978 0.45654 0.51837 0.0
N269 N 0.27718 0.50965 0.52383 0.0
C270 C 0.32462 0.43256 0.46538 0.0
H271 H 0.22114 0.47149 0.67468 0.0
H272 H 0.29456 0.48795 0.6952 0.0
H273 H 0.269 0.41535 0.678 0.0
H274 H 0.30291 0.39114 0.45208 0.0
H275 H 0.3702 0.42504 0.47504 0.0
H276 H 0.32347 0.4605 0.42882 0.0
C277 C 0.26478 0.52512 0.12818 0.0
N278 N 0.27622 0.47875 0.09443 0.0
N279 N 0.23467 0.5631 0.09829 0.0
C280 C 0.28873 0.53642 0.1884 0.0
C281 C 0.23154 0.54014 0.04417 0.0
N282 N 0.2561 0.48877 0.04192 0.0
C283 C 0.19517 0.56295 0.99612 0.0
H284 H 0.26655 0.5078 0.21745 0.0
H285 H 0.28548 0.58122 0.20365 0.0
H286 H 0.33473 0.52758 0.19074 0.0
H287 H 0.21313 0.60512 0.98467 0.0
H288 H 0.15125 0.56859 0.01031 0.0
H289 H 0.19111 0.53477 0.95736 0.0
C290 C 0.7468 0.03552 0.35259 0.0
N291 N 0.73935 0.98981 0.38596 0.0
N292 N 0.78464 0.07489 0.37803 0.0
C293 C 0.71147 0.04505 0.299 0.0
C294 C 0.79603 0.0538 0.43012 0.0
N295 N 0.76861 0.0025 0.43506 0.0
C296 C 0.84026 0.07945 0.47341 0.0
H297 H 0.72861 0.02076 0.26271 0.0
H298 H 0.71003 0.09058 0.28917 0.0
H299 H 0.66665 0.03026 0.30386 0.0
H300 H 0.82812 0.12279 0.48731 0.0
H301 H 0.88226 0.08299 0.45366 0.0
H302 H 0.84643 0.05366 0.51132 0.0
C303 C 0.71066 0.97807 0.8774 0.0
N304 N 0.72982 0.01889 0.917 0.0
N305 N 0.69091 0.9308 0.90264 0.0
C306 C 0.716 0.98209 0.8139 0.0
C307 C 0.70215 0.94238 0.9592 0.0
N308 N 0.72514 0.99631 0.96809 0.0
C309 C 0.67913 0.90539 0.00531 0.0
H310 H 0.68459 0.0121 0.79786 0.0
H311 H 0.70955 0.94036 0.79062 0.0
H312 H 0.7593 0.99839 0.80427 0.0
H313 H 0.69932 0.86354 0.00305 0.0
H314 H 0.63252 0.89776 0.99791 0.0
H315 H 0.6852 0.92345 0.04917 0.0
C316 C 0.60608 0.27928 0.47141 0.0
N317 N 0.57864 0.26626 0.51944 0.0
N318 N 0.56989 0.30136 0.43242 0.0
C319 C 0.66688 0.26542 0.4605 0.0
C320 C 0.51835 0.29761 0.45659 0.0
N321 N 0.52379 0.27702 0.50971 0.0
C322 C 0.46537 0.32443 0.43257 0.0
H323 H 0.67462 0.22092 0.47164 0.0
H324 H 0.69519 0.29433 0.48807 0.0
H325 H 0.67798 0.26875 0.41547 0.0
H326 H 0.45211 0.30271 0.39114 0.0
H327 H 0.47504 0.37001 0.42505 0.0
H328 H 0.42879 0.32327 0.46049 0.0
C329 C 0.87722 0.71071 0.97801 0.0
N330 N 0.91683 0.72981 0.01885 0.0
N331 N 0.90246 0.69093 0.93074 0.0
C332 C 0.81373 0.71611 0.98201 0.0
C333 C 0.95902 0.70212 0.94235 0.0
N334 N 0.96791 0.7251 0.99628 0.0
C335 C 0.00512 0.67905 0.90538 0.0
H336 H 0.79766 0.68473 0.01203 0.0
H337 H 0.79045 0.70968 0.94029 0.0
H338 H 0.80414 0.75943 0.99831 0.0
H339 H 0.00295 0.69928 0.86354 0.0
H340 H 0.99764 0.63245 0.8977 0.0
H341 H 0.04897 0.68501 0.9235 0.0
C342 C 0.12819 0.26495 0.52512 0.0
N343 N 0.09443 0.27643 0.47875 0.0
N344 N 0.09828 0.23487 0.5631 0.0
C345 C 0.18844 0.28882 0.53639 0.0
C346 C 0.04415 0.2318 0.54017 0.0
N347 N 0.04191 0.25637 0.4888 0.0
C348 C 0.99608 0.19549 0.56301 0.0
H349 H 0.21745 0.26657 0.50779 0.0
H350 H 0.20367 0.2856 0.58119 0.0
H351 H 0.19085 0.33481 0.52749 0.0
H352 H 0.98471 0.21341 0.60522 0.0
H353 H 0.0102 0.15152 0.56857 0.0
H354 H 0.95727 0.19152 0.53489 0.0
C355 C 0.3525 0.7469 0.03555 0.0
N356 N 0.38588 0.73946 0.98985 0.0
N357 N 0.37794 0.78474 0.07493 0.0
C358 C 0.2989 0.71158 0.04506 0.0
C359 C 0.43004 0.79611 0.05386 0.0
N360 N 0.43498 0.76869 0.00256 0.0
C361 C 0.47335 0.84029 0.07955 0.0
H362 H 0.26261 0.72875 0.02078 0.0
H363 H 0.28907 0.71012 0.09058 0.0
H364 H 0.30374 0.66677 0.03025 0.0
H365 H 0.48718 0.82816 0.12292 0.0
H366 H 0.45365 0.88232 0.08305 0.0
H367 H 0.51131 0.84641 0.05382 0.0
C368 C 0.47187 0.6062 0.27985 0.0
N369 N 0.51982 0.57868 0.26671 0.0
N370 N 0.43279 0.57001 0.3018 0.0
C371 C 0.46117 0.66713 0.26632 0.0
C372 C 0.45685 0.51842 0.2979 0.0
N373 N 0.50997 0.52381 0.27731 0.0
C374 C 0.43272 0.46541 0.32459 0.0
H375 H 0.47223 0.67503 0.22183 0.0
H376 H 0.48893 0.6952 0.29529 0.0
H377 H 0.41622 0.67841 0.26981 0.0
H378 H 0.39135 0.45218 0.30275 0.0
H379 H 0.42509 0.47502 0.37016 0.0
H380 H 0.46063 0.42882 0.32347 0.0
C381 C 0.97807 0.87729 0.71056 0.0
N382 N 0.0189 0.9169 0.7297 0.0
N383 N 0.9308 0.90253 0.69082 0.0
C384 C 0.98209 0.81379 0.71591 0.0
C385 C 0.94238 0.95908 0.70206 0.0
N386 N 0.99631 0.96798 0.72503 0.0
C387 C 0.90538 0.00519 0.67904 0.0
H388 H 0.01211 0.79775 0.68451 0.0
H389 H 0.94037 0.7905 0.70946 0.0
H390 H 0.99839 0.80417 0.75922 0.0
H391 H 0.86355 0.00296 0.69926 0.0
H392 H 0.89771 0.99776 0.63244 0.0
H393 H 0.92347 0.04905 0.68507 0.0
C394 C 0.52515 0.12828 0.26495 0.0
N395 N 0.47875 0.09454 0.27638 0.0
N396 N 0.56311 0.09837 0.23484 0.0
C397 C 0.53648 0.18849 0.28892 0.0
C398 C 0.54012 0.04426 0.23169 0.0
N399 N 0.48875 0.04203 0.25625 0.0
C400 C 0.56292 0.9962 0.19534 0.0
H401 H 0.50791 0.21756 0.26673 0.0
H402 H 0.5813 0.20369 0.28571 0.0
H403 H 0.52761 0.19083 0.33491 0.0
H404 H 0.6051 0.98475 0.21328 0.0
H405 H 0.56854 0.01037 0.1514 0.0
H406 H 0.53475 0.95743 0.1913 0.0
C407 C 0.03531 0.35256 0.74688 0.0
N408 N 0.9896 0.38593 0.73946 0.0
N409 N 0.07468 0.37797 0.78475 0.0
C410 C 0.04485 0.29899 0.7115 0.0
C411 C 0.05358 0.43004 0.79618 0.0
N412 N 0.00229 0.43501 0.76875 0.0
C413 C 0.07922 0.47329 0.84045 0.0
H414 H 0.02054 0.26268 0.7286 0.0
H415 H 0.09037 0.28916 0.71006 0.0
H416 H 0.03007 0.30391 0.66668 0.0
H417 H 0.12255 0.48725 0.8283 0.0
H418 H 0.0828 0.45351 0.88242 0.0
H419 H 0.0534 0.51118 0.84668 0.0
C420 C 0.74998 0.45638 0.42794 0.0
N421 N 0.76833 0.41668 0.46418 0.0
N422 N 0.71687 0.49404 0.45525 0.0
C423 C 0.75901 0.45396 0.36452 0.0
C424 C 0.71633 0.47626 0.50964 0.0
N425 N 0.7473 0.42889 0.51508 0.0
C426 C 0.69834 0.51377 0.55894 0.0
H427 H 0.75532 0.40938 0.34722 0.0
H428 H 0.80236 0.4715 0.35672 0.0
H429 H 0.72752 0.47752 0.33981 0.0
H430 H 0.6512 0.51211 0.56011 0.0
H431 H 0.71225 0.55867 0.55283 0.0
H432 H 0.71694 0.50207 0.60057 0.0
C433 C 0.7217 0.56404 0.94646 0.0
N434 N 0.70671 0.60193 0.98799 0.0
N435 N 0.75627 0.5247 0.96866 0.0
C436 C 0.70887 0.56999 0.88341 0.0
C437 C 0.76154 0.53972 0.02512 0.0
N438 N 0.73174 0.58688 0.03682 0.0
C439 C 0.78351 0.50009 0.06945 0.0
H440 H 0.6655 0.5517 0.87218 0.0
H441 H 0.73991 0.5488 0.85651 0.0
H442 H 0.71074 0.61527 0.87207 0.0
H443 H 0.83071 0.50074 0.06965 0.0
H444 H 0.76772 0.45578 0.05848 0.0
H445 H 0.76974 0.51063 0.11289 0.0
C446 C 0.24349 0.05491 0.59174 0.0
N447 N 0.26422 0.09193 0.55398 0.0
N448 N 0.21565 0.00967 0.56381 0.0
C449 C 0.24266 0.06687 0.65535 0.0
C450 C 0.22009 0.02054 0.50771 0.0
N451 N 0.24913 0.07097 0.50176 0.0
C452 C 0.20848 0.97565 0.46031 0.0
H453 H 0.27821 0.04509 0.67654 0.0
H454 H 0.202 0.05099 0.6724 0.0
H455 H 0.24674 0.11297 0.6669 0.0
H456 H 0.16184 0.96819 0.45312 0.0
H457 H 0.22643 0.93484 0.47292 0.0
H458 H 0.22754 0.98681 0.41977 0.0
C459 C 0.27473 0.94854 0.04138 0.0
N460 N 0.25285 0.90968 0.00101 0.0
N461 N 0.3075 0.98908 0.01724 0.0
C462 C 0.26915 0.94473 0.10503 0.0
C463 C 0.3052 0.97374 0.96086 0.0
N464 N 0.27236 0.92513 0.95099 0.0
C465 C 0.3227 0.01416 0.9154 0.0
H466 H 0.26074 0.90105 0.1186 0.0
H467 H 0.2341 0.97163 0.1188 0.0
H468 H 0.30907 0.96005 0.12824 0.0
H469 H 0.36976 0.01578 0.91314 0.0
H470 H 0.30944 0.0578 0.92668 0.0
H471 H 0.30333 0.00299 0.87267 0.0
C472 C 0.42776 0.75022 0.45626 0.0
N473 N 0.46401 0.76855 0.41656 0.0
N474 N 0.45507 0.7171 0.49393 0.0
C475 C 0.36434 0.75927 0.45383 0.0
C476 C 0.50946 0.71655 0.47616 0.0
N477 N 0.5149 0.74751 0.42877 0.0
C478 C 0.55874 0.69856 0.51367 0.0
H479 H 0.34704 0.75547 0.40926 0.0
H480 H 0.35657 0.80266 0.47126 0.0
H481 H 0.33961 0.72786 0.47748 0.0
H482 H 0.55992 0.65143 0.51202 0.0
H483 H 0.55263 0.71248 0.55857 0.0
H484 H 0.60038 0.71717 0.50198 0.0
C485 C 0.04153 0.2748 0.94852 0.0
N486 N 0.00114 0.25291 0.9097 0.0
N487 N 0.01742 0.30761 0.98906 0.0
C488 C 0.10518 0.26919 0.94471 0.0
C489 C 0.96104 0.30532 0.97375 0.0
N490 N 0.95113 0.27244 0.92516 0.0
C491 C 0.9156 0.32285 0.01418 0.0
H492 H 0.11873 0.26075 0.90103 0.0
H493 H 0.11893 0.23413 0.97161 0.0
H494 H 0.12841 0.3091 0.96001 0.0
H495 H 0.91335 0.36992 0.01575 0.0
H496 H 0.9269 0.30964 0.05782 0.0
H497 H 0.87286 0.30347 0.00305 0.0
C498 C 0.94647 0.72161 0.56405 0.0
N499 N 0.98798 0.70659 0.60195 0.0
N500 N 0.96873 0.75608 0.52466 0.0
C501 C 0.88341 0.7089 0.57004 0.0
C502 C 0.0252 0.76127 0.53965 0.0
N503 N 0.03685 0.7315 0.58685 0.0
C504 C 0.06955 0.78309 0.49997 0.0
H505 H 0.8721 0.66553 0.55178 0.0
H506 H 0.85656 0.73997 0.54884 0.0
H507 H 0.87209 0.71082 0.61532 0.0
H508 H 0.06984 0.83028 0.50056 0.0
H509 H 0.05853 0.76726 0.45568 0.0
H510 H 0.11296 0.76924 0.51051 0.0
C511 C 0.59163 0.24343 0.05495 0.0
N512 N 0.55386 0.26418 0.09195 0.0
N513 N 0.56371 0.21557 0.00972 0.0
C514 C 0.65524 0.2426 0.06693 0.0
C515 C 0.50761 0.22 0.02058 0.0
N516 N 0.50165 0.24908 0.07099 0.0
C517 C 0.46022 0.20837 0.97569 0.0
H518 H 0.67643 0.27816 0.04516 0.0
H519 H 0.6723 0.20195 0.05104 0.0
H520 H 0.66678 0.24667 0.11302 0.0
H521 H 0.45303 0.16172 0.96826 0.0
H522 H 0.47282 0.22628 0.93487 0.0
H523 H 0.41967 0.22743 0.98683 0.0
C524 C 0.45612 0.428 0.75009 0.0
N525 N 0.41642 0.46426 0.76844 0.0
N526 N 0.49379 0.45532 0.71698 0.0
C527 C 0.45366 0.36458 0.7591 0.0
C528 C 0.47603 0.50971 0.71646 0.0
N529 N 0.42865 0.51516 0.74742 0.0
C530 C 0.51355 0.559 0.69847 0.0
H531 H 0.40908 0.34729 0.75526 0.0
H532 H 0.47106 0.35677 0.8025 0.0
H533 H 0.47732 0.33986 0.72769 0.0
H534 H 0.51189 0.56019 0.65133 0.0
H535 H 0.55845 0.55288 0.71237 0.0
H536 H 0.50186 0.60064 0.71708 0.0
C537 C 0.94856 0.04137 0.27492 0.0
N538 N 0.90971 0.00101 0.25301 0.0
N539 N 0.98913 0.01721 0.30764 0.0
C540 C 0.94472 0.10504 0.26945 0.0
C541 C 0.97381 0.96082 0.30528 0.0
N542 N 0.92518 0.95098 0.27246 0.0
C543 C 0.01426 0.91535 0.32269 0.0
H544 H 0.90104 0.11858 0.26104 0.0
H545 H 0.97162 0.11887 0.23442 0.0
H546 H 0.96002 0.12819 0.30941 0.0
H547 H 0.0159 0.91304 0.36975 0.0
H548 H 0.05787 0.92666 0.30941 0.0
H549 H 0.00308 0.87264 0.30327 0.0
C550 C 0.56407 0.94633 0.72174 0.0
N551 N 0.60194 0.98785 0.70671 0.0
N552 N 0.52467 0.96858 0.75622 0.0
C553 C 0.57007 0.88327 0.70903 0.0
C554 C 0.53965 0.02505 0.7614 0.0
N555 N 0.58684 0.03672 0.73163 0.0
C556 C 0.49995 0.06939 0.78321 0.0
H557 H 0.55178 0.87194 0.66568 0.0
H558 H 0.54891 0.85642 0.74013 0.0
H559 H 0.61536 0.87197 0.71091 0.0
H560 H 0.50053 0.06968 0.83041 0.0
H561 H 0.45566 0.05835 0.76737 0.0
H562 H 0.51047 0.1128 0.76936 0.0
C563 C 0.05519 0.59187 0.24347 0.0
N564 N 0.09217 0.55408 0.26421 0.0
N565 N 0.00999 0.56398 0.21553 0.0
C566 C 0.06715 0.65549 0.24274 0.0
C567 C 0.02084 0.50787 0.21992 0.0
N568 N 0.07123 0.50189 0.24903 0.0
C569 C 0.97596 0.46049 0.2082 0.0
H570 H 0.04536 0.67662 0.27831 0.0
H571 H 0.05129 0.67261 0.2021 0.0
H572 H 0.11325 0.66704 0.24686 0.0
H573 H 0.96858 0.45334 0.16154 0.0
H574 H 0.93512 0.47308 0.22609 0.0
H575 H 0.98707 0.41992 0.22724 0.0
loop_
_geom_bond_atom_site_label_1
_geom_bond_atom_site_label_2
_geom_bond_distance
_geom_bond_site_symmetry_2
_ccdc_geom_bond_type
O0 Cd1 2.300 . S
O0 C7 1.275 . S
Cd1 O0 2.300 . S
Cd1 O9 2.381 . S
Cd1 O10 2.378 . S
O2 Cd3 2.385 . S
O2 C7 1.255 . S
Cd3 O2 2.385 . S
Cd3 O4 2.317 . S
O4 Cd3 2.317 . S
O4 C5 1.232 . S
C5 O4 1.232 . S
C5 O6 1.218 . S
O6 C5 1.218 . S
C7 O0 1.275 . S
C7 O2 1.255 . S
C8 O9 1.258 . S
C8 O10 1.256 . S
O9 Cd1 2.381 . S
O9 C8 1.258 . S
O10 Cd1 2.378 . S
O10 C8 1.256 . S
O11 Cd12 2.300 . S
O11 C18 1.275 . S
Cd12 O11 2.300 . S
Cd12 O20 2.381 . S
Cd12 O21 2.378 . S
O13 Cd14 2.385 . S
O13 C18 1.255 . S
Cd14 O13 2.385 . S
Cd14 O15 2.317 . S
O15 Cd14 2.317 . S
O15 C16 1.232 . S
C16 O15 1.232 . S
C16 O17 1.218 . S
O17 C16 1.218 . S
C18 O11 1.275 . S
C18 O13 1.255 . S
C19 O20 1.258 . S
C19 O21 1.256 . S
O20 Cd12 2.381 . S
O20 C19 1.258 . S
O21 Cd12 2.378 . S
O21 C19 1.256 . S
O22 Cd23 2.300 1_545 S
O22 C29 1.275 1_545 S
Cd23 O22 2.300 1_565 S
Cd23 O31 2.381 1_565 S
Cd23 O32 2.378 . S
O24 Cd25 2.385 . S
O24 C29 1.255 . S
Cd25 O24 2.385 . S
Cd25 O26 2.317 . S
O26 Cd25 2.317 . S
O26 C27 1.232 . S
C27 O26 1.232 . S
C27 O28 1.218 . S
O28 C27 1.218 . S
C29 O22 1.275 1_565 S
C29 O24 1.255 . S
C30 O31 1.258 . S
C30 O32 1.256 1_545 S
O31 Cd23 2.381 1_545 S
O31 C30 1.258 . S
O32 Cd23 2.378 . S
O32 C30 1.256 1_565 S
O33 Cd34 2.300 1_565 S
O33 C40 1.275 1_565 S
Cd34 O33 2.300 1_545 S
Cd34 O42 2.381 1_545 S
Cd34 O43 2.378 . S
O35 Cd36 2.385 . S
O35 C40 1.255 . S
Cd36 O35 2.385 . S
Cd36 O37 2.317 . S
O37 Cd36 2.317 . S
O37 C38 1.232 . S
C38 O37 1.232 . S
C38 O39 1.218 . S
O39 C38 1.218 . S
C40 O33 1.275 1_545 S
C40 O35 1.255 . S
C41 O42 1.258 1_545 S
C41 O43 1.256 . S
O42 Cd34 2.381 1_565 S
O42 C41 1.258 1_565 S
O43 Cd34 2.378 . S
O43 C41 1.256 . S
O44 Cd45 2.300 . S
O44 C51 1.275 . S
Cd45 O44 2.300 . S
Cd45 O53 2.381 . S
Cd45 O54 2.378 . S
O46 Cd47 2.385 . S
O46 C51 1.255 . S
Cd47 O46 2.385 . S
Cd47 O48 2.317 . S
O48 Cd47 2.317 . S
O48 C49 1.232 . S
C49 O48 1.232 . S
C49 O50 1.218 . S
O50 C49 1.218 . S
C51 O44 1.275 . S
C51 O46 1.255 . S
C52 O53 1.258 . S
C52 O54 1.256 . S
O53 Cd45 2.381 . S
O53 C52 1.258 . S
O54 Cd45 2.378 . S
O54 C52 1.256 . S
O55 Cd56 2.300 1_556 S
O55 C62 1.275 1_556 S
Cd56 O55 2.300 1_554 S
Cd56 O64 2.381 1_554 S
Cd56 O65 2.378 . S
O57 Cd58 2.385 . S
O57 C62 1.255 . S
Cd58 O57 2.385 . S
Cd58 O59 2.317 . S
O59 Cd58 2.317 . S
O59 C60 1.232 . S
C60 O59 1.232 . S
C60 O61 1.218 . S
O61 C60 1.218 . S
C62 O55 1.275 1_554 S
C62 O57 1.255 . S
C63 O64 1.258 1_554 S
C63 O65 1.256 . S
O64 Cd56 2.381 1_556 S
O64 C63 1.258 1_556 S
O65 Cd56 2.378 . S
O65 C63 1.256 . S
O66 Cd67 2.300 . S
O66 C73 1.275 . S
Cd67 O66 2.300 . S
Cd67 O75 2.381 . S
Cd67 O76 2.378 . S
O68 Cd69 2.385 . S
O68 C73 1.255 . S
Cd69 O68 2.385 . S
Cd69 O70 2.317 . S
O70 Cd69 2.317 . S
O70 C71 1.232 . S
C71 O70 1.232 . S
C71 O72 1.218 . S
O72 C71 1.218 . S
C73 O66 1.275 . S
C73 O68 1.255 . S
C74 O75 1.258 . S
C74 O76 1.256 . S
O75 Cd67 2.381 . S
O75 C74 1.258 . S
O76 Cd67 2.378 . S
O76 C74 1.256 . S
O77 Cd78 2.300 1_554 S
O77 C84 1.275 1_554 S
Cd78 O77 2.300 1_556 S
Cd78 O86 2.381 1_556 S
Cd78 O87 2.378 . S
O79 Cd80 2.385 . S
O79 C84 1.255 . S
Cd80 O79 2.385 . S
Cd80 O81 2.317 . S
O81 Cd80 2.317 . S
O81 C82 1.232 . S
C82 O81 1.232 . S
C82 O83 1.218 . S
O83 C82 1.218 . S
C84 O77 1.275 1_556 S
C84 O79 1.255 . S
C85 O86 1.258 . S
C85 O87 1.256 1_554 S
O86 Cd78 2.381 1_554 S
O86 C85 1.258 . S
O87 Cd78 2.378 . S
O87 C85 1.256 1_556 S
O88 Cd89 2.300 . S
O88 C95 1.275 . S
Cd89 O88 2.300 . S
Cd89 O97 2.381 . S
Cd89 O98 2.378 . S
O90 Cd91 2.385 . S
O90 C95 1.255 . S
Cd91 O90 2.385 . S
Cd91 O92 2.317 . S
O92 Cd91 2.317 . S
O92 C93 1.232 . S
C93 O92 1.232 . S
C93 O94 1.218 . S
O94 C93 1.218 . S
C95 O88 1.275 . S
C95 O90 1.255 . S
C96 O97 1.258 . S
C96 O98 1.256 . S
O97 Cd89 2.381 . S
O97 C96 1.258 . S
O98 Cd89 2.378 . S
O98 C96 1.256 . S
O99 Cd100 2.300 1_655 S
O99 C106 1.275 1_655 S
Cd100 O99 2.300 1_455 S
Cd100 O108 2.381 1_455 S
Cd100 O109 2.378 . S
O101 Cd102 2.385 . S
O101 C106 1.255 . S
Cd102 O101 2.385 . S
Cd102 O103 2.317 . S
O103 Cd102 2.317 . S
O103 C104 1.232 . S
C104 O103 1.232 . S
C104 O105 1.218 . S
O105 C104 1.218 . S
C106 O99 1.275 1_455 S
C106 O101 1.255 . S
C107 O108 1.258 1_455 S
C107 O109 1.256 . S
O108 Cd100 2.381 1_655 S
O108 C107 1.258 1_655 S
O109 Cd100 2.378 . S
O109 C107 1.256 . S
O110 Cd111 2.300 . S
O110 C117 1.275 . S
Cd111 O110 2.300 . S
Cd111 O119 2.381 . S
Cd111 O120 2.378 . S
O112 Cd113 2.385 . S
O112 C117 1.255 . S
Cd113 O112 2.385 . S
Cd113 O114 2.317 . S
O114 Cd113 2.317 . S
O114 C115 1.232 . S
C115 O114 1.232 . S
C115 O116 1.218 . S
O116 C115 1.218 . S
C117 O110 1.275 . S
C117 O112 1.255 . S
C118 O119 1.258 . S
C118 O120 1.256 . S
O119 Cd111 2.381 . S
O119 C118 1.258 . S
O120 Cd111 2.378 . S
O120 C118 1.256 . S
O121 Cd122 2.300 1_455 S
O121 C128 1.275 1_455 S
Cd122 O121 2.300 1_655 S
Cd122 O130 2.381 1_655 S
Cd122 O131 2.378 . S
O123 Cd124 2.385 . S
O123 C128 1.255 . S
Cd124 O123 2.385 . S
Cd124 O125 2.317 . S
O125 Cd124 2.317 . S
O125 C126 1.232 . S
C126 O125 1.232 . S
C126 O127 1.218 . S
O127 C126 1.218 . S
C128 O121 1.275 1_655 S
C128 O123 1.255 . S
C129 O130 1.258 . S
C129 O131 1.256 1_455 S
O130 Cd122 2.381 1_455 S
O130 C129 1.258 . S
O131 Cd122 2.378 . S
O131 C129 1.256 1_655 S
O132 Cd133 2.300 . S
O132 C139 1.275 . S
Cd133 O132 2.300 . S
Cd133 O141 2.381 . S
Cd133 O142 2.378 . S
O134 Cd135 2.385 . S
O134 C139 1.255 . S
Cd135 O134 2.385 . S
Cd135 O136 2.317 . S
O136 Cd135 2.317 . S
O136 C137 1.232 . S
C137 O136 1.232 . S
C137 O138 1.218 . S
O138 C137 1.218 . S
C139 O132 1.275 . S
C139 O134 1.255 . S
C140 O141 1.258 . S
C140 O142 1.256 . S
O141 Cd133 2.381 . S
O141 C140 1.258 . S
O142 Cd133 2.378 . S
O142 C140 1.256 . S
O143 Cd144 2.300 . S
O143 C150 1.275 . S
Cd144 O143 2.300 . S
Cd144 O152 2.381 . S
Cd144 O153 2.378 . S
O145 Cd146 2.385 . S
O145 C150 1.255 . S
Cd146 O145 2.385 . S
Cd146 O147 2.317 . S
O147 Cd146 2.317 . S
O147 C148 1.232 . S
C148 O147 1.232 . S
C148 O149 1.218 . S
O149 C148 1.218 . S
C150 O143 1.275 . S
C150 O145 1.255 . S
C151 O152 1.258 . S
C151 O153 1.256 . S
O152 Cd144 2.381 . S
O152 C151 1.258 . S
O153 Cd144 2.378 . S
O153 C151 1.256 . S
O154 Cd155 2.300 1_545 S
O154 C161 1.281 . S
Cd155 O154 2.300 1_565 S
Cd155 O163 2.381 1_565 S
Cd155 O164 2.378 . S
O156 Cd157 2.385 . S
O156 C161 1.244 1_565 S
Cd157 O156 2.385 . S
Cd157 O158 2.317 . S
O158 Cd157 2.317 . S
O158 C159 1.232 . S
C159 O158 1.232 . S
C159 O160 1.218 . S
O160 C159 1.218 . S
C161 O154 1.281 . S
C161 O156 1.244 1_545 S
C162 O163 1.258 1_565 S
C162 O164 1.256 . S
O163 Cd155 2.381 1_545 S
O163 C162 1.258 1_545 S
O164 Cd155 2.378 . S
O164 C162 1.256 . S
O165 Cd166 2.300 1_565 S
O165 C172 1.275 1_565 S
Cd166 O165 2.300 1_545 S
Cd166 O174 2.381 1_545 S
Cd166 O175 2.378 . S
O167 Cd168 2.385 . S
O167 C172 1.255 . S
Cd168 O167 2.385 . S
Cd168 O169 2.317 . S
O169 Cd168 2.317 . S
O169 C170 1.232 . S
C170 O169 1.232 . S
C170 O171 1.218 . S
O171 C170 1.218 . S
C172 O165 1.275 1_545 S
C172 O167 1.255 . S
C173 O174 1.258 1_545 S
C173 O175 1.256 . S
O174 Cd166 2.381 1_565 S
O174 C173 1.258 1_565 S
O175 Cd166 2.378 . S
O175 C173 1.256 . S
O176 Cd177 2.300 . S
O176 C183 1.275 . S
Cd177 O176 2.300 . S
Cd177 O185 2.381 . S
Cd177 O186 2.378 . S
O178 Cd179 2.385 . S
O178 C183 1.255 . S
Cd179 O178 2.385 . S
Cd179 O180 2.317 . S
O180 Cd179 2.317 . S
O180 C181 1.232 . S
C181 O180 1.232 . S
C181 O182 1.218 . S
O182 C181 1.218 . S
C183 O176 1.275 . S
C183 O178 1.255 . S
C184 O185 1.258 . S
C184 O186 1.256 . S
O185 Cd177 2.381 . S
O185 C184 1.258 . S
O186 Cd177 2.378 . S
O186 C184 1.256 . S
O187 Cd188 2.300 1_556 S
O187 C194 1.275 1_556 S
Cd188 O187 2.300 1_554 S
Cd188 O196 2.381 1_554 S
Cd188 O197 2.378 . S
O189 Cd190 2.385 . S
O189 C194 1.255 . S
Cd190 O189 2.385 . S
Cd190 O191 2.317 . S
O191 Cd190 2.317 . S
O191 C192 1.232 . S
C192 O191 1.232 . S
C192 O193 1.218 . S
O193 C192 1.218 . S
C194 O187 1.275 1_554 S
C194 O189 1.255 . S
C195 O196 1.258 1_554 S
C195 O197 1.256 . S
O196 Cd188 2.381 1_556 S
O196 C195 1.258 1_556 S
O197 Cd188 2.378 . S
O197 C195 1.256 . S
O198 Cd199 2.300 . S
O198 C205 1.275 . S
Cd199 O198 2.300 . S
Cd199 O207 2.381 . S
Cd199 O208 2.378 . S
O200 Cd201 2.385 . S
O200 C205 1.255 . S
Cd201 O200 2.385 . S
Cd201 O202 2.317 . S
O202 Cd201 2.317 . S
O202 C203 1.232 . S
C203 O202 1.232 . S
C203 O204 1.218 . S
O204 C203 1.218 . S
C205 O198 1.275 . S
C205 O200 1.255 . S
C206 O207 1.258 . S
C206 O208 1.256 . S
O207 Cd199 2.381 . S
O207 C206 1.258 . S
O208 Cd199 2.378 . S
O208 C206 1.256 . S
O209 Cd210 2.300 1_554 S
O209 C216 1.281 . S
Cd210 O209 2.300 1_556 S
Cd210 O218 2.381 1_556 S
Cd210 O219 2.378 . S
O211 Cd212 2.385 . S
O211 C216 1.244 1_556 S
Cd212 O211 2.385 . S
Cd212 O213 2.317 . S
O213 Cd212 2.317 . S
O213 C214 1.232 . S
C214 O213 1.232 . S
C214 O215 1.218 . S
O215 C214 1.218 . S
C216 O209 1.281 . S
C216 O211 1.244 1_554 S
C217 O218 1.258 1_556 S
C217 O219 1.256 . S
O218 Cd210 2.381 1_554 S
O218 C217 1.258 1_554 S
O219 Cd210 2.378 . S
O219 C217 1.256 . S
O220 Cd221 2.300 . S
O220 C227 1.275 . S
Cd221 O220 2.300 . S
Cd221 O229 2.381 . S
Cd221 O230 2.378 . S
O222 Cd223 2.385 . S
O222 C227 1.255 . S
Cd223 O222 2.385 . S
Cd223 O224 2.317 . S
O224 Cd223 2.317 . S
O224 C225 1.232 . S
C225 O224 1.232 . S
C225 O226 1.218 . S
O226 C225 1.218 . S
C227 O220 1.275 . S
C227 O222 1.255 . S
C228 O229 1.258 . S
C228 O230 1.256 . S
O229 Cd221 2.381 . S
O229 C228 1.258 . S
O230 Cd221 2.378 . S
O230 C228 1.256 . S
O231 Cd232 2.300 1_655 S
O231 C238 1.275 1_655 S
Cd232 O231 2.300 1_455 S
Cd232 O240 2.381 1_455 S
Cd232 O241 2.378 . S
O233 Cd234 2.385 . S
O233 C238 1.255 . S
Cd234 O233 2.385 . S
Cd234 O235 2.317 . S
O235 Cd234 2.317 . S
O235 C236 1.232 . S
C236 O235 1.232 . S
C236 O237 1.218 . S
O237 C236 1.218 . S
C238 O231 1.275 1_455 S
C238 O233 1.255 . S
C239 O240 1.258 1_455 S
C239 O241 1.256 . S
O240 Cd232 2.381 1_655 S
O240 C239 1.258 1_655 S
O241 Cd232 2.378 . S
O241 C239 1.256 . S
O242 Cd243 2.300 . S
O242 C249 1.275 . S
Cd243 O242 2.300 . S
Cd243 O251 2.381 . S
Cd243 O252 2.378 . S
O244 Cd245 2.385 . S
O244 C249 1.255 . S
Cd245 O244 2.385 . S
Cd245 O246 2.317 . S
O246 Cd245 2.317 . S
O246 C247 1.232 . S
C247 O246 1.232 . S
C247 O248 1.218 . S
O248 C247 1.218 . S
C249 O242 1.275 . S
C249 O244 1.255 . S
C250 O251 1.258 . S
C250 O252 1.256 . S
O251 Cd243 2.381 . S
O251 C250 1.258 . S
O252 Cd243 2.378 . S
O252 C250 1.256 . S
O253 Cd254 2.300 1_455 S
O253 C260 1.281 . S
Cd254 O253 2.300 1_655 S
Cd254 O262 2.381 1_655 S
Cd254 O263 2.378 . S
O255 Cd256 2.385 . S
O255 C260 1.244 1_655 S
Cd256 O255 2.385 . S
Cd256 O257 2.317 . S
O257 Cd256 2.317 . S
O257 C258 1.232 . S
C258 O257 1.232 . S
C258 O259 1.218 . S
O259 C258 1.218 . S
C260 O253 1.281 . S
C260 O255 1.244 1_455 S
C261 O262 1.258 1_655 S
C261 O263 1.256 . S
O262 Cd254 2.381 1_455 S
O262 C261 1.258 1_455 S
O263 Cd254 2.378 . S
O263 C261 1.256 . S
C264 N265 1.317 . S
C264 N266 1.348 . S
C264 C267 1.485 . S
N265 C264 1.317 . S
N265 N269 1.370 . S
N266 C264 1.348 . S
N266 C268 1.346 . S
C267 C264 1.485 . S
C267 H271 0.960 . S
C267 H272 0.961 . S
C267 H273 0.960 . S
C268 N266 1.346 . S
C268 N269 1.307 . S
C268 C270 1.486 . S
N269 N265 1.370 . S
N269 C268 1.307 . S
C270 C268 1.486 . S
C270 H274 0.960 . S
C270 H275 0.960 . S
C270 H276 0.959 . S
H271 C267 0.960 . S
H272 C267 0.961 . S
H273 C267 0.960 . S
H274 C270 0.960 . S
H275 C270 0.960 . S
H276 C270 0.959 . S
C277 N278 1.317 . S
C277 N279 1.348 . S
C277 C280 1.485 1_556 S
N278 C277 1.317 . S
N278 N282 1.370 . S
N279 C277 1.348 . S
N279 C281 1.346 . S
C280 C277 1.485 1_554 S
C280 H284 0.960 . S
C280 H285 0.961 . S
C280 H286 0.960 . S
C281 N279 1.346 . S
C281 N282 1.307 . S
C281 C283 1.486 . S
N282 N278 1.370 . S
N282 C281 1.307 . S
C283 C281 1.486 . S
C283 H287 0.960 . S
C283 H288 0.960 . S
C283 H289 0.959 . S
H284 C280 0.960 . S
H285 C280 0.961 . S
H286 C280 0.960 . S
H287 C283 0.960 . S
H288 C283 0.960 . S
H289 C283 0.959 . S
C290 N291 1.317 1_545 S
C290 N292 1.348 . S
C290 C293 1.485 . S
N291 C290 1.317 1_565 S
N291 N295 1.370 1_565 S
N292 C290 1.348 . S
N292 C294 1.346 . S
C293 C290 1.485 . S
C293 H297 0.960 . S
C293 H298 0.961 . S
C293 H299 0.960 1_545 S
C294 N292 1.346 . S
C294 N295 1.307 . S
C294 C296 1.486 . S
N295 N291 1.370 1_545 S
N295 C294 1.307 . S
C296 C294 1.486 . S
C296 H300 0.960 . S
C296 H301 0.960 . S
C296 H302 0.959 . S
H297 C293 0.960 . S
H298 C293 0.961 . S
H299 C293 0.960 1_565 S
H300 C296 0.960 . S
H301 C296 0.960 . S
H302 C296 0.959 . S
C303 N304 1.317 . S
C303 N305 1.348 . S
C303 C306 1.485 1_554 S
N304 C303 1.317 . S
N304 N308 1.370 . S
N305 C303 1.348 . S
N305 C307 1.346 . S
C306 C303 1.485 1_556 S
C306 H310 0.960 . S
C306 H311 0.961 . S
C306 H312 0.960 . S
C307 N305 1.346 . S
C307 N308 1.307 . S
C307 C309 1.486 . S
N308 N304 1.370 . S
N308 C307 1.307 . S
C309 C307 1.486 . S
C309 H313 0.960 . S
C309 H314 0.960 . S
C309 H315 0.959 . S
H310 C306 0.960 . S
H311 C306 0.961 . S
H312 C306 0.960 . S
H313 C309 0.960 . S
H314 C309 0.960 . S
H315 C309 0.959 . S
C316 N317 1.317 . S
C316 N318 1.348 . S
C316 C319 1.485 . S
N317 C316 1.317 . S
N317 N321 1.370 . S
N318 C316 1.348 . S
N318 C320 1.346 . S
C319 C316 1.485 . S
C319 H323 0.960 . S
C319 H324 0.961 . S
C319 H325 0.960 . S
C320 N318 1.346 . S
C320 N321 1.307 . S
C320 C322 1.486 . S
N321 N317 1.370 . S
N321 C320 1.307 . S
C322 C320 1.486 . S
C322 H326 0.960 . S
C322 H327 0.960 . S
C322 H328 0.959 . S
H323 C319 0.960 . S
H324 C319 0.961 . S
H325 C319 0.960 . S
H326 C322 0.960 . S
H327 C322 0.960 . S
H328 C322 0.959 . S
C329 N330 1.317 . S
C329 N331 1.348 . S
C329 C332 1.485 1_455 S
N330 C329 1.317 . S
N330 N334 1.370 . S
N331 C329 1.348 . S
N331 C333 1.346 . S
C332 C329 1.485 1_655 S
C332 H336 0.960 . S
C332 H337 0.961 . S
C332 H338 0.960 . S
C333 N331 1.346 . S
C333 N334 1.307 . S
C333 C335 1.486 . S
N334 N330 1.370 . S
N334 C333 1.307 . S
C335 C333 1.486 . S
C335 H339 0.960 . S
C335 H340 0.960 . S
C335 H341 0.959 . S
H336 C332 0.960 . S
H337 C332 0.961 . S
H338 C332 0.960 . S
H339 C335 0.960 . S
H340 C335 0.960 . S
H341 C335 0.959 . S
C342 N343 1.317 . S
C342 N344 1.348 . S
C342 C345 1.485 1_655 S
N343 C342 1.317 . S
N343 N347 1.370 . S
N344 C342 1.348 . S
N344 C346 1.346 . S
C345 C342 1.485 1_455 S
C345 H349 0.960 . S
C345 H350 0.961 . S
C345 H351 0.960 . S
C346 N344 1.346 . S
C346 N347 1.307 . S
C346 C348 1.486 . S
N347 N343 1.370 . S
N347 C346 1.307 . S
C348 C346 1.486 . S
C348 H352 0.960 . S
C348 H353 0.960 . S
C348 H354 0.959 . S
H349 C345 0.960 . S
H350 C345 0.961 . S
H351 C345 0.960 . S
H352 C348 0.960 . S
H353 C348 0.960 . S
H354 C348 0.959 . S
C355 N356 1.317 1_554 S
C355 N357 1.348 . S
C355 C358 1.485 . S
N356 C355 1.317 1_556 S
N356 N360 1.370 1_556 S
N357 C355 1.348 . S
N357 C359 1.346 . S
C358 C355 1.485 . S
C358 H362 0.960 . S
C358 H363 0.961 . S
C358 H364 0.960 1_554 S
C359 N357 1.346 . S
C359 N360 1.307 . S
C359 C361 1.486 . S
N360 N356 1.370 1_554 S
N360 C359 1.307 . S
C361 C359 1.486 . S
C361 H365 0.960 . S
C361 H366 0.960 . S
C361 H367 0.959 . S
H362 C358 0.960 . S
H363 C358 0.961 . S
H364 C358 0.960 1_556 S
H365 C361 0.960 . S
H366 C361 0.960 . S
H367 C361 0.959 . S
C368 N369 1.317 . S
C368 N370 1.348 . S
C368 C371 1.485 . S
N369 C368 1.317 . S
N369 N373 1.370 . S
N370 C368 1.348 . S
N370 C372 1.346 . S
C371 C368 1.485 . S
C371 H375 0.960 . S
C371 H376 0.961 . S
C371 H377 0.960 . S
C372 N370 1.346 . S
C372 N373 1.307 . S
C372 C374 1.486 . S
N373 N369 1.370 . S
N373 C372 1.307 . S
C374 C372 1.486 . S
C374 H378 0.960 . S
C374 H379 0.960 . S
C374 H380 0.959 . S
H375 C371 0.960 . S
H376 C371 0.961 . S
H377 C371 0.960 . S
H378 C374 0.960 . S
H379 C374 0.960 . S
H380 C374 0.959 . S
C381 N382 1.317 . S
C381 N383 1.348 . S
C381 C384 1.485 1_545 S
N382 C381 1.317 . S
N382 N386 1.370 . S
N383 C381 1.348 . S
N383 C385 1.346 . S
C384 C381 1.485 1_565 S
C384 H388 0.960 . S
C384 H389 0.961 . S
C384 H390 0.960 . S
C385 N383 1.346 . S
C385 N386 1.307 . S
C385 C387 1.486 . S
N386 N382 1.370 . S
N386 C385 1.307 . S
C387 C385 1.486 . S
C387 H391 0.960 . S
C387 H392 0.960 . S
C387 H393 0.959 . S
H388 C384 0.960 . S
H389 C384 0.961 . S
H390 C384 0.960 . S
H391 C387 0.960 . S
H392 C387 0.960 . S
H393 C387 0.959 . S
C394 N395 1.317 . S
C394 N396 1.348 . S
C394 C397 1.485 1_565 S
N395 C394 1.317 . S
N395 N399 1.370 . S
N396 C394 1.348 . S
N396 C398 1.346 . S
C397 C394 1.485 1_545 S
C397 H401 0.960 . S
C397 H402 0.961 . S
C397 H403 0.960 . S
C398 N396 1.346 . S
C398 N399 1.307 . S
C398 C400 1.486 . S
N399 N395 1.370 . S
N399 C398 1.307 . S
C400 C398 1.486 . S
C400 H404 0.960 . S
C400 H405 0.960 . S
C400 H406 0.959 . S
H401 C397 0.960 . S
H402 C397 0.961 . S
H403 C397 0.960 . S
H404 C400 0.960 . S
H405 C400 0.960 . S
H406 C400 0.959 . S
C407 N408 1.317 1_455 S
C407 N409 1.348 . S
C407 C410 1.485 . S
N408 C407 1.317 1_655 S
N408 N412 1.370 1_655 S
N409 C407 1.348 . S
N409 C411 1.346 . S
C410 C407 1.485 . S
C410 H414 0.960 . S
C410 H415 0.961 . S
C410 H416 0.960 1_455 S
C411 N409 1.346 . S
C411 N412 1.307 . S
C411 C413 1.486 . S
N412 N408 1.370 1_455 S
N412 C411 1.307 . S
C413 C411 1.486 . S
C413 H417 0.960 . S
C413 H418 0.960 . S
C413 H419 0.959 . S
H414 C410 0.960 . S
H415 C410 0.961 . S
H416 C410 0.960 1_655 S
H417 C413 0.960 . S
H418 C413 0.960 . S
H419 C413 0.959 . S
C420 N421 1.317 . S
C420 N422 1.348 . S
C420 C423 1.485 . S
N421 C420 1.317 . S
N421 N425 1.370 . S
N422 C420 1.348 . S
N422 C424 1.346 . S
C423 C420 1.485 . S
C423 H427 0.960 . S
C423 H428 0.961 . S
C423 H429 0.960 . S
C424 N422 1.346 . S
C424 N425 1.307 . S
C424 C426 1.486 . S
N425 N421 1.370 . S
N425 C424 1.307 . S
C426 C424 1.486 . S
C426 H430 0.960 . S
C426 H431 0.960 . S
C426 H432 0.959 . S
H427 C423 0.960 . S
H428 C423 0.961 . S
H429 C423 0.960 . S
H430 C426 0.960 . S
H431 C426 0.960 . S
H432 C426 0.959 . S
C433 N434 1.317 . S
C433 N435 1.348 . S
C433 C436 1.485 1_554 S
N434 C433 1.317 . S
N434 N438 1.370 . S
N435 C433 1.348 . S
N435 C437 1.346 . S
C436 C433 1.485 1_556 S
C436 H440 0.960 . S
C436 H441 0.961 . S
C436 H442 0.960 . S
C437 N435 1.346 . S
C437 N438 1.307 . S
C437 C439 1.486 . S
N438 N434 1.370 . S
N438 C437 1.307 . S
C439 C437 1.486 . S
C439 H443 0.960 . S
C439 H444 0.960 . S
C439 H445 0.959 . S
H440 C436 0.960 . S
H441 C436 0.961 . S
H442 C436 0.960 . S
H443 C439 0.960 . S
H444 C439 0.960 . S
H445 C439 0.959 . S
C446 N447 1.317 1_565 S
C446 N448 1.348 . S
C446 C449 1.485 . S
N447 C446 1.317 1_545 S
N447 N451 1.370 1_545 S
N448 C446 1.348 . S
N448 C450 1.346 . S
C449 C446 1.485 . S
C449 H453 0.960 . S
C449 H454 0.961 . S
C449 H455 0.960 1_565 S
C450 N448 1.346 . S
C450 N451 1.307 . S
C450 C452 1.486 . S
N451 N447 1.370 1_565 S
N451 C450 1.307 . S
C452 C450 1.486 . S
C452 H456 0.960 . S
C452 H457 0.960 . S
C452 H458 0.959 . S
H453 C449 0.960 . S
H454 C449 0.961 . S
H455 C449 0.960 1_545 S
H456 C452 0.960 . S
H457 C452 0.960 . S
H458 C452 0.959 . S
C459 N460 1.317 . S
C459 N461 1.348 . S
C459 C462 1.485 1_556 S
N460 C459 1.317 . S
N460 N464 1.370 . S
N461 C459 1.348 . S
N461 C463 1.346 . S
C462 C459 1.485 1_554 S
C462 H466 0.960 . S
C462 H467 0.961 . S
C462 H468 0.969 . S
C463 N461 1.346 . S
C463 N464 1.307 . S
C463 C465 1.486 . S
N464 N460 1.370 . S
N464 C463 1.307 . S
C465 C463 1.486 . S
C465 H469 0.960 . S
C465 H470 0.960 . S
C465 H471 0.959 . S
H466 C462 0.960 . S
H467 C462 0.961 . S
H468 C462 0.969 . S
H469 C465 0.960 . S
H470 C465 0.960 . S
H471 C465 0.959 . S
C472 N473 1.317 . S
C472 N474 1.348 . S
C472 C475 1.485 . S
N473 C472 1.317 . S
N473 N477 1.370 . S
N474 C472 1.348 . S
N474 C476 1.346 . S
C475 C472 1.485 . S
C475 H479 0.960 . S
C475 H480 0.961 . S
C475 H481 0.960 . S
C476 N474 1.346 . S
C476 N477 1.307 . S
C476 C478 1.486 . S
N477 N473 1.370 . S
N477 C476 1.307 . S
C478 C476 1.486 . S
C478 H482 0.960 . S
C478 H483 0.960 . S
C478 H484 0.959 . S
H479 C475 0.960 . S
H480 C475 0.961 . S
H481 C475 0.960 . S
H482 C478 0.960 . S
H483 C478 0.960 . S
H484 C478 0.959 . S
C485 N486 1.317 . S
C485 N487 1.348 . S
C485 C488 1.485 1_655 S
N486 C485 1.317 . S
N486 N490 1.370 . S
N487 C485 1.348 . S
N487 C489 1.346 . S
C488 C485 1.485 1_455 S
C488 H492 0.960 . S
C488 H493 0.961 . S
C488 H494 0.969 . S
C489 N487 1.346 . S
C489 N490 1.307 . S
C489 C491 1.486 . S
N490 N486 1.370 . S
N490 C489 1.307 . S
C491 C489 1.486 . S
C491 H495 0.960 . S
C491 H496 0.960 . S
C491 H497 0.959 . S
H492 C488 0.960 . S
H493 C488 0.961 . S
H494 C488 0.969 . S
H495 C491 0.960 . S
H496 C491 0.960 . S
H497 C491 0.959 . S
C498 N499 1.317 . S
C498 N500 1.348 . S
C498 C501 1.485 1_455 S
N499 C498 1.317 . S
N499 N503 1.370 . S
N500 C498 1.348 . S
N500 C502 1.346 . S
C501 C498 1.485 1_655 S
C501 H505 0.960 . S
C501 H506 0.961 . S
C501 H507 0.960 . S
C502 N500 1.346 . S
C502 N503 1.307 . S
C502 C504 1.486 . S
N503 N499 1.370 . S
N503 C502 1.307 . S
C504 C502 1.486 . S
C504 H508 0.960 . S
C504 H509 0.960 . S
C504 H510 0.959 . S
H505 C501 0.960 . S
H506 C501 0.961 . S
H507 C501 0.960 . S
H508 C504 0.960 . S
H509 C504 0.960 . S
H510 C504 0.959 . S
C511 N512 1.317 1_556 S
C511 N513 1.348 . S
C511 C514 1.485 . S
N512 C511 1.317 1_554 S
N512 N516 1.370 1_554 S
N513 C511 1.348 . S
N513 C515 1.346 . S
C514 C511 1.485 . S
C514 H518 0.960 . S
C514 H519 0.961 . S
C514 H520 0.960 1_556 S
C515 N513 1.346 . S
C515 N516 1.307 . S
C515 C517 1.486 . S
N516 N512 1.370 1_556 S
N516 C515 1.307 . S
C517 C515 1.486 . S
C517 H521 0.960 . S
C517 H522 0.960 . S
C517 H523 0.959 . S
H518 C514 0.960 . S
H519 C514 0.961 . S
H520 C514 0.960 1_554 S
H521 C517 0.960 . S
H522 C517 0.960 . S
H523 C517 0.959 . S
C524 N525 1.317 . S
C524 N526 1.348 . S
C524 C527 1.485 . S
N525 C524 1.317 . S
N525 N529 1.370 . S
N526 C524 1.348 . S
N526 C528 1.346 . S
C527 C524 1.485 . S
C527 H531 0.960 . S
C527 H532 0.961 . S
C527 H533 0.960 . S
C528 N526 1.346 . S
C528 N529 1.307 . S
C528 C530 1.486 . S
N529 N525 1.370 . S
N529 C528 1.307 . S
C530 C528 1.486 . S
C530 H534 0.960 . S
C530 H535 0.960 . S
C530 H536 0.959 . S
H531 C527 0.960 . S
H532 C527 0.961 . S
H533 C527 0.960 . S
H534 C530 0.960 . S
H535 C530 0.960 . S
H536 C530 0.959 . S
C537 N538 1.317 . S
C537 N539 1.348 . S
C537 C540 1.485 1_565 S
N538 C537 1.317 . S
N538 N542 1.370 . S
N539 C537 1.348 . S
N539 C541 1.346 . S
C540 C537 1.485 1_545 S
C540 H544 0.960 . S
C540 H545 0.961 . S
C540 H546 0.969 . S
C541 N539 1.346 . S
C541 N542 1.307 . S
C541 C543 1.486 . S
N542 N538 1.370 . S
N542 C541 1.307 . S
C543 C541 1.486 . S
C543 H547 0.960 . S
C543 H548 0.960 . S
C543 H549 0.959 . S
H544 C540 0.960 . S
H545 C540 0.961 . S
H546 C540 0.969 . S
H547 C543 0.960 . S
H548 C543 0.960 . S
H549 C543 0.959 . S
C550 N551 1.317 . S
C550 N552 1.348 . S
C550 C553 1.485 1_545 S
N551 C550 1.317 . S
N551 N555 1.370 . S
N552 C550 1.348 . S
N552 C554 1.346 . S
C553 C550 1.485 1_565 S
C553 H557 0.960 . S
C553 H558 0.961 . S
C553 H559 0.960 . S
C554 N552 1.346 . S
C554 N555 1.307 . S
C554 C556 1.486 . S
N555 N551 1.370 . S
N555 C554 1.307 . S
C556 C554 1.486 . S
C556 H560 0.960 . S
C556 H561 0.960 . S
C556 H562 0.959 . S
H557 C553 0.960 . S
H558 C553 0.961 . S
H559 C553 0.960 . S
H560 C556 0.960 . S
H561 C556 0.960 . S
H562 C556 0.959 . S
C563 N564 1.317 1_655 S
C563 N565 1.348 . S
C563 C566 1.485 . S
N564 C563 1.317 1_455 S
N564 N568 1.370 1_455 S
N565 C563 1.348 . S
N565 C567 1.346 . S
C566 C563 1.485 . S
C566 H570 0.960 . S
C566 H571 0.961 . S
C566 H572 0.960 1_655 S
C567 N565 1.346 . S
C567 N568 1.307 . S
C567 C569 1.486 . S
N568 N564 1.370 1_655 S
N568 C567 1.307 . S
C569 C567 1.486 . S
C569 H573 0.960 . S
C569 H574 0.960 . S
C569 H575 0.959 . S
H570 C566 0.960 . S
H571 C566 0.961 . S
H572 C566 0.960 1_455 S
H573 C569 0.960 . S
H574 C569 0.960 . S
H575 C569 0.959 . S
N564 C8 1.771 . S
N525 C19 1.970 . S
N551 C30 1.625 . S
N538 C41 1.879 1_465 S
N447 C52 1.771 . S
C63 N460 1.880 1_564 S
N421 C74 1.970 . S
C85 N434 1.625 . S
N512 C96 1.771 . S
C107 N486 1.879 1_456 S
C118 N473 1.970 . S
N499 C129 1.625 . S
N408 C140 1.618 . S
C151 N369 1.801 . S
N395 C162 1.483 . S
C173 N382 1.746 1_455 S
N291 C184 1.618 . S
N304 C195 1.746 1_565 S
C206 N265 1.801 . S
C217 N278 1.483 . S
C228 N356 1.618 . S
C239 N330 1.746 1_554 S
N317 C250 1.801 . S
C261 N343 1.483 . S
N269 C7 1.864 . S
N282 C18 2.010 . S
C29 N295 1.733 1_565 S
C40 N308 1.727 1_545 S
N321 C51 1.864 . S
C62 N334 1.727 1_554 S
N347 C73 2.010 . S
N360 C84 1.733 1_554 S
N373 C95 1.864 . S
C106 N386 1.727 1_455 S
C117 N399 2.010 . S
C128 N412 1.733 1_655 S
C139 N425 1.539 . S
C150 N438 1.606 . S
C161 N451 1.412 1_545 S
C172 N464 1.388 . S
C183 N477 1.539 . S
N490 C194 1.388 . S
N503 C205 1.606 . S
N516 C216 1.412 1_556 S
N529 C227 1.539 . S
C238 N542 1.388 . S
C249 N555 1.606 . S
C260 N568 1.412 1_455 S
C5 N370 1.666 . S
N409 C16 1.839 . S
C27 N383 1.599 1_565 S
N396 C38 1.855 1_565 S
C49 N266 1.666 . S
C60 N279 1.855 1_554 S
C71 N292 1.839 . S
C82 N305 1.599 1_556 S
N318 C93 1.666 . S
N344 C104 1.855 1_655 S
C115 N357 1.839 . S
C126 N331 1.599 1_655 S
N526 C137 1.085 . S
N565 C148 1.152 . S
C159 N539 1.056 . S
N552 C170 1.234 . S
C181 N422 1.086 . S
C192 N435 1.234 . S
C203 N448 1.152 . S
N461 C214 1.056 . S
N474 C225 1.085 . S
N500 C236 1.234 . S
C247 N513 1.152 . S
N487 C258 1.056 . S
