# Generated by pormake.
# Topology rtl, (3,6)-cn, num edge types: 1
# Building blocks:
#     Node 0, Type 0, BuildingBlock: KAKCAD_clean_linker_0, # of connection points: 3
#     Node 1, Type 0, BuildingBlock: KAKCAD_clean_linker_0, # of connection points: 3
#     Node 2, Type 0, BuildingBlock: KAKCAD_clean_linker_0, # of connection points: 3
#     Node 3, Type 0, BuildingBlock: KAKCAD_clean_linker_0, # of connection points: 3
#     Node 4, Type 1, BuildingBlock: VOLQOD_clean_sbu_1, # of connection points: 6
#     Node 5, Type 1, BuildingBlock: VOLQOD_clean_sbu_1, # of connection points: 6
#     Edge 6, Type (0, 1), BuildingBlock: UVAHIK_clean_linker_0, # of connection points: 2
#     Edge 7, Type (0, 1), BuildingBlock: UVAHIK_clean_linker_0, # of connection points: 2
#     Edge 8, Type (0, 1), BuildingBlock: UVAHIK_clean_linker_0, # of connection points: 2
#     Edge 9, Type (0, 1), BuildingBlock: UVAHIK_clean_linker_0, # of connection points: 2
#     Edge 10, Type (0, 1), BuildingBlock: UVAHIK_clean_linker_0, # of connection points: 2
#     Edge 11, Type (0, 1), BuildingBlock: UVAHIK_clean_linker_0, # of connection points: 2
#     Edge 12, Type (0, 1), BuildingBlock: UVAHIK_clean_linker_0, # of connection points: 2
#     Edge 13, Type (0, 1), BuildingBlock: UVAHIK_clean_linker_0, # of connection points: 2
#     Edge 14, Type (0, 1), BuildingBlock: UVAHIK_clean_linker_0, # of connection points: 2
#     Edge 15, Type (0, 1), BuildingBlock: UVAHIK_clean_linker_0, # of connection points: 2
#     Edge 16, Type (0, 1), BuildingBlock: UVAHIK_clean_linker_0, # of connection points: 2
#     Edge 17, Type (0, 1), BuildingBlock: UVAHIK_clean_linker_0, # of connection points: 2
# Relax obj value: 0.079
# Max RMSD: 0.156
# Mean RMSD: 0.088
data_MOF--net-rtl--node1-VOLQOD_clean_sbu_1--node2-KAKCAD_clean_linker_0--edge1-UVAHIK_clean_linker_0
_symmetry_space_group_name_H-M    P1
_symmetry_Int_Tables_number       1
_symmetry_cell_setting            triclinic
loop_
_symmetry_equiv_pos_as_xyz
'x, y, z'
_cell_length_a     55.247138
_cell_length_b     47.896347
_cell_length_c     35.882549
_cell_angle_alpha  89.890237
_cell_angle_beta   90.299651
_cell_angle_gamma 90.022452
loop_
_atom_site_label
_atom_site_type_symbol
_atom_site_fract_x
_atom_site_fract_y
_atom_site_fract_z
_atom_type_partial_charge
C0 C 0.06829 0.74815 0.89592 0.0
C1 C 0.08633 0.75888 0.87242 0.0
C2 C 0.07459 0.73378 0.9285 0.0
C3 C 0.09904 0.72969 0.93805 0.0
C4 C 0.11704 0.73924 0.9136 0.0
C5 C 0.11075 0.75374 0.88118 0.0
C6 C 0.1059 0.71799 0.97493 0.0
C7 C 0.12499 0.69884 0.97833 0.0
C8 C 0.13338 0.6903 0.01361 0.0
C9 C 0.12241 0.70123 0.04573 0.0
C10 C 0.10329 0.7205 0.04282 0.0
C11 C 0.09486 0.72822 0.00724 0.0
C12 C 0.09332 0.73428 0.07656 0.0
C13 C 0.0897 0.71936 0.1099 0.0
C14 C 0.08779 0.76295 0.0757 0.0
C15 C 0.0786 0.77626 0.10707 0.0
C16 C 0.07495 0.7614 0.1403 0.0
C17 C 0.15479 0.67166 0.01659 0.0
C18 C 0.15728 0.64864 0.99268 0.0
C19 C 0.17357 0.67773 0.04188 0.0
C20 C 0.19468 0.66167 0.04244 0.0
C21 C 0.19748 0.63918 0.01772 0.0
C22 C 0.17838 0.63258 0.99324 0.0
C23 C 0.0807 0.73283 0.14155 0.0
H24 H 0.04932 0.75191 0.88999 0.0
H25 H 0.06034 0.72648 0.94672 0.0
H26 H 0.13603 0.73665 0.92037 0.0
H27 H 0.12503 0.76149 0.86335 0.0
H28 H 0.13385 0.69129 0.95343 0.0
H29 H 0.08025 0.7432 0.00464 0.0
H30 H 0.12926 0.69534 0.07298 0.0
H31 H 0.09362 0.69723 0.11145 0.0
H32 H 0.09099 0.77534 0.05094 0.0
H33 H 0.07484 0.79844 0.10554 0.0
H34 H 0.14297 0.64321 0.97324 0.0
H35 H 0.17239 0.69558 0.06027 0.0
H36 H 0.07799 0.72088 0.16684 0.0
H37 H 0.17983 0.6151 0.97426 0.0
H38 H 0.20917 0.66757 0.06129 0.0
C39 C 0.55941 0.76625 0.61694 0.0
C40 C 0.57596 0.75523 0.64301 0.0
C41 C 0.56759 0.77904 0.58432 0.0
C42 C 0.5925 0.78123 0.57715 0.0
C43 C 0.60906 0.77141 0.60396 0.0
C44 C 0.60088 0.7585 0.63649 0.0
C45 C 0.60123 0.79129 0.54047 0.0
C46 C 0.62123 0.80926 0.53801 0.0
C47 C 0.631 0.81649 0.50319 0.0
C48 C 0.62048 0.80542 0.47061 0.0
C49 C 0.60056 0.78722 0.4726 0.0
C50 C 0.59081 0.78075 0.50765 0.0
C51 C 0.59105 0.77327 0.43854 0.0
C52 C 0.5888 0.78781 0.4046 0.0
C53 C 0.58476 0.74482 0.43965 0.0
C54 C 0.57636 0.73127 0.40777 0.0
C55 C 0.5742 0.74572 0.37384 0.0
C56 C 0.65314 0.83405 0.50115 0.0
C57 C 0.656 0.85738 0.52449 0.0
C58 C 0.67205 0.82689 0.4769 0.0
C59 C 0.69348 0.84237 0.4765 0.0
C60 C 0.69654 0.86533 0.5004 0.0
C61 C 0.67747 0.87283 0.52415 0.0
C62 C 0.58052 0.77414 0.37252 0.0
H63 H 0.54009 0.76455 0.62143 0.0
H64 H 0.55443 0.78673 0.56431 0.0
H65 H 0.62836 0.77245 0.59898 0.0
H66 H 0.61415 0.74995 0.65567 0.0
H67 H 0.62961 0.81697 0.56336 0.0
H68 H 0.57556 0.76659 0.50951 0.0
H69 H 0.62825 0.81037 0.44374 0.0
H70 H 0.59329 0.80978 0.40286 0.0
H71 H 0.58685 0.73276 0.46503 0.0
H72 H 0.57211 0.70922 0.40949 0.0
H73 H 0.64164 0.86366 0.54312 0.0
H74 H 0.67063 0.80876 0.45903 0.0
H75 H 0.57889 0.78583 0.34676 0.0
H76 H 0.67915 0.89065 0.54253 0.0
H77 H 0.70796 0.83577 0.4583 0.0
C78 C 0.90004 0.25044 0.13301 0.0
C79 C 0.92484 0.24497 0.13825 0.0
C80 C 0.89193 0.26509 0.10164 0.0
C81 C 0.90841 0.27444 0.07469 0.0
C82 C 0.93324 0.26966 0.08034 0.0
C83 C 0.94138 0.25519 0.11184 0.0
C84 C 0.89959 0.28767 0.03978 0.0
C85 C 0.88136 0.30803 0.04065 0.0
C86 C 0.87173 0.31912 0.00745 0.0
C87 C 0.88101 0.31002 0.97312 0.0
C88 C 0.8991 0.28937 0.97164 0.0
C89 C 0.9083 0.27846 0.00527 0.0
C90 C 0.90708 0.27746 0.93532 0.0
C91 C 0.89046 0.27365 0.90592 0.0
C92 C 0.931 0.26808 0.93056 0.0
C93 C 0.93774 0.25391 0.89824 0.0
C94 C 0.92088 0.24922 0.86939 0.0
C95 C 0.85076 0.33854 0.00854 0.0
C96 C 0.83159 0.33358 0.03332 0.0
C97 C 0.84906 0.36124 0.98373 0.0
C98 C 0.82843 0.37815 0.98315 0.0
C99 C 0.80908 0.37278 0.00745 0.0
C100 C 0.81104 0.3505 0.03282 0.0
C101 C 0.89734 0.25999 0.87328 0.0
H102 H 0.88674 0.24253 0.15243 0.0
H103 H 0.87265 0.26815 0.09777 0.0
H104 H 0.94637 0.27694 0.0602 0.0
H105 H 0.96064 0.25183 0.11534 0.0
H106 H 0.87457 0.31513 0.06728 0.0
H107 H 0.92141 0.26165 0.00473 0.0
H108 H 0.87355 0.31841 0.94748 0.0
H109 H 0.87181 0.28026 0.90849 0.0
H110 H 0.94448 0.27113 0.95219 0.0
H111 H 0.95599 0.24581 0.89662 0.0
H112 H 0.83207 0.31598 0.05231 0.0
H113 H 0.86364 0.36584 0.96461 0.0
H114 H 0.88397 0.25745 0.8514 0.0
H115 H 0.7963 0.34549 0.05145 0.0
H116 H 0.82757 0.39538 0.96358 0.0
C117 C 0.40567 0.25348 0.37161 0.0
C118 C 0.43071 0.25799 0.36808 0.0
C119 C 0.39636 0.2401 0.40304 0.0
C120 C 0.41185 0.23102 0.43177 0.0
C121 C 0.43693 0.23469 0.42778 0.0
C122 C 0.44628 0.24795 0.39623 0.0
C123 C 0.40166 0.21963 0.46685 0.0
C124 C 0.38226 0.20067 0.46595 0.0
C125 C 0.37104 0.19193 0.49905 0.0
C126 C 0.37962 0.20222 0.53333 0.0
C127 C 0.39896 0.22123 0.53473 0.0
C128 C 0.41005 0.22956 0.50138 0.0
C129 C 0.40624 0.23439 0.57051 0.0
C130 C 0.38854 0.2445 0.59502 0.0
C131 C 0.4308 0.23853 0.57933 0.0
C132 C 0.4375 0.25313 0.61149 0.0
C133 C 0.41975 0.26405 0.63531 0.0
C134 C 0.34933 0.17363 0.49779 0.0
C135 C 0.33094 0.17848 0.47135 0.0
C136 C 0.34626 0.1521 0.52402 0.0
C137 C 0.32503 0.13619 0.52432 0.0
C138 C 0.3064 0.14149 0.4984 0.0
C139 C 0.30974 0.16261 0.47165 0.0
C140 C 0.39522 0.2592 0.62702 0.0
H141 H 0.3931 0.26131 0.35082 0.0
H142 H 0.37691 0.23794 0.40556 0.0
H143 H 0.44932 0.2276 0.4493 0.0
H144 H 0.46568 0.25062 0.39411 0.0
H145 H 0.3758 0.19284 0.43938 0.0
H146 H 0.4243 0.24511 0.50214 0.0
H147 H 0.37073 0.19611 0.55894 0.0
H148 H 0.36946 0.24192 0.58881 0.0
H149 H 0.44483 0.23081 0.56107 0.0
H150 H 0.45654 0.25668 0.61704 0.0
H151 H 0.33255 0.19521 0.45116 0.0
H152 H 0.36024 0.14761 0.54444 0.0
H153 H 0.38115 0.2671 0.64507 0.0
H154 H 0.2956 0.16754 0.45167 0.0
H155 H 0.32317 0.1198 0.54493 0.0
O156 O 0.9422 0.00449 0.50634 0.0
Zn157 Zn 0.97308 0.02699 0.50731 0.0
O158 O 0.0017 0.00289 0.50863 0.0
Zn159 Zn 0.02126 0.01147 0.55287 0.0
Zn160 Zn 0.99131 0.96382 0.51022 0.0
Zn161 Zn 0.02115 0.00921 0.46398 0.0
O162 O 0.05485 0.02388 0.53886 0.0
O163 O 0.05493 0.02185 0.47711 0.0
O164 O 0.97196 0.0517 0.55255 0.0
O165 O 0.00608 0.04229 0.58312 0.0
O166 O 0.02484 0.97749 0.58577 0.0
O167 O 0.00385 0.94462 0.55632 0.0
O168 O 0.00349 0.94245 0.46576 0.0
O169 O 0.97326 0.05188 0.46192 0.0
O170 O 0.02404 0.9741 0.43362 0.0
O171 O 0.00621 0.03886 0.43136 0.0
C172 C 0.93786 0.9784 0.50805 0.0
C173 C 0.06568 0.02685 0.50787 0.0
C174 C 0.01696 0.95253 0.58363 0.0
C175 C 0.98636 0.05588 0.57979 0.0
C176 C 0.01621 0.94927 0.43769 0.0
C177 C 0.98742 0.05411 0.43416 0.0
O178 O 0.95499 0.96066 0.51009 0.0
O179 O 0.56239 0.50864 0.00211 0.0
Zn180 Zn 0.53088 0.52987 0.00303 0.0
O181 O 0.50303 0.5046 0.00284 0.0
Zn182 Zn 0.48287 0.51209 0.95887 0.0
Zn183 Zn 0.51445 0.46588 0.00158 0.0
Zn184 Zn 0.48398 0.51066 0.04794 0.0
O185 O 0.44916 0.52361 0.97359 0.0
O186 O 0.44978 0.52197 0.03539 0.0
O187 O 0.53013 0.55529 0.95845 0.0
O188 O 0.49697 0.54303 0.92738 0.0
O189 O 0.47968 0.47777 0.92693 0.0
O190 O 0.50163 0.44565 0.9563 0.0
O191 O 0.50365 0.44459 0.04719 0.0
O192 O 0.53093 0.5545 0.04837 0.0
O193 O 0.48244 0.47572 0.07908 0.0
O194 O 0.49834 0.54124 0.07964 0.0
C195 C 0.56746 0.48272 0.00068 0.0
C196 C 0.4386 0.52643 0.00483 0.0
C197 C 0.48803 0.45303 0.92926 0.0
C198 C 0.51575 0.55827 0.9309 0.0
C199 C 0.49104 0.45121 0.07545 0.0
C200 C 0.51691 0.55678 0.07624 0.0
O201 O 0.55086 0.46427 7e-05 0.0
C202 C 0.27116 0.11761 0.46737 0.0
C203 C 0.28313 0.12597 0.50017 0.0
C204 C 0.2485 0.1047 0.46902 0.0
C205 C 0.19533 0.09868 0.52997 0.0
H206 H 0.17746 0.0381 0.46377 0.0
C207 C 0.10343 0.04219 0.54119 0.0
C208 C 0.0912 0.03642 0.5076 0.0
C209 C 0.12737 0.0516 0.54094 0.0
C210 C 0.18213 0.05516 0.48222 0.0
H211 H 0.28079 0.12692 0.56049 0.0
H212 H 0.2415 0.10391 0.56339 0.0
H213 H 0.21858 0.05674 0.46232 0.0
H214 H 0.09473 0.03583 0.44738 0.0
H215 H 0.13639 0.05251 0.447 0.0
H216 H 0.15888 0.09731 0.54965 0.0
C217 C 0.24951 0.10764 0.53635 0.0
C218 C 0.20568 0.06583 0.4814 0.0
C219 C 0.27218 0.12052 0.53471 0.0
C220 C 0.10358 0.04004 0.47378 0.0
C221 C 0.12753 0.04944 0.47355 0.0
C222 C 0.17181 0.08802 0.5308 0.0
C223 C 0.23727 0.09989 0.50352 0.0
C224 C 0.21252 0.0878 0.50517 0.0
C225 C 0.13967 0.05545 0.50712 0.0
C226 C 0.16489 0.06622 0.50682 0.0
H227 H 0.27924 0.12122 0.44035 0.0
H228 H 0.23949 0.09919 0.44318 0.0
H229 H 0.19988 0.11593 0.54819 0.0
H230 H 0.09452 0.03952 0.56777 0.0
H231 H 0.13631 0.0557 0.56731 0.0
C232 C 0.23347 0.61692 0.04899 0.0
C233 C 0.22075 0.62369 0.01616 0.0
C234 C 0.25615 0.60405 0.04726 0.0
C235 C 0.30797 0.59579 0.98429 0.0
H236 H 0.3275 0.53777 0.05368 0.0
C237 C 0.40001 0.53995 0.97234 0.0
C238 C 0.41293 0.53538 0.00566 0.0
C239 C 0.37598 0.549 0.97313 0.0
C240 C 0.32238 0.55413 0.03432 0.0
H241 H 0.22178 0.6219 0.95578 0.0
H242 H 0.26109 0.59901 0.95281 0.0
H243 H 0.28638 0.55633 0.05599 0.0
H244 H 0.41052 0.53649 0.06602 0.0
H245 H 0.36874 0.5526 0.06733 0.0
H246 H 0.34398 0.5939 0.96287 0.0
C247 C 0.25364 0.60391 0.97989 0.0
C248 C 0.29882 0.56474 0.03563 0.0
C249 C 0.23097 0.61672 0.98161 0.0
C250 C 0.40113 0.53977 0.0398 0.0
C251 C 0.3771 0.54884 0.04058 0.0
C252 C 0.3315 0.58522 0.983 0.0
C253 C 0.26663 0.59775 0.01267 0.0
C254 C 0.29138 0.58576 0.0107 0.0
C255 C 0.36429 0.55372 0.00725 0.0
C256 C 0.33902 0.56434 0.00808 0.0
H257 H 0.22598 0.62177 0.07605 0.0
H258 H 0.26576 0.59976 0.07303 0.0
H259 H 0.30296 0.61233 0.96511 0.0
H260 H 0.40846 0.53664 0.94554 0.0
H261 H 0.36651 0.55218 0.94696 0.0
C262 C 0.73043 0.88807 0.53593 0.0
C263 C 0.71995 0.88058 0.50159 0.0
C264 C 0.7532 0.90074 0.53727 0.0
C265 C 0.7981 0.93885 0.48047 0.0
H266 H 0.84382 0.91036 0.55357 0.0
C267 C 0.89312 0.98729 0.50345 0.0
C268 C 0.91245 0.96842 0.50774 0.0
C269 C 0.86919 0.97777 0.50319 0.0
C270 C 0.8313 0.91846 0.5329 0.0
H271 H 0.72479 0.88144 0.44167 0.0
H272 H 0.76469 0.90326 0.44403 0.0
H273 H 0.80268 0.89203 0.5519 0.0
H274 H 0.92168 0.92468 0.51504 0.0
H275 H 0.88002 0.90816 0.51442 0.0
H276 H 0.82695 0.96487 0.46097 0.0
C277 C 0.75523 0.89946 0.46991 0.0
C278 C 0.80764 0.90819 0.53222 0.0
C279 C 0.73249 0.8867 0.46857 0.0
C280 C 0.90727 0.93983 0.51176 0.0
C281 C 0.88336 0.93035 0.51164 0.0
C282 C 0.82177 0.94922 0.48125 0.0
C283 C 0.76598 0.90629 0.5043 0.0
C284 C 0.79081 0.91813 0.50585 0.0
C285 C 0.86405 0.94919 0.50739 0.0
C286 C 0.83868 0.93896 0.50729 0.0
H287 H 0.72134 0.88342 0.56189 0.0
H288 H 0.76087 0.90604 0.56418 0.0
H289 H 0.78549 0.94709 0.46001 0.0
H290 H 0.89644 0.00946 0.5003 0.0
H291 H 0.85469 0.99283 0.5002 0.0
C292 C 0.7741 0.39709 0.03783 0.0
C293 C 0.78637 0.38931 0.00524 0.0
C294 C 0.75161 0.41034 0.03572 0.0
C295 C 0.69909 0.41679 0.97332 0.0
H296 H 0.6795 0.4748 0.0421 0.0
C297 C 0.59912 0.44539 0.9964 0.0
C298 C 0.59315 0.47381 -0.00027 0.0
C299 C 0.62329 0.4369 0.99555 0.0
C300 C 0.68476 0.4588 0.02246 0.0
H301 H 0.78492 0.39005 0.94483 0.0
H302 H 0.74583 0.41358 0.94114 0.0
H303 H 0.72127 0.4581 0.04287 0.0
H304 H 0.60804 0.5156 0.00473 0.0
H305 H 0.65025 0.5007 0.00312 0.0
H306 H 0.66264 0.41745 0.95289 0.0
C307 C 0.7535 0.40914 0.96835 0.0
C308 C 0.70862 0.44906 0.02314 0.0
C309 C 0.77603 0.39595 0.97046 0.0
C310 C 0.61197 0.49353 0.00219 0.0
C311 C 0.63617 0.485 0.00145 0.0
C312 C 0.67525 0.42645 0.97272 0.0
C313 C 0.74086 0.41606 0.00095 0.0
C314 C 0.71599 0.42776 -0.00121 0.0
C315 C 0.64209 0.45659 -0.00193 0.0
C316 C 0.66774 0.44736 0.99754 0.0
H317 H 0.78173 0.39254 0.06504 0.0
H318 H 0.74228 0.41521 0.06136 0.0
H319 H 0.7041 0.40016 0.95446 0.0
H320 H 0.58513 0.4296 0.99452 0.0
H321 H 0.62724 0.41481 0.99346 0.0
C322 C 0.07728 0.77327 0.20831 0.0
C323 C 0.06572 0.77619 0.17356 0.0
C324 C 0.07029 0.78983 0.23849 0.0
C325 C 0.04103 0.85744 0.25698 0.0
H326 H 0.04106 0.83211 0.35966 0.0
C327 C 0.03683 0.93483 0.37877 0.0
C328 C 0.02182 0.92807 0.40898 0.0
C329 C 0.04172 0.91513 0.3512 0.0
C330 C 0.04078 0.83944 0.33109 0.0
H331 H 0.03678 0.79722 0.14374 0.0
H332 H 0.02431 0.82573 0.19643 0.0
H333 H 0.04892 0.79879 0.30967 0.0
H334 H 0.0004 0.89506 0.43404 0.0
H335 H 0.00871 0.86079 0.38558 0.0
H336 H 0.03254 0.89791 0.27812 0.0
C337 C 0.03921 0.81129 0.2002 0.0
C338 C 0.04552 0.82041 0.3025 0.0
C339 C 0.04628 0.79491 0.17006 0.0
C340 C 0.01205 0.90098 0.41118 0.0
C341 C 0.01692 0.88127 0.38351 0.0
C342 C 0.03628 0.8764 0.28547 0.0
C343 C 0.05153 0.80949 0.2345 0.0
C344 C 0.04575 0.82923 0.2651 0.0
C345 C 0.03167 0.8882 0.35305 0.0
C346 C 0.03625 0.86769 0.32289 0.0
H347 H 0.09243 0.75912 0.2117 0.0
H348 H 0.08028 0.78806 0.26444 0.0
H349 H 0.04141 0.86507 0.22855 0.0
H350 H 0.04482 0.95541 0.37629 0.0
H351 H 0.05351 0.921 0.32847 0.0
C352 C 0.57931 0.74037 0.71014 0.0
C353 C 0.56739 0.73869 0.67548 0.0
C354 C 0.5726 0.7229 0.73957 0.0
C355 C 0.52365 0.6771 0.77382 0.0
H356 H 0.57576 0.63905 0.82587 0.0
C357 C 0.50691 0.58221 0.87 0.0
C358 C 0.52093 0.58008 0.9027 0.0
C359 C 0.51196 0.60276 0.84343 0.0
C360 C 0.56098 0.64978 0.81204 0.0
H361 H 0.53879 0.71752 0.64491 0.0
H362 H 0.52695 0.68736 0.69635 0.0
H363 H 0.58524 0.67369 0.77841 0.0
H364 H 0.55104 0.59824 0.93331 0.0
H365 H 0.55955 0.63426 0.88736 0.0
H366 H 0.49936 0.65315 0.80742 0.0
C367 C 0.54134 0.70237 0.70084 0.0
C368 C 0.56643 0.66965 0.78482 0.0
C369 C 0.5481 0.71974 0.67137 0.0
C370 C 0.53998 0.59911 0.90832 0.0
C371 C 0.54494 0.61972 0.88187 0.0
C372 C 0.51818 0.65731 0.80119 0.0
C373 C 0.55377 0.70344 0.73505 0.0
C374 C 0.54784 0.6834 0.76525 0.0
C375 C 0.53107 0.62174 0.84902 0.0
C376 C 0.53679 0.64328 0.82049 0.0
H377 H 0.59397 0.75504 0.71444 0.0
H378 H 0.58227 0.72449 0.76582 0.0
H379 H 0.50893 0.68759 0.75947 0.0
H380 H 0.49214 0.56784 0.86472 0.0
H381 H 0.50113 0.60347 0.81821 0.0
C382 C 0.9223 0.22973 0.2053 0.0
C383 C 0.93325 0.22752 0.17013 0.0
C384 C 0.92921 0.21205 0.23451 0.0
C385 C 0.95862 0.14382 0.25172 0.0
H386 H 0.9616 0.16966 0.35399 0.0
C387 C 0.99556 0.07531 0.37151 0.0
C388 C 0.98194 0.07478 0.40452 0.0
C389 C 0.99025 0.09457 0.34336 0.0
C390 C 0.96066 0.16212 0.32558 0.0
H391 H 0.96032 0.20509 0.13839 0.0
H392 H 0.97292 0.17503 0.18957 0.0
H393 H 0.95175 0.20259 0.30416 0.0
H394 H 0.95222 0.09437 0.43391 0.0
H395 H 0.94303 0.12802 0.38471 0.0
H396 H 0.96768 0.10341 0.27316 0.0
C397 C 0.95866 0.19008 0.19442 0.0
C398 C 0.95498 0.18096 0.29703 0.0
C399 C 0.95167 0.20764 0.16518 0.0
C400 C 0.96305 0.09416 0.40884 0.0
C401 C 0.95786 0.11356 0.38077 0.0
C402 C 0.96444 0.12506 0.28022 0.0
C403 C 0.9473 0.1918 0.22931 0.0
C404 C 0.95383 0.17201 0.25974 0.0
C405 C 0.97133 0.11388 0.34767 0.0
C406 C 0.96546 0.13398 0.31745 0.0
H407 H 0.90827 0.24504 0.21025 0.0
H408 H 0.91992 0.21382 0.26091 0.0
H409 H 0.95742 0.13605 0.22345 0.0
H410 H 0.01026 0.06072 0.36725 0.0
H411 H 0.00111 0.09451 0.31831 0.0
C412 C 0.41424 0.30663 0.67467 0.0
C413 C 0.42669 0.28163 0.66766 0.0
C414 C 0.42099 0.32371 0.70442 0.0
C415 C 0.47214 0.33904 0.76812 0.0
H416 H 0.42268 0.37826 0.82366 0.0
C417 C 0.49285 0.40614 0.89895 0.0
C418 C 0.48148 0.4324 0.90018 0.0
C419 C 0.48642 0.38665 0.87164 0.0
C420 C 0.43669 0.36757 0.80824 0.0
H421 H 0.45581 0.25475 0.68663 0.0
H422 H 0.46744 0.28443 0.73909 0.0
H423 H 0.41083 0.3457 0.77478 0.0
H424 H 0.45442 0.45871 0.87359 0.0
H425 H 0.44322 0.42469 0.82618 0.0
H426 H 0.49797 0.36093 0.80193 0.0
C427 C 0.4527 0.29106 0.72116 0.0
C428 C 0.42993 0.34896 0.78017 0.0
C429 C 0.44602 0.27402 0.69118 0.0
C430 C 0.46356 0.4387 0.87349 0.0
C431 C 0.45701 0.41915 0.84645 0.0
C432 C 0.4789 0.35754 0.79642 0.0
C433 C 0.44029 0.31616 0.72808 0.0
C434 C 0.44756 0.33472 0.75941 0.0
C435 C 0.46834 0.39292 0.84525 0.0
C436 C 0.46124 0.37225 0.81645 0.0
H437 H 0.39957 0.31333 0.65662 0.0
H438 H 0.41135 0.34315 0.70839 0.0
H439 H 0.4862 0.32871 0.7524 0.0
H440 H 0.50674 0.40061 0.91905 0.0
H441 H 0.49535 0.36652 0.87152 0.0
C442 C 0.57858 0.73381 0.30614 0.0
C443 C 0.56607 0.73071 0.3399 0.0
C444 C 0.57227 0.71764 0.27517 0.0
C445 C 0.52365 0.67349 0.23546 0.0
H446 H 0.57637 0.63648 0.18451 0.0
C447 C 0.50799 0.57995 0.1373 0.0
C448 C 0.52213 0.5782 0.10493 0.0
C449 C 0.51286 0.60025 0.16423 0.0
C450 C 0.56143 0.64696 0.19802 0.0
H451 H 0.53646 0.70928 0.36718 0.0
H452 H 0.52556 0.68097 0.31325 0.0
H453 H 0.58528 0.66995 0.23374 0.0
H454 H 0.55236 0.59671 0.07536 0.0
H455 H 0.56061 0.63229 0.12207 0.0
H456 H 0.49978 0.65036 0.19992 0.0
C457 C 0.54019 0.69588 0.31065 0.0
C458 C 0.56656 0.66616 0.22623 0.0
C459 C 0.54658 0.7119 0.34164 0.0
C460 C 0.54119 0.59732 0.10006 0.0
C461 C 0.546 0.61768 0.12693 0.0
C462 C 0.51852 0.65436 0.20714 0.0
C463 C 0.55323 0.69822 0.27727 0.0
C464 C 0.54772 0.67941 0.24553 0.0
C465 C 0.53193 0.61936 0.15937 0.0
C466 C 0.53735 0.64064 0.18835 0.0
H467 H 0.59376 0.74802 0.30405 0.0
H468 H 0.58249 0.7201 0.24968 0.0
H469 H 0.50876 0.68364 0.24952 0.0
H470 H 0.49322 0.56552 0.14203 0.0
H471 H 0.5019 0.60068 0.18916 0.0
C472 C 0.9511 0.23178 0.82227 0.0
C473 C 0.92741 0.23179 0.83649 0.0
C474 C 0.95755 0.21378 0.79333 0.0
C475 C 0.93657 0.14882 0.74604 0.0
H476 H 0.98536 0.169 0.67349 0.0
C477 C 0.95565 0.08482 0.6131 0.0
C478 C 0.97992 0.07686 0.60824 0.0
C479 C 0.94943 0.10428 0.64036 0.0
C480 C 0.97178 0.16313 0.69372 0.0
H481 H 0.89183 0.21292 0.83043 0.0
H482 H 0.90258 0.18319 0.77872 0.0
H483 H 0.97355 0.20272 0.72102 0.0
H484 H 0.01674 0.08347 0.62758 0.0
H485 H 0.00582 0.11812 0.67471 0.0
H486 H 0.93434 0.10955 0.71771 0.0
C487 C 0.91649 0.19636 0.79073 0.0
C488 C 0.96507 0.18234 0.7211 0.0
C489 C 0.91017 0.21395 0.82007 0.0
C490 C 0.99788 0.0891 0.63081 0.0
C491 C 0.99168 0.109 0.65759 0.0
C492 C 0.94295 0.12987 0.71826 0.0
C493 C 0.94038 0.1956 0.77739 0.0
C494 C 0.94739 0.17542 0.74773 0.0
C495 C 0.96739 0.11656 0.66277 0.0
C496 C 0.96065 0.13682 0.69196 0.0
H497 H 0.96482 0.24553 0.83363 0.0
H498 H 0.97618 0.21371 0.78415 0.0
H499 H 0.92337 0.14234 0.7665 0.0
H500 H 0.9414 0.07571 0.59621 0.0
H501 H 0.93058 0.1099 0.64378 0.0
C502 C 0.43018 0.27211 0.30047 0.0
C503 C 0.4403 0.27463 0.33636 0.0
C504 C 0.43772 0.2896 0.27154 0.0
C505 C 0.46602 0.35843 0.2565 0.0
H506 H 0.46999 0.33369 0.1539 0.0
C507 C 0.47088 0.43635 0.13466 0.0
C508 C 0.48627 0.43008 0.10475 0.0
C509 C 0.46643 0.41659 0.16245 0.0
C510 C 0.4692 0.34089 0.18246 0.0
H511 H 0.46679 0.29715 0.36958 0.0
H512 H 0.48044 0.32695 0.31893 0.0
H513 H 0.46146 0.29986 0.20303 0.0
H514 H 0.50907 0.398 0.08069 0.0
H515 H 0.50156 0.36365 0.12954 0.0
H516 H 0.47414 0.39932 0.23614 0.0
C517 C 0.46634 0.3118 0.3133 0.0
C518 C 0.46404 0.32155 0.21057 0.0
C519 C 0.45874 0.29441 0.34225 0.0
C520 C 0.49706 0.40351 0.10327 0.0
C521 C 0.49266 0.38375 0.13118 0.0
C522 C 0.47123 0.37772 0.22846 0.0
C523 C 0.45562 0.30997 0.27777 0.0
C524 C 0.46222 0.33013 0.24791 0.0
C525 C 0.47733 0.39009 0.16115 0.0
C526 C 0.47267 0.36925 0.19105 0.0
H527 H 0.41617 0.25685 0.29483 0.0
H528 H 0.42894 0.28773 0.2446 0.0
H529 H 0.46445 0.36588 0.28486 0.0
H530 H 0.46213 0.45652 0.13662 0.0
H531 H 0.45418 0.42201 0.18477 0.0
C532 C 0.0605 0.77 0.81646 0.0
C533 C 0.07979 0.77699 0.84034 0.0
C534 C 0.05383 0.78787 0.78728 0.0
C535 C 0.07613 0.84793 0.73132 0.0
H536 H 0.00791 0.85954 0.71058 0.0
C537 C 0.04125 0.93868 0.63993 0.0
C538 C 0.02355 0.93212 0.61304 0.0
C539 C 0.048 0.91909 0.66694 0.0
C540 C 0.02703 0.85631 0.71585 0.0
H541 H 0.10697 0.80833 0.85276 0.0
H542 H 0.0952 0.8396 0.80239 0.0
H543 H 0.02012 0.82616 0.75855 0.0
H544 H -0.00118 0.8999 0.59384 0.0
H545 H 0.01055 0.86582 0.64121 0.0
H546 H 0.08295 0.87853 0.68908 0.0
C547 C 0.08557 0.82004 0.80544 0.0
C548 C 0.03405 0.83712 0.74323 0.0
C549 C 0.09233 0.80211 0.83438 0.0
C550 C 0.01254 0.90564 0.6141 0.0
C551 C 0.01915 0.88615 0.64133 0.0
C552 C 0.06909 0.86726 0.70417 0.0
C553 C 0.0662 0.81321 0.78158 0.0
C554 C 0.0587 0.83279 0.75144 0.0
C555 C 0.03707 0.89261 0.66785 0.0
C556 C 0.04448 0.87175 0.69628 0.0
H557 H 0.05064 0.75066 0.82023 0.0
H558 H 0.03906 0.78176 0.7691 0.0
H559 H 0.09527 0.84476 0.73638 0.0
H560 H 0.0501 0.95887 0.63993 0.0
H561 H 0.06168 0.92475 0.68732 0.0
loop_
_geom_bond_atom_site_label_1
_geom_bond_atom_site_label_2
_geom_bond_distance
_geom_bond_site_symmetry_2
_ccdc_geom_bond_type
C0 C1 1.386 . S
C0 C2 1.397 . S
C0 H24 0.931 . S
C1 C0 1.386 . S
C1 C5 1.397 . S
C2 C0 1.397 . S
C2 C3 1.384 . S
C2 H25 0.930 . S
C3 C2 1.384 . S
C3 C4 1.377 . S
C3 C6 1.481 . S
C4 C3 1.377 . S
C4 C5 1.389 . S
C4 H26 0.929 . S
C5 C1 1.397 . S
C5 C4 1.389 . S
C5 H27 0.931 . S
C6 C3 1.481 . S
C6 C7 1.387 . S
C6 C11 1.390 1_556 S
C7 C6 1.387 . S
C7 C8 1.401 1_556 S
C7 H28 0.930 . S
C8 C7 1.401 1_554 S
C8 C9 1.376 . S
C8 C17 1.511 . S
C9 C8 1.376 . S
C9 C10 1.392 . S
C9 H30 0.931 . S
C10 C9 1.392 . S
C10 C11 1.361 . S
C10 C12 1.500 . S
C11 C6 1.390 1_554 S
C11 C10 1.361 . S
C11 H29 0.931 . S
C12 C10 1.500 . S
C12 C13 1.371 . S
C12 C14 1.365 . S
C13 C12 1.371 . S
C13 C23 1.386 . S
C13 H31 0.931 . S
C14 C12 1.365 . S
C14 C15 1.409 . S
C14 H32 0.929 . S
C15 C14 1.409 . S
C15 C16 1.380 . S
C15 H33 0.930 . S
C16 C15 1.380 . S
C16 C23 1.357 . S
C17 C8 1.511 . S
C17 C18 1.341 1_554 S
C17 C19 1.371 . S
C18 C17 1.341 1_556 S
C18 C22 1.394 . S
C18 H34 0.930 . S
C19 C17 1.371 . S
C19 C20 1.392 . S
C19 H35 0.931 . S
C20 C19 1.392 . S
C20 C21 1.331 . S
C20 H38 0.932 . S
C21 C20 1.331 . S
C21 C22 1.336 1_554 S
C22 C18 1.394 . S
C22 C21 1.336 1_556 S
C22 H37 0.929 . S
C23 C13 1.386 . S
C23 C16 1.357 . S
C23 H36 0.928 . S
H24 C0 0.931 . S
H25 C2 0.930 . S
H26 C4 0.929 . S
H27 C5 0.931 . S
H28 C7 0.930 . S
H29 C11 0.931 . S
H30 C9 0.931 . S
H31 C13 0.931 . S
H32 C14 0.929 . S
H33 C15 0.930 . S
H34 C18 0.930 . S
H35 C19 0.931 . S
H36 C23 0.928 . S
H37 C22 0.929 . S
H38 C20 0.932 . S
C39 C40 1.386 . S
C39 C41 1.397 . S
C39 H63 0.931 . S
C40 C39 1.386 . S
C40 C44 1.397 . S
C41 C39 1.397 . S
C41 C42 1.384 . S
C41 H64 0.930 . S
C42 C41 1.384 . S
C42 C43 1.377 . S
C42 C45 1.481 . S
C43 C42 1.377 . S
C43 C44 1.389 . S
C43 H65 0.929 . S
C44 C40 1.397 . S
C44 C43 1.389 . S
C44 H66 0.931 . S
C45 C42 1.481 . S
C45 C46 1.387 . S
C45 C50 1.390 . S
C46 C45 1.387 . S
C46 C47 1.401 . S
C46 H67 0.930 . S
C47 C46 1.401 . S
C47 C48 1.376 . S
C47 C56 1.511 . S
C48 C47 1.376 . S
C48 C49 1.392 . S
C48 H69 0.931 . S
C49 C48 1.392 . S
C49 C50 1.361 . S
C49 C51 1.500 . S
C50 C45 1.390 . S
C50 C49 1.361 . S
C50 H68 0.931 . S
C51 C49 1.500 . S
C51 C52 1.371 . S
C51 C53 1.365 . S
C52 C51 1.371 . S
C52 C62 1.386 . S
C52 H70 0.931 . S
C53 C51 1.365 . S
C53 C54 1.409 . S
C53 H71 0.929 . S
C54 C53 1.409 . S
C54 C55 1.380 . S
C54 H72 0.930 . S
C55 C54 1.380 . S
C55 C62 1.357 . S
C56 C47 1.511 . S
C56 C57 1.341 . S
C56 C58 1.371 . S
C57 C56 1.341 . S
C57 C61 1.394 . S
C57 H73 0.930 . S
C58 C56 1.371 . S
C58 C59 1.392 . S
C58 H74 0.931 . S
C59 C58 1.392 . S
C59 C60 1.331 . S
C59 H77 0.932 . S
C60 C59 1.331 . S
C60 C61 1.336 . S
C61 C57 1.394 . S
C61 C60 1.336 . S
C61 H76 0.929 . S
C62 C52 1.386 . S
C62 C55 1.357 . S
C62 H75 0.928 . S
H63 C39 0.931 . S
H64 C41 0.930 . S
H65 C43 0.929 . S
H66 C44 0.931 . S
H67 C46 0.930 . S
H68 C50 0.931 . S
H69 C48 0.931 . S
H70 C52 0.931 . S
H71 C53 0.929 . S
H72 C54 0.930 . S
H73 C57 0.930 . S
H74 C58 0.931 . S
H75 C62 0.928 . S
H76 C61 0.929 . S
H77 C59 0.932 . S
C78 C79 1.386 . S
C78 C80 1.397 . S
C78 H102 0.931 . S
C79 C78 1.386 . S
C79 C83 1.397 . S
C80 C78 1.397 . S
C80 C81 1.384 . S
C80 H103 0.930 . S
C81 C80 1.384 . S
C81 C82 1.377 . S
C81 C84 1.481 . S
C82 C81 1.377 . S
C82 C83 1.389 . S
C82 H104 0.929 . S
C83 C79 1.397 . S
C83 C82 1.389 . S
C83 H105 0.931 . S
C84 C81 1.481 . S
C84 C85 1.387 . S
C84 C89 1.390 . S
C85 C84 1.387 . S
C85 C86 1.401 . S
C85 H106 0.930 . S
C86 C85 1.401 . S
C86 C87 1.376 1_554 S
C86 C95 1.511 . S
C87 C86 1.376 1_556 S
C87 C88 1.392 . S
C87 H108 0.931 . S
C88 C87 1.392 . S
C88 C89 1.361 1_556 S
C88 C90 1.500 . S
C89 C84 1.390 . S
C89 C88 1.361 1_554 S
C89 H107 0.931 . S
C90 C88 1.500 . S
C90 C91 1.371 . S
C90 C92 1.365 . S
C91 C90 1.371 . S
C91 C101 1.386 . S
C91 H109 0.931 . S
C92 C90 1.365 . S
C92 C93 1.409 . S
C92 H110 0.929 . S
C93 C92 1.409 . S
C93 C94 1.380 . S
C93 H111 0.930 . S
C94 C93 1.380 . S
C94 C101 1.357 . S
C95 C86 1.511 . S
C95 C96 1.341 . S
C95 C97 1.371 1_554 S
C96 C95 1.341 . S
C96 C100 1.394 . S
C96 H112 0.930 . S
C97 C95 1.371 1_556 S
C97 C98 1.392 . S
C97 H113 0.931 . S
C98 C97 1.392 . S
C98 C99 1.331 1_556 S
C98 H116 0.932 . S
C99 C98 1.331 1_554 S
C99 C100 1.336 . S
C100 C96 1.394 . S
C100 C99 1.336 . S
C100 H115 0.929 . S
C101 C91 1.386 . S
C101 C94 1.357 . S
C101 H114 0.928 . S
H102 C78 0.931 . S
H103 C80 0.930 . S
H104 C82 0.929 . S
H105 C83 0.931 . S
H106 C85 0.930 . S
H107 C89 0.931 . S
H108 C87 0.931 . S
H109 C91 0.931 . S
H110 C92 0.929 . S
H111 C93 0.930 . S
H112 C96 0.930 . S
H113 C97 0.931 . S
H114 C101 0.928 . S
H115 C100 0.929 . S
H116 C98 0.932 . S
C117 C118 1.386 . S
C117 C119 1.397 . S
C117 H141 0.931 . S
C118 C117 1.386 . S
C118 C122 1.397 . S
C119 C117 1.397 . S
C119 C120 1.384 . S
C119 H142 0.930 . S
C120 C119 1.384 . S
C120 C121 1.377 . S
C120 C123 1.481 . S
C121 C120 1.377 . S
C121 C122 1.389 . S
C121 H143 0.929 . S
C122 C118 1.397 . S
C122 C121 1.389 . S
C122 H144 0.931 . S
C123 C120 1.481 . S
C123 C124 1.387 . S
C123 C128 1.390 . S
C124 C123 1.387 . S
C124 C125 1.401 . S
C124 H145 0.930 . S
C125 C124 1.401 . S
C125 C126 1.376 . S
C125 C134 1.511 . S
C126 C125 1.376 . S
C126 C127 1.392 . S
C126 H147 0.931 . S
C127 C126 1.392 . S
C127 C128 1.361 . S
C127 C129 1.500 . S
C128 C123 1.390 . S
C128 C127 1.361 . S
C128 H146 0.931 . S
C129 C127 1.500 . S
C129 C130 1.371 . S
C129 C131 1.365 . S
C130 C129 1.371 . S
C130 C140 1.386 . S
C130 H148 0.931 . S
C131 C129 1.365 . S
C131 C132 1.409 . S
C131 H149 0.929 . S
C132 C131 1.409 . S
C132 C133 1.380 . S
C132 H150 0.930 . S
C133 C132 1.380 . S
C133 C140 1.357 . S
C134 C125 1.511 . S
C134 C135 1.341 . S
C134 C136 1.371 . S
C135 C134 1.341 . S
C135 C139 1.394 . S
C135 H151 0.930 . S
C136 C134 1.371 . S
C136 C137 1.392 . S
C136 H152 0.931 . S
C137 C136 1.392 . S
C137 C138 1.331 . S
C137 H155 0.932 . S
C138 C137 1.331 . S
C138 C139 1.336 . S
C139 C135 1.394 . S
C139 C138 1.336 . S
C139 H154 0.929 . S
C140 C130 1.386 . S
C140 C133 1.357 . S
C140 H153 0.928 . S
H141 C117 0.931 . S
H142 C119 0.930 . S
H143 C121 0.929 . S
H144 C122 0.931 . S
H145 C124 0.930 . S
H146 C128 0.931 . S
H147 C126 0.931 . S
H148 C130 0.931 . S
H149 C131 0.929 . S
H150 C132 0.930 . S
H151 C135 0.930 . S
H152 C136 0.931 . S
H153 C140 0.928 . S
H154 C139 0.929 . S
H155 C137 0.932 . S
O156 Zn157 1.953 1_565 S
O156 C172 1.225 . S
Zn157 O156 1.953 1_545 S
Zn157 O158 1.949 1_655 S
Zn157 O164 1.919 . S
Zn157 O169 1.924 . S
O158 Zn157 1.949 1_455 S
O158 Zn159 1.923 . S
O158 Zn160 1.950 1_445 S
O158 Zn161 1.945 . S
Zn159 O158 1.923 . S
Zn159 O162 1.933 . S
Zn159 O165 1.941 . S
Zn159 O166 1.965 1_545 S
Zn160 O158 1.950 1_665 S
Zn160 O167 1.938 1_655 S
Zn160 O168 1.906 1_655 S
Zn160 O178 1.953 . S
Zn161 O158 1.945 . S
Zn161 O163 1.932 . S
Zn161 O170 1.977 1_545 S
Zn161 O171 1.910 1_455 S
O162 Zn159 1.933 . S
O162 C173 1.226 . S
O163 Zn161 1.932 . S
O163 C173 1.307 . S
O164 Zn157 1.919 . S
O164 C175 1.253 . S
O165 Zn159 1.941 . S
O165 C175 1.283 1_455 S
O166 Zn159 1.965 1_565 S
O166 C174 1.303 . S
O167 Zn160 1.938 1_455 S
O167 C174 1.247 . S
O168 Zn160 1.906 1_455 S
O168 C176 1.304 . S
O169 Zn157 1.924 . S
O169 C177 1.311 . S
O170 Zn161 1.977 1_565 S
O170 C176 1.272 . S
O171 Zn161 1.910 1_655 S
O171 C177 1.231 . S
C172 O156 1.225 . S
C172 O178 1.298 . S
C173 O162 1.226 . S
C173 O163 1.307 . S
C174 O166 1.303 . S
C174 O167 1.247 . S
C175 O164 1.253 . S
C175 O165 1.283 1_655 S
C176 O168 1.304 . S
C176 O170 1.272 . S
C177 O169 1.311 . S
C177 O171 1.231 . S
O178 Zn160 1.953 . S
O178 C172 1.298 . S
O179 Zn180 1.953 1_556 S
O179 C195 1.225 1_556 S
Zn180 O179 1.953 1_554 S
Zn180 O181 1.948 . S
Zn180 O187 1.920 1_554 S
Zn180 O192 1.923 . S
O181 Zn180 1.948 . S
O181 Zn182 1.923 1_554 S
O181 Zn183 1.950 . S
O181 Zn184 1.945 . S
Zn182 O181 1.923 1_556 S
Zn182 O185 1.933 . S
Zn182 O188 1.941 . S
Zn182 O189 1.965 . S
Zn183 O181 1.950 . S
Zn183 O190 1.938 1_554 S
Zn183 O191 1.906 . S
Zn183 O201 1.953 . S
Zn184 O181 1.945 . S
Zn184 O186 1.932 . S
Zn184 O193 1.977 . S
Zn184 O194 1.910 . S
O185 Zn182 1.933 . S
O185 C196 1.226 1_556 S
O186 Zn184 1.932 . S
O186 C196 1.307 . S
O187 Zn180 1.920 1_556 S
O187 C198 1.253 . S
O188 Zn182 1.941 . S
O188 C198 1.283 . S
O189 Zn182 1.965 . S
O189 C197 1.303 . S
O190 Zn183 1.938 1_556 S
O190 C197 1.247 . S
O191 Zn183 1.906 . S
O191 C199 1.304 . S
O192 Zn180 1.923 . S
O192 C200 1.311 . S
O193 Zn184 1.977 . S
O193 C199 1.272 . S
O194 Zn184 1.910 . S
O194 C200 1.231 . S
C195 O179 1.225 1_554 S
C195 O201 1.298 . S
C196 O185 1.226 1_554 S
C196 O186 1.307 . S
C197 O189 1.303 . S
C197 O190 1.247 . S
C198 O187 1.253 . S
C198 O188 1.283 . S
C199 O191 1.304 . S
C199 O193 1.272 . S
C200 O192 1.311 . S
C200 O194 1.231 . S
O201 Zn183 1.953 . S
O201 C195 1.298 . S
C202 C203 1.349 . S
C202 C204 1.327 . S
C202 H227 0.950 . S
C203 C202 1.349 . S
C203 C219 1.349 . S
C204 C202 1.327 . S
C204 C223 1.429 . S
C204 H228 0.950 . S
C205 C222 1.574 . S
C205 C224 1.368 . S
C205 H229 0.949 . S
H206 C210 0.949 . S
C207 C208 1.349 . S
C207 C209 1.327 . S
C207 H230 0.950 . S
C208 C207 1.349 . S
C208 C220 1.349 . S
C209 C207 1.327 . S
C209 C225 1.429 . S
C209 H231 0.950 . S
C210 H206 0.949 . S
C210 C218 1.574 . S
C210 C226 1.368 . S
H211 C219 0.950 . S
H212 C217 0.950 . S
H213 C218 0.949 . S
H214 C220 0.950 . S
H215 C221 0.950 . S
H216 C222 0.949 . S
C217 H212 0.950 . S
C217 C219 1.327 . S
C217 C223 1.429 . S
C218 C210 1.574 . S
C218 H213 0.949 . S
C218 C224 1.368 . S
C219 C203 1.349 . S
C219 H211 0.950 . S
C219 C217 1.327 . S
C220 C208 1.349 . S
C220 H214 0.950 . S
C220 C221 1.327 . S
C221 H215 0.950 . S
C221 C220 1.327 . S
C221 C225 1.429 . S
C222 C205 1.574 . S
C222 H216 0.949 . S
C222 C226 1.368 . S
C223 C204 1.429 . S
C223 C217 1.429 . S
C223 C224 1.523 . S
C224 C205 1.368 . S
C224 C218 1.368 . S
C224 C223 1.523 . S
C225 C209 1.429 . S
C225 C221 1.429 . S
C225 C226 1.523 . S
C226 C210 1.368 . S
C226 C222 1.368 . S
C226 C225 1.523 . S
H227 C202 0.950 . S
H228 C204 0.950 . S
H229 C205 0.949 . S
H230 C207 0.950 . S
H231 C209 0.950 . S
C232 C233 1.349 . S
C232 C234 1.327 . S
C232 H257 0.950 . S
C233 C232 1.349 . S
C233 C249 1.349 1_554 S
C234 C232 1.327 . S
C234 C253 1.429 . S
C234 H258 0.950 . S
C235 C252 1.574 . S
C235 C254 1.368 1_556 S
C235 H259 0.949 . S
H236 C240 0.949 . S
C237 C238 1.349 1_556 S
C237 C239 1.327 . S
C237 H260 0.950 . S
C238 C237 1.349 1_554 S
C238 C250 1.349 . S
C239 C237 1.327 . S
C239 C255 1.429 1_556 S
C239 H261 0.950 . S
C240 H236 0.949 . S
C240 C248 1.574 . S
C240 C256 1.368 . S
H241 C249 0.950 . S
H242 C247 0.950 . S
H243 C248 0.949 . S
H244 C250 0.950 . S
H245 C251 0.950 . S
H246 C252 0.949 . S
C247 H242 0.950 . S
C247 C249 1.327 . S
C247 C253 1.429 1_556 S
C248 C240 1.574 . S
C248 H243 0.949 . S
C248 C254 1.368 . S
C249 C233 1.349 1_556 S
C249 H241 0.950 . S
C249 C247 1.327 . S
C250 C238 1.349 . S
C250 H244 0.950 . S
C250 C251 1.327 . S
C251 H245 0.950 . S
C251 C250 1.327 . S
C251 C255 1.429 . S
C252 C235 1.574 . S
C252 H246 0.949 . S
C252 C256 1.368 1_556 S
C253 C234 1.429 . S
C253 C247 1.429 1_554 S
C253 C254 1.523 . S
C254 C235 1.368 1_554 S
C254 C248 1.368 . S
C254 C253 1.523 . S
C255 C239 1.429 1_554 S
C255 C251 1.429 . S
C255 C256 1.523 . S
C256 C240 1.368 . S
C256 C252 1.368 1_554 S
C256 C255 1.523 . S
H257 C232 0.950 . S
H258 C234 0.950 . S
H259 C235 0.949 . S
H260 C237 0.950 . S
H261 C239 0.950 . S
C262 C263 1.349 . S
C262 C264 1.327 . S
C262 H287 0.950 . S
C263 C262 1.349 . S
C263 C279 1.349 . S
C264 C262 1.327 . S
C264 C283 1.429 . S
C264 H288 0.950 . S
C265 C282 1.574 . S
C265 C284 1.368 . S
C265 H289 0.949 . S
H266 C270 0.949 . S
C267 C268 1.349 . S
C267 C269 1.327 . S
C267 H290 0.950 . S
C268 C267 1.349 . S
C268 C280 1.349 . S
C269 C267 1.327 . S
C269 C285 1.429 . S
C269 H291 0.950 . S
C270 H266 0.949 . S
C270 C278 1.574 . S
C270 C286 1.368 . S
H271 C279 0.950 . S
H272 C277 0.950 . S
H273 C278 0.949 . S
H274 C280 0.950 . S
H275 C281 0.950 . S
H276 C282 0.949 . S
C277 H272 0.950 . S
C277 C279 1.327 . S
C277 C283 1.429 . S
C278 C270 1.574 . S
C278 H273 0.949 . S
C278 C284 1.368 . S
C279 C263 1.349 . S
C279 H271 0.950 . S
C279 C277 1.327 . S
C280 C268 1.349 . S
C280 H274 0.950 . S
C280 C281 1.327 . S
C281 H275 0.950 . S
C281 C280 1.327 . S
C281 C285 1.429 . S
C282 C265 1.574 . S
C282 H276 0.949 . S
C282 C286 1.368 . S
C283 C264 1.429 . S
C283 C277 1.429 . S
C283 C284 1.523 . S
C284 C265 1.368 . S
C284 C278 1.368 . S
C284 C283 1.523 . S
C285 C269 1.429 . S
C285 C281 1.429 . S
C285 C286 1.523 . S
C286 C270 1.368 . S
C286 C282 1.368 . S
C286 C285 1.523 . S
H287 C262 0.950 . S
H288 C264 0.950 . S
H289 C265 0.949 . S
H290 C267 0.950 . S
H291 C269 0.950 . S
C292 C293 1.349 . S
C292 C294 1.327 . S
C292 H317 0.950 . S
C293 C292 1.349 . S
C293 C309 1.349 1_554 S
C294 C292 1.327 . S
C294 C313 1.429 . S
C294 H318 0.950 . S
C295 C312 1.574 . S
C295 C314 1.368 1_556 S
C295 H319 0.949 . S
H296 C300 0.949 . S
C297 C298 1.349 1_556 S
C297 C299 1.327 . S
C297 H320 0.950 . S
C298 C297 1.349 1_554 S
C298 C310 1.349 . S
C299 C297 1.327 . S
C299 C315 1.429 1_556 S
C299 H321 0.950 . S
C300 H296 0.949 . S
C300 C308 1.574 . S
C300 C316 1.368 . S
H301 C309 0.950 . S
H302 C307 0.950 . S
H303 C308 0.949 . S
H304 C310 0.950 . S
H305 C311 0.950 . S
H306 C312 0.949 . S
C307 H302 0.950 . S
C307 C309 1.327 . S
C307 C313 1.429 1_556 S
C308 C300 1.574 . S
C308 H303 0.949 . S
C308 C314 1.368 . S
C309 C293 1.349 1_556 S
C309 H301 0.950 . S
C309 C307 1.327 . S
C310 C298 1.349 . S
C310 H304 0.950 . S
C310 C311 1.327 . S
C311 H305 0.950 . S
C311 C310 1.327 . S
C311 C315 1.429 . S
C312 C295 1.574 . S
C312 H306 0.949 . S
C312 C316 1.368 1_556 S
C313 C294 1.429 . S
C313 C307 1.429 1_554 S
C313 C314 1.523 . S
C314 C295 1.368 1_554 S
C314 C308 1.368 . S
C314 C313 1.523 . S
C315 C299 1.429 1_554 S
C315 C311 1.429 . S
C315 C316 1.523 . S
C316 C300 1.368 . S
C316 C312 1.368 1_554 S
C316 C315 1.523 . S
H317 C292 0.950 . S
H318 C294 0.950 . S
H319 C295 0.949 . S
H320 C297 0.950 . S
H321 C299 0.950 . S
C322 C323 1.349 . S
C322 C324 1.327 . S
C322 H347 0.950 . S
C323 C322 1.349 . S
C323 C339 1.349 . S
C324 C322 1.327 . S
C324 C343 1.429 . S
C324 H348 0.950 . S
C325 C342 1.574 . S
C325 C344 1.368 . S
C325 H349 0.949 . S
H326 C330 0.949 . S
C327 C328 1.349 . S
C327 C329 1.327 . S
C327 H350 0.950 . S
C328 C327 1.349 . S
C328 C340 1.349 . S
C329 C327 1.327 . S
C329 C345 1.429 . S
C329 H351 0.950 . S
C330 H326 0.949 . S
C330 C338 1.574 . S
C330 C346 1.368 . S
H331 C339 0.950 . S
H332 C337 0.950 . S
H333 C338 0.949 . S
H334 C340 0.950 . S
H335 C341 0.950 . S
H336 C342 0.949 . S
C337 H332 0.950 . S
C337 C339 1.327 . S
C337 C343 1.429 . S
C338 C330 1.574 . S
C338 H333 0.949 . S
C338 C344 1.368 . S
C339 C323 1.349 . S
C339 H331 0.950 . S
C339 C337 1.327 . S
C340 C328 1.349 . S
C340 H334 0.950 . S
C340 C341 1.327 . S
C341 H335 0.950 . S
C341 C340 1.327 . S
C341 C345 1.429 . S
C342 C325 1.574 . S
C342 H336 0.949 . S
C342 C346 1.368 . S
C343 C324 1.429 . S
C343 C337 1.429 . S
C343 C344 1.523 . S
C344 C325 1.368 . S
C344 C338 1.368 . S
C344 C343 1.523 . S
C345 C329 1.429 . S
C345 C341 1.429 . S
C345 C346 1.523 . S
C346 C330 1.368 . S
C346 C342 1.368 . S
C346 C345 1.523 . S
H347 C322 0.950 . S
H348 C324 0.950 . S
H349 C325 0.949 . S
H350 C327 0.950 . S
H351 C329 0.950 . S
C352 C353 1.349 . S
C352 C354 1.327 . S
C352 H377 0.950 . S
C353 C352 1.349 . S
C353 C369 1.349 . S
C354 C352 1.327 . S
C354 C373 1.429 . S
C354 H378 0.950 . S
C355 C372 1.574 . S
C355 C374 1.368 . S
C355 H379 0.949 . S
H356 C360 0.949 . S
C357 C358 1.349 . S
C357 C359 1.327 . S
C357 H380 0.950 . S
C358 C357 1.349 . S
C358 C370 1.349 . S
C359 C357 1.327 . S
C359 C375 1.429 . S
C359 H381 0.950 . S
C360 H356 0.949 . S
C360 C368 1.574 . S
C360 C376 1.368 . S
H361 C369 0.950 . S
H362 C367 0.950 . S
H363 C368 0.949 . S
H364 C370 0.950 . S
H365 C371 0.950 . S
H366 C372 0.949 . S
C367 H362 0.950 . S
C367 C369 1.327 . S
C367 C373 1.429 . S
C368 C360 1.574 . S
C368 H363 0.949 . S
C368 C374 1.368 . S
C369 C353 1.349 . S
C369 H361 0.950 . S
C369 C367 1.327 . S
C370 C358 1.349 . S
C370 H364 0.950 . S
C370 C371 1.327 . S
C371 H365 0.950 . S
C371 C370 1.327 . S
C371 C375 1.429 . S
C372 C355 1.574 . S
C372 H366 0.949 . S
C372 C376 1.368 . S
C373 C354 1.429 . S
C373 C367 1.429 . S
C373 C374 1.523 . S
C374 C355 1.368 . S
C374 C368 1.368 . S
C374 C373 1.523 . S
C375 C359 1.429 . S
C375 C371 1.429 . S
C375 C376 1.523 . S
C376 C360 1.368 . S
C376 C372 1.368 . S
C376 C375 1.523 . S
H377 C352 0.950 . S
H378 C354 0.950 . S
H379 C355 0.949 . S
H380 C357 0.950 . S
H381 C359 0.950 . S
C382 C383 1.349 . S
C382 C384 1.327 . S
C382 H407 0.950 . S
C383 C382 1.349 . S
C383 C399 1.349 . S
C384 C382 1.327 . S
C384 C403 1.429 . S
C384 H408 0.950 . S
C385 C402 1.574 . S
C385 C404 1.368 . S
C385 H409 0.949 . S
H386 C390 0.949 . S
C387 C388 1.349 . S
C387 C389 1.327 . S
C387 H410 0.950 . S
C388 C387 1.349 . S
C388 C400 1.349 . S
C389 C387 1.327 . S
C389 C405 1.429 . S
C389 H411 0.950 . S
C390 H386 0.949 . S
C390 C398 1.574 . S
C390 C406 1.368 . S
H391 C399 0.950 . S
H392 C397 0.950 . S
H393 C398 0.949 . S
H394 C400 0.950 . S
H395 C401 0.950 . S
H396 C402 0.949 . S
C397 H392 0.950 . S
C397 C399 1.327 . S
C397 C403 1.429 . S
C398 C390 1.574 . S
C398 H393 0.949 . S
C398 C404 1.368 . S
C399 C383 1.349 . S
C399 H391 0.950 . S
C399 C397 1.327 . S
C400 C388 1.349 . S
C400 H394 0.950 . S
C400 C401 1.327 . S
C401 H395 0.950 . S
C401 C400 1.327 . S
C401 C405 1.429 . S
C402 C385 1.574 . S
C402 H396 0.949 . S
C402 C406 1.368 . S
C403 C384 1.429 . S
C403 C397 1.429 . S
C403 C404 1.523 . S
C404 C385 1.368 . S
C404 C398 1.368 . S
C404 C403 1.523 . S
C405 C389 1.429 . S
C405 C401 1.429 . S
C405 C406 1.523 . S
C406 C390 1.368 . S
C406 C402 1.368 . S
C406 C405 1.523 . S
H407 C382 0.950 . S
H408 C384 0.950 . S
H409 C385 0.949 . S
H410 C387 0.950 . S
H411 C389 0.950 . S
C412 C413 1.349 . S
C412 C414 1.327 . S
C412 H437 0.950 . S
C413 C412 1.349 . S
C413 C429 1.349 . S
C414 C412 1.327 . S
C414 C433 1.429 . S
C414 H438 0.950 . S
C415 C432 1.574 . S
C415 C434 1.368 . S
C415 H439 0.949 . S
H416 C420 0.949 . S
C417 C418 1.349 . S
C417 C419 1.327 . S
C417 H440 0.950 . S
C418 C417 1.349 . S
C418 C430 1.349 . S
C419 C417 1.327 . S
C419 C435 1.429 . S
C419 H441 0.950 . S
C420 H416 0.949 . S
C420 C428 1.574 . S
C420 C436 1.368 . S
H421 C429 0.950 . S
H422 C427 0.950 . S
H423 C428 0.949 . S
H424 C430 0.950 . S
H425 C431 0.950 . S
H426 C432 0.949 . S
C427 H422 0.950 . S
C427 C429 1.327 . S
C427 C433 1.429 . S
C428 C420 1.574 . S
C428 H423 0.949 . S
C428 C434 1.368 . S
C429 C413 1.349 . S
C429 H421 0.950 . S
C429 C427 1.327 . S
C430 C418 1.349 . S
C430 H424 0.950 . S
C430 C431 1.327 . S
C431 H425 0.950 . S
C431 C430 1.327 . S
C431 C435 1.429 . S
C432 C415 1.574 . S
C432 H426 0.949 . S
C432 C436 1.368 . S
C433 C414 1.429 . S
C433 C427 1.429 . S
C433 C434 1.523 . S
C434 C415 1.368 . S
C434 C428 1.368 . S
C434 C433 1.523 . S
C435 C419 1.429 . S
C435 C431 1.429 . S
C435 C436 1.523 . S
C436 C420 1.368 . S
C436 C432 1.368 . S
C436 C435 1.523 . S
H437 C412 0.950 . S
H438 C414 0.950 . S
H439 C415 0.949 . S
H440 C417 0.950 . S
H441 C419 0.950 . S
C442 C443 1.349 . S
C442 C444 1.327 . S
C442 H467 0.950 . S
C443 C442 1.349 . S
C443 C459 1.349 . S
C444 C442 1.327 . S
C444 C463 1.429 . S
C444 H468 0.950 . S
C445 C462 1.574 . S
C445 C464 1.368 . S
C445 H469 0.949 . S
H446 C450 0.949 . S
C447 C448 1.349 . S
C447 C449 1.327 . S
C447 H470 0.950 . S
C448 C447 1.349 . S
C448 C460 1.349 . S
C449 C447 1.327 . S
C449 C465 1.429 . S
C449 H471 0.950 . S
C450 H446 0.949 . S
C450 C458 1.574 . S
C450 C466 1.368 . S
H451 C459 0.950 . S
H452 C457 0.950 . S
H453 C458 0.949 . S
H454 C460 0.950 . S
H455 C461 0.950 . S
H456 C462 0.949 . S
C457 H452 0.950 . S
C457 C459 1.327 . S
C457 C463 1.429 . S
C458 C450 1.574 . S
C458 H453 0.949 . S
C458 C464 1.368 . S
C459 C443 1.349 . S
C459 H451 0.950 . S
C459 C457 1.327 . S
C460 C448 1.349 . S
C460 H454 0.950 . S
C460 C461 1.327 . S
C461 H455 0.950 . S
C461 C460 1.327 . S
C461 C465 1.429 . S
C462 C445 1.574 . S
C462 H456 0.949 . S
C462 C466 1.368 . S
C463 C444 1.429 . S
C463 C457 1.429 . S
C463 C464 1.523 . S
C464 C445 1.368 . S
C464 C458 1.368 . S
C464 C463 1.523 . S
C465 C449 1.429 . S
C465 C461 1.429 . S
C465 C466 1.523 . S
C466 C450 1.368 . S
C466 C462 1.368 . S
C466 C465 1.523 . S
H467 C442 0.950 . S
H468 C444 0.950 . S
H469 C445 0.949 . S
H470 C447 0.950 . S
H471 C449 0.950 . S
C472 C473 1.349 . S
C472 C474 1.327 . S
C472 H497 0.950 . S
C473 C472 1.349 . S
C473 C489 1.349 . S
C474 C472 1.327 . S
C474 C493 1.429 . S
C474 H498 0.950 . S
C475 C492 1.574 . S
C475 C494 1.368 . S
C475 H499 0.949 . S
H476 C480 0.949 . S
C477 C478 1.349 . S
C477 C479 1.327 . S
C477 H500 0.950 . S
C478 C477 1.349 . S
C478 C490 1.325 1_655 S
C479 C477 1.327 . S
C479 C495 1.429 . S
C479 H501 0.950 . S
C480 H476 0.949 . S
C480 C488 1.574 . S
C480 C496 1.368 . S
H481 C489 0.950 . S
H482 C487 0.950 . S
H483 C488 0.949 . S
H484 C490 0.986 . S
H485 C491 0.950 1_455 S
H486 C492 0.949 . S
C487 H482 0.950 . S
C487 C489 1.327 . S
C487 C493 1.429 . S
C488 C480 1.574 . S
C488 H483 0.949 . S
C488 C494 1.368 . S
C489 C473 1.349 . S
C489 H481 0.950 . S
C489 C487 1.327 . S
C490 C478 1.325 1_455 S
C490 H484 0.986 . S
C490 C491 1.316 1_455 S
C491 H485 0.950 1_655 S
C491 C490 1.316 1_655 S
C491 C495 1.429 . S
C492 C475 1.574 . S
C492 H486 0.949 . S
C492 C496 1.368 . S
C493 C474 1.429 . S
C493 C487 1.429 . S
C493 C494 1.523 . S
C494 C475 1.368 . S
C494 C488 1.368 . S
C494 C493 1.523 . S
C495 C479 1.429 . S
C495 C491 1.429 . S
C495 C496 1.523 . S
C496 C480 1.368 . S
C496 C492 1.368 . S
C496 C495 1.523 . S
H497 C472 0.950 . S
H498 C474 0.950 . S
H499 C475 0.949 . S
H500 C477 0.950 . S
H501 C479 0.950 . S
C502 C503 1.349 . S
C502 C504 1.327 . S
C502 H527 0.950 . S
C503 C502 1.349 . S
C503 C519 1.349 . S
C504 C502 1.327 . S
C504 C523 1.429 . S
C504 H528 0.950 . S
C505 C522 1.574 . S
C505 C524 1.368 . S
C505 H529 0.949 . S
H506 C510 0.949 . S
C507 C508 1.349 . S
C507 C509 1.327 . S
C507 H530 0.950 . S
C508 C507 1.349 . S
C508 C520 1.349 . S
C509 C507 1.327 . S
C509 C525 1.429 . S
C509 H531 0.950 . S
C510 H506 0.949 . S
C510 C518 1.574 . S
C510 C526 1.368 . S
H511 C519 0.950 . S
H512 C517 0.950 . S
H513 C518 0.949 . S
H514 C520 0.950 . S
H515 C521 0.950 . S
H516 C522 0.949 . S
C517 H512 0.950 . S
C517 C519 1.327 . S
C517 C523 1.429 . S
C518 C510 1.574 . S
C518 H513 0.949 . S
C518 C524 1.368 . S
C519 C503 1.349 . S
C519 H511 0.950 . S
C519 C517 1.327 . S
C520 C508 1.349 . S
C520 H514 0.950 . S
C520 C521 1.327 . S
C521 H515 0.950 . S
C521 C520 1.327 . S
C521 C525 1.429 . S
C522 C505 1.574 . S
C522 H516 0.949 . S
C522 C526 1.368 . S
C523 C504 1.429 . S
C523 C517 1.429 . S
C523 C524 1.523 . S
C524 C505 1.368 . S
C524 C518 1.368 . S
C524 C523 1.523 . S
C525 C509 1.429 . S
C525 C521 1.429 . S
C525 C526 1.523 . S
C526 C510 1.368 . S
C526 C522 1.368 . S
C526 C525 1.523 . S
H527 C502 0.950 . S
H528 C504 0.950 . S
H529 C505 0.949 . S
H530 C507 0.950 . S
H531 C509 0.950 . S
C532 C533 1.349 . S
C532 C534 1.327 . S
C532 H557 0.950 . S
C533 C532 1.349 . S
C533 C549 1.349 . S
C534 C532 1.327 . S
C534 C553 1.429 . S
C534 H558 0.950 . S
C535 C552 1.574 . S
C535 C554 1.368 . S
C535 H559 0.949 . S
H536 C540 0.949 . S
C537 C538 1.349 . S
C537 C539 1.327 . S
C537 H560 0.950 . S
C538 C537 1.349 . S
C538 C550 1.349 . S
C539 C537 1.327 . S
C539 C555 1.429 . S
C539 H561 0.950 . S
C540 H536 0.949 . S
C540 C548 1.574 . S
C540 C556 1.368 . S
H541 C549 0.950 . S
H542 C547 0.950 . S
H543 C548 0.949 . S
H544 C550 0.950 . S
H545 C551 0.950 . S
H546 C552 0.949 . S
C547 H542 0.950 . S
C547 C549 1.327 . S
C547 C553 1.429 . S
C548 C540 1.574 . S
C548 H543 0.949 . S
C548 C554 1.368 . S
C549 C533 1.349 . S
C549 H541 0.950 . S
C549 C547 1.327 . S
C550 C538 1.349 . S
C550 H544 0.950 . S
C550 C551 1.327 . S
C551 H545 0.950 . S
C551 C550 1.327 . S
C551 C555 1.429 . S
C552 C535 1.574 . S
C552 H546 0.949 . S
C552 C556 1.368 . S
C553 C534 1.429 . S
C553 C547 1.429 . S
C553 C554 1.523 . S
C554 C535 1.368 . S
C554 C548 1.368 . S
C554 C553 1.523 . S
C555 C539 1.429 . S
C555 C551 1.429 . S
C555 C556 1.523 . S
C556 C540 1.368 . S
C556 C552 1.368 . S
C556 C555 1.523 . S
H557 C532 0.950 . S
H558 C534 0.950 . S
H559 C535 0.949 . S
H560 C537 0.950 . S
H561 C539 0.950 . S
C208 C173 1.628 . S
C203 C138 1.602 . S
C233 C21 1.613 . S
C238 C196 1.628 . S
C263 C60 1.635 . S
C268 C172 1.652 . S
C293 C99 1.624 . S
C298 C195 1.652 . S
C328 C176 1.583 . S
C323 C16 1.607 . S
C358 C198 1.611 . S
C353 C40 1.628 . S
C383 C79 1.619 . S
C388 C177 1.589 . S
C413 C133 1.603 . S
C418 C197 1.586 . S
C448 C200 1.588 . S
C443 C55 1.620 . S
C478 C175 1.611 . S
C473 C94 1.626 . S
C508 C199 1.583 . S
C503 C118 1.606 . S
C533 C1 1.605 . S
C538 C174 1.586 . S
