# Generated by pormake.
# Topology anh, (6,3)-cn, num edge types: 1
# Building blocks:
#     Node 0, Type 0, BuildingBlock: VOLQOD_clean_sbu_1, # of connection points: 6
#     Node 1, Type 0, BuildingBlock: VOLQOD_clean_sbu_1, # of connection points: 6
#     Node 2, Type 0, BuildingBlock: VOLQOD_clean_sbu_1, # of connection points: 6
#     Node 3, Type 1, BuildingBlock: MIDCAF_clean_linker_0, # of connection points: 3
#     Node 4, Type 1, BuildingBlock: MIDCAF_clean_linker_0, # of connection points: 3
#     Node 5, Type 1, BuildingBlock: MIDCAF_clean_linker_0, # of connection points: 3
#     Node 6, Type 1, BuildingBlock: MIDCAF_clean_linker_0, # of connection points: 3
#     Node 7, Type 1, BuildingBlock: MIDCAF_clean_linker_0, # of connection points: 3
#     Node 8, Type 1, BuildingBlock: MIDCAF_clean_linker_0, # of connection points: 3
#     Edge 9, Type (0, 1), BuildingBlock: KIFKEQ_clean_linker_1, # of connection points: 2
#     Edge 10, Type (0, 1), BuildingBlock: KIFKEQ_clean_linker_1, # of connection points: 2
#     Edge 11, Type (0, 1), BuildingBlock: KIFKEQ_clean_linker_1, # of connection points: 2
#     Edge 12, Type (0, 1), BuildingBlock: KIFKEQ_clean_linker_1, # of connection points: 2
#     Edge 13, Type (0, 1), BuildingBlock: KIFKEQ_clean_linker_1, # of connection points: 2
#     Edge 14, Type (0, 1), BuildingBlock: KIFKEQ_clean_linker_1, # of connection points: 2
#     Edge 15, Type (0, 1), BuildingBlock: KIFKEQ_clean_linker_1, # of connection points: 2
#     Edge 16, Type (0, 1), BuildingBlock: KIFKEQ_clean_linker_1, # of connection points: 2
#     Edge 17, Type (0, 1), BuildingBlock: KIFKEQ_clean_linker_1, # of connection points: 2
#     Edge 18, Type (0, 1), BuildingBlock: KIFKEQ_clean_linker_1, # of connection points: 2
#     Edge 19, Type (0, 1), BuildingBlock: KIFKEQ_clean_linker_1, # of connection points: 2
#     Edge 20, Type (0, 1), BuildingBlock: KIFKEQ_clean_linker_1, # of connection points: 2
#     Edge 21, Type (0, 1), BuildingBlock: KIFKEQ_clean_linker_1, # of connection points: 2
#     Edge 22, Type (0, 1), BuildingBlock: KIFKEQ_clean_linker_1, # of connection points: 2
#     Edge 23, Type (0, 1), BuildingBlock: KIFKEQ_clean_linker_1, # of connection points: 2
#     Edge 24, Type (0, 1), BuildingBlock: KIFKEQ_clean_linker_1, # of connection points: 2
#     Edge 25, Type (0, 1), BuildingBlock: KIFKEQ_clean_linker_1, # of connection points: 2
#     Edge 26, Type (0, 1), BuildingBlock: KIFKEQ_clean_linker_1, # of connection points: 2
# Relax obj value: 0.167
# Max RMSD: 0.230
# Mean RMSD: 0.115
data_MOF--net-anh--node1-VOLQOD_clean_sbu_1--node2-MIDCAF_clean_linker_0--edge1-KIFKEQ_clean_linker_1
_symmetry_space_group_name_H-M    P1
_symmetry_Int_Tables_number       1
_symmetry_cell_setting            triclinic
loop_
_symmetry_equiv_pos_as_xyz
'x, y, z'
_cell_length_a     35.042344
_cell_length_b     34.80589
_cell_length_c     75.266435
_cell_angle_alpha  90.024768
_cell_angle_beta   89.783308
_cell_angle_gamma 120.04295
loop_
_atom_site_label
_atom_site_type_symbol
_atom_site_fract_x
_atom_site_fract_y
_atom_site_fract_z
_atom_type_partial_charge
O0 O 0.00178 0.53869 0.20029 0.0
Zn1 Zn 0.00657 0.55704 0.17475 0.0
O2 O 0.01339 0.51597 0.15909 0.0
Zn3 Zn 0.96642 0.49229 0.14157 0.0
Zn4 Zn 0.01064 0.46766 0.17329 0.0
Zn5 Zn 0.06971 0.54679 0.14662 0.0
O6 O 0.98967 0.50309 0.11657 0.0
O7 O 0.06204 0.54369 0.12009 0.0
O8 O 0.95308 0.5616 0.16861 0.0
O9 O 0.93006 0.52157 0.1439 0.0
O10 O 0.92546 0.42696 0.1453 0.0
O11 O 0.95719 0.41005 0.16704 0.0
O12 O 0.06396 0.46138 0.16939 0.0
O13 O 0.05916 0.61809 0.17283 0.0
O14 O 0.10685 0.51952 0.15238 0.0
O15 O 0.10293 0.61109 0.15329 0.0
C16 C 0.00249 0.50672 0.20817 0.0
C17 C 0.0284 0.52482 0.11009 0.0
C18 C 0.92624 0.39879 0.15586 0.0
C19 C 0.9272 0.54688 0.15537 0.0
C20 C 0.10003 0.48529 0.16111 0.0
C21 C 0.09465 0.63469 0.16378 0.0
O22 O 0.00618 0.47729 0.1995 0.0
O23 O 0.4588 0.00624 0.46032 0.0
Zn24 Zn 0.44211 -0.0003 0.48615 0.0
O25 O 0.48203 0.989 0.5006 0.0
Zn26 Zn 0.51314 0.03783 0.51715 0.0
Zn27 Zn 0.52453 0.98542 0.48502 0.0
Zn28 Zn 0.44902 0.93361 0.51389 0.0
O29 O 0.50607 0.016 0.54221 0.0
O30 O 0.45594 0.94437 0.54038 0.0
O31 O 0.44042 0.05404 0.49399 0.0
O32 O 0.48719 0.07737 0.51663 0.0
O33 O 0.57787 0.07518 0.51101 0.0
O34 O 0.58473 0.03728 0.48874 0.0
O35 O 0.52788 0.93067 0.48962 0.0
O36 O 0.38069 0.94802 0.48801 0.0
O37 O 0.47272 0.89289 0.50856 0.0
O38 O 0.38453 0.90204 0.50742 0.0
C39 C 0.48513 -0.00179 0.45153 0.0
C40 C 0.48107 0.97861 0.54953 0.0
C41 C 0.60135 0.07024 0.49928 0.0
C42 C 0.45956 0.08067 0.50677 0.0
C43 C 0.50457 0.89647 0.4991 0.0
C44 C 0.36244 0.91194 0.49684 0.0
O45 O 0.5105 0.98723 0.45928 0.0
O46 O 0.4559 0.46676 0.79315 0.0
Zn47 Zn 0.43615 0.44725 0.81848 0.0
O48 O 0.48455 0.48148 0.83529 0.0
Zn49 Zn 0.46849 0.51259 0.8524 0.0
Zn50 Zn 0.53623 0.5252 0.82222 0.0
Zn51 Zn 0.49843 0.44231 0.84866 0.0
O52 O 0.47343 0.49782 0.87771 0.0
O53 O 0.48792 0.44304 0.87494 0.0
O54 O 0.38386 0.45569 0.82369 0.0
O55 O 0.40634 0.4958 0.84845 0.0
O56 O 0.50317 0.57866 0.84903 0.0
O57 O 0.54902 0.5874 0.82702 0.0
O58 O 0.58923 0.52042 0.82816 0.0
O59 O 0.41746 0.38181 0.81965 0.0
O60 O 0.5623 0.46099 0.84563 0.0
O61 O 0.46182 0.37993 0.84027 0.0
C62 C 0.49337 0.4936 0.78637 0.0
C63 C 0.4797 0.46807 0.88459 0.0
C64 C 0.53338 0.60353 0.83814 0.0
C65 C 0.37713 0.47502 0.83672 0.0
C66 C 0.59437 0.49273 0.83738 0.0
C67 C 0.43112 0.36048 0.82894 0.0
O68 O 0.52687 0.5165 0.79608 0.0
C69 C 0.34771 0.92387 0.22144 0.0
C70 C 0.351 0.91729 0.20322 0.0
C71 C 0.39211 0.94094 0.19473 0.0
C72 C 0.42953 0.96977 0.20438 0.0
H73 H 0.56555 0.04369 0.20067 0.0
H74 H 0.63139 0.09452 0.18373 0.0
H75 H 0.67892 0.18385 0.22847 0.0
H76 H 0.61341 0.13291 0.24558 0.0
H77 H 0.56573 0.08657 0.28394 0.0
H78 H 0.56285 0.08394 0.31628 0.0
H79 H 0.43245 0.96841 0.3142 0.0
H80 H 0.43468 0.97175 0.28198 0.0
H81 H 0.3817 0.95612 0.24525 0.0
H82 H 0.31643 0.90561 0.22835 0.0
H83 H 0.39541 0.93659 0.18066 0.0
H84 H 0.46086 0.98692 0.19746 0.0
N85 N 0.50562 0.02952 0.22467 0.0
N86 N 0.54089 0.05638 0.252 0.0
N87 N 0.46532 0.00417 0.25114 0.0
C88 C 0.54273 0.0559 0.23398 0.0
C89 C 0.50225 0.03027 0.26068 0.0
C90 C 0.46674 0.0038 0.23312 0.0
C91 C 0.58424 0.08458 0.2244 0.0
C92 C 0.59025 0.07398 0.20696 0.0
C93 C 0.62792 0.10281 0.19729 0.0
C94 C 0.65977 0.14299 0.20482 0.0
C95 C 0.65447 0.15306 0.2224 0.0
C96 C 0.61717 0.12389 0.23218 0.0
C97 C 0.50044 0.02939 0.28034 0.0
C98 C 0.53638 0.06068 0.29038 0.0
C99 C 0.53483 0.05904 0.30893 0.0
C100 C 0.49744 0.02594 0.31784 0.0
C101 C 0.46147 0.9948 0.30778 0.0
C102 C 0.46288 0.9966 0.28927 0.0
C103 C 0.42662 0.97523 0.22276 0.0
C104 C 0.38519 0.95247 0.23114 0.0
C105 C 0.48263 0.36096 0.56215 0.0
C106 C 0.47583 0.35793 0.54369 0.0
C107 C 0.48817 0.39681 0.53392 0.0
C108 C 0.50717 0.43791 0.54245 0.0
H109 H 0.56893 0.56991 0.53272 0.0
H110 H 0.57541 0.63147 0.51513 0.0
H111 H 0.59142 0.7061 0.5631 0.0
H112 H 0.58525 0.64471 0.58083 0.0
H113 H 0.55647 0.59175 0.61823 0.0
H114 H 0.54648 0.58897 0.6504 0.0
H115 H 0.53229 0.45828 0.65149 0.0
H116 H 0.54103 0.46049 0.61945 0.0
H117 H 0.50643 0.40292 0.5849 0.0
H118 H 0.47446 0.33176 0.57002 0.0
H119 H 0.48317 0.39547 0.51969 0.0
H120 H 0.51626 0.46725 0.53453 0.0
N121 N 0.54802 0.52212 0.5606 0.0
N122 N 0.56466 0.56331 0.58696 0.0
N123 N 0.53518 0.48622 0.58804 0.0
C124 C 0.56381 0.56181 0.5689 0.0
C125 C 0.55068 0.52554 0.59661 0.0
C126 C 0.53364 0.48421 0.57006 0.0
C127 C 0.57557 0.60196 0.55825 0.0
C128 C 0.57456 0.59966 0.53957 0.0
C129 C 0.57829 0.6349 0.52945 0.0
C130 C 0.58333 0.67322 0.53777 0.0
C131 C 0.58778 0.67699 0.55633 0.0
C132 C 0.58395 0.64166 0.5665 0.0
C133 C 0.54913 0.52618 0.61624 0.0
C134 C 0.5516 0.5626 0.62537 0.0
C135 C 0.54595 0.56104 0.64381 0.0
C136 C 0.53801 0.52315 0.65349 0.0
C137 C 0.53722 0.4875 0.6444 0.0
C138 C 0.54254 0.48892 0.62601 0.0
C139 C 0.51416 0.4409 0.56092 0.0
C140 C 0.50146 0.40192 0.57067 0.0
C141 C 0.89978 0.55961 0.88903 0.0
C142 C 0.89912 0.57089 0.8712 0.0
C143 C 0.93894 0.59588 0.86195 0.0
C144 C 0.97895 0.60805 0.87029 0.0
H145 H 0.09009 0.60117 0.85799 0.0
H146 H 0.13963 0.5857 0.8406 0.0
H147 H 0.22085 0.60955 0.88694 0.0
H148 H 0.17186 0.62538 0.90431 0.0
H149 H 0.13048 0.62207 0.94323 0.0
H150 H 0.12917 0.60686 0.97502 0.0
H151 H 0.99059 0.56487 0.97708 0.0
H152 H 0.99154 0.5799 0.94553 0.0
H153 H 0.93904 0.5625 0.91114 0.0
H154 H 0.86934 0.54078 0.89644 0.0
H155 H 0.93901 0.60499 0.84818 0.0
H156 H 0.00927 0.62641 0.86277 0.0
N157 N 0.05556 0.61076 0.88636 0.0
N158 N 0.09466 0.61317 0.91195 0.0
N159 N 0.0238 0.60365 0.91445 0.0
C160 C 0.09242 0.61472 0.89394 0.0
C161 C 0.0605 0.60789 0.9223 0.0
C162 C 0.02125 0.60542 0.89653 0.0
C163 C 0.1266 0.61382 0.88266 0.0
C164 C 0.11903 0.60408 0.86441 0.0
C165 C 0.14725 0.59501 0.85442 0.0
C166 C 0.1838 0.59601 0.86244 0.0
C167 C 0.1931 0.60886 0.88033 0.0
C168 C 0.1648 0.61765 0.89034 0.0
C169 C 0.06109 0.60205 0.94177 0.0
C170 C 0.09979 0.60986 0.95048 0.0
C171 C 0.09913 0.60129 0.96867 0.0
C172 C 0.05968 0.58427 0.97842 0.0
C173 C 0.0213 0.57735 0.96981 0.0
C174 C 0.02201 0.58631 0.95173 0.0
C175 C 0.97962 0.59612 0.88809 0.0
C176 C 0.93968 0.57242 0.89746 0.0
C177 C 0.06549 0.65808 0.43569 0.0
C178 C 0.08191 0.65853 0.45277 0.0
C179 C 0.06737 0.61792 0.46162 0.0
C180 C 0.03878 0.57783 0.45328 0.0
H181 H 0.92174 0.44654 0.46026 0.0
H182 H 0.87256 0.37732 0.47543 0.0
H183 H 0.88197 0.30371 0.43096 0.0
H184 H 0.9295 0.37302 0.41546 0.0
H185 H 0.95545 0.42426 0.37736 0.0
H186 H 0.95754 0.42388 0.34494 0.0
H187 H 0.00449 0.56462 0.34421 0.0
H188 H 0.00247 0.56527 0.37657 0.0
H189 H 0.02649 0.61876 0.41389 0.0
H190 H 0.07511 0.68873 0.42864 0.0
H191 H 0.07969 0.61683 0.47467 0.0
H192 H 0.02951 0.54713 0.46024 0.0
N193 N 0.97652 0.49632 0.43535 0.0
N194 N 0.95586 0.45675 0.40854 0.0
N195 N -0.0008 0.53433 0.40819 0.0
C196 C 0.95483 0.45707 0.42659 0.0
C197 C 0.97786 0.49529 0.39925 0.0
C198 C -0.00114 0.53506 0.42623 0.0
C199 C 0.92897 0.4152 0.43655 0.0
C200 C 0.91365 0.41557 0.4538 0.0
C201 C 0.88565 0.3758 0.46256 0.0
C202 C 0.87287 0.3348 0.45437 0.0
C203 C 0.89022 0.33462 0.4375 0.0
C204 C 0.91762 0.37436 0.42862 0.0
C205 C 0.97879 0.49481 0.37958 0.0
C206 C 0.96612 0.45513 0.37031 0.0
C207 C 0.96754 0.4549 0.35175 0.0
C208 C 0.98112 0.4942 0.34209 0.0
C209 C -0.0065 0.53377 0.35133 0.0
C210 C -0.00742 0.53414 0.36987 0.0
C211 C 0.02459 0.57744 0.43582 0.0
C212 C 0.03746 0.61798 0.42725 0.0
C213 C 0.41073 0.07309 0.77271 0.0
C214 C 0.41349 0.07908 0.79121 0.0
C215 C 0.42693 0.0545 0.80164 0.0
C216 C 0.43885 0.02573 0.79368 0.0
H217 H 0.47185 0.92823 0.80423 0.0
H218 H 0.4947 0.88406 0.82163 0.0
H219 H 0.55154 0.86152 0.77456 0.0
H220 H 0.52913 0.90568 0.75717 0.0
H221 H 0.47073 0.90329 0.71934 0.0
H222 H 0.47414 0.90236 0.68684 0.0
H223 H 0.48082 0.02948 0.68477 0.0
H224 H 0.47663 0.03029 0.71714 0.0
H225 H 0.42116 0.04153 0.75041 0.0
H226 H 0.40101 0.09191 0.76429 0.0
H227 H 0.42891 0.05807 0.81596 0.0
H228 H 0.44989 0.008 0.8021 0.0
N229 N 0.4673 0.96986 0.77638 0.0
N230 N 0.48446 0.94423 0.75041 0.0
N231 N 0.45573 0.99208 0.74848 0.0
C232 C 0.48291 0.94535 0.76843 0.0
C233 C 0.47096 0.96755 0.74036 0.0
C234 C 0.45355 0.99326 0.76647 0.0
C235 C 0.49831 0.92023 0.77925 0.0
C236 C 0.48954 0.91417 0.79761 0.0
C237 C 0.50253 0.88883 0.80759 0.0
C238 C 0.52496 0.86944 0.79946 0.0
C239 C 0.53482 0.87654 0.78124 0.0
C240 C 0.52152 0.9015 0.77124 0.0
C241 C 0.47336 0.96684 0.72078 0.0
C242 C 0.47296 0.93104 0.71194 0.0
C243 C 0.47471 0.93035 0.69339 0.0
C244 C 0.47785 0.96589 0.68341 0.0
C245 C 0.47869 0.00184 0.69222 0.0
C246 C 0.47605 0.00213 0.71072 0.0
C247 C 0.43773 0.02103 0.7751 0.0
C248 C 0.42272 0.04443 0.76475 0.0
C249 C 0.64404 0.52393 0.10832 0.0
C250 C 0.64738 0.52843 0.12689 0.0
C251 C 0.60865 0.51236 0.13707 0.0
C252 C 0.56741 0.49161 0.12883 0.0
H253 H 0.43519 0.43136 0.13896 0.0
H254 H 0.37198 0.42349 0.15559 0.0
H255 H 0.29667 0.39148 0.10708 0.0
H256 H 0.35939 0.39852 0.09045 0.0
H257 H 0.40581 0.39977 0.05357 0.0
H258 H 0.40409 0.40107 0.02114 0.0
H259 H 0.54634 0.47531 0.01967 0.0
H260 H 0.5484 0.47441 0.0519 0.0
H261 H 0.60188 0.49996 0.08578 0.0
H262 H 0.67315 0.53507 0.1001 0.0
H263 H 0.61022 0.51551 0.1514 0.0
H264 H 0.53818 0.47929 0.13707 0.0
N265 N 0.48297 0.44852 0.11098 0.0
N266 N 0.44127 0.42459 0.08483 0.0
N267 N 0.51824 0.45903 0.08348 0.0
C268 C 0.44312 0.42883 0.10282 0.0
C269 C 0.47878 0.43947 0.07507 0.0
C270 C 0.52068 0.46364 0.10141 0.0
C271 C 0.40273 0.41651 0.11328 0.0
C272 C 0.40494 0.42184 0.13185 0.0
C273 C 0.36874 0.41738 0.14141 0.0
C274 C 0.32959 0.40747 0.13262 0.0
C275 C 0.32628 0.39885 0.11428 0.0
C276 C 0.36245 0.40325 0.1047 0.0
C277 C 0.47722 0.43726 0.05541 0.0
C278 C 0.43674 0.41614 0.04635 0.0
C279 C 0.4357 0.41668 0.02777 0.0
C280 C 0.47508 0.43862 0.01793 0.0
C281 C 0.51547 0.45873 0.02694 0.0
C282 C 0.51656 0.45796 0.04545 0.0
C283 C 0.56414 0.4864 0.11026 0.0
C284 C 0.60299 0.50324 0.10011 0.0
H285 H 0.18616 0.53593 0.15136 0.0
H286 H 0.09084 0.40494 0.1703 0.0
H287 H 0.2409 0.51285 0.14854 0.0
H288 H 0.14607 0.38188 0.16745 0.0
H289 H 0.34069 0.4724 0.15573 0.0
H290 H 0.28465 0.48836 0.16665 0.0
H291 H 0.18382 0.37063 0.14067 0.0
H292 H 0.23991 0.35387 0.13006 0.0
C293 C 0.17702 0.50234 0.1551 0.0
C294 C 0.13411 0.47219 0.16094 0.0
C295 C 0.20851 0.48923 0.15363 0.0
C296 C 0.19769 0.4456 0.15783 0.0
C297 C 0.15514 0.41566 0.16408 0.0
C298 C 0.12367 0.42894 0.16576 0.0
C299 C 0.30646 0.44907 0.15282 0.0
C300 C 0.29471 0.41203 0.14191 0.0
C301 C 0.27445 0.4585 0.15894 0.0
C302 C 0.23007 0.43106 0.1543 0.0
C303 C 0.21783 0.39228 0.14448 0.0
C304 C 0.24992 0.3829 0.13829 0.0
H305 H 0.662 0.06727 0.4774 0.0
H306 H 0.64572 0.15272 0.51464 0.0
H307 H 0.73345 0.12881 0.4686 0.0
H308 H 0.7174 0.21447 0.50565 0.0
H309 H 0.86123 0.31187 0.48985 0.0
H310 H 0.8005 0.24518 0.50336 0.0
H311 H 0.74737 0.19597 0.45125 0.0
H312 H 0.80656 0.26252 0.43782 0.0
C313 C 0.67392 0.09898 0.48393 0.0
C314 C 0.64775 0.10531 0.49648 0.0
C315 C 0.71484 0.1342 0.47885 0.0
C316 C 0.73057 0.17649 0.48624 0.0
C317 C 0.70608 0.18213 0.49978 0.0
C318 C 0.66496 0.14681 0.50486 0.0
C319 C 0.83659 0.28679 0.48128 0.0
C320 C 0.8389 0.29265 0.46272 0.0
C321 C 0.802 0.2486 0.48903 0.0
C322 C 0.76946 0.21536 0.47835 0.0
C323 C 0.77248 0.22064 0.45981 0.0
C324 C 0.80661 0.25885 0.4521 0.0
H325 H 0.58158 0.66226 0.81186 0.0
H326 H 0.51258 0.65164 0.86097 0.0
H327 H 0.58746 0.73354 0.80597 0.0
H328 H 0.51988 0.72396 0.85537 0.0
H329 H 0.47091 0.80329 0.82211 0.0
H330 H 0.4828 0.74621 0.83498 0.0
H331 H 0.61415 0.80976 0.81246 0.0
H332 H 0.60161 0.86654 0.79921 0.0
C333 C 0.56882 0.67573 0.82168 0.0
C334 C 0.54583 0.65081 0.83671 0.0
C335 C 0.57241 0.71687 0.81835 0.0
C336 C 0.55346 0.73423 0.83006 0.0
C337 C 0.53388 0.71105 0.84586 0.0
C338 C 0.52994 0.6697 0.84913 0.0
C339 C 0.50271 0.80569 0.82027 0.0
C340 C 0.53516 0.8391 0.80951 0.0
C341 C 0.50966 0.773 0.82771 0.0
C342 C 0.54938 0.77313 0.82467 0.0
C343 C 0.58288 0.80818 0.81479 0.0
C344 C 0.57576 0.84072 0.80723 0.0
H345 H 0.88385 0.56488 0.18148 0.0
H346 H 0.89132 0.55355 0.12458 0.0
H347 H 0.81901 0.57364 0.17778 0.0
H348 H 0.82753 0.56292 0.1209 0.0
H349 H 0.72572 0.59993 0.11653 0.0
H350 H 0.79921 0.61733 0.12602 0.0
H351 H 0.74132 0.51491 0.16607 0.0
H352 H 0.66788 0.49674 0.15638 0.0
C353 C 0.87223 0.56527 0.16821 0.0
C354 C 0.89216 0.55809 0.15331 0.0
C355 C 0.83525 0.57022 0.16611 0.0
C356 C 0.81852 0.56914 0.14907 0.0
C357 C 0.84011 0.5645 0.13417 0.0
C358 C 0.87634 0.55869 0.13628 0.0
C359 C 0.72871 0.58169 0.12757 0.0
C360 C 0.69105 0.54627 0.13543 0.0
C361 C 0.77071 0.59184 0.13306 0.0
C362 C 0.77575 0.56706 0.1466 0.0
C363 C 0.73828 0.5347 0.15566 0.0
C364 C 0.69621 0.52429 0.15009 0.0
H365 H 0.30662 0.92024 0.47398 0.0
H366 H 0.3119 0.82984 0.51198 0.0
H367 H 0.23322 0.86282 0.46509 0.0
H368 H 0.2384 0.77236 0.50293 0.0
H369 H 0.09388 0.68437 0.48788 0.0
H370 H 0.15727 0.74944 0.50078 0.0
H371 H 0.21244 0.79288 0.44831 0.0
H372 H 0.15049 0.72777 0.43548 0.0
C373 C 0.29193 0.88839 0.48064 0.0
C374 C 0.31549 0.87941 0.49349 0.0
C375 C 0.2499 0.85552 0.47551 0.0
C376 C 0.2304 0.81307 0.48318 0.0
C377 C 0.25259 0.80491 0.49686 0.0
C378 C 0.29481 0.83776 0.50196 0.0
C379 C 0.11948 0.70788 0.47909 0.0
C380 C 0.11705 0.70064 0.46062 0.0
C381 C 0.15561 0.74516 0.48649 0.0
C382 C 0.18964 0.77617 0.47554 0.0
C383 C 0.18631 0.76992 0.45706 0.0
C384 C 0.1506 0.73255 0.4497 0.0
H385 H 0.39436 0.3139 0.79845 0.0
H386 H 0.43068 0.29982 0.8518 0.0
H387 H 0.38131 0.23998 0.79119 0.0
H388 H 0.41607 0.2254 0.84482 0.0
H389 H 0.46307 0.13904 0.81654 0.0
H390 H 0.45697 0.2013 0.82741 0.0
H391 H 0.34132 0.16045 0.79502 0.0
H392 H 0.34787 0.09793 0.78393 0.0
C393 C 0.39825 0.29447 0.80877 0.0
C394 C 0.41429 0.31288 0.82558 0.0
C395 C 0.39064 0.25201 0.80465 0.0
C396 C 0.39846 0.22706 0.81734 0.0
C397 C 0.41089 0.24419 0.83459 0.0
C398 C 0.41903 0.28674 0.83863 0.0
C399 C 0.4357 0.14264 0.81205 0.0
C400 C 0.40602 0.11361 0.79935 0.0
C401 C 0.4321 0.17839 0.81831 0.0
C402 C 0.3986 0.18595 0.8121 0.0
C403 C 0.36783 0.1559 0.7999 0.0
C404 C 0.37155 0.12012 0.79356 0.0
H405 H 0.58371 0.90359 0.49065 0.0
H406 H 0.4534 0.81133 0.51063 0.0
H407 H 0.60672 0.84899 0.49631 0.0
H408 H 0.47641 0.75692 0.51611 0.0
H409 H 0.5206 0.65708 0.51316 0.0
H410 H 0.50364 0.71051 0.49977 0.0
H411 H 0.6156 0.81736 0.52626 0.0
H412 H 0.63296 0.76382 0.5396 0.0
C413 C 0.55977 0.8714 0.49592 0.0
C414 C 0.51681 0.86176 0.50032 0.0
C415 C 0.57304 0.84036 0.49922 0.0
C416 C 0.54333 0.79894 0.50664 0.0
C417 C 0.49982 0.78852 0.51021 0.0
C418 C 0.48674 0.81974 0.50718 0.0
C419 C 0.54238 0.69208 0.51572 0.0
C420 C 0.57803 0.70638 0.52747 0.0
C421 C 0.53243 0.72253 0.50817 0.0
C422 C 0.55815 0.76784 0.5121 0.0
C423 C 0.59544 0.78254 0.52295 0.0
C424 C 0.60517 0.75198 0.53067 0.0
H425 H 0.66741 0.54503 0.81724 0.0
H426 H 0.62212 0.45468 0.86192 0.0
H427 H 0.74234 0.55988 0.82206 0.0
H428 H 0.69692 0.47079 0.86718 0.0
H429 H 0.83021 0.48691 0.86876 0.0
H430 H 0.75686 0.46343 0.85715 0.0
H431 H 0.79895 0.59957 0.8432 0.0
H432 H 0.87274 0.62233 0.85411 0.0
C433 C 0.67345 0.52825 0.82805 0.0
C434 C 0.63897 0.49895 0.83929 0.0
C435 C 0.71638 0.5369 0.83086 0.0
C436 C 0.72573 0.51677 0.84507 0.0
C437 C 0.69089 0.48635 0.85592 0.0
C438 C 0.64795 0.47732 0.85299 0.0
C439 C 0.82369 0.51153 0.86295 0.0
C440 C 0.85662 0.55637 0.86243 0.0
C441 C 0.78177 0.49822 0.85639 0.0
C442 C 0.77181 0.52969 0.84948 0.0
C443 C 0.80555 0.57435 0.84824 0.0
C444 C 0.84772 0.58752 0.85456 0.0
H445 H 0.09979 0.6891 0.19086 0.0
H446 H 0.16517 0.68656 0.14242 0.0
H447 H 0.16018 0.76308 0.19724 0.0
H448 H 0.22494 0.76153 0.14844 0.0
H449 H 0.34831 0.85352 0.18169 0.0
H450 H 0.28363 0.79037 0.16916 0.0
H451 H 0.20167 0.84011 0.19028 0.0
H452 H 0.26684 0.903 0.20329 0.0
C453 C 0.12661 0.70478 0.18136 0.0
C454 C 0.12815 0.68175 0.16631 0.0
C455 C 0.16113 0.74742 0.18495 0.0
C456 C 0.19766 0.76811 0.17343 0.0
C457 C 0.19773 0.74613 0.15777 0.0
C458 C 0.16346 0.70324 0.1543 0.0
C459 C 0.31661 0.85149 0.1833 0.0
C460 C 0.31243 0.88288 0.19354 0.0
C461 C 0.27947 0.81535 0.17606 0.0
C462 C 0.23737 0.81002 0.17878 0.0
C463 C 0.23355 0.84285 0.18821 0.0
C464 C 0.27075 0.87885 0.19561 0.0
H465 H 0.43571 0.12474 0.48322 0.0
H466 H 0.46146 0.11671 0.53879 0.0
H467 H 0.4269 0.18915 0.48958 0.0
H468 H 0.45191 0.17994 0.54511 0.0
H469 H 0.50462 0.34078 0.5125 0.0
H470 H 0.48758 0.26828 0.50119 0.0
H471 H 0.3931 0.20457 0.54357 0.0
H472 H 0.40916 0.27704 0.55469 0.0
C473 C 0.43863 0.13623 0.49679 0.0
C474 C 0.4497 0.11625 0.51051 0.0
C475 C 0.43361 0.17289 0.5004 0.0
C476 C 0.43844 0.18909 0.51782 0.0
C477 C 0.44739 0.16765 0.5316 0.0
C478 C 0.45331 0.13181 0.52796 0.0
C479 C 0.47901 0.31134 0.51902 0.0
C480 C 0.4589 0.31458 0.53471 0.0
C481 C 0.46924 0.26985 0.51252 0.0
C482 C 0.43946 0.23111 0.52167 0.0
C483 C 0.41654 0.23415 0.53642 0.0
C484 C 0.426 0.27555 0.54284 0.0
H485 H 0.32902 0.48043 0.80914 0.0
H486 H 0.33689 0.48036 0.86642 0.0
H487 H 0.27729 0.50871 0.81137 0.0
H488 H 0.28601 0.50859 0.86851 0.0
H489 H 0.27302 0.63165 0.862 0.0
H490 H 0.31325 0.59466 0.85256 0.0
H491 H 0.19313 0.48484 0.83226 0.0
H492 H 0.15228 0.52131 0.84202 0.0
C493 C 0.31847 0.48486 0.82214 0.0
C494 C 0.33724 0.47882 0.83762 0.0
C495 C 0.28926 0.50125 0.82339 0.0
C496 C 0.27878 0.51147 0.84009 0.0
C497 C 0.29432 0.50144 0.85551 0.0
C498 C 0.32322 0.48517 0.85429 0.0
C499 C 0.25532 0.60006 0.85522 0.0
C500 C 0.20947 0.57905 0.853 0.0
C501 C 0.2783 0.57907 0.84977 0.0
C502 C 0.25591 0.53694 0.84189 0.0
C503 C 0.21085 0.51746 0.83825 0.0
C504 C 0.18768 0.53842 0.8438 0.0
H505 H 0.84413 0.3694 0.1422 0.0
H506 H 0.92083 0.32638 0.17238 0.0
H507 H 0.77691 0.30106 0.15022 0.0
H508 H 0.85351 0.25809 0.18028 0.0
H509 H 0.6835 0.2288 0.19924 0.0
H510 H 0.74665 0.28441 0.18236 0.0
H511 H 0.78343 0.18643 0.16921 0.0
H512 H 0.71947 0.13032 0.18607 0.0
C513 C 0.84684 0.34485 0.15008 0.0
C514 C 0.88765 0.35363 0.15696 0.0
C515 C 0.80835 0.30585 0.1547 0.0
C516 C 0.81017 0.27481 0.16604 0.0
C517 C 0.85131 0.28154 0.17149 0.0
C518 C 0.88977 0.32075 0.16705 0.0
C519 C 0.70496 0.21916 0.19264 0.0
C520 C 0.69715 0.17564 0.19403 0.0
C521 C 0.74068 0.25072 0.18282 0.0
C522 C 0.76956 0.23947 0.1744 0.0
C523 C 0.76142 0.19572 0.17555 0.0
C524 C 0.72508 0.16382 0.18516 0.0
H525 H 0.10552 0.5608 0.09107 0.0
H526 H 0.96444 0.50085 0.08496 0.0
H527 H 0.11502 0.57239 0.05904 0.0
H528 H 0.97404 0.51369 0.05313 0.0
H529 H -0.00043 0.5082 0.99495 0.0
H530 H -0.0062 0.49079 0.02654 0.0
H531 H 0.10963 0.61819 0.0365 0.0
H532 H 0.11591 0.63492 0.00475 0.0
C533 C 0.07653 0.55007 0.0829 0.0
C534 C 0.03422 0.52992 0.09058 0.0
C535 C 0.08201 0.55696 0.06456 0.0
C536 C 0.04533 0.54408 0.0535 0.0
C537 C 0.003 0.52338 0.06119 0.0
C538 C -0.0025 0.51622 0.07949 0.0
C539 C 0.02382 0.53238 0.00392 0.0
C540 C 0.05797 0.57304 0.99747 0.0
C541 C 0.02047 0.5225 0.02202 0.0
C542 C 0.05099 0.55325 0.0341 0.0
C543 C 0.08586 0.59351 0.02755 0.0
C544 C 0.08942 0.60322 0.00939 0.0
H545 H 0.52792 0.97282 0.42799 0.0
H546 H 0.44612 0.03315 0.43078 0.0
H547 H 0.53068 0.97984 0.39577 0.0
H548 H 0.45008 0.04147 0.39862 0.0
H549 H 0.42757 0.00619 0.33985 0.0
H550 H 0.42432 -0.00144 0.37202 0.0
H551 H 0.56161 0.03457 0.37271 0.0
H552 H 0.56415 0.03966 0.34044 0.0
C553 C 0.51073 0.98781 0.42174 0.0
C554 C 0.48673 0.00235 0.43196 0.0
C555 C 0.51256 0.99211 0.40327 0.0
C556 C 0.4907 0.01133 0.3946 0.0
C557 C 0.46676 0.02592 0.40484 0.0
C558 C 0.46466 0.02133 0.4233 0.0
C559 C 0.45695 0.01203 0.34684 0.0
C560 C 0.49607 0.02336 0.33754 0.0
C561 C 0.45524 0.00822 0.36532 0.0
C562 C 0.4927 0.01594 0.37496 0.0
C563 C 0.53198 0.02781 0.36568 0.0
C564 C 0.53362 0.03135 0.34719 0.0
H565 H 0.56982 0.53999 0.76752 0.0
H566 H 0.42873 0.4588 0.76101 0.0
H567 H 0.57905 0.54797 0.73551 0.0
H568 H 0.43796 0.46793 0.72887 0.0
H569 H 0.47749 0.45123 0.67246 0.0
H570 H 0.46608 0.44483 0.70445 0.0
H571 H 0.56628 0.58261 0.71047 0.0
H572 H 0.57938 0.58834 0.6785 0.0
C573 C 0.54068 0.5241 0.75927 0.0
C574 C 0.49851 0.49864 0.76685 0.0
C575 C 0.54599 0.52898 0.74089 0.0
C576 C 0.50926 0.50876 0.72961 0.0
C577 C 0.46701 0.4835 0.73718 0.0
C578 C 0.46169 0.4784 0.7556 0.0
C579 C 0.49743 0.48006 0.68062 0.0
C580 C 0.52971 0.52018 0.67293 0.0
C581 C 0.49041 0.47656 0.69895 0.0
C582 C 0.51531 0.51317 0.71004 0.0
C583 C 0.54695 0.55358 0.70232 0.0
C584 C 0.55412 0.55703 0.68397 0.0
H585 H 0.50689 0.04574 0.5734 0.0
H586 H 0.45491 0.90428 0.56986 0.0
H587 H 0.50623 0.04116 0.60557 0.0
H588 H 0.45634 0.89981 0.60218 0.0
H589 H 0.42116 0.9015 0.66085 0.0
H590 H 0.42192 0.90356 0.62842 0.0
H591 H 0.54187 0.03127 0.62966 0.0
H592 H 0.53941 0.02984 0.66201 0.0
C593 C 0.49582 0.01368 0.57952 0.0
C594 C 0.48099 0.97537 0.5691 0.0
C595 C 0.49573 0.01106 0.59801 0.0
C596 C 0.48158 0.97015 0.60657 0.0
C597 C 0.46688 0.93179 0.5961 0.0
C598 C 0.46626 0.93433 0.57757 0.0
C599 C 0.44771 0.9298 0.65408 0.0
C600 C 0.48005 0.96565 0.66382 0.0
C601 C 0.44835 0.93097 0.63552 0.0
C602 C 0.4818 0.96775 0.62633 0.0
C603 C 0.51495 0.00291 0.63621 0.0
C604 C 0.51381 0.00205 0.65474 0.0
H605 H 0.48089 0.40207 0.90396 0.0
H606 H 0.47321 0.52171 0.90948 0.0
H607 H 0.47819 0.39402 0.93623 0.0
H608 H 0.47029 0.51336 0.94167 0.0
H609 H 0.52235 0.51229 0.99755 0.0
H610 H 0.52236 0.51831 0.96528 0.0
H611 H 0.42548 0.37888 0.96175 0.0
H612 H 0.42596 0.37269 0.99415 0.0
C613 C 0.47855 0.42659 0.91203 0.0
C614 C 0.47744 0.46264 0.90413 0.0
C615 C 0.47671 0.42177 0.9305 0.0
C616 C 0.47411 0.4531 0.94143 0.0
C617 C 0.47275 0.48896 0.93355 0.0
C618 C 0.47423 0.4936 0.91511 0.0
C619 C 0.50125 0.48287 0.98987 0.0
C620 C 0.47429 0.44197 -0.00167 0.0
C621 C 0.50095 0.48641 0.97143 0.0
C622 C 0.47388 0.44908 0.96103 0.0
C623 C 0.44689 0.40812 0.96946 0.0
C624 C 0.4469 0.40465 0.98797 0.0
H625 H 0.01048 0.57077 0.23126 0.0
H626 H 0.98659 0.43638 0.22946 0.0
H627 H 0.00504 0.5667 0.26346 0.0
H628 H 0.97953 0.4317 0.26174 0.0
H629 H 0.01627 0.45628 0.32074 0.0
H630 H 0.02127 0.45864 0.28837 0.0
H631 H 0.95306 0.5333 0.28681 0.0
H632 H 0.94934 0.53192 0.31916 0.0
C633 C 0.0037 0.54019 0.23773 0.0
C634 C -0.00104 0.50389 0.22778 0.0
C635 C 0.00029 0.53774 0.25622 0.0
C636 C 0.99159 0.49878 0.26524 0.0
C637 C 0.98683 0.46244 0.25527 0.0
C638 C 0.99067 0.46503 0.23675 0.0
C639 C 0.00214 0.47292 0.31342 0.0
C640 C 0.98262 0.49411 0.32243 0.0
C641 C 0.00486 0.47418 0.29488 0.0
C642 C 0.98773 0.49632 0.28494 0.0
C643 C 0.96745 0.51677 0.29402 0.0
C644 C 0.96514 0.51587 0.31255 0.0
loop_
_geom_bond_atom_site_label_1
_geom_bond_atom_site_label_2
_geom_bond_distance
_geom_bond_site_symmetry_2
_ccdc_geom_bond_type
O0 Zn1 1.953 . S
O0 C16 1.225 1_655 S
Zn1 O0 1.953 . S
Zn1 O2 1.949 1_655 S
Zn1 O8 1.919 . S
Zn1 O13 1.924 1_655 S
O2 Zn1 1.949 1_455 S
O2 Zn3 1.923 1_455 S
O2 Zn4 1.950 . S
O2 Zn5 1.945 . S
Zn3 O2 1.923 1_655 S
Zn3 O6 1.933 . S
Zn3 O9 1.941 . S
Zn3 O10 1.965 . S
Zn4 O2 1.950 . S
Zn4 O11 1.938 1_455 S
Zn4 O12 1.906 . S
Zn4 O22 1.953 . S
Zn5 O2 1.945 . S
Zn5 O7 1.932 . S
Zn5 O14 1.977 . S
Zn5 O15 1.910 . S
O6 Zn3 1.933 . S
O6 C17 1.226 1_655 S
O7 Zn5 1.932 . S
O7 C17 1.307 . S
O8 Zn1 1.919 . S
O8 C19 1.253 . S
O9 Zn3 1.941 . S
O9 C19 1.283 . S
O10 Zn3 1.965 . S
O10 C18 1.303 . S
O11 Zn4 1.938 1_655 S
O11 C18 1.247 . S
O12 Zn4 1.906 . S
O12 C20 1.304 . S
O13 Zn1 1.924 1_455 S
O13 C21 1.311 . S
O14 Zn5 1.977 . S
O14 C20 1.272 . S
O15 Zn5 1.910 . S
O15 C21 1.231 . S
C16 O0 1.225 1_455 S
C16 O22 1.298 . S
C17 O6 1.226 1_455 S
C17 O7 1.307 . S
C18 O10 1.303 . S
C18 O11 1.247 . S
C19 O8 1.253 . S
C19 O9 1.283 . S
C20 O12 1.304 . S
C20 O14 1.272 . S
C21 O13 1.311 . S
C21 O15 1.231 . S
O22 Zn4 1.953 . S
O22 C16 1.298 . S
O23 Zn24 1.953 . S
O23 C39 1.225 . S
Zn24 O23 1.953 . S
Zn24 O25 1.949 . S
Zn24 O31 1.919 . S
Zn24 O36 1.924 1_545 S
O25 Zn24 1.949 . S
O25 Zn26 1.923 . S
O25 Zn27 1.950 1_545 S
O25 Zn28 1.945 1_545 S
Zn26 O25 1.923 . S
Zn26 O29 1.933 . S
Zn26 O32 1.941 . S
Zn26 O33 1.965 . S
Zn27 O25 1.950 1_565 S
Zn27 O34 1.938 1_565 S
Zn27 O35 1.906 . S
Zn27 O45 1.953 . S
Zn28 O25 1.945 1_565 S
Zn28 O30 1.932 . S
Zn28 O37 1.977 . S
Zn28 O38 1.910 . S
O29 Zn26 1.933 . S
O29 C40 1.226 . S
O30 Zn28 1.932 . S
O30 C40 1.307 1_565 S
O31 Zn24 1.919 . S
O31 C42 1.253 . S
O32 Zn26 1.941 . S
O32 C42 1.283 . S
O33 Zn26 1.965 . S
O33 C41 1.303 . S
O34 Zn27 1.938 1_545 S
O34 C41 1.247 . S
O35 Zn27 1.906 . S
O35 C43 1.304 . S
O36 Zn24 1.924 1_565 S
O36 C44 1.311 . S
O37 Zn28 1.977 . S
O37 C43 1.272 . S
O38 Zn28 1.910 . S
O38 C44 1.231 . S
C39 O23 1.225 . S
C39 O45 1.298 1_545 S
C40 O29 1.226 . S
C40 O30 1.307 1_545 S
C41 O33 1.303 . S
C41 O34 1.247 . S
C42 O31 1.253 . S
C42 O32 1.283 . S
C43 O35 1.304 . S
C43 O37 1.272 . S
C44 O36 1.311 . S
C44 O38 1.231 . S
O45 Zn27 1.953 . S
O45 C39 1.298 1_565 S
O46 Zn47 1.953 . S
O46 C62 1.225 . S
Zn47 O46 1.953 . S
Zn47 O48 1.949 . S
Zn47 O54 1.919 . S
Zn47 O59 1.924 . S
O48 Zn47 1.949 . S
O48 Zn49 1.923 . S
O48 Zn50 1.950 . S
O48 Zn51 1.945 . S
Zn49 O48 1.923 . S
Zn49 O52 1.933 . S
Zn49 O55 1.941 . S
Zn49 O56 1.965 . S
Zn50 O48 1.950 . S
Zn50 O57 1.938 . S
Zn50 O58 1.906 . S
Zn50 O68 1.953 . S
Zn51 O48 1.945 . S
Zn51 O53 1.932 . S
Zn51 O60 1.977 . S
Zn51 O61 1.910 . S
O52 Zn49 1.933 . S
O52 C63 1.226 . S
O53 Zn51 1.932 . S
O53 C63 1.307 . S
O54 Zn47 1.919 . S
O54 C65 1.253 . S
O55 Zn49 1.941 . S
O55 C65 1.283 . S
O56 Zn49 1.965 . S
O56 C64 1.303 . S
O57 Zn50 1.938 . S
O57 C64 1.247 . S
O58 Zn50 1.906 . S
O58 C66 1.304 . S
O59 Zn47 1.924 . S
O59 C67 1.311 . S
O60 Zn51 1.977 . S
O60 C66 1.272 . S
O61 Zn51 1.910 . S
O61 C67 1.231 . S
C62 O46 1.225 . S
C62 O68 1.298 . S
C63 O52 1.226 . S
C63 O53 1.307 . S
C64 O56 1.303 . S
C64 O57 1.247 . S
C65 O54 1.253 . S
C65 O55 1.283 . S
C66 O58 1.304 . S
C66 O60 1.272 . S
C67 O59 1.311 . S
C67 O61 1.231 . S
O68 Zn50 1.953 . S
O68 C62 1.298 . S
C69 C70 1.384 . S
C69 H82 0.947 . S
C69 C104 1.382 . S
C70 C69 1.384 . S
C70 C71 1.378 . S
C71 C70 1.378 . S
C71 C72 1.378 . S
C71 H83 0.952 . S
C72 C71 1.378 . S
C72 H84 0.950 . S
C72 C103 1.383 . S
H73 C92 0.947 . S
H74 C93 0.946 . S
H75 C95 0.953 . S
H76 C96 0.945 . S
H77 C98 0.952 . S
H78 C99 0.949 . S
H79 C101 0.950 . S
H80 C102 0.948 . S
H81 C104 0.951 . S
H82 C69 0.947 . S
H83 C71 0.952 . S
H84 C72 0.950 . S
N85 C88 1.382 . S
N85 C90 1.363 1_545 S
N86 C88 1.371 . S
N86 C89 1.372 . S
N87 C89 1.361 1_565 S
N87 C90 1.377 . S
C88 N85 1.382 . S
C88 N86 1.371 . S
C88 C91 1.480 . S
C89 N86 1.372 . S
C89 N87 1.361 1_545 S
C89 C97 1.457 . S
C90 N85 1.363 1_565 S
C90 N87 1.377 . S
C90 C103 1.479 . S
C91 C88 1.480 . S
C91 C92 1.383 . S
C91 C96 1.385 . S
C92 H73 0.947 . S
C92 C91 1.383 . S
C92 C93 1.388 . S
C93 H74 0.946 . S
C93 C92 1.388 . S
C93 C94 1.384 . S
C94 C93 1.384 . S
C94 C95 1.377 . S
C95 H75 0.953 . S
C95 C94 1.377 . S
C95 C96 1.369 . S
C96 H76 0.945 . S
C96 C91 1.385 . S
C96 C95 1.369 . S
C97 C89 1.457 . S
C97 C98 1.372 . S
C97 C102 1.364 1_545 S
C98 H77 0.952 . S
C98 C97 1.372 . S
C98 C99 1.389 . S
C99 H78 0.949 . S
C99 C98 1.389 . S
C99 C100 1.387 . S
C100 C99 1.387 . S
C100 C101 1.372 1_545 S
C101 H79 0.950 . S
C101 C100 1.372 1_565 S
C101 C102 1.379 . S
C102 H80 0.948 . S
C102 C97 1.364 1_565 S
C102 C101 1.379 . S
C103 C72 1.383 . S
C103 C90 1.479 . S
C103 C104 1.398 . S
C104 C69 1.382 . S
C104 H81 0.951 . S
C104 C103 1.398 . S
C105 C106 1.384 . S
C105 H118 0.947 . S
C105 C140 1.382 . S
C106 C105 1.384 . S
C106 C107 1.378 . S
C107 C106 1.378 . S
C107 C108 1.378 . S
C107 H119 0.952 . S
C108 C107 1.378 . S
C108 H120 0.950 . S
C108 C139 1.383 . S
H109 C128 0.947 . S
H110 C129 0.946 . S
H111 C131 0.953 . S
H112 C132 0.945 . S
H113 C134 0.952 . S
H114 C135 0.949 . S
H115 C137 0.950 . S
H116 C138 0.948 . S
H117 C140 0.951 . S
H118 C105 0.947 . S
H119 C107 0.952 . S
H120 C108 0.950 . S
N121 C124 1.382 . S
N121 C126 1.363 . S
N122 C124 1.371 . S
N122 C125 1.372 . S
N123 C125 1.361 . S
N123 C126 1.377 . S
C124 N121 1.382 . S
C124 N122 1.371 . S
C124 C127 1.480 . S
C125 N122 1.372 . S
C125 N123 1.361 . S
C125 C133 1.457 . S
C126 N121 1.363 . S
C126 N123 1.377 . S
C126 C139 1.479 . S
C127 C124 1.480 . S
C127 C128 1.383 . S
C127 C132 1.385 . S
C128 H109 0.947 . S
C128 C127 1.383 . S
C128 C129 1.388 . S
C129 H110 0.946 . S
C129 C128 1.388 . S
C129 C130 1.384 . S
C130 C129 1.384 . S
C130 C131 1.377 . S
C131 H111 0.953 . S
C131 C130 1.377 . S
C131 C132 1.369 . S
C132 H112 0.945 . S
C132 C127 1.385 . S
C132 C131 1.369 . S
C133 C125 1.457 . S
C133 C134 1.372 . S
C133 C138 1.364 . S
C134 H113 0.952 . S
C134 C133 1.372 . S
C134 C135 1.389 . S
C135 H114 0.949 . S
C135 C134 1.389 . S
C135 C136 1.387 . S
C136 C135 1.387 . S
C136 C137 1.372 . S
C137 H115 0.950 . S
C137 C136 1.372 . S
C137 C138 1.379 . S
C138 H116 0.948 . S
C138 C133 1.364 . S
C138 C137 1.379 . S
C139 C108 1.383 . S
C139 C126 1.479 . S
C139 C140 1.398 . S
C140 C105 1.382 . S
C140 H117 0.951 . S
C140 C139 1.398 . S
C141 C142 1.384 . S
C141 H154 0.947 . S
C141 C176 1.382 . S
C142 C141 1.384 . S
C142 C143 1.378 . S
C143 C142 1.378 . S
C143 C144 1.378 . S
C143 H155 0.952 . S
C144 C143 1.378 . S
C144 H156 0.950 . S
C144 C175 1.383 . S
H145 C164 0.947 . S
H146 C165 0.946 . S
H147 C167 0.953 . S
H148 C168 0.945 . S
H149 C170 0.952 . S
H150 C171 0.949 . S
H151 C173 0.950 . S
H152 C174 0.948 . S
H153 C176 0.951 . S
H154 C141 0.947 . S
H155 C143 0.952 . S
H156 C144 0.950 . S
N157 C160 1.382 . S
N157 C162 1.363 1_455 S
N158 C160 1.371 . S
N158 C161 1.372 . S
N159 C161 1.361 1_655 S
N159 C162 1.377 . S
C160 N157 1.382 . S
C160 N158 1.371 . S
C160 C163 1.480 . S
C161 N158 1.372 . S
C161 N159 1.361 1_455 S
C161 C169 1.457 . S
C162 N157 1.363 1_655 S
C162 N159 1.377 . S
C162 C175 1.479 . S
C163 C160 1.480 . S
C163 C164 1.383 . S
C163 C168 1.385 . S
C164 H145 0.947 . S
C164 C163 1.383 . S
C164 C165 1.388 . S
C165 H146 0.946 . S
C165 C164 1.388 . S
C165 C166 1.384 . S
C166 C165 1.384 . S
C166 C167 1.377 . S
C167 H147 0.953 . S
C167 C166 1.377 . S
C167 C168 1.369 . S
C168 H148 0.945 . S
C168 C163 1.385 . S
C168 C167 1.369 . S
C169 C161 1.457 . S
C169 C170 1.372 . S
C169 C174 1.364 1_455 S
C170 H149 0.952 . S
C170 C169 1.372 . S
C170 C171 1.389 . S
C171 H150 0.949 . S
C171 C170 1.389 . S
C171 C172 1.387 . S
C172 C171 1.387 . S
C172 C173 1.372 1_455 S
C173 H151 0.950 . S
C173 C172 1.372 1_655 S
C173 C174 1.379 . S
C174 H152 0.948 . S
C174 C169 1.364 1_655 S
C174 C173 1.379 . S
C175 C144 1.383 . S
C175 C162 1.479 . S
C175 C176 1.398 . S
C176 C141 1.382 . S
C176 H153 0.951 . S
C176 C175 1.398 . S
C177 C178 1.384 . S
C177 H190 0.947 . S
C177 C212 1.382 . S
C178 C177 1.384 . S
C178 C179 1.378 . S
C179 C178 1.378 . S
C179 C180 1.378 . S
C179 H191 0.952 . S
C180 C179 1.378 . S
C180 H192 0.950 . S
C180 C211 1.383 . S
H181 C200 0.947 . S
H182 C201 0.946 . S
H183 C203 0.953 . S
H184 C204 0.945 . S
H185 C206 0.952 . S
H186 C207 0.949 . S
H187 C209 0.950 . S
H188 C210 0.948 . S
H189 C212 0.951 . S
H190 C177 0.947 . S
H191 C179 0.952 . S
H192 C180 0.950 . S
N193 C196 1.382 1_455 S
N193 C198 1.363 . S
N194 C196 1.371 . S
N194 C197 1.372 1_655 S
N195 C197 1.361 . S
N195 C198 1.377 . S
C196 N193 1.382 1_655 S
C196 N194 1.371 . S
C196 C199 1.480 . S
C197 N194 1.372 1_455 S
C197 N195 1.361 . S
C197 C205 1.457 . S
C198 N193 1.363 . S
C198 N195 1.377 . S
C198 C211 1.479 . S
C199 C196 1.480 . S
C199 C200 1.383 . S
C199 C204 1.385 . S
C200 H181 0.947 . S
C200 C199 1.383 . S
C200 C201 1.388 . S
C201 H182 0.946 . S
C201 C200 1.388 . S
C201 C202 1.384 . S
C202 C201 1.384 . S
C202 C203 1.377 . S
C203 H183 0.953 . S
C203 C202 1.377 . S
C203 C204 1.369 . S
C204 H184 0.945 . S
C204 C199 1.385 . S
C204 C203 1.369 . S
C205 C197 1.457 . S
C205 C206 1.372 1_455 S
C205 C210 1.364 . S
C206 H185 0.952 . S
C206 C205 1.372 1_655 S
C206 C207 1.389 . S
C207 H186 0.949 . S
C207 C206 1.389 . S
C207 C208 1.387 1_655 S
C208 C207 1.387 1_455 S
C208 C209 1.372 . S
C209 H187 0.950 . S
C209 C208 1.372 . S
C209 C210 1.379 . S
C210 H188 0.948 . S
C210 C205 1.364 . S
C210 C209 1.379 . S
C211 C180 1.383 . S
C211 C198 1.479 . S
C211 C212 1.398 . S
C212 C177 1.382 . S
C212 H189 0.951 . S
C212 C211 1.398 . S
C213 C214 1.384 . S
C213 H226 0.947 . S
C213 C248 1.382 . S
C214 C213 1.384 . S
C214 C215 1.378 . S
C215 C214 1.378 . S
C215 C216 1.378 . S
C215 H227 0.952 . S
C216 C215 1.378 . S
C216 H228 0.950 . S
C216 C247 1.383 . S
H217 C236 0.947 . S
H218 C237 0.946 . S
H219 C239 0.953 . S
H220 C240 0.945 . S
H221 C242 0.952 . S
H222 C243 0.949 . S
H223 C245 0.950 . S
H224 C246 0.948 . S
H225 C248 0.951 . S
H226 C213 0.947 . S
H227 C215 0.952 . S
H228 C216 0.950 . S
N229 C232 1.382 1_545 S
N229 C234 1.363 . S
N230 C232 1.371 . S
N230 C233 1.372 1_565 S
N231 C233 1.361 . S
N231 C234 1.377 . S
C232 N229 1.382 1_565 S
C232 N230 1.371 . S
C232 C235 1.480 . S
C233 N230 1.372 1_545 S
C233 N231 1.361 . S
C233 C241 1.457 . S
C234 N229 1.363 . S
C234 N231 1.377 . S
C234 C247 1.479 . S
C235 C232 1.480 . S
C235 C236 1.383 . S
C235 C240 1.385 . S
C236 H217 0.947 . S
C236 C235 1.383 . S
C236 C237 1.388 . S
C237 H218 0.946 . S
C237 C236 1.388 . S
C237 C238 1.384 . S
C238 C237 1.384 . S
C238 C239 1.377 . S
C239 H219 0.953 . S
C239 C238 1.377 . S
C239 C240 1.369 . S
C240 H220 0.945 . S
C240 C235 1.385 . S
C240 C239 1.369 . S
C241 C233 1.457 . S
C241 C242 1.372 1_545 S
C241 C246 1.364 . S
C242 H221 0.952 . S
C242 C241 1.372 1_565 S
C242 C243 1.389 . S
C243 H222 0.949 . S
C243 C242 1.389 . S
C243 C244 1.387 1_565 S
C244 C243 1.387 1_545 S
C244 C245 1.372 . S
C245 H223 0.950 . S
C245 C244 1.372 . S
C245 C246 1.379 . S
C246 H224 0.948 . S
C246 C241 1.364 . S
C246 C245 1.379 . S
C247 C216 1.383 . S
C247 C234 1.479 . S
C247 C248 1.398 . S
C248 C213 1.382 . S
C248 H225 0.951 . S
C248 C247 1.398 . S
C249 C250 1.384 . S
C249 H262 0.947 . S
C249 C284 1.382 . S
C250 C249 1.384 . S
C250 C251 1.378 . S
C251 C250 1.378 . S
C251 C252 1.378 . S
C251 H263 0.952 . S
C252 C251 1.378 . S
C252 H264 0.950 . S
C252 C283 1.383 . S
H253 C272 0.947 . S
H254 C273 0.946 . S
H255 C275 0.953 . S
H256 C276 0.945 . S
H257 C278 0.952 . S
H258 C279 0.949 . S
H259 C281 0.950 . S
H260 C282 0.948 . S
H261 C284 0.951 . S
H262 C249 0.947 . S
H263 C251 0.952 . S
H264 C252 0.950 . S
N265 C268 1.382 . S
N265 C270 1.363 . S
N266 C268 1.371 . S
N266 C269 1.372 . S
N267 C269 1.361 . S
N267 C270 1.377 . S
C268 N265 1.382 . S
C268 N266 1.371 . S
C268 C271 1.480 . S
C269 N266 1.372 . S
C269 N267 1.361 . S
C269 C277 1.457 . S
C270 N265 1.363 . S
C270 N267 1.377 . S
C270 C283 1.479 . S
C271 C268 1.480 . S
C271 C272 1.383 . S
C271 C276 1.385 . S
C272 H253 0.947 . S
C272 C271 1.383 . S
C272 C273 1.388 . S
C273 H254 0.946 . S
C273 C272 1.388 . S
C273 C274 1.384 . S
C274 C273 1.384 . S
C274 C275 1.377 . S
C275 H255 0.953 . S
C275 C274 1.377 . S
C275 C276 1.369 . S
C276 H256 0.945 . S
C276 C271 1.385 . S
C276 C275 1.369 . S
C277 C269 1.457 . S
C277 C278 1.372 . S
C277 C282 1.364 . S
C278 H257 0.952 . S
C278 C277 1.372 . S
C278 C279 1.389 . S
C279 H258 0.949 . S
C279 C278 1.389 . S
C279 C280 1.387 . S
C280 C279 1.387 . S
C280 C281 1.372 . S
C281 H259 0.950 . S
C281 C280 1.372 . S
C281 C282 1.379 . S
C282 H260 0.948 . S
C282 C277 1.364 . S
C282 C281 1.379 . S
C283 C252 1.383 . S
C283 C270 1.479 . S
C283 C284 1.398 . S
C284 C249 1.382 . S
C284 H261 0.951 . S
C284 C283 1.398 . S
H285 C293 0.950 . S
H286 C298 0.950 . S
H287 C295 0.950 . S
H288 C297 0.950 . S
H289 C299 0.950 . S
H290 C301 0.950 . S
H291 C303 0.950 . S
H292 C304 0.950 . S
C293 H285 0.950 . S
C293 C294 1.386 . S
C293 C295 1.391 . S
C294 C293 1.386 . S
C294 C298 1.393 . S
C295 H287 0.950 . S
C295 C293 1.391 . S
C295 C296 1.400 . S
C296 C295 1.400 . S
C296 C297 1.398 . S
C296 C302 1.491 . S
C297 H288 0.950 . S
C297 C296 1.398 . S
C297 C298 1.391 . S
C298 H286 0.950 . S
C298 C294 1.393 . S
C298 C297 1.391 . S
C299 H289 0.950 . S
C299 C300 1.386 . S
C299 C301 1.391 . S
C300 C299 1.386 . S
C300 C304 1.393 . S
C301 H290 0.950 . S
C301 C299 1.391 . S
C301 C302 1.400 . S
C302 C296 1.491 . S
C302 C301 1.400 . S
C302 C303 1.398 . S
C303 H291 0.950 . S
C303 C302 1.398 . S
C303 C304 1.391 . S
C304 H292 0.950 . S
C304 C300 1.393 . S
C304 C303 1.391 . S
H305 C313 0.950 . S
H306 C318 0.950 . S
H307 C315 0.950 . S
H308 C317 0.950 . S
H309 C319 0.950 . S
H310 C321 0.950 . S
H311 C323 0.950 . S
H312 C324 0.950 . S
C313 H305 0.950 . S
C313 C314 1.386 . S
C313 C315 1.391 . S
C314 C313 1.386 . S
C314 C318 1.393 . S
C315 H307 0.950 . S
C315 C313 1.391 . S
C315 C316 1.400 . S
C316 C315 1.400 . S
C316 C317 1.398 . S
C316 C322 1.491 . S
C317 H308 0.950 . S
C317 C316 1.398 . S
C317 C318 1.391 . S
C318 H306 0.950 . S
C318 C314 1.393 . S
C318 C317 1.391 . S
C319 H309 0.950 . S
C319 C320 1.386 . S
C319 C321 1.391 . S
C320 C319 1.386 . S
C320 C324 1.393 . S
C321 H310 0.950 . S
C321 C319 1.391 . S
C321 C322 1.400 . S
C322 C316 1.491 . S
C322 C321 1.400 . S
C322 C323 1.398 . S
C323 H311 0.950 . S
C323 C322 1.398 . S
C323 C324 1.391 . S
C324 H312 0.950 . S
C324 C320 1.393 . S
C324 C323 1.391 . S
H325 C333 0.950 . S
H326 C338 0.950 . S
H327 C335 0.950 . S
H328 C337 0.950 . S
H329 C339 0.950 . S
H330 C341 0.950 . S
H331 C343 0.950 . S
H332 C344 0.950 . S
C333 H325 0.950 . S
C333 C334 1.386 . S
C333 C335 1.391 . S
C334 C333 1.386 . S
C334 C338 1.393 . S
C335 H327 0.950 . S
C335 C333 1.391 . S
C335 C336 1.400 . S
C336 C335 1.400 . S
C336 C337 1.398 . S
C336 C342 1.491 . S
C337 H328 0.950 . S
C337 C336 1.398 . S
C337 C338 1.391 . S
C338 H326 0.950 . S
C338 C334 1.393 . S
C338 C337 1.391 . S
C339 H329 0.950 . S
C339 C340 1.386 . S
C339 C341 1.391 . S
C340 C339 1.386 . S
C340 C344 1.393 . S
C341 H330 0.950 . S
C341 C339 1.391 . S
C341 C342 1.400 . S
C342 C336 1.491 . S
C342 C341 1.400 . S
C342 C343 1.398 . S
C343 H331 0.950 . S
C343 C342 1.398 . S
C343 C344 1.391 . S
C344 H332 0.950 . S
C344 C340 1.393 . S
C344 C343 1.391 . S
H345 C353 0.950 . S
H346 C358 0.950 . S
H347 C355 0.950 . S
H348 C357 0.950 . S
H349 C359 0.950 . S
H350 C361 0.950 . S
H351 C363 0.950 . S
H352 C364 0.950 . S
C353 H345 0.950 . S
C353 C354 1.386 . S
C353 C355 1.391 . S
C354 C353 1.386 . S
C354 C358 1.393 . S
C355 H347 0.950 . S
C355 C353 1.391 . S
C355 C356 1.400 . S
C356 C355 1.400 . S
C356 C357 1.398 . S
C356 C362 1.491 . S
C357 H348 0.950 . S
C357 C356 1.398 . S
C357 C358 1.391 . S
C358 H346 0.950 . S
C358 C354 1.393 . S
C358 C357 1.391 . S
C359 H349 0.950 . S
C359 C360 1.386 . S
C359 C361 1.391 . S
C360 C359 1.386 . S
C360 C364 1.393 . S
C361 H350 0.950 . S
C361 C359 1.391 . S
C361 C362 1.400 . S
C362 C356 1.491 . S
C362 C361 1.400 . S
C362 C363 1.398 . S
C363 H351 0.950 . S
C363 C362 1.398 . S
C363 C364 1.391 . S
C364 H352 0.950 . S
C364 C360 1.393 . S
C364 C363 1.391 . S
H365 C373 0.950 . S
H366 C378 0.950 . S
H367 C375 0.950 . S
H368 C377 0.950 . S
H369 C379 0.950 . S
H370 C381 0.950 . S
H371 C383 0.950 . S
H372 C384 0.950 . S
C373 H365 0.950 . S
C373 C374 1.386 . S
C373 C375 1.391 . S
C374 C373 1.386 . S
C374 C378 1.393 . S
C375 H367 0.950 . S
C375 C373 1.391 . S
C375 C376 1.400 . S
C376 C375 1.400 . S
C376 C377 1.398 . S
C376 C382 1.491 . S
C377 H368 0.950 . S
C377 C376 1.398 . S
C377 C378 1.391 . S
C378 H366 0.950 . S
C378 C374 1.393 . S
C378 C377 1.391 . S
C379 H369 0.950 . S
C379 C380 1.386 . S
C379 C381 1.391 . S
C380 C379 1.386 . S
C380 C384 1.393 . S
C381 H370 0.950 . S
C381 C379 1.391 . S
C381 C382 1.400 . S
C382 C376 1.491 . S
C382 C381 1.400 . S
C382 C383 1.398 . S
C383 H371 0.950 . S
C383 C382 1.398 . S
C383 C384 1.391 . S
C384 H372 0.950 . S
C384 C380 1.393 . S
C384 C383 1.391 . S
H385 C393 0.950 . S
H386 C398 0.950 . S
H387 C395 0.950 . S
H388 C397 0.950 . S
H389 C399 0.950 . S
H390 C401 0.950 . S
H391 C403 0.950 . S
H392 C404 0.950 . S
C393 H385 0.950 . S
C393 C394 1.386 . S
C393 C395 1.391 . S
C394 C393 1.386 . S
C394 C398 1.393 . S
C395 H387 0.950 . S
C395 C393 1.391 . S
C395 C396 1.400 . S
C396 C395 1.400 . S
C396 C397 1.398 . S
C396 C402 1.491 . S
C397 H388 0.950 . S
C397 C396 1.398 . S
C397 C398 1.391 . S
C398 H386 0.950 . S
C398 C394 1.393 . S
C398 C397 1.391 . S
C399 H389 0.950 . S
C399 C400 1.386 . S
C399 C401 1.391 . S
C400 C399 1.386 . S
C400 C404 1.393 . S
C401 H390 0.950 . S
C401 C399 1.391 . S
C401 C402 1.400 . S
C402 C396 1.491 . S
C402 C401 1.400 . S
C402 C403 1.398 . S
C403 H391 0.950 . S
C403 C402 1.398 . S
C403 C404 1.391 . S
C404 H392 0.950 . S
C404 C400 1.393 . S
C404 C403 1.391 . S
H405 C413 0.950 . S
H406 C418 0.950 . S
H407 C415 0.950 . S
H408 C417 0.950 . S
H409 C419 0.950 . S
H410 C421 0.950 . S
H411 C423 0.950 . S
H412 C424 0.950 . S
C413 H405 0.950 . S
C413 C414 1.386 . S
C413 C415 1.391 . S
C414 C413 1.386 . S
C414 C418 1.393 . S
C415 H407 0.950 . S
C415 C413 1.391 . S
C415 C416 1.400 . S
C416 C415 1.400 . S
C416 C417 1.398 . S
C416 C422 1.491 . S
C417 H408 0.950 . S
C417 C416 1.398 . S
C417 C418 1.391 . S
C418 H406 0.950 . S
C418 C414 1.393 . S
C418 C417 1.391 . S
C419 H409 0.950 . S
C419 C420 1.386 . S
C419 C421 1.391 . S
C420 C419 1.386 . S
C420 C424 1.393 . S
C421 H410 0.950 . S
C421 C419 1.391 . S
C421 C422 1.400 . S
C422 C416 1.491 . S
C422 C421 1.400 . S
C422 C423 1.398 . S
C423 H411 0.950 . S
C423 C422 1.398 . S
C423 C424 1.391 . S
C424 H412 0.950 . S
C424 C420 1.393 . S
C424 C423 1.391 . S
H425 C433 0.950 . S
H426 C438 0.950 . S
H427 C435 0.950 . S
H428 C437 0.950 . S
H429 C439 0.950 . S
H430 C441 0.950 . S
H431 C443 0.950 . S
H432 C444 0.950 . S
C433 H425 0.950 . S
C433 C434 1.386 . S
C433 C435 1.391 . S
C434 C433 1.386 . S
C434 C438 1.393 . S
C435 H427 0.950 . S
C435 C433 1.391 . S
C435 C436 1.400 . S
C436 C435 1.400 . S
C436 C437 1.398 . S
C436 C442 1.491 . S
C437 H428 0.950 . S
C437 C436 1.398 . S
C437 C438 1.391 . S
C438 H426 0.950 . S
C438 C434 1.393 . S
C438 C437 1.391 . S
C439 H429 0.950 . S
C439 C440 1.386 . S
C439 C441 1.391 . S
C440 C439 1.386 . S
C440 C444 1.393 . S
C441 H430 0.950 . S
C441 C439 1.391 . S
C441 C442 1.400 . S
C442 C436 1.491 . S
C442 C441 1.400 . S
C442 C443 1.398 . S
C443 H431 0.950 . S
C443 C442 1.398 . S
C443 C444 1.391 . S
C444 H432 0.950 . S
C444 C440 1.393 . S
C444 C443 1.391 . S
H445 C453 0.950 . S
H446 C458 0.950 . S
H447 C455 0.950 . S
H448 C457 0.950 . S
H449 C459 0.950 . S
H450 C461 0.950 . S
H451 C463 0.950 . S
H452 C464 0.950 . S
C453 H445 0.950 . S
C453 C454 1.386 . S
C453 C455 1.391 . S
C454 C453 1.386 . S
C454 C458 1.393 . S
C455 H447 0.950 . S
C455 C453 1.391 . S
C455 C456 1.400 . S
C456 C455 1.400 . S
C456 C457 1.398 . S
C456 C462 1.491 . S
C457 H448 0.950 . S
C457 C456 1.398 . S
C457 C458 1.391 . S
C458 H446 0.950 . S
C458 C454 1.393 . S
C458 C457 1.391 . S
C459 H449 0.950 . S
C459 C460 1.386 . S
C459 C461 1.391 . S
C460 C459 1.386 . S
C460 C464 1.393 . S
C461 H450 0.950 . S
C461 C459 1.391 . S
C461 C462 1.400 . S
C462 C456 1.491 . S
C462 C461 1.400 . S
C462 C463 1.398 . S
C463 H451 0.950 . S
C463 C462 1.398 . S
C463 C464 1.391 . S
C464 H452 0.950 . S
C464 C460 1.393 . S
C464 C463 1.391 . S
H465 C473 0.950 . S
H466 C478 0.950 . S
H467 C475 0.950 . S
H468 C477 0.950 . S
H469 C479 0.950 . S
H470 C481 0.950 . S
H471 C483 0.950 . S
H472 C484 0.950 . S
C473 H465 0.950 . S
C473 C474 1.386 . S
C473 C475 1.391 . S
C474 C473 1.386 . S
C474 C478 1.393 . S
C475 H467 0.950 . S
C475 C473 1.391 . S
C475 C476 1.400 . S
C476 C475 1.400 . S
C476 C477 1.398 . S
C476 C482 1.491 . S
C477 H468 0.950 . S
C477 C476 1.398 . S
C477 C478 1.391 . S
C478 H466 0.950 . S
C478 C474 1.393 . S
C478 C477 1.391 . S
C479 H469 0.950 . S
C479 C480 1.386 . S
C479 C481 1.391 . S
C480 C479 1.386 . S
C480 C484 1.393 . S
C481 H470 0.950 . S
C481 C479 1.391 . S
C481 C482 1.400 . S
C482 C476 1.491 . S
C482 C481 1.400 . S
C482 C483 1.398 . S
C483 H471 0.950 . S
C483 C482 1.398 . S
C483 C484 1.391 . S
C484 H472 0.950 . S
C484 C480 1.393 . S
C484 C483 1.391 . S
H485 C493 0.950 . S
H486 C498 0.950 . S
H487 C495 0.950 . S
H488 C497 0.950 . S
H489 C499 0.950 . S
H490 C501 0.950 . S
H491 C503 0.950 . S
H492 C504 0.950 . S
C493 H485 0.950 . S
C493 C494 1.386 . S
C493 C495 1.391 . S
C494 C493 1.386 . S
C494 C498 1.393 . S
C495 H487 0.950 . S
C495 C493 1.391 . S
C495 C496 1.400 . S
C496 C495 1.400 . S
C496 C497 1.398 . S
C496 C502 1.491 . S
C497 H488 0.950 . S
C497 C496 1.398 . S
C497 C498 1.391 . S
C498 H486 0.950 . S
C498 C494 1.393 . S
C498 C497 1.391 . S
C499 H489 0.950 . S
C499 C500 1.386 . S
C499 C501 1.391 . S
C500 C499 1.386 . S
C500 C504 1.393 . S
C501 H490 0.950 . S
C501 C499 1.391 . S
C501 C502 1.400 . S
C502 C496 1.491 . S
C502 C501 1.400 . S
C502 C503 1.398 . S
C503 H491 0.950 . S
C503 C502 1.398 . S
C503 C504 1.391 . S
C504 H492 0.950 . S
C504 C500 1.393 . S
C504 C503 1.391 . S
H505 C513 0.950 . S
H506 C518 0.950 . S
H507 C515 0.950 . S
H508 C517 0.950 . S
H509 C519 0.950 . S
H510 C521 0.950 . S
H511 C523 0.950 . S
H512 C524 0.950 . S
C513 H505 0.950 . S
C513 C514 1.386 . S
C513 C515 1.391 . S
C514 C513 1.386 . S
C514 C518 1.393 . S
C515 H507 0.950 . S
C515 C513 1.391 . S
C515 C516 1.400 . S
C516 C515 1.400 . S
C516 C517 1.398 . S
C516 C522 1.491 . S
C517 H508 0.950 . S
C517 C516 1.398 . S
C517 C518 1.391 . S
C518 H506 0.950 . S
C518 C514 1.393 . S
C518 C517 1.391 . S
C519 H509 0.950 . S
C519 C520 1.386 . S
C519 C521 1.391 . S
C520 C519 1.386 . S
C520 C524 1.393 . S
C521 H510 0.950 . S
C521 C519 1.391 . S
C521 C522 1.400 . S
C522 C516 1.491 . S
C522 C521 1.400 . S
C522 C523 1.398 . S
C523 H511 0.950 . S
C523 C522 1.398 . S
C523 C524 1.391 . S
C524 H512 0.950 . S
C524 C520 1.393 . S
C524 C523 1.391 . S
H525 C533 0.950 . S
H526 C538 0.950 . S
H527 C535 0.950 . S
H528 C537 0.950 . S
H529 C539 0.950 . S
H530 C541 0.950 . S
H531 C543 0.950 . S
H532 C544 0.950 . S
C533 H525 0.950 . S
C533 C534 1.386 . S
C533 C535 1.391 . S
C534 C533 1.386 . S
C534 C538 1.393 1_455 S
C535 H527 0.950 . S
C535 C533 1.391 . S
C535 C536 1.400 . S
C536 C535 1.400 . S
C536 C537 1.398 1_455 S
C536 C542 1.491 . S
C537 H528 0.950 . S
C537 C536 1.398 1_655 S
C537 C538 1.391 . S
C538 H526 0.950 . S
C538 C534 1.393 1_655 S
C538 C537 1.391 . S
C539 H529 0.950 . S
C539 C540 1.386 1_655 S
C539 C541 1.391 . S
C540 C539 1.386 1_455 S
C540 C544 1.393 . S
C541 H530 0.950 . S
C541 C539 1.391 . S
C541 C542 1.400 1_655 S
C542 C536 1.491 . S
C542 C541 1.400 1_455 S
C542 C543 1.398 . S
C543 H531 0.950 . S
C543 C542 1.398 . S
C543 C544 1.391 . S
C544 H532 0.950 . S
C544 C540 1.393 . S
C544 C543 1.391 . S
H545 C553 0.950 . S
H546 C558 0.950 . S
H547 C555 0.950 . S
H548 C557 0.950 . S
H549 C559 0.950 . S
H550 C561 0.950 . S
H551 C563 0.950 . S
H552 C564 0.950 . S
C553 H545 0.950 . S
C553 C554 1.386 1_565 S
C553 C555 1.391 . S
C554 C553 1.386 1_545 S
C554 C558 1.393 . S
C555 H547 0.950 . S
C555 C553 1.391 . S
C555 C556 1.400 1_565 S
C556 C555 1.400 1_545 S
C556 C557 1.398 . S
C556 C562 1.491 . S
C557 H548 0.950 . S
C557 C556 1.398 . S
C557 C558 1.391 . S
C558 H546 0.950 . S
C558 C554 1.393 . S
C558 C557 1.391 . S
C559 H549 0.950 . S
C559 C560 1.386 . S
C559 C561 1.391 . S
C560 C559 1.386 . S
C560 C564 1.393 1_545 S
C561 H550 0.950 . S
C561 C559 1.391 . S
C561 C562 1.400 . S
C562 C556 1.491 . S
C562 C561 1.400 . S
C562 C563 1.398 1_545 S
C563 H551 0.950 . S
C563 C562 1.398 1_565 S
C563 C564 1.391 . S
C564 H552 0.950 . S
C564 C560 1.393 1_565 S
C564 C563 1.391 . S
H565 C573 0.950 . S
H566 C578 0.950 . S
H567 C575 0.950 . S
H568 C577 0.950 . S
H569 C579 0.950 . S
H570 C581 0.950 . S
H571 C583 0.950 . S
H572 C584 0.950 . S
C573 H565 0.950 . S
C573 C574 1.386 . S
C573 C575 1.391 . S
C574 C573 1.386 . S
C574 C578 1.393 . S
C575 H567 0.950 . S
C575 C573 1.391 . S
C575 C576 1.400 . S
C576 C575 1.400 . S
C576 C577 1.398 . S
C576 C582 1.491 . S
C577 H568 0.950 . S
C577 C576 1.398 . S
C577 C578 1.391 . S
C578 H566 0.950 . S
C578 C574 1.393 . S
C578 C577 1.391 . S
C579 H569 0.950 . S
C579 C580 1.386 . S
C579 C581 1.391 . S
C580 C579 1.386 . S
C580 C584 1.393 . S
C581 H570 0.950 . S
C581 C579 1.391 . S
C581 C582 1.400 . S
C582 C576 1.491 . S
C582 C581 1.400 . S
C582 C583 1.398 . S
C583 H571 0.950 . S
C583 C582 1.398 . S
C583 C584 1.391 . S
C584 H572 0.950 . S
C584 C580 1.393 . S
C584 C583 1.391 . S
H585 C593 0.950 . S
H586 C598 0.950 . S
H587 C595 0.950 . S
H588 C597 0.950 . S
H589 C599 0.950 . S
H590 C601 0.950 . S
H591 C603 0.950 . S
H592 C604 0.950 . S
C593 H585 0.950 . S
C593 C594 1.386 . S
C593 C595 1.391 . S
C594 C593 1.386 . S
C594 C598 1.393 1_545 S
C595 H587 0.950 . S
C595 C593 1.391 . S
C595 C596 1.400 . S
C596 C595 1.400 . S
C596 C597 1.398 1_545 S
C596 C602 1.491 . S
C597 H588 0.950 . S
C597 C596 1.398 1_565 S
C597 C598 1.391 . S
C598 H586 0.950 . S
C598 C594 1.393 1_565 S
C598 C597 1.391 . S
C599 H589 0.950 . S
C599 C600 1.386 1_565 S
C599 C601 1.391 . S
C600 C599 1.386 1_545 S
C600 C604 1.393 . S
C601 H590 0.950 . S
C601 C599 1.391 . S
C601 C602 1.400 1_565 S
C602 C596 1.491 . S
C602 C601 1.400 1_545 S
C602 C603 1.398 . S
C603 H591 0.950 . S
C603 C602 1.398 . S
C603 C604 1.391 . S
C604 H592 0.950 . S
C604 C600 1.393 . S
C604 C603 1.391 . S
H605 C613 0.950 . S
H606 C618 0.950 . S
H607 C615 0.950 . S
H608 C617 0.950 . S
H609 C619 0.950 . S
H610 C621 0.950 . S
H611 C623 0.950 . S
H612 C624 0.950 . S
C613 H605 0.950 . S
C613 C614 1.386 . S
C613 C615 1.391 . S
C614 C613 1.386 . S
C614 C618 1.393 . S
C615 H607 0.950 . S
C615 C613 1.391 . S
C615 C616 1.400 . S
C616 C615 1.400 . S
C616 C617 1.398 . S
C616 C622 1.491 . S
C617 H608 0.950 . S
C617 C616 1.398 . S
C617 C618 1.391 . S
C618 H606 0.950 . S
C618 C614 1.393 . S
C618 C617 1.391 . S
C619 H609 0.950 . S
C619 C620 1.386 . S
C619 C621 1.391 . S
C620 C619 1.386 . S
C620 C624 1.393 . S
C621 H610 0.950 . S
C621 C619 1.391 . S
C621 C622 1.400 . S
C622 C616 1.491 . S
C622 C621 1.400 . S
C622 C623 1.398 . S
C623 H611 0.950 . S
C623 C622 1.398 . S
C623 C624 1.391 . S
C624 H612 0.950 . S
C624 C620 1.393 . S
C624 C623 1.391 . S
H625 C633 0.950 . S
H626 C638 0.950 . S
H627 C635 0.950 . S
H628 C637 0.950 . S
H629 C639 0.950 . S
H630 C641 0.950 . S
H631 C643 0.950 . S
H632 C644 0.950 . S
C633 H625 0.950 . S
C633 C634 1.386 . S
C633 C635 1.391 . S
C634 C633 1.386 . S
C634 C638 1.393 1_455 S
C635 H627 0.950 . S
C635 C633 1.391 . S
C635 C636 1.400 . S
C636 C635 1.400 . S
C636 C637 1.398 1_455 S
C636 C642 1.491 . S
C637 H628 0.950 . S
C637 C636 1.398 1_655 S
C637 C638 1.391 . S
C638 H626 0.950 . S
C638 C634 1.393 1_655 S
C638 C637 1.391 . S
C639 H629 0.950 . S
C639 C640 1.386 1_655 S
C639 C641 1.391 . S
C640 C639 1.386 1_455 S
C640 C644 1.393 . S
C641 H630 0.950 . S
C641 C639 1.391 . S
C641 C642 1.400 1_655 S
C642 C636 1.491 . S
C642 C641 1.400 1_455 S
C642 C643 1.398 . S
C643 H631 0.950 . S
C643 C642 1.398 . S
C643 C644 1.391 . S
C644 H632 0.950 . S
C644 C640 1.393 . S
C644 C643 1.391 . S
C294 C20 1.153 . S
C300 C274 1.178 . S
C314 C41 1.229 . S
C320 C202 1.197 . S
C334 C64 1.257 . S
C340 C238 1.228 . S
C354 C19 1.212 . S
C360 C250 1.256 . S
C380 C178 1.221 . S
C374 C44 1.215 . S
C400 C214 1.217 . S
C394 C67 1.208 . S
C414 C43 1.178 . S
C420 C130 1.190 . S
C434 C66 1.175 . S
C440 C142 1.200 . S
C454 C21 1.216 . S
C460 C70 1.227 . S
C480 C106 1.251 . S
C474 C42 1.214 . S
C500 C166 1.248 . S
C494 C65 1.229 . S
C514 C18 1.236 . S
C520 C94 1.219 . S
C540 C172 1.457 1_554 S
C534 C17 1.459 . S
C554 C39 1.455 . S
C560 C100 1.451 . S
C574 C62 1.474 . S
C580 C136 1.473 . S
C600 C244 1.434 . S
C594 C40 1.443 . S
C620 C280 1.460 1_556 S
C614 C63 1.460 . S
C634 C16 1.455 . S
C640 C208 1.448 . S
