# Generated by pormake.
# Topology eea, (3,6)-cn, num edge types: 1
# Building blocks:
#     Node 0, Type 0, BuildingBlock: ESEHIV_clean_linker_0, # of connection points: 3
#     Node 1, Type 0, BuildingBlock: ESEHIV_clean_linker_0, # of connection points: 3
#     Node 2, Type 0, BuildingBlock: ESEHIV_clean_linker_0, # of connection points: 3
#     Node 3, Type 0, BuildingBlock: ESEHIV_clean_linker_0, # of connection points: 3
#     Node 4, Type 0, BuildingBlock: ESEHIV_clean_linker_0, # of connection points: 3
#     Node 5, Type 0, BuildingBlock: ESEHIV_clean_linker_0, # of connection points: 3
#     Node 6, Type 0, BuildingBlock: ESEHIV_clean_linker_0, # of connection points: 3
#     Node 7, Type 0, BuildingBlock: ESEHIV_clean_linker_0, # of connection points: 3
#     Node 8, Type 0, BuildingBlock: ESEHIV_clean_linker_0, # of connection points: 3
#     Node 9, Type 0, BuildingBlock: ESEHIV_clean_linker_0, # of connection points: 3
#     Node 10, Type 0, BuildingBlock: ESEHIV_clean_linker_0, # of connection points: 3
#     Node 11, Type 0, BuildingBlock: ESEHIV_clean_linker_0, # of connection points: 3
#     Node 12, Type 0, BuildingBlock: ESEHIV_clean_linker_0, # of connection points: 3
#     Node 13, Type 0, BuildingBlock: ESEHIV_clean_linker_0, # of connection points: 3
#     Node 14, Type 0, BuildingBlock: ESEHIV_clean_linker_0, # of connection points: 3
#     Node 15, Type 0, BuildingBlock: ESEHIV_clean_linker_0, # of connection points: 3
#     Node 16, Type 0, BuildingBlock: ESEHIV_clean_linker_0, # of connection points: 3
#     Node 17, Type 0, BuildingBlock: ESEHIV_clean_linker_0, # of connection points: 3
#     Node 18, Type 1, BuildingBlock: CIFDUS_clean_sbu_1, # of connection points: 6
#     Node 19, Type 1, BuildingBlock: CIFDUS_clean_sbu_1, # of connection points: 6
#     Node 20, Type 1, BuildingBlock: CIFDUS_clean_sbu_1, # of connection points: 6
#     Node 21, Type 1, BuildingBlock: CIFDUS_clean_sbu_1, # of connection points: 6
#     Node 22, Type 1, BuildingBlock: CIFDUS_clean_sbu_1, # of connection points: 6
#     Node 23, Type 1, BuildingBlock: CIFDUS_clean_sbu_1, # of connection points: 6
#     Node 24, Type 1, BuildingBlock: CIFDUS_clean_sbu_1, # of connection points: 6
#     Node 25, Type 1, BuildingBlock: CIFDUS_clean_sbu_1, # of connection points: 6
#     Node 26, Type 1, BuildingBlock: CIFDUS_clean_sbu_1, # of connection points: 6
#     Edge 27, Type (0, 1), None
#     Edge 28, Type (0, 1), None
#     Edge 29, Type (0, 1), None
#     Edge 30, Type (0, 1), None
#     Edge 31, Type (0, 1), None
#     Edge 32, Type (0, 1), None
#     Edge 33, Type (0, 1), None
#     Edge 34, Type (0, 1), None
#     Edge 35, Type (0, 1), None
#     Edge 36, Type (0, 1), None
#     Edge 37, Type (0, 1), None
#     Edge 38, Type (0, 1), None
#     Edge 39, Type (0, 1), None
#     Edge 40, Type (0, 1), None
#     Edge 41, Type (0, 1), None
#     Edge 42, Type (0, 1), None
#     Edge 43, Type (0, 1), None
#     Edge 44, Type (0, 1), None
#     Edge 45, Type (0, 1), None
#     Edge 46, Type (0, 1), None
#     Edge 47, Type (0, 1), None
#     Edge 48, Type (0, 1), None
#     Edge 49, Type (0, 1), None
#     Edge 50, Type (0, 1), None
#     Edge 51, Type (0, 1), None
#     Edge 52, Type (0, 1), None
#     Edge 53, Type (0, 1), None
#     Edge 54, Type (0, 1), None
#     Edge 55, Type (0, 1), None
#     Edge 56, Type (0, 1), None
#     Edge 57, Type (0, 1), None
#     Edge 58, Type (0, 1), None
#     Edge 59, Type (0, 1), None
#     Edge 60, Type (0, 1), None
#     Edge 61, Type (0, 1), None
#     Edge 62, Type (0, 1), None
#     Edge 63, Type (0, 1), None
#     Edge 64, Type (0, 1), None
#     Edge 65, Type (0, 1), None
#     Edge 66, Type (0, 1), None
#     Edge 67, Type (0, 1), None
#     Edge 68, Type (0, 1), None
#     Edge 69, Type (0, 1), None
#     Edge 70, Type (0, 1), None
#     Edge 71, Type (0, 1), None
#     Edge 72, Type (0, 1), None
#     Edge 73, Type (0, 1), None
#     Edge 74, Type (0, 1), None
#     Edge 75, Type (0, 1), None
#     Edge 76, Type (0, 1), None
#     Edge 77, Type (0, 1), None
#     Edge 78, Type (0, 1), None
#     Edge 79, Type (0, 1), None
#     Edge 80, Type (0, 1), None
# Relax obj value: 0.100
# Max RMSD: 0.182
# Mean RMSD: 0.092
data_MOF--net-eea--node1-CIFDUS_clean_sbu_1--node2-ESEHIV_clean_linker_0--edge1-none
_symmetry_space_group_name_H-M    P1
_symmetry_Int_Tables_number       1
_symmetry_cell_setting            triclinic
loop_
_symmetry_equiv_pos_as_xyz
'x, y, z'
_cell_length_a     21.579801
_cell_length_b     20.571853
_cell_length_c     21.198384
_cell_angle_alpha  91.849193
_cell_angle_beta   92.32869
_cell_angle_gamma 119.25213
loop_
_atom_site_label
_atom_site_type_symbol
_atom_site_fract_x
_atom_site_fract_y
_atom_site_fract_z
_atom_type_partial_charge
H0 H 0.25357 0.24608 0.45429 0.0
H1 H 0.26042 0.04334 0.4775 0.0
H2 H 0.11155 0.05011 0.3415 0.0
C3 C 0.22951 0.18617 0.44576 0.0
C4 C 0.17947 0.15204 0.39438 0.0
C5 C 0.25448 0.14518 0.48093 0.0
C6 C 0.23275 0.07127 0.45884 0.0
C7 C 0.18472 0.03939 0.4048 0.0
C8 C 0.14744 0.07481 0.38356 0.0
H9 H 0.77171 0.04688 0.46779 0.0
H10 H 0.95751 0.26272 0.46382 0.0
H11 H 0.91686 0.09941 0.31773 0.0
C12 C 0.82215 0.08363 0.44863 0.0
C13 C 0.84007 0.06317 0.38974 0.0
C14 C 0.86551 0.1564 0.47725 0.0
C15 C 0.92459 0.20571 0.44536 0.0
C16 C 0.9426 0.18617 0.38849 0.0
C17 C 0.9044 0.11299 0.36374 0.0
H18 H 0.74484 0.69798 0.46001 0.0
H19 H 0.94817 0.72482 0.49321 0.0
H20 H 0.89959 0.79881 0.31839 0.0
C21 C 0.79822 0.72076 0.44468 0.0
C22 C 0.81771 0.75757 0.38748 0.0
C23 C 0.84426 0.70582 0.47968 0.0
C24 C 0.91322 0.7344 0.46198 0.0
C25 C 0.93524 0.76488 0.40284 0.0
C26 C 0.88651 0.77799 0.365 0.0
H27 H 0.01658 0.26309 0.55697 0.0
H28 H 0.22283 0.28501 0.55365 0.0
H29 H 0.10385 0.21238 0.72112 0.0
C30 C 0.05832 0.25549 0.57905 0.0
C31 C 0.05089 0.23273 0.64128 0.0
C32 C 0.12147 0.2792 0.54852 0.0
C33 C 0.17394 0.26725 0.57713 0.0
C34 C 0.16719 0.24026 0.63889 0.0
C35 C 0.10599 0.22475 0.67173 0.0
H36 H 0.7259 0.95701 0.55679 0.0
H37 H 0.74641 0.76084 0.57158 0.0
H38 H 0.87731 0.9532 0.69232 0.0
C39 C 0.75582 0.93093 0.57426 0.0
C40 C 0.80345 0.96278 0.62849 0.0
C41 C 0.73945 0.85959 0.54897 0.0
C42 C 0.76729 0.81992 0.58262 0.0
C43 C 0.81448 0.85278 0.63623 0.0
C44 C 0.84277 0.9291 0.64942 0.0
H45 H 0.05054 0.75521 0.54006 0.0
H46 H 0.23541 0.96719 0.57456 0.0
H47 H 0.06693 0.89023 0.70481 0.0
C48 C 0.07837 0.8068 0.56888 0.0
C49 C 0.04925 0.81581 0.6242 0.0
C50 C 0.14463 0.85903 0.55058 0.0
C51 C 0.18172 0.92777 0.58588 0.0
C52 C 0.15364 0.93991 0.64195 0.0
C53 C 0.08608 0.88408 0.65973 0.0
H54 H 0.92021 0.5794 0.78765 0.0
H55 H 0.92709 0.37668 0.81084 0.0
H56 H 0.77822 0.38345 0.67483 0.0
C57 C 0.89616 0.51949 0.7791 0.0
C58 C 0.84613 0.48537 0.72772 0.0
C59 C 0.92113 0.47851 0.81427 0.0
C60 C 0.89941 0.40461 0.79217 0.0
C61 C 0.85139 0.37273 0.73814 0.0
C62 C 0.81411 0.40814 0.71689 0.0
H63 H 0.43833 0.38018 0.80111 0.0
H64 H 0.62416 0.59601 0.79715 0.0
H65 H 0.58352 0.4327 0.65107 0.0
C66 C 0.48878 0.41691 0.78195 0.0
C67 C 0.5067 0.39644 0.72305 0.0
C68 C 0.53214 0.48969 0.81058 0.0
C69 C 0.59123 0.539 0.77869 0.0
C70 C 0.60925 0.51945 0.72182 0.0
C71 C 0.57105 0.44627 0.69708 0.0
H72 H 0.41153 0.03137 0.79337 0.0
H73 H 0.61479 0.05807 0.82654 0.0
H74 H 0.56629 0.13219 0.65176 0.0
C75 C 0.46491 0.05414 0.77803 0.0
C76 C 0.48441 0.09098 0.72085 0.0
C77 C 0.51091 0.03913 0.81302 0.0
C78 C 0.57987 0.06768 0.79532 0.0
C79 C 0.60191 0.0982 0.73619 0.0
C80 C 0.5532 0.11136 0.69836 0.0
H81 H 0.68323 0.5964 0.8903 0.0
H82 H 0.8895 0.61836 0.887 0.0
H83 H 0.7705 0.54572 0.05446 0.0
C84 C 0.72498 0.5888 0.91238 0.0
C85 C 0.71755 0.56606 0.97462 0.0
C86 C 0.78813 0.61252 0.88186 0.0
C87 C 0.8406 0.60059 0.91047 0.0
C88 C 0.83385 0.5736 0.97224 0.0
C89 C 0.77265 0.55808 1.00507 0.0
H90 H 0.39257 0.29035 0.89014 0.0
H91 H 0.41318 0.09424 0.90496 0.0
H92 H 0.54399 0.28659 0.0257 0.0
C93 C 0.42252 0.2643 0.90762 0.0
C94 C 0.47013 0.29615 0.96185 0.0
C95 C 0.40618 0.19296 0.88234 0.0
C96 C 0.43403 0.15332 0.91599 0.0
C97 C 0.4812 0.18617 0.9696 0.0
C98 C 0.50946 0.26249 0.98279 0.0
H99 H 0.71721 0.08856 0.87336 0.0
H100 H 0.9021 0.30051 0.9079 0.0
H101 H 0.73361 0.22354 0.03814 0.0
C102 C 0.74504 0.14015 0.90219 0.0
C103 C 0.71592 0.14915 0.95751 0.0
C104 C 0.81131 0.19237 0.88391 0.0
C105 C 0.84841 0.2611 0.91922 0.0
C106 C 0.82032 0.27324 0.97528 0.0
C107 C 0.75276 0.2174 0.99306 0.0
H108 H 0.58692 0.91278 0.12097 0.0
H109 H 0.59378 0.71004 0.1442 0.0
H110 H 0.44491 0.7168 1.00818 0.0
C111 C 0.56287 0.85287 0.11244 0.0
C112 C 0.51283 0.81873 0.06106 0.0
C113 C 0.58786 0.81191 0.1476 0.0
C114 C 0.56612 0.73798 0.12552 0.0
C115 C 0.51808 0.70609 0.07149 0.0
C116 C 0.4808 0.7415 0.05024 0.0
H117 H 0.10501 0.71353 0.13444 0.0
H118 H 0.29083 0.92936 0.13048 0.0
H119 H 0.25018 0.76605 0.98439 0.0
C120 C 0.15545 0.75026 0.11528 0.0
C121 C 0.17337 0.72979 0.05638 0.0
C122 C 0.19882 0.82304 0.1439 0.0
C123 C 0.25791 0.87235 0.11202 0.0
C124 C 0.27592 0.8528 0.05514 0.0
C125 C 0.23771 0.77962 0.0304 0.0
H126 H 0.07817 0.36465 0.12667 0.0
H127 H 0.28144 0.39145 0.15991 0.0
H128 H 0.23296 0.46553 0.9851 0.0
C129 C 0.13156 0.38745 0.11135 0.0
C130 C 0.15107 0.4243 0.05418 0.0
C131 C 0.17757 0.37247 0.14635 0.0
C132 C 0.24653 0.40105 0.12867 0.0
C133 C 0.26858 0.43155 0.06954 0.0
C134 C 0.21987 0.4447 0.0317 0.0
H135 H 0.3499 0.92974 0.22363 0.0
H136 H 0.55618 0.95171 0.22031 0.0
H137 H 0.4372 0.87908 0.38779 0.0
C138 C 0.39165 0.92215 0.24571 0.0
C139 C 0.38423 0.8994 0.30795 0.0
C140 C 0.45481 0.94587 0.21519 0.0
C141 C 0.50728 0.93395 0.24379 0.0
C142 C 0.50055 0.907 0.30557 0.0
C143 C 0.43934 0.89145 0.33839 0.0
H144 H 0.05928 0.6237 0.22346 0.0
H145 H 0.07984 0.42756 0.2383 0.0
H146 H 0.21067 0.61992 0.35902 0.0
C147 C 0.08921 0.59764 0.24093 0.0
C148 C 0.13682 0.62949 0.29516 0.0
C149 C 0.07286 0.52629 0.21566 0.0
C150 C 0.10071 0.48664 0.24932 0.0
C151 C 0.14787 0.5195 0.30293 0.0
C152 C 0.17615 0.59582 0.31612 0.0
H153 H 0.38379 0.42184 0.20663 0.0
H154 H 0.5688 0.63364 0.24143 0.0
H155 H 0.40032 0.55648 0.37171 0.0
C156 C 0.41164 0.47337 0.23552 0.0
C157 C 0.38255 0.48229 0.2909 0.0
C158 C 0.47795 0.52558 0.21729 0.0
C159 C 0.51512 0.59416 0.25276 0.0
C160 C 0.48706 0.60614 0.30888 0.0
C161 C 0.41949 0.55037 0.32663 0.0
O162 O 0.39006 0.91553 0.01751 0.0
Mn163 Mn 0.49523 0.00119 0.01481 0.0
O164 O 0.32854 0.97466 0.02692 0.0
Mn165 Mn 0.39938 0.05042 0.07894 0.0
O166 O 0.60312 0.0839 1.00893 0.0
O167 O 0.51728 0.91894 0.99824 0.0
Mn168 Mn 0.5607 0.93226 0.92871 0.0
O169 O 0.48469 0.01816 0.91937 0.0
O170 O 0.64264 0.02087 0.94845 0.0
O171 O 0.50249 0.98564 0.11231 0.0
O172 O 0.42553 0.01909 0.15135 0.0
O173 O 0.55242 0.84533 0.95705 0.0
O174 O 0.50394 0.93714 0.86363 0.0
C175 C 0.46484 0.14151 0.02561 0.0
C176 C 0.33072 0.9143 0.02169 0.0
C177 C 0.6511 0.08115 0.97596 0.0
C178 C 0.52425 0.86065 1.00406 0.0
C179 C 0.48929 0.98991 0.86643 0.0
C180 C 0.46406 0.98784 0.15675 0.0
O181 O 0.47114 0.08262 0.03106 0.0
O182 O 0.42155 0.14627 0.06364 0.0
O183 O 0.08511 0.48412 0.02005 0.0
Mn184 Mn -0.00494 0.50273 0.01581 0.0
O185 O 0.0341 0.36242 0.0177 0.0
Mn186 Mn 0.96965 0.36376 0.07167 0.0
O187 O 0.9062 0.52236 0.01059 0.0
O188 O 0.06879 0.61434 0.01019 0.0
Mn189 Mn 0.02424 0.64079 0.95436 0.0
O190 O 0.97414 0.47805 0.91711 0.0
O191 O 0.95327 0.6432 0.99616 0.0
O192 O 0.0154 0.52671 0.1145 0.0
O193 O 0.00522 0.42022 0.14739 0.0
O194 O 0.1075 0.72337 0.96391 0.0
O195 O -0.00374 0.58626 0.87807 0.0
C196 C 0.87209 0.31998 0.02699 0.0
C197 C 0.0905 0.42438 0.01755 0.0
C198 C 0.89958 0.58084 1.0036 0.0
C199 C 0.1164 0.68529 1.00769 0.0
C200 C 0.9704 0.51611 0.87153 0.0
C201 C 0.02521 0.48901 0.15723 0.0
O202 O 0.91977 0.39081 0.0227 0.0
O203 O 0.88431 0.28252 0.06908 0.0
O204 O 0.59987 0.51843 1.0098 0.0
Mn205 Mn 0.49494 0.50354 0.0143 0.0
O206 O 0.66994 0.63974 1.00248 0.0
Mn207 Mn 0.59933 0.64856 0.95785 0.0
O208 O 0.38664 0.48266 0.02065 0.0
O209 O 0.46323 0.39577 0.02285 0.0
Mn210 Mn 0.42209 0.37068 0.09362 0.0
O211 O 0.50712 0.53397 0.11104 0.0
O212 O 0.34292 0.38037 0.07765 0.0
O213 O 0.48602 0.47897 0.91574 0.0
O214 O 0.56178 0.59184 0.88211 0.0
O215 O 0.41931 0.28605 0.06096 0.0
O216 O 0.48729 0.43273 0.15849 0.0
C217 C 0.54259 0.67933 0.01853 0.0
C218 C 0.66252 0.57519 1.00752 0.0
C219 C 0.33563 0.43116 0.05074 0.0
C220 C 0.44951 0.32759 0.0147 0.0
C221 C 0.50341 0.50115 0.16174 0.0
C222 C 0.52187 0.5211 0.87208 0.0
O223 O 0.52948 0.61188 1.00694 0.0
O224 O 0.5885 0.72794 0.98332 0.0
O225 O 0.05671 0.24886 0.35084 0.0
Mn226 Mn 0.16188 0.33449 0.34814 0.0
O227 O -0.00479 0.30801 0.36026 0.0
Mn228 Mn 0.06606 0.38376 0.41228 0.0
O229 O 0.26976 0.41715 0.34226 0.0
O230 O 0.18392 0.25224 0.33156 0.0
Mn231 Mn 0.22731 0.26552 0.26202 0.0
O232 O 0.15135 0.35149 0.2527 0.0
O233 O 0.30924 0.3541 0.28175 0.0
O234 O 0.16915 0.31895 0.44564 0.0
O235 O 0.09221 0.35243 0.48468 0.0
O236 O 0.21904 0.17861 0.29037 0.0
O237 O 0.17057 0.27046 0.19695 0.0
C238 C 0.13152 0.47484 0.35894 0.0
C239 C -0.00262 0.24765 0.35503 0.0
C240 C 0.31771 0.41435 0.30929 0.0
C241 C 0.19089 0.19396 0.33738 0.0
C242 C 0.15594 0.32324 0.19976 0.0
C243 C 0.13073 0.32117 0.49008 0.0
O244 O 0.13782 0.41595 0.3644 0.0
O245 O 0.08824 0.47961 0.39698 0.0
O246 O 0.75173 0.81739 0.35342 0.0
Mn247 Mn 0.6617 0.8361 0.34912 0.0
O248 O 0.70072 0.69573 0.35096 0.0
Mn249 Mn 0.6363 0.69763 0.40459 0.0
O250 O 0.5729 0.85579 0.34388 0.0
O251 O 0.73556 0.94768 0.34368 0.0
Mn252 Mn 0.69097 0.97406 0.28779 0.0
O253 O 0.64097 0.81151 0.25041 0.0
O254 O 0.61999 0.97661 0.32946 0.0
O255 O 0.68187 0.86005 0.44785 0.0
O256 O 0.67195 0.75366 0.48046 0.0
O257 O 0.77417 0.05665 0.29726 0.0
O258 O 0.66297 0.91967 0.21143 0.0
C259 C 0.53872 0.65334 0.36043 0.0
C260 C 0.75714 0.75767 0.35086 0.0
C261 C 0.56629 0.91427 0.33691 0.0
C262 C 0.7831 0.01862 0.34108 0.0
C263 C 0.63716 0.84954 0.20485 0.0
C264 C 0.69182 0.82236 0.49049 0.0
O265 O 0.58611 0.72418 0.35555 0.0
O266 O 0.55122 0.61634 0.4028 0.0
O267 O 0.26654 0.85176 0.34312 0.0
Mn268 Mn 0.16161 0.83687 0.34762 0.0
O269 O 0.33661 0.97307 0.33582 0.0
Mn270 Mn 0.266 0.98189 0.29118 0.0
O271 O 0.05331 0.81599 0.35398 0.0
O272 O 0.12991 0.7291 0.35617 0.0
Mn273 Mn 0.08872 0.70399 0.42692 0.0
O274 O 0.17381 0.8673 0.44435 0.0
O275 O 0.00953 0.71363 0.41089 0.0
O276 O 0.15269 0.8123 0.24906 0.0
O277 O 0.22846 0.92518 0.21544 0.0
O278 O 0.08597 0.61936 0.39426 0.0
O279 O 0.15387 0.76604 0.49182 0.0
C280 C 0.20924 0.01265 0.35185 0.0
C281 C 0.32919 0.90852 0.34085 0.0
C282 C 0.00227 0.76447 0.38401 0.0
C283 C 0.11619 0.66092 0.34801 0.0
C284 C 0.17005 0.8345 0.49506 0.0
C285 C 0.18855 0.85445 0.2054 0.0
O286 O 0.19615 0.9452 0.34026 0.0
O287 O 0.25516 0.06127 0.31666 0.0
O288 O 0.72339 0.58218 0.68418 0.0
Mn289 Mn 0.82856 0.66784 0.68147 0.0
O290 O 0.66186 0.64131 0.69359 0.0
Mn291 Mn 0.73271 0.71707 0.74561 0.0
O292 O 0.93645 0.75057 0.6756 0.0
O293 O 0.85061 0.58559 0.66491 0.0
Mn294 Mn 0.89407 0.59894 0.5954 0.0
O295 O 0.81802 0.68482 0.58603 0.0
O296 O 0.97601 0.68753 0.61518 0.0
O297 O 0.83582 0.6523 0.77898 0.0
O298 O 0.75887 0.68575 0.81802 0.0
O299 O 0.88576 0.51199 0.62373 0.0
O300 O 0.83736 0.60386 0.5303 0.0
C301 C 0.79815 0.80814 0.69225 0.0
C302 C 0.66405 0.58095 0.68837 0.0
C303 C 0.98445 0.74781 0.64266 0.0
C304 C 0.85757 0.5273 0.67072 0.0
C305 C 0.82266 0.6566 0.5331 0.0
C306 C 0.79739 0.6545 0.82342 0.0
O307 O 0.80446 0.74927 0.69773 0.0
O308 O 0.75487 0.81292 0.7303 0.0
O309 O 0.41846 0.15078 0.68671 0.0
Mn310 Mn 0.32841 0.16939 0.68247 0.0
O311 O 0.36744 0.02909 0.68438 0.0
Mn312 Mn 0.30298 0.03042 0.73834 0.0
O313 O 0.23954 0.18902 0.67725 0.0
O314 O 0.40213 0.281 0.67685 0.0
Mn315 Mn 0.35759 0.30745 0.62101 0.0
O316 O 0.30748 0.14471 0.58377 0.0
O317 O 0.28661 0.30986 0.6628 0.0
O318 O 0.34875 0.19338 0.78116 0.0
O319 O 0.33853 0.08688 0.81406 0.0
O320 O 0.44085 0.39004 0.63057 0.0
O321 O 0.32961 0.25293 0.54472 0.0
C322 C 0.20542 0.98664 0.69366 0.0
C323 C 0.42384 0.09104 0.68423 0.0
C324 C 0.23292 0.2475 0.67025 0.0
C325 C 0.44974 0.35195 0.67436 0.0
C326 C 0.30375 0.18278 0.53819 0.0
C327 C 0.35854 0.15567 0.8239 0.0
O328 O 0.25311 0.05747 0.68936 0.0
O329 O 0.21764 0.94918 0.73574 0.0
O330 O 0.93321 0.18509 0.67645 0.0
Mn331 Mn 0.82828 0.1702 0.68096 0.0
O332 O 0.00328 0.3064 0.66916 0.0
Mn333 Mn 0.93267 0.31523 0.62453 0.0
O334 O 0.71998 0.14932 0.68731 0.0
O335 O 0.79658 0.06243 0.6895 0.0
Mn336 Mn 0.75542 0.03734 0.76027 0.0
O337 O 0.84048 0.20064 0.77768 0.0
O338 O 0.67623 0.04699 0.74426 0.0
O339 O 0.81936 0.14564 0.5824 0.0
O340 O 0.89513 0.25852 0.54879 0.0
O341 O 0.75266 0.9527 0.72762 0.0
O342 O 0.82058 0.0994 0.82516 0.0
C343 C 0.87591 0.34599 0.68519 0.0
C344 C -0.00414 0.24185 0.67419 0.0
C345 C 0.66895 0.0978 0.71737 0.0
C346 C 0.78285 0.99424 0.68135 0.0
C347 C 0.83675 0.16784 0.82839 0.0
C348 C 0.85523 0.18779 0.53875 0.0
O349 O 0.86281 0.27854 0.6736 0.0
O350 O 0.92183 0.39461 0.65 0.0
loop_
_geom_bond_atom_site_label_1
_geom_bond_atom_site_label_2
_geom_bond_distance
_geom_bond_site_symmetry_2
_ccdc_geom_bond_type
H0 C3 0.931 . S
H1 C6 0.928 . S
H2 C8 0.930 . S
C3 H0 0.931 . S
C3 C4 1.413 . S
C3 C5 1.360 . S
C4 C3 1.413 . S
C4 C8 1.429 . S
C5 C3 1.360 . S
C5 C6 1.372 . S
C6 H1 0.928 . S
C6 C5 1.372 . S
C6 C7 1.404 . S
C7 C6 1.404 . S
C7 C8 1.391 . S
C8 H2 0.930 . S
C8 C4 1.429 . S
C8 C7 1.391 . S
H9 C12 0.931 . S
H10 C15 0.928 . S
H11 C17 0.930 . S
C12 H9 0.931 . S
C12 C13 1.413 . S
C12 C14 1.360 . S
C13 C12 1.413 . S
C13 C17 1.429 . S
C14 C12 1.360 . S
C14 C15 1.372 . S
C15 H10 0.928 . S
C15 C14 1.372 . S
C15 C16 1.404 . S
C16 C15 1.404 . S
C16 C17 1.391 . S
C17 H11 0.930 . S
C17 C13 1.429 . S
C17 C16 1.391 . S
H18 C21 0.931 . S
H19 C24 0.928 . S
H20 C26 0.930 . S
C21 H18 0.931 . S
C21 C22 1.413 . S
C21 C23 1.360 . S
C22 C21 1.413 . S
C22 C26 1.429 . S
C23 C21 1.360 . S
C23 C24 1.372 . S
C24 H19 0.928 . S
C24 C23 1.372 . S
C24 C25 1.404 . S
C25 C24 1.404 . S
C25 C26 1.391 . S
C26 H20 0.930 . S
C26 C22 1.429 . S
C26 C25 1.391 . S
H27 C30 0.931 . S
H28 C33 0.928 . S
H29 C35 0.930 . S
C30 H27 0.931 . S
C30 C31 1.413 . S
C30 C32 1.360 . S
C31 C30 1.413 . S
C31 C35 1.429 . S
C32 C30 1.360 . S
C32 C33 1.372 . S
C33 H28 0.928 . S
C33 C32 1.372 . S
C33 C34 1.404 . S
C34 C33 1.404 . S
C34 C35 1.391 . S
C35 H29 0.930 . S
C35 C31 1.429 . S
C35 C34 1.391 . S
H36 C39 0.931 . S
H37 C42 0.928 . S
H38 C44 0.930 . S
C39 H36 0.931 . S
C39 C40 1.413 . S
C39 C41 1.360 . S
C40 C39 1.413 . S
C40 C44 1.429 . S
C41 C39 1.360 . S
C41 C42 1.372 . S
C42 H37 0.928 . S
C42 C41 1.372 . S
C42 C43 1.404 . S
C43 C42 1.404 . S
C43 C44 1.391 . S
C44 H38 0.930 . S
C44 C40 1.429 . S
C44 C43 1.391 . S
H45 C48 0.931 . S
H46 C51 0.928 . S
H47 C53 0.930 . S
C48 H45 0.931 . S
C48 C49 1.413 . S
C48 C50 1.360 . S
C49 C48 1.413 . S
C49 C53 1.429 . S
C50 C48 1.360 . S
C50 C51 1.372 . S
C51 H46 0.928 . S
C51 C50 1.372 . S
C51 C52 1.404 . S
C52 C51 1.404 . S
C52 C53 1.391 . S
C53 H47 0.930 . S
C53 C49 1.429 . S
C53 C52 1.391 . S
H54 C57 0.931 . S
H55 C60 0.928 . S
H56 C62 0.930 . S
C57 H54 0.931 . S
C57 C58 1.413 . S
C57 C59 1.360 . S
C58 C57 1.413 . S
C58 C62 1.429 . S
C59 C57 1.360 . S
C59 C60 1.372 . S
C60 H55 0.928 . S
C60 C59 1.372 . S
C60 C61 1.404 . S
C61 C60 1.404 . S
C61 C62 1.391 . S
C62 H56 0.930 . S
C62 C58 1.429 . S
C62 C61 1.391 . S
H63 C66 0.931 . S
H64 C69 0.928 . S
H65 C71 0.930 . S
C66 H63 0.931 . S
C66 C67 1.413 . S
C66 C68 1.360 . S
C67 C66 1.413 . S
C67 C71 1.429 . S
C68 C66 1.360 . S
C68 C69 1.372 . S
C69 H64 0.928 . S
C69 C68 1.372 . S
C69 C70 1.404 . S
C70 C69 1.404 . S
C70 C71 1.391 . S
C71 H65 0.930 . S
C71 C67 1.429 . S
C71 C70 1.391 . S
H72 C75 0.931 . S
H73 C78 0.928 . S
H74 C80 0.930 . S
C75 H72 0.931 . S
C75 C76 1.413 . S
C75 C77 1.360 . S
C76 C75 1.413 . S
C76 C80 1.429 . S
C77 C75 1.360 . S
C77 C78 1.372 . S
C78 H73 0.928 . S
C78 C77 1.372 . S
C78 C79 1.404 . S
C79 C78 1.404 . S
C79 C80 1.391 . S
C80 H74 0.930 . S
C80 C76 1.429 . S
C80 C79 1.391 . S
H81 C84 0.931 . S
H82 C87 0.928 . S
H83 C89 0.930 1_554 S
C84 H81 0.931 . S
C84 C85 1.413 . S
C84 C86 1.360 . S
C85 C84 1.413 . S
C85 C89 1.430 . S
C86 C84 1.360 . S
C86 C87 1.372 . S
C87 H82 0.928 . S
C87 C86 1.372 . S
C87 C88 1.404 . S
C88 C87 1.404 . S
C88 C89 1.391 . S
C89 H83 0.930 1_556 S
C89 C85 1.430 . S
C89 C88 1.391 . S
H90 C93 0.931 . S
H91 C96 0.928 . S
H92 C98 0.944 . S
C93 H90 0.931 . S
C93 C94 1.413 . S
C93 C95 1.360 . S
C94 C93 1.413 . S
C94 C98 1.422 1_556 S
C95 C93 1.360 . S
C95 C96 1.372 . S
C96 H91 0.928 . S
C96 C95 1.372 . S
C96 C97 1.404 . S
C97 C96 1.404 . S
C97 C98 1.384 1_556 S
C98 H92 0.944 . S
C98 C94 1.422 1_554 S
C98 C97 1.384 1_554 S
H99 C102 0.931 . S
H100 C105 0.928 . S
H101 C107 0.930 1_554 S
C102 H99 0.931 . S
C102 C103 1.413 . S
C102 C104 1.360 . S
C103 C102 1.413 . S
C103 C107 1.429 . S
C104 C102 1.360 . S
C104 C105 1.372 . S
C105 H100 0.928 . S
C105 C104 1.372 . S
C105 C106 1.404 . S
C106 C105 1.404 . S
C106 C107 1.391 . S
C107 H101 0.930 1_556 S
C107 C103 1.429 . S
C107 C106 1.391 . S
H108 C111 0.931 . S
H109 C114 0.928 . S
H110 C116 0.930 1_556 S
C111 H108 0.931 . S
C111 C112 1.413 . S
C111 C113 1.360 . S
C112 C111 1.413 . S
C112 C116 1.429 . S
C113 C111 1.360 . S
C113 C114 1.372 . S
C114 H109 0.928 . S
C114 C113 1.372 . S
C114 C115 1.404 . S
C115 C114 1.404 . S
C115 C116 1.391 . S
C116 H110 0.930 1_554 S
C116 C112 1.429 . S
C116 C115 1.391 . S
H117 C120 0.931 . S
H118 C123 0.928 . S
H119 C125 0.930 1_556 S
C120 H117 0.931 . S
C120 C121 1.413 . S
C120 C122 1.360 . S
C121 C120 1.413 . S
C121 C125 1.429 . S
C122 C120 1.360 . S
C122 C123 1.372 . S
C123 H118 0.928 . S
C123 C122 1.372 . S
C123 C124 1.404 . S
C124 C123 1.404 . S
C124 C125 1.391 . S
C125 H119 0.930 1_554 S
C125 C121 1.429 . S
C125 C124 1.391 . S
H126 C129 0.931 . S
H127 C132 0.928 . S
H128 C134 0.930 1_556 S
C129 H126 0.931 . S
C129 C130 1.413 . S
C129 C131 1.360 . S
C130 C129 1.413 . S
C130 C134 1.429 . S
C131 C129 1.360 . S
C131 C132 1.372 . S
C132 H127 0.928 . S
C132 C131 1.372 . S
C132 C133 1.404 . S
C133 C132 1.404 . S
C133 C134 1.391 . S
C134 H128 0.930 1_554 S
C134 C130 1.429 . S
C134 C133 1.391 . S
H135 C138 0.931 . S
H136 C141 0.928 . S
H137 C143 0.930 . S
C138 H135 0.931 . S
C138 C139 1.413 . S
C138 C140 1.360 . S
C139 C138 1.413 . S
C139 C143 1.429 . S
C140 C138 1.360 . S
C140 C141 1.372 . S
C141 H136 0.928 . S
C141 C140 1.372 . S
C141 C142 1.404 . S
C142 C141 1.404 . S
C142 C143 1.391 . S
C143 H137 0.930 . S
C143 C139 1.429 . S
C143 C142 1.391 . S
H144 C147 0.931 . S
H145 C150 0.928 . S
H146 C152 0.930 . S
C147 H144 0.931 . S
C147 C148 1.413 . S
C147 C149 1.360 . S
C148 C147 1.413 . S
C148 C152 1.429 . S
C149 C147 1.360 . S
C149 C150 1.372 . S
C150 H145 0.928 . S
C150 C149 1.372 . S
C150 C151 1.404 . S
C151 C150 1.404 . S
C151 C152 1.391 . S
C152 H146 0.930 . S
C152 C148 1.429 . S
C152 C151 1.391 . S
H153 C156 0.931 . S
H154 C159 0.928 . S
H155 C161 0.930 . S
C156 H153 0.931 . S
C156 C157 1.413 . S
C156 C158 1.360 . S
C157 C156 1.413 . S
C157 C161 1.429 . S
C158 C156 1.360 . S
C158 C159 1.372 . S
C159 H154 0.928 . S
C159 C158 1.372 . S
C159 C160 1.404 . S
C160 C159 1.404 . S
C160 C161 1.391 . S
C161 H155 0.930 . S
C161 C157 1.429 . S
C161 C160 1.391 . S
O162 Mn163 2.163 1_565 S
O162 C176 1.244 . S
Mn163 O162 2.163 1_545 S
Mn163 O166 2.160 . S
Mn163 O167 2.221 1_545 S
Mn163 O169 2.163 1_554 S
Mn163 O171 2.160 . S
Mn163 O181 2.221 . S
O164 Mn165 2.087 1_565 S
O164 C176 1.256 . S
Mn165 O164 2.087 1_545 S
Mn165 O172 2.089 . S
Mn165 O181 2.290 . S
Mn165 O182 2.251 . S
O166 Mn163 2.160 . S
O166 C177 1.239 1_554 S
O167 Mn163 2.221 1_565 S
O167 Mn168 2.290 1_554 S
O167 C178 1.278 1_554 S
Mn168 O167 2.290 1_556 S
Mn168 O170 2.089 1_565 S
Mn168 O173 2.251 . S
Mn168 O174 2.087 . S
O169 Mn163 2.163 1_556 S
O169 C179 1.244 1_545 S
O170 Mn168 2.089 1_545 S
O170 C177 1.256 . S
O171 Mn163 2.160 . S
O171 C180 1.239 . S
O172 Mn165 2.089 . S
O172 C180 1.256 . S
O173 Mn168 2.251 . S
O173 C178 1.241 . S
O174 Mn168 2.087 . S
O174 C179 1.256 . S
C175 O181 1.278 1_556 S
C175 O182 1.241 1_556 S
C176 O162 1.244 . S
C176 O164 1.256 . S
C177 O166 1.239 1_556 S
C177 O170 1.256 . S
C178 O167 1.278 1_556 S
C178 O173 1.241 . S
C179 O169 1.244 1_565 S
C179 O174 1.256 . S
C180 O171 1.239 . S
C180 O172 1.256 . S
O181 Mn163 2.221 . S
O181 Mn165 2.290 . S
O181 C175 1.278 1_554 S
O182 Mn165 2.251 . S
O182 C175 1.241 1_554 S
O183 Mn184 2.163 1_455 S
O183 C197 1.244 . S
Mn184 O183 2.163 1_655 S
Mn184 O187 2.160 . S
Mn184 O188 2.221 1_655 S
Mn184 O190 2.163 1_554 S
Mn184 O192 2.160 . S
Mn184 O202 2.221 . S
O185 Mn186 2.087 1_455 S
O185 C197 1.256 . S
Mn186 O185 2.087 1_655 S
Mn186 O193 2.089 1_655 S
Mn186 O202 2.290 . S
Mn186 O203 2.251 . S
O187 Mn184 2.160 . S
O187 C198 1.239 1_554 S
O188 Mn184 2.221 1_455 S
O188 Mn189 2.290 1_554 S
O188 C199 1.278 1_554 S
Mn189 O188 2.290 1_556 S
Mn189 O191 2.089 1_455 S
Mn189 O194 2.251 . S
Mn189 O195 2.087 . S
O190 Mn184 2.163 1_556 S
O190 C200 1.245 1_655 S
O191 Mn189 2.089 1_655 S
O191 C198 1.256 . S
O192 Mn184 2.160 . S
O192 C201 1.239 1_655 S
O193 Mn186 2.089 1_455 S
O193 C201 1.256 . S
O194 Mn189 2.251 . S
O194 C199 1.241 . S
O195 Mn189 2.087 . S
O195 C200 1.255 . S
C196 O202 1.278 1_556 S
C196 O203 1.241 1_556 S
C197 O183 1.244 . S
C197 O185 1.256 . S
C198 O187 1.239 1_556 S
C198 O191 1.256 . S
C199 O188 1.278 1_556 S
C199 O194 1.241 . S
C200 O190 1.245 1_455 S
C200 O195 1.255 . S
C201 O192 1.239 1_455 S
C201 O193 1.256 . S
O202 Mn184 2.221 . S
O202 Mn186 2.290 . S
O202 C196 1.278 1_554 S
O203 Mn186 2.251 . S
O203 C196 1.241 1_554 S
O204 Mn205 2.163 . S
O204 C218 1.244 . S
Mn205 O204 2.163 . S
Mn205 O208 2.159 1_556 S
Mn205 O209 2.221 1_556 S
Mn205 O211 2.163 1_556 S
Mn205 O213 2.160 . S
Mn205 O223 2.221 . S
O206 Mn207 2.087 . S
O206 C218 1.256 . S
Mn207 O206 2.087 . S
Mn207 O214 2.089 . S
Mn207 O223 2.290 . S
Mn207 O224 2.251 1_556 S
O208 Mn205 2.159 1_554 S
O208 C219 1.244 . S
O209 Mn205 2.221 1_554 S
O209 Mn210 2.290 . S
O209 C220 1.278 . S
Mn210 O209 2.290 . S
Mn210 O212 2.089 . S
Mn210 O215 2.251 . S
Mn210 O216 2.087 . S
O211 Mn205 2.163 1_554 S
O211 C221 1.244 . S
O212 Mn210 2.089 . S
O212 C219 1.256 . S
O213 Mn205 2.160 . S
O213 C222 1.239 . S
O214 Mn207 2.089 . S
O214 C222 1.256 . S
O215 Mn210 2.251 . S
O215 C220 1.241 . S
O216 Mn210 2.087 . S
O216 C221 1.256 . S
C217 O223 1.278 1_554 S
C217 O224 1.241 . S
C218 O204 1.244 . S
C218 O206 1.256 . S
C219 O208 1.244 . S
C219 O212 1.256 . S
C220 O209 1.278 . S
C220 O215 1.241 . S
C221 O211 1.244 . S
C221 O216 1.256 . S
C222 O213 1.239 . S
C222 O214 1.256 . S
O223 Mn205 2.221 . S
O223 Mn207 2.290 . S
O223 C217 1.278 1_556 S
O224 Mn207 2.251 1_554 S
O224 C217 1.241 . S
O225 Mn226 2.163 . S
O225 C239 1.244 . S
Mn226 O225 2.163 . S
Mn226 O229 2.160 . S
Mn226 O230 2.221 . S
Mn226 O232 2.163 . S
Mn226 O234 2.160 . S
Mn226 O244 2.221 . S
O227 Mn228 2.087 1_655 S
O227 C239 1.256 1_655 S
Mn228 O227 2.087 1_455 S
Mn228 O235 2.089 . S
Mn228 O244 2.290 . S
Mn228 O245 2.251 . S
O229 Mn226 2.160 . S
O229 C240 1.239 . S
O230 Mn226 2.221 . S
O230 Mn231 2.290 . S
O230 C241 1.278 . S
Mn231 O230 2.290 . S
Mn231 O233 2.089 . S
Mn231 O236 2.251 . S
Mn231 O237 2.087 . S
O232 Mn226 2.163 . S
O232 C242 1.244 . S
O233 Mn231 2.089 . S
O233 C240 1.256 . S
O234 Mn226 2.160 . S
O234 C243 1.239 . S
O235 Mn228 2.089 . S
O235 C243 1.256 . S
O236 Mn231 2.251 . S
O236 C241 1.241 . S
O237 Mn231 2.087 . S
O237 C242 1.256 . S
C238 O244 1.278 . S
C238 O245 1.241 . S
C239 O225 1.244 . S
C239 O227 1.256 1_455 S
C240 O229 1.239 . S
C240 O233 1.256 . S
C241 O230 1.278 . S
C241 O236 1.241 . S
C242 O232 1.244 . S
C242 O237 1.256 . S
C243 O234 1.239 . S
C243 O235 1.256 . S
O244 Mn226 2.221 . S
O244 Mn228 2.290 . S
O244 C238 1.278 . S
O245 Mn228 2.251 . S
O245 C238 1.241 . S
O246 Mn247 2.163 . S
O246 C260 1.244 . S
Mn247 O246 2.163 . S
Mn247 O250 2.160 . S
Mn247 O251 2.221 . S
Mn247 O253 2.163 . S
Mn247 O255 2.160 . S
Mn247 O265 2.221 . S
O248 Mn249 2.087 . S
O248 C260 1.256 . S
Mn249 O248 2.087 . S
Mn249 O256 2.089 . S
Mn249 O265 2.290 . S
Mn249 O266 2.251 . S
O250 Mn247 2.160 . S
O250 C261 1.239 . S
O251 Mn247 2.221 . S
O251 Mn252 2.290 1_565 S
O251 C262 1.278 1_565 S
Mn252 O251 2.290 1_545 S
Mn252 O254 2.089 1_545 S
Mn252 O257 2.251 . S
Mn252 O258 2.087 1_545 S
O253 Mn247 2.163 . S
O253 C263 1.244 . S
O254 Mn252 2.089 1_565 S
O254 C261 1.256 . S
O255 Mn247 2.160 . S
O255 C264 1.239 . S
O256 Mn249 2.089 . S
O256 C264 1.256 . S
O257 Mn252 2.251 . S
O257 C262 1.241 . S
O258 Mn252 2.087 1_565 S
O258 C263 1.256 . S
C259 O265 1.278 . S
C259 O266 1.241 . S
C260 O246 1.244 . S
C260 O248 1.256 . S
C261 O250 1.239 . S
C261 O254 1.256 . S
C262 O251 1.278 1_545 S
C262 O257 1.241 . S
C263 O253 1.244 . S
C263 O258 1.256 . S
C264 O255 1.239 . S
C264 O256 1.256 . S
O265 Mn247 2.221 . S
O265 Mn249 2.290 . S
O265 C259 1.278 . S
O266 Mn249 2.251 . S
O266 C259 1.241 . S
O267 Mn268 2.163 . S
O267 C281 1.244 . S
Mn268 O267 2.163 . S
Mn268 O271 2.160 . S
Mn268 O272 2.221 . S
Mn268 O274 2.163 . S
Mn268 O276 2.160 . S
Mn268 O286 2.221 . S
O269 Mn270 2.092 . S
O269 C281 1.256 . S
Mn270 O269 2.092 . S
Mn270 O277 2.092 . S
Mn270 O286 2.290 . S
Mn270 O287 2.248 1_565 S
O271 Mn268 2.160 . S
O271 C282 1.239 1_455 S
O272 Mn268 2.221 . S
O272 Mn273 2.290 . S
O272 C283 1.278 . S
Mn273 O272 2.290 . S
Mn273 O275 2.089 1_455 S
Mn273 O278 2.251 . S
Mn273 O279 2.087 . S
O274 Mn268 2.163 . S
O274 C284 1.244 . S
O275 Mn273 2.089 1_655 S
O275 C282 1.256 . S
O276 Mn268 2.160 . S
O276 C285 1.239 . S
O277 Mn270 2.092 . S
O277 C285 1.256 . S
O278 Mn273 2.251 . S
O278 C283 1.241 . S
O279 Mn273 2.087 . S
O279 C284 1.256 . S
C280 O286 1.278 1_545 S
C280 O287 1.241 . S
C281 O267 1.244 . S
C281 O269 1.256 . S
C282 O271 1.239 1_655 S
C282 O275 1.256 . S
C283 O272 1.278 . S
C283 O278 1.241 . S
C284 O274 1.244 . S
C284 O279 1.256 . S
C285 O276 1.239 . S
C285 O277 1.256 . S
O286 Mn268 2.221 . S
O286 Mn270 2.290 . S
O286 C280 1.278 1_565 S
O287 Mn270 2.248 1_545 S
O287 C280 1.241 . S
O288 Mn289 2.163 . S
O288 C302 1.244 . S
Mn289 O288 2.163 . S
Mn289 O292 2.160 . S
Mn289 O293 2.221 . S
Mn289 O295 2.163 . S
Mn289 O297 2.160 . S
Mn289 O307 2.221 . S
O290 Mn291 2.087 . S
O290 C302 1.256 . S
Mn291 O290 2.087 . S
Mn291 O298 2.089 . S
Mn291 O307 2.290 . S
Mn291 O308 2.251 . S
O292 Mn289 2.160 . S
O292 C303 1.239 1_655 S
O293 Mn289 2.221 . S
O293 Mn294 2.290 . S
O293 C304 1.278 . S
Mn294 O293 2.290 . S
Mn294 O296 2.089 1_655 S
Mn294 O299 2.251 . S
Mn294 O300 2.087 . S
O295 Mn289 2.163 . S
O295 C305 1.244 . S
O296 Mn294 2.089 1_455 S
O296 C303 1.256 . S
O297 Mn289 2.160 . S
O297 C306 1.239 . S
O298 Mn291 2.089 . S
O298 C306 1.256 . S
O299 Mn294 2.251 . S
O299 C304 1.241 . S
O300 Mn294 2.087 . S
O300 C305 1.256 . S
C301 O307 1.278 . S
C301 O308 1.241 . S
C302 O288 1.244 . S
C302 O290 1.256 . S
C303 O292 1.239 1_455 S
C303 O296 1.256 . S
C304 O293 1.278 . S
C304 O299 1.241 . S
C305 O295 1.244 . S
C305 O300 1.256 . S
C306 O297 1.239 . S
C306 O298 1.256 . S
O307 Mn289 2.221 . S
O307 Mn291 2.290 . S
O307 C301 1.278 . S
O308 Mn291 2.251 . S
O308 C301 1.241 . S
O309 Mn310 2.163 . S
O309 C323 1.244 . S
Mn310 O309 2.163 . S
Mn310 O313 2.160 . S
Mn310 O314 2.221 . S
Mn310 O316 2.163 . S
Mn310 O318 2.160 . S
Mn310 O328 2.221 . S
O311 Mn312 2.087 . S
O311 C323 1.256 . S
Mn312 O311 2.087 . S
Mn312 O319 2.089 . S
Mn312 O328 2.290 . S
Mn312 O329 2.251 1_545 S
O313 Mn310 2.160 . S
O313 C324 1.239 . S
O314 Mn310 2.221 . S
O314 Mn315 2.290 . S
O314 C325 1.278 . S
Mn315 O314 2.290 . S
Mn315 O317 2.089 . S
Mn315 O320 2.251 . S
Mn315 O321 2.087 . S
O316 Mn310 2.163 . S
O316 C326 1.244 . S
O317 Mn315 2.089 . S
O317 C324 1.256 . S
O318 Mn310 2.160 . S
O318 C327 1.239 . S
O319 Mn312 2.089 . S
O319 C327 1.256 . S
O320 Mn315 2.251 . S
O320 C325 1.241 . S
O321 Mn315 2.087 . S
O321 C326 1.256 . S
C322 O328 1.278 1_565 S
C322 O329 1.241 . S
C323 O309 1.244 . S
C323 O311 1.256 . S
C324 O313 1.239 . S
C324 O317 1.256 . S
C325 O314 1.278 . S
C325 O320 1.241 . S
C326 O316 1.244 . S
C326 O321 1.256 . S
C327 O318 1.239 . S
C327 O319 1.256 . S
O328 Mn310 2.221 . S
O328 Mn312 2.290 . S
O328 C322 1.278 1_545 S
O329 Mn312 2.251 1_565 S
O329 C322 1.241 . S
O330 Mn331 2.163 . S
O330 C344 1.244 . S
Mn331 O330 2.163 . S
Mn331 O334 2.160 . S
Mn331 O335 2.221 . S
Mn331 O337 2.163 . S
Mn331 O339 2.160 . S
Mn331 O349 2.221 . S
O332 Mn333 2.087 1_455 S
O332 C344 1.256 1_455 S
Mn333 O332 2.087 1_655 S
Mn333 O340 2.089 . S
Mn333 O349 2.290 . S
Mn333 O350 2.251 . S
O334 Mn331 2.160 . S
O334 C345 1.239 . S
O335 Mn331 2.221 . S
O335 Mn336 2.290 . S
O335 C346 1.278 1_545 S
Mn336 O335 2.290 . S
Mn336 O338 2.089 . S
Mn336 O341 2.251 1_545 S
Mn336 O342 2.087 . S
O337 Mn331 2.163 . S
O337 C347 1.244 . S
O338 Mn336 2.089 . S
O338 C345 1.256 . S
O339 Mn331 2.160 . S
O339 C348 1.239 . S
O340 Mn333 2.089 . S
O340 C348 1.256 . S
O341 Mn336 2.251 1_565 S
O341 C346 1.241 . S
O342 Mn336 2.087 . S
O342 C347 1.256 . S
C343 O349 1.278 . S
C343 O350 1.241 . S
C344 O330 1.244 . S
C344 O332 1.256 1_655 S
C345 O334 1.239 . S
C345 O338 1.256 . S
C346 O335 1.278 1_565 S
C346 O341 1.241 . S
C347 O337 1.244 . S
C347 O342 1.256 . S
C348 O339 1.239 . S
C348 O340 1.256 . S
O349 Mn331 2.221 . S
O349 Mn333 2.290 . S
O349 C343 1.278 . S
O350 Mn333 2.251 . S
O350 C343 1.241 . S
C124 C176 1.325 . S
C130 C197 1.345 . S
C115 C217 1.092 . S
C106 C196 1.091 . S
C218 C85 1.368 . S
C97 C175 1.049 . S
C177 C103 1.326 . S
C198 C88 1.239 . S
C94 C220 1.366 1_556 S
C121 C199 1.321 1_554 S
C133 C219 1.269 . S
C178 C112 1.478 1_556 S
C239 C16 1.325 1_455 S
C22 C260 1.345 . S
C7 C280 1.093 . S
C160 C259 1.091 . S
C139 C281 1.368 . S
C151 C238 1.049 . S
C157 C240 1.326 . S
C142 C261 1.239 . S
C283 C148 1.366 . S
C13 C262 1.321 . S
C282 C25 1.269 . S
C4 C241 1.478 . S
C302 C70 1.325 . S
C76 C323 1.345 . S
C343 C61 1.093 . S
C322 C52 1.091 . S
C344 C31 1.368 1_655 S
C43 C301 1.049 . S
C49 C303 1.326 . S
C34 C324 1.239 . S
C346 C40 1.366 . S
C67 C325 1.321 . S
C79 C345 1.269 . S
C58 C304 1.478 . S
C140 C180 1.468 1_565 S
C201 C149 1.517 . S
C158 C221 1.550 . S
C59 C200 1.629 1_655 S
C68 C222 1.573 . S
C179 C77 1.610 1_565 S
C32 C243 1.468 . S
C41 C264 1.517 . S
C50 C284 1.550 . S
C113 C263 1.633 . S
C285 C122 1.573 . S
C131 C242 1.610 . S
C86 C306 1.468 . S
C95 C327 1.517 . S
C347 C104 1.550 . S
C5 C326 1.633 . S
C14 C348 1.573 . S
C23 C305 1.610 . S
