# Generated by pormake.
# Topology zzz, (3,6)-cn, num edge types: 1
# Building blocks:
#     Node 0, Type 0, BuildingBlock: MIDCAF_clean_linker_0, # of connection points: 3
#     Node 1, Type 0, BuildingBlock: MIDCAF_clean_linker_0, # of connection points: 3
#     Node 2, Type 0, BuildingBlock: MIDCAF_clean_linker_0, # of connection points: 3
#     Node 3, Type 0, BuildingBlock: MIDCAF_clean_linker_0, # of connection points: 3
#     Node 4, Type 0, BuildingBlock: MIDCAF_clean_linker_0, # of connection points: 3
#     Node 5, Type 0, BuildingBlock: MIDCAF_clean_linker_0, # of connection points: 3
#     Node 6, Type 0, BuildingBlock: MIDCAF_clean_linker_0, # of connection points: 3
#     Node 7, Type 0, BuildingBlock: MIDCAF_clean_linker_0, # of connection points: 3
#     Node 8, Type 1, BuildingBlock: BETDAH_clean_sbu_0, # of connection points: 6
#     Node 9, Type 1, BuildingBlock: BETDAH_clean_sbu_0, # of connection points: 6
#     Node 10, Type 1, BuildingBlock: BETDAH_clean_sbu_0, # of connection points: 6
#     Node 11, Type 1, BuildingBlock: BETDAH_clean_sbu_0, # of connection points: 6
#     Edge 12, Type (0, 1), BuildingBlock: CIFDUS_clean_linker_0, # of connection points: 2
#     Edge 13, Type (0, 1), BuildingBlock: CIFDUS_clean_linker_0, # of connection points: 2
#     Edge 14, Type (0, 1), BuildingBlock: CIFDUS_clean_linker_0, # of connection points: 2
#     Edge 15, Type (0, 1), BuildingBlock: CIFDUS_clean_linker_0, # of connection points: 2
#     Edge 16, Type (0, 1), BuildingBlock: CIFDUS_clean_linker_0, # of connection points: 2
#     Edge 17, Type (0, 1), BuildingBlock: CIFDUS_clean_linker_0, # of connection points: 2
#     Edge 18, Type (0, 1), BuildingBlock: CIFDUS_clean_linker_0, # of connection points: 2
#     Edge 19, Type (0, 1), BuildingBlock: CIFDUS_clean_linker_0, # of connection points: 2
#     Edge 20, Type (0, 1), BuildingBlock: CIFDUS_clean_linker_0, # of connection points: 2
#     Edge 21, Type (0, 1), BuildingBlock: CIFDUS_clean_linker_0, # of connection points: 2
#     Edge 22, Type (0, 1), BuildingBlock: CIFDUS_clean_linker_0, # of connection points: 2
#     Edge 23, Type (0, 1), BuildingBlock: CIFDUS_clean_linker_0, # of connection points: 2
#     Edge 24, Type (0, 1), BuildingBlock: CIFDUS_clean_linker_0, # of connection points: 2
#     Edge 25, Type (0, 1), BuildingBlock: CIFDUS_clean_linker_0, # of connection points: 2
#     Edge 26, Type (0, 1), BuildingBlock: CIFDUS_clean_linker_0, # of connection points: 2
#     Edge 27, Type (0, 1), BuildingBlock: CIFDUS_clean_linker_0, # of connection points: 2
#     Edge 28, Type (0, 1), BuildingBlock: CIFDUS_clean_linker_0, # of connection points: 2
#     Edge 29, Type (0, 1), BuildingBlock: CIFDUS_clean_linker_0, # of connection points: 2
#     Edge 30, Type (0, 1), BuildingBlock: CIFDUS_clean_linker_0, # of connection points: 2
#     Edge 31, Type (0, 1), BuildingBlock: CIFDUS_clean_linker_0, # of connection points: 2
#     Edge 32, Type (0, 1), BuildingBlock: CIFDUS_clean_linker_0, # of connection points: 2
#     Edge 33, Type (0, 1), BuildingBlock: CIFDUS_clean_linker_0, # of connection points: 2
#     Edge 34, Type (0, 1), BuildingBlock: CIFDUS_clean_linker_0, # of connection points: 2
#     Edge 35, Type (0, 1), BuildingBlock: CIFDUS_clean_linker_0, # of connection points: 2
# Relax obj value: 0.469
# Max RMSD: 0.272
# Mean RMSD: 0.257
data_MOF--net-zzz--node1-BETDAH_clean_sbu_0--node2-MIDCAF_clean_linker_0--edge1-CIFDUS_clean_linker_0
_symmetry_space_group_name_H-M    P1
_symmetry_Int_Tables_number       1
_symmetry_cell_setting            triclinic
loop_
_symmetry_equiv_pos_as_xyz
'x, y, z'
_cell_length_a     53.014241
_cell_length_b     52.927652
_cell_length_c     16.317152
_cell_angle_alpha  89.607974
_cell_angle_beta   89.691024
_cell_angle_gamma 90.055438
loop_
_atom_site_label
_atom_site_type_symbol
_atom_site_fract_x
_atom_site_fract_y
_atom_site_fract_z
_atom_type_partial_charge
C0 C 0.80702 0.51286 0.46541 0.0
C1 C 0.81537 0.49645 0.52811 0.0
C2 C 0.80019 0.47553 0.54896 0.0
C3 C 0.77833 0.47017 0.50478 0.0
H4 H 0.67078 0.45716 0.30053 0.0
H5 H 0.63422 0.46923 0.21942 0.0
H6 H 0.67459 0.53457 0.12803 0.0
H7 H 0.71125 0.52256 0.21166 0.0
H8 H 0.74835 0.43745 0.12287 0.0
H9 H 0.77887 0.41159 0.05255 0.0
H10 H 0.79326 0.37061 0.27826 0.0
H11 H 0.76423 0.39864 0.34981 0.0
H12 H 0.77979 0.51956 0.37016 0.0
H13 H 0.81811 0.52927 0.4482 0.0
H14 H 0.80604 0.46228 0.596 0.0
H15 H 0.76812 0.45289 0.51859 0.0
N16 N 0.73223 0.48808 0.35093 0.0
N17 N 0.72385 0.4546 0.26016 0.0
N18 N 0.75874 0.45245 0.3465 0.0
C19 C 0.71726 0.47724 0.29267 0.0
C20 C 0.74449 0.44212 0.28701 0.0
C21 C 0.75295 0.47527 0.37868 0.0
C22 C 0.69374 0.48901 0.26271 0.0
C23 C 0.67151 0.4746 0.26537 0.0
C24 C 0.65068 0.48138 0.21812 0.0
C25 C 0.65163 0.50257 0.16575 0.0
C26 C 0.67321 0.51816 0.16781 0.0
C27 C 0.69415 0.5114 0.21594 0.0
C28 C 0.75453 0.42039 0.24187 0.0
C29 C 0.7574 0.42231 0.1567 0.0
C30 C 0.775 0.40722 0.11622 0.0
C31 C 0.78962 0.38949 0.16012 0.0
C32 C 0.78341 0.38487 0.24301 0.0
C33 C 0.76651 0.40066 0.28406 0.0
C34 C 0.77077 0.48571 0.43928 0.0
C35 C 0.78484 0.50759 0.42161 0.0
C36 C 0.02959 0.80998 0.48251 0.0
C37 C 1.00881 0.8235 0.45187 0.0
C38 C 0.99458 0.81248 0.3885 0.0
C39 C 1.00206 0.78947 0.35302 0.0
H40 H 0.98909 0.71063 0.21052 0.0
H41 H 0.97335 0.67369 0.13568 0.0
H42 H 0.04932 0.64474 0.11866 0.0
H43 H 0.06475 0.681 0.19308 0.0
H44 H 0.11399 0.77179 0.32568 0.0
H45 H 0.14116 0.80393 0.26401 0.0
H46 H 0.10938 0.78719 0.02659 0.0
H47 H 0.08434 0.75386 0.08761 0.0
H48 H 0.05434 0.77838 0.46789 0.0
H49 H 0.04125 0.81781 0.53037 0.0
H50 H 0.97828 0.82217 0.36392 0.0
H51 H 0.99187 0.78244 0.30049 0.0
N52 N 0.02578 0.73768 0.29507 0.0
N53 N 0.06271 0.72933 0.21861 0.0
N54 N 0.06105 0.7645 0.3038 0.0
C55 C 0.03901 0.72246 0.24239 0.0
C56 C 0.07385 0.75019 0.24948 0.0
C57 C 0.03717 0.75864 0.32693 0.0
C58 C 0.0282 0.69893 0.20724 0.0
C59 C 1.00227 0.6961 0.19206 0.0
C60 C 0.99332 0.67502 0.14867 0.0
C61 C 1.01007 0.65617 0.12081 0.0
C62 C 0.03577 0.65858 0.13974 0.0
C63 C 0.04467 0.67961 0.18195 0.0
C64 C 0.09673 0.76088 0.21148 0.0
C65 C 0.11399 0.77418 0.25967 0.0
C66 C 0.12926 0.79285 0.22424 0.0
C67 C 0.12647 0.79937 0.14089 0.0
C68 C 0.11204 0.78323 0.09109 0.0
C69 C 0.09748 0.76395 0.12615 0.0
C70 C 0.024 0.77715 0.37987 0.0
C71 C 0.03711 0.78724 0.44677 0.0
C72 C 0.72611 1.00423 0.46354 0.0
C73 C 0.71336 0.02285 0.50935 0.0
C74 C 0.72295 0.04762 0.50769 0.0
C75 C 0.7437 0.05393 0.45841 0.0
H76 H 0.81119 0.99614 0.16629 0.0
H77 H 0.84716 0.98244 0.08239 0.0
H78 H 0.89359 0.03964 0.19407 0.0
H79 H 0.85772 0.05303 0.27733 0.0
H80 H 0.78236 0.07473 0.07533 0.0
H81 H 0.75277 0.09759 0.99167 0.0
H82 H 0.73236 0.14368 0.20017 0.0
H83 H 0.76046 0.11856 0.28572 0.0
H84 H 0.75588 0.99611 0.37716 0.0
H85 H 0.71939 0.9849 0.46388 0.0
H86 H 0.7136 0.06256 0.54116 0.0
H87 H 0.74971 0.0735 0.45578 0.0
N88 N 0.79422 0.03023 0.32101 0.0
N89 N 0.80307 0.06049 0.21799 0.0
N90 N 0.76838 0.06603 0.30468 0.0
C91 C 0.80926 0.03889 0.25833 0.0
C92 C 0.78274 0.07418 0.24097 0.0
C93 C 0.77378 0.04421 0.34511 0.0
C94 C 0.83187 0.02525 0.22946 0.0
C95 C 0.82941 1.00493 0.17528 0.0
C96 C 0.84993 0.99741 0.12637 0.0
C97 C 0.87329 1.01008 0.13078 0.0
C98 C 0.87607 0.02923 0.18946 0.0
C99 C 0.85554 0.03686 0.23761 0.0
C100 C 0.77297 0.09435 0.18736 0.0
C101 C 0.77213 0.0903 0.10265 0.0
C102 C 0.75506 0.1037 0.0543 0.0
C103 C 0.73889 0.12183 0.08961 0.0
C104 C 0.74328 0.12887 0.17154 0.0
C105 C 0.75964 0.11474 0.22064 0.0
C106 C 0.75574 0.03567 0.40977 0.0
C107 C 0.74722 1.01054 0.41468 0.0
C108 C 0.41117 0.70842 0.29925 0.0
C109 C 0.4017 0.71294 0.21998 0.0
C110 C 0.40491 0.73731 0.18586 0.0
C111 C 0.42123 0.75469 0.22244 0.0
H112 H 0.53644 0.80775 0.23389 0.0
H113 H 0.5458 0.84564 0.15109 0.0
H114 H 0.46712 0.86649 0.16034 0.0
H115 H 0.45793 0.8293 0.24255 0.0
H116 H 0.50977 0.75089 0.53042 0.0
H117 H 0.52371 0.71217 0.5989 0.0
H118 H 0.53719 0.67828 0.36219 0.0
H119 H 0.52468 0.71742 0.29559 0.0
H120 H 0.43587 0.72064 0.3936 0.0
H121 H 0.40906 0.69026 0.32931 0.0
H122 H 0.39688 0.74209 0.12692 0.0
H123 H 0.42568 0.77203 0.18979 0.0
N124 N 0.46545 0.78252 0.27996 0.0
N125 N 0.50676 0.77722 0.33049 0.0
N126 N 0.47524 0.74721 0.35975 0.0
C127 C 0.48949 0.79132 0.28774 0.0
C128 C 0.49929 0.75523 0.36785 0.0
C129 C 0.45818 0.76052 0.316 0.0
C130 C 0.49642 0.81534 0.24478 0.0
C131 C 0.52127 0.82066 0.21917 0.0
C132 C 0.52658 0.84226 0.17116 0.0
C133 C 0.50722 0.8592 0.1489 0.0
C134 C 0.4826 0.85416 0.17692 0.0
C135 C 0.47729 0.83261 0.22379 0.0
C136 C 0.51685 0.73742 0.40777 0.0
C137 C 0.51713 0.73559 0.49361 0.0
C138 C 0.52451 0.71306 0.53265 0.0
C139 C 0.53114 0.69155 0.4866 0.0
C140 C 0.53259 0.69422 0.40061 0.0
C141 C 0.5256 0.71686 0.36192 0.0
C142 C 0.43407 0.74812 0.2946 0.0
C143 C 0.42699 0.72591 0.33632 0.0
C144 C 0.19413 0.50351 0.08562 0.0
C145 C 0.19753 0.50614 1.00045 0.0
C146 C 0.22223 0.51065 0.97068 0.0
C147 C 0.24271 0.51316 0.02511 0.0
H148 H 0.34229 0.54823 0.20277 0.0
H149 H 0.38197 0.54016 0.27334 0.0
H150 H 0.35545 0.46564 0.34071 0.0
H151 H 0.31624 0.47358 0.26715 0.0
H152 H 0.28031 0.58502 0.36259 0.0
H153 H 0.26028 0.60536 0.48206 0.0
H154 H 0.21315 0.53947 0.51667 0.0
H155 H 0.23223 0.51997 0.39692 0.0
H156 H 0.21057 0.50479 0.20458 0.0
H157 H 0.17553 0.50049 0.11166 0.0
H158 H 0.22567 0.51261 0.90548 0.0
H159 H 0.26125 0.5176 1.0008 0.0
N160 N 0.28336 0.51255 0.16417 0.0
N161 N 0.29151 0.53383 0.28802 0.0
N162 N 0.25048 0.53211 0.23749 0.0
C163 C 0.29996 0.5202 0.22338 0.0
C164 C 0.26689 0.53977 0.29534 0.0
C165 C 0.25838 0.519 0.17092 0.0
C166 C 0.32632 0.51139 0.22827 0.0
C167 C 0.34561 0.5296 0.22844 0.0
C168 C 0.36814 0.52513 0.27061 0.0
C169 C 0.3717 0.50253 0.31516 0.0
C170 C 0.35351 0.48327 0.30729 0.0
C171 C 0.33106 0.48768 0.2642 0.0
C172 C 0.25738 0.55123 0.37078 0.0
C173 C 0.26593 0.57493 0.39705 0.0
C174 C 0.2547 0.5864 0.46532 0.0
C175 C 0.23556 0.57377 0.50925 0.0
C176 C 0.22828 0.5494 0.48516 0.0
C177 C 0.23888 0.53838 0.41605 0.0
C178 C 0.23881 0.51152 0.11034 0.0
C179 C 0.21434 0.50614 0.13935 0.0
C180 C 0.99936 0.21528 0.96643 0.0
C181 C 1.00922 0.20885 0.88888 0.0
C182 C 0.02461 0.22667 0.84805 0.0
C183 C 0.0318 0.24912 0.88667 0.0
H184 H 0.07803 0.3428 0.15747 0.0
H185 H 0.06828 0.37786 0.24703 0.0
H186 H 0.98965 0.35653 0.247 0.0
H187 H 0.9995 0.32126 0.15484 0.0
H188 H 0.10463 0.28305 0.23071 0.0
H189 H 0.1205 0.24951 0.31877 0.0
H190 H 0.11367 0.1968 0.11884 0.0
H191 H 0.09971 0.23041 0.03036 0.0
H192 H 1.00039 0.24119 0.06733 0.0
H193 H 0.98721 0.20222 0.99937 0.0
H194 H 0.03281 0.22242 0.78881 0.0
H195 H 0.04565 0.26117 0.85682 0.0
N196 N 0.03132 0.29262 0.05455 0.0
N197 N 0.07013 0.29529 0.12416 0.0
N198 N 0.06266 0.26173 0.03603 0.0
C199 C 0.04715 0.30534 0.10631 0.0
C200 C 0.07801 0.27347 0.08953 0.0
C201 C 0.03957 0.27093 0.01779 0.0
C202 C 0.0396 0.32893 0.14959 0.0
C203 C 0.05856 0.34565 0.17561 0.0
C204 C 0.05299 0.36576 0.22764 0.0
C205 C 0.02827 0.36979 0.25621 0.0
C206 C 1.00893 0.35401 0.22641 0.0
C207 C 0.01454 0.3338 0.17346 0.0
C208 C 0.09914 0.25888 0.12538 0.0
C209 C 0.10784 0.2646 0.20432 0.0
C210 C 0.11677 0.24523 0.25517 0.0
C211 C 0.11634 0.22001 0.22805 0.0
C212 C 0.11337 0.21571 0.14362 0.0
C213 C 0.10504 0.23513 0.09242 0.0
C214 C 0.02352 0.25458 0.96654 0.0
C215 C 1.00643 0.23791 1.00476 0.0
C216 C 0.31765 1.00038 0.02613 0.0
C217 C 0.33077 0.0161 0.97003 0.0
C218 C 0.31987 0.03944 0.9488 0.0
C219 C 0.29783 0.04778 0.98784 0.0
H220 H 0.21307 0.99961 0.19775 0.0
H221 H 0.17583 0.98523 0.27549 0.0
H222 H 0.16177 0.0622 0.35022 0.0
H223 H 0.1974 0.07629 0.27051 0.0
H224 H 0.2546 0.09155 0.36478 0.0
H225 H 0.28681 0.09901 0.4671 0.0
H226 H 0.34188 0.11097 0.27497 0.0
H227 H 0.30984 0.10369 0.17277 0.0
H228 H 0.28688 0.99705 0.11227 0.0
H229 H 0.32529 0.98214 0.0433 0.0
H230 H 0.32938 0.0522 0.90665 0.0
H231 H 0.2912 0.06676 0.97508 0.0
N232 N 0.24638 0.03598 0.13455 0.0
N233 N 0.2434 0.06891 0.23057 0.0
N234 N 0.27856 0.06648 0.14511 0.0
C235 C 0.23307 0.04828 0.19463 0.0
C236 C 0.26609 0.07809 0.20673 0.0
C237 C 0.26906 0.04568 0.10835 0.0
C238 C 0.20846 0.03907 0.2283 0.0
C239 C 0.20152 0.01342 0.22905 0.0
C240 C 0.18033 1.00519 0.27465 0.0
C241 C 0.16562 0.02244 0.32033 0.0
C242 C 0.17205 0.04819 0.3155 0.0
C243 C 0.1929 0.05632 0.27004 0.0
C244 C 0.28014 0.09541 0.26084 0.0
C245 C 0.27323 0.09715 0.34402 0.0
C246 C 0.2917 0.10154 0.403 0.0
C247 C 0.31706 0.10421 0.37898 0.0
C248 C 0.3226 0.10835 0.29561 0.0
C249 C 0.30419 0.10391 0.23667 0.0
C250 C 0.28581 0.03293 0.04833 0.0
C251 C 0.29536 1.00869 0.06468 0.0
C252 C 0.40199 0.30716 0.19474 0.0
C253 C 0.40063 0.30379 0.28028 0.0
C254 C 0.39876 0.27893 0.31121 0.0
C255 C 0.40478 0.25847 0.26101 0.0
H256 H 0.50778 0.19238 0.18761 0.0
H257 H 0.51749 0.15812 0.28584 0.0
H258 H 0.43795 0.14652 0.32784 0.0
H259 H 0.42824 0.17996 0.23074 0.0
H260 H 0.45981 0.25532 0.89976 0.0
H261 H 0.47255 0.29384 0.82824 0.0
H262 H 0.5233 0.31145 0.02596 0.0
H263 H 0.51014 0.27278 0.09765 0.0
H264 H 0.41162 0.29045 0.08039 0.0
H265 H 0.4027 0.32582 0.16733 0.0
H266 H 0.39615 0.2755 0.37622 0.0
H267 H 0.40706 0.24003 0.28923 0.0
N268 N 0.43844 0.22448 0.17697 0.0
N269 N 0.47593 0.22386 0.09844 0.0
N270 N 0.44621 0.25642 0.08153 0.0
C271 C 0.46034 0.21273 0.15575 0.0
C272 C 0.4683 0.24559 0.05976 0.0
C273 C 0.43124 0.24633 0.14043 0.0
C274 C 0.46723 0.1893 0.20211 0.0
C275 C 0.49241 0.18207 0.21635 0.0
C276 C 0.49798 0.16249 0.27261 0.0
C277 C 0.47845 0.14993 0.31553 0.0
C278 C 0.4534 0.15609 0.29687 0.0
C279 C 0.44789 0.17536 0.24102 0.0
C280 C 0.48439 0.26067 1.00347 0.0
C281 C 0.47476 0.26668 0.92566 0.0
C282 C 0.48189 0.28903 0.88509 0.0
C283 C 0.49865 0.30616 0.92179 0.0
C284 C 0.51002 0.29898 0.99636 0.0
C285 C 0.50297 0.27647 0.03669 0.0
C286 C 0.41206 0.26279 0.17917 0.0
C287 C 0.40737 0.28669 0.14436 0.0
Ho288 Ho 0.02529 1.00244 0.79158 0.0
Ho289 Ho 1.00024 0.02111 0.62493 0.0
C290 C 1.00768 0.96066 0.66156 0.0
C291 C 0.04085 0.99221 0.93729 0.0
C292 C 0.0591 0.97454 0.97332 0.0
C293 C 0.05374 0.9635 0.04951 0.0
C294 C 0.06992 0.94541 0.08265 0.0
C295 C 0.09197 0.93811 0.04038 0.0
C296 C 0.09764 0.9498 0.9648 0.0
C297 C 0.08128 0.96779 0.93134 0.0
C298 C 0.05623 1.00856 0.66002 0.0
C299 C 1.00919 0.06137 0.76918 0.0
C300 C 0.99946 0.03895 0.47818 0.0
C301 C 0.01439 0.06 0.4438 0.0
C302 C 0.02485 0.05851 0.36494 0.0
C303 C 0.04211 0.07684 0.33761 0.0
C304 C 0.04969 0.0966 0.38966 0.0
C305 C 0.03885 0.09794 0.46841 0.0
C306 C 0.02109 0.08023 0.49429 0.0
C307 C 0.96416 1.00874 0.73804 0.0
O308 O 0.01271 0.96543 0.73958 0.0
O309 O 1.00466 0.97887 0.60575 0.0
O310 O 0.05027 1.01046 0.89184 0.0
O311 O 0.02063 0.9819 0.90567 0.0
O312 O 0.05934 0.9912 0.71545 0.0
O313 O 0.03791 0.02241 0.68008 0.0
O314 O 1.00724 0.05808 0.68907 0.0
O315 O 0.01269 0.04215 0.82036 0.0
O316 O 0.98268 0.04508 0.53405 0.0
O317 O 0.01273 0.019 0.49874 0.0
O318 O 0.95911 0.01614 0.66365 0.0
O319 O 0.98773 1.00776 0.74422 0.0
H320 H 0.03664 0.96839 0.08248 0.0
H321 H 0.06455 0.93644 0.13997 0.0
H322 H 0.1145 0.94479 0.93091 0.0
H323 H 0.08574 0.97607 0.87212 0.0
H324 H 0.02008 0.04293 0.3252 0.0
H325 H 0.04957 0.07536 0.27597 0.0
H326 H 0.0445 0.11225 0.51165 0.0
H327 H 0.01355 0.08177 0.55567 0.0
Ho328 Ho 0.5263 0.01601 0.78467 0.0
Ho329 Ho 0.51246 0.98465 0.64641 0.0
C330 C 0.57053 0.99755 0.65588 0.0
C331 C 0.54467 0.0362 0.91516 0.0
C332 C 0.56427 0.05454 0.93608 0.0
C333 C 0.57387 0.05444 0.0156 0.0
C334 C 0.59252 0.07162 0.03757 0.0
C335 C 0.60184 0.08944 0.98043 0.0
C336 C 0.592 0.08957 0.90049 0.0
C337 C 0.57335 0.07219 0.87841 0.0
C338 C 0.51214 0.04338 0.65082 0.0
C339 C 0.46921 1.00424 0.76844 0.0
C340 C 0.48799 0.96712 0.52402 0.0
C341 C 0.46219 0.97487 0.50124 0.0
C342 C 0.45892 0.9925 0.4375 0.0
C343 C 0.43678 1.00663 0.4326 0.0
C344 C 0.41743 1.00321 0.49087 0.0
C345 C 0.41955 0.98365 0.54892 0.0
C346 C 0.44174 0.96961 0.55417 0.0
C347 C 0.52751 0.95745 0.77892 0.0
O348 O 0.56499 1.00785 0.72785 0.0
O349 O 0.5527 0.9883 0.60865 0.0
O350 O 0.52522 0.04522 0.87595 0.0
O351 O 0.55245 0.01458 0.88608 0.0
O352 O 0.5068 0.04942 0.72558 0.0
O353 O 0.52574 0.02391 0.65108 0.0
O354 O 0.47552 1.00165 0.69067 0.0
O355 O 0.48711 1.00504 0.82388 0.0
O356 O 0.49018 0.9547 0.59317 0.0
O357 O 0.50502 0.98489 0.51626 0.0
O358 O 0.53355 0.95231 0.70372 0.0
O359 O 0.51325 0.97656 0.78015 0.0
H360 H 0.56711 0.04085 0.06065 0.0
H361 H 0.60011 0.07041 0.09895 0.0
H362 H 0.59872 0.10303 0.85509 0.0
H363 H 0.56607 0.07247 0.81649 0.0
H364 H 0.47424 0.99679 0.39541 0.0
H365 H 0.43525 0.02097 0.38523 0.0
H366 H 0.40484 0.98038 0.59408 0.0
H367 H 0.44351 0.95608 0.60388 0.0
Ho368 Ho 0.49501 0.51414 0.83368 0.0
Ho369 Ho 0.51736 0.49592 0.67747 0.0
C370 C 0.5159 0.55686 0.71306 0.0
C371 C 0.47677 0.52343 0.97767 0.0
C372 C 0.45773 0.54121 1.00823 0.0
C373 C 0.44134 0.55343 0.95361 0.0
C374 C 0.42418 0.57137 0.98206 0.0
C375 C 0.42319 0.57754 0.06567 0.0
C376 C 0.43896 0.56446 0.12068 0.0
C377 C 0.45611 0.54644 0.09207 0.0
C378 C 0.46317 0.51385 0.70398 0.0
C379 C 0.50284 0.45471 0.8095 0.0
C380 C 0.52142 0.48304 0.52623 0.0
C381 C 0.50812 0.46189 0.48748 0.0
C382 C 0.49819 0.46426 0.40837 0.0
C383 C 0.48161 0.44589 0.3784 0.0
C384 C 0.4741 0.42526 0.42818 0.0
C385 C 0.48443 0.4231 0.50716 0.0
C386 C 0.50156 0.44083 0.53548 0.0
C387 C 0.5509 0.496 0.80135 0.0
O388 O 0.5076 0.55209 0.78816 0.0
O389 O 0.52063 0.53848 0.66026 0.0
O390 O 0.46818 0.50572 0.9299 0.0
O391 O 0.49775 0.53348 0.94998 0.0
O392 O 0.46408 0.53145 0.75822 0.0
O393 O 0.47861 0.49669 0.72261 0.0
O394 O 0.50208 0.45947 0.73009 0.0
O395 O 0.50479 0.47354 0.86165 0.0
O396 O 0.53821 0.4769 0.58148 0.0
O397 O 0.5065 0.50113 0.55087 0.0
O398 O 0.55108 0.48002 0.74141 0.0
O399 O 0.5344 0.51286 0.78904 0.0
H400 H 0.44213 0.54949 0.8887 0.0
H401 H 0.41214 0.58093 0.93828 0.0
H402 H 0.43895 0.569 0.1853 0.0
H403 H 0.46855 0.5371 0.1351 0.0
H404 H 0.50273 0.4806 0.37073 0.0
H405 H 0.47449 0.44811 0.31675 0.0
H406 H 0.47882 0.40814 0.54895 0.0
H407 H 0.50891 0.43849 0.59663 0.0
Ho408 Ho 1.00253 0.48112 0.78637 0.0
Ho409 Ho 0.01766 0.51927 0.67425 0.0
C410 C 0.96117 0.50275 0.65969 0.0
C411 C 0.98145 0.45127 0.89293 0.0
C412 C 0.95896 0.43509 0.89798 0.0
C413 C 0.9362 0.44226 0.86109 0.0
C414 C 0.91451 0.42764 0.87278 0.0
C415 C 0.91528 0.40554 0.92122 0.0
C416 C 0.93853 0.39766 0.95369 0.0
C417 C 0.96016 0.41238 0.94235 0.0
C418 C 0.02216 0.46177 0.64578 0.0
C419 C 0.05933 0.49722 0.80165 0.0
C420 C 0.03919 0.54975 0.57123 0.0
C421 C 0.05945 0.56823 0.58158 0.0
C422 C 0.07126 0.5788 0.51274 0.0
C423 C 0.09272 0.59377 0.52195 0.0
C424 C 0.10273 0.59836 0.60037 0.0
C425 C 0.08969 0.58908 0.66961 0.0
C426 C 0.06826 0.57403 0.66023 0.0
C427 C 0.99997 0.53887 0.81773 0.0
O428 O 0.96481 0.4935 0.73403 0.0
O429 O 0.98068 0.51027 0.61559 0.0
O430 O 0.99892 0.44402 0.84185 0.0
O431 O 0.9777 0.47567 0.89051 0.0
O432 O 0.02763 0.45418 0.71886 0.0
O433 O 1.00659 0.47977 0.64971 0.0
O434 O 0.05578 0.50793 0.72903 0.0
O435 O 0.03981 0.48873 0.84384 0.0
O436 O 0.01818 0.55496 0.60934 0.0
O437 O 0.04588 0.52615 0.58044 0.0
O438 O 0.99414 0.54696 0.74551 0.0
O439 O 0.01458 0.52023 0.81038 0.0
H440 H 0.93495 0.45958 0.82572 0.0
H441 H 0.89689 0.43445 0.84769 0.0
H442 H 0.93981 0.38058 0.99035 0.0
H443 H 0.97768 0.40639 0.97027 0.0
H444 H 0.06464 0.57448 0.4517 0.0
H445 H 0.10246 0.60015 0.46708 0.0
H446 H 0.0968 0.59237 0.73073 0.0
H447 H 0.05919 0.56603 0.71417 0.0
H448 H 0.12161 0.04717 0.3595 0.0
H449 H 0.16272 0.9786 0.41246 0.0
H450 H 0.13178 0.96742 0.51788 0.0
H451 H 0.09473 0.97875 0.60367 0.0
H452 H 0.05683 0.04936 0.55913 0.0
H453 H 0.08523 0.05842 0.44404 0.0
C454 C 0.12408 0.02983 0.39427 0.0
C455 C 0.14491 0.01398 0.37771 0.0
C456 C 0.10678 0.02396 0.45736 0.0
C457 C 0.14694 0.99118 0.42237 0.0
C458 C 0.12933 0.98487 0.48372 0.0
C459 C 0.0926 0.99603 0.56828 0.0
C460 C 0.07335 0.01325 0.58903 0.0
C461 C 0.10946 1.00136 0.50301 0.0
C462 C 0.07101 0.0356 0.54303 0.0
C463 C 0.08735 0.04083 0.47752 0.0
H464 H 0.50804 0.10705 0.31889 0.0
H465 H 0.45986 0.15332 0.46959 0.0
H466 H 0.46568 0.12456 0.58531 0.0
H467 H 0.48418 0.08619 0.64463 0.0
H468 H 0.53133 0.03858 0.49531 0.0
H469 H 0.52612 0.06758 0.3787 0.0
C470 C 0.49901 0.11084 0.37729 0.0
C471 C 0.48354 0.13235 0.38551 0.0
C472 C 0.50213 0.09386 0.44391 0.0
C473 C 0.47174 0.13686 0.46143 0.0
C474 C 0.47506 0.12042 0.52776 0.0
C475 C 0.49331 0.08215 0.58654 0.0
C476 C 0.50824 0.06033 0.57891 0.0
C477 C 0.49012 0.09882 0.51977 0.0
C478 C 0.51977 0.05527 0.50294 0.0
C479 C 0.51684 0.0719 0.43624 0.0
H480 H 0.38798 0.53931 0.41757 0.0
H481 H 0.40052 0.46105 0.35845 0.0
H482 H 0.43067 0.45746 0.47145 0.0
H483 H 0.45261 0.47654 0.59119 0.0
H484 H 0.43783 0.55459 0.64937 0.0
H485 H 0.41008 0.55834 0.53178 0.0
C486 C 0.39773 0.52157 0.42763 0.0
C487 C 0.39211 0.50058 0.37829 0.0
C488 C 0.41475 0.51958 0.49313 0.0
C489 C 0.40446 0.47757 0.39495 0.0
C490 C 0.42177 0.47551 0.4596 0.0
C491 C 0.44336 0.49434 0.57771 0.0
C492 C 0.44721 0.51522 0.62951 0.0
C493 C 0.4269 0.49635 0.50987 0.0
C494 C 0.4351 0.53817 0.61112 0.0
C495 C 0.41921 0.54038 0.54364 0.0
H496 H 0.05708 0.38053 0.38888 0.0
H497 H 0.98824 0.40302 0.26936 0.0
H498 H 0.98083 0.43479 0.37563 0.0
H499 H 0.99371 0.45571 0.50579 0.0
H500 H 0.0622 0.43146 0.62401 0.0
H501 H 0.07026 0.40151 0.51412 0.0
C502 C 0.04061 0.3926 0.38505 0.0
C503 C 0.02338 0.38939 0.3204 0.0
C504 C 0.03648 0.41074 0.44627 0.0
C505 C 1.00179 0.40486 0.31839 0.0
C506 C 0.99762 0.42318 0.37903 0.0
C507 C 1.01055 0.4441 0.50659 0.0
C508 C 0.02744 0.44592 0.57287 0.0
C509 C 0.01481 0.42628 0.4436 0.0
C510 C 0.04896 0.43046 0.57375 0.0
C511 C 0.05354 0.41324 0.51103 0.0
H512 H 0.8681 1.00353 0.96641 0.0
H513 H 0.92458 1.00737 0.15512 0.0
H514 H 0.95797 1.00545 0.05109 0.0
H515 H 0.97115 1.00578 0.90462 0.0
H516 H 0.91399 1.00325 0.71782 0.0
H517 H 0.88105 1.00112 0.82252 0.0
C518 C 0.88769 1.00335 0.98516 0.0
C519 C 0.8937 1.00557 0.06879 0.0
C520 C 0.90679 1.00262 0.92494 0.0
C521 C 0.91932 1.00588 0.09129 0.0
C522 C 0.93846 1.00476 0.03174 0.0
C523 C 0.9515 1.00435 0.88713 0.0
C524 C 0.94503 1.00466 0.8035 0.0
C525 C 0.93245 1.00361 0.94811 0.0
C526 C 0.91948 1.00309 0.78169 0.0
C527 C 0.90059 1.00191 0.84159 0.0
H528 H 0.53645 0.86154 0.01008 0.0
H529 H 0.48837 0.90714 0.16339 0.0
H530 H 0.49151 0.94209 0.0654 0.0
H531 H 0.50549 0.95885 0.93096 0.0
H532 H 0.55336 0.9131 0.77754 0.0
H533 H 0.55306 0.87947 0.88081 0.0
C534 C 0.52705 0.87927 0.0229 0.0
C535 C 0.51199 0.88149 0.09393 0.0
C536 C 0.52878 0.89935 0.96575 0.0
C537 C 0.49976 0.90465 0.10874 0.0
C538 C 0.50159 0.92473 0.05273 0.0
C539 C 0.51608 0.94163 0.92061 0.0
C540 C 0.52926 0.93845 0.84623 0.0
C541 C 0.51562 0.92215 0.98015 0.0
C542 C 0.54292 0.91602 0.83394 0.0
C543 C 0.54274 0.89672 0.89301 0.0
H544 H 0.63041 0.46688 0.07058 0.0
H545 H 0.62799 0.54683 0.11825 0.0
H546 H 0.59546 0.55214 0.01275 0.0
H547 H 0.56809 0.53368 0.90374 0.0
H548 H 0.57303 0.45373 0.85636 0.0
H549 H 0.60365 0.44875 0.96577 0.0
C550 C 0.62253 0.48547 0.05899 0.0
C551 C 0.63145 0.50636 0.10318 0.0
C552 C 0.60416 0.48835 0.99801 0.0
C553 C 0.62149 0.5304 0.08525 0.0
C554 C 0.60282 0.53342 0.02505 0.0
C555 C 0.57579 0.51521 0.91807 0.0
C556 C 0.56834 0.49409 0.87183 0.0
C557 C 0.59404 0.5125 0.98061 0.0
C558 C 0.57859 0.47029 0.89055 0.0
C559 C 0.59611 0.4674 0.95321 0.0
H560 H 0.02445 0.60641 0.12479 0.0
H561 H 0.97682 0.65863 0.99316 0.0
H562 H 0.96748 0.62611 0.89228 0.0
H563 H 0.97621 0.5842 0.83344 0.0
H564 H 0.02467 0.53231 0.96295 0.0
H565 H 0.03027 0.56322 0.07218 0.0
C566 C 0.01189 0.61066 0.07432 0.0
C567 C 1.00155 0.63513 0.06657 0.0
C568 C 1.0069 0.59192 0.01554 0.0
C569 C 0.98493 0.64002 1.00141 0.0
C570 C 0.97974 0.62145 0.9431 0.0
C571 C 0.98771 0.57952 0.88617 0.0
C572 C 1.00018 0.55602 0.88956 0.0
C573 C 0.99109 0.59754 0.94842 0.0
C574 C 0.0149 0.55023 0.95857 0.0
C575 C 0.01821 0.56798 0.02095 0.0
H576 H 0.12867 0.1694 0.21752 0.0
H577 H 0.08936 0.22309 0.37082 0.0
H578 H 0.06687 0.18916 0.43793 0.0
H579 H 0.05178 0.14614 0.43368 0.0
H580 H 0.0904 0.09099 0.28469 0.0
H581 H 0.11838 0.12402 0.23167 0.0
C582 C 0.11551 0.17368 0.26657 0.0
C583 C 0.11045 0.19906 0.28684 0.0
C584 C 0.10153 0.15398 0.30321 0.0
C585 C 0.09396 0.20399 0.35294 0.0
C586 C 0.08056 0.18452 0.3908 0.0
C587 C 0.06675 0.14088 0.39172 0.0
C588 C 0.06847 0.11599 0.36242 0.0
C589 C 0.08319 0.1597 0.36328 0.0
C590 C 0.08789 0.1101 0.30646 0.0
C591 C 0.10419 0.12893 0.27687 0.0
H592 H 0.31479 0.06056 0.46333 0.0
H593 H 0.36496 0.12247 0.40553 0.0
H594 H 0.40117 0.09661 0.44606 0.0
H595 H 0.41847 0.05426 0.47319 0.0
H596 H 0.36773 0.99164 0.51627 0.0
H597 H 0.33169 0.0201 0.50743 0.0
C598 C 0.33351 0.06886 0.46282 0.0
C599 C 0.33721 0.09339 0.43107 0.0
C600 C 0.35416 0.05347 0.48138 0.0
C601 C 0.36168 0.10363 0.42966 0.0
C602 C 0.38236 0.08873 0.45178 0.0
C603 C 0.3995 0.04686 0.48058 0.0
C604 C 0.39571 0.02078 0.49311 0.0
C605 C 0.37885 0.06322 0.47317 0.0
C606 C 0.37114 1.01159 0.5058 0.0
C607 C 0.35052 0.02785 0.50063 0.0
H608 H 0.39187 0.35503 0.26501 0.0
H609 H 0.43022 0.29984 0.41632 0.0
H610 H 0.45529 0.33278 0.4767 0.0
H611 H 0.47171 0.37526 0.46951 0.0
H612 H 0.43438 0.43167 0.32083 0.0
H613 H 0.40494 0.39973 0.27233 0.0
C614 C 0.40545 0.35021 0.31201 0.0
C615 C 0.40922 0.32469 0.33433 0.0
C616 C 0.42089 0.36925 0.34454 0.0
C617 C 0.42644 0.3191 0.39747 0.0
C618 C 0.44132 0.33796 0.43132 0.0
C619 C 0.45674 0.38105 0.42856 0.0
C620 C 0.45551 0.4061 0.39933 0.0
C621 C 0.43949 0.36282 0.40255 0.0
C622 C 0.43628 0.41254 0.34368 0.0
C623 C 0.41918 0.39431 0.31649 0.0
H624 H 0.21038 0.6172 0.48475 0.0
H625 H 0.22339 0.55885 0.66487 0.0
H626 H 0.18258 0.56753 0.72846 0.0
H627 H 0.13946 0.58119 0.70144 0.0
H628 H 0.12512 0.63713 0.51378 0.0
H629 H 0.17026 0.64029 0.48526 0.0
C630 C 0.20483 0.60738 0.54062 0.0
C631 C 0.21936 0.58697 0.56896 0.0
C632 C 0.18069 0.61143 0.5735 0.0
C633 C 0.21219 0.5744 0.64154 0.0
C634 C 0.1887 0.57913 0.67709 0.0
C635 C 0.14618 0.59501 0.65704 0.0
C636 C 0.12889 0.60813 0.60734 0.0
C637 C 0.17203 0.59601 0.63898 0.0
C638 C 0.13806 0.62613 0.55077 0.0
C639 C 0.16386 0.62791 0.53433 0.0
H640 H 0.12668 0.84279 0.23042 0.0
H641 H 0.13935 0.81566 0.98429 0.0
H642 H 0.13283 0.85828 0.93072 0.0
H643 H 0.11464 0.9005 0.95267 0.0
H644 H 0.10416 0.92748 0.19977 0.0
H645 H 0.11934 0.88734 0.25397 0.0
C646 C 0.12917 0.84602 0.16527 0.0
C647 C 0.13247 0.82553 0.11143 0.0
C648 C 0.12524 0.87049 0.13477 0.0
C649 C 0.13573 0.83074 0.02724 0.0
C650 C 0.13202 0.85517 0.9964 0.0
C651 C 0.11648 0.89802 0.01837 0.0
C652 C 0.10735 0.91671 0.07205 0.0
C653 C 0.12526 0.87484 0.04934 0.0
C654 C 0.1101 0.91307 0.15701 0.0
C655 C 0.11891 0.89016 0.18812 0.0
H656 H 0.69359 0.13258 0.16288 0.0
H657 H 0.728 0.12509 0.92335 0.0
H658 H 0.68662 0.11746 0.86411 0.0
H659 H 0.64275 0.10334 0.8875 0.0
H660 H 0.60872 0.11364 0.12602 0.0
H661 H 0.64823 0.13048 0.17782 0.0
C662 C 0.69238 0.13041 0.09711 0.0
C663 C 0.71439 0.12801 0.04885 0.0
C664 C 0.66857 0.12602 0.06333 0.0
C665 C 0.71166 0.12562 0.96333 0.0
C666 C 0.68792 0.12132 0.9291 0.0
C667 C 0.64364 0.11009 0.95 0.0
C668 C 0.6231 0.10619 1.00378 0.0
C669 C 0.66649 0.11982 0.97964 0.0
C670 C 0.62459 0.1154 0.08426 0.0
C671 C 0.64715 0.12517 0.11389 0.0
H672 H 0.37921 0.66781 0.26532 0.0
H673 H 0.4092 0.70776 0.05402 0.0
H674 H 0.41327 0.66845 0.98118 0.0
H675 H 0.41909 0.62291 0.98977 0.0
H676 H 0.39462 0.58215 0.20582 0.0
H677 H 0.37876 0.62141 0.26527 0.0
C678 C 0.38646 0.66804 0.2031 0.0
C679 C 0.39484 0.69095 0.16738 0.0
C680 C 0.39069 0.645 0.16307 0.0
C681 C 0.40272 0.69075 0.08467 0.0
C682 C 0.40553 0.66805 0.04281 0.0
C683 C 0.40953 0.62239 0.04869 0.0
C684 C 0.40844 0.59971 0.09392 0.0
C685 C 0.40123 0.64507 0.08341 0.0
C686 C 0.39616 0.59949 0.17053 0.0
C687 C 0.38705 0.62192 0.20441 0.0
H688 H 0.80241 0.38036 0.99866 0.0
H689 H 0.83345 0.37944 0.24351 0.0
H690 H 0.87558 0.37868 0.18759 0.0
H691 H 0.90336 0.38882 0.07334 0.0
H692 H 0.87332 0.39508 0.82886 0.0
H693 H 0.83126 0.38423 0.88082 0.0
C694 C 0.81832 0.37983 0.04006 0.0
C695 C 0.8143 0.3808 0.12555 0.0
C696 C 0.8429 0.38119 1.00762 0.0
C697 C 0.83539 0.37875 0.17756 0.0
C698 C 0.85979 0.37873 0.14562 0.0
C699 C 0.88785 0.38696 0.03071 0.0
C700 C 0.89141 0.39314 0.94755 0.0
C701 C 0.86371 0.38152 0.06124 0.0
C702 C 0.87096 0.39089 0.89351 0.0
C703 C 0.84693 0.38466 0.92319 0.0
H704 H 1.01039 0.16353 0.97036 0.0
H705 H 1.00109 0.19543 0.72844 0.0
H706 H 0.99992 0.15301 0.67014 0.0
H707 H 1.00306 0.10663 0.68708 0.0
H708 H 0.01235 0.07518 0.92999 0.0
H709 H 1.01168 0.11743 0.98799 0.0
C710 C 1.00759 0.16128 0.90504 0.0
C711 C 1.00579 0.18287 0.85417 0.0
C712 C 1.00709 0.13676 0.87169 0.0
C713 C 1.00274 0.17932 0.76931 0.0
C714 C 1.00203 0.15499 0.73581 0.0
C715 C 1.00484 0.10895 0.75274 0.0
C716 C 1.00787 0.08748 0.80366 0.0
C717 C 1.00451 0.13352 0.78624 0.0
C718 C 1.01008 0.09113 0.88876 0.0
C719 C 1.00969 0.11539 0.92229 0.0
H720 H 0.35185 0.02319 0.81684 0.0
H721 H 0.36917 0.99543 0.05937 0.0
H722 H 0.41307 0.98915 0.01895 0.0
H723 H 0.44735 0.99333 0.91672 0.0
H724 H 0.43021 0.02092 0.67419 0.0
H725 H 0.3858 0.02555 0.71244 0.0
C726 C 0.36518 0.01567 0.86083 0.0
C727 C 0.35696 1.00978 0.94124 0.0
C728 C 0.39064 1.01223 0.83728 0.0
C729 C 0.37464 0.99979 0.99681 0.0
C730 C 0.39992 0.99642 0.97397 0.0
C731 C 0.43389 1.00037 0.8723 0.0
C732 C 0.44217 1.00673 0.79257 0.0
C733 C 0.40824 1.00288 0.89475 0.0
C734 C 0.42437 0.01561 0.73564 0.0
C735 C 0.39893 0.01838 0.75766 0.0
H736 H 0.50075 0.35078 1.00485 0.0
H737 H 0.50304 0.32076 0.7598 0.0
H738 H 0.50413 0.36367 0.70312 0.0
H739 H 0.50352 0.41008 0.72303 0.0
H740 H 0.50166 0.43941 0.96929 0.0
H741 H 0.50153 0.39663 0.02483 0.0
C742 C 0.502 0.35351 0.93904 0.0
C743 C 0.50191 0.33233 0.88699 0.0
C744 C 0.50251 0.37829 0.90671 0.0
C745 C 0.50291 0.33655 0.80167 0.0
C746 C 0.50356 0.36116 0.76908 0.0
C747 C 0.50307 0.40714 0.78882 0.0
C748 C 0.5025 0.42818 0.84157 0.0
C749 C 0.50312 0.38224 0.82096 0.0
C750 C 0.50205 0.42379 0.92679 0.0
C751 C 0.50201 0.39922 0.95889 0.0
H752 H 0.15652 0.4751 0.01242 0.0
H753 H 0.18727 0.53546 0.86365 0.0
H754 H 0.14803 0.53724 0.7849 0.0
H755 H 0.10328 0.52368 0.76518 0.0
H756 H 0.07311 0.46479 0.92193 0.0
H757 H 0.1134 0.46089 0.99086 0.0
C758 C 0.15474 0.48877 0.963 0.0
C759 C 0.17494 0.50529 0.94512 0.0
C760 C 0.13192 0.49019 0.91955 0.0
C761 C 0.17226 0.52234 0.87896 0.0
C762 C 0.14965 0.52355 0.83424 0.0
C763 C 0.10563 0.50988 0.81395 0.0
C764 C 0.08494 0.49469 0.83847 0.0
C765 C 0.1291 0.50787 0.85493 0.0
C766 C 0.08844 0.47696 0.90207 0.0
C767 C 0.11159 0.47462 0.94164 0.0
H768 H 0.01187 0.84216 0.60805 0.0
H769 H 0.99533 0.86486 0.35963 0.0
H770 H 0.99235 0.90888 0.4024 0.0
H771 H 0.9973 0.94154 0.50877 0.0
H772 H 0.0148 0.91848 0.75646 0.0
H773 H 0.01484 0.8744 0.71514 0.0
C774 C 1.00756 0.85669 0.56312 0.0
C775 C 1.00391 0.84996 0.48049 0.0
C776 C 1.0063 0.88214 0.58786 0.0
C777 C 0.99791 0.8692 0.42379 0.0
C778 C 0.99646 0.89452 0.44809 0.0
C779 C 1.00099 0.92691 0.55393 0.0
C780 C 1.00619 0.93362 0.63574 0.0
C781 C 1.00104 0.90131 0.52974 0.0
C782 C 1.01081 0.91416 0.69306 0.0
C783 C 1.01085 0.8888 0.6695 0.0
H784 H 0.67363 0.99412 0.45802 0.0
H785 H 0.69821 0.03967 0.66073 0.0
H786 H 0.65681 0.03516 0.72587 0.0
H787 H 0.61255 0.02031 0.72158 0.0
H788 H 0.58838 0.97493 0.5175 0.0
H789 H 0.63049 0.97713 0.45793 0.0
C790 C 0.67015 1.00265 0.51725 0.0
C791 C 0.68914 0.01731 0.55394 0.0
C792 C 0.64615 1.00017 0.55422 0.0
C793 C 0.68396 0.02852 0.6303 0.0
C794 C 0.66024 0.02592 0.66779 0.0
C795 C 0.61653 1.01069 0.6645 0.0
C796 C 0.59705 0.9976 0.62421 0.0
C797 C 0.64098 1.01215 0.62969 0.0
C798 C 0.60276 0.9853 0.55007 0.0
C799 C 0.62695 0.98652 0.51567 0.0
H800 H 0.5066 0.67277 0.62309 0.0
H801 H 0.56188 0.65191 0.44019 0.0
H802 H 0.5621 0.60878 0.49333 0.0
H803 H 0.5451 0.57611 0.58794 0.0
H804 H 0.49232 0.59808 0.7766 0.0
H805 H 0.49323 0.64157 0.72617 0.0
C806 C 0.51925 0.65912 0.59569 0.0
C807 C 0.53394 0.66594 0.52644 0.0
C808 C 0.51971 0.63429 0.62762 0.0
C809 C 0.5498 0.64741 0.49195 0.0
C810 C 0.55009 0.62262 0.52271 0.0
C811 C 0.53395 0.59046 0.61841 0.0
C812 C 0.51856 0.58368 0.68583 0.0
C813 C 0.53479 0.61569 0.58965 0.0
C814 C 0.50443 0.60265 0.72488 0.0
C815 C 0.50485 0.62758 0.69582 0.0
H816 H 0.86012 0.50934 0.45455 0.0
H817 H 0.82782 0.48988 0.68991 0.0
H818 H 0.86976 0.49003 0.75123 0.0
H819 H 0.91593 0.4943 0.73738 0.0
H820 H 0.94806 0.51411 0.50197 0.0
H821 H 0.90602 0.51547 0.44208 0.0
C822 C 0.86215 0.50562 0.51961 0.0
C823 C 0.84068 0.49956 0.56727 0.0
C824 C 0.88642 0.50561 0.55461 0.0
C825 C 0.84392 0.49435 0.65132 0.0
C826 C 0.86795 0.49445 0.68658 0.0
C827 C 0.91377 0.49889 0.67297 0.0
C828 C 0.9353 0.50392 0.62438 0.0
C829 C 0.8894 0.49972 0.63863 0.0
C830 C 0.93196 0.5101 0.5411 0.0
C831 C 0.90785 0.51089 0.50661 0.0
loop_
_geom_bond_atom_site_label_1
_geom_bond_atom_site_label_2
_geom_bond_distance
_geom_bond_site_symmetry_2
_ccdc_geom_bond_type
C0 C1 1.384 . S
C0 H13 0.947 . S
C0 C35 1.382 . S
C1 C0 1.384 . S
C1 C2 1.378 . S
C2 C1 1.378 . S
C2 C3 1.378 . S
C2 H14 0.952 . S
C3 C2 1.378 . S
C3 H15 0.950 . S
C3 C34 1.383 . S
H4 C23 0.947 . S
H5 C24 0.946 . S
H6 C26 0.953 . S
H7 C27 0.945 . S
H8 C29 0.952 . S
H9 C30 0.949 . S
H10 C32 0.950 . S
H11 C33 0.948 . S
H12 C35 0.951 . S
H13 C0 0.947 . S
H14 C2 0.952 . S
H15 C3 0.950 . S
N16 C19 1.382 . S
N16 C21 1.363 . S
N17 C19 1.371 . S
N17 C20 1.372 . S
N18 C20 1.361 . S
N18 C21 1.377 . S
C19 N16 1.382 . S
C19 N17 1.371 . S
C19 C22 1.480 . S
C20 N17 1.372 . S
C20 N18 1.361 . S
C20 C28 1.457 . S
C21 N16 1.363 . S
C21 N18 1.377 . S
C21 C34 1.479 . S
C22 C19 1.480 . S
C22 C23 1.383 . S
C22 C27 1.385 . S
C23 H4 0.947 . S
C23 C22 1.383 . S
C23 C24 1.388 . S
C24 H5 0.946 . S
C24 C23 1.388 . S
C24 C25 1.384 . S
C25 C24 1.384 . S
C25 C26 1.377 . S
C26 H6 0.953 . S
C26 C25 1.377 . S
C26 C27 1.369 . S
C27 H7 0.945 . S
C27 C22 1.385 . S
C27 C26 1.369 . S
C28 C20 1.457 . S
C28 C29 1.372 . S
C28 C33 1.364 . S
C29 H8 0.952 . S
C29 C28 1.372 . S
C29 C30 1.389 . S
C30 H9 0.949 . S
C30 C29 1.389 . S
C30 C31 1.387 . S
C31 C30 1.387 . S
C31 C32 1.372 . S
C32 H10 0.950 . S
C32 C31 1.372 . S
C32 C33 1.379 . S
C33 H11 0.948 . S
C33 C28 1.364 . S
C33 C32 1.379 . S
C34 C3 1.383 . S
C34 C21 1.479 . S
C34 C35 1.398 . S
C35 C0 1.382 . S
C35 H12 0.951 . S
C35 C34 1.398 . S
C36 C37 1.384 1_655 S
C36 H49 0.948 . S
C36 C71 1.382 1_655 S
C37 C36 1.384 1_455 S
C37 C38 1.378 . S
C38 C37 1.378 . S
C38 C39 1.378 . S
C38 H50 0.952 . S
C39 C38 1.378 . S
C39 H51 0.950 . S
C39 C70 1.383 . S
H40 C59 0.947 . S
H41 C60 0.952 . S
H42 C62 0.953 . S
H43 C63 0.945 . S
H44 C65 0.949 1_655 S
H45 C66 0.956 . S
H46 C68 0.950 . S
H47 C69 0.948 . S
H48 C71 0.951 1_655 S
H49 C36 0.948 . S
H50 C38 0.952 . S
H51 C39 0.950 . S
N52 C55 1.382 . S
N52 C57 1.363 . S
N53 C55 1.371 . S
N53 C56 1.372 . S
N54 C56 1.361 . S
N54 C57 1.377 . S
C55 N52 1.382 . S
C55 N53 1.371 . S
C55 C58 1.480 . S
C56 N53 1.372 . S
C56 N54 1.361 . S
C56 C64 1.457 . S
C57 N52 1.363 . S
C57 N54 1.377 . S
C57 C70 1.479 . S
C58 C55 1.480 . S
C58 C59 1.383 . S
C58 C63 1.385 . S
C59 H40 0.947 . S
C59 C58 1.383 . S
C59 C60 1.386 1_455 S
C60 H41 0.952 . S
C60 C59 1.386 1_655 S
C60 C61 1.381 1_655 S
C61 C60 1.381 1_455 S
C61 C62 1.377 . S
C62 H42 0.953 . S
C62 C61 1.377 . S
C62 C63 1.369 . S
C63 H43 0.945 . S
C63 C58 1.385 . S
C63 C62 1.369 . S
C64 C56 1.457 . S
C64 C65 1.376 . S
C64 C69 1.364 . S
C65 H44 0.949 1_455 S
C65 C64 1.376 . S
C65 C66 1.386 1_455 S
C66 H45 0.956 . S
C66 C65 1.386 1_655 S
C66 C67 1.383 1_655 S
C67 C66 1.383 1_455 S
C67 C68 1.372 . S
C68 H46 0.950 . S
C68 C67 1.372 . S
C68 C69 1.379 . S
C69 H47 0.948 . S
C69 C64 1.364 . S
C69 C68 1.379 . S
C70 C39 1.383 . S
C70 C57 1.479 . S
C70 C71 1.398 . S
C71 C36 1.382 1_455 S
C71 H48 0.951 1_455 S
C71 C70 1.398 . S
C72 C73 1.384 1_565 S
C72 H85 0.948 . S
C72 C107 1.382 1_565 S
C73 C72 1.384 1_545 S
C73 C74 1.378 . S
C74 C73 1.378 . S
C74 C75 1.378 . S
C74 H86 0.952 . S
C75 C74 1.378 . S
C75 H87 0.950 . S
C75 C106 1.383 . S
H76 C95 0.947 . S
H77 C96 0.952 . S
H78 C98 0.953 . S
H79 C99 0.945 . S
H80 C101 0.949 1_565 S
H81 C102 0.957 . S
H82 C104 0.950 . S
H83 C105 0.948 . S
H84 C107 0.951 1_565 S
H85 C72 0.948 . S
H86 C74 0.952 . S
H87 C75 0.950 . S
N88 C91 1.382 . S
N88 C93 1.363 . S
N89 C91 1.371 . S
N89 C92 1.372 . S
N90 C92 1.361 . S
N90 C93 1.377 . S
C91 N88 1.382 . S
C91 N89 1.371 . S
C91 C94 1.480 . S
C92 N89 1.372 . S
C92 N90 1.361 . S
C92 C100 1.457 . S
C93 N88 1.363 . S
C93 N90 1.377 . S
C93 C106 1.479 . S
C94 C91 1.480 . S
C94 C95 1.383 . S
C94 C99 1.385 . S
C95 H76 0.947 . S
C95 C94 1.383 . S
C95 C96 1.386 1_545 S
C96 H77 0.952 . S
C96 C95 1.386 1_565 S
C96 C97 1.382 1_565 S
C97 C96 1.382 1_545 S
C97 C98 1.377 . S
C98 H78 0.953 . S
C98 C97 1.377 . S
C98 C99 1.369 . S
C99 H79 0.945 . S
C99 C94 1.385 . S
C99 C98 1.369 . S
C100 C92 1.457 . S
C100 C101 1.377 . S
C100 C105 1.364 . S
C101 H80 0.949 1_545 S
C101 C100 1.377 . S
C101 C102 1.386 1_545 S
C102 H81 0.957 . S
C102 C101 1.386 1_565 S
C102 C103 1.383 1_565 S
C103 C102 1.383 1_545 S
C103 C104 1.372 . S
C104 H82 0.950 . S
C104 C103 1.372 . S
C104 C105 1.379 . S
C105 H83 0.948 . S
C105 C100 1.364 . S
C105 C104 1.379 . S
C106 C75 1.383 . S
C106 C93 1.479 . S
C106 C107 1.398 . S
C107 C72 1.382 1_545 S
C107 H84 0.951 1_545 S
C107 C106 1.398 . S
C108 C109 1.384 . S
C108 H121 0.947 . S
C108 C143 1.382 . S
C109 C108 1.384 . S
C109 C110 1.378 . S
C110 C109 1.378 . S
C110 C111 1.378 . S
C110 H122 0.952 . S
C111 C110 1.378 . S
C111 H123 0.950 . S
C111 C142 1.383 . S
H112 C131 0.947 . S
H113 C132 0.946 . S
H114 C134 0.953 . S
H115 C135 0.945 . S
H116 C137 0.952 . S
H117 C138 0.949 . S
H118 C140 0.950 . S
H119 C141 0.948 . S
H120 C143 0.951 . S
H121 C108 0.947 . S
H122 C110 0.952 . S
H123 C111 0.950 . S
N124 C127 1.382 . S
N124 C129 1.363 . S
N125 C127 1.371 . S
N125 C128 1.372 . S
N126 C128 1.361 . S
N126 C129 1.377 . S
C127 N124 1.382 . S
C127 N125 1.371 . S
C127 C130 1.480 . S
C128 N125 1.372 . S
C128 N126 1.361 . S
C128 C136 1.457 . S
C129 N124 1.363 . S
C129 N126 1.377 . S
C129 C142 1.479 . S
C130 C127 1.480 . S
C130 C131 1.383 . S
C130 C135 1.385 . S
C131 H112 0.947 . S
C131 C130 1.383 . S
C131 C132 1.388 . S
C132 H113 0.946 . S
C132 C131 1.388 . S
C132 C133 1.384 . S
C133 C132 1.384 . S
C133 C134 1.377 . S
C134 H114 0.953 . S
C134 C133 1.377 . S
C134 C135 1.369 . S
C135 H115 0.945 . S
C135 C130 1.385 . S
C135 C134 1.369 . S
C136 C128 1.457 . S
C136 C137 1.372 . S
C136 C141 1.364 . S
C137 H116 0.952 . S
C137 C136 1.372 . S
C137 C138 1.389 . S
C138 H117 0.949 . S
C138 C137 1.389 . S
C138 C139 1.387 . S
C139 C138 1.387 . S
C139 C140 1.372 . S
C140 H118 0.950 . S
C140 C139 1.372 . S
C140 C141 1.379 . S
C141 H119 0.948 . S
C141 C136 1.364 . S
C141 C140 1.379 . S
C142 C111 1.383 . S
C142 C129 1.479 . S
C142 C143 1.398 . S
C143 C108 1.382 . S
C143 H120 0.951 . S
C143 C142 1.398 . S
C144 C145 1.384 . S
C144 H157 0.947 . S
C144 C179 1.382 . S
C145 C144 1.384 . S
C145 C146 1.378 . S
C146 C145 1.378 . S
C146 C147 1.378 . S
C146 H158 0.952 . S
C147 C146 1.378 . S
C147 H159 0.950 . S
C147 C178 1.383 . S
H148 C167 0.947 1_556 S
H149 C168 0.945 . S
H150 C170 0.953 . S
H151 C171 0.945 . S
H152 C173 0.952 . S
H153 C174 0.949 . S
H154 C176 0.950 . S
H155 C177 0.948 . S
H156 C179 0.951 . S
H157 C144 0.947 . S
H158 C146 0.952 . S
H159 C147 0.950 . S
N160 C163 1.382 1_556 S
N160 C165 1.363 . S
N161 C163 1.371 . S
N161 C164 1.372 . S
N162 C164 1.361 . S
N162 C165 1.377 1_554 S
C163 N160 1.382 1_554 S
C163 N161 1.371 . S
C163 C166 1.480 . S
C164 N161 1.372 . S
C164 N162 1.361 . S
C164 C172 1.457 . S
C165 N160 1.363 . S
C165 N162 1.377 1_556 S
C165 C178 1.479 . S
C166 C163 1.480 . S
C166 C167 1.383 . S
C166 C171 1.385 . S
C167 H148 0.947 1_554 S
C167 C166 1.383 . S
C167 C168 1.388 . S
C168 H149 0.945 . S
C168 C167 1.388 . S
C168 C169 1.384 . S
C169 C168 1.384 . S
C169 C170 1.377 . S
C170 H150 0.953 . S
C170 C169 1.377 . S
C170 C171 1.369 . S
C171 H151 0.945 . S
C171 C166 1.385 . S
C171 C170 1.369 . S
C172 C164 1.457 . S
C172 C173 1.372 . S
C172 C177 1.364 . S
C173 H152 0.952 . S
C173 C172 1.372 . S
C173 C174 1.389 . S
C174 H153 0.949 . S
C174 C173 1.389 . S
C174 C175 1.387 . S
C175 C174 1.387 . S
C175 C176 1.372 . S
C176 H154 0.950 . S
C176 C175 1.372 . S
C176 C177 1.379 . S
C177 H155 0.948 . S
C177 C172 1.364 . S
C177 C176 1.379 . S
C178 C147 1.383 . S
C178 C165 1.479 . S
C178 C179 1.398 . S
C179 C144 1.382 . S
C179 H156 0.951 . S
C179 C178 1.398 . S
C180 C181 1.384 . S
C180 H193 0.948 1_455 S
C180 C215 1.382 . S
C181 C180 1.384 . S
C181 C182 1.378 . S
C182 C181 1.378 . S
C182 C183 1.378 . S
C182 H194 0.952 . S
C183 C182 1.378 . S
C183 H195 0.950 . S
C183 C214 1.383 . S
H184 C203 0.947 1_556 S
H185 C204 0.949 . S
H186 C206 0.953 . S
H187 C207 0.945 . S
H188 C209 0.947 1_655 S
H189 C210 0.954 . S
H190 C212 0.950 . S
H191 C213 0.948 . S
H192 C215 0.950 1_655 S
H193 C180 0.948 1_655 S
H194 C182 0.952 . S
H195 C183 0.950 . S
N196 C199 1.382 1_556 S
N196 C201 1.363 . S
N197 C199 1.371 . S
N197 C200 1.372 . S
N198 C200 1.361 . S
N198 C201 1.377 1_554 S
C199 N196 1.382 1_554 S
C199 N197 1.371 . S
C199 C202 1.480 . S
C200 N197 1.372 . S
C200 N198 1.361 . S
C200 C208 1.457 . S
C201 N196 1.363 . S
C201 N198 1.377 1_556 S
C201 C214 1.479 . S
C202 C199 1.480 . S
C202 C203 1.383 . S
C202 C207 1.385 . S
C203 H184 0.947 1_554 S
C203 C202 1.383 . S
C203 C204 1.387 1_455 S
C204 H185 0.949 . S
C204 C203 1.387 1_655 S
C204 C205 1.382 1_655 S
C205 C204 1.382 1_455 S
C205 C206 1.377 . S
C206 H186 0.953 . S
C206 C205 1.377 . S
C206 C207 1.369 . S
C207 H187 0.945 . S
C207 C202 1.385 . S
C207 C206 1.369 . S
C208 C200 1.457 . S
C208 C209 1.379 . S
C208 C213 1.364 . S
C209 H188 0.947 1_455 S
C209 C208 1.379 . S
C209 C210 1.387 1_455 S
C210 H189 0.954 . S
C210 C209 1.387 1_655 S
C210 C211 1.384 1_655 S
C211 C210 1.384 1_455 S
C211 C212 1.372 . S
C212 H190 0.950 . S
C212 C211 1.372 . S
C212 C213 1.379 . S
C213 H191 0.948 . S
C213 C208 1.364 . S
C213 C212 1.379 . S
C214 C183 1.383 . S
C214 C201 1.479 . S
C214 C215 1.399 . S
C215 C180 1.382 . S
C215 H192 0.950 1_455 S
C215 C214 1.399 . S
C216 C217 1.384 . S
C216 H229 0.948 1_545 S
C216 C251 1.382 . S
C217 C216 1.384 . S
C217 C218 1.378 . S
C218 C217 1.378 . S
C218 C219 1.378 . S
C218 H230 0.952 . S
C219 C218 1.378 . S
C219 H231 0.950 . S
C219 C250 1.383 . S
H220 C239 0.947 1_556 S
H221 C240 0.949 . S
H222 C242 0.953 . S
H223 C243 0.945 . S
H224 C245 0.947 1_565 S
H225 C246 0.954 . S
H226 C248 0.950 . S
H227 C249 0.948 . S
H228 C251 0.950 1_565 S
H229 C216 0.948 1_565 S
H230 C218 0.952 . S
H231 C219 0.950 . S
N232 C235 1.382 1_556 S
N232 C237 1.363 . S
N233 C235 1.371 . S
N233 C236 1.372 . S
N234 C236 1.361 . S
N234 C237 1.377 1_554 S
C235 N232 1.382 1_554 S
C235 N233 1.371 . S
C235 C238 1.480 . S
C236 N233 1.372 . S
C236 N234 1.361 . S
C236 C244 1.457 . S
C237 N232 1.363 . S
C237 N234 1.377 1_556 S
C237 C250 1.479 . S
C238 C235 1.480 . S
C238 C239 1.383 . S
C238 C243 1.385 . S
C239 H220 0.947 1_554 S
C239 C238 1.383 . S
C239 C240 1.387 1_545 S
C240 H221 0.949 . S
C240 C239 1.387 1_565 S
C240 C241 1.382 1_565 S
C241 C240 1.382 1_545 S
C241 C242 1.377 . S
C242 H222 0.953 . S
C242 C241 1.377 . S
C242 C243 1.369 . S
C243 H223 0.945 . S
C243 C238 1.385 . S
C243 C242 1.369 . S
C244 C236 1.457 . S
C244 C245 1.379 . S
C244 C249 1.364 . S
C245 H224 0.947 1_545 S
C245 C244 1.379 . S
C245 C246 1.387 1_545 S
C246 H225 0.954 . S
C246 C245 1.387 1_565 S
C246 C247 1.384 1_565 S
C247 C246 1.384 1_545 S
C247 C248 1.372 . S
C248 H226 0.950 . S
C248 C247 1.372 . S
C248 C249 1.379 . S
C249 H227 0.948 . S
C249 C244 1.364 . S
C249 C248 1.379 . S
C250 C219 1.383 . S
C250 C237 1.479 . S
C250 C251 1.399 . S
C251 C216 1.382 . S
C251 H228 0.950 1_545 S
C251 C250 1.399 . S
C252 C253 1.384 . S
C252 H265 0.947 . S
C252 C287 1.382 . S
C253 C252 1.384 . S
C253 C254 1.378 . S
C254 C253 1.378 . S
C254 C255 1.378 . S
C254 H266 0.952 . S
C255 C254 1.378 . S
C255 H267 0.950 . S
C255 C286 1.383 . S
H256 C275 0.947 . S
H257 C276 0.946 . S
H258 C278 0.953 1_556 S
H259 C279 0.945 1_556 S
H260 C281 0.952 . S
H261 C282 0.949 . S
H262 C284 0.950 . S
H263 C285 0.948 . S
H264 C287 0.951 . S
H265 C252 0.947 . S
H266 C254 0.952 . S
H267 C255 0.950 . S
N268 C271 1.382 . S
N268 C273 1.363 . S
N269 C271 1.371 1_556 S
N269 C272 1.372 . S
N270 C272 1.361 1_554 S
N270 C273 1.377 . S
C271 N268 1.382 . S
C271 N269 1.371 1_554 S
C271 C274 1.480 . S
C272 N269 1.372 . S
C272 N270 1.361 1_556 S
C272 C280 1.457 . S
C273 N268 1.363 . S
C273 N270 1.377 . S
C273 C286 1.479 . S
C274 C271 1.480 . S
C274 C275 1.383 . S
C274 C279 1.385 . S
C275 H256 0.947 . S
C275 C274 1.383 . S
C275 C276 1.388 . S
C276 H257 0.946 . S
C276 C275 1.388 . S
C276 C277 1.384 . S
C277 C276 1.384 . S
C277 C278 1.377 . S
C278 H258 0.953 1_554 S
C278 C277 1.377 . S
C278 C279 1.369 . S
C279 H259 0.945 1_554 S
C279 C274 1.385 . S
C279 C278 1.369 . S
C280 C272 1.457 . S
C280 C281 1.372 . S
C280 C285 1.364 . S
C281 H260 0.952 . S
C281 C280 1.372 . S
C281 C282 1.389 . S
C282 H261 0.949 . S
C282 C281 1.389 . S
C282 C283 1.387 . S
C283 C282 1.387 . S
C283 C284 1.372 . S
C284 H262 0.950 . S
C284 C283 1.372 . S
C284 C285 1.379 . S
C285 H263 0.948 . S
C285 C280 1.364 . S
C285 C284 1.379 . S
C286 C255 1.383 . S
C286 C273 1.479 . S
C286 C287 1.398 . S
C287 C252 1.382 . S
C287 H264 0.951 . S
C287 C286 1.398 . S
Ho288 C291 2.811 . S
Ho288 O308 2.322 . S
Ho288 O310 2.378 . S
Ho288 O311 2.524 . S
Ho288 O312 2.381 . S
Ho288 O313 2.669 1_565 S
Ho288 O315 2.346 1_565 S
Ho288 O319 2.305 1_455 S
Ho289 C300 2.811 . S
Ho289 O309 2.346 1_545 S
Ho289 O313 2.305 1_655 S
Ho289 O314 2.322 . S
Ho289 O316 2.378 . S
Ho289 O317 2.524 . S
Ho289 O318 2.381 . S
Ho289 O319 2.669 1_545 S
C290 O308 1.259 1_655 S
C290 O309 1.268 . S
C291 Ho288 2.811 . S
C291 C292 1.488 . S
C291 O310 1.215 . S
C291 O311 1.289 . S
C292 C291 1.488 . S
C292 C293 1.348 . S
C292 C297 1.413 . S
C293 C292 1.348 . S
C293 C294 1.442 . S
C293 H320 0.930 1_455 S
C294 C293 1.442 . S
C294 C295 1.381 . S
C294 H321 0.938 1_556 S
C295 C294 1.381 . S
C295 C296 1.321 . S
C296 C295 1.321 . S
C296 C297 1.403 . S
C296 H322 0.934 . S
C297 C292 1.413 . S
C297 C296 1.403 . S
C297 H323 0.930 . S
C298 O312 1.275 . S
C298 O313 1.256 1_565 S
C299 O314 1.259 1_455 S
C299 O315 1.268 . S
C300 Ho289 2.811 . S
C300 C301 1.488 . S
C300 O316 1.215 . S
C300 O317 1.289 . S
C301 C300 1.488 . S
C301 C302 1.348 . S
C301 C306 1.413 . S
C302 C301 1.348 . S
C302 C303 1.442 . S
C302 H324 0.930 1_655 S
C303 C302 1.442 . S
C303 C304 1.381 . S
C303 H325 0.929 . S
C304 C303 1.381 . S
C304 C305 1.321 . S
C305 C304 1.321 . S
C305 C306 1.403 . S
C305 H326 0.934 . S
C306 C301 1.413 . S
C306 C305 1.403 . S
C306 H327 0.930 . S
C307 O318 1.275 . S
C307 O319 1.256 1_545 S
O308 Ho288 2.322 . S
O308 C290 1.259 1_455 S
O309 Ho289 2.346 1_565 S
O309 C290 1.268 . S
O310 Ho288 2.378 . S
O310 C291 1.215 . S
O311 Ho288 2.524 . S
O311 C291 1.289 . S
O312 Ho288 2.381 . S
O312 C298 1.275 . S
O313 Ho288 2.669 1_545 S
O313 Ho289 2.305 1_455 S
O313 C298 1.256 1_545 S
O314 Ho289 2.322 . S
O314 C299 1.259 1_655 S
O315 Ho288 2.346 1_545 S
O315 C299 1.268 . S
O316 Ho289 2.378 . S
O316 C300 1.215 . S
O317 Ho289 2.524 . S
O317 C300 1.289 . S
O318 Ho289 2.381 . S
O318 C307 1.275 . S
O319 Ho288 2.305 1_655 S
O319 Ho289 2.669 1_565 S
O319 C307 1.256 1_565 S
H320 C293 0.930 1_655 S
H321 C294 0.938 1_554 S
H322 C296 0.934 . S
H323 C297 0.930 . S
H324 C302 0.930 1_455 S
H325 C303 0.929 . S
H326 C305 0.934 . S
H327 C306 0.930 . S
Ho328 C331 2.811 . S
Ho328 O348 2.322 . S
Ho328 O350 2.378 . S
Ho328 O351 2.524 . S
Ho328 O352 2.381 . S
Ho328 O353 2.669 . S
Ho328 O355 2.346 . S
Ho328 O359 2.305 1_545 S
Ho329 C340 2.811 . S
Ho329 O349 2.346 . S
Ho329 O353 2.305 1_565 S
Ho329 O354 2.322 . S
Ho329 O356 2.378 . S
Ho329 O357 2.524 . S
Ho329 O358 2.381 . S
Ho329 O359 2.669 . S
C330 O348 1.259 1_565 S
C330 O349 1.268 . S
C331 Ho328 2.811 . S
C331 C332 1.488 . S
C331 O350 1.215 . S
C331 O351 1.289 . S
C332 C331 1.488 . S
C332 C333 1.348 . S
C332 C337 1.413 . S
C333 C332 1.348 . S
C333 C334 1.442 . S
C333 H360 0.930 1_545 S
C334 C333 1.442 . S
C334 C335 1.381 . S
C334 H361 0.921 1_546 S
C335 C334 1.381 . S
C335 C336 1.321 . S
C336 C335 1.321 . S
C336 C337 1.403 . S
C336 H362 0.934 . S
C337 C332 1.413 . S
C337 C336 1.403 . S
C337 H363 0.930 . S
C338 O352 1.275 . S
C338 O353 1.256 . S
C339 O354 1.259 1_545 S
C339 O355 1.268 . S
C340 Ho329 2.811 . S
C340 C341 1.488 . S
C340 O356 1.215 . S
C340 O357 1.289 . S
C341 C340 1.488 . S
C341 C342 1.348 . S
C341 C346 1.413 . S
C342 C341 1.348 . S
C342 C343 1.442 . S
C342 H364 0.930 1_565 S
C343 C342 1.442 . S
C343 C344 1.381 . S
C343 H365 0.912 1_565 S
C344 C343 1.381 . S
C344 C345 1.321 . S
C345 C344 1.321 . S
C345 C346 1.403 . S
C345 H366 0.934 . S
C346 C341 1.413 . S
C346 C345 1.403 . S
C346 H367 0.930 . S
C347 O358 1.275 . S
C347 O359 1.256 . S
O348 Ho328 2.322 . S
O348 C330 1.259 1_545 S
O349 Ho329 2.346 . S
O349 C330 1.268 . S
O350 Ho328 2.378 . S
O350 C331 1.215 . S
O351 Ho328 2.524 . S
O351 C331 1.289 . S
O352 Ho328 2.381 . S
O352 C338 1.275 . S
O353 Ho328 2.669 . S
O353 Ho329 2.305 1_545 S
O353 C338 1.256 . S
O354 Ho329 2.322 . S
O354 C339 1.259 1_565 S
O355 Ho328 2.346 . S
O355 C339 1.268 . S
O356 Ho329 2.378 . S
O356 C340 1.215 . S
O357 Ho329 2.524 . S
O357 C340 1.289 . S
O358 Ho329 2.381 . S
O358 C347 1.275 . S
O359 Ho328 2.305 1_565 S
O359 Ho329 2.669 . S
O359 C347 1.256 . S
H360 C333 0.930 1_565 S
H361 C334 0.921 1_564 S
H362 C336 0.934 . S
H363 C337 0.930 . S
H364 C342 0.930 1_545 S
H365 C343 0.912 1_545 S
H366 C345 0.934 . S
H367 C346 0.930 . S
Ho368 C371 2.811 . S
Ho368 O388 2.322 . S
Ho368 O390 2.378 . S
Ho368 O391 2.524 . S
Ho368 O392 2.381 . S
Ho368 O393 2.669 . S
Ho368 O395 2.346 . S
Ho368 O399 2.305 . S
Ho369 C380 2.811 . S
Ho369 O389 2.346 . S
Ho369 O393 2.305 . S
Ho369 O394 2.322 . S
Ho369 O396 2.378 . S
Ho369 O397 2.524 . S
Ho369 O398 2.381 . S
Ho369 O399 2.669 . S
C370 O388 1.259 . S
C370 O389 1.268 . S
C371 Ho368 2.811 . S
C371 C372 1.488 . S
C371 O390 1.215 . S
C371 O391 1.289 . S
C372 C371 1.488 . S
C372 C373 1.348 . S
C372 C377 1.413 . S
C373 C372 1.348 . S
C373 C374 1.442 . S
C373 H400 0.930 . S
C374 C373 1.442 . S
C374 C375 1.381 . S
C374 H401 0.931 1_556 S
C375 C374 1.381 . S
C375 C376 1.321 . S
C376 C375 1.321 . S
C376 C377 1.403 . S
C376 H402 0.934 . S
C377 C372 1.413 . S
C377 C376 1.403 . S
C377 H403 0.930 . S
C378 O392 1.275 . S
C378 O393 1.256 . S
C379 O394 1.259 . S
C379 O395 1.268 . S
C380 Ho369 2.811 . S
C380 C381 1.488 . S
C380 O396 1.215 . S
C380 O397 1.289 . S
C381 C380 1.488 . S
C381 C382 1.348 . S
C381 C386 1.413 . S
C382 C381 1.348 . S
C382 C383 1.442 . S
C382 H404 0.930 . S
C383 C382 1.442 . S
C383 C384 1.381 . S
C383 H405 0.931 . S
C384 C383 1.381 . S
C384 C385 1.321 . S
C385 C384 1.321 . S
C385 C386 1.403 . S
C385 H406 0.934 . S
C386 C381 1.413 . S
C386 C385 1.403 . S
C386 H407 0.930 . S
C387 O398 1.275 . S
C387 O399 1.256 . S
O388 Ho368 2.322 . S
O388 C370 1.259 . S
O389 Ho369 2.346 . S
O389 C370 1.268 . S
O390 Ho368 2.378 . S
O390 C371 1.215 . S
O391 Ho368 2.524 . S
O391 C371 1.289 . S
O392 Ho368 2.381 . S
O392 C378 1.275 . S
O393 Ho368 2.669 . S
O393 Ho369 2.305 . S
O393 C378 1.256 . S
O394 Ho369 2.322 . S
O394 C379 1.259 . S
O395 Ho368 2.346 . S
O395 C379 1.268 . S
O396 Ho369 2.378 . S
O396 C380 1.215 . S
O397 Ho369 2.524 . S
O397 C380 1.289 . S
O398 Ho369 2.381 . S
O398 C387 1.275 . S
O399 Ho368 2.305 . S
O399 Ho369 2.669 . S
O399 C387 1.256 . S
H400 C373 0.930 . S
H401 C374 0.931 1_554 S
H402 C376 0.934 . S
H403 C377 0.930 . S
H404 C382 0.930 . S
H405 C383 0.931 . S
H406 C385 0.934 . S
H407 C386 0.930 . S
Ho408 C411 2.811 . S
Ho408 O428 2.322 . S
Ho408 O430 2.378 . S
Ho408 O431 2.524 . S
Ho408 O432 2.381 . S
Ho408 O433 2.669 1_655 S
Ho408 O435 2.346 1_655 S
Ho408 O439 2.305 . S
Ho409 C420 2.811 . S
Ho409 O429 2.346 1_455 S
Ho409 O433 2.305 . S
Ho409 O434 2.322 . S
Ho409 O436 2.378 . S
Ho409 O437 2.524 . S
Ho409 O438 2.381 . S
Ho409 O439 2.669 1_455 S
C410 O428 1.259 . S
C410 O429 1.268 . S
C411 Ho408 2.811 . S
C411 C412 1.488 . S
C411 O430 1.215 . S
C411 O431 1.289 . S
C412 C411 1.488 . S
C412 C413 1.348 . S
C412 C417 1.413 . S
C413 C412 1.348 . S
C413 C414 1.442 . S
C413 H440 0.930 . S
C414 C413 1.442 . S
C414 C415 1.381 . S
C414 H441 0.931 1_556 S
C415 C414 1.381 . S
C415 C416 1.321 . S
C416 C415 1.321 . S
C416 C417 1.403 . S
C416 H442 0.934 . S
C417 C412 1.413 . S
C417 C416 1.403 . S
C417 H443 0.930 . S
C418 O432 1.286 . S
C418 O433 1.250 1_655 S
C419 O434 1.259 . S
C419 O435 1.268 . S
C420 Ho409 2.811 . S
C420 C421 1.488 . S
C420 O436 1.215 . S
C420 O437 1.289 . S
C421 C420 1.488 . S
C421 C422 1.348 . S
C421 C426 1.413 . S
C422 C421 1.348 . S
C422 C423 1.442 . S
C422 H444 0.930 . S
C423 C422 1.442 . S
C423 C424 1.381 . S
C423 H445 0.931 . S
C424 C423 1.381 . S
C424 C425 1.321 . S
C425 C424 1.321 . S
C425 C426 1.403 . S
C425 H446 0.934 . S
C426 C421 1.413 . S
C426 C425 1.403 . S
C426 H447 0.930 . S
C427 O438 1.291 . S
C427 O439 1.247 1_455 S
O428 Ho408 2.322 . S
O428 C410 1.259 . S
O429 Ho409 2.346 1_655 S
O429 C410 1.268 . S
O430 Ho408 2.378 . S
O430 C411 1.215 . S
O431 Ho408 2.524 . S
O431 C411 1.289 . S
O432 Ho408 2.381 . S
O432 C418 1.286 . S
O433 Ho408 2.669 1_455 S
O433 Ho409 2.305 . S
O433 C418 1.250 1_455 S
O434 Ho409 2.322 . S
O434 C419 1.259 . S
O435 Ho408 2.346 1_455 S
O435 C419 1.268 . S
O436 Ho409 2.378 . S
O436 C420 1.215 . S
O437 Ho409 2.524 . S
O437 C420 1.289 . S
O438 Ho409 2.381 . S
O438 C427 1.291 . S
O439 Ho408 2.305 . S
O439 Ho409 2.669 1_655 S
O439 C427 1.247 1_655 S
H440 C413 0.930 . S
H441 C414 0.931 1_554 S
H442 C416 0.934 . S
H443 C417 0.930 . S
H444 C422 0.930 . S
H445 C423 0.931 . S
H446 C425 0.934 . S
H447 C426 0.930 . S
H448 C454 0.930 . S
H449 C457 0.930 . S
H450 C458 0.930 . S
H451 C459 0.930 . S
H452 C462 0.930 . S
H453 C463 0.930 . S
C454 H448 0.930 . S
C454 C455 1.341 1_545 S
C454 C456 1.415 . S
C455 C454 1.341 1_565 S
C455 C457 1.436 . S
C456 C454 1.415 . S
C456 C461 1.425 1_545 S
C456 C463 1.409 . S
C457 H449 0.930 . S
C457 C455 1.436 . S
C457 C458 1.362 . S
C458 H450 0.930 . S
C458 C457 1.362 . S
C458 C461 1.409 . S
C459 H451 0.930 . S
C459 C460 1.355 1_565 S
C459 C461 1.415 . S
C460 C459 1.355 1_545 S
C460 C462 1.419 . S
C461 C456 1.425 1_565 S
C461 C458 1.409 . S
C461 C459 1.415 . S
C462 H452 0.930 . S
C462 C460 1.419 . S
C462 C463 1.362 . S
C463 H453 0.930 . S
C463 C456 1.409 . S
C463 C462 1.362 . S
H464 C470 0.930 . S
H465 C473 0.930 . S
H466 C474 0.930 . S
H467 C475 0.930 . S
H468 C478 0.930 . S
H469 C479 0.930 . S
C470 H464 0.930 . S
C470 C471 1.355 . S
C470 C472 1.415 . S
C471 C470 1.355 . S
C471 C473 1.419 . S
C472 C470 1.415 . S
C472 C477 1.425 . S
C472 C479 1.409 . S
C473 H465 0.930 . S
C473 C471 1.419 . S
C473 C474 1.362 . S
C474 H466 0.930 . S
C474 C473 1.362 . S
C474 C477 1.409 . S
C475 H467 0.930 . S
C475 C476 1.355 . S
C475 C477 1.415 . S
C476 C475 1.355 . S
C476 C478 1.419 . S
C477 C472 1.425 . S
C477 C474 1.409 . S
C477 C475 1.415 . S
C478 H468 0.930 . S
C478 C476 1.419 . S
C478 C479 1.362 . S
C479 H469 0.930 . S
C479 C472 1.409 . S
C479 C478 1.362 . S
H480 C486 0.930 . S
H481 C489 0.930 . S
H482 C490 0.930 . S
H483 C491 0.930 . S
H484 C494 0.930 . S
H485 C495 0.930 . S
C486 H480 0.930 . S
C486 C487 1.355 . S
C486 C488 1.415 . S
C487 C486 1.355 . S
C487 C489 1.419 . S
C488 C486 1.415 . S
C488 C493 1.425 . S
C488 C495 1.409 . S
C489 H481 0.930 . S
C489 C487 1.419 . S
C489 C490 1.362 . S
C490 H482 0.930 . S
C490 C489 1.362 . S
C490 C493 1.409 . S
C491 H483 0.930 . S
C491 C492 1.355 . S
C491 C493 1.415 . S
C492 C491 1.355 . S
C492 C494 1.419 . S
C493 C488 1.425 . S
C493 C490 1.409 . S
C493 C491 1.415 . S
C494 H484 0.930 . S
C494 C492 1.419 . S
C494 C495 1.362 . S
C495 H485 0.930 . S
C495 C488 1.409 . S
C495 C494 1.362 . S
H496 C502 0.930 . S
H497 C505 0.930 . S
H498 C506 0.930 . S
H499 C507 0.930 . S
H500 C510 0.930 . S
H501 C511 0.930 . S
C502 H496 0.930 . S
C502 C503 1.355 1_455 S
C502 C504 1.415 . S
C503 C502 1.355 1_655 S
C503 C505 1.419 . S
C504 C502 1.415 . S
C504 C509 1.425 1_455 S
C504 C511 1.409 . S
C505 H497 0.930 . S
C505 C503 1.419 . S
C505 C506 1.362 . S
C506 H498 0.930 . S
C506 C505 1.362 . S
C506 C509 1.409 . S
C507 H499 0.930 . S
C507 C508 1.355 1_655 S
C507 C509 1.415 . S
C508 C507 1.355 1_455 S
C508 C510 1.419 . S
C509 C504 1.425 1_655 S
C509 C506 1.409 . S
C509 C507 1.415 . S
C510 H500 0.930 . S
C510 C508 1.419 . S
C510 C511 1.362 . S
C511 H501 0.930 . S
C511 C504 1.409 . S
C511 C510 1.362 . S
H512 C518 0.930 . S
H513 C521 0.930 . S
H514 C522 0.930 . S
H515 C523 0.930 . S
H516 C526 0.930 . S
H517 C527 0.930 . S
C518 H512 0.930 . S
C518 C519 1.353 1_565 S
C518 C520 1.415 . S
C519 C518 1.353 1_545 S
C519 C521 1.421 . S
C520 C518 1.415 . S
C520 C525 1.425 1_565 S
C520 C527 1.409 . S
C521 H513 0.930 . S
C521 C519 1.421 . S
C521 C522 1.362 . S
C522 H514 0.930 . S
C522 C521 1.362 . S
C522 C525 1.409 . S
C523 H515 0.930 . S
C523 C524 1.355 1_545 S
C523 C525 1.415 1_556 S
C524 C523 1.355 1_565 S
C524 C526 1.419 . S
C525 C520 1.425 1_545 S
C525 C522 1.409 . S
C525 C523 1.415 1_554 S
C526 H516 0.930 . S
C526 C524 1.419 . S
C526 C527 1.362 1_556 S
C527 H517 0.930 . S
C527 C520 1.409 . S
C527 C526 1.362 1_554 S
H528 C534 0.930 . S
H529 C537 0.930 . S
H530 C538 0.930 . S
H531 C539 0.930 . S
H532 C542 0.930 . S
H533 C543 0.930 . S
C534 H528 0.930 . S
C534 C535 1.355 . S
C534 C536 1.415 . S
C535 C534 1.355 . S
C535 C537 1.419 . S
C536 C534 1.415 . S
C536 C541 1.425 . S
C536 C543 1.409 . S
C537 H529 0.930 . S
C537 C535 1.419 . S
C537 C538 1.362 . S
C538 H530 0.930 . S
C538 C537 1.362 . S
C538 C541 1.409 . S
C539 H531 0.930 . S
C539 C540 1.355 . S
C539 C541 1.415 1_556 S
C540 C539 1.355 . S
C540 C542 1.419 . S
C541 C536 1.425 . S
C541 C538 1.409 . S
C541 C539 1.415 1_554 S
C542 H532 0.930 . S
C542 C540 1.419 . S
C542 C543 1.362 1_556 S
C543 H533 0.930 . S
C543 C536 1.409 . S
C543 C542 1.362 1_554 S
H544 C550 0.930 . S
H545 C553 0.930 . S
H546 C554 0.930 . S
H547 C555 0.930 . S
H548 C558 0.930 . S
H549 C559 0.930 . S
C550 H544 0.930 . S
C550 C551 1.355 . S
C550 C552 1.415 . S
C551 C550 1.355 . S
C551 C553 1.419 . S
C552 C550 1.415 . S
C552 C557 1.425 . S
C552 C559 1.409 . S
C553 H545 0.930 . S
C553 C551 1.419 . S
C553 C554 1.362 . S
C554 H546 0.930 . S
C554 C553 1.362 . S
C554 C557 1.409 . S
C555 H547 0.930 . S
C555 C556 1.355 . S
C555 C557 1.415 1_556 S
C556 C555 1.355 . S
C556 C558 1.419 . S
C557 C552 1.425 . S
C557 C554 1.409 . S
C557 C555 1.415 1_554 S
C558 H548 0.930 . S
C558 C556 1.419 . S
C558 C559 1.362 1_556 S
C559 H549 0.930 . S
C559 C552 1.409 . S
C559 C558 1.362 1_554 S
H560 C566 0.930 . S
H561 C569 0.930 . S
H562 C570 0.930 . S
H563 C571 0.930 . S
H564 C574 0.930 . S
H565 C575 0.930 . S
C566 H560 0.930 . S
C566 C567 1.355 1_455 S
C566 C568 1.415 . S
C567 C566 1.355 1_655 S
C567 C569 1.419 . S
C568 C566 1.415 . S
C568 C573 1.425 1_455 S
C568 C575 1.409 . S
C569 H561 0.930 . S
C569 C567 1.419 . S
C569 C570 1.362 . S
C570 H562 0.930 . S
C570 C569 1.362 . S
C570 C573 1.409 . S
C571 H563 0.930 . S
C571 C572 1.342 1_655 S
C571 C573 1.415 1_556 S
C572 C571 1.342 1_455 S
C572 C574 1.436 . S
C573 C568 1.425 1_655 S
C573 C570 1.409 . S
C573 C571 1.415 1_554 S
C574 H564 0.930 . S
C574 C572 1.436 . S
C574 C575 1.362 1_556 S
C575 H565 0.930 . S
C575 C568 1.409 . S
C575 C574 1.362 1_554 S
H576 C582 0.930 . S
H577 C585 0.930 . S
H578 C586 0.930 . S
H579 C587 0.930 . S
H580 C590 0.930 . S
H581 C591 0.930 1_455 S
C582 H576 0.930 . S
C582 C583 1.366 . S
C582 C584 1.415 1_455 S
C583 C582 1.366 . S
C583 C585 1.382 1_455 S
C584 C582 1.415 1_655 S
C584 C589 1.425 . S
C584 C591 1.409 . S
C585 H577 0.930 . S
C585 C583 1.382 1_655 S
C585 C586 1.362 . S
C586 H578 0.930 . S
C586 C585 1.362 . S
C586 C589 1.409 . S
C587 H579 0.930 . S
C587 C588 1.355 . S
C587 C589 1.415 . S
C588 C587 1.355 . S
C588 C590 1.419 . S
C589 C584 1.425 . S
C589 C586 1.409 . S
C589 C587 1.415 . S
C590 H580 0.930 . S
C590 C588 1.419 . S
C590 C591 1.362 . S
C591 H581 0.930 1_655 S
C591 C584 1.409 . S
C591 C590 1.362 . S
H592 C598 0.930 . S
H593 C601 0.930 1_545 S
H594 C602 0.930 . S
H595 C603 0.930 . S
H596 C606 0.930 . S
H597 C607 0.930 . S
C598 H592 0.930 . S
C598 C599 1.355 1_565 S
C598 C600 1.415 . S
C599 C598 1.355 1_545 S
C599 C601 1.419 1_545 S
C600 C598 1.415 . S
C600 C605 1.425 . S
C600 C607 1.409 . S
C601 H593 0.930 1_565 S
C601 C599 1.419 1_565 S
C601 C602 1.362 . S
C602 H594 0.930 . S
C602 C601 1.362 . S
C602 C605 1.409 . S
C603 H595 0.930 . S
C603 C604 1.355 . S
C603 C605 1.415 . S
C604 C603 1.355 . S
C604 C606 1.419 . S
C605 C600 1.425 . S
C605 C602 1.409 . S
C605 C603 1.415 . S
C606 H596 0.930 . S
C606 C604 1.419 . S
C606 C607 1.362 . S
C607 H597 0.930 . S
C607 C600 1.409 . S
C607 C606 1.362 . S
H608 C614 0.930 . S
H609 C617 0.930 . S
H610 C618 0.930 . S
H611 C619 0.930 . S
H612 C622 0.930 . S
H613 C623 0.930 . S
C614 H608 0.930 . S
C614 C615 1.355 . S
C614 C616 1.415 . S
C615 C614 1.355 . S
C615 C617 1.419 . S
C616 C614 1.415 . S
C616 C621 1.425 . S
C616 C623 1.409 . S
C617 H609 0.930 . S
C617 C615 1.419 . S
C617 C618 1.362 . S
C618 H610 0.930 . S
C618 C617 1.362 . S
C618 C621 1.409 . S
C619 H611 0.930 . S
C619 C620 1.355 . S
C619 C621 1.415 . S
C620 C619 1.355 . S
C620 C622 1.419 . S
C621 C616 1.425 . S
C621 C618 1.409 . S
C621 C619 1.415 . S
C622 H612 0.930 . S
C622 C620 1.419 . S
C622 C623 1.362 . S
C623 H613 0.930 . S
C623 C616 1.409 . S
C623 C622 1.362 . S
H624 C630 0.930 . S
H625 C633 0.930 . S
H626 C634 0.930 . S
H627 C635 0.930 . S
H628 C638 0.930 . S
H629 C639 0.930 . S
C630 H624 0.930 . S
C630 C631 1.355 . S
C630 C632 1.415 . S
C631 C630 1.355 . S
C631 C633 1.419 . S
C632 C630 1.415 . S
C632 C637 1.425 . S
C632 C639 1.409 . S
C633 H625 0.930 . S
C633 C631 1.419 . S
C633 C634 1.362 . S
C634 H626 0.930 . S
C634 C633 1.362 . S
C634 C637 1.409 . S
C635 H627 0.930 . S
C635 C636 1.355 . S
C635 C637 1.415 . S
C636 C635 1.355 . S
C636 C638 1.419 . S
C637 C632 1.425 . S
C637 C634 1.409 . S
C637 C635 1.415 . S
C638 H628 0.930 . S
C638 C636 1.419 . S
C638 C639 1.362 . S
C639 H629 0.930 . S
C639 C632 1.409 . S
C639 C638 1.362 . S
H640 C646 0.930 . S
H641 C649 0.930 . S
H642 C650 0.930 . S
H643 C651 0.930 1_556 S
H644 C654 0.930 . S
H645 C655 0.930 . S
C646 H640 0.930 . S
C646 C647 1.355 1_455 S
C646 C648 1.415 . S
C647 C646 1.355 1_655 S
C647 C649 1.419 . S
C648 C646 1.415 . S
C648 C653 1.425 . S
C648 C655 1.409 . S
C649 H641 0.930 . S
C649 C647 1.419 . S
C649 C650 1.362 . S
C650 H642 0.930 . S
C650 C649 1.362 . S
C650 C653 1.409 1_655 S
C651 H643 0.930 1_554 S
C651 C652 1.355 . S
C651 C653 1.415 . S
C652 C651 1.355 . S
C652 C654 1.419 . S
C653 C648 1.425 . S
C653 C650 1.409 1_455 S
C653 C651 1.415 . S
C654 H644 0.930 . S
C654 C652 1.419 . S
C654 C655 1.362 . S
C655 H645 0.930 . S
C655 C648 1.409 . S
C655 C654 1.362 . S
H656 C662 0.930 . S
H657 C665 0.930 . S
H658 C666 0.930 . S
H659 C667 0.930 . S
H660 C670 0.930 . S
H661 C671 0.930 . S
C662 H656 0.930 . S
C662 C663 1.355 1_545 S
C662 C664 1.415 . S
C663 C662 1.355 1_565 S
C663 C665 1.419 . S
C664 C662 1.415 . S
C664 C669 1.425 . S
C664 C671 1.409 . S
C665 H657 0.930 . S
C665 C663 1.419 . S
C665 C666 1.362 1_564 S
C666 H658 0.930 . S
C666 C665 1.362 1_546 S
C666 C669 1.409 1_556 S
C667 H659 0.930 . S
C667 C668 1.355 1_556 S
C667 C669 1.415 1_556 S
C668 C667 1.355 1_554 S
C668 C670 1.419 . S
C669 C664 1.425 . S
C669 C666 1.409 1_554 S
C669 C667 1.415 1_554 S
C670 H660 0.930 . S
C670 C668 1.419 . S
C670 C671 1.362 . S
C671 H661 0.930 . S
C671 C664 1.409 . S
C671 C670 1.362 . S
H672 C678 0.930 . S
H673 C681 0.930 . S
H674 C682 0.930 . S
H675 C683 0.930 . S
H676 C686 0.930 . S
H677 C687 0.930 . S
C678 H672 0.930 . S
C678 C679 1.355 . S
C678 C680 1.415 . S
C679 C678 1.355 . S
C679 C681 1.419 . S
C680 C678 1.415 . S
C680 C685 1.425 . S
C680 C687 1.409 1_554 S
C681 H673 0.930 . S
C681 C679 1.419 . S
C681 C682 1.362 . S
C682 H674 0.930 . S
C682 C681 1.362 . S
C682 C685 1.409 . S
C683 H675 0.930 . S
C683 C684 1.355 . S
C683 C685 1.415 . S
C684 C683 1.355 . S
C684 C686 1.419 1_554 S
C685 C680 1.425 . S
C685 C682 1.409 . S
C685 C683 1.415 . S
C686 H676 0.930 . S
C686 C684 1.419 1_556 S
C686 C687 1.362 . S
C687 H677 0.930 . S
C687 C680 1.409 1_556 S
C687 C686 1.362 . S
H688 C694 0.930 . S
H689 C697 0.930 . S
H690 C698 0.930 . S
H691 C699 0.930 . S
H692 C702 0.930 . S
H693 C703 0.930 . S
C694 H688 0.930 . S
C694 C695 1.355 . S
C694 C696 1.415 . S
C695 C694 1.355 . S
C695 C697 1.419 . S
C696 C694 1.415 . S
C696 C701 1.425 . S
C696 C703 1.409 1_554 S
C697 H689 0.930 . S
C697 C695 1.419 . S
C697 C698 1.362 . S
C698 H690 0.930 . S
C698 C697 1.362 . S
C698 C701 1.409 . S
C699 H691 0.930 . S
C699 C700 1.355 . S
C699 C701 1.415 . S
C700 C699 1.355 . S
C700 C702 1.419 1_554 S
C701 C696 1.425 . S
C701 C698 1.409 . S
C701 C699 1.415 . S
C702 H692 0.930 . S
C702 C700 1.419 1_556 S
C702 C703 1.362 . S
C703 H693 0.930 . S
C703 C696 1.409 1_556 S
C703 C702 1.362 . S
H704 C710 0.930 . S
H705 C713 0.930 . S
H706 C714 0.930 . S
H707 C715 0.930 . S
H708 C718 0.930 . S
H709 C719 0.930 . S
C710 H704 0.930 . S
C710 C711 1.355 . S
C710 C712 1.415 . S
C711 C710 1.355 . S
C711 C713 1.419 1_455 S
C712 C710 1.415 . S
C712 C717 1.425 1_455 S
C712 C719 1.409 . S
C713 H705 0.930 . S
C713 C711 1.419 1_655 S
C713 C714 1.362 . S
C714 H706 0.930 . S
C714 C713 1.362 . S
C714 C717 1.409 . S
C715 H707 0.930 . S
C715 C716 1.355 1_655 S
C715 C717 1.415 . S
C716 C715 1.355 1_455 S
C716 C718 1.419 . S
C717 C712 1.425 1_655 S
C717 C714 1.409 . S
C717 C715 1.415 . S
C718 H708 0.930 . S
C718 C716 1.419 . S
C718 C719 1.362 . S
C719 H709 0.930 . S
C719 C712 1.409 . S
C719 C718 1.362 . S
H720 C726 0.930 . S
H721 C729 0.931 . S
H722 C730 0.925 1_565 S
H723 C731 0.930 . S
H724 C734 0.930 . S
H725 C735 0.930 . S
C726 H720 0.930 . S
C726 C727 1.355 . S
C726 C728 1.415 . S
C727 C726 1.355 . S
C727 C729 1.418 1_545 S
C728 C726 1.415 . S
C728 C733 1.425 . S
C728 C735 1.409 . S
C729 H721 0.931 . S
C729 C727 1.418 1_565 S
C729 C730 1.361 1_565 S
C730 H722 0.925 1_545 S
C730 C729 1.361 1_545 S
C730 C733 1.418 . S
C731 H723 0.930 . S
C731 C732 1.355 . S
C731 C733 1.415 . S
C732 C731 1.355 . S
C732 C734 1.419 . S
C733 C728 1.425 . S
C733 C730 1.418 . S
C733 C731 1.415 . S
C734 H724 0.930 . S
C734 C732 1.419 . S
C734 C735 1.362 . S
C735 H725 0.930 . S
C735 C728 1.409 . S
C735 C734 1.362 . S
H736 C742 0.930 . S
H737 C745 0.930 . S
H738 C746 0.930 . S
H739 C747 0.930 . S
H740 C750 0.930 . S
H741 C751 0.930 . S
C742 H736 0.930 . S
C742 C743 1.355 . S
C742 C744 1.415 . S
C743 C742 1.355 . S
C743 C745 1.419 . S
C744 C742 1.415 . S
C744 C749 1.425 . S
C744 C751 1.409 . S
C745 H737 0.930 . S
C745 C743 1.419 . S
C745 C746 1.362 . S
C746 H738 0.930 . S
C746 C745 1.362 . S
C746 C749 1.409 . S
C747 H739 0.930 . S
C747 C748 1.355 . S
C747 C749 1.415 . S
C748 C747 1.355 . S
C748 C750 1.419 . S
C749 C744 1.425 . S
C749 C746 1.409 . S
C749 C747 1.415 . S
C750 H740 0.930 . S
C750 C748 1.419 . S
C750 C751 1.362 . S
C751 H741 0.930 . S
C751 C744 1.409 . S
C751 C750 1.362 . S
H752 C758 0.930 . S
H753 C761 0.930 . S
H754 C762 0.930 . S
H755 C763 0.930 . S
H756 C766 0.930 . S
H757 C767 0.930 . S
C758 H752 0.930 . S
C758 C759 1.355 . S
C758 C760 1.415 . S
C759 C758 1.355 . S
C759 C761 1.419 . S
C760 C758 1.415 . S
C760 C765 1.425 . S
C760 C767 1.409 . S
C761 H753 0.930 . S
C761 C759 1.419 . S
C761 C762 1.362 . S
C762 H754 0.930 . S
C762 C761 1.362 . S
C762 C765 1.409 . S
C763 H755 0.930 . S
C763 C764 1.355 . S
C763 C765 1.415 . S
C764 C763 1.355 . S
C764 C766 1.419 . S
C765 C760 1.425 . S
C765 C762 1.409 . S
C765 C763 1.415 . S
C766 H756 0.930 . S
C766 C764 1.419 . S
C766 C767 1.362 . S
C767 H757 0.930 . S
C767 C760 1.409 . S
C767 C766 1.362 . S
H768 C774 0.934 . S
H769 C777 0.930 . S
H770 C778 0.930 . S
H771 C779 0.930 . S
H772 C782 0.939 . S
H773 C783 0.930 . S
C774 H768 0.934 . S
C774 C775 1.352 1_455 S
C774 C776 1.413 1_455 S
C775 C774 1.352 1_655 S
C775 C777 1.419 . S
C776 C774 1.413 1_655 S
C776 C781 1.425 . S
C776 C783 1.409 1_655 S
C777 H769 0.930 . S
C777 C775 1.419 . S
C777 C778 1.362 . S
C778 H770 0.930 . S
C778 C777 1.362 . S
C778 C781 1.409 . S
C779 H771 0.930 . S
C779 C780 1.355 . S
C779 C781 1.415 . S
C780 C779 1.355 . S
C780 C782 1.406 1_655 S
C781 C776 1.425 . S
C781 C778 1.409 . S
C781 C779 1.415 . S
C782 H772 0.939 . S
C782 C780 1.406 1_455 S
C782 C783 1.368 . S
C783 H773 0.930 . S
C783 C776 1.409 1_455 S
C783 C782 1.368 . S
H784 C790 0.930 . S
H785 C793 0.930 . S
H786 C794 0.930 . S
H787 C795 0.930 . S
H788 C798 0.930 . S
H789 C799 0.930 . S
C790 H784 0.930 . S
C790 C791 1.355 . S
C790 C792 1.415 . S
C791 C790 1.355 . S
C791 C793 1.419 1_565 S
C792 C790 1.415 . S
C792 C797 1.425 . S
C792 C799 1.409 . S
C793 H785 0.930 . S
C793 C791 1.419 1_545 S
C793 C794 1.362 . S
C794 H786 0.930 . S
C794 C793 1.362 . S
C794 C797 1.409 1_545 S
C795 H787 0.930 . S
C795 C796 1.355 . S
C795 C797 1.415 . S
C796 C795 1.355 . S
C796 C798 1.419 . S
C797 C792 1.425 . S
C797 C794 1.409 1_565 S
C797 C795 1.415 . S
C798 H788 0.930 . S
C798 C796 1.419 . S
C798 C799 1.362 . S
C799 H789 0.930 . S
C799 C792 1.409 . S
C799 C798 1.362 . S
H800 C806 0.930 . S
H801 C809 0.930 . S
H802 C810 0.930 . S
H803 C811 0.930 . S
H804 C814 0.930 . S
H805 C815 0.930 . S
C806 H800 0.930 . S
C806 C807 1.355 . S
C806 C808 1.415 . S
C807 C806 1.355 . S
C807 C809 1.419 . S
C808 C806 1.415 . S
C808 C813 1.425 . S
C808 C815 1.409 . S
C809 H801 0.930 . S
C809 C807 1.419 . S
C809 C810 1.362 . S
C810 H802 0.930 . S
C810 C809 1.362 . S
C810 C813 1.409 . S
C811 H803 0.930 . S
C811 C812 1.355 . S
C811 C813 1.415 . S
C812 C811 1.355 . S
C812 C814 1.419 . S
C813 C808 1.425 . S
C813 C810 1.409 . S
C813 C811 1.415 . S
C814 H804 0.930 . S
C814 C812 1.419 . S
C814 C815 1.362 . S
C815 H805 0.930 . S
C815 C808 1.409 . S
C815 C814 1.362 . S
H816 C822 0.930 . S
H817 C825 0.930 . S
H818 C826 0.930 . S
H819 C827 0.930 . S
H820 C830 0.930 . S
H821 C831 0.930 . S
C822 H816 0.930 . S
C822 C823 1.355 . S
C822 C824 1.415 . S
C823 C822 1.355 . S
C823 C825 1.419 . S
C824 C822 1.415 . S
C824 C829 1.425 . S
C824 C831 1.409 . S
C825 H817 0.930 . S
C825 C823 1.419 . S
C825 C826 1.362 . S
C826 H818 0.930 . S
C826 C825 1.362 . S
C826 C829 1.409 . S
C827 H819 0.930 . S
C827 C828 1.355 . S
C827 C829 1.415 . S
C828 C827 1.355 . S
C828 C830 1.419 . S
C829 C824 1.425 . S
C829 C826 1.409 . S
C829 C827 1.415 . S
C830 H820 0.930 . S
C830 C828 1.419 . S
C830 C831 1.362 . S
C831 H821 0.930 . S
C831 C824 1.409 . S
C831 C830 1.362 . S
C455 C241 2.195 1_565 S
C460 C298 2.509 1_545 S
C476 C338 2.535 . S
C471 C277 2.334 . S
C492 C378 2.533 . S
C487 C169 2.274 . S
C508 C418 2.539 1_455 S
C503 C205 2.278 1_655 S
C524 C307 2.528 1_565 S
C519 C97 2.275 . S
C535 C133 2.343 . S
C540 C347 2.546 . S
C551 C25 2.277 . S
C556 C387 2.526 . S
C567 C61 2.231 1_655 S
C572 C427 2.516 . S
C588 C304 0.516 . S
C583 C211 0.477 . S
C604 C344 0.581 . S
C599 C247 0.630 . S
C620 C384 0.467 . S
C615 C253 0.467 . S
C631 C175 0.629 . S
C636 C424 0.585 . S
C647 C67 0.689 1_655 S
C652 C295 0.691 1_554 S
C668 C335 0.657 1_554 S
C663 C103 0.706 1_565 S
C684 C375 0.599 1_554 S
C679 C109 0.510 . S
C695 C31 0.505 . S
C700 C415 0.550 1_554 S
C711 C181 3.010 . S
C716 C299 3.437 . S
C727 C217 2.958 . S
C732 C339 3.406 . S
C748 C379 3.401 . S
C743 C283 2.942 . S
C764 C419 3.421 . S
C759 C145 2.970 . S
C775 C37 2.998 1_655 S
C780 C290 3.423 . S
C796 C330 3.417 . S
C791 C73 3.021 1_565 S
C812 C370 3.397 . S
C807 C139 2.898 . S
C823 C1 3.037 . S
C828 C410 3.431 . S
