# Generated by pormake.
# Topology eea, (3,6)-cn, num edge types: 1
# Building blocks:
#     Node 0, Type 0, BuildingBlock: PAMTOO_clean_linker_0, # of connection points: 3
#     Node 1, Type 0, BuildingBlock: PAMTOO_clean_linker_0, # of connection points: 3
#     Node 2, Type 0, BuildingBlock: PAMTOO_clean_linker_0, # of connection points: 3
#     Node 3, Type 0, BuildingBlock: PAMTOO_clean_linker_0, # of connection points: 3
#     Node 4, Type 0, BuildingBlock: PAMTOO_clean_linker_0, # of connection points: 3
#     Node 5, Type 0, BuildingBlock: PAMTOO_clean_linker_0, # of connection points: 3
#     Node 6, Type 0, BuildingBlock: PAMTOO_clean_linker_0, # of connection points: 3
#     Node 7, Type 0, BuildingBlock: PAMTOO_clean_linker_0, # of connection points: 3
#     Node 8, Type 0, BuildingBlock: PAMTOO_clean_linker_0, # of connection points: 3
#     Node 9, Type 0, BuildingBlock: PAMTOO_clean_linker_0, # of connection points: 3
#     Node 10, Type 0, BuildingBlock: PAMTOO_clean_linker_0, # of connection points: 3
#     Node 11, Type 0, BuildingBlock: PAMTOO_clean_linker_0, # of connection points: 3
#     Node 12, Type 0, BuildingBlock: PAMTOO_clean_linker_0, # of connection points: 3
#     Node 13, Type 0, BuildingBlock: PAMTOO_clean_linker_0, # of connection points: 3
#     Node 14, Type 0, BuildingBlock: PAMTOO_clean_linker_0, # of connection points: 3
#     Node 15, Type 0, BuildingBlock: PAMTOO_clean_linker_0, # of connection points: 3
#     Node 16, Type 0, BuildingBlock: PAMTOO_clean_linker_0, # of connection points: 3
#     Node 17, Type 0, BuildingBlock: PAMTOO_clean_linker_0, # of connection points: 3
#     Node 18, Type 1, BuildingBlock: LEVNOQ01_clean_sbu_1, # of connection points: 6
#     Node 19, Type 1, BuildingBlock: LEVNOQ01_clean_sbu_1, # of connection points: 6
#     Node 20, Type 1, BuildingBlock: LEVNOQ01_clean_sbu_1, # of connection points: 6
#     Node 21, Type 1, BuildingBlock: LEVNOQ01_clean_sbu_1, # of connection points: 6
#     Node 22, Type 1, BuildingBlock: LEVNOQ01_clean_sbu_1, # of connection points: 6
#     Node 23, Type 1, BuildingBlock: LEVNOQ01_clean_sbu_1, # of connection points: 6
#     Node 24, Type 1, BuildingBlock: LEVNOQ01_clean_sbu_1, # of connection points: 6
#     Node 25, Type 1, BuildingBlock: LEVNOQ01_clean_sbu_1, # of connection points: 6
#     Node 26, Type 1, BuildingBlock: LEVNOQ01_clean_sbu_1, # of connection points: 6
#     Edge 27, Type (0, 1), BuildingBlock: XIVTED_clean_linker_0, # of connection points: 2
#     Edge 28, Type (0, 1), BuildingBlock: XIVTED_clean_linker_0, # of connection points: 2
#     Edge 29, Type (0, 1), BuildingBlock: XIVTED_clean_linker_0, # of connection points: 2
#     Edge 30, Type (0, 1), BuildingBlock: XIVTED_clean_linker_0, # of connection points: 2
#     Edge 31, Type (0, 1), BuildingBlock: XIVTED_clean_linker_0, # of connection points: 2
#     Edge 32, Type (0, 1), BuildingBlock: XIVTED_clean_linker_0, # of connection points: 2
#     Edge 33, Type (0, 1), BuildingBlock: XIVTED_clean_linker_0, # of connection points: 2
#     Edge 34, Type (0, 1), BuildingBlock: XIVTED_clean_linker_0, # of connection points: 2
#     Edge 35, Type (0, 1), BuildingBlock: XIVTED_clean_linker_0, # of connection points: 2
#     Edge 36, Type (0, 1), BuildingBlock: XIVTED_clean_linker_0, # of connection points: 2
#     Edge 37, Type (0, 1), BuildingBlock: XIVTED_clean_linker_0, # of connection points: 2
#     Edge 38, Type (0, 1), BuildingBlock: XIVTED_clean_linker_0, # of connection points: 2
#     Edge 39, Type (0, 1), BuildingBlock: XIVTED_clean_linker_0, # of connection points: 2
#     Edge 40, Type (0, 1), BuildingBlock: XIVTED_clean_linker_0, # of connection points: 2
#     Edge 41, Type (0, 1), BuildingBlock: XIVTED_clean_linker_0, # of connection points: 2
#     Edge 42, Type (0, 1), BuildingBlock: XIVTED_clean_linker_0, # of connection points: 2
#     Edge 43, Type (0, 1), BuildingBlock: XIVTED_clean_linker_0, # of connection points: 2
#     Edge 44, Type (0, 1), BuildingBlock: XIVTED_clean_linker_0, # of connection points: 2
#     Edge 45, Type (0, 1), BuildingBlock: XIVTED_clean_linker_0, # of connection points: 2
#     Edge 46, Type (0, 1), BuildingBlock: XIVTED_clean_linker_0, # of connection points: 2
#     Edge 47, Type (0, 1), BuildingBlock: XIVTED_clean_linker_0, # of connection points: 2
#     Edge 48, Type (0, 1), BuildingBlock: XIVTED_clean_linker_0, # of connection points: 2
#     Edge 49, Type (0, 1), BuildingBlock: XIVTED_clean_linker_0, # of connection points: 2
#     Edge 50, Type (0, 1), BuildingBlock: XIVTED_clean_linker_0, # of connection points: 2
#     Edge 51, Type (0, 1), BuildingBlock: XIVTED_clean_linker_0, # of connection points: 2
#     Edge 52, Type (0, 1), BuildingBlock: XIVTED_clean_linker_0, # of connection points: 2
#     Edge 53, Type (0, 1), BuildingBlock: XIVTED_clean_linker_0, # of connection points: 2
#     Edge 54, Type (0, 1), BuildingBlock: XIVTED_clean_linker_0, # of connection points: 2
#     Edge 55, Type (0, 1), BuildingBlock: XIVTED_clean_linker_0, # of connection points: 2
#     Edge 56, Type (0, 1), BuildingBlock: XIVTED_clean_linker_0, # of connection points: 2
#     Edge 57, Type (0, 1), BuildingBlock: XIVTED_clean_linker_0, # of connection points: 2
#     Edge 58, Type (0, 1), BuildingBlock: XIVTED_clean_linker_0, # of connection points: 2
#     Edge 59, Type (0, 1), BuildingBlock: XIVTED_clean_linker_0, # of connection points: 2
#     Edge 60, Type (0, 1), BuildingBlock: XIVTED_clean_linker_0, # of connection points: 2
#     Edge 61, Type (0, 1), BuildingBlock: XIVTED_clean_linker_0, # of connection points: 2
#     Edge 62, Type (0, 1), BuildingBlock: XIVTED_clean_linker_0, # of connection points: 2
#     Edge 63, Type (0, 1), BuildingBlock: XIVTED_clean_linker_0, # of connection points: 2
#     Edge 64, Type (0, 1), BuildingBlock: XIVTED_clean_linker_0, # of connection points: 2
#     Edge 65, Type (0, 1), BuildingBlock: XIVTED_clean_linker_0, # of connection points: 2
#     Edge 66, Type (0, 1), BuildingBlock: XIVTED_clean_linker_0, # of connection points: 2
#     Edge 67, Type (0, 1), BuildingBlock: XIVTED_clean_linker_0, # of connection points: 2
#     Edge 68, Type (0, 1), BuildingBlock: XIVTED_clean_linker_0, # of connection points: 2
#     Edge 69, Type (0, 1), BuildingBlock: XIVTED_clean_linker_0, # of connection points: 2
#     Edge 70, Type (0, 1), BuildingBlock: XIVTED_clean_linker_0, # of connection points: 2
#     Edge 71, Type (0, 1), BuildingBlock: XIVTED_clean_linker_0, # of connection points: 2
#     Edge 72, Type (0, 1), BuildingBlock: XIVTED_clean_linker_0, # of connection points: 2
#     Edge 73, Type (0, 1), BuildingBlock: XIVTED_clean_linker_0, # of connection points: 2
#     Edge 74, Type (0, 1), BuildingBlock: XIVTED_clean_linker_0, # of connection points: 2
#     Edge 75, Type (0, 1), BuildingBlock: XIVTED_clean_linker_0, # of connection points: 2
#     Edge 76, Type (0, 1), BuildingBlock: XIVTED_clean_linker_0, # of connection points: 2
#     Edge 77, Type (0, 1), BuildingBlock: XIVTED_clean_linker_0, # of connection points: 2
#     Edge 78, Type (0, 1), BuildingBlock: XIVTED_clean_linker_0, # of connection points: 2
#     Edge 79, Type (0, 1), BuildingBlock: XIVTED_clean_linker_0, # of connection points: 2
#     Edge 80, Type (0, 1), BuildingBlock: XIVTED_clean_linker_0, # of connection points: 2
# Relax obj value: 0.082
# Max RMSD: 0.114
# Mean RMSD: 0.099
data_MOF--net-eea--node1-LEVNOQ01_clean_sbu_1--node2-PAMTOO_clean_linker_0--edge1-XIVTED_clean_linker_0
_symmetry_space_group_name_H-M    P1
_symmetry_Int_Tables_number       1
_symmetry_cell_setting            triclinic
loop_
_symmetry_equiv_pos_as_xyz
'x, y, z'
_cell_length_a     58.405534
_cell_length_b     57.917011
_cell_length_c     44.310492
_cell_angle_alpha  90.274843
_cell_angle_beta   90.318528
_cell_angle_gamma 119.93617
loop_
_atom_site_label
_atom_site_type_symbol
_atom_site_fract_x
_atom_site_fract_y
_atom_site_fract_z
_atom_type_partial_charge
H0 H 0.21657 0.05777 0.42392 0.0
H1 H 0.21039 0.1275 0.44208 0.0
H2 H 0.16998 0.07754 0.36539 0.0
H3 H 0.19304 0.13371 0.35304 0.0
C4 C 0.19264 0.14154 0.37591 0.0
O5 O 0.17964 0.1206 0.39548 0.0
H6 H 0.21346 0.15456 0.38359 0.0
C7 C 0.20905 0.07092 0.41794 0.0
C8 C 0.19238 0.06483 0.39273 0.0
C9 C 0.21574 0.09341 0.43588 0.0
C10 C 0.2056 0.11012 0.42833 0.0
C11 C 0.18932 0.10449 0.40275 0.0
C12 C 0.18278 0.0819 0.38493 0.0
H13 H 0.93044 0.151 0.40946 0.0
H14 H 0.85883 0.0758 0.3969 0.0
H15 H 0.91636 0.10663 0.32646 0.0
H16 H 0.85772 0.07494 0.30231 0.0
C17 C 0.85 0.0668 0.32503 0.0
O18 O 0.87008 0.06765 0.3424 0.0
H19 H 0.84227 0.07916 0.33523 0.0
C20 C 0.91821 0.13344 0.39577 0.0
C21 C 0.92673 0.1309 0.36695 0.0
C22 C 0.89367 0.11367 0.4067 0.0
C23 C 0.87792 0.09109 0.38889 0.0
C24 C 0.88598 0.08885 0.35989 0.0
C25 C 0.91027 0.10869 0.34889 0.0
H26 H 0.83701 0.76309 0.39177 0.0
H27 H 0.90611 0.75512 0.40179 0.0
H28 H 0.89873 0.79681 0.32578 0.0
H29 H 0.92675 0.76557 0.31154 0.0
C30 C 0.93347 0.76517 0.33497 0.0
O31 O 0.92903 0.78186 0.35317 0.0
H32 H 0.92225 0.7443 0.34324 0.0
C33 C 0.85591 0.7665 0.38355 0.0
C34 C 0.86602 0.78056 0.3567 0.0
C35 C 0.8701 0.75714 0.40002 0.0
C36 C 0.89458 0.76178 0.38913 0.0
C37 C 0.90475 0.77591 0.36232 0.0
C38 C 0.89051 0.78537 0.34611 0.0
H39 H 0.09622 0.25079 0.61695 0.0
H40 H 0.165 0.24419 0.63583 0.0
H41 H 0.09778 0.20726 0.69449 0.0
H42 H 0.1536 0.22409 0.72885 0.0
C43 C 0.16353 0.22887 0.70658 0.0
O44 O 0.14514 0.21496 0.68422 0.0
H45 H 0.17297 0.25079 0.70325 0.0
C46 C 0.10675 0.24404 0.63138 0.0
C47 C 0.094 0.22838 0.65651 0.0
C48 C 0.13242 0.25014 0.62388 0.0
C49 C 0.14543 0.24027 0.6418 0.0
C50 C 0.13312 0.2254 0.66769 0.0
C51 C 0.10752 0.21963 0.67516 0.0
H52 H 0.78123 0.85764 0.59724 0.0
H53 H 0.79322 0.93535 0.61948 0.0
H54 H 0.83292 0.90345 0.67103 0.0
H55 H 0.8167 0.93768 0.71165 0.0
C56 C 0.80938 0.94292 0.69105 0.0
O57 O 0.8234 0.94231 0.66641 0.0
H58 H 0.78788 0.92822 0.68866 0.0
C59 C 0.79088 0.87562 0.61093 0.0
C60 C 0.80803 0.8778 0.63466 0.0
C61 C 0.78574 0.89649 0.60506 0.0
C62 C 0.79749 0.9194 0.62328 0.0
C63 C 0.81384 0.92129 0.64741 0.0
C64 C 0.8196 0.90102 0.65261 0.0
H65 H 0.16961 0.92795 0.60792 0.0
H66 H 0.09084 0.86362 0.58906 0.0
H67 H 0.10785 0.90814 0.6722 0.0
H68 H 0.07978 0.85104 0.6774 0.0
C69 C 0.0652 0.84549 0.65856 0.0
O70 O 0.07157 0.86767 0.6413 0.0
H71 H 0.06604 0.83008 0.64433 0.0
C72 C 0.14922 0.91537 0.61463 0.0
C73 C 0.14088 0.92028 0.64225 0.0
C74 C 0.13134 0.89534 0.59499 0.0
C75 C 0.10485 0.87948 0.60374 0.0
C76 C 0.09656 0.88381 0.63189 0.0
C77 C 0.11444 0.90463 0.65073 0.0
H78 H 0.86741 0.37983 0.76233 0.0
H79 H 0.87567 0.45657 0.78094 0.0
H80 H 0.82842 0.40992 0.70544 0.0
H81 H 0.86201 0.4674 0.69488 0.0
C82 C 0.86096 0.47519 0.71754 0.0
O83 O 0.84522 0.4544 0.73622 0.0
H84 H 0.88141 0.48646 0.72697 0.0
C85 C 0.86229 0.39503 0.75731 0.0
C86 C 0.8462 0.39182 0.73226 0.0
C87 C 0.87328 0.41836 0.77477 0.0
C88 C 0.86745 0.43843 0.76754 0.0
C89 C 0.85096 0.43516 0.74285 0.0
C90 C 0.8406 0.41202 0.72495 0.0
H91 H 0.60006 0.4904 0.72793 0.0
H92 H 0.52195 0.42145 0.72528 0.0
H93 H 0.5759 0.43539 0.65309 0.0
H94 H 0.5167 0.40968 0.63378 0.0
C95 C 0.50885 0.40145 0.65645 0.0
O96 O 0.52891 0.40311 0.67445 0.0
H97 H 0.50028 0.41313 0.66642 0.0
C98 C 0.58513 0.47236 0.71681 0.0
C99 C 0.59097 0.46458 0.68918 0.0
C100 C 0.56013 0.45719 0.72995 0.0
C101 C 0.54132 0.43359 0.71555 0.0
C102 C 0.54702 0.42595 0.68785 0.0
C103 C 0.57167 0.44154 0.67449 0.0
H104 H 0.50425 0.0897 0.72767 0.0
H105 H 0.57963 0.09301 0.73137 0.0
H106 H 0.56066 0.12776 0.65694 0.0
H107 H 0.596 0.10471 0.63788 0.0
C108 C 0.60133 0.10249 0.6614 0.0
O109 O 0.59632 0.11827 0.6805 0.0
H110 H 0.5893 0.08108 0.66759 0.0
C111 C 0.52327 0.09522 0.71788 0.0
C112 C 0.5303 0.109 0.6905 0.0
C113 C 0.54088 0.08942 0.73312 0.0
C114 C 0.56543 0.09684 0.71992 0.0
C115 C 0.57229 0.1102 0.69227 0.0
C116 C 0.55486 0.11656 0.67773 0.0
H117 H 0.75547 0.57975 0.95456 0.0
H118 H 0.8231 0.56865 0.95984 0.0
H119 H 0.7634 0.53612 0.02812 0.0
H120 H 0.81654 0.5515 0.05506 0.0
C121 C 0.82672 0.55592 0.03294 0.0
O122 O 0.80849 0.54182 0.01046 0.0
H123 H 0.83627 0.5778 0.02913 0.0
C124 C 0.76666 0.57201 0.966 0.0
C125 C 0.75676 0.5575 0.9926 0.0
C126 C 0.79056 0.57611 0.95378 0.0
C127 C 0.80456 0.56559 0.96875 0.0
C128 C 0.79487 0.55152 0.99576 0.0
C129 C 0.77087 0.54722 0.00742 0.0
H130 H 0.43186 0.18891 0.93785 0.0
H131 H 0.46452 0.27315 0.95318 0.0
H132 H 0.48851 0.22886 0.00954 0.0
H133 H 0.50038 0.28757 0.04284 0.0
C134 C 0.48655 0.28426 0.02385 0.0
O135 O 0.4944 0.27573 0.99889 0.0
H136 H 0.46652 0.26888 0.0315 0.0
C137 C 0.44469 0.20686 0.95064 0.0
C138 C 0.45997 0.20579 0.97461 0.0
C139 C 0.44612 0.23106 0.94284 0.0
C140 C 0.46306 0.25433 0.9591 0.0
C141 C 0.47797 0.2533 0.98336 0.0
C142 C 0.47641 0.22917 0.99109 0.0
H143 H 0.81623 0.28676 0.92345 0.0
H144 H 0.75863 0.20333 0.92603 0.0
H145 H 0.75867 0.25605 0.99449 0.0
H146 H 0.74885 0.20914 0.01877 0.0
C147 C 0.73886 0.1944 0.00019 0.0
O148 O 0.73562 0.20684 0.97534 0.0
H149 H 0.75138 0.18565 0.9939 0.0
C150 C 0.7989 0.27049 0.93368 0.0
C151 C 0.7889 0.27484 0.96058 0.0
C152 C 0.7881 0.24491 0.92092 0.0
C153 C 0.76697 0.22328 0.93535 0.0
C154 C 0.75625 0.22749 0.96166 0.0
C155 C 0.76696 0.25321 0.97394 0.0
H156 H 0.52128 0.69923 0.10693 0.0
H157 H 0.54483 0.7822 0.11394 0.0
H158 H 0.48773 0.73302 0.0468 0.0
H159 H 0.53016 0.78526 0.02766 0.0
C160 C 0.53044 0.79749 0.0473 0.0
O161 O 0.51425 0.78102 0.06967 0.0
H162 H 0.55106 0.80916 0.056 0.0
C163 C 0.51897 0.71585 0.09984 0.0
C164 C 0.50215 0.71273 0.07541 0.0
C165 C 0.53452 0.74074 0.11383 0.0
C166 C 0.53291 0.76278 0.10347 0.0
C167 C 0.51583 0.75982 0.07953 0.0
C168 C 0.50048 0.73488 0.06562 0.0
H169 H 0.24246 0.81943 0.07278 0.0
H170 H 0.18835 0.73665 0.05395 0.0
H171 H 0.2581 0.7792 0.00054 0.0
H172 H 0.20809 0.72339 0.9644 0.0
C173 C 0.19781 0.7246 0.98485 0.0
O174 O 0.21536 0.73335 0.00886 0.0
H175 H 0.19072 0.73882 0.97966 0.0
C176 C 0.2367 0.80179 0.05903 0.0
C177 C 0.25345 0.80241 0.03595 0.0
C178 C 0.21324 0.7782 0.06571 0.0
C179 C 0.20612 0.75514 0.04865 0.0
C180 C 0.22195 0.75585 0.02463 0.0
C181 C 0.24547 0.7794 0.01822 0.0
H182 H 0.16983 0.42917 0.06327 0.0
H183 H 0.24951 0.44486 0.07637 0.0
H184 H 0.22765 0.46786 0.99389 0.0
H185 H 0.26511 0.45006 0.98279 0.0
C186 C 0.27308 0.45174 0.00606 0.0
O187 O 0.26605 0.46697 0.02352 0.0
H188 H 0.26468 0.43134 0.01548 0.0
C189 C 0.1899 0.43723 0.0553 0.0
C190 C 0.19652 0.44849 0.02648 0.0
C191 C 0.20885 0.43597 0.07367 0.0
C192 C 0.2346 0.44584 0.06266 0.0
C193 C 0.2413 0.45734 0.03395 0.0
C194 C 0.22236 0.45898 0.01606 0.0
H195 H 0.42823 0.91598 0.28087 0.0
H196 H 0.49637 0.9077 0.29827 0.0
H197 H 0.43444 0.88098 0.36369 0.0
H198 H 0.49257 0.89652 0.39303 0.0
C199 C 0.50011 0.89859 0.36964 0.0
O200 O 0.47927 0.88383 0.35017 0.0
H201 H 0.51045 0.92015 0.36384 0.0
C202 C 0.43943 0.91036 0.29573 0.0
C203 C 0.42887 0.89879 0.32366 0.0
C204 C 0.46392 0.91392 0.28648 0.0
C205 C 0.47785 0.90586 0.30554 0.0
C206 C 0.46728 0.8942 0.33345 0.0
C207 C 0.44291 0.89082 0.34257 0.0
H208 H 0.13507 0.52908 0.27441 0.0
H209 H 0.12067 0.59425 0.28865 0.0
H210 H 0.16096 0.57537 0.35662 0.0
H211 H 0.12117 0.59439 0.38193 0.0
C212 C 0.12072 0.60282 0.35958 0.0
O213 O 0.14168 0.60583 0.3425 0.0
H214 H 0.10147 0.58903 0.34837 0.0
C215 C 0.13762 0.54584 0.28795 0.0
C216 C 0.15025 0.55069 0.31627 0.0
C217 C 0.12692 0.56141 0.27756 0.0
C218 C 0.12866 0.58189 0.29611 0.0
C219 C 0.14045 0.58635 0.32471 0.0
C220 C 0.15144 0.57109 0.33465 0.0
H221 H 0.49154 0.60936 0.26622 0.0
H222 H 0.42294 0.53102 0.26411 0.0
H223 H 0.43406 0.58502 0.33696 0.0
H224 H 0.41457 0.53369 0.35632 0.0
C225 C 0.40143 0.52146 0.33739 0.0
O226 O 0.40274 0.53781 0.31409 0.0
H227 H 0.40811 0.50763 0.32913 0.0
C228 C 0.47286 0.59474 0.27586 0.0
C229 C 0.46466 0.60036 0.30323 0.0
C230 C 0.45805 0.56991 0.26154 0.0
C231 C 0.43462 0.55034 0.27488 0.0
C232 C 0.42587 0.55604 0.30187 0.0
C233 C 0.44086 0.58097 0.31595 0.0
O234 O 0.53583 0.01892 0.95152 0.0
Mg235 Mg 0.53562 -0.00125 0.99067 0.0
O236 O 0.49646 0.01293 0.96169 0.0
Mg237 Mg 0.49633 0.00131 0.01255 0.0
O238 O 0.50304 0.96421 0.00224 0.0
O239 O 0.53729 0.96675 0.97637 0.0
O240 O 0.49846 0.98553 0.06181 0.0
O241 O 0.45223 0.96838 0.00706 0.0
Mg242 Mg 0.47941 0.01248 0.05535 0.0
O243 O 0.48534 0.03661 0.01952 0.0
O244 O 0.50974 0.0215 0.08767 0.0
O245 O 0.44533 0.97347 0.05457 0.0
O246 O 0.46616 0.03778 0.06292 0.0
C247 C 0.56194 0.03868 0.02899 0.0
C248 C 0.51564 0.02005 0.94347 0.0
C249 C 0.51511 0.95276 0.98988 0.0
C250 C 0.50751 -0.00123 0.08623 0.0
C251 C 0.4374 0.96027 0.03011 0.0
C252 C 0.47438 0.04698 0.03634 0.0
O253 O 0.56404 0.01838 0.02437 0.0
O254 O 0.54034 0.03775 0.0215 0.0
O255 O 0.01563 0.48262 0.94692 0.0
Mg256 Mg 0.00856 0.50436 0.98017 0.0
O257 O 0.98087 0.45811 0.97358 0.0
Mg258 Mg -7e-05 0.47605 0.02199 0.0
O259 O 0.0352 0.52169 0.01402 0.0
O260 O 0.03257 0.54335 0.97321 0.0
O261 O 0.01621 0.488 0.07107 0.0
O262 O 0.03171 0.46457 0.00939 0.0
Mg263 Mg 0.99424 0.4257 0.05359 0.0
O264 O 0.96698 0.43415 0.0359 0.0
O265 O 0.01439 0.45173 0.09019 0.0
O266 O 0.01751 0.42235 0.0196 0.0
O267 O 0.95598 0.39571 0.05852 0.0
C268 C 0.95969 0.49616 0.00973 0.0
C269 C 0.99311 0.46221 0.94871 0.0
C270 C 0.04383 0.54339 0.99827 0.0
C271 C 0.02081 0.4761 0.09245 0.0
C272 C 0.03397 0.44385 0.00707 0.0
C273 C 0.94895 0.4105 0.04406 0.0
O274 O 0.97038 0.50017 0.98408 0.0
O275 O 0.96915 0.48916 0.03149 0.0
O276 O 0.53051 0.51514 0.07332 0.0
Mg277 Mg 0.50273 0.49831 0.03794 0.0
O278 O 0.52422 0.54388 0.04885 0.0
Mg279 Mg 0.52459 0.52844 0.99814 0.0
O280 O 0.51176 0.48168 0.00309 0.0
O281 O 0.48424 0.45856 0.0408 0.0
O282 O 0.52821 0.51944 0.94748 0.0
O283 O 0.56774 0.53764 0.00826 0.0
Mg284 Mg 0.57094 0.58282 0.96622 0.0
O285 O 0.5362 0.57091 0.98691 0.0
O286 O 0.55992 0.55735 0.92781 0.0
O287 O 0.59667 0.57979 0.99779 0.0
O288 O 0.5595 0.61164 0.96911 0.0
C289 C 0.46568 0.51328 0.01101 0.0
C290 C 0.52977 0.53649 0.0736 0.0
C291 C 0.49662 0.45918 0.01661 0.0
C292 C 0.5424 0.53286 0.92517 0.0
C293 C 0.59122 0.55757 0.00921 0.0
C294 C 0.53843 0.59389 0.98226 0.0
O295 O 0.47159 0.50726 0.0361 0.0
O296 O 0.48148 0.51893 0.98905 0.0
O297 O 0.19209 0.34529 0.27769 0.0
Mg298 Mg 0.20497 0.33392 0.31628 0.0
O299 O 0.16115 0.35205 0.29835 0.0
Mg300 Mg 0.15725 0.33824 0.3492 0.0
O301 O 0.17183 0.3094 0.33874 0.0
O302 O 0.1979 0.29529 0.32021 0.0
O303 O 0.15427 0.32484 0.39953 0.0
O304 O 0.11546 0.30149 0.33702 0.0
Mg305 Mg 0.10923 0.33878 0.38056 0.0
O306 O 0.1427 0.36758 0.36084 0.0
O307 O 0.1207 0.32684 0.42015 0.0
O308 O 0.08361 0.30975 0.34938 0.0
O309 O 0.11223 0.37543 0.38083 0.0
C310 C 0.22334 0.37921 0.36079 0.0
C311 C 0.1747 0.35226 0.27557 0.0
C312 C 0.177 0.29038 0.33494 0.0
C313 C 0.13987 0.32243 0.42225 0.0
C314 C 0.09113 0.29515 0.33656 0.0
C315 C 0.13455 0.38411 0.36737 0.0
O316 O 0.22984 0.36415 0.34695 0.0
O317 O 0.19941 0.37425 0.36129 0.0
O318 O 0.67896 0.80916 0.27775 0.0
Mg319 Mg 0.66956 0.83405 0.3034 0.0
O320 O 0.64784 0.78689 0.30944 0.0
Mg321 Mg 0.66744 0.81487 0.35324 0.0
O322 O 0.69653 0.85905 0.33392 0.0
O323 O 0.69199 0.87056 0.28677 0.0
O324 O 0.68345 0.83942 0.39901 0.0
O325 O 0.70357 0.80906 0.34827 0.0
Mg326 Mg 0.66997 0.78112 0.4069 0.0
O327 O 0.64157 0.77382 0.37538 0.0
O328 O 0.67255 0.81049 0.43625 0.0
O329 O 0.70571 0.78691 0.38786 0.0
O330 O 0.63715 0.7442 0.41012 0.0
C331 C 0.62082 0.82554 0.33404 0.0
C332 C 0.65812 0.788 0.28383 0.0
C333 C 0.70408 0.87664 0.31247 0.0
C334 C 0.68104 0.83403 0.42718 0.0
C335 C 0.71502 0.79898 0.36325 0.0
C336 C 0.6272 0.75081 0.38797 0.0
O337 O 0.63035 0.82774 0.30786 0.0
O338 O 0.63231 0.82201 0.35655 0.0
O339 O 0.20989 0.86423 0.40003 0.0
Mg340 Mg 0.17491 0.8357 0.37719 0.0
O341 O 0.19128 0.88095 0.37287 0.0
Mg342 Mg 0.18659 0.85425 0.32863 0.0
O343 O 0.17638 0.81043 0.34715 0.0
O344 O 0.16637 0.80139 0.39632 0.0
O345 O 0.17997 0.83024 0.28245 0.0
O346 O 0.2307 0.86549 0.33271 0.0
Mg347 Mg 0.21788 0.88953 0.2746 0.0
O348 O 0.19667 0.89489 0.30746 0.0
O349 O 0.19247 0.8593 0.24525 0.0
O350 O 0.25123 0.88832 0.29189 0.0
O351 O 0.21801 0.92471 0.27144 0.0
C352 C 0.12902 0.8376 0.35 0.0
C353 C 0.20331 0.8817 0.39718 0.0
C354 C 0.16987 0.79424 0.36998 0.0
C355 C 0.18083 0.83551 0.25431 0.0
C356 C 0.25139 0.87755 0.31668 0.0
C357 C 0.2029 0.91746 0.29475 0.0
O358 O 0.13878 0.8371 0.37552 0.0
O359 O 0.1429 0.84216 0.3264 0.0
O360 O 0.85222 0.67242 0.60296 0.0
Mg361 Mg 0.86992 0.66613 0.64107 0.0
O362 O 0.8228 0.67997 0.62634 0.0
Mg363 Mg 0.82088 0.66744 0.67724 0.0
O364 O 0.8393 0.64223 0.66723 0.0
O365 O 0.86593 0.62886 0.64909 0.0
O366 O 0.81879 0.65464 0.72801 0.0
O367 O 0.78049 0.62914 0.66551 0.0
Mg368 Mg 0.77052 0.66587 0.71091 0.0
O369 O 0.80231 0.69283 0.68764 0.0
O370 O 0.78579 0.65709 0.74987 0.0
O371 O 0.74711 0.63431 0.68078 0.0
O372 O 0.77327 0.70277 0.70675 0.0
C373 C 0.88631 0.7132 0.68422 0.0
C374 C 0.83445 0.67893 0.60239 0.0
C375 C 0.84568 0.624 0.66508 0.0
C376 C 0.80507 0.65278 0.75128 0.0
C377 C 0.75581 0.6213 0.66645 0.0
C378 C 0.79456 0.70992 0.69168 0.0
O379 O 0.89377 0.69983 0.66845 0.0
O380 O 0.86187 0.70566 0.68808 0.0
O381 O 0.34311 0.13797 0.61715 0.0
Mg382 Mg 0.33681 0.16612 0.64129 0.0
O383 O 0.30998 0.12015 0.64709 0.0
Mg384 Mg 0.33334 0.14746 0.68972 0.0
O385 O 0.36437 0.19139 0.67084 0.0
O386 O 0.36109 0.20115 0.62244 0.0
O387 O 0.35379 0.17362 0.73414 0.0
O388 O 0.36634 0.13785 0.68187 0.0
Mg389 Mg 0.33389 0.12209 0.74065 0.0
O390 O 0.30447 0.10466 0.70897 0.0
O391 O 0.32832 0.14743 0.7694 0.0
O392 O 0.37301 0.13087 0.72902 0.0
O393 O 0.30872 0.0831 0.74879 0.0
C394 C 0.28995 0.16235 0.67276 0.0
C395 C 0.32011 0.11934 0.6221 0.0
C396 C 0.37275 0.208 0.64838 0.0
C397 C 0.34498 0.1705 0.76101 0.0
C398 C 0.38022 0.13467 0.70171 0.0
C399 C 0.29559 0.08333 0.72539 0.0
O400 O 0.29896 0.16347 0.64644 0.0
O401 O 0.30083 0.15795 0.69525 0.0
O402 O 0.87206 0.19382 0.74318 0.0
Mg403 Mg 0.84045 0.16602 0.71604 0.0
O404 O 0.85736 0.21292 0.71338 0.0
Mg405 Mg 0.85488 0.18941 0.66721 0.0
O406 O 0.8482 0.14675 0.68306 0.0
O407 O 0.83383 0.13047 0.72961 0.0
O408 O 0.85118 0.16727 0.6201 0.0
O409 O 0.89958 0.20346 0.6712 0.0
Mg410 Mg 0.87913 0.22251 0.61518 0.0
O411 O 0.86137 0.23042 0.64963 0.0
O412 O 0.85156 0.19438 0.58554 0.0
O413 O 0.91363 0.22074 0.62615 0.0
O414 O 0.88236 0.25876 0.6118 0.0
C415 C 0.795 0.16724 0.68668 0.0
C416 C 0.86713 0.21231 0.73897 0.0
C417 C 0.84139 0.12809 0.70311 0.0
C418 C 0.84699 0.17149 0.59286 0.0
C419 C 0.91762 0.21302 0.65136 0.0
C420 C 0.868 0.25264 0.6357 0.0
O421 O 0.80333 0.165 0.71241 0.0
O422 O 0.81043 0.17439 0.66418 0.0
H423 H 0.2808 0.82691 0.98402 0.0
H424 H 0.40877 0.93188 0.07799 0.0
H425 H 0.28786 0.83112 0.08114 0.0
H426 H 0.40593 0.93298 0.98068 0.0
H427 H 0.36458 0.89366 0.07813 0.0
H428 H 0.32626 0.86471 0.98087 0.0
C429 C 0.29185 0.83578 0.00463 0.0
C430 C 0.28038 0.82596 0.03291 0.0
C431 C 0.37344 0.90212 0.05663 0.0
C432 C 0.33225 0.86892 0.02947 0.0
C433 C 0.3988 0.92406 0.05654 0.0
C434 C 0.41104 0.93586 0.02929 0.0
C435 C 0.35982 0.89171 0.02926 0.0
C436 C 0.39719 0.9245 0.00221 0.0
C437 C 0.31774 0.85734 0.00281 0.0
C438 C 0.29557 0.83827 0.05886 0.0
N439 N 0.37217 0.9031 0.00287 0.0
N440 N 0.32058 0.85895 0.05648 0.0
H441 H 0.15373 0.40622 0.00125 0.0
H442 H 0.08034 0.48892 0.99298 0.0
H443 H 0.19264 0.49164 0.01002 0.0
H444 H 0.04203 0.40307 0.99005 0.0
H445 H 0.12251 0.49131 0.98265 0.0
H446 H 0.11473 0.40595 0.98044 0.0
C447 C 0.15414 0.42496 0.99806 0.0
C448 C 0.17599 0.44893 0.00764 0.0
C449 C 0.10478 0.47195 0.98358 0.0
C450 C 0.13144 0.44884 0.98495 0.0
C451 C 0.08067 0.47057 0.98944 0.0
C452 C 0.05783 0.44573 0.99344 0.0
C453 C 0.10594 0.44833 0.98182 0.0
C454 C 0.05933 0.42264 0.9881 0.0
C455 C 0.13195 0.42486 0.98627 0.0
C456 C 0.17592 0.47278 0.00301 0.0
N457 N 0.08308 0.4245 0.98314 0.0
N458 N 0.15366 0.47211 0.99259 0.0
H459 H 0.47764 0.66142 0.09677 0.0
H460 H 0.52319 0.62303 0.94925 0.0
H461 H 0.49869 0.70609 0.01402 0.0
H462 H 0.50618 0.57869 0.0318 0.0
H463 H 0.49771 0.64316 0.96694 0.0
H464 H 0.47165 0.62235 0.06862 0.0
C465 C 0.48033 0.66281 0.07255 0.0
C466 C 0.48973 0.68735 0.05792 0.0
C467 C 0.49906 0.62869 0.9811 0.0
C468 C 0.48299 0.64283 0.02567 0.0
C469 C 0.51365 0.61722 0.971 0.0
C470 C 0.51755 0.60004 0.98971 0.0
C471 C 0.48917 0.62369 0.01059 0.0
C472 C 0.50418 0.59248 0.01718 0.0
C473 C 0.47684 0.64047 0.05648 0.0
C474 C 0.49195 0.68778 0.0264 0.0
N475 N 0.49122 0.60504 0.02731 0.0
N476 N 0.48929 0.66605 0.01146 0.0
H477 H 0.81327 0.32532 0.93644 0.0
H478 H 0.9076 0.3774 0.0787 0.0
H479 H 0.79928 0.28404 0.02112 0.0
H480 H 0.9261 0.41884 0.99397 0.0
H481 H 0.86171 0.35065 0.06254 0.0
H482 H 0.84767 0.3659 0.96105 0.0
C483 C 0.81704 0.3249 0.96033 0.0
C484 C 0.80391 0.30096 0.97649 0.0
C485 C 0.87559 0.36586 0.04755 0.0
C486 C 0.84314 0.34733 0.00476 0.0
C487 C 0.90181 0.38116 0.05681 0.0
C488 C 0.9207 0.39977 0.03724 0.0
C489 C 0.8683 0.36863 0.01812 0.0
C490 C 0.91213 0.4043 0.00944 0.0
C491 C 0.83662 0.34812 0.97438 0.0
C492 C 0.80899 0.30185 0.00759 0.0
N493 N 0.88661 0.38827 0.0003 0.0
N494 N 0.82855 0.32447 0.02052 0.0
H495 H 0.70784 0.51459 0.98398 0.0
H496 H 0.63842 0.59537 0.03308 0.0
H497 H 0.74908 0.59145 0.02771 0.0
H498 H 0.59467 0.51217 0.0081 0.0
H499 H 0.67828 0.59209 0.0384 0.0
H500 H 0.66561 0.51091 0.99831 0.0
C501 C 0.70785 0.53039 0.99718 0.0
C502 C 0.73164 0.55336 0.00471 0.0
C503 C 0.6599 0.57438 0.0323 0.0
C504 C 0.68385 0.5496 0.02086 0.0
C505 C 0.63713 0.57626 0.0293 0.0
C506 C 0.61336 0.55413 0.01962 0.0
C507 C 0.65904 0.55035 0.02484 0.0
C508 C 0.61267 0.52976 0.0154 0.0
C509 C 0.68386 0.52834 0.00538 0.0
C510 C 0.73096 0.5735 0.02151 0.0
N511 N 0.63535 0.52866 0.01734 0.0
N512 N 0.70739 0.57129 0.02876 0.0
H513 H 0.46431 0.171 0.93603 0.0
H514 H 0.45517 0.07365 0.06847 0.0
H515 H 0.45453 0.18333 0.03004 0.0
H516 H 0.4853 0.07127 0.98039 0.0
H517 H 0.44936 0.11031 0.05231 0.0
H518 H 0.46641 0.13099 0.94955 0.0
C519 C 0.46235 0.16512 0.95946 0.0
C520 C 0.45943 0.18057 0.98202 0.0
C521 C 0.45729 0.10187 0.03645 0.0
C522 C 0.46185 0.13502 0.99756 0.0
C523 C 0.46063 0.08082 0.04564 0.0
C524 C 0.47098 0.06938 0.02582 0.0
C525 C 0.46422 0.11175 0.00711 0.0
C526 C 0.47746 0.0796 0.99648 0.0
C527 C 0.46373 0.14244 0.96715 0.0
C528 C 0.45714 0.17219 0.01202 0.0
N529 N 0.47398 0.10027 0.98798 0.0
N530 N 0.45839 0.15002 0.01889 0.0
H531 H 0.7265 0.14634 0.02491 0.0
H532 H 0.57142 0.08978 0.02083 0.0
H533 H 0.69174 0.19465 0.00288 0.0
H534 H 0.6079 0.04558 0.05336 0.0
H535 H 0.61488 0.1303 0.02113 0.0
H536 H 0.68328 0.11095 0.04147 0.0
C537 C 0.70968 0.14939 0.02346 0.0
C538 C 0.71241 0.17293 0.01134 0.0
C539 C 0.61329 0.11182 0.02873 0.0
C540 C 0.66292 0.13275 0.03059 0.0
C541 C 0.58844 0.08871 0.02875 0.0
C542 C 0.58614 0.06416 0.0364 0.0
C543 C 0.6359 0.11024 0.03631 0.0
C544 C 0.60885 0.06398 0.04662 0.0
C545 C 0.68504 0.1293 0.03309 0.0
C546 C 0.69023 0.17636 0.01104 0.0
N547 N 0.6328 0.08653 0.04578 0.0
N548 N 0.66631 0.1563 0.02001 0.0
H549 H 0.83626 0.52638 0.0747 0.0
H550 H 0.93623 0.51091 0.96681 0.0
H551 H 0.86363 0.56696 0.98997 0.0
H552 H 0.93395 0.49516 0.06228 0.0
H553 H 0.90433 0.52555 0.97406 0.0
H554 H 0.86802 0.51036 0.07031 0.0
C555 C 0.84919 0.53211 0.05538 0.0
C556 C 0.84756 0.54804 0.03266 0.0
C557 C 0.91077 0.51891 0.99347 0.0
C558 C 0.88314 0.52944 0.0272 0.0
C559 C 0.92891 0.51036 0.98936 0.0
C560 C 0.93806 0.50206 0.01407 0.0
C561 C 0.9014 0.51904 0.02247 0.0
C562 C 0.92754 0.50156 0.04265 0.0
C563 C 0.86718 0.52296 0.05287 0.0
C564 C 0.86445 0.55478 0.00794 0.0
N565 N 0.90974 0.51005 0.04613 0.0
N566 N 0.88141 0.54529 0.00576 0.0
H567 H 0.44484 0.2921 0.01098 0.0
H568 H 0.53555 0.45043 0.995 0.0
H569 H 0.52972 0.33403 0.01912 0.0
H570 H 0.45252 0.4106 0.0157 0.0
H571 H 0.53268 0.40673 0.99005 0.0
H572 H 0.44653 0.33445 0.00016 0.0
C573 C 0.4638 0.31029 0.01049 0.0
C574 C 0.48715 0.30988 0.01664 0.0
C575 C 0.515 0.40761 0.9951 0.0
C576 C 0.48934 0.35808 0.00371 0.0
C577 C 0.5166 0.43247 0.9976 0.0
C578 C 0.4943 0.43395 0.00609 0.0
C579 C 0.49089 0.38429 0.00081 0.0
C580 C 0.47023 0.41019 0.00948 0.0
C581 C 0.46479 0.33437 0.00419 0.0
C582 C 0.5113 0.33377 0.01502 0.0
N583 N 0.46918 0.38632 0.00709 0.0
N584 N 0.51179 0.35699 0.00892 0.0
H585 H 0.14913 0.71208 0.0069 0.0
H586 H 0.09463 0.55462 0.0079 0.0
H587 H 0.19542 0.67629 0.98064 0.0
H588 H 0.04466 0.58967 0.00887 0.0
H589 H 0.13365 0.59959 0.01048 0.0
H590 H 0.11231 0.66772 0.01898 0.0
C591 C 0.15141 0.69479 0.00357 0.0
C592 C 0.17493 0.69757 0.99202 0.0
C593 C 0.11412 0.59738 0.01081 0.0
C594 C 0.13337 0.64704 0.0064 0.0
C595 C 0.09194 0.57178 0.00971 0.0
C596 C 0.06662 0.56869 0.0082 0.0
C597 C 0.11071 0.61978 0.01054 0.0
C598 C 0.064 0.59142 0.00999 0.0
C599 C 0.13053 0.66956 0.01061 0.0
C600 C 0.1773 0.67476 0.9889 0.0
N601 N 0.08577 0.61604 0.01085 0.0
N602 N 0.1567 0.65039 0.99585 0.0
H603 H 0.30632 0.46509 0.05449 0.0
H604 H 0.43645 0.50598 0.95911 0.0
H605 H 0.30656 0.46659 0.95726 0.0
H606 H 0.43533 0.51551 0.05565 0.0
H607 H 0.3898 0.49427 0.95668 0.0
H608 H 0.35433 0.48508 0.05458 0.0
C609 C 0.31663 0.46985 0.03318 0.0
C610 C 0.30265 0.46446 0.00588 0.0
C611 C 0.39993 0.49928 0.97831 0.0
C612 C 0.35753 0.48708 0.0056 0.0
C613 C 0.42655 0.50609 0.97966 0.0
C614 C 0.43956 0.51121 0.00767 0.0
C615 C 0.38646 0.49761 0.00517 0.0
C616 C 0.42589 0.51116 0.03362 0.0
C617 C 0.34401 0.4813 0.03316 0.0
C618 C 0.31676 0.47063 0.97878 0.0
N619 N 0.40006 0.50416 0.03177 0.0
N620 N 0.34349 0.48154 0.97929 0.0
H621 H 0.51839 0.82857 0.0832 0.0
H622 H 0.51897 0.91888 0.95042 0.0
H623 H 0.52309 0.81046 0.98976 0.0
H624 H 0.49198 0.92259 0.0397 0.0
H625 H 0.51635 0.87664 0.96301 0.0
H626 H 0.50615 0.86147 0.06735 0.0
C627 C 0.51643 0.83129 0.05934 0.0
C628 C 0.52135 0.81656 0.03775 0.0
C629 C 0.51042 0.88632 0.97969 0.0
C630 C 0.50783 0.85441 0.0194 0.0
C631 C 0.51178 0.91036 0.97244 0.0
C632 C 0.50591 0.92427 0.9942 0.0
C633 C 0.50378 0.87648 0.00914 0.0
C634 C 0.49666 0.91243 0.02233 0.0
C635 C 0.50938 0.84998 0.05029 0.0
C636 C 0.51916 0.82122 0.00711 0.0
N637 N 0.49647 0.88947 0.02927 0.0
N638 N 0.51274 0.83987 0.99883 0.0
H639 H 0.97509 0.14871 0.39284 0.0
H640 H 0.04486 0.28142 0.30734 0.0
H641 H 0.93688 0.16012 0.31549 0.0
H642 H 0.08984 0.24801 0.34567 0.0
H643 H 0.00545 0.23708 0.30707 0.0
H644 H 0.0176 0.18505 0.37542 0.0
C645 C 0.97578 0.15881 0.37206 0.0
C646 C 0.9526 0.15168 0.35562 0.0
C647 C 0.0241 0.23929 0.31471 0.0
C648 C 0.00087 0.19324 0.33574 0.0
C649 C 0.04658 0.26455 0.31476 0.0
C650 C 0.07048 0.26833 0.32682 0.0
C651 C 0.02542 0.21796 0.32778 0.0
C652 C 0.07173 0.24589 0.33624 0.0
C653 C -1e-05 0.17932 0.36197 0.0
C654 C 0.95442 0.16517 0.32874 0.0
N655 N 0.04928 0.22173 0.33738 0.0
N656 N 0.97811 0.1857 0.31989 0.0
H657 H 0.8251 0.7556 0.31701 0.0
H658 H 0.76008 0.82261 0.39584 0.0
H659 H 0.87231 0.82959 0.36496 0.0
H660 H 0.72852 0.78629 0.30909 0.0
H661 H 0.80258 0.82714 0.38233 0.0
H662 H 0.79117 0.76807 0.30835 0.0
C663 C 0.82876 0.77501 0.32446 0.0
C664 C 0.85125 0.79166 0.34174 0.0
C665 C 0.78657 0.81866 0.36593 0.0
C666 C 0.81248 0.80543 0.33319 0.0
C667 C 0.76231 0.81581 0.37379 0.0
C668 C 0.74094 0.80371 0.35366 0.0
C669 C 0.78915 0.80843 0.33818 0.0
C670 C 0.74468 0.79549 0.32522 0.0
C671 C 0.80944 0.78209 0.31964 0.0
C672 C 0.85511 0.81635 0.35151 0.0
N673 N 0.76826 0.79733 0.31854 0.0
N674 N 0.83552 0.82223 0.34783 0.0
H675 H 0.19759 0.06036 0.33199 0.0
H676 H 0.17606 0.91316 0.34733 0.0
H677 H 0.1722 0.01435 0.41359 0.0
H678 H 0.21009 0.96339 0.26971 0.0
H679 H 0.16667 0.94662 0.36877 0.0
H680 H 0.19385 0.02141 0.30531 0.0
C681 C 0.19065 0.04185 0.34405 0.0
C682 C 0.18549 0.04052 0.37501 0.0
C683 C 0.17598 0.95015 0.34691 0.0
C684 C 0.18151 -0.00384 0.34501 0.0
C685 C 0.18138 0.93108 0.33473 0.0
C686 C 0.19436 0.9357 0.30701 0.0
C687 C 0.18351 0.9739 0.33115 0.0
C688 C 0.20043 0.95912 0.2914 0.0
C689 C 0.1887 0.01969 0.32895 0.0
C690 C 0.17672 0.01618 0.38975 0.0
N691 N 0.19517 0.97741 0.30379 0.0
N692 N 0.17528 -0.00497 0.37471 0.0
H693 H 0.47916 0.60693 0.36268 0.0
H694 H 0.60016 0.75452 0.33875 0.0
H695 H 0.4913 0.65085 0.28032 0.0
H696 H 0.59216 0.70401 0.41398 0.0
H697 H 0.55612 0.72051 0.32074 0.0
H698 H 0.51552 0.64662 0.3862 0.0
C699 C 0.48906 0.62514 0.34979 0.0
C700 C 0.48251 0.62554 0.3194 0.0
C701 C 0.564 0.71705 0.34132 0.0
C702 C 0.52452 0.67085 0.34587 0.0
C703 C 0.58915 0.73637 0.35148 0.0
C704 C 0.60008 0.73184 0.37749 0.0
C705 C 0.54971 0.69326 0.35753 0.0
C706 C 0.58475 0.70821 0.39352 0.0
C707 C 0.51001 0.64774 0.3631 0.0
C708 C 0.49613 0.64963 0.30366 0.0
N709 N 0.56048 0.6898 0.3832 0.0
N710 N 0.51676 0.67126 0.31695 0.0
H711 H 0.38419 0.8523 0.31238 0.0
H712 H 0.28547 0.90287 0.36391 0.0
H713 H 0.4125 0.93058 0.35046 0.0
H714 H 0.27141 0.85071 0.28783 0.0
H715 H 0.32844 0.90525 0.37254 0.0
H716 H 0.33864 0.84332 0.31737 0.0
C717 C 0.38064 0.86734 0.32236 0.0
C718 C 0.40178 0.89215 0.33101 0.0
C719 C 0.31568 0.89301 0.35428 0.0
C720 C 0.35021 0.88222 0.33664 0.0
C721 C 0.29129 0.89159 0.34945 0.0
C722 C 0.27526 0.87671 0.32506 0.0
C723 C 0.32351 0.879 0.33487 0.0
C724 C 0.28345 0.86247 0.30677 0.0
C725 C 0.3548 0.86229 0.3251 0.0
C726 C 0.39649 0.9112 0.34362 0.0
N727 N 0.30704 0.86396 0.31203 0.0
N728 N 0.37109 0.90591 0.34594 0.0
H729 H 0.14901 0.53276 0.37387 0.0
H730 H 0.16015 0.41048 0.31598 0.0
H731 H 0.17423 0.52807 0.28369 0.0
H732 H 0.14505 0.42273 0.40806 0.0
H733 H 0.17565 0.45775 0.30593 0.0
H734 H 0.15798 0.49792 0.38931 0.0
C735 C 0.15696 0.52485 0.35738 0.0
C736 C 0.16015 0.53296 0.32717 0.0
C737 C 0.16966 0.45026 0.32855 0.0
C738 C 0.16963 0.49211 0.34457 0.0
C739 C 0.16097 0.42338 0.33425 0.0
C740 C 0.15084 0.41287 0.36263 0.0
C741 C 0.16802 0.46632 0.35148 0.0
C742 C 0.15222 0.43015 0.38567 0.0
C743 C 0.16196 0.50472 0.3662 0.0
C744 C 0.17048 0.52174 0.30696 0.0
N745 N 0.16019 0.45593 0.37948 0.0
N746 N 0.17427 0.50146 0.31583 0.0
H747 H 0.35595 0.52381 0.32235 0.0
H748 H 0.26299 0.38574 0.39817 0.0
H749 H 0.38382 0.48295 0.37998 0.0
H750 H 0.23376 0.42962 0.34856 0.0
H751 H 0.30626 0.42592 0.40199 0.0
H752 H 0.31107 0.49428 0.33964 0.0
C753 C 0.35272 0.50874 0.33879 0.0
C754 C 0.37363 0.50531 0.34916 0.0
C755 C 0.2903 0.42709 0.39092 0.0
C756 C 0.32214 0.47159 0.36929 0.0
C757 C 0.26554 0.40418 0.38901 0.0
C758 C 0.24503 0.40444 0.37275 0.0
C759 C 0.29474 0.45012 0.37558 0.0
C760 C 0.24919 0.4287 0.36122 0.0
C761 C 0.32702 0.49198 0.34885 0.0
C762 C 0.36816 0.48583 0.37097 0.0
N763 N 0.27386 0.45048 0.36211 0.0
N764 N 0.34293 0.46946 0.37999 0.0
H765 H 0.50731 0.86556 0.40829 0.0
H766 H 0.59729 0.84148 0.29204 0.0
H767 H 0.5345 0.90716 0.32411 0.0
H768 H 0.59533 0.82341 0.38678 0.0
H769 H 0.56748 0.85867 0.30159 0.0
H770 H 0.53449 0.84469 0.39963 0.0
C771 C 0.51933 0.87056 0.38823 0.0
C772 C 0.51907 0.88833 0.36703 0.0
C773 C 0.57345 0.85079 0.32025 0.0
C774 C 0.54922 0.86398 0.3565 0.0
C775 C 0.59029 0.84073 0.3148 0.0
C776 C 0.59911 0.83128 0.33873 0.0
C777 C 0.56514 0.85121 0.34979 0.0
C778 C 0.58922 0.83073 0.36771 0.0
C779 C 0.53464 0.85856 0.38321 0.0
C780 C 0.53446 0.89377 0.34109 0.0
N781 N 0.57285 0.84074 0.37249 0.0
N782 N 0.54882 0.88153 0.33646 0.0
H783 H 0.10606 0.62874 0.31935 0.0
H784 H 0.17885 0.76602 0.41194 0.0
H785 H 0.14351 0.63838 0.40618 0.0
H786 H 0.14978 0.76044 0.32095 0.0
H787 H 0.16492 0.71886 0.41025 0.0
H788 H 0.11888 0.67607 0.32045 0.0
C789 C 0.11644 0.64079 0.33894 0.0
C790 C 0.12345 0.62978 0.36293 0.0
C791 C 0.16166 0.72785 0.39053 0.0
C792 C 0.13888 0.68376 0.36395 0.0
C793 C 0.16972 0.75481 0.39143 0.0
C794 C 0.16533 0.76701 0.36658 0.0
C795 C 0.14879 0.71278 0.36466 0.0
C796 C 0.15362 0.75171 0.34051 0.0
C797 C 0.12402 0.66777 0.33941 0.0
C798 C 0.13743 0.64613 0.38749 0.0
N799 N 0.14546 0.7252 0.34032 0.0
N800 N 0.14475 0.67234 0.38733 0.0
H801 H 0.83795 0.03148 0.27812 0.0
H802 H 0.72418 0.90588 0.36503 0.0
H803 H 0.81337 0.03782 0.36782 0.0
H804 H 0.73573 0.90891 0.2687 0.0
H805 H 0.76038 0.95245 0.36897 0.0
H806 H 0.80364 0.98448 0.27643 0.0
C807 C 0.82507 0.02294 0.29731 0.0
C808 C 0.82801 0.03845 0.3229 0.0
C809 C 0.75494 0.94278 0.34704 0.0
C810 C 0.78916 0.98474 0.32151 0.0
C811 C 0.73447 0.91625 0.34484 0.0
C812 C 0.72686 0.9037 0.31648 0.0
C813 C 0.768 0.95645 0.32076 0.0
C814 C 0.74073 0.91795 0.29096 0.0
C815 C 0.80559 -0.00385 0.29644 0.0
C816 C 0.8113 0.02642 0.34753 0.0
N817 N 0.76059 0.9435 0.29372 0.0
N818 N 0.79251 0.0002 0.34626 0.0
H819 H 0.96133 0.75862 0.38033 0.0
H820 H 0.10162 0.83813 0.29974 0.0
H821 H 0.97118 0.79398 0.29259 0.0
H822 H 0.09206 0.81888 0.39454 0.0
H823 H 0.05388 0.82025 0.2953 0.0
H824 H 0.00929 0.77766 0.38427 0.0
C825 C 0.97369 0.77013 0.36176 0.0
C826 C 0.96246 0.77447 0.33594 0.0
C827 C 0.06231 0.82013 0.31709 0.0
C828 C 0.01716 0.79671 0.34039 0.0
C829 C 0.08954 0.8304 0.31967 0.0
C830 C 0.10085 0.82993 0.34754 0.0
C831 C 0.04627 0.80909 0.34248 0.0
C832 C 0.08424 0.81966 0.3726 0.0
C833 C 0.00099 0.78117 0.36407 0.0
C834 C 0.97917 0.78992 0.31266 0.0
N835 N 0.05779 0.80946 0.36941 0.0
N836 N 0.00575 0.80046 0.31539 0.0
H837 H 0.19122 0.17395 0.42002 0.0
H838 H 0.14473 0.24502 0.30425 0.0
H839 H 0.16305 0.14551 0.3298 0.0
H840 H 0.17564 0.2757 0.3929 0.0
H841 H 0.13689 0.2012 0.31955 0.0
H842 H 0.17332 0.20416 0.41624 0.0
C843 C 0.18095 0.17391 0.39957 0.0
C844 C 0.17911 0.15781 0.37493 0.0
C845 C 0.1445 0.2172 0.3361 0.0
C846 C 0.15861 0.19214 0.37032 0.0
C847 C 0.14859 0.24209 0.32747 0.0
C848 C 0.16086 0.26378 0.34744 0.0
C849 C 0.15354 0.21442 0.36458 0.0
C850 C 0.16593 0.25927 0.37705 0.0
C851 C 0.17064 0.19102 0.39743 0.0
C852 C 0.1653 0.15805 0.34907 0.0
N853 N 0.16295 0.23521 0.38455 0.0
N854 N 0.15596 0.1753 0.34724 0.0
H855 H 0.63847 0.47503 0.71199 0.0
H856 H 0.71177 0.60909 0.63366 0.0
H857 H 0.60266 0.49199 0.63643 0.0
H858 H 0.75475 0.57401 0.67314 0.0
H859 H 0.67297 0.56475 0.62825 0.0
H860 H 0.68212 0.50858 0.69412 0.0
C861 C 0.63997 0.48552 0.69125 0.0
C862 C 0.61719 0.48112 0.67573 0.0
C863 C 0.69109 0.56657 0.63722 0.0
C864 C 0.66672 0.51975 0.65551 0.0
C865 C 0.71322 0.59187 0.64027 0.0
C866 C 0.73622 0.59507 0.65424 0.0
C867 C 0.69176 0.54456 0.6493 0.0
C868 C 0.73725 0.57226 0.6624 0.0
C869 C 0.66481 0.50451 0.68095 0.0
C870 C 0.61992 0.49504 0.64899 0.0
N871 N 0.71499 0.54794 0.6607 0.0
N872 N 0.64427 0.51426 0.64006 0.0
H873 H 0.48425 0.07955 0.65938 0.0
H874 H 0.42607 0.15641 0.73376 0.0
H875 H 0.53615 0.15805 0.69555 0.0
H876 H 0.39046 0.11582 0.64992 0.0
H877 H 0.46656 0.15622 0.72042 0.0
H878 H 0.44942 0.09124 0.65338 0.0
C879 C 0.48852 0.09956 0.66491 0.0
C880 C 0.51285 0.11797 0.67789 0.0
C881 C 0.45002 0.14772 0.70473 0.0
C882 C 0.47326 0.13096 0.67241 0.0
C883 C 0.42689 0.14755 0.71249 0.0
C884 C 0.40498 0.13582 0.69304 0.0
C885 C 0.45086 0.1353 0.67782 0.0
C886 C 0.40703 0.12491 0.66553 0.0
C887 C 0.46874 0.1062 0.66159 0.0
C888 C 0.51755 0.14348 0.68533 0.0
N889 N 0.42945 0.12432 0.65898 0.0
N890 N 0.49763 0.14905 0.68325 0.0
H891 H 0.81789 0.33964 0.74781 0.0
H892 H 0.87798 0.29962 0.61059 0.0
H893 H 0.8575 0.39115 0.6729 0.0
H894 H 0.83735 0.24735 0.6849 0.0
H895 H 0.86429 0.33047 0.62888 0.0
H896 H 0.81684 0.30246 0.72019 0.0
C897 C 0.82562 0.34282 0.7251 0.0
C898 C 0.83801 0.36837 0.7126 0.0
C899 C 0.85816 0.31218 0.6411 0.0
C900 C 0.83776 0.32641 0.68137 0.0
C901 C 0.86611 0.29457 0.63077 0.0
C902 C 0.85913 0.27101 0.64654 0.0
C903 C 0.84326 0.30637 0.66754 0.0
C904 C 0.84349 0.26545 0.67232 0.0
C905 C 0.82524 0.32172 0.70945 0.0
C906 C 0.84778 0.37167 0.68321 0.0
N907 N 0.83628 0.28315 0.68219 0.0
N908 N 0.84794 0.35101 0.66878 0.0
H909 H 0.14097 0.96608 0.65641 0.0
H910 H 0.28014 0.03244 0.74229 0.0
H911 H 0.18476 0.92514 0.66976 0.0
H912 H 0.25522 0.07827 0.68889 0.0
H913 H 0.24001 0.99168 0.72685 0.0
H914 H 0.17746 0.00617 0.68025 0.0
C915 C 0.15803 0.96544 0.66505 0.0
C916 C 0.16008 0.94252 0.66129 0.0
C917 C 0.24329 0.01069 0.71871 0.0
C918 C 0.20152 0.98784 0.68817 0.0
C919 C 0.26612 0.03396 0.72752 0.0
C920 C 0.27104 0.05877 0.71674 0.0
C921 C 0.22501 0.01227 0.69944 0.0
C922 C 0.25224 0.05952 0.69754 0.0
C923 C 0.17884 0.98826 0.67832 0.0
C924 C 0.1826 0.94256 0.67239 0.0
N925 N 0.22996 0.03657 0.68955 0.0
N926 N 0.20254 0.96493 0.68534 0.0
H927 H 0.05416 0.19945 0.6175 0.0
H928 H 0.94269 0.214 0.70491 0.0
H929 H 0.07023 0.23758 0.70492 0.0
H930 H 0.94873 0.21043 0.60814 0.0
H931 H 0.98427 0.2129 0.7103 0.0
H932 H 0.00905 0.19142 0.6197 0.0
C933 C 0.04794 0.20577 0.63737 0.0
C934 C 0.06582 0.21949 0.66087 0.0
C935 C 0.97629 0.2123 0.688 0.0
C936 C 0.01451 0.21086 0.66337 0.0
C937 C 0.95271 0.21297 0.6849 0.0
C938 C 0.94251 0.21271 0.65602 0.0
C939 C 0.98912 0.21064 0.66204 0.0
C940 C 0.95608 0.21114 0.63082 0.0
C941 C 0.0223 0.20131 0.63859 0.0
C942 C 0.05687 0.22704 0.68634 0.0
N943 N 0.97855 0.21007 0.63444 0.0
N944 N 0.03178 0.22296 0.68679 0.0
H945 H 0.81328 0.86095 0.6905 0.0
H946 H 0.8037 0.72718 0.63352 0.0
H947 H 0.81362 0.8436 0.59562 0.0
H948 H 0.81694 0.75424 0.72599 0.0
H949 H 0.81436 0.77205 0.61754 0.0
H950 H 0.82047 0.8244 0.70266 0.0
C951 C 0.81528 0.84974 0.6721 0.0
C952 C 0.81291 0.85556 0.64192 0.0
C953 C 0.81573 0.7684 0.64124 0.0
C954 C 0.82042 0.81271 0.65588 0.0
C955 C 0.80996 0.74293 0.65025 0.0
C956 C 0.80943 0.73732 0.68101 0.0
C957 C 0.82069 0.78793 0.66333 0.0
C958 C 0.8171 0.75799 0.70204 0.0
C959 C 0.81931 0.82867 0.67911 0.0
C960 C 0.81493 0.83963 0.61922 0.0
N961 N 0.82204 0.7823 0.69286 0.0
N962 N 0.8183 0.81873 0.62667 0.0
H963 H 0.04729 0.82014 0.71237 0.0
H964 H 0.89631 0.76203 0.66587 0.0
H965 H 0.02061 0.84278 0.63283 0.0
H966 H 0.92493 0.72293 0.72486 0.0
H967 H 0.94024 0.80214 0.66747 0.0
H968 H 0.00148 0.79468 0.72943 0.0
C969 C 0.03183 0.82029 0.69889 0.0
C970 C 0.03776 0.83376 0.67129 0.0
C971 C 0.93663 0.7851 0.68092 0.0
C972 C 0.98533 0.80442 0.69042 0.0
C973 C 0.9115 0.76239 0.68035 0.0
C974 C 0.90722 0.73928 0.69519 0.0
C975 C 0.95736 0.78447 0.69646 0.0
C976 C 0.9276 0.74046 0.71313 0.0
C977 C 0.00573 0.80576 0.70861 0.0
C978 C 0.01694 0.83291 0.6544 0.0
N979 N 0.95196 0.76254 0.7129 0.0
N980 N 0.99162 0.8183 0.66413 0.0
H981 H 0.17007 0.19448 0.74357 0.0
H982 H 0.2703 0.18319 0.63182 0.0
H983 H 0.20269 0.24394 0.66534 0.0
H984 H 0.26273 0.15813 0.72464 0.0
H985 H 0.24029 0.20014 0.6416 0.0
H986 H 0.20018 0.17689 0.73579 0.0
C987 C 0.18393 0.20194 0.7251 0.0
C988 C 0.18426 0.22086 0.70523 0.0
C989 C 0.24515 0.19086 0.6598 0.0
C990 C 0.21783 0.20031 0.69562 0.0
C991 C 0.26208 0.18094 0.65418 0.0
C992 C 0.26916 0.16936 0.67751 0.0
C993 C 0.23495 0.18892 0.68886 0.0
C994 C 0.2579 0.16705 0.70605 0.0
C995 C 0.20093 0.19182 0.72058 0.0
C996 C 0.20211 0.22955 0.68127 0.0
N997 N 0.24132 0.17679 0.71096 0.0
N998 N 0.21806 0.21904 0.67697 0.0
H999 H 0.78314 0.9636 0.66041 0.0
H1000 H 0.86634 0.10788 0.73524 0.0
H1001 H 0.84553 0.98448 0.72572 0.0
H1002 H 0.81627 0.09245 0.65718 0.0
H1003 H 0.85939 0.06279 0.73148 0.0
H1004 H 0.79369 0.01027 0.65968 0.0
C1005 C 0.7988 0.97805 0.6749 0.0
C1006 C 0.81323 0.97036 0.69356 0.0
C1007 C 0.85018 0.06927 0.71486 0.0
C1008 C 0.82587 0.02351 0.6923 0.0
C1009 C 0.8543 0.09502 0.7169 0.0
C1010 C 0.84193 0.10365 0.69639 0.0
C1011 C 0.83299 0.05185 0.69257 0.0
C1012 C 0.82634 0.08641 0.67316 0.0
C1013 C 0.80501 0.00463 0.67424 0.0
C1014 C 0.8337 0.98969 0.71145 0.0
N1015 N 0.82194 0.06103 0.67211 0.0
N1016 N 0.83938 0.01541 0.71044 0.0
H1017 H 0.50004 0.36594 0.61068 0.0
H1018 H 0.39045 0.239 0.69982 0.0
H1019 H 0.47175 0.37186 0.69837 0.0
H1020 H 0.40586 0.23891 0.60468 0.0
H1021 H 0.4244 0.28645 0.70243 0.0
H1022 H 0.46883 0.31796 0.61022 0.0
C1023 C 0.48689 0.35709 0.6296 0.0
C1024 C 0.48789 0.37273 0.65428 0.0
C1025 C 0.42039 0.27591 0.68107 0.0
C1026 C 0.45279 0.31798 0.65444 0.0
C1027 C 0.40123 0.24887 0.67965 0.0
C1028 C 0.39522 0.23522 0.65194 0.0
C1029 C 0.43368 0.28905 0.65466 0.0
C1030 C 0.40965 0.24884 0.62642 0.0
C1031 C 0.46925 0.32975 0.62948 0.0
C1032 C 0.47105 0.36035 0.6787 0.0
N1033 N 0.42813 0.27499 0.62838 0.0
N1034 N 0.45414 0.33362 0.6782 0.0
H1035 H 0.62619 0.09301 0.70779 0.0
H1036 H 0.77039 0.17132 0.63567 0.0
H1037 H 0.64142 0.13201 0.62169 0.0
H1038 H 0.75563 0.14565 0.72839 0.0
H1039 H 0.7232 0.15542 0.62878 0.0
H1040 H 0.6736 0.1097 0.71419 0.0
C1041 C 0.63962 0.10487 0.69012 0.0
C1042 C 0.63006 0.1109 0.66405 0.0
C1043 C 0.73035 0.1534 0.65065 0.0
C1044 C 0.68417 0.13041 0.67125 0.0
C1045 C 0.75728 0.1625 0.65462 0.0
C1046 C 0.76697 0.15972 0.68262 0.0
C1047 C 0.71301 0.14127 0.67479 0.0
C1048 C 0.74907 0.14818 0.70639 0.0
C1049 C 0.66662 0.11455 0.69382 0.0
C1050 C 0.64812 0.1267 0.64195 0.0
N1051 N 0.72296 0.13924 0.70186 0.0
N1052 N 0.67437 0.13589 0.646 0.0
H1053 H 0.82485 0.47277 0.67612 0.0
H1054 H 0.84904 0.61503 0.72415 0.0
H1055 H 0.8703 0.51751 0.75381 0.0
H1056 H 0.81335 0.57577 0.64003 0.0
H1057 H 0.84285 0.57289 0.74381 0.0
H1058 H 0.80837 0.50402 0.67031 0.0
C1059 C 0.83124 0.48919 0.69198 0.0
C1060 C 0.84962 0.49329 0.71479 0.0
C1061 C 0.83547 0.57319 0.72143 0.0
C1062 C 0.83065 0.52872 0.70873 0.0
C1063 C 0.83858 0.59713 0.71048 0.0
C1064 C 0.83163 0.59858 0.6806 0.0
C1065 C 0.82585 0.55096 0.70199 0.0
C1066 C 0.81891 0.5752 0.66326 0.0
C1067 C 0.82172 0.50686 0.68884 0.0
C1068 C 0.85672 0.51425 0.7354 0.0
N1069 N 0.81692 0.55238 0.67398 0.0
N1070 N 0.84755 0.53148 0.73161 0.0
H1071 H 0.43877 0.89498 0.23262 0.0
H1072 H 0.53242 0.02197 0.13965 0.0
H1073 H 0.51164 0.95681 0.27167 0.0
H1074 H 0.48373 0.94538 0.09685 0.0
H1075 H 0.52555 -0.00035 0.18837 0.0
H1076 H 0.45422 0.91413 0.18266 0.0
C1077 C 0.4581 0.91255 0.23055 0.0
C1078 C 0.47394 0.9245 0.25614 0.0
C1079 C 0.51683 0.98774 0.16819 0.0
C1080 C 0.49165 0.9466 0.19929 0.0
C1081 C 0.52074 0.00043 0.14042 0.0
C1082 C 0.50845 0.98552 0.11423 0.0
C1083 C 0.50002 0.96005 0.1698 0.0
C1084 C 0.49355 0.95767 0.11647 0.0
C1085 C 0.46698 0.92335 0.20209 0.0
C1086 C 0.49891 0.9471 0.25236 0.0
N1087 N 0.4893 0.94588 0.14388 0.0
N1088 N 0.50688 0.95771 0.22445 0.0
H1089 H 0.08081 0.56105 0.2625 0.0
H1090 H 0.05098 0.46416 0.12835 0.0
H1091 H 0.14118 0.54734 0.22508 0.0
H1092 H 0.02564 0.52213 0.11761 0.0
H1093 H 0.07794 0.48932 0.17151 0.0
H1094 H 0.05514 0.54375 0.2154 0.0
C1095 C 0.08892 0.55492 0.24426 0.0
C1096 C 0.11296 0.55511 0.24797 0.0
C1097 C 0.06648 0.49653 0.15968 0.0
C1098 C 0.08354 0.53496 0.19485 0.0
C1099 C 0.05091 0.48211 0.13521 0.0
C1100 C 0.03607 0.49111 0.11935 0.0
C1101 C 0.06688 0.51988 0.16888 0.0
C1102 C 0.03693 0.51464 0.12922 0.0
C1103 C 0.07423 0.54504 0.21753 0.0
C1104 C 0.1224 0.54679 0.22362 0.0
N1105 N 0.05199 0.52822 0.15371 0.0
N1106 N 0.10744 0.53657 0.19836 0.0
H1107 H 0.47192 0.60005 0.21097 0.0
H1108 H 0.533 0.51961 0.1302 0.0
H1109 H 0.46768 0.52933 0.24796 0.0
H1110 H 0.51837 0.57648 0.08389 0.0
H1111 H 0.51611 0.52834 0.17652 0.0
H1112 H 0.4938 0.59541 0.16634 0.0
C1113 C 0.47542 0.58339 0.20947 0.0
C1114 C 0.46797 0.56499 0.23301 0.0
C1115 C 0.51683 0.53908 0.15628 0.0
C1116 C 0.49344 0.55985 0.18243 0.0
C1117 C 0.52674 0.53435 0.12985 0.0
C1118 C 0.52663 0.54696 0.10287 0.0
C1119 C 0.50694 0.55671 0.15583 0.0
C1120 C 0.51851 0.56603 0.10398 0.0
C1121 C 0.48799 0.58082 0.18411 0.0
C1122 C 0.47292 0.54376 0.23011 0.0
N1123 N 0.50871 0.57011 0.12995 0.0
N1124 N 0.48554 0.54186 0.20531 0.0
H1125 H 0.86566 0.38385 0.82029 0.0
H1126 H 0.00975 0.47528 0.89056 0.0
H1127 H 0.92296 0.46024 0.78478 0.0
H1128 H 0.9436 0.41853 0.94309 0.0
H1129 H 0.98153 0.46105 0.84562 0.0
H1130 H 0.89723 0.38905 0.86016 0.0
C1131 C 0.88492 0.4017 0.82096 0.0
C1132 C 0.8917 0.42184 0.7996 0.0
C1133 C 0.97334 0.45145 0.86692 0.0
C1134 C 0.92787 0.4276 0.84446 0.0
C1135 C 0.98945 0.45938 0.89256 0.0
C1136 C 0.97874 0.44861 0.92079 0.0
C1137 C 0.94649 0.43244 0.86954 0.0
C1138 C 0.95245 0.42779 0.92189 0.0
C1139 C 0.90288 0.40459 0.84356 0.0
C1140 C 0.91688 0.44452 0.80122 0.0
N1141 N 0.93705 0.42062 0.89665 0.0
N1142 N 0.93412 0.4468 0.82331 0.0
H1143 H 0.53411 0.42809 0.77994 0.0
H1144 H 0.55621 0.55724 0.87085 0.0
H1145 H 0.57086 0.50756 0.74372 0.0
H1146 H 0.5219 0.47954 0.91153 0.0
H1147 H 0.55659 0.53762 0.82249 0.0
H1148 H 0.52494 0.44486 0.82665 0.0
C1149 C 0.54008 0.44901 0.78175 0.0
C1150 C 0.55357 0.46654 0.75808 0.0
C1151 C 0.54882 0.52472 0.84186 0.0
C1152 C 0.54315 0.48578 0.81125 0.0
C1153 C 0.5486 0.53594 0.86956 0.0
C1154 C 0.53938 0.52005 0.89537 0.0
C1155 C 0.54001 0.49736 0.8398 0.0
C1156 C 0.52931 0.49251 0.89218 0.0
C1157 C 0.53489 0.45856 0.8084 0.0
C1158 C 0.56092 0.49344 0.76162 0.0
N1159 N 0.5302 0.48204 0.8649 0.0
N1160 N 0.5557 0.50221 0.78769 0.0
H1161 H 0.54991 0.05058 0.75514 0.0
H1162 H 0.49024 0.04557 0.91939 0.0
H1163 H 0.51618 0.09942 0.77985 0.0
H1164 H 0.53859 0.01128 0.89577 0.0
H1165 H 0.49333 0.06064 0.86672 0.0
H1166 H 0.53997 0.03118 0.80537 0.0
C1167 C 0.54045 0.05725 0.77115 0.0
C1168 C 0.53402 0.07675 0.76328 0.0
C1169 C 0.50308 0.04965 0.8732 0.0
C1170 C 0.52232 0.05446 0.82093 0.0
C1171 C 0.5012 0.04099 0.9031 0.0
C1172 C 0.51447 0.0275 0.91194 0.0
C1173 C 0.51796 0.04434 0.85225 0.0
C1174 C 0.52842 0.02202 0.89006 0.0
C1175 C 0.53462 0.04608 0.79981 0.0
C1176 C 0.52127 0.08425 0.78484 0.0
N1177 N 0.52983 0.03048 0.86139 0.0
N1178 N 0.51594 0.07319 0.81275 0.0
H1179 H 0.15025 0.23584 0.57401 0.0
H1180 H 0.1336 0.34045 0.47609 0.0
H1181 H 0.14024 0.29917 0.6109 0.0
H1182 H 0.16015 0.28979 0.43668 0.0
H1183 H 0.14003 0.32754 0.52604 0.0
H1184 H 0.15897 0.25731 0.52433 0.0
C1185 C 0.15072 0.25468 0.57178 0.0
C1186 C 0.14432 0.26572 0.59633 0.0
C1187 C 0.14474 0.31933 0.50661 0.0
C1188 C 0.15367 0.28997 0.53992 0.0
C1189 C 0.1409 0.3266 0.47802 0.0
C1190 C 0.14603 0.31589 0.45225 0.0
C1191 C 0.15329 0.30069 0.50967 0.0
C1192 C 0.15589 0.29839 0.45606 0.0
C1193 C 0.1555 0.26682 0.54346 0.0
C1194 C 0.14487 0.28996 0.59238 0.0
N1195 N 0.15879 0.29093 0.48433 0.0
N1196 N 0.14907 0.30106 0.56466 0.0
H1197 H 0.73424 0.85826 0.59837 0.0
H1198 H 0.72795 0.88126 0.4277 0.0
H1199 H 0.79557 0.92913 0.55668 0.0
H1200 H 0.6584 0.83341 0.4804 0.0
H1201 H 0.75169 0.90437 0.47405 0.0
H1202 H 0.70488 0.85213 0.55584 0.0
C1203 C 0.74139 0.87259 0.58023 0.0
C1204 C 0.76736 0.89392 0.58059 0.0
C1205 C 0.73096 0.88948 0.47533 0.0
C1206 C 0.73413 0.88707 0.53173 0.0
C1207 C 0.71735 0.87649 0.44882 0.0
C1208 C 0.69145 0.85504 0.45052 0.0
C1209 C 0.71848 0.88054 0.50336 0.0
C1210 C 0.67859 0.84952 0.47838 0.0
C1211 C 0.72461 0.8693 0.55609 0.0
C1212 C 0.77567 0.91227 0.55689 0.0
N1213 N 0.69243 0.86167 0.50385 0.0
N1214 N 0.75927 0.90812 0.533 0.0
H1215 H 0.11095 0.89497 0.53904 0.0
H1216 H 0.22729 0.88819 0.45208 0.0
H1217 H 0.17403 0.88968 0.5834 0.0
H1218 H 0.16768 0.89876 0.40657 0.0
H1219 H 0.20977 0.89204 0.50049 0.0
H1220 H 0.1314 0.89683 0.49012 0.0
C1221 C 0.12886 0.89374 0.53838 0.0
C1222 C 0.14087 0.89219 0.56518 0.0
C1223 C 0.20075 0.89396 0.47995 0.0
C1224 C 0.16464 0.89486 0.50964 0.0
C1225 C 0.21098 0.8921 0.45226 0.0
C1226 C 0.19881 0.8929 0.42517 0.0
C1227 C 0.17806 0.8965 0.48066 0.0
C1228 C 0.17769 0.89797 0.42684 0.0
C1229 C 0.14071 0.89516 0.51056 0.0
C1230 C 0.16424 0.89104 0.56321 0.0
N1231 N 0.16769 0.89912 0.45412 0.0
N1232 N 0.17537 0.89243 0.53597 0.0
H1233 H 0.5239 0.71026 0.16423 0.0
H1234 H 0.67282 0.78971 0.22505 0.0
H1235 H 0.58733 0.77699 0.11875 0.0
H1236 H 0.60603 0.74811 0.28399 0.0
H1237 H 0.64282 0.77375 0.18163 0.0
H1238 H 0.55499 0.71452 0.20431 0.0
C1239 C 0.54441 0.72575 0.16269 0.0
C1240 C 0.55305 0.74353 0.13842 0.0
C1241 C 0.63481 0.76773 0.20406 0.0
C1242 C 0.58868 0.7481 0.18366 0.0
C1243 C 0.65192 0.7766 0.2289 0.0
C1244 C 0.64184 0.77095 0.25835 0.0
C1245 C 0.60748 0.75279 0.20867 0.0
C1246 C 0.61464 0.75344 0.26179 0.0
C1247 C 0.56209 0.72811 0.18546 0.0
C1248 C 0.57981 0.76319 0.13737 0.0
N1249 N 0.5983 0.74535 0.23723 0.0
N1250 N 0.59671 0.76494 0.15968 0.0
H1251 H 0.18982 0.80801 0.07522 0.0
H1252 H 0.18872 0.7927 0.25 0.0
H1253 H 0.20205 0.74768 0.11618 0.0
H1254 H 0.15265 0.83216 0.20433 0.0
H1255 H 0.18732 0.77 0.20246 0.0
H1256 H 0.17061 0.8124 0.12223 0.0
C1257 C 0.18795 0.79535 0.09406 0.0
C1258 C 0.19757 0.77759 0.09206 0.0
C1259 C 0.1789 0.78295 0.20307 0.0
C1260 C 0.17628 0.78286 0.14622 0.0
C1261 C 0.17948 0.79568 0.23029 0.0
C1262 C 0.17118 0.81458 0.23081 0.0
C1263 C 0.1702 0.7895 0.17646 0.0
C1264 C 0.15962 0.81798 0.20464 0.0
C1265 C 0.17695 0.79776 0.1209 0.0
C1266 C 0.19478 0.76159 0.11701 0.0
N1267 N 0.15998 0.80605 0.17839 0.0
N1268 N 0.18489 0.76499 0.14335 0.0
H1269 H 0.18259 0.44581 0.11854 0.0
H1270 H 0.17495 0.32997 0.22229 0.0
H1271 H 0.21751 0.39749 0.09694 0.0
H1272 H 0.1676 0.39457 0.26046 0.0
H1273 H 0.18016 0.34941 0.17251 0.0
H1274 H 0.16883 0.4234 0.1676 0.0
C1275 C 0.18732 0.43047 0.12417 0.0
C1276 C 0.2013 0.42351 0.1038 0.0
C1277 C 0.17714 0.35927 0.19164 0.0
C1278 C 0.18526 0.39765 0.15927 0.0
C1279 C 0.17396 0.34808 0.22003 0.0
C1280 C 0.17115 0.36088 0.2455 0.0
C1281 C 0.17771 0.38361 0.18854 0.0
C1282 C 0.16971 0.38412 0.24131 0.0
C1283 C 0.1795 0.41777 0.15207 0.0
C1284 C 0.20703 0.40364 0.11211 0.0
N1285 N 0.17338 0.39504 0.21327 0.0
N1286 N 0.19887 0.39133 0.13911 0.0
H1287 H 0.7955 0.62418 0.94059 0.0
H1288 H 0.82099 0.61641 0.76454 0.0
H1289 H 0.80764 0.56253 0.90248 0.0
H1290 H 0.80214 0.67241 0.80561 0.0
H1291 H 0.82386 0.60056 0.81517 0.0
H1292 H 0.80575 0.64638 0.89194 0.0
C1293 C 0.80055 0.61544 0.92193 0.0
C1294 C 0.80036 0.59132 0.92541 0.0
C1295 C 0.81953 0.61661 0.81304 0.0
C1296 C 0.81191 0.61649 0.86932 0.0
C1297 C 0.8181 0.62576 0.78421 0.0
C1298 C 0.81117 0.64559 0.78098 0.0
C1299 C 0.81417 0.62761 0.8386 0.0
C1300 C 0.80723 0.65685 0.80711 0.0
C1301 C 0.80643 0.62812 0.89412 0.0
C1302 C 0.8075 0.58109 0.90065 0.0
N1303 N 0.80863 0.64761 0.8347 0.0
N1304 N 0.81262 0.59353 0.87345 0.0
H1305 H 0.46383 0.26119 0.8919 0.0
H1306 H 0.32302 0.17579 0.81246 0.0
H1307 H 0.39279 0.2024 0.93534 0.0
H1308 H 0.39632 0.21185 0.7636 0.0
H1309 H 0.34699 0.19998 0.85784 0.0
H1310 H 0.43787 0.25631 0.84592 0.0
C1311 C 0.44267 0.24772 0.8919 0.0
C1312 C 0.43037 0.23181 0.91707 0.0
C1313 C 0.35779 0.20309 0.83705 0.0
C1314 C 0.40075 0.22636 0.86512 0.0
C1315 C 0.34412 0.18939 0.81111 0.0
C1316 C 0.35786 0.1913 0.78452 0.0
C1317 C 0.38543 0.21858 0.83648 0.0
C1318 C 0.38507 0.20956 0.78381 0.0
C1319 C 0.42793 0.24492 0.86575 0.0
C1320 C 0.40298 0.21468 0.91615 0.0
N1321 N 0.39814 0.22206 0.80971 0.0
N1322 N 0.38912 0.21225 0.8905 0.0
H1323 H 0.79701 0.2714 0.8678 0.0
H1324 H 0.88006 0.20919 0.7976 0.0
H1325 H 0.80714 0.21078 0.91168 0.0
H1326 H 0.84373 0.24341 0.74217 0.0
H1327 H 0.86175 0.2185 0.84231 0.0
H1328 H 0.82057 0.26823 0.82373 0.0
C1329 C 0.80411 0.25732 0.86801 0.0
C1330 C 0.80007 0.24122 0.89325 0.0
C1331 C 0.85808 0.22427 0.82039 0.0
C1332 C 0.82751 0.23798 0.8434 0.0
C1333 C 0.86877 0.21926 0.79481 0.0
C1334 C 0.86306 0.2251 0.7659 0.0
C1335 C 0.84186 0.23558 0.81718 0.0
C1336 C 0.84849 0.23835 0.7639 0.0
C1337 C 0.81758 0.25559 0.84297 0.0
C1338 C 0.80964 0.22333 0.89251 0.0
N1339 N 0.83814 0.2429 0.78919 0.0
N1340 N 0.8231 0.22232 0.86805 0.0
H1341 H 0.20529 0.10206 0.49347 0.0
H1342 H 0.33489 0.1123 0.5659 0.0
H1343 H 0.26277 0.09421 0.44047 0.0
H1344 H 0.26644 0.09687 0.61785 0.0
H1345 H 0.30911 0.1048 0.51957 0.0
H1346 H 0.22912 0.10268 0.53943 0.0
C1347 C 0.22316 0.10087 0.49156 0.0
C1348 C 0.23207 0.09799 0.46328 0.0
C1349 C 0.2996 0.10256 0.54112 0.0
C1350 C 0.25908 0.09811 0.51555 0.0
C1351 C 0.31421 0.10655 0.56758 0.0
C1352 C 0.30294 0.10568 0.59576 0.0
C1353 C 0.27366 0.09797 0.54293 0.0
C1354 C 0.27604 0.09801 0.59663 0.0
C1355 C 0.23652 0.10081 0.51774 0.0
C1356 C 0.25518 0.09625 0.46196 0.0
N1357 N 0.26248 0.09504 0.57055 0.0
N1358 N 0.26792 0.09635 0.48774 0.0
H1359 H 0.87937 0.08256 0.45728 0.0
H1360 H 0.82481 0.16841 0.53803 0.0
H1361 H 0.88381 0.15342 0.42051 0.0
H1362 H 0.86164 0.13304 0.59051 0.0
H1363 H 0.832 0.14934 0.49234 0.0
H1364 H 0.86105 0.08972 0.50425 0.0
C1365 C 0.87644 0.09956 0.45919 0.0
C1366 C 0.88333 0.11767 0.43537 0.0
C1367 C 0.83801 0.1453 0.51393 0.0
C1368 C 0.86172 0.1253 0.48793 0.0
C1369 C 0.83374 0.15597 0.54004 0.0
C1370 C 0.84319 0.15278 0.568 0.0
C1371 C 0.85169 0.1312 0.51575 0.0
C1372 C 0.85427 0.13615 0.56934 0.0
C1373 C 0.86598 0.10355 0.48578 0.0
C1374 C 0.87904 0.13926 0.43859 0.0
N1375 N 0.8587 0.12631 0.54337 0.0
N1376 N 0.86837 0.1424 0.46433 0.0
H1377 H 0.86601 0.71037 0.41832 0.0
H1378 H 0.82956 0.72235 0.58763 0.0
H1379 H 0.85023 0.77226 0.44715 0.0
H1380 H 0.82749 0.65259 0.54989 0.0
H1381 H 0.83296 0.73973 0.53627 0.0
H1382 H 0.84953 0.68808 0.46649 0.0
C1383 C 0.85905 0.71922 0.43487 0.0
C1384 C 0.8596 0.7432 0.4289 0.0
C1385 C 0.8311 0.72032 0.53923 0.0
C1386 C 0.84067 0.71789 0.48413 0.0
C1387 C 0.82889 0.71033 0.56847 0.0
C1388 C 0.82854 0.6862 0.5728 0.0
C1389 C 0.83307 0.70602 0.51455 0.0
C1390 C 0.82806 0.67147 0.54739 0.0
C1391 C 0.84942 0.70642 0.46227 0.0
C1392 C 0.85003 0.75371 0.45093 0.0
N1393 N 0.83073 0.68177 0.51942 0.0
N1394 N 0.84122 0.74114 0.47777 0.0
loop_
_geom_bond_atom_site_label_1
_geom_bond_atom_site_label_2
_geom_bond_distance
_geom_bond_site_symmetry_2
_ccdc_geom_bond_type
H0 C7 0.929 . S
H1 C10 0.930 . S
H2 C12 0.929 . S
H3 C4 0.969 . S
C4 H3 0.969 . S
C4 O5 1.550 . S
C4 H6 0.973 . S
O5 C4 1.550 . S
O5 C11 1.412 . S
H6 C4 0.973 . S
C7 H0 0.929 . S
C7 C8 1.400 . S
C7 C9 1.364 . S
C8 C7 1.400 . S
C8 C12 1.377 . S
C9 C7 1.364 . S
C9 C10 1.374 . S
C10 H1 0.930 . S
C10 C9 1.374 . S
C10 C11 1.383 . S
C11 O5 1.412 . S
C11 C10 1.383 . S
C11 C12 1.394 . S
C12 H2 0.929 . S
C12 C8 1.377 . S
C12 C11 1.394 . S
H13 C20 0.929 . S
H14 C23 0.930 . S
H15 C25 0.929 . S
H16 C17 0.969 . S
C17 H16 0.969 . S
C17 O18 1.550 . S
C17 H19 0.973 . S
O18 C17 1.550 . S
O18 C24 1.412 . S
H19 C17 0.973 . S
C20 H13 0.929 . S
C20 C21 1.400 . S
C20 C22 1.364 . S
C21 C20 1.400 . S
C21 C25 1.377 . S
C22 C20 1.364 . S
C22 C23 1.374 . S
C23 H14 0.930 . S
C23 C22 1.374 . S
C23 C24 1.383 . S
C24 O18 1.412 . S
C24 C23 1.383 . S
C24 C25 1.394 . S
C25 H15 0.929 . S
C25 C21 1.377 . S
C25 C24 1.394 . S
H26 C33 0.929 . S
H27 C36 0.930 . S
H28 C38 0.929 . S
H29 C30 0.969 . S
C30 H29 0.969 . S
C30 O31 1.550 . S
C30 H32 0.973 . S
O31 C30 1.550 . S
O31 C37 1.412 . S
H32 C30 0.973 . S
C33 H26 0.929 . S
C33 C34 1.400 . S
C33 C35 1.364 . S
C34 C33 1.400 . S
C34 C38 1.377 . S
C35 C33 1.364 . S
C35 C36 1.374 . S
C36 H27 0.930 . S
C36 C35 1.374 . S
C36 C37 1.383 . S
C37 O31 1.412 . S
C37 C36 1.383 . S
C37 C38 1.394 . S
C38 H28 0.929 . S
C38 C34 1.377 . S
C38 C37 1.394 . S
H39 C46 0.929 . S
H40 C49 0.930 . S
H41 C51 0.929 . S
H42 C43 0.969 . S
C43 H42 0.969 . S
C43 O44 1.550 . S
C43 H45 0.973 . S
O44 C43 1.550 . S
O44 C50 1.412 . S
H45 C43 0.973 . S
C46 H39 0.929 . S
C46 C47 1.400 . S
C46 C48 1.364 . S
C47 C46 1.400 . S
C47 C51 1.377 . S
C48 C46 1.364 . S
C48 C49 1.374 . S
C49 H40 0.930 . S
C49 C48 1.374 . S
C49 C50 1.383 . S
C50 O44 1.412 . S
C50 C49 1.383 . S
C50 C51 1.394 . S
C51 H41 0.929 . S
C51 C47 1.377 . S
C51 C50 1.394 . S
H52 C59 0.929 . S
H53 C62 0.930 . S
H54 C64 0.929 . S
H55 C56 0.969 . S
C56 H55 0.969 . S
C56 O57 1.550 . S
C56 H58 0.973 . S
O57 C56 1.550 . S
O57 C63 1.412 . S
H58 C56 0.973 . S
C59 H52 0.929 . S
C59 C60 1.400 . S
C59 C61 1.364 . S
C60 C59 1.400 . S
C60 C64 1.377 . S
C61 C59 1.364 . S
C61 C62 1.374 . S
C62 H53 0.930 . S
C62 C61 1.374 . S
C62 C63 1.383 . S
C63 O57 1.412 . S
C63 C62 1.383 . S
C63 C64 1.394 . S
C64 H54 0.929 . S
C64 C60 1.377 . S
C64 C63 1.394 . S
H65 C72 0.929 . S
H66 C75 0.930 . S
H67 C77 0.929 . S
H68 C69 0.969 . S
C69 H68 0.969 . S
C69 O70 1.550 . S
C69 H71 0.973 . S
O70 C69 1.550 . S
O70 C76 1.412 . S
H71 C69 0.973 . S
C72 H65 0.929 . S
C72 C73 1.400 . S
C72 C74 1.364 . S
C73 C72 1.400 . S
C73 C77 1.377 . S
C74 C72 1.364 . S
C74 C75 1.374 . S
C75 H66 0.930 . S
C75 C74 1.374 . S
C75 C76 1.383 . S
C76 O70 1.412 . S
C76 C75 1.383 . S
C76 C77 1.394 . S
C77 H67 0.929 . S
C77 C73 1.377 . S
C77 C76 1.394 . S
H78 C85 0.929 . S
H79 C88 0.930 . S
H80 C90 0.929 . S
H81 C82 0.969 . S
C82 H81 0.969 . S
C82 O83 1.550 . S
C82 H84 0.973 . S
O83 C82 1.550 . S
O83 C89 1.412 . S
H84 C82 0.973 . S
C85 H78 0.929 . S
C85 C86 1.400 . S
C85 C87 1.364 . S
C86 C85 1.400 . S
C86 C90 1.377 . S
C87 C85 1.364 . S
C87 C88 1.374 . S
C88 H79 0.930 . S
C88 C87 1.374 . S
C88 C89 1.383 . S
C89 O83 1.412 . S
C89 C88 1.383 . S
C89 C90 1.394 . S
C90 H80 0.929 . S
C90 C86 1.377 . S
C90 C89 1.394 . S
H91 C98 0.929 . S
H92 C101 0.930 . S
H93 C103 0.929 . S
H94 C95 0.969 . S
C95 H94 0.969 . S
C95 O96 1.550 . S
C95 H97 0.973 . S
O96 C95 1.550 . S
O96 C102 1.412 . S
H97 C95 0.973 . S
C98 H91 0.929 . S
C98 C99 1.400 . S
C98 C100 1.364 . S
C99 C98 1.400 . S
C99 C103 1.377 . S
C100 C98 1.364 . S
C100 C101 1.374 . S
C101 H92 0.930 . S
C101 C100 1.374 . S
C101 C102 1.383 . S
C102 O96 1.412 . S
C102 C101 1.383 . S
C102 C103 1.394 . S
C103 H93 0.929 . S
C103 C99 1.377 . S
C103 C102 1.394 . S
H104 C111 0.929 . S
H105 C114 0.930 . S
H106 C116 0.929 . S
H107 C108 0.969 . S
C108 H107 0.969 . S
C108 O109 1.550 . S
C108 H110 0.973 . S
O109 C108 1.550 . S
O109 C115 1.412 . S
H110 C108 0.973 . S
C111 H104 0.929 . S
C111 C112 1.400 . S
C111 C113 1.364 . S
C112 C111 1.400 . S
C112 C116 1.377 . S
C113 C111 1.364 . S
C113 C114 1.374 . S
C114 H105 0.930 . S
C114 C113 1.374 . S
C114 C115 1.383 . S
C115 O109 1.412 . S
C115 C114 1.383 . S
C115 C116 1.394 . S
C116 H106 0.929 . S
C116 C112 1.377 . S
C116 C115 1.394 . S
H117 C124 0.929 . S
H118 C127 0.930 . S
H119 C129 0.929 . S
H120 C121 0.969 . S
C121 H120 0.969 . S
C121 O122 1.550 . S
C121 H123 0.973 1_554 S
O122 C121 1.550 . S
O122 C128 1.399 1_554 S
H123 C121 0.973 1_556 S
C124 H117 0.929 . S
C124 C125 1.400 . S
C124 C126 1.364 . S
C125 C124 1.400 . S
C125 C129 1.377 1_556 S
C126 C124 1.364 . S
C126 C127 1.374 . S
C127 H118 0.930 . S
C127 C126 1.374 . S
C127 C128 1.414 . S
C128 O122 1.399 1_556 S
C128 C127 1.414 . S
C128 C129 1.381 1_556 S
C129 H119 0.929 . S
C129 C125 1.377 1_554 S
C129 C128 1.381 1_554 S
H130 C137 0.929 . S
H131 C140 0.930 . S
H132 C142 0.929 . S
H133 C134 0.969 . S
C134 H133 0.969 . S
C134 O135 1.550 . S
C134 H136 0.973 1_554 S
O135 C134 1.550 . S
O135 C141 1.412 . S
H136 C134 0.973 1_556 S
C137 H130 0.929 . S
C137 C138 1.381 1_556 S
C137 C139 1.364 . S
C138 C137 1.381 1_554 S
C138 C142 1.387 . S
C139 C137 1.364 . S
C139 C140 1.374 . S
C140 H131 0.930 . S
C140 C139 1.374 . S
C140 C141 1.383 1_556 S
C141 O135 1.412 . S
C141 C140 1.383 1_554 S
C141 C142 1.394 . S
C142 H132 0.929 . S
C142 C138 1.387 . S
C142 C141 1.394 . S
H143 C150 0.929 . S
H144 C153 0.930 . S
H145 C155 0.929 . S
H146 C147 0.969 . S
C147 H146 0.969 . S
C147 O148 1.550 . S
C147 H149 0.973 1_554 S
O148 C147 1.550 . S
O148 C154 1.412 1_554 S
H149 C147 0.973 1_556 S
C150 H143 0.929 . S
C150 C151 1.400 . S
C150 C152 1.364 . S
C151 C150 1.400 . S
C151 C155 1.377 1_556 S
C152 C150 1.364 . S
C152 C153 1.374 . S
C153 H144 0.930 . S
C153 C152 1.374 . S
C153 C154 1.383 . S
C154 O148 1.412 1_556 S
C154 C153 1.383 . S
C154 C155 1.394 1_556 S
C155 H145 0.929 . S
C155 C151 1.377 1_554 S
C155 C154 1.394 1_554 S
H156 C163 0.929 . S
H157 C166 0.930 . S
H158 C168 0.929 1_556 S
H159 C160 0.969 . S
C160 H159 0.969 . S
C160 O161 1.550 . S
C160 H162 0.973 . S
O161 C160 1.550 . S
O161 C167 1.412 . S
H162 C160 0.973 . S
C163 H156 0.929 . S
C163 C164 1.400 . S
C163 C165 1.364 . S
C164 C163 1.400 . S
C164 C168 1.377 . S
C165 C163 1.364 . S
C165 C166 1.374 . S
C166 H157 0.930 . S
C166 C165 1.374 . S
C166 C167 1.383 . S
C167 O161 1.412 . S
C167 C166 1.383 . S
C167 C168 1.394 . S
C168 H158 0.929 1_554 S
C168 C164 1.377 . S
C168 C167 1.394 . S
H169 C176 0.929 . S
H170 C179 0.930 . S
H171 C181 0.929 1_556 S
H172 C173 0.969 . S
C173 H172 0.969 . S
C173 O174 1.550 . S
C173 H175 0.973 . S
O174 C173 1.550 . S
O174 C180 1.412 . S
H175 C173 0.973 . S
C176 H169 0.929 . S
C176 C177 1.400 . S
C176 C178 1.364 . S
C177 C176 1.400 . S
C177 C181 1.377 . S
C178 C176 1.364 . S
C178 C179 1.374 . S
C179 H170 0.930 . S
C179 C178 1.374 . S
C179 C180 1.383 . S
C180 O174 1.412 . S
C180 C179 1.383 . S
C180 C181 1.394 . S
C181 H171 0.929 1_554 S
C181 C177 1.377 . S
C181 C180 1.394 . S
H182 C189 0.929 . S
H183 C192 0.930 . S
H184 C194 0.920 1_556 S
H185 C186 0.969 . S
C186 H185 0.969 . S
C186 O187 1.550 . S
C186 H188 0.973 . S
O187 C186 1.550 . S
O187 C193 1.412 . S
H188 C186 0.973 . S
C189 H182 0.929 . S
C189 C190 1.400 . S
C189 C191 1.364 . S
C190 C189 1.400 . S
C190 C194 1.377 . S
C191 C189 1.364 . S
C191 C192 1.374 . S
C192 H183 0.930 . S
C192 C191 1.374 . S
C192 C193 1.383 . S
C193 O187 1.412 . S
C193 C192 1.383 . S
C193 C194 1.394 . S
C194 H184 0.920 1_554 S
C194 C190 1.377 . S
C194 C193 1.394 . S
H195 C202 0.929 . S
H196 C205 0.930 . S
H197 C207 0.929 . S
H198 C199 0.969 . S
C199 H198 0.969 . S
C199 O200 1.550 . S
C199 H201 0.973 . S
O200 C199 1.550 . S
O200 C206 1.412 . S
H201 C199 0.973 . S
C202 H195 0.929 . S
C202 C203 1.400 . S
C202 C204 1.364 . S
C203 C202 1.400 . S
C203 C207 1.377 . S
C204 C202 1.364 . S
C204 C205 1.374 . S
C205 H196 0.930 . S
C205 C204 1.374 . S
C205 C206 1.383 . S
C206 O200 1.412 . S
C206 C205 1.383 . S
C206 C207 1.394 . S
C207 H197 0.929 . S
C207 C203 1.377 . S
C207 C206 1.394 . S
H208 C215 0.929 . S
H209 C218 0.930 . S
H210 C220 0.929 . S
H211 C212 0.969 . S
C212 H211 0.969 . S
C212 O213 1.550 . S
C212 H214 0.973 . S
O213 C212 1.550 . S
O213 C219 1.412 . S
H214 C212 0.973 . S
C215 H208 0.929 . S
C215 C216 1.400 . S
C215 C217 1.364 . S
C216 C215 1.400 . S
C216 C220 1.377 . S
C217 C215 1.364 . S
C217 C218 1.374 . S
C218 H209 0.930 . S
C218 C217 1.374 . S
C218 C219 1.383 . S
C219 O213 1.412 . S
C219 C218 1.383 . S
C219 C220 1.394 . S
C220 H210 0.929 . S
C220 C216 1.377 . S
C220 C219 1.394 . S
H221 C228 0.929 . S
H222 C231 0.930 . S
H223 C233 0.929 . S
H224 C225 0.969 . S
C225 H224 0.969 . S
C225 O226 1.550 . S
C225 H227 0.973 . S
O226 C225 1.550 . S
O226 C232 1.412 . S
H227 C225 0.973 . S
C228 H221 0.929 . S
C228 C229 1.400 . S
C228 C230 1.364 . S
C229 C228 1.400 . S
C229 C233 1.377 . S
C230 C228 1.364 . S
C230 C231 1.374 . S
C231 H222 0.930 . S
C231 C230 1.374 . S
C231 C232 1.383 . S
C232 O226 1.412 . S
C232 C231 1.383 . S
C232 C233 1.394 . S
C233 H223 0.929 . S
C233 C229 1.377 . S
C233 C232 1.394 . S
O234 Mg235 1.990 . S
O234 C248 1.253 . S
Mg235 O234 1.990 . S
Mg235 O238 2.180 1_546 S
Mg235 O239 2.117 1_545 S
Mg235 O253 2.030 . S
O236 Mg237 2.072 1_556 S
O236 C248 1.260 . S
Mg237 O236 2.072 1_554 S
Mg237 O238 2.099 1_545 S
Mg237 O240 2.079 . S
Mg237 O241 2.072 1_545 S
Mg237 O243 2.099 . S
Mg237 O254 2.079 . S
O238 Mg235 2.180 1_564 S
O238 Mg237 2.099 1_565 S
O238 C249 1.279 1_554 S
O239 Mg235 2.117 1_565 S
O239 C249 1.250 . S
O240 Mg237 2.079 . S
O240 C250 1.264 1_545 S
O241 Mg237 2.072 1_565 S
O241 C251 1.260 . S
Mg242 O243 2.180 . S
Mg242 O244 2.030 1_545 S
Mg242 O245 1.990 1_545 S
Mg242 O246 2.117 . S
O243 Mg237 2.099 . S
O243 Mg242 2.180 . S
O243 C252 1.279 . S
O244 Mg242 2.030 1_565 S
O244 C250 1.248 . S
O245 Mg242 1.990 1_565 S
O245 C251 1.253 . S
O246 Mg242 2.117 . S
O246 C252 1.250 . S
C247 O253 1.248 1_554 S
C247 O254 1.264 . S
C248 O234 1.253 . S
C248 O236 1.260 . S
C249 O238 1.279 1_556 S
C249 O239 1.250 . S
C250 O240 1.264 1_565 S
C250 O244 1.248 . S
C251 O241 1.260 . S
C251 O245 1.253 . S
C252 O243 1.279 . S
C252 O246 1.250 . S
O253 Mg235 2.030 . S
O253 C247 1.248 1_556 S
O254 Mg237 2.079 . S
O254 C247 1.264 . S
O255 Mg256 1.990 . S
O255 C269 1.253 1_455 S
Mg256 O255 1.990 . S
Mg256 O259 2.180 1_556 S
Mg256 O260 2.117 . S
Mg256 O274 2.030 1_455 S
O257 Mg258 2.072 1_656 S
O257 C269 1.260 . S
Mg258 O257 2.072 1_454 S
Mg258 O259 2.099 . S
Mg258 O261 2.079 . S
Mg258 O262 2.072 . S
Mg258 O264 2.099 1_455 S
Mg258 O275 2.079 1_455 S
O259 Mg256 2.180 1_554 S
O259 Mg258 2.099 . S
O259 C270 1.269 1_554 S
O260 Mg256 2.117 . S
O260 C270 1.278 . S
O261 Mg258 2.079 . S
O261 C271 1.264 . S
O262 Mg258 2.072 . S
O262 C272 1.260 . S
Mg263 O264 2.180 1_455 S
Mg263 O265 2.030 . S
Mg263 O266 1.990 . S
Mg263 O267 2.117 1_455 S
O264 Mg258 2.099 1_655 S
O264 Mg263 2.180 1_655 S
O264 C273 1.279 . S
O265 Mg263 2.030 . S
O265 C271 1.248 . S
O266 Mg263 1.990 . S
O266 C272 1.253 . S
O267 Mg263 2.117 1_655 S
O267 C273 1.250 . S
C268 O274 1.248 1_554 S
C268 O275 1.264 . S
C269 O255 1.253 1_655 S
C269 O257 1.260 . S
C270 O259 1.269 1_556 S
C270 O260 1.278 . S
C271 O261 1.264 . S
C271 O265 1.248 . S
C272 O262 1.260 . S
C272 O266 1.253 . S
C273 O264 1.279 . S
C273 O267 1.250 . S
O274 Mg256 2.030 1_655 S
O274 C268 1.248 1_556 S
O275 Mg258 2.079 1_655 S
O275 C268 1.264 . S
O276 Mg277 1.990 . S
O276 C290 1.253 . S
Mg277 O276 1.990 . S
Mg277 O280 2.180 . S
Mg277 O281 2.117 . S
Mg277 O295 2.030 . S
O278 Mg279 2.072 . S
O278 C290 1.260 . S
Mg279 O278 2.072 . S
Mg279 O280 2.099 . S
Mg279 O282 2.079 1_554 S
Mg279 O283 2.072 . S
Mg279 O285 2.099 1_554 S
Mg279 O296 2.079 . S
O280 Mg277 2.180 . S
O280 Mg279 2.099 . S
O280 C291 1.279 . S
O281 Mg277 2.117 . S
O281 C291 1.250 . S
O282 Mg279 2.079 1_556 S
O282 C292 1.264 . S
O283 Mg279 2.072 . S
O283 C293 1.260 . S
Mg284 O285 2.180 . S
Mg284 O286 2.030 . S
Mg284 O287 1.990 . S
Mg284 O288 2.138 . S
O285 Mg279 2.099 1_556 S
O285 Mg284 2.180 . S
O285 C294 1.279 1_556 S
O286 Mg284 2.030 . S
O286 C292 1.248 . S
O287 Mg284 1.990 . S
O287 C293 1.253 1_556 S
O288 Mg284 2.138 . S
O288 C294 1.242 1_556 S
C289 O295 1.248 . S
C289 O296 1.264 . S
C290 O276 1.253 . S
C290 O278 1.260 . S
C291 O280 1.279 . S
C291 O281 1.250 . S
C292 O282 1.264 . S
C292 O286 1.248 . S
C293 O283 1.260 . S
C293 O287 1.253 1_554 S
C294 O285 1.279 1_554 S
C294 O288 1.242 1_554 S
O295 Mg277 2.030 . S
O295 C289 1.248 . S
O296 Mg279 2.079 . S
O296 C289 1.264 . S
O297 Mg298 1.990 . S
O297 C311 1.253 . S
Mg298 O297 1.990 . S
Mg298 O301 2.180 . S
Mg298 O302 2.117 . S
Mg298 O316 2.030 . S
O299 Mg300 2.072 . S
O299 C311 1.260 . S
Mg300 O299 2.072 . S
Mg300 O301 2.099 . S
Mg300 O303 2.079 . S
Mg300 O304 2.072 . S
Mg300 O306 2.099 . S
Mg300 O317 2.079 . S
O301 Mg298 2.180 . S
O301 Mg300 2.099 . S
O301 C312 1.279 . S
O302 Mg298 2.117 . S
O302 C312 1.250 . S
O303 Mg300 2.079 . S
O303 C313 1.264 . S
O304 Mg300 2.072 . S
O304 C314 1.260 . S
Mg305 O306 2.180 . S
Mg305 O307 2.030 . S
Mg305 O308 1.990 . S
Mg305 O309 2.117 . S
O306 Mg300 2.099 . S
O306 Mg305 2.180 . S
O306 C315 1.279 . S
O307 Mg305 2.030 . S
O307 C313 1.248 . S
O308 Mg305 1.990 . S
O308 C314 1.253 . S
O309 Mg305 2.117 . S
O309 C315 1.250 . S
C310 O316 1.248 . S
C310 O317 1.264 . S
C311 O297 1.253 . S
C311 O299 1.260 . S
C312 O301 1.279 . S
C312 O302 1.250 . S
C313 O303 1.264 . S
C313 O307 1.248 . S
C314 O304 1.260 . S
C314 O308 1.253 . S
C315 O306 1.279 . S
C315 O309 1.250 . S
O316 Mg298 2.030 . S
O316 C310 1.248 . S
O317 Mg300 2.079 . S
O317 C310 1.264 . S
O318 Mg319 1.990 . S
O318 C332 1.253 . S
Mg319 O318 1.990 . S
Mg319 O322 2.180 . S
Mg319 O323 2.117 . S
Mg319 O337 2.030 . S
O320 Mg321 2.072 . S
O320 C332 1.260 . S
Mg321 O320 2.072 . S
Mg321 O322 2.099 . S
Mg321 O324 2.079 . S
Mg321 O325 2.072 . S
Mg321 O327 2.099 . S
Mg321 O338 2.079 . S
O322 Mg319 2.180 . S
O322 Mg321 2.099 . S
O322 C333 1.279 . S
O323 Mg319 2.117 . S
O323 C333 1.250 . S
O324 Mg321 2.079 . S
O324 C334 1.264 . S
O325 Mg321 2.072 . S
O325 C335 1.260 . S
Mg326 O327 2.180 . S
Mg326 O328 2.030 . S
Mg326 O329 1.990 . S
Mg326 O330 2.117 . S
O327 Mg321 2.099 . S
O327 Mg326 2.180 . S
O327 C336 1.279 . S
O328 Mg326 2.030 . S
O328 C334 1.248 . S
O329 Mg326 1.990 . S
O329 C335 1.253 . S
O330 Mg326 2.117 . S
O330 C336 1.250 . S
C331 O337 1.248 . S
C331 O338 1.264 . S
C332 O318 1.253 . S
C332 O320 1.260 . S
C333 O322 1.279 . S
C333 O323 1.250 . S
C334 O324 1.264 . S
C334 O328 1.248 . S
C335 O325 1.260 . S
C335 O329 1.253 . S
C336 O327 1.279 . S
C336 O330 1.250 . S
O337 Mg319 2.030 . S
O337 C331 1.248 . S
O338 Mg321 2.079 . S
O338 C331 1.264 . S
O339 Mg340 1.990 . S
O339 C353 1.253 . S
Mg340 O339 1.990 . S
Mg340 O343 2.180 . S
Mg340 O344 2.117 . S
Mg340 O358 2.030 . S
O341 Mg342 2.072 . S
O341 C353 1.260 . S
Mg342 O341 2.072 . S
Mg342 O343 2.099 . S
Mg342 O345 2.079 . S
Mg342 O346 2.072 . S
Mg342 O348 2.099 . S
Mg342 O359 2.079 . S
O343 Mg340 2.180 . S
O343 Mg342 2.099 . S
O343 C354 1.279 . S
O344 Mg340 2.117 . S
O344 C354 1.250 . S
O345 Mg342 2.079 . S
O345 C355 1.264 . S
O346 Mg342 2.072 . S
O346 C356 1.260 . S
Mg347 O348 2.180 . S
Mg347 O349 2.030 . S
Mg347 O350 1.990 . S
Mg347 O351 2.117 . S
O348 Mg342 2.099 . S
O348 Mg347 2.180 . S
O348 C357 1.279 . S
O349 Mg347 2.030 . S
O349 C355 1.248 . S
O350 Mg347 1.990 . S
O350 C356 1.253 . S
O351 Mg347 2.117 . S
O351 C357 1.250 . S
C352 O358 1.248 . S
C352 O359 1.264 . S
C353 O339 1.253 . S
C353 O341 1.260 . S
C354 O343 1.279 . S
C354 O344 1.250 . S
C355 O345 1.264 . S
C355 O349 1.248 . S
C356 O346 1.260 . S
C356 O350 1.253 . S
C357 O348 1.279 . S
C357 O351 1.250 . S
O358 Mg340 2.030 . S
O358 C352 1.248 . S
O359 Mg342 2.079 . S
O359 C352 1.264 . S
O360 Mg361 1.990 . S
O360 C374 1.253 . S
Mg361 O360 1.990 . S
Mg361 O364 2.180 . S
Mg361 O365 2.117 . S
Mg361 O379 2.030 . S
O362 Mg363 2.072 . S
O362 C374 1.260 . S
Mg363 O362 2.072 . S
Mg363 O364 2.099 . S
Mg363 O366 2.079 . S
Mg363 O367 2.072 . S
Mg363 O369 2.099 . S
Mg363 O380 2.079 . S
O364 Mg361 2.180 . S
O364 Mg363 2.099 . S
O364 C375 1.279 . S
O365 Mg361 2.117 . S
O365 C375 1.250 . S
O366 Mg363 2.079 . S
O366 C376 1.264 . S
O367 Mg363 2.072 . S
O367 C377 1.260 . S
Mg368 O369 2.180 . S
Mg368 O370 2.030 . S
Mg368 O371 1.990 . S
Mg368 O372 2.117 . S
O369 Mg363 2.099 . S
O369 Mg368 2.180 . S
O369 C378 1.279 . S
O370 Mg368 2.030 . S
O370 C376 1.248 . S
O371 Mg368 1.990 . S
O371 C377 1.253 . S
O372 Mg368 2.117 . S
O372 C378 1.250 . S
C373 O379 1.248 . S
C373 O380 1.264 . S
C374 O360 1.253 . S
C374 O362 1.260 . S
C375 O364 1.279 . S
C375 O365 1.250 . S
C376 O366 1.264 . S
C376 O370 1.248 . S
C377 O367 1.260 . S
C377 O371 1.253 . S
C378 O369 1.279 . S
C378 O372 1.250 . S
O379 Mg361 2.030 . S
O379 C373 1.248 . S
O380 Mg363 2.079 . S
O380 C373 1.264 . S
O381 Mg382 1.990 . S
O381 C395 1.253 . S
Mg382 O381 1.990 . S
Mg382 O385 2.180 . S
Mg382 O386 2.117 . S
Mg382 O400 2.030 . S
O383 Mg384 2.072 . S
O383 C395 1.260 . S
Mg384 O383 2.072 . S
Mg384 O385 2.099 . S
Mg384 O387 2.079 . S
Mg384 O388 2.072 . S
Mg384 O390 2.099 . S
Mg384 O401 2.079 . S
O385 Mg382 2.180 . S
O385 Mg384 2.099 . S
O385 C396 1.279 . S
O386 Mg382 2.117 . S
O386 C396 1.250 . S
O387 Mg384 2.079 . S
O387 C397 1.264 . S
O388 Mg384 2.072 . S
O388 C398 1.260 . S
Mg389 O390 2.180 . S
Mg389 O391 2.030 . S
Mg389 O392 1.990 . S
Mg389 O393 2.117 . S
O390 Mg384 2.099 . S
O390 Mg389 2.180 . S
O390 C399 1.279 . S
O391 Mg389 2.030 . S
O391 C397 1.248 . S
O392 Mg389 1.990 . S
O392 C398 1.253 . S
O393 Mg389 2.117 . S
O393 C399 1.250 . S
C394 O400 1.248 . S
C394 O401 1.264 . S
C395 O381 1.253 . S
C395 O383 1.260 . S
C396 O385 1.279 . S
C396 O386 1.250 . S
C397 O387 1.264 . S
C397 O391 1.248 . S
C398 O388 1.260 . S
C398 O392 1.253 . S
C399 O390 1.279 . S
C399 O393 1.250 . S
O400 Mg382 2.030 . S
O400 C394 1.248 . S
O401 Mg384 2.079 . S
O401 C394 1.264 . S
O402 Mg403 1.990 . S
O402 C416 1.253 . S
Mg403 O402 1.990 . S
Mg403 O406 2.180 . S
Mg403 O407 2.117 . S
Mg403 O421 2.030 . S
O404 Mg405 2.072 . S
O404 C416 1.260 . S
Mg405 O404 2.072 . S
Mg405 O406 2.099 . S
Mg405 O408 2.079 . S
Mg405 O409 2.072 . S
Mg405 O411 2.099 . S
Mg405 O422 2.079 . S
O406 Mg403 2.180 . S
O406 Mg405 2.099 . S
O406 C417 1.279 . S
O407 Mg403 2.117 . S
O407 C417 1.250 . S
O408 Mg405 2.079 . S
O408 C418 1.264 . S
O409 Mg405 2.072 . S
O409 C419 1.260 . S
Mg410 O411 2.180 . S
Mg410 O412 2.030 . S
Mg410 O413 1.990 . S
Mg410 O414 2.117 . S
O411 Mg405 2.099 . S
O411 Mg410 2.180 . S
O411 C420 1.279 . S
O412 Mg410 2.030 . S
O412 C418 1.248 . S
O413 Mg410 1.990 . S
O413 C419 1.253 . S
O414 Mg410 2.117 . S
O414 C420 1.250 . S
C415 O421 1.248 . S
C415 O422 1.264 . S
C416 O402 1.253 . S
C416 O404 1.260 . S
C417 O406 1.279 . S
C417 O407 1.250 . S
C418 O408 1.264 . S
C418 O412 1.248 . S
C419 O409 1.260 . S
C419 O413 1.253 . S
C420 O411 1.279 . S
C420 O414 1.250 . S
O421 Mg403 2.030 . S
O421 C415 1.248 . S
O422 Mg405 2.079 . S
O422 C415 1.264 . S
H423 C429 0.930 . S
H424 C433 0.930 . S
H425 C438 0.929 . S
H426 C436 0.929 . S
H427 C431 0.929 . S
H428 C437 0.929 . S
C429 H423 0.930 . S
C429 C430 1.367 1_556 S
C429 C437 1.378 . S
C430 C429 1.367 1_554 S
C430 C438 1.433 . S
C431 H427 0.929 . S
C431 C433 1.378 . S
C431 C435 1.350 . S
C432 C435 1.463 . S
C432 C437 1.350 1_554 S
C432 N440 1.427 . S
C433 H424 0.930 . S
C433 C431 1.378 . S
C433 C434 1.367 . S
C434 C433 1.367 . S
C434 C436 1.433 1_554 S
C435 C431 1.350 . S
C435 C432 1.463 . S
C435 N439 1.427 1_554 S
C436 H426 0.929 . S
C436 C434 1.433 1_556 S
C436 N439 1.384 . S
C437 H428 0.929 . S
C437 C429 1.378 . S
C437 C432 1.350 1_556 S
C438 H425 0.929 . S
C438 C430 1.433 . S
C438 N440 1.384 . S
N439 C435 1.427 1_556 S
N439 C436 1.384 . S
N440 C432 1.427 . S
N440 C438 1.384 . S
H441 C447 0.930 . S
H442 C451 0.930 . S
H443 C456 0.929 . S
H444 C454 0.929 . S
H445 C449 0.929 . S
H446 C455 0.929 . S
C447 H441 0.930 . S
C447 C448 1.367 . S
C447 C455 1.378 . S
C448 C447 1.367 . S
C448 C456 1.433 . S
C449 H445 0.929 . S
C449 C451 1.378 . S
C449 C453 1.350 . S
C450 C453 1.463 . S
C450 C455 1.350 . S
C450 N458 1.427 . S
C451 H442 0.930 . S
C451 C449 1.378 . S
C451 C452 1.367 . S
C452 C451 1.367 . S
C452 C454 1.433 . S
C453 C449 1.350 . S
C453 C450 1.463 . S
C453 N457 1.427 . S
C454 H444 0.929 . S
C454 C452 1.433 . S
C454 N457 1.384 . S
C455 H446 0.929 . S
C455 C447 1.378 . S
C455 C450 1.350 . S
C456 H443 0.929 . S
C456 C448 1.433 . S
C456 N458 1.384 . S
N457 C453 1.427 . S
N457 C454 1.384 . S
N458 C450 1.427 . S
N458 C456 1.384 . S
H459 C465 0.930 . S
H460 C469 0.930 . S
H461 C474 0.929 . S
H462 C472 0.929 . S
H463 C467 0.929 . S
H464 C473 0.929 . S
C465 H459 0.930 . S
C465 C466 1.367 . S
C465 C473 1.378 . S
C466 C465 1.367 . S
C466 C474 1.433 1_554 S
C467 H463 0.929 . S
C467 C469 1.378 . S
C467 C471 1.350 1_556 S
C468 C471 1.463 . S
C468 C473 1.350 . S
C468 N476 1.427 1_554 S
C469 H460 0.930 . S
C469 C467 1.378 . S
C469 C470 1.367 1_556 S
C470 C469 1.367 1_554 S
C470 C472 1.433 . S
C471 C467 1.350 1_554 S
C471 C468 1.463 . S
C471 N475 1.427 . S
C472 H462 0.929 . S
C472 C470 1.433 . S
C472 N475 1.384 . S
C473 H464 0.929 . S
C473 C465 1.378 . S
C473 C468 1.350 . S
C474 H461 0.929 . S
C474 C466 1.433 1_556 S
C474 N476 1.384 . S
N475 C471 1.427 . S
N475 C472 1.384 . S
N476 C468 1.427 1_556 S
N476 C474 1.384 . S
H477 C483 0.930 . S
H478 C487 0.930 . S
H479 C492 0.929 . S
H480 C490 0.929 . S
H481 C485 0.929 . S
H482 C491 0.929 . S
C483 H477 0.930 . S
C483 C484 1.363 1_556 S
C483 C491 1.378 . S
C484 C483 1.363 1_554 S
C484 C492 1.437 . S
C485 H481 0.929 . S
C485 C487 1.378 . S
C485 C489 1.350 . S
C486 C489 1.463 . S
C486 C491 1.350 1_554 S
C486 N494 1.427 . S
C487 H478 0.930 . S
C487 C485 1.378 . S
C487 C488 1.367 . S
C488 C487 1.367 . S
C488 C490 1.433 1_554 S
C489 C485 1.350 . S
C489 C486 1.463 . S
C489 N493 1.427 1_554 S
C490 H480 0.929 . S
C490 C488 1.433 1_556 S
C490 N493 1.384 . S
C491 H482 0.929 . S
C491 C483 1.378 . S
C491 C486 1.350 1_556 S
C492 H479 0.929 . S
C492 C484 1.437 . S
C492 N494 1.384 . S
N493 C489 1.427 1_556 S
N493 C490 1.384 . S
N494 C486 1.427 . S
N494 C492 1.384 . S
H495 C501 0.930 . S
H496 C505 0.930 . S
H497 C510 0.929 . S
H498 C508 0.929 . S
H499 C503 0.929 . S
H500 C509 0.929 . S
C501 H495 0.930 . S
C501 C502 1.367 1_556 S
C501 C509 1.378 . S
C502 C501 1.367 1_554 S
C502 C510 1.433 . S
C503 H499 0.929 . S
C503 C505 1.378 . S
C503 C507 1.350 . S
C504 C507 1.463 . S
C504 C509 1.350 1_554 S
C504 N512 1.427 . S
C505 H496 0.930 . S
C505 C503 1.378 . S
C505 C506 1.367 . S
C506 C505 1.367 . S
C506 C508 1.433 1_554 S
C507 C503 1.350 . S
C507 C504 1.463 . S
C507 N511 1.427 1_554 S
C508 H498 0.929 . S
C508 C506 1.433 1_556 S
C508 N511 1.384 . S
C509 H500 0.929 . S
C509 C501 1.378 . S
C509 C504 1.350 1_556 S
C510 H497 0.929 . S
C510 C502 1.433 . S
C510 N512 1.384 . S
N511 C507 1.427 1_556 S
N511 C508 1.384 . S
N512 C504 1.427 . S
N512 C510 1.384 . S
H513 C519 0.930 . S
H514 C523 0.930 . S
H515 C528 0.929 . S
H516 C526 0.929 . S
H517 C521 0.929 . S
H518 C527 0.929 . S
C519 H513 0.930 . S
C519 C520 1.367 1_556 S
C519 C527 1.378 . S
C520 C519 1.367 1_554 S
C520 C528 1.433 . S
C521 H517 0.929 . S
C521 C523 1.378 . S
C521 C525 1.350 . S
C522 C525 1.463 . S
C522 C527 1.350 1_554 S
C522 N530 1.427 . S
C523 H514 0.930 . S
C523 C521 1.378 . S
C523 C524 1.367 . S
C524 C523 1.367 . S
C524 C526 1.433 1_554 S
C525 C521 1.350 . S
C525 C522 1.463 . S
C525 N529 1.427 1_554 S
C526 H516 0.929 . S
C526 C524 1.433 1_556 S
C526 N529 1.384 . S
C527 H518 0.929 . S
C527 C519 1.378 . S
C527 C522 1.350 1_556 S
C528 H515 0.929 . S
C528 C520 1.433 . S
C528 N530 1.384 . S
N529 C525 1.427 1_556 S
N529 C526 1.384 . S
N530 C522 1.427 . S
N530 C528 1.384 . S
H531 C537 0.930 . S
H532 C541 0.930 . S
H533 C546 0.929 . S
H534 C544 0.929 . S
H535 C539 0.929 . S
H536 C545 0.929 . S
C537 H531 0.930 . S
C537 C538 1.367 . S
C537 C545 1.378 . S
C538 C537 1.367 . S
C538 C546 1.433 1_554 S
C539 H535 0.929 . S
C539 C541 1.378 . S
C539 C543 1.350 1_556 S
C540 C543 1.463 . S
C540 C545 1.350 . S
C540 N548 1.427 1_554 S
C541 H532 0.930 . S
C541 C539 1.378 . S
C541 C542 1.367 1_556 S
C542 C541 1.367 1_554 S
C542 C544 1.433 . S
C543 C539 1.350 1_554 S
C543 C540 1.463 . S
C543 N547 1.427 . S
C544 H534 0.929 . S
C544 C542 1.433 . S
C544 N547 1.384 . S
C545 H536 0.929 . S
C545 C537 1.378 . S
C545 C540 1.350 . S
C546 H533 0.929 . S
C546 C538 1.433 1_556 S
C546 N548 1.384 . S
N547 C543 1.427 . S
N547 C544 1.384 . S
N548 C540 1.427 1_556 S
N548 C546 1.384 . S
H549 C555 0.930 . S
H550 C559 0.930 . S
H551 C564 0.929 . S
H552 C562 0.929 . S
H553 C557 0.929 . S
H554 C563 0.929 . S
C555 H549 0.930 . S
C555 C556 1.367 . S
C555 C563 1.378 . S
C556 C555 1.367 . S
C556 C564 1.433 1_554 S
C557 H553 0.929 . S
C557 C559 1.378 . S
C557 C561 1.350 1_556 S
C558 C561 1.463 . S
C558 C563 1.350 . S
C558 N566 1.427 1_554 S
C559 H550 0.930 . S
C559 C557 1.378 . S
C559 C560 1.367 1_556 S
C560 C559 1.367 1_554 S
C560 C562 1.433 . S
C561 C557 1.350 1_554 S
C561 C558 1.463 . S
C561 N565 1.427 . S
C562 H552 0.929 . S
C562 C560 1.433 . S
C562 N565 1.384 . S
C563 H554 0.929 . S
C563 C555 1.378 . S
C563 C558 1.350 . S
C564 H551 0.929 . S
C564 C556 1.433 1_556 S
C564 N566 1.384 . S
N565 C561 1.427 . S
N565 C562 1.384 . S
N566 C558 1.427 1_556 S
N566 C564 1.384 . S
H567 C573 0.930 . S
H568 C577 0.930 . S
H569 C582 0.929 . S
H570 C580 0.929 . S
H571 C575 0.929 . S
H572 C581 0.929 . S
C573 H567 0.930 . S
C573 C574 1.367 1_556 S
C573 C581 1.378 . S
C574 C573 1.367 1_554 S
C574 C582 1.433 . S
C575 H571 0.929 . S
C575 C577 1.378 . S
C575 C579 1.350 . S
C576 C579 1.463 . S
C576 C581 1.350 1_554 S
C576 N584 1.427 . S
C577 H568 0.930 . S
C577 C575 1.378 . S
C577 C578 1.367 . S
C578 C577 1.367 . S
C578 C580 1.433 1_554 S
C579 C575 1.350 . S
C579 C576 1.463 . S
C579 N583 1.427 1_554 S
C580 H570 0.929 . S
C580 C578 1.433 1_556 S
C580 N583 1.384 . S
C581 H572 0.929 . S
C581 C573 1.378 . S
C581 C576 1.350 1_556 S
C582 H569 0.929 . S
C582 C574 1.433 . S
C582 N584 1.384 . S
N583 C579 1.427 1_556 S
N583 C580 1.384 . S
N584 C576 1.427 . S
N584 C582 1.384 . S
H585 C591 0.930 . S
H586 C595 0.930 . S
H587 C600 0.929 . S
H588 C598 0.929 . S
H589 C593 0.929 . S
H590 C599 0.929 . S
C591 H585 0.930 . S
C591 C592 1.367 . S
C591 C599 1.378 . S
C592 C591 1.367 . S
C592 C600 1.433 1_554 S
C593 H589 0.929 . S
C593 C595 1.378 . S
C593 C597 1.350 1_556 S
C594 C597 1.463 . S
C594 C599 1.350 . S
C594 N602 1.427 1_554 S
C595 H586 0.930 . S
C595 C593 1.378 . S
C595 C596 1.367 1_556 S
C596 C595 1.367 1_554 S
C596 C598 1.433 . S
C597 C593 1.350 1_554 S
C597 C594 1.463 . S
C597 N601 1.427 . S
C598 H588 0.929 . S
C598 C596 1.433 . S
C598 N601 1.384 . S
C599 H590 0.929 . S
C599 C591 1.378 . S
C599 C594 1.350 . S
C600 H587 0.929 . S
C600 C592 1.433 1_556 S
C600 N602 1.384 . S
N601 C597 1.427 . S
N601 C598 1.384 . S
N602 C594 1.427 1_556 S
N602 C600 1.384 . S
H603 C609 0.930 . S
H604 C613 0.930 . S
H605 C618 0.929 . S
H606 C616 0.929 . S
H607 C611 0.929 . S
H608 C617 0.929 . S
C609 H603 0.930 . S
C609 C610 1.367 . S
C609 C617 1.378 . S
C610 C609 1.367 . S
C610 C618 1.433 1_554 S
C611 H607 0.929 . S
C611 C613 1.378 . S
C611 C615 1.350 1_556 S
C612 C615 1.463 . S
C612 C617 1.350 . S
C612 N620 1.427 1_554 S
C613 H604 0.930 . S
C613 C611 1.378 . S
C613 C614 1.367 1_556 S
C614 C613 1.367 1_554 S
C614 C616 1.433 . S
C615 C611 1.350 1_554 S
C615 C612 1.463 . S
C615 N619 1.427 . S
C616 H606 0.929 . S
C616 C614 1.433 . S
C616 N619 1.384 . S
C617 H608 0.929 . S
C617 C609 1.378 . S
C617 C612 1.350 . S
C618 H605 0.929 . S
C618 C610 1.433 1_556 S
C618 N620 1.384 . S
N619 C615 1.427 . S
N619 C616 1.384 . S
N620 C612 1.427 1_556 S
N620 C618 1.384 . S
H621 C627 0.930 . S
H622 C631 0.930 . S
H623 C636 0.929 . S
H624 C634 0.929 . S
H625 C629 0.929 . S
H626 C635 0.929 . S
C627 H621 0.930 . S
C627 C628 1.367 . S
C627 C635 1.378 . S
C628 C627 1.367 . S
C628 C636 1.433 1_554 S
C629 H625 0.929 . S
C629 C631 1.378 . S
C629 C633 1.350 1_556 S
C630 C633 1.463 . S
C630 C635 1.350 . S
C630 N638 1.427 1_554 S
C631 H622 0.930 . S
C631 C629 1.378 . S
C631 C632 1.367 1_556 S
C632 C631 1.367 1_554 S
C632 C634 1.433 . S
C633 C629 1.350 1_554 S
C633 C630 1.463 . S
C633 N637 1.427 . S
C634 H624 0.929 . S
C634 C632 1.433 . S
C634 N637 1.384 . S
C635 H626 0.929 . S
C635 C627 1.378 . S
C635 C630 1.350 . S
C636 H623 0.929 . S
C636 C628 1.433 1_556 S
C636 N638 1.384 . S
N637 C633 1.427 . S
N637 C634 1.384 . S
N638 C630 1.427 1_556 S
N638 C636 1.384 . S
H639 C645 0.930 . S
H640 C649 0.930 . S
H641 C654 0.929 . S
H642 C652 0.929 . S
H643 C647 0.929 . S
H644 C653 0.929 . S
C645 H639 0.930 . S
C645 C646 1.367 . S
C645 C653 1.378 . S
C646 C645 1.367 . S
C646 C654 1.433 . S
C647 H643 0.929 . S
C647 C649 1.378 . S
C647 C651 1.350 . S
C648 C651 1.463 1_655 S
C648 C653 1.350 . S
C648 N656 1.427 . S
C649 H640 0.930 . S
C649 C647 1.378 . S
C649 C650 1.367 . S
C650 C649 1.367 . S
C650 C652 1.433 . S
C651 C647 1.350 . S
C651 C648 1.463 1_455 S
C651 N655 1.427 . S
C652 H642 0.929 . S
C652 C650 1.433 . S
C652 N655 1.384 . S
C653 H644 0.929 . S
C653 C645 1.378 . S
C653 C648 1.350 . S
C654 H641 0.929 . S
C654 C646 1.433 . S
C654 N656 1.384 . S
N655 C651 1.427 . S
N655 C652 1.384 . S
N656 C648 1.427 . S
N656 C654 1.384 . S
H657 C663 0.930 . S
H658 C667 0.930 . S
H659 C672 0.929 . S
H660 C670 0.929 . S
H661 C665 0.929 . S
H662 C671 0.929 . S
C663 H657 0.930 . S
C663 C664 1.367 . S
C663 C671 1.378 . S
C664 C663 1.367 . S
C664 C672 1.433 . S
C665 H661 0.929 . S
C665 C667 1.378 . S
C665 C669 1.350 . S
C666 C669 1.463 . S
C666 C671 1.350 . S
C666 N674 1.427 . S
C667 H658 0.930 . S
C667 C665 1.378 . S
C667 C668 1.367 . S
C668 C667 1.367 . S
C668 C670 1.433 . S
C669 C665 1.350 . S
C669 C666 1.463 . S
C669 N673 1.427 . S
C670 H660 0.929 . S
C670 C668 1.433 . S
C670 N673 1.384 . S
C671 H662 0.929 . S
C671 C663 1.378 . S
C671 C666 1.350 . S
C672 H659 0.929 . S
C672 C664 1.433 . S
C672 N674 1.384 . S
N673 C669 1.427 . S
N673 C670 1.384 . S
N674 C666 1.427 . S
N674 C672 1.384 . S
H675 C681 0.930 . S
H676 C685 0.930 . S
H677 C690 0.929 . S
H678 C688 0.929 . S
H679 C683 0.929 . S
H680 C689 0.929 . S
C681 H675 0.930 . S
C681 C682 1.367 . S
C681 C689 1.378 . S
C682 C681 1.367 . S
C682 C690 1.433 . S
C683 H679 0.929 . S
C683 C685 1.378 . S
C683 C687 1.350 . S
C684 C687 1.463 1_545 S
C684 C689 1.350 . S
C684 N692 1.427 . S
C685 H676 0.930 . S
C685 C683 1.378 . S
C685 C686 1.367 . S
C686 C685 1.367 . S
C686 C688 1.433 . S
C687 C683 1.350 . S
C687 C684 1.463 1_565 S
C687 N691 1.427 . S
C688 H678 0.929 . S
C688 C686 1.433 . S
C688 N691 1.384 . S
C689 H680 0.929 . S
C689 C681 1.378 . S
C689 C684 1.350 . S
C690 H677 0.929 . S
C690 C682 1.433 . S
C690 N692 1.384 . S
N691 C687 1.427 . S
N691 C688 1.384 . S
N692 C684 1.427 . S
N692 C690 1.384 . S
H693 C699 0.930 . S
H694 C703 0.930 . S
H695 C708 0.929 . S
H696 C706 0.929 . S
H697 C701 0.929 . S
H698 C707 0.929 . S
C699 H693 0.930 . S
C699 C700 1.367 . S
C699 C707 1.378 . S
C700 C699 1.367 . S
C700 C708 1.433 . S
C701 H697 0.929 . S
C701 C703 1.378 . S
C701 C705 1.350 . S
C702 C705 1.463 . S
C702 C707 1.350 . S
C702 N710 1.427 . S
C703 H694 0.930 . S
C703 C701 1.378 . S
C703 C704 1.367 . S
C704 C703 1.367 . S
C704 C706 1.433 . S
C705 C701 1.350 . S
C705 C702 1.463 . S
C705 N709 1.427 . S
C706 H696 0.929 . S
C706 C704 1.433 . S
C706 N709 1.384 . S
C707 H698 0.929 . S
C707 C699 1.378 . S
C707 C702 1.350 . S
C708 H695 0.929 . S
C708 C700 1.433 . S
C708 N710 1.384 . S
N709 C705 1.427 . S
N709 C706 1.384 . S
N710 C702 1.427 . S
N710 C708 1.384 . S
H711 C717 0.930 . S
H712 C721 0.930 . S
H713 C726 0.929 . S
H714 C724 0.929 . S
H715 C719 0.929 . S
H716 C725 0.929 . S
C717 H711 0.930 . S
C717 C718 1.367 . S
C717 C725 1.378 . S
C718 C717 1.367 . S
C718 C726 1.433 . S
C719 H715 0.929 . S
C719 C721 1.378 . S
C719 C723 1.350 . S
C720 C723 1.463 . S
C720 C725 1.350 . S
C720 N728 1.427 . S
C721 H712 0.930 . S
C721 C719 1.378 . S
C721 C722 1.367 . S
C722 C721 1.367 . S
C722 C724 1.433 . S
C723 C719 1.350 . S
C723 C720 1.463 . S
C723 N727 1.427 . S
C724 H714 0.929 . S
C724 C722 1.433 . S
C724 N727 1.384 . S
C725 H716 0.929 . S
C725 C717 1.378 . S
C725 C720 1.350 . S
C726 H713 0.929 . S
C726 C718 1.433 . S
C726 N728 1.384 . S
N727 C723 1.427 . S
N727 C724 1.384 . S
N728 C720 1.427 . S
N728 C726 1.384 . S
H729 C735 0.930 . S
H730 C739 0.930 . S
H731 C744 0.929 . S
H732 C742 0.929 . S
H733 C737 0.929 . S
H734 C743 0.929 . S
C735 H729 0.930 . S
C735 C736 1.367 . S
C735 C743 1.378 . S
C736 C735 1.367 . S
C736 C744 1.433 . S
C737 H733 0.929 . S
C737 C739 1.378 . S
C737 C741 1.350 . S
C738 C741 1.463 . S
C738 C743 1.350 . S
C738 N746 1.427 . S
C739 H730 0.930 . S
C739 C737 1.378 . S
C739 C740 1.367 . S
C740 C739 1.367 . S
C740 C742 1.433 . S
C741 C737 1.350 . S
C741 C738 1.463 . S
C741 N745 1.427 . S
C742 H732 0.929 . S
C742 C740 1.433 . S
C742 N745 1.384 . S
C743 H734 0.929 . S
C743 C735 1.378 . S
C743 C738 1.350 . S
C744 H731 0.929 . S
C744 C736 1.433 . S
C744 N746 1.384 . S
N745 C741 1.427 . S
N745 C742 1.384 . S
N746 C738 1.427 . S
N746 C744 1.384 . S
H747 C753 0.930 . S
H748 C757 0.930 . S
H749 C762 0.929 . S
H750 C760 0.929 . S
H751 C755 0.929 . S
H752 C761 0.929 . S
C753 H747 0.930 . S
C753 C754 1.367 . S
C753 C761 1.378 . S
C754 C753 1.367 . S
C754 C762 1.433 . S
C755 H751 0.929 . S
C755 C757 1.378 . S
C755 C759 1.350 . S
C756 C759 1.463 . S
C756 C761 1.350 . S
C756 N764 1.427 . S
C757 H748 0.930 . S
C757 C755 1.378 . S
C757 C758 1.367 . S
C758 C757 1.367 . S
C758 C760 1.433 . S
C759 C755 1.350 . S
C759 C756 1.463 . S
C759 N763 1.427 . S
C760 H750 0.929 . S
C760 C758 1.433 . S
C760 N763 1.384 . S
C761 H752 0.929 . S
C761 C753 1.378 . S
C761 C756 1.350 . S
C762 H749 0.929 . S
C762 C754 1.433 . S
C762 N764 1.384 . S
N763 C759 1.427 . S
N763 C760 1.384 . S
N764 C756 1.427 . S
N764 C762 1.384 . S
H765 C771 0.930 . S
H766 C775 0.930 . S
H767 C780 0.929 . S
H768 C778 0.929 . S
H769 C773 0.929 . S
H770 C779 0.929 . S
C771 H765 0.930 . S
C771 C772 1.367 . S
C771 C779 1.378 . S
C772 C771 1.367 . S
C772 C780 1.433 . S
C773 H769 0.929 . S
C773 C775 1.378 . S
C773 C777 1.350 . S
C774 C777 1.463 . S
C774 C779 1.350 . S
C774 N782 1.427 . S
C775 H766 0.930 . S
C775 C773 1.378 . S
C775 C776 1.367 . S
C776 C775 1.367 . S
C776 C778 1.433 . S
C777 C773 1.350 . S
C777 C774 1.463 . S
C777 N781 1.427 . S
C778 H768 0.929 . S
C778 C776 1.433 . S
C778 N781 1.384 . S
C779 H770 0.929 . S
C779 C771 1.378 . S
C779 C774 1.350 . S
C780 H767 0.929 . S
C780 C772 1.433 . S
C780 N782 1.384 . S
N781 C777 1.427 . S
N781 C778 1.384 . S
N782 C774 1.427 . S
N782 C780 1.384 . S
H783 C789 0.930 . S
H784 C793 0.930 . S
H785 C798 0.929 . S
H786 C796 0.929 . S
H787 C791 0.929 . S
H788 C797 0.929 . S
C789 H783 0.930 . S
C789 C790 1.367 . S
C789 C797 1.378 . S
C790 C789 1.367 . S
C790 C798 1.433 . S
C791 H787 0.929 . S
C791 C793 1.378 . S
C791 C795 1.350 . S
C792 C795 1.463 . S
C792 C797 1.350 . S
C792 N800 1.427 . S
C793 H784 0.930 . S
C793 C791 1.378 . S
C793 C794 1.367 . S
C794 C793 1.367 . S
C794 C796 1.433 . S
C795 C791 1.350 . S
C795 C792 1.463 . S
C795 N799 1.427 . S
C796 H786 0.929 . S
C796 C794 1.433 . S
C796 N799 1.384 . S
C797 H788 0.929 . S
C797 C789 1.378 . S
C797 C792 1.350 . S
C798 H785 0.929 . S
C798 C790 1.433 . S
C798 N800 1.384 . S
N799 C795 1.427 . S
N799 C796 1.384 . S
N800 C792 1.427 . S
N800 C798 1.384 . S
H801 C807 0.930 . S
H802 C811 0.930 . S
H803 C816 0.929 . S
H804 C814 0.929 . S
H805 C809 0.929 . S
H806 C815 0.929 . S
C807 H801 0.930 . S
C807 C808 1.367 . S
C807 C815 1.378 1_545 S
C808 C807 1.367 . S
C808 C816 1.433 . S
C809 H805 0.929 . S
C809 C811 1.378 . S
C809 C813 1.350 . S
C810 C813 1.463 . S
C810 C815 1.350 . S
C810 N818 1.427 . S
C811 H802 0.930 . S
C811 C809 1.378 . S
C811 C812 1.367 . S
C812 C811 1.367 . S
C812 C814 1.433 . S
C813 C809 1.350 . S
C813 C810 1.463 . S
C813 N817 1.427 . S
C814 H804 0.929 . S
C814 C812 1.433 . S
C814 N817 1.384 . S
C815 H806 0.929 . S
C815 C807 1.378 1_565 S
C815 C810 1.350 . S
C816 H803 0.929 . S
C816 C808 1.433 . S
C816 N818 1.384 1_545 S
N817 C813 1.427 . S
N817 C814 1.384 . S
N818 C810 1.427 . S
N818 C816 1.384 1_565 S
H819 C825 0.930 . S
H820 C829 0.930 . S
H821 C834 0.929 . S
H822 C832 0.929 . S
H823 C827 0.929 . S
H824 C833 0.929 . S
C825 H819 0.930 . S
C825 C826 1.367 . S
C825 C833 1.378 1_655 S
C826 C825 1.367 . S
C826 C834 1.433 . S
C827 H823 0.929 . S
C827 C829 1.378 . S
C827 C831 1.350 . S
C828 C831 1.463 . S
C828 C833 1.350 . S
C828 N836 1.427 . S
C829 H820 0.930 . S
C829 C827 1.378 . S
C829 C830 1.367 . S
C830 C829 1.367 . S
C830 C832 1.433 . S
C831 C827 1.350 . S
C831 C828 1.463 . S
C831 N835 1.427 . S
C832 H822 0.929 . S
C832 C830 1.433 . S
C832 N835 1.384 . S
C833 H824 0.929 . S
C833 C825 1.378 1_455 S
C833 C828 1.350 . S
C834 H821 0.929 . S
C834 C826 1.433 . S
C834 N836 1.384 1_655 S
N835 C831 1.427 . S
N835 C832 1.384 . S
N836 C828 1.427 . S
N836 C834 1.384 1_455 S
H837 C843 0.930 . S
H838 C847 0.930 . S
H839 C852 0.929 . S
H840 C850 0.929 . S
H841 C845 0.929 . S
H842 C851 0.929 . S
C843 H837 0.930 . S
C843 C844 1.367 . S
C843 C851 1.378 . S
C844 C843 1.367 . S
C844 C852 1.433 . S
C845 H841 0.929 . S
C845 C847 1.378 . S
C845 C849 1.350 . S
C846 C849 1.463 . S
C846 C851 1.350 . S
C846 N854 1.427 . S
C847 H838 0.930 . S
C847 C845 1.378 . S
C847 C848 1.367 . S
C848 C847 1.367 . S
C848 C850 1.433 . S
C849 C845 1.350 . S
C849 C846 1.463 . S
C849 N853 1.427 . S
C850 H840 0.929 . S
C850 C848 1.433 . S
C850 N853 1.384 . S
C851 H842 0.929 . S
C851 C843 1.378 . S
C851 C846 1.350 . S
C852 H839 0.929 . S
C852 C844 1.433 . S
C852 N854 1.384 . S
N853 C849 1.427 . S
N853 C850 1.384 . S
N854 C846 1.427 . S
N854 C852 1.384 . S
H855 C861 0.930 . S
H856 C865 0.930 . S
H857 C870 0.929 . S
H858 C868 0.929 . S
H859 C863 0.929 . S
H860 C869 0.929 . S
C861 H855 0.930 . S
C861 C862 1.367 . S
C861 C869 1.378 . S
C862 C861 1.367 . S
C862 C870 1.433 . S
C863 H859 0.929 . S
C863 C865 1.378 . S
C863 C867 1.350 . S
C864 C867 1.463 . S
C864 C869 1.350 . S
C864 N872 1.427 . S
C865 H856 0.930 . S
C865 C863 1.378 . S
C865 C866 1.367 . S
C866 C865 1.367 . S
C866 C868 1.433 . S
C867 C863 1.350 . S
C867 C864 1.463 . S
C867 N871 1.427 . S
C868 H858 0.929 . S
C868 C866 1.433 . S
C868 N871 1.384 . S
C869 H860 0.929 . S
C869 C861 1.378 . S
C869 C864 1.350 . S
C870 H857 0.929 . S
C870 C862 1.433 . S
C870 N872 1.384 . S
N871 C867 1.427 . S
N871 C868 1.384 . S
N872 C864 1.427 . S
N872 C870 1.384 . S
H873 C879 0.930 . S
H874 C883 0.930 . S
H875 C888 0.929 . S
H876 C886 0.929 . S
H877 C881 0.929 . S
H878 C887 0.929 . S
C879 H873 0.930 . S
C879 C880 1.367 . S
C879 C887 1.378 . S
C880 C879 1.367 . S
C880 C888 1.433 . S
C881 H877 0.929 . S
C881 C883 1.378 . S
C881 C885 1.350 . S
C882 C885 1.463 . S
C882 C887 1.350 . S
C882 N890 1.427 . S
C883 H874 0.930 . S
C883 C881 1.378 . S
C883 C884 1.367 . S
C884 C883 1.367 . S
C884 C886 1.433 . S
C885 C881 1.350 . S
C885 C882 1.463 . S
C885 N889 1.427 . S
C886 H876 0.929 . S
C886 C884 1.433 . S
C886 N889 1.384 . S
C887 H878 0.929 . S
C887 C879 1.378 . S
C887 C882 1.350 . S
C888 H875 0.929 . S
C888 C880 1.433 . S
C888 N890 1.384 . S
N889 C885 1.427 . S
N889 C886 1.384 . S
N890 C882 1.427 . S
N890 C888 1.384 . S
H891 C897 0.930 . S
H892 C901 0.930 . S
H893 C906 0.929 . S
H894 C904 0.929 . S
H895 C899 0.929 . S
H896 C905 0.929 . S
C897 H891 0.930 . S
C897 C898 1.367 . S
C897 C905 1.378 . S
C898 C897 1.367 . S
C898 C906 1.433 . S
C899 H895 0.929 . S
C899 C901 1.378 . S
C899 C903 1.350 . S
C900 C903 1.463 . S
C900 C905 1.350 . S
C900 N908 1.427 . S
C901 H892 0.930 . S
C901 C899 1.378 . S
C901 C902 1.367 . S
C902 C901 1.367 . S
C902 C904 1.433 . S
C903 C899 1.350 . S
C903 C900 1.463 . S
C903 N907 1.427 . S
C904 H894 0.929 . S
C904 C902 1.433 . S
C904 N907 1.384 . S
C905 H896 0.929 . S
C905 C897 1.378 . S
C905 C900 1.350 . S
C906 H893 0.929 . S
C906 C898 1.433 . S
C906 N908 1.384 . S
N907 C903 1.427 . S
N907 C904 1.384 . S
N908 C900 1.427 . S
N908 C906 1.384 . S
H909 C915 0.930 . S
H910 C919 0.930 . S
H911 C924 0.929 . S
H912 C922 0.929 . S
H913 C917 0.929 . S
H914 C923 0.905 1_545 S
C915 H909 0.930 . S
C915 C916 1.367 . S
C915 C923 1.378 . S
C916 C915 1.367 . S
C916 C924 1.433 . S
C917 H913 0.929 . S
C917 C919 1.378 . S
C917 C921 1.350 . S
C918 C921 1.463 1_565 S
C918 C923 1.350 . S
C918 N926 1.427 . S
C919 H910 0.930 . S
C919 C917 1.378 . S
C919 C920 1.367 . S
C920 C919 1.367 . S
C920 C922 1.433 . S
C921 C917 1.350 . S
C921 C918 1.463 1_545 S
C921 N925 1.427 . S
C922 H912 0.929 . S
C922 C920 1.433 . S
C922 N925 1.384 . S
C923 H914 0.905 1_565 S
C923 C915 1.378 . S
C923 C918 1.350 . S
C924 H911 0.929 . S
C924 C916 1.433 . S
C924 N926 1.384 . S
N925 C921 1.427 . S
N925 C922 1.384 . S
N926 C918 1.427 . S
N926 C924 1.384 . S
H927 C933 0.930 . S
H928 C937 0.930 . S
H929 C942 0.929 . S
H930 C940 0.929 . S
H931 C935 0.929 . S
H932 C941 0.929 . S
C933 H927 0.930 . S
C933 C934 1.367 . S
C933 C941 1.378 . S
C934 C933 1.367 . S
C934 C942 1.433 . S
C935 H931 0.929 . S
C935 C937 1.378 . S
C935 C939 1.350 . S
C936 C939 1.463 1_455 S
C936 C941 1.350 . S
C936 N944 1.427 . S
C937 H928 0.930 . S
C937 C935 1.378 . S
C937 C938 1.367 . S
C938 C937 1.367 . S
C938 C940 1.433 . S
C939 C935 1.350 . S
C939 C936 1.463 1_655 S
C939 N943 1.427 . S
C940 H930 0.929 . S
C940 C938 1.433 . S
C940 N943 1.384 . S
C941 H932 0.929 . S
C941 C933 1.378 . S
C941 C936 1.350 . S
C942 H929 0.929 . S
C942 C934 1.433 . S
C942 N944 1.384 . S
N943 C939 1.427 . S
N943 C940 1.384 . S
N944 C936 1.427 . S
N944 C942 1.384 . S
H945 C951 0.930 . S
H946 C955 0.930 . S
H947 C960 0.929 . S
H948 C958 0.929 . S
H949 C953 0.929 . S
H950 C959 0.929 . S
C951 H945 0.930 . S
C951 C952 1.367 . S
C951 C959 1.378 . S
C952 C951 1.367 . S
C952 C960 1.433 . S
C953 H949 0.929 . S
C953 C955 1.378 . S
C953 C957 1.350 . S
C954 C957 1.463 . S
C954 C959 1.350 . S
C954 N962 1.427 . S
C955 H946 0.930 . S
C955 C953 1.378 . S
C955 C956 1.367 . S
C956 C955 1.367 . S
C956 C958 1.433 . S
C957 C953 1.350 . S
C957 C954 1.463 . S
C957 N961 1.427 . S
C958 H948 0.929 . S
C958 C956 1.433 . S
C958 N961 1.384 . S
C959 H950 0.929 . S
C959 C951 1.378 . S
C959 C954 1.350 . S
C960 H947 0.929 . S
C960 C952 1.433 . S
C960 N962 1.384 . S
N961 C957 1.427 . S
N961 C958 1.384 . S
N962 C954 1.427 . S
N962 C960 1.384 . S
H963 C969 0.930 . S
H964 C973 0.930 . S
H965 C978 0.929 . S
H966 C976 0.929 . S
H967 C971 0.929 . S
H968 C977 0.929 1_655 S
C969 H963 0.930 . S
C969 C970 1.367 . S
C969 C977 1.378 . S
C970 C969 1.367 . S
C970 C978 1.433 . S
C971 H967 0.929 . S
C971 C973 1.378 . S
C971 C975 1.350 . S
C972 C975 1.463 . S
C972 C977 1.350 1_655 S
C972 N980 1.427 1_655 S
C973 H964 0.930 . S
C973 C971 1.378 . S
C973 C974 1.367 . S
C974 C973 1.367 . S
C974 C976 1.433 . S
C975 C971 1.350 . S
C975 C972 1.463 . S
C975 N979 1.427 . S
C976 H966 0.929 . S
C976 C974 1.433 . S
C976 N979 1.384 . S
C977 H968 0.929 1_455 S
C977 C969 1.378 . S
C977 C972 1.350 1_455 S
C978 H965 0.929 . S
C978 C970 1.433 . S
C978 N980 1.384 . S
N979 C975 1.427 . S
N979 C976 1.384 . S
N980 C972 1.427 1_455 S
N980 C978 1.384 . S
H981 C987 0.930 . S
H982 C991 0.930 . S
H983 C996 0.929 . S
H984 C994 0.929 . S
H985 C989 0.929 . S
H986 C995 0.929 . S
C987 H981 0.930 . S
C987 C988 1.367 . S
C987 C995 1.378 . S
C988 C987 1.367 . S
C988 C996 1.433 . S
C989 H985 0.929 . S
C989 C991 1.378 . S
C989 C993 1.350 . S
C990 C993 1.463 . S
C990 C995 1.350 . S
C990 N998 1.427 . S
C991 H982 0.930 . S
C991 C989 1.378 . S
C991 C992 1.367 . S
C992 C991 1.367 . S
C992 C994 1.433 . S
C993 C989 1.350 . S
C993 C990 1.463 . S
C993 N997 1.427 . S
C994 H984 0.929 . S
C994 C992 1.433 . S
C994 N997 1.384 . S
C995 H986 0.929 . S
C995 C987 1.378 . S
C995 C990 1.350 . S
C996 H983 0.929 . S
C996 C988 1.433 . S
C996 N998 1.384 . S
N997 C993 1.427 . S
N997 C994 1.384 . S
N998 C990 1.427 . S
N998 C996 1.384 . S
H999 C1005 0.930 . S
H1000 C1009 0.930 . S
H1001 C1014 0.929 . S
H1002 C1012 0.929 . S
H1003 C1007 0.929 . S
H1004 C1013 0.929 . S
C1005 H999 0.930 . S
C1005 C1006 1.367 . S
C1005 C1013 1.378 1_565 S
C1006 C1005 1.367 . S
C1006 C1014 1.433 . S
C1007 H1003 0.929 . S
C1007 C1009 1.378 . S
C1007 C1011 1.350 . S
C1008 C1011 1.463 . S
C1008 C1013 1.350 . S
C1008 N1016 1.427 . S
C1009 H1000 0.930 . S
C1009 C1007 1.378 . S
C1009 C1010 1.367 . S
C1010 C1009 1.367 . S
C1010 C1012 1.433 . S
C1011 C1007 1.350 . S
C1011 C1008 1.463 . S
C1011 N1015 1.427 . S
C1012 H1002 0.929 . S
C1012 C1010 1.433 . S
C1012 N1015 1.384 . S
C1013 H1004 0.929 . S
C1013 C1005 1.378 1_545 S
C1013 C1008 1.350 . S
C1014 H1001 0.929 . S
C1014 C1006 1.433 . S
C1014 N1016 1.384 1_565 S
N1015 C1011 1.427 . S
N1015 C1012 1.384 . S
N1016 C1008 1.427 . S
N1016 C1014 1.384 1_545 S
H1017 C1023 0.930 . S
H1018 C1027 0.930 . S
H1019 C1032 0.929 . S
H1020 C1030 0.929 . S
H1021 C1025 0.929 . S
H1022 C1031 0.929 . S
C1023 H1017 0.930 . S
C1023 C1024 1.367 . S
C1023 C1031 1.378 . S
C1024 C1023 1.367 . S
C1024 C1032 1.433 . S
C1025 H1021 0.929 . S
C1025 C1027 1.378 . S
C1025 C1029 1.350 . S
C1026 C1029 1.463 . S
C1026 C1031 1.350 . S
C1026 N1034 1.427 . S
C1027 H1018 0.930 . S
C1027 C1025 1.378 . S
C1027 C1028 1.367 . S
C1028 C1027 1.367 . S
C1028 C1030 1.433 . S
C1029 C1025 1.350 . S
C1029 C1026 1.463 . S
C1029 N1033 1.427 . S
C1030 H1020 0.929 . S
C1030 C1028 1.433 . S
C1030 N1033 1.384 . S
C1031 H1022 0.929 . S
C1031 C1023 1.378 . S
C1031 C1026 1.350 . S
C1032 H1019 0.929 . S
C1032 C1024 1.433 . S
C1032 N1034 1.384 . S
N1033 C1029 1.427 . S
N1033 C1030 1.384 . S
N1034 C1026 1.427 . S
N1034 C1032 1.384 . S
H1035 C1041 0.930 . S
H1036 C1045 0.930 . S
H1037 C1050 0.929 . S
H1038 C1048 0.929 . S
H1039 C1043 0.929 . S
H1040 C1049 0.929 . S
C1041 H1035 0.930 . S
C1041 C1042 1.367 . S
C1041 C1049 1.378 . S
C1042 C1041 1.367 . S
C1042 C1050 1.433 . S
C1043 H1039 0.929 . S
C1043 C1045 1.378 . S
C1043 C1047 1.350 . S
C1044 C1047 1.463 . S
C1044 C1049 1.350 . S
C1044 N1052 1.427 . S
C1045 H1036 0.930 . S
C1045 C1043 1.378 . S
C1045 C1046 1.367 . S
C1046 C1045 1.367 . S
C1046 C1048 1.433 . S
C1047 C1043 1.350 . S
C1047 C1044 1.463 . S
C1047 N1051 1.427 . S
C1048 H1038 0.929 . S
C1048 C1046 1.433 . S
C1048 N1051 1.384 . S
C1049 H1040 0.929 . S
C1049 C1041 1.378 . S
C1049 C1044 1.350 . S
C1050 H1037 0.929 . S
C1050 C1042 1.433 . S
C1050 N1052 1.384 . S
N1051 C1047 1.427 . S
N1051 C1048 1.384 . S
N1052 C1044 1.427 . S
N1052 C1050 1.384 . S
H1053 C1059 0.930 . S
H1054 C1063 0.930 . S
H1055 C1068 0.929 . S
H1056 C1066 0.929 . S
H1057 C1061 0.929 . S
H1058 C1067 0.929 . S
C1059 H1053 0.930 . S
C1059 C1060 1.367 . S
C1059 C1067 1.378 . S
C1060 C1059 1.367 . S
C1060 C1068 1.433 . S
C1061 H1057 0.929 . S
C1061 C1063 1.378 . S
C1061 C1065 1.350 . S
C1062 C1065 1.463 . S
C1062 C1067 1.350 . S
C1062 N1070 1.427 . S
C1063 H1054 0.930 . S
C1063 C1061 1.378 . S
C1063 C1064 1.367 . S
C1064 C1063 1.367 . S
C1064 C1066 1.433 . S
C1065 C1061 1.350 . S
C1065 C1062 1.463 . S
C1065 N1069 1.427 . S
C1066 H1056 0.929 . S
C1066 C1064 1.433 . S
C1066 N1069 1.384 . S
C1067 H1058 0.929 . S
C1067 C1059 1.378 . S
C1067 C1062 1.350 . S
C1068 H1055 0.929 . S
C1068 C1060 1.433 . S
C1068 N1070 1.384 . S
N1069 C1065 1.427 . S
N1069 C1066 1.384 . S
N1070 C1062 1.427 . S
N1070 C1068 1.384 . S
H1071 C1077 0.930 . S
H1072 C1081 0.930 . S
H1073 C1086 0.929 . S
H1074 C1084 0.929 . S
H1075 C1079 0.929 . S
H1076 C1085 0.929 . S
C1077 H1071 0.930 . S
C1077 C1078 1.367 . S
C1077 C1085 1.378 . S
C1078 C1077 1.367 . S
C1078 C1086 1.433 . S
C1079 H1075 0.929 . S
C1079 C1081 1.378 . S
C1079 C1083 1.350 . S
C1080 C1083 1.463 . S
C1080 C1085 1.350 . S
C1080 N1088 1.427 . S
C1081 H1072 0.930 . S
C1081 C1079 1.378 . S
C1081 C1082 1.367 . S
C1082 C1081 1.367 . S
C1082 C1084 1.433 . S
C1083 C1079 1.350 . S
C1083 C1080 1.463 . S
C1083 N1087 1.427 . S
C1084 H1074 0.929 . S
C1084 C1082 1.433 . S
C1084 N1087 1.384 . S
C1085 H1076 0.929 . S
C1085 C1077 1.378 . S
C1085 C1080 1.350 . S
C1086 H1073 0.929 . S
C1086 C1078 1.433 . S
C1086 N1088 1.384 . S
N1087 C1083 1.427 . S
N1087 C1084 1.384 . S
N1088 C1080 1.427 . S
N1088 C1086 1.384 . S
H1089 C1095 0.930 . S
H1090 C1099 0.930 . S
H1091 C1104 0.929 . S
H1092 C1102 0.929 . S
H1093 C1097 0.929 . S
H1094 C1103 0.929 . S
C1095 H1089 0.930 . S
C1095 C1096 1.367 . S
C1095 C1103 1.378 . S
C1096 C1095 1.367 . S
C1096 C1104 1.433 . S
C1097 H1093 0.929 . S
C1097 C1099 1.378 . S
C1097 C1101 1.350 . S
C1098 C1101 1.463 . S
C1098 C1103 1.350 . S
C1098 N1106 1.427 . S
C1099 H1090 0.930 . S
C1099 C1097 1.378 . S
C1099 C1100 1.367 . S
C1100 C1099 1.367 . S
C1100 C1102 1.433 . S
C1101 C1097 1.350 . S
C1101 C1098 1.463 . S
C1101 N1105 1.427 . S
C1102 H1092 0.929 . S
C1102 C1100 1.433 . S
C1102 N1105 1.384 . S
C1103 H1094 0.929 . S
C1103 C1095 1.378 . S
C1103 C1098 1.350 . S
C1104 H1091 0.929 . S
C1104 C1096 1.433 . S
C1104 N1106 1.384 . S
N1105 C1101 1.427 . S
N1105 C1102 1.384 . S
N1106 C1098 1.427 . S
N1106 C1104 1.384 . S
H1107 C1113 0.930 . S
H1108 C1117 0.930 . S
H1109 C1122 0.929 . S
H1110 C1120 0.929 . S
H1111 C1115 0.929 . S
H1112 C1121 0.929 . S
C1113 H1107 0.930 . S
C1113 C1114 1.367 . S
C1113 C1121 1.378 . S
C1114 C1113 1.367 . S
C1114 C1122 1.433 . S
C1115 H1111 0.929 . S
C1115 C1117 1.378 . S
C1115 C1119 1.350 . S
C1116 C1119 1.463 . S
C1116 C1121 1.350 . S
C1116 N1124 1.427 . S
C1117 H1108 0.930 . S
C1117 C1115 1.378 . S
C1117 C1118 1.367 . S
C1118 C1117 1.367 . S
C1118 C1120 1.433 . S
C1119 C1115 1.350 . S
C1119 C1116 1.463 . S
C1119 N1123 1.427 . S
C1120 H1110 0.929 . S
C1120 C1118 1.433 . S
C1120 N1123 1.384 . S
C1121 H1112 0.929 . S
C1121 C1113 1.378 . S
C1121 C1116 1.350 . S
C1122 H1109 0.929 . S
C1122 C1114 1.433 . S
C1122 N1124 1.384 . S
N1123 C1119 1.427 . S
N1123 C1120 1.384 . S
N1124 C1116 1.427 . S
N1124 C1122 1.384 . S
H1125 C1131 0.930 . S
H1126 C1135 0.930 1_455 S
H1127 C1140 0.929 . S
H1128 C1138 0.929 . S
H1129 C1133 0.929 . S
H1130 C1139 0.929 . S
C1131 H1125 0.930 . S
C1131 C1132 1.367 . S
C1131 C1139 1.378 . S
C1132 C1131 1.367 . S
C1132 C1140 1.433 . S
C1133 H1129 0.929 . S
C1133 C1135 1.378 . S
C1133 C1137 1.350 . S
C1134 C1137 1.463 . S
C1134 C1139 1.350 . S
C1134 N1142 1.427 . S
C1135 H1126 0.930 1_655 S
C1135 C1133 1.378 . S
C1135 C1136 1.367 . S
C1136 C1135 1.367 . S
C1136 C1138 1.433 . S
C1137 C1133 1.350 . S
C1137 C1134 1.463 . S
C1137 N1141 1.427 . S
C1138 H1128 0.929 . S
C1138 C1136 1.433 . S
C1138 N1141 1.384 . S
C1139 H1130 0.929 . S
C1139 C1131 1.378 . S
C1139 C1134 1.350 . S
C1140 H1127 0.929 . S
C1140 C1132 1.433 . S
C1140 N1142 1.384 . S
N1141 C1137 1.427 . S
N1141 C1138 1.384 . S
N1142 C1134 1.427 . S
N1142 C1140 1.384 . S
H1143 C1149 0.930 . S
H1144 C1153 0.930 . S
H1145 C1158 0.929 . S
H1146 C1156 0.929 . S
H1147 C1151 0.929 . S
H1148 C1157 0.929 . S
C1149 H1143 0.930 . S
C1149 C1150 1.367 . S
C1149 C1157 1.378 . S
C1150 C1149 1.367 . S
C1150 C1158 1.433 . S
C1151 H1147 0.929 . S
C1151 C1153 1.378 . S
C1151 C1155 1.350 . S
C1152 C1155 1.463 . S
C1152 C1157 1.350 . S
C1152 N1160 1.427 . S
C1153 H1144 0.930 . S
C1153 C1151 1.378 . S
C1153 C1154 1.367 . S
C1154 C1153 1.367 . S
C1154 C1156 1.433 . S
C1155 C1151 1.350 . S
C1155 C1152 1.463 . S
C1155 N1159 1.427 . S
C1156 H1146 0.929 . S
C1156 C1154 1.433 . S
C1156 N1159 1.384 . S
C1157 H1148 0.929 . S
C1157 C1149 1.378 . S
C1157 C1152 1.350 . S
C1158 H1145 0.929 . S
C1158 C1150 1.433 . S
C1158 N1160 1.384 . S
N1159 C1155 1.427 . S
N1159 C1156 1.384 . S
N1160 C1152 1.427 . S
N1160 C1158 1.384 . S
H1161 C1167 0.930 . S
H1162 C1171 0.930 . S
H1163 C1176 0.929 . S
H1164 C1174 0.929 1_565 S
H1165 C1169 0.929 . S
H1166 C1175 0.929 . S
C1167 H1161 0.930 . S
C1167 C1168 1.367 . S
C1167 C1175 1.378 . S
C1168 C1167 1.367 . S
C1168 C1176 1.433 . S
C1169 H1165 0.929 . S
C1169 C1171 1.378 . S
C1169 C1173 1.350 . S
C1170 C1173 1.463 . S
C1170 C1175 1.350 . S
C1170 N1178 1.427 . S
C1171 H1162 0.930 . S
C1171 C1169 1.378 . S
C1171 C1172 1.367 . S
C1172 C1171 1.367 . S
C1172 C1174 1.433 . S
C1173 C1169 1.350 . S
C1173 C1170 1.463 . S
C1173 N1177 1.427 . S
C1174 H1164 0.929 1_545 S
C1174 C1172 1.433 . S
C1174 N1177 1.384 . S
C1175 H1166 0.929 . S
C1175 C1167 1.378 . S
C1175 C1170 1.350 . S
C1176 H1163 0.929 . S
C1176 C1168 1.433 . S
C1176 N1178 1.384 . S
N1177 C1173 1.427 . S
N1177 C1174 1.384 . S
N1178 C1170 1.427 . S
N1178 C1176 1.384 . S
H1179 C1185 0.930 . S
H1180 C1189 0.930 . S
H1181 C1194 0.929 . S
H1182 C1192 0.929 . S
H1183 C1187 0.929 . S
H1184 C1193 0.929 . S
C1185 H1179 0.930 . S
C1185 C1186 1.367 . S
C1185 C1193 1.378 . S
C1186 C1185 1.367 . S
C1186 C1194 1.433 . S
C1187 H1183 0.929 . S
C1187 C1189 1.378 . S
C1187 C1191 1.350 . S
C1188 C1191 1.463 . S
C1188 C1193 1.350 . S
C1188 N1196 1.427 . S
C1189 H1180 0.930 . S
C1189 C1187 1.378 . S
C1189 C1190 1.367 . S
C1190 C1189 1.367 . S
C1190 C1192 1.433 . S
C1191 C1187 1.350 . S
C1191 C1188 1.463 . S
C1191 N1195 1.427 . S
C1192 H1182 0.929 . S
C1192 C1190 1.433 . S
C1192 N1195 1.384 . S
C1193 H1184 0.929 . S
C1193 C1185 1.378 . S
C1193 C1188 1.350 . S
C1194 H1181 0.929 . S
C1194 C1186 1.433 . S
C1194 N1196 1.384 . S
N1195 C1191 1.427 . S
N1195 C1192 1.384 . S
N1196 C1188 1.427 . S
N1196 C1194 1.384 . S
H1197 C1203 0.930 . S
H1198 C1207 0.930 . S
H1199 C1212 0.929 . S
H1200 C1210 0.929 . S
H1201 C1205 0.929 . S
H1202 C1211 0.929 . S
C1203 H1197 0.930 . S
C1203 C1204 1.367 . S
C1203 C1211 1.378 . S
C1204 C1203 1.367 . S
C1204 C1212 1.433 . S
C1205 H1201 0.929 . S
C1205 C1207 1.378 . S
C1205 C1209 1.350 . S
C1206 C1209 1.463 . S
C1206 C1211 1.350 . S
C1206 N1214 1.427 . S
C1207 H1198 0.930 . S
C1207 C1205 1.378 . S
C1207 C1208 1.367 . S
C1208 C1207 1.367 . S
C1208 C1210 1.433 . S
C1209 C1205 1.350 . S
C1209 C1206 1.463 . S
C1209 N1213 1.427 . S
C1210 H1200 0.929 . S
C1210 C1208 1.433 . S
C1210 N1213 1.384 . S
C1211 H1202 0.929 . S
C1211 C1203 1.378 . S
C1211 C1206 1.350 . S
C1212 H1199 0.929 . S
C1212 C1204 1.433 . S
C1212 N1214 1.384 . S
N1213 C1209 1.427 . S
N1213 C1210 1.384 . S
N1214 C1206 1.427 . S
N1214 C1212 1.384 . S
H1215 C1221 0.930 . S
H1216 C1225 0.930 . S
H1217 C1230 0.929 . S
H1218 C1228 0.929 . S
H1219 C1223 0.929 . S
H1220 C1229 0.929 . S
C1221 H1215 0.930 . S
C1221 C1222 1.367 . S
C1221 C1229 1.378 . S
C1222 C1221 1.367 . S
C1222 C1230 1.433 . S
C1223 H1219 0.929 . S
C1223 C1225 1.378 . S
C1223 C1227 1.350 . S
C1224 C1227 1.463 . S
C1224 C1229 1.350 . S
C1224 N1232 1.427 . S
C1225 H1216 0.930 . S
C1225 C1223 1.378 . S
C1225 C1226 1.367 . S
C1226 C1225 1.367 . S
C1226 C1228 1.433 . S
C1227 C1223 1.350 . S
C1227 C1224 1.463 . S
C1227 N1231 1.427 . S
C1228 H1218 0.929 . S
C1228 C1226 1.433 . S
C1228 N1231 1.384 . S
C1229 H1220 0.929 . S
C1229 C1221 1.378 . S
C1229 C1224 1.350 . S
C1230 H1217 0.929 . S
C1230 C1222 1.433 . S
C1230 N1232 1.384 . S
N1231 C1227 1.427 . S
N1231 C1228 1.384 . S
N1232 C1224 1.427 . S
N1232 C1230 1.384 . S
H1233 C1239 0.930 . S
H1234 C1243 0.930 . S
H1235 C1248 0.929 . S
H1236 C1246 0.929 . S
H1237 C1241 0.929 . S
H1238 C1247 0.929 . S
C1239 H1233 0.930 . S
C1239 C1240 1.367 . S
C1239 C1247 1.378 . S
C1240 C1239 1.367 . S
C1240 C1248 1.433 . S
C1241 H1237 0.929 . S
C1241 C1243 1.378 . S
C1241 C1245 1.350 . S
C1242 C1245 1.463 . S
C1242 C1247 1.350 . S
C1242 N1250 1.427 . S
C1243 H1234 0.930 . S
C1243 C1241 1.378 . S
C1243 C1244 1.367 . S
C1244 C1243 1.367 . S
C1244 C1246 1.433 . S
C1245 C1241 1.350 . S
C1245 C1242 1.463 . S
C1245 N1249 1.427 . S
C1246 H1236 0.929 . S
C1246 C1244 1.433 . S
C1246 N1249 1.384 . S
C1247 H1238 0.929 . S
C1247 C1239 1.378 . S
C1247 C1242 1.350 . S
C1248 H1235 0.929 . S
C1248 C1240 1.433 . S
C1248 N1250 1.384 . S
N1249 C1245 1.427 . S
N1249 C1246 1.384 . S
N1250 C1242 1.427 . S
N1250 C1248 1.384 . S
H1251 C1257 0.930 . S
H1252 C1261 0.930 . S
H1253 C1266 0.929 . S
H1254 C1264 0.929 . S
H1255 C1259 0.929 . S
H1256 C1265 0.929 . S
C1257 H1251 0.930 . S
C1257 C1258 1.367 . S
C1257 C1265 1.378 . S
C1258 C1257 1.367 . S
C1258 C1266 1.433 . S
C1259 H1255 0.929 . S
C1259 C1261 1.378 . S
C1259 C1263 1.350 . S
C1260 C1263 1.463 . S
C1260 C1265 1.350 . S
C1260 N1268 1.427 . S
C1261 H1252 0.930 . S
C1261 C1259 1.378 . S
C1261 C1262 1.367 . S
C1262 C1261 1.367 . S
C1262 C1264 1.433 . S
C1263 C1259 1.350 . S
C1263 C1260 1.463 . S
C1263 N1267 1.427 . S
C1264 H1254 0.929 . S
C1264 C1262 1.433 . S
C1264 N1267 1.384 . S
C1265 H1256 0.929 . S
C1265 C1257 1.378 . S
C1265 C1260 1.350 . S
C1266 H1253 0.929 . S
C1266 C1258 1.433 . S
C1266 N1268 1.384 . S
N1267 C1263 1.427 . S
N1267 C1264 1.384 . S
N1268 C1260 1.427 . S
N1268 C1266 1.384 . S
H1269 C1275 0.930 . S
H1270 C1279 0.930 . S
H1271 C1284 0.929 . S
H1272 C1282 0.929 . S
H1273 C1277 0.929 . S
H1274 C1283 0.929 . S
C1275 H1269 0.930 . S
C1275 C1276 1.367 . S
C1275 C1283 1.378 . S
C1276 C1275 1.367 . S
C1276 C1284 1.433 . S
C1277 H1273 0.929 . S
C1277 C1279 1.378 . S
C1277 C1281 1.350 . S
C1278 C1281 1.463 . S
C1278 C1283 1.350 . S
C1278 N1286 1.427 . S
C1279 H1270 0.930 . S
C1279 C1277 1.378 . S
C1279 C1280 1.367 . S
C1280 C1279 1.367 . S
C1280 C1282 1.433 . S
C1281 C1277 1.350 . S
C1281 C1278 1.463 . S
C1281 N1285 1.427 . S
C1282 H1272 0.929 . S
C1282 C1280 1.433 . S
C1282 N1285 1.384 . S
C1283 H1274 0.929 . S
C1283 C1275 1.378 . S
C1283 C1278 1.350 . S
C1284 H1271 0.929 . S
C1284 C1276 1.433 . S
C1284 N1286 1.384 . S
N1285 C1281 1.427 . S
N1285 C1282 1.384 . S
N1286 C1278 1.427 . S
N1286 C1284 1.384 . S
H1287 C1293 0.930 . S
H1288 C1297 0.930 . S
H1289 C1302 0.929 . S
H1290 C1300 0.929 . S
H1291 C1295 0.929 . S
H1292 C1301 0.929 . S
C1293 H1287 0.930 . S
C1293 C1294 1.367 . S
C1293 C1301 1.378 . S
C1294 C1293 1.367 . S
C1294 C1302 1.433 . S
C1295 H1291 0.929 . S
C1295 C1297 1.378 . S
C1295 C1299 1.350 . S
C1296 C1299 1.463 . S
C1296 C1301 1.350 . S
C1296 N1304 1.427 . S
C1297 H1288 0.930 . S
C1297 C1295 1.378 . S
C1297 C1298 1.367 . S
C1298 C1297 1.367 . S
C1298 C1300 1.433 . S
C1299 C1295 1.350 . S
C1299 C1296 1.463 . S
C1299 N1303 1.427 . S
C1300 H1290 0.929 . S
C1300 C1298 1.433 . S
C1300 N1303 1.384 . S
C1301 H1292 0.929 . S
C1301 C1293 1.378 . S
C1301 C1296 1.350 . S
C1302 H1289 0.929 . S
C1302 C1294 1.433 . S
C1302 N1304 1.384 . S
N1303 C1299 1.427 . S
N1303 C1300 1.384 . S
N1304 C1296 1.427 . S
N1304 C1302 1.384 . S
H1305 C1311 0.930 . S
H1306 C1315 0.930 . S
H1307 C1320 0.929 . S
H1308 C1318 0.929 . S
H1309 C1313 0.929 . S
H1310 C1319 0.929 . S
C1311 H1305 0.930 . S
C1311 C1312 1.367 . S
C1311 C1319 1.378 . S
C1312 C1311 1.367 . S
C1312 C1320 1.433 . S
C1313 H1309 0.929 . S
C1313 C1315 1.378 . S
C1313 C1317 1.350 . S
C1314 C1317 1.463 . S
C1314 C1319 1.350 . S
C1314 N1322 1.427 . S
C1315 H1306 0.930 . S
C1315 C1313 1.378 . S
C1315 C1316 1.367 . S
C1316 C1315 1.367 . S
C1316 C1318 1.433 . S
C1317 C1313 1.350 . S
C1317 C1314 1.463 . S
C1317 N1321 1.427 . S
C1318 H1308 0.929 . S
C1318 C1316 1.433 . S
C1318 N1321 1.384 . S
C1319 H1310 0.929 . S
C1319 C1311 1.378 . S
C1319 C1314 1.350 . S
C1320 H1307 0.929 . S
C1320 C1312 1.433 . S
C1320 N1322 1.384 . S
N1321 C1317 1.427 . S
N1321 C1318 1.384 . S
N1322 C1314 1.427 . S
N1322 C1320 1.384 . S
H1323 C1329 0.930 . S
H1324 C1333 0.930 . S
H1325 C1338 0.929 . S
H1326 C1336 0.929 . S
H1327 C1331 0.929 . S
H1328 C1337 0.929 . S
C1329 H1323 0.930 . S
C1329 C1330 1.367 . S
C1329 C1337 1.378 . S
C1330 C1329 1.367 . S
C1330 C1338 1.433 . S
C1331 H1327 0.929 . S
C1331 C1333 1.378 . S
C1331 C1335 1.350 . S
C1332 C1335 1.463 . S
C1332 C1337 1.350 . S
C1332 N1340 1.427 . S
C1333 H1324 0.930 . S
C1333 C1331 1.378 . S
C1333 C1334 1.367 . S
C1334 C1333 1.367 . S
C1334 C1336 1.433 . S
C1335 C1331 1.350 . S
C1335 C1332 1.463 . S
C1335 N1339 1.427 . S
C1336 H1326 0.929 . S
C1336 C1334 1.433 . S
C1336 N1339 1.384 . S
C1337 H1328 0.929 . S
C1337 C1329 1.378 . S
C1337 C1332 1.350 . S
C1338 H1325 0.929 . S
C1338 C1330 1.433 . S
C1338 N1340 1.384 . S
N1339 C1335 1.427 . S
N1339 C1336 1.384 . S
N1340 C1332 1.427 . S
N1340 C1338 1.384 . S
H1341 C1347 0.930 . S
H1342 C1351 0.930 . S
H1343 C1356 0.929 . S
H1344 C1354 0.929 . S
H1345 C1349 0.929 . S
H1346 C1355 0.929 . S
C1347 H1341 0.930 . S
C1347 C1348 1.367 . S
C1347 C1355 1.378 . S
C1348 C1347 1.367 . S
C1348 C1356 1.433 . S
C1349 H1345 0.929 . S
C1349 C1351 1.378 . S
C1349 C1353 1.350 . S
C1350 C1353 1.463 . S
C1350 C1355 1.350 . S
C1350 N1358 1.427 . S
C1351 H1342 0.930 . S
C1351 C1349 1.378 . S
C1351 C1352 1.367 . S
C1352 C1351 1.367 . S
C1352 C1354 1.433 . S
C1353 C1349 1.350 . S
C1353 C1350 1.463 . S
C1353 N1357 1.427 . S
C1354 H1344 0.929 . S
C1354 C1352 1.433 . S
C1354 N1357 1.384 . S
C1355 H1346 0.929 . S
C1355 C1347 1.378 . S
C1355 C1350 1.350 . S
C1356 H1343 0.929 . S
C1356 C1348 1.433 . S
C1356 N1358 1.384 . S
N1357 C1353 1.427 . S
N1357 C1354 1.384 . S
N1358 C1350 1.427 . S
N1358 C1356 1.384 . S
H1359 C1365 0.930 . S
H1360 C1369 0.930 . S
H1361 C1374 0.929 . S
H1362 C1372 0.929 . S
H1363 C1367 0.929 . S
H1364 C1373 0.929 . S
C1365 H1359 0.930 . S
C1365 C1366 1.367 . S
C1365 C1373 1.378 . S
C1366 C1365 1.367 . S
C1366 C1374 1.433 . S
C1367 H1363 0.929 . S
C1367 C1369 1.378 . S
C1367 C1371 1.350 . S
C1368 C1371 1.463 . S
C1368 C1373 1.350 . S
C1368 N1376 1.427 . S
C1369 H1360 0.930 . S
C1369 C1367 1.378 . S
C1369 C1370 1.367 . S
C1370 C1369 1.367 . S
C1370 C1372 1.433 . S
C1371 C1367 1.350 . S
C1371 C1368 1.463 . S
C1371 N1375 1.427 . S
C1372 H1362 0.929 . S
C1372 C1370 1.433 . S
C1372 N1375 1.384 . S
C1373 H1364 0.929 . S
C1373 C1365 1.378 . S
C1373 C1368 1.350 . S
C1374 H1361 0.929 . S
C1374 C1366 1.433 . S
C1374 N1376 1.384 . S
N1375 C1371 1.427 . S
N1375 C1372 1.384 . S
N1376 C1368 1.427 . S
N1376 C1374 1.384 . S
H1377 C1383 0.930 . S
H1378 C1387 0.930 . S
H1379 C1392 0.929 . S
H1380 C1390 0.929 . S
H1381 C1385 0.929 . S
H1382 C1391 0.929 . S
C1383 H1377 0.930 . S
C1383 C1384 1.367 . S
C1383 C1391 1.378 . S
C1384 C1383 1.367 . S
C1384 C1392 1.433 . S
C1385 H1381 0.929 . S
C1385 C1387 1.378 . S
C1385 C1389 1.350 . S
C1386 C1389 1.463 . S
C1386 C1391 1.350 . S
C1386 N1394 1.427 . S
C1387 H1378 0.930 . S
C1387 C1385 1.378 . S
C1387 C1388 1.367 . S
C1388 C1387 1.367 . S
C1388 C1390 1.433 . S
C1389 C1385 1.350 . S
C1389 C1386 1.463 . S
C1389 N1393 1.427 . S
C1390 H1380 0.929 . S
C1390 C1388 1.433 . S
C1390 N1393 1.384 . S
C1391 H1382 0.929 . S
C1391 C1383 1.378 . S
C1391 C1386 1.350 . S
C1392 H1379 0.929 . S
C1392 C1384 1.433 . S
C1392 N1394 1.384 . S
N1393 C1389 1.427 . S
N1393 C1390 1.384 . S
N1394 C1386 1.427 . S
N1394 C1392 1.384 . S
C430 C177 1.438 . S
C434 C251 1.406 . S
C448 C190 1.419 . S
C452 C272 1.389 . S
C466 C164 1.375 . S
C470 C294 1.221 . S
C484 C151 1.363 1_554 S
C488 C273 1.207 . S
C506 C293 1.394 . S
C502 C125 1.418 1_554 S
C520 C138 1.389 . S
C524 C252 1.219 . S
C542 C247 1.409 . S
C538 C147 1.406 . S
C560 C268 1.406 . S
C556 C121 1.388 . S
C574 C134 1.442 . S
C578 C291 1.279 . S
C592 C173 1.411 . S
C596 C270 1.255 1_554 S
C610 C186 1.375 . S
C614 C289 1.384 . S
C632 C249 1.263 1_554 S
C628 C160 1.443 . S
C650 C314 1.407 . S
C646 C21 1.428 . S
C664 C34 1.422 . S
C668 C335 1.383 . S
C682 C8 1.384 . S
C686 C357 1.249 . S
C700 C229 1.373 . S
C704 C336 1.232 . S
C718 C203 1.418 . S
C722 C356 1.386 . S
C736 C216 1.393 . S
C740 C315 1.247 . S
C754 C225 1.398 . S
C758 C310 1.411 . S
C772 C199 1.395 . S
C776 C331 1.397 . S
C794 C354 1.283 . S
C790 C212 1.442 . S
C808 C17 1.431 . S
C812 C333 1.271 . S
C830 C352 1.395 . S
C826 C30 1.367 . S
C844 C4 1.440 . S
C848 C312 1.266 . S
C866 C377 1.406 . S
C862 C99 1.428 . S
C880 C112 1.420 . S
C884 C398 1.386 . S
C902 C420 1.221 . S
C898 C86 1.376 . S
C920 C399 1.203 . S
C916 C73 1.367 . S
C938 C419 1.387 . S
C934 C47 1.418 . S
C952 C60 1.393 . S
C956 C378 1.247 . S
C970 C69 1.414 . S
C974 C373 1.400 . S
C988 C43 1.394 . S
C992 C394 1.396 . S
C1010 C417 1.278 . S
C1006 C56 1.442 . S
C1024 C95 1.431 . S
C1028 C396 1.266 . S
C1042 C108 1.367 . S
C1046 C415 1.395 . S
C1060 C82 1.455 . S
C1064 C375 1.273 . S
C1078 C204 1.483 . S
C1082 C250 1.476 . S
C1100 C271 1.514 . S
C1096 C217 1.535 . S
C1114 C230 1.547 . S
C1118 C290 1.482 . S
C1132 C87 1.617 . S
C1136 C269 1.551 . S
C1150 C100 1.557 . S
C1154 C292 1.537 . S
C1172 C248 1.520 . S
C1168 C113 1.575 . S
C1186 C48 1.484 . S
C1190 C313 1.471 . S
C1204 C61 1.533 . S
C1208 C334 1.520 . S
C1222 C74 1.547 . S
C1226 C353 1.482 . S
C1240 C165 1.617 . S
C1244 C332 1.551 . S
C1262 C355 1.541 . S
C1258 C178 1.557 . S
C1276 C191 1.568 . S
C1280 C311 1.508 . S
C1294 C126 1.489 . S
C1298 C376 1.468 . S
C1312 C139 1.534 . S
C1316 C397 1.515 . S
C1334 C416 1.482 . S
C1330 C152 1.547 . S
C1348 C9 1.622 . S
C1352 C395 1.565 . S
C1366 C22 1.556 . S
C1370 C418 1.539 . S
C1384 C35 1.575 . S
C1388 C374 1.519 . S
