# Generated by pormake.
# Topology csq, (4,8)-cn, num edge types: 1
# Building blocks:
#     Node 0, Type 0, BuildingBlock: MUDLON_clean_linker_0, # of connection points: 4
#     Node 1, Type 0, BuildingBlock: MUDLON_clean_linker_0, # of connection points: 4
#     Node 2, Type 0, BuildingBlock: MUDLON_clean_linker_0, # of connection points: 4
#     Node 3, Type 0, BuildingBlock: MUDLON_clean_linker_0, # of connection points: 4
#     Node 4, Type 0, BuildingBlock: MUDLON_clean_linker_0, # of connection points: 4
#     Node 5, Type 0, BuildingBlock: MUDLON_clean_linker_0, # of connection points: 4
#     Node 6, Type 1, BuildingBlock: TAGTUT_clean_sbu_1, # of connection points: 8
#     Node 7, Type 1, BuildingBlock: TAGTUT_clean_sbu_1, # of connection points: 8
#     Node 8, Type 1, BuildingBlock: TAGTUT_clean_sbu_1, # of connection points: 8
#     Edge 9, Type (0, 1), None
#     Edge 10, Type (0, 1), None
#     Edge 11, Type (0, 1), None
#     Edge 12, Type (0, 1), None
#     Edge 13, Type (0, 1), None
#     Edge 14, Type (0, 1), None
#     Edge 15, Type (0, 1), None
#     Edge 16, Type (0, 1), None
#     Edge 17, Type (0, 1), None
#     Edge 18, Type (0, 1), None
#     Edge 19, Type (0, 1), None
#     Edge 20, Type (0, 1), None
#     Edge 21, Type (0, 1), None
#     Edge 22, Type (0, 1), None
#     Edge 23, Type (0, 1), None
#     Edge 24, Type (0, 1), None
#     Edge 25, Type (0, 1), None
#     Edge 26, Type (0, 1), None
#     Edge 27, Type (0, 1), None
#     Edge 28, Type (0, 1), None
#     Edge 29, Type (0, 1), None
#     Edge 30, Type (0, 1), None
#     Edge 31, Type (0, 1), None
#     Edge 32, Type (0, 1), None
# Relax obj value: 0.053
# Max RMSD: 0.130
# Mean RMSD: 0.092
data_MOF--net-csq--node1-TAGTUT_clean_sbu_1--node2-MUDLON_clean_linker_0--edge1-none
_symmetry_space_group_name_H-M    P1
_symmetry_Int_Tables_number       1
_symmetry_cell_setting            triclinic
loop_
_symmetry_equiv_pos_as_xyz
'x, y, z'
_cell_length_a     42.843017
_cell_length_b     42.312165
_cell_length_c     14.450056
_cell_angle_alpha  93.443974
_cell_angle_beta   93.267665
_cell_angle_gamma 119.89595
loop_
_atom_site_label
_atom_site_type_symbol
_atom_site_fract_x
_atom_site_fract_y
_atom_site_fract_z
_atom_type_partial_charge
H0 H 0.35047 0.4004 0.3042 0.0
N1 N 0.35078 0.43767 0.16126 0.0
H2 H 0.39688 0.42059 0.43795 0.0
H3 H 0.41266 0.50499 0.19738 0.0
H4 H 0.4582 0.52496 0.32973 0.0
H5 H 0.35275 0.38757 0.0456 0.0
H6 H 0.37356 0.39409 0.89013 0.0
H7 H 0.37349 0.49848 0.06532 0.0
H8 H 0.39536 0.50575 0.9109 0.0
H9 H 0.35405 0.50153 0.22767 0.0
H10 H 0.28116 0.38807 0.12805 0.0
H11 H 0.3031 0.5089 0.2627 0.0
H12 H 0.22961 0.39572 0.15663 0.0
H13 H 0.15828 0.52868 0.33051 0.0
H14 H 0.12951 0.54272 0.45656 0.0
H15 H 0.05547 0.4273 0.4632 0.0
H16 H 0.08313 0.41355 0.33457 0.0
H17 H 0.09757 0.40866 0.09836 0.0
H18 H 0.0796 0.41521 0.94025 0.0
H19 H 0.1296 0.53214 0.01199 0.0
H20 H 0.14749 0.52506 0.16927 0.0
H21 H 0.20038 0.51734 0.21166 0.0
H22 H 0.25458 0.51309 0.19594 0.0
H23 H 0.19843 0.40261 0.27625 0.0
N24 N 0.13411 0.46096 0.23804 0.0
H25 H 0.14366 0.40651 0.28464 0.0
C26 C 0.37838 0.45065 0.23916 0.0
C27 C 0.3738 0.42778 0.31015 0.0
C28 C 0.39972 0.43957 0.38753 0.0
C29 C 0.43041 0.47468 0.39538 0.0
C30 C 0.43418 0.49807 0.32642 0.0
C31 C 0.40849 0.48632 0.24934 0.0
C32 C 0.36243 0.44267 0.06846 0.0
C33 C 0.36166 0.41329 0.01605 0.0
C34 C 0.37308 0.41697 0.92641 0.0
C35 C 0.38605 0.45048 0.88719 0.0
C36 C 0.3854 0.47951 0.93847 0.0
C37 C 0.37343 0.47557 0.02769 0.0
C38 C 0.32131 0.44388 0.1766 0.0
C39 C 0.32704 0.47819 0.21275 0.0
C40 C 0.29774 0.48247 0.2321 0.0
C41 C 0.26214 0.45281 0.21371 0.0
C42 C 0.25662 0.41891 0.17453 0.0
C43 C 0.28595 0.41451 0.15689 0.0
C44 C 0.12166 0.47009 0.32059 0.0
C45 C 0.13621 0.50641 0.36 0.0
C46 C 0.12061 0.51434 0.43431 0.0
C47 C 0.09095 0.48605 0.47185 0.0
C48 C 0.0791 0.44959 0.43823 0.0
C49 C 0.09419 0.44175 0.36305 0.0
C50 C 0.1227 0.46604 0.14678 0.0
C51 C 0.10456 0.43566 0.07966 0.0
C52 C 0.095 0.43964 0.9886 0.0
C53 C 0.10325 0.4743 0.96227 0.0
C54 C 0.1229 0.50501 0.02896 0.0
C55 C 0.13256 0.50094 0.12002 0.0
C56 C 0.168 0.4619 0.24759 0.0
C57 C 0.19998 0.4924 0.22659 0.0
C58 C 0.23102 0.48993 0.21823 0.0
C59 C 0.23072 0.45717 0.23286 0.0
C60 C 0.19933 0.42781 0.26135 0.0
C61 C 0.16818 0.4301 0.26769 0.0
H62 H 0.67213 0.05471 0.28211 0.0
N63 N 0.67227 0.10335 0.17411 0.0
H64 H 0.65423 0.04529 0.44042 0.0
H65 H 0.64456 0.13948 0.27309 0.0
H66 H 0.62454 0.12886 0.42933 0.0
H67 H 0.61905 0.11907 0.12316 0.0
H68 H 0.57548 0.09207 0.98469 0.0
H69 H 0.66954 0.05758 0.03539 0.0
H70 H 0.62585 0.03071 0.8955 0.0
H71 H 0.73769 0.11188 0.20206 0.0
H72 H 0.68185 0.17028 0.13994 0.0
H73 H 0.79577 0.16805 0.20111 0.0
H74 H 0.73974 0.22638 0.13386 0.0
H75 H 0.94848 0.32087 0.34981 0.0
H76 H 0.97582 0.36179 0.49317 0.0
H77 H 0.93086 0.42778 0.40229 0.0
H78 H 0.90362 0.38651 0.25926 0.0
H79 H 0.88261 0.35636 0.08745 0.0
H80 H 0.91399 0.40165 0.97761 0.0
H81 H 0.01263 0.40157 0.05572 0.0
H82 H 0.98107 0.35557 0.16352 0.0
H83 H 0.89489 0.26407 0.12293 0.0
H84 H 0.83477 0.2094 0.10285 0.0
H85 H 0.79091 0.27193 0.23075 0.0
N86 N 0.91397 0.32947 0.20536 0.0
H87 H 0.85047 0.32663 0.24502 0.0
C88 C 0.65865 0.09686 0.26433 0.0
C89 C 0.6616 0.07084 0.31384 0.0
C90 C 0.65172 0.06583 0.40481 0.0
C91 C 0.63777 0.08626 0.44785 0.0
C92 C 0.63492 0.11249 0.39811 0.0
C93 C 0.64578 0.11816 0.30788 0.0
C94 C 0.64718 0.08966 0.09096 0.0
C95 C 0.6213 0.10033 0.07369 0.0
C96 C 0.59689 0.08557 0.99319 0.0
C97 C 0.59828 0.06045 0.92785 0.0
C98 C 0.62516 0.05111 0.94299 0.0
C99 C 0.6495 0.06577 0.02367 0.0
C100 C 0.70569 0.1369 0.17049 0.0
C101 C 0.73812 0.13687 0.18703 0.0
C102 C 0.77122 0.16894 0.18548 0.0
C103 C 0.77253 0.20178 0.1663 0.0
C104 C 0.73979 0.20171 0.14958 0.0
C105 C 0.70662 0.16958 0.15232 0.0
C106 C 0.92388 0.35037 0.29482 0.0
C107 C 0.94394 0.3437 0.36213 0.0
C108 C 0.95981 0.3674 0.44326 0.0
C109 C 0.95589 0.39837 0.4583 0.0
C110 C 0.93477 0.40447 0.392 0.0
C111 C 0.91877 0.38058 0.31086 0.0
C112 C 0.92949 0.35205 0.13174 0.0
C113 C 0.91078 0.36565 0.0799 0.0
C114 C 0.92881 0.39202 0.01919 0.0
C115 C 0.9657 0.40553 0.0117 0.0
C116 C 0.98434 0.39203 0.06309 0.0
C117 C 0.96625 0.36535 0.12251 0.0
C118 C 0.87745 0.29918 0.18702 0.0
C119 C 0.87211 0.26595 0.14522 0.0
C120 C 0.8378 0.23472 0.13475 0.0
C121 C 0.80805 0.236 0.16709 0.0
C122 C 0.81311 0.26987 0.2048 0.0
C123 C 0.84742 0.30127 0.21395 0.0
H124 H 0.59088 0.93004 0.00124 0.0
N125 N 0.52835 0.88145 0.07062 0.0
H126 H 0.59505 0.95826 0.85686 0.0
H127 H 0.47522 0.8629 0.93842 0.0
H128 H 0.47898 0.89231 0.79528 0.0
H129 H 0.49435 0.91702 0.11694 0.0
H130 H 0.51352 0.96703 0.24039 0.0
H131 H 0.59251 0.91454 0.18441 0.0
H132 H 0.61091 0.96333 0.31052 0.0
H133 H 0.58811 0.87651 0.03244 0.0
H134 H 0.48513 0.8205 0.14523 0.0
H135 H 0.59721 0.82534 0.05472 0.0
H136 H 0.49466 0.76899 0.17093 0.0
H137 H 0.60585 0.69537 0.94078 0.0
H138 H 0.59225 0.65947 0.79199 0.0
H139 H 0.4971 0.57082 0.89043 0.0
H140 H 0.51056 0.60819 0.03922 0.0
H141 H 0.52314 0.64385 0.2168 0.0
H142 H 0.52192 0.60324 0.33175 0.0
H143 H 0.61834 0.60932 0.23743 0.0
H144 H 0.62016 0.65101 0.12336 0.0
H145 H 0.61985 0.74211 0.15973 0.0
H146 H 0.60914 0.79378 0.17156 0.0
H147 H 0.49608 0.72006 0.07821 0.0
N148 N 0.57322 0.67365 0.09221 0.0
H149 H 0.50693 0.66851 0.07037 0.0
C150 C 0.53266 0.89369 0.97923 0.0
C151 C 0.56655 0.92032 0.95455 0.0
C152 C 0.56888 0.9367 0.87245 0.0
C153 C 0.53731 0.92745 0.81549 0.0
C154 C 0.50369 0.89986 0.83835 0.0
C155 C 0.50149 0.88292 0.91935 0.0
C156 C 0.54116 0.91104 0.1437 0.0
C157 C 0.52003 0.92734 0.15832 0.0
C158 C 0.53136 0.95634 0.22734 0.0
C159 C 0.56376 0.96901 0.2843 0.0
C160 C 0.58588 0.95401 0.26692 0.0
C161 C 0.57498 0.92561 0.19605 0.0
C162 C 0.53553 0.85221 0.08613 0.0
C163 C 0.56741 0.85333 0.06241 0.0
C164 C 0.57285 0.82404 0.07645 0.0
C165 C 0.54672 0.79306 0.11503 0.0
C166 C 0.51516 0.79228 0.14027 0.0
C167 C 0.50971 0.82165 0.12596 0.0
C168 C 0.56003 0.6541 0.00113 0.0
C169 C 0.58168 0.66855 0.92931 0.0
C170 C 0.57383 0.64768 0.84468 0.0
C171 C 0.54432 0.61147 0.83075 0.0
C172 C 0.52055 0.59811 0.89998 0.0
C173 C 0.52822 0.61948 0.98485 0.0
C174 C 0.57253 0.65139 0.16399 0.0
C175 C 0.54423 0.63687 0.2213 0.0
C176 C 0.54314 0.61316 0.28535 0.0
C177 C 0.56973 0.60304 0.29134 0.0
C178 C 0.59731 0.61643 0.23225 0.0
C179 C 0.59872 0.64064 0.16902 0.0
C180 C 0.56443 0.70179 0.11311 0.0
C181 C 0.59265 0.73714 0.14409 0.0
C182 C 0.58651 0.76658 0.14984 0.0
C183 C 0.5519 0.76115 0.12391 0.0
C184 C 0.52304 0.72521 0.09887 0.0
C185 C 0.52921 0.6957 0.09385 0.0
H186 H 0.94673 0.60307 0.20186 0.0
N187 N 0.89702 0.55354 0.07295 0.0
H188 H 0.96111 0.59457 0.36099 0.0
H189 H 0.86654 0.48845 0.15156 0.0
H190 H 0.8822 0.47909 0.30972 0.0
H191 H 0.87544 0.4837 0.99811 0.0
H192 H 0.90052 0.46733 0.86813 0.0
H193 H 0.93939 0.59763 0.95447 0.0
H194 H 0.96365 0.58112 0.82207 0.0
H195 H 0.89657 0.61541 0.10569 0.0
H196 H 0.82723 0.49954 0.02965 0.0
H197 H 0.84379 0.6224 0.11947 0.0
H198 H 0.77386 0.50621 0.03862 0.0
H199 H 0.70346 0.62957 0.29262 0.0
H200 H 0.68319 0.61859 0.4487 0.0
H201 H 0.60972 0.5046 0.35147 0.0
H202 H 0.62973 0.51602 0.19633 0.0
H203 H 0.64767 0.51373 0.04231 0.0
H204 H 0.60536 0.49512 0.90163 0.0
H205 H 0.6198 0.60366 0.91236 0.0
H206 H 0.66201 0.62228 0.05363 0.0
H207 H 0.74197 0.62836 0.07128 0.0
H208 H 0.79354 0.62106 0.03898 0.0
H209 H 0.74351 0.51743 0.15771 0.0
N210 N 0.68247 0.58156 0.14285 0.0
H211 H 0.69155 0.52407 0.18472 0.0
C212 C 0.90674 0.54629 0.1633 0.0
C213 C 0.93251 0.57594 0.22502 0.0
C214 C 0.94002 0.5711 0.31683 0.0
C215 C 0.92228 0.53616 0.3492 0.0
C216 C 0.89597 0.50641 0.28757 0.0
C217 C 0.88775 0.51155 0.19609 0.0
C218 C 0.90687 0.54216 0.9887 0.0
C219 C 0.89408 0.50514 0.95928 0.0
C220 C 0.90751 0.49565 0.88266 0.0
C221 C 0.93351 0.52288 0.83349 0.0
C222 C 0.94296 0.55947 0.8568 0.0
C223 C 0.9299 0.569 0.934 0.0
C224 C 0.86557 0.55714 0.06641 0.0
C225 C 0.86976 0.59168 0.08962 0.0
C226 C 0.83958 0.59555 0.09707 0.0
C227 C 0.80456 0.56482 0.08048 0.0
C228 C 0.80047 0.53032 0.05344 0.0
C229 C 0.83082 0.52646 0.04712 0.0
C230 C 0.66796 0.57394 0.23215 0.0
C231 C 0.6828 0.6023 0.30514 0.0
C232 C 0.67139 0.59587 0.39449 0.0
C233 C 0.64495 0.56066 0.41335 0.0
C234 C 0.63033 0.53206 0.34013 0.0
C235 C 0.64151 0.53864 0.25053 0.0
C236 C 0.65732 0.56933 0.06003 0.0
C237 C 0.64219 0.53374 0.01394 0.0
C238 C 0.61893 0.5234 0.93177 0.0
C239 C 0.61072 0.54845 0.89382 0.0
C240 C 0.62704 0.58434 0.93786 0.0
C241 C 0.6502 0.59466 0.01991 0.0
C242 C 0.71332 0.57727 0.13176 0.0
C243 C 0.7424 0.60423 0.09062 0.0
C244 C 0.77176 0.59997 0.07237 0.0
C245 C 0.77268 0.56866 0.09591 0.0
C246 C 0.74343 0.5416 0.13733 0.0
C247 C 0.71387 0.54568 0.15437 0.0
H248 H 0.11947 0.62151 0.15292 0.0
N249 N 0.11146 0.67874 0.10192 0.0
H250 H 0.08401 0.57811 0.26123 0.0
H251 H 0.06847 0.68508 0.21577 0.0
H252 H 0.03418 0.64252 0.32793 0.0
H253 H 0.05634 0.67031 0.99122 0.0
H254 H 0.02862 0.62899 0.84801 0.0
H255 H 0.14005 0.64202 0.01119 0.0
H256 H 0.11122 0.59882 0.87044 0.0
H257 H 0.17424 0.68107 0.16483 0.0
H258 H 0.12913 0.74608 0.07198 0.0
H259 H 0.2345 0.73596 0.18995 0.0
H260 H 0.18908 0.80071 0.09305 0.0
H261 H 0.38818 0.8754 0.24872 0.0
H262 H 0.43097 0.90293 0.39048 0.0
H263 H 0.41314 0.99468 0.40281 0.0
H264 H 0.37109 0.96758 0.26096 0.0
H265 H 0.33548 0.93667 0.02676 0.0
H266 H 0.35391 0.94395 0.86858 0.0
H267 H 0.4199 0.89555 0.93108 0.0
H268 H 0.40121 0.88851 0.0888 0.0
H269 H 0.34001 0.83638 0.11273 0.0
H270 H 0.28156 0.7798 0.10528 0.0
H271 H 0.23382 0.84187 0.21261 0.0
N272 N 0.35278 0.90565 0.1592 0.0
H273 H 0.29201 0.89838 0.21506 0.0
C274 C 0.09648 0.65663 0.17652 0.0
C275 C 0.10097 0.62641 0.1905 0.0
C276 C 0.0804 0.60131 0.25127 0.0
C277 C 0.05605 0.60682 0.30053 0.0
C278 C 0.05262 0.63769 0.28931 0.0
C279 C 0.07247 0.66221 0.22692 0.0
C280 C 0.09992 0.65899 0.01126 0.0
C281 C 0.06882 0.65536 0.96381 0.0
C282 C 0.05284 0.63144 0.88323 0.0
C283 C 0.06742 0.61021 0.85006 0.0
C284 C 0.09913 0.61437 0.89631 0.0
C285 C 0.11572 0.6392 0.97583 0.0
C286 C 0.14731 0.70986 0.11747 0.0
C287 C 0.17734 0.70716 0.14984 0.0
C288 C 0.21177 0.73852 0.16359 0.0
C289 C 0.21657 0.77283 0.14446 0.0
C290 C 0.18632 0.775 0.11085 0.0
C291 C 0.1521 0.74384 0.09794 0.0
C292 C 0.37717 0.92005 0.24334 0.0
C293 C 0.39319 0.90122 0.28265 0.0
C294 C 0.4168 0.9164 0.36495 0.0
C295 C 0.42421 0.95022 0.40937 0.0
C296 C 0.40687 0.96798 0.37178 0.0
C297 C 0.38356 0.953 0.28981 0.0
C298 C 0.3672 0.9125 0.06998 0.0
C299 C 0.35423 0.92803 0.00632 0.0
C300 C 0.36456 0.93185 0.91565 0.0
C301 C 0.38838 0.92028 0.88648 0.0
C302 C 0.4015 0.90477 0.9508 0.0
C303 C 0.39108 0.90097 0.04159 0.0
C304 C 0.31991 0.87156 0.16263 0.0
C305 C 0.31694 0.83772 0.13463 0.0
C306 C 0.28357 0.80535 0.13128 0.0
C307 C 0.25287 0.80636 0.15702 0.0
C308 C 0.25667 0.8402 0.18993 0.0
C309 C 0.28984 0.87245 0.1921 0.0
H310 H 0.54326 0.43597 0.18848 0.0
N311 N 0.51417 0.3652 0.2099 0.0
H312 H 0.52406 0.46462 0.07412 0.0
H313 H 0.46009 0.32901 0.06138 0.0
H314 H 0.44156 0.35763 0.9481 0.0
H315 H 0.45032 0.35246 0.27275 0.0
H316 H 0.44336 0.37911 0.41908 0.0
H317 H 0.5656 0.40627 0.34567 0.0
H318 H 0.55905 0.43488 0.49028 0.0
H319 H 0.56163 0.3425 0.20103 0.0
H320 H 0.44734 0.30256 0.20044 0.0
H321 H 0.55041 0.28015 0.20893 0.0
H322 H 0.43556 0.24052 0.20067 0.0
H323 H 0.51487 0.09727 0.20832 0.0
H324 H 0.50734 0.0509 0.08601 0.0
H325 H 0.39494 0.01895 0.0288 0.0
H326 H 0.40214 0.06428 0.15565 0.0
H327 H 0.41321 0.07559 0.37965 0.0
H328 H 0.42155 0.05265 0.5233 0.0
H329 H 0.53654 0.10401 0.49739 0.0
H330 H 0.52766 0.12877 0.35494 0.0
H331 H 0.51589 0.15868 0.16891 0.0
H332 H 0.5277 0.22012 0.1411 0.0
H333 H 0.44081 0.20478 0.30611 0.0
N334 N 0.46223 0.1099 0.26491 0.0
H335 H 0.42785 0.143 0.32673 0.0
C336 C 0.50321 0.38022 0.13567 0.0
C337 C 0.52078 0.41861 0.1367 0.0
C338 C 0.50943 0.43502 0.0725 0.0
C339 C 0.48082 0.4133 0.00386 0.0
C340 C 0.46331 0.37497 0.0017 0.0
C341 C 0.4742 0.35851 0.06702 0.0
C342 C 0.50851 0.37657 0.3 0.0
C343 C 0.47396 0.36891 0.32171 0.0
C344 C 0.47005 0.38455 0.40466 0.0
C345 C 0.50068 0.40889 0.46528 0.0
C346 C 0.53507 0.41614 0.44419 0.0
C347 C 0.53884 0.3997 0.36252 0.0
C348 C 0.50554 0.32746 0.19908 0.0
C349 C 0.53404 0.32014 0.19969 0.0
C350 C 0.5275 0.28441 0.20387 0.0
C351 C 0.49205 0.25509 0.20656 0.0
C352 C 0.46335 0.26237 0.20153 0.0
C353 C 0.47004 0.2981 0.20003 0.0
C354 C 0.459 0.0843 0.19013 0.0
C355 C 0.48842 0.07979 0.17116 0.0
C356 C 0.48397 0.0529 0.10247 0.0
C357 C 0.45036 0.03095 0.05025 0.0
C358 C 0.42086 0.03514 0.06999 0.0
C359 C 0.4251 0.06136 0.14051 0.0
C360 C 0.46958 0.10298 0.35671 0.0
C361 C 0.44027 0.08269 0.40669 0.0
C362 C 0.44524 0.06952 0.48843 0.0
C363 C 0.47969 0.07575 0.52046 0.0
C364 C 0.50961 0.09818 0.47325 0.0
C365 C 0.50461 0.11223 0.39214 0.0
C366 C 0.47068 0.14632 0.24894 0.0
C367 C 0.49925 0.16861 0.19787 0.0
C368 C 0.50611 0.20384 0.18281 0.0
C369 C 0.48495 0.21751 0.22028 0.0
C370 C 0.45699 0.19507 0.2733 0.0
C371 C 0.44974 0.15983 0.28638 0.0
C372 C 0.98304 0.42817 0.93812 0.0
C373 C 0.08458 0.47715 0.87536 0.0
C374 C 0.05072 0.58587 0.76385 0.0
Mg375 Mg 0.01103 0.43385 0.75112 0.0
O376 O 0.00704 0.4753 0.75714 0.0
Mg377 Mg 0.03218 0.51239 0.86603 0.0
Mg378 Mg 0.01263 0.50498 0.65299 0.0
O379 O 0.01822 0.53498 0.54924 0.0
Mg380 Mg 0.00962 0.57375 0.56122 0.0
Mg381 Mg 0.99266 0.49758 0.44071 0.0
C382 C 0.97297 0.42316 0.54443 0.0
C383 C 0.06347 0.49363 0.50627 0.0
O384 O 0.00449 0.46299 0.9572 0.0
O385 O 0.97782 0.41115 0.8577 0.0
O386 O 0.08226 0.50605 0.87223 0.0
O387 O 0.06249 0.44749 0.82435 0.0
O388 O 0.98647 0.41244 0.60888 0.0
O389 O 0.97438 0.45438 0.55258 0.0
C390 C 0.96169 0.51645 0.79927 0.0
O391 O 0.96562 0.51243 0.71228 0.0
O392 O 0.98353 0.51724 0.86372 0.0
O393 O 0.02001 0.54793 0.35245 0.0
O394 O 0.03922 0.59915 0.45115 0.0
O395 O 0.94147 0.50233 0.43415 0.0
C396 C 0.03717 0.5831 0.37143 0.0
O397 O 0.95673 0.55816 0.49643 0.0
O398 O 0.03531 0.59578 0.70224 0.0
C399 C 0.93719 0.53014 0.43772 0.0
O400 O 0.0508 0.55545 0.75376 0.0
O401 O 0.05953 0.49743 0.59335 0.0
O402 O 0.04172 0.49319 0.44209 0.0
C403 C 0.44889 0.0113 0.96214 0.0
C404 C 0.40052 0.92545 0.79098 0.0
C405 C 0.53882 0.94903 0.73846 0.0
Mg406 Mg 0.43857 0.00232 0.75078 0.0
O407 O 0.48336 0.00434 0.77148 0.0
Mg408 Mg 0.48492 0.96677 0.84597 0.0
Mg409 Mg 0.51175 0.0038 0.6682 0.0
O410 O 0.54 0.00282 0.56641 0.0
Mg411 Mg 0.58318 0.00122 0.58505 0.0
Mg412 Mg 0.53901 0.04018 0.49025 0.0
C413 C 0.483 0.05661 0.59884 0.0
C414 C 0.45766 0.97263 0.47158 0.0
O415 O 0.46224 0.98988 0.96012 0.0
O416 O 0.43967 0.02147 0.88905 0.0
O417 O 0.42895 0.92423 0.77752 0.0
O418 O 0.39401 0.94621 0.74288 0.0
O419 O 0.45477 0.03962 0.64289 0.0
O420 O 0.51091 0.05271 0.61143 0.0
C421 C 0.56563 0.03575 0.86518 0.0
O422 O 0.5626 0.03999 0.7781 0.0
O423 O 0.54027 0.01023 0.90337 0.0
O424 O 0.55963 0.01504 0.37629 0.0
O425 O 0.57813 0.97981 0.44559 0.0
O426 O 0.59639 0.08144 0.55524 0.0
C427 C 0.56968 0.99089 0.3729 0.0
O428 O 0.62915 0.05612 0.58539 0.0
O429 O 0.56793 0.96461 0.69697 0.0
C430 C 0.62413 0.07876 0.54133 0.0
O431 O 0.51266 0.95531 0.72384 0.0
O432 O 0.46071 0.96753 0.55799 0.0
O433 O 0.48322 0.99828 0.43435 0.0
C434 C 0.57187 0.58448 0.37078 0.0
C435 C 0.63062 0.55436 0.50632 0.0
C436 C 0.49724 0.42816 0.548 0.0
Mg437 Mg 0.58578 0.58491 0.57717 0.0
O438 O 0.54398 0.53931 0.55064 0.0
Mg439 Mg 0.54608 0.50375 0.4584 0.0
Mg440 Mg 0.51858 0.50795 0.64827 0.0
O441 O 0.49339 0.47619 0.74422 0.0
Mg442 Mg 0.45368 0.42875 0.72045 0.0
Mg443 Mg 0.49302 0.51069 0.84264 0.0
C444 C 0.54143 0.58797 0.74742 0.0
C445 C 0.57616 0.5344 0.83707 0.0
O446 O 0.56506 0.55108 0.35906 0.0
O447 O 0.5775 0.60211 0.45054 0.0
O448 O 0.60387 0.52298 0.5159 0.0
O449 O 0.63426 0.58207 0.55664 0.0
O450 O 0.56862 0.60163 0.69882 0.0
O451 O 0.51534 0.55435 0.73148 0.0
C452 C 0.46312 0.48331 0.45529 0.0
O453 O 0.46581 0.48904 0.545 0.0
O454 O 0.48944 0.48684 0.41136 0.0
O455 O 0.4792 0.46308 0.93859 0.0
O456 O 0.46602 0.41232 0.84506 0.0
O457 O 0.43296 0.48959 0.80049 0.0
C458 C 0.47347 0.43004 0.92569 0.0
O459 O 0.40595 0.42975 0.75912 0.0
O460 O 0.46885 0.41158 0.59184 0.0
C461 C 0.40651 0.45717 0.80351 0.0
O462 O 0.52169 0.46187 0.56961 0.0
O463 O 0.5722 0.52736 0.74784 0.0
O464 O 0.55027 0.53024 0.88311 0.0
loop_
_geom_bond_atom_site_label_1
_geom_bond_atom_site_label_2
_geom_bond_distance
_geom_bond_site_symmetry_2
_ccdc_geom_bond_type
H0 C27 0.929 . S
N1 C26 1.433 . S
N1 C32 1.435 . S
N1 C38 1.423 . S
H2 C28 0.930 . S
H3 C31 0.931 . S
H4 C30 0.929 . S
H5 C33 0.930 . S
H6 C34 0.932 . S
H7 C37 0.929 . S
H8 C36 0.931 1_556 S
H9 C39 0.929 . S
H10 C43 0.932 . S
H11 C40 0.931 . S
H12 C42 0.929 . S
H13 C45 0.929 . S
H14 C46 0.930 . S
H15 C48 0.929 . S
H16 C49 0.931 . S
H17 C51 0.930 . S
H18 C52 0.932 . S
H19 C54 0.931 . S
H20 C55 0.929 . S
H21 C57 0.929 . S
H22 C58 0.931 . S
H23 C60 0.929 . S
N24 C44 1.433 . S
N24 C50 1.435 . S
N24 C56 1.423 . S
H25 C61 0.932 . S
C26 N1 1.433 . S
C26 C27 1.363 . S
C26 C31 1.370 . S
C27 H0 0.929 . S
C27 C26 1.363 . S
C27 C28 1.385 . S
C28 H2 0.930 . S
C28 C27 1.385 . S
C28 C29 1.357 . S
C29 C28 1.357 . S
C29 C30 1.406 . S
C30 H4 0.929 . S
C30 C29 1.406 . S
C30 C31 1.391 . S
C31 H3 0.931 . S
C31 C26 1.370 . S
C31 C30 1.391 . S
C32 N1 1.435 . S
C32 C33 1.358 . S
C32 C37 1.371 . S
C33 H5 0.930 . S
C33 C32 1.358 . S
C33 C34 1.405 . S
C34 H6 0.932 . S
C34 C33 1.405 . S
C34 C35 1.383 . S
C35 C34 1.383 . S
C35 C36 1.393 . S
C36 H8 0.931 1_554 S
C36 C35 1.393 . S
C36 C37 1.382 . S
C37 H7 0.929 . S
C37 C32 1.371 . S
C37 C36 1.382 . S
C38 N1 1.423 . S
C38 C39 1.362 . S
C38 C43 1.388 . S
C39 H9 0.929 . S
C39 C38 1.362 . S
C39 C40 1.376 . S
C40 H11 0.931 . S
C40 C39 1.376 . S
C40 C41 1.396 . S
C41 C40 1.396 . S
C41 C42 1.348 . S
C41 C59 1.472 . S
C42 H12 0.929 . S
C42 C41 1.348 . S
C42 C43 1.443 . S
C43 H10 0.932 . S
C43 C38 1.388 . S
C43 C42 1.443 . S
C44 N24 1.433 . S
C44 C45 1.363 . S
C44 C49 1.370 . S
C45 H13 0.929 . S
C45 C44 1.363 . S
C45 C46 1.385 . S
C46 H14 0.930 . S
C46 C45 1.385 . S
C46 C47 1.357 . S
C47 C46 1.357 . S
C47 C48 1.406 . S
C48 H15 0.929 . S
C48 C47 1.406 . S
C48 C49 1.391 . S
C49 H16 0.931 . S
C49 C44 1.370 . S
C49 C48 1.391 . S
C50 N24 1.435 . S
C50 C51 1.358 . S
C50 C55 1.371 . S
C51 H17 0.930 . S
C51 C50 1.358 . S
C51 C52 1.405 . S
C52 H18 0.932 . S
C52 C51 1.405 . S
C52 C53 1.383 1_554 S
C53 C52 1.383 1_556 S
C53 C54 1.393 . S
C54 H19 0.931 . S
C54 C53 1.393 . S
C54 C55 1.382 1_556 S
C55 H20 0.929 . S
C55 C50 1.371 . S
C55 C54 1.382 1_554 S
C56 N24 1.423 . S
C56 C57 1.362 . S
C56 C61 1.388 . S
C57 H21 0.929 . S
C57 C56 1.362 . S
C57 C58 1.376 . S
C58 H22 0.931 . S
C58 C57 1.376 . S
C58 C59 1.396 . S
C59 C41 1.472 . S
C59 C58 1.396 . S
C59 C60 1.348 . S
C60 H23 0.929 . S
C60 C59 1.348 . S
C60 C61 1.443 . S
C61 H25 0.932 . S
C61 C56 1.388 . S
C61 C60 1.443 . S
H62 C89 0.929 . S
N63 C88 1.433 . S
N63 C94 1.435 . S
N63 C100 1.423 . S
H64 C90 0.930 . S
H65 C93 0.931 . S
H66 C92 0.929 . S
H67 C95 0.930 . S
H68 C96 0.932 . S
H69 C99 0.929 . S
H70 C98 0.931 . S
H71 C101 0.929 . S
H72 C105 0.932 . S
H73 C102 0.931 . S
H74 C104 0.929 . S
H75 C107 0.929 . S
H76 C108 0.930 1_455 S
H77 C110 0.929 . S
H78 C111 0.931 . S
H79 C113 0.930 . S
H80 C114 0.932 . S
H81 C116 0.931 . S
H82 C117 0.929 . S
H83 C119 0.929 . S
H84 C120 0.931 . S
H85 C122 0.929 . S
N86 C106 1.433 . S
N86 C112 1.435 . S
N86 C118 1.423 . S
H87 C123 0.932 . S
C88 N63 1.433 . S
C88 C89 1.363 . S
C88 C93 1.370 . S
C89 H62 0.929 . S
C89 C88 1.363 . S
C89 C90 1.385 . S
C90 H64 0.930 . S
C90 C89 1.385 . S
C90 C91 1.357 . S
C91 C90 1.357 . S
C91 C92 1.406 . S
C92 H66 0.929 . S
C92 C91 1.406 . S
C92 C93 1.391 . S
C93 H65 0.931 . S
C93 C88 1.370 . S
C93 C92 1.391 . S
C94 N63 1.435 . S
C94 C95 1.358 . S
C94 C99 1.371 . S
C95 H67 0.930 . S
C95 C94 1.358 . S
C95 C96 1.405 . S
C96 H68 0.932 . S
C96 C95 1.405 . S
C96 C97 1.383 1_554 S
C97 C96 1.383 1_556 S
C97 C98 1.393 . S
C98 H70 0.931 . S
C98 C97 1.393 . S
C98 C99 1.382 1_556 S
C99 H69 0.929 . S
C99 C94 1.371 . S
C99 C98 1.382 1_554 S
C100 N63 1.423 . S
C100 C101 1.362 . S
C100 C105 1.388 . S
C101 H71 0.929 . S
C101 C100 1.362 . S
C101 C102 1.376 . S
C102 H73 0.931 . S
C102 C101 1.376 . S
C102 C103 1.396 . S
C103 C102 1.396 . S
C103 C104 1.348 . S
C103 C121 1.472 . S
C104 H74 0.929 . S
C104 C103 1.348 . S
C104 C105 1.443 . S
C105 H72 0.932 . S
C105 C100 1.388 . S
C105 C104 1.443 . S
C106 N86 1.433 . S
C106 C107 1.363 . S
C106 C111 1.370 . S
C107 H75 0.929 . S
C107 C106 1.363 . S
C107 C108 1.385 . S
C108 H76 0.930 1_655 S
C108 C107 1.385 . S
C108 C109 1.357 . S
C109 C108 1.357 . S
C109 C110 1.406 . S
C110 H77 0.929 . S
C110 C109 1.406 . S
C110 C111 1.391 . S
C111 H78 0.931 . S
C111 C106 1.370 . S
C111 C110 1.391 . S
C112 N86 1.435 . S
C112 C113 1.358 . S
C112 C117 1.371 . S
C113 H79 0.930 . S
C113 C112 1.358 . S
C113 C114 1.405 . S
C114 H80 0.932 . S
C114 C113 1.405 . S
C114 C115 1.383 1_554 S
C115 C114 1.383 1_556 S
C115 C116 1.393 . S
C116 H81 0.931 . S
C116 C115 1.393 . S
C116 C117 1.382 1_556 S
C117 H82 0.929 . S
C117 C112 1.371 . S
C117 C116 1.382 1_554 S
C118 N86 1.423 . S
C118 C119 1.362 . S
C118 C123 1.388 . S
C119 H83 0.929 . S
C119 C118 1.362 . S
C119 C120 1.376 . S
C120 H84 0.931 . S
C120 C119 1.376 . S
C120 C121 1.396 . S
C121 C103 1.472 . S
C121 C120 1.396 . S
C121 C122 1.348 . S
C122 H85 0.929 . S
C122 C121 1.348 . S
C122 C123 1.443 . S
C123 H87 0.932 . S
C123 C118 1.388 . S
C123 C122 1.443 . S
H124 C151 0.929 . S
N125 C150 1.433 1_554 S
N125 C156 1.435 . S
N125 C162 1.423 . S
H126 C152 0.930 . S
H127 C155 0.931 . S
H128 C154 0.929 . S
H129 C157 0.930 . S
H130 C158 0.932 . S
H131 C161 0.929 . S
H132 C160 0.931 . S
H133 C163 0.929 1_556 S
H134 C167 0.932 . S
H135 C164 0.931 1_556 S
H136 C166 0.929 . S
H137 C169 0.929 . S
H138 C170 0.930 . S
H139 C172 0.929 . S
H140 C173 0.931 . S
H141 C175 0.930 . S
H142 C176 0.932 . S
H143 C178 0.931 . S
H144 C179 0.929 . S
H145 C181 0.931 . S
H146 C182 0.931 1_556 S
H147 C184 0.929 . S
N148 C168 1.433 1_554 S
N148 C174 1.435 . S
N148 C180 1.423 . S
H149 C185 0.932 . S
C150 N125 1.433 1_556 S
C150 C151 1.363 . S
C150 C155 1.370 . S
C151 H124 0.929 . S
C151 C150 1.363 . S
C151 C152 1.385 . S
C152 H126 0.930 . S
C152 C151 1.385 . S
C152 C153 1.357 . S
C153 C152 1.357 . S
C153 C154 1.406 . S
C154 H128 0.929 . S
C154 C153 1.406 . S
C154 C155 1.391 . S
C155 H127 0.931 . S
C155 C150 1.370 . S
C155 C154 1.391 . S
C156 N125 1.435 . S
C156 C157 1.358 . S
C156 C161 1.371 . S
C157 H129 0.930 . S
C157 C156 1.358 . S
C157 C158 1.405 . S
C158 H130 0.932 . S
C158 C157 1.405 . S
C158 C159 1.383 . S
C159 C158 1.383 . S
C159 C160 1.393 . S
C160 H132 0.931 . S
C160 C159 1.393 . S
C160 C161 1.382 . S
C161 H131 0.929 . S
C161 C156 1.371 . S
C161 C160 1.382 . S
C162 N125 1.423 . S
C162 C163 1.362 . S
C162 C167 1.388 . S
C163 H133 0.929 1_554 S
C163 C162 1.362 . S
C163 C164 1.376 . S
C164 H135 0.931 1_554 S
C164 C163 1.376 . S
C164 C165 1.396 . S
C165 C164 1.396 . S
C165 C166 1.348 . S
C165 C183 1.472 . S
C166 H136 0.929 . S
C166 C165 1.348 . S
C166 C167 1.443 . S
C167 H134 0.932 . S
C167 C162 1.388 . S
C167 C166 1.443 . S
C168 N148 1.433 1_556 S
C168 C169 1.363 . S
C168 C173 1.370 . S
C169 H137 0.929 . S
C169 C168 1.363 . S
C169 C170 1.385 . S
C170 H138 0.930 . S
C170 C169 1.385 . S
C170 C171 1.357 . S
C171 C170 1.357 . S
C171 C172 1.406 . S
C172 H139 0.929 . S
C172 C171 1.406 . S
C172 C173 1.391 . S
C173 H140 0.931 . S
C173 C168 1.370 . S
C173 C172 1.391 . S
C174 N148 1.435 . S
C174 C175 1.358 . S
C174 C179 1.371 . S
C175 H141 0.930 . S
C175 C174 1.358 . S
C175 C176 1.405 . S
C176 H142 0.932 . S
C176 C175 1.405 . S
C176 C177 1.383 . S
C177 C176 1.383 . S
C177 C178 1.393 . S
C178 H143 0.931 . S
C178 C177 1.393 . S
C178 C179 1.382 . S
C179 H144 0.929 . S
C179 C174 1.371 . S
C179 C178 1.382 . S
C180 N148 1.423 . S
C180 C181 1.360 1_554 S
C180 C185 1.388 . S
C181 H145 0.931 . S
C181 C180 1.360 1_556 S
C181 C182 1.376 1_556 S
C182 H146 0.931 1_554 S
C182 C181 1.376 1_554 S
C182 C183 1.396 . S
C183 C165 1.472 . S
C183 C182 1.396 . S
C183 C184 1.348 . S
C184 H147 0.929 . S
C184 C183 1.348 . S
C184 C185 1.443 . S
C185 H149 0.932 . S
C185 C180 1.388 . S
C185 C184 1.443 . S
H186 C213 0.929 . S
N187 C212 1.433 . S
N187 C218 1.435 . S
N187 C224 1.423 . S
H188 C214 0.930 . S
H189 C217 0.931 . S
H190 C216 0.929 . S
H191 C219 0.930 . S
H192 C220 0.932 . S
H193 C223 0.929 . S
H194 C222 0.931 . S
H195 C225 0.929 . S
H196 C229 0.932 1_556 S
H197 C226 0.931 . S
H198 C228 0.929 1_556 S
H199 C231 0.929 . S
H200 C232 0.930 . S
H201 C234 0.929 . S
H202 C235 0.931 . S
H203 C237 0.930 . S
H204 C238 0.932 . S
H205 C240 0.931 . S
H206 C241 0.929 . S
H207 C243 0.929 . S
H208 C244 0.931 . S
H209 C246 0.929 1_556 S
N210 C230 1.433 . S
N210 C236 1.435 . S
N210 C242 1.423 . S
H211 C247 0.932 1_556 S
C212 N187 1.433 . S
C212 C213 1.363 . S
C212 C217 1.370 . S
C213 H186 0.929 . S
C213 C212 1.363 . S
C213 C214 1.385 . S
C214 H188 0.930 . S
C214 C213 1.385 . S
C214 C215 1.357 . S
C215 C214 1.357 . S
C215 C216 1.406 . S
C216 H190 0.929 . S
C216 C215 1.406 . S
C216 C217 1.391 . S
C217 H189 0.931 . S
C217 C212 1.370 . S
C217 C216 1.391 . S
C218 N187 1.435 . S
C218 C219 1.358 . S
C218 C223 1.371 1_554 S
C219 H191 0.930 . S
C219 C218 1.358 . S
C219 C220 1.405 1_554 S
C220 H192 0.932 . S
C220 C219 1.405 1_556 S
C220 C221 1.383 . S
C221 C220 1.383 . S
C221 C222 1.393 . S
C222 H194 0.931 . S
C222 C221 1.393 . S
C222 C223 1.382 . S
C223 H193 0.929 . S
C223 C218 1.371 1_556 S
C223 C222 1.382 . S
C224 N187 1.423 . S
C224 C225 1.362 . S
C224 C229 1.388 . S
C225 H195 0.929 . S
C225 C224 1.362 . S
C225 C226 1.376 . S
C226 H197 0.931 . S
C226 C225 1.376 . S
C226 C227 1.396 . S
C227 C226 1.396 . S
C227 C228 1.348 . S
C227 C245 1.472 . S
C228 H198 0.929 1_554 S
C228 C227 1.348 . S
C228 C229 1.443 . S
C229 H196 0.932 1_554 S
C229 C224 1.388 . S
C229 C228 1.443 . S
C230 N210 1.433 . S
C230 C231 1.363 . S
C230 C235 1.370 . S
C231 H199 0.929 . S
C231 C230 1.363 . S
C231 C232 1.385 . S
C232 H200 0.930 . S
C232 C231 1.385 . S
C232 C233 1.357 . S
C233 C232 1.357 . S
C233 C234 1.406 . S
C234 H201 0.929 . S
C234 C233 1.406 . S
C234 C235 1.391 . S
C235 H202 0.931 . S
C235 C230 1.370 . S
C235 C234 1.391 . S
C236 N210 1.435 . S
C236 C237 1.358 . S
C236 C241 1.371 1_554 S
C237 H203 0.930 . S
C237 C236 1.358 . S
C237 C238 1.405 1_554 S
C238 H204 0.932 . S
C238 C237 1.405 1_556 S
C238 C239 1.383 . S
C239 C238 1.383 . S
C239 C240 1.393 . S
C240 H205 0.931 . S
C240 C239 1.393 . S
C240 C241 1.382 . S
C241 H206 0.929 . S
C241 C236 1.371 1_556 S
C241 C240 1.382 . S
C242 N210 1.423 . S
C242 C243 1.362 . S
C242 C247 1.388 . S
C243 H207 0.929 . S
C243 C242 1.362 . S
C243 C244 1.376 . S
C244 H208 0.931 . S
C244 C243 1.376 . S
C244 C245 1.396 . S
C245 C227 1.472 . S
C245 C244 1.396 . S
C245 C246 1.348 . S
C246 H209 0.929 1_554 S
C246 C245 1.348 . S
C246 C247 1.443 . S
C247 H211 0.932 1_554 S
C247 C242 1.388 . S
C247 C246 1.443 . S
H248 C275 0.929 . S
N249 C274 1.433 . S
N249 C280 1.435 . S
N249 C286 1.423 . S
H250 C276 0.930 . S
H251 C279 0.931 . S
H252 C278 0.929 . S
H253 C281 0.930 . S
H254 C282 0.932 . S
H255 C285 0.929 . S
H256 C284 0.931 . S
H257 C287 0.929 . S
H258 C291 0.932 . S
H259 C288 0.931 . S
H260 C290 0.929 1_556 S
H261 C293 0.929 . S
H262 C294 0.930 . S
H263 C296 0.929 . S
H264 C297 0.931 . S
H265 C299 0.930 . S
H266 C300 0.932 . S
H267 C302 0.931 . S
H268 C303 0.929 . S
H269 C305 0.929 . S
H270 C306 0.931 . S
H271 C308 0.932 . S
N272 C292 1.433 . S
N272 C298 1.435 . S
N272 C304 1.423 . S
H273 C309 0.932 . S
C274 N249 1.433 . S
C274 C275 1.363 . S
C274 C279 1.370 . S
C275 H248 0.929 . S
C275 C274 1.363 . S
C275 C276 1.385 . S
C276 H250 0.930 . S
C276 C275 1.385 . S
C276 C277 1.357 . S
C277 C276 1.357 . S
C277 C278 1.406 . S
C278 H252 0.929 . S
C278 C277 1.406 . S
C278 C279 1.391 . S
C279 H251 0.931 . S
C279 C274 1.370 . S
C279 C278 1.391 . S
C280 N249 1.435 . S
C280 C281 1.358 . S
C280 C285 1.371 1_554 S
C281 H253 0.930 . S
C281 C280 1.358 . S
C281 C282 1.405 1_554 S
C282 H254 0.932 . S
C282 C281 1.405 1_556 S
C282 C283 1.383 . S
C283 C282 1.383 . S
C283 C284 1.393 . S
C284 H256 0.931 . S
C284 C283 1.393 . S
C284 C285 1.382 . S
C285 H255 0.929 . S
C285 C280 1.371 1_556 S
C285 C284 1.382 . S
C286 N249 1.423 . S
C286 C287 1.362 . S
C286 C291 1.388 . S
C287 H257 0.929 . S
C287 C286 1.362 . S
C287 C288 1.376 . S
C288 H259 0.931 . S
C288 C287 1.376 . S
C288 C289 1.396 . S
C289 C288 1.396 . S
C289 C290 1.348 . S
C289 C307 1.472 . S
C290 H260 0.929 1_554 S
C290 C289 1.348 . S
C290 C291 1.443 . S
C291 H258 0.932 . S
C291 C286 1.388 . S
C291 C290 1.443 . S
C292 N272 1.433 . S
C292 C293 1.363 . S
C292 C297 1.370 . S
C293 H261 0.929 . S
C293 C292 1.363 . S
C293 C294 1.385 . S
C294 H262 0.930 . S
C294 C293 1.385 . S
C294 C295 1.357 . S
C295 C294 1.357 . S
C295 C296 1.406 . S
C296 H263 0.929 . S
C296 C295 1.406 . S
C296 C297 1.391 . S
C297 H264 0.931 . S
C297 C292 1.370 . S
C297 C296 1.391 . S
C298 N272 1.435 . S
C298 C299 1.358 . S
C298 C303 1.371 1_554 S
C299 H265 0.930 . S
C299 C298 1.358 . S
C299 C300 1.405 . S
C300 H266 0.932 . S
C300 C299 1.405 . S
C300 C301 1.383 1_554 S
C301 C300 1.383 1_556 S
C301 C302 1.393 . S
C302 H267 0.931 . S
C302 C301 1.393 . S
C302 C303 1.382 . S
C303 H268 0.929 . S
C303 C298 1.371 1_556 S
C303 C302 1.382 . S
C304 N272 1.423 . S
C304 C305 1.362 . S
C304 C309 1.388 . S
C305 H269 0.929 . S
C305 C304 1.362 . S
C305 C306 1.376 . S
C306 H270 0.931 . S
C306 C305 1.376 . S
C306 C307 1.396 . S
C307 C289 1.472 . S
C307 C306 1.396 . S
C307 C308 1.348 . S
C308 H271 0.932 . S
C308 C307 1.348 . S
C308 C309 1.443 . S
C309 H273 0.932 . S
C309 C304 1.388 . S
C309 C308 1.443 . S
H310 C337 0.929 . S
N311 C336 1.433 . S
N311 C342 1.435 . S
N311 C348 1.423 . S
H312 C338 0.930 . S
H313 C341 0.931 . S
H314 C340 0.929 1_556 S
H315 C343 0.930 . S
H316 C344 0.932 . S
H317 C347 0.929 . S
H318 C346 0.931 . S
H319 C349 0.929 . S
H320 C353 0.932 . S
H321 C350 0.931 . S
H322 C352 0.929 . S
H323 C355 0.929 . S
H324 C356 0.930 . S
H325 C358 0.929 1_556 S
H326 C359 0.931 . S
H327 C361 0.930 . S
H328 C362 0.932 . S
H329 C364 0.931 . S
H330 C365 0.929 . S
H331 C367 0.929 . S
H332 C368 0.931 . S
H333 C370 0.929 . S
N334 C354 1.433 . S
N334 C360 1.435 . S
N334 C366 1.423 . S
H335 C371 0.932 . S
C336 N311 1.433 . S
C336 C337 1.363 . S
C336 C341 1.370 . S
C337 H310 0.929 . S
C337 C336 1.363 . S
C337 C338 1.385 . S
C338 H312 0.930 . S
C338 C337 1.385 . S
C338 C339 1.357 . S
C339 C338 1.357 . S
C339 C340 1.406 . S
C340 H314 0.929 1_554 S
C340 C339 1.406 . S
C340 C341 1.391 . S
C341 H313 0.931 . S
C341 C336 1.370 . S
C341 C340 1.391 . S
C342 N311 1.435 . S
C342 C343 1.358 . S
C342 C347 1.371 . S
C343 H315 0.930 . S
C343 C342 1.358 . S
C343 C344 1.405 . S
C344 H316 0.932 . S
C344 C343 1.405 . S
C344 C345 1.383 . S
C345 C344 1.383 . S
C345 C346 1.393 . S
C346 H318 0.931 . S
C346 C345 1.393 . S
C346 C347 1.382 . S
C347 H317 0.929 . S
C347 C342 1.371 . S
C347 C346 1.382 . S
C348 N311 1.423 . S
C348 C349 1.362 . S
C348 C353 1.388 . S
C349 H319 0.929 . S
C349 C348 1.362 . S
C349 C350 1.376 . S
C350 H321 0.931 . S
C350 C349 1.376 . S
C350 C351 1.396 . S
C351 C350 1.396 . S
C351 C352 1.348 . S
C351 C369 1.472 . S
C352 H322 0.929 . S
C352 C351 1.348 . S
C352 C353 1.443 . S
C353 H320 0.932 . S
C353 C348 1.388 . S
C353 C352 1.443 . S
C354 N334 1.433 . S
C354 C355 1.363 . S
C354 C359 1.370 . S
C355 H323 0.929 . S
C355 C354 1.363 . S
C355 C356 1.385 . S
C356 H324 0.930 . S
C356 C355 1.385 . S
C356 C357 1.357 1_554 S
C357 C356 1.357 1_556 S
C357 C358 1.406 1_556 S
C358 H325 0.929 1_554 S
C358 C357 1.406 1_554 S
C358 C359 1.391 . S
C359 H326 0.931 . S
C359 C354 1.370 . S
C359 C358 1.391 . S
C360 N334 1.435 . S
C360 C361 1.358 . S
C360 C365 1.371 . S
C361 H327 0.930 . S
C361 C360 1.358 . S
C361 C362 1.405 . S
C362 H328 0.932 . S
C362 C361 1.405 . S
C362 C363 1.383 . S
C363 C362 1.383 . S
C363 C364 1.393 . S
C364 H329 0.931 . S
C364 C363 1.393 . S
C364 C365 1.382 . S
C365 H330 0.929 . S
C365 C360 1.371 . S
C365 C364 1.382 . S
C366 N334 1.423 . S
C366 C367 1.362 . S
C366 C371 1.388 . S
C367 H331 0.929 . S
C367 C366 1.362 . S
C367 C368 1.376 . S
C368 H332 0.931 . S
C368 C367 1.376 . S
C368 C369 1.396 . S
C369 C351 1.472 . S
C369 C368 1.396 . S
C369 C370 1.348 . S
C370 H333 0.929 . S
C370 C369 1.348 . S
C370 C371 1.443 . S
C371 H335 0.932 . S
C371 C366 1.388 . S
C371 C370 1.443 . S
C372 O384 1.241 . S
C372 O385 1.280 . S
C373 O386 1.277 . S
C373 O387 1.245 . S
C374 O398 1.247 . S
C374 O400 1.289 . S
Mg375 O376 1.924 . S
Mg375 O385 1.984 . S
Mg375 O387 1.988 1_655 S
Mg375 O388 2.061 . S
O376 Mg375 1.924 . S
O376 Mg377 1.987 1_655 S
O376 Mg378 1.917 1_655 S
Mg377 O376 1.987 1_455 S
Mg377 O384 2.042 1_455 S
Mg377 O386 2.041 . S
Mg377 O392 2.038 1_455 S
Mg377 O400 2.238 . S
Mg378 O376 1.917 1_455 S
Mg378 O379 1.917 . S
Mg378 O389 2.106 1_455 S
Mg378 O391 2.079 1_455 S
Mg378 O400 2.106 . S
Mg378 O401 2.079 . S
O379 Mg378 1.917 . S
O379 Mg380 1.926 . S
O379 Mg381 1.986 . S
Mg380 O379 1.926 . S
Mg380 O394 1.984 . S
Mg380 O397 1.988 1_455 S
Mg380 O398 2.061 . S
Mg381 O379 1.986 . S
Mg381 O389 2.238 1_455 S
Mg381 O393 2.042 . S
Mg381 O395 2.041 1_455 S
Mg381 O402 2.038 . S
C382 O388 1.247 . S
C382 O389 1.289 . S
C383 O401 1.245 . S
C383 O402 1.274 . S
O384 C372 1.241 . S
O384 Mg377 2.042 1_655 S
O385 C372 1.280 . S
O385 Mg375 1.984 . S
O386 C373 1.277 . S
O386 Mg377 2.041 . S
O387 C373 1.245 . S
O387 Mg375 1.988 1_455 S
O388 Mg375 2.061 . S
O388 C382 1.247 . S
O389 Mg378 2.106 1_655 S
O389 Mg381 2.238 1_655 S
O389 C382 1.289 . S
C390 O391 1.245 . S
C390 O392 1.274 . S
O391 Mg378 2.079 1_655 S
O391 C390 1.245 . S
O392 Mg377 2.038 1_655 S
O392 C390 1.274 . S
O393 Mg381 2.042 . S
O393 C396 1.241 . S
O394 Mg380 1.984 . S
O394 C396 1.280 . S
O395 Mg381 2.041 1_655 S
O395 C399 1.277 . S
C396 O393 1.241 . S
C396 O394 1.280 . S
O397 Mg380 1.988 1_655 S
O397 C399 1.245 . S
O398 C374 1.247 . S
O398 Mg380 2.061 . S
C399 O395 1.277 . S
C399 O397 1.245 . S
O400 C374 1.289 . S
O400 Mg377 2.238 . S
O400 Mg378 2.106 . S
O401 Mg378 2.079 . S
O401 C383 1.245 . S
O402 Mg381 2.038 . S
O402 C383 1.274 . S
C403 O415 1.241 . S
C403 O416 1.280 . S
C404 O417 1.277 . S
C404 O418 1.245 . S
C405 O429 1.247 . S
C405 O431 1.289 . S
Mg406 O407 1.926 . S
Mg406 O416 1.984 . S
Mg406 O418 1.988 1_545 S
Mg406 O419 2.061 . S
O407 Mg406 1.926 . S
O407 Mg408 1.986 . S
O407 Mg409 1.917 . S
Mg408 O407 1.986 . S
Mg408 O415 2.042 . S
Mg408 O417 2.041 1_545 S
Mg408 O423 2.038 . S
Mg408 O431 2.238 1_545 S
Mg409 O407 1.917 . S
Mg409 O410 1.917 1_545 S
Mg409 O420 2.106 . S
Mg409 O422 2.079 . S
Mg409 O431 2.106 1_545 S
Mg409 O432 2.079 1_545 S
O410 Mg409 1.917 1_565 S
O410 Mg411 1.926 . S
O410 Mg412 1.986 1_565 S
Mg411 O410 1.926 . S
Mg411 O425 1.984 . S
Mg411 O428 1.988 1_565 S
Mg411 O429 2.061 . S
Mg412 O410 1.986 1_545 S
Mg412 O420 2.238 . S
Mg412 O424 2.042 1_545 S
Mg412 O426 2.041 . S
Mg412 O433 2.038 1_545 S
C413 O419 1.247 . S
C413 O420 1.289 . S
C414 O432 1.245 . S
C414 O433 1.274 . S
O415 C403 1.241 . S
O415 Mg408 2.042 . S
O416 C403 1.280 . S
O416 Mg406 1.984 . S
O417 C404 1.277 . S
O417 Mg408 2.041 1_565 S
O418 C404 1.245 . S
O418 Mg406 1.988 1_565 S
O419 Mg406 2.061 . S
O419 C413 1.247 . S
O420 Mg409 2.106 . S
O420 Mg412 2.238 . S
O420 C413 1.289 . S
C421 O422 1.245 . S
C421 O423 1.274 . S
O422 Mg409 2.079 . S
O422 C421 1.245 . S
O423 Mg408 2.038 . S
O423 C421 1.274 . S
O424 Mg412 2.042 1_565 S
O424 C427 1.241 . S
O425 Mg411 1.984 . S
O425 C427 1.280 . S
O426 Mg412 2.041 . S
O426 C430 1.277 . S
C427 O424 1.241 . S
C427 O425 1.280 . S
O428 Mg411 1.988 1_545 S
O428 C430 1.245 . S
O429 C405 1.247 . S
O429 Mg411 2.061 . S
C430 O426 1.277 . S
C430 O428 1.245 . S
O431 C405 1.289 . S
O431 Mg408 2.238 1_565 S
O431 Mg409 2.106 1_565 S
O432 Mg409 2.079 1_565 S
O432 C414 1.245 . S
O433 Mg412 2.038 1_565 S
O433 C414 1.274 . S
C434 O446 1.241 . S
C434 O447 1.280 . S
C435 O448 1.277 . S
C435 O449 1.245 . S
C436 O460 1.247 . S
C436 O462 1.289 . S
Mg437 O438 1.926 . S
Mg437 O447 1.984 . S
Mg437 O449 1.988 . S
Mg437 O450 2.061 . S
O438 Mg437 1.926 . S
O438 Mg439 1.986 . S
O438 Mg440 1.917 . S
Mg439 O438 1.986 . S
Mg439 O446 2.042 . S
Mg439 O448 2.041 . S
Mg439 O454 2.038 . S
Mg439 O462 2.238 . S
Mg440 O438 1.917 . S
Mg440 O441 1.917 . S
Mg440 O451 2.106 . S
Mg440 O453 2.079 . S
Mg440 O462 2.106 . S
Mg440 O463 2.079 . S
O441 Mg440 1.917 . S
O441 Mg442 1.926 . S
O441 Mg443 1.986 . S
Mg442 O441 1.926 . S
Mg442 O456 1.984 . S
Mg442 O459 1.988 . S
Mg442 O460 2.061 . S
Mg443 O441 1.986 . S
Mg443 O451 2.238 . S
Mg443 O455 2.042 . S
Mg443 O457 2.041 . S
Mg443 O464 2.038 . S
C444 O450 1.247 . S
C444 O451 1.289 . S
C445 O463 1.245 . S
C445 O464 1.274 . S
O446 C434 1.241 . S
O446 Mg439 2.042 . S
O447 C434 1.280 . S
O447 Mg437 1.984 . S
O448 C435 1.277 . S
O448 Mg439 2.041 . S
O449 C435 1.245 . S
O449 Mg437 1.988 . S
O450 Mg437 2.061 . S
O450 C444 1.247 . S
O451 Mg440 2.106 . S
O451 Mg443 2.238 . S
O451 C444 1.289 . S
C452 O453 1.245 . S
C452 O454 1.274 . S
O453 Mg440 2.079 . S
O453 C452 1.245 . S
O454 Mg439 2.038 . S
O454 C452 1.274 . S
O455 Mg443 2.042 . S
O455 C458 1.241 . S
O456 Mg442 1.984 . S
O456 C458 1.280 . S
O457 Mg443 2.041 . S
O457 C461 1.277 . S
C458 O455 1.241 . S
C458 O456 1.280 . S
O459 Mg442 1.988 . S
O459 C461 1.245 . S
O460 C436 1.247 . S
O460 Mg442 2.061 . S
C461 O457 1.277 . S
C461 O459 1.245 . S
O462 C436 1.289 . S
O462 Mg439 2.238 . S
O462 Mg440 2.106 . S
O463 Mg440 2.079 . S
O463 C445 1.245 . S
O464 Mg443 2.038 . S
O464 C445 1.274 . S
C47 C383 2.760 . S
C91 C430 1.969 . S
C434 C177 2.434 . S
C399 C215 1.843 . S
C295 C414 2.681 . S
C436 C345 1.078 . S
C405 C153 2.201 . S
C239 C445 1.980 . S
C374 C283 2.128 . S
C357 C403 1.610 . S
C35 C461 2.561 1_554 S
C372 C115 1.671 . S
C390 C221 2.486 . S
C404 C301 1.651 . S
C458 C339 2.255 1_556 S
C373 C53 2.113 . S
C421 C97 2.885 . S
C171 C444 1.650 . S
C413 C363 1.612 . S
C452 C29 2.156 . S
C382 C109 2.119 . S
C427 C159 1.953 . S
C233 C435 2.477 . S
C277 C396 1.832 . S
