# Generated by pormake.
# Topology tsx, (6,3)-cn, num edge types: 1
# Building blocks:
#     Node 0, Type 0, BuildingBlock: LEVNOQ01_clean_sbu_1, # of connection points: 6
#     Node 1, Type 0, BuildingBlock: LEVNOQ01_clean_sbu_1, # of connection points: 6
#     Node 2, Type 1, BuildingBlock: BELTOD_clean_linker_0, # of connection points: 3
#     Node 3, Type 1, BuildingBlock: BELTOD_clean_linker_0, # of connection points: 3
#     Node 4, Type 1, BuildingBlock: BELTOD_clean_linker_0, # of connection points: 3
#     Node 5, Type 1, BuildingBlock: BELTOD_clean_linker_0, # of connection points: 3
#     Edge 6, Type (0, 1), BuildingBlock: MIFKUJ_clean_linker_0, # of connection points: 2
#     Edge 7, Type (0, 1), BuildingBlock: MIFKUJ_clean_linker_0, # of connection points: 2
#     Edge 8, Type (0, 1), BuildingBlock: MIFKUJ_clean_linker_0, # of connection points: 2
#     Edge 9, Type (0, 1), BuildingBlock: MIFKUJ_clean_linker_0, # of connection points: 2
#     Edge 10, Type (0, 1), BuildingBlock: MIFKUJ_clean_linker_0, # of connection points: 2
#     Edge 11, Type (0, 1), BuildingBlock: MIFKUJ_clean_linker_0, # of connection points: 2
#     Edge 12, Type (0, 1), BuildingBlock: MIFKUJ_clean_linker_0, # of connection points: 2
#     Edge 13, Type (0, 1), BuildingBlock: MIFKUJ_clean_linker_0, # of connection points: 2
#     Edge 14, Type (0, 1), BuildingBlock: MIFKUJ_clean_linker_0, # of connection points: 2
#     Edge 15, Type (0, 1), BuildingBlock: MIFKUJ_clean_linker_0, # of connection points: 2
#     Edge 16, Type (0, 1), BuildingBlock: MIFKUJ_clean_linker_0, # of connection points: 2
#     Edge 17, Type (0, 1), BuildingBlock: MIFKUJ_clean_linker_0, # of connection points: 2
# Relax obj value: 0.118
# Max RMSD: 0.151
# Mean RMSD: 0.110
data_MOF--net-tsx--node1-LEVNOQ01_clean_sbu_1--node2-BELTOD_clean_linker_0--edge1-MIFKUJ_clean_linker_0
_symmetry_space_group_name_H-M    P1
_symmetry_Int_Tables_number       1
_symmetry_cell_setting            triclinic
loop_
_symmetry_equiv_pos_as_xyz
'x, y, z'
_cell_length_a     26.505555
_cell_length_b     32.410093
_cell_length_c     51.837619
_cell_angle_alpha  98.549627
_cell_angle_beta   90.501238
_cell_angle_gamma 90.315195
loop_
_atom_site_label
_atom_site_type_symbol
_atom_site_fract_x
_atom_site_fract_y
_atom_site_fract_z
_atom_type_partial_charge
O0 O 0.08188 0.00239 0.0453 0.0
Mg1 Mg 0.09661 0.0187 0.0077 0.0
O2 O 0.00405 0.02399 0.04252 0.0
Mg3 Mg 0.00812 0.02195 0.99736 0.0
O4 O 0.07393 0.07546 -2e-05 0.0
O5 O 0.15217 0.06113 0.01283 0.0
O6 O 0.02065 0.01911 0.95157 0.0
O7 O 0.95978 0.08378 0.00205 0.0
Mg8 Mg 0.92113 0.00646 0.96708 0.0
O9 O 0.93933 0.97381 0.99693 0.0
O10 O 0.95449 -0.01118 0.93107 0.0
O11 O 0.89401 0.06703 0.97641 0.0
O12 O 0.86816 0.9649 0.97282 0.0
C13 C 0.08975 0.94543 0.97971 0.0
C14 C 0.03975 0.01141 0.05598 0.0
C15 C 0.12046 0.08717 0.00557 0.0
C16 C -0.00126 0.00289 0.9304 0.0
C17 C 0.9181 0.09371 0.99212 0.0
C18 C 0.89658 0.95425 0.99101 0.0
O19 O 0.12 0.97414 0.97653 0.0
O20 O 0.04934 0.9555 0.9921 0.0
O21 O 0.57309 0.56663 0.57632 0.0
Mg22 Mg 0.61334 0.55336 0.54181 0.0
O23 O 0.5049 0.53874 0.55579 0.0
Mg24 Mg 0.51963 0.53266 0.51002 0.0
O25 O 0.58526 0.58238 0.5122 0.0
O26 O 0.65871 0.59953 0.53324 0.0
O27 O 0.53776 0.52692 0.46466 0.0
O28 O 0.46632 0.59078 0.50946 0.0
Mg29 Mg 0.43701 0.50723 0.47556 0.0
O30 O 0.45387 0.48222 0.50858 0.0
O31 O 0.47996 0.48699 0.44272 0.0
O32 O 0.40731 0.56756 0.48064 0.0
O33 O 0.3862 0.46452 0.48271 0.0
C34 C 0.61422 0.46483 0.51868 0.0
C35 C 0.52807 0.55378 0.57691 0.0
C36 C 0.6251 0.60636 0.51625 0.0
C37 C 0.52164 0.50599 0.44332 0.0
C38 C 0.42647 0.59696 0.49655 0.0
C39 C 0.41354 0.45931 0.50267 0.0
O40 O 0.64086 0.49251 0.5323 0.0
O41 O 0.5715 0.47405 0.50964 0.0
P42 P 0.07777 0.06227 0.42224 0.0
H43 H 0.05176 0.12232 0.46735 0.0
H44 H 0.97241 0.15348 0.48306 0.0
H45 H 0.89161 0.06999 0.42379 0.0
H46 H 0.97159 0.03982 0.40766 0.0
H47 H 0.18073 0.0471 0.43804 0.0
H48 H 0.21926 -0.00648 0.45986 0.0
H49 H 0.07339 0.93488 0.46428 0.0
H50 H 0.03482 -0.01089 0.44223 0.0
H51 H 0.10614 0.10405 0.37831 0.0
H52 H 0.03734 -0.01299 0.3892 0.0
O53 O 0.11665 0.10346 0.42755 0.0
H54 H 0.09587 0.08597 0.33118 0.0
H55 H 0.02543 0.96934 0.34168 0.0
C56 C 0.01785 0.07951 0.43592 0.0
C57 C 0.01696 0.11042 0.45786 0.0
C58 C 0.97132 0.12795 0.46701 0.0
C59 C 0.92541 0.11447 0.45459 0.0
C60 C 0.92628 0.08164 0.43351 0.0
C61 C 0.97213 0.06424 0.4243 0.0
C62 C 0.10485 0.02227 0.43866 0.0
C63 C 0.15682 0.02301 0.44391 0.0
C64 C 0.17881 -0.00752 0.45664 0.0
C65 C 0.14938 0.96012 0.46413 0.0
C66 C 0.09713 0.95939 0.45878 0.0
C67 C 0.07503 -0.0097 0.44617 0.0
C68 C 0.07288 0.04674 0.38735 0.0
C69 C 0.08918 0.07426 0.37061 0.0
C70 C 0.08328 0.06395 0.34362 0.0
C71 C 0.05993 0.02626 0.33281 0.0
C72 C 0.04343 -0.00135 0.34955 0.0
C73 C 0.05039 0.00864 0.37664 0.0
P74 P 0.10156 0.96884 0.5695 0.0
H75 H 0.06406 0.95279 0.51599 0.0
H76 H 0.98236 0.92762 0.49727 0.0
H77 H 0.92011 0.93986 0.5748 0.0
H78 H 0.00111 0.96555 0.59316 0.0
H79 H 0.2057 0.98183 0.55502 0.0
H80 H 0.25299 0.04359 0.54778 0.0
H81 H 0.11661 0.11661 0.55872 0.0
H82 H 0.06908 0.05378 0.56438 0.0
H83 H 0.10951 0.90719 0.60512 0.0
H84 H 0.09038 0.04025 0.61144 0.0
O85 O 0.13415 0.92645 0.55772 0.0
H86 H 0.11045 0.91263 0.65261 0.0
H87 H 0.0895 0.04591 0.65884 0.0
C88 C 0.03878 0.96096 0.55593 0.0
C89 C 0.03235 0.95112 0.52884 0.0
C90 C 0.98574 0.9364 0.5182 0.0
C91 C 0.9447 0.93126 0.53454 0.0
C92 C 0.95061 0.94375 0.56159 0.0
C93 C -0.00277 0.95835 0.57218 0.0
C94 C 0.13379 0.0132 0.56004 0.0
C95 C 0.18572 0.01094 0.55525 0.0
C96 C 0.21294 0.04654 0.55147 0.0
C97 C 0.18898 0.08547 0.55304 0.0
C98 C 0.13643 0.08724 0.55707 0.0
C99 C 0.10909 0.05135 0.56041 0.0
C100 C 0.10151 0.9734 0.60467 0.0
C101 C 0.10591 0.93764 0.61672 0.0
C102 C 0.10584 0.94078 0.64393 0.0
C103 C 0.1005 0.97981 0.65967 0.0
C104 C 0.09493 0.0155 0.64742 0.0
C105 C 0.09525 0.01227 0.6202 0.0
P106 P 0.56789 0.56441 0.93561 0.0
H107 H 0.53005 0.62498 0.97819 0.0
H108 H 0.44517 0.64881 0.98986 0.0
H109 H 0.38299 0.55025 0.9329 0.0
H110 H 0.46842 0.5271 0.92093 0.0
H111 H 0.67107 0.55544 0.95353 0.0
H112 H 0.71425 0.50115 0.97285 0.0
H113 H 0.57558 0.42975 0.9694 0.0
H114 H 0.53234 0.48456 0.9499 0.0
H115 H 0.56951 0.61833 0.89571 0.0
H116 H 0.55289 0.48664 0.89838 0.0
O117 O 0.60218 0.608 0.94309 0.0
H118 H 0.55619 0.60609 0.84863 0.0
H119 H 0.5394 0.47403 0.85089 0.0
C120 C 0.50553 0.57506 0.9482 0.0
C121 C 0.49818 0.60801 0.96852 0.0
C122 C 0.44946 0.62136 0.97536 0.0
C123 C 0.40721 0.60169 0.9621 0.0
C124 C 0.41476 0.56648 0.94316 0.0
C125 C 0.4636 0.55319 0.93633 0.0
C126 C 0.59845 0.5241 0.95034 0.0
C127 C 0.64972 0.52833 0.95712 0.0
C128 C 0.67433 0.49739 0.9684 0.0
C129 C 0.64829 0.46125 0.97282 0.0
C130 C 0.59669 0.45719 0.96615 0.0
C131 C 0.57195 0.48843 0.95501 0.0
C132 C 0.56351 0.55331 0.9005 0.0
C133 C 0.56396 0.5866 0.88609 0.0
C134 C 0.55624 0.57956 0.85912 0.0
C135 C 0.54713 0.53903 0.84595 0.0
C136 C 0.54625 0.50561 0.86048 0.0
C137 C 0.55445 0.51272 0.88756 0.0
P138 P 0.58914 0.47176 0.08108 0.0
H139 H 0.54882 0.4354 0.03028 0.0
H140 H 0.46412 0.41174 0.01556 0.0
H141 H 0.40441 0.46523 0.09029 0.0
H142 H 0.48912 0.48925 0.10478 0.0
H143 H 0.69272 0.48752 0.06719 0.0
H144 H 0.73648 0.55029 0.0582 0.0
H145 H 0.59489 0.61622 0.06236 0.0
H146 H 0.55118 0.55303 0.07136 0.0
H147 H 0.54944 0.42192 0.1189 0.0
H148 H 0.63639 0.53529 0.12099 0.0
O149 O 0.62211 0.42928 0.06997 0.0
H150 H 0.55199 0.43018 0.1665 0.0
H151 H 0.64134 0.54265 0.16824 0.0
C152 C 0.52547 0.46295 0.06886 0.0
C153 C 0.51733 0.44276 0.04331 0.0
C154 C 0.46883 0.42947 0.03487 0.0
C155 C 0.42768 0.43614 0.05191 0.0
C156 C 0.43552 0.45908 0.07688 0.0
C157 C 0.48398 0.47274 0.0852 0.0
C158 C 0.61863 0.51552 0.06951 0.0
C159 C 0.67089 0.5152 0.0656 0.0
C160 C 0.69595 0.55119 0.06074 0.0
C161 C 0.66915 0.58821 0.05976 0.0
C162 C 0.61644 0.58802 0.06279 0.0
C163 C 0.59141 0.55198 0.06787 0.0
C164 C 0.59182 0.47828 0.1163 0.0
C165 C 0.56918 0.44853 0.1296 0.0
C166 C 0.57117 0.45312 0.15686 0.0
C167 C 0.59678 0.48722 0.17141 0.0
C168 C 0.62033 0.51649 0.15786 0.0
C169 C 0.61777 0.51212 0.13064 0.0
H170 H 0.21754 0.11365 0.00777 0.0
H171 H 0.24996 0.18363 0.00876 0.0
H172 H 0.09892 0.22914 0.00022 0.0
H173 H 0.06538 0.15787 -0.00027 0.0
H174 H 0.25067 0.23741 0.97585 0.0
H175 H 0.09907 0.33063 0.03401 0.0
H176 H 0.02781 0.3207 0.06291 0.0
H177 H 0.10622 0.22014 0.09075 0.0
H178 H 0.178 0.22975 0.06217 0.0
H179 H 0.37425 0.43157 0.00585 0.0
H180 H 0.30127 0.38652 0.99211 0.0
H181 H 0.29946 0.34591 0.06769 0.0
H182 H 0.37094 0.39161 0.08166 0.0
H183 H 0.20634 0.34587 0.04994 0.0
H184 H 0.36851 0.29438 0.01462 0.0
H185 H 0.4458 0.2991 0.98898 0.0
H186 H 0.35604 0.30741 0.92059 0.0
H187 H 0.27821 0.30326 0.94596 0.0
C188 C 0.19083 0.13827 0.00599 0.0
C189 C 0.13868 0.13007 0.00393 0.0
C190 C 0.20965 0.17845 0.00634 0.0
C191 C 0.17705 0.21183 0.00463 0.0
C192 C 0.12484 0.20388 0.00174 0.0
C193 C 0.10574 0.16319 0.00138 0.0
C194 C 0.19913 0.25462 0.00748 0.0
C195 C 0.24022 0.26152 0.9917 0.0
C196 C 0.18579 0.28615 0.02815 0.0
C197 C 0.1435 0.28064 0.04579 0.0
C198 C 0.10107 0.30651 0.04637 0.0
C199 C 0.06061 0.30091 0.06266 0.0
C200 C 0.06242 0.26972 0.07859 0.0
C201 C 0.10479 0.24419 0.07835 0.0
C202 C 0.14534 0.24969 0.0621 0.0
C203 C 0.35749 0.41366 0.01967 0.0
C204 C 0.3786 0.41485 0.04475 0.0
C205 C 0.31579 0.38794 0.01182 0.0
C206 C 0.29535 0.36212 0.02868 0.0
C207 C 0.31431 0.36552 0.0543 0.0
C208 C 0.35536 0.39167 0.06227 0.0
C209 C 0.25929 0.3277 0.01904 0.0
C210 C 0.21558 0.32252 0.03345 0.0
C211 C 0.271 0.29706 0.99751 0.0
C212 C 0.31767 0.29903 0.98221 0.0
C213 C 0.36533 0.29741 0.99414 0.0
C214 C 0.40919 0.29999 0.97967 0.0
C215 C 0.40583 0.30368 0.95319 0.0
C216 C 0.35858 0.30466 0.94111 0.0
C217 C 0.31459 0.30221 0.95552 0.0
H218 H 0.43983 0.30569 0.94201 0.0
H219 H 0.03103 0.26539 0.09116 0.0
H220 H 0.16414 0.91522 0.94663 0.0
H221 H 0.20266 0.84645 0.94258 0.0
H222 H 0.09261 0.808 0.99504 0.0
H223 H 0.05301 0.87685 -0.00103 0.0
H224 H 0.24583 0.81928 0.98434 0.0
H225 H 0.08737 0.69455 0.97971 0.0
H226 H 0.00024 0.68243 0.96316 0.0
H227 H 0.02632 0.7633 0.90605 0.0
H228 H 0.11392 0.77515 0.92184 0.0
H229 H 0.36275 0.63716 0.00766 0.0
H230 H 0.29098 0.6848 0.0116 0.0
H231 H 0.26651 0.65937 0.92841 0.0
H232 H 0.33826 0.61223 0.92422 0.0
H233 H 0.17576 0.6771 0.95676 0.0
H234 H 0.34523 0.73332 0.94987 0.0
H235 H 0.43408 0.74333 0.96408 0.0
H236 H 0.38664 0.80112 0.03985 0.0
H237 H 0.29742 0.79071 0.0262 0.0
C238 C 0.14739 0.89187 0.9569 0.0
C239 C 0.106 0.90159 0.97341 0.0
C240 C 0.16949 0.8526 0.95459 0.0
C241 C 0.1507 0.82223 0.9687 0.0
C242 C 0.10735 0.83087 0.98387 0.0
C243 C 0.08488 0.87024 0.9861 0.0
C244 C 0.18002 0.78366 0.96962 0.0
C245 C 0.23025 0.78824 0.97841 0.0
C246 C 0.15968 0.74312 0.96205 0.0
C247 C 0.10707 0.73622 0.95226 0.0
C248 C 0.0746 0.70962 0.96355 0.0
C249 C 0.02515 0.70269 0.95425 0.0
C250 C 0.0077 0.72218 0.93362 0.0
C251 C 0.03979 0.74841 0.92213 0.0
C252 C 0.08936 0.75527 0.93128 0.0
C253 C 0.34131 0.64093 0.99029 0.0
C254 C 0.35681 0.62151 0.96558 0.0
C255 C 0.30011 0.66791 0.9926 0.0
C256 C 0.274 0.67602 0.97024 0.0
C257 C 0.28609 0.65343 0.94591 0.0
C258 C 0.32725 0.62645 0.94357 0.0
C259 C 0.24119 0.71307 0.97137 0.0
C260 C 0.19068 0.70824 0.96305 0.0
C261 C 0.26116 0.75362 0.97911 0.0
C262 C 0.31473 0.76086 0.98711 0.0
C263 C 0.35377 0.74795 0.9696 0.0
C264 C 0.40418 0.75369 0.97755 0.0
C265 C 0.416 0.77277 0.00287 0.0
C266 C 0.37742 0.78628 0.02026 0.0
C267 C 0.32694 0.78046 0.01243 0.0
H268 H 0.45505 0.77717 0.009 0.0
H269 H 0.96934 0.71692 0.92652 0.0
H270 H 0.93995 0.92254 0.03289 0.0
H271 H 0.90823 0.86358 0.0534 0.0
H272 H 0.78378 0.84778 0.99851 0.0
H273 H 0.8139 0.90586 0.97865 0.0
H274 H 0.75128 0.84522 0.04643 0.0
H275 H 0.89631 0.78972 0.99358 0.0
H276 H 0.98693 0.78304 0.98348 0.0
H277 H 0.01669 0.74879 0.05901 0.0
H278 H 0.92659 0.75683 0.06996 0.0
H279 H 0.64572 0.64509 0.0276 0.0
H280 H 0.69031 0.7101 0.02365 0.0
H281 H 0.79823 0.68511 0.08212 0.0
H282 H 0.75429 0.61961 0.08571 0.0
H283 H 0.84591 0.71334 0.04461 0.0
H284 H 0.70491 0.75952 0.09646 0.0
H285 H 0.61542 0.76446 0.10908 0.0
H286 H 0.57931 0.81603 0.03958 0.0
H287 H 0.66849 0.8109 0.02636 0.0
C288 C 0.90577 0.90645 0.02535 0.0
C289 C 0.87945 0.9191 0.00418 0.0
C290 C 0.88776 0.87277 0.03702 0.0
C291 C 0.84352 0.85125 0.02749 0.0
C292 C 0.81766 0.86402 0.00641 0.0
C293 C 0.83521 0.89738 0.99497 0.0
C294 C 0.82294 0.81506 0.03864 0.0
C295 C 0.77202 0.81637 0.04605 0.0
C296 C 0.8505 0.77793 0.03929 0.0
C297 C 0.90478 0.77441 0.03272 0.0
C298 C 0.92226 0.78137 0.00818 0.0
C299 C 0.97354 0.77724 0.00228 0.0
C300 C 0.00745 0.76527 0.02055 0.0
C301 C 0.99035 0.75802 0.04488 0.0
C302 C 0.93926 0.76255 0.05099 0.0
C303 C 0.67883 0.65359 0.03967 0.0
C304 C 0.69648 0.62735 0.05697 0.0
C305 C 0.70422 0.6908 0.03749 0.0
C306 C 0.74718 0.70295 0.05296 0.0
C307 C 0.76518 0.6765 0.07003 0.0
C308 C 0.7401 0.63905 0.07201 0.0
C309 C 0.77354 0.74294 0.05088 0.0
C310 C 0.8254 0.74238 0.04546 0.0
C311 C 0.74707 0.78099 0.05235 0.0
C312 C 0.69341 0.78462 0.06036 0.0
C313 C 0.67786 0.77172 0.0838 0.0
C314 C 0.62718 0.77458 0.09107 0.0
C315 C 0.5917 0.79051 0.07513 0.0
C316 C 0.60685 0.80372 0.05192 0.0
C317 C 0.65748 0.80091 0.04455 0.0
H318 H 0.55248 0.79266 0.08078 0.0
H319 H 0.04695 0.76129 0.01588 0.0
H320 H 0.82566 0.11874 0.97835 0.0
H321 H 0.79249 0.18893 0.98305 0.0
H322 H 0.9282 0.23678 0.02349 0.0
H323 H 0.9628 0.1655 0.0186 0.0
H324 H 0.81655 0.26838 0.04335 0.0
H325 H 0.9341 0.25991 0.97275 0.0
H326 H 0.97625 0.22445 0.93344 0.0
H327 H 0.83428 0.21154 0.89241 0.0
H328 H 0.79113 0.24628 0.93163 0.0
H329 H 0.71873 0.46628 0.01239 0.0
H330 H 0.77321 0.41019 0.02325 0.0
H331 H 0.69568 0.32248 0.96535 0.0
H332 H 0.64188 0.37823 0.95418 0.0
H333 H 0.79779 0.32135 0.95877 0.0
H334 H 0.68012 0.31348 0.02989 0.0
H335 H 0.63283 0.34144 0.06939 0.0
H336 H 0.77128 0.38369 0.10852 0.0
H337 H 0.81941 0.35534 0.06932 0.0
C338 C 0.84868 0.14389 0.98846 0.0
C339 C 0.89726 0.13644 0.99784 0.0
C340 C 0.82941 0.18406 0.99121 0.0
C341 C 0.85798 0.2179 0.00346 0.0
C342 C 0.90562 0.21084 0.01401 0.0
C343 C 0.9253 0.17023 0.01115 0.0
C344 C 0.8381 0.26033 0.00299 0.0
C345 C 0.81379 0.28091 0.02512 0.0
C346 C 0.83351 0.27586 0.97901 0.0
C347 C 0.85936 0.25553 0.9552 0.0
C348 C 0.91181 0.24924 0.95541 0.0
C349 C 0.93589 0.22931 0.93313 0.0
C350 C 0.90795 0.2157 0.91045 0.0
C351 C 0.85588 0.2221 0.90999 0.0
C352 C 0.8316 0.24197 0.93223 0.0
C353 C 0.71302 0.4349 0.0022 0.0
C354 C 0.67623 0.4267 0.98229 0.0
C355 C 0.74395 0.40289 0.00853 0.0
C356 C 0.73867 0.36222 0.995 0.0
C357 C 0.70052 0.3537 0.97596 0.0
C358 C 0.66949 0.38553 0.96974 0.0
C359 C 0.77498 0.32897 -0.00102 0.0
C360 C 0.80204 0.30996 0.97732 0.0
C361 C 0.78197 0.315 0.02335 0.0
C362 C 0.7532 0.33276 0.04666 0.0
C363 C 0.70039 0.32896 0.04688 0.0
C364 C 0.6735 0.34462 0.06925 0.0
C365 C 0.69901 0.3645 0.09142 0.0
C366 C 0.75155 0.36837 0.09133 0.0
C367 C 0.77867 0.35232 0.0691 0.0
H368 H 0.67806 0.37687 0.10865 0.0
H369 H 0.92666 0.20026 0.89322 0.0
H370 H 0.70241 0.61772 0.48471 0.0
H371 H 0.73531 0.68534 0.47712 0.0
H372 H 0.60252 0.74528 0.5122 0.0
H373 H 0.56923 0.67711 0.51955 0.0
H374 H 0.71087 0.75941 0.45678 0.0
H375 H 0.64828 0.82249 0.55929 0.0
H376 H 0.61564 0.79735 0.59869 0.0
H377 H 0.69963 0.68403 0.58017 0.0
H378 H 0.73328 0.70882 0.54093 0.0
H379 H 0.84611 0.94883 0.54813 0.0
H380 H 0.77146 0.90544 0.53537 0.0
H381 H 0.86333 0.81878 0.48513 0.0
H382 H 0.93757 0.86184 0.49765 0.0
H383 H 0.7557 0.83066 0.54554 0.0
H384 H 0.79795 0.76331 0.43677 0.0
H385 H 0.83077 0.7884 0.3975 0.0
H386 H 0.78816 0.91358 0.42824 0.0
H387 H 0.75438 0.88921 0.46753 0.0
C388 C 0.67904 0.64508 0.48948 0.0
C389 C 0.63331 0.64238 0.50257 0.0
C390 C 0.69789 0.68376 0.48519 0.0
C391 C 0.67179 0.72044 0.49447 0.0
C392 C 0.62336 0.71734 0.50497 0.0
C393 C 0.60416 0.67841 0.50898 0.0
C394 C 0.69989 0.76073 0.49795 0.0
C395 C 0.72051 0.77532 0.47612 0.0
C396 C 0.71152 0.78201 0.52318 0.0
C397 C 0.69269 0.76729 0.54707 0.0
C398 C 0.65986 0.79229 0.56372 0.0
C399 C 0.64121 0.77811 0.58601 0.0
C400 C 0.6554 0.73906 0.59188 0.0
C401 C 0.68855 0.71422 0.57557 0.0
C402 C 0.70742 0.72832 0.55332 0.0
C403 C 0.85021 0.92084 0.53404 0.0
C404 C 0.89794 0.90884 0.52396 0.0
C405 C 0.80745 0.89612 0.5267 0.0
C406 C 0.81145 0.85891 0.50908 0.0
C407 C 0.85875 0.84778 0.49824 0.0
C408 C 0.90139 0.87252 0.50547 0.0
C409 C 0.76807 0.82916 0.50434 0.0
C410 C 0.74489 0.81613 0.52604 0.0
C411 C 0.75406 0.80959 0.47896 0.0
C412 C 0.77387 0.82441 0.45521 0.0
C413 C 0.79527 0.79615 0.43511 0.0
C414 C 0.81413 0.81027 0.41285 0.0
C415 C 0.81165 0.85257 0.4104 0.0
C416 C 0.79021 0.88084 0.43019 0.0
C417 C 0.77127 0.86689 0.45248 0.0
H418 H 0.82629 0.86343 0.39316 0.0
H419 H 0.64082 0.72809 0.6091 0.0
H420 H 0.5901 0.40279 0.47818 0.0
H421 H 0.63001 0.33411 0.4682 0.0
H422 H 0.72013 0.36086 0.53853 0.0
H423 H 0.68195 0.42947 0.54801 0.0
H424 H 0.77799 0.33678 0.5 0.0
H425 H 0.62215 0.28705 0.53031 0.0
H426 H 0.52989 0.27755 0.53195 0.0
H427 H 0.52886 0.21586 0.4527 0.0
H428 H 0.62102 0.2256 0.45041 0.0
H429 H 0.89405 0.14614 0.50386 0.0
H430 H 0.82645 0.1963 0.5153 0.0
H431 H 0.78086 0.18434 0.43453 0.0
H432 H 0.84947 0.13527 0.42267 0.0
H433 H 0.69723 0.19754 0.47675 0.0
H434 H 0.8543 0.25447 0.44731 0.0
H435 H 0.947 0.26174 0.44811 0.0
H436 H 0.94365 0.30919 0.52996 0.0
H437 H 0.85091 0.30143 0.52971 0.0
C438 C 0.61802 0.39368 0.4916 0.0
C439 C 0.6335 0.42169 0.51364 0.0
C440 C 0.6406 0.35437 0.48598 0.0
C441 C 0.67818 0.34227 0.50261 0.0
C442 C 0.69162 0.36957 0.52527 0.0
C443 C 0.66979 0.40885 0.53064 0.0
C444 C 0.70717 0.30314 0.49553 0.0
C445 C 0.76001 0.30639 0.49527 0.0
C446 C 0.68399 0.2634 0.48876 0.0
C447 C 0.6285 0.25752 0.49009 0.0
C448 C 0.60222 0.27182 0.51313 0.0
C449 C 0.54994 0.26632 0.5142 0.0
C450 C 0.52353 0.24626 0.49241 0.0
C451 C 0.54937 0.23149 0.46955 0.0
C452 C 0.60163 0.23698 0.46836 0.0
C453 C 0.86925 0.15365 0.48853 0.0
C454 C 0.87794 0.13727 0.46227 0.0
C455 C 0.83025 0.18192 0.49517 0.0
C456 C 0.79892 0.19407 0.47572 0.0
C457 C 0.80443 0.17503 0.44982 0.0
C458 C 0.84379 0.14698 0.4431 0.0
C459 C 0.76734 0.2317 0.48179 0.0
C460 C 0.71453 0.22814 0.48161 0.0
C461 C 0.79023 0.27133 0.48851 0.0
C462 C 0.84581 0.27696 0.48854 0.0
C463 C 0.87339 0.26614 0.46551 0.0
C464 C 0.92591 0.27038 0.46586 0.0
C465 C 0.95122 0.28581 0.48909 0.0
C466 C 0.92401 0.29717 0.51199 0.0
C467 C 0.87147 0.29288 0.51175 0.0
H468 H 0.99189 0.28906 0.48932 0.0
H469 H 0.48306 0.24211 0.49325 0.0
H470 H 0.3188 0.43125 0.5076 0.0
H471 H 0.29209 0.37012 0.52578 0.0
H472 H 0.44511 0.35068 0.55026 0.0
H473 H 0.47256 0.41261 0.53145 0.0
H474 H 0.40504 0.28031 0.52404 0.0
H475 H 0.35354 0.37571 0.5961 0.0
H476 H 0.31601 0.43944 0.62 0.0
H477 H 0.17024 0.40185 0.58776 0.0
H478 H 0.20696 0.33819 0.56332 0.0
H479 H 0.2846 0.10493 0.57233 0.0
H480 H 0.33292 0.16898 0.57099 0.0
H481 H 0.20952 0.21892 0.53092 0.0
H482 H 0.16163 0.15435 0.53104 0.0
H483 H 0.24873 0.27347 0.57525 0.0
H484 H 0.30759 0.18343 0.498 0.0
H485 H 0.34808 0.12098 0.47419 0.0
H486 H 0.48449 0.14991 0.51867 0.0
H487 H 0.44443 0.2121 0.54313 0.0
C488 C 0.34679 0.41452 0.51726 0.0
C489 C 0.39782 0.4266 0.51801 0.0
C490 C 0.33134 0.37964 0.52786 0.0
C491 C 0.3664 0.35596 0.53969 0.0
C492 C 0.41734 0.3687 0.54138 0.0
C493 C 0.43293 0.40413 0.53081 0.0
C494 C 0.34942 0.316 0.54769 0.0
C495 C 0.37173 0.27881 0.5359 0.0
C496 C 0.30571 0.31397 0.56298 0.0
C497 C 0.28312 0.35212 0.5778 0.0
C498 C 0.31352 0.3811 0.59398 0.0
C499 C 0.29238 0.41723 0.60764 0.0
C500 C 0.24078 0.42469 0.60539 0.0
C501 C 0.2102 0.396 0.58951 0.0
C502 C 0.23116 0.35983 0.57578 0.0
C503 C 0.26794 0.12911 0.56274 0.0
C504 C 0.21903 0.1242 0.55171 0.0
C505 C 0.29559 0.16586 0.56221 0.0
C506 C 0.27478 0.19865 0.5509 0.0
C507 C 0.22612 0.19401 0.5399 0.0
C508 C 0.19869 0.1571 0.54011 0.0
C509 C 0.30313 0.23816 0.55068 0.0
C510 C 0.28284 0.27509 0.56401 0.0
C511 C 0.34905 0.23986 0.53712 0.0
C512 C 0.37269 0.20201 0.52273 0.0
C513 C 0.34595 0.17614 0.50299 0.0
C514 C 0.36888 0.14085 0.48931 0.0
C515 C 0.41874 0.13135 0.49501 0.0
C516 C 0.44579 0.15716 0.51437 0.0
C517 C 0.42295 0.1924 0.52817 0.0
H518 H 0.43648 0.10409 0.48434 0.0
H519 H 0.22448 0.45269 0.61598 0.0
H520 H 0.33506 0.61445 0.47712 0.0
H521 H 0.29577 0.68188 0.47764 0.0
H522 H 0.42118 0.74171 0.52212 0.0
H523 H 0.4616 0.67324 0.52175 0.0
H524 H 0.32216 0.77298 0.53893 0.0
H525 H 0.41996 0.75102 0.46187 0.0
H526 H 0.45429 0.7114 0.42163 0.0
H527 H 0.30517 0.69636 0.38841 0.0
H528 H 0.26979 0.73531 0.42862 0.0
H529 H 0.22473 0.96593 0.50128 0.0
H530 H 0.27569 0.90895 0.51353 0.0
H531 H 0.18163 0.81969 0.46481 0.0
H532 H 0.13135 0.87637 0.45209 0.0
H533 H 0.28015 0.81137 0.45213 0.0
H534 H 0.18444 0.81444 0.53405 0.0
H535 H 0.1499 0.84755 0.5761 0.0
H536 H 0.29567 0.89974 0.59902 0.0
H537 H 0.33129 0.86572 0.55738 0.0
C538 C 0.35457 0.64174 0.48716 0.0
C539 C 0.4019 0.63839 0.49916 0.0
C540 C 0.33189 0.68037 0.48741 0.0
C541 C 0.3559 0.71683 0.49953 0.0
C542 C 0.40221 0.71384 0.51253 0.0
C543 C 0.42521 0.67479 0.51229 0.0
C544 C 0.33228 0.75761 0.49745 0.0
C545 C 0.31399 0.78202 0.52 0.0
C546 C 0.3211 0.76908 0.47274 0.0
C547 C 0.34219 0.74594 0.44835 0.0
C548 C 0.39443 0.73903 0.44606 0.0
C549 C 0.41409 0.71672 0.42324 0.0
C550 C 0.38193 0.70133 0.40249 0.0
C551 C 0.33004 0.7083 0.4045 0.0
C552 C 0.31017 0.73056 0.4273 0.0
C553 C 0.21448 0.93409 0.49349 0.0
C554 C 0.17432 0.92573 0.47544 0.0
C555 C 0.24339 0.90152 0.50071 0.0
C556 C 0.23265 0.86001 0.49001 0.0
C557 C 0.19071 0.8515 0.47326 0.0
C558 C 0.16173 0.88396 0.46613 0.0
C559 C 0.26814 0.82587 0.49354 0.0
C560 C 0.28899 0.80284 0.47112 0.0
C561 C 0.2819 0.81595 0.51831 0.0
C562 C 0.26027 0.83803 0.54262 0.0
C563 C 0.20895 0.83321 0.54803 0.0
C564 C 0.18933 0.85182 0.57187 0.0
C565 C 0.2205 0.87597 0.59017 0.0
C566 C 0.27152 0.88116 0.5848 0.0
C567 C 0.29153 0.86196 0.56119 0.0
H568 H 0.20523 0.89052 0.60857 0.0
H569 H 0.39722 0.68406 0.38484 0.0
H570 H 0.11438 0.00296 0.09101 0.0
H571 H 0.10712 -0.00143 0.13715 0.0
H572 H 0.94518 0.00774 0.13142 0.0
H573 H 0.95241 0.01358 0.08481 0.0
H574 H 0.97709 0.05404 0.1744 0.0
H575 H 0.00368 0.91352 0.13783 0.0
H576 H 0.04292 0.85414 0.11009 0.0
H577 H 0.18313 0.8791 0.15175 0.0
H578 H 0.14498 0.93903 0.1795 0.0
H579 H 0.97207 0.00448 0.30602 0.0
H580 H 0.95861 -0.00504 0.25847 0.0
H581 H 0.11709 0.01694 0.24766 0.0
H582 H 0.13047 0.0272 0.29504 0.0
H583 H 0.07274 0.94654 0.21294 0.0
H584 H 0.04376 0.09362 0.24525 0.0
H585 H 0.00078 0.15106 0.27294 0.0
H586 H 0.85798 0.10843 0.23895 0.0
H587 H 0.90012 0.05033 0.21131 0.0
C588 C 0.07705 0.00385 0.09941 0.0
C589 C 0.0339 0.00835 0.0841 0.0
C590 C 0.07294 0.00107 0.12588 0.0
C591 C 0.02552 0.00179 0.13777 0.0
C592 C 0.9822 0.00677 0.12267 0.0
C593 C 0.98634 0.01007 0.09605 0.0
C594 C 0.02223 -0.00141 0.16612 0.0
C595 C -0.00295 0.02993 0.1827 0.0
C596 C 0.04834 0.96725 0.17717 0.0
C597 C 0.07148 0.93097 0.16067 0.0
C598 C 0.04297 0.90652 0.14098 0.0
C599 C 0.06501 0.87273 0.12526 0.0
C600 C 0.1155 0.86289 0.12914 0.0
C601 C 0.14402 0.88676 0.14878 0.0
C602 C 0.12217 0.92061 0.16454 0.0
C603 C 0.00404 0.00674 0.29342 0.0
C604 C 0.05229 0.01663 0.30414 0.0
C605 C 0.9963 0.00148 0.26634 0.0
C606 C 0.03685 0.00538 0.24958 0.0
C607 C 0.08533 0.01375 0.26025 0.0
C608 C 0.0929 0.01974 0.28727 0.0
C609 C 0.02892 0.00253 0.22098 0.0
C610 C 0.05201 0.97006 0.20444 0.0
C611 C 0.00017 0.03232 0.20998 0.0
C612 C 0.97498 0.06736 0.22647 0.0
C613 C 0.00314 0.09627 0.24386 0.0
C614 C 0.97895 0.12899 0.25951 0.0
C615 C 0.92666 0.13331 0.25777 0.0
C616 C 0.89847 0.10499 0.24032 0.0
C617 C 0.92248 0.07218 0.22465 0.0
H618 H 0.908 0.15866 0.2699 0.0
H619 H 0.13251 0.83673 0.11694 0.0
H620 H 0.98044 0.94645 0.88732 0.0
H621 H 0.01447 0.94531 0.84371 0.0
H622 H 0.10622 0.05346 0.87127 0.0
H623 H 0.07255 0.05441 0.91553 0.0
H624 H 0.04637 0.05955 0.82545 0.0
H625 H 0.16546 0.96798 0.85519 0.0
H626 H 0.19403 0.90931 0.87678 0.0
H627 H 0.11234 0.82322 0.82032 0.0
H628 H 0.08245 0.88145 0.79865 0.0
H629 H 0.14352 0.04077 0.69581 0.0
H630 H 0.14016 0.04726 0.74339 0.0
H631 H 0.05369 0.93302 0.7369 0.0
H632 H 0.05616 0.92661 0.6894 0.0
H633 H 0.12642 0.93581 0.77439 0.0
H634 H -0.00334 0.02667 0.74976 0.0
H635 H 0.96275 0.08447 0.72897 0.0
H636 H 0.06112 0.1709 0.77635 0.0
H637 H 0.09614 0.11344 0.79718 0.0
C638 C 0.0083 0.96977 0.88424 0.0
C639 C 0.02372 0.00063 0.90482 0.0
C640 C 0.02787 0.96896 0.85931 0.0
C641 C 0.06298 -0.00081 0.85427 0.0
C642 C 0.07924 0.02978 0.87482 0.0
C643 C 0.0602 0.03018 0.90005 0.0
C644 C 0.07977 -0.00039 0.82708 0.0
C645 C 0.06515 0.03303 0.81441 0.0
C646 C 0.1031 0.96449 0.81261 0.0
C647 C 0.12144 0.92919 0.82537 0.0
C648 C 0.15325 0.93658 0.84747 0.0
C649 C 0.16973 0.90339 0.85972 0.0
C650 C 0.15495 0.86257 0.84995 0.0
C651 C 0.12375 0.85486 0.82787 0.0
C652 C 0.10707 0.88796 0.81557 0.0
C653 C 0.12347 0.01715 0.70448 0.0
C654 C 0.09991 0.98324 0.68869 0.0
C655 C 0.12181 0.02082 0.73171 0.0
C656 C 0.09643 -0.00925 0.74374 0.0
C657 C 0.07374 0.95649 0.72806 0.0
C658 C 0.0753 0.95283 0.70086 0.0
C659 C 0.09205 -0.00461 0.77261 0.0
C660 C 0.1088 0.9628 0.78554 0.0
C661 C 0.07037 0.03117 0.78731 0.0
C662 C 0.04949 0.06569 0.77476 0.0
C663 C 0.0114 0.05794 0.75556 0.0
C664 C 0.99192 0.09064 0.74381 0.0
C665 C 0.0099 0.13131 0.75127 0.0
C666 C 0.04733 0.13937 0.77055 0.0
C667 C 0.067 0.10675 0.78233 0.0
H668 H 0.99474 0.1566 0.74216 0.0
H669 H 0.16773 0.83692 0.85946 0.0
H670 H 0.54734 0.60722 0.62108 0.0
H671 H 0.53268 0.59496 0.66563 0.0
H672 H 0.44671 0.48411 0.63692 0.0
H673 H 0.46167 0.4961 0.59174 0.0
H674 H 0.41739 0.54795 0.69139 0.0
H675 H 0.54097 0.45284 0.64727 0.0
H676 H 0.61173 0.43641 0.61696 0.0
H677 H 0.70336 0.52972 0.66314 0.0
H678 H 0.63274 0.54723 0.69346 0.0
H679 H 0.47448 0.49008 0.81796 0.0
H680 H 0.457 0.48306 0.77089 0.0
H681 H 0.58104 0.56654 0.76234 0.0
H682 H 0.59915 0.573 0.809 0.0
H683 H 0.58081 0.50097 0.72405 0.0
H684 H 0.45875 0.60005 0.76538 0.0
H685 H 0.38853 0.62241 0.79502 0.0
H686 H 0.29436 0.52514 0.75445 0.0
H687 H 0.36432 0.50187 0.72477 0.0
C688 C 0.52393 0.58092 0.62418 0.0
C689 C 0.5061 0.55238 0.60292 0.0
C690 C 0.51553 0.57401 0.64967 0.0
C691 C 0.48912 0.53846 0.65451 0.0
C692 C 0.46709 0.51182 0.63351 0.0
C693 C 0.47552 0.51877 0.60775 0.0
C694 C 0.4923 0.52674 0.68104 0.0
C695 C 0.45249 0.53647 0.69847 0.0
C696 C 0.53851 0.51265 0.69029 0.0
C697 C 0.58147 0.50154 0.6725 0.0
C698 C 0.57609 0.47006 0.65084 0.0
C699 C 0.61617 0.46053 0.63368 0.0
C700 C 0.66199 0.48206 0.63809 0.0
C701 C 0.66784 0.51308 0.65974 0.0
C702 C 0.62782 0.52279 0.67693 0.0
C703 C 0.49838 0.50647 0.80594 0.0
C704 C 0.53805 0.53229 0.81724 0.0
C705 C 0.48809 0.5027 0.7791 0.0
C706 C 0.5174 0.5246 0.76309 0.0
C707 C 0.55783 0.5494 0.77427 0.0
C708 C 0.56795 0.5533 0.801 0.0
C709 C 0.5061 0.52268 0.73476 0.0
C710 C 0.54488 0.5109 0.71697 0.0
C711 C 0.45891 0.53485 0.7253 0.0
C712 C 0.41692 0.54889 0.74309 0.0
C713 C 0.4232 0.58321 0.76293 0.0
C714 C 0.38344 0.59609 0.77971 0.0
C715 C 0.33707 0.57512 0.77668 0.0
C716 C 0.33034 0.54129 0.75681 0.0
C717 C 0.37001 0.52825 0.74001 0.0
H718 H 0.30632 0.58514 0.78968 0.0
H719 H 0.69297 0.47466 0.62477 0.0
H720 H 0.53183 0.44135 0.40422 0.0
H721 H 0.56175 0.44414 0.35999 0.0
H722 H 0.59801 0.57467 0.38141 0.0
H723 H 0.56952 0.57166 0.42619 0.0
H724 H 0.52627 0.55028 0.33685 0.0
H725 H 0.69117 0.5206 0.36684 0.0
H726 H 0.7543 0.4828 0.38935 0.0
H727 H 0.72058 0.36997 0.33732 0.0
H728 H 0.65663 0.40694 0.31473 0.0
H729 H 0.59389 0.56009 0.20618 0.0
H730 H 0.59625 0.56842 0.25367 0.0
H731 H 0.60306 0.43479 0.25047 0.0
H732 H 0.60424 0.42628 0.20293 0.0
H733 H 0.66206 0.46916 0.28779 0.0
H734 H 0.49106 0.49219 0.26239 0.0
H735 H 0.42219 0.52499 0.24059 0.0
H736 H 0.46051 0.64423 0.28444 0.0
H737 H 0.53009 0.6122 0.30627 0.0
C738 C 0.5475 0.47035 0.39968 0.0
C739 C 0.54849 0.50628 0.41854 0.0
C740 C 0.56458 0.47189 0.37445 0.0
C741 C 0.582 0.5096 0.36748 0.0
C742 C 0.58487 0.54525 0.38652 0.0
C743 C 0.56891 0.54345 0.41205 0.0
C744 C 0.5917 0.51217 0.33966 0.0
C745 C 0.55672 0.53346 0.32616 0.0
C746 C 0.63029 0.4889 0.32572 0.0
C747 C 0.66879 0.46651 0.33922 0.0
C748 C 0.69686 0.48764 0.36034 0.0
C749 C 0.73287 0.46637 0.37308 0.0
C750 C 0.74137 0.42399 0.3648 0.0
C751 C 0.71393 0.4028 0.34372 0.0
C752 C 0.67784 0.42392 0.33092 0.0
C753 C 0.59682 0.53241 0.21548 0.0
C754 C 0.5986 0.49243 0.20053 0.0
C755 C 0.59753 0.53725 0.24274 0.0
C756 C 0.59894 0.50222 0.25576 0.0
C757 C 0.60174 0.46235 0.24094 0.0
C758 C 0.60172 0.4575 0.21367 0.0
C759 C 0.59615 0.5069 0.28475 0.0
C760 C 0.63217 0.48672 0.29846 0.0
C761 C 0.55781 0.53054 0.29888 0.0
C762 C 0.51617 0.5499 0.2857 0.0
C763 C 0.48508 0.52547 0.26721 0.0
C764 C 0.44587 0.54391 0.25488 0.0
C765 C 0.4371 0.58669 0.26106 0.0
C766 C 0.46744 0.61111 0.27963 0.0
C767 C 0.50675 0.59284 0.29199 0.0
H768 H 0.4067 0.60091 0.2515 0.0
H769 H 0.76928 0.40758 0.37469 0.0
loop_
_geom_bond_atom_site_label_1
_geom_bond_atom_site_label_2
_geom_bond_distance
_geom_bond_site_symmetry_2
_ccdc_geom_bond_type
O0 Mg1 1.990 . S
O0 C14 1.253 . S
Mg1 O0 1.990 . S
Mg1 O4 2.180 . S
Mg1 O5 2.117 . S
Mg1 O19 2.030 1_545 S
O2 Mg3 2.072 . S
O2 C14 1.260 . S
Mg3 O2 2.072 . S
Mg3 O4 2.099 . S
Mg3 O6 2.079 1_554 S
Mg3 O7 2.072 . S
Mg3 O9 2.099 1_444 S
Mg3 O20 2.079 1_544 S
O4 Mg1 2.180 . S
O4 Mg3 2.099 . S
O4 C15 1.279 . S
O5 Mg1 2.117 . S
O5 C15 1.250 . S
O6 Mg3 2.079 1_556 S
O6 C16 1.264 . S
O7 Mg3 2.072 . S
O7 C17 1.271 1_455 S
Mg8 O9 2.180 1_545 S
Mg8 O10 2.030 . S
Mg8 O11 1.990 . S
Mg8 O12 2.117 1_545 S
O9 Mg3 2.099 1_666 S
O9 Mg8 2.180 1_565 S
O9 C18 1.279 1_556 S
O10 Mg8 2.030 . S
O10 C16 1.248 1_655 S
O11 Mg8 1.990 . S
O11 C17 1.242 1_556 S
O12 Mg8 2.117 1_565 S
O12 C18 1.250 1_556 S
C13 O19 1.248 . S
C13 O20 1.264 1_554 S
C14 O0 1.253 . S
C14 O2 1.260 . S
C15 O4 1.279 . S
C15 O5 1.250 . S
C16 O6 1.264 . S
C16 O10 1.248 1_455 S
C17 O7 1.271 1_655 S
C17 O11 1.242 1_554 S
C18 O9 1.279 1_554 S
C18 O12 1.250 1_554 S
O19 Mg1 2.030 1_565 S
O19 C13 1.248 . S
O20 Mg3 2.079 1_566 S
O20 C13 1.264 1_556 S
O21 Mg22 1.990 . S
O21 C35 1.253 . S
Mg22 O21 1.990 . S
Mg22 O25 2.180 . S
Mg22 O26 2.117 . S
Mg22 O40 2.030 . S
O23 Mg24 2.072 . S
O23 C35 1.260 . S
Mg24 O23 2.072 . S
Mg24 O25 2.099 . S
Mg24 O27 2.079 . S
Mg24 O28 2.072 . S
Mg24 O30 2.099 . S
Mg24 O41 2.079 . S
O25 Mg22 2.180 . S
O25 Mg24 2.099 . S
O25 C36 1.279 . S
O26 Mg22 2.117 . S
O26 C36 1.250 . S
O27 Mg24 2.079 . S
O27 C37 1.264 . S
O28 Mg24 2.072 . S
O28 C38 1.260 . S
Mg29 O30 2.180 . S
Mg29 O31 2.030 . S
Mg29 O32 1.990 . S
Mg29 O33 2.117 . S
O30 Mg24 2.099 . S
O30 Mg29 2.180 . S
O30 C39 1.279 . S
O31 Mg29 2.030 . S
O31 C37 1.248 . S
O32 Mg29 1.990 . S
O32 C38 1.253 . S
O33 Mg29 2.117 . S
O33 C39 1.250 . S
C34 O40 1.248 . S
C34 O41 1.264 . S
C35 O21 1.253 . S
C35 O23 1.260 . S
C36 O25 1.279 . S
C36 O26 1.250 . S
C37 O27 1.264 . S
C37 O31 1.248 . S
C38 O28 1.260 . S
C38 O32 1.253 . S
C39 O30 1.279 . S
C39 O33 1.250 . S
O40 Mg22 2.030 . S
O40 C34 1.248 . S
O41 Mg24 2.079 . S
O41 C34 1.264 . S
P42 O53 1.490 . S
P42 C56 1.812 . S
P42 C62 1.803 1_545 S
P42 C68 1.819 . S
H43 C57 0.941 . S
H44 C58 0.939 . S
H45 C60 0.940 . S
H46 C61 0.940 . S
H47 C63 0.939 . S
H48 C64 0.942 . S
H49 C66 0.940 . S
H50 C67 0.939 . S
H51 C69 0.941 . S
H52 C73 0.939 . S
O53 P42 1.490 . S
H54 C70 0.939 . S
H55 C72 0.940 . S
C56 P42 1.812 . S
C56 C57 1.389 . S
C56 C61 1.391 1_455 S
C57 H43 0.941 . S
C57 C56 1.389 . S
C57 C58 1.397 . S
C58 H44 0.939 . S
C58 C57 1.397 . S
C58 C59 1.378 1_455 S
C59 C58 1.378 1_655 S
C59 C60 1.378 . S
C60 H45 0.940 . S
C60 C59 1.378 . S
C60 C61 1.396 . S
C61 H46 0.940 . S
C61 C56 1.391 1_655 S
C61 C60 1.396 . S
C62 P42 1.803 1_565 S
C62 C63 1.378 . S
C62 C67 1.400 . S
C63 H47 0.939 . S
C63 C62 1.378 . S
C63 C64 1.361 . S
C64 H48 0.942 . S
C64 C63 1.361 . S
C64 C65 1.369 . S
C65 C64 1.369 . S
C65 C66 1.404 . S
C66 H49 0.940 . S
C66 C65 1.404 . S
C66 C67 1.389 . S
C67 H50 0.939 . S
C67 C62 1.400 . S
C67 C66 1.389 . S
C68 P42 1.819 . S
C68 C69 1.391 . S
C68 C73 1.391 1_545 S
C69 H51 0.941 . S
C69 C68 1.391 . S
C69 C70 1.396 . S
C70 H54 0.939 . S
C70 C69 1.396 . S
C70 C71 1.397 . S
C71 C70 1.397 . S
C71 C72 1.385 1_545 S
C72 H55 0.940 . S
C72 C71 1.385 1_565 S
C72 C73 1.388 . S
C73 H52 0.939 . S
C73 C68 1.391 1_565 S
C73 C72 1.388 . S
P74 O85 1.490 . S
P74 C88 1.806 1_455 S
P74 C94 1.803 . S
P74 C100 1.819 . S
H75 C89 0.941 . S
H76 C90 0.939 . S
H77 C92 0.940 . S
H78 C93 0.940 . S
H79 C95 0.939 . S
H80 C96 0.942 . S
H81 C98 0.940 . S
H82 C99 0.955 . S
H83 C101 0.941 1_565 S
H84 C105 0.939 . S
O85 P74 1.490 . S
H86 C102 0.939 . S
H87 C104 0.940 . S
C88 P74 1.806 1_655 S
C88 C89 1.388 1_645 S
C88 C93 1.397 . S
C89 H75 0.941 . S
C89 C88 1.388 1_465 S
C89 C90 1.397 1_455 S
C90 H76 0.939 . S
C90 C89 1.397 1_655 S
C90 C91 1.378 . S
C91 C90 1.378 . S
C91 C92 1.378 1_565 S
C92 H77 0.940 . S
C92 C91 1.378 1_545 S
C92 C93 1.396 . S
C93 H78 0.940 . S
C93 C88 1.397 . S
C93 C92 1.396 . S
C94 P74 1.803 . S
C94 C95 1.378 . S
C94 C99 1.400 . S
C95 H79 0.939 . S
C95 C94 1.378 . S
C95 C96 1.361 . S
C96 H80 0.942 . S
C96 C95 1.361 . S
C96 C97 1.369 . S
C97 C96 1.369 . S
C97 C98 1.404 . S
C98 H81 0.940 . S
C98 C97 1.404 . S
C98 C99 1.389 . S
C99 H82 0.955 . S
C99 C94 1.400 . S
C99 C98 1.389 . S
C100 P74 1.819 . S
C100 C101 1.391 . S
C100 C105 1.391 . S
C101 H83 0.941 1_545 S
C101 C100 1.391 . S
C101 C102 1.396 . S
C102 H86 0.939 . S
C102 C101 1.396 . S
C102 C103 1.397 . S
C103 C102 1.397 . S
C103 C104 1.385 . S
C104 H87 0.940 . S
C104 C103 1.385 . S
C104 C105 1.388 . S
C105 H84 0.939 . S
C105 C100 1.391 . S
C105 C104 1.388 . S
P106 O117 1.490 . S
P106 C120 1.812 . S
P106 C126 1.803 . S
P106 C132 1.819 . S
H107 C121 0.941 . S
H108 C122 0.939 . S
H109 C124 0.940 . S
H110 C125 0.940 . S
H111 C127 0.939 . S
H112 C128 0.942 . S
H113 C130 0.940 . S
H114 C131 0.939 . S
H115 C133 0.941 . S
H116 C137 0.939 . S
O117 P106 1.490 . S
H118 C134 0.939 . S
H119 C136 0.940 . S
C120 P106 1.812 . S
C120 C121 1.389 . S
C120 C125 1.391 . S
C121 H107 0.941 . S
C121 C120 1.389 . S
C121 C122 1.397 . S
C122 H108 0.939 . S
C122 C121 1.397 . S
C122 C123 1.378 . S
C123 C122 1.378 . S
C123 C124 1.378 . S
C124 H109 0.940 . S
C124 C123 1.378 . S
C124 C125 1.396 . S
C125 H110 0.940 . S
C125 C120 1.391 . S
C125 C124 1.396 . S
C126 P106 1.803 . S
C126 C127 1.378 . S
C126 C131 1.400 . S
C127 H111 0.939 . S
C127 C126 1.378 . S
C127 C128 1.361 . S
C128 H112 0.942 . S
C128 C127 1.361 . S
C128 C129 1.369 . S
C129 C128 1.369 . S
C129 C130 1.404 . S
C130 H113 0.940 . S
C130 C129 1.404 . S
C130 C131 1.389 . S
C131 H114 0.939 . S
C131 C126 1.400 . S
C131 C130 1.389 . S
C132 P106 1.819 . S
C132 C133 1.391 . S
C132 C137 1.391 . S
C133 H115 0.941 . S
C133 C132 1.391 . S
C133 C134 1.396 . S
C134 H118 0.939 . S
C134 C133 1.396 . S
C134 C135 1.397 . S
C135 C134 1.397 . S
C135 C136 1.385 . S
C136 H119 0.940 . S
C136 C135 1.385 . S
C136 C137 1.388 . S
C137 H116 0.939 . S
C137 C132 1.391 . S
C137 C136 1.388 . S
P138 O149 1.490 . S
P138 C152 1.812 . S
P138 C158 1.803 . S
P138 C164 1.819 . S
H139 C153 0.941 . S
H140 C154 0.939 . S
H141 C156 0.940 . S
H142 C157 0.940 . S
H143 C159 0.939 . S
H144 C160 0.942 . S
H145 C162 0.940 . S
H146 C163 0.939 . S
H147 C165 0.941 . S
H148 C169 0.939 . S
O149 P138 1.490 . S
H150 C166 0.939 . S
H151 C168 0.940 . S
C152 P138 1.812 . S
C152 C153 1.389 . S
C152 C157 1.391 . S
C153 H139 0.941 . S
C153 C152 1.389 . S
C153 C154 1.397 . S
C154 H140 0.939 . S
C154 C153 1.397 . S
C154 C155 1.378 . S
C155 C154 1.378 . S
C155 C156 1.378 . S
C156 H141 0.940 . S
C156 C155 1.378 . S
C156 C157 1.396 . S
C157 H142 0.940 . S
C157 C152 1.391 . S
C157 C156 1.396 . S
C158 P138 1.803 . S
C158 C159 1.378 . S
C158 C163 1.400 . S
C159 H143 0.939 . S
C159 C158 1.378 . S
C159 C160 1.361 . S
C160 H144 0.942 . S
C160 C159 1.361 . S
C160 C161 1.369 . S
C161 C160 1.369 . S
C161 C162 1.404 . S
C162 H145 0.940 . S
C162 C161 1.404 . S
C162 C163 1.389 . S
C163 H146 0.939 . S
C163 C158 1.400 . S
C163 C162 1.389 . S
C164 P138 1.819 . S
C164 C165 1.391 . S
C164 C169 1.391 . S
C165 H147 0.941 . S
C165 C164 1.391 . S
C165 C166 1.396 . S
C166 H150 0.939 . S
C166 C165 1.396 . S
C166 C167 1.397 . S
C167 C166 1.397 . S
C167 C168 1.385 . S
C168 H151 0.940 . S
C168 C167 1.385 . S
C168 C169 1.388 . S
C169 H148 0.939 . S
C169 C164 1.391 . S
C169 C168 1.388 . S
H170 C188 0.951 . S
H171 C190 0.951 . S
H172 C192 0.950 1_556 S
H173 C193 0.950 . S
H174 C195 0.950 1_556 S
H175 C198 0.950 . S
H176 C199 0.950 . S
H177 C201 0.950 . S
H178 C202 0.950 . S
H179 C203 0.951 . S
H180 C205 0.951 . S
H181 C207 0.950 . S
H182 C208 0.950 . S
H183 C210 0.950 . S
H184 C213 0.950 . S
H185 C214 0.950 . S
H186 C216 0.950 . S
H187 C217 0.950 . S
C188 H170 0.951 . S
C188 C189 1.366 . S
C188 C190 1.388 . S
C189 C188 1.366 . S
C189 C193 1.385 1_554 S
C190 H171 0.951 . S
C190 C188 1.388 . S
C190 C191 1.366 . S
C191 C190 1.366 . S
C191 C192 1.414 . S
C191 C194 1.499 . S
C192 H172 0.950 1_554 S
C192 C191 1.414 . S
C192 C193 1.374 1_554 S
C193 H173 0.950 . S
C193 C189 1.385 1_556 S
C193 C192 1.374 1_556 S
C194 C191 1.499 . S
C194 C195 1.373 . S
C194 C196 1.389 . S
C195 H174 0.950 1_554 S
C195 C194 1.373 . S
C195 C211 1.377 . S
C196 C194 1.389 . S
C196 C197 1.524 . S
C196 C210 1.377 . S
C197 C196 1.524 . S
C197 C198 1.397 . S
C197 C202 1.363 . S
C198 H175 0.950 . S
C198 C197 1.397 . S
C198 C199 1.334 . S
C199 H176 0.950 . S
C199 C198 1.334 . S
C199 C200 1.287 . S
C200 C199 1.287 . S
C200 C201 1.524 . S
C200 H219 0.913 . S
C201 H177 0.950 . S
C201 C200 1.524 . S
C201 C202 1.415 . S
C202 H178 0.950 . S
C202 C197 1.363 . S
C202 C201 1.415 . S
C203 H179 0.951 . S
C203 C204 1.366 . S
C203 C205 1.388 . S
C204 C203 1.366 . S
C204 C208 1.385 . S
C205 H180 0.951 . S
C205 C203 1.388 . S
C205 C206 1.366 . S
C206 C205 1.366 . S
C206 C207 1.414 . S
C206 C209 1.499 . S
C207 H181 0.950 . S
C207 C206 1.414 . S
C207 C208 1.374 . S
C208 H182 0.950 . S
C208 C204 1.385 . S
C208 C207 1.374 . S
C209 C206 1.499 . S
C209 C210 1.373 . S
C209 C211 1.389 . S
C210 H183 0.950 . S
C210 C196 1.377 . S
C210 C209 1.373 . S
C211 C195 1.377 . S
C211 C209 1.389 . S
C211 C212 1.524 1_554 S
C212 C211 1.524 1_556 S
C212 C213 1.397 . S
C212 C217 1.363 . S
C213 H184 0.950 . S
C213 C212 1.397 . S
C213 C214 1.334 . S
C214 H185 0.950 . S
C214 C213 1.334 . S
C214 C215 1.287 . S
C215 C214 1.287 . S
C215 C216 1.524 . S
C215 H218 0.999 . S
C216 H186 0.950 . S
C216 C215 1.524 . S
C216 C217 1.415 . S
C217 H187 0.950 . S
C217 C212 1.363 . S
C217 C216 1.415 . S
H218 C215 0.999 . S
H219 C200 0.913 . S
H220 C238 0.951 . S
H221 C240 0.951 . S
H222 C242 0.950 . S
H223 C243 0.950 . S
H224 C245 0.950 . S
H225 C248 0.950 . S
H226 C249 0.950 . S
H227 C251 0.950 . S
H228 C252 0.950 . S
H229 C253 0.951 1_554 S
H230 C255 0.951 1_554 S
H231 C257 0.950 . S
H232 C258 0.950 . S
H233 C260 0.950 . S
H234 C263 0.924 1_556 S
H235 C264 0.950 . S
H236 C266 0.950 . S
H237 C267 0.950 . S
C238 H220 0.951 . S
C238 C239 1.366 1_556 S
C238 C240 1.388 . S
C239 C238 1.366 1_554 S
C239 C243 1.385 . S
C240 H221 0.951 . S
C240 C238 1.388 . S
C240 C241 1.366 . S
C241 C240 1.366 . S
C241 C242 1.414 1_556 S
C241 C244 1.499 . S
C242 H222 0.950 . S
C242 C241 1.414 1_554 S
C242 C243 1.374 . S
C243 H223 0.950 . S
C243 C239 1.385 . S
C243 C242 1.374 . S
C244 C241 1.499 . S
C244 C245 1.373 1_556 S
C244 C246 1.389 . S
C245 H224 0.950 . S
C245 C244 1.373 1_554 S
C245 C261 1.378 . S
C246 C244 1.389 . S
C246 C247 1.524 . S
C246 C260 1.377 . S
C247 C246 1.524 . S
C247 C248 1.397 . S
C247 C252 1.363 . S
C248 H225 0.950 . S
C248 C247 1.397 . S
C248 C249 1.334 . S
C249 H226 0.950 . S
C249 C248 1.334 . S
C249 C250 1.287 . S
C250 C249 1.287 . S
C250 C251 1.524 . S
C250 H269 0.913 . S
C251 H227 0.950 . S
C251 C250 1.524 . S
C251 C252 1.415 . S
C252 H228 0.950 . S
C252 C247 1.363 . S
C252 C251 1.415 . S
C253 H229 0.951 1_556 S
C253 C254 1.366 . S
C253 C255 1.388 . S
C254 C253 1.366 . S
C254 C258 1.385 . S
C255 H230 0.951 1_556 S
C255 C253 1.388 . S
C255 C256 1.366 . S
C256 C255 1.366 . S
C256 C257 1.414 . S
C256 C259 1.499 . S
C257 H231 0.950 . S
C257 C256 1.414 . S
C257 C258 1.374 . S
C258 H232 0.950 . S
C258 C254 1.385 . S
C258 C257 1.374 . S
C259 C256 1.499 . S
C259 C260 1.373 . S
C259 C261 1.378 1_556 S
C260 H233 0.950 . S
C260 C246 1.377 . S
C260 C259 1.373 . S
C261 C245 1.378 . S
C261 C259 1.378 1_554 S
C261 C262 1.534 . S
C262 C261 1.534 . S
C262 C263 1.411 . S
C262 C267 1.363 . S
C263 H234 0.924 1_554 S
C263 C262 1.411 . S
C263 C264 1.346 . S
C264 H235 0.950 . S
C264 C263 1.346 . S
C264 C265 1.287 . S
C265 C264 1.287 . S
C265 C266 1.524 . S
C265 H268 0.999 . S
C266 H236 0.950 . S
C266 C265 1.524 . S
C266 C267 1.415 . S
C267 H237 0.950 . S
C267 C262 1.363 . S
C267 C266 1.415 . S
H268 C265 0.999 . S
H269 C250 0.913 . S
H270 C288 0.951 . S
H271 C290 0.951 . S
H272 C292 0.950 1_556 S
H273 C293 0.950 1_556 S
H274 C295 0.950 . S
H275 C298 0.950 . S
H276 C299 0.950 . S
H277 C301 0.950 . S
H278 C302 0.950 . S
H279 C303 0.951 . S
H280 C305 0.951 . S
H281 C307 0.950 . S
H282 C308 0.950 . S
H283 C310 0.950 . S
H284 C313 0.950 . S
H285 C314 0.950 . S
H286 C316 0.950 . S
H287 C317 0.950 . S
C288 H270 0.951 . S
C288 C289 1.366 . S
C288 C290 1.388 . S
C289 C288 1.366 . S
C289 C293 1.385 . S
C290 H271 0.951 . S
C290 C288 1.388 . S
C290 C291 1.366 . S
C291 C290 1.366 . S
C291 C292 1.414 . S
C291 C294 1.499 . S
C292 H272 0.950 1_554 S
C292 C291 1.414 . S
C292 C293 1.374 . S
C293 H273 0.950 1_554 S
C293 C289 1.385 . S
C293 C292 1.374 . S
C294 C291 1.499 . S
C294 C295 1.373 . S
C294 C296 1.389 . S
C295 H274 0.950 . S
C295 C294 1.373 . S
C295 C311 1.377 . S
C296 C294 1.389 . S
C296 C297 1.524 . S
C296 C310 1.377 . S
C297 C296 1.524 . S
C297 C298 1.397 1_554 S
C297 C302 1.363 . S
C298 H275 0.950 . S
C298 C297 1.397 1_556 S
C298 C299 1.334 . S
C299 H276 0.950 . S
C299 C298 1.334 . S
C299 C300 1.287 . S
C300 C299 1.287 . S
C300 C301 1.524 1_556 S
C300 H319 0.913 . S
C301 H277 0.950 . S
C301 C300 1.524 1_554 S
C301 C302 1.415 . S
C302 H278 0.950 . S
C302 C297 1.363 . S
C302 C301 1.415 . S
C303 H279 0.951 . S
C303 C304 1.366 . S
C303 C305 1.388 . S
C304 C303 1.366 . S
C304 C308 1.385 . S
C305 H280 0.951 . S
C305 C303 1.388 . S
C305 C306 1.366 . S
C306 C305 1.366 . S
C306 C307 1.414 . S
C306 C309 1.499 . S
C307 H281 0.950 . S
C307 C306 1.414 . S
C307 C308 1.374 . S
C308 H282 0.950 . S
C308 C304 1.385 . S
C308 C307 1.374 . S
C309 C306 1.499 . S
C309 C310 1.373 . S
C309 C311 1.389 . S
C310 H283 0.950 . S
C310 C296 1.377 . S
C310 C309 1.373 . S
C311 C295 1.377 . S
C311 C309 1.389 . S
C311 C312 1.524 . S
C312 C311 1.524 . S
C312 C313 1.397 . S
C312 C317 1.363 . S
C313 H284 0.950 . S
C313 C312 1.397 . S
C313 C314 1.334 . S
C314 H285 0.950 . S
C314 C313 1.334 . S
C314 C315 1.287 . S
C315 C314 1.287 . S
C315 C316 1.524 . S
C315 H318 0.999 . S
C316 H286 0.950 . S
C316 C315 1.524 . S
C316 C317 1.415 . S
C317 H287 0.950 . S
C317 C312 1.363 . S
C317 C316 1.415 . S
H318 C315 0.999 . S
H319 C300 0.913 . S
H320 C338 0.951 . S
H321 C340 0.951 . S
H322 C342 0.950 . S
H323 C343 0.950 . S
H324 C345 0.950 . S
H325 C348 0.950 . S
H326 C349 0.950 . S
H327 C351 0.950 . S
H328 C352 0.950 . S
H329 C353 0.951 . S
H330 C355 0.951 . S
H331 C357 0.950 . S
H332 C358 0.950 . S
H333 C360 0.950 . S
H334 C363 0.950 . S
H335 C364 0.950 . S
H336 C366 0.950 . S
H337 C367 0.950 . S
C338 H320 0.951 . S
C338 C339 1.366 1_556 S
C338 C340 1.388 . S
C339 C338 1.366 1_554 S
C339 C343 1.385 . S
C340 H321 0.951 . S
C340 C338 1.388 . S
C340 C341 1.366 . S
C341 C340 1.366 . S
C341 C342 1.414 . S
C341 C344 1.499 . S
C342 H322 0.950 . S
C342 C341 1.414 . S
C342 C343 1.374 1_556 S
C343 H323 0.950 . S
C343 C339 1.385 . S
C343 C342 1.374 1_554 S
C344 C341 1.499 . S
C344 C345 1.373 1_556 S
C344 C346 1.389 . S
C345 H324 0.950 . S
C345 C344 1.373 1_554 S
C345 C361 1.385 . S
C346 C344 1.389 . S
C346 C347 1.524 . S
C346 C360 1.377 . S
C347 C346 1.524 . S
C347 C348 1.397 . S
C347 C352 1.363 . S
C348 H325 0.950 . S
C348 C347 1.397 . S
C348 C349 1.334 . S
C349 H326 0.950 . S
C349 C348 1.334 . S
C349 C350 1.287 . S
C350 C349 1.287 . S
C350 C351 1.524 . S
C350 H369 0.913 . S
C351 H327 0.950 . S
C351 C350 1.524 . S
C351 C352 1.415 . S
C352 H328 0.950 . S
C352 C347 1.363 . S
C352 C351 1.415 . S
C353 H329 0.951 . S
C353 C354 1.366 . S
C353 C355 1.388 . S
C354 C353 1.366 . S
C354 C358 1.385 . S
C355 H330 0.951 . S
C355 C353 1.388 . S
C355 C356 1.366 . S
C356 C355 1.366 . S
C356 C357 1.414 . S
C356 C359 1.499 . S
C357 H331 0.950 . S
C357 C356 1.414 . S
C357 C358 1.374 . S
C358 H332 0.950 . S
C358 C354 1.385 . S
C358 C357 1.374 . S
C359 C356 1.499 . S
C359 C360 1.373 . S
C359 C361 1.361 1_556 S
C360 H333 0.950 . S
C360 C346 1.377 . S
C360 C359 1.373 . S
C361 C345 1.385 . S
C361 C359 1.361 1_554 S
C361 C362 1.548 . S
C362 C361 1.548 . S
C362 C363 1.397 . S
C362 C367 1.363 . S
C363 H334 0.950 . S
C363 C362 1.397 . S
C363 C364 1.334 . S
C364 H335 0.950 . S
C364 C363 1.334 . S
C364 C365 1.287 . S
C365 C364 1.287 . S
C365 C366 1.524 . S
C365 H368 0.999 . S
C366 H336 0.950 . S
C366 C365 1.524 . S
C366 C367 1.415 . S
C367 H337 0.950 . S
C367 C362 1.363 . S
C367 C366 1.415 . S
H368 C365 0.999 . S
H369 C350 0.913 . S
H370 C388 0.951 . S
H371 C390 0.951 . S
H372 C392 0.950 . S
H373 C393 0.950 . S
H374 C395 0.950 . S
H375 C398 0.950 . S
H376 C399 0.950 . S
H377 C401 0.950 . S
H378 C402 0.950 . S
H379 C403 0.951 . S
H380 C405 0.951 . S
H381 C407 0.950 . S
H382 C408 0.950 . S
H383 C410 0.950 . S
H384 C413 0.950 . S
H385 C414 0.950 . S
H386 C416 0.950 . S
H387 C417 0.950 . S
C388 H370 0.951 . S
C388 C389 1.366 . S
C388 C390 1.388 . S
C389 C388 1.366 . S
C389 C393 1.385 . S
C390 H371 0.951 . S
C390 C388 1.388 . S
C390 C391 1.366 . S
C391 C390 1.366 . S
C391 C392 1.414 . S
C391 C394 1.499 . S
C392 H372 0.950 . S
C392 C391 1.414 . S
C392 C393 1.374 . S
C393 H373 0.950 . S
C393 C389 1.385 . S
C393 C392 1.374 . S
C394 C391 1.499 . S
C394 C395 1.373 . S
C394 C396 1.389 . S
C395 H374 0.950 . S
C395 C394 1.373 . S
C395 C411 1.377 . S
C396 C394 1.389 . S
C396 C397 1.524 . S
C396 C410 1.377 . S
C397 C396 1.524 . S
C397 C398 1.397 . S
C397 C402 1.363 . S
C398 H375 0.950 . S
C398 C397 1.397 . S
C398 C399 1.334 . S
C399 H376 0.950 . S
C399 C398 1.334 . S
C399 C400 1.287 . S
C400 C399 1.287 . S
C400 C401 1.524 . S
C400 H419 0.913 . S
C401 H377 0.950 . S
C401 C400 1.524 . S
C401 C402 1.415 . S
C402 H378 0.950 . S
C402 C397 1.363 . S
C402 C401 1.415 . S
C403 H379 0.951 . S
C403 C404 1.366 . S
C403 C405 1.388 . S
C404 C403 1.366 . S
C404 C408 1.385 . S
C405 H380 0.951 . S
C405 C403 1.388 . S
C405 C406 1.366 . S
C406 C405 1.366 . S
C406 C407 1.414 . S
C406 C409 1.499 . S
C407 H381 0.950 . S
C407 C406 1.414 . S
C407 C408 1.374 . S
C408 H382 0.950 . S
C408 C404 1.385 . S
C408 C407 1.374 . S
C409 C406 1.499 . S
C409 C410 1.373 . S
C409 C411 1.389 . S
C410 H383 0.950 . S
C410 C396 1.377 . S
C410 C409 1.373 . S
C411 C395 1.377 . S
C411 C409 1.389 . S
C411 C412 1.524 . S
C412 C411 1.524 . S
C412 C413 1.397 . S
C412 C417 1.363 . S
C413 H384 0.950 . S
C413 C412 1.397 . S
C413 C414 1.334 . S
C414 H385 0.950 . S
C414 C413 1.334 . S
C414 C415 1.287 . S
C415 C414 1.287 . S
C415 C416 1.524 . S
C415 H418 0.999 . S
C416 H386 0.950 . S
C416 C415 1.524 . S
C416 C417 1.415 . S
C417 H387 0.950 . S
C417 C412 1.363 . S
C417 C416 1.415 . S
H418 C415 0.999 . S
H419 C400 0.913 . S
H420 C438 0.951 . S
H421 C440 0.951 . S
H422 C442 0.950 . S
H423 C443 0.950 . S
H424 C445 0.950 . S
H425 C448 0.950 . S
H426 C449 0.950 . S
H427 C451 0.950 . S
H428 C452 0.950 . S
H429 C453 0.951 . S
H430 C455 0.951 . S
H431 C457 0.950 . S
H432 C458 0.950 . S
H433 C460 0.950 . S
H434 C463 0.950 . S
H435 C464 0.950 1_455 S
H436 C466 0.950 . S
H437 C467 0.950 . S
C438 H420 0.951 . S
C438 C439 1.366 . S
C438 C440 1.388 . S
C439 C438 1.366 . S
C439 C443 1.385 . S
C440 H421 0.951 . S
C440 C438 1.388 . S
C440 C441 1.366 . S
C441 C440 1.366 . S
C441 C442 1.414 . S
C441 C444 1.499 . S
C442 H422 0.950 . S
C442 C441 1.414 . S
C442 C443 1.374 . S
C443 H423 0.950 . S
C443 C439 1.385 . S
C443 C442 1.374 . S
C444 C441 1.499 . S
C444 C445 1.373 . S
C444 C446 1.389 . S
C445 H424 0.950 . S
C445 C444 1.373 . S
C445 C461 1.377 . S
C446 C444 1.389 . S
C446 C447 1.524 . S
C446 C460 1.377 . S
C447 C446 1.524 . S
C447 C448 1.397 . S
C447 C452 1.363 . S
C448 H425 0.950 . S
C448 C447 1.397 . S
C448 C449 1.334 . S
C449 H426 0.950 . S
C449 C448 1.334 . S
C449 C450 1.287 . S
C450 C449 1.287 . S
C450 C451 1.524 . S
C450 H469 0.913 . S
C451 H427 0.950 . S
C451 C450 1.524 . S
C451 C452 1.415 . S
C452 H428 0.950 . S
C452 C447 1.363 . S
C452 C451 1.415 . S
C453 H429 0.951 . S
C453 C454 1.366 . S
C453 C455 1.388 . S
C454 C453 1.366 . S
C454 C458 1.385 . S
C455 H430 0.951 . S
C455 C453 1.388 . S
C455 C456 1.366 . S
C456 C455 1.366 . S
C456 C457 1.414 . S
C456 C459 1.499 . S
C457 H431 0.950 . S
C457 C456 1.414 . S
C457 C458 1.374 . S
C458 H432 0.950 . S
C458 C454 1.385 . S
C458 C457 1.374 . S
C459 C456 1.499 . S
C459 C460 1.373 . S
C459 C461 1.389 . S
C460 H433 0.950 . S
C460 C446 1.377 . S
C460 C459 1.373 . S
C461 C445 1.377 . S
C461 C459 1.389 . S
C461 C462 1.524 . S
C462 C461 1.524 . S
C462 C463 1.397 . S
C462 C467 1.363 . S
C463 H434 0.950 . S
C463 C462 1.397 . S
C463 C464 1.334 . S
C464 H435 0.950 1_655 S
C464 C463 1.334 . S
C464 C465 1.287 . S
C465 C464 1.287 . S
C465 C466 1.524 . S
C465 H468 0.999 1_655 S
C466 H436 0.950 . S
C466 C465 1.524 . S
C466 C467 1.415 . S
C467 H437 0.950 . S
C467 C462 1.363 . S
C467 C466 1.415 . S
H468 C465 0.999 1_455 S
H469 C450 0.913 . S
H470 C488 0.951 . S
H471 C490 0.951 . S
H472 C492 0.950 . S
H473 C493 0.950 . S
H474 C495 0.950 . S
H475 C498 0.950 . S
H476 C499 0.950 . S
H477 C501 0.950 . S
H478 C502 0.950 . S
H479 C503 0.951 . S
H480 C505 0.951 . S
H481 C507 0.950 . S
H482 C508 0.950 . S
H483 C510 0.950 . S
H484 C513 0.950 . S
H485 C514 0.950 . S
H486 C516 0.950 . S
H487 C517 0.950 . S
C488 H470 0.951 . S
C488 C489 1.366 . S
C488 C490 1.388 . S
C489 C488 1.366 . S
C489 C493 1.385 . S
C490 H471 0.951 . S
C490 C488 1.388 . S
C490 C491 1.366 . S
C491 C490 1.366 . S
C491 C492 1.414 . S
C491 C494 1.499 . S
C492 H472 0.950 . S
C492 C491 1.414 . S
C492 C493 1.374 . S
C493 H473 0.950 . S
C493 C489 1.385 . S
C493 C492 1.374 . S
C494 C491 1.499 . S
C494 C495 1.373 . S
C494 C496 1.389 . S
C495 H474 0.950 . S
C495 C494 1.373 . S
C495 C511 1.377 . S
C496 C494 1.389 . S
C496 C497 1.524 . S
C496 C510 1.377 . S
C497 C496 1.524 . S
C497 C498 1.397 . S
C497 C502 1.363 . S
C498 H475 0.950 . S
C498 C497 1.397 . S
C498 C499 1.334 . S
C499 H476 0.950 . S
C499 C498 1.334 . S
C499 C500 1.287 . S
C500 C499 1.287 . S
C500 C501 1.524 . S
C500 H519 0.913 . S
C501 H477 0.950 . S
C501 C500 1.524 . S
C501 C502 1.415 . S
C502 H478 0.950 . S
C502 C497 1.363 . S
C502 C501 1.415 . S
C503 H479 0.951 . S
C503 C504 1.366 . S
C503 C505 1.388 . S
C504 C503 1.366 . S
C504 C508 1.385 . S
C505 H480 0.951 . S
C505 C503 1.388 . S
C505 C506 1.366 . S
C506 C505 1.366 . S
C506 C507 1.414 . S
C506 C509 1.499 . S
C507 H481 0.950 . S
C507 C506 1.414 . S
C507 C508 1.374 . S
C508 H482 0.950 . S
C508 C504 1.385 . S
C508 C507 1.374 . S
C509 C506 1.499 . S
C509 C510 1.373 . S
C509 C511 1.389 . S
C510 H483 0.950 . S
C510 C496 1.377 . S
C510 C509 1.373 . S
C511 C495 1.377 . S
C511 C509 1.389 . S
C511 C512 1.524 . S
C512 C511 1.524 . S
C512 C513 1.397 . S
C512 C517 1.363 . S
C513 H484 0.950 . S
C513 C512 1.397 . S
C513 C514 1.334 . S
C514 H485 0.950 . S
C514 C513 1.334 . S
C514 C515 1.287 . S
C515 C514 1.287 . S
C515 C516 1.524 . S
C515 H518 0.999 . S
C516 H486 0.950 . S
C516 C515 1.524 . S
C516 C517 1.415 . S
C517 H487 0.950 . S
C517 C512 1.363 . S
C517 C516 1.415 . S
H518 C515 0.999 . S
H519 C500 0.913 . S
H520 C538 0.951 . S
H521 C540 0.951 . S
H522 C542 0.950 . S
H523 C543 0.950 . S
H524 C545 0.950 . S
H525 C548 0.950 . S
H526 C549 0.950 . S
H527 C551 0.950 . S
H528 C552 0.950 . S
H529 C553 0.951 . S
H530 C555 0.951 . S
H531 C557 0.950 . S
H532 C558 0.950 . S
H533 C560 0.950 . S
H534 C563 0.950 . S
H535 C564 0.950 . S
H536 C566 0.950 . S
H537 C567 0.950 . S
C538 H520 0.951 . S
C538 C539 1.366 . S
C538 C540 1.388 . S
C539 C538 1.366 . S
C539 C543 1.385 . S
C540 H521 0.951 . S
C540 C538 1.388 . S
C540 C541 1.366 . S
C541 C540 1.366 . S
C541 C542 1.414 . S
C541 C544 1.499 . S
C542 H522 0.950 . S
C542 C541 1.414 . S
C542 C543 1.374 . S
C543 H523 0.950 . S
C543 C539 1.385 . S
C543 C542 1.374 . S
C544 C541 1.499 . S
C544 C545 1.373 . S
C544 C546 1.389 . S
C545 H524 0.950 . S
C545 C544 1.373 . S
C545 C561 1.377 . S
C546 C544 1.389 . S
C546 C547 1.524 . S
C546 C560 1.377 . S
C547 C546 1.524 . S
C547 C548 1.397 . S
C547 C552 1.363 . S
C548 H525 0.950 . S
C548 C547 1.397 . S
C548 C549 1.334 . S
C549 H526 0.950 . S
C549 C548 1.334 . S
C549 C550 1.287 . S
C550 C549 1.287 . S
C550 C551 1.524 . S
C550 H569 0.913 . S
C551 H527 0.950 . S
C551 C550 1.524 . S
C551 C552 1.415 . S
C552 H528 0.950 . S
C552 C547 1.363 . S
C552 C551 1.415 . S
C553 H529 0.951 . S
C553 C554 1.366 . S
C553 C555 1.388 . S
C554 C553 1.366 . S
C554 C558 1.385 . S
C555 H530 0.951 . S
C555 C553 1.388 . S
C555 C556 1.366 . S
C556 C555 1.366 . S
C556 C557 1.414 . S
C556 C559 1.499 . S
C557 H531 0.950 . S
C557 C556 1.414 . S
C557 C558 1.374 . S
C558 H532 0.950 . S
C558 C554 1.385 . S
C558 C557 1.374 . S
C559 C556 1.499 . S
C559 C560 1.373 . S
C559 C561 1.389 . S
C560 H533 0.950 . S
C560 C546 1.377 . S
C560 C559 1.373 . S
C561 C545 1.377 . S
C561 C559 1.389 . S
C561 C562 1.524 . S
C562 C561 1.524 . S
C562 C563 1.397 . S
C562 C567 1.363 . S
C563 H534 0.950 . S
C563 C562 1.397 . S
C563 C564 1.334 . S
C564 H535 0.950 . S
C564 C563 1.334 . S
C564 C565 1.287 . S
C565 C564 1.287 . S
C565 C566 1.524 . S
C565 H568 0.999 . S
C566 H536 0.950 . S
C566 C565 1.524 . S
C566 C567 1.415 . S
C567 H537 0.950 . S
C567 C562 1.363 . S
C567 C566 1.415 . S
H568 C565 0.999 . S
H569 C550 0.913 . S
H570 C588 0.951 . S
H571 C590 0.951 . S
H572 C592 0.950 1_655 S
H573 C593 0.950 1_655 S
H574 C595 0.950 1_655 S
H575 C598 0.950 . S
H576 C599 0.950 . S
H577 C601 0.950 . S
H578 C602 0.950 . S
H579 C603 0.951 1_655 S
H580 C605 0.951 1_655 S
H581 C607 0.950 . S
H582 C608 0.950 . S
H583 C610 0.950 . S
H584 C613 0.954 . S
H585 C614 0.950 . S
H586 C616 0.950 . S
H587 C617 0.950 . S
C588 H570 0.951 . S
C588 C589 1.366 . S
C588 C590 1.388 . S
C589 C588 1.366 . S
C589 C593 1.385 . S
C590 H571 0.951 . S
C590 C588 1.388 . S
C590 C591 1.366 . S
C591 C590 1.366 . S
C591 C592 1.414 . S
C591 C594 1.499 . S
C592 H572 0.950 1_455 S
C592 C591 1.414 . S
C592 C593 1.374 . S
C593 H573 0.950 1_455 S
C593 C589 1.385 . S
C593 C592 1.374 . S
C594 C591 1.499 . S
C594 C595 1.373 . S
C594 C596 1.389 1_545 S
C595 H574 0.950 1_455 S
C595 C594 1.373 . S
C595 C611 1.377 . S
C596 C594 1.389 1_565 S
C596 C597 1.524 . S
C596 C610 1.377 . S
C597 C596 1.524 . S
C597 C598 1.397 . S
C597 C602 1.363 . S
C598 H575 0.950 . S
C598 C597 1.397 . S
C598 C599 1.334 . S
C599 H576 0.950 . S
C599 C598 1.334 . S
C599 C600 1.287 . S
C600 C599 1.287 . S
C600 C601 1.524 . S
C600 H619 0.913 . S
C601 H577 0.950 . S
C601 C600 1.524 . S
C601 C602 1.415 . S
C602 H578 0.950 . S
C602 C597 1.363 . S
C602 C601 1.415 . S
C603 H579 0.951 1_455 S
C603 C604 1.367 . S
C603 C605 1.388 . S
C604 C603 1.367 . S
C604 C608 1.380 1_565 S
C605 H580 0.951 1_455 S
C605 C603 1.388 . S
C605 C606 1.366 1_565 S
C606 C605 1.366 1_545 S
C606 C607 1.414 . S
C606 C609 1.499 . S
C607 H581 0.950 . S
C607 C606 1.414 . S
C607 C608 1.374 . S
C608 H582 0.950 . S
C608 C604 1.380 1_545 S
C608 C607 1.374 . S
C609 C606 1.499 . S
C609 C610 1.373 1_545 S
C609 C611 1.389 . S
C610 H583 0.950 . S
C610 C596 1.377 . S
C610 C609 1.373 1_565 S
C611 C595 1.377 . S
C611 C609 1.389 . S
C611 C612 1.524 1_455 S
C612 C611 1.524 1_655 S
C612 C613 1.395 1_655 S
C612 C617 1.363 . S
C613 H584 0.954 . S
C613 C612 1.395 1_455 S
C613 C614 1.332 1_455 S
C614 H585 0.950 . S
C614 C613 1.332 1_655 S
C614 C615 1.287 . S
C615 C614 1.287 . S
C615 C616 1.524 . S
C615 H618 0.999 . S
C616 H586 0.950 . S
C616 C615 1.524 . S
C616 C617 1.415 . S
C617 H587 0.950 . S
C617 C612 1.363 . S
C617 C616 1.415 . S
H618 C615 0.999 . S
H619 C600 0.913 . S
H620 C638 0.951 1_565 S
H621 C640 0.951 1_565 S
H622 C642 0.950 . S
H623 C643 0.950 . S
H624 C645 0.950 . S
H625 C648 0.950 . S
H626 C649 0.950 . S
H627 C651 0.950 . S
H628 C652 0.950 . S
H629 C653 0.951 . S
H630 C655 0.951 . S
H631 C657 0.950 . S
H632 C658 0.950 1_655 S
H633 C660 0.950 . S
H634 C663 0.950 . S
H635 C664 0.950 . S
H636 C666 0.950 . S
H637 C667 0.950 . S
C638 H620 0.951 1_545 S
C638 C639 1.366 . S
C638 C640 1.388 . S
C639 C638 1.366 . S
C639 C643 1.385 . S
C640 H621 0.951 1_545 S
C640 C638 1.388 . S
C640 C641 1.366 . S
C641 C640 1.366 . S
C641 C642 1.414 . S
C641 C644 1.499 . S
C642 H622 0.950 . S
C642 C641 1.414 . S
C642 C643 1.374 . S
C643 H623 0.950 . S
C643 C639 1.385 . S
C643 C642 1.374 . S
C644 C641 1.499 . S
C644 C645 1.373 1_455 S
C644 C646 1.389 . S
C645 H624 0.950 . S
C645 C644 1.373 1_655 S
C645 C661 1.377 . S
C646 C644 1.389 . S
C646 C647 1.524 1_545 S
C646 C660 1.377 . S
C647 C646 1.524 1_565 S
C647 C648 1.397 1_565 S
C647 C652 1.363 . S
C648 H625 0.950 . S
C648 C647 1.397 1_545 S
C648 C649 1.334 1_545 S
C649 H626 0.950 . S
C649 C648 1.334 1_565 S
C649 C650 1.287 . S
C650 C649 1.287 . S
C650 C651 1.524 . S
C650 H669 0.913 . S
C651 H627 0.950 . S
C651 C650 1.524 . S
C651 C652 1.415 . S
C652 H628 0.950 . S
C652 C647 1.363 . S
C652 C651 1.415 . S
C653 H629 0.951 . S
C653 C654 1.366 . S
C653 C655 1.388 . S
C654 C653 1.366 . S
C654 C658 1.385 . S
C655 H630 0.951 . S
C655 C653 1.388 . S
C655 C656 1.366 . S
C656 C655 1.366 . S
C656 C657 1.414 . S
C656 C659 1.499 . S
C657 H631 0.950 . S
C657 C656 1.414 . S
C657 C658 1.374 . S
C658 H632 0.950 1_455 S
C658 C654 1.385 . S
C658 C657 1.374 . S
C659 C656 1.499 . S
C659 C660 1.373 . S
C659 C661 1.389 1_455 S
C660 H633 0.950 . S
C660 C646 1.377 . S
C660 C659 1.373 . S
C661 C645 1.377 . S
C661 C659 1.389 1_655 S
C661 C662 1.524 . S
C662 C661 1.524 . S
C662 C663 1.397 . S
C662 C667 1.363 . S
C663 H634 0.950 . S
C663 C662 1.397 . S
C663 C664 1.334 . S
C664 H635 0.950 . S
C664 C663 1.334 . S
C664 C665 1.287 . S
C665 C664 1.287 . S
C665 C666 1.524 . S
C665 H668 0.999 . S
C666 H636 0.950 . S
C666 C665 1.524 . S
C666 C667 1.415 . S
C667 H637 0.950 . S
C667 C662 1.363 . S
C667 C666 1.415 . S
H668 C665 0.999 . S
H669 C650 0.913 . S
H670 C688 0.951 . S
H671 C690 0.951 . S
H672 C692 0.950 . S
H673 C693 0.950 . S
H674 C695 0.950 . S
H675 C698 0.950 . S
H676 C699 0.950 . S
H677 C701 0.950 . S
H678 C702 0.950 . S
H679 C703 0.951 . S
H680 C705 0.951 . S
H681 C707 0.950 . S
H682 C708 0.950 . S
H683 C710 0.950 . S
H684 C713 0.950 . S
H685 C714 0.950 . S
H686 C716 0.950 . S
H687 C717 0.950 . S
C688 H670 0.951 . S
C688 C689 1.366 . S
C688 C690 1.388 . S
C689 C688 1.366 . S
C689 C693 1.385 . S
C690 H671 0.951 . S
C690 C688 1.388 . S
C690 C691 1.366 . S
C691 C690 1.366 . S
C691 C692 1.414 . S
C691 C694 1.499 . S
C692 H672 0.950 . S
C692 C691 1.414 . S
C692 C693 1.374 . S
C693 H673 0.950 . S
C693 C689 1.385 . S
C693 C692 1.374 . S
C694 C691 1.499 . S
C694 C695 1.373 . S
C694 C696 1.389 . S
C695 H674 0.950 . S
C695 C694 1.373 . S
C695 C711 1.377 . S
C696 C694 1.389 . S
C696 C697 1.524 . S
C696 C710 1.377 . S
C697 C696 1.524 . S
C697 C698 1.397 . S
C697 C702 1.363 . S
C698 H675 0.950 . S
C698 C697 1.397 . S
C698 C699 1.334 . S
C699 H676 0.950 . S
C699 C698 1.334 . S
C699 C700 1.287 . S
C700 C699 1.287 . S
C700 C701 1.524 . S
C700 H719 0.913 . S
C701 H677 0.950 . S
C701 C700 1.524 . S
C701 C702 1.415 . S
C702 H678 0.950 . S
C702 C697 1.363 . S
C702 C701 1.415 . S
C703 H679 0.951 . S
C703 C704 1.366 . S
C703 C705 1.388 . S
C704 C703 1.366 . S
C704 C708 1.385 . S
C705 H680 0.951 . S
C705 C703 1.388 . S
C705 C706 1.366 . S
C706 C705 1.366 . S
C706 C707 1.414 . S
C706 C709 1.499 . S
C707 H681 0.950 . S
C707 C706 1.414 . S
C707 C708 1.374 . S
C708 H682 0.950 . S
C708 C704 1.385 . S
C708 C707 1.374 . S
C709 C706 1.499 . S
C709 C710 1.373 . S
C709 C711 1.389 . S
C710 H683 0.950 . S
C710 C696 1.377 . S
C710 C709 1.373 . S
C711 C695 1.377 . S
C711 C709 1.389 . S
C711 C712 1.524 . S
C712 C711 1.524 . S
C712 C713 1.397 . S
C712 C717 1.363 . S
C713 H684 0.950 . S
C713 C712 1.397 . S
C713 C714 1.334 . S
C714 H685 0.950 . S
C714 C713 1.334 . S
C714 C715 1.287 . S
C715 C714 1.287 . S
C715 C716 1.524 . S
C715 H718 0.999 . S
C716 H686 0.950 . S
C716 C715 1.524 . S
C716 C717 1.415 . S
C717 H687 0.950 . S
C717 C712 1.363 . S
C717 C716 1.415 . S
H718 C715 0.999 . S
H719 C700 0.913 . S
H720 C738 0.951 . S
H721 C740 0.951 . S
H722 C742 0.950 . S
H723 C743 0.950 . S
H724 C745 0.950 . S
H725 C748 0.950 . S
H726 C749 0.950 . S
H727 C751 0.950 . S
H728 C752 0.950 . S
H729 C753 0.951 . S
H730 C755 0.951 . S
H731 C757 0.950 . S
H732 C758 0.950 . S
H733 C760 0.950 . S
H734 C763 0.950 . S
H735 C764 0.950 . S
H736 C766 0.950 . S
H737 C767 0.950 . S
C738 H720 0.951 . S
C738 C739 1.366 . S
C738 C740 1.388 . S
C739 C738 1.366 . S
C739 C743 1.385 . S
C740 H721 0.951 . S
C740 C738 1.388 . S
C740 C741 1.366 . S
C741 C740 1.366 . S
C741 C742 1.414 . S
C741 C744 1.499 . S
C742 H722 0.950 . S
C742 C741 1.414 . S
C742 C743 1.374 . S
C743 H723 0.950 . S
C743 C739 1.385 . S
C743 C742 1.374 . S
C744 C741 1.499 . S
C744 C745 1.373 . S
C744 C746 1.389 . S
C745 H724 0.950 . S
C745 C744 1.373 . S
C745 C761 1.377 . S
C746 C744 1.389 . S
C746 C747 1.524 . S
C746 C760 1.377 . S
C747 C746 1.524 . S
C747 C748 1.397 . S
C747 C752 1.363 . S
C748 H725 0.950 . S
C748 C747 1.397 . S
C748 C749 1.334 . S
C749 H726 0.950 . S
C749 C748 1.334 . S
C749 C750 1.287 . S
C750 C749 1.287 . S
C750 C751 1.524 . S
C750 H769 0.913 . S
C751 H727 0.950 . S
C751 C750 1.524 . S
C751 C752 1.415 . S
C752 H728 0.950 . S
C752 C747 1.363 . S
C752 C751 1.415 . S
C753 H729 0.951 . S
C753 C754 1.366 . S
C753 C755 1.388 . S
C754 C753 1.366 . S
C754 C758 1.385 . S
C755 H730 0.951 . S
C755 C753 1.388 . S
C755 C756 1.366 . S
C756 C755 1.366 . S
C756 C757 1.414 . S
C756 C759 1.499 . S
C757 H731 0.950 . S
C757 C756 1.414 . S
C757 C758 1.374 . S
C758 H732 0.950 . S
C758 C754 1.385 . S
C758 C757 1.374 . S
C759 C756 1.499 . S
C759 C760 1.373 . S
C759 C761 1.389 . S
C760 H733 0.950 . S
C760 C746 1.377 . S
C760 C759 1.373 . S
C761 C745 1.377 . S
C761 C759 1.389 . S
C761 C762 1.524 . S
C762 C761 1.524 . S
C762 C763 1.397 . S
C762 C767 1.363 . S
C763 H734 0.950 . S
C763 C762 1.397 . S
C763 C764 1.334 . S
C764 H735 0.950 . S
C764 C763 1.334 . S
C764 C765 1.287 . S
C765 C764 1.287 . S
C765 C766 1.524 . S
C765 H768 0.999 . S
C766 H736 0.950 . S
C766 C765 1.524 . S
C766 C767 1.415 . S
C767 H737 0.950 . S
C767 C762 1.363 . S
C767 C766 1.415 . S
H768 C765 0.999 . S
H769 C750 0.913 . S
C204 C155 1.336 . S
C189 C15 1.203 . S
C239 C13 1.425 . S
C254 C123 1.405 . S
C289 C18 1.257 . S
C304 C161 1.387 . S
C339 C17 1.267 . S
C354 C129 1.296 . S
C389 C36 1.203 . S
C404 C91 1.338 . S
C439 C34 1.425 . S
C454 C59 1.406 . S
C504 C97 1.387 . S
C489 C39 1.257 . S
C554 C65 1.295 . S
C539 C38 1.271 . S
C589 C14 1.511 . S
C604 C71 1.527 1_565 S
C639 C16 1.360 . S
C654 C103 1.364 . S
C704 C135 1.526 . S
C689 C35 1.511 . S
C739 C37 1.360 . S
C754 C167 1.364 . S
