# Generated by pormake.
# Topology pyr, (3,6)-cn, num edge types: 1
# Building blocks:
#     Node 0, Type 0, BuildingBlock: BELTOD_clean_linker_0, # of connection points: 3
#     Node 1, Type 0, BuildingBlock: BELTOD_clean_linker_0, # of connection points: 3
#     Node 2, Type 0, BuildingBlock: BELTOD_clean_linker_0, # of connection points: 3
#     Node 3, Type 0, BuildingBlock: BELTOD_clean_linker_0, # of connection points: 3
#     Node 4, Type 0, BuildingBlock: BELTOD_clean_linker_0, # of connection points: 3
#     Node 5, Type 0, BuildingBlock: BELTOD_clean_linker_0, # of connection points: 3
#     Node 6, Type 0, BuildingBlock: BELTOD_clean_linker_0, # of connection points: 3
#     Node 7, Type 0, BuildingBlock: BELTOD_clean_linker_0, # of connection points: 3
#     Node 8, Type 1, BuildingBlock: CIFDUS_clean_sbu_1, # of connection points: 6
#     Node 9, Type 1, BuildingBlock: CIFDUS_clean_sbu_1, # of connection points: 6
#     Node 10, Type 1, BuildingBlock: CIFDUS_clean_sbu_1, # of connection points: 6
#     Node 11, Type 1, BuildingBlock: CIFDUS_clean_sbu_1, # of connection points: 6
#     Edge 12, Type (0, 1), BuildingBlock: CIFDUS_clean_linker_0, # of connection points: 2
#     Edge 13, Type (0, 1), BuildingBlock: CIFDUS_clean_linker_0, # of connection points: 2
#     Edge 14, Type (0, 1), BuildingBlock: CIFDUS_clean_linker_0, # of connection points: 2
#     Edge 15, Type (0, 1), BuildingBlock: CIFDUS_clean_linker_0, # of connection points: 2
#     Edge 16, Type (0, 1), BuildingBlock: CIFDUS_clean_linker_0, # of connection points: 2
#     Edge 17, Type (0, 1), BuildingBlock: CIFDUS_clean_linker_0, # of connection points: 2
#     Edge 18, Type (0, 1), BuildingBlock: CIFDUS_clean_linker_0, # of connection points: 2
#     Edge 19, Type (0, 1), BuildingBlock: CIFDUS_clean_linker_0, # of connection points: 2
#     Edge 20, Type (0, 1), BuildingBlock: CIFDUS_clean_linker_0, # of connection points: 2
#     Edge 21, Type (0, 1), BuildingBlock: CIFDUS_clean_linker_0, # of connection points: 2
#     Edge 22, Type (0, 1), BuildingBlock: CIFDUS_clean_linker_0, # of connection points: 2
#     Edge 23, Type (0, 1), BuildingBlock: CIFDUS_clean_linker_0, # of connection points: 2
#     Edge 24, Type (0, 1), BuildingBlock: CIFDUS_clean_linker_0, # of connection points: 2
#     Edge 25, Type (0, 1), BuildingBlock: CIFDUS_clean_linker_0, # of connection points: 2
#     Edge 26, Type (0, 1), BuildingBlock: CIFDUS_clean_linker_0, # of connection points: 2
#     Edge 27, Type (0, 1), BuildingBlock: CIFDUS_clean_linker_0, # of connection points: 2
#     Edge 28, Type (0, 1), BuildingBlock: CIFDUS_clean_linker_0, # of connection points: 2
#     Edge 29, Type (0, 1), BuildingBlock: CIFDUS_clean_linker_0, # of connection points: 2
#     Edge 30, Type (0, 1), BuildingBlock: CIFDUS_clean_linker_0, # of connection points: 2
#     Edge 31, Type (0, 1), BuildingBlock: CIFDUS_clean_linker_0, # of connection points: 2
#     Edge 32, Type (0, 1), BuildingBlock: CIFDUS_clean_linker_0, # of connection points: 2
#     Edge 33, Type (0, 1), BuildingBlock: CIFDUS_clean_linker_0, # of connection points: 2
#     Edge 34, Type (0, 1), BuildingBlock: CIFDUS_clean_linker_0, # of connection points: 2
#     Edge 35, Type (0, 1), BuildingBlock: CIFDUS_clean_linker_0, # of connection points: 2
# Relax obj value: 0.036
# Max RMSD: 0.108
# Mean RMSD: 0.051
data_MOF--net-pry--node1-CIFDUS_clean_sbu_1--node2-BELTOD_clean_linker_0--edge1-CIFDUS_clean_linker_0
_symmetry_space_group_name_H-M    P1
_symmetry_Int_Tables_number       1
_symmetry_cell_setting            triclinic
loop_
_symmetry_equiv_pos_as_xyz
'x, y, z'
_cell_length_a     37.753953
_cell_length_b     36.760124
_cell_length_c     35.90109
_cell_angle_alpha  92.242307
_cell_angle_beta   91.639852
_cell_angle_gamma 93.777269
loop_
_atom_site_label
_atom_site_type_symbol
_atom_site_fract_x
_atom_site_fract_y
_atom_site_fract_z
_atom_type_partial_charge
P0 P 0.16729 0.17073 0.16444 0.0
H1 H 0.22813 0.18942 0.11913 0.0
H2 H 0.27442 0.15367 0.09275 0.0
H3 H 0.21952 0.05486 0.12826 0.0
H4 H 0.17291 0.09077 0.15414 0.0
H5 H 0.1141 0.22234 0.182 0.0
H6 H 0.08641 0.2685 0.14586 0.0
H7 H 0.13579 0.22848 0.04677 0.0
H8 H 0.16297 0.18197 0.08295 0.0
H9 H 0.18993 0.13242 0.2293 0.0
H10 H 0.09051 0.15028 0.17324 0.0
O11 O 0.19366 0.2008 0.19007 0.0
H12 H 0.1583 0.09851 0.27677 0.0
H13 H 0.05847 0.11757 0.22137 0.0
C14 C 0.19704 0.14293 0.13877 0.0
C15 C 0.22557 0.15999 0.12048 0.0
C16 C 0.25204 0.13947 0.10534 0.0
C17 C 0.25079 0.10138 0.10855 0.0
C18 C 0.22143 0.08417 0.12564 0.0
C19 C 0.19468 0.10473 0.14037 0.0
C20 C 0.1404 0.19826 0.13532 0.0
C21 C 0.11807 0.22267 0.15225 0.0
C22 C 0.10225 0.24916 0.13151 0.0
C23 C 0.1089 0.25234 0.09336 0.0
C24 C 0.13027 0.22698 0.07613 0.0
C25 C 0.14576 0.20018 0.09686 0.0
C26 C 0.14265 0.14419 0.19783 0.0
C27 C 0.1612 0.12917 0.22732 0.0
C28 C 0.14303 0.11001 0.25469 0.0
C29 C 0.10571 0.10544 0.2533 0.0
C30 C 0.08721 0.12018 0.2233 0.0
C31 C 0.1055 0.13918 0.19577 0.0
P32 P 0.39713 0.90906 0.59573 0.0
H33 H 0.46419 0.94344 0.62517 0.0
H34 H 0.48481 0.9666 0.68703 0.0
H35 H 0.38398 0.93005 0.73153 0.0
H36 H 0.36311 0.90784 0.66883 0.0
H37 H 0.43584 0.87612 0.53494 0.0
H38 H 0.44649 0.81306 0.51725 0.0
H39 H 0.39229 0.77684 0.61491 0.0
H40 H 0.38147 0.84019 0.63231 0.0
H41 H 0.35475 0.97047 0.61037 0.0
H42 H 0.33722 0.86109 0.56239 0.0
O43 O 0.41837 0.9363 0.56633 0.0
H44 H 0.29435 0.98329 0.59149 0.0
H45 H 0.27649 0.87386 0.5435 0.0
C46 C 0.41202 0.92425 0.64232 0.0
C47 C 0.44642 0.94053 0.64817 0.0
C48 C 0.45824 0.95367 0.6837 0.0
C49 C 0.43607 0.95033 0.71441 0.0
C50 C 0.40156 0.93369 0.70846 0.0
C51 C 0.38969 0.92063 0.67271 0.0
C52 C 0.408 0.86285 0.58509 0.0
C53 C 0.42659 0.8547 0.55284 0.0
C54 C 0.43277 0.81859 0.54273 0.0
C55 C 0.42009 0.7899 0.56451 0.0
C56 C 0.40201 0.79829 0.59724 0.0
C57 C 0.39604 0.83447 0.60743 0.0
C58 C 0.35048 0.91483 0.58811 0.0
C59 C 0.33766 0.94896 0.5965 0.0
C60 C 0.30323 0.95631 0.58545 0.0
C61 C 0.28089 0.92966 0.56564 0.0
C62 C 0.29311 0.89482 0.55882 0.0
C63 C 0.32784 0.88755 0.56967 0.0
P64 P 0.66913 0.34285 0.83531 0.0
H65 H 0.72939 0.32669 0.88227 0.0
H66 H 0.7698 0.36463 0.92367 0.0
H67 H 0.70246 0.45458 0.91215 0.0
H68 H 0.66272 0.41641 0.86946 0.0
H69 H 0.62586 0.28162 0.80077 0.0
H70 H 0.59712 0.22742 0.82782 0.0
H71 H 0.61546 0.27777 0.93788 0.0
H72 H 0.64361 0.33188 0.91095 0.0
H73 H 0.70151 0.40126 0.79399 0.0
H74 H 0.59701 0.34763 0.80207 0.0
O75 O 0.69806 0.31863 0.81243 0.0
H76 H 0.67969 0.4377 0.74376 0.0
H77 H 0.5751 0.38389 0.75157 0.0
C78 C 0.69399 0.36924 0.87169 0.0
C79 C 0.72316 0.35449 0.88898 0.0
C80 C 0.74603 0.37618 0.91315 0.0
C81 C 0.73988 0.41303 0.9208 0.0
C82 C 0.70855 0.42662 0.90612 0.0
C83 C 0.68577 0.40486 0.88171 0.0
C84 C 0.63746 0.31036 0.85391 0.0
C85 C 0.62249 0.28149 0.83062 0.0
C86 C 0.60608 0.25061 0.84601 0.0
C87 C 0.60493 0.24832 0.88484 0.0
C88 C 0.61661 0.27885 0.90781 0.0
C89 C 0.6327 0.30977 0.89242 0.0
C90 C 0.65087 0.37193 0.80179 0.0
C91 C 0.67378 0.39761 0.78516 0.0
C92 C 0.66136 0.41828 0.75643 0.0
C93 C 0.62586 0.41328 0.74359 0.0
C94 C 0.60278 0.38777 0.76058 0.0
C95 C 0.6152 0.36727 0.78962 0.0
P96 P 0.85271 0.65214 0.37393 0.0
H97 H 0.90835 0.70403 0.35167 0.0
H98 H 0.95067 0.74594 0.38636 0.0
H99 H 0.91598 0.70106 0.48965 0.0
H100 H 0.87398 0.65801 0.45432 0.0
H101 H 0.81353 0.59657 0.32627 0.0
H102 H 0.82879 0.5631 0.26905 0.0
H103 H 0.93654 0.60965 0.28141 0.0
H104 H 0.92192 0.6415 0.33926 0.0
H105 H 0.78698 0.67311 0.40634 0.0
H106 H 0.85106 0.58037 0.40787 0.0
O107 O 0.83058 0.68334 0.35215 0.0
H108 H 0.74099 0.63983 0.43951 0.0
H109 H 0.80551 0.54693 0.44292 0.0
C110 C 0.88848 0.67728 0.40017 0.0
C111 C 0.91076 0.70207 0.38165 0.0
C112 C 0.93502 0.72613 0.40164 0.0
C113 C 0.93702 0.72665 0.44085 0.0
C114 C 0.91522 0.70117 0.45948 0.0
C115 C 0.89126 0.6765 0.43924 0.0
C116 C 0.8665 0.62168 0.33722 0.0
C117 C 0.84068 0.59887 0.31722 0.0
C118 C 0.84926 0.58003 0.2844 0.0
C119 C 0.88359 0.58453 0.2706 0.0
C120 C 0.90968 0.6064 0.2912 0.0
C121 C 0.90129 0.62457 0.32439 0.0
C122 C 0.82189 0.62879 0.40371 0.0
C123 C 0.79139 0.64566 0.41441 0.0
C124 C 0.76522 0.62666 0.43398 0.0
C125 C 0.76921 0.59042 0.44376 0.0
C126 C 0.80116 0.5745 0.43523 0.0
C127 C 0.82728 0.59356 0.41529 0.0
P128 P 0.88146 0.89525 0.90824 0.0
H129 H 0.84422 0.89513 0.97848 0.0
H130 H 0.78702 0.91631 0.997 0.0
H131 H 0.76603 0.94677 0.8837 0.0
H132 H 0.82206 0.92384 0.86533 0.0
H133 H 0.94833 0.86233 0.9242 0.0
H134 H 0.96279 0.80223 0.94493 0.0
H135 H 0.85075 0.76942 0.94574 0.0
H136 H 0.83676 0.829 0.92383 0.0
H137 H 0.89907 0.96069 0.86847 0.0
H138 H 0.88058 0.84583 0.84028 0.0
O139 O 0.90957 0.92459 0.93272 0.0
H140 H 0.91319 0.97223 0.80398 0.0
H141 H 0.89496 0.85735 0.77491 0.0
C142 C 0.83736 0.90731 0.92043 0.0
C143 C 0.82693 0.90579 0.95755 0.0
C144 C 0.79433 0.91849 0.96821 0.0
C145 C 0.7715 0.9335 0.942 0.0
C146 C 0.78225 0.93487 0.90473 0.0
C147 C 0.81465 0.92182 0.89409 0.0
C148 C 0.89145 0.85022 0.92249 0.0
C149 C 0.9269 0.84209 0.92878 0.0
C150 C 0.93515 0.8078 0.9411 0.0
C151 C 0.90803 0.78073 0.94719 0.0
C152 C 0.87246 0.78925 0.94096 0.0
C153 C 0.86431 0.82346 0.92849 0.0
C154 C 0.88967 0.90232 0.85946 0.0
C155 C 0.89806 0.93788 0.84835 0.0
C156 C 0.90601 0.94447 0.81138 0.0
C157 C 0.90554 0.91566 0.78437 0.0
C158 C 0.89546 0.88009 0.79507 0.0
C159 C 0.88756 0.87347 0.83243 0.0
P160 P 0.66686 0.17211 0.3759 0.0
H161 H 0.67809 0.24415 0.41224 0.0
H162 H 0.63857 0.28426 0.44411 0.0
H163 H 0.55507 0.19789 0.43735 0.0
H164 H 0.59517 0.15752 0.40611 0.0
H165 H 0.73762 0.20034 0.4013 0.0
H166 H 0.78536 0.17446 0.43619 0.0
H167 H 0.71871 0.07518 0.44669 0.0
H168 H 0.67032 0.10261 0.41384 0.0
H169 H 0.59849 0.174 0.33637 0.0
H170 H 0.6825 0.10031 0.34229 0.0
O171 O 0.68733 0.20152 0.34804 0.0
H172 H 0.56729 0.13403 0.28898 0.0
H173 H 0.65105 0.05971 0.29479 0.0
C174 C 0.63918 0.19832 0.40556 0.0
C175 C 0.65147 0.2336 0.41818 0.0
C176 C 0.6289 0.25644 0.43669 0.0
C177 C 0.5935 0.24442 0.44288 0.0
C178 C 0.58205 0.2081 0.43253 0.0
C179 C 0.6049 0.18506 0.4145 0.0
C180 C 0.70083 0.15292 0.4039 0.0
C181 C 0.73325 0.17305 0.4113 0.0
C182 C 0.76073 0.158 0.43111 0.0
C183 C 0.75651 0.12225 0.44383 0.0
C184 C 0.7232 0.10281 0.4377 0.0
C185 C 0.69549 0.11825 0.41843 0.0
C186 C 0.64191 0.13929 0.34472 0.0
C187 C 0.60963 0.1485 0.32859 0.0
C188 C 0.59182 0.12558 0.30123 0.0
C189 C 0.60623 0.09314 0.28858 0.0
C190 C 0.639 0.08424 0.30417 0.0
C191 C 0.65677 0.10725 0.33179 0.0
P192 P 0.3915 0.63923 0.13652 0.0
H193 H 0.37227 0.6015 0.06468 0.0
H194 H 0.31496 0.58135 0.03445 0.0
H195 H 0.26127 0.6216 0.13088 0.0
H196 H 0.31857 0.64204 0.1606 0.0
H197 H 0.44252 0.69424 0.17179 0.0
H198 H 0.45134 0.76015 0.1666 0.0
H199 H 0.36825 0.7554 0.08051 0.0
H200 H 0.35802 0.69046 0.08805 0.0
H201 H 0.40418 0.57254 0.17435 0.0
H202 H 0.379 0.6822 0.20555 0.0
O203 O 0.42422 0.61867 0.11577 0.0
H204 H 0.41181 0.55933 0.24037 0.0
H205 H 0.38844 0.6696 0.27142 0.0
C206 C 0.34959 0.62256 0.11516 0.0
C207 C 0.34815 0.6057 0.07939 0.0
C208 C 0.31541 0.59428 0.06211 0.0
C209 C 0.28358 0.59998 0.08021 0.0
C210 C 0.28527 0.61727 0.11596 0.0
C211 C 0.31799 0.62857 0.1332 0.0
C212 C 0.39885 0.68761 0.13123 0.0
C213 C 0.42581 0.70766 0.15232 0.0
C214 C 0.431 0.7454 0.14906 0.0
C215 C 0.41009 0.76363 0.12361 0.0
C216 C 0.38397 0.74291 0.10155 0.0
C217 C 0.37832 0.7054 0.10548 0.0
C218 C 0.39242 0.6287 0.18505 0.0
C219 C 0.40016 0.59369 0.19537 0.0
C220 C 0.40427 0.58613 0.23301 0.0
C221 C 0.40094 0.61362 0.26076 0.0
C222 C 0.39136 0.64812 0.25043 0.0
C223 C 0.38638 0.65537 0.2128 0.0
P224 P 0.14549 0.35433 0.64612 0.0
H225 H 0.15578 0.29571 0.59257 0.0
H226 H 0.11495 0.25265 0.55737 0.0
H227 H 0.02678 0.31391 0.59198 0.0
H228 H 0.06838 0.35726 0.62742 0.0
H229 H 0.21251 0.39238 0.6695 0.0
H230 H 0.2565 0.43016 0.63717 0.0
H231 H 0.19113 0.41845 0.5364 0.0
H232 H 0.14589 0.38182 0.56941 0.0
H233 H 0.08531 0.33069 0.69072 0.0
H234 H 0.1611 0.42357 0.68999 0.0
O235 O 0.17057 0.32375 0.66501 0.0
H236 H 0.06228 0.35399 0.74849 0.0
H237 H 0.14216 0.44442 0.75004 0.0
C238 C 0.11499 0.32873 0.61378 0.0
C239 C 0.12773 0.30033 0.59201 0.0
C240 C 0.10424 0.2759 0.57144 0.0
C241 C 0.06736 0.27945 0.57213 0.0
C242 C 0.05495 0.31004 0.59133 0.0
C243 C 0.07868 0.33473 0.61177 0.0
C244 C 0.17564 0.38478 0.62215 0.0
C245 C 0.20713 0.39854 0.64071 0.0
C246 C 0.23234 0.41986 0.62221 0.0
C247 C 0.227 0.42699 0.58447 0.0
C248 C 0.19561 0.41321 0.56558 0.0
C249 C 0.16983 0.39244 0.58448 0.0
C250 C 0.12444 0.37567 0.68518 0.0
C251 C 0.09681 0.35641 0.70276 0.0
C252 C 0.08433 0.3694 0.73675 0.0
C253 C 0.10048 0.40109 0.75527 0.0
C254 C 0.12812 0.4204 0.73715 0.0
C255 C 0.13952 0.40813 0.70242 0.0
O256 O 0.96037 0.02962 0.51076 0.0
Mn257 Mn 0.0071 0.00199 0.51798 0.0
O258 O 0.9269 0.99839 0.46597 0.0
Mn259 Mn 0.96202 0.96843 0.45241 0.0
O260 O 0.05458 0.97479 0.52406 0.0
O261 O 0.02926 0.04908 0.54095 0.0
Mn262 Mn 0.05843 0.03982 0.57747 0.0
O263 O 0.99066 0.98482 0.5715 0.0
O264 O 0.09318 0.01423 0.5561 0.0
O265 O 0.02559 0.02026 0.46658 0.0
O266 O 0.99496 0.98849 0.42056 0.0
O267 O 0.06013 0.08972 0.57639 0.0
O268 O 0.03078 0.01533 0.61096 0.0
C269 C 0.97169 0.92218 0.48306 0.0
C270 C 0.93177 0.02436 0.49035 0.0
C271 C 0.08619 0.98506 0.53642 0.0
C272 C 0.03751 0.08325 0.54878 0.0
C273 C 0.00371 0.99301 0.60485 0.0
C274 C 0.01954 0.01205 0.43171 0.0
O275 O 0.98399 0.95499 0.49366 0.0
O276 O 0.95301 0.91932 0.45211 0.0
O277 O 0.48596 0.01003 0.9539 0.0
Mn278 Mn 0.50442 0.00874 0.01019 0.0
O279 O 0.47268 0.95191 0.93395 0.0
Mn280 Mn 0.50123 0.93311 0.9695 0.0
O281 O 0.52417 0.00776 0.06602 0.0
O282 O 0.51622 0.06282 0.00901 0.0
Mn283 Mn 0.50241 0.08418 0.05054 0.0
O284 O 0.45223 0.0183 0.02705 0.0
O285 O 0.52752 0.0658 0.08918 0.0
O286 O 0.55592 0.99841 0.99173 0.0
O287 O 0.54938 0.94219 0.96346 0.0
O288 O 0.52193 0.12121 0.02355 0.0
O289 O 0.45379 0.07606 0.05086 0.0
C290 C 0.48287 0.92295 0.02356 0.0
C291 C 0.47275 0.98598 0.92937 0.0
C292 C 0.53298 0.03227 0.09193 0.0
C293 C 0.52634 0.09518 0.99913 0.0
C294 C 0.43696 0.04605 0.04075 0.0
C295 C 0.56835 0.97104 0.97378 0.0
O296 O 0.49214 0.95493 0.01211 0.0
O297 O 0.48461 0.8965 0.99893 0.0
O298 O 0.54985 0.52489 0.50603 0.0
Mn299 Mn 0.49545 0.50978 0.50868 0.0
O300 O 0.5664 0.5021 0.45036 0.0
Mn301 Mn 0.52269 0.48069 0.43376 0.0
O302 O 0.44093 0.49433 0.5111 0.0
O303 O 0.50002 0.51204 0.56462 0.0
Mn304 Mn 0.46679 0.53795 0.58338 0.0
O305 O 0.48456 0.56564 0.50762 0.0
O306 O 0.42399 0.51438 0.56765 0.0
O307 O 0.50707 0.45402 0.50966 0.0
O308 O 0.51189 0.43468 0.45003 0.0
O309 O 0.49233 0.52341 0.62378 0.0
O310 O 0.47436 0.58413 0.56662 0.0
C311 C 0.48051 0.51346 0.41909 0.0
C312 C 0.57345 0.51919 0.48163 0.0
C313 C 0.41728 0.49831 0.53586 0.0
C314 C 0.51046 0.50751 0.59857 0.0
C315 C 0.47883 0.59063 0.53254 0.0
C316 C 0.51003 0.42843 0.48448 0.0
O317 O 0.49075 0.50792 0.45285 0.0
O318 O 0.49824 0.4975 0.39362 0.0
O319 O 0.95279 0.49339 0.0092 0.0
Mn320 Mn 0.0064 0.51318 0.01501 0.0
O321 O 0.93537 0.51483 0.95464 0.0
Mn322 Mn 0.97924 0.53417 0.9422 0.0
O323 O 0.05969 0.53405 0.01996 0.0
O324 O 1.00005 0.51646 0.07133 0.0
Mn325 Mn 0.03926 0.50032 0.09133 0.0
O326 O 0.02084 0.45811 0.01803 0.0
O327 O 0.07711 0.53143 0.07999 0.0
O328 O 0.99104 0.56839 0.0144 0.0
O329 O 0.9888 0.58223 0.95487 0.0
O330 O 0.01298 0.51133 0.13115 0.0
O331 O 0.04161 0.45213 0.07673 0.0
C332 C 0.01873 0.50473 0.92181 0.0
C333 C 0.92865 0.49815 0.98417 0.0
C334 C 0.08228 0.54139 0.04707 0.0
C335 C 0.99062 0.52069 0.1058 0.0
C336 C 0.03321 0.43889 0.04426 0.0
C337 C 0.98815 0.59184 0.98888 0.0
O338 O 0.01397 0.50799 0.95797 0.0
O339 O 0.99658 0.51903 0.89926 0.0
H340 H 0.1207 0.10658 0.32883 0.0
H341 H 0.04671 0.05809 0.24418 0.0
H342 H 0.01422 0.02527 0.29153 0.0
H343 H 0.00642 0.01018 0.35665 0.0
H344 H 0.08016 0.0577 0.44194 0.0
H345 H 0.11334 0.09049 0.39457 0.0
C346 C 0.09768 0.08857 0.32061 0.0
C347 C 0.08623 0.08512 0.28272 0.0
C348 C 0.07906 0.06945 0.34813 0.0
C349 C 0.05595 0.06194 0.27298 0.0
C350 C 0.03743 0.04287 0.30008 0.0
C351 C 0.02985 0.02755 0.36504 0.0
C352 C 0.04063 0.03139 0.40303 0.0
C353 C 0.04868 0.04645 0.33771 0.0
C354 C 0.07102 0.05429 0.41307 0.0
C355 C 0.09006 0.07304 0.38593 0.0
H356 H 0.40117 0.98446 0.77082 0.0
H357 H 0.50217 0.94263 0.74435 0.0
H358 H 0.52469 0.95839 0.80734 0.0
H359 H 0.51371 0.97657 0.87176 0.0
H360 H 0.41186 0.01296 0.90137 0.0
H361 H 0.39185 0.00779 0.83543 0.0
C362 C 0.42813 0.9789 0.77882 0.0
C363 C 0.44984 0.96228 0.75264 0.0
C364 C 0.44086 0.98741 0.81566 0.0
C365 C 0.48491 0.9558 0.7635 0.0
C366 C 0.49784 0.96465 0.79968 0.0
C367 C 0.48759 0.98471 0.86346 0.0
C368 C 0.46444 0.9958 0.89097 0.0
C369 C 0.47587 0.97972 0.82612 0.0
C370 C 0.43033 0.00524 0.88039 0.0
C371 C 0.41877 0.00163 0.84282 0.0
H372 H 0.58642 0.38966 0.68165 0.0
H373 H 0.63628 0.48653 0.73777 0.0
H374 H 0.61058 0.52439 0.69114 0.0
H375 H 0.56719 0.53041 0.64038 0.0
H376 H 0.51473 0.43464 0.58553 0.0
H377 H 0.54903 0.39555 0.62472 0.0
C378 C 0.59181 0.41903 0.68336 0.0
C379 C 0.61274 0.43542 0.71328 0.0
C380 C 0.57682 0.44065 0.65648 0.0
C381 C 0.62019 0.47339 0.71498 0.0
C382 C 0.60549 0.49502 0.68838 0.0
C383 C 0.56449 0.50095 0.63606 0.0
C384 C 0.53913 0.48518 0.61 0.0
C385 C 0.58303 0.47902 0.6597 0.0
C386 C 0.53495 0.44714 0.60485 0.0
C387 C 0.55399 0.42491 0.62779 0.0
H388 H 0.90873 0.617 0.20932 0.0
H389 H 0.87831 0.51197 0.2521 0.0
H390 H 0.90135 0.48156 0.19681 0.0
H391 H 0.93956 0.48545 0.14269 0.0
H392 H 0.97152 0.59019 0.10057 0.0
H393 H 0.93706 0.62038 0.14811 0.0
C394 C 0.90663 0.58747 0.20604 0.0
C395 C 0.89252 0.56658 0.23481 0.0
C396 C 0.91982 0.57029 0.17414 0.0
C397 C 0.88933 0.52843 0.23031 0.0
C398 C 0.90248 0.51111 0.19875 0.0
C399 C 0.93731 0.51475 0.14273 0.0
C400 C 0.9577 0.53567 0.11817 0.0
C401 C 0.91888 0.53178 0.17118 0.0
C402 C 0.9554 0.57359 0.11876 0.0
C403 C 0.93638 0.59084 0.14652 0.0
H404 H 0.28678 0.10564 0.04376 0.0
H405 H 0.2841 0.05028 0.1474 0.0
H406 H 0.33934 0.02238 0.13274 0.0
H407 H 0.39293 0.02073 0.09431 0.0
H408 H 0.39505 0.0762 0.99091 0.0
H409 H 0.33572 0.09668 1.00127 0.0
C410 C 0.29807 0.0871 0.06291 0.0
C411 C 0.28148 0.08043 0.09683 0.0
C412 C 0.32991 0.07114 0.05429 0.0
C413 C 0.29621 0.05589 0.12107 0.0
C414 C 0.32797 0.04004 0.11278 0.0
C415 C 0.37963 0.03592 0.07337 0.0
C416 C 0.39793 0.04634 0.0415 0.0
C417 C 0.34561 0.04823 0.07994 0.0
C418 C 0.38102 0.06711 0.01515 0.0
C419 C 0.34731 0.07927 0.02135 0.0
H420 H 0.21529 0.8931 0.56965 0.0
H421 H 0.26908 0.98863 0.5257 0.0
H422 H 0.21244 0.01048 0.50556 0.0
H423 H 0.14801 0.00703 0.50839 0.0
H424 H 0.09253 0.91401 0.55447 0.0
H425 H 0.14912 0.88585 0.56474 0.0
C426 C 0.21448 0.91834 0.55509 0.0
C427 C 0.24624 0.93968 0.54991 0.0
C428 C 0.18153 0.93107 0.54386 0.0
C429 C 0.24493 0.97224 0.53084 0.0
C430 C 0.21259 0.98465 0.51911 0.0
C431 C 0.14829 0.97996 0.51942 0.0
C432 C 0.1164 0.96243 0.53046 0.0
C433 C 0.18077 0.96492 0.52653 0.0
C434 C 0.11683 0.92764 0.54517 0.0
C435 C 0.14923 0.9119 0.5516 0.0
H436 H 0.7863 0.39977 0.97857 0.0
H437 H 0.75912 0.48258 0.90241 0.0
H438 H 0.81264 0.51923 0.92163 0.0
H439 H 0.87096 0.52355 0.95178 0.0
H440 H 0.90293 0.43904 0.0231 0.0
H441 H 0.8435 0.40767 0.01469 0.0
C442 C 0.7919 0.42602 0.96649 0.0
C443 C 0.7686 0.43807 0.93877 0.0
C444 C 0.82377 0.44655 0.97657 0.0
C445 C 0.77601 0.47259 0.92409 0.0
C446 C 0.80696 0.49351 0.93475 0.0
C447 C 0.86492 0.49842 0.96592 0.0
C448 C 0.89157 0.48308 0.98724 0.0
C449 C 0.83157 0.48008 0.95975 0.0
C450 C 0.88297 0.45119 0.00624 0.0
C451 C 0.84911 0.43315 1.00114 0.0
H452 H 0.71912 0.61197 0.49271 0.0
H453 H 0.7491 0.51887 0.42641 0.0
H454 H 0.69276 0.48641 0.43829 0.0
H455 H 0.63163 0.48822 0.4579 0.0
H456 H 0.59878 0.58199 0.52047 0.0
H457 H 0.65946 0.61043 0.5196 0.0
C458 C 0.71347 0.58446 0.48109 0.0
C459 C 0.73832 0.56831 0.45807 0.0
C460 C 0.68022 0.56626 0.48684 0.0
C461 C 0.73085 0.53216 0.44433 0.0
C462 C 0.69833 0.51361 0.45073 0.0
C463 C 0.63786 0.5147 0.47183 0.0
C464 C 0.61071 0.53339 0.4885 0.0
C465 C 0.67234 0.53101 0.47048 0.0
C466 C 0.61924 0.56721 0.50724 0.0
C467 C 0.65385 0.58352 0.5065 0.0
H468 H 0.04309 0.27994 0.09296 0.0
H469 H 0.14724 0.2967 0.04784 0.0
H470 H 0.13061 0.35362 0.02141 0.0
H471 H 0.0894 0.4033 0.0194 0.0
H472 H 0.98537 0.38639 0.0642 0.0
H473 H 0.99863 0.32505 0.08186 0.0
C474 C 0.06197 0.2958 0.0769 0.0
C475 C 0.09654 0.28411 0.07283 0.0
C476 C 0.05217 0.32864 0.06159 0.0
C477 C 0.12046 0.30485 0.05143 0.0
C478 C 0.11101 0.3376 0.03641 0.0
C479 C 0.06907 0.38542 0.03127 0.0
C480 C 0.03609 0.39905 0.03959 0.0
C481 C 0.07727 0.35033 0.04219 0.0
C482 C 0.0105 0.37611 0.05643 0.0
C483 C 0.01835 0.34124 0.06718 0.0
H484 H 0.54569 0.20133 0.87522 0.0
H485 H 0.64856 0.21551 0.9312 0.0
H486 H 0.63663 0.15953 0.96408 0.0
H487 H 0.59335 0.11365 0.98526 0.0
H488 H 0.48832 0.10197 0.93501 0.0
H489 H 0.50481 0.14843 0.89031 0.0
C490 C 0.56551 0.19169 0.89424 0.0
C491 C 0.59754 0.21277 0.90168 0.0
C492 C 0.55817 0.15966 0.91368 0.0
C493 C 0.62332 0.20009 0.92599 0.0
C494 C 0.61668 0.16797 0.94451 0.0
C495 C 0.57482 0.11991 0.96309 0.0
C496 C 0.53999 0.10444 0.9629 0.0
C497 C 0.58377 0.14832 0.9396 0.0
C498 C 0.51561 0.11315 0.93492 0.0
C499 C 0.5248 0.14036 0.91004 0.0
H500 H 0.91716 0.76934 0.4994 0.0
H501 H 0.0048 0.75257 0.42763 0.0
H502 H 0.03167 0.81296 0.44626 0.0
H503 H 0.02104 0.87506 0.46884 0.0
H504 H 0.93146 0.89306 0.53684 0.0
H505 H 0.91557 0.8275 0.53571 0.0
C506 C 0.94288 0.77825 0.48906 0.0
C507 C 0.95845 0.75692 0.46133 0.0
C508 C 0.95776 0.8135 0.49921 0.0
C509 C 0.99183 0.7689 0.44827 0.0
C510 C 0.00722 0.80346 0.45892 0.0
C511 C 0.99945 0.86431 0.48541 0.0
C512 C 0.9773 0.8887 0.50268 0.0
C513 C 0.98922 0.82682 0.48245 0.0
C514 C 0.94908 0.8747 0.52363 0.0
C515 C 0.93948 0.83722 0.52217 0.0
H516 H 0.47927 0.76017 0.53691 0.0
H517 H 0.3705 0.73285 0.56477 0.0
H518 H 0.37784 0.66865 0.54972 0.0
H519 H 0.41663 0.61975 0.53563 0.0
H520 H 0.52619 0.64507 0.5112 0.0
H521 H 0.5169 0.71069 0.51632 0.0
C522 C 0.45705 0.7402 0.5391 0.0
C523 C 0.42453 0.75126 0.55261 0.0
C524 C 0.46154 0.70306 0.53057 0.0
C525 C 0.39603 0.72501 0.55538 0.0
C526 C 0.4001 0.68832 0.54645 0.0
C527 C 0.43809 0.63974 0.53004 0.0
C528 C 0.47182 0.62789 0.52239 0.0
C529 C 0.43289 0.67698 0.53487 0.0
C530 C 0.4998 0.65374 0.51616 0.0
C531 C 0.49457 0.69116 0.51978 0.0
H532 H 0.96659 0.95205 0.76872 0.0
H533 H 0.87441 0.89564 0.7149 0.0
H534 H 0.89603 0.91315 0.65345 0.0
H535 H 0.94122 0.94799 0.61515 0.0
H536 H 0.03317 0.00165 0.6743 0.0
H537 H 0.01136 0.98209 0.73244 0.0
C538 C 0.95111 0.94359 0.74355 0.0
C539 C 0.91876 0.92311 0.74643 0.0
C540 C 0.96363 0.9536 0.70881 0.0
C541 C 0.89945 0.9116 0.71344 0.0
C542 C 0.91177 0.92177 0.67832 0.0
C543 C 0.95647 0.95519 0.64071 0.0
C544 C 0.9887 0.97709 0.63946 0.0
C545 C 0.94383 0.94331 0.67556 0.0
C546 C 0.00806 0.98556 0.67337 0.0
C547 C 0.99572 0.97425 0.70724 0.0
H548 H 0.63508 0.06047 0.22754 0.0
H549 H 0.53529 0.07436 0.28031 0.0
H550 H 0.50313 0.04744 0.22508 0.0
H551 H 0.50318 0.0306 0.15839 0.0
H552 H 0.60214 0.01887 0.10418 0.0
H553 H 0.63487 0.03267 0.16359 0.0
C554 C 0.60636 0.05664 0.22738 0.0
C555 C 0.58763 0.07025 0.2578 0.0
C556 C 0.58788 0.04132 0.1952 0.0
C557 C 0.55036 0.06506 0.25697 0.0
C558 C 0.53191 0.04947 0.22544 0.0
C559 C 0.53181 0.02922 0.1601 0.0
C560 C 0.55026 0.02319 0.12727 0.0
C561 C 0.55032 0.0389 0.19389 0.0
C562 C 0.58739 0.02254 0.12936 0.0
C563 C 0.6061 0.03119 0.1632 0.0
H564 H 0.37458 0.56016 0.30417 0.0
H565 H 0.4513 0.65225 0.30384 0.0
H566 H 0.47829 0.63391 0.36231 0.0
H567 H 0.48745 0.58447 0.40509 0.0
H568 H 0.41213 0.49137 0.40402 0.0
H569 H 0.37614 0.51784 0.35568 0.0
C570 C 0.39656 0.57667 0.31761 0.0
C571 C 0.41133 0.60714 0.29977 0.0
C572 C 0.41203 0.5658 0.35104 0.0
C573 C 0.43961 0.62864 0.31725 0.0
C574 C 0.45512 0.61808 0.35055 0.0
C575 C 0.46206 0.57115 0.39574 0.0
C576 C 0.45212 0.53631 0.40805 0.0
C577 C 0.44253 0.58581 0.36675 0.0
C578 C 0.41978 0.51858 0.39526 0.0
C579 C 0.39964 0.53337 0.36708 0.0
H580 H 0.10709 0.47044 0.78843 0.0
H581 H 0.06816 0.36 0.80972 0.0
H582 H 0.04412 0.38126 0.86793 0.0
H583 H 0.02806 0.43272 0.90948 0.0
H584 H 0.07304 0.54091 0.89093 0.0
H585 H 0.10306 0.51829 0.83636 0.0
C586 C 0.09454 0.45037 0.80592 0.0
C587 C 0.08886 0.41356 0.79319 0.0
C588 C 0.08239 0.46229 0.84065 0.0
C589 C 0.07171 0.38882 0.81709 0.0
C590 C 0.05839 0.40081 0.85107 0.0
C591 C 0.04614 0.45082 0.89474 0.0
C592 C 0.04887 0.48828 0.90451 0.0
C593 C 0.06286 0.43765 0.86278 0.0
C594 C 0.07136 0.51178 0.88444 0.0
C595 C 0.08786 0.49899 0.85271 0.0
H596 H 0.70935 0.93075 0.90075 0.0
H597 H 0.7543 0.96731 0.00873 0.0
H598 H 0.69633 0.9861 0.02765 0.0
H599 H 0.63102 0.98827 0.01465 0.0
H600 H 0.5888 0.95359 0.90514 0.0
H601 H 0.64759 0.93949 0.88547 0.0
C602 C 0.70698 0.94359 0.92817 0.0
C603 C 0.73652 0.94712 0.9532 0.0
C604 C 0.67376 0.95505 0.93866 0.0
C605 C 0.73208 0.96324 0.98894 0.0
C606 C 0.69888 0.97441 0.99975 0.0
C607 C 0.63503 0.9787 0.98623 0.0
C608 C 0.60553 0.972 0.96139 0.0
C609 C 0.66927 0.97 0.97501 0.0
C610 C 0.61105 0.95899 0.92478 0.0
C611 C 0.64466 0.95064 0.91353 0.0
H612 H 0.8274 0.13293 0.42976 0.0
H613 H 0.75495 0.07216 0.49906 0.0
H614 H 0.80377 0.0388 0.5231 0.0
H615 H 0.8663 0.02266 0.51977 0.0
H616 H 0.93884 0.0866 0.45414 0.0
H617 H 0.89092 0.12384 0.4343 0.0
C618 C 0.82215 0.1132 0.4509 0.0
C619 C 0.78704 0.10483 0.46187 0.0
C620 C 0.85054 0.09475 0.4655 0.0
C621 C 0.78128 0.07855 0.48897 0.0
C622 C 0.80932 0.05962 0.50312 0.0
C623 C 0.87172 0.04571 0.50236 0.0
C624 C 0.906 0.05252 0.48896 0.0
C625 C 0.84394 0.06692 0.49099 0.0
C626 C 0.91275 0.08166 0.46552 0.0
C627 C 0.88527 0.10257 0.45378 0.0
H628 H 0.22288 0.63582 0.07775 0.0
H629 H 0.26604 0.53446 0.04346 0.0
H630 H 0.20693 0.50945 0.02257 0.0
H631 H 0.14195 0.51318 0.02334 0.0
H632 H 0.09875 0.61308 0.06129 0.0
H633 H 0.15871 0.64213 0.07114 0.0
C634 C 0.21935 0.60836 0.06542 0.0
C635 C 0.24869 0.58683 0.06276 0.0
C636 C 0.18522 0.59394 0.05412 0.0
C637 C 0.24389 0.55161 0.04589 0.0
C638 C 0.21006 0.5372 0.0341 0.0
C639 C 0.14586 0.54174 0.0323 0.0
C640 C 0.11634 0.56134 0.04099 0.0
C641 C 0.18039 0.55769 0.03921 0.0
C642 C 0.12133 0.59792 0.05372 0.0
C643 C 0.15554 0.6143 0.0598 0.0
H644 H 0.27471 0.40197 0.53629 0.0
H645 H 0.24285 0.49945 0.59292 0.0
H646 H 0.29789 0.53269 0.57595 0.0
H647 H 0.35869 0.53062 0.55522 0.0
H648 H 0.39326 0.43267 0.50184 0.0
H649 H 0.33332 0.40306 0.50626 0.0
C650 C 0.2795 0.4308 0.5437 0.0
C651 C 0.25504 0.44848 0.56568 0.0
C652 C 0.3118 0.44935 0.53486 0.0
C653 C 0.2614 0.4856 0.5758 0.0
C654 C 0.29291 0.50444 0.56633 0.0
C655 C 0.35284 0.50303 0.54378 0.0
C656 C 0.3803 0.48352 0.52886 0.0
C657 C 0.31889 0.48612 0.54742 0.0
C658 C 0.37246 0.44811 0.51353 0.0
C659 C 0.33832 0.43113 0.51641 0.0
H660 H 0.96141 0.75936 0.99483 0.0
H661 H 0.87445 0.71656 0.92144 0.0
H662 H 0.88827 0.65483 0.93442 0.0
H663 H 0.92752 0.61271 0.96127 0.0
H664 H 0.01829 0.6524 0.02992 0.0
H665 H 1.00011 0.7154 0.0251 0.0
C666 C 0.94545 0.73652 0.98176 0.0
C667 C 0.91658 0.74302 0.95731 0.0
C668 C 0.95407 0.70045 0.98877 0.0
C669 C 0.89619 0.71285 0.94094 0.0
C670 C 0.90423 0.67733 0.94816 0.0
C671 C 0.94291 0.63512 0.97597 0.0
C672 C 0.97401 0.628 0.99613 0.0
C673 C 0.93327 0.67085 0.97151 0.0
C674 C 0.99392 0.65715 0.01475 0.0
C675 C 0.98376 0.69317 0.01145 0.0
H676 H 0.47354 0.80477 0.12953 0.0
H677 H 0.36162 0.81315 0.10544 0.0
H678 H 0.37417 0.87306 0.08051 0.0
H679 H 0.41822 0.91501 0.05226 0.0
H680 H 0.52938 0.90699 0.07744 0.0
H681 H 0.51564 0.85631 0.11771 0.0
C682 C 0.45158 0.82004 0.12026 0.0
C683 C 0.4168 0.80345 0.11781 0.0
C684 C 0.45886 0.85487 0.10644 0.0
C685 C 0.38891 0.82427 0.10587 0.0
C686 C 0.39597 0.85883 0.09198 0.0
C687 C 0.43917 0.90367 0.06857 0.0
C688 C 0.47468 0.91421 0.06179 0.0
C689 C 0.43104 0.87341 0.09018 0.0
C690 C 0.50179 0.89932 0.0826 0.0
C691 C 0.49396 0.86971 0.10487 0.0
H692 H 0.07112 0.23562 0.50894 0.0
H693 H 0.00839 0.25167 0.60617 0.0
H694 H 0.98144 0.18997 0.59755 0.0
H695 H 0.99017 0.12767 0.5748 0.0
H696 H 0.05817 0.10957 0.48285 0.0
H697 H 0.06755 0.17534 0.47588 0.0
C698 C 0.05079 0.22593 0.52759 0.0
C699 C 0.04268 0.24798 0.55883 0.0
C700 C 0.03654 0.18962 0.52353 0.0
C701 C 0.01548 0.23541 0.58205 0.0
C702 C 1.00022 0.19983 0.57737 0.0
C703 C 0.00516 0.13822 0.55174 0.0
C704 C 0.02381 0.11411 0.52965 0.0
C705 C 0.01248 0.17602 0.5499 0.0
C706 C 0.0434 0.12773 0.50003 0.0
C707 C 0.04946 0.16543 0.49669 0.0
H708 H 0.60178 0.29625 0.50012 0.0
H709 H 0.52781 0.2531 0.41302 0.0
H710 H 0.49023 0.30347 0.4246 0.0
H711 H 0.484 0.36489 0.45158 0.0
H712 H 0.5587 0.40994 0.53674 0.0
H713 H 0.58956 0.35341 0.53494 0.0
C714 C 0.57706 0.29755 0.48423 0.0
C715 C 0.56783 0.27108 0.45548 0.0
C716 C 0.55562 0.32697 0.4908 0.0
C717 C 0.53551 0.2729 0.43541 0.0
C718 C 0.51407 0.30188 0.44186 0.0
C719 C 0.50615 0.36167 0.47085 0.0
C720 C 0.51893 0.39142 0.49443 0.0
C721 C 0.52454 0.32972 0.46848 0.0
C722 C 0.54785 0.38718 0.51898 0.0
C723 C 0.56597 0.35509 0.51733 0.0
loop_
_geom_bond_atom_site_label_1
_geom_bond_atom_site_label_2
_geom_bond_distance
_geom_bond_site_symmetry_2
_ccdc_geom_bond_type
P0 O11 1.490 . S
P0 C14 1.812 . S
P0 C20 1.803 . S
P0 C26 1.819 . S
H1 C15 0.941 . S
H2 C16 0.939 . S
H3 C18 0.940 . S
H4 C19 0.940 . S
H5 C21 0.939 . S
H6 C22 0.942 . S
H7 C24 0.940 . S
H8 C25 0.939 . S
H9 C27 0.941 . S
H10 C31 0.939 . S
O11 P0 1.490 . S
H12 C28 0.939 . S
H13 C30 0.940 . S
C14 P0 1.812 . S
C14 C15 1.389 . S
C14 C19 1.391 . S
C15 H1 0.941 . S
C15 C14 1.389 . S
C15 C16 1.397 . S
C16 H2 0.939 . S
C16 C15 1.397 . S
C16 C17 1.378 . S
C17 C16 1.378 . S
C17 C18 1.378 . S
C18 H3 0.940 . S
C18 C17 1.378 . S
C18 C19 1.396 . S
C19 H4 0.940 . S
C19 C14 1.391 . S
C19 C18 1.396 . S
C20 P0 1.803 . S
C20 C21 1.378 . S
C20 C25 1.400 . S
C21 H5 0.939 . S
C21 C20 1.378 . S
C21 C22 1.361 . S
C22 H6 0.942 . S
C22 C21 1.361 . S
C22 C23 1.369 . S
C23 C22 1.369 . S
C23 C24 1.404 . S
C24 H7 0.940 . S
C24 C23 1.404 . S
C24 C25 1.389 . S
C25 H8 0.939 . S
C25 C20 1.400 . S
C25 C24 1.389 . S
C26 P0 1.819 . S
C26 C27 1.391 . S
C26 C31 1.391 . S
C27 H9 0.941 . S
C27 C26 1.391 . S
C27 C28 1.396 . S
C28 H12 0.939 . S
C28 C27 1.396 . S
C28 C29 1.397 . S
C29 C28 1.397 . S
C29 C30 1.385 . S
C30 H13 0.940 . S
C30 C29 1.385 . S
C30 C31 1.388 . S
C31 H10 0.939 . S
C31 C26 1.391 . S
C31 C30 1.388 . S
P32 O43 1.490 . S
P32 C46 1.812 . S
P32 C52 1.803 . S
P32 C58 1.819 . S
H33 C47 0.941 . S
H34 C48 0.939 . S
H35 C50 0.940 . S
H36 C51 0.940 . S
H37 C53 0.939 . S
H38 C54 0.942 . S
H39 C56 0.940 . S
H40 C57 0.939 . S
H41 C59 0.941 . S
H42 C63 0.939 . S
O43 P32 1.490 . S
H44 C60 0.939 . S
H45 C62 0.940 . S
C46 P32 1.812 . S
C46 C47 1.389 . S
C46 C51 1.391 . S
C47 H33 0.941 . S
C47 C46 1.389 . S
C47 C48 1.397 . S
C48 H34 0.939 . S
C48 C47 1.397 . S
C48 C49 1.378 . S
C49 C48 1.378 . S
C49 C50 1.378 . S
C50 H35 0.940 . S
C50 C49 1.378 . S
C50 C51 1.396 . S
C51 H36 0.940 . S
C51 C46 1.391 . S
C51 C50 1.396 . S
C52 P32 1.803 . S
C52 C53 1.378 . S
C52 C57 1.400 . S
C53 H37 0.939 . S
C53 C52 1.378 . S
C53 C54 1.361 . S
C54 H38 0.942 . S
C54 C53 1.361 . S
C54 C55 1.369 . S
C55 C54 1.369 . S
C55 C56 1.404 . S
C56 H39 0.940 . S
C56 C55 1.404 . S
C56 C57 1.389 . S
C57 H40 0.939 . S
C57 C52 1.400 . S
C57 C56 1.389 . S
C58 P32 1.819 . S
C58 C59 1.391 . S
C58 C63 1.391 . S
C59 H41 0.941 . S
C59 C58 1.391 . S
C59 C60 1.396 . S
C60 H44 0.939 . S
C60 C59 1.396 . S
C60 C61 1.397 . S
C61 C60 1.397 . S
C61 C62 1.385 . S
C62 H45 0.940 . S
C62 C61 1.385 . S
C62 C63 1.388 . S
C63 H42 0.939 . S
C63 C58 1.391 . S
C63 C62 1.388 . S
P64 O75 1.490 . S
P64 C78 1.812 . S
P64 C84 1.803 . S
P64 C90 1.819 . S
H65 C79 0.941 . S
H66 C80 0.939 . S
H67 C82 0.940 . S
H68 C83 0.940 . S
H69 C85 0.939 . S
H70 C86 0.942 . S
H71 C88 0.940 . S
H72 C89 0.939 . S
H73 C91 0.941 . S
H74 C95 0.939 . S
O75 P64 1.490 . S
H76 C92 0.939 . S
H77 C94 0.940 . S
C78 P64 1.812 . S
C78 C79 1.389 . S
C78 C83 1.391 . S
C79 H65 0.941 . S
C79 C78 1.389 . S
C79 C80 1.397 . S
C80 H66 0.939 . S
C80 C79 1.397 . S
C80 C81 1.378 . S
C81 C80 1.378 . S
C81 C82 1.378 . S
C82 H67 0.940 . S
C82 C81 1.378 . S
C82 C83 1.396 . S
C83 H68 0.940 . S
C83 C78 1.391 . S
C83 C82 1.396 . S
C84 P64 1.803 . S
C84 C85 1.378 . S
C84 C89 1.400 . S
C85 H69 0.939 . S
C85 C84 1.378 . S
C85 C86 1.361 . S
C86 H70 0.942 . S
C86 C85 1.361 . S
C86 C87 1.369 . S
C87 C86 1.369 . S
C87 C88 1.404 . S
C88 H71 0.940 . S
C88 C87 1.404 . S
C88 C89 1.389 . S
C89 H72 0.939 . S
C89 C84 1.400 . S
C89 C88 1.389 . S
C90 P64 1.819 . S
C90 C91 1.391 . S
C90 C95 1.391 . S
C91 H73 0.941 . S
C91 C90 1.391 . S
C91 C92 1.396 . S
C92 H76 0.939 . S
C92 C91 1.396 . S
C92 C93 1.397 . S
C93 C92 1.397 . S
C93 C94 1.385 . S
C94 H77 0.940 . S
C94 C93 1.385 . S
C94 C95 1.388 . S
C95 H74 0.939 . S
C95 C90 1.391 . S
C95 C94 1.388 . S
P96 O107 1.490 . S
P96 C110 1.812 . S
P96 C116 1.803 . S
P96 C122 1.819 . S
H97 C111 0.941 . S
H98 C112 0.939 . S
H99 C114 0.940 . S
H100 C115 0.940 . S
H101 C117 0.939 . S
H102 C118 0.942 . S
H103 C120 0.940 . S
H104 C121 0.939 . S
H105 C123 0.941 . S
H106 C127 0.939 . S
O107 P96 1.490 . S
H108 C124 0.939 . S
H109 C126 0.940 . S
C110 P96 1.812 . S
C110 C111 1.389 . S
C110 C115 1.391 . S
C111 H97 0.941 . S
C111 C110 1.389 . S
C111 C112 1.397 . S
C112 H98 0.939 . S
C112 C111 1.397 . S
C112 C113 1.378 . S
C113 C112 1.378 . S
C113 C114 1.378 . S
C114 H99 0.940 . S
C114 C113 1.378 . S
C114 C115 1.396 . S
C115 H100 0.940 . S
C115 C110 1.391 . S
C115 C114 1.396 . S
C116 P96 1.803 . S
C116 C117 1.378 . S
C116 C121 1.400 . S
C117 H101 0.939 . S
C117 C116 1.378 . S
C117 C118 1.361 . S
C118 H102 0.942 . S
C118 C117 1.361 . S
C118 C119 1.369 . S
C119 C118 1.369 . S
C119 C120 1.404 . S
C120 H103 0.940 . S
C120 C119 1.404 . S
C120 C121 1.389 . S
C121 H104 0.939 . S
C121 C116 1.400 . S
C121 C120 1.389 . S
C122 P96 1.819 . S
C122 C123 1.391 . S
C122 C127 1.391 . S
C123 H105 0.941 . S
C123 C122 1.391 . S
C123 C124 1.396 . S
C124 H108 0.939 . S
C124 C123 1.396 . S
C124 C125 1.397 . S
C125 C124 1.397 . S
C125 C126 1.385 . S
C126 H109 0.940 . S
C126 C125 1.385 . S
C126 C127 1.388 . S
C127 H106 0.939 . S
C127 C122 1.391 . S
C127 C126 1.388 . S
P128 O139 1.490 . S
P128 C142 1.812 . S
P128 C148 1.803 . S
P128 C154 1.819 . S
H129 C143 0.941 . S
H130 C144 0.939 . S
H131 C146 0.940 . S
H132 C147 0.940 . S
H133 C149 0.939 . S
H134 C150 0.942 . S
H135 C152 0.940 . S
H136 C153 0.939 . S
H137 C155 0.941 . S
H138 C159 0.939 . S
O139 P128 1.490 . S
H140 C156 0.939 . S
H141 C158 0.940 . S
C142 P128 1.812 . S
C142 C143 1.389 . S
C142 C147 1.391 . S
C143 H129 0.941 . S
C143 C142 1.389 . S
C143 C144 1.397 . S
C144 H130 0.939 . S
C144 C143 1.397 . S
C144 C145 1.378 . S
C145 C144 1.378 . S
C145 C146 1.378 . S
C146 H131 0.940 . S
C146 C145 1.378 . S
C146 C147 1.396 . S
C147 H132 0.940 . S
C147 C142 1.391 . S
C147 C146 1.396 . S
C148 P128 1.803 . S
C148 C149 1.378 . S
C148 C153 1.400 . S
C149 H133 0.939 . S
C149 C148 1.378 . S
C149 C150 1.361 . S
C150 H134 0.942 . S
C150 C149 1.361 . S
C150 C151 1.369 . S
C151 C150 1.369 . S
C151 C152 1.404 . S
C152 H135 0.940 . S
C152 C151 1.404 . S
C152 C153 1.389 . S
C153 H136 0.939 . S
C153 C148 1.400 . S
C153 C152 1.389 . S
C154 P128 1.819 . S
C154 C155 1.391 . S
C154 C159 1.391 . S
C155 H137 0.941 . S
C155 C154 1.391 . S
C155 C156 1.396 . S
C156 H140 0.939 . S
C156 C155 1.396 . S
C156 C157 1.397 . S
C157 C156 1.397 . S
C157 C158 1.385 . S
C158 H141 0.940 . S
C158 C157 1.385 . S
C158 C159 1.388 . S
C159 H138 0.939 . S
C159 C154 1.391 . S
C159 C158 1.388 . S
P160 O171 1.490 . S
P160 C174 1.812 . S
P160 C180 1.803 . S
P160 C186 1.819 . S
H161 C175 0.941 . S
H162 C176 0.939 . S
H163 C178 0.940 . S
H164 C179 0.940 . S
H165 C181 0.939 . S
H166 C182 0.942 . S
H167 C184 0.940 . S
H168 C185 0.939 . S
H169 C187 0.941 . S
H170 C191 0.939 . S
O171 P160 1.490 . S
H172 C188 0.939 . S
H173 C190 0.940 . S
C174 P160 1.812 . S
C174 C175 1.389 . S
C174 C179 1.391 . S
C175 H161 0.941 . S
C175 C174 1.389 . S
C175 C176 1.397 . S
C176 H162 0.939 . S
C176 C175 1.397 . S
C176 C177 1.378 . S
C177 C176 1.378 . S
C177 C178 1.378 . S
C178 H163 0.940 . S
C178 C177 1.378 . S
C178 C179 1.396 . S
C179 H164 0.940 . S
C179 C174 1.391 . S
C179 C178 1.396 . S
C180 P160 1.803 . S
C180 C181 1.378 . S
C180 C185 1.400 . S
C181 H165 0.939 . S
C181 C180 1.378 . S
C181 C182 1.361 . S
C182 H166 0.942 . S
C182 C181 1.361 . S
C182 C183 1.369 . S
C183 C182 1.369 . S
C183 C184 1.404 . S
C184 H167 0.940 . S
C184 C183 1.404 . S
C184 C185 1.389 . S
C185 H168 0.939 . S
C185 C180 1.400 . S
C185 C184 1.389 . S
C186 P160 1.819 . S
C186 C187 1.391 . S
C186 C191 1.391 . S
C187 H169 0.941 . S
C187 C186 1.391 . S
C187 C188 1.396 . S
C188 H172 0.939 . S
C188 C187 1.396 . S
C188 C189 1.397 . S
C189 C188 1.397 . S
C189 C190 1.385 . S
C190 H173 0.940 . S
C190 C189 1.385 . S
C190 C191 1.388 . S
C191 H170 0.939 . S
C191 C186 1.391 . S
C191 C190 1.388 . S
P192 O203 1.490 . S
P192 C206 1.812 . S
P192 C212 1.803 . S
P192 C218 1.819 . S
H193 C207 0.941 . S
H194 C208 0.939 . S
H195 C210 0.940 . S
H196 C211 0.940 . S
H197 C213 0.939 . S
H198 C214 0.942 . S
H199 C216 0.940 . S
H200 C217 0.939 . S
H201 C219 0.941 . S
H202 C223 0.939 . S
O203 P192 1.490 . S
H204 C220 0.939 . S
H205 C222 0.940 . S
C206 P192 1.812 . S
C206 C207 1.389 . S
C206 C211 1.391 . S
C207 H193 0.941 . S
C207 C206 1.389 . S
C207 C208 1.397 . S
C208 H194 0.939 . S
C208 C207 1.397 . S
C208 C209 1.378 . S
C209 C208 1.378 . S
C209 C210 1.378 . S
C210 H195 0.940 . S
C210 C209 1.378 . S
C210 C211 1.396 . S
C211 H196 0.940 . S
C211 C206 1.391 . S
C211 C210 1.396 . S
C212 P192 1.803 . S
C212 C213 1.378 . S
C212 C217 1.400 . S
C213 H197 0.939 . S
C213 C212 1.378 . S
C213 C214 1.361 . S
C214 H198 0.942 . S
C214 C213 1.361 . S
C214 C215 1.369 . S
C215 C214 1.369 . S
C215 C216 1.404 . S
C216 H199 0.940 . S
C216 C215 1.404 . S
C216 C217 1.389 . S
C217 H200 0.939 . S
C217 C212 1.400 . S
C217 C216 1.389 . S
C218 P192 1.819 . S
C218 C219 1.391 . S
C218 C223 1.391 . S
C219 H201 0.941 . S
C219 C218 1.391 . S
C219 C220 1.396 . S
C220 H204 0.939 . S
C220 C219 1.396 . S
C220 C221 1.397 . S
C221 C220 1.397 . S
C221 C222 1.385 . S
C222 H205 0.940 . S
C222 C221 1.385 . S
C222 C223 1.388 . S
C223 H202 0.939 . S
C223 C218 1.391 . S
C223 C222 1.388 . S
P224 O235 1.490 . S
P224 C238 1.812 . S
P224 C244 1.803 . S
P224 C250 1.819 . S
H225 C239 0.941 . S
H226 C240 0.939 . S
H227 C242 0.940 . S
H228 C243 0.940 . S
H229 C245 0.939 . S
H230 C246 0.942 . S
H231 C248 0.940 . S
H232 C249 0.939 . S
H233 C251 0.941 . S
H234 C255 0.939 . S
O235 P224 1.490 . S
H236 C252 0.939 . S
H237 C254 0.940 . S
C238 P224 1.812 . S
C238 C239 1.389 . S
C238 C243 1.391 . S
C239 H225 0.941 . S
C239 C238 1.389 . S
C239 C240 1.397 . S
C240 H226 0.939 . S
C240 C239 1.397 . S
C240 C241 1.378 . S
C241 C240 1.378 . S
C241 C242 1.378 . S
C242 H227 0.940 . S
C242 C241 1.378 . S
C242 C243 1.396 . S
C243 H228 0.940 . S
C243 C238 1.391 . S
C243 C242 1.396 . S
C244 P224 1.803 . S
C244 C245 1.378 . S
C244 C249 1.400 . S
C245 H229 0.939 . S
C245 C244 1.378 . S
C245 C246 1.361 . S
C246 H230 0.942 . S
C246 C245 1.361 . S
C246 C247 1.369 . S
C247 C246 1.369 . S
C247 C248 1.404 . S
C248 H231 0.940 . S
C248 C247 1.404 . S
C248 C249 1.389 . S
C249 H232 0.939 . S
C249 C244 1.400 . S
C249 C248 1.389 . S
C250 P224 1.819 . S
C250 C251 1.391 . S
C250 C255 1.391 . S
C251 H233 0.941 . S
C251 C250 1.391 . S
C251 C252 1.396 . S
C252 H236 0.939 . S
C252 C251 1.396 . S
C252 C253 1.397 . S
C253 C252 1.397 . S
C253 C254 1.385 . S
C254 H237 0.940 . S
C254 C253 1.385 . S
C254 C255 1.388 . S
C255 H234 0.939 . S
C255 C250 1.391 . S
C255 C254 1.388 . S
O256 Mn257 2.163 1_655 S
O256 C270 1.244 . S
Mn257 O256 2.163 1_455 S
Mn257 O260 2.160 1_545 S
Mn257 O261 2.221 . S
Mn257 O263 2.163 1_445 S
Mn257 O265 2.160 . S
Mn257 O275 2.221 1_445 S
O258 Mn259 2.087 1_545 S
O258 C270 1.256 . S
Mn259 O258 2.087 1_565 S
Mn259 O266 2.089 1_565 S
Mn259 O275 2.290 . S
Mn259 O276 2.251 . S
O260 Mn257 2.160 1_565 S
O260 C271 1.239 . S
O261 Mn257 2.221 . S
O261 Mn262 2.290 . S
O261 C272 1.278 . S
Mn262 O261 2.290 . S
Mn262 O264 2.089 1_545 S
Mn262 O267 2.251 . S
Mn262 O268 2.087 . S
O263 Mn257 2.163 1_665 S
O263 C273 1.244 . S
O264 Mn262 2.089 1_565 S
O264 C271 1.256 . S
O265 Mn257 2.160 . S
O265 C274 1.239 . S
O266 Mn259 2.089 1_545 S
O266 C274 1.256 1_655 S
O267 Mn262 2.251 . S
O267 C272 1.241 . S
O268 Mn262 2.087 . S
O268 C273 1.256 1_445 S
C269 O275 1.278 . S
C269 O276 1.241 . S
C270 O256 1.244 . S
C270 O258 1.256 . S
C271 O260 1.239 . S
C271 O264 1.256 . S
C272 O261 1.278 . S
C272 O267 1.241 . S
C273 O263 1.244 . S
C273 O268 1.256 1_665 S
C274 O265 1.239 . S
C274 O266 1.256 1_455 S
O275 Mn257 2.221 1_665 S
O275 Mn259 2.290 . S
O275 C269 1.278 . S
O276 Mn259 2.251 . S
O276 C269 1.241 . S
O277 Mn278 2.163 1_556 S
O277 C291 1.244 1_545 S
Mn278 O277 2.163 1_554 S
Mn278 O281 2.160 . S
Mn278 O282 2.221 . S
Mn278 O284 2.163 . S
Mn278 O286 2.160 1_554 S
Mn278 O296 2.221 1_545 S
O279 Mn280 2.087 . S
O279 C291 1.256 . S
Mn280 O279 2.087 . S
Mn280 O287 2.089 . S
Mn280 O296 2.290 1_556 S
Mn280 O297 2.251 1_556 S
O281 Mn278 2.160 . S
O281 C292 1.239 . S
O282 Mn278 2.221 . S
O282 Mn283 2.290 . S
O282 C293 1.278 1_554 S
Mn283 O282 2.290 . S
Mn283 O285 2.089 . S
Mn283 O288 2.251 1_554 S
Mn283 O289 2.087 . S
O284 Mn278 2.163 . S
O284 C294 1.244 . S
O285 Mn283 2.089 . S
O285 C292 1.256 . S
O286 Mn278 2.160 1_556 S
O286 C295 1.239 1_545 S
O287 Mn280 2.089 . S
O287 C295 1.256 . S
O288 Mn283 2.251 1_556 S
O288 C293 1.241 . S
O289 Mn283 2.087 . S
O289 C294 1.256 . S
C290 O296 1.278 . S
C290 O297 1.241 . S
C291 O277 1.244 1_565 S
C291 O279 1.256 . S
C292 O281 1.239 . S
C292 O285 1.256 . S
C293 O282 1.278 1_556 S
C293 O288 1.241 . S
C294 O284 1.244 . S
C294 O289 1.256 . S
C295 O286 1.239 1_565 S
C295 O287 1.256 . S
O296 Mn278 2.221 1_565 S
O296 Mn280 2.290 1_554 S
O296 C290 1.278 . S
O297 Mn280 2.251 1_554 S
O297 C290 1.241 . S
O298 Mn299 2.163 . S
O298 C312 1.244 . S
Mn299 O298 2.163 . S
Mn299 O302 2.160 . S
Mn299 O303 2.221 . S
Mn299 O305 2.163 . S
Mn299 O307 2.160 . S
Mn299 O317 2.221 . S
O300 Mn301 2.087 . S
O300 C312 1.256 . S
Mn301 O300 2.087 . S
Mn301 O308 2.089 . S
Mn301 O317 2.290 . S
Mn301 O318 2.251 . S
O302 Mn299 2.160 . S
O302 C313 1.239 . S
O303 Mn299 2.221 . S
O303 Mn304 2.290 . S
O303 C314 1.278 . S
Mn304 O303 2.290 . S
Mn304 O306 2.089 . S
Mn304 O309 2.251 . S
Mn304 O310 2.087 . S
O305 Mn299 2.163 . S
O305 C315 1.244 . S
O306 Mn304 2.089 . S
O306 C313 1.256 . S
O307 Mn299 2.160 . S
O307 C316 1.239 . S
O308 Mn301 2.089 . S
O308 C316 1.256 . S
O309 Mn304 2.251 . S
O309 C314 1.241 . S
O310 Mn304 2.087 . S
O310 C315 1.256 . S
C311 O317 1.278 . S
C311 O318 1.241 . S
C312 O298 1.244 . S
C312 O300 1.256 . S
C313 O302 1.239 . S
C313 O306 1.256 . S
C314 O303 1.278 . S
C314 O309 1.241 . S
C315 O305 1.244 . S
C315 O310 1.256 . S
C316 O307 1.239 . S
C316 O308 1.256 . S
O317 Mn299 2.221 . S
O317 Mn301 2.290 . S
O317 C311 1.278 . S
O318 Mn301 2.251 . S
O318 C311 1.241 . S
O319 Mn320 2.163 1_655 S
O319 C333 1.244 1_554 S
Mn320 O319 2.163 1_455 S
Mn320 O323 2.160 . S
Mn320 O324 2.221 1_455 S
Mn320 O326 2.163 . S
Mn320 O328 2.160 1_454 S
Mn320 O338 2.221 1_554 S
O321 Mn322 2.087 . S
O321 C333 1.256 . S
Mn322 O321 2.087 . S
Mn322 O329 2.089 . S
Mn322 O338 2.290 1_655 S
Mn322 O339 2.251 . S
O323 Mn320 2.160 . S
O323 C334 1.239 . S
O324 Mn320 2.221 1_655 S
O324 Mn325 2.290 1_655 S
O324 C335 1.278 . S
Mn325 O324 2.290 1_455 S
Mn325 O327 2.089 . S
Mn325 O330 2.251 1_455 S
Mn325 O331 2.087 . S
O326 Mn320 2.163 . S
O326 C336 1.244 . S
O327 Mn325 2.089 . S
O327 C334 1.256 . S
O328 Mn320 2.160 1_656 S
O328 C337 1.239 . S
O329 Mn322 2.089 . S
O329 C337 1.256 . S
O330 Mn325 2.251 1_655 S
O330 C335 1.241 . S
O331 Mn325 2.087 . S
O331 C336 1.256 . S
C332 O338 1.278 . S
C332 O339 1.241 1_455 S
C333 O319 1.244 1_556 S
C333 O321 1.256 . S
C334 O323 1.239 . S
C334 O327 1.256 . S
C335 O324 1.278 . S
C335 O330 1.241 . S
C336 O326 1.244 . S
C336 O331 1.256 . S
C337 O328 1.239 . S
C337 O329 1.256 . S
O338 Mn320 2.221 1_556 S
O338 Mn322 2.290 1_455 S
O338 C332 1.278 . S
O339 Mn322 2.251 . S
O339 C332 1.241 1_655 S
H340 C346 0.930 . S
H341 C349 0.930 . S
H342 C350 0.930 . S
H343 C351 0.930 . S
H344 C354 0.930 . S
H345 C355 0.930 . S
C346 H340 0.930 . S
C346 C347 1.355 . S
C346 C348 1.415 . S
C347 C346 1.355 . S
C347 C349 1.419 . S
C348 C346 1.415 . S
C348 C353 1.425 . S
C348 C355 1.409 . S
C349 H341 0.930 . S
C349 C347 1.419 . S
C349 C350 1.362 . S
C350 H342 0.930 . S
C350 C349 1.362 . S
C350 C353 1.409 . S
C351 H343 0.930 . S
C351 C352 1.355 . S
C351 C353 1.415 . S
C352 C351 1.355 . S
C352 C354 1.419 . S
C353 C348 1.425 . S
C353 C350 1.409 . S
C353 C351 1.415 . S
C354 H344 0.930 . S
C354 C352 1.419 . S
C354 C355 1.362 . S
C355 H345 0.930 . S
C355 C348 1.409 . S
C355 C354 1.362 . S
H356 C362 0.930 . S
H357 C365 0.930 . S
H358 C366 0.930 . S
H359 C367 0.930 . S
H360 C370 0.930 1_545 S
H361 C371 0.931 . S
C362 H356 0.930 . S
C362 C363 1.355 . S
C362 C364 1.415 . S
C363 C362 1.355 . S
C363 C365 1.419 . S
C364 C362 1.415 . S
C364 C369 1.425 . S
C364 C371 1.409 . S
C365 H357 0.930 . S
C365 C363 1.419 . S
C365 C366 1.362 . S
C366 H358 0.930 . S
C366 C365 1.362 . S
C366 C369 1.409 . S
C367 H359 0.930 . S
C367 C368 1.355 . S
C367 C369 1.415 . S
C368 C367 1.355 . S
C368 C370 1.419 . S
C369 C364 1.425 . S
C369 C366 1.409 . S
C369 C367 1.415 . S
C370 H360 0.930 1_565 S
C370 C368 1.419 . S
C370 C371 1.362 . S
C371 H361 0.931 . S
C371 C364 1.409 . S
C371 C370 1.362 . S
H372 C378 0.930 . S
H373 C381 0.930 . S
H374 C382 0.930 . S
H375 C383 0.930 . S
H376 C386 0.930 . S
H377 C387 0.930 . S
C378 H372 0.930 . S
C378 C379 1.355 . S
C378 C380 1.415 . S
C379 C378 1.355 . S
C379 C381 1.419 . S
C380 C378 1.415 . S
C380 C385 1.425 . S
C380 C387 1.409 . S
C381 H373 0.930 . S
C381 C379 1.419 . S
C381 C382 1.362 . S
C382 H374 0.930 . S
C382 C381 1.362 . S
C382 C385 1.409 . S
C383 H375 0.930 . S
C383 C384 1.355 . S
C383 C385 1.415 . S
C384 C383 1.355 . S
C384 C386 1.419 . S
C385 C380 1.425 . S
C385 C382 1.409 . S
C385 C383 1.415 . S
C386 H376 0.930 . S
C386 C384 1.419 . S
C386 C387 1.362 . S
C387 H377 0.930 . S
C387 C380 1.409 . S
C387 C386 1.362 . S
H388 C394 0.930 . S
H389 C397 0.930 . S
H390 C398 0.930 . S
H391 C399 0.930 . S
H392 C402 0.930 1_455 S
H393 C403 0.930 1_455 S
C394 H388 0.930 . S
C394 C395 1.355 . S
C394 C396 1.415 . S
C395 C394 1.355 . S
C395 C397 1.419 . S
C396 C394 1.415 . S
C396 C401 1.425 . S
C396 C403 1.409 . S
C397 H389 0.930 . S
C397 C395 1.419 . S
C397 C398 1.362 . S
C398 H390 0.930 . S
C398 C397 1.362 . S
C398 C401 1.409 . S
C399 H391 0.930 . S
C399 C400 1.355 . S
C399 C401 1.415 . S
C400 C399 1.355 . S
C400 C402 1.419 . S
C401 C396 1.425 . S
C401 C398 1.409 . S
C401 C399 1.415 . S
C402 H392 0.930 1_655 S
C402 C400 1.419 . S
C402 C403 1.362 . S
C403 H393 0.930 1_655 S
C403 C396 1.409 . S
C403 C402 1.362 . S
H404 C410 0.930 . S
H405 C413 0.930 . S
H406 C414 0.930 . S
H407 C415 0.930 . S
H408 C418 0.930 . S
H409 C419 0.930 . S
C410 H404 0.930 . S
C410 C411 1.355 . S
C410 C412 1.415 . S
C411 C410 1.355 . S
C411 C413 1.419 . S
C412 C410 1.415 . S
C412 C417 1.425 . S
C412 C419 1.409 . S
C413 H405 0.930 . S
C413 C411 1.419 . S
C413 C414 1.362 . S
C414 H406 0.930 . S
C414 C413 1.362 . S
C414 C417 1.409 . S
C415 H407 0.930 . S
C415 C416 1.355 . S
C415 C417 1.415 . S
C416 C415 1.355 . S
C416 C418 1.419 . S
C417 C412 1.425 . S
C417 C414 1.409 . S
C417 C415 1.415 . S
C418 H408 0.930 . S
C418 C416 1.419 . S
C418 C419 1.362 . S
C419 H409 0.930 . S
C419 C412 1.409 . S
C419 C418 1.362 . S
H420 C426 0.930 . S
H421 C429 0.930 . S
H422 C430 0.930 . S
H423 C431 0.930 . S
H424 C434 0.930 . S
H425 C435 0.930 . S
C426 H420 0.930 . S
C426 C427 1.355 . S
C426 C428 1.415 . S
C427 C426 1.355 . S
C427 C429 1.419 . S
C428 C426 1.415 . S
C428 C433 1.425 . S
C428 C435 1.409 . S
C429 H421 0.930 . S
C429 C427 1.419 . S
C429 C430 1.362 . S
C430 H422 0.930 . S
C430 C429 1.362 . S
C430 C433 1.409 . S
C431 H423 0.930 . S
C431 C432 1.355 . S
C431 C433 1.415 . S
C432 C431 1.355 . S
C432 C434 1.419 . S
C433 C428 1.425 . S
C433 C430 1.409 . S
C433 C431 1.415 . S
C434 H424 0.930 . S
C434 C432 1.419 . S
C434 C435 1.362 . S
C435 H425 0.930 . S
C435 C428 1.409 . S
C435 C434 1.362 . S
H436 C442 0.930 . S
H437 C445 0.930 . S
H438 C446 0.930 . S
H439 C447 0.930 . S
H440 C450 0.930 . S
H441 C451 0.930 . S
C442 H436 0.930 . S
C442 C443 1.355 . S
C442 C444 1.415 . S
C443 C442 1.355 . S
C443 C445 1.419 . S
C444 C442 1.415 . S
C444 C449 1.425 . S
C444 C451 1.409 1_556 S
C445 H437 0.930 . S
C445 C443 1.419 . S
C445 C446 1.362 . S
C446 H438 0.930 . S
C446 C445 1.362 . S
C446 C449 1.409 . S
C447 H439 0.930 . S
C447 C448 1.355 . S
C447 C449 1.415 . S
C448 C447 1.355 . S
C448 C450 1.419 1_556 S
C449 C444 1.425 . S
C449 C446 1.409 . S
C449 C447 1.415 . S
C450 H440 0.930 . S
C450 C448 1.419 1_554 S
C450 C451 1.362 . S
C451 H441 0.930 . S
C451 C444 1.409 1_554 S
C451 C450 1.362 . S
H452 C458 0.930 . S
H453 C461 0.930 . S
H454 C462 0.930 . S
H455 C463 0.930 . S
H456 C466 0.930 . S
H457 C467 0.930 . S
C458 H452 0.930 . S
C458 C459 1.355 . S
C458 C460 1.415 . S
C459 C458 1.355 . S
C459 C461 1.419 . S
C460 C458 1.415 . S
C460 C465 1.425 . S
C460 C467 1.409 . S
C461 H453 0.930 . S
C461 C459 1.419 . S
C461 C462 1.362 . S
C462 H454 0.930 . S
C462 C461 1.362 . S
C462 C465 1.409 . S
C463 H455 0.930 . S
C463 C464 1.355 . S
C463 C465 1.415 . S
C464 C463 1.355 . S
C464 C466 1.419 . S
C465 C460 1.425 . S
C465 C462 1.409 . S
C465 C463 1.415 . S
C466 H456 0.930 . S
C466 C464 1.419 . S
C466 C467 1.362 . S
C467 H457 0.930 . S
C467 C460 1.409 . S
C467 C466 1.362 . S
H468 C474 0.930 . S
H469 C477 0.930 . S
H470 C478 0.930 1_556 S
H471 C479 0.930 1_556 S
H472 C482 0.930 . S
H473 C483 0.930 . S
C474 H468 0.930 . S
C474 C475 1.355 . S
C474 C476 1.415 . S
C475 C474 1.355 . S
C475 C477 1.419 . S
C476 C474 1.415 . S
C476 C481 1.425 . S
C476 C483 1.409 . S
C477 H469 0.930 . S
C477 C475 1.419 . S
C477 C478 1.362 . S
C478 H470 0.930 1_554 S
C478 C477 1.362 . S
C478 C481 1.409 . S
C479 H471 0.930 1_554 S
C479 C480 1.355 . S
C479 C481 1.415 . S
C480 C479 1.355 . S
C480 C482 1.419 . S
C481 C476 1.425 . S
C481 C478 1.409 . S
C481 C479 1.415 . S
C482 H472 0.930 . S
C482 C480 1.419 . S
C482 C483 1.362 . S
C483 H473 0.930 . S
C483 C476 1.409 . S
C483 C482 1.362 . S
H484 C490 0.930 . S
H485 C493 0.930 . S
H486 C494 0.930 . S
H487 C495 0.930 . S
H488 C498 0.930 . S
H489 C499 0.930 . S
C490 H484 0.930 . S
C490 C491 1.355 . S
C490 C492 1.415 . S
C491 C490 1.355 . S
C491 C493 1.419 . S
C492 C490 1.415 . S
C492 C497 1.425 . S
C492 C499 1.409 . S
C493 H485 0.930 . S
C493 C491 1.419 . S
C493 C494 1.362 . S
C494 H486 0.930 . S
C494 C493 1.362 . S
C494 C497 1.409 . S
C495 H487 0.930 . S
C495 C496 1.355 . S
C495 C497 1.415 . S
C496 C495 1.355 . S
C496 C498 1.419 . S
C497 C492 1.425 . S
C497 C494 1.409 . S
C497 C495 1.415 . S
C498 H488 0.930 . S
C498 C496 1.419 . S
C498 C499 1.362 . S
C499 H489 0.930 . S
C499 C492 1.409 . S
C499 C498 1.362 . S
H500 C506 0.930 . S
H501 C509 0.930 . S
H502 C510 0.944 . S
H503 C511 0.927 1_455 S
H504 C514 0.930 . S
H505 C515 0.930 . S
C506 H500 0.930 . S
C506 C507 1.355 . S
C506 C508 1.415 . S
C507 C506 1.355 . S
C507 C509 1.419 . S
C508 C506 1.415 . S
C508 C513 1.425 . S
C508 C515 1.409 . S
C509 H501 0.930 . S
C509 C507 1.419 . S
C509 C510 1.362 . S
C510 H502 0.944 . S
C510 C509 1.362 . S
C510 C513 1.409 . S
C511 H503 0.927 1_655 S
C511 C512 1.355 . S
C511 C513 1.415 . S
C512 C511 1.355 . S
C512 C514 1.419 . S
C513 C508 1.425 . S
C513 C510 1.409 . S
C513 C511 1.415 . S
C514 H504 0.930 . S
C514 C512 1.419 . S
C514 C515 1.362 . S
C515 H505 0.930 . S
C515 C508 1.409 . S
C515 C514 1.362 . S
H516 C522 0.930 . S
H517 C525 0.930 . S
H518 C526 0.930 . S
H519 C527 0.930 . S
H520 C530 0.930 . S
H521 C531 0.930 . S
C522 H516 0.930 . S
C522 C523 1.355 . S
C522 C524 1.415 . S
C523 C522 1.355 . S
C523 C525 1.419 . S
C524 C522 1.415 . S
C524 C529 1.425 . S
C524 C531 1.409 . S
C525 H517 0.930 . S
C525 C523 1.419 . S
C525 C526 1.362 . S
C526 H518 0.930 . S
C526 C525 1.362 . S
C526 C529 1.409 . S
C527 H519 0.930 . S
C527 C528 1.355 . S
C527 C529 1.415 . S
C528 C527 1.355 . S
C528 C530 1.419 . S
C529 C524 1.425 . S
C529 C526 1.409 . S
C529 C527 1.415 . S
C530 H520 0.930 . S
C530 C528 1.419 . S
C530 C531 1.362 . S
C531 H521 0.930 . S
C531 C524 1.409 . S
C531 C530 1.362 . S
H532 C538 0.930 . S
H533 C541 0.930 . S
H534 C542 0.930 . S
H535 C543 0.930 . S
H536 C546 0.930 1_445 S
H537 C547 0.930 1_545 S
C538 H532 0.930 . S
C538 C539 1.355 . S
C538 C540 1.415 . S
C539 C538 1.355 . S
C539 C541 1.419 . S
C540 C538 1.415 . S
C540 C545 1.425 . S
C540 C547 1.409 . S
C541 H533 0.930 . S
C541 C539 1.419 . S
C541 C542 1.362 . S
C542 H534 0.930 . S
C542 C541 1.362 . S
C542 C545 1.409 . S
C543 H535 0.930 . S
C543 C544 1.355 . S
C543 C545 1.415 . S
C544 C543 1.355 . S
C544 C546 1.419 . S
C545 C540 1.425 . S
C545 C542 1.409 . S
C545 C543 1.415 . S
C546 H536 0.930 1_665 S
C546 C544 1.419 . S
C546 C547 1.362 . S
C547 H537 0.930 1_565 S
C547 C540 1.409 . S
C547 C546 1.362 . S
H548 C554 0.930 . S
H549 C557 0.930 . S
H550 C558 0.930 . S
H551 C559 0.930 . S
H552 C562 0.930 . S
H553 C563 0.930 . S
C554 H548 0.930 . S
C554 C555 1.355 . S
C554 C556 1.415 . S
C555 C554 1.355 . S
C555 C557 1.419 . S
C556 C554 1.415 . S
C556 C561 1.425 . S
C556 C563 1.409 . S
C557 H549 0.930 . S
C557 C555 1.419 . S
C557 C558 1.362 . S
C558 H550 0.930 . S
C558 C557 1.362 . S
C558 C561 1.409 . S
C559 H551 0.930 . S
C559 C560 1.355 . S
C559 C561 1.415 . S
C560 C559 1.355 . S
C560 C562 1.419 . S
C561 C556 1.425 . S
C561 C558 1.409 . S
C561 C559 1.415 . S
C562 H552 0.930 . S
C562 C560 1.419 . S
C562 C563 1.362 . S
C563 H553 0.930 . S
C563 C556 1.409 . S
C563 C562 1.362 . S
H564 C570 0.930 . S
H565 C573 0.930 . S
H566 C574 0.930 . S
H567 C575 0.930 . S
H568 C578 0.930 . S
H569 C579 0.930 . S
C570 H564 0.930 . S
C570 C571 1.355 . S
C570 C572 1.415 . S
C571 C570 1.355 . S
C571 C573 1.419 . S
C572 C570 1.415 . S
C572 C577 1.425 . S
C572 C579 1.409 . S
C573 H565 0.930 . S
C573 C571 1.419 . S
C573 C574 1.362 . S
C574 H566 0.930 . S
C574 C573 1.362 . S
C574 C577 1.409 . S
C575 H567 0.930 . S
C575 C576 1.355 . S
C575 C577 1.415 . S
C576 C575 1.355 . S
C576 C578 1.419 . S
C577 C572 1.425 . S
C577 C574 1.409 . S
C577 C575 1.415 . S
C578 H568 0.930 . S
C578 C576 1.419 . S
C578 C579 1.362 . S
C579 H569 0.930 . S
C579 C572 1.409 . S
C579 C578 1.362 . S
H580 C586 0.930 . S
H581 C589 0.930 . S
H582 C590 0.930 . S
H583 C591 0.930 . S
H584 C594 0.930 . S
H585 C595 0.930 . S
C586 H580 0.930 . S
C586 C587 1.355 . S
C586 C588 1.415 . S
C587 C586 1.355 . S
C587 C589 1.419 . S
C588 C586 1.415 . S
C588 C593 1.425 . S
C588 C595 1.409 . S
C589 H581 0.930 . S
C589 C587 1.419 . S
C589 C590 1.362 . S
C590 H582 0.930 . S
C590 C589 1.362 . S
C590 C593 1.409 . S
C591 H583 0.930 . S
C591 C592 1.355 . S
C591 C593 1.415 . S
C592 C591 1.355 . S
C592 C594 1.419 . S
C593 C588 1.425 . S
C593 C590 1.409 . S
C593 C591 1.415 . S
C594 H584 0.930 . S
C594 C592 1.419 . S
C594 C595 1.362 . S
C595 H585 0.930 . S
C595 C588 1.409 . S
C595 C594 1.362 . S
H596 C602 0.930 . S
H597 C605 0.930 . S
H598 C606 0.930 1_545 S
H599 C607 0.930 1_545 S
H600 C610 0.930 . S
H601 C611 0.930 . S
C602 H596 0.930 . S
C602 C603 1.355 . S
C602 C604 1.415 . S
C603 C602 1.355 . S
C603 C605 1.419 . S
C604 C602 1.415 . S
C604 C609 1.425 . S
C604 C611 1.409 . S
C605 H597 0.930 . S
C605 C603 1.419 . S
C605 C606 1.362 . S
C606 H598 0.930 1_565 S
C606 C605 1.362 . S
C606 C609 1.409 . S
C607 H599 0.930 1_565 S
C607 C608 1.355 . S
C607 C609 1.415 . S
C608 C607 1.355 . S
C608 C610 1.419 . S
C609 C604 1.425 . S
C609 C606 1.409 . S
C609 C607 1.415 . S
C610 H600 0.930 . S
C610 C608 1.419 . S
C610 C611 1.362 . S
C611 H601 0.930 . S
C611 C604 1.409 . S
C611 C610 1.362 . S
H612 C618 0.930 . S
H613 C621 0.930 . S
H614 C622 0.930 . S
H615 C623 0.930 . S
H616 C626 0.930 . S
H617 C627 0.930 . S
C618 H612 0.930 . S
C618 C619 1.355 . S
C618 C620 1.415 . S
C619 C618 1.355 . S
C619 C621 1.419 . S
C620 C618 1.415 . S
C620 C625 1.425 . S
C620 C627 1.409 . S
C621 H613 0.930 . S
C621 C619 1.419 . S
C621 C622 1.362 . S
C622 H614 0.930 . S
C622 C621 1.362 . S
C622 C625 1.409 . S
C623 H615 0.930 . S
C623 C624 1.355 . S
C623 C625 1.415 . S
C624 C623 1.355 . S
C624 C626 1.419 . S
C625 C620 1.425 . S
C625 C622 1.409 . S
C625 C623 1.415 . S
C626 H616 0.930 . S
C626 C624 1.419 . S
C626 C627 1.362 . S
C627 H617 0.930 . S
C627 C620 1.409 . S
C627 C626 1.362 . S
H628 C634 0.930 . S
H629 C637 0.930 . S
H630 C638 0.930 . S
H631 C639 0.930 . S
H632 C642 0.930 . S
H633 C643 0.930 . S
C634 H628 0.930 . S
C634 C635 1.355 . S
C634 C636 1.415 . S
C635 C634 1.355 . S
C635 C637 1.419 . S
C636 C634 1.415 . S
C636 C641 1.425 . S
C636 C643 1.409 . S
C637 H629 0.930 . S
C637 C635 1.419 . S
C637 C638 1.362 . S
C638 H630 0.930 . S
C638 C637 1.362 . S
C638 C641 1.409 . S
C639 H631 0.930 . S
C639 C640 1.355 . S
C639 C641 1.415 . S
C640 C639 1.355 . S
C640 C642 1.419 . S
C641 C636 1.425 . S
C641 C638 1.409 . S
C641 C639 1.415 . S
C642 H632 0.930 . S
C642 C640 1.419 . S
C642 C643 1.362 . S
C643 H633 0.930 . S
C643 C636 1.409 . S
C643 C642 1.362 . S
H644 C650 0.930 . S
H645 C653 0.930 . S
H646 C654 0.930 . S
H647 C655 0.930 . S
H648 C658 0.930 . S
H649 C659 0.930 . S
C650 H644 0.930 . S
C650 C651 1.355 . S
C650 C652 1.415 . S
C651 C650 1.355 . S
C651 C653 1.419 . S
C652 C650 1.415 . S
C652 C657 1.425 . S
C652 C659 1.409 . S
C653 H645 0.930 . S
C653 C651 1.419 . S
C653 C654 1.362 . S
C654 H646 0.930 . S
C654 C653 1.362 . S
C654 C657 1.409 . S
C655 H647 0.930 . S
C655 C656 1.355 . S
C655 C657 1.415 . S
C656 C655 1.355 . S
C656 C658 1.419 . S
C657 C652 1.425 . S
C657 C654 1.409 . S
C657 C655 1.415 . S
C658 H648 0.930 . S
C658 C656 1.419 . S
C658 C659 1.362 . S
C659 H649 0.930 . S
C659 C652 1.409 . S
C659 C658 1.362 . S
H660 C666 0.930 . S
H661 C669 0.930 . S
H662 C670 0.930 . S
H663 C671 0.930 . S
H664 C674 0.930 1_454 S
H665 C675 0.930 1_454 S
C666 H660 0.930 . S
C666 C667 1.355 . S
C666 C668 1.415 . S
C667 C666 1.355 . S
C667 C669 1.419 . S
C668 C666 1.415 . S
C668 C673 1.425 . S
C668 C675 1.409 . S
C669 H661 0.930 . S
C669 C667 1.419 . S
C669 C670 1.362 . S
C670 H662 0.930 . S
C670 C669 1.362 . S
C670 C673 1.409 . S
C671 H663 0.930 . S
C671 C672 1.355 . S
C671 C673 1.415 . S
C672 C671 1.355 . S
C672 C674 1.419 . S
C673 C668 1.425 . S
C673 C670 1.409 . S
C673 C671 1.415 . S
C674 H664 0.930 1_656 S
C674 C672 1.419 . S
C674 C675 1.362 . S
C675 H665 0.930 1_656 S
C675 C668 1.409 . S
C675 C674 1.362 . S
H676 C682 0.930 . S
H677 C685 0.930 . S
H678 C686 0.930 . S
H679 C687 0.930 . S
H680 C690 0.930 . S
H681 C691 0.930 . S
C682 H676 0.930 . S
C682 C683 1.355 . S
C682 C684 1.415 . S
C683 C682 1.355 . S
C683 C685 1.419 . S
C684 C682 1.415 . S
C684 C689 1.425 . S
C684 C691 1.409 . S
C685 H677 0.930 . S
C685 C683 1.419 . S
C685 C686 1.362 . S
C686 H678 0.930 . S
C686 C685 1.362 . S
C686 C689 1.409 . S
C687 H679 0.930 . S
C687 C688 1.355 . S
C687 C689 1.415 . S
C688 C687 1.355 . S
C688 C690 1.419 . S
C689 C684 1.425 . S
C689 C686 1.409 . S
C689 C687 1.415 . S
C690 H680 0.930 . S
C690 C688 1.419 . S
C690 C691 1.362 . S
C691 H681 0.930 . S
C691 C684 1.409 . S
C691 C690 1.362 . S
H692 C698 0.930 . S
H693 C701 0.930 . S
H694 C702 0.930 . S
H695 C703 0.930 . S
H696 C706 0.930 . S
H697 C707 0.930 . S
C698 H692 0.930 . S
C698 C699 1.355 . S
C698 C700 1.415 . S
C699 C698 1.355 . S
C699 C701 1.419 . S
C700 C698 1.415 . S
C700 C705 1.425 . S
C700 C707 1.409 . S
C701 H693 0.930 . S
C701 C699 1.419 . S
C701 C702 1.362 . S
C702 H694 0.930 . S
C702 C701 1.362 . S
C702 C705 1.409 . S
C703 H695 0.930 . S
C703 C704 1.355 . S
C703 C705 1.415 . S
C704 C703 1.355 . S
C704 C706 1.419 . S
C705 C700 1.425 . S
C705 C702 1.409 . S
C705 C703 1.415 . S
C706 H696 0.930 . S
C706 C704 1.419 . S
C706 C707 1.362 . S
C707 H697 0.930 . S
C707 C700 1.409 . S
C707 C706 1.362 . S
H708 C714 0.930 . S
H709 C717 0.930 . S
H710 C718 0.930 . S
H711 C719 0.930 . S
H712 C722 0.930 . S
H713 C723 0.930 . S
C714 H708 0.930 . S
C714 C715 1.355 . S
C714 C716 1.415 . S
C715 C714 1.355 . S
C715 C717 1.419 . S
C716 C714 1.415 . S
C716 C721 1.425 . S
C716 C723 1.409 . S
C717 H709 0.930 . S
C717 C715 1.419 . S
C717 C718 1.362 . S
C718 H710 0.930 . S
C718 C717 1.362 . S
C718 C721 1.409 . S
C719 H711 0.930 . S
C719 C720 1.355 . S
C719 C721 1.415 . S
C720 C719 1.355 . S
C720 C722 1.419 . S
C721 C716 1.425 . S
C721 C718 1.409 . S
C721 C719 1.415 . S
C722 H712 0.930 . S
C722 C720 1.419 . S
C722 C723 1.362 . S
C723 H713 0.930 . S
C723 C716 1.409 . S
C723 C722 1.362 . S
C347 C29 1.592 . S
C352 C274 1.613 . S
C363 C49 1.466 . S
C368 C291 1.432 . S
C384 C314 1.176 . S
C379 C93 1.401 . S
C395 C119 1.610 . S
C400 C335 1.342 . S
C416 C294 1.678 . S
C411 C17 1.705 . S
C432 C271 1.670 . S
C427 C61 1.724 . S
C448 C333 1.368 . S
C443 C81 1.322 . S
C464 C312 1.475 . S
C459 C125 1.455 . S
C475 C23 1.645 . S
C480 C336 1.611 . S
C496 C293 1.295 . S
C491 C87 1.501 . S
C507 C113 1.574 . S
C512 C269 1.547 . S
C523 C55 1.540 . S
C528 C315 1.498 . S
C544 C273 1.511 . S
C539 C157 1.622 . S
C555 C189 1.324 . S
C560 C292 1.312 . S
C571 C221 1.526 . S
C576 C311 1.225 . S
C587 C253 1.554 . S
C592 C332 1.306 . S
C603 C145 1.741 . S
C608 C295 1.684 . S
C624 C270 1.668 . S
C619 C183 1.672 . S
C640 C334 1.245 . S
C635 C209 1.287 . S
C656 C313 1.549 . S
C651 C247 1.463 . S
C667 C151 1.557 . S
C672 C337 1.542 . S
C688 C290 1.151 . S
C683 C215 1.507 . S
C704 C272 1.394 . S
C699 C241 1.402 . S
C715 C177 1.437 . S
C720 C316 1.464 . S
