# Generated by pormake.
# Topology ssb, (4,4)-cn, num edge types: 1
# Building blocks:
#     Node 0, Type 0, BuildingBlock: MUDLON_clean_linker_0, # of connection points: 4
#     Node 1, Type 0, BuildingBlock: MUDLON_clean_linker_0, # of connection points: 4
#     Node 2, Type 0, BuildingBlock: MUDLON_clean_linker_0, # of connection points: 4
#     Node 3, Type 0, BuildingBlock: MUDLON_clean_linker_0, # of connection points: 4
#     Node 4, Type 0, BuildingBlock: MUDLON_clean_linker_0, # of connection points: 4
#     Node 5, Type 0, BuildingBlock: MUDLON_clean_linker_0, # of connection points: 4
#     Node 6, Type 0, BuildingBlock: MUDLON_clean_linker_0, # of connection points: 4
#     Node 7, Type 0, BuildingBlock: MUDLON_clean_linker_0, # of connection points: 4
#     Node 8, Type 1, BuildingBlock: KOZSID_clean_sbu_0, # of connection points: 4
#     Node 9, Type 1, BuildingBlock: KOZSID_clean_sbu_0, # of connection points: 4
#     Node 10, Type 1, BuildingBlock: KOZSID_clean_sbu_0, # of connection points: 4
#     Node 11, Type 1, BuildingBlock: KOZSID_clean_sbu_0, # of connection points: 4
#     Node 12, Type 1, BuildingBlock: KOZSID_clean_sbu_0, # of connection points: 4
#     Node 13, Type 1, BuildingBlock: KOZSID_clean_sbu_0, # of connection points: 4
#     Node 14, Type 1, BuildingBlock: KOZSID_clean_sbu_0, # of connection points: 4
#     Node 15, Type 1, BuildingBlock: KOZSID_clean_sbu_0, # of connection points: 4
#     Edge 16, Type (0, 1), BuildingBlock: KIFKEQ_clean_linker_1, # of connection points: 2
#     Edge 17, Type (0, 1), BuildingBlock: KIFKEQ_clean_linker_1, # of connection points: 2
#     Edge 18, Type (0, 1), BuildingBlock: KIFKEQ_clean_linker_1, # of connection points: 2
#     Edge 19, Type (0, 1), BuildingBlock: KIFKEQ_clean_linker_1, # of connection points: 2
#     Edge 20, Type (0, 1), BuildingBlock: KIFKEQ_clean_linker_1, # of connection points: 2
#     Edge 21, Type (0, 1), BuildingBlock: KIFKEQ_clean_linker_1, # of connection points: 2
#     Edge 22, Type (0, 1), BuildingBlock: KIFKEQ_clean_linker_1, # of connection points: 2
#     Edge 23, Type (0, 1), BuildingBlock: KIFKEQ_clean_linker_1, # of connection points: 2
#     Edge 24, Type (0, 1), BuildingBlock: KIFKEQ_clean_linker_1, # of connection points: 2
#     Edge 25, Type (0, 1), BuildingBlock: KIFKEQ_clean_linker_1, # of connection points: 2
#     Edge 26, Type (0, 1), BuildingBlock: KIFKEQ_clean_linker_1, # of connection points: 2
#     Edge 27, Type (0, 1), BuildingBlock: KIFKEQ_clean_linker_1, # of connection points: 2
#     Edge 28, Type (0, 1), BuildingBlock: KIFKEQ_clean_linker_1, # of connection points: 2
#     Edge 29, Type (0, 1), BuildingBlock: KIFKEQ_clean_linker_1, # of connection points: 2
#     Edge 30, Type (0, 1), BuildingBlock: KIFKEQ_clean_linker_1, # of connection points: 2
#     Edge 31, Type (0, 1), BuildingBlock: KIFKEQ_clean_linker_1, # of connection points: 2
#     Edge 32, Type (0, 1), BuildingBlock: KIFKEQ_clean_linker_1, # of connection points: 2
#     Edge 33, Type (0, 1), BuildingBlock: KIFKEQ_clean_linker_1, # of connection points: 2
#     Edge 34, Type (0, 1), BuildingBlock: KIFKEQ_clean_linker_1, # of connection points: 2
#     Edge 35, Type (0, 1), BuildingBlock: KIFKEQ_clean_linker_1, # of connection points: 2
#     Edge 36, Type (0, 1), BuildingBlock: KIFKEQ_clean_linker_1, # of connection points: 2
#     Edge 37, Type (0, 1), BuildingBlock: KIFKEQ_clean_linker_1, # of connection points: 2
#     Edge 38, Type (0, 1), BuildingBlock: KIFKEQ_clean_linker_1, # of connection points: 2
#     Edge 39, Type (0, 1), BuildingBlock: KIFKEQ_clean_linker_1, # of connection points: 2
#     Edge 40, Type (0, 1), BuildingBlock: KIFKEQ_clean_linker_1, # of connection points: 2
#     Edge 41, Type (0, 1), BuildingBlock: KIFKEQ_clean_linker_1, # of connection points: 2
#     Edge 42, Type (0, 1), BuildingBlock: KIFKEQ_clean_linker_1, # of connection points: 2
#     Edge 43, Type (0, 1), BuildingBlock: KIFKEQ_clean_linker_1, # of connection points: 2
#     Edge 44, Type (0, 1), BuildingBlock: KIFKEQ_clean_linker_1, # of connection points: 2
#     Edge 45, Type (0, 1), BuildingBlock: KIFKEQ_clean_linker_1, # of connection points: 2
#     Edge 46, Type (0, 1), BuildingBlock: KIFKEQ_clean_linker_1, # of connection points: 2
#     Edge 47, Type (0, 1), BuildingBlock: KIFKEQ_clean_linker_1, # of connection points: 2
# Relax obj value: 0.003
# Max RMSD: 0.058
# Mean RMSD: 0.024
data_MOF--net-ssb--node1-KOZSID_clean_sbu_0--node2-MUDLON_clean_linker_0--edge1-KIFKEQ_clean_linker_1
_symmetry_space_group_name_H-M    P1
_symmetry_Int_Tables_number       1
_symmetry_cell_setting            triclinic
loop_
_symmetry_equiv_pos_as_xyz
'x, y, z'
_cell_length_a     70.921923
_cell_length_b     70.887681
_cell_length_c     52.282237
_cell_angle_alpha  92.128432
_cell_angle_beta   94.245953
_cell_angle_gamma 89.966281
loop_
_atom_site_label
_atom_site_type_symbol
_atom_site_fract_x
_atom_site_fract_y
_atom_site_fract_z
_atom_type_partial_charge
H0 H 0.2757 0.29773 0.14588 0.0
N1 N 0.29422 0.28837 0.18951 0.0
H2 H 0.26871 0.32956 0.13112 0.0
H3 H 0.29885 0.32119 0.21867 0.0
H4 H 0.29233 0.35316 0.20384 0.0
H5 H 0.3272 0.30594 0.2081 0.0
H6 H 0.35835 0.301 0.19249 0.0
H7 H 0.30433 0.26172 0.15606 0.0
H8 H 0.33561 0.25688 0.13985 0.0
H9 H 0.26138 0.2711 0.19304 0.0
H10 H 0.31206 0.28859 0.23819 0.0
H11 H 0.24926 0.25738 0.23076 0.0
H12 H 0.30071 0.27401 0.27548 0.0
H13 H 0.21169 0.22421 0.32296 0.0
H14 H 0.18175 0.23136 0.34188 0.0
H15 H 0.21261 0.25949 0.40679 0.0
H16 H 0.24237 0.25174 0.38802 0.0
H17 H 0.2723 0.22196 0.38341 0.0
H18 H 0.27768 0.19104 0.40162 0.0
H19 H 0.2387 0.16615 0.34228 0.0
H20 H 0.23266 0.19728 0.32532 0.0
H21 H 0.2402 0.21832 0.29573 0.0
H22 H 0.25215 0.23223 0.2582 0.0
H23 H 0.27943 0.27631 0.30709 0.0
N24 N 0.24702 0.23084 0.34588 0.0
H25 H 0.26829 0.26147 0.34462 0.0
C26 C 0.28788 0.30708 0.1832 0.0
C27 C 0.27895 0.30978 0.15881 0.0
C28 C 0.27499 0.32795 0.15044 0.0
C29 C 0.2801 0.34386 0.16626 0.0
C30 C 0.28842 0.34115 0.19114 0.0
C31 C 0.29212 0.32291 0.19965 0.0
C32 C 0.31331 0.28412 0.18326 0.0
C33 C 0.32887 0.29495 0.19357 0.0
C34 C 0.34674 0.29222 0.18443 0.0
C35 C 0.34948 0.27868 0.16471 0.0
C36 C 0.33406 0.26732 0.1552 0.0
C37 C 0.31618 0.27007 0.16439 0.0
C38 C 0.28767 0.28072 0.21252 0.0
C39 C 0.26995 0.27183 0.21107 0.0
C40 C 0.26314 0.26382 0.23267 0.0
C41 C 0.27401 0.26434 0.25635 0.0
C42 C 0.29175 0.27347 0.25779 0.0
C43 C 0.29842 0.28172 0.23624 0.0
C44 C 0.22921 0.23736 0.35429 0.0
C45 C 0.21194 0.2321 0.34109 0.0
C46 C 0.19484 0.23629 0.35189 0.0
C47 C 0.19479 0.24578 0.37604 0.0
C48 C 0.21214 0.25183 0.38844 0.0
C49 C 0.22914 0.2476 0.37767 0.0
C50 C 0.25235 0.21198 0.35282 0.0
C51 C 0.26527 0.20972 0.37405 0.0
C52 C 0.26833 0.19197 0.38439 0.0
C53 C 0.25858 0.17594 0.37357 0.0
C54 C 0.24624 0.17814 0.35148 0.0
C55 C 0.24302 0.19598 0.34137 0.0
C56 C 0.25367 0.23867 0.32313 0.0
C57 C 0.24896 0.23078 0.29845 0.0
C58 C 0.25566 0.23898 0.27685 0.0
C59 C 0.26689 0.25547 0.27938 0.0
C60 C 0.27124 0.26342 0.30421 0.0
C61 C 0.26477 0.25506 0.32574 0.0
H62 H 0.7084 0.35831 0.25699 0.0
N63 N 0.71039 0.32118 0.24948 0.0
H64 H 0.72118 0.38272 0.23119 0.0
H65 H 0.73228 0.31529 0.20879 0.0
H66 H 0.74571 0.33938 0.18372 0.0
H67 H 0.70868 0.29319 0.21192 0.0
H68 H 0.68011 0.2811 0.18809 0.0
H69 H 0.67498 0.32831 0.25959 0.0
H70 H 0.64613 0.31551 0.23692 0.0
H71 H 0.70921 0.32419 0.29988 0.0
H72 H 0.7376 0.29473 0.24033 0.0
H73 H 0.72912 0.30825 0.33243 0.0
H74 H 0.75852 0.27977 0.27251 0.0
H75 H 0.80818 0.26956 0.42984 0.0
H76 H 0.84216 0.27372 0.44008 0.0
H77 H 0.85228 0.2584 0.3615 0.0
H78 H 0.81814 0.25429 0.35148 0.0
H79 H 0.80509 0.22462 0.3654 0.0
H80 H 0.79782 0.19268 0.37704 0.0
H81 H 0.75681 0.21476 0.42752 0.0
H82 H 0.76484 0.2469 0.41646 0.0
H83 H 0.77826 0.29255 0.38597 0.0
H84 H 0.75958 0.30817 0.35189 0.0
H85 H 0.76128 0.25725 0.30385 0.0
N86 N 0.79083 0.25738 0.38578 0.0
H87 H 0.78108 0.24236 0.33731 0.0
C88 C 0.71936 0.33502 0.23497 0.0
C89 C 0.71668 0.35417 0.24113 0.0
C90 C 0.72411 0.36806 0.22647 0.0
C91 C 0.73448 0.36302 0.20533 0.0
C92 C 0.73759 0.34377 0.19964 0.0
C93 C 0.73002 0.3299 0.2142 0.0
C94 C 0.6939 0.31193 0.23724 0.0
C95 C 0.69511 0.29813 0.21748 0.0
C96 C 0.67867 0.29106 0.20403 0.0
C97 C 0.66072 0.29746 0.21034 0.0
C98 C 0.65966 0.31057 0.23107 0.0
C99 C 0.6761 0.31778 0.24424 0.0
C100 C 0.72206 0.31091 0.26778 0.0
C101 C 0.71989 0.31438 0.29389 0.0
C102 C 0.73147 0.3054 0.31243 0.0
C103 C 0.74575 0.29291 0.30522 0.0
C104 C 0.74765 0.28919 0.27888 0.0
C105 C 0.73579 0.29795 0.26034 0.0
C106 C 0.81069 0.26161 0.39005 0.0
C107 C 0.81775 0.26742 0.41478 0.0
C108 C 0.83713 0.26984 0.42053 0.0
C109 C 0.8499 0.26637 0.40159 0.0
C110 C 0.84278 0.26101 0.37653 0.0
C111 C 0.8233 0.25874 0.37075 0.0
C112 C 0.78567 0.23821 0.39043 0.0
C113 C 0.79454 0.22265 0.37896 0.0
C114 C 0.7902 0.20431 0.38544 0.0
C115 C 0.77681 0.20112 0.40336 0.0
C116 C 0.76745 0.21671 0.41402 0.0
C117 C 0.7719 0.23506 0.40763 0.0
C118 C 0.78079 0.26625 0.36447 0.0
C119 C 0.77473 0.28489 0.36794 0.0
C120 C 0.76386 0.29369 0.3485 0.0
C121 C 0.7585 0.28388 0.32518 0.0
C122 C 0.76514 0.26533 0.32142 0.0
C123 C 0.77637 0.25667 0.34075 0.0
H124 H 0.81361 0.79149 0.35942 0.0
N125 N 0.80834 0.81808 0.32294 0.0
H126 H 0.84366 0.78326 0.38215 0.0
H127 H 0.8426 0.82901 0.31257 0.0
H128 H 0.87291 0.82009 0.33402 0.0
H129 H 0.80347 0.8532 0.3077 0.0
H130 H 0.79387 0.88075 0.33319 0.0
H131 H 0.79491 0.81759 0.37087 0.0
H132 H 0.78479 0.84476 0.3961 0.0
H133 H 0.77887 0.79785 0.3399 0.0
H134 H 0.81067 0.80692 0.27436 0.0
H135 H 0.75886 0.77506 0.31472 0.0
H136 H 0.79139 0.78333 0.24923 0.0
H137 H 0.71601 0.68796 0.22954 0.0
H138 H 0.72603 0.65943 0.20643 0.0
H139 H 0.76194 0.69331 0.1631 0.0
H140 H 0.75204 0.72174 0.18662 0.0
H141 H 0.72319 0.73681 0.17253 0.0
H142 H 0.69497 0.74644 0.14715 0.0
H143 H 0.66125 0.73555 0.21057 0.0
H144 H 0.68989 0.72641 0.23627 0.0
H145 H 0.73688 0.72223 0.27046 0.0
H146 H 0.75764 0.74459 0.29567 0.0
H147 H 0.76156 0.77766 0.22838 0.0
N148 N 0.72483 0.72344 0.22128 0.0
H149 H 0.74177 0.75476 0.20327 0.0
C150 C 0.82591 0.81111 0.33455 0.0
C151 C 0.8265 0.79779 0.35383 0.0
C152 C 0.84377 0.79296 0.36664 0.0
C153 C 0.8608 0.80117 0.3602 0.0
C154 C 0.86011 0.81383 0.34002 0.0
C155 C 0.84285 0.81881 0.32751 0.0
C156 C 0.79986 0.83331 0.33716 0.0
C157 C 0.79905 0.85126 0.32682 0.0
C158 C 0.79353 0.86698 0.34144 0.0
C159 C 0.78867 0.86504 0.36684 0.0
C160 C 0.78873 0.84686 0.37679 0.0
C161 C 0.79433 0.83118 0.36218 0.0
C162 C 0.79616 0.80439 0.30887 0.0
C163 C 0.78161 0.79496 0.3201 0.0
C164 C 0.77025 0.78168 0.30564 0.0
C165 C 0.77338 0.77727 0.27977 0.0
C166 C 0.7882 0.78656 0.26884 0.0
C167 C 0.79935 0.79998 0.28321 0.0
C168 C 0.73315 0.70693 0.20977 0.0
C169 C 0.72634 0.68914 0.21543 0.0
C170 C 0.7321 0.67288 0.20223 0.0
C171 C 0.74469 0.67413 0.18282 0.0
C172 C 0.75206 0.69193 0.17775 0.0
C173 C 0.74645 0.70819 0.19124 0.0
C174 C 0.7087 0.73093 0.20651 0.0
C175 C 0.70985 0.73677 0.18125 0.0
C176 C 0.69359 0.74211 0.16657 0.0
C177 C 0.67577 0.74161 0.17669 0.0
C178 C 0.67474 0.73629 0.20222 0.0
C179 C 0.69106 0.73102 0.21693 0.0
C180 C 0.73755 0.7368 0.23508 0.0
C181 C 0.74236 0.73427 0.2612 0.0
C182 C 0.7541 0.7472 0.27562 0.0
C183 C 0.76124 0.76315 0.26423 0.0
C184 C 0.75659 0.7655 0.23786 0.0
C185 C 0.74503 0.75242 0.2234 0.0
H186 H 0.31569 0.73484 0.17011 0.0
N187 N 0.31571 0.72685 0.22107 0.0
H188 H 0.34202 0.74684 0.14846 0.0
H189 H 0.34877 0.73942 0.24263 0.0
H190 H 0.37508 0.75267 0.22126 0.0
H191 H 0.33107 0.69276 0.22475 0.0
H192 H 0.32103 0.66369 0.20101 0.0
H193 H 0.28436 0.72251 0.18734 0.0
H194 H 0.27365 0.69342 0.16454 0.0
H195 H 0.30263 0.76112 0.20315 0.0
H196 H 0.29564 0.72002 0.26059 0.0
H197 H 0.27823 0.78047 0.22051 0.0
H198 H 0.26987 0.73858 0.2768 0.0
H199 H 0.20223 0.84583 0.28606 0.0
H200 H 0.21361 0.87542 0.30751 0.0
H201 H 0.26333 0.84661 0.33873 0.0
H202 H 0.25182 0.81734 0.31828 0.0
H203 H 0.22116 0.80843 0.34358 0.0
H204 H 0.19621 0.80091 0.37126 0.0
H205 H 0.15731 0.79111 0.30465 0.0
H206 H 0.18234 0.79919 0.27677 0.0
H207 H 0.22378 0.80607 0.24225 0.0
H208 H 0.2465 0.78445 0.2241 0.0
H209 H 0.26233 0.76497 0.30021 0.0
N210 N 0.21708 0.81159 0.29122 0.0
H211 H 0.23859 0.78538 0.31753 0.0
C212 C 0.3304 0.73584 0.20806 0.0
C213 C 0.32859 0.73861 0.18147 0.0
C214 C 0.34367 0.74578 0.1691 0.0
C215 C 0.36083 0.75069 0.18302 0.0
C216 C 0.36226 0.7487 0.2098 0.0
C217 C 0.34721 0.74127 0.22211 0.0
C218 C 0.30848 0.70973 0.20803 0.0
C219 C 0.31846 0.6929 0.21175 0.0
C220 C 0.31259 0.67629 0.19828 0.0
C221 C 0.29647 0.67616 0.18086 0.0
C222 C 0.28626 0.69303 0.17751 0.0
C223 C 0.29226 0.70967 0.19078 0.0
C224 C 0.30135 0.73909 0.23089 0.0
C225 C 0.29587 0.75613 0.21948 0.0
C226 C 0.28153 0.76715 0.22925 0.0
C227 C 0.27187 0.76119 0.25014 0.0
C228 C 0.27717 0.74397 0.26113 0.0
C229 C 0.29185 0.73322 0.2518 0.0
C230 C 0.22595 0.82921 0.30039 0.0
C231 C 0.21577 0.84603 0.2971 0.0
C232 C 0.22232 0.86291 0.30931 0.0
C233 C 0.23927 0.86328 0.32507 0.0
C234 C 0.25004 0.84671 0.3271 0.0
C235 C 0.24345 0.82986 0.31507 0.0
C236 C 0.20352 0.80467 0.30795 0.0
C237 C 0.20737 0.80454 0.33478 0.0
C238 C 0.1931 0.80026 0.35064 0.0
C239 C 0.17485 0.79563 0.34004 0.0
C240 C 0.1713 0.79462 0.31324 0.0
C241 C 0.18552 0.79922 0.29736 0.0
C242 C 0.22956 0.79753 0.28116 0.0
C243 C 0.23198 0.79686 0.25483 0.0
C244 C 0.24519 0.78464 0.2446 0.0
C245 C 0.25663 0.77307 0.26066 0.0
C246 C 0.25373 0.77339 0.28704 0.0
C247 C 0.24016 0.78524 0.29711 0.0
H248 H 0.22984 0.83543 0.68706 0.0
N249 N 0.24755 0.80239 0.67418 0.0
H250 H 0.23555 0.86638 0.67029 0.0
H251 H 0.27606 0.81227 0.64713 0.0
H252 H 0.28248 0.84344 0.63103 0.0
H253 H 0.23594 0.7879 0.62814 0.0
H254 H 0.20357 0.7803 0.61163 0.0
H255 H 0.21605 0.80502 0.70131 0.0
H256 H 0.18362 0.797 0.68528 0.0
H257 H 0.25247 0.82115 0.72139 0.0
H258 H 0.25857 0.76721 0.68214 0.0
H259 H 0.26491 0.8079 0.76145 0.0
H260 H 0.26975 0.75338 0.72246 0.0
H261 H 0.30394 0.76685 0.88635 0.0
H262 H 0.33489 0.77518 0.90778 0.0
H263 H 0.36201 0.75254 0.84202 0.0
H264 H 0.33121 0.74446 0.82081 0.0
H265 H 0.31366 0.7156 0.82596 0.0
H266 H 0.30859 0.68432 0.84233 0.0
H267 H 0.26537 0.70727 0.88854 0.0
H268 H 0.27037 0.73846 0.87164 0.0
H269 H 0.27143 0.77562 0.83483 0.0
H270 H 0.25884 0.78875 0.79456 0.0
H271 H 0.29446 0.75076 0.753 0.0
N272 N 0.29687 0.74848 0.84152 0.0
H273 H 0.30566 0.73686 0.7931 0.0
C274 C 0.25247 0.82142 0.66814 0.0
C275 C 0.24148 0.83708 0.67508 0.0
C276 C 0.24486 0.85487 0.66555 0.0
C277 C 0.25936 0.85747 0.64899 0.0
C278 C 0.27092 0.84194 0.64323 0.0
C279 C 0.26745 0.82415 0.65265 0.0
C280 C 0.22841 0.79693 0.66586 0.0
C281 C 0.22456 0.78975 0.64072 0.0
C282 C 0.20606 0.78532 0.63141 0.0
C283 C 0.19094 0.78798 0.64714 0.0
C284 C 0.19488 0.79497 0.67255 0.0
C285 C 0.21343 0.79944 0.68182 0.0
C286 C 0.25488 0.79522 0.69848 0.0
C287 C 0.25645 0.80643 0.72132 0.0
C288 C 0.26338 0.79869 0.74445 0.0
C289 C 0.26847 0.77946 0.74549 0.0
C290 C 0.26651 0.7683 0.72258 0.0
C291 C 0.25996 0.77614 0.69944 0.0
C292 C 0.31514 0.75515 0.85197 0.0
C293 C 0.31658 0.76402 0.87644 0.0
C294 C 0.33425 0.76861 0.8887 0.0
C295 C 0.35092 0.76444 0.87664 0.0
C296 C 0.34944 0.75614 0.85172 0.0
C297 C 0.33175 0.75146 0.83953 0.0
C298 C 0.29228 0.72941 0.84752 0.0
C299 C 0.30279 0.71385 0.83912 0.0
C300 C 0.30001 0.69596 0.84875 0.0
C301 C 0.28668 0.69326 0.86695 0.0
C302 C 0.27562 0.70873 0.87437 0.0
C303 C 0.27844 0.72658 0.86476 0.0
C304 C 0.28963 0.75544 0.81714 0.0
C305 C 0.27636 0.77009 0.81693 0.0
C306 C 0.26936 0.77772 0.79383 0.0
C307 C 0.27569 0.77105 0.77023 0.0
C308 C 0.28897 0.7562 0.77056 0.0
C309 C 0.29567 0.74834 0.79369 0.0
H310 H 0.30388 0.28069 0.92572 0.0
N311 N 0.29264 0.29496 0.88099 0.0
H312 H 0.33617 0.27321 0.94193 0.0
H313 H 0.32438 0.29529 0.85337 0.0
H314 H 0.35629 0.28731 0.86898 0.0
H315 H 0.31111 0.32671 0.86752 0.0
H316 H 0.30485 0.35916 0.88162 0.0
H317 H 0.2667 0.30691 0.91188 0.0
H318 H 0.26082 0.33952 0.92688 0.0
H319 H 0.26736 0.26745 0.87231 0.0
H320 H 0.29826 0.3087 0.83351 0.0
H321 H 0.25172 0.25649 0.83118 0.0
H322 H 0.28411 0.29703 0.7926 0.0
H323 H 0.22433 0.21336 0.71458 0.0
H324 H 0.235 0.18319 0.69704 0.0
H325 H 0.28099 0.21146 0.66434 0.0
H326 H 0.27006 0.2418 0.68194 0.0
H327 H 0.23025 0.26356 0.66289 0.0
H328 H 0.19859 0.26746 0.64185 0.0
H329 H 0.17429 0.24469 0.70757 0.0
H330 H 0.20612 0.2412 0.72867 0.0
H331 H 0.24362 0.22767 0.7515 0.0
H332 H 0.25587 0.23943 0.7935 0.0
H333 H 0.25726 0.29598 0.76525 0.0
N334 N 0.23945 0.24812 0.7074 0.0
H335 H 0.24643 0.28369 0.7225 0.0
C336 C 0.3115 0.28848 0.88836 0.0
C337 C 0.31526 0.28188 0.91315 0.0
C338 C 0.33371 0.27757 0.92234 0.0
C339 C 0.34887 0.27977 0.90681 0.0
C340 C 0.345 0.28577 0.88162 0.0
C341 C 0.32657 0.29018 0.87252 0.0
C342 C 0.28909 0.31435 0.88836 0.0
C343 C 0.2998 0.32932 0.87995 0.0
C344 C 0.29628 0.34788 0.8881 0.0
C345 C 0.28231 0.35177 0.90521 0.0
C346 C 0.27168 0.33684 0.91368 0.0
C347 C 0.27497 0.3183 0.90513 0.0
C348 C 0.28422 0.28864 0.85617 0.0
C349 C 0.27098 0.27393 0.85489 0.0
C350 C 0.26215 0.26763 0.8313 0.0
C351 C 0.26663 0.27578 0.80832 0.0
C352 C 0.27994 0.29058 0.80975 0.0
C353 C 0.28841 0.29711 0.83336 0.0
C354 C 0.24644 0.22987 0.69948 0.0
C355 C 0.23683 0.21308 0.70392 0.0
C356 C 0.24304 0.1958 0.69404 0.0
C357 C 0.25883 0.19496 0.67931 0.0
C358 C 0.2687 0.2117 0.67548 0.0
C359 C 0.26256 0.22898 0.68556 0.0
C360 C 0.2205 0.2521 0.69719 0.0
C361 C 0.21804 0.2597 0.67285 0.0
C362 C 0.19998 0.26175 0.66082 0.0
C363 C 0.18394 0.25615 0.67291 0.0
C364 C 0.18636 0.2492 0.69782 0.0
C365 C 0.20452 0.24714 0.70986 0.0
C366 C 0.24453 0.25477 0.73344 0.0
C367 C 0.24661 0.24257 0.75411 0.0
C368 C 0.25347 0.24942 0.77846 0.0
C369 C 0.2579 0.26868 0.78292 0.0
C370 C 0.25465 0.28097 0.76251 0.0
C371 C 0.24823 0.27404 0.73807 0.0
H372 H 0.79814 0.2604 0.642 0.0
N373 N 0.79122 0.24192 0.68364 0.0
H374 H 0.82909 0.26725 0.62634 0.0
H375 H 0.82565 0.23653 0.70955 0.0
H376 H 0.85649 0.24317 0.69406 0.0
H377 H 0.80525 0.21105 0.70837 0.0
H378 H 0.80024 0.17799 0.6939 0.0
H379 H 0.76614 0.22881 0.647 0.0
H380 H 0.76039 0.19569 0.63313 0.0
H381 H 0.76136 0.26413 0.67728 0.0
H382 H 0.80088 0.2424 0.73531 0.0
H383 H 0.74567 0.28231 0.71004 0.0
H384 H 0.78613 0.26147 0.76829 0.0
H385 H 0.71094 0.35246 0.81391 0.0
H386 H 0.72175 0.37971 0.84085 0.0
H387 H 0.76733 0.34623 0.87497 0.0
H388 H 0.7558 0.31878 0.84828 0.0
H389 H 0.72864 0.29794 0.85901 0.0
H390 H 0.70348 0.28479 0.88235 0.0
H391 H 0.66205 0.30445 0.82447 0.0
H392 H 0.68753 0.31648 0.80061 0.0
H393 H 0.73138 0.3269 0.76812 0.0
H394 H 0.74893 0.30893 0.73708 0.0
H395 H 0.75965 0.2655 0.79227 0.0
N396 N 0.7242 0.31759 0.81505 0.0
H397 H 0.74313 0.28423 0.8236 0.0
C398 C 0.80953 0.24789 0.6768 0.0
C399 C 0.81086 0.25696 0.65364 0.0
C400 C 0.82852 0.26087 0.64478 0.0
C401 C 0.84523 0.25561 0.65889 0.0
C402 C 0.84387 0.24717 0.68261 0.0
C403 C 0.82619 0.24342 0.69155 0.0
C404 C 0.78628 0.2224 0.67841 0.0
C405 C 0.79541 0.20785 0.69202 0.0
C406 C 0.7925 0.18897 0.68379 0.0
C407 C 0.78001 0.18435 0.66233 0.0
C408 C 0.77002 0.19887 0.64979 0.0
C409 C 0.77327 0.21774 0.65766 0.0
C410 C 0.78238 0.25217 0.70377 0.0
C411 C 0.76675 0.26349 0.69716 0.0
C412 C 0.75794 0.27403 0.71597 0.0
C413 C 0.76476 0.27372 0.74196 0.0
C414 C 0.78036 0.26206 0.74858 0.0
C415 C 0.789 0.25127 0.72968 0.0
C416 C 0.7326 0.33373 0.82901 0.0
C417 C 0.72344 0.35114 0.82694 0.0
C418 C 0.72973 0.36672 0.84232 0.0
C419 C 0.7455 0.36528 0.86014 0.0
C420 C 0.75502 0.34783 0.8617 0.0
C421 C 0.74858 0.33216 0.84633 0.0
C422 C 0.70992 0.30793 0.82781 0.0
C423 C 0.71418 0.29891 0.851 0.0
C424 C 0.69969 0.29166 0.86455 0.0
C425 C 0.6806 0.29363 0.85549 0.0
C426 C 0.67651 0.30231 0.83193 0.0
C427 C 0.69104 0.30929 0.81825 0.0
C428 C 0.73562 0.30687 0.79801 0.0
C429 C 0.7377 0.31358 0.77353 0.0
C430 C 0.74758 0.30313 0.75572 0.0
C431 C 0.75546 0.28546 0.76183 0.0
C432 C 0.75389 0.27903 0.78678 0.0
C433 C 0.74423 0.2897 0.80476 0.0
H434 H 0.76342 0.79471 0.63935 0.0
N435 N 0.78876 0.77947 0.6723 0.0
H436 H 0.75921 0.82824 0.63075 0.0
H437 H 0.80615 0.80906 0.69988 0.0
H438 H 0.80179 0.84243 0.69189 0.0
H439 H 0.82175 0.77997 0.70296 0.0
H440 H 0.85345 0.77558 0.68811 0.0
H441 H 0.79716 0.76518 0.62713 0.0
H442 H 0.82862 0.75951 0.61238 0.0
H443 H 0.7678 0.74869 0.66467 0.0
H444 H 0.78988 0.78816 0.72403 0.0
H445 H 0.75021 0.7326 0.69585 0.0
H446 H 0.77147 0.773 0.75507 0.0
H447 H 0.67656 0.70573 0.79276 0.0
H448 H 0.65164 0.72021 0.81666 0.0
H449 H 0.69216 0.76016 0.85297 0.0
H450 H 0.71707 0.74538 0.82897 0.0
H451 H 0.73303 0.71669 0.84336 0.0
H452 H 0.7452 0.6903 0.86831 0.0
H453 H 0.72504 0.65137 0.80681 0.0
H454 H 0.71282 0.67798 0.78191 0.0
H455 H 0.70416 0.72125 0.74779 0.0
H456 H 0.72323 0.73745 0.71839 0.0
H457 H 0.76725 0.74622 0.7795 0.0
N458 N 0.71299 0.71421 0.79652 0.0
H459 H 0.74753 0.73102 0.809 0.0
C460 C 0.78507 0.79934 0.67011 0.0
C461 C 0.77158 0.80513 0.65111 0.0
C462 C 0.76916 0.82427 0.64635 0.0
C463 C 0.78026 0.83799 0.66056 0.0
C464 C 0.79321 0.83219 0.68037 0.0
C465 C 0.79563 0.81305 0.68508 0.0
C466 C 0.80719 0.77331 0.66587 0.0
C467 C 0.8232 0.77541 0.68323 0.0
C468 C 0.84131 0.7727 0.67474 0.0
C469 C 0.84364 0.76759 0.64886 0.0
C470 C 0.82742 0.76401 0.63221 0.0
C471 C 0.80942 0.767 0.64062 0.0
C472 C 0.77988 0.76973 0.69185 0.0
C473 C 0.76879 0.75387 0.68447 0.0
C474 C 0.75859 0.74487 0.70229 0.0
C475 C 0.75905 0.75172 0.72795 0.0
C476 C 0.77078 0.76727 0.73554 0.0
C477 C 0.78124 0.7761 0.7177 0.0
C478 C 0.69857 0.72443 0.80912 0.0
C479 C 0.67995 0.71779 0.80561 0.0
C480 C 0.66575 0.72615 0.8192 0.0
C481 C 0.6699 0.74138 0.83672 0.0
C482 C 0.68855 0.74835 0.83978 0.0
C483 C 0.70278 0.73998 0.82603 0.0
C484 C 0.72195 0.69923 0.81073 0.0
C485 C 0.73149 0.70254 0.83503 0.0
C486 C 0.73854 0.68743 0.84925 0.0
C487 C 0.73602 0.66878 0.83953 0.0
C488 C 0.72704 0.66559 0.81487 0.0
C489 C 0.72012 0.68071 0.80061 0.0
C490 C 0.72446 0.72466 0.78039 0.0
C491 C 0.71787 0.72682 0.7548 0.0
C492 C 0.72892 0.73591 0.73799 0.0
C493 C 0.747 0.74286 0.74638 0.0
C494 C 0.75339 0.74113 0.77234 0.0
C495 C 0.74216 0.73226 0.78925 0.0
C496 C 0.04873 0.27801 0.56432 0.0
C497 C 0.05462 0.29528 0.5755 0.0
C498 C 0.04514 0.30884 0.56189 0.0
C499 C 0.03396 0.29911 0.54337 0.0
N500 N 0.03557 0.28014 0.54451 0.0
Co501 Co 0.02178 0.26067 0.52149 0.0
N502 N 0.00948 0.2806 0.49978 0.0
C503 C 0.01261 0.29942 0.50197 0.0
C504 C 0.00184 0.30951 0.48443 0.0
C505 C 0.99095 0.29637 0.47049 0.0
C506 C 0.9957 0.279 0.48049 0.0
N507 N 0.00734 0.24123 0.49903 0.0
C508 C 0.99322 0.24353 0.48048 0.0
C509 C 0.98578 0.22635 0.47098 0.0
C510 C 0.99535 0.21269 0.48428 0.0
C511 C 0.00796 0.22228 0.50114 0.0
N512 N 0.03469 0.24069 0.54266 0.0
C513 C 0.03279 0.22176 0.53897 0.0
C514 C 0.04439 0.2116 0.55542 0.0
C515 C 0.05459 0.22479 0.57022 0.0
C516 C 0.04849 0.24233 0.56201 0.0
N517 N 0.00039 0.26168 0.54407 0.0
C518 C 0.96772 0.2622 0.57194 0.0
C519 C 0.97779 0.24551 0.56798 0.0
C520 C 0.99384 0.24555 0.55407 0.0
C521 C 0.9748 0.2788 0.56255 0.0
C522 C 0.9911 0.27825 0.54897 0.0
N523 N 0.04312 0.2596 0.4988 0.0
C524 C 0.06434 0.2414 0.47344 0.0
C525 C 0.07477 0.25751 0.46905 0.0
C526 C 0.06876 0.27481 0.47925 0.0
C527 C 0.05304 0.27553 0.49395 0.0
C528 C 0.04873 0.24275 0.48815 0.0
H529 H 0.04937 0.28909 0.5015 0.0
H530 H 0.04157 0.22989 0.49082 0.0
H531 H 0.00052 0.23226 0.55136 0.0
H532 H 0.9957 0.29136 0.5422 0.0
C533 C 0.02359 0.30732 0.52293 0.0
C534 C 0.05691 0.26009 0.57219 0.0
C535 C 0.98557 0.26166 0.47262 0.0
C536 C 0.02007 0.21398 0.51977 0.0
H537 H 0.06512 0.29779 0.59136 0.0
H538 H 0.04678 0.32398 0.56452 0.0
H539 H 0.00122 0.32469 0.48289 0.0
H540 H 0.98015 0.29926 0.45541 0.0
H541 H 0.97428 0.22396 0.45644 0.0
H542 H 0.99301 0.19759 0.48242 0.0
H543 H 0.04556 0.1964 0.55622 0.0
H544 H 0.06554 0.22178 0.585 0.0
H545 H 0.97332 0.23233 0.57546 0.0
H546 H 0.96757 0.29213 0.565 0.0
H547 H 0.0682 0.2277 0.46555 0.0
H548 H 0.07643 0.2877 0.47653 0.0
C549 C 0.75438 0.04616 0.56438 0.0
C550 C 0.7368 0.05212 0.57152 0.0
C551 C 0.72366 0.04087 0.55811 0.0
C552 C 0.73384 0.02882 0.54341 0.0
N553 N 0.75277 0.03146 0.54691 0.0
Co554 Co 0.77268 0.01828 0.52744 0.0
N555 N 0.75313 0.00347 0.50533 0.0
C556 C 0.73415 0.00428 0.50646 0.0
C557 C 0.72438 0.99207 0.48938 0.0
C558 C 0.73793 0.98269 0.47677 0.0
C559 C 0.75524 0.98973 0.48698 0.0
N560 N 0.79261 0.00527 0.50787 0.0
C561 C 0.79095 0.99155 0.48904 0.0
C562 C 0.80848 0.98607 0.48117 0.0
C563 C 0.82168 0.99658 0.49563 0.0
C564 C 0.81155 0.00781 0.51149 0.0
N565 N 0.79223 0.033 0.5496 0.0
C566 C 0.81124 0.03166 0.54918 0.0
C567 C 0.821 0.04362 0.56659 0.0
C568 C 0.80743 0.05348 0.57852 0.0
C569 C 0.7901 0.04705 0.56746 0.0
N570 N 0.77398 0.99767 0.55225 0.0
C571 C 0.77586 0.96597 0.58336 0.0
C572 C 0.79228 0.97498 0.57697 0.0
C573 C 0.79103 0.99064 0.56156 0.0
C574 C 0.75847 0.97366 0.5749 0.0
C575 C 0.75787 0.98943 0.55963 0.0
N576 N 0.77135 0.03886 0.50272 0.0
C577 C 0.78677 0.06354 0.4813 0.0
C578 C 0.76933 0.07113 0.47289 0.0
C579 C 0.75294 0.0617 0.47847 0.0
C580 C 0.75427 0.04566 0.49315 0.0
C581 C 0.78745 0.04749 0.49602 0.0
H582 H 0.74126 0.03927 0.497 0.0
H583 H 0.80115 0.04265 0.50239 0.0
H584 H 0.80408 0.99656 0.5571 0.0
H585 H 0.74418 0.9944 0.55358 0.0
C586 C 0.72597 0.01617 0.52444 0.0
C587 C 0.77212 0.05556 0.57346 0.0
C588 C 0.77327 0.98258 0.47902 0.0
C589 C 0.81945 0.02002 0.53096 0.0
H590 H 0.73363 0.06378 0.5844 0.0
H591 H 0.70843 0.04192 0.5582 0.0
H592 H 0.70923 0.98998 0.48676 0.0
H593 H 0.73539 0.9717 0.46198 0.0
H594 H 0.81147 0.97526 0.46688 0.0
H595 H 0.83689 0.99576 0.49515 0.0
H596 H 0.83617 0.04538 0.56966 0.0
H597 H 0.81 0.06456 0.59317 0.0
H598 H 0.80613 0.96986 0.58358 0.0
H599 H 0.74531 0.96719 0.57925 0.0
H600 H 0.79988 0.07037 0.47748 0.0
H601 H 0.7391 0.06684 0.47186 0.0
C602 C 0.05056 0.79359 0.5567 0.0
C603 C 0.05748 0.81034 0.56846 0.0
C604 C 0.04653 0.8245 0.55855 0.0
C605 C 0.03367 0.81567 0.5413 0.0
N606 N 0.03553 0.79666 0.53979 0.0
Co607 Co 0.02042 0.77843 0.51606 0.0
N608 N 0.00555 0.79949 0.49968 0.0
C609 C 0.00739 0.81818 0.50565 0.0
C610 C 0.99474 0.82922 0.49198 0.0
C611 C 0.98405 0.81688 0.47644 0.0
C612 C 0.99091 0.79892 0.48141 0.0
N613 N 0.00531 0.76021 0.49234 0.0
C614 C 0.99081 0.76336 0.4746 0.0
C615 C 0.98425 0.74667 0.46233 0.0
C616 C 0.99468 0.73243 0.47304 0.0
C617 C 0.00705 0.74119 0.49105 0.0
N618 N 0.03533 0.75741 0.53237 0.0
C619 C 0.0332 0.73869 0.52698 0.0
C620 C 0.0459 0.72772 0.54075 0.0
C621 C 0.05701 0.74018 0.55558 0.0
C622 C 0.05044 0.75809 0.54989 0.0
N623 N 0.00116 0.77644 0.54163 0.0
C624 C 0.97046 0.77429 0.57284 0.0
C625 C 0.97789 0.75803 0.56147 0.0
C626 C 0.99322 0.7594 0.54631 0.0
C627 C 0.97947 0.79148 0.56956 0.0
C628 C 0.99459 0.79223 0.55399 0.0
N629 N 0.03959 0.78041 0.49045 0.0
C630 C 0.05999 0.76564 0.46048 0.0
C631 C 0.06824 0.78299 0.45625 0.0
C632 C 0.06169 0.79908 0.46893 0.0
C633 C 0.04729 0.79751 0.48557 0.0
C634 C 0.04591 0.76465 0.4777 0.0
H635 H 0.04276 0.81032 0.49441 0.0
H636 H 0.04054 0.75095 0.48064 0.0
H637 H 0.99804 0.74652 0.53804 0.0
H638 H 0.00042 0.80583 0.55184 0.0
C639 C 0.02053 0.82491 0.52501 0.0
C640 C 0.05943 0.7753 0.56104 0.0
C641 C 0.98254 0.78175 0.46907 0.0
C642 C 0.02005 0.73193 0.5076 0.0
H643 H 0.06952 0.81226 0.58226 0.0
H644 H 0.04816 0.8395 0.56277 0.0
H645 H 0.99317 0.8444 0.49357 0.0
H646 H 0.97227 0.82073 0.46334 0.0
H647 H 0.97293 0.74493 0.44737 0.0
H648 H 0.99325 0.71745 0.46849 0.0
H649 H 0.04727 0.71251 0.53959 0.0
H650 H 0.06886 0.73654 0.56871 0.0
H651 H 0.97151 0.74433 0.56336 0.0
H652 H 0.97469 0.80444 0.57858 0.0
H653 H 0.06474 0.75281 0.45107 0.0
H654 H 0.06758 0.81285 0.46591 0.0
C655 C 0.28368 0.99004 0.55323 0.0
C656 C 0.30124 0.98284 0.56134 0.0
C657 C 0.31444 0.99344 0.55071 0.0
C658 C 0.30426 0.0064 0.53665 0.0
N659 N 0.28533 0.00488 0.53783 0.0
Co660 Co 0.26532 0.02018 0.51888 0.0
N661 N 0.28475 0.0348 0.50168 0.0
C662 C 0.30375 0.03278 0.50473 0.0
C663 C 0.3135 0.04468 0.49041 0.0
C664 C 0.29995 0.05509 0.47757 0.0
C665 C 0.28263 0.049 0.48498 0.0
N666 N 0.24526 0.03532 0.49973 0.0
C667 C 0.24684 0.04955 0.48332 0.0
C668 C 0.22924 0.05661 0.47507 0.0
C669 C 0.2161 0.04643 0.48644 0.0
C670 C 0.22633 0.03386 0.50108 0.0
N671 N 0.24589 0.00565 0.53622 0.0
C672 C 0.22692 0.00812 0.53396 0.0
C673 C 0.2172 0.99601 0.54804 0.0
C674 C 0.23072 0.98496 0.5598 0.0
C675 C 0.24798 0.99092 0.55205 0.0
N676 N 0.26654 0.03955 0.54743 0.0
C677 C 0.2681 0.07112 0.58175 0.0
C678 C 0.2508 0.06334 0.57231 0.0
C679 C 0.25035 0.04758 0.55555 0.0
C680 C 0.28464 0.06203 0.57528 0.0
C681 C 0.28354 0.04633 0.55821 0.0
N682 N 0.26409 0.00104 0.49018 0.0
C683 C 0.24574 0.98072 0.45967 0.0
C684 C 0.26213 0.97393 0.44928 0.0
C685 C 0.27953 0.98099 0.45971 0.0
C686 C 0.28018 0.99439 0.48002 0.0
C687 C 0.24704 0.99415 0.47988 0.0
H688 H 0.29386 0.99914 0.48719 0.0
H689 H 0.23403 0.99865 0.48696 0.0
H690 H 0.23671 0.04254 0.54889 0.0
H691 H 0.29663 0.04032 0.55345 0.0
C692 C 0.31202 0.01949 0.52109 0.0
C693 C 0.26586 0.98176 0.55972 0.0
C694 C 0.26463 0.05729 0.47575 0.0
C695 C 0.21859 0.02118 0.51727 0.0
H696 H 0.30426 0.97089 0.57324 0.0
H697 H 0.32962 0.9916 0.55247 0.0
H698 H 0.32865 0.04568 0.48943 0.0
H699 H 0.30256 0.06598 0.4643 0.0
H700 H 0.22614 0.06816 0.4625 0.0
H701 H 0.20091 0.04826 0.48469 0.0
H702 H 0.20206 0.99505 0.54916 0.0
H703 H 0.22814 0.97358 0.57235 0.0
H704 H 0.2376 0.06964 0.57743 0.0
H705 H 0.29838 0.06749 0.58239 0.0
H706 H 0.23193 0.97543 0.45262 0.0
H707 H 0.29264 0.97629 0.45219 0.0
C708 C 0.54973 0.78141 0.05622 0.0
C709 C 0.5578 0.79803 0.06682 0.0
C710 C 0.54839 0.81248 0.05503 0.0
C711 C 0.53517 0.80391 0.03802 0.0
N712 N 0.53538 0.78483 0.0384 0.0
Co713 Co 0.51903 0.7668 0.01605 0.0
N714 N 0.50537 0.78807 0.99847 0.0
C715 C 0.50842 0.80677 0.00302 0.0
C716 C 0.49631 0.818 0.98873 0.0
C717 C 0.48457 0.80576 0.97449 0.0
C718 C 0.49023 0.78771 0.98101 0.0
N719 N 0.50298 0.74875 0.99326 0.0
C720 C 0.48834 0.75214 0.97585 0.0
C721 C 0.48072 0.73547 0.96472 0.0
C722 C 0.4908 0.72106 0.97554 0.0
C723 C 0.50392 0.72966 0.99266 0.0
N724 N 0.53231 0.7455 0.03411 0.0
C725 C 0.52893 0.72681 0.02993 0.0
C726 C 0.54031 0.71555 0.04519 0.0
C727 C 0.55174 0.72774 0.05996 0.0
C728 C 0.54662 0.74583 0.05283 0.0
N729 N 0.49972 0.76715 0.04171 0.0
C730 C 0.47041 0.76791 0.07518 0.0
C731 C 0.47532 0.75116 0.06256 0.0
C732 C 0.49005 0.75104 0.04632 0.0
C733 C 0.48072 0.7842 0.07147 0.0
C734 C 0.49513 0.78355 0.05457 0.0
N735 N 0.53831 0.76645 0.99028 0.0
C736 C 0.55838 0.74898 0.96244 0.0
C737 C 0.56605 0.76565 0.95425 0.0
C738 C 0.55963 0.78276 0.96443 0.0
C739 C 0.54579 0.78284 0.98217 0.0
C740 C 0.54473 0.7497 0.98031 0.0
H741 H 0.54141 0.79634 0.98906 0.0
H742 H 0.5397 0.73646 0.98587 0.0
H743 H 0.49318 0.73777 0.03749 0.0
H744 H 0.50216 0.79653 0.05193 0.0
C745 C 0.52236 0.81335 0.02145 0.0
C746 C 0.55637 0.76277 0.06356 0.0
C747 C 0.48042 0.77073 0.97058 0.0
C748 C 0.51589 0.72022 0.01032 0.0
H749 H 0.56938 0.79952 0.08145 0.0
H750 H 0.55097 0.82746 0.05835 0.0
H751 H 0.49582 0.83327 0.98902 0.0
H752 H 0.47297 0.80966 0.96111 0.0
H753 H 0.46871 0.73379 0.95083 0.0
H754 H 0.48834 0.70608 0.97214 0.0
H755 H 0.5406 0.70028 0.04511 0.0
H756 H 0.56285 0.72374 0.07401 0.0
H757 H 0.46783 0.73814 0.06527 0.0
H758 H 0.47732 0.79748 0.08096 0.0
H759 H 0.56313 0.73534 0.95541 0.0
H760 H 0.56506 0.79607 0.95851 0.0
C761 C 0.25782 0.54834 0.06184 0.0
C762 C 0.24031 0.55441 0.06911 0.0
C763 C 0.22701 0.5448 0.05355 0.0
C764 C 0.23709 0.5335 0.03769 0.0
N765 N 0.25605 0.53515 0.04235 0.0
Co766 Co 0.27598 0.52174 0.02332 0.0
N767 N 0.25642 0.50915 0.99883 0.0
C768 C 0.2375 0.5119 0.99764 0.0
C769 C 0.22774 0.50098 0.97893 0.0
C770 C 0.24119 0.49035 0.96784 0.0
C771 C 0.2584 0.49537 0.98061 0.0
N772 N 0.29587 0.50787 0.00475 0.0
C773 C 0.29399 0.49369 0.98659 0.0
C774 C 0.31145 0.48671 0.98041 0.0
C775 C 0.32481 0.49668 0.99535 0.0
C776 C 0.31483 0.50902 0.00988 0.0
N777 N 0.29559 0.53472 0.04739 0.0
C778 C 0.31459 0.53294 0.04741 0.0
C779 C 0.32441 0.544 0.06587 0.0
C780 C 0.31091 0.55373 0.07808 0.0
C781 C 0.29356 0.54806 0.06621 0.0
N782 N 0.27493 0.50025 0.04664 0.0
C783 C 0.27382 0.46812 0.07686 0.0
C784 C 0.2908 0.47759 0.0743 0.0
C785 C 0.29105 0.4934 0.05912 0.0
C786 C 0.25733 0.47526 0.06452 0.0
C787 C 0.25817 0.49131 0.04985 0.0
N788 N 0.27702 0.54324 0.99991 0.0
C789 C 0.29501 0.56515 0.97675 0.0
C790 C 0.27856 0.57462 0.96819 0.0
C791 C 0.26133 0.56793 0.97558 0.0
C792 C 0.26088 0.55239 0.99124 0.0
C793 C 0.29393 0.54967 0.99244 0.0
H794 H 0.24728 0.54814 0.99617 0.0
H795 H 0.30701 0.54329 0.99849 0.0
H796 H 0.30453 0.49965 0.05744 0.0
H797 H 0.24509 0.49609 0.04105 0.0
C798 C 0.22923 0.5229 0.01648 0.0
C799 C 0.27568 0.55642 0.07271 0.0
C800 C 0.27598 0.48556 0.97625 0.0
C801 C 0.32276 0.52084 0.02974 0.0
H802 H 0.2374 0.5651 0.08358 0.0
H803 H 0.21182 0.54648 0.05311 0.0
H804 H 0.21258 0.50013 0.97476 0.0
H805 H 0.23859 0.47956 0.95279 0.0
H806 H 0.31436 0.47518 0.96719 0.0
H807 H 0.33997 0.49462 0.99629 0.0
H808 H 0.33959 0.54506 0.06973 0.0
H809 H 0.31352 0.5641 0.09367 0.0
H810 H 0.30396 0.47249 0.08336 0.0
H811 H 0.2438 0.46852 0.06623 0.0
H812 H 0.30876 0.56988 0.97185 0.0
H813 H 0.24813 0.57455 0.96918 0.0
C814 C 0.49368 0.28627 0.98731 0.0
C815 C 0.48881 0.30314 0.97591 0.0
C816 C 0.50296 0.31578 0.98365 0.0
C817 C 0.51556 0.30597 0.99934 0.0
N818 N 0.51016 0.288 0.00188 0.0
Co819 Co 0.52355 0.26899 0.02321 0.0
N820 N 0.53762 0.28885 0.04439 0.0
C821 C 0.54011 0.3068 0.03764 0.0
C822 C 0.55114 0.31722 0.0556 0.0
C823 C 0.5561 0.30501 0.07466 0.0
C824 C 0.54775 0.28771 0.06726 0.0
N825 N 0.537 0.24983 0.04433 0.0
C826 C 0.54704 0.25189 0.06732 0.0
C827 C 0.55404 0.2346 0.07535 0.0
C828 C 0.54864 0.22146 0.05633 0.0
C829 C 0.53852 0.23134 0.03788 0.0
N830 N 0.50945 0.24929 0.00188 0.0
C831 C 0.51412 0.23098 0.99935 0.0
C832 C 0.50113 0.22082 0.98358 0.0
C833 C 0.48749 0.23361 0.97583 0.0
C834 C 0.49298 0.25085 0.98742 0.0
N835 N 0.5438 0.26804 0.99966 0.0
C836 C 0.57286 0.26878 0.96604 0.0
C837 C 0.55382 0.26769 0.95662 0.0
C838 C 0.53955 0.26741 0.9737 0.0
C839 C 0.57694 0.26909 0.99272 0.0
C840 C 0.5623 0.26857 0.00909 0.0
N841 N 0.50326 0.26999 0.04659 0.0
C842 C 0.47949 0.25414 0.06846 0.0
C843 C 0.47155 0.2715 0.07561 0.0
C844 C 0.48034 0.28808 0.06868 0.0
C845 C 0.49613 0.28702 0.05424 0.0
C846 C 0.49534 0.2537 0.05406 0.0
H847 H 0.5023 0.30001 0.04874 0.0
H848 H 0.50084 0.24014 0.04833 0.0
H849 H 0.52505 0.26688 0.96587 0.0
H850 H 0.56601 0.26894 0.02944 0.0
C851 C 0.53 0.31391 0.01603 0.0
C852 C 0.4829 0.26864 0.98357 0.0
C853 C 0.55182 0.2701 0.08066 0.0
C854 C 0.52813 0.22339 0.01624 0.0
H855 H 0.47632 0.30609 0.96358 0.0
H856 H 0.50341 0.33061 0.9795 0.0
H857 H 0.5549 0.33199 0.05513 0.0
H858 H 0.56529 0.30837 0.09166 0.0
H859 H 0.56245 0.23181 0.09292 0.0
H860 H 0.55135 0.20644 0.0563 0.0
H861 H 0.50099 0.20575 0.97938 0.0
H862 H 0.47492 0.23061 0.96332 0.0
H863 H 0.54989 0.26708 0.9362 0.0
H864 H 0.59134 0.27023 0.00108 0.0
H865 H 0.47316 0.24094 0.0732 0.0
H866 H 0.47499 0.30184 0.07419 0.0
C867 C 0.74049 0.54769 0.05958 0.0
C868 C 0.7228 0.55511 0.06377 0.0
C869 C 0.70986 0.54423 0.04941 0.0
C870 C 0.72031 0.53095 0.03709 0.0
N871 N 0.73917 0.53253 0.04287 0.0
Co872 Co 0.75948 0.51723 0.02711 0.0
N873 N 0.74033 0.50108 0.00621 0.0
C874 C 0.7213 0.50212 0.00656 0.0
C875 C 0.71176 0.48898 0.99069 0.0
C876 C 0.72551 0.4787 0.97976 0.0
C877 C 0.74274 0.48617 0.98973 0.0
N878 N 0.77978 0.50256 0.01042 0.0
C879 C 0.7785 0.48789 0.9929 0.0
C880 C 0.79625 0.48187 0.9865 0.0
C881 C 0.80915 0.49316 0.0003 0.0
C882 C 0.79864 0.50536 0.01436 0.0
N883 N 0.77859 0.53274 0.04898 0.0
C884 C 0.79758 0.53063 0.05022 0.0
C885 C 0.8071 0.54281 0.06757 0.0
C886 C 0.79337 0.55343 0.07802 0.0
C887 C 0.77621 0.54719 0.06619 0.0
N888 N 0.75928 0.49873 0.05462 0.0
C889 C 0.75787 0.4696 0.08961 0.0
C890 C 0.77509 0.4753 0.08103 0.0
C891 C 0.77548 0.48985 0.06368 0.0
C892 C 0.74157 0.47939 0.08145 0.0
C893 C 0.74259 0.49378 0.06419 0.0
N894 N 0.75957 0.53575 0.99954 0.0
C895 C 0.77516 0.56016 0.97763 0.0
C896 C 0.75827 0.56444 0.96353 0.0
C897 C 0.74238 0.55346 0.96688 0.0
C898 C 0.7433 0.53942 0.98481 0.0
C899 C 0.77552 0.54576 0.9953 0.0
H900 H 0.73052 0.53195 0.98656 0.0
H901 H 0.78878 0.5432 0.0056 0.0
H902 H 0.78898 0.49339 0.05748 0.0
H903 H 0.72958 0.50043 0.05854 0.0
C904 C 0.71279 0.51644 0.02066 0.0
C905 C 0.75812 0.55577 0.07151 0.0
C906 C 0.76095 0.47869 0.98273 0.0
C907 C 0.80609 0.51817 0.03333 0.0
H908 H 0.71952 0.56725 0.07579 0.0
H909 H 0.69465 0.54584 0.04804 0.0
H910 H 0.69662 0.48724 0.98719 0.0
H911 H 0.72307 0.46711 0.96587 0.0
H912 H 0.79959 0.47023 0.97366 0.0
H913 H 0.8244 0.49217 0.0007 0.0
H914 H 0.82223 0.54411 0.07171 0.0
H915 H 0.79576 0.56468 0.09246 0.0
H916 H 0.78812 0.46819 0.08696 0.0
H917 H 0.72796 0.47585 0.08815 0.0
H918 H 0.78792 0.56818 0.97561 0.0
H919 H 0.7291 0.55574 0.95581 0.0
H920 H 0.18954 0.24093 0.42654 0.0
H921 H 0.15963 0.25605 0.35526 0.0
H922 H 0.16059 0.24449 0.44836 0.0
H923 H 0.13033 0.25904 0.37709 0.0
H924 H 0.08652 0.28124 0.43293 0.0
H925 H 0.11536 0.27893 0.41003 0.0
H926 H 0.13064 0.22797 0.44928 0.0
H927 H 0.10228 0.23057 0.47263 0.0
C928 C 0.1768 0.24515 0.41553 0.0
C929 C 0.17696 0.24831 0.38915 0.0
C930 C 0.16013 0.24696 0.428 0.0
C931 C 0.14311 0.25195 0.41446 0.0
C932 C 0.14324 0.2553 0.38811 0.0
C933 C 0.15997 0.25342 0.37556 0.0
C934 C 0.09612 0.26962 0.43677 0.0
C935 C 0.09208 0.25609 0.45462 0.0
C936 C 0.11253 0.26819 0.42345 0.0
C937 C 0.12533 0.2533 0.42787 0.0
C938 C 0.12121 0.23975 0.44563 0.0
C939 C 0.10482 0.24112 0.45882 0.0
H940 H 0.77163 0.19025 0.45195 0.0
H941 H 0.77458 0.16802 0.37422 0.0
H942 H 0.76791 0.15842 0.46662 0.0
H943 H 0.77118 0.13603 0.38913 0.0
H944 H 0.79073 0.083 0.43499 0.0
H945 H 0.79079 0.11421 0.41665 0.0
H946 H 0.74543 0.13156 0.46297 0.0
H947 H 0.74567 0.10059 0.48173 0.0
C948 C 0.77116 0.17862 0.4379 0.0
C949 C 0.77339 0.18173 0.41189 0.0
C950 C 0.76907 0.16035 0.44634 0.0
C951 C 0.76926 0.14474 0.42902 0.0
C952 C 0.7712 0.1478 0.40295 0.0
C953 C 0.77318 0.16611 0.39445 0.0
C954 C 0.78074 0.09347 0.44115 0.0
C955 C 0.76825 0.08937 0.45986 0.0
C956 C 0.78065 0.11127 0.43049 0.0
C957 C 0.76816 0.12534 0.43847 0.0
C958 C 0.75533 0.12105 0.45664 0.0
C959 C 0.75534 0.10325 0.46718 0.0
H960 H 0.87312 0.76773 0.38092 0.0
H961 H 0.88998 0.82579 0.37363 0.0
H962 H 0.9027 0.76192 0.40641 0.0
H963 H 0.91964 0.81971 0.39827 0.0
H964 H 0.97857 0.79682 0.42176 0.0
H965 H 0.94934 0.80053 0.39429 0.0
H966 H 0.91803 0.77281 0.44999 0.0
H967 H 0.9473 0.76935 0.47748 0.0
C968 C 0.88306 0.77926 0.38472 0.0
C969 C 0.87909 0.79723 0.37505 0.0
C970 C 0.90003 0.77589 0.39926 0.0
C971 C 0.91352 0.79033 0.40421 0.0
C972 C 0.90966 0.80821 0.3944 0.0
C973 C 0.89264 0.81165 0.38016 0.0
C974 C 0.9654 0.7915 0.42797 0.0
C975 C 0.96502 0.78296 0.4517 0.0
C976 C 0.94872 0.79364 0.41236 0.0
C977 C 0.93139 0.78703 0.42006 0.0
C978 C 0.93118 0.77792 0.44348 0.0
C979 C 0.94785 0.77599 0.45922 0.0
H980 H 0.25267 0.86457 0.37521 0.0
H981 H 0.23803 0.90044 0.31175 0.0
H982 H 0.2601 0.89216 0.40292 0.0
H983 H 0.2456 0.92829 0.33967 0.0
H984 H 0.2363 0.9708 0.40768 0.0
H985 H 0.2325 0.94474 0.376 0.0
H986 H 0.28211 0.91791 0.41116 0.0
H987 H 0.28536 0.94347 0.44359 0.0
C988 C 0.25142 0.87836 0.36702 0.0
C989 C 0.24487 0.8803 0.34122 0.0
C990 C 0.2557 0.89421 0.38294 0.0
C991 C 0.25353 0.91244 0.37349 0.0
C992 C 0.24723 0.91443 0.34758 0.0
C993 C 0.24291 0.89851 0.3316 0.0
C994 C 0.24638 0.95932 0.40868 0.0
C995 C 0.261 0.95911 0.42837 0.0
C996 C 0.24435 0.94451 0.3903 0.0
C997 C 0.25693 0.92918 0.39116 0.0
C998 C 0.27202 0.92938 0.4102 0.0
C999 C 0.27401 0.94414 0.42862 0.0
H1000 H 0.15913 0.8086 0.65556 0.0
H1001 H 0.17787 0.75871 0.61477 0.0
H1002 H 0.12713 0.80347 0.63624 0.0
H1003 H 0.14587 0.75375 0.59522 0.0
H1004 H 0.09302 0.76816 0.54103 0.0
H1005 H 0.12463 0.76954 0.56332 0.0
H1006 H 0.09975 0.78197 0.63504 0.0
H1007 H 0.06818 0.78066 0.61247 0.0
C1008 C 0.15639 0.79636 0.64281 0.0
C1009 C 0.17114 0.78412 0.63667 0.0
C1010 C 0.13802 0.79344 0.6317 0.0
C1011 C 0.13396 0.77824 0.61411 0.0
C1012 C 0.14859 0.76575 0.6084 0.0
C1013 C 0.16695 0.76863 0.61959 0.0
C1014 C 0.09442 0.77094 0.56161 0.0
C1015 C 0.07836 0.77442 0.57513 0.0
C1016 C 0.11245 0.77167 0.5744 0.0
C1017 C 0.11472 0.77596 0.60095 0.0
C1018 C 0.0985 0.77888 0.61454 0.0
C1019 C 0.08047 0.77804 0.60174 0.0
H1020 H 0.26742 0.18939 0.62969 0.0
H1021 H 0.26136 0.15981 0.69939 0.0
H1022 H 0.2721 0.15939 0.60667 0.0
H1023 H 0.2658 0.1297 0.67617 0.0
H1024 H 0.24858 0.10298 0.57042 0.0
H1025 H 0.24901 0.13296 0.59477 0.0
H1026 H 0.28966 0.11044 0.65122 0.0
H1027 H 0.28916 0.08018 0.6267 0.0
C1028 C 0.26745 0.17651 0.6402 0.0
C1029 C 0.26394 0.17693 0.66631 0.0
C1030 C 0.26996 0.15934 0.62697 0.0
C1031 C 0.26914 0.14224 0.6396 0.0
C1032 C 0.26657 0.14268 0.666 0.0
C1033 C 0.26389 0.15988 0.67921 0.0
C1034 C 0.25755 0.1044 0.58808 0.0
C1035 C 0.26873 0.08924 0.5968 0.0
C1036 C 0.25796 0.12161 0.60186 0.0
C1037 C 0.26945 0.12404 0.62479 0.0
C1038 C 0.28066 0.1089 0.63361 0.0
C1039 C 0.28043 0.09167 0.61958 0.0
H1040 H 0.87338 0.22951 0.65734 0.0
H1041 H 0.85907 0.28621 0.63555 0.0
H1042 H 0.90321 0.23186 0.63721 0.0
H1043 H 0.88898 0.28851 0.61517 0.0
H1044 H 0.95414 0.2894 0.60491 0.0
H1045 H 0.9248 0.28869 0.62668 0.0
H1046 H 0.91157 0.23387 0.5913 0.0
H1047 H 0.94038 0.23474 0.56892 0.0
C1048 C 0.87672 0.24257 0.64853 0.0
C1049 C 0.86388 0.25769 0.64805 0.0
C1050 C 0.89372 0.24385 0.63679 0.0
C1051 C 0.89838 0.26033 0.6245 0.0
C1052 C 0.8858 0.27566 0.62461 0.0
C1053 C 0.86865 0.27431 0.63611 0.0
C1054 C 0.94489 0.27729 0.6015 0.0
C1055 C 0.94981 0.26205 0.58526 0.0
C1056 C 0.92811 0.27688 0.61406 0.0
C1057 C 0.916 0.26115 0.61087 0.0
C1058 C 0.92081 0.24603 0.59451 0.0
C1059 C 0.93741 0.24652 0.58177 0.0
H1060 H 0.74887 0.85908 0.64709 0.0
H1061 H 0.80983 0.86215 0.65727 0.0
H1062 H 0.74802 0.89095 0.63074 0.0
H1063 H 0.80891 0.89411 0.64179 0.0
H1064 H 0.80032 0.93667 0.57758 0.0
H1065 H 0.80143 0.90693 0.59927 0.0
H1066 H 0.75455 0.92479 0.64249 0.0
H1067 H 0.75356 0.95483 0.62092 0.0
C1068 C 0.76205 0.86663 0.6461 0.0
C1069 C 0.77941 0.85805 0.65335 0.0
C1070 C 0.76155 0.88494 0.63699 0.0
C1071 C 0.77842 0.89497 0.63483 0.0
C1072 C 0.7957 0.88664 0.64295 0.0
C1073 C 0.7962 0.8684 0.6521 0.0
C1074 C 0.79047 0.93446 0.59205 0.0
C1075 C 0.7769 0.94819 0.59757 0.0
C1076 C 0.79109 0.91738 0.60447 0.0
C1077 C 0.77812 0.91355 0.62266 0.0
C1078 C 0.76462 0.92729 0.62838 0.0
C1079 C 0.76404 0.94446 0.616 0.0
H1080 H 0.87759 0.75559 0.67191 0.0
H1081 H 0.85295 0.78002 0.60266 0.0
H1082 H 0.9089 0.7576 0.65546 0.0
H1083 H 0.88377 0.78096 0.58578 0.0
H1084 H 0.94184 0.80015 0.57245 0.0
H1085 H 0.91227 0.79849 0.59266 0.0
H1086 H 0.9285 0.74449 0.62301 0.0
H1087 H 0.95881 0.74669 0.60403 0.0
C1088 C 0.87881 0.76127 0.65316 0.0
C1089 C 0.86269 0.76758 0.63862 0.0
C1090 C 0.89672 0.76225 0.64363 0.0
C1091 C 0.89889 0.76958 0.61936 0.0
C1092 C 0.88272 0.77556 0.60473 0.0
C1093 C 0.86493 0.77469 0.61427 0.0
C1094 C 0.93938 0.78809 0.5839 0.0
C1095 C 0.9528 0.77355 0.58654 0.0
C1096 C 0.92222 0.78699 0.59517 0.0
C1097 C 0.91784 0.77122 0.60916 0.0
C1098 C 0.93142 0.75688 0.61243 0.0
C1099 C 0.94872 0.75804 0.60127 0.0
H1100 H 0.25539 0.89339 0.66989 0.0
H1101 H 0.2684 0.86352 0.59983 0.0
H1102 H 0.25708 0.92327 0.64858 0.0
H1103 H 0.27114 0.89337 0.57905 0.0
H1104 H 0.25285 0.94773 0.54035 0.0
H1105 H 0.25171 0.91796 0.56231 0.0
H1106 H 0.27786 0.94524 0.63134 0.0
H1107 H 0.27825 0.97515 0.60935 0.0
C1108 C 0.25872 0.89316 0.65 0.0
C1109 C 0.26171 0.87593 0.63665 0.0
C1110 C 0.25991 0.91036 0.63783 0.0
C1111 C 0.26419 0.91082 0.61199 0.0
C1112 C 0.26753 0.89362 0.59882 0.0
C1113 C 0.26625 0.87644 0.61093 0.0
C1114 C 0.25834 0.94725 0.56021 0.0
C1115 C 0.26574 0.96359 0.57317 0.0
C1116 C 0.25783 0.9302 0.57279 0.0
C1117 C 0.2648 0.92908 0.59864 0.0
C1118 C 0.27219 0.94556 0.61156 0.0
C1119 C 0.27258 0.96265 0.59897 0.0
H1120 H 0.17448 0.24546 0.62303 0.0
H1121 H 0.15042 0.26797 0.69125 0.0
H1122 H 0.14366 0.24674 0.59952 0.0
H1123 H 0.1194 0.26939 0.66756 0.0
H1124 H 0.06358 0.25024 0.62206 0.0
H1125 H 0.09415 0.24935 0.64724 0.0
H1126 H 0.12162 0.26977 0.58247 0.0
H1127 H 0.09114 0.27007 0.55738 0.0
C1128 C 0.16262 0.25089 0.63294 0.0
C1129 C 0.16494 0.2568 0.65895 0.0
C1130 C 0.14493 0.25163 0.61945 0.0
C1131 C 0.12907 0.25833 0.63157 0.0
C1132 C 0.1313 0.264 0.6577 0.0
C1133 C 0.14905 0.26321 0.67127 0.0
C1134 C 0.07625 0.25448 0.61339 0.0
C1135 C 0.07523 0.26003 0.58786 0.0
C1136 C 0.09369 0.25412 0.62776 0.0
C1137 C 0.11036 0.25937 0.61681 0.0
C1138 C 0.10913 0.2653 0.59134 0.0
C1139 C 0.09173 0.2656 0.57702 0.0
H1140 H 0.80859 0.16149 0.64854 0.0
H1141 H 0.74798 0.16315 0.65162 0.0
H1142 H 0.8061 0.13004 0.62743 0.0
H1143 H 0.74555 0.13138 0.6311 0.0
H1144 H 0.75932 0.06468 0.62062 0.0
H1145 H 0.76048 0.09572 0.64336 0.0
H1146 H 0.78762 0.11932 0.58061 0.0
H1147 H 0.78565 0.08858 0.55742 0.0
C1148 C 0.79478 0.15497 0.64508 0.0
C1149 C 0.77847 0.16467 0.65174 0.0
C1150 C 0.79336 0.13707 0.6329 0.0
C1151 C 0.77564 0.12838 0.62766 0.0
C1152 C 0.75936 0.1378 0.63504 0.0
C1153 C 0.76075 0.15592 0.64669 0.0
C1154 C 0.76518 0.07663 0.61156 0.0
C1155 C 0.77214 0.07439 0.58716 0.0
C1156 C 0.76593 0.09428 0.62456 0.0
C1157 C 0.77416 0.10982 0.61369 0.0
C1158 C 0.78127 0.10752 0.58941 0.0
C1159 C 0.78011 0.09001 0.57617 0.0
H1160 H 0.86938 0.29344 0.4313 0.0
H1161 H 0.87704 0.24128 0.38799 0.0
H1162 H 0.90267 0.29314 0.44679 0.0
H1163 H 0.91031 0.24087 0.40364 0.0
H1164 H 0.9543 0.27237 0.49576 0.0
H1165 H 0.92193 0.27459 0.47655 0.0
H1166 H 0.94098 0.25635 0.40294 0.0
H1167 H 0.97337 0.25386 0.42261 0.0
C1168 C 0.87821 0.28194 0.42502 0.0
C1169 C 0.87056 0.26732 0.40858 0.0
C1170 C 0.89726 0.28174 0.43394 0.0
C1171 C 0.9091 0.26686 0.4267 0.0
C1172 C 0.90163 0.25262 0.40942 0.0
C1173 C 0.88256 0.25286 0.40043 0.0
C1174 C 0.95145 0.26887 0.47548 0.0
C1175 C 0.96608 0.26285 0.46057 0.0
C1176 C 0.93301 0.27026 0.46441 0.0
C1177 C 0.92887 0.26574 0.43816 0.0
C1178 C 0.94366 0.25977 0.42325 0.0
C1179 C 0.96214 0.25838 0.43439 0.0
H1180 H 0.79991 0.87175 0.4176 0.0
H1181 H 0.7687 0.89694 0.35348 0.0
H1182 H 0.79476 0.89986 0.44424 0.0
H1183 H 0.76367 0.92523 0.38022 0.0
H1184 H 0.77955 0.98026 0.4282 0.0
H1185 H 0.78201 0.95164 0.40084 0.0
H1186 H 0.77022 0.9176 0.46471 0.0
H1187 H 0.76812 0.94631 0.49195 0.0
C1188 C 0.79167 0.88315 0.40926 0.0
C1189 C 0.78468 0.88199 0.38335 0.0
C1190 C 0.78875 0.89932 0.42457 0.0
C1191 C 0.77879 0.91483 0.4144 0.0
C1192 C 0.77162 0.91364 0.38857 0.0
C1193 C 0.7745 0.89742 0.37324 0.0
C1194 C 0.7774 0.96661 0.43617 0.0
C1195 C 0.77374 0.96532 0.46204 0.0
C1196 C 0.77869 0.95025 0.42057 0.0
C1197 C 0.77637 0.9323 0.43059 0.0
C1198 C 0.77234 0.93116 0.45646 0.0
C1199 C 0.77102 0.94753 0.47202 0.0
H1200 H 0.15007 0.7661 0.34019 0.0
H1201 H 0.16454 0.81987 0.37777 0.0
H1202 H 0.1246 0.76226 0.36864 0.0
H1203 H 0.1386 0.81674 0.40523 0.0
H1204 H 0.1027 0.79912 0.46757 0.0
H1205 H 0.12872 0.80117 0.43994 0.0
H1206 H 0.09458 0.77249 0.37834 0.0
H1207 H 0.06899 0.7696 0.40674 0.0
C1208 C 0.14765 0.77714 0.35445 0.0
C1209 C 0.15931 0.79318 0.35702 0.0
C1210 C 0.13299 0.77505 0.37066 0.0
C1211 C 0.12948 0.78915 0.38943 0.0
C1212 C 0.14109 0.80532 0.39156 0.0
C1213 C 0.15592 0.80722 0.37572 0.0
C1214 C 0.10084 0.79328 0.4481 0.0
C1215 C 0.08388 0.78427 0.4392 0.0
C1216 C 0.1157 0.79453 0.43215 0.0
C1217 C 0.11381 0.78714 0.40669 0.0
C1218 C 0.09675 0.77808 0.39788 0.0
C1219 C 0.08201 0.77652 0.41405 0.0
H1220 H 0.23101 0.14912 0.37748 0.0
H1221 H 0.29007 0.16057 0.39896 0.0
H1222 H 0.23332 0.1199 0.40054 0.0
H1223 H 0.29203 0.13164 0.42288 0.0
H1224 H 0.27808 0.09249 0.48935 0.0
H1225 H 0.27757 0.12045 0.46306 0.0
H1226 H 0.25004 0.08794 0.39948 0.0
H1227 H 0.25092 0.05991 0.42576 0.0
C1228 C 0.24457 0.14534 0.38673 0.0
C1229 C 0.26035 0.15738 0.38628 0.0
C1230 C 0.24584 0.12859 0.40009 0.0
C1231 C 0.26281 0.12354 0.41364 0.0
C1232 C 0.27868 0.13531 0.4129 0.0
C1233 C 0.2775 0.15194 0.39924 0.0
C1234 C 0.27206 0.09137 0.46969 0.0
C1235 C 0.26448 0.07416 0.45953 0.0
C1236 C 0.27182 0.10729 0.45463 0.0
C1237 C 0.26376 0.10637 0.42921 0.0
C1238 C 0.25621 0.0891 0.41906 0.0
C1239 C 0.25672 0.0731 0.43402 0.0
H1240 H 0.6329 0.74865 0.82167 0.0
H1241 H 0.67304 0.75116 0.88801 0.0
H1242 H 0.60752 0.75717 0.84893 0.0
H1243 H 0.64767 0.75974 0.91524 0.0
H1244 H 0.59878 0.78632 0.95546 0.0
H1245 H 0.62384 0.78365 0.92578 0.0
H1246 H 0.59172 0.7404 0.88142 0.0
H1247 H 0.5666 0.7434 0.91061 0.0
C1248 C 0.63632 0.75114 0.84205 0.0
C1249 C 0.65496 0.74903 0.8527 0.0
C1250 C 0.62179 0.75602 0.85766 0.0
C1251 C 0.62554 0.75893 0.88429 0.0
C1252 C 0.64433 0.75775 0.89477 0.0
C1253 C 0.65888 0.75285 0.87915 0.0
C1254 C 0.59698 0.77647 0.93913 0.0
C1255 C 0.58077 0.765 0.93544 0.0
C1256 C 0.61139 0.77483 0.92227 0.0
C1257 C 0.60979 0.7618 0.90126 0.0
C1258 C 0.59332 0.75072 0.89723 0.0
C1259 C 0.57901 0.75229 0.91413 0.0
H1260 H 0.31531 0.66962 0.88326 0.0
H1261 H 0.25452 0.67515 0.87929 0.0
H1262 H 0.31305 0.64062 0.9064 0.0
H1263 H 0.25225 0.64608 0.90245 0.0
H1264 H 0.25792 0.60723 0.97117 0.0
H1265 H 0.2595 0.63496 0.94527 0.0
H1266 H 0.30267 0.60805 0.90267 0.0
H1267 H 0.3011 0.58028 0.92863 0.0
C1268 C 0.30142 0.66448 0.88691 0.0
C1269 C 0.2851 0.67478 0.8794 0.0
C1270 C 0.30013 0.64783 0.90025 0.0
C1271 C 0.28247 0.64101 0.90644 0.0
C1272 C 0.26611 0.65108 0.89843 0.0
C1273 C 0.26741 0.66774 0.8851 0.0
C1274 C 0.2676 0.60711 0.95608 0.0
C1275 C 0.27938 0.59147 0.95202 0.0
C1276 C 0.2685 0.62304 0.94119 0.0
C1277 C 0.28119 0.62378 0.92181 0.0
C1278 C 0.29291 0.6081 0.91765 0.0
C1279 C 0.29202 0.59216 0.93256 0.0
H1280 H 0.36266 0.25211 0.93857 0.0
H1281 H 0.38 0.30092 0.89899 0.0
H1282 H 0.39511 0.24818 0.95676 0.0
H1283 H 0.41232 0.29682 0.91685 0.0
H1284 H 0.47155 0.27358 0.93349 0.0
H1285 H 0.43906 0.27492 0.91413 0.0
H1286 H 0.41801 0.26485 0.98794 0.0
H1287 H 0.45062 0.26338 0.00705 0.0
C1288 C 0.37336 0.26201 0.93377 0.0
C1289 C 0.36871 0.27679 0.91722 0.0
C1290 C 0.39194 0.25974 0.94418 0.0
C1291 C 0.40629 0.27215 0.93817 0.0
C1292 C 0.40166 0.28682 0.9215 0.0
C1293 C 0.38311 0.28914 0.9112 0.0
C1294 C 0.45989 0.27162 0.94541 0.0
C1295 C 0.46334 0.26862 0.97167 0.0
C1296 C 0.44136 0.27244 0.93444 0.0
C1297 C 0.42597 0.27013 0.94955 0.0
C1298 C 0.42955 0.26655 0.97576 0.0
C1299 C 0.44812 0.2658 0.98673 0.0
H1300 H 0.75861 0.36501 0.91098 0.0
H1301 H 0.74516 0.40292 0.84944 0.0
H1302 H 0.76523 0.39193 0.94051 0.0
H1303 H 0.75042 0.42976 0.87925 0.0
H1304 H 0.7725 0.47633 0.93408 0.0
H1305 H 0.77196 0.44865 0.90469 0.0
H1306 H 0.7487 0.41536 0.96256 0.0
H1307 H 0.75032 0.44288 0.99215 0.0
C1308 C 0.75722 0.37906 0.90364 0.0
C1309 C 0.75118 0.3817 0.87777 0.0
C1310 C 0.76073 0.39456 0.92072 0.0
C1311 C 0.75815 0.41314 0.91247 0.0
C1312 C 0.75274 0.41575 0.8864 0.0
C1313 C 0.74943 0.40028 0.86929 0.0
C1314 C 0.76756 0.46297 0.94048 0.0
C1315 C 0.76147 0.46163 0.96527 0.0
C1316 C 0.76705 0.44714 0.92363 0.0
C1317 C 0.76018 0.42967 0.93108 0.0
C1318 C 0.75438 0.4284 0.95617 0.0
C1319 C 0.75513 0.44418 0.97309 0.0
H1320 H 0.65235 0.26252 0.18754 0.0
H1321 H 0.62958 0.31877 0.19668 0.0
H1322 H 0.62496 0.25371 0.15849 0.0
H1323 H 0.6021 0.30972 0.16836 0.0
H1324 H 0.54825 0.28356 0.12963 0.0
H1325 H 0.57359 0.28836 0.16392 0.0
H1326 H 0.6137 0.26368 0.1142 0.0
H1327 H 0.58846 0.25916 0.08011 0.0
C1328 C 0.64152 0.27299 0.18351 0.0
C1329 C 0.64329 0.2914 0.19445 0.0
C1330 C 0.62579 0.26789 0.16696 0.0
C1331 C 0.61138 0.28102 0.1612 0.0
C1332 C 0.61282 0.2992 0.17276 0.0
C1333 C 0.62861 0.30436 0.18907 0.0
C1334 C 0.56244 0.27887 0.12639 0.0
C1335 C 0.56645 0.27074 0.10254 0.0
C1336 C 0.57692 0.28169 0.14584 0.0
C1337 C 0.5956 0.27633 0.14175 0.0
C1338 C 0.59941 0.26766 0.11808 0.0
C1339 C 0.585 0.26505 0.0986 0.0
H1340 H 0.74484 0.67079 0.13065 0.0
H1341 H 0.7541 0.63885 0.19911 0.0
H1342 H 0.74913 0.64229 0.10427 0.0
H1343 H 0.75898 0.61034 0.17283 0.0
H1344 H 0.74375 0.55957 0.11838 0.0
H1345 H 0.74177 0.58824 0.14547 0.0
H1346 H 0.77054 0.61935 0.09024 0.0
H1347 H 0.77158 0.59073 0.06277 0.0
C1348 C 0.74818 0.65772 0.14007 0.0
C1349 C 0.7491 0.65706 0.16696 0.0
C1350 C 0.75068 0.64133 0.12494 0.0
C1351 C 0.75434 0.62388 0.13633 0.0
C1352 C 0.7558 0.62339 0.16331 0.0
C1353 C 0.75311 0.63975 0.17841 0.0
C1354 C 0.74959 0.5726 0.11215 0.0
C1355 C 0.75768 0.57308 0.08851 0.0
C1356 C 0.74864 0.58901 0.12773 0.0
C1357 C 0.75598 0.60623 0.12012 0.0
C1358 C 0.76444 0.60649 0.09659 0.0
C1359 C 0.7652 0.59011 0.08092 0.0
H1360 H 0.39838 0.7426 0.19417 0.0
H1361 H 0.36096 0.77251 0.14059 0.0
H1362 H 0.42498 0.74983 0.16922 0.0
H1363 H 0.38755 0.77887 0.11511 0.0
H1364 H 0.43448 0.75621 0.06199 0.0
H1365 H 0.40809 0.75505 0.08948 0.0
H1366 H 0.44378 0.77882 0.15306 0.0
H1367 H 0.4702 0.78029 0.12528 0.0
C1368 C 0.39581 0.75101 0.1774 0.0
C1369 C 0.37739 0.7568 0.16934 0.0
C1370 C 0.41109 0.75507 0.16307 0.0
C1371 C 0.40825 0.76477 0.14019 0.0
C1372 C 0.39004 0.77117 0.13256 0.0
C1373 C 0.37481 0.76739 0.14709 0.0
C1374 C 0.43661 0.76132 0.08179 0.0
C1375 C 0.45431 0.76828 0.09162 0.0
C1376 C 0.42152 0.76078 0.09744 0.0
C1377 C 0.42394 0.76687 0.12334 0.0
C1378 C 0.44161 0.77402 0.13314 0.0
C1379 C 0.45663 0.77492 0.1173 0.0
H1380 H 0.24913 0.35881 0.13998 0.0
H1381 H 0.30626 0.3722 0.16902 0.0
H1382 H 0.24645 0.38948 0.12033 0.0
H1383 H 0.30398 0.40254 0.14865 0.0
H1384 H 0.29082 0.46193 0.12451 0.0
H1385 H 0.29104 0.43292 0.1482 0.0
H1386 H 0.25684 0.40555 0.08564 0.0
H1387 H 0.25611 0.43479 0.06256 0.0
C1388 C 0.26112 0.36835 0.14215 0.0
C1389 C 0.27789 0.36311 0.15606 0.0
C1390 C 0.25966 0.3859 0.13074 0.0
C1391 C 0.27504 0.39857 0.13264 0.0
C1392 C 0.2917 0.3934 0.14705 0.0
C1393 C 0.29305 0.37595 0.15873 0.0
C1394 C 0.28331 0.4497 0.11592 0.0
C1395 C 0.27344 0.45064 0.09169 0.0
C1396 C 0.28349 0.43301 0.12944 0.0
C1397 C 0.27401 0.41673 0.11891 0.0
C1398 C 0.26401 0.41781 0.0947 0.0
C1399 C 0.26363 0.43457 0.08136 0.0
H1400 H 0.37245 0.30752 0.15288 0.0
H1401 H 0.36832 0.24667 0.14979 0.0
H1402 H 0.40221 0.30554 0.13257 0.0
H1403 H 0.39793 0.24472 0.12865 0.0
H1404 H 0.46135 0.24922 0.11431 0.0
H1405 H 0.43222 0.25059 0.1365 0.0
H1406 H 0.41268 0.29696 0.0903 0.0
H1407 H 0.44161 0.29552 0.06802 0.0
C1408 C 0.37797 0.29369 0.14807 0.0
C1409 C 0.368 0.27725 0.15307 0.0
C1410 C 0.39494 0.29257 0.13612 0.0
C1411 C 0.40242 0.27498 0.12884 0.0
C1412 C 0.39263 0.25849 0.13417 0.0
C1413 C 0.37557 0.25961 0.14607 0.0
C1414 C 0.45079 0.25963 0.10876 0.0
C1415 C 0.45392 0.27234 0.08946 0.0
C1416 C 0.43409 0.2604 0.12149 0.0
C1417 C 0.42016 0.27394 0.11528 0.0
C1418 C 0.42327 0.28659 0.09592 0.0
C1419 C 0.4399 0.28578 0.08316 0.0
H1420 H 0.73416 0.36134 0.15298 0.0
H1421 H 0.7493 0.39805 0.21917 0.0
H1422 H 0.74249 0.38606 0.12487 0.0
H1423 H 0.75675 0.42319 0.19086 0.0
H1424 H 0.78131 0.46036 0.13149 0.0
H1425 H 0.77815 0.4336 0.15922 0.0
H1426 H 0.72794 0.4155 0.11296 0.0
H1427 H 0.73147 0.44165 0.08498 0.0
C1428 C 0.73949 0.3746 0.16159 0.0
C1429 C 0.74097 0.37772 0.18838 0.0
C1430 C 0.74404 0.38887 0.14543 0.0
C1431 C 0.75007 0.40667 0.15561 0.0
C1432 C 0.75224 0.4096 0.1824 0.0
C1433 C 0.74774 0.39527 0.19862 0.0
C1434 C 0.76976 0.4505 0.12714 0.0
C1435 C 0.75656 0.45318 0.10619 0.0
C1436 C 0.76785 0.43529 0.14311 0.0
C1437 C 0.7528 0.42242 0.13828 0.0
C1438 C 0.73984 0.42499 0.11706 0.0
C1439 C 0.74171 0.44014 0.1012 0.0
H1440 H 0.66753 0.73117 0.12621 0.0
H1441 H 0.6443 0.76126 0.19001 0.0
H1442 H 0.63886 0.73733 0.09939 0.0
H1443 H 0.61545 0.76731 0.16308 0.0
H1444 H 0.55923 0.7543 0.11409 0.0
H1445 H 0.58821 0.75001 0.14188 0.0
H1446 H 0.62161 0.76324 0.07898 0.0
H1447 H 0.59256 0.76719 0.05133 0.0
C1448 C 0.65642 0.73933 0.13445 0.0
C1449 C 0.6583 0.7458 0.16028 0.0
C1450 C 0.63994 0.74284 0.11904 0.0
C1451 C 0.62487 0.75286 0.12905 0.0
C1452 C 0.62671 0.75936 0.15487 0.0
C1453 C 0.64325 0.75588 0.1703 0.0
C1454 C 0.57283 0.75634 0.10642 0.0
C1455 C 0.57385 0.76097 0.08072 0.0
C1456 C 0.58938 0.754 0.12227 0.0
C1457 C 0.60723 0.75622 0.11262 0.0
C1458 C 0.60811 0.76117 0.08691 0.0
C1459 C 0.59156 0.76354 0.07112 0.0
H1460 H 0.28244 0.67318 0.1306 0.0
H1461 H 0.29783 0.63953 0.19618 0.0
H1462 H 0.2746 0.64465 0.10489 0.0
H1463 H 0.29123 0.61092 0.16995 0.0
H1464 H 0.26497 0.56221 0.12147 0.0
H1465 H 0.26748 0.59151 0.14787 0.0
H1466 H 0.29101 0.6196 0.08537 0.0
H1467 H 0.2876 0.59054 0.05893 0.0
C1468 C 0.28402 0.65972 0.13964 0.0
C1469 C 0.29084 0.65871 0.1655 0.0
C1470 C 0.27978 0.64331 0.12474 0.0
C1471 C 0.28244 0.62543 0.13523 0.0
C1472 C 0.28883 0.62442 0.16126 0.0
C1473 C 0.2929 0.64085 0.17623 0.0
C1474 C 0.27035 0.57482 0.11342 0.0
C1475 C 0.27596 0.57434 0.08826 0.0
C1476 C 0.27198 0.59152 0.12853 0.0
C1477 C 0.27947 0.60795 0.11878 0.0
C1478 C 0.28485 0.60737 0.09339 0.0
C1479 C 0.28305 0.59074 0.07827 0.0
H1480 H 0.36164 0.75679 0.9264 0.0
H1481 H 0.38289 0.77903 0.85831 0.0
H1482 H 0.39285 0.76013 0.9487 0.0
H1483 H 0.41419 0.78269 0.88077 0.0
H1484 H 0.47151 0.76364 0.91949 0.0
H1485 H 0.4401 0.76371 0.8967 0.0
H1486 H 0.41591 0.78217 0.96692 0.0
H1487 H 0.44732 0.78134 0.98965 0.0
C1488 C 0.37291 0.76273 0.91633 0.0
C1489 C 0.36976 0.76766 0.89057 0.0
C1490 C 0.39085 0.76468 0.92914 0.0
C1491 C 0.4061 0.7717 0.91658 0.0
C1492 C 0.40286 0.77696 0.89093 0.0
C1493 C 0.38492 0.77491 0.87806 0.0
C1494 C 0.4594 0.76777 0.92986 0.0
C1495 C 0.46163 0.77228 0.95625 0.0
C1496 C 0.44145 0.76796 0.91685 0.0
C1497 C 0.42539 0.77283 0.92998 0.0
C1498 C 0.42787 0.778 0.95629 0.0
C1499 C 0.44581 0.77769 0.96929 0.0
H1500 H 0.27605 0.38321 0.87738 0.0
H1501 H 0.28234 0.36425 0.95497 0.0
H1502 H 0.27243 0.41565 0.89356 0.0
H1503 H 0.27977 0.39667 0.97139 0.0
H1504 H 0.26073 0.45457 0.99544 0.0
H1505 H 0.25994 0.42233 0.97731 0.0
H1506 H 0.28963 0.44083 0.91325 0.0
H1507 H 0.28905 0.47322 0.93073 0.0
C1508 C 0.27673 0.38607 0.89792 0.0
C1509 C 0.27942 0.37132 0.91496 0.0
C1510 C 0.27479 0.40465 0.90725 0.0
C1511 C 0.27588 0.40891 0.93385 0.0
C1512 C 0.27846 0.39399 0.95082 0.0
C1513 C 0.28004 0.3754 0.94146 0.0
C1514 C 0.26688 0.45163 0.97735 0.0
C1515 C 0.27523 0.46615 0.9646 0.0
C1516 C 0.26662 0.43317 0.96705 0.0
C1517 C 0.27494 0.42881 0.94392 0.0
C1518 C 0.2829 0.44358 0.93092 0.0
C1519 C 0.28282 0.4621 0.94103 0.0
H1520 H 0.67978 0.2954 0.90798 0.0
H1521 H 0.64582 0.2786 0.83874 0.0
H1522 H 0.65382 0.2873 0.93349 0.0
H1523 H 0.61959 0.27129 0.86446 0.0
H1524 H 0.5724 0.28718 0.92059 0.0
H1525 H 0.59832 0.29102 0.8931 0.0
H1526 H 0.63469 0.2583 0.94422 0.0
H1527 H 0.60865 0.25373 0.9713 0.0
C1528 C 0.66693 0.28972 0.89814 0.0
C1529 C 0.66501 0.28767 0.87117 0.0
C1530 C 0.65201 0.28517 0.91283 0.0
C1531 C 0.63468 0.27872 0.90095 0.0
C1532 C 0.63274 0.27644 0.87409 0.0
C1533 C 0.64777 0.28072 0.85938 0.0
C1534 C 0.58576 0.28041 0.92576 0.0
C1535 C 0.58836 0.27021 0.94836 0.0
C1536 C 0.60064 0.2827 0.91 0.0
C1537 C 0.61854 0.27504 0.91661 0.0
C1538 C 0.6211 0.26456 0.93885 0.0
C1539 C 0.60617 0.26204 0.95443 0.0
H1540 H 0.76882 0.66358 0.86971 0.0
H1541 H 0.71468 0.63788 0.84678 0.0
H1542 H 0.77575 0.63824 0.89972 0.0
H1543 H 0.72166 0.61267 0.87644 0.0
H1544 H 0.7291 0.5892 0.95671 0.0
H1545 H 0.72516 0.61378 0.92562 0.0
H1546 H 0.78035 0.6013 0.89977 0.0
H1547 H 0.78419 0.57606 0.93059 0.0
C1548 C 0.75851 0.65245 0.87093 0.0
C1549 C 0.74121 0.6527 0.85595 0.0
C1550 C 0.76252 0.63793 0.88793 0.0
C1551 C 0.74917 0.62363 0.89047 0.0
C1552 C 0.73212 0.62364 0.875 0.0
C1553 C 0.72821 0.63797 0.85786 0.0
C1554 C 0.74036 0.59148 0.94426 0.0
C1555 C 0.75682 0.58039 0.94582 0.0
C1556 C 0.7381 0.60563 0.92652 0.0
C1557 C 0.75234 0.60923 0.91009 0.0
C1558 C 0.76917 0.59876 0.91226 0.0
C1559 C 0.77137 0.58438 0.92993 0.0
loop_
_geom_bond_atom_site_label_1
_geom_bond_atom_site_label_2
_geom_bond_distance
_geom_bond_site_symmetry_2
_ccdc_geom_bond_type
H0 C27 0.929 . S
N1 C26 1.433 . S
N1 C32 1.435 . S
N1 C38 1.423 . S
H2 C28 0.930 . S
H3 C31 0.931 . S
H4 C30 0.929 . S
H5 C33 0.930 . S
H6 C34 0.932 . S
H7 C37 0.929 . S
H8 C36 0.931 . S
H9 C39 0.929 . S
H10 C43 0.932 . S
H11 C40 0.931 . S
H12 C42 0.929 . S
H13 C45 0.929 . S
H14 C46 0.930 . S
H15 C48 0.929 . S
H16 C49 0.931 . S
H17 C51 0.930 . S
H18 C52 0.932 . S
H19 C54 0.931 . S
H20 C55 0.929 . S
H21 C57 0.929 . S
H22 C58 0.931 . S
H23 C60 0.929 . S
N24 C44 1.433 . S
N24 C50 1.435 . S
N24 C56 1.423 . S
H25 C61 0.932 . S
C26 N1 1.433 . S
C26 C27 1.363 . S
C26 C31 1.370 . S
C27 H0 0.929 . S
C27 C26 1.363 . S
C27 C28 1.385 . S
C28 H2 0.930 . S
C28 C27 1.385 . S
C28 C29 1.357 . S
C29 C28 1.357 . S
C29 C30 1.406 . S
C30 H4 0.929 . S
C30 C29 1.406 . S
C30 C31 1.391 . S
C31 H3 0.931 . S
C31 C26 1.370 . S
C31 C30 1.391 . S
C32 N1 1.435 . S
C32 C33 1.358 . S
C32 C37 1.371 . S
C33 H5 0.930 . S
C33 C32 1.358 . S
C33 C34 1.405 . S
C34 H6 0.932 . S
C34 C33 1.405 . S
C34 C35 1.383 . S
C35 C34 1.383 . S
C35 C36 1.393 . S
C36 H8 0.931 . S
C36 C35 1.393 . S
C36 C37 1.382 . S
C37 H7 0.929 . S
C37 C32 1.371 . S
C37 C36 1.382 . S
C38 N1 1.423 . S
C38 C39 1.362 . S
C38 C43 1.388 . S
C39 H9 0.929 . S
C39 C38 1.362 . S
C39 C40 1.376 . S
C40 H11 0.931 . S
C40 C39 1.376 . S
C40 C41 1.396 . S
C41 C40 1.396 . S
C41 C42 1.348 . S
C41 C59 1.472 . S
C42 H12 0.929 . S
C42 C41 1.348 . S
C42 C43 1.443 . S
C43 H10 0.932 . S
C43 C38 1.388 . S
C43 C42 1.443 . S
C44 N24 1.433 . S
C44 C45 1.363 . S
C44 C49 1.370 . S
C45 H13 0.929 . S
C45 C44 1.363 . S
C45 C46 1.385 . S
C46 H14 0.930 . S
C46 C45 1.385 . S
C46 C47 1.357 . S
C47 C46 1.357 . S
C47 C48 1.406 . S
C48 H15 0.929 . S
C48 C47 1.406 . S
C48 C49 1.391 . S
C49 H16 0.931 . S
C49 C44 1.370 . S
C49 C48 1.391 . S
C50 N24 1.435 . S
C50 C51 1.358 . S
C50 C55 1.371 . S
C51 H17 0.930 . S
C51 C50 1.358 . S
C51 C52 1.405 . S
C52 H18 0.932 . S
C52 C51 1.405 . S
C52 C53 1.383 . S
C53 C52 1.383 . S
C53 C54 1.393 . S
C54 H19 0.931 . S
C54 C53 1.393 . S
C54 C55 1.382 . S
C55 H20 0.929 . S
C55 C50 1.371 . S
C55 C54 1.382 . S
C56 N24 1.423 . S
C56 C57 1.362 . S
C56 C61 1.388 . S
C57 H21 0.929 . S
C57 C56 1.362 . S
C57 C58 1.376 . S
C58 H22 0.931 . S
C58 C57 1.376 . S
C58 C59 1.396 . S
C59 C41 1.472 . S
C59 C58 1.396 . S
C59 C60 1.348 . S
C60 H23 0.929 . S
C60 C59 1.348 . S
C60 C61 1.443 . S
C61 H25 0.932 . S
C61 C56 1.388 . S
C61 C60 1.443 . S
H62 C89 0.929 . S
N63 C88 1.433 . S
N63 C94 1.435 . S
N63 C100 1.423 . S
H64 C90 0.930 . S
H65 C93 0.931 . S
H66 C92 0.929 . S
H67 C95 0.930 . S
H68 C96 0.932 . S
H69 C99 0.929 . S
H70 C98 0.931 . S
H71 C101 0.929 . S
H72 C105 0.932 . S
H73 C102 0.931 . S
H74 C104 0.929 . S
H75 C107 0.929 . S
H76 C108 0.930 . S
H77 C110 0.929 . S
H78 C111 0.931 . S
H79 C113 0.930 . S
H80 C114 0.932 . S
H81 C116 0.931 . S
H82 C117 0.929 . S
H83 C119 0.929 . S
H84 C120 0.931 . S
H85 C122 0.929 . S
N86 C106 1.433 . S
N86 C112 1.435 . S
N86 C118 1.423 . S
H87 C123 0.932 . S
C88 N63 1.433 . S
C88 C89 1.363 . S
C88 C93 1.370 . S
C89 H62 0.929 . S
C89 C88 1.363 . S
C89 C90 1.385 . S
C90 H64 0.930 . S
C90 C89 1.385 . S
C90 C91 1.357 . S
C91 C90 1.357 . S
C91 C92 1.406 . S
C92 H66 0.929 . S
C92 C91 1.406 . S
C92 C93 1.391 . S
C93 H65 0.931 . S
C93 C88 1.370 . S
C93 C92 1.391 . S
C94 N63 1.435 . S
C94 C95 1.358 . S
C94 C99 1.371 . S
C95 H67 0.930 . S
C95 C94 1.358 . S
C95 C96 1.405 . S
C96 H68 0.932 . S
C96 C95 1.405 . S
C96 C97 1.383 . S
C97 C96 1.383 . S
C97 C98 1.393 . S
C98 H70 0.931 . S
C98 C97 1.393 . S
C98 C99 1.382 . S
C99 H69 0.929 . S
C99 C94 1.371 . S
C99 C98 1.382 . S
C100 N63 1.423 . S
C100 C101 1.362 . S
C100 C105 1.388 . S
C101 H71 0.929 . S
C101 C100 1.362 . S
C101 C102 1.376 . S
C102 H73 0.931 . S
C102 C101 1.376 . S
C102 C103 1.396 . S
C103 C102 1.396 . S
C103 C104 1.348 . S
C103 C121 1.472 . S
C104 H74 0.929 . S
C104 C103 1.348 . S
C104 C105 1.443 . S
C105 H72 0.932 . S
C105 C100 1.388 . S
C105 C104 1.443 . S
C106 N86 1.433 . S
C106 C107 1.363 . S
C106 C111 1.370 . S
C107 H75 0.929 . S
C107 C106 1.363 . S
C107 C108 1.385 . S
C108 H76 0.930 . S
C108 C107 1.385 . S
C108 C109 1.357 . S
C109 C108 1.357 . S
C109 C110 1.406 . S
C110 H77 0.929 . S
C110 C109 1.406 . S
C110 C111 1.391 . S
C111 H78 0.931 . S
C111 C106 1.370 . S
C111 C110 1.391 . S
C112 N86 1.435 . S
C112 C113 1.358 . S
C112 C117 1.371 . S
C113 H79 0.930 . S
C113 C112 1.358 . S
C113 C114 1.405 . S
C114 H80 0.932 . S
C114 C113 1.405 . S
C114 C115 1.383 . S
C115 C114 1.383 . S
C115 C116 1.393 . S
C116 H81 0.931 . S
C116 C115 1.393 . S
C116 C117 1.382 . S
C117 H82 0.929 . S
C117 C112 1.371 . S
C117 C116 1.382 . S
C118 N86 1.423 . S
C118 C119 1.362 . S
C118 C123 1.388 . S
C119 H83 0.929 . S
C119 C118 1.362 . S
C119 C120 1.376 . S
C120 H84 0.931 . S
C120 C119 1.376 . S
C120 C121 1.396 . S
C121 C103 1.472 . S
C121 C120 1.396 . S
C121 C122 1.348 . S
C122 H85 0.929 . S
C122 C121 1.348 . S
C122 C123 1.443 . S
C123 H87 0.932 . S
C123 C118 1.388 . S
C123 C122 1.443 . S
H124 C151 0.929 . S
N125 C150 1.433 . S
N125 C156 1.435 . S
N125 C162 1.423 . S
H126 C152 0.930 . S
H127 C155 0.931 . S
H128 C154 0.929 . S
H129 C157 0.930 . S
H130 C158 0.932 . S
H131 C161 0.929 . S
H132 C160 0.931 . S
H133 C163 0.929 . S
H134 C167 0.932 . S
H135 C164 0.931 . S
H136 C166 0.929 . S
H137 C169 0.929 . S
H138 C170 0.930 . S
H139 C172 0.929 . S
H140 C173 0.931 . S
H141 C175 0.930 . S
H142 C176 0.932 . S
H143 C178 0.931 . S
H144 C179 0.929 . S
H145 C181 0.929 . S
H146 C182 0.931 . S
H147 C184 0.929 . S
N148 C168 1.433 . S
N148 C174 1.435 . S
N148 C180 1.423 . S
H149 C185 0.932 . S
C150 N125 1.433 . S
C150 C151 1.363 . S
C150 C155 1.370 . S
C151 H124 0.929 . S
C151 C150 1.363 . S
C151 C152 1.385 . S
C152 H126 0.930 . S
C152 C151 1.385 . S
C152 C153 1.357 . S
C153 C152 1.357 . S
C153 C154 1.406 . S
C154 H128 0.929 . S
C154 C153 1.406 . S
C154 C155 1.391 . S
C155 H127 0.931 . S
C155 C150 1.370 . S
C155 C154 1.391 . S
C156 N125 1.435 . S
C156 C157 1.358 . S
C156 C161 1.371 . S
C157 H129 0.930 . S
C157 C156 1.358 . S
C157 C158 1.405 . S
C158 H130 0.932 . S
C158 C157 1.405 . S
C158 C159 1.383 . S
C159 C158 1.383 . S
C159 C160 1.393 . S
C160 H132 0.931 . S
C160 C159 1.393 . S
C160 C161 1.382 . S
C161 H131 0.929 . S
C161 C156 1.371 . S
C161 C160 1.382 . S
C162 N125 1.423 . S
C162 C163 1.362 . S
C162 C167 1.388 . S
C163 H133 0.929 . S
C163 C162 1.362 . S
C163 C164 1.376 . S
C164 H135 0.931 . S
C164 C163 1.376 . S
C164 C165 1.396 . S
C165 C164 1.396 . S
C165 C166 1.348 . S
C165 C183 1.472 . S
C166 H136 0.929 . S
C166 C165 1.348 . S
C166 C167 1.443 . S
C167 H134 0.932 . S
C167 C162 1.388 . S
C167 C166 1.443 . S
C168 N148 1.433 . S
C168 C169 1.363 . S
C168 C173 1.370 . S
C169 H137 0.929 . S
C169 C168 1.363 . S
C169 C170 1.385 . S
C170 H138 0.930 . S
C170 C169 1.385 . S
C170 C171 1.357 . S
C171 C170 1.357 . S
C171 C172 1.406 . S
C172 H139 0.929 . S
C172 C171 1.406 . S
C172 C173 1.391 . S
C173 H140 0.931 . S
C173 C168 1.370 . S
C173 C172 1.391 . S
C174 N148 1.435 . S
C174 C175 1.358 . S
C174 C179 1.371 . S
C175 H141 0.930 . S
C175 C174 1.358 . S
C175 C176 1.405 . S
C176 H142 0.932 . S
C176 C175 1.405 . S
C176 C177 1.383 . S
C177 C176 1.383 . S
C177 C178 1.393 . S
C178 H143 0.931 . S
C178 C177 1.393 . S
C178 C179 1.382 . S
C179 H144 0.929 . S
C179 C174 1.371 . S
C179 C178 1.382 . S
C180 N148 1.423 . S
C180 C181 1.362 . S
C180 C185 1.388 . S
C181 H145 0.929 . S
C181 C180 1.362 . S
C181 C182 1.376 . S
C182 H146 0.931 . S
C182 C181 1.376 . S
C182 C183 1.396 . S
C183 C165 1.472 . S
C183 C182 1.396 . S
C183 C184 1.348 . S
C184 H147 0.929 . S
C184 C183 1.348 . S
C184 C185 1.443 . S
C185 H149 0.932 . S
C185 C180 1.388 . S
C185 C184 1.443 . S
H186 C213 0.929 . S
N187 C212 1.433 . S
N187 C218 1.435 . S
N187 C224 1.423 . S
H188 C214 0.930 . S
H189 C217 0.931 . S
H190 C216 0.929 . S
H191 C219 0.930 . S
H192 C220 0.932 . S
H193 C223 0.929 . S
H194 C222 0.931 . S
H195 C225 0.929 . S
H196 C229 0.932 . S
H197 C226 0.931 . S
H198 C228 0.929 . S
H199 C231 0.929 . S
H200 C232 0.930 . S
H201 C234 0.929 . S
H202 C235 0.931 . S
H203 C237 0.930 . S
H204 C238 0.932 . S
H205 C240 0.931 . S
H206 C241 0.929 . S
H207 C243 0.929 . S
H208 C244 0.931 . S
H209 C246 0.929 . S
N210 C230 1.433 . S
N210 C236 1.435 . S
N210 C242 1.423 . S
H211 C247 0.932 . S
C212 N187 1.433 . S
C212 C213 1.363 . S
C212 C217 1.370 . S
C213 H186 0.929 . S
C213 C212 1.363 . S
C213 C214 1.385 . S
C214 H188 0.930 . S
C214 C213 1.385 . S
C214 C215 1.357 . S
C215 C214 1.357 . S
C215 C216 1.406 . S
C216 H190 0.929 . S
C216 C215 1.406 . S
C216 C217 1.391 . S
C217 H189 0.931 . S
C217 C212 1.370 . S
C217 C216 1.391 . S
C218 N187 1.435 . S
C218 C219 1.358 . S
C218 C223 1.371 . S
C219 H191 0.930 . S
C219 C218 1.358 . S
C219 C220 1.405 . S
C220 H192 0.932 . S
C220 C219 1.405 . S
C220 C221 1.383 . S
C221 C220 1.383 . S
C221 C222 1.393 . S
C222 H194 0.931 . S
C222 C221 1.393 . S
C222 C223 1.382 . S
C223 H193 0.929 . S
C223 C218 1.371 . S
C223 C222 1.382 . S
C224 N187 1.423 . S
C224 C225 1.362 . S
C224 C229 1.388 . S
C225 H195 0.929 . S
C225 C224 1.362 . S
C225 C226 1.376 . S
C226 H197 0.931 . S
C226 C225 1.376 . S
C226 C227 1.396 . S
C227 C226 1.396 . S
C227 C228 1.348 . S
C227 C245 1.472 . S
C228 H198 0.929 . S
C228 C227 1.348 . S
C228 C229 1.443 . S
C229 H196 0.932 . S
C229 C224 1.388 . S
C229 C228 1.443 . S
C230 N210 1.433 . S
C230 C231 1.363 . S
C230 C235 1.370 . S
C231 H199 0.929 . S
C231 C230 1.363 . S
C231 C232 1.385 . S
C232 H200 0.930 . S
C232 C231 1.385 . S
C232 C233 1.357 . S
C233 C232 1.357 . S
C233 C234 1.406 . S
C234 H201 0.929 . S
C234 C233 1.406 . S
C234 C235 1.391 . S
C235 H202 0.931 . S
C235 C230 1.370 . S
C235 C234 1.391 . S
C236 N210 1.435 . S
C236 C237 1.358 . S
C236 C241 1.371 . S
C237 H203 0.930 . S
C237 C236 1.358 . S
C237 C238 1.405 . S
C238 H204 0.932 . S
C238 C237 1.405 . S
C238 C239 1.383 . S
C239 C238 1.383 . S
C239 C240 1.393 . S
C240 H205 0.931 . S
C240 C239 1.393 . S
C240 C241 1.382 . S
C241 H206 0.929 . S
C241 C236 1.371 . S
C241 C240 1.382 . S
C242 N210 1.423 . S
C242 C243 1.362 . S
C242 C247 1.388 . S
C243 H207 0.929 . S
C243 C242 1.362 . S
C243 C244 1.376 . S
C244 H208 0.931 . S
C244 C243 1.376 . S
C244 C245 1.396 . S
C245 C227 1.472 . S
C245 C244 1.396 . S
C245 C246 1.348 . S
C246 H209 0.929 . S
C246 C245 1.348 . S
C246 C247 1.443 . S
C247 H211 0.932 . S
C247 C242 1.388 . S
C247 C246 1.443 . S
H248 C275 0.929 . S
N249 C274 1.433 . S
N249 C280 1.435 . S
N249 C286 1.423 . S
H250 C276 0.930 . S
H251 C279 0.931 . S
H252 C278 0.929 . S
H253 C281 0.930 . S
H254 C282 0.932 . S
H255 C285 0.929 . S
H256 C284 0.931 . S
H257 C287 0.929 . S
H258 C291 0.932 . S
H259 C288 0.931 . S
H260 C290 0.929 . S
H261 C293 0.929 . S
H262 C294 0.930 . S
H263 C296 0.929 . S
H264 C297 0.931 . S
H265 C299 0.930 . S
H266 C300 0.932 . S
H267 C302 0.931 . S
H268 C303 0.929 . S
H269 C305 0.929 . S
H270 C306 0.931 . S
H271 C308 0.929 . S
N272 C292 1.433 . S
N272 C298 1.435 . S
N272 C304 1.423 . S
H273 C309 0.932 . S
C274 N249 1.433 . S
C274 C275 1.363 . S
C274 C279 1.370 . S
C275 H248 0.929 . S
C275 C274 1.363 . S
C275 C276 1.385 . S
C276 H250 0.930 . S
C276 C275 1.385 . S
C276 C277 1.357 . S
C277 C276 1.357 . S
C277 C278 1.406 . S
C278 H252 0.929 . S
C278 C277 1.406 . S
C278 C279 1.391 . S
C279 H251 0.931 . S
C279 C274 1.370 . S
C279 C278 1.391 . S
C280 N249 1.435 . S
C280 C281 1.358 . S
C280 C285 1.371 . S
C281 H253 0.930 . S
C281 C280 1.358 . S
C281 C282 1.405 . S
C282 H254 0.932 . S
C282 C281 1.405 . S
C282 C283 1.383 . S
C283 C282 1.383 . S
C283 C284 1.393 . S
C284 H256 0.931 . S
C284 C283 1.393 . S
C284 C285 1.382 . S
C285 H255 0.929 . S
C285 C280 1.371 . S
C285 C284 1.382 . S
C286 N249 1.423 . S
C286 C287 1.362 . S
C286 C291 1.388 . S
C287 H257 0.929 . S
C287 C286 1.362 . S
C287 C288 1.376 . S
C288 H259 0.931 . S
C288 C287 1.376 . S
C288 C289 1.396 . S
C289 C288 1.396 . S
C289 C290 1.348 . S
C289 C307 1.472 . S
C290 H260 0.929 . S
C290 C289 1.348 . S
C290 C291 1.443 . S
C291 H258 0.932 . S
C291 C286 1.388 . S
C291 C290 1.443 . S
C292 N272 1.433 . S
C292 C293 1.363 . S
C292 C297 1.370 . S
C293 H261 0.929 . S
C293 C292 1.363 . S
C293 C294 1.385 . S
C294 H262 0.930 . S
C294 C293 1.385 . S
C294 C295 1.357 . S
C295 C294 1.357 . S
C295 C296 1.406 . S
C296 H263 0.929 . S
C296 C295 1.406 . S
C296 C297 1.391 . S
C297 H264 0.931 . S
C297 C292 1.370 . S
C297 C296 1.391 . S
C298 N272 1.435 . S
C298 C299 1.358 . S
C298 C303 1.371 . S
C299 H265 0.930 . S
C299 C298 1.358 . S
C299 C300 1.405 . S
C300 H266 0.932 . S
C300 C299 1.405 . S
C300 C301 1.383 . S
C301 C300 1.383 . S
C301 C302 1.393 . S
C302 H267 0.931 . S
C302 C301 1.393 . S
C302 C303 1.382 . S
C303 H268 0.929 . S
C303 C298 1.371 . S
C303 C302 1.382 . S
C304 N272 1.423 . S
C304 C305 1.362 . S
C304 C309 1.388 . S
C305 H269 0.929 . S
C305 C304 1.362 . S
C305 C306 1.376 . S
C306 H270 0.931 . S
C306 C305 1.376 . S
C306 C307 1.396 . S
C307 C289 1.472 . S
C307 C306 1.396 . S
C307 C308 1.348 . S
C308 H271 0.929 . S
C308 C307 1.348 . S
C308 C309 1.443 . S
C309 H273 0.932 . S
C309 C304 1.388 . S
C309 C308 1.443 . S
H310 C337 0.929 . S
N311 C336 1.433 . S
N311 C342 1.435 . S
N311 C348 1.423 . S
H312 C338 0.930 . S
H313 C341 0.931 . S
H314 C340 0.929 . S
H315 C343 0.930 . S
H316 C344 0.932 . S
H317 C347 0.929 . S
H318 C346 0.931 . S
H319 C349 0.929 . S
H320 C353 0.932 . S
H321 C350 0.931 . S
H322 C352 0.929 . S
H323 C355 0.929 . S
H324 C356 0.930 . S
H325 C358 0.929 . S
H326 C359 0.931 . S
H327 C361 0.930 . S
H328 C362 0.932 . S
H329 C364 0.931 . S
H330 C365 0.929 . S
H331 C367 0.929 . S
H332 C368 0.931 . S
H333 C370 0.929 . S
N334 C354 1.433 . S
N334 C360 1.435 . S
N334 C366 1.423 . S
H335 C371 0.932 . S
C336 N311 1.433 . S
C336 C337 1.363 . S
C336 C341 1.370 . S
C337 H310 0.929 . S
C337 C336 1.363 . S
C337 C338 1.385 . S
C338 H312 0.930 . S
C338 C337 1.385 . S
C338 C339 1.357 . S
C339 C338 1.357 . S
C339 C340 1.406 . S
C340 H314 0.929 . S
C340 C339 1.406 . S
C340 C341 1.391 . S
C341 H313 0.931 . S
C341 C336 1.370 . S
C341 C340 1.391 . S
C342 N311 1.435 . S
C342 C343 1.358 . S
C342 C347 1.371 . S
C343 H315 0.930 . S
C343 C342 1.358 . S
C343 C344 1.405 . S
C344 H316 0.932 . S
C344 C343 1.405 . S
C344 C345 1.383 . S
C345 C344 1.383 . S
C345 C346 1.393 . S
C346 H318 0.931 . S
C346 C345 1.393 . S
C346 C347 1.382 . S
C347 H317 0.929 . S
C347 C342 1.371 . S
C347 C346 1.382 . S
C348 N311 1.423 . S
C348 C349 1.362 . S
C348 C353 1.388 . S
C349 H319 0.929 . S
C349 C348 1.362 . S
C349 C350 1.376 . S
C350 H321 0.931 . S
C350 C349 1.376 . S
C350 C351 1.396 . S
C351 C350 1.396 . S
C351 C352 1.348 . S
C351 C369 1.472 . S
C352 H322 0.929 . S
C352 C351 1.348 . S
C352 C353 1.443 . S
C353 H320 0.932 . S
C353 C348 1.388 . S
C353 C352 1.443 . S
C354 N334 1.433 . S
C354 C355 1.363 . S
C354 C359 1.370 . S
C355 H323 0.929 . S
C355 C354 1.363 . S
C355 C356 1.385 . S
C356 H324 0.930 . S
C356 C355 1.385 . S
C356 C357 1.357 . S
C357 C356 1.357 . S
C357 C358 1.406 . S
C358 H325 0.929 . S
C358 C357 1.406 . S
C358 C359 1.391 . S
C359 H326 0.931 . S
C359 C354 1.370 . S
C359 C358 1.391 . S
C360 N334 1.435 . S
C360 C361 1.358 . S
C360 C365 1.371 . S
C361 H327 0.930 . S
C361 C360 1.358 . S
C361 C362 1.405 . S
C362 H328 0.932 . S
C362 C361 1.405 . S
C362 C363 1.383 . S
C363 C362 1.383 . S
C363 C364 1.393 . S
C364 H329 0.931 . S
C364 C363 1.393 . S
C364 C365 1.382 . S
C365 H330 0.929 . S
C365 C360 1.371 . S
C365 C364 1.382 . S
C366 N334 1.423 . S
C366 C367 1.362 . S
C366 C371 1.388 . S
C367 H331 0.929 . S
C367 C366 1.362 . S
C367 C368 1.376 . S
C368 H332 0.931 . S
C368 C367 1.376 . S
C368 C369 1.396 . S
C369 C351 1.472 . S
C369 C368 1.396 . S
C369 C370 1.348 . S
C370 H333 0.929 . S
C370 C369 1.348 . S
C370 C371 1.443 . S
C371 H335 0.932 . S
C371 C366 1.388 . S
C371 C370 1.443 . S
H372 C399 0.929 . S
N373 C398 1.433 . S
N373 C404 1.435 . S
N373 C410 1.423 . S
H374 C400 0.930 . S
H375 C403 0.931 . S
H376 C402 0.929 . S
H377 C405 0.930 . S
H378 C406 0.932 . S
H379 C409 0.929 . S
H380 C408 0.931 . S
H381 C411 0.929 . S
H382 C415 0.932 . S
H383 C412 0.931 . S
H384 C414 0.929 . S
H385 C417 0.929 . S
H386 C418 0.930 . S
H387 C420 0.929 . S
H388 C421 0.931 . S
H389 C423 0.930 . S
H390 C424 0.932 . S
H391 C426 0.931 . S
H392 C427 0.929 . S
H393 C429 0.929 . S
H394 C430 0.931 . S
H395 C432 0.929 . S
N396 C416 1.433 . S
N396 C422 1.435 . S
N396 C428 1.423 . S
H397 C433 0.932 . S
C398 N373 1.433 . S
C398 C399 1.363 . S
C398 C403 1.370 . S
C399 H372 0.929 . S
C399 C398 1.363 . S
C399 C400 1.385 . S
C400 H374 0.930 . S
C400 C399 1.385 . S
C400 C401 1.357 . S
C401 C400 1.357 . S
C401 C402 1.406 . S
C402 H376 0.929 . S
C402 C401 1.406 . S
C402 C403 1.391 . S
C403 H375 0.931 . S
C403 C398 1.370 . S
C403 C402 1.391 . S
C404 N373 1.435 . S
C404 C405 1.358 . S
C404 C409 1.371 . S
C405 H377 0.930 . S
C405 C404 1.358 . S
C405 C406 1.405 . S
C406 H378 0.932 . S
C406 C405 1.405 . S
C406 C407 1.383 . S
C407 C406 1.383 . S
C407 C408 1.393 . S
C408 H380 0.931 . S
C408 C407 1.393 . S
C408 C409 1.382 . S
C409 H379 0.929 . S
C409 C404 1.371 . S
C409 C408 1.382 . S
C410 N373 1.423 . S
C410 C411 1.362 . S
C410 C415 1.388 . S
C411 H381 0.929 . S
C411 C410 1.362 . S
C411 C412 1.376 . S
C412 H383 0.931 . S
C412 C411 1.376 . S
C412 C413 1.396 . S
C413 C412 1.396 . S
C413 C414 1.348 . S
C413 C431 1.472 . S
C414 H384 0.929 . S
C414 C413 1.348 . S
C414 C415 1.443 . S
C415 H382 0.932 . S
C415 C410 1.388 . S
C415 C414 1.443 . S
C416 N396 1.433 . S
C416 C417 1.363 . S
C416 C421 1.370 . S
C417 H385 0.929 . S
C417 C416 1.363 . S
C417 C418 1.385 . S
C418 H386 0.930 . S
C418 C417 1.385 . S
C418 C419 1.357 . S
C419 C418 1.357 . S
C419 C420 1.406 . S
C420 H387 0.929 . S
C420 C419 1.406 . S
C420 C421 1.391 . S
C421 H388 0.931 . S
C421 C416 1.370 . S
C421 C420 1.391 . S
C422 N396 1.435 . S
C422 C423 1.358 . S
C422 C427 1.371 . S
C423 H389 0.930 . S
C423 C422 1.358 . S
C423 C424 1.405 . S
C424 H390 0.932 . S
C424 C423 1.405 . S
C424 C425 1.383 . S
C425 C424 1.383 . S
C425 C426 1.393 . S
C426 H391 0.931 . S
C426 C425 1.393 . S
C426 C427 1.382 . S
C427 H392 0.929 . S
C427 C422 1.371 . S
C427 C426 1.382 . S
C428 N396 1.423 . S
C428 C429 1.362 . S
C428 C433 1.388 . S
C429 H393 0.929 . S
C429 C428 1.362 . S
C429 C430 1.376 . S
C430 H394 0.931 . S
C430 C429 1.376 . S
C430 C431 1.396 . S
C431 C413 1.472 . S
C431 C430 1.396 . S
C431 C432 1.348 . S
C432 H395 0.929 . S
C432 C431 1.348 . S
C432 C433 1.443 . S
C433 H397 0.932 . S
C433 C428 1.388 . S
C433 C432 1.443 . S
H434 C461 0.929 . S
N435 C460 1.433 . S
N435 C466 1.435 . S
N435 C472 1.423 . S
H436 C462 0.930 . S
H437 C465 0.931 . S
H438 C464 0.929 . S
H439 C467 0.930 . S
H440 C468 0.932 . S
H441 C471 0.929 . S
H442 C470 0.931 . S
H443 C473 0.929 . S
H444 C477 0.932 . S
H445 C474 0.931 . S
H446 C476 0.929 . S
H447 C479 0.929 . S
H448 C480 0.930 . S
H449 C482 0.929 . S
H450 C483 0.931 . S
H451 C485 0.930 . S
H452 C486 0.932 . S
H453 C488 0.931 . S
H454 C489 0.929 . S
H455 C491 0.929 . S
H456 C492 0.931 . S
H457 C494 0.929 . S
N458 C478 1.433 . S
N458 C484 1.435 . S
N458 C490 1.423 . S
H459 C495 0.932 . S
C460 N435 1.433 . S
C460 C461 1.363 . S
C460 C465 1.370 . S
C461 H434 0.929 . S
C461 C460 1.363 . S
C461 C462 1.385 . S
C462 H436 0.930 . S
C462 C461 1.385 . S
C462 C463 1.357 . S
C463 C462 1.357 . S
C463 C464 1.406 . S
C464 H438 0.929 . S
C464 C463 1.406 . S
C464 C465 1.391 . S
C465 H437 0.931 . S
C465 C460 1.370 . S
C465 C464 1.391 . S
C466 N435 1.435 . S
C466 C467 1.358 . S
C466 C471 1.371 . S
C467 H439 0.930 . S
C467 C466 1.358 . S
C467 C468 1.405 . S
C468 H440 0.932 . S
C468 C467 1.405 . S
C468 C469 1.383 . S
C469 C468 1.383 . S
C469 C470 1.393 . S
C470 H442 0.931 . S
C470 C469 1.393 . S
C470 C471 1.382 . S
C471 H441 0.929 . S
C471 C466 1.371 . S
C471 C470 1.382 . S
C472 N435 1.423 . S
C472 C473 1.362 . S
C472 C477 1.388 . S
C473 H443 0.929 . S
C473 C472 1.362 . S
C473 C474 1.376 . S
C474 H445 0.931 . S
C474 C473 1.376 . S
C474 C475 1.396 . S
C475 C474 1.396 . S
C475 C476 1.348 . S
C475 C493 1.472 . S
C476 H446 0.929 . S
C476 C475 1.348 . S
C476 C477 1.443 . S
C477 H444 0.932 . S
C477 C472 1.388 . S
C477 C476 1.443 . S
C478 N458 1.433 . S
C478 C479 1.363 . S
C478 C483 1.370 . S
C479 H447 0.929 . S
C479 C478 1.363 . S
C479 C480 1.385 . S
C480 H448 0.930 . S
C480 C479 1.385 . S
C480 C481 1.357 . S
C481 C480 1.357 . S
C481 C482 1.406 . S
C482 H449 0.929 . S
C482 C481 1.406 . S
C482 C483 1.391 . S
C483 H450 0.931 . S
C483 C478 1.370 . S
C483 C482 1.391 . S
C484 N458 1.435 . S
C484 C485 1.358 . S
C484 C489 1.371 . S
C485 H451 0.930 . S
C485 C484 1.358 . S
C485 C486 1.405 . S
C486 H452 0.932 . S
C486 C485 1.405 . S
C486 C487 1.383 . S
C487 C486 1.383 . S
C487 C488 1.393 . S
C488 H453 0.931 . S
C488 C487 1.393 . S
C488 C489 1.382 . S
C489 H454 0.929 . S
C489 C484 1.371 . S
C489 C488 1.382 . S
C490 N458 1.423 . S
C490 C491 1.362 . S
C490 C495 1.388 . S
C491 H455 0.929 . S
C491 C490 1.362 . S
C491 C492 1.376 . S
C492 H456 0.931 . S
C492 C491 1.376 . S
C492 C493 1.396 . S
C493 C475 1.472 . S
C493 C492 1.396 . S
C493 C494 1.348 . S
C494 H457 0.929 . S
C494 C493 1.348 . S
C494 C495 1.443 . S
C495 H459 0.932 . S
C495 C490 1.388 . S
C495 C494 1.443 . S
C496 C497 1.443 . S
C496 N500 1.376 . S
C496 C534 1.389 . S
C497 C496 1.443 . S
C497 C498 1.340 . S
C497 H537 0.951 . S
C498 C497 1.340 . S
C498 C499 1.439 . S
C498 H538 0.950 . S
C499 C498 1.439 . S
C499 N500 1.374 . S
C499 C533 1.395 . S
N500 C496 1.376 . S
N500 C499 1.374 . S
N500 Co501 2.008 . S
Co501 N500 2.008 . S
Co501 N502 1.995 1_455 S
Co501 N507 2.008 1_455 S
Co501 N512 1.995 . S
Co501 N517 2.282 1_455 S
Co501 N523 2.282 . S
N502 Co501 1.995 1_655 S
N502 C503 1.376 1_655 S
N502 C506 1.383 . S
C503 N502 1.376 1_455 S
C503 C504 1.446 1_455 S
C503 C533 1.391 . S
C504 C503 1.446 1_655 S
C504 C505 1.339 . S
C504 H539 0.949 . S
C505 C504 1.339 . S
C505 C506 1.439 . S
C505 H540 0.950 . S
C506 N502 1.383 . S
C506 C505 1.439 . S
C506 C535 1.392 . S
N507 Co501 2.008 1_655 S
N507 C508 1.376 . S
N507 C511 1.374 . S
C508 N507 1.376 . S
C508 C509 1.443 . S
C508 C535 1.389 . S
C509 C508 1.443 . S
C509 C510 1.340 . S
C509 H541 0.951 . S
C510 C509 1.340 . S
C510 C511 1.439 . S
C510 H542 0.950 . S
C511 N507 1.374 . S
C511 C510 1.439 . S
C511 C536 1.395 1_655 S
N512 Co501 1.995 . S
N512 C513 1.376 . S
N512 C516 1.383 . S
C513 N512 1.376 . S
C513 C514 1.446 . S
C513 C536 1.391 . S
C514 C513 1.446 . S
C514 C515 1.339 . S
C514 H543 0.949 . S
C515 C514 1.339 . S
C515 C516 1.439 . S
C515 H544 0.950 . S
C516 N512 1.383 . S
C516 C515 1.439 . S
C516 C534 1.392 . S
N517 Co501 2.282 1_655 S
N517 C520 1.332 . S
N517 C522 1.332 . S
C518 C519 1.386 . S
C518 C521 1.388 . S
C519 C518 1.386 . S
C519 C520 1.382 . S
C519 H545 0.950 . S
C520 N517 1.332 . S
C520 C519 1.382 . S
C520 H531 0.952 . S
C521 C518 1.388 . S
C521 C522 1.382 . S
C521 H546 0.950 . S
C522 N517 1.332 . S
C522 C521 1.382 . S
C522 H532 0.948 . S
N523 Co501 2.282 . S
N523 C527 1.332 . S
N523 C528 1.332 . S
C524 C525 1.388 . S
C524 C528 1.382 . S
C524 H547 0.950 . S
C525 C524 1.388 . S
C525 C526 1.386 . S
C526 C525 1.386 . S
C526 C527 1.382 . S
C526 H548 0.950 . S
C527 N523 1.332 . S
C527 C526 1.382 . S
C527 H529 0.952 . S
C528 N523 1.332 . S
C528 C524 1.382 . S
C528 H530 0.948 . S
H529 C527 0.952 . S
H530 C528 0.948 . S
H531 C520 0.952 . S
H532 C522 0.948 . S
C533 C499 1.395 . S
C533 C503 1.391 . S
C534 C496 1.389 . S
C534 C516 1.392 . S
C535 C506 1.392 . S
C535 C508 1.389 . S
C536 C511 1.395 1_455 S
C536 C513 1.391 . S
H537 C497 0.951 . S
H538 C498 0.950 . S
H539 C504 0.949 . S
H540 C505 0.950 . S
H541 C509 0.951 . S
H542 C510 0.950 . S
H543 C514 0.949 . S
H544 C515 0.950 . S
H545 C519 0.950 . S
H546 C521 0.950 . S
H547 C524 0.950 . S
H548 C526 0.950 . S
C549 C550 1.443 . S
C549 N553 1.376 . S
C549 C587 1.389 . S
C550 C549 1.443 . S
C550 C551 1.340 . S
C550 H590 0.951 . S
C551 C550 1.340 . S
C551 C552 1.439 . S
C551 H591 0.950 . S
C552 C551 1.439 . S
C552 N553 1.374 . S
C552 C586 1.395 . S
N553 C549 1.376 . S
N553 C552 1.374 . S
N553 Co554 2.008 . S
Co554 N553 2.008 . S
Co554 N555 1.996 . S
Co554 N560 2.008 1_545 S
Co554 N565 1.995 . S
Co554 N570 2.282 1_545 S
Co554 N576 2.282 . S
N555 Co554 1.996 . S
N555 C556 1.376 . S
N555 C559 1.381 1_545 S
C556 N555 1.376 . S
C556 C557 1.446 1_545 S
C556 C586 1.391 . S
C557 C556 1.446 1_565 S
C557 C558 1.339 . S
C557 H592 0.949 . S
C558 C557 1.339 . S
C558 C559 1.439 . S
C558 H593 0.950 . S
C559 N555 1.381 1_565 S
C559 C558 1.439 . S
C559 C588 1.392 . S
N560 Co554 2.008 1_565 S
N560 C561 1.376 . S
N560 C564 1.374 . S
C561 N560 1.376 . S
C561 C562 1.443 . S
C561 C588 1.389 . S
C562 C561 1.443 . S
C562 C563 1.340 . S
C562 H594 0.951 . S
C563 C562 1.340 . S
C563 C564 1.439 . S
C563 H595 0.950 . S
C564 N560 1.374 . S
C564 C563 1.439 . S
C564 C589 1.395 1_565 S
N565 Co554 1.995 . S
N565 C566 1.376 . S
N565 C569 1.383 . S
C566 N565 1.376 . S
C566 C567 1.446 . S
C566 C589 1.391 . S
C567 C566 1.446 . S
C567 C568 1.339 . S
C567 H596 0.949 . S
C568 C567 1.339 . S
C568 C569 1.439 . S
C568 H597 0.950 . S
C569 N565 1.383 . S
C569 C568 1.439 . S
C569 C587 1.392 . S
N570 Co554 2.282 1_565 S
N570 C573 1.332 . S
N570 C575 1.332 . S
C571 C572 1.386 . S
C571 C574 1.388 . S
C572 C571 1.386 . S
C572 C573 1.382 . S
C572 H598 0.950 . S
C573 N570 1.332 . S
C573 C572 1.382 . S
C573 H584 0.952 . S
C574 C571 1.388 . S
C574 C575 1.382 . S
C574 H599 0.950 . S
C575 N570 1.332 . S
C575 C574 1.382 . S
C575 H585 0.948 . S
N576 Co554 2.282 . S
N576 C580 1.332 . S
N576 C581 1.332 . S
C577 C578 1.388 . S
C577 C581 1.382 . S
C577 H600 0.950 . S
C578 C577 1.388 . S
C578 C579 1.386 . S
C579 C578 1.386 . S
C579 C580 1.382 . S
C579 H601 0.950 . S
C580 N576 1.332 . S
C580 C579 1.382 . S
C580 H582 0.952 . S
C581 N576 1.332 . S
C581 C577 1.382 . S
C581 H583 0.948 . S
H582 C580 0.952 . S
H583 C581 0.948 . S
H584 C573 0.952 . S
H585 C575 0.948 . S
C586 C552 1.395 . S
C586 C556 1.391 . S
C587 C549 1.389 . S
C587 C569 1.392 . S
C588 C559 1.392 . S
C588 C561 1.389 . S
C589 C564 1.395 1_545 S
C589 C566 1.391 . S
H590 C550 0.951 . S
H591 C551 0.950 . S
H592 C557 0.949 . S
H593 C558 0.950 . S
H594 C562 0.951 . S
H595 C563 0.950 . S
H596 C567 0.949 . S
H597 C568 0.950 . S
H598 C572 0.950 . S
H599 C574 0.950 . S
H600 C577 0.950 . S
H601 C579 0.950 . S
C602 C603 1.443 . S
C602 N606 1.376 . S
C602 C640 1.389 . S
C603 C602 1.443 . S
C603 C604 1.340 . S
C603 H643 0.951 . S
C604 C603 1.340 . S
C604 C605 1.439 . S
C604 H644 0.950 . S
C605 C604 1.439 . S
C605 N606 1.374 . S
C605 C639 1.395 . S
N606 C602 1.376 . S
N606 C605 1.374 . S
N606 Co607 2.008 . S
Co607 N606 2.008 . S
Co607 N608 1.995 1_455 S
Co607 N613 2.008 1_455 S
Co607 N618 1.995 . S
Co607 N623 2.282 1_455 S
Co607 N629 2.282 . S
N608 Co607 1.995 1_655 S
N608 C609 1.380 . S
N608 C612 1.383 . S
C609 N608 1.380 . S
C609 C610 1.465 . S
C609 C639 1.373 1_655 S
C610 C609 1.465 . S
C610 C611 1.339 . S
C610 H645 0.949 . S
C611 C610 1.339 . S
C611 C612 1.439 . S
C611 H646 0.950 . S
C612 N608 1.383 . S
C612 C611 1.439 . S
C612 C641 1.392 . S
N613 Co607 2.008 1_655 S
N613 C614 1.376 . S
N613 C617 1.374 . S
C614 N613 1.376 . S
C614 C615 1.443 . S
C614 C641 1.389 . S
C615 C614 1.443 . S
C615 C616 1.340 . S
C615 H647 0.951 . S
C616 C615 1.340 . S
C616 C617 1.439 . S
C616 H648 0.950 . S
C617 N613 1.374 . S
C617 C616 1.439 . S
C617 C642 1.395 1_655 S
N618 Co607 1.995 . S
N618 C619 1.376 . S
N618 C622 1.383 . S
C619 N618 1.376 . S
C619 C620 1.446 . S
C619 C642 1.391 . S
C620 C619 1.446 . S
C620 C621 1.339 . S
C620 H649 0.949 . S
C621 C620 1.339 . S
C621 C622 1.439 . S
C621 H650 0.950 . S
C622 N618 1.383 . S
C622 C621 1.439 . S
C622 C640 1.392 . S
N623 Co607 2.282 1_655 S
N623 C626 1.332 . S
N623 C628 1.332 . S
C624 C625 1.386 . S
C624 C627 1.388 . S
C625 C624 1.386 . S
C625 C626 1.382 . S
C625 H651 0.950 . S
C626 N623 1.332 . S
C626 C625 1.382 . S
C626 H637 0.952 . S
C627 C624 1.388 . S
C627 C628 1.382 . S
C627 H652 0.950 . S
C628 N623 1.332 . S
C628 C627 1.382 . S
C628 H638 0.948 . S
N629 Co607 2.282 . S
N629 C633 1.332 . S
N629 C634 1.332 . S
C630 C631 1.388 . S
C630 C634 1.382 . S
C630 H653 0.950 . S
C631 C630 1.388 . S
C631 C632 1.386 . S
C632 C631 1.386 . S
C632 C633 1.382 . S
C632 H654 0.950 . S
C633 N629 1.332 . S
C633 C632 1.382 . S
C633 H635 0.952 . S
C634 N629 1.332 . S
C634 C630 1.382 . S
C634 H636 0.948 . S
H635 C633 0.952 . S
H636 C634 0.948 . S
H637 C626 0.952 . S
H638 C628 0.948 . S
C639 C605 1.395 . S
C639 C609 1.373 1_455 S
C640 C602 1.389 . S
C640 C622 1.392 . S
C641 C612 1.392 . S
C641 C614 1.389 . S
C642 C617 1.395 1_455 S
C642 C619 1.391 . S
H643 C603 0.951 . S
H644 C604 0.950 . S
H645 C610 0.949 . S
H646 C611 0.950 . S
H647 C615 0.951 . S
H648 C616 0.950 . S
H649 C620 0.949 . S
H650 C621 0.950 . S
H651 C625 0.950 . S
H652 C627 0.950 . S
H653 C630 0.950 . S
H654 C632 0.950 . S
C655 C656 1.443 . S
C655 N659 1.376 . S
C655 C693 1.389 . S
C656 C655 1.443 . S
C656 C657 1.340 . S
C656 H696 0.951 . S
C657 C656 1.340 . S
C657 C658 1.460 . S
C657 H697 0.950 . S
C658 C657 1.460 . S
C658 N659 1.375 . S
C658 C692 1.377 1_565 S
N659 C655 1.376 . S
N659 C658 1.375 . S
N659 Co660 2.008 1_565 S
Co660 N659 2.008 1_545 S
Co660 N661 1.995 . S
Co660 N666 2.008 . S
Co660 N671 2.016 . S
Co660 N676 2.282 . S
Co660 N682 2.282 1_545 S
N661 Co660 1.995 . S
N661 C662 1.376 . S
N661 C665 1.383 . S
C662 N661 1.376 . S
C662 C663 1.446 . S
C662 C692 1.391 . S
C663 C662 1.446 . S
C663 C664 1.339 . S
C663 H698 0.949 . S
C664 C663 1.339 . S
C664 C665 1.439 . S
C664 H699 0.950 . S
C665 N661 1.383 . S
C665 C664 1.439 . S
C665 C694 1.392 . S
N666 Co660 2.008 . S
N666 C667 1.376 . S
N666 C670 1.374 . S
C667 N666 1.376 . S
C667 C668 1.443 . S
C667 C694 1.389 . S
C668 C667 1.443 . S
C668 C669 1.340 . S
C668 H700 0.951 . S
C669 C668 1.340 . S
C669 C670 1.439 . S
C669 H701 0.950 . S
C670 N666 1.374 . S
C670 C669 1.439 . S
C670 C695 1.395 . S
N671 Co660 2.016 . S
N671 C672 1.382 . S
N671 C675 1.349 1_545 S
C672 N671 1.382 . S
C672 C673 1.446 1_545 S
C672 C695 1.391 . S
C673 C672 1.446 1_565 S
C673 C674 1.339 . S
C673 H702 0.949 . S
C674 C673 1.339 . S
C674 C675 1.439 . S
C674 H703 0.950 . S
C675 N671 1.349 1_565 S
C675 C674 1.439 . S
C675 C693 1.392 . S
N676 Co660 2.282 . S
N676 C679 1.332 . S
N676 C681 1.332 . S
C677 C678 1.386 . S
C677 C680 1.388 . S
C678 C677 1.386 . S
C678 C679 1.382 . S
C678 H704 0.950 . S
C679 N676 1.332 . S
C679 C678 1.382 . S
C679 H690 0.952 . S
C680 C677 1.388 . S
C680 C681 1.382 . S
C680 H705 0.950 . S
C681 N676 1.332 . S
C681 C680 1.382 . S
C681 H691 0.948 . S
N682 Co660 2.282 1_565 S
N682 C686 1.332 . S
N682 C687 1.332 . S
C683 C684 1.388 . S
C683 C687 1.382 . S
C683 H706 0.950 . S
C684 C683 1.388 . S
C684 C685 1.386 . S
C685 C684 1.386 . S
C685 C686 1.382 . S
C685 H707 0.950 . S
C686 N682 1.332 . S
C686 C685 1.382 . S
C686 H688 0.952 . S
C687 N682 1.332 . S
C687 C683 1.382 . S
C687 H689 0.948 . S
H688 C686 0.952 . S
H689 C687 0.948 . S
H690 C679 0.952 . S
H691 C681 0.948 . S
C692 C658 1.377 1_545 S
C692 C662 1.391 . S
C693 C655 1.389 . S
C693 C675 1.392 . S
C694 C665 1.392 . S
C694 C667 1.389 . S
C695 C670 1.395 . S
C695 C672 1.391 . S
H696 C656 0.951 . S
H697 C657 0.950 . S
H698 C663 0.949 . S
H699 C664 0.950 . S
H700 C668 0.951 . S
H701 C669 0.950 . S
H702 C673 0.949 . S
H703 C674 0.950 . S
H704 C678 0.950 . S
H705 C680 0.950 . S
H706 C683 0.950 . S
H707 C685 0.950 . S
C708 C709 1.443 . S
C708 N712 1.376 . S
C708 C746 1.389 . S
C709 C708 1.443 . S
C709 C710 1.340 . S
C709 H749 0.951 . S
C710 C709 1.340 . S
C710 C711 1.439 . S
C710 H750 0.950 . S
C711 C710 1.439 . S
C711 N712 1.374 . S
C711 C745 1.373 1_554 S
N712 C708 1.376 . S
N712 C711 1.374 . S
N712 Co713 2.020 . S
Co713 N712 2.020 . S
Co713 N714 1.981 1_554 S
Co713 N719 1.997 1_554 S
Co713 N724 2.009 . S
Co713 N729 2.303 . S
Co713 N735 2.262 1_554 S
N714 Co713 1.981 1_556 S
N714 C715 1.376 . S
N714 C718 1.383 . S
C715 N714 1.376 . S
C715 C716 1.446 . S
C715 C745 1.412 . S
C716 C715 1.446 . S
C716 C717 1.339 . S
C716 H751 0.949 . S
C717 C716 1.339 . S
C717 C718 1.439 . S
C717 H752 0.950 . S
C718 N714 1.383 . S
C718 C717 1.439 . S
C718 C747 1.392 . S
N719 Co713 1.997 1_556 S
N719 C720 1.376 . S
N719 C723 1.374 . S
C720 N719 1.376 . S
C720 C721 1.443 . S
C720 C747 1.389 . S
C721 C720 1.443 . S
C721 C722 1.340 . S
C721 H753 0.951 . S
C722 C721 1.340 . S
C722 C723 1.439 . S
C722 H754 0.950 . S
C723 N719 1.374 . S
C723 C722 1.439 . S
C723 C748 1.395 1_556 S
N724 Co713 2.009 . S
N724 C725 1.376 . S
N724 C728 1.383 . S
C725 N724 1.376 . S
C725 C726 1.446 . S
C725 C748 1.391 . S
C726 C725 1.446 . S
C726 C727 1.339 . S
C726 H755 0.949 . S
C727 C726 1.339 . S
C727 C728 1.439 . S
C727 H756 0.950 . S
C728 N724 1.383 . S
C728 C727 1.439 . S
C728 C746 1.392 . S
N729 Co713 2.303 . S
N729 C732 1.332 . S
N729 C734 1.332 . S
C730 C731 1.386 . S
C730 C733 1.388 . S
C731 C730 1.386 . S
C731 C732 1.382 . S
C731 H757 0.950 . S
C732 N729 1.332 . S
C732 C731 1.382 . S
C732 H743 0.952 . S
C733 C730 1.388 . S
C733 C734 1.382 . S
C733 H758 0.950 . S
C734 N729 1.332 . S
C734 C733 1.382 . S
C734 H744 0.948 . S
N735 Co713 2.262 1_556 S
N735 C739 1.332 . S
N735 C740 1.332 . S
C736 C737 1.388 . S
C736 C740 1.382 . S
C736 H759 0.950 . S
C737 C736 1.388 . S
C737 C738 1.386 . S
C738 C737 1.386 . S
C738 C739 1.382 . S
C738 H760 0.950 . S
C739 N735 1.332 . S
C739 C738 1.382 . S
C739 H741 0.952 . S
C740 N735 1.332 . S
C740 C736 1.382 . S
C740 H742 0.948 . S
H741 C739 0.952 . S
H742 C740 0.948 . S
H743 C732 0.952 . S
H744 C734 0.948 . S
C745 C711 1.373 1_556 S
C745 C715 1.412 . S
C746 C708 1.389 . S
C746 C728 1.392 . S
C747 C718 1.392 . S
C747 C720 1.389 . S
C748 C723 1.395 1_554 S
C748 C725 1.391 . S
H749 C709 0.951 . S
H750 C710 0.950 . S
H751 C716 0.949 . S
H752 C717 0.950 . S
H753 C721 0.951 . S
H754 C722 0.950 . S
H755 C726 0.949 . S
H756 C727 0.950 . S
H757 C731 0.950 . S
H758 C733 0.950 . S
H759 C736 0.950 . S
H760 C738 0.950 . S
C761 C762 1.443 . S
C761 N765 1.376 . S
C761 C799 1.389 . S
C762 C761 1.443 . S
C762 C763 1.340 . S
C762 H802 0.951 . S
C763 C762 1.340 . S
C763 C764 1.439 . S
C763 H803 0.950 . S
C764 C763 1.439 . S
C764 N765 1.374 . S
C764 C798 1.395 . S
N765 C761 1.376 . S
N765 C764 1.374 . S
N765 Co766 2.008 . S
Co766 N765 2.008 . S
Co766 N767 1.995 . S
Co766 N772 2.008 . S
Co766 N777 1.995 . S
Co766 N782 2.282 . S
Co766 N788 2.282 . S
N767 Co766 1.995 . S
N767 C768 1.376 . S
N767 C771 1.383 1_554 S
C768 N767 1.376 . S
C768 C769 1.446 1_554 S
C768 C798 1.391 . S
C769 C768 1.446 1_556 S
C769 C770 1.339 . S
C769 H804 0.949 . S
C770 C769 1.339 . S
C770 C771 1.439 . S
C770 H805 0.950 . S
C771 N767 1.383 1_556 S
C771 C770 1.439 . S
C771 C800 1.392 . S
N772 Co766 2.008 . S
N772 C773 1.376 . S
N772 C776 1.374 . S
C773 N772 1.376 . S
C773 C774 1.443 . S
C773 C800 1.389 1_554 S
C774 C773 1.443 . S
C774 C775 1.340 . S
C774 H806 0.951 1_554 S
C775 C774 1.340 . S
C775 C776 1.439 . S
C775 H807 0.950 . S
C776 N772 1.374 . S
C776 C775 1.439 . S
C776 C801 1.395 . S
N777 Co766 1.995 . S
N777 C778 1.376 . S
N777 C781 1.383 . S
C778 N777 1.376 . S
C778 C779 1.446 . S
C778 C801 1.391 . S
C779 C778 1.446 . S
C779 C780 1.339 . S
C779 H808 0.949 . S
C780 C779 1.339 . S
C780 C781 1.439 . S
C780 H809 0.950 . S
C781 N777 1.383 . S
C781 C780 1.439 . S
C781 C799 1.392 . S
N782 Co766 2.282 . S
N782 C785 1.332 . S
N782 C787 1.332 . S
C783 C784 1.386 . S
C783 C786 1.388 . S
C784 C783 1.386 . S
C784 C785 1.382 . S
C784 H810 0.950 . S
C785 N782 1.332 . S
C785 C784 1.382 . S
C785 H796 0.952 . S
C786 C783 1.388 . S
C786 C787 1.382 . S
C786 H811 0.950 . S
C787 N782 1.332 . S
C787 C786 1.382 . S
C787 H797 0.948 . S
N788 Co766 2.282 . S
N788 C792 1.332 1_554 S
N788 C793 1.332 . S
C789 C790 1.388 . S
C789 C793 1.382 1_556 S
C789 H812 0.950 . S
C790 C789 1.388 . S
C790 C791 1.386 . S
C791 C790 1.386 . S
C791 C792 1.382 . S
C791 H813 0.950 . S
C792 N788 1.332 1_556 S
C792 C791 1.382 . S
C792 H794 0.952 . S
C793 N788 1.332 . S
C793 C789 1.382 1_554 S
C793 H795 0.948 . S
H794 C792 0.952 . S
H795 C793 0.948 . S
H796 C785 0.952 . S
H797 C787 0.948 . S
C798 C764 1.395 . S
C798 C768 1.391 . S
C799 C761 1.389 . S
C799 C781 1.392 . S
C800 C771 1.392 . S
C800 C773 1.389 1_556 S
C801 C776 1.395 . S
C801 C778 1.391 . S
H802 C762 0.951 . S
H803 C763 0.950 . S
H804 C769 0.949 . S
H805 C770 0.950 . S
H806 C774 0.951 1_556 S
H807 C775 0.950 . S
H808 C779 0.949 . S
H809 C780 0.950 . S
H810 C784 0.950 . S
H811 C786 0.950 . S
H812 C789 0.950 . S
H813 C791 0.950 . S
C814 C815 1.443 . S
C814 N818 1.376 1_556 S
C814 C852 1.389 . S
C815 C814 1.443 . S
C815 C816 1.340 1_556 S
C815 H855 0.951 . S
C816 C815 1.340 1_554 S
C816 C817 1.439 . S
C816 H856 0.950 . S
C817 C816 1.439 . S
C817 N818 1.374 . S
C817 C851 1.395 . S
N818 C814 1.376 1_554 S
N818 C817 1.374 . S
N818 Co819 2.008 . S
Co819 N818 2.008 . S
Co819 N820 1.995 . S
Co819 N825 2.008 . S
Co819 N830 1.995 . S
Co819 N835 2.282 1_554 S
Co819 N841 2.282 . S
N820 Co819 1.995 . S
N820 C821 1.376 . S
N820 C824 1.383 . S
C821 N820 1.376 . S
C821 C822 1.446 . S
C821 C851 1.391 . S
C822 C821 1.446 . S
C822 C823 1.339 . S
C822 H857 0.949 . S
C823 C822 1.339 . S
C823 C824 1.439 . S
C823 H858 0.950 . S
C824 N820 1.383 . S
C824 C823 1.439 . S
C824 C853 1.392 . S
N825 Co819 2.008 . S
N825 C826 1.376 . S
N825 C829 1.374 . S
C826 N825 1.376 . S
C826 C827 1.443 . S
C826 C853 1.389 . S
C827 C826 1.443 . S
C827 C828 1.340 . S
C827 H859 0.951 . S
C828 C827 1.340 . S
C828 C829 1.439 . S
C828 H860 0.950 . S
C829 N825 1.374 . S
C829 C828 1.439 . S
C829 C854 1.395 . S
N830 Co819 1.995 . S
N830 C831 1.376 . S
N830 C834 1.383 1_554 S
C831 N830 1.376 . S
C831 C832 1.446 1_554 S
C831 C854 1.391 . S
C832 C831 1.446 1_556 S
C832 C833 1.339 . S
C832 H861 0.949 . S
C833 C832 1.339 . S
C833 C834 1.439 . S
C833 H862 0.950 . S
C834 N830 1.383 1_556 S
C834 C833 1.439 . S
C834 C852 1.392 . S
N835 Co819 2.282 1_556 S
N835 C838 1.332 . S
N835 C840 1.332 . S
C836 C837 1.386 . S
C836 C839 1.388 . S
C837 C836 1.386 . S
C837 C838 1.382 . S
C837 H863 0.950 . S
C838 N835 1.332 . S
C838 C837 1.382 . S
C838 H849 0.952 . S
C839 C836 1.388 . S
C839 C840 1.382 . S
C839 H864 0.950 . S
C840 N835 1.332 . S
C840 C839 1.382 . S
C840 H850 0.948 1_556 S
N841 Co819 2.282 . S
N841 C845 1.332 . S
N841 C846 1.332 . S
C842 C843 1.388 . S
C842 C846 1.382 . S
C842 H865 0.950 . S
C843 C842 1.388 . S
C843 C844 1.386 . S
C844 C843 1.386 . S
C844 C845 1.382 . S
C844 H866 0.950 . S
C845 N841 1.332 . S
C845 C844 1.382 . S
C845 H847 0.952 . S
C846 N841 1.332 . S
C846 C842 1.382 . S
C846 H848 0.948 . S
H847 C845 0.952 . S
H848 C846 0.948 . S
H849 C838 0.952 . S
H850 C840 0.948 1_554 S
C851 C817 1.395 . S
C851 C821 1.391 . S
C852 C814 1.389 . S
C852 C834 1.392 . S
C853 C824 1.392 . S
C853 C826 1.389 . S
C854 C829 1.395 . S
C854 C831 1.391 . S
H855 C815 0.951 . S
H856 C816 0.950 . S
H857 C822 0.949 . S
H858 C823 0.950 . S
H859 C827 0.951 . S
H860 C828 0.950 . S
H861 C832 0.949 . S
H862 C833 0.950 . S
H863 C837 0.950 . S
H864 C839 0.950 . S
H865 C842 0.950 . S
H866 C844 0.950 . S
C867 C868 1.443 . S
C867 N871 1.376 . S
C867 C905 1.389 . S
C868 C867 1.443 . S
C868 C869 1.340 . S
C868 H908 0.951 . S
C869 C868 1.340 . S
C869 C870 1.439 . S
C869 H909 0.950 . S
C870 C869 1.439 . S
C870 N871 1.374 . S
C870 C904 1.395 . S
N871 C867 1.376 . S
N871 C870 1.374 . S
N871 Co872 2.008 . S
Co872 N871 2.008 . S
Co872 N873 1.995 . S
Co872 N878 2.008 . S
Co872 N883 1.995 . S
Co872 N888 2.282 . S
Co872 N894 2.282 1_554 S
N873 Co872 1.995 . S
N873 C874 1.376 . S
N873 C877 1.383 1_554 S
C874 N873 1.376 . S
C874 C875 1.446 1_554 S
C874 C904 1.391 . S
C875 C874 1.446 1_556 S
C875 C876 1.339 . S
C875 H910 0.949 . S
C876 C875 1.339 . S
C876 C877 1.439 . S
C876 H911 0.950 . S
C877 N873 1.383 1_556 S
C877 C876 1.439 . S
C877 C906 1.392 . S
N878 Co872 2.008 . S
N878 C879 1.376 1_554 S
N878 C882 1.374 . S
C879 N878 1.376 1_556 S
C879 C880 1.443 . S
C879 C906 1.389 . S
C880 C879 1.443 . S
C880 C881 1.340 1_556 S
C880 H912 0.951 . S
C881 C880 1.340 1_554 S
C881 C882 1.439 . S
C881 H913 0.950 . S
C882 N878 1.374 . S
C882 C881 1.439 . S
C882 C907 1.395 . S
N883 Co872 1.995 . S
N883 C884 1.376 . S
N883 C887 1.383 . S
C884 N883 1.376 . S
C884 C885 1.446 . S
C884 C907 1.391 . S
C885 C884 1.446 . S
C885 C886 1.339 . S
C885 H914 0.949 . S
C886 C885 1.339 . S
C886 C887 1.439 . S
C886 H915 0.950 . S
C887 N883 1.383 . S
C887 C886 1.439 . S
C887 C905 1.392 . S
N888 Co872 2.282 . S
N888 C891 1.332 . S
N888 C893 1.332 . S
C889 C890 1.386 . S
C889 C892 1.388 . S
C890 C889 1.386 . S
C890 C891 1.382 . S
C890 H916 0.950 . S
C891 N888 1.332 . S
C891 C890 1.382 . S
C891 H902 0.952 . S
C892 C889 1.388 . S
C892 C893 1.382 . S
C892 H917 0.950 . S
C893 N888 1.332 . S
C893 C892 1.382 . S
C893 H903 0.948 . S
N894 Co872 2.282 1_556 S
N894 C898 1.332 . S
N894 C899 1.332 . S
C895 C896 1.388 . S
C895 C899 1.382 . S
C895 H918 0.950 . S
C896 C895 1.388 . S
C896 C897 1.386 . S
C897 C896 1.386 . S
C897 C898 1.382 . S
C897 H919 0.950 . S
C898 N894 1.332 . S
C898 C897 1.382 . S
C898 H900 0.952 . S
C899 N894 1.332 . S
C899 C895 1.382 . S
C899 H901 0.948 1_556 S
H900 C898 0.952 . S
H901 C899 0.948 1_554 S
H902 C891 0.952 . S
H903 C893 0.948 . S
C904 C870 1.395 . S
C904 C874 1.391 . S
C905 C867 1.389 . S
C905 C887 1.392 . S
C906 C877 1.392 . S
C906 C879 1.389 . S
C907 C882 1.395 . S
C907 C884 1.391 . S
H908 C868 0.951 . S
H909 C869 0.950 . S
H910 C875 0.949 . S
H911 C876 0.950 . S
H912 C880 0.951 . S
H913 C881 0.950 . S
H914 C885 0.949 . S
H915 C886 0.950 . S
H916 C890 0.950 . S
H917 C892 0.950 . S
H918 C895 0.950 . S
H919 C897 0.950 . S
H920 C928 0.950 . S
H921 C933 0.950 . S
H922 C930 0.950 . S
H923 C932 0.950 . S
H924 C934 0.950 . S
H925 C936 0.950 . S
H926 C938 0.950 . S
H927 C939 0.950 . S
C928 H920 0.950 . S
C928 C929 1.386 . S
C928 C930 1.391 . S
C929 C928 1.386 . S
C929 C933 1.393 . S
C930 H922 0.950 . S
C930 C928 1.391 . S
C930 C931 1.400 . S
C931 C930 1.400 . S
C931 C932 1.398 . S
C931 C937 1.491 . S
C932 H923 0.950 . S
C932 C931 1.398 . S
C932 C933 1.391 . S
C933 H921 0.950 . S
C933 C929 1.393 . S
C933 C932 1.391 . S
C934 H924 0.950 . S
C934 C935 1.386 . S
C934 C936 1.391 . S
C935 C934 1.386 . S
C935 C939 1.393 . S
C936 H925 0.950 . S
C936 C934 1.391 . S
C936 C937 1.400 . S
C937 C931 1.491 . S
C937 C936 1.400 . S
C937 C938 1.398 . S
C938 H926 0.950 . S
C938 C937 1.398 . S
C938 C939 1.391 . S
C939 H927 0.950 . S
C939 C935 1.393 . S
C939 C938 1.391 . S
H940 C948 0.950 . S
H941 C953 0.950 . S
H942 C950 0.950 . S
H943 C952 0.950 . S
H944 C954 0.950 . S
H945 C956 0.950 . S
H946 C958 0.950 . S
H947 C959 0.950 . S
C948 H940 0.950 . S
C948 C949 1.386 . S
C948 C950 1.391 . S
C949 C948 1.386 . S
C949 C953 1.393 . S
C950 H942 0.950 . S
C950 C948 1.391 . S
C950 C951 1.400 . S
C951 C950 1.400 . S
C951 C952 1.398 . S
C951 C957 1.491 . S
C952 H943 0.950 . S
C952 C951 1.398 . S
C952 C953 1.391 . S
C953 H941 0.950 . S
C953 C949 1.393 . S
C953 C952 1.391 . S
C954 H944 0.950 . S
C954 C955 1.386 . S
C954 C956 1.391 . S
C955 C954 1.386 . S
C955 C959 1.393 . S
C956 H945 0.950 . S
C956 C954 1.391 . S
C956 C957 1.400 . S
C957 C951 1.491 . S
C957 C956 1.400 . S
C957 C958 1.398 . S
C958 H946 0.950 . S
C958 C957 1.398 . S
C958 C959 1.391 . S
C959 H947 0.950 . S
C959 C955 1.393 . S
C959 C958 1.391 . S
H960 C968 0.950 . S
H961 C973 0.950 . S
H962 C970 0.950 . S
H963 C972 0.950 . S
H964 C974 0.950 . S
H965 C976 0.950 . S
H966 C978 0.950 . S
H967 C979 0.950 . S
C968 H960 0.950 . S
C968 C969 1.386 . S
C968 C970 1.391 . S
C969 C968 1.386 . S
C969 C973 1.393 . S
C970 H962 0.950 . S
C970 C968 1.391 . S
C970 C971 1.400 . S
C971 C970 1.400 . S
C971 C972 1.398 . S
C971 C977 1.491 . S
C972 H963 0.950 . S
C972 C971 1.398 . S
C972 C973 1.391 . S
C973 H961 0.950 . S
C973 C969 1.393 . S
C973 C972 1.391 . S
C974 H964 0.950 . S
C974 C975 1.386 . S
C974 C976 1.391 . S
C975 C974 1.386 . S
C975 C979 1.393 . S
C976 H965 0.950 . S
C976 C974 1.391 . S
C976 C977 1.400 . S
C977 C971 1.491 . S
C977 C976 1.400 . S
C977 C978 1.398 . S
C978 H966 0.950 . S
C978 C977 1.398 . S
C978 C979 1.391 . S
C979 H967 0.950 . S
C979 C975 1.393 . S
C979 C978 1.391 . S
H980 C988 0.950 . S
H981 C993 0.950 . S
H982 C990 0.950 . S
H983 C992 0.950 . S
H984 C994 0.950 . S
H985 C996 0.950 . S
H986 C998 0.950 . S
H987 C999 0.950 . S
C988 H980 0.950 . S
C988 C989 1.386 . S
C988 C990 1.391 . S
C989 C988 1.386 . S
C989 C993 1.393 . S
C990 H982 0.950 . S
C990 C988 1.391 . S
C990 C991 1.400 . S
C991 C990 1.400 . S
C991 C992 1.398 . S
C991 C997 1.491 . S
C992 H983 0.950 . S
C992 C991 1.398 . S
C992 C993 1.391 . S
C993 H981 0.950 . S
C993 C989 1.393 . S
C993 C992 1.391 . S
C994 H984 0.950 . S
C994 C995 1.386 . S
C994 C996 1.391 . S
C995 C994 1.386 . S
C995 C999 1.393 . S
C996 H985 0.950 . S
C996 C994 1.391 . S
C996 C997 1.400 . S
C997 C991 1.491 . S
C997 C996 1.400 . S
C997 C998 1.398 . S
C998 H986 0.950 . S
C998 C997 1.398 . S
C998 C999 1.391 . S
C999 H987 0.950 . S
C999 C995 1.393 . S
C999 C998 1.391 . S
H1000 C1008 0.950 . S
H1001 C1013 0.950 . S
H1002 C1010 0.950 . S
H1003 C1012 0.950 . S
H1004 C1014 0.950 . S
H1005 C1016 0.950 . S
H1006 C1018 0.950 . S
H1007 C1019 0.950 . S
C1008 H1000 0.950 . S
C1008 C1009 1.386 . S
C1008 C1010 1.391 . S
C1009 C1008 1.386 . S
C1009 C1013 1.393 . S
C1010 H1002 0.950 . S
C1010 C1008 1.391 . S
C1010 C1011 1.400 . S
C1011 C1010 1.400 . S
C1011 C1012 1.398 . S
C1011 C1017 1.491 . S
C1012 H1003 0.950 . S
C1012 C1011 1.398 . S
C1012 C1013 1.391 . S
C1013 H1001 0.950 . S
C1013 C1009 1.393 . S
C1013 C1012 1.391 . S
C1014 H1004 0.950 . S
C1014 C1015 1.386 . S
C1014 C1016 1.391 . S
C1015 C1014 1.386 . S
C1015 C1019 1.393 . S
C1016 H1005 0.950 . S
C1016 C1014 1.391 . S
C1016 C1017 1.400 . S
C1017 C1011 1.491 . S
C1017 C1016 1.400 . S
C1017 C1018 1.398 . S
C1018 H1006 0.950 . S
C1018 C1017 1.398 . S
C1018 C1019 1.391 . S
C1019 H1007 0.950 . S
C1019 C1015 1.393 . S
C1019 C1018 1.391 . S
H1020 C1028 0.950 . S
H1021 C1033 0.950 . S
H1022 C1030 0.950 . S
H1023 C1032 0.950 . S
H1024 C1034 0.950 . S
H1025 C1036 0.950 . S
H1026 C1038 0.950 . S
H1027 C1039 0.950 . S
C1028 H1020 0.950 . S
C1028 C1029 1.386 . S
C1028 C1030 1.391 . S
C1029 C1028 1.386 . S
C1029 C1033 1.393 . S
C1030 H1022 0.950 . S
C1030 C1028 1.391 . S
C1030 C1031 1.400 . S
C1031 C1030 1.400 . S
C1031 C1032 1.398 . S
C1031 C1037 1.491 . S
C1032 H1023 0.950 . S
C1032 C1031 1.398 . S
C1032 C1033 1.391 . S
C1033 H1021 0.950 . S
C1033 C1029 1.393 . S
C1033 C1032 1.391 . S
C1034 H1024 0.950 . S
C1034 C1035 1.386 . S
C1034 C1036 1.391 . S
C1035 C1034 1.386 . S
C1035 C1039 1.393 . S
C1036 H1025 0.950 . S
C1036 C1034 1.391 . S
C1036 C1037 1.400 . S
C1037 C1031 1.491 . S
C1037 C1036 1.400 . S
C1037 C1038 1.398 . S
C1038 H1026 0.950 . S
C1038 C1037 1.398 . S
C1038 C1039 1.391 . S
C1039 H1027 0.950 . S
C1039 C1035 1.393 . S
C1039 C1038 1.391 . S
H1040 C1048 0.950 . S
H1041 C1053 0.950 . S
H1042 C1050 0.950 . S
H1043 C1052 0.950 . S
H1044 C1054 0.950 . S
H1045 C1056 0.950 . S
H1046 C1058 0.950 . S
H1047 C1059 0.950 . S
C1048 H1040 0.950 . S
C1048 C1049 1.386 . S
C1048 C1050 1.391 . S
C1049 C1048 1.386 . S
C1049 C1053 1.393 . S
C1050 H1042 0.950 . S
C1050 C1048 1.391 . S
C1050 C1051 1.400 . S
C1051 C1050 1.400 . S
C1051 C1052 1.398 . S
C1051 C1057 1.491 . S
C1052 H1043 0.950 . S
C1052 C1051 1.398 . S
C1052 C1053 1.391 . S
C1053 H1041 0.950 . S
C1053 C1049 1.393 . S
C1053 C1052 1.391 . S
C1054 H1044 0.950 . S
C1054 C1055 1.386 . S
C1054 C1056 1.391 . S
C1055 C1054 1.386 . S
C1055 C1059 1.393 . S
C1056 H1045 0.950 . S
C1056 C1054 1.391 . S
C1056 C1057 1.400 . S
C1057 C1051 1.491 . S
C1057 C1056 1.400 . S
C1057 C1058 1.398 . S
C1058 H1046 0.950 . S
C1058 C1057 1.398 . S
C1058 C1059 1.391 . S
C1059 H1047 0.950 . S
C1059 C1055 1.393 . S
C1059 C1058 1.391 . S
H1060 C1068 0.950 . S
H1061 C1073 0.950 . S
H1062 C1070 0.950 . S
H1063 C1072 0.950 . S
H1064 C1074 0.950 . S
H1065 C1076 0.950 . S
H1066 C1078 0.950 . S
H1067 C1079 0.950 . S
C1068 H1060 0.950 . S
C1068 C1069 1.386 . S
C1068 C1070 1.391 . S
C1069 C1068 1.386 . S
C1069 C1073 1.393 . S
C1070 H1062 0.950 . S
C1070 C1068 1.391 . S
C1070 C1071 1.400 . S
C1071 C1070 1.400 . S
C1071 C1072 1.398 . S
C1071 C1077 1.491 . S
C1072 H1063 0.950 . S
C1072 C1071 1.398 . S
C1072 C1073 1.391 . S
C1073 H1061 0.950 . S
C1073 C1069 1.393 . S
C1073 C1072 1.391 . S
C1074 H1064 0.950 . S
C1074 C1075 1.386 . S
C1074 C1076 1.391 . S
C1075 C1074 1.386 . S
C1075 C1079 1.393 . S
C1076 H1065 0.950 . S
C1076 C1074 1.391 . S
C1076 C1077 1.400 . S
C1077 C1071 1.491 . S
C1077 C1076 1.400 . S
C1077 C1078 1.398 . S
C1078 H1066 0.950 . S
C1078 C1077 1.398 . S
C1078 C1079 1.391 . S
C1079 H1067 0.950 . S
C1079 C1075 1.393 . S
C1079 C1078 1.391 . S
H1080 C1088 0.950 . S
H1081 C1093 0.950 . S
H1082 C1090 0.950 . S
H1083 C1092 0.950 . S
H1084 C1094 0.950 . S
H1085 C1096 0.950 . S
H1086 C1098 0.950 . S
H1087 C1099 0.950 . S
C1088 H1080 0.950 . S
C1088 C1089 1.386 . S
C1088 C1090 1.391 . S
C1089 C1088 1.386 . S
C1089 C1093 1.393 . S
C1090 H1082 0.950 . S
C1090 C1088 1.391 . S
C1090 C1091 1.400 . S
C1091 C1090 1.400 . S
C1091 C1092 1.398 . S
C1091 C1097 1.491 . S
C1092 H1083 0.950 . S
C1092 C1091 1.398 . S
C1092 C1093 1.391 . S
C1093 H1081 0.950 . S
C1093 C1089 1.393 . S
C1093 C1092 1.391 . S
C1094 H1084 0.950 . S
C1094 C1095 1.386 . S
C1094 C1096 1.391 . S
C1095 C1094 1.386 . S
C1095 C1099 1.393 . S
C1096 H1085 0.950 . S
C1096 C1094 1.391 . S
C1096 C1097 1.400 . S
C1097 C1091 1.491 . S
C1097 C1096 1.400 . S
C1097 C1098 1.398 . S
C1098 H1086 0.950 . S
C1098 C1097 1.398 . S
C1098 C1099 1.391 . S
C1099 H1087 0.950 . S
C1099 C1095 1.393 . S
C1099 C1098 1.391 . S
H1100 C1108 0.950 . S
H1101 C1113 0.950 . S
H1102 C1110 0.950 . S
H1103 C1112 0.950 . S
H1104 C1114 0.950 . S
H1105 C1116 0.950 . S
H1106 C1118 0.950 . S
H1107 C1119 0.950 . S
C1108 H1100 0.950 . S
C1108 C1109 1.386 . S
C1108 C1110 1.391 . S
C1109 C1108 1.386 . S
C1109 C1113 1.393 . S
C1110 H1102 0.950 . S
C1110 C1108 1.391 . S
C1110 C1111 1.400 . S
C1111 C1110 1.400 . S
C1111 C1112 1.398 . S
C1111 C1117 1.491 . S
C1112 H1103 0.950 . S
C1112 C1111 1.398 . S
C1112 C1113 1.391 . S
C1113 H1101 0.950 . S
C1113 C1109 1.393 . S
C1113 C1112 1.391 . S
C1114 H1104 0.950 . S
C1114 C1115 1.386 . S
C1114 C1116 1.391 . S
C1115 C1114 1.386 . S
C1115 C1119 1.393 . S
C1116 H1105 0.950 . S
C1116 C1114 1.391 . S
C1116 C1117 1.400 . S
C1117 C1111 1.491 . S
C1117 C1116 1.400 . S
C1117 C1118 1.398 . S
C1118 H1106 0.950 . S
C1118 C1117 1.398 . S
C1118 C1119 1.391 . S
C1119 H1107 0.950 . S
C1119 C1115 1.393 . S
C1119 C1118 1.391 . S
H1120 C1128 0.950 . S
H1121 C1133 0.950 . S
H1122 C1130 0.950 . S
H1123 C1132 0.950 . S
H1124 C1134 0.950 . S
H1125 C1136 0.950 . S
H1126 C1138 0.950 . S
H1127 C1139 0.950 . S
C1128 H1120 0.950 . S
C1128 C1129 1.386 . S
C1128 C1130 1.391 . S
C1129 C1128 1.386 . S
C1129 C1133 1.393 . S
C1130 H1122 0.950 . S
C1130 C1128 1.391 . S
C1130 C1131 1.400 . S
C1131 C1130 1.400 . S
C1131 C1132 1.398 . S
C1131 C1137 1.491 . S
C1132 H1123 0.950 . S
C1132 C1131 1.398 . S
C1132 C1133 1.391 . S
C1133 H1121 0.950 . S
C1133 C1129 1.393 . S
C1133 C1132 1.391 . S
C1134 H1124 0.950 . S
C1134 C1135 1.386 . S
C1134 C1136 1.391 . S
C1135 C1134 1.386 . S
C1135 C1139 1.393 . S
C1136 H1125 0.950 . S
C1136 C1134 1.391 . S
C1136 C1137 1.400 . S
C1137 C1131 1.491 . S
C1137 C1136 1.400 . S
C1137 C1138 1.398 . S
C1138 H1126 0.950 . S
C1138 C1137 1.398 . S
C1138 C1139 1.391 . S
C1139 H1127 0.950 . S
C1139 C1135 1.393 . S
C1139 C1138 1.391 . S
H1140 C1148 0.950 . S
H1141 C1153 0.950 . S
H1142 C1150 0.950 . S
H1143 C1152 0.950 . S
H1144 C1154 0.950 . S
H1145 C1156 0.950 . S
H1146 C1158 0.950 . S
H1147 C1159 0.950 . S
C1148 H1140 0.950 . S
C1148 C1149 1.386 . S
C1148 C1150 1.391 . S
C1149 C1148 1.386 . S
C1149 C1153 1.393 . S
C1150 H1142 0.950 . S
C1150 C1148 1.391 . S
C1150 C1151 1.400 . S
C1151 C1150 1.400 . S
C1151 C1152 1.398 . S
C1151 C1157 1.491 . S
C1152 H1143 0.950 . S
C1152 C1151 1.398 . S
C1152 C1153 1.391 . S
C1153 H1141 0.950 . S
C1153 C1149 1.393 . S
C1153 C1152 1.391 . S
C1154 H1144 0.950 . S
C1154 C1155 1.386 . S
C1154 C1156 1.391 . S
C1155 C1154 1.386 . S
C1155 C1159 1.393 . S
C1156 H1145 0.950 . S
C1156 C1154 1.391 . S
C1156 C1157 1.400 . S
C1157 C1151 1.491 . S
C1157 C1156 1.400 . S
C1157 C1158 1.398 . S
C1158 H1146 0.950 . S
C1158 C1157 1.398 . S
C1158 C1159 1.391 . S
C1159 H1147 0.950 . S
C1159 C1155 1.393 . S
C1159 C1158 1.391 . S
H1160 C1168 0.950 . S
H1161 C1173 0.950 . S
H1162 C1170 0.950 . S
H1163 C1172 0.950 . S
H1164 C1174 0.950 . S
H1165 C1176 0.950 . S
H1166 C1178 0.950 . S
H1167 C1179 0.950 . S
C1168 H1160 0.950 . S
C1168 C1169 1.386 . S
C1168 C1170 1.391 . S
C1169 C1168 1.386 . S
C1169 C1173 1.393 . S
C1170 H1162 0.950 . S
C1170 C1168 1.391 . S
C1170 C1171 1.400 . S
C1171 C1170 1.400 . S
C1171 C1172 1.398 . S
C1171 C1177 1.491 . S
C1172 H1163 0.950 . S
C1172 C1171 1.398 . S
C1172 C1173 1.391 . S
C1173 H1161 0.950 . S
C1173 C1169 1.393 . S
C1173 C1172 1.391 . S
C1174 H1164 0.950 . S
C1174 C1175 1.386 . S
C1174 C1176 1.391 . S
C1175 C1174 1.386 . S
C1175 C1179 1.393 . S
C1176 H1165 0.950 . S
C1176 C1174 1.391 . S
C1176 C1177 1.400 . S
C1177 C1171 1.491 . S
C1177 C1176 1.400 . S
C1177 C1178 1.398 . S
C1178 H1166 0.950 . S
C1178 C1177 1.398 . S
C1178 C1179 1.391 . S
C1179 H1167 0.950 . S
C1179 C1175 1.393 . S
C1179 C1178 1.391 . S
H1180 C1188 0.950 . S
H1181 C1193 0.950 . S
H1182 C1190 0.950 . S
H1183 C1192 0.950 . S
H1184 C1194 0.950 . S
H1185 C1196 0.950 . S
H1186 C1198 0.950 . S
H1187 C1199 0.950 . S
C1188 H1180 0.950 . S
C1188 C1189 1.386 . S
C1188 C1190 1.391 . S
C1189 C1188 1.386 . S
C1189 C1193 1.393 . S
C1190 H1182 0.950 . S
C1190 C1188 1.391 . S
C1190 C1191 1.400 . S
C1191 C1190 1.400 . S
C1191 C1192 1.398 . S
C1191 C1197 1.491 . S
C1192 H1183 0.950 . S
C1192 C1191 1.398 . S
C1192 C1193 1.391 . S
C1193 H1181 0.950 . S
C1193 C1189 1.393 . S
C1193 C1192 1.391 . S
C1194 H1184 0.950 . S
C1194 C1195 1.386 . S
C1194 C1196 1.391 . S
C1195 C1194 1.386 . S
C1195 C1199 1.393 . S
C1196 H1185 0.950 . S
C1196 C1194 1.391 . S
C1196 C1197 1.400 . S
C1197 C1191 1.491 . S
C1197 C1196 1.400 . S
C1197 C1198 1.398 . S
C1198 H1186 0.950 . S
C1198 C1197 1.398 . S
C1198 C1199 1.391 . S
C1199 H1187 0.950 . S
C1199 C1195 1.393 . S
C1199 C1198 1.391 . S
H1200 C1208 0.950 . S
H1201 C1213 0.950 . S
H1202 C1210 0.950 . S
H1203 C1212 0.950 . S
H1204 C1214 0.950 . S
H1205 C1216 0.950 . S
H1206 C1218 0.950 . S
H1207 C1219 0.950 . S
C1208 H1200 0.950 . S
C1208 C1209 1.386 . S
C1208 C1210 1.391 . S
C1209 C1208 1.386 . S
C1209 C1213 1.393 . S
C1210 H1202 0.950 . S
C1210 C1208 1.391 . S
C1210 C1211 1.400 . S
C1211 C1210 1.400 . S
C1211 C1212 1.398 . S
C1211 C1217 1.491 . S
C1212 H1203 0.950 . S
C1212 C1211 1.398 . S
C1212 C1213 1.391 . S
C1213 H1201 0.950 . S
C1213 C1209 1.393 . S
C1213 C1212 1.391 . S
C1214 H1204 0.950 . S
C1214 C1215 1.386 . S
C1214 C1216 1.391 . S
C1215 C1214 1.386 . S
C1215 C1219 1.393 . S
C1216 H1205 0.950 . S
C1216 C1214 1.391 . S
C1216 C1217 1.400 . S
C1217 C1211 1.491 . S
C1217 C1216 1.400 . S
C1217 C1218 1.398 . S
C1218 H1206 0.950 . S
C1218 C1217 1.398 . S
C1218 C1219 1.391 . S
C1219 H1207 0.950 . S
C1219 C1215 1.393 . S
C1219 C1218 1.391 . S
H1220 C1228 0.950 . S
H1221 C1233 0.950 . S
H1222 C1230 0.950 . S
H1223 C1232 0.950 . S
H1224 C1234 0.950 . S
H1225 C1236 0.950 . S
H1226 C1238 0.950 . S
H1227 C1239 0.950 . S
C1228 H1220 0.950 . S
C1228 C1229 1.386 . S
C1228 C1230 1.391 . S
C1229 C1228 1.386 . S
C1229 C1233 1.393 . S
C1230 H1222 0.950 . S
C1230 C1228 1.391 . S
C1230 C1231 1.400 . S
C1231 C1230 1.400 . S
C1231 C1232 1.398 . S
C1231 C1237 1.491 . S
C1232 H1223 0.950 . S
C1232 C1231 1.398 . S
C1232 C1233 1.391 . S
C1233 H1221 0.950 . S
C1233 C1229 1.393 . S
C1233 C1232 1.391 . S
C1234 H1224 0.950 . S
C1234 C1235 1.386 . S
C1234 C1236 1.391 . S
C1235 C1234 1.386 . S
C1235 C1239 1.393 . S
C1236 H1225 0.950 . S
C1236 C1234 1.391 . S
C1236 C1237 1.400 . S
C1237 C1231 1.491 . S
C1237 C1236 1.400 . S
C1237 C1238 1.398 . S
C1238 H1226 0.950 . S
C1238 C1237 1.398 . S
C1238 C1239 1.391 . S
C1239 H1227 0.950 . S
C1239 C1235 1.393 . S
C1239 C1238 1.391 . S
H1240 C1248 0.950 . S
H1241 C1253 0.950 . S
H1242 C1250 0.950 . S
H1243 C1252 0.950 . S
H1244 C1254 0.950 . S
H1245 C1256 0.950 . S
H1246 C1258 0.950 . S
H1247 C1259 0.950 . S
C1248 H1240 0.950 . S
C1248 C1249 1.386 . S
C1248 C1250 1.391 . S
C1249 C1248 1.386 . S
C1249 C1253 1.393 . S
C1250 H1242 0.950 . S
C1250 C1248 1.391 . S
C1250 C1251 1.400 . S
C1251 C1250 1.400 . S
C1251 C1252 1.398 . S
C1251 C1257 1.491 . S
C1252 H1243 0.950 . S
C1252 C1251 1.398 . S
C1252 C1253 1.391 . S
C1253 H1241 0.950 . S
C1253 C1249 1.393 . S
C1253 C1252 1.391 . S
C1254 H1244 0.950 . S
C1254 C1255 1.386 . S
C1254 C1256 1.391 . S
C1255 C1254 1.386 . S
C1255 C1259 1.393 . S
C1256 H1245 0.950 . S
C1256 C1254 1.391 . S
C1256 C1257 1.400 . S
C1257 C1251 1.491 . S
C1257 C1256 1.400 . S
C1257 C1258 1.398 . S
C1258 H1246 0.950 . S
C1258 C1257 1.398 . S
C1258 C1259 1.391 . S
C1259 H1247 0.950 . S
C1259 C1255 1.393 . S
C1259 C1258 1.391 . S
H1260 C1268 0.950 . S
H1261 C1273 0.950 . S
H1262 C1270 0.950 . S
H1263 C1272 0.950 . S
H1264 C1274 0.950 . S
H1265 C1276 0.950 . S
H1266 C1278 0.950 . S
H1267 C1279 0.950 . S
C1268 H1260 0.950 . S
C1268 C1269 1.386 . S
C1268 C1270 1.391 . S
C1269 C1268 1.386 . S
C1269 C1273 1.393 . S
C1270 H1262 0.950 . S
C1270 C1268 1.391 . S
C1270 C1271 1.400 . S
C1271 C1270 1.400 . S
C1271 C1272 1.398 . S
C1271 C1277 1.491 . S
C1272 H1263 0.950 . S
C1272 C1271 1.398 . S
C1272 C1273 1.391 . S
C1273 H1261 0.950 . S
C1273 C1269 1.393 . S
C1273 C1272 1.391 . S
C1274 H1264 0.950 . S
C1274 C1275 1.386 . S
C1274 C1276 1.391 . S
C1275 C1274 1.386 . S
C1275 C1279 1.393 . S
C1276 H1265 0.950 . S
C1276 C1274 1.391 . S
C1276 C1277 1.400 . S
C1277 C1271 1.491 . S
C1277 C1276 1.400 . S
C1277 C1278 1.398 . S
C1278 H1266 0.950 . S
C1278 C1277 1.398 . S
C1278 C1279 1.391 . S
C1279 H1267 0.950 . S
C1279 C1275 1.393 . S
C1279 C1278 1.391 . S
H1280 C1288 0.950 . S
H1281 C1293 0.950 . S
H1282 C1290 0.950 . S
H1283 C1292 0.950 . S
H1284 C1294 0.950 . S
H1285 C1296 0.950 . S
H1286 C1298 0.950 . S
H1287 C1299 0.950 . S
C1288 H1280 0.950 . S
C1288 C1289 1.386 . S
C1288 C1290 1.391 . S
C1289 C1288 1.386 . S
C1289 C1293 1.393 . S
C1290 H1282 0.950 . S
C1290 C1288 1.391 . S
C1290 C1291 1.400 . S
C1291 C1290 1.400 . S
C1291 C1292 1.398 . S
C1291 C1297 1.491 . S
C1292 H1283 0.950 . S
C1292 C1291 1.398 . S
C1292 C1293 1.391 . S
C1293 H1281 0.950 . S
C1293 C1289 1.393 . S
C1293 C1292 1.391 . S
C1294 H1284 0.950 . S
C1294 C1295 1.386 . S
C1294 C1296 1.391 . S
C1295 C1294 1.386 . S
C1295 C1299 1.393 . S
C1296 H1285 0.950 . S
C1296 C1294 1.391 . S
C1296 C1297 1.400 . S
C1297 C1291 1.491 . S
C1297 C1296 1.400 . S
C1297 C1298 1.398 . S
C1298 H1286 0.950 . S
C1298 C1297 1.398 . S
C1298 C1299 1.391 . S
C1299 H1287 0.950 . S
C1299 C1295 1.393 . S
C1299 C1298 1.391 . S
H1300 C1308 0.950 . S
H1301 C1313 0.950 . S
H1302 C1310 0.950 . S
H1303 C1312 0.950 . S
H1304 C1314 0.950 . S
H1305 C1316 0.950 . S
H1306 C1318 0.950 . S
H1307 C1319 0.950 . S
C1308 H1300 0.950 . S
C1308 C1309 1.386 . S
C1308 C1310 1.391 . S
C1309 C1308 1.386 . S
C1309 C1313 1.393 . S
C1310 H1302 0.950 . S
C1310 C1308 1.391 . S
C1310 C1311 1.400 . S
C1311 C1310 1.400 . S
C1311 C1312 1.398 . S
C1311 C1317 1.491 . S
C1312 H1303 0.950 . S
C1312 C1311 1.398 . S
C1312 C1313 1.391 . S
C1313 H1301 0.950 . S
C1313 C1309 1.393 . S
C1313 C1312 1.391 . S
C1314 H1304 0.950 . S
C1314 C1315 1.386 . S
C1314 C1316 1.391 . S
C1315 C1314 1.386 . S
C1315 C1319 1.393 . S
C1316 H1305 0.950 . S
C1316 C1314 1.391 . S
C1316 C1317 1.400 . S
C1317 C1311 1.491 . S
C1317 C1316 1.400 . S
C1317 C1318 1.398 . S
C1318 H1306 0.950 . S
C1318 C1317 1.398 . S
C1318 C1319 1.391 . S
C1319 H1307 0.950 . S
C1319 C1315 1.393 . S
C1319 C1318 1.391 . S
H1320 C1328 0.950 . S
H1321 C1333 0.950 . S
H1322 C1330 0.950 . S
H1323 C1332 0.950 . S
H1324 C1334 0.950 . S
H1325 C1336 0.950 . S
H1326 C1338 0.950 . S
H1327 C1339 0.950 . S
C1328 H1320 0.950 . S
C1328 C1329 1.386 . S
C1328 C1330 1.391 . S
C1329 C1328 1.386 . S
C1329 C1333 1.393 . S
C1330 H1322 0.950 . S
C1330 C1328 1.391 . S
C1330 C1331 1.400 . S
C1331 C1330 1.400 . S
C1331 C1332 1.398 . S
C1331 C1337 1.491 . S
C1332 H1323 0.950 . S
C1332 C1331 1.398 . S
C1332 C1333 1.391 . S
C1333 H1321 0.950 . S
C1333 C1329 1.393 . S
C1333 C1332 1.391 . S
C1334 H1324 0.950 . S
C1334 C1335 1.386 . S
C1334 C1336 1.391 . S
C1335 C1334 1.386 . S
C1335 C1339 1.393 . S
C1336 H1325 0.950 . S
C1336 C1334 1.391 . S
C1336 C1337 1.400 . S
C1337 C1331 1.491 . S
C1337 C1336 1.400 . S
C1337 C1338 1.398 . S
C1338 H1326 0.950 . S
C1338 C1337 1.398 . S
C1338 C1339 1.391 . S
C1339 H1327 0.950 . S
C1339 C1335 1.393 . S
C1339 C1338 1.391 . S
H1340 C1348 0.950 . S
H1341 C1353 0.950 . S
H1342 C1350 0.950 . S
H1343 C1352 0.950 . S
H1344 C1354 0.950 . S
H1345 C1356 0.950 . S
H1346 C1358 0.950 . S
H1347 C1359 0.950 . S
C1348 H1340 0.950 . S
C1348 C1349 1.386 . S
C1348 C1350 1.391 . S
C1349 C1348 1.386 . S
C1349 C1353 1.393 . S
C1350 H1342 0.950 . S
C1350 C1348 1.391 . S
C1350 C1351 1.400 . S
C1351 C1350 1.400 . S
C1351 C1352 1.398 . S
C1351 C1357 1.491 . S
C1352 H1343 0.950 . S
C1352 C1351 1.398 . S
C1352 C1353 1.391 . S
C1353 H1341 0.950 . S
C1353 C1349 1.393 . S
C1353 C1352 1.391 . S
C1354 H1344 0.950 . S
C1354 C1355 1.386 . S
C1354 C1356 1.391 . S
C1355 C1354 1.386 . S
C1355 C1359 1.393 . S
C1356 H1345 0.950 . S
C1356 C1354 1.391 . S
C1356 C1357 1.400 . S
C1357 C1351 1.491 . S
C1357 C1356 1.400 . S
C1357 C1358 1.398 . S
C1358 H1346 0.950 . S
C1358 C1357 1.398 . S
C1358 C1359 1.391 . S
C1359 H1347 0.950 . S
C1359 C1355 1.393 . S
C1359 C1358 1.391 . S
H1360 C1368 0.950 . S
H1361 C1373 0.950 . S
H1362 C1370 0.950 . S
H1363 C1372 0.950 . S
H1364 C1374 0.950 . S
H1365 C1376 0.950 . S
H1366 C1378 0.950 . S
H1367 C1379 0.950 . S
C1368 H1360 0.950 . S
C1368 C1369 1.386 . S
C1368 C1370 1.391 . S
C1369 C1368 1.386 . S
C1369 C1373 1.393 . S
C1370 H1362 0.950 . S
C1370 C1368 1.391 . S
C1370 C1371 1.400 . S
C1371 C1370 1.400 . S
C1371 C1372 1.398 . S
C1371 C1377 1.491 . S
C1372 H1363 0.950 . S
C1372 C1371 1.398 . S
C1372 C1373 1.391 . S
C1373 H1361 0.950 . S
C1373 C1369 1.393 . S
C1373 C1372 1.391 . S
C1374 H1364 0.950 . S
C1374 C1375 1.386 . S
C1374 C1376 1.391 . S
C1375 C1374 1.386 . S
C1375 C1379 1.393 . S
C1376 H1365 0.950 . S
C1376 C1374 1.391 . S
C1376 C1377 1.400 . S
C1377 C1371 1.491 . S
C1377 C1376 1.400 . S
C1377 C1378 1.398 . S
C1378 H1366 0.950 . S
C1378 C1377 1.398 . S
C1378 C1379 1.391 . S
C1379 H1367 0.950 . S
C1379 C1375 1.393 . S
C1379 C1378 1.391 . S
H1380 C1388 0.950 . S
H1381 C1393 0.950 . S
H1382 C1390 0.950 . S
H1383 C1392 0.950 . S
H1384 C1394 0.950 . S
H1385 C1396 0.950 . S
H1386 C1398 0.950 . S
H1387 C1399 0.950 . S
C1388 H1380 0.950 . S
C1388 C1389 1.386 . S
C1388 C1390 1.391 . S
C1389 C1388 1.386 . S
C1389 C1393 1.393 . S
C1390 H1382 0.950 . S
C1390 C1388 1.391 . S
C1390 C1391 1.400 . S
C1391 C1390 1.400 . S
C1391 C1392 1.398 . S
C1391 C1397 1.491 . S
C1392 H1383 0.950 . S
C1392 C1391 1.398 . S
C1392 C1393 1.391 . S
C1393 H1381 0.950 . S
C1393 C1389 1.393 . S
C1393 C1392 1.391 . S
C1394 H1384 0.950 . S
C1394 C1395 1.386 . S
C1394 C1396 1.391 . S
C1395 C1394 1.386 . S
C1395 C1399 1.393 . S
C1396 H1385 0.950 . S
C1396 C1394 1.391 . S
C1396 C1397 1.400 . S
C1397 C1391 1.491 . S
C1397 C1396 1.400 . S
C1397 C1398 1.398 . S
C1398 H1386 0.950 . S
C1398 C1397 1.398 . S
C1398 C1399 1.391 . S
C1399 H1387 0.950 . S
C1399 C1395 1.393 . S
C1399 C1398 1.391 . S
H1400 C1408 0.950 . S
H1401 C1413 0.950 . S
H1402 C1410 0.950 . S
H1403 C1412 0.950 . S
H1404 C1414 0.950 . S
H1405 C1416 0.950 . S
H1406 C1418 0.950 . S
H1407 C1419 0.950 . S
C1408 H1400 0.950 . S
C1408 C1409 1.386 . S
C1408 C1410 1.391 . S
C1409 C1408 1.386 . S
C1409 C1413 1.393 . S
C1410 H1402 0.950 . S
C1410 C1408 1.391 . S
C1410 C1411 1.400 . S
C1411 C1410 1.400 . S
C1411 C1412 1.398 . S
C1411 C1417 1.491 . S
C1412 H1403 0.950 . S
C1412 C1411 1.398 . S
C1412 C1413 1.391 . S
C1413 H1401 0.950 . S
C1413 C1409 1.393 . S
C1413 C1412 1.391 . S
C1414 H1404 0.950 . S
C1414 C1415 1.386 . S
C1414 C1416 1.391 . S
C1415 C1414 1.386 . S
C1415 C1419 1.393 . S
C1416 H1405 0.950 . S
C1416 C1414 1.391 . S
C1416 C1417 1.400 . S
C1417 C1411 1.491 . S
C1417 C1416 1.400 . S
C1417 C1418 1.398 . S
C1418 H1406 0.950 . S
C1418 C1417 1.398 . S
C1418 C1419 1.391 . S
C1419 H1407 0.950 . S
C1419 C1415 1.393 . S
C1419 C1418 1.391 . S
H1420 C1428 0.950 . S
H1421 C1433 0.950 . S
H1422 C1430 0.950 . S
H1423 C1432 0.950 . S
H1424 C1434 0.950 . S
H1425 C1436 0.950 . S
H1426 C1438 0.950 . S
H1427 C1439 0.950 . S
C1428 H1420 0.950 . S
C1428 C1429 1.386 . S
C1428 C1430 1.391 . S
C1429 C1428 1.386 . S
C1429 C1433 1.393 . S
C1430 H1422 0.950 . S
C1430 C1428 1.391 . S
C1430 C1431 1.400 . S
C1431 C1430 1.400 . S
C1431 C1432 1.398 . S
C1431 C1437 1.491 . S
C1432 H1423 0.950 . S
C1432 C1431 1.398 . S
C1432 C1433 1.391 . S
C1433 H1421 0.950 . S
C1433 C1429 1.393 . S
C1433 C1432 1.391 . S
C1434 H1424 0.950 . S
C1434 C1435 1.386 . S
C1434 C1436 1.391 . S
C1435 C1434 1.386 . S
C1435 C1439 1.393 . S
C1436 H1425 0.950 . S
C1436 C1434 1.391 . S
C1436 C1437 1.400 . S
C1437 C1431 1.491 . S
C1437 C1436 1.400 . S
C1437 C1438 1.398 . S
C1438 H1426 0.950 . S
C1438 C1437 1.398 . S
C1438 C1439 1.391 . S
C1439 H1427 0.950 . S
C1439 C1435 1.393 . S
C1439 C1438 1.391 . S
H1440 C1448 0.950 . S
H1441 C1453 0.950 . S
H1442 C1450 0.950 . S
H1443 C1452 0.950 . S
H1444 C1454 0.950 . S
H1445 C1456 0.950 . S
H1446 C1458 0.950 . S
H1447 C1459 0.950 . S
C1448 H1440 0.950 . S
C1448 C1449 1.386 . S
C1448 C1450 1.391 . S
C1449 C1448 1.386 . S
C1449 C1453 1.393 . S
C1450 H1442 0.950 . S
C1450 C1448 1.391 . S
C1450 C1451 1.400 . S
C1451 C1450 1.400 . S
C1451 C1452 1.398 . S
C1451 C1457 1.491 . S
C1452 H1443 0.950 . S
C1452 C1451 1.398 . S
C1452 C1453 1.391 . S
C1453 H1441 0.950 . S
C1453 C1449 1.393 . S
C1453 C1452 1.391 . S
C1454 H1444 0.950 . S
C1454 C1455 1.386 . S
C1454 C1456 1.391 . S
C1455 C1454 1.386 . S
C1455 C1459 1.393 . S
C1456 H1445 0.950 . S
C1456 C1454 1.391 . S
C1456 C1457 1.400 . S
C1457 C1451 1.491 . S
C1457 C1456 1.400 . S
C1457 C1458 1.398 . S
C1458 H1446 0.950 . S
C1458 C1457 1.398 . S
C1458 C1459 1.391 . S
C1459 H1447 0.950 . S
C1459 C1455 1.393 . S
C1459 C1458 1.391 . S
H1460 C1468 0.950 . S
H1461 C1473 0.950 . S
H1462 C1470 0.950 . S
H1463 C1472 0.950 . S
H1464 C1474 0.950 . S
H1465 C1476 0.950 . S
H1466 C1478 0.950 . S
H1467 C1479 0.950 . S
C1468 H1460 0.950 . S
C1468 C1469 1.386 . S
C1468 C1470 1.391 . S
C1469 C1468 1.386 . S
C1469 C1473 1.393 . S
C1470 H1462 0.950 . S
C1470 C1468 1.391 . S
C1470 C1471 1.400 . S
C1471 C1470 1.400 . S
C1471 C1472 1.398 . S
C1471 C1477 1.491 . S
C1472 H1463 0.950 . S
C1472 C1471 1.398 . S
C1472 C1473 1.391 . S
C1473 H1461 0.950 . S
C1473 C1469 1.393 . S
C1473 C1472 1.391 . S
C1474 H1464 0.950 . S
C1474 C1475 1.386 . S
C1474 C1476 1.391 . S
C1475 C1474 1.386 . S
C1475 C1479 1.393 . S
C1476 H1465 0.950 . S
C1476 C1474 1.391 . S
C1476 C1477 1.400 . S
C1477 C1471 1.491 . S
C1477 C1476 1.400 . S
C1477 C1478 1.398 . S
C1478 H1466 0.950 . S
C1478 C1477 1.398 . S
C1478 C1479 1.391 . S
C1479 H1467 0.950 . S
C1479 C1475 1.393 . S
C1479 C1478 1.391 . S
H1480 C1488 0.950 . S
H1481 C1493 0.950 . S
H1482 C1490 0.950 . S
H1483 C1492 0.950 . S
H1484 C1494 0.950 . S
H1485 C1496 0.950 . S
H1486 C1498 0.950 . S
H1487 C1499 0.950 . S
C1488 H1480 0.950 . S
C1488 C1489 1.386 . S
C1488 C1490 1.391 . S
C1489 C1488 1.386 . S
C1489 C1493 1.393 . S
C1490 H1482 0.950 . S
C1490 C1488 1.391 . S
C1490 C1491 1.400 . S
C1491 C1490 1.400 . S
C1491 C1492 1.398 . S
C1491 C1497 1.491 . S
C1492 H1483 0.950 . S
C1492 C1491 1.398 . S
C1492 C1493 1.391 . S
C1493 H1481 0.950 . S
C1493 C1489 1.393 . S
C1493 C1492 1.391 . S
C1494 H1484 0.950 . S
C1494 C1495 1.386 . S
C1494 C1496 1.391 . S
C1495 C1494 1.386 . S
C1495 C1499 1.393 . S
C1496 H1485 0.950 . S
C1496 C1494 1.391 . S
C1496 C1497 1.400 . S
C1497 C1491 1.491 . S
C1497 C1496 1.400 . S
C1497 C1498 1.398 . S
C1498 H1486 0.950 . S
C1498 C1497 1.398 . S
C1498 C1499 1.391 . S
C1499 H1487 0.950 . S
C1499 C1495 1.393 . S
C1499 C1498 1.391 . S
H1500 C1508 0.950 . S
H1501 C1513 0.950 . S
H1502 C1510 0.950 . S
H1503 C1512 0.950 . S
H1504 C1514 0.950 1_554 S
H1505 C1516 0.950 . S
H1506 C1518 0.950 . S
H1507 C1519 0.950 . S
C1508 H1500 0.950 . S
C1508 C1509 1.386 . S
C1508 C1510 1.391 . S
C1509 C1508 1.386 . S
C1509 C1513 1.393 . S
C1510 H1502 0.950 . S
C1510 C1508 1.391 . S
C1510 C1511 1.400 . S
C1511 C1510 1.400 . S
C1511 C1512 1.398 . S
C1511 C1517 1.491 . S
C1512 H1503 0.950 . S
C1512 C1511 1.398 . S
C1512 C1513 1.391 . S
C1513 H1501 0.950 . S
C1513 C1509 1.393 . S
C1513 C1512 1.391 . S
C1514 H1504 0.950 1_556 S
C1514 C1515 1.386 . S
C1514 C1516 1.391 . S
C1515 C1514 1.386 . S
C1515 C1519 1.393 . S
C1516 H1505 0.950 . S
C1516 C1514 1.391 . S
C1516 C1517 1.400 . S
C1517 C1511 1.491 . S
C1517 C1516 1.400 . S
C1517 C1518 1.398 . S
C1518 H1506 0.950 . S
C1518 C1517 1.398 . S
C1518 C1519 1.391 . S
C1519 H1507 0.950 . S
C1519 C1515 1.393 . S
C1519 C1518 1.391 . S
H1520 C1528 0.950 . S
H1521 C1533 0.950 . S
H1522 C1530 0.950 . S
H1523 C1532 0.950 . S
H1524 C1534 0.950 . S
H1525 C1536 0.950 . S
H1526 C1538 0.950 . S
H1527 C1539 0.950 . S
C1528 H1520 0.950 . S
C1528 C1529 1.386 . S
C1528 C1530 1.391 . S
C1529 C1528 1.386 . S
C1529 C1533 1.393 . S
C1530 H1522 0.950 . S
C1530 C1528 1.391 . S
C1530 C1531 1.400 . S
C1531 C1530 1.400 . S
C1531 C1532 1.398 . S
C1531 C1537 1.491 . S
C1532 H1523 0.950 . S
C1532 C1531 1.398 . S
C1532 C1533 1.391 . S
C1533 H1521 0.950 . S
C1533 C1529 1.393 . S
C1533 C1532 1.391 . S
C1534 H1524 0.950 . S
C1534 C1535 1.386 . S
C1534 C1536 1.391 . S
C1535 C1534 1.386 . S
C1535 C1539 1.393 . S
C1536 H1525 0.950 . S
C1536 C1534 1.391 . S
C1536 C1537 1.400 . S
C1537 C1531 1.491 . S
C1537 C1536 1.400 . S
C1537 C1538 1.398 . S
C1538 H1526 0.950 . S
C1538 C1537 1.398 . S
C1538 C1539 1.391 . S
C1539 H1527 0.950 . S
C1539 C1535 1.393 . S
C1539 C1538 1.391 . S
H1540 C1548 0.950 . S
H1541 C1553 0.950 . S
H1542 C1550 0.950 . S
H1543 C1552 0.950 . S
H1544 C1554 0.950 . S
H1545 C1556 0.950 . S
H1546 C1558 0.950 . S
H1547 C1559 0.950 . S
C1548 H1540 0.950 . S
C1548 C1549 1.386 . S
C1548 C1550 1.391 . S
C1549 C1548 1.386 . S
C1549 C1553 1.393 . S
C1550 H1542 0.950 . S
C1550 C1548 1.391 . S
C1550 C1551 1.400 . S
C1551 C1550 1.400 . S
C1551 C1552 1.398 . S
C1551 C1557 1.491 . S
C1552 H1543 0.950 . S
C1552 C1551 1.398 . S
C1552 C1553 1.391 . S
C1553 H1541 0.950 . S
C1553 C1549 1.393 . S
C1553 C1552 1.391 . S
C1554 H1544 0.950 . S
C1554 C1555 1.386 . S
C1554 C1556 1.391 . S
C1555 C1554 1.386 . S
C1555 C1559 1.393 . S
C1556 H1545 0.950 . S
C1556 C1554 1.391 . S
C1556 C1557 1.400 . S
C1557 C1551 1.491 . S
C1557 C1556 1.400 . S
C1557 C1558 1.398 . S
C1558 H1546 0.950 . S
C1558 C1557 1.398 . S
C1558 C1559 1.391 . S
C1559 H1547 0.950 . S
C1559 C1555 1.393 . S
C1559 C1558 1.391 . S
C935 C525 1.595 . S
C929 C47 1.495 . S
C955 C578 1.333 . S
C949 C115 1.311 . S
C975 C641 1.586 . S
C969 C153 1.474 . S
C995 C684 1.439 . S
C989 C233 1.332 . S
C1009 C283 1.511 . S
C1015 C640 1.552 . S
C1035 C677 1.430 . S
C1029 C357 1.341 . S
C1055 C518 1.629 . S
C1049 C401 1.493 . S
C1075 C571 1.334 . S
C1069 C463 1.223 . S
C1095 C624 1.432 . S
C1089 C469 1.386 . S
C1115 C693 1.810 . S
C1109 C277 1.694 . S
C1135 C534 1.575 . S
C1129 C363 1.551 . S
C1155 C587 1.616 . S
C1149 C407 1.587 . S
C1175 C535 1.566 . S
C1169 C109 1.441 . S
C1195 C588 1.686 . S
C1189 C159 1.641 . S
C1215 C631 1.408 . S
C1209 C239 1.375 . S
C1235 C694 1.730 . S
C1229 C53 1.710 . S
C1255 C737 1.572 . S
C1249 C481 1.439 . S
C1269 C301 1.646 . S
C1275 C790 1.694 . S
C1289 C339 1.493 . S
C1295 C852 1.606 . S
C1309 C419 1.719 . S
C1315 C906 1.842 . S
C1329 C97 1.494 . S
C1335 C853 1.523 . S
C1349 C171 1.756 . S
C1355 C905 1.861 . S
C1369 C215 1.508 . S
C1375 C730 1.642 . S
C1395 C783 1.727 . S
C1389 C29 1.575 . S
C1415 C843 1.403 . S
C1409 C35 1.364 . S
C1429 C91 1.240 . S
C1435 C889 1.356 . S
C1449 C177 1.597 . S
C1455 C746 1.613 . S
C1469 C221 1.226 . S
C1475 C799 1.254 . S
C1495 C747 1.551 . S
C1489 C295 1.435 . S
C1515 C800 1.311 . S
C1509 C345 1.286 . S
C1529 C425 1.376 . S
C1535 C836 1.419 . S
C1555 C896 1.298 . S
C1549 C487 1.273 . S
