# Generated by pormake.
# Topology pyr, (3,6)-cn, num edge types: 1
# Building blocks:
#     Node 0, Type 0, BuildingBlock: VETTIZ_charged_linker_0, # of connection points: 3
#     Node 1, Type 0, BuildingBlock: VETTIZ_charged_linker_0, # of connection points: 3
#     Node 2, Type 0, BuildingBlock: VETTIZ_charged_linker_0, # of connection points: 3
#     Node 3, Type 0, BuildingBlock: VETTIZ_charged_linker_0, # of connection points: 3
#     Node 4, Type 0, BuildingBlock: VETTIZ_charged_linker_0, # of connection points: 3
#     Node 5, Type 0, BuildingBlock: VETTIZ_charged_linker_0, # of connection points: 3
#     Node 6, Type 0, BuildingBlock: VETTIZ_charged_linker_0, # of connection points: 3
#     Node 7, Type 0, BuildingBlock: VETTIZ_charged_linker_0, # of connection points: 3
#     Node 8, Type 1, BuildingBlock: BETDEL_clean_sbu_0, # of connection points: 6
#     Node 9, Type 1, BuildingBlock: BETDEL_clean_sbu_0, # of connection points: 6
#     Node 10, Type 1, BuildingBlock: BETDEL_clean_sbu_0, # of connection points: 6
#     Node 11, Type 1, BuildingBlock: BETDEL_clean_sbu_0, # of connection points: 6
#     Edge 12, Type (0, 1), BuildingBlock: EZIPEK_clean_linker_0, # of connection points: 2
#     Edge 13, Type (0, 1), BuildingBlock: EZIPEK_clean_linker_0, # of connection points: 2
#     Edge 14, Type (0, 1), BuildingBlock: EZIPEK_clean_linker_0, # of connection points: 2
#     Edge 15, Type (0, 1), BuildingBlock: EZIPEK_clean_linker_0, # of connection points: 2
#     Edge 16, Type (0, 1), BuildingBlock: EZIPEK_clean_linker_0, # of connection points: 2
#     Edge 17, Type (0, 1), BuildingBlock: EZIPEK_clean_linker_0, # of connection points: 2
#     Edge 18, Type (0, 1), BuildingBlock: EZIPEK_clean_linker_0, # of connection points: 2
#     Edge 19, Type (0, 1), BuildingBlock: EZIPEK_clean_linker_0, # of connection points: 2
#     Edge 20, Type (0, 1), BuildingBlock: EZIPEK_clean_linker_0, # of connection points: 2
#     Edge 21, Type (0, 1), BuildingBlock: EZIPEK_clean_linker_0, # of connection points: 2
#     Edge 22, Type (0, 1), BuildingBlock: EZIPEK_clean_linker_0, # of connection points: 2
#     Edge 23, Type (0, 1), BuildingBlock: EZIPEK_clean_linker_0, # of connection points: 2
#     Edge 24, Type (0, 1), BuildingBlock: EZIPEK_clean_linker_0, # of connection points: 2
#     Edge 25, Type (0, 1), BuildingBlock: EZIPEK_clean_linker_0, # of connection points: 2
#     Edge 26, Type (0, 1), BuildingBlock: EZIPEK_clean_linker_0, # of connection points: 2
#     Edge 27, Type (0, 1), BuildingBlock: EZIPEK_clean_linker_0, # of connection points: 2
#     Edge 28, Type (0, 1), BuildingBlock: EZIPEK_clean_linker_0, # of connection points: 2
#     Edge 29, Type (0, 1), BuildingBlock: EZIPEK_clean_linker_0, # of connection points: 2
#     Edge 30, Type (0, 1), BuildingBlock: EZIPEK_clean_linker_0, # of connection points: 2
#     Edge 31, Type (0, 1), BuildingBlock: EZIPEK_clean_linker_0, # of connection points: 2
#     Edge 32, Type (0, 1), BuildingBlock: EZIPEK_clean_linker_0, # of connection points: 2
#     Edge 33, Type (0, 1), BuildingBlock: EZIPEK_clean_linker_0, # of connection points: 2
#     Edge 34, Type (0, 1), BuildingBlock: EZIPEK_clean_linker_0, # of connection points: 2
#     Edge 35, Type (0, 1), BuildingBlock: EZIPEK_clean_linker_0, # of connection points: 2
# Relax obj value: 0.033
# Max RMSD: 0.093
# Mean RMSD: 0.040
data_MOF--net-pyr--node1-BETDEL_clean_sbu_0--node2-VETTIZ_charged_linker_0--edge1-EZIPEK_clean_linker_0
_symmetry_space_group_name_H-M    P1
_symmetry_Int_Tables_number       1
_symmetry_cell_setting            triclinic
loop_
_symmetry_equiv_pos_as_xyz
'x, y, z'
_cell_length_a     34.852414
_cell_length_b     36.351545
_cell_length_c     33.82028
_cell_angle_alpha  91.437348
_cell_angle_beta   89.136462
_cell_angle_gamma 95.388918
loop_
_atom_site_label
_atom_site_type_symbol
_atom_site_fract_x
_atom_site_fract_y
_atom_site_fract_z
_atom_type_partial_charge
C0 C 0.11603 0.1143 0.25089 0.0
C1 C 0.07844 0.1241 0.25714 0.0
C2 C 0.06395 0.15067 0.23349 0.0
C3 C 0.12615 0.16061 0.20075 0.0
C4 C 0.13933 0.13274 0.22237 0.0
C5 C 0.1802 0.12602 0.21179 0.0
H6 H 0.33884 0.17007 0.09917 0.0
C7 C 0.15842 0.17627 0.17605 0.0
C8 C 0.19005 0.15607 0.18196 0.0
H9 H 0.31411 0.07563 0.1733 0.0
H10 H 0.25515 0.0996 0.19657 0.0
H11 H 0.30311 0.23326 0.16257 0.0
H12 H 0.2587 0.16654 0.06321 0.0
H13 H 0.24376 0.21111 0.0589 0.0
H14 H 0.29442 0.20506 0.05759 0.0
H15 H 0.3183 0.24273 0.1126 0.0
H16 H 0.27581 0.26062 0.13387 0.0
C17 C 0.20497 0.13236 0.24939 0.0
C18 C 0.18009 0.08664 0.19286 0.0
C19 C 0.14122 0.28989 0.0985 0.0
C20 C 0.16592 0.31263 0.07478 0.0
C21 C 0.20414 0.30445 0.068 0.0
C22 C 0.21762 0.27346 0.08529 0.0
C23 C 0.1924 0.25081 0.10931 0.0
C24 C 0.15495 0.25939 0.11547 0.0
C25 C 0.13219 0.23323 0.1423 0.0
C26 C 0.16208 0.20725 0.15141 0.0
C27 C 0.19724 0.21751 0.13212 0.0
C28 C 0.12039 0.25554 0.17954 0.0
C29 C 0.09796 0.21359 0.11869 0.0
C30 C 0.32107 0.15531 0.12127 0.0
C31 C 0.3306 0.12113 0.13461 0.0
C32 C 0.30695 0.10205 0.16287 0.0
C33 C 0.27262 0.11575 0.17582 0.0
C34 C 0.26176 0.14846 0.15979 0.0
C35 C 0.28619 0.16814 0.13365 0.0
C36 C 0.26856 0.20078 0.11751 0.0
C37 C 0.22902 0.19648 0.13703 0.0
C38 C 0.22541 0.16603 0.162 0.0
C39 C 0.29265 0.23637 0.13201 0.0
C40 C 0.26633 0.19603 0.07189 0.0
H41 H 0.07562 0.19001 0.18892 0.0
H42 H 0.12724 0.09338 0.26858 0.0
H43 H 0.15123 0.07633 0.18131 0.0
H44 H 0.19964 0.08586 0.1668 0.0
H45 H 0.18812 0.06643 0.21466 0.0
H46 H 0.19784 0.15781 0.26579 0.0
H47 H 0.19962 0.10879 0.26965 0.0
H48 H 0.23617 0.13648 0.24277 0.0
H49 H 0.11174 0.29603 0.10403 0.0
H50 H 0.22339 0.32213 0.04969 0.0
H51 H 0.24701 0.26834 0.07937 0.0
H52 H 0.1441 0.27661 0.18851 0.0
H53 H 0.09462 0.27031 0.17376 0.0
H54 H 0.11458 0.23843 0.20581 0.0
H55 H 0.1047 0.21217 0.08644 0.0
H56 H 0.0912 0.1844 0.12694 0.0
H57 H 0.07165 0.22842 0.12253 0.0
H58 H 0.03481 0.15813 0.2381 0.0
C59 C 0.08777 0.16917 0.20531 0.0
C60 C 0.2156 0.88846 0.54685 0.0
C61 C 0.20135 0.92263 0.55644 0.0
C62 C 0.21962 0.94592 0.58567 0.0
C63 C 0.26154 0.89905 0.60002 0.0
C64 C 0.24643 0.87753 0.56868 0.0
C65 C 0.26687 0.8429 0.56269 0.0
H66 H 0.3919 0.72973 0.63654 0.0
C67 C 0.28949 0.87848 0.62009 0.0
C68 C 0.29359 0.84576 0.59811 0.0
H69 H 0.33961 0.72079 0.52149 0.0
H70 H 0.30566 0.77525 0.53672 0.0
H71 H 0.41751 0.81094 0.63165 0.0
H72 H 0.31734 0.75491 0.68636 0.0
H73 H 0.33349 0.79111 0.71905 0.0
H74 H 0.36476 0.75564 0.70642 0.0
H75 H 0.41948 0.78959 0.67871 0.0
H76 H 0.40906 0.83706 0.67461 0.0
C77 C 0.28959 0.8457 0.52299 0.0
C78 C 0.23695 0.80883 0.56479 0.0
C79 C 0.33662 0.92349 0.75572 0.0
C80 C 0.36153 0.90929 0.78231 0.0
C81 C 0.3773 0.87587 0.77343 0.0
C82 C 0.36865 0.85673 0.7379 0.0
C83 C 0.34417 0.87143 0.71098 0.0
C84 C 0.32866 0.90427 0.72003 0.0
C85 C 0.3043 0.91621 0.68734 0.0
C86 C 0.30739 0.88473 0.65732 0.0
C87 C 0.33053 0.85869 0.67155 0.0
C88 C 0.32296 0.95369 0.67182 0.0
C89 C 0.26278 0.91743 0.704 0.0
C90 C 0.37274 0.73931 0.61487 0.0
C91 C 0.36806 0.72126 0.57805 0.0
C92 C 0.34338 0.73453 0.55014 0.0
C93 C 0.32411 0.76615 0.55889 0.0
C94 C 0.33027 0.78475 0.59556 0.0
C95 C 0.35434 0.77112 0.62267 0.0
C96 C 0.36018 0.79544 0.65879 0.0
C97 C 0.33621 0.82641 0.64887 0.0
C98 C 0.31812 0.81994 0.61216 0.0
C99 C 0.40375 0.8089 0.66153 0.0
C100 C 0.34341 0.77332 0.69476 0.0
H101 H 0.26144 0.9528 0.63024 0.0
H102 H 0.20243 0.87054 0.52379 0.0
H103 H 0.21825 0.81083 0.59156 0.0
H104 H 0.25044 0.78268 0.5667 0.0
H105 H 0.21817 0.80686 0.53843 0.0
H106 H 0.29804 0.87501 0.51546 0.0
H107 H 0.27208 0.83285 0.49823 0.0
H108 H 0.31712 0.83295 0.52406 0.0
H109 H 0.32464 0.94946 0.76212 0.0
H110 H 0.39666 0.86485 0.79392 0.0
H111 H 0.38169 0.83147 0.73268 0.0
H112 H 0.35385 0.95884 0.67996 0.0
H113 H 0.308 0.97721 0.68408 0.0
H114 H 0.32312 0.95452 0.63907 0.0
H115 H 0.25369 0.89185 0.72042 0.0
H116 H 0.241 0.91908 0.68104 0.0
H117 H 0.26111 0.94137 0.72483 0.0
H118 H 0.20934 0.97255 0.59286 0.0
C119 C 0.24958 0.93429 0.60753 0.0
C120 C 0.61791 0.21844 0.90562 0.0
C121 C 0.58368 0.19871 0.89252 0.0
C122 C 0.56403 0.21265 0.86078 0.0
C123 C 0.61205 0.26584 0.85667 0.0
C124 C 0.6314 0.25167 0.88749 0.0
C125 C 0.66698 0.27604 0.89873 0.0
H126 H 0.78826 0.43074 0.87348 0.0
C127 C 0.63353 0.30165 0.84532 0.0
C128 C 0.66574 0.3075 0.87017 0.0
H129 H 0.79724 0.34352 0.9561 0.0
H130 H 0.73806 0.31145 0.9318 0.0
H131 H 0.69923 0.43673 0.88659 0.0
H132 H 0.75871 0.37612 0.79773 0.0
H133 H 0.7235 0.39947 0.77448 0.0
H134 H 0.76172 0.4257 0.80093 0.0
H135 H 0.72184 0.459 0.8444 0.0
H136 H 0.67281 0.43789 0.84296 0.0
C137 C 0.66212 0.28927 0.94231 0.0
C138 C 0.70234 0.25389 0.89077 0.0
C139 C 0.58748 0.37897 0.73293 0.0
C140 C 0.60109 0.41389 0.71803 0.0
C141 C 0.6333 0.43346 0.7361 0.0
C142 C 0.65228 0.41848 0.76738 0.0
C143 C 0.63892 0.38347 0.78153 0.0
C144 C 0.60656 0.36452 0.76492 0.0
C145 C 0.59553 0.3285 0.78564 0.0
C146 C 0.62714 0.32858 0.81648 0.0
C147 C 0.65271 0.36087 0.81356 0.0
C148 C 0.55533 0.33065 0.80505 0.0
C149 C 0.59733 0.29637 0.75509 0.0
C150 C 0.77732 0.40466 0.88606 0.0
C151 C 0.79733 0.38939 0.9166 0.0
C152 C 0.78226 0.3556 0.93254 0.0
C153 C 0.74789 0.33708 0.9183 0.0
C154 C 0.72808 0.35245 0.8877 0.0
C155 C 0.7428 0.38575 0.87213 0.0
C156 C 0.71746 0.39798 0.84006 0.0
C157 C 0.68547 0.36632 0.83861 0.0
C158 C 0.69192 0.33977 0.86662 0.0
C159 C 0.70211 0.43494 0.8538 0.0
C160 C 0.74141 0.40025 0.80114 0.0
H161 H 0.56172 0.25517 0.81884 0.0
H162 H 0.63359 0.2084 0.92992 0.0
H163 H 0.69755 0.2348 0.8647 0.0
H164 H 0.72877 0.27166 0.88323 0.0
H165 H 0.70805 0.23692 0.91651 0.0
H166 H 0.63158 0.29395 0.94905 0.0
H167 H 0.67063 0.26842 0.96314 0.0
H168 H 0.67857 0.3161 0.94906 0.0
H169 H 0.56263 0.36335 0.71993 0.0
H170 H 0.6442 0.46036 0.72543 0.0
H171 H 0.67685 0.43479 0.77928 0.0
H172 H 0.55273 0.35865 0.8183 0.0
H173 H 0.53217 0.32505 0.7829 0.0
H174 H 0.54978 0.31146 0.82967 0.0
H175 H 0.62369 0.30075 0.73621 0.0
H176 H 0.59895 0.26945 0.76901 0.0
H177 H 0.57194 0.29433 0.73542 0.0
H178 H 0.53759 0.19786 0.85022 0.0
C179 C 0.57802 0.24599 0.84278 0.0
C180 C 0.92145 0.7774 0.37194 0.0
C181 C 0.90869 0.79797 0.40528 0.0
C182 C 0.86992 0.78859 0.4177 0.0
C183 C 0.86399 0.73391 0.37505 0.0
C184 C 0.89926 0.74519 0.35826 0.0
C185 C 0.90949 0.7191 0.32497 0.0
H186 H 0.86644 0.55843 0.21906 0.0
C187 C 0.84889 0.69849 0.35584 0.0
C188 C 0.87529 0.68962 0.32608 0.0
H189 H 0.96345 0.6396 0.20231 0.0
H190 H 0.9406 0.67732 0.25634 0.0
H191 H 0.86854 0.56134 0.31586 0.0
H192 H 0.80239 0.61697 0.23297 0.0
H193 H 0.7716 0.60127 0.27196 0.0
H194 H 0.7941 0.5682 0.24092 0.0
H195 H 0.83076 0.53731 0.28709 0.0
H196 H 0.82077 0.56009 0.33356 0.0
C197 C 0.94763 0.70325 0.33546 0.0
C198 C 0.91131 0.7405 0.28589 0.0
C199 C 0.72717 0.62902 0.41188 0.0
C200 C 0.70663 0.59493 0.40224 0.0
C201 C 0.71957 0.57376 0.37006 0.0
C202 C 0.75274 0.58618 0.34813 0.0
C203 C 0.77333 0.62023 0.35838 0.0
C204 C 0.76018 0.64108 0.38968 0.0
C205 C 0.78503 0.6768 0.3961 0.0
C206 C 0.81584 0.67369 0.36415 0.0
C207 C 0.80897 0.64051 0.34203 0.0
C208 C 0.8019 0.67663 0.43819 0.0
C209 C 0.76026 0.70927 0.3889 0.0
C210 C 0.88265 0.58433 0.22721 0.0
C211 C 0.91679 0.59616 0.20654 0.0
C212 C 0.93715 0.63002 0.21789 0.0
C213 C 0.92378 0.65183 0.24922 0.0
C214 C 0.88961 0.63974 0.2697 0.0
C215 C 0.86963 0.60646 0.25851 0.0
C216 C 0.83382 0.59803 0.28351 0.0
C217 C 0.83523 0.63182 0.31114 0.0
C218 C 0.86815 0.65621 0.3031 0.0
C219 C 0.83829 0.56221 0.30613 0.0
C220 C 0.79844 0.59569 0.25613 0.0
H221 H 0.81982 0.75093 0.41603 0.0
H222 H 0.94738 0.78558 0.35561 0.0
H223 H 0.88923 0.76071 0.2859 0.0
H224 H 0.90481 0.72235 0.25971 0.0
H225 H 0.93997 0.75612 0.28165 0.0
H226 H 0.94753 0.69589 0.3672 0.0
H227 H 0.97272 0.72382 0.33024 0.0
H228 H 0.95227 0.67754 0.31882 0.0
H229 H 0.71767 0.64591 0.43631 0.0
H230 H 0.70403 0.54747 0.36209 0.0
H231 H 0.76116 0.56874 0.32407 0.0
H232 H 0.81298 0.64954 0.4438 0.0
H233 H 0.77949 0.68125 0.46101 0.0
H234 H 0.82651 0.69753 0.4429 0.0
H235 H 0.73524 0.70061 0.36965 0.0
H236 H 0.7765 0.73213 0.37296 0.0
H237 H 0.74868 0.72026 0.41714 0.0
H238 H 0.85583 0.8058 0.43886 0.0
C239 C 0.84818 0.75671 0.40369 0.0
C240 C 0.81438 0.70262 0.91301 0.0
C241 C 0.84618 0.68467 0.89949 0.0
C242 C 0.86031 0.68978 0.86073 0.0
C243 C 0.81591 0.73564 0.85167 0.0
C244 C 0.79933 0.7278 0.8882 0.0
C245 C 0.76664 0.75098 0.89754 0.0
H246 H 0.66877 0.89565 0.8501 0.0
C247 C 0.79798 0.76682 0.83562 0.0
C248 C 0.76803 0.7752 0.86143 0.0
H249 H 0.65215 0.82672 0.95218 0.0
H250 H 0.70023 0.78798 0.92692 0.0
H251 H 0.6855 0.8299 0.78082 0.0
H252 H 0.75053 0.90701 0.85707 0.0
H253 H 0.7837 0.89769 0.8196 0.0
H254 H 0.74058 0.91868 0.80746 0.0
H255 H 0.68951 0.87935 0.77726 0.0
H256 H 0.72413 0.85213 0.75328 0.0
C257 C 0.72887 0.72498 0.89979 0.0
C258 C 0.7764 0.77376 0.93603 0.0
C259 C 0.87144 0.84367 0.73231 0.0
C260 C 0.8655 0.87771 0.71631 0.0
C261 C 0.83062 0.89336 0.72346 0.0
C262 C 0.80232 0.87575 0.74803 0.0
C263 C 0.80954 0.84265 0.76592 0.0
C264 C 0.84316 0.82666 0.7571 0.0
C265 C 0.84612 0.79168 0.77897 0.0
C266 C 0.80961 0.79053 0.80422 0.0
C267 C 0.78856 0.82053 0.79656 0.0
C268 C 0.84539 0.75897 0.74849 0.0
C269 C 0.88316 0.79704 0.80413 0.0
C270 C 0.67513 0.87175 0.86646 0.0
C271 C 0.65689 0.86384 0.90285 0.0
C272 C 0.66607 0.83304 0.92398 0.0
C273 C 0.694 0.81079 0.90935 0.0
C274 C 0.71358 0.82021 0.87388 0.0
C275 C 0.70395 0.8502 0.85304 0.0
C276 C 0.73043 0.8586 0.8184 0.0
C277 C 0.75645 0.82761 0.82078 0.0
C278 C 0.7464 0.80519 0.85322 0.0
C279 C 0.70628 0.85507 0.78025 0.0
C280 C 0.75238 0.89745 0.82564 0.0
H281 H 0.85741 0.71862 0.80759 0.0
H282 H 0.8028 0.69833 0.94261 0.0
H283 H 0.80757 0.78372 0.93664 0.0
H284 H 0.76119 0.79896 0.93895 0.0
H285 H 0.76984 0.75677 0.96256 0.0
H286 H 0.72977 0.70111 0.87865 0.0
H287 H 0.72414 0.71374 0.9299 0.0
H288 H 0.7033 0.7386 0.89125 0.0
H289 H 0.89802 0.83116 0.72635 0.0
H290 H 0.82569 0.91945 0.71053 0.0
H291 H 0.77638 0.88896 0.75291 0.0
H292 H 0.83541 0.76657 0.71894 0.0
H293 H 0.87449 0.74927 0.74415 0.0
H294 H 0.82492 0.73533 0.75749 0.0
H295 H 0.88412 0.82347 0.82156 0.0
H296 H 0.88545 0.77518 0.82562 0.0
H297 H 0.90935 0.79789 0.78494 0.0
H298 H 0.88442 0.67543 0.84993 0.0
C299 C 0.84493 0.71493 0.83648 0.0
C300 C 0.80851 0.13461 0.4396 0.0
C301 C 0.83358 0.10965 0.42377 0.0
C302 C 0.8372 0.10518 0.38248 0.0
C303 C 0.78842 0.14702 0.37335 0.0
C304 C 0.78693 0.15375 0.41368 0.0
C305 C 0.76111 0.18363 0.42441 0.0
H306 H 0.63112 0.29759 0.36291 0.0
C307 C 0.76105 0.16923 0.35457 0.0
C308 C 0.74569 0.19176 0.38401 0.0
H309 H 0.67677 0.29266 0.48024 0.0
H310 H 0.71666 0.24431 0.45809 0.0
H311 H 0.61593 0.21675 0.34893 0.0
H312 H 0.71092 0.29244 0.31481 0.0
H313 H 0.70006 0.26283 0.27364 0.0
H314 H 0.66352 0.28993 0.29425 0.0
H315 H 0.61654 0.23897 0.30232 0.0
H316 H 0.63485 0.19452 0.30748 0.0
C317 C 0.72884 0.16736 0.45252 0.0
C318 C 0.78629 0.21717 0.44222 0.0
C319 C 0.71285 0.13154 0.21778 0.0
C320 C 0.68087 0.14168 0.19738 0.0
C321 C 0.664 0.17396 0.20879 0.0
C322 C 0.67652 0.19415 0.24253 0.0
C323 C 0.7055 0.18131 0.26548 0.0
C324 C 0.72421 0.15133 0.25235 0.0
C325 C 0.75313 0.14084 0.28165 0.0
C326 C 0.74652 0.16795 0.31559 0.0
C327 C 0.71862 0.19136 0.30577 0.0
C328 C 0.74201 0.1002 0.29323 0.0
C329 C 0.79406 0.14778 0.26303 0.0
C330 C 0.64985 0.28606 0.38368 0.0
C331 C 0.65124 0.29853 0.42303 0.0
C332 C 0.67555 0.28306 0.44966 0.0
C333 C 0.69867 0.25531 0.4367 0.0
C334 C 0.6972 0.24319 0.39683 0.0
C335 C 0.67292 0.25859 0.37126 0.0
C336 C 0.67394 0.24215 0.33033 0.0
C337 C 0.70426 0.21541 0.33479 0.0
C338 C 0.71764 0.21573 0.37378 0.0
C339 C 0.63336 0.22221 0.32149 0.0
C340 C 0.68756 0.27333 0.30146 0.0
H341 H 0.81824 0.11888 0.32607 0.0
H342 H 0.8061 0.13922 0.47126 0.0
H343 H 0.81571 0.21953 0.42871 0.0
H344 H 0.77485 0.24378 0.43627 0.0
H345 H 0.78948 0.21455 0.47463 0.0
H346 H 0.71643 0.13987 0.44115 0.0
H347 H 0.74024 0.16365 0.48251 0.0
H348 H 0.70451 0.18462 0.45532 0.0
H349 H 0.72628 0.10689 0.20891 0.0
H350 H 0.63965 0.18232 0.19282 0.0
H351 H 0.66173 0.21783 0.25048 0.0
H352 H 0.7109 0.096 0.30145 0.0
H353 H 0.74733 0.0809 0.26819 0.0
H354 H 0.75796 0.09163 0.31874 0.0
H355 H 0.79442 0.16552 0.23666 0.0
H356 H 0.81467 0.16282 0.28381 0.0
H357 H 0.80551 0.12146 0.25335 0.0
H358 H 0.85696 0.08663 0.36986 0.0
C359 C 0.81474 0.12374 0.3572 0.0
C360 C 0.42505 0.62996 0.28268 0.0
C361 C 0.40829 0.59783 0.3014 0.0
C362 C 0.37201 0.58209 0.28839 0.0
C363 C 0.3697 0.62971 0.23933 0.0
C364 C 0.40505 0.64567 0.25222 0.0
C365 C 0.41738 0.68091 0.23059 0.0
H366 H 0.37282 0.8101 0.09895 0.0
C367 C 0.35602 0.65293 0.20777 0.0
C368 C 0.38363 0.68347 0.20283 0.0
H369 H 0.47821 0.80998 0.16418 0.0
H370 H 0.45444 0.75189 0.19408 0.0
H371 H 0.31218 0.77769 0.167 0.0
H372 H 0.37326 0.72906 0.0709 0.0
H373 H 0.3296 0.70126 0.07522 0.0
H374 H 0.32915 0.74937 0.06322 0.0
H375 H 0.30239 0.78394 0.11575 0.0
H376 H 0.27949 0.74537 0.14236 0.0
C377 C 0.42106 0.71326 0.26124 0.0
C378 C 0.45515 0.67553 0.20753 0.0
C379 C 0.23085 0.61168 0.13512 0.0
C380 C 0.21139 0.62746 0.1045 0.0
C381 C 0.2262 0.66194 0.09004 0.0
C382 C 0.26007 0.68041 0.10544 0.0
C383 C 0.27966 0.66426 0.13565 0.0
C384 C 0.26493 0.63052 0.15017 0.0
C385 C 0.28968 0.61792 0.18256 0.0
C386 C 0.32226 0.64901 0.18409 0.0
C387 C 0.31602 0.67612 0.15665 0.0
C388 C 0.26549 0.61608 0.22144 0.0
C389 C 0.30434 0.58068 0.16905 0.0
C390 C 0.39065 0.7977 0.11991 0.0
C391 C 0.42727 0.81492 0.12948 0.0
C392 C 0.4498 0.79744 0.15649 0.0
C393 C 0.43594 0.76369 0.17376 0.0
C394 C 0.39929 0.74668 0.16357 0.0
C395 C 0.37771 0.76362 0.13651 0.0
C396 C 0.34103 0.74055 0.12623 0.0
C397 C 0.34319 0.70757 0.15254 0.0
C398 C 0.37715 0.7112 0.17494 0.0
C399 C 0.30677 0.76292 0.13811 0.0
C400 C 0.34295 0.72956 0.08161 0.0
H401 H 0.32544 0.58405 0.2491 0.0
H402 H 0.45273 0.64293 0.29219 0.0
H403 H 0.45417 0.6472 0.1941 0.0
H404 H 0.46005 0.69441 0.18253 0.0
H405 H 0.48039 0.67931 0.22738 0.0
H406 H 0.39601 0.71126 0.28212 0.0
H407 H 0.44766 0.7128 0.27885 0.0
H408 H 0.42126 0.74052 0.24766 0.0
H409 H 0.21989 0.58523 0.14682 0.0
H410 H 0.21152 0.6745 0.06659 0.0
H411 H 0.26971 0.70659 0.09307 0.0
H412 H 0.24333 0.63622 0.22171 0.0
H413 H 0.25021 0.58815 0.22527 0.0
H414 H 0.28305 0.62375 0.24786 0.0
H415 H 0.31413 0.58176 0.1376 0.0
H416 H 0.32942 0.57366 0.18585 0.0
H417 H 0.2811 0.55771 0.17153 0.0
H418 H 0.35834 0.55768 0.3024 0.0
C419 C 0.35287 0.59759 0.2575 0.0
C420 C 0.09565 0.23359 0.64484 0.0
C421 C 0.11002 0.21236 0.61343 0.0
C422 C 0.14481 0.22523 0.59465 0.0
C423 C 0.1501 0.28022 0.63733 0.0
C424 C 0.11624 0.26736 0.65637 0.0
C425 C 0.10557 0.29371 0.68916 0.0
H426 H 0.1452 0.45652 0.79217 0.0
C427 C 0.16404 0.31653 0.65554 0.0
C428 C 0.13815 0.32467 0.68613 0.0
H429 H 0.0508 0.37309 0.81152 0.0
H430 H 0.07357 0.3358 0.75709 0.0
H431 H 0.14123 0.45346 0.69627 0.0
H432 H 0.21097 0.39909 0.77687 0.0
H433 H 0.24052 0.41635 0.73759 0.0
H434 H 0.21722 0.44807 0.76959 0.0
H435 H 0.17986 0.4781 0.72333 0.0
H436 H 0.1883 0.455 0.67661 0.0
C437 C 0.06606 0.3072 0.67946 0.0
C438 C 0.10624 0.27348 0.72884 0.0
C439 C 0.28558 0.38673 0.59999 0.0
C440 C 0.30538 0.42125 0.6092 0.0
C441 C 0.29124 0.44315 0.6401 0.0
C442 C 0.25781 0.43074 0.66163 0.0
C443 C 0.23815 0.39605 0.65213 0.0
C444 C 0.25217 0.3748 0.62162 0.0
C445 C 0.2275 0.339 0.61509 0.0
C446 C 0.19638 0.34203 0.64668 0.0
C447 C 0.20268 0.37545 0.66848 0.0
C448 C 0.21096 0.33891 0.57278 0.0
C449 C 0.25242 0.30683 0.62289 0.0
C450 C 0.12957 0.43019 0.78457 0.0
C451 C 0.09617 0.41764 0.80608 0.0
C452 C 0.07654 0.38324 0.79534 0.0
C453 C 0.08988 0.36167 0.76377 0.0
C454 C 0.12337 0.37446 0.74253 0.0
C455 C 0.14262 0.40825 0.75312 0.0
C456 C 0.17774 0.41744 0.72735 0.0
C457 C 0.17666 0.38363 0.69978 0.0
C458 C 0.14462 0.35843 0.70867 0.0
C459 C 0.17189 0.45298 0.70477 0.0
C460 C 0.21367 0.42072 0.75401 0.0
H461 H 0.19103 0.26713 0.59054 0.0
H462 H 0.06896 0.22421 0.6598 0.0
H463 H 0.13014 0.25523 0.72896 0.0
H464 H 0.11166 0.29257 0.75446 0.0
H465 H 0.07885 0.25593 0.73392 0.0
H466 H 0.06437 0.31285 0.64738 0.0
H467 H 0.04214 0.286 0.68685 0.0
H468 H 0.06092 0.33343 0.69485 0.0
H469 H 0.29587 0.36945 0.5763 0.0
H470 H 0.30619 0.46983 0.64757 0.0
H471 H 0.24853 0.44864 0.68487 0.0
H472 H 0.20456 0.36717 0.56469 0.0
H473 H 0.23178 0.32934 0.55049 0.0
H474 H 0.1832 0.32184 0.56974 0.0
H475 H 0.27358 0.31454 0.64671 0.0
H476 H 0.23532 0.28184 0.63364 0.0
H477 H 0.26891 0.29945 0.59595 0.0
H478 H 0.15625 0.20928 0.57046 0.0
C479 C 0.16486 0.2589 0.60635 0.0
Dy480 Dy 0.01461 0.02306 0.46784 0.0
C481 C 0.97137 0.9627 0.61755 0.0
C482 C 0.01805 0.05193 0.3948 0.0
Dy483 Dy 0.98985 0.99388 0.54681 0.0
O484 O 0.0395 0.02719 0.40658 0.0
O485 O 0.99444 0.06076 0.42267 0.0
O486 O 0.07673 0.02106 0.48186 0.0
O487 O 0.03551 0.98103 0.50519 0.0
C488 C 0.07072 0.99312 0.50508 0.0
C489 C 0.93506 0.02317 0.50652 0.0
O490 O 0.0252 0.04651 0.56636 0.0
O491 O 0.03336 0.07348 0.50485 0.0
O492 O 0.95311 0.98763 0.60132 0.0
O493 O 1.00127 0.95621 0.59621 0.0
O494 O 0.92827 0.99428 0.52797 0.0
O495 O 0.96978 0.03567 0.50929 0.0
O496 O 0.9786 0.97015 0.44974 0.0
O497 O 0.98055 0.94194 0.50989 0.0
C498 C 0.03701 0.07501 0.54387 0.0
C499 C 0.97278 0.94031 0.47169 0.0
Dy500 Dy 0.5306 0.01734 0.04084 0.0
C501 C 0.42352 0.97154 0.92644 0.0
C502 C 0.58462 0.05361 0.08835 0.0
Dy503 Dy 0.47415 0.99987 0.98222 0.0
O504 O 0.55182 0.03774 0.10055 0.0
O505 O 0.58812 0.04912 0.05047 0.0
O506 O 0.52855 0.95943 0.06209 0.0
O507 O 0.47732 0.97842 0.04243 0.0
C508 C 0.49249 0.95035 0.0544 0.0
C509 C 0.51409 0.06648 0.96999 0.0
O510 O 0.43612 0.01647 0.0313 0.0
O511 O 0.48525 0.05523 0.05722 0.0
O512 O 0.42199 1.00313 0.94454 0.0
O513 O 0.45271 0.95561 0.93845 0.0
O514 O 0.478 0.05874 0.96277 0.0
O515 O 0.528 0.03743 0.98055 0.0
O516 O 0.56728 0.985 1.00198 0.0
O517 O 0.51766 0.96197 0.96151 0.0
C518 C 0.4481 0.045 0.05408 0.0
C519 C 0.55371 0.96289 0.97306 0.0
Dy520 Dy 0.51568 0.47252 0.48676 0.0
C521 C 0.4624 0.59978 0.5547 0.0
C522 C 0.55606 0.4165 0.45919 0.0
Dy523 Dy 0.49951 0.54055 0.52932 0.0
O524 O 0.51935 0.41798 0.45387 0.0
O525 O 0.57033 0.44573 0.47822 0.0
O526 O 0.45293 0.4516 0.4854 0.0
O527 O 0.47436 0.4835 0.53395 0.0
C528 C 0.44406 0.46823 0.51828 0.0
C529 C 0.57143 0.5437 0.49724 0.0
O530 O 0.52009 0.51354 0.58317 0.0
O531 O 0.5416 0.46441 0.54704 0.0
O532 O 0.4922 0.60127 0.53128 0.0
O533 O 0.45425 0.56617 0.5663 0.0
O534 O 0.56304 0.55909 0.53104 0.0
O535 O 0.54066 0.52948 0.48155 0.0
O536 O 0.50066 0.50552 0.43439 0.0
O537 O 0.46466 0.54197 0.47346 0.0
C538 C 0.53776 0.48277 0.58117 0.0
C539 C 0.47516 0.53036 0.43784 0.0
Dy540 Dy 0.02021 0.47436 0.02334 0.0
C541 C 0.94828 0.59491 0.97212 0.0
C542 C 0.06883 0.42167 0.03367 0.0
Dy543 Dy 0.99356 0.54081 0.98866 0.0
O544 O 0.03796 0.42506 0.05508 0.0
O545 O 0.07281 0.44666 0.00711 0.0
O546 O 0.97747 0.47516 0.07385 0.0
O547 O 1.00054 0.52505 0.04972 0.0
C548 C 0.97555 0.51076 0.0737 0.0
C549 C 0.03857 0.50358 0.93918 0.0
O550 O 0.04478 0.57026 0.01912 0.0
O551 O 0.07115 0.5165 0.03513 0.0
O552 O 0.97441 0.58349 0.94831 0.0
O553 O 0.94771 0.57781 0.00517 0.0
O554 O 0.03841 0.53936 0.94004 0.0
O555 O 0.01262 0.48982 0.96241 0.0
O556 O 0.96892 0.44545 0.99242 0.0
O557 O 0.94132 0.49947 0.98057 0.0
C558 C 0.07331 0.55302 0.03319 0.0
C559 C 0.93949 0.46289 0.98083 0.0
C560 C 0.05737 0.12814 0.32748 0.0
C561 C 0.05571 0.10843 0.29076 0.0
C562 C 0.01967 0.05544 0.32152 0.0
C563 C 0.02633 0.0731 0.35888 0.0
N564 N 0.05373 0.12485 0.39878 0.0
N565 N 0.03567 0.05407 0.25141 0.0
C566 C 0.0451 0.10937 0.36228 0.0
C567 C 0.03654 0.07237 0.28725 0.0
N568 N 0.07122 0.16463 0.32912 0.0
N569 N 0.99686 0.02275 0.31903 0.0
H570 H 0.04617 0.0665 0.22543 0.0
H571 H 0.02615 0.02624 0.24752 0.0
H572 H 0.9841 0.00991 0.34385 0.0
H573 H 0.98801 0.00984 0.29246 0.0
H574 H 0.06898 0.18159 0.35415 0.0
H575 H 0.08231 0.17899 0.30455 0.0
H576 H 0.07177 0.14906 0.40311 0.0
H577 H 0.04524 0.11231 0.42527 0.0
C578 C 0.40387 0.9581 0.81745 0.0
C579 C 0.37286 0.92997 0.81894 0.0
C580 C 0.36931 0.93627 0.89109 0.0
C581 C 0.40331 0.9607 0.88973 0.0
N582 N 0.45394 0.99535 0.85319 0.0
N583 N 0.3251 0.89197 0.85561 0.0
C584 C 0.42058 0.97222 0.85331 0.0
C585 C 0.35497 0.91922 0.85536 0.0
N586 N 0.41732 0.97113 0.78173 0.0
N587 N 0.35085 0.92969 0.92654 0.0
H588 H 0.31274 0.88027 0.82977 0.0
H589 H 0.31344 0.8798 0.88115 0.0
H590 H 0.3611 0.94177 0.95313 0.0
H591 H 0.32415 0.91457 0.92952 0.0
H592 H 0.43695 0.99429 0.77862 0.0
H593 H 0.4069 0.96035 0.75469 0.0
H594 H 0.47078 1.00114 0.82805 0.0
H595 H 0.46613 0.00764 0.87884 0.0
C596 C 0.54507 0.44114 0.68459 0.0
C597 C 0.58325 0.43015 0.68279 0.0
C598 C 0.59288 0.46052 0.6187 0.0
C599 C 0.55349 0.46732 0.6179 0.0
N600 N 0.49037 0.45938 0.64855 0.0
N601 N 0.64032 0.42257 0.64323 0.0
C602 C 0.52906 0.45636 0.65049 0.0
C603 C 0.60614 0.43778 0.6483 0.0
N604 N 0.52457 0.43851 0.71931 0.0
N605 N 0.61827 0.47773 0.5925 0.0
H606 H 0.65052 0.40481 0.66356 0.0
H607 H 0.65637 0.42444 0.61699 0.0
H608 H 0.60999 0.49755 0.57346 0.0
H609 H 0.64796 0.47626 0.59351 0.0
H610 H 0.49835 0.44969 0.72371 0.0
H611 H 0.53529 0.42801 0.74489 0.0
H612 H 0.47054 0.44785 0.66917 0.0
H613 H 0.47765 0.47091 0.6247 0.0
C614 C 0.96356 0.55291 0.17796 0.0
C615 C 0.93125 0.57337 0.17279 0.0
C616 C 0.92547 0.54926 0.10419 0.0
C617 C 0.95998 0.53181 0.10809 0.0
N618 N 0.01453 0.52028 0.14746 0.0
N619 N 0.88463 0.59532 0.12937 0.0
C620 C 0.97972 0.53448 0.14471 0.0
C621 C 0.91302 0.57264 0.13545 0.0
N622 N 0.97809 0.55018 0.21499 0.0
N623 N 0.90381 0.54256 0.07103 0.0
H624 H 0.87451 0.61258 0.15149 0.0
H625 H 0.87328 0.59931 0.10167 0.0
H626 H 0.91229 0.52612 0.04744 0.0
H627 H 0.87622 0.55087 0.06812 0.0
H628 H 0.99879 0.53252 0.22171 0.0
H629 H 0.96713 0.56335 0.23989 0.0
H630 H 0.03253 0.52498 0.17171 0.0
H631 H 0.02711 0.50627 0.12409 0.0
C632 C 0.39515 0.09551 0.13504 0.0
C633 C 0.36165 0.1026 0.11437 0.0
C634 C 0.38828 0.07759 0.05337 0.0
C635 C 0.41944 0.0661 0.07494 0.0
N636 N 0.44884 0.05804 0.13809 0.0
N637 N 0.32224 0.09224 0.05613 0.0
C638 C 0.42209 0.07352 0.11631 0.0
C639 C 0.357 0.09131 0.07416 0.0
N640 N 0.40153 0.11027 0.17217 0.0
N641 N 0.38911 0.07684 0.01295 0.0
H642 H 0.2979 0.10092 0.07055 0.0
H643 H 0.31648 0.0807 0.02808 0.0
H644 H 0.41229 0.06851 0.99633 0.0
H645 H 0.36878 0.08841 0.99604 0.0
H646 H 0.42734 0.1091 0.18703 0.0
H647 H 0.38231 0.12652 0.18669 0.0
H648 H 0.4494 0.05961 0.16887 0.0
H649 H 0.46811 0.04053 0.12585 0.0
C650 C 0.1338 0.93748 0.56658 0.0
C651 C 0.16495 0.93337 0.53998 0.0
C652 C 0.12895 0.95957 0.48771 0.0
C653 C 0.10186 0.97052 0.51652 0.0
N654 N 0.08263 0.97473 0.58516 0.0
N655 N 0.19397 0.94322 0.47544 0.0
C656 C 0.10507 0.9604 0.55641 0.0
C657 C 0.16297 0.94484 0.50039 0.0
N658 N 0.13188 0.91963 0.60174 0.0
N659 N 0.12166 0.96206 0.44833 0.0
H660 H 0.21926 0.93236 0.48363 0.0
H661 H 0.19554 0.95509 0.44767 0.0
H662 H 0.09613 0.97086 0.4379 0.0
H663 H 0.13891 0.95149 0.42619 0.0
H664 H 0.10802 0.91922 0.62074 0.0
H665 H 0.15232 0.90203 0.60977 0.0
H666 H 0.08671 0.97134 0.61527 0.0
H667 H 0.06252 0.99311 0.57905 0.0
C668 C 0.86972 0.40375 0.9131 0.0
C669 C 0.83401 0.40849 0.93251 0.0
C670 C 0.86863 0.44283 0.98676 0.0
C671 C 0.90389 0.44145 0.96551 0.0
N672 N 0.9381 0.42327 0.9068 0.0
N673 N 0.79872 0.43671 0.98509 0.0
C674 C 0.9045 0.42247 0.92827 0.0
C675 C 0.83328 0.42928 0.96858 0.0
N676 N 0.87048 0.38054 0.88071 0.0
N677 N 0.86918 0.45543 0.02517 0.0
H678 H 0.77229 0.42694 0.97285 0.0
H679 H 0.79622 0.45503 0.00895 0.0
H680 H 0.89481 0.46332 0.03993 0.0
H681 H 0.84494 0.45421 0.04362 0.0
H682 H 0.89576 0.37247 0.8678 0.0
H683 H 0.8456 0.36716 0.86821 0.0
H684 H 0.93969 0.41409 0.87748 0.0
H685 H 0.96434 0.43525 0.91756 0.0
C686 C 0.67345 0.55113 0.45175 0.0
C687 C 0.67182 0.58134 0.42617 0.0
C688 C 0.60621 0.58939 0.45072 0.0
C689 C 0.60639 0.55697 0.47336 0.0
N690 N 0.63857 0.50424 0.49151 0.0
N691 N 0.63428 0.62528 0.39616 0.0
C692 C 0.63957 0.53704 0.47266 0.0
C693 C 0.63749 0.59937 0.42423 0.0
N694 N 0.70782 0.53685 0.4574 0.0
N695 N 0.57673 0.61141 0.45549 0.0
H696 H 0.65641 0.63315 0.37612 0.0
H697 H 0.6086 0.63651 0.39035 0.0
H698 H 0.55384 0.60545 0.47516 0.0
H699 H 0.57676 0.63728 0.44294 0.0
H700 H 0.71192 0.51762 0.47889 0.0
H701 H 0.73329 0.54651 0.44294 0.0
H702 H 0.65981 0.48602 0.48821 0.0
H703 H 0.61488 0.494 0.50823 0.0
C704 C 0.14789 0.37647 0.08408 0.0
C705 C 0.15057 0.34538 0.05854 0.0
C706 C 0.10596 0.36898 0.01247 0.0
C707 C 0.09829 0.39649 0.04128 0.0
N708 N 0.11311 0.42903 0.1031 0.0
N709 N 0.13382 0.31127 0.99842 0.0
C710 C 0.11983 0.4012 0.07662 0.0
C711 C 0.13068 0.3418 0.02226 0.0
N712 N 0.17233 0.382 0.11538 0.0
N713 N 0.08938 0.36866 0.97604 0.0
H714 H 0.15307 0.29176 0.00403 0.0
H715 H 0.1164 0.30435 0.97412 0.0
H716 H 0.06942 0.38684 0.96844 0.0
H717 H 0.09718 0.35196 0.95236 0.0
H718 H 0.17428 0.4055 0.13369 0.0
H719 H 0.19324 0.36414 0.1211 0.0
H720 H 0.12451 0.43152 0.13139 0.0
H721 H 0.0948 0.44932 0.0974 0.0
C722 C 0.55076 0.16683 0.95133 0.0
C723 C 0.56784 0.1642 0.91305 0.0
C724 C 0.55198 0.09656 0.91281 0.0
C725 C 0.53661 0.09912 0.95188 0.0
N726 N 0.52856 0.13562 0.01122 0.0
N727 N 0.5912 0.1261 0.86036 0.0
C728 C 0.53824 0.13398 0.97198 0.0
C729 C 0.57035 0.12887 0.89468 0.0
N730 N 0.54501 0.20082 0.96737 0.0
N731 N 0.54782 0.0635 0.89243 0.0
H732 H 0.60475 0.14907 0.8462 0.0
H733 H 0.59773 0.10104 0.84762 0.0
H734 H 0.53571 0.0391 0.90497 0.0
H735 H 0.55405 0.06063 0.86238 0.0
H736 H 0.52885 0.20458 0.99305 0.0
H737 H 0.55361 0.22548 0.95328 0.0
H738 H 0.53291 0.15953 0.02881 0.0
H739 H 0.51976 0.11214 0.0272 0.0
C740 C 0.9204 0.84368 0.46373 0.0
C741 C 0.93249 0.83048 0.42613 0.0
C742 C 0.97697 0.88729 0.42118 0.0
C743 C 0.95799 0.90342 0.45408 0.0
N744 N 0.90737 0.89666 0.50396 0.0
N745 N 0.99321 0.82959 0.39165 0.0
C746 C 0.9287 0.88143 0.47471 0.0
C747 C 0.9665 0.84945 0.40995 0.0
N748 N 0.90526 0.81917 0.49104 0.0
N749 N 0.00608 0.90722 0.40147 0.0
H750 H 0.99226 0.80105 0.39485 0.0
H751 H 0.01976 0.84121 0.38115 0.0
H752 H 0.01787 0.93331 0.41079 0.0
H753 H 0.01723 0.89829 0.3745 0.0
H754 H 0.89932 0.82686 0.52025 0.0
H755 H 0.90378 0.79066 0.48571 0.0
H756 H 0.88357 0.88215 0.51729 0.0
H757 H 0.91072 0.92462 0.51188 0.0
C758 C 0.37383 0.65354 0.56471 0.0
C759 C 0.39152 0.69012 0.56864 0.0
C760 C 0.45516 0.66677 0.56854 0.0
C761 C 0.43774 0.63052 0.56084 0.0
N762 N 0.3809 0.59159 0.5402 0.0
N763 N 0.44912 0.73233 0.56461 0.0
C764 C 0.39715 0.62436 0.55579 0.0
C765 C 0.43228 0.69697 0.5675 0.0
N766 N 0.335 0.64637 0.57057 0.0
N767 N 0.49315 0.67232 0.57853 0.0
H768 H 0.4332 0.75514 0.56283 0.0
H769 H 0.47859 0.73858 0.55987 0.0
H770 H 0.51061 0.65077 0.58127 0.0
H771 H 0.50624 0.69784 0.58819 0.0
H772 H 0.32143 0.61965 0.5723 0.0
H773 H 0.31685 0.66698 0.57712 0.0
H774 H 0.35194 0.58725 0.53256 0.0
H775 H 0.39688 0.57025 0.53047 0.0
C776 C 0.91941 0.92754 0.70958 0.0
C777 C 0.89631 0.89721 0.69251 0.0
C778 C 0.93309 0.90316 0.63072 0.0
C779 C 0.95207 0.93683 0.64572 0.0
N780 N 0.96348 0.98211 0.69836 0.0
N781 N 0.87806 0.85763 0.63631 0.0
C782 C 0.94552 0.94919 0.68503 0.0
C783 C 0.90257 0.8851 0.65306 0.0
N784 N 0.91676 0.93516 0.74928 0.0
N785 N 0.94383 0.88857 0.59501 0.0
H786 H 0.85536 0.84355 0.65181 0.0
H787 H 0.87814 0.85074 0.60624 0.0
H788 H 0.96541 0.90105 0.57697 0.0
H789 H 0.93381 0.86223 0.58473 0.0
H790 H 0.93542 0.95463 0.76417 0.0
H791 H 0.89771 0.9199 0.76809 0.0
H792 H 0.95646 0.99499 0.72499 0.0
H793 H 0.9845 0.99744 0.68174 0.0
C794 C 0.65859 0.12836 0.12827 0.0
C795 C 0.66141 0.11642 0.16752 0.0
C796 C 0.62193 0.05926 0.15072 0.0
C797 C 0.61339 0.07421 0.11397 0.0
N798 N 0.61917 0.12623 0.07006 0.0
N799 N 0.63999 0.07305 0.21837 0.0
C800 C 0.63084 0.10948 0.10297 0.0
C801 C 0.64177 0.08241 0.17942 0.0
N802 N 0.68233 0.15777 0.11529 0.0
N803 N 0.612 0.02274 0.15794 0.0
H804 H 0.65289 0.0896 0.24097 0.0
H805 H 0.62245 0.05042 0.22873 0.0
H806 H 0.59887 1.0044 0.13692 0.0
H807 H 0.6208 0.00984 0.18299 0.0
H808 H 0.68399 0.16553 0.08582 0.0
H809 H 0.70311 0.17203 0.13327 0.0
H810 H 0.62827 0.1535 0.06329 0.0
H811 H 0.59746 0.11457 0.05159 0.0
C812 C 0.43531 0.60169 0.37107 0.0
C813 C 0.42754 0.58101 0.33545 0.0
C814 C 0.44764 0.52586 0.36788 0.0
C815 C 0.45968 0.54763 0.40183 0.0
N816 N 0.47436 0.60936 0.42953 0.0
N817 N 0.43506 0.525 0.29748 0.0
C818 C 0.45619 0.58644 0.40165 0.0
C819 C 0.43639 0.54356 0.33312 0.0
N820 N 0.42144 0.63539 0.37672 0.0
N821 N 0.44476 0.48818 0.36924 0.0
H822 H 0.42811 0.53724 0.27129 0.0
H823 H 0.44476 0.4989 0.29333 0.0
H824 H 0.45045 0.47398 0.39456 0.0
H825 H 0.43258 0.4711 0.34665 0.0
H826 H 0.4229 0.64975 0.4038 0.0
H827 H 0.40491 0.64719 0.35588 0.0
H828 H 0.47566 0.63809 0.42842 0.0
H829 H 0.49209 0.6001 0.45084 0.0
C830 C 0.04768 0.45865 0.8358 0.0
C831 C 0.08169 0.44037 0.83992 0.0
C832 C 0.08994 0.46778 0.90695 0.0
C833 C 0.05382 0.48264 0.90454 0.0
N834 N 0.99643 0.48994 0.86773 0.0
N835 N 0.13186 0.4227 0.88184 0.0
C836 C 0.03215 0.4774 0.86921 0.0
C837 C 0.10194 0.44367 0.87617 0.0
N838 N 0.03099 0.45922 0.79952 0.0
N839 N 0.1135 0.47768 0.93807 0.0
H840 H 0.14153 0.40473 0.86015 0.0
H841 H 0.14485 0.42064 0.90914 0.0
H842 H 0.10568 0.49526 0.96098 0.0
H843 H 0.14187 0.47107 0.93951 0.0
H844 H 0.00869 0.47526 0.79335 0.0
H845 H 0.04156 0.44598 0.77448 0.0
H846 H 0.97723 0.4833 0.8448 0.0
H847 H 0.98466 0.50484 0.89093 0.0
C848 C 0.64345 0.92677 0.92849 0.0
C849 C 0.63007 0.88932 0.92003 0.0
C850 C 0.56783 0.89933 0.95018 0.0
C851 C 0.57951 0.93772 0.95379 0.0
N852 N 0.62558 0.9891 0.93728 0.0
N853 N 0.5766 0.84219 0.91464 0.0
C854 C 0.61651 0.95186 0.94024 0.0
C855 C 0.5913 0.87624 0.92829 0.0
N856 N 0.68195 0.93812 0.92701 0.0
N857 N 0.53571 0.88442 0.96964 0.0
H858 H 0.59271 0.82475 0.89761 0.0
H859 H 0.54743 0.83298 0.91689 0.0
H860 H 0.51963 0.90002 0.98868 0.0
H861 H 0.52793 0.85607 0.97071 0.0
H862 H 0.6932 0.96438 0.93653 0.0
H863 H 0.703 0.92025 0.92039 0.0
H864 H 0.65105 1.00046 0.92407 0.0
H865 H 0.606 0.00843 0.94397 0.0
C866 C 0.88364 0.10438 0.47594 0.0
C867 C 0.85569 0.08719 0.4497 0.0
C868 C 0.87781 0.02669 0.46284 0.0
C869 C 0.90481 0.04395 0.48999 0.0
N870 N 0.92176 0.09627 0.53354 0.0
N871 N 0.81835 0.03121 0.42794 0.0
C872 C 0.90419 0.08194 0.50002 0.0
C873 C 0.85025 0.04801 0.44627 0.0
N874 N 0.89222 0.14184 0.47656 0.0
N875 N 0.87939 0.99053 0.4515 0.0
H876 H 0.79691 0.04602 0.41663 0.0
H877 H 0.81119 1.00273 0.42774 0.0
H878 H 0.89896 0.97384 0.46307 0.0
H879 H 0.8632 0.97791 0.4284 0.0
H880 H 0.91516 0.15494 0.49255 0.0
H881 H 0.87901 0.15944 0.45831 0.0
H882 H 0.91896 0.12311 0.54404 0.0
H883 H 0.93557 0.08014 0.55297 0.0
C884 C 0.17798 0.58995 0.04919 0.0
C885 C 0.17572 0.6081 0.08674 0.0
C886 C 0.10562 0.59123 0.08882 0.0
C887 C 0.10775 0.57483 0.05035 0.0
N888 N 0.14406 0.56607 0.99042 0.0
N889 N 0.13707 0.631 0.13992 0.0
C890 C 0.14345 0.57628 0.02956 0.0
C891 C 0.1394 0.61011 0.10593 0.0
N892 N 0.21324 0.58501 0.03271 0.0
N893 N 0.07146 0.58803 0.10938 0.0
H894 H 0.1612 0.64454 0.15366 0.0
H895 H 0.11117 0.6371 0.15308 0.0
H896 H 0.04581 0.57625 0.09705 0.0
H897 H 0.06879 0.59515 0.13923 0.0
H898 H 0.21696 0.56862 0.00751 0.0
H899 H 0.23912 0.59476 0.04611 0.0
H900 H 0.16857 0.56951 0.97243 0.0
H901 H 0.11896 0.55785 0.97488 0.0
C902 C 0.3771 0.42259 0.59726 0.0
C903 C 0.34105 0.43428 0.58644 0.0
C904 C 0.3729 0.47001 0.53218 0.0
C905 C 0.40846 0.45632 0.54148 0.0
N906 N 0.44273 0.41342 0.5774 0.0
N907 N 0.30323 0.46537 0.54103 0.0
C908 C 0.41014 0.43098 0.57261 0.0
C909 C 0.33858 0.45703 0.55318 0.0
N910 N 0.37991 0.40398 0.63157 0.0
N911 N 0.3721 0.49599 0.50376 0.0
H912 H 0.2777 0.45715 0.5562 0.0
H913 H 0.29874 0.47826 0.51459 0.0
H914 H 0.39626 0.50503 0.48685 0.0
H915 H 0.34832 0.51041 0.49857 0.0
H916 H 0.40608 0.39847 0.64351 0.0
H917 H 0.35624 0.39665 0.64993 0.0
H918 H 0.44438 0.39178 0.59671 0.0
H919 H 0.4673 0.41819 0.55961 0.0
C920 C 0.85643 0.62531 0.93158 0.0
C921 C 0.86778 0.66328 0.92638 0.0
C922 C 0.9302 0.65742 0.95636 0.0
C923 C 0.9193 0.61924 0.96067 0.0
N924 N 0.86988 0.56789 0.96103 0.0
N925 N 0.91011 0.71775 0.94212 0.0
C926 C 0.88152 0.60357 0.95139 0.0
C927 C 0.90299 0.68009 0.94166 0.0
N928 N 0.82267 0.60978 0.9157 0.0
N929 N 0.96684 0.67167 0.96533 0.0
H930 H 0.89052 0.73506 0.93154 0.0
H931 H 0.93366 0.73207 0.95596 0.0
H932 H 0.98689 0.65611 0.97807 0.0
H933 H 0.9781 0.69831 0.95845 0.0
H934 H 0.81487 0.58145 0.91402 0.0
H935 H 0.80306 0.62529 0.90218 0.0
H936 H 0.84156 0.55618 0.95879 0.0
H937 H 0.88788 0.5505 0.97408 0.0
C938 C 0.45152 0.88327 0.13411 0.0
C939 C 0.44207 0.85075 0.11054 0.0
C940 C 0.45459 0.88767 0.05082 0.0
C941 C 0.47046 0.91814 0.07406 0.0
N942 N 0.48426 0.94525 0.13868 0.0
N943 N 0.44144 0.82122 0.04567 0.0
C944 C 0.46907 0.91596 0.11601 0.0
C945 C 0.44524 0.8528 0.06862 0.0
N946 N 0.44201 0.88353 0.17346 0.0
N947 N 0.44776 0.89213 0.01174 0.0
H948 H 0.43657 0.79492 0.0574 0.0
H949 H 0.44722 0.82091 0.01535 0.0
H950 H 0.45362 0.91755 0.99837 0.0
H951 H 0.43292 0.87186 0.994 0.0
H952 H 0.44456 0.90729 0.19143 0.0
H953 H 0.42799 0.86072 0.18746 0.0
H954 H 0.48877 0.94376 0.16894 0.0
H955 H 0.4939 0.97076 0.12687 0.0
C956 C 0.10073 0.14267 0.60961 0.0
C957 C 0.08862 0.17714 0.59867 0.0
C958 C 0.03999 0.14459 0.55503 0.0
C959 C 0.05465 0.11024 0.56298 0.0
N960 N 0.10456 0.07812 0.59173 0.0
N961 N 0.05012 0.21163 0.55719 0.0
C962 C 0.08636 0.10964 0.5889 0.0
C963 C 0.05908 0.17827 0.57042 0.0
N964 N 0.12589 0.14149 0.64005 0.0
N965 N 0.00702 0.14511 0.53377 0.0
H966 H 0.06246 0.23686 0.56858 0.0
H967 H 0.03254 0.21438 0.53302 0.0
H968 H 0.99251 0.12149 0.52121 0.0
H969 H 0.99225 0.16852 0.53118 0.0
H970 H 0.13275 0.11696 0.65228 0.0
H971 H 0.13725 0.16516 0.65548 0.0
H972 H 0.13012 0.07689 0.60698 0.0
H973 H 0.09652 0.0541 0.57528 0.0
C974 C 0.64051 0.36536 0.42493 0.0
C975 C 0.62762 0.32868 0.43519 0.0
C976 C 0.56755 0.34942 0.46229 0.0
C977 C 0.57883 0.38543 0.44836 0.0
N978 N 0.62289 0.42643 0.41051 0.0
N979 N 0.57708 0.28422 0.45832 0.0
C980 C 0.61453 0.3931 0.42811 0.0
C981 C 0.59058 0.32022 0.45234 0.0
N982 N 0.67781 0.37372 0.41265 0.0
N983 N 0.53615 0.34344 0.48681 0.0
H984 H 0.59363 0.26216 0.45262 0.0
H985 H 0.54862 0.27605 0.46626 0.0
H986 H 0.51879 0.36408 0.49557 0.0
H987 H 0.52922 0.31874 0.50137 0.0
H988 H 0.69012 0.40063 0.40874 0.0
H989 H 0.69759 0.35395 0.40974 0.0
H990 H 0.64674 0.43236 0.39206 0.0
H991 H 0.60401 0.44708 0.41109 0.0
loop_
_geom_bond_atom_site_label_1
_geom_bond_atom_site_label_2
_geom_bond_distance
_geom_bond_site_symmetry_2
_ccdc_geom_bond_type
C0 C1 1.391 . S
C0 C4 1.391 . S
C0 H42 0.948 . S
C1 C0 1.391 . S
C1 C2 1.391 . S
C2 C1 1.391 . S
C2 H58 0.947 . S
C2 C59 1.392 . S
C3 C4 1.391 . S
C3 C7 1.397 . S
C3 C59 1.419 . S
C4 C0 1.391 . S
C4 C3 1.391 . S
C4 C5 1.399 . S
C5 C4 1.399 . S
C5 C8 1.396 . S
C5 C17 1.453 . S
C5 C18 1.684 . S
H6 C30 0.948 . S
C7 C3 1.397 . S
C7 C8 1.394 . S
C7 C26 1.723 . S
C8 C5 1.396 . S
C8 C7 1.394 . S
C8 C38 1.723 . S
H9 C32 0.947 . S
H10 C33 0.948 . S
H11 C39 0.982 . S
H12 C40 0.979 . S
H13 C40 0.980 . S
H14 C40 0.983 . S
H15 C39 0.979 . S
H16 C39 0.977 . S
C17 C5 1.453 . S
C17 H46 0.982 . S
C17 H47 0.979 . S
C17 H48 0.977 . S
C18 C5 1.684 . S
C18 H43 0.979 . S
C18 H44 0.980 . S
C18 H45 0.983 . S
C19 C20 1.391 . S
C19 C24 1.391 . S
C19 H49 0.948 . S
C20 C19 1.391 . S
C20 C21 1.391 . S
C21 C20 1.391 . S
C21 C22 1.392 . S
C21 H50 0.947 . S
C22 C21 1.392 . S
C22 C23 1.419 . S
C22 H51 0.948 . S
C23 C22 1.419 . S
C23 C24 1.391 . S
C23 C27 1.397 . S
C24 C19 1.391 . S
C24 C23 1.391 . S
C24 C25 1.399 . S
C25 C24 1.399 . S
C25 C26 1.396 . S
C25 C28 1.453 . S
C25 C29 1.684 . S
C26 C7 1.723 . S
C26 C25 1.396 . S
C26 C27 1.394 . S
C27 C23 1.397 . S
C27 C26 1.394 . S
C27 C37 1.723 . S
C28 C25 1.453 . S
C28 H52 0.982 . S
C28 H53 0.979 . S
C28 H54 0.977 . S
C29 C25 1.684 . S
C29 H55 0.979 . S
C29 H56 0.980 . S
C29 H57 0.983 . S
C30 H6 0.948 . S
C30 C31 1.391 . S
C30 C35 1.391 . S
C31 C30 1.391 . S
C31 C32 1.391 . S
C32 H9 0.947 . S
C32 C31 1.391 . S
C32 C33 1.392 . S
C33 H10 0.948 . S
C33 C32 1.392 . S
C33 C34 1.419 . S
C34 C33 1.419 . S
C34 C35 1.391 . S
C34 C38 1.397 . S
C35 C30 1.391 . S
C35 C34 1.391 . S
C35 C36 1.399 . S
C36 C35 1.399 . S
C36 C37 1.396 . S
C36 C39 1.453 . S
C36 C40 1.684 . S
C37 C27 1.723 . S
C37 C36 1.396 . S
C37 C38 1.394 . S
C38 C8 1.723 . S
C38 C34 1.397 . S
C38 C37 1.394 . S
C39 H11 0.982 . S
C39 H15 0.979 . S
C39 H16 0.977 . S
C39 C36 1.453 . S
C40 H12 0.979 . S
C40 H13 0.980 . S
C40 H14 0.983 . S
C40 C36 1.684 . S
H41 C59 0.948 . S
H42 C0 0.948 . S
H43 C18 0.979 . S
H44 C18 0.980 . S
H45 C18 0.983 . S
H46 C17 0.982 . S
H47 C17 0.979 . S
H48 C17 0.977 . S
H49 C19 0.948 . S
H50 C21 0.947 . S
H51 C22 0.948 . S
H52 C28 0.982 . S
H53 C28 0.979 . S
H54 C28 0.977 . S
H55 C29 0.979 . S
H56 C29 0.980 . S
H57 C29 0.983 . S
H58 C2 0.947 . S
C59 C2 1.392 . S
C59 C3 1.419 . S
C59 H41 0.948 . S
C60 C61 1.391 . S
C60 C64 1.391 . S
C60 H102 0.948 . S
C61 C60 1.391 . S
C61 C62 1.391 . S
C62 C61 1.391 . S
C62 H118 0.947 . S
C62 C119 1.392 . S
C63 C64 1.391 . S
C63 C67 1.397 . S
C63 C119 1.419 . S
C64 C60 1.391 . S
C64 C63 1.391 . S
C64 C65 1.399 . S
C65 C64 1.399 . S
C65 C68 1.396 . S
C65 C77 1.453 . S
C65 C78 1.684 . S
H66 C90 0.948 . S
C67 C63 1.397 . S
C67 C68 1.394 . S
C67 C86 1.723 . S
C68 C65 1.396 . S
C68 C67 1.394 . S
C68 C98 1.723 . S
H69 C92 0.947 . S
H70 C93 0.948 . S
H71 C99 0.982 . S
H72 C100 0.979 . S
H73 C100 0.980 . S
H74 C100 0.983 . S
H75 C99 0.979 . S
H76 C99 0.977 . S
C77 C65 1.453 . S
C77 H106 0.982 . S
C77 H107 0.979 . S
C77 H108 0.977 . S
C78 C65 1.684 . S
C78 H103 0.979 . S
C78 H104 0.980 . S
C78 H105 0.983 . S
C79 C80 1.391 . S
C79 C84 1.391 . S
C79 H109 0.948 . S
C80 C79 1.391 . S
C80 C81 1.391 . S
C81 C80 1.391 . S
C81 C82 1.392 . S
C81 H110 0.947 . S
C82 C81 1.392 . S
C82 C83 1.419 . S
C82 H111 0.948 . S
C83 C82 1.419 . S
C83 C84 1.391 . S
C83 C87 1.397 . S
C84 C79 1.391 . S
C84 C83 1.391 . S
C84 C85 1.399 . S
C85 C84 1.399 . S
C85 C86 1.396 . S
C85 C88 1.453 . S
C85 C89 1.684 . S
C86 C67 1.723 . S
C86 C85 1.396 . S
C86 C87 1.394 . S
C87 C83 1.397 . S
C87 C86 1.394 . S
C87 C97 1.723 . S
C88 C85 1.453 . S
C88 H112 0.982 . S
C88 H113 0.979 . S
C88 H114 0.977 . S
C89 C85 1.684 . S
C89 H115 0.979 . S
C89 H116 0.980 . S
C89 H117 0.983 . S
C90 H66 0.948 . S
C90 C91 1.391 . S
C90 C95 1.391 . S
C91 C90 1.391 . S
C91 C92 1.391 . S
C92 H69 0.947 . S
C92 C91 1.391 . S
C92 C93 1.392 . S
C93 H70 0.948 . S
C93 C92 1.392 . S
C93 C94 1.419 . S
C94 C93 1.419 . S
C94 C95 1.391 . S
C94 C98 1.397 . S
C95 C90 1.391 . S
C95 C94 1.391 . S
C95 C96 1.399 . S
C96 C95 1.399 . S
C96 C97 1.396 . S
C96 C99 1.453 . S
C96 C100 1.684 . S
C97 C87 1.723 . S
C97 C96 1.396 . S
C97 C98 1.394 . S
C98 C68 1.723 . S
C98 C94 1.397 . S
C98 C97 1.394 . S
C99 H71 0.982 . S
C99 H75 0.979 . S
C99 H76 0.977 . S
C99 C96 1.453 . S
C100 H72 0.979 . S
C100 H73 0.980 . S
C100 H74 0.983 . S
C100 C96 1.684 . S
H101 C119 0.948 . S
H102 C60 0.948 . S
H103 C78 0.979 . S
H104 C78 0.980 . S
H105 C78 0.983 . S
H106 C77 0.982 . S
H107 C77 0.979 . S
H108 C77 0.977 . S
H109 C79 0.948 . S
H110 C81 0.947 . S
H111 C82 0.948 . S
H112 C88 0.982 . S
H113 C88 0.979 . S
H114 C88 0.977 . S
H115 C89 0.979 . S
H116 C89 0.980 . S
H117 C89 0.983 . S
H118 C62 0.947 . S
C119 C62 1.392 . S
C119 C63 1.419 . S
C119 H101 0.948 . S
C120 C121 1.391 . S
C120 C124 1.391 . S
C120 H162 0.948 . S
C121 C120 1.391 . S
C121 C122 1.391 . S
C122 C121 1.391 . S
C122 H178 0.947 . S
C122 C179 1.392 . S
C123 C124 1.391 . S
C123 C127 1.397 . S
C123 C179 1.419 . S
C124 C120 1.391 . S
C124 C123 1.391 . S
C124 C125 1.399 . S
C125 C124 1.399 . S
C125 C128 1.396 . S
C125 C137 1.453 . S
C125 C138 1.684 . S
H126 C150 0.948 . S
C127 C123 1.397 . S
C127 C128 1.394 . S
C127 C146 1.723 . S
C128 C125 1.396 . S
C128 C127 1.394 . S
C128 C158 1.723 . S
H129 C152 0.947 . S
H130 C153 0.948 . S
H131 C159 0.982 . S
H132 C160 0.979 . S
H133 C160 0.980 . S
H134 C160 0.983 . S
H135 C159 0.979 . S
H136 C159 0.977 . S
C137 C125 1.453 . S
C137 H166 0.982 . S
C137 H167 0.979 . S
C137 H168 0.977 . S
C138 C125 1.684 . S
C138 H163 0.979 . S
C138 H164 0.980 . S
C138 H165 0.983 . S
C139 C140 1.391 . S
C139 C144 1.391 . S
C139 H169 0.948 . S
C140 C139 1.391 . S
C140 C141 1.391 . S
C141 C140 1.391 . S
C141 C142 1.392 . S
C141 H170 0.947 . S
C142 C141 1.392 . S
C142 C143 1.419 . S
C142 H171 0.948 . S
C143 C142 1.419 . S
C143 C144 1.391 . S
C143 C147 1.397 . S
C144 C139 1.391 . S
C144 C143 1.391 . S
C144 C145 1.399 . S
C145 C144 1.399 . S
C145 C146 1.396 . S
C145 C148 1.453 . S
C145 C149 1.684 . S
C146 C127 1.723 . S
C146 C145 1.396 . S
C146 C147 1.394 . S
C147 C143 1.397 . S
C147 C146 1.394 . S
C147 C157 1.723 . S
C148 C145 1.453 . S
C148 H172 0.982 . S
C148 H173 0.979 . S
C148 H174 0.977 . S
C149 C145 1.684 . S
C149 H175 0.979 . S
C149 H176 0.980 . S
C149 H177 0.983 . S
C150 H126 0.948 . S
C150 C151 1.391 . S
C150 C155 1.391 . S
C151 C150 1.391 . S
C151 C152 1.391 . S
C152 H129 0.947 . S
C152 C151 1.391 . S
C152 C153 1.392 . S
C153 H130 0.948 . S
C153 C152 1.392 . S
C153 C154 1.419 . S
C154 C153 1.419 . S
C154 C155 1.391 . S
C154 C158 1.397 . S
C155 C150 1.391 . S
C155 C154 1.391 . S
C155 C156 1.399 . S
C156 C155 1.399 . S
C156 C157 1.396 . S
C156 C159 1.453 . S
C156 C160 1.684 . S
C157 C147 1.723 . S
C157 C156 1.396 . S
C157 C158 1.394 . S
C158 C128 1.723 . S
C158 C154 1.397 . S
C158 C157 1.394 . S
C159 H131 0.982 . S
C159 H135 0.979 . S
C159 H136 0.977 . S
C159 C156 1.453 . S
C160 H132 0.979 . S
C160 H133 0.980 . S
C160 H134 0.983 . S
C160 C156 1.684 . S
H161 C179 0.948 . S
H162 C120 0.948 . S
H163 C138 0.979 . S
H164 C138 0.980 . S
H165 C138 0.983 . S
H166 C137 0.982 . S
H167 C137 0.979 . S
H168 C137 0.977 . S
H169 C139 0.948 . S
H170 C141 0.947 . S
H171 C142 0.948 . S
H172 C148 0.982 . S
H173 C148 0.979 . S
H174 C148 0.977 . S
H175 C149 0.979 . S
H176 C149 0.980 . S
H177 C149 0.983 . S
H178 C122 0.947 . S
C179 C122 1.392 . S
C179 C123 1.419 . S
C179 H161 0.948 . S
C180 C181 1.391 . S
C180 C184 1.391 . S
C180 H222 0.948 . S
C181 C180 1.391 . S
C181 C182 1.391 . S
C182 C181 1.391 . S
C182 H238 0.947 . S
C182 C239 1.392 . S
C183 C184 1.391 . S
C183 C187 1.397 . S
C183 C239 1.419 . S
C184 C180 1.391 . S
C184 C183 1.391 . S
C184 C185 1.399 . S
C185 C184 1.399 . S
C185 C188 1.396 . S
C185 C197 1.453 . S
C185 C198 1.684 . S
H186 C210 0.948 . S
C187 C183 1.397 . S
C187 C188 1.394 . S
C187 C206 1.723 . S
C188 C185 1.396 . S
C188 C187 1.394 . S
C188 C218 1.723 . S
H189 C212 0.947 . S
H190 C213 0.948 . S
H191 C219 0.982 . S
H192 C220 0.979 . S
H193 C220 0.980 . S
H194 C220 0.983 . S
H195 C219 0.979 . S
H196 C219 0.977 . S
C197 C185 1.453 . S
C197 H226 0.982 . S
C197 H227 0.979 . S
C197 H228 0.977 . S
C198 C185 1.684 . S
C198 H223 0.979 . S
C198 H224 0.980 . S
C198 H225 0.983 . S
C199 C200 1.391 . S
C199 C204 1.391 . S
C199 H229 0.948 . S
C200 C199 1.391 . S
C200 C201 1.391 . S
C201 C200 1.391 . S
C201 C202 1.392 . S
C201 H230 0.947 . S
C202 C201 1.392 . S
C202 C203 1.419 . S
C202 H231 0.948 . S
C203 C202 1.419 . S
C203 C204 1.391 . S
C203 C207 1.397 . S
C204 C199 1.391 . S
C204 C203 1.391 . S
C204 C205 1.399 . S
C205 C204 1.399 . S
C205 C206 1.396 . S
C205 C208 1.453 . S
C205 C209 1.684 . S
C206 C187 1.723 . S
C206 C205 1.396 . S
C206 C207 1.394 . S
C207 C203 1.397 . S
C207 C206 1.394 . S
C207 C217 1.723 . S
C208 C205 1.453 . S
C208 H232 0.982 . S
C208 H233 0.979 . S
C208 H234 0.977 . S
C209 C205 1.684 . S
C209 H235 0.979 . S
C209 H236 0.980 . S
C209 H237 0.983 . S
C210 H186 0.948 . S
C210 C211 1.391 . S
C210 C215 1.391 . S
C211 C210 1.391 . S
C211 C212 1.391 . S
C212 H189 0.947 . S
C212 C211 1.391 . S
C212 C213 1.392 . S
C213 H190 0.948 . S
C213 C212 1.392 . S
C213 C214 1.419 . S
C214 C213 1.419 . S
C214 C215 1.391 . S
C214 C218 1.397 . S
C215 C210 1.391 . S
C215 C214 1.391 . S
C215 C216 1.399 . S
C216 C215 1.399 . S
C216 C217 1.396 . S
C216 C219 1.453 . S
C216 C220 1.684 . S
C217 C207 1.723 . S
C217 C216 1.396 . S
C217 C218 1.394 . S
C218 C188 1.723 . S
C218 C214 1.397 . S
C218 C217 1.394 . S
C219 H191 0.982 . S
C219 H195 0.979 . S
C219 H196 0.977 . S
C219 C216 1.453 . S
C220 H192 0.979 . S
C220 H193 0.980 . S
C220 H194 0.983 . S
C220 C216 1.684 . S
H221 C239 0.948 . S
H222 C180 0.948 . S
H223 C198 0.979 . S
H224 C198 0.980 . S
H225 C198 0.983 . S
H226 C197 0.982 . S
H227 C197 0.979 . S
H228 C197 0.977 . S
H229 C199 0.948 . S
H230 C201 0.947 . S
H231 C202 0.948 . S
H232 C208 0.982 . S
H233 C208 0.979 . S
H234 C208 0.977 . S
H235 C209 0.979 . S
H236 C209 0.980 . S
H237 C209 0.983 . S
H238 C182 0.947 . S
C239 C182 1.392 . S
C239 C183 1.419 . S
C239 H221 0.948 . S
C240 C241 1.391 . S
C240 C244 1.391 . S
C240 H282 0.948 . S
C241 C240 1.391 . S
C241 C242 1.391 . S
C242 C241 1.391 . S
C242 H298 0.947 . S
C242 C299 1.392 . S
C243 C244 1.391 . S
C243 C247 1.397 . S
C243 C299 1.419 . S
C244 C240 1.391 . S
C244 C243 1.391 . S
C244 C245 1.399 . S
C245 C244 1.399 . S
C245 C248 1.396 . S
C245 C257 1.453 . S
C245 C258 1.684 . S
H246 C270 0.948 . S
C247 C243 1.397 . S
C247 C248 1.394 . S
C247 C266 1.723 . S
C248 C245 1.396 . S
C248 C247 1.394 . S
C248 C278 1.723 . S
H249 C272 0.947 . S
H250 C273 0.948 . S
H251 C279 0.982 . S
H252 C280 0.979 . S
H253 C280 0.980 . S
H254 C280 0.983 . S
H255 C279 0.979 . S
H256 C279 0.977 . S
C257 C245 1.453 . S
C257 H286 0.982 . S
C257 H287 0.979 . S
C257 H288 0.977 . S
C258 C245 1.684 . S
C258 H283 0.979 . S
C258 H284 0.980 . S
C258 H285 0.983 . S
C259 C260 1.391 . S
C259 C264 1.391 . S
C259 H289 0.948 . S
C260 C259 1.391 . S
C260 C261 1.391 . S
C261 C260 1.391 . S
C261 C262 1.392 . S
C261 H290 0.947 . S
C262 C261 1.392 . S
C262 C263 1.419 . S
C262 H291 0.948 . S
C263 C262 1.419 . S
C263 C264 1.391 . S
C263 C267 1.397 . S
C264 C259 1.391 . S
C264 C263 1.391 . S
C264 C265 1.399 . S
C265 C264 1.399 . S
C265 C266 1.396 . S
C265 C268 1.453 . S
C265 C269 1.684 . S
C266 C247 1.723 . S
C266 C265 1.396 . S
C266 C267 1.394 . S
C267 C263 1.397 . S
C267 C266 1.394 . S
C267 C277 1.723 . S
C268 C265 1.453 . S
C268 H292 0.982 . S
C268 H293 0.979 . S
C268 H294 0.977 . S
C269 C265 1.684 . S
C269 H295 0.979 . S
C269 H296 0.980 . S
C269 H297 0.983 . S
C270 H246 0.948 . S
C270 C271 1.391 . S
C270 C275 1.391 . S
C271 C270 1.391 . S
C271 C272 1.391 . S
C272 H249 0.947 . S
C272 C271 1.391 . S
C272 C273 1.392 . S
C273 H250 0.948 . S
C273 C272 1.392 . S
C273 C274 1.419 . S
C274 C273 1.419 . S
C274 C275 1.391 . S
C274 C278 1.397 . S
C275 C270 1.391 . S
C275 C274 1.391 . S
C275 C276 1.399 . S
C276 C275 1.399 . S
C276 C277 1.396 . S
C276 C279 1.453 . S
C276 C280 1.684 . S
C277 C267 1.723 . S
C277 C276 1.396 . S
C277 C278 1.394 . S
C278 C248 1.723 . S
C278 C274 1.397 . S
C278 C277 1.394 . S
C279 H251 0.982 . S
C279 H255 0.979 . S
C279 H256 0.977 . S
C279 C276 1.453 . S
C280 H252 0.979 . S
C280 H253 0.980 . S
C280 H254 0.983 . S
C280 C276 1.684 . S
H281 C299 0.948 . S
H282 C240 0.948 . S
H283 C258 0.979 . S
H284 C258 0.980 . S
H285 C258 0.983 . S
H286 C257 0.982 . S
H287 C257 0.979 . S
H288 C257 0.977 . S
H289 C259 0.948 . S
H290 C261 0.947 . S
H291 C262 0.948 . S
H292 C268 0.982 . S
H293 C268 0.979 . S
H294 C268 0.977 . S
H295 C269 0.979 . S
H296 C269 0.980 . S
H297 C269 0.983 . S
H298 C242 0.947 . S
C299 C242 1.392 . S
C299 C243 1.419 . S
C299 H281 0.948 . S
C300 C301 1.391 . S
C300 C304 1.391 . S
C300 H342 0.948 . S
C301 C300 1.391 . S
C301 C302 1.391 . S
C302 C301 1.391 . S
C302 H358 0.947 . S
C302 C359 1.392 . S
C303 C304 1.391 . S
C303 C307 1.397 . S
C303 C359 1.419 . S
C304 C300 1.391 . S
C304 C303 1.391 . S
C304 C305 1.399 . S
C305 C304 1.399 . S
C305 C308 1.396 . S
C305 C317 1.453 . S
C305 C318 1.684 . S
H306 C330 0.948 . S
C307 C303 1.397 . S
C307 C308 1.394 . S
C307 C326 1.723 . S
C308 C305 1.396 . S
C308 C307 1.394 . S
C308 C338 1.723 . S
H309 C332 0.947 . S
H310 C333 0.948 . S
H311 C339 0.982 . S
H312 C340 0.979 . S
H313 C340 0.980 . S
H314 C340 0.983 . S
H315 C339 0.979 . S
H316 C339 0.977 . S
C317 C305 1.453 . S
C317 H346 0.982 . S
C317 H347 0.979 . S
C317 H348 0.977 . S
C318 C305 1.684 . S
C318 H343 0.979 . S
C318 H344 0.980 . S
C318 H345 0.983 . S
C319 C320 1.391 . S
C319 C324 1.391 . S
C319 H349 0.948 . S
C320 C319 1.391 . S
C320 C321 1.391 . S
C321 C320 1.391 . S
C321 C322 1.392 . S
C321 H350 0.947 . S
C322 C321 1.392 . S
C322 C323 1.419 . S
C322 H351 0.948 . S
C323 C322 1.419 . S
C323 C324 1.391 . S
C323 C327 1.397 . S
C324 C319 1.391 . S
C324 C323 1.391 . S
C324 C325 1.399 . S
C325 C324 1.399 . S
C325 C326 1.396 . S
C325 C328 1.453 . S
C325 C329 1.684 . S
C326 C307 1.723 . S
C326 C325 1.396 . S
C326 C327 1.394 . S
C327 C323 1.397 . S
C327 C326 1.394 . S
C327 C337 1.723 . S
C328 C325 1.453 . S
C328 H352 0.982 . S
C328 H353 0.979 . S
C328 H354 0.977 . S
C329 C325 1.684 . S
C329 H355 0.979 . S
C329 H356 0.980 . S
C329 H357 0.983 . S
C330 H306 0.948 . S
C330 C331 1.391 . S
C330 C335 1.391 . S
C331 C330 1.391 . S
C331 C332 1.391 . S
C332 H309 0.947 . S
C332 C331 1.391 . S
C332 C333 1.392 . S
C333 H310 0.948 . S
C333 C332 1.392 . S
C333 C334 1.419 . S
C334 C333 1.419 . S
C334 C335 1.391 . S
C334 C338 1.397 . S
C335 C330 1.391 . S
C335 C334 1.391 . S
C335 C336 1.399 . S
C336 C335 1.399 . S
C336 C337 1.396 . S
C336 C339 1.453 . S
C336 C340 1.684 . S
C337 C327 1.723 . S
C337 C336 1.396 . S
C337 C338 1.394 . S
C338 C308 1.723 . S
C338 C334 1.397 . S
C338 C337 1.394 . S
C339 H311 0.982 . S
C339 H315 0.979 . S
C339 H316 0.977 . S
C339 C336 1.453 . S
C340 H312 0.979 . S
C340 H313 0.980 . S
C340 H314 0.983 . S
C340 C336 1.684 . S
H341 C359 0.948 . S
H342 C300 0.948 . S
H343 C318 0.979 . S
H344 C318 0.980 . S
H345 C318 0.983 . S
H346 C317 0.982 . S
H347 C317 0.979 . S
H348 C317 0.977 . S
H349 C319 0.948 . S
H350 C321 0.947 . S
H351 C322 0.948 . S
H352 C328 0.982 . S
H353 C328 0.979 . S
H354 C328 0.977 . S
H355 C329 0.979 . S
H356 C329 0.980 . S
H357 C329 0.983 . S
H358 C302 0.947 . S
C359 C302 1.392 . S
C359 C303 1.419 . S
C359 H341 0.948 . S
C360 C361 1.391 . S
C360 C364 1.391 . S
C360 H402 0.948 . S
C361 C360 1.391 . S
C361 C362 1.391 . S
C362 C361 1.391 . S
C362 H418 0.947 . S
C362 C419 1.392 . S
C363 C364 1.391 . S
C363 C367 1.397 . S
C363 C419 1.419 . S
C364 C360 1.391 . S
C364 C363 1.391 . S
C364 C365 1.399 . S
C365 C364 1.399 . S
C365 C368 1.396 . S
C365 C377 1.453 . S
C365 C378 1.684 . S
H366 C390 0.948 . S
C367 C363 1.397 . S
C367 C368 1.394 . S
C367 C386 1.723 . S
C368 C365 1.396 . S
C368 C367 1.394 . S
C368 C398 1.723 . S
H369 C392 0.947 . S
H370 C393 0.948 . S
H371 C399 0.982 . S
H372 C400 0.979 . S
H373 C400 0.980 . S
H374 C400 0.983 . S
H375 C399 0.979 . S
H376 C399 0.977 . S
C377 C365 1.453 . S
C377 H406 0.982 . S
C377 H407 0.979 . S
C377 H408 0.977 . S
C378 C365 1.684 . S
C378 H403 0.979 . S
C378 H404 0.980 . S
C378 H405 0.983 . S
C379 C380 1.391 . S
C379 C384 1.391 . S
C379 H409 0.948 . S
C380 C379 1.391 . S
C380 C381 1.391 . S
C381 C380 1.391 . S
C381 C382 1.392 . S
C381 H410 0.947 . S
C382 C381 1.392 . S
C382 C383 1.419 . S
C382 H411 0.948 . S
C383 C382 1.419 . S
C383 C384 1.391 . S
C383 C387 1.397 . S
C384 C379 1.391 . S
C384 C383 1.391 . S
C384 C385 1.399 . S
C385 C384 1.399 . S
C385 C386 1.396 . S
C385 C388 1.453 . S
C385 C389 1.684 . S
C386 C367 1.723 . S
C386 C385 1.396 . S
C386 C387 1.394 . S
C387 C383 1.397 . S
C387 C386 1.394 . S
C387 C397 1.723 . S
C388 C385 1.453 . S
C388 H412 0.982 . S
C388 H413 0.979 . S
C388 H414 0.977 . S
C389 C385 1.684 . S
C389 H415 0.979 . S
C389 H416 0.980 . S
C389 H417 0.983 . S
C390 H366 0.948 . S
C390 C391 1.391 . S
C390 C395 1.391 . S
C391 C390 1.391 . S
C391 C392 1.391 . S
C392 H369 0.947 . S
C392 C391 1.391 . S
C392 C393 1.392 . S
C393 H370 0.948 . S
C393 C392 1.392 . S
C393 C394 1.419 . S
C394 C393 1.419 . S
C394 C395 1.391 . S
C394 C398 1.397 . S
C395 C390 1.391 . S
C395 C394 1.391 . S
C395 C396 1.399 . S
C396 C395 1.399 . S
C396 C397 1.396 . S
C396 C399 1.453 . S
C396 C400 1.684 . S
C397 C387 1.723 . S
C397 C396 1.396 . S
C397 C398 1.394 . S
C398 C368 1.723 . S
C398 C394 1.397 . S
C398 C397 1.394 . S
C399 H371 0.982 . S
C399 H375 0.979 . S
C399 H376 0.977 . S
C399 C396 1.453 . S
C400 H372 0.979 . S
C400 H373 0.980 . S
C400 H374 0.983 . S
C400 C396 1.684 . S
H401 C419 0.948 . S
H402 C360 0.948 . S
H403 C378 0.979 . S
H404 C378 0.980 . S
H405 C378 0.983 . S
H406 C377 0.982 . S
H407 C377 0.979 . S
H408 C377 0.977 . S
H409 C379 0.948 . S
H410 C381 0.947 . S
H411 C382 0.948 . S
H412 C388 0.982 . S
H413 C388 0.979 . S
H414 C388 0.977 . S
H415 C389 0.979 . S
H416 C389 0.980 . S
H417 C389 0.983 . S
H418 C362 0.947 . S
C419 C362 1.392 . S
C419 C363 1.419 . S
C419 H401 0.948 . S
C420 C421 1.391 . S
C420 C424 1.391 . S
C420 H462 0.948 . S
C421 C420 1.391 . S
C421 C422 1.391 . S
C422 C421 1.391 . S
C422 H478 0.947 . S
C422 C479 1.392 . S
C423 C424 1.391 . S
C423 C427 1.397 . S
C423 C479 1.419 . S
C424 C420 1.391 . S
C424 C423 1.391 . S
C424 C425 1.399 . S
C425 C424 1.399 . S
C425 C428 1.396 . S
C425 C437 1.453 . S
C425 C438 1.684 . S
H426 C450 0.948 . S
C427 C423 1.397 . S
C427 C428 1.394 . S
C427 C446 1.723 . S
C428 C425 1.396 . S
C428 C427 1.394 . S
C428 C458 1.723 . S
H429 C452 0.947 . S
H430 C453 0.948 . S
H431 C459 0.982 . S
H432 C460 0.979 . S
H433 C460 0.980 . S
H434 C460 0.983 . S
H435 C459 0.979 . S
H436 C459 0.977 . S
C437 C425 1.453 . S
C437 H466 0.982 . S
C437 H467 0.979 . S
C437 H468 0.977 . S
C438 C425 1.684 . S
C438 H463 0.979 . S
C438 H464 0.980 . S
C438 H465 0.983 . S
C439 C440 1.391 . S
C439 C444 1.391 . S
C439 H469 0.948 . S
C440 C439 1.391 . S
C440 C441 1.391 . S
C441 C440 1.391 . S
C441 C442 1.392 . S
C441 H470 0.947 . S
C442 C441 1.392 . S
C442 C443 1.419 . S
C442 H471 0.948 . S
C443 C442 1.419 . S
C443 C444 1.391 . S
C443 C447 1.397 . S
C444 C439 1.391 . S
C444 C443 1.391 . S
C444 C445 1.399 . S
C445 C444 1.399 . S
C445 C446 1.396 . S
C445 C448 1.453 . S
C445 C449 1.684 . S
C446 C427 1.723 . S
C446 C445 1.396 . S
C446 C447 1.394 . S
C447 C443 1.397 . S
C447 C446 1.394 . S
C447 C457 1.723 . S
C448 C445 1.453 . S
C448 H472 0.982 . S
C448 H473 0.979 . S
C448 H474 0.977 . S
C449 C445 1.684 . S
C449 H475 0.979 . S
C449 H476 0.980 . S
C449 H477 0.983 . S
C450 H426 0.948 . S
C450 C451 1.391 . S
C450 C455 1.391 . S
C451 C450 1.391 . S
C451 C452 1.391 . S
C452 H429 0.947 . S
C452 C451 1.391 . S
C452 C453 1.392 . S
C453 H430 0.948 . S
C453 C452 1.392 . S
C453 C454 1.419 . S
C454 C453 1.419 . S
C454 C455 1.391 . S
C454 C458 1.397 . S
C455 C450 1.391 . S
C455 C454 1.391 . S
C455 C456 1.399 . S
C456 C455 1.399 . S
C456 C457 1.396 . S
C456 C459 1.453 . S
C456 C460 1.684 . S
C457 C447 1.723 . S
C457 C456 1.396 . S
C457 C458 1.394 . S
C458 C428 1.723 . S
C458 C454 1.397 . S
C458 C457 1.394 . S
C459 H431 0.982 . S
C459 H435 0.979 . S
C459 H436 0.977 . S
C459 C456 1.453 . S
C460 H432 0.979 . S
C460 H433 0.980 . S
C460 H434 0.983 . S
C460 C456 1.684 . S
H461 C479 0.948 . S
H462 C420 0.948 . S
H463 C438 0.979 . S
H464 C438 0.980 . S
H465 C438 0.983 . S
H466 C437 0.982 . S
H467 C437 0.979 . S
H468 C437 0.977 . S
H469 C439 0.948 . S
H470 C441 0.947 . S
H471 C442 0.948 . S
H472 C448 0.982 . S
H473 C448 0.979 . S
H474 C448 0.977 . S
H475 C449 0.979 . S
H476 C449 0.980 . S
H477 C449 0.983 . S
H478 C422 0.947 . S
C479 C422 1.392 . S
C479 C423 1.419 . S
C479 H461 0.948 . S
Dy480 O484 2.398 . S
Dy480 O485 2.491 . S
Dy480 O486 2.403 1_545 S
Dy480 O487 2.664 1_545 S
Dy480 O491 2.326 . S
Dy480 O495 2.310 1_455 S
Dy480 O496 2.351 1_445 S
C481 O492 1.185 . S
C481 O493 1.355 . S
C482 O484 1.185 . S
C482 O485 1.355 . S
Dy483 O487 2.310 1_655 S
Dy483 O490 2.351 1_665 S
Dy483 O492 2.398 . S
Dy483 O493 2.491 . S
Dy483 O494 2.403 1_565 S
Dy483 O495 2.664 1_565 S
Dy483 O497 2.326 . S
O484 Dy480 2.398 . S
O484 C482 1.185 . S
O485 Dy480 2.491 . S
O485 C482 1.355 . S
O486 Dy480 2.403 1_565 S
O486 C488 1.254 . S
O487 Dy480 2.664 1_565 S
O487 Dy483 2.310 1_455 S
O487 C488 1.268 . S
C488 O486 1.254 . S
C488 O487 1.268 . S
C489 O494 1.254 . S
C489 O495 1.268 . S
O490 Dy483 2.351 1_445 S
O490 C498 1.249 . S
O491 Dy480 2.326 . S
O491 C498 1.267 . S
O492 C481 1.185 . S
O492 Dy483 2.398 . S
O493 C481 1.355 . S
O493 Dy483 2.491 . S
O494 Dy483 2.403 1_545 S
O494 C489 1.254 . S
O495 Dy480 2.310 1_655 S
O495 Dy483 2.664 1_545 S
O495 C489 1.268 . S
O496 Dy480 2.351 1_665 S
O496 C499 1.249 . S
O497 Dy483 2.326 . S
O497 C499 1.267 . S
C498 O490 1.249 . S
C498 O491 1.267 . S
C499 O496 1.249 . S
C499 O497 1.267 . S
Dy500 O504 2.398 . S
Dy500 O505 2.491 . S
Dy500 O506 2.403 1_545 S
Dy500 O507 2.664 1_545 S
Dy500 O511 2.326 . S
Dy500 O515 2.310 1_554 S
Dy500 O516 2.351 1_544 S
C501 O512 1.185 . S
C501 O513 1.355 . S
C502 O504 1.185 . S
C502 O505 1.355 . S
Dy503 O507 2.310 1_556 S
Dy503 O510 2.351 1_566 S
Dy503 O512 2.398 . S
Dy503 O513 2.491 . S
Dy503 O514 2.403 1_565 S
Dy503 O515 2.664 1_565 S
Dy503 O517 2.326 . S
O504 Dy500 2.398 . S
O504 C502 1.185 . S
O505 Dy500 2.491 . S
O505 C502 1.355 . S
O506 Dy500 2.403 1_565 S
O506 C508 1.254 . S
O507 Dy500 2.664 1_565 S
O507 Dy503 2.310 1_554 S
O507 C508 1.268 . S
C508 O506 1.254 . S
C508 O507 1.268 . S
C509 O514 1.254 . S
C509 O515 1.268 . S
O510 Dy503 2.351 1_544 S
O510 C518 1.249 . S
O511 Dy500 2.326 . S
O511 C518 1.267 . S
O512 C501 1.185 . S
O512 Dy503 2.398 . S
O513 C501 1.355 . S
O513 Dy503 2.491 . S
O514 Dy503 2.403 1_545 S
O514 C509 1.254 . S
O515 Dy500 2.310 1_556 S
O515 Dy503 2.664 1_545 S
O515 C509 1.268 . S
O516 Dy500 2.351 1_566 S
O516 C519 1.249 . S
O517 Dy503 2.326 . S
O517 C519 1.267 . S
C518 O510 1.249 . S
C518 O511 1.267 . S
C519 O516 1.249 . S
C519 O517 1.267 . S
Dy520 O524 2.398 . S
Dy520 O525 2.491 . S
Dy520 O526 2.403 . S
Dy520 O527 2.664 . S
Dy520 O531 2.326 . S
Dy520 O535 2.310 . S
Dy520 O536 2.351 . S
C521 O532 1.185 . S
C521 O533 1.355 . S
C522 O524 1.185 . S
C522 O525 1.355 . S
Dy523 O527 2.310 . S
Dy523 O530 2.351 . S
Dy523 O532 2.398 . S
Dy523 O533 2.491 . S
Dy523 O534 2.403 . S
Dy523 O535 2.664 . S
Dy523 O537 2.326 . S
O524 Dy520 2.398 . S
O524 C522 1.185 . S
O525 Dy520 2.491 . S
O525 C522 1.355 . S
O526 Dy520 2.403 . S
O526 C528 1.254 . S
O527 Dy520 2.664 . S
O527 Dy523 2.310 . S
O527 C528 1.268 . S
C528 O526 1.254 . S
C528 O527 1.268 . S
C529 O534 1.254 . S
C529 O535 1.268 . S
O530 Dy523 2.351 . S
O530 C538 1.249 . S
O531 Dy520 2.326 . S
O531 C538 1.267 . S
O532 C521 1.185 . S
O532 Dy523 2.398 . S
O533 C521 1.355 . S
O533 Dy523 2.491 . S
O534 Dy523 2.403 . S
O534 C529 1.254 . S
O535 Dy520 2.310 . S
O535 Dy523 2.664 . S
O535 C529 1.268 . S
O536 Dy520 2.351 . S
O536 C539 1.249 . S
O537 Dy523 2.326 . S
O537 C539 1.267 . S
C538 O530 1.249 . S
C538 O531 1.267 . S
C539 O536 1.249 . S
C539 O537 1.267 . S
Dy540 O544 2.398 . S
Dy540 O545 2.491 . S
Dy540 O546 2.403 1_455 S
Dy540 O547 2.664 1_455 S
Dy540 O551 2.326 . S
Dy540 O555 2.310 1_554 S
Dy540 O556 2.351 1_454 S
C541 O552 1.185 . S
C541 O553 1.355 . S
C542 O544 1.185 . S
C542 O545 1.355 . S
Dy543 O547 2.310 1_556 S
Dy543 O550 2.351 1_656 S
Dy543 O552 2.398 . S
Dy543 O553 2.491 . S
Dy543 O554 2.403 1_655 S
Dy543 O555 2.664 1_655 S
Dy543 O557 2.326 . S
O544 Dy540 2.398 . S
O544 C542 1.185 . S
O545 Dy540 2.491 . S
O545 C542 1.355 . S
O546 Dy540 2.403 1_655 S
O546 C548 1.254 . S
O547 Dy540 2.664 1_655 S
O547 Dy543 2.310 1_554 S
O547 C548 1.268 . S
C548 O546 1.254 . S
C548 O547 1.268 . S
C549 O554 1.254 . S
C549 O555 1.268 . S
O550 Dy543 2.351 1_454 S
O550 C558 1.249 . S
O551 Dy540 2.326 . S
O551 C558 1.267 . S
O552 C541 1.185 . S
O552 Dy543 2.398 . S
O553 C541 1.355 . S
O553 Dy543 2.491 . S
O554 Dy543 2.403 1_455 S
O554 C549 1.254 . S
O555 Dy540 2.310 1_556 S
O555 Dy543 2.664 1_455 S
O555 C549 1.268 . S
O556 Dy540 2.351 1_656 S
O556 C559 1.249 . S
O557 Dy543 2.326 . S
O557 C559 1.267 . S
C558 O550 1.249 . S
C558 O551 1.267 . S
C559 O556 1.249 . S
C559 O557 1.267 . S
C560 C561 1.363 . S
C560 C566 1.379 . S
C560 N568 1.356 . S
C561 C560 1.363 . S
C561 C567 1.363 . S
C562 C563 1.363 . S
C562 C567 1.379 . S
C562 N569 1.356 . S
C563 C562 1.363 . S
C563 C566 1.363 . S
N564 C566 1.356 . S
N564 H576 0.984 . S
N564 H577 0.985 . S
N565 C567 1.356 . S
N565 H570 0.984 . S
N565 H571 0.985 . S
C566 C560 1.379 . S
C566 C563 1.363 . S
C566 N564 1.356 . S
C567 C561 1.363 . S
C567 C562 1.379 . S
C567 N565 1.356 . S
N568 C560 1.356 . S
N568 H574 0.984 . S
N568 H575 0.984 . S
N569 C562 1.356 . S
N569 H572 0.984 . S
N569 H573 0.985 . S
H570 N565 0.984 . S
H571 N565 0.985 . S
H572 N569 0.984 . S
H573 N569 0.985 . S
H574 N568 0.984 . S
H575 N568 0.984 . S
H576 N564 0.984 . S
H577 N564 0.985 . S
C578 C579 1.363 . S
C578 C584 1.379 . S
C578 N586 1.356 . S
C579 C578 1.363 . S
C579 C585 1.363 . S
C580 C581 1.363 . S
C580 C585 1.379 . S
C580 N587 1.356 . S
C581 C580 1.363 . S
C581 C584 1.363 . S
N582 C584 1.356 . S
N582 H594 0.984 1_565 S
N582 H595 0.985 . S
N583 C585 1.356 . S
N583 H588 0.984 . S
N583 H589 0.985 . S
C584 C578 1.379 . S
C584 C581 1.363 . S
C584 N582 1.356 . S
C585 C579 1.363 . S
C585 C580 1.379 . S
C585 N583 1.356 . S
N586 C578 1.356 . S
N586 H592 0.984 . S
N586 H593 0.984 . S
N587 C580 1.356 . S
N587 H590 0.984 . S
N587 H591 0.985 . S
H588 N583 0.984 . S
H589 N583 0.985 . S
H590 N587 0.984 . S
H591 N587 0.985 . S
H592 N586 0.984 . S
H593 N586 0.984 . S
H594 N582 0.984 1_545 S
H595 N582 0.985 . S
C596 C597 1.363 . S
C596 C602 1.379 . S
C596 N604 1.356 . S
C597 C596 1.363 . S
C597 C603 1.363 . S
C598 C599 1.363 . S
C598 C603 1.379 . S
C598 N605 1.356 . S
C599 C598 1.363 . S
C599 C602 1.363 . S
N600 C602 1.356 . S
N600 H612 0.984 . S
N600 H613 0.985 . S
N601 C603 1.356 . S
N601 H606 0.984 . S
N601 H607 0.985 . S
C602 C596 1.379 . S
C602 C599 1.363 . S
C602 N600 1.356 . S
C603 C597 1.363 . S
C603 C598 1.379 . S
C603 N601 1.356 . S
N604 C596 1.356 . S
N604 H610 0.984 . S
N604 H611 0.984 . S
N605 C598 1.356 . S
N605 H608 0.984 . S
N605 H609 0.985 . S
H606 N601 0.984 . S
H607 N601 0.985 . S
H608 N605 0.984 . S
H609 N605 0.985 . S
H610 N604 0.984 . S
H611 N604 0.984 . S
H612 N600 0.984 . S
H613 N600 0.985 . S
C614 C615 1.363 . S
C614 C620 1.379 . S
C614 N622 1.356 . S
C615 C614 1.363 . S
C615 C621 1.363 . S
C616 C617 1.363 . S
C616 C621 1.379 . S
C616 N623 1.356 . S
C617 C616 1.363 . S
C617 C620 1.363 . S
N618 C620 1.356 . S
N618 H630 0.984 1_655 S
N618 H631 0.985 . S
N619 C621 1.356 . S
N619 H624 0.984 . S
N619 H625 0.985 . S
C620 C614 1.379 . S
C620 C617 1.363 . S
C620 N618 1.356 . S
C621 C615 1.363 . S
C621 C616 1.379 . S
C621 N619 1.356 . S
N622 C614 1.356 . S
N622 H628 0.984 . S
N622 H629 0.984 . S
N623 C616 1.356 . S
N623 H626 0.984 . S
N623 H627 0.985 . S
H624 N619 0.984 . S
H625 N619 0.985 . S
H626 N623 0.984 . S
H627 N623 0.985 . S
H628 N622 0.984 . S
H629 N622 0.984 . S
H630 N618 0.984 1_455 S
H631 N618 0.985 . S
C632 C633 1.363 . S
C632 C638 1.379 . S
C632 N640 1.356 . S
C633 C632 1.363 . S
C633 C639 1.363 . S
C634 C635 1.363 . S
C634 C639 1.379 . S
C634 N641 1.356 . S
C635 C634 1.363 . S
C635 C638 1.363 . S
N636 C638 1.356 . S
N636 H648 0.984 . S
N636 H649 0.985 . S
N637 C639 1.356 . S
N637 H642 0.984 . S
N637 H643 0.985 . S
C638 C632 1.379 . S
C638 C635 1.363 . S
C638 N636 1.356 . S
C639 C633 1.363 . S
C639 C634 1.379 . S
C639 N637 1.356 . S
N640 C632 1.356 . S
N640 H646 0.984 . S
N640 H647 0.984 . S
N641 C634 1.356 . S
N641 H644 0.984 . S
N641 H645 0.985 . S
H642 N637 0.984 . S
H643 N637 0.985 . S
H644 N641 0.984 . S
H645 N641 0.985 . S
H646 N640 0.984 . S
H647 N640 0.984 . S
H648 N636 0.984 . S
H649 N636 0.985 . S
C650 C651 1.363 . S
C650 C656 1.379 . S
C650 N658 1.356 . S
C651 C650 1.363 . S
C651 C657 1.363 . S
C652 C653 1.363 . S
C652 C657 1.379 . S
C652 N659 1.356 . S
C653 C652 1.363 . S
C653 C656 1.363 . S
N654 C656 1.356 . S
N654 H666 0.984 . S
N654 H667 0.985 . S
N655 C657 1.356 . S
N655 H660 0.984 . S
N655 H661 0.985 . S
C656 C650 1.379 . S
C656 C653 1.363 . S
C656 N654 1.356 . S
C657 C651 1.363 . S
C657 C652 1.379 . S
C657 N655 1.356 . S
N658 C650 1.356 . S
N658 H664 0.984 . S
N658 H665 0.984 . S
N659 C652 1.356 . S
N659 H662 0.984 . S
N659 H663 0.985 . S
H660 N655 0.984 . S
H661 N655 0.985 . S
H662 N659 0.984 . S
H663 N659 0.985 . S
H664 N658 0.984 . S
H665 N658 0.984 . S
H666 N654 0.984 . S
H667 N654 0.985 . S
C668 C669 1.363 . S
C668 C674 1.379 . S
C668 N676 1.356 . S
C669 C668 1.363 . S
C669 C675 1.363 . S
C670 C671 1.363 . S
C670 C675 1.379 . S
C670 N677 1.356 1_556 S
C671 C670 1.363 . S
C671 C674 1.363 . S
N672 C674 1.356 . S
N672 H684 0.984 . S
N672 H685 0.985 . S
N673 C675 1.356 . S
N673 H678 0.984 . S
N673 H679 0.985 . S
C674 C668 1.379 . S
C674 C671 1.363 . S
C674 N672 1.356 . S
C675 C669 1.363 . S
C675 C670 1.379 . S
C675 N673 1.356 . S
N676 C668 1.356 . S
N676 H682 0.984 . S
N676 H683 0.984 . S
N677 C670 1.356 1_554 S
N677 H680 0.984 . S
N677 H681 0.985 . S
H678 N673 0.984 . S
H679 N673 0.985 . S
H680 N677 0.984 . S
H681 N677 0.985 . S
H682 N676 0.984 . S
H683 N676 0.984 . S
H684 N672 0.984 . S
H685 N672 0.985 . S
C686 C687 1.363 . S
C686 C692 1.379 . S
C686 N694 1.356 . S
C687 C686 1.363 . S
C687 C693 1.363 . S
C688 C689 1.363 . S
C688 C693 1.379 . S
C688 N695 1.356 . S
C689 C688 1.363 . S
C689 C692 1.363 . S
N690 C692 1.356 . S
N690 H702 0.984 . S
N690 H703 0.985 . S
N691 C693 1.356 . S
N691 H696 0.984 . S
N691 H697 0.985 . S
C692 C686 1.379 . S
C692 C689 1.363 . S
C692 N690 1.356 . S
C693 C687 1.363 . S
C693 C688 1.379 . S
C693 N691 1.356 . S
N694 C686 1.356 . S
N694 H700 0.984 . S
N694 H701 0.984 . S
N695 C688 1.356 . S
N695 H698 0.984 . S
N695 H699 0.985 . S
H696 N691 0.984 . S
H697 N691 0.985 . S
H698 N695 0.984 . S
H699 N695 0.985 . S
H700 N694 0.984 . S
H701 N694 0.984 . S
H702 N690 0.984 . S
H703 N690 0.985 . S
C704 C705 1.363 . S
C704 C710 1.379 . S
C704 N712 1.356 . S
C705 C704 1.363 . S
C705 C711 1.363 . S
C706 C707 1.363 . S
C706 C711 1.379 . S
C706 N713 1.356 . S
C707 C706 1.363 . S
C707 C710 1.363 . S
N708 C710 1.356 . S
N708 H720 0.984 . S
N708 H721 0.985 . S
N709 C711 1.356 . S
N709 H714 0.984 . S
N709 H715 0.985 . S
C710 C704 1.379 . S
C710 C707 1.363 . S
C710 N708 1.356 . S
C711 C705 1.363 . S
C711 C706 1.379 . S
C711 N709 1.356 . S
N712 C704 1.356 . S
N712 H718 0.984 . S
N712 H719 0.984 . S
N713 C706 1.356 . S
N713 H716 0.984 . S
N713 H717 0.985 . S
H714 N709 0.984 . S
H715 N709 0.985 . S
H716 N713 0.984 . S
H717 N713 0.985 . S
H718 N712 0.984 . S
H719 N712 0.984 . S
H720 N708 0.984 . S
H721 N708 0.985 . S
C722 C723 1.363 . S
C722 C728 1.379 . S
C722 N730 1.356 . S
C723 C722 1.363 . S
C723 C729 1.363 . S
C724 C725 1.363 . S
C724 C729 1.379 . S
C724 N731 1.356 . S
C725 C724 1.363 . S
C725 C728 1.363 . S
N726 C728 1.356 1_554 S
N726 H738 0.984 . S
N726 H739 0.985 . S
N727 C729 1.356 . S
N727 H732 0.984 . S
N727 H733 0.985 . S
C728 C722 1.379 . S
C728 C725 1.363 . S
C728 N726 1.356 1_556 S
C729 C723 1.363 . S
C729 C724 1.379 . S
C729 N727 1.356 . S
N730 C722 1.356 . S
N730 H736 0.984 . S
N730 H737 0.984 . S
N731 C724 1.356 . S
N731 H734 0.984 . S
N731 H735 0.985 . S
H732 N727 0.984 . S
H733 N727 0.985 . S
H734 N731 0.984 . S
H735 N731 0.985 . S
H736 N730 0.984 . S
H737 N730 0.984 . S
H738 N726 0.984 . S
H739 N726 0.985 . S
C740 C741 1.363 . S
C740 C746 1.379 . S
C740 N748 1.356 . S
C741 C740 1.363 . S
C741 C747 1.363 . S
C742 C743 1.363 . S
C742 C747 1.379 . S
C742 N749 1.370 . S
C743 C742 1.363 . S
C743 C746 1.363 . S
N744 C746 1.356 . S
N744 H756 0.984 . S
N744 H757 0.985 . S
N745 C747 1.356 . S
N745 H750 0.984 . S
N745 H751 0.985 . S
C746 C740 1.379 . S
C746 C743 1.363 . S
C746 N744 1.356 . S
C747 C741 1.363 . S
C747 C742 1.379 . S
C747 N745 1.356 . S
N748 C740 1.356 . S
N748 H754 0.984 . S
N748 H755 0.984 . S
N749 C742 1.370 . S
N749 H752 0.984 1_655 S
N749 H753 0.971 1_655 S
H750 N745 0.984 . S
H751 N745 0.985 . S
H752 N749 0.984 1_455 S
H753 N749 0.971 1_455 S
H754 N748 0.984 . S
H755 N748 0.984 . S
H756 N744 0.984 . S
H757 N744 0.985 . S
C758 C759 1.363 . S
C758 C764 1.379 . S
C758 N766 1.356 . S
C759 C758 1.363 . S
C759 C765 1.363 . S
C760 C761 1.363 . S
C760 C765 1.379 . S
C760 N767 1.356 . S
C761 C760 1.363 . S
C761 C764 1.363 . S
N762 C764 1.356 . S
N762 H774 0.984 . S
N762 H775 0.985 . S
N763 C765 1.356 . S
N763 H768 0.984 . S
N763 H769 0.985 . S
C764 C758 1.379 . S
C764 C761 1.363 . S
C764 N762 1.356 . S
C765 C759 1.363 . S
C765 C760 1.379 . S
C765 N763 1.356 . S
N766 C758 1.356 . S
N766 H772 0.984 . S
N766 H773 0.984 . S
N767 C760 1.356 . S
N767 H770 0.984 . S
N767 H771 0.985 . S
H768 N763 0.984 . S
H769 N763 0.985 . S
H770 N767 0.984 . S
H771 N767 0.985 . S
H772 N766 0.984 . S
H773 N766 0.984 . S
H774 N762 0.984 . S
H775 N762 0.985 . S
C776 C777 1.363 . S
C776 C782 1.379 . S
C776 N784 1.356 . S
C777 C776 1.363 . S
C777 C783 1.363 . S
C778 C779 1.363 . S
C778 C783 1.379 . S
C778 N785 1.356 . S
C779 C778 1.363 . S
C779 C782 1.363 . S
N780 C782 1.356 . S
N780 H792 0.984 . S
N780 H793 0.985 . S
N781 C783 1.356 . S
N781 H786 0.984 . S
N781 H787 0.985 . S
C782 C776 1.379 . S
C782 C779 1.363 . S
C782 N780 1.356 . S
C783 C777 1.363 . S
C783 C778 1.379 . S
C783 N781 1.356 . S
N784 C776 1.356 . S
N784 H790 0.984 . S
N784 H791 0.984 . S
N785 C778 1.356 . S
N785 H788 0.984 . S
N785 H789 0.985 . S
H786 N781 0.984 . S
H787 N781 0.985 . S
H788 N785 0.984 . S
H789 N785 0.985 . S
H790 N784 0.984 . S
H791 N784 0.984 . S
H792 N780 0.984 . S
H793 N780 0.985 . S
C794 C795 1.363 . S
C794 C800 1.379 . S
C794 N802 1.356 . S
C795 C794 1.363 . S
C795 C801 1.363 . S
C796 C797 1.363 . S
C796 C801 1.379 . S
C796 N803 1.356 . S
C797 C796 1.363 . S
C797 C800 1.363 . S
N798 C800 1.356 . S
N798 H810 0.984 . S
N798 H811 0.985 . S
N799 C801 1.356 . S
N799 H804 0.984 . S
N799 H805 0.985 1_545 S
C800 C794 1.379 . S
C800 C797 1.363 . S
C800 N798 1.356 . S
C801 C795 1.363 . S
C801 C796 1.379 . S
C801 N799 1.356 . S
N802 C794 1.356 . S
N802 H808 0.984 . S
N802 H809 0.984 . S
N803 C796 1.356 . S
N803 H806 0.984 . S
N803 H807 0.985 1_545 S
H804 N799 0.984 . S
H805 N799 0.985 1_565 S
H806 N803 0.984 . S
H807 N803 0.985 1_565 S
H808 N802 0.984 . S
H809 N802 0.984 . S
H810 N798 0.984 . S
H811 N798 0.985 . S
C812 C813 1.363 . S
C812 C818 1.379 . S
C812 N820 1.356 . S
C813 C812 1.363 . S
C813 C819 1.363 . S
C814 C815 1.363 . S
C814 C819 1.379 . S
C814 N821 1.356 . S
C815 C814 1.363 . S
C815 C818 1.363 . S
N816 C818 1.356 . S
N816 H828 0.984 . S
N816 H829 0.985 . S
N817 C819 1.356 . S
N817 H822 0.984 . S
N817 H823 0.985 . S
C818 C812 1.379 . S
C818 C815 1.363 . S
C818 N816 1.356 . S
C819 C813 1.363 . S
C819 C814 1.379 . S
C819 N817 1.356 . S
N820 C812 1.356 . S
N820 H826 0.984 . S
N820 H827 0.984 . S
N821 C814 1.356 . S
N821 H824 0.984 . S
N821 H825 0.985 . S
H822 N817 0.984 . S
H823 N817 0.985 . S
H824 N821 0.984 . S
H825 N821 0.985 . S
H826 N820 0.984 . S
H827 N820 0.984 . S
H828 N816 0.984 . S
H829 N816 0.985 . S
C830 C831 1.363 . S
C830 C836 1.379 . S
C830 N838 1.356 . S
C831 C830 1.363 . S
C831 C837 1.363 . S
C832 C833 1.363 . S
C832 C837 1.379 . S
C832 N839 1.356 . S
C833 C832 1.363 . S
C833 C836 1.363 . S
N834 C836 1.356 1_655 S
N834 H846 0.984 . S
N834 H847 0.985 . S
N835 C837 1.356 . S
N835 H840 0.984 . S
N835 H841 0.985 . S
C836 C830 1.379 . S
C836 C833 1.363 . S
C836 N834 1.356 1_455 S
C837 C831 1.363 . S
C837 C832 1.379 . S
C837 N835 1.356 . S
N838 C830 1.356 . S
N838 H844 0.984 1_455 S
N838 H845 0.984 . S
N839 C832 1.356 . S
N839 H842 0.984 . S
N839 H843 0.985 . S
H840 N835 0.984 . S
H841 N835 0.985 . S
H842 N839 0.984 . S
H843 N839 0.985 . S
H844 N838 0.984 1_655 S
H845 N838 0.984 . S
H846 N834 0.984 . S
H847 N834 0.985 . S
C848 C849 1.363 . S
C848 C854 1.379 . S
C848 N856 1.356 . S
C849 C848 1.363 . S
C849 C855 1.363 . S
C850 C851 1.363 . S
C850 C855 1.379 . S
C850 N857 1.356 . S
C851 C850 1.363 . S
C851 C854 1.363 . S
N852 C854 1.356 . S
N852 H864 0.984 . S
N852 H865 0.985 . S
N853 C855 1.356 . S
N853 H858 0.984 . S
N853 H859 0.985 . S
C854 C848 1.379 . S
C854 C851 1.363 . S
C854 N852 1.356 . S
C855 C849 1.363 . S
C855 C850 1.379 . S
C855 N853 1.356 . S
N856 C848 1.356 . S
N856 H862 0.984 . S
N856 H863 0.984 . S
N857 C850 1.356 . S
N857 H860 0.984 . S
N857 H861 0.985 . S
H858 N853 0.984 . S
H859 N853 0.985 . S
H860 N857 0.984 . S
H861 N857 0.985 . S
H862 N856 0.984 . S
H863 N856 0.984 . S
H864 N852 0.984 . S
H865 N852 0.985 . S
C866 C867 1.363 . S
C866 C872 1.379 . S
C866 N874 1.356 . S
C867 C866 1.363 . S
C867 C873 1.363 . S
C868 C869 1.363 . S
C868 C873 1.379 . S
C868 N875 1.356 . S
C869 C868 1.363 . S
C869 C872 1.363 . S
N870 C872 1.356 . S
N870 H882 0.984 . S
N870 H883 0.985 . S
N871 C873 1.356 . S
N871 H876 0.984 . S
N871 H877 0.985 . S
C872 C866 1.379 . S
C872 C869 1.363 . S
C872 N870 1.356 . S
C873 C867 1.363 . S
C873 C868 1.379 . S
C873 N871 1.356 . S
N874 C866 1.356 . S
N874 H880 0.984 . S
N874 H881 0.984 . S
N875 C868 1.356 . S
N875 H878 0.984 . S
N875 H879 0.985 1_545 S
H876 N871 0.984 . S
H877 N871 0.985 . S
H878 N875 0.984 . S
H879 N875 0.985 1_565 S
H880 N874 0.984 . S
H881 N874 0.984 . S
H882 N870 0.984 . S
H883 N870 0.985 . S
C884 C885 1.363 . S
C884 C890 1.379 . S
C884 N892 1.356 . S
C885 C884 1.363 . S
C885 C891 1.363 . S
C886 C887 1.363 . S
C886 C891 1.379 . S
C886 N893 1.356 . S
C887 C886 1.363 . S
C887 C890 1.363 . S
N888 C890 1.356 . S
N888 H900 0.984 . S
N888 H901 0.985 . S
N889 C891 1.356 . S
N889 H894 0.984 . S
N889 H895 0.985 . S
C890 C884 1.379 . S
C890 C887 1.363 . S
C890 N888 1.356 . S
C891 C885 1.363 . S
C891 C886 1.379 . S
C891 N889 1.356 . S
N892 C884 1.356 . S
N892 H898 0.984 . S
N892 H899 0.984 . S
N893 C886 1.356 . S
N893 H896 0.984 . S
N893 H897 0.985 . S
H894 N889 0.984 . S
H895 N889 0.985 . S
H896 N893 0.984 . S
H897 N893 0.985 . S
H898 N892 0.984 . S
H899 N892 0.984 . S
H900 N888 0.984 . S
H901 N888 0.985 . S
C902 C903 1.363 . S
C902 C908 1.379 . S
C902 N910 1.356 . S
C903 C902 1.363 . S
C903 C909 1.363 . S
C904 C905 1.363 . S
C904 C909 1.379 . S
C904 N911 1.356 . S
C905 C904 1.363 . S
C905 C908 1.363 . S
N906 C908 1.356 . S
N906 H918 0.984 . S
N906 H919 0.985 . S
N907 C909 1.356 . S
N907 H912 0.984 . S
N907 H913 0.985 . S
C908 C902 1.379 . S
C908 C905 1.363 . S
C908 N906 1.356 . S
C909 C903 1.363 . S
C909 C904 1.379 . S
C909 N907 1.356 . S
N910 C902 1.356 . S
N910 H916 0.984 . S
N910 H917 0.984 . S
N911 C904 1.356 . S
N911 H914 0.984 . S
N911 H915 0.985 . S
H912 N907 0.984 . S
H913 N907 0.985 . S
H914 N911 0.984 . S
H915 N911 0.985 . S
H916 N910 0.984 . S
H917 N910 0.984 . S
H918 N906 0.984 . S
H919 N906 0.985 . S
C920 C921 1.363 . S
C920 C926 1.379 . S
C920 N928 1.356 . S
C921 C920 1.363 . S
C921 C927 1.363 . S
C922 C923 1.363 . S
C922 C927 1.379 . S
C922 N929 1.356 . S
C923 C922 1.363 . S
C923 C926 1.363 . S
N924 C926 1.356 . S
N924 H936 0.984 . S
N924 H937 0.985 . S
N925 C927 1.356 . S
N925 H930 0.984 . S
N925 H931 0.985 . S
C926 C920 1.379 . S
C926 C923 1.363 . S
C926 N924 1.356 . S
C927 C921 1.363 . S
C927 C922 1.379 . S
C927 N925 1.356 . S
N928 C920 1.356 . S
N928 H934 0.984 . S
N928 H935 0.984 . S
N929 C922 1.356 . S
N929 H932 0.984 . S
N929 H933 0.985 . S
H930 N925 0.984 . S
H931 N925 0.985 . S
H932 N929 0.984 . S
H933 N929 0.985 . S
H934 N928 0.984 . S
H935 N928 0.984 . S
H936 N924 0.984 . S
H937 N924 0.985 . S
C938 C939 1.363 . S
C938 C944 1.379 . S
C938 N946 1.356 . S
C939 C938 1.363 . S
C939 C945 1.363 . S
C940 C941 1.363 . S
C940 C945 1.379 . S
C940 N947 1.356 . S
C941 C940 1.363 . S
C941 C944 1.363 . S
N942 C944 1.356 . S
N942 H954 0.984 . S
N942 H955 0.985 . S
N943 C945 1.356 . S
N943 H948 0.984 . S
N943 H949 0.985 . S
C944 C938 1.379 . S
C944 C941 1.363 . S
C944 N942 1.356 . S
C945 C939 1.363 . S
C945 C940 1.379 . S
C945 N943 1.356 . S
N946 C938 1.356 . S
N946 H952 0.984 . S
N946 H953 0.984 . S
N947 C940 1.356 . S
N947 H950 0.985 . S
N947 H951 0.985 1_554 S
H948 N943 0.984 . S
H949 N943 0.985 . S
H950 N947 0.985 . S
H951 N947 0.985 1_556 S
H952 N946 0.984 . S
H953 N946 0.984 . S
H954 N942 0.984 . S
H955 N942 0.985 . S
C956 C957 1.363 . S
C956 C962 1.379 . S
C956 N964 1.356 . S
C957 C956 1.363 . S
C957 C963 1.363 . S
C958 C959 1.363 . S
C958 C963 1.379 . S
C958 N965 1.356 . S
C959 C958 1.363 . S
C959 C962 1.363 . S
N960 C962 1.356 . S
N960 H972 0.984 . S
N960 H973 0.985 . S
N961 C963 1.356 . S
N961 H966 0.984 . S
N961 H967 0.985 . S
C962 C956 1.379 . S
C962 C959 1.363 . S
C962 N960 1.356 . S
C963 C957 1.363 . S
C963 C958 1.379 . S
C963 N961 1.356 . S
N964 C956 1.356 . S
N964 H970 0.984 . S
N964 H971 0.984 . S
N965 C958 1.356 . S
N965 H968 0.984 . S
N965 H969 0.985 . S
H966 N961 0.984 . S
H967 N961 0.985 . S
H968 N965 0.984 . S
H969 N965 0.985 . S
H970 N964 0.984 . S
H971 N964 0.984 . S
H972 N960 0.984 . S
H973 N960 0.985 . S
C974 C975 1.363 . S
C974 C980 1.379 . S
C974 N982 1.356 . S
C975 C974 1.363 . S
C975 C981 1.363 . S
C976 C977 1.363 . S
C976 C981 1.379 . S
C976 N983 1.356 . S
C977 C976 1.363 . S
C977 C980 1.363 . S
N978 C980 1.356 . S
N978 H990 0.984 . S
N978 H991 0.985 . S
N979 C981 1.356 . S
N979 H984 0.984 . S
N979 H985 0.985 . S
C980 C974 1.379 . S
C980 C977 1.363 . S
C980 N978 1.356 . S
C981 C975 1.363 . S
C981 C976 1.379 . S
C981 N979 1.356 . S
N982 C974 1.356 . S
N982 H988 0.984 . S
N982 H989 0.984 . S
N983 C976 1.356 . S
N983 H986 0.984 . S
N983 H987 0.985 . S
H984 N979 0.984 . S
H985 N979 0.985 . S
H986 N983 0.984 . S
H987 N983 0.985 . S
H988 N982 0.984 . S
H989 N982 0.984 . S
H990 N978 0.984 . S
H991 N978 0.985 . S
C561 C1 1.461 . S
C563 C482 1.601 . S
C579 C80 1.294 . S
C581 C501 1.321 . S
C599 C538 1.760 . S
C597 C140 1.747 . S
C615 C211 1.714 . S
C617 C548 1.693 . S
C635 C518 2.025 . S
C633 C31 1.818 . S
C653 C488 1.387 . S
C651 C61 1.396 . S
C671 C559 1.527 . S
C669 C151 1.540 . S
C689 C529 1.470 . S
C687 C200 1.457 . S
C705 C20 1.670 . S
C707 C542 1.785 . S
C725 C509 1.703 . S
C723 C121 1.747 . S
C741 C181 1.712 . S
C743 C499 1.760 . S
C759 C91 1.279 . S
C761 C521 1.292 . S
C779 C481 1.604 . S
C777 C260 1.486 . S
C795 C320 1.294 . S
C797 C502 1.315 . S
C813 C361 1.761 . S
C815 C539 1.760 . S
C831 C451 1.714 . S
C833 C549 1.696 . S
C849 C271 1.886 . S
C851 C519 2.028 . S
C869 C489 1.387 . S
C867 C301 1.398 . S
C887 C558 1.527 . S
C885 C380 1.526 . S
C905 C528 1.470 . S
C903 C440 1.457 . S
C921 C241 1.617 . S
C923 C541 1.791 . S
C941 C508 1.703 . S
C939 C391 1.753 . S
C959 C498 1.758 . S
C957 C421 1.709 . S
C975 C331 1.279 . S
C977 C522 1.292 . S
