# Generated by pormake.
# Topology ctn, (3,4)-cn, num edge types: 1
# Building blocks:
#     Node 0, Type 0, BuildingBlock: BETDAH_clean_linker_0, # of connection points: 3
#     Node 1, Type 0, BuildingBlock: BETDAH_clean_linker_0, # of connection points: 3
#     Node 2, Type 0, BuildingBlock: BETDAH_clean_linker_0, # of connection points: 3
#     Node 3, Type 0, BuildingBlock: BETDAH_clean_linker_0, # of connection points: 3
#     Node 4, Type 0, BuildingBlock: BETDAH_clean_linker_0, # of connection points: 3
#     Node 5, Type 0, BuildingBlock: BETDAH_clean_linker_0, # of connection points: 3
#     Node 6, Type 0, BuildingBlock: BETDAH_clean_linker_0, # of connection points: 3
#     Node 7, Type 0, BuildingBlock: BETDAH_clean_linker_0, # of connection points: 3
#     Node 8, Type 0, BuildingBlock: BETDAH_clean_linker_0, # of connection points: 3
#     Node 9, Type 0, BuildingBlock: BETDAH_clean_linker_0, # of connection points: 3
#     Node 10, Type 0, BuildingBlock: BETDAH_clean_linker_0, # of connection points: 3
#     Node 11, Type 0, BuildingBlock: BETDAH_clean_linker_0, # of connection points: 3
#     Node 12, Type 0, BuildingBlock: BETDAH_clean_linker_0, # of connection points: 3
#     Node 13, Type 0, BuildingBlock: BETDAH_clean_linker_0, # of connection points: 3
#     Node 14, Type 0, BuildingBlock: BETDAH_clean_linker_0, # of connection points: 3
#     Node 15, Type 0, BuildingBlock: BETDAH_clean_linker_0, # of connection points: 3
#     Node 16, Type 1, BuildingBlock: KUFVIS_clean_sbu_0, # of connection points: 4
#     Node 17, Type 1, BuildingBlock: KUFVIS_clean_sbu_0, # of connection points: 4
#     Node 18, Type 1, BuildingBlock: KUFVIS_clean_sbu_0, # of connection points: 4
#     Node 19, Type 1, BuildingBlock: KUFVIS_clean_sbu_0, # of connection points: 4
#     Node 20, Type 1, BuildingBlock: KUFVIS_clean_sbu_0, # of connection points: 4
#     Node 21, Type 1, BuildingBlock: KUFVIS_clean_sbu_0, # of connection points: 4
#     Node 22, Type 1, BuildingBlock: KUFVIS_clean_sbu_0, # of connection points: 4
#     Node 23, Type 1, BuildingBlock: KUFVIS_clean_sbu_0, # of connection points: 4
#     Node 24, Type 1, BuildingBlock: KUFVIS_clean_sbu_0, # of connection points: 4
#     Node 25, Type 1, BuildingBlock: KUFVIS_clean_sbu_0, # of connection points: 4
#     Node 26, Type 1, BuildingBlock: KUFVIS_clean_sbu_0, # of connection points: 4
#     Node 27, Type 1, BuildingBlock: KUFVIS_clean_sbu_0, # of connection points: 4
#     Edge 28, Type (0, 1), BuildingBlock: AJUNOK_clean_linker_0, # of connection points: 2
#     Edge 29, Type (0, 1), BuildingBlock: AJUNOK_clean_linker_0, # of connection points: 2
#     Edge 30, Type (0, 1), BuildingBlock: AJUNOK_clean_linker_0, # of connection points: 2
#     Edge 31, Type (0, 1), BuildingBlock: AJUNOK_clean_linker_0, # of connection points: 2
#     Edge 32, Type (0, 1), BuildingBlock: AJUNOK_clean_linker_0, # of connection points: 2
#     Edge 33, Type (0, 1), BuildingBlock: AJUNOK_clean_linker_0, # of connection points: 2
#     Edge 34, Type (0, 1), BuildingBlock: AJUNOK_clean_linker_0, # of connection points: 2
#     Edge 35, Type (0, 1), BuildingBlock: AJUNOK_clean_linker_0, # of connection points: 2
#     Edge 36, Type (0, 1), BuildingBlock: AJUNOK_clean_linker_0, # of connection points: 2
#     Edge 37, Type (0, 1), BuildingBlock: AJUNOK_clean_linker_0, # of connection points: 2
#     Edge 38, Type (0, 1), BuildingBlock: AJUNOK_clean_linker_0, # of connection points: 2
#     Edge 39, Type (0, 1), BuildingBlock: AJUNOK_clean_linker_0, # of connection points: 2
#     Edge 40, Type (0, 1), BuildingBlock: AJUNOK_clean_linker_0, # of connection points: 2
#     Edge 41, Type (0, 1), BuildingBlock: AJUNOK_clean_linker_0, # of connection points: 2
#     Edge 42, Type (0, 1), BuildingBlock: AJUNOK_clean_linker_0, # of connection points: 2
#     Edge 43, Type (0, 1), BuildingBlock: AJUNOK_clean_linker_0, # of connection points: 2
#     Edge 44, Type (0, 1), BuildingBlock: AJUNOK_clean_linker_0, # of connection points: 2
#     Edge 45, Type (0, 1), BuildingBlock: AJUNOK_clean_linker_0, # of connection points: 2
#     Edge 46, Type (0, 1), BuildingBlock: AJUNOK_clean_linker_0, # of connection points: 2
#     Edge 47, Type (0, 1), BuildingBlock: AJUNOK_clean_linker_0, # of connection points: 2
#     Edge 48, Type (0, 1), BuildingBlock: AJUNOK_clean_linker_0, # of connection points: 2
#     Edge 49, Type (0, 1), BuildingBlock: AJUNOK_clean_linker_0, # of connection points: 2
#     Edge 50, Type (0, 1), BuildingBlock: AJUNOK_clean_linker_0, # of connection points: 2
#     Edge 51, Type (0, 1), BuildingBlock: AJUNOK_clean_linker_0, # of connection points: 2
#     Edge 52, Type (0, 1), BuildingBlock: AJUNOK_clean_linker_0, # of connection points: 2
#     Edge 53, Type (0, 1), BuildingBlock: AJUNOK_clean_linker_0, # of connection points: 2
#     Edge 54, Type (0, 1), BuildingBlock: AJUNOK_clean_linker_0, # of connection points: 2
#     Edge 55, Type (0, 1), BuildingBlock: AJUNOK_clean_linker_0, # of connection points: 2
#     Edge 56, Type (0, 1), BuildingBlock: AJUNOK_clean_linker_0, # of connection points: 2
#     Edge 57, Type (0, 1), BuildingBlock: AJUNOK_clean_linker_0, # of connection points: 2
#     Edge 58, Type (0, 1), BuildingBlock: AJUNOK_clean_linker_0, # of connection points: 2
#     Edge 59, Type (0, 1), BuildingBlock: AJUNOK_clean_linker_0, # of connection points: 2
#     Edge 60, Type (0, 1), BuildingBlock: AJUNOK_clean_linker_0, # of connection points: 2
#     Edge 61, Type (0, 1), BuildingBlock: AJUNOK_clean_linker_0, # of connection points: 2
#     Edge 62, Type (0, 1), BuildingBlock: AJUNOK_clean_linker_0, # of connection points: 2
#     Edge 63, Type (0, 1), BuildingBlock: AJUNOK_clean_linker_0, # of connection points: 2
#     Edge 64, Type (0, 1), BuildingBlock: AJUNOK_clean_linker_0, # of connection points: 2
#     Edge 65, Type (0, 1), BuildingBlock: AJUNOK_clean_linker_0, # of connection points: 2
#     Edge 66, Type (0, 1), BuildingBlock: AJUNOK_clean_linker_0, # of connection points: 2
#     Edge 67, Type (0, 1), BuildingBlock: AJUNOK_clean_linker_0, # of connection points: 2
#     Edge 68, Type (0, 1), BuildingBlock: AJUNOK_clean_linker_0, # of connection points: 2
#     Edge 69, Type (0, 1), BuildingBlock: AJUNOK_clean_linker_0, # of connection points: 2
#     Edge 70, Type (0, 1), BuildingBlock: AJUNOK_clean_linker_0, # of connection points: 2
#     Edge 71, Type (0, 1), BuildingBlock: AJUNOK_clean_linker_0, # of connection points: 2
#     Edge 72, Type (0, 1), BuildingBlock: AJUNOK_clean_linker_0, # of connection points: 2
#     Edge 73, Type (0, 1), BuildingBlock: AJUNOK_clean_linker_0, # of connection points: 2
#     Edge 74, Type (0, 1), BuildingBlock: AJUNOK_clean_linker_0, # of connection points: 2
#     Edge 75, Type (0, 1), BuildingBlock: AJUNOK_clean_linker_0, # of connection points: 2
# Relax obj value: 0.061
# Max RMSD: 0.155
# Mean RMSD: 0.104
data_MOF--net-ctn--node1-KUFVIS_clean_sbu_0--node2-BETDAH_clean_linker_0--edge1-AJUNOK_clean_linker_0
_symmetry_space_group_name_H-M    P1
_symmetry_Int_Tables_number       1
_symmetry_cell_setting            triclinic
loop_
_symmetry_equiv_pos_as_xyz
'x, y, z'
_cell_length_a     38.432146
_cell_length_b     38.072356
_cell_length_c     38.878349
_cell_angle_alpha  100.27304
_cell_angle_beta   90.401846
_cell_angle_gamma 96.789909
loop_
_atom_site_label
_atom_site_type_symbol
_atom_site_fract_x
_atom_site_fract_y
_atom_site_fract_z
_atom_type_partial_charge
H0 H 0.10191 0.99073 0.12208 0.0
H1 H 0.10264 0.03674 0.02803 0.0
H2 H 0.0216 0.05437 0.10181 0.0
C3 C 0.09125 1.00754 0.10594 0.0
C4 C 0.06133 0.02404 0.11699 0.0
C5 C 0.10672 1.01196 0.07383 0.0
C6 C 0.09155 0.03319 0.05291 0.0
C7 C 0.06082 0.04825 0.06307 0.0
C8 C 0.04588 0.04339 0.09476 0.0
N9 N 0.04197 0.0647 0.04021 0.0
C10 C 0.05634 0.09197 0.02327 0.0
H11 H 0.36365 0.67113 0.27867 0.0
H12 H 0.4291 0.74905 0.23362 0.0
H13 H 0.32374 0.71509 0.1933 0.0
C14 C 0.3671 0.68887 0.25974 0.0
C15 C 0.33931 0.69072 0.23645 0.0
C16 C 0.39918 0.71041 0.25943 0.0
C17 C 0.40419 0.73254 0.23433 0.0
C18 C 0.37747 0.73437 0.21043 0.0
C19 C 0.34472 0.71356 0.21152 0.0
N20 N 0.38534 0.75742 0.18586 0.0
C21 C 0.36163 0.76951 0.16492 0.0
H22 H 0.07156 0.44817 0.08074 0.0
H23 H 0.02659 0.54662 0.07798 0.0
H24 H 0.01933 0.46272 0.98755 0.0
C25 C 0.05638 0.46436 0.06763 0.0
C26 C 0.04461 0.45082 0.03309 0.0
C27 C 0.05 0.49886 0.08455 0.0
C28 C 0.03148 0.51982 0.06585 0.0
C29 C 0.02078 0.5068 0.03072 0.0
C30 C 0.02775 0.47261 0.01457 0.0
N31 N 1.00644 0.52877 1.00977 0.0
C32 C 0.97679 0.546 0.01774 0.0
H33 H 0.79935 0.85186 0.16461 0.0
H34 H 0.69156 0.80783 0.17022 0.0
H35 H 0.73357 0.90147 0.24359 0.0
C36 C 0.77422 0.85255 0.17701 0.0
C37 C 0.76994 0.88003 0.20543 0.0
C38 C 0.74627 0.82609 0.16432 0.0
C39 C 0.71359 0.82769 0.18003 0.0
C40 C 0.70926 0.85434 0.20894 0.0
C41 C 0.73743 0.88033 0.2218 0.0
N42 N 0.67562 0.85647 0.223 0.0
C43 C 0.66775 0.84913 0.25598 0.0
H44 H 0.10466 0.03828 0.44888 0.0
H45 H 0.10538 1.01441 0.55318 0.0
H46 H 1.0103 0.99288 0.4903 0.0
C47 C 0.09159 0.02753 0.46986 0.0
C48 C 0.05579 1.01495 0.46546 0.0
C49 C 0.10999 0.02819 0.50145 0.0
C50 C 0.092 1.01403 0.52848 0.0
C51 C 0.05614 1.00077 0.52418 0.0
C52 C 0.03812 1.00216 0.49306 0.0
N53 N 0.03669 0.99034 0.55235 0.0
C54 C 0.04128 0.96004 0.56653 0.0
H55 H 0.30335 0.70798 0.88935 0.0
H56 H 0.21673 0.74111 0.83704 0.0
H57 H 0.27604 0.66073 0.78243 0.0
C58 C 0.28641 0.70562 0.86643 0.0
C59 C 0.29282 0.68168 0.83595 0.0
C60 C 0.25905 0.72738 0.86709 0.0
C61 C 0.2373 0.72396 0.83707 0.0
C62 C 0.24328 0.69966 0.80655 0.0
C63 C 0.27124 0.6791 0.80614 0.0
N64 N 0.22251 0.69568 0.7754 0.0
C65 C 0.19168 0.71084 0.77219 0.0
H66 H 0.94498 0.58701 0.55116 0.0
H67 H 0.04238 0.59259 0.4966 0.0
H68 H 0.97369 0.49342 0.48453 0.0
C69 C 0.96363 0.57452 0.53392 0.0
C70 C 0.95583 0.5381 0.51907 0.0
C71 C 0.9957 0.59425 0.52781 0.0
C72 C 0.01824 0.57772 0.50298 0.0
C73 C 1.01004 0.54132 0.48719 0.0
C74 C 0.97954 0.52158 0.4963 0.0
N75 N 0.03293 0.52281 0.46401 0.0
C76 C 0.05098 0.53661 0.43751 0.0
H77 H 0.89635 0.77953 0.84777 0.0
H78 H 0.86565 0.87685 0.82027 0.0
H79 H 0.81889 0.83471 0.90687 0.0
C80 C 0.88093 0.80191 0.85242 0.0
C81 C 0.85749 0.80414 0.87999 0.0
C82 C 0.88464 0.82824 0.83086 0.0
C83 C 0.86307 0.85627 0.83637 0.0
C84 C 0.83927 0.85849 0.86389 0.0
C85 C 0.8373 0.83286 0.88579 0.0
N86 N 0.81788 0.88676 0.87174 0.0
C87 C 0.80519 0.90621 0.84824 0.0
H88 H 0.39651 0.28292 0.3499 0.0
H89 H 0.36279 0.37748 0.31923 0.0
H90 H 0.31467 0.33498 0.40488 0.0
C91 C 0.37982 0.30425 0.35342 0.0
C92 C 0.35514 0.3056 0.37999 0.0
C93 C 0.38299 0.33002 0.33121 0.0
C94 C 0.36047 0.35721 0.33567 0.0
C95 C 0.33592 0.35896 0.36249 0.0
C96 C 0.3339 0.33351 0.38455 0.0
N97 N 0.31359 0.38648 0.36945 0.0
C98 C 0.3021 0.40649 0.34586 0.0
H99 H 0.567 0.94989 0.58459 0.0
H100 H 0.52561 0.0509 0.58556 0.0
H101 H 0.51531 0.96951 0.49313 0.0
C102 C 0.55233 0.96717 0.57236 0.0
C103 C 0.54032 0.95519 0.53767 0.0
C104 C 0.5473 1.00169 0.59032 0.0
C105 C 0.52943 0.02402 0.57267 0.0
C106 C 0.51813 1.01243 0.53756 0.0
C107 C 0.52389 0.97823 0.52026 0.0
N108 N 0.50549 0.03637 0.51774 0.0
C109 C 0.4742 0.05115 0.52381 0.0
H110 H 0.30326 0.35324 0.66425 0.0
H111 H 0.19476 0.31571 0.67803 0.0
H112 H 0.24328 0.41242 0.74258 0.0
C113 C 0.27887 0.35628 0.67767 0.0
C114 C 0.27702 0.38566 0.70489 0.0
C115 C 0.24918 0.33107 0.66738 0.0
C116 C 0.21785 0.33495 0.68543 0.0
C117 C 0.21598 0.36415 0.71264 0.0
C118 C 0.24534 0.38946 0.72205 0.0
N119 N 0.18377 0.37025 0.72848 0.0
C120 C 0.17042 0.35164 0.75402 0.0
H121 H 0.86399 0.16835 0.77836 0.0
H122 H 0.93117 0.24219 0.73003 0.0
H123 H 0.82462 0.2113 0.69209 0.0
C124 C 0.86771 0.18545 0.75888 0.0
C125 C 0.83981 0.18774 0.73591 0.0
C126 C 0.90033 0.20566 0.7575 0.0
C127 C 0.9058 0.22677 0.73159 0.0
C128 C 0.87895 0.22891 0.70792 0.0
C129 C 0.84564 0.20959 0.71019 0.0
N130 N 0.88729 0.25032 0.68205 0.0
C131 C 0.86376 0.26466 0.6628 0.0
H132 H 0.61237 0.50275 0.62265 0.0
H133 H 0.60393 0.52918 0.51965 0.0
H134 H 0.52578 0.55503 0.59443 0.0
C135 C 0.5991 0.5148 0.60385 0.0
C136 C 0.56799 0.52988 0.61317 0.0
C137 C 0.61284 0.51475 0.57024 0.0
C138 C 0.59512 0.53051 0.5462 0.0
C139 C 0.5643 0.5457 0.55533 0.0
C140 C 0.55067 0.54494 0.58845 0.0
N141 N 0.54413 0.55715 0.5298 0.0
C142 C 0.55382 0.58865 0.51709 0.0
H143 H 0.60851 0.53865 0.94916 0.0
H144 H 0.60502 0.51038 0.05174 0.0
H145 H 0.51154 0.49477 0.9869 0.0
C146 C 0.59427 0.528 0.96955 0.0
C147 C 0.55837 0.51653 0.96395 0.0
C148 C 0.6115 0.52759 1.00152 0.0
C149 C 0.59242 0.51206 0.0272 0.0
C150 C 0.55637 0.4999 0.02169 0.0
C151 C 0.53946 0.50325 0.99057 0.0
N152 N 0.53559 0.48834 0.04856 0.0
C153 C 0.541 0.45917 0.06419 0.0
H154 H 0.80082 0.20599 0.38968 0.0
H155 H 0.71697 0.24299 0.33675 0.0
H156 H 0.7735 0.15993 0.28252 0.0
C157 C 0.78424 0.20438 0.36663 0.0
C158 C 0.7901 0.18014 0.33622 0.0
C159 C 0.75803 0.22743 0.36708 0.0
C160 C 0.73667 0.22491 0.33693 0.0
C161 C 0.74208 0.20028 0.30643 0.0
C162 C 0.76906 0.1785 0.30622 0.0
N163 N 0.72182 0.19725 0.2751 0.0
C164 C 0.69139 0.21307 0.27186 0.0
H165 H 0.43943 0.08976 0.05088 0.0
H166 H 0.53764 0.09333 0.99735 0.0
H167 H 0.4666 0.99573 0.98383 0.0
C168 C 0.45794 0.07701 0.03361 0.0
C169 C 0.44939 0.04082 0.01826 0.0
C170 C 0.49063 0.09601 0.02808 0.0
C171 C 0.51304 0.07902 1.00335 0.0
C172 C 0.50412 0.04283 0.98724 0.0
C173 C 0.47296 0.0238 0.99573 0.0
N174 N 0.52694 0.02363 0.96456 0.0
C175 C 0.54695 0.0371 0.93908 0.0
Mn176 Mn 0.27553 0.88186 0.03479 0.0
Mn177 Mn 0.26791 0.91213 0.95898 0.0
C178 C 0.2513 0.84384 0.98484 0.0
C179 C 0.3042 0.85299 0.07294 0.0
C180 C 0.22177 0.9316 0.02066 0.0
O181 O 0.31205 0.92642 0.04168 0.0
O182 O 0.30476 0.94413 0.98976 0.0
C183 C 0.33752 0.89931 0.93054 0.0
N184 N 0.30189 0.8933 0.92735 0.0
C185 C 0.30459 0.85372 0.87199 0.0
C186 C 0.34129 0.85967 0.87462 0.0
C187 C 0.35781 0.88254 0.90404 0.0
C188 C 0.28572 0.87141 0.8991 0.0
H189 H 0.3504 0.91666 0.95319 0.0
C190 C 0.32007 0.94747 0.01986 0.0
O191 O 0.28112 0.87439 0.08393 0.0
O192 O 0.31206 0.85015 0.04025 0.0
N193 N 0.23372 0.88235 0.92707 0.0
C194 C 0.19822 0.87733 0.92971 0.0
C195 C 0.1778 0.85434 0.90285 0.0
C196 C 0.19407 0.83659 0.87365 0.0
C197 C 0.23065 0.84207 0.87155 0.0
C198 C 0.24962 0.86564 0.89891 0.0
H199 H 0.18562 0.89044 0.95232 0.0
O200 O 0.24254 0.83741 0.01552 0.0
O201 O 0.27199 0.87323 0.98477 0.0
O202 O 0.23576 0.91362 0.04052 0.0
O203 O 0.23122 0.93244 0.98935 0.0
C204 C 0.24907 0.82448 0.84371 0.0
C205 C 0.28601 0.83026 0.84396 0.0
H206 H 0.35704 0.84654 0.85439 0.0
H207 H 0.38613 0.8871 0.90635 0.0
H208 H 0.1496 0.85002 0.90481 0.0
H209 H 0.17827 0.81851 0.8532 0.0
H210 H 0.2351 0.80607 0.82222 0.0
H211 H 0.29989 0.81613 0.82269 0.0
Mn212 Mn 0.18557 0.53967 0.2655 0.0
Mn213 Mn 0.15359 0.61948 0.27095 0.0
C214 C 0.21775 0.58719 0.24579 0.0
C215 C 0.21834 0.4999 0.28789 0.0
C216 C 0.12831 0.55433 0.21596 0.0
O217 O 0.14822 0.5371 0.30218 0.0
O218 O 0.1284 0.59076 0.30361 0.0
C219 C 0.17401 0.65325 0.3441 0.0
N220 N 0.17571 0.65372 0.30918 0.0
C221 C 0.20948 0.71223 0.31999 0.0
C222 C 0.20783 0.71245 0.35604 0.0
C223 C 0.19012 0.68277 0.36813 0.0
C224 C 0.19255 0.68225 0.29729 0.0
H225 H 0.16035 0.63063 0.35363 0.0
C226 C 0.12841 0.56082 0.31451 0.0
O227 O 0.19385 0.4885 0.26399 0.0
O228 O 0.22294 0.5343 0.29958 0.0
N229 N 0.17676 0.64993 0.24168 0.0
C230 C 0.1776 0.64468 0.20612 0.0
C231 C 0.19598 0.67101 0.1898 0.0
C232 C 0.21336 0.70244 0.2102 0.0
C233 C 0.21227 0.7072 0.24675 0.0
C234 C 0.19347 0.68005 0.26154 0.0
H235 H 0.16505 0.62024 0.19038 0.0
O236 O 0.22276 0.55425 0.23335 0.0
O237 O 0.19346 0.5913 0.26881 0.0
O238 O 0.14757 0.5331 0.22657 0.0
O239 O 0.12897 0.58729 0.23023 0.0
C240 C 0.22958 0.73755 0.26909 0.0
C241 C 0.22801 0.74017 0.30568 0.0
H242 H 0.22052 0.73501 0.37466 0.0
H243 H 0.18892 0.68263 0.3959 0.0
H244 H 0.19701 0.66694 0.16158 0.0
H245 H 0.22774 0.72256 0.19753 0.0
H246 H 0.24437 0.75894 0.2584 0.0
H247 H 0.2416 0.76354 0.32259 0.0
Mn248 Mn 0.8026 0.6485 0.0157 0.0
Mn249 Mn 0.73255 0.67225 0.97589 0.0
C250 C 0.74786 0.61472 0.01562 0.0
C251 C 0.85336 0.61973 0.01577 0.0
C252 C 0.76282 0.71105 0.04673 0.0
O253 O 0.82491 0.68396 0.98557 0.0
O254 O 0.77649 0.69253 0.95651 0.0
C255 C 0.74006 0.6313 0.90465 0.0
N256 N 0.72023 0.63958 0.93316 0.0
C257 C 0.66891 0.60474 0.9035 0.0
C258 C 0.68871 0.59592 0.87371 0.0
C259 C 0.72453 0.60899 0.87442 0.0
C260 C 0.68607 0.62621 0.93316 0.0
H261 H 0.76743 0.64183 0.90497 0.0
C262 C 0.80964 0.69722 0.96238 0.0
O263 O 0.8485 0.64742 0.03907 0.0
O264 O 0.82887 0.60901 0.99161 0.0
N265 N 0.68759 0.65504 0.99129 0.0
C266 C 0.67232 0.66565 0.02235 0.0
C267 C 0.63668 0.65427 0.02627 0.0
C268 C 0.61681 0.63322 0.99787 0.0
C269 C 0.63285 0.62353 0.96586 0.0
C270 C 0.66866 0.6348 0.96381 0.0
H271 H 0.68719 0.68269 0.04397 0.0
O272 O 0.77226 0.61291 0.03826 0.0
O273 O 0.75644 0.63528 0.99286 0.0
O274 O 0.78565 0.68997 0.04911 0.0
O275 O 0.74233 0.70755 0.02 0.0
C276 C 0.6146 0.6036 0.93574 0.0
C277 C 0.63274 0.59354 0.9048 0.0
H278 H 0.67668 0.5792 0.85017 0.0
H279 H 0.74 0.60228 0.85156 0.0
H280 H 0.62444 0.66214 0.05098 0.0
H281 H 0.58924 0.62484 1.00085 0.0
H282 H 0.58671 0.59514 0.93633 0.0
H283 H 0.61857 0.57733 0.88213 0.0
Mn284 Mn 0.92409 0.03327 0.28995 0.0
Mn285 Mn 0.94395 0.94788 0.27827 0.0
C286 C 0.8877 0.98702 0.25633 0.0
C287 C 0.89513 0.08097 0.31756 0.0
C288 C 0.97963 1.00364 0.23941 0.0
O289 O 0.95902 0.03554 0.33053 0.0
O290 O 0.97106 0.97795 0.3191 0.0
C291 C 0.91354 0.92844 0.34311 0.0
N292 N 0.91511 0.92204 0.30759 0.0
C293 C 0.8709 0.87091 0.3028 0.0
C294 C 0.86898 0.87684 0.33935 0.0
C295 C 0.89036 0.90576 0.35957 0.0
C296 C 0.89462 0.89431 0.28787 0.0
H297 H 0.92978 0.95072 0.35878 0.0
C298 C 0.97519 1.00987 0.33721 0.0
O299 O 0.9224 0.0863 0.29879 0.0
O300 O 0.88648 0.04833 0.32259 0.0
N301 N 0.91918 0.91582 0.23998 0.0
C302 C 0.92311 0.91469 0.205 0.0
C303 C 0.90314 0.88768 0.18111 0.0
C304 C 0.87948 0.86202 0.1934 0.0
C305 C 0.87611 0.86352 0.2295 0.0
C306 C 0.89698 0.89084 0.25208 0.0
H307 H 0.9411 0.93444 0.19537 0.0
O308 O 0.88783 0.01979 0.25131 0.0
O309 O 0.90935 0.98211 0.28033 0.0
O310 O 0.96345 0.02935 0.25439 0.0
O311 O 0.97417 0.97189 0.24623 0.0
C312 C 0.85244 0.83935 0.24398 0.0
C313 C 0.84978 0.84309 0.28059 0.0
H314 H 0.85101 0.85952 0.35214 0.0
H315 H 0.8889 0.91061 0.38778 0.0
H316 H 0.90581 0.88677 0.15329 0.0
H317 H 0.86391 0.84142 0.17489 0.0
H318 H 0.83583 0.81809 0.2272 0.0
H319 H 0.83117 0.82462 0.2914 0.0
Mn320 Mn 0.29945 0.15208 0.51817 0.0
Mn321 Mn 0.23002 0.17607 0.47768 0.0
C322 C 0.24456 0.11839 0.51728 0.0
C323 C 0.34955 0.12224 0.51803 0.0
C324 C 0.25949 0.21477 0.54896 0.0
O325 O 0.3224 0.18721 0.48806 0.0
O326 O 0.27433 0.19668 0.45896 0.0
C327 C 0.23825 0.13561 0.40638 0.0
N328 N 0.21816 0.14355 0.43473 0.0
C329 C 0.16749 0.10761 0.40483 0.0
C330 C 0.18757 0.09926 0.37516 0.0
C331 C 0.2232 0.11305 0.37607 0.0
C332 C 0.18417 0.12955 0.43452 0.0
H333 H 0.26546 0.14649 0.40694 0.0
C334 C 0.30748 0.20087 0.46495 0.0
O335 O 0.34525 0.15001 0.54155 0.0
O336 O 0.325 0.11222 0.4939 0.0
N337 N 0.18497 0.15842 0.49259 0.0
C338 C 0.16945 0.16846 0.52363 0.0
C339 C 0.13399 0.15621 0.5274 0.0
C340 C 0.11459 0.13465 0.49895 0.0
C341 C 0.13091 0.12535 0.46704 0.0
C342 C 0.16649 0.1377 0.46506 0.0
H343 H 0.184 0.18562 0.54538 0.0
O344 O 0.2685 0.11658 0.54039 0.0
O345 O 0.25361 0.13914 0.49484 0.0
O346 O 0.28262 0.19398 0.55162 0.0
O347 O 0.23931 0.21104 0.52198 0.0
C348 C 0.11318 0.10467 0.43698 0.0
C349 C 0.13158 0.09524 0.40608 0.0
H350 H 0.17594 0.0822 0.35161 0.0
H351 H 0.23894 0.1066 0.35335 0.0
H352 H 0.12154 0.1637 0.55207 0.0
H353 H 0.08718 0.12548 0.50186 0.0
H354 H 0.08548 0.0953 0.43752 0.0
H355 H 0.11782 0.07854 0.38343 0.0
Mn356 Mn 0.43089 0.53918 0.78688 0.0
Mn357 Mn 0.45246 0.45435 0.77458 0.0
C358 C 0.39565 0.49244 0.75245 0.0
C359 C 0.40069 0.58576 0.815 0.0
C360 C 0.4874 0.51139 0.73667 0.0
O361 O 0.46568 0.54164 0.82771 0.0
O362 O 0.47847 0.48432 0.81601 0.0
C363 C 0.42147 0.43325 0.83854 0.0
N364 N 0.42359 0.42746 0.80306 0.0
C365 C 0.37989 0.37578 0.79698 0.0
C366 C 0.37742 0.38108 0.83346 0.0
C367 C 0.39828 0.40996 0.85431 0.0
C368 C 0.40364 0.39973 0.78274 0.0
H369 H 0.43728 0.45553 0.85469 0.0
C370 C 0.48202 0.51608 0.83441 0.0
O371 O 0.42789 0.59204 0.79641 0.0
O372 O 0.39274 0.55283 0.81944 0.0
N373 N 0.42867 0.42238 0.73563 0.0
C374 C 0.43321 0.42178 0.70081 0.0
C375 C 0.41377 0.39488 0.67635 0.0
C376 C 0.39 0.36882 0.68792 0.0
C377 C 0.38612 0.36969 0.72388 0.0
C378 C 0.4065 0.39689 0.74704 0.0
H379 H 0.45127 0.44186 0.69172 0.0
O380 O 0.39493 0.52525 0.74785 0.0
O381 O 0.41732 0.48789 0.77657 0.0
O382 O 0.47055 0.5366 0.75156 0.0
O383 O 0.48264 0.47958 0.74344 0.0
C384 C 0.36239 0.34501 0.73765 0.0
C385 C 0.35924 0.34808 0.77417 0.0
H386 H 0.35939 0.36332 0.84573 0.0
H387 H 0.39638 0.41434 0.88248 0.0
H388 H 0.4169 0.39442 0.64864 0.0
H389 H 0.37472 0.3484 0.66898 0.0
H390 H 0.34611 0.32385 0.72037 0.0
H391 H 0.34059 0.32921 0.78443 0.0
Mn392 Mn 0.77894 0.38137 0.53592 0.0
Mn393 Mn 0.77459 0.41225 0.46001 0.0
C394 C 0.75485 0.34398 0.48557 0.0
C395 C 0.80619 0.35229 0.57493 0.0
C396 C 0.72798 0.43325 0.52101 0.0
O397 O 0.8162 0.42564 0.54352 0.0
O398 O 0.81259 0.44213 0.49052 0.0
C399 C 0.84284 0.39501 0.43101 0.0
N400 N 0.8072 0.39117 0.42811 0.0
C401 C 0.80762 0.35139 0.37259 0.0
C402 C 0.84434 0.35508 0.37491 0.0
C403 C 0.86201 0.37696 0.40427 0.0
C404 C 0.78993 0.37026 0.39993 0.0
H405 H 0.85654 0.41161 0.45363 0.0
C406 C 0.8263 0.44568 0.52132 0.0
O407 O 0.7831 0.37388 0.58517 0.0
O408 O 0.81485 0.34921 0.54242 0.0
N409 N 0.73901 0.38449 0.4284 0.0
C410 C 0.70352 0.38195 0.43126 0.0
C411 C 0.68196 0.36017 0.40452 0.0
C412 C 0.69708 0.3412 0.3752 0.0
C413 C 0.73366 0.34432 0.3728 0.0
C414 C 0.75381 0.36672 0.40007 0.0
H415 H 0.69177 0.39626 0.45385 0.0
O416 O 0.74566 0.33739 0.51608 0.0
O417 O 0.77635 0.37291 0.48586 0.0
O418 O 0.73929 0.41325 0.5405 0.0
O419 O 0.73959 0.43523 0.49064 0.0
C420 C 0.75091 0.32554 0.34474 0.0
C421 C 0.78786 0.32903 0.34465 0.0
H422 H 0.85921 0.34095 0.35449 0.0
H423 H 0.89033 0.37977 0.40634 0.0
H424 H 0.65375 0.35778 0.40664 0.0
H425 H 0.68036 0.32407 0.35485 0.0
H426 H 0.73601 0.30796 0.32331 0.0
H427 H 0.80081 0.314 0.32321 0.0
Mn428 Mn 0.68655 0.03853 0.76906 0.0
Mn429 Mn 0.6544 0.11841 0.77581 0.0
C430 C 0.71817 0.0861 0.74909 0.0
C431 C 0.71976 0.99877 0.79096 0.0
C432 C 0.62868 0.05371 0.72052 0.0
O433 O 0.6497 0.03559 0.80603 0.0
O434 O 0.62953 0.08919 0.8083 0.0
C435 C 0.67568 0.15127 0.84898 0.0
N436 N 0.67681 0.15229 0.81414 0.0
C437 C 0.71003 0.21107 0.82534 0.0
C438 C 0.70899 0.21071 0.86132 0.0
C439 C 0.69185 0.18062 0.87316 0.0
C440 C 0.69313 0.1812 0.80248 0.0
H441 H 0.66242 0.12832 0.85831 0.0
C442 C 0.62975 0.05899 0.81869 0.0
O443 O 0.69508 0.98733 0.76726 0.0
O444 O 0.72434 0.03315 0.80264 0.0
N445 N 0.67709 0.14938 0.74674 0.0
C446 C 0.67764 0.14454 0.71119 0.0
C447 C 0.69555 0.17128 0.69505 0.0
C448 C 0.71275 0.2027 0.71563 0.0
C449 C 0.71198 0.20702 0.75217 0.0
C450 C 0.69365 0.17946 0.76678 0.0
H451 H 0.66528 0.12011 0.69531 0.0
O452 O 0.72314 0.05319 0.73649 0.0
O453 O 0.69435 0.09022 0.77264 0.0
O454 O 0.648 0.03222 0.73062 0.0
O455 O 0.62954 0.08659 0.73511 0.0
C456 C 0.72917 0.23732 0.77467 0.0
C457 C 0.72803 0.23945 0.81123 0.0
H458 H 0.7217 0.23316 0.88005 0.0
H459 H 0.69111 0.18004 0.90088 0.0
H460 H 0.69637 0.16753 0.66683 0.0
H461 H 0.72677 0.22315 0.70309 0.0
H462 H 0.74358 0.25903 0.76413 0.0
H463 H 0.74156 0.26276 0.82827 0.0
Mn464 Mn 0.05926 0.25358 0.89349 0.0
Mn465 Mn 0.98283 0.24371 0.93416 0.0
C466 C 1.01032 0.22007 0.86365 0.0
C467 C 0.09569 0.28587 0.8591 0.0
C468 C 0.04576 0.20677 0.94892 0.0
O469 O 0.06492 0.29487 0.93559 0.0
O470 O 1.01018 0.28958 0.95676 0.0
C471 C 0.94894 0.30382 0.91532 0.0
N472 N 0.94892 0.26791 0.91453 0.0
C473 C 0.89509 0.25421 0.88023 0.0
C474 C 0.89443 0.29106 0.88081 0.0
C475 C 0.92146 0.31596 0.89845 0.0
C476 C 0.92292 0.24373 0.89786 0.0
H477 H 0.96987 0.32302 0.92852 0.0
C478 C 0.04131 0.30596 0.95653 0.0
O479 O 0.10833 0.26524 0.87811 0.0
O480 O 0.06251 0.28859 0.86135 0.0
N481 N 0.9546 0.2002 0.91338 0.0
C482 C 0.96019 0.16553 0.9135 0.0
C483 C 0.93599 0.13728 0.89623 0.0
C484 C 0.90643 0.14496 0.87885 0.0
C485 C 0.90126 0.18085 0.87913 0.0
C486 C 0.92591 0.20788 0.89726 0.0
H487 H 0.98304 0.15942 0.92651 0.0
O488 O 0.04149 0.21459 0.85304 0.0
O489 O 1.00948 0.24374 0.89191 0.0
O490 O 0.06515 0.21633 0.92484 0.0
O491 O 0.01573 0.21718 0.95546 0.0
C492 C 0.87303 0.19077 0.86138 0.0
C493 C 0.86984 0.22743 0.86198 0.0
H494 H 0.87351 0.30049 0.86746 0.0
H495 H 0.92125 0.34442 0.89883 0.0
H496 H 0.94028 0.10966 0.89602 0.0
H497 H 0.88809 0.1231 0.86508 0.0
H498 H 0.85409 0.17025 0.84676 0.0
H499 H 0.84822 0.23477 0.84788 0.0
Mn500 Mn 0.55733 0.75884 0.39777 0.0
Mn501 Mn 0.47982 0.74836 0.43637 0.0
C502 C 0.50894 0.72628 0.36614 0.0
C503 C 0.59552 0.79281 0.3664 0.0
C504 C 0.54195 0.71034 0.4514 0.0
O505 O 0.5622 0.79876 0.44091 0.0
O506 O 0.50653 0.79434 0.45976 0.0
C507 C 0.44601 0.80847 0.41735 0.0
N508 N 0.44614 0.77254 0.41634 0.0
C509 C 0.39266 0.75879 0.38145 0.0
C510 C 0.39185 0.79566 0.38227 0.0
C511 C 0.41864 0.82059 0.4003 0.0
C512 C 0.42039 0.74833 0.39925 0.0
H513 H 0.46674 0.82771 0.43088 0.0
C514 C 0.53787 0.81046 0.46051 0.0
O515 O 0.60703 0.77064 0.38437 0.0
O516 O 0.56229 0.79559 0.36736 0.0
N517 N 0.45215 0.70482 0.41469 0.0
C518 C 0.45788 0.67013 0.41457 0.0
C519 C 0.43399 0.64188 0.39682 0.0
C520 C 0.40456 0.64955 0.37925 0.0
C521 C 0.39921 0.68543 0.37981 0.0
C522 C 0.42358 0.71248 0.39838 0.0
H523 H 0.48057 0.66398 0.42778 0.0
O524 O 0.54033 0.72122 0.35593 0.0
O525 O 0.50749 0.74928 0.39479 0.0
O526 O 0.56171 0.72011 0.42769 0.0
O527 O 0.51228 0.7216 0.45809 0.0
C528 C 0.37106 0.69534 0.36196 0.0
C529 C 0.36767 0.73198 0.3628 0.0
H530 H 0.37101 0.80508 0.36881 0.0
H531 H 0.41831 0.84907 0.40086 0.0
H532 H 0.43841 0.61426 0.39641 0.0
H533 H 0.38644 0.62769 0.36513 0.0
H534 H 0.35233 0.6748 0.34707 0.0
H535 H 0.34611 0.73926 0.34855 0.0
Mn536 Mn 0.03141 0.78557 0.66279 0.0
Mn537 Mn 0.99015 0.71156 0.68915 0.0
C538 C 0.02685 0.72964 0.62586 0.0
C539 C 0.03319 0.83712 0.63692 0.0
C540 C 0.06385 0.74437 0.71378 0.0
O541 O 1.0027 0.80725 0.70398 0.0
O542 O 0.9757 0.75577 0.71764 0.0
C543 C 0.91745 0.71854 0.66805 0.0
N544 N 0.94487 0.69878 0.6668 0.0
C545 C 0.90997 0.64657 0.63445 0.0
C546 C 0.88131 0.66633 0.63541 0.0
C547 C 0.88517 0.70257 0.65204 0.0
C548 C 0.9417 0.66419 0.65011 0.0
H549 H 0.92016 0.74616 0.68135 0.0
C550 C 0.98134 0.79008 0.722 0.0
O551 O 0.05681 0.83354 0.65954 0.0
O552 O 1.00765 0.81104 0.62998 0.0
N553 N 1.00093 0.66627 0.66424 0.0
C554 C 0.03132 0.6512 0.66495 0.0
C555 C 0.03212 0.61525 0.6488 0.0
C556 C 1.00145 0.59484 0.63303 0.0
C557 C 0.9703 0.61068 0.63336 0.0
C558 C 0.97129 0.64685 0.64912 0.0
H559 H 0.0548 0.66651 0.67764 0.0
O560 O 0.05112 0.75516 0.62168 0.0
O561 O 1.00569 0.73748 0.65129 0.0
O562 O 0.06553 0.76974 0.69623 0.0
O563 O 0.03667 0.72149 0.71329 0.0
C564 C 0.93821 0.59191 0.61899 0.0
C565 C 0.90821 0.60998 0.61896 0.0
H566 H 0.85623 0.65395 0.62352 0.0
H567 H 0.86318 0.718 0.65291 0.0
H568 H 0.05624 0.60319 0.64882 0.0
H569 H 1.00208 0.56703 0.62085 0.0
H570 H 0.93647 0.5637 0.60721 0.0
H571 H 0.8839 0.59545 0.60705 0.0
Mn572 Mn 0.53022 0.28676 0.16344 0.0
Mn573 Mn 0.48904 0.21314 0.19054 0.0
C574 C 0.52502 0.23068 0.12669 0.0
C575 C 0.53192 0.33816 0.1373 0.0
C576 C 0.56282 0.2462 0.21473 0.0
O577 O 0.50194 0.30864 0.20498 0.0
O578 O 0.47403 0.25739 0.21839 0.0
C579 C 0.41621 0.21883 0.16882 0.0
N580 N 0.44396 0.19956 0.16789 0.0
C581 C 0.41003 0.14695 0.13508 0.0
C582 C 0.38105 0.16621 0.1357 0.0
C583 C 0.38424 0.2024 0.15243 0.0
C584 C 0.44141 0.165 0.15118 0.0
H585 H 0.41842 0.24643 0.18216 0.0
C586 C 0.48011 0.29168 0.2228 0.0
O587 O 0.55571 0.33459 0.15975 0.0
O588 O 0.5062 0.31222 0.13078 0.0
N589 N 0.50055 0.16794 0.16612 0.0
C590 C 0.53112 0.1533 0.16744 0.0
C591 C 0.53256 0.11743 0.15136 0.0
C592 C 0.50233 0.09669 0.13497 0.0
C593 C 0.47096 0.11207 0.13473 0.0
C594 C 0.47129 0.14814 0.15057 0.0
H595 H 0.55426 0.16884 0.18064 0.0
O596 O 0.54929 0.25603 0.12207 0.0
O597 O 0.50432 0.2388 0.15244 0.0
O598 O 0.5647 0.27094 0.19642 0.0
O599 O 0.53539 0.22385 0.21502 0.0
C600 C 0.43928 0.09291 0.11973 0.0
C601 C 0.40896 0.11046 0.11943 0.0
H602 H 0.35622 0.15349 0.12346 0.0
H603 H 0.36199 0.21745 0.15304 0.0
H604 H 0.55682 0.1057 0.15188 0.0
H605 H 0.50346 0.06896 0.12279 0.0
H606 H 0.43809 0.0648 0.10777 0.0
H607 H 0.38495 0.09562 0.10711 0.0
C608 C 0.28575 0.77847 0.91236 0.0
C609 C 0.2556 0.75594 0.898 0.0
C610 C 0.28372 0.80657 0.94051 0.0
C611 C 0.25144 0.81362 0.95528 0.0
H612 H 0.31116 0.77491 0.9013 0.0
H613 H 0.30773 0.82318 0.95062 0.0
S614 S 0.16503 0.76126 0.92938 0.0
N615 N 0.1925 0.74148 0.902 0.0
N616 N 0.18895 0.79467 0.9553 0.0
C617 C 0.22118 0.79077 0.94215 0.0
C618 C 0.22315 0.76207 0.91319 0.0
C619 C 0.08994 0.51796 0.38958 0.0
C620 C 0.06981 0.54373 0.40689 0.0
C621 C 0.10791 0.52329 0.35928 0.0
C622 C 0.10643 0.55469 0.34502 0.0
H623 H 0.0919 0.49342 0.39956 0.0
H624 H 0.12346 0.5027 0.34729 0.0
S625 S 0.05572 0.62991 0.38088 0.0
N626 N 0.04829 0.60114 0.40793 0.0
N627 N 0.08183 0.61173 0.35101 0.0
C628 C 0.08568 0.58051 0.36216 0.0
C629 C 0.06745 0.57491 0.3931 0.0
C630 C 0.83917 0.74007 0.88539 0.0
C631 C 0.85204 0.77535 0.90145 0.0
C632 C 0.82789 0.71382 0.90544 0.0
C633 C 0.82998 0.72162 0.94222 0.0
H634 H 0.83578 0.73333 0.8572 0.0
H635 H 0.81594 0.68771 0.8921 0.0
S636 S 0.86442 0.80896 0.99683 0.0
N637 N 0.86812 0.81611 0.95624 0.0
N638 N 0.84771 0.76645 0.99382 0.0
C639 C 0.84479 0.7561 0.95852 0.0
C640 C 0.85561 0.78306 0.93816 0.0
C641 C 1.0057 0.0322 0.43252 0.0
C642 C 0.03682 1.01594 0.43218 0.0
C643 C 0.98691 0.0323 0.40135 0.0
C644 C 0.99831 1.01563 0.36886 0.0
H645 H 0.99566 0.04464 0.4571 0.0
H646 H 0.96249 0.04403 0.40288 0.0
S647 S 0.07905 0.97115 0.35352 0.0
N648 N 0.07896 0.98434 0.39634 0.0
N649 N 0.04348 0.9841 0.33803 0.0
C650 C 0.02987 1.00025 0.36811 0.0
C651 C 0.04918 1.00055 0.39968 0.0
C652 C 0.27812 0.27961 0.63558 0.0
C653 C 0.25084 0.30132 0.63722 0.0
C654 C 0.28055 0.25174 0.60709 0.0
C655 C 0.25596 0.2446 0.57884 0.0
H656 H 0.29765 0.28403 0.65663 0.0
H657 H 0.30209 0.23582 0.60728 0.0
S658 S 0.18012 0.29504 0.57019 0.0
N659 N 0.19925 0.31473 0.608 0.0
N660 N 0.20353 0.26246 0.55446 0.0
C661 C 0.22861 0.26645 0.58016 0.0
C662 C 0.2261 0.2947 0.60932 0.0
C663 C 0.54616 0.49375 0.65836 0.0
C664 C 0.55157 0.52715 0.64737 0.0
C665 C 0.52666 0.48936 0.68801 0.0
C666 C 0.51167 0.5182 0.70804 0.0
H667 H 0.55577 0.47038 0.64306 0.0
H668 H 0.52234 0.46269 0.69446 0.0
S669 S 0.52239 0.61248 0.69267 0.0
N670 N 0.54353 0.5904 0.66057 0.0
N671 N 0.50675 0.58238 0.71615 0.0
C672 C 0.51856 0.55226 0.69828 0.0
C673 C 0.53845 0.55665 0.66802 0.0
C674 C 0.85709 0.28361 0.60626 0.0
C675 C 0.84651 0.28455 0.64081 0.0
C676 C 0.84411 0.30585 0.58534 0.0
C677 C 0.8202 0.33002 0.59834 0.0
H678 H 0.87604 0.26601 0.59547 0.0
H679 H 0.85309 0.30414 0.55881 0.0
S680 S 0.78449 0.34209 0.68775 0.0
N681 N 0.81106 0.31097 0.68748 0.0
N682 N 0.78628 0.35288 0.64842 0.0
C683 C 0.80929 0.33087 0.63304 0.0
C684 C 0.82257 0.30809 0.65424 0.0
C685 C 0.58122 0.05088 0.63379 0.0
C686 C 0.5641 1.01547 0.6258 0.0
C687 C 0.60088 0.06331 0.66502 0.0
C688 C 0.60525 0.0406 0.68919 0.0
H689 H 0.5806 0.06893 0.61526 0.0
H690 H 0.61373 0.09061 0.66953 0.0
S691 S 0.56155 0.94759 0.68398 0.0
N692 N 0.54881 0.95957 0.64755 0.0
N693 N 0.58787 0.98232 0.70499 0.0
C694 C 0.58722 1.00568 0.6824 0.0
C695 C 0.56621 0.99329 0.65107 0.0
C696 C 0.94178 0.2414 0.80352 0.0
C697 C 0.9279 0.20754 0.78484 0.0
C698 C 0.96799 0.24472 0.82934 0.0
C699 C 0.9813 0.21434 0.8376 0.0
H700 H 0.93213 0.26559 0.79827 0.0
H701 H 0.97816 0.27144 0.84279 0.0
S702 S 0.95491 0.1197 0.79562 0.0
N703 N 0.92975 0.14292 0.77595 0.0
N704 N 0.97992 0.14946 0.82437 0.0
C705 C 0.96822 0.18033 0.81886 0.0
C706 C 0.94104 0.17683 0.79271 0.0
C707 C 0.52816 0.88873 0.53329 0.0
C708 C 0.54432 0.91823 0.51976 0.0
C709 C 0.52783 0.85354 0.51478 0.0
C710 C 0.54439 0.84658 0.48253 0.0
H711 H 0.51427 0.89303 0.55755 0.0
H712 H 0.51358 0.8317 0.52527 0.0
S713 S 0.59271 0.91454 0.43731 0.0
N714 N 0.57883 0.93831 0.47326 0.0
N715 N 0.57892 0.87206 0.43873 0.0
C716 C 0.56226 0.87576 0.46966 0.0
C717 C 0.56199 0.91165 0.48819 0.0
C718 C 0.11816 0.34009 0.78773 0.0
C719 C 0.15316 0.33525 0.78105 0.0
C720 C 0.1003 0.32469 0.81365 0.0
C721 C 0.11681 0.3038 0.83389 0.0
H722 H 0.10436 0.35576 0.77266 0.0
H723 H 0.07311 0.32892 0.81746 0.0
S724 S 0.2092 0.28438 0.82668 0.0
N725 N 0.20441 0.30931 0.79665 0.0
N726 N 0.17093 0.27995 0.84559 0.0
C727 C 0.15223 0.29928 0.82766 0.0
C728 C 0.1704 0.31511 0.80113 0.0
C729 C 0.53927 0.6499 0.51915 0.0
C730 C 0.55719 0.62161 0.50322 0.0
C731 C 0.53648 0.67967 0.50314 0.0
C732 C 0.55153 0.68222 0.47056 0.0
H733 H 0.52593 0.64829 0.54339 0.0
H734 H 0.52116 0.70018 0.51578 0.0
S735 S 0.60343 0.61565 0.41958 0.0
N736 N 0.59192 0.5983 0.45447 0.0
N737 N 0.58697 0.65435 0.42412 0.0
C738 C 0.57127 0.65481 0.45537 0.0
C739 C 0.57392 0.62437 0.47173 0.0
C740 C 0.94522 0.81793 0.81096 0.0
C741 C 0.91143 0.82583 0.80309 0.0
C742 C 0.96928 0.80965 0.78462 0.0
C743 C 0.96081 0.80959 0.74943 0.0
H744 H 0.95261 0.81656 0.83759 0.0
H745 H 0.99396 0.80126 0.7916 0.0
S746 S 0.87708 0.83032 0.71472 0.0
N747 N 0.87155 0.8345 0.75731 0.0
N748 N 0.91724 0.8197 0.70802 0.0
C749 C 0.92808 0.81949 0.74131 0.0
C750 C 0.90333 0.82758 0.76809 0.0
C751 C 1.01285 0.90102 0.57615 0.0
C752 C 0.04085 0.92878 0.58316 0.0
C753 C 1.0105 0.87157 0.59368 0.0
C754 C 0.03603 0.86889 0.619 0.0
H755 H 0.9924 0.90224 0.55722 0.0
H756 H 0.98841 0.85084 0.58739 0.0
S757 S 0.11467 0.93528 0.64645 0.0
N758 N 0.09452 0.95222 0.61667 0.0
N759 N 0.09055 0.89719 0.64975 0.0
C760 C 0.06431 0.89671 0.626 0.0
C761 C 0.0666 0.92659 0.60805 0.0
C762 C 0.12807 0.69852 0.76042 0.0
C763 C 0.15894 0.72253 0.76301 0.0
C764 C 0.09704 0.70667 0.74608 0.0
C765 C 0.09584 0.73904 0.73338 0.0
H766 H 0.12819 0.67262 0.7683 0.0
H767 H 0.07426 0.68663 0.74368 0.0
S768 S 0.16975 0.81238 0.7379 0.0
N769 N 0.18648 0.78084 0.75456 0.0
N770 N 0.12839 0.79659 0.72748 0.0
C771 C 0.12647 0.76405 0.73758 0.0
C772 C 0.15799 0.75566 0.75238 0.0
C773 C 0.9801 0.65434 0.55829 0.0
C774 C 1.00579 0.63089 0.54941 0.0
C775 C 0.98723 0.68626 0.58289 0.0
C776 C 0.02046 0.69638 0.59928 0.0
H777 H 0.9539 0.64764 0.54674 0.0
H778 H 0.96644 0.70298 0.58943 0.0
S779 S 0.09768 0.64661 0.58447 0.0
N780 N 0.06639 0.62118 0.55903 0.0
N781 N 0.08002 0.68235 0.60353 0.0
C782 C 0.04701 0.67466 0.5893 0.0
C783 C 0.03961 0.64162 0.56488 0.0
C784 C 0.80891 0.91698 0.25367 0.0
C785 C 0.79946 0.90835 0.21788 0.0
C786 C 0.83769 0.94245 0.26581 0.0
C787 C 0.85812 0.95991 0.24258 0.0
H788 H 0.79444 0.90341 0.27232 0.0
H789 H 0.84414 0.94838 0.29358 0.0
S790 S 0.84233 0.94994 0.14716 0.0
N791 N 0.81126 0.92151 0.15976 0.0
N792 N 0.86548 0.96934 0.18289 0.0
C793 C 0.84813 0.95281 0.20708 0.0
C794 C 0.81894 0.92679 0.19461 0.0
C795 C 0.84624 0.16075 0.31177 0.0
C796 C 0.81886 0.15716 0.33513 0.0
C797 C 0.87222 0.13745 0.3081 0.0
C798 C 0.87142 0.10915 0.32714 0.0
H799 H 0.84716 0.18133 0.29569 0.0
H800 H 0.89207 0.1406 0.28887 0.0
S801 S 0.80618 0.0898 0.39333 0.0
N802 N 0.79348 0.12478 0.37911 0.0
N803 N 0.84173 0.08028 0.37169 0.0
C804 C 0.84478 0.10612 0.35151 0.0
C805 C 0.81866 0.13029 0.35564 0.0
C806 C 0.38411 0.02916 1.01223 0.0
C807 C 0.41561 0.02049 0.02511 0.0
C808 C 0.35259 1.00655 1.01288 0.0
C809 C 0.35135 0.97482 0.02703 0.0
H810 H 0.38421 0.05246 0.99976 0.0
H811 H 0.3293 1.01314 1.00081 0.0
S812 S 0.42634 0.9426 0.06764 0.0
N813 N 0.44346 0.97988 0.05487 0.0
N814 N 0.38417 0.93765 0.05679 0.0
C815 C 0.38232 0.96732 0.04225 0.0
C816 C 0.4145 0.99005 0.04103 0.0
C817 C 0.28885 0.46678 0.33925 0.0
C818 C 0.28395 0.42941 0.32771 0.0
C819 C 0.26774 0.48928 0.32595 0.0
C820 C 0.24074 0.47522 0.30076 0.0
H821 H 0.3085 0.47865 0.35942 0.0
H822 H 0.27234 0.51791 0.33599 0.0
S823 S 0.21815 0.37861 0.26171 0.0
N824 N 0.25094 0.37905 0.28954 0.0
N825 N 0.21124 0.421 0.26424 0.0
C826 C 0.23617 0.43772 0.28856 0.0
C827 C 0.25777 0.4149 0.30215 0.0
C828 C 0.15641 0.07148 0.5382 0.0
C829 C 0.14658 0.0472 0.50684 0.0
C830 C 0.18861 0.0938 0.54183 0.0
C831 C 0.21157 0.09359 0.51385 0.0
H832 H 0.1385 0.07445 0.55961 0.0
H833 H 0.19483 0.11257 0.56609 0.0
S834 S 0.20224 0.03038 0.4292 0.0
N835 N 0.16586 0.02034 0.44959 0.0
N836 N 0.22515 0.0638 0.45595 0.0
C837 C 0.20329 0.0681 0.4833 0.0
C838 C 0.17106 0.04466 0.47987 0.0
C839 C 0.78831 0.14407 0.7091 0.0
C840 C 0.80523 0.1663 0.73883 0.0
C841 C 0.75915 0.1189 0.7123 0.0
C842 C 0.74574 0.11549 0.74527 0.0
H843 H 0.7987 0.14482 0.68338 0.0
H844 H 0.74751 0.10144 0.68898 0.0
S845 S 0.78033 0.16701 0.83097 0.0
N846 N 0.80472 0.18449 0.80203 0.0
N847 N 0.7525 0.13495 0.80806 0.0
C848 C 0.76209 0.13776 0.77499 0.0
C849 C 0.791 0.1639 0.77173 0.0
C850 C 0.43759 0.09875 0.54717 0.0
C851 C 0.44182 0.06713 0.52371 0.0
C852 C 0.40758 0.11622 0.54517 0.0
C853 C 0.38086 0.10281 0.51944 0.0
H854 H 0.4578 0.11037 0.56685 0.0
H855 H 0.40557 0.14068 0.56376 0.0
S856 S 0.38002 0.02009 0.45215 0.0
N857 N 0.4173 0.02264 0.47437 0.0
N858 N 0.36092 0.0552 0.47036 0.0
C859 C 0.3849 0.07084 0.49604 0.0
C860 C 0.41541 0.05308 0.49824 0.0
C861 C 0.64636 0.46147 0.56764 0.0
C862 C 0.64379 0.49558 0.55917 0.0
C863 C 0.6739 0.44176 0.55563 0.0
C864 C 0.69972 0.45508 0.5342 0.0
H865 H 0.62643 0.44939 0.58295 0.0
H866 H 0.67445 0.41546 0.56247 0.0
S867 S 0.70732 0.54437 0.50736 0.0
N868 N 0.67147 0.54306 0.53049 0.0
N869 N 0.72238 0.50543 0.5069 0.0
C870 C 0.69796 0.48939 0.5261 0.0
C871 C 0.67025 0.50975 0.5388 0.0
C872 C 0.78654 0.27732 0.41253 0.0
C873 C 0.75562 0.25633 0.39794 0.0
C874 C 0.78563 0.30542 0.44089 0.0
C875 C 0.75378 0.31405 0.45562 0.0
H876 H 0.81173 0.27249 0.40153 0.0
H877 H 0.8102 0.32077 0.45123 0.0
S878 S 0.66559 0.26622 0.42906 0.0
N879 N 0.69218 0.2451 0.40162 0.0
N880 N 0.69075 0.29834 0.4553 0.0
C881 C 0.72271 0.29282 0.44221 0.0
C882 C 0.72353 0.26409 0.41305 0.0
C883 C 0.5694 0.07496 0.89633 0.0
C884 C 0.56776 0.04271 0.9092 0.0
C885 C 0.58887 0.07968 0.86663 0.0
C886 C 0.60735 0.05225 0.84871 0.0
H887 H 0.55562 0.09665 0.90926 0.0
H888 H 0.5897 0.10526 0.85797 0.0
S889 S 0.60973 0.96207 0.87238 0.0
N890 N 0.58501 0.98272 0.90213 0.0
N891 N 0.62151 0.9911 0.84648 0.0
C892 C 0.60529 0.01963 0.86149 0.0
C893 C 0.58553 1.01501 0.89169 0.0
C894 C 0.34697 0.28732 0.43883 0.0
C895 C 0.35002 0.27737 0.40235 0.0
C896 C 0.33631 0.26164 0.45974 0.0
C897 C 0.32837 0.22507 0.44498 0.0
H898 H 0.35142 0.3154 0.45111 0.0
H899 H 0.33212 0.27077 0.48726 0.0
S900 S 0.33452 0.18435 0.35163 0.0
N901 N 0.34602 0.22777 0.35291 0.0
N902 N 0.32643 0.17975 0.39236 0.0
C903 C 0.33319 0.21445 0.40903 0.0
C904 C 0.34404 0.24051 0.38769 0.0
C905 C 0.50981 0.53572 0.93039 0.0
C906 C 0.54068 0.51908 0.93041 0.0
C907 C 0.49211 0.53711 0.89894 0.0
C908 C 0.50446 0.52149 0.86649 0.0
H909 H 0.49904 0.54735 0.95489 0.0
H910 H 0.46772 0.54887 0.90014 0.0
S911 S 0.58513 0.47676 0.85206 0.0
N912 N 0.58364 0.48832 0.89497 0.0
N913 N 0.55036 0.49075 0.83614 0.0
C914 C 0.53591 0.50596 0.86614 0.0
C915 C 0.55404 0.50482 0.898 0.0
C916 C 0.72717 0.78877 0.10596 0.0
C917 C 0.75114 0.79689 0.13457 0.0
C918 C 0.73133 0.76129 0.0776 0.0
C919 C 0.75955 0.74067 0.07678 0.0
H920 H 0.70515 0.804 0.10535 0.0
H921 H 0.71204 0.75609 0.05628 0.0
S922 S 0.82928 0.75111 0.14607 0.0
N923 N 0.80358 0.78186 0.16095 0.0
N924 N 0.81201 0.7307 0.10766 0.0
C925 C 0.78377 0.74867 0.10541 0.0
C926 C 0.77943 0.77663 0.13424 0.0
C927 C 0.03565 0.98542 0.15892 0.0
C928 C 0.04457 0.01978 0.15071 0.0
C929 C 0.01585 0.98064 0.18835 0.0
C930 C 1.00408 1.01004 0.21081 0.0
H931 H 0.04277 0.96188 0.14168 0.0
H932 H 1.00873 0.95344 0.19274 0.0
S933 S 0.02495 0.10617 0.20323 0.0
N934 N 0.04345 0.08402 0.1692 0.0
N935 N 1.00617 0.07526 0.22426 0.0
C936 C 1.01453 0.04476 0.20378 0.0
C937 C 0.03472 0.04955 0.17385 0.0
C938 C 0.32329 0.81424 0.15397 0.0
C939 C 0.34447 0.78753 0.14115 0.0
C940 C 0.31049 0.83542 0.13175 0.0
C941 C 0.31881 0.83082 0.09606 0.0
H942 H 0.31718 0.81931 0.18145 0.0
H943 H 0.29426 0.85578 0.14275 0.0
S944 S 0.37346 0.76365 0.05028 0.0
N945 N 0.37315 0.75706 0.09113 0.0
N946 N 0.34936 0.7966 0.04917 0.0
C947 C 0.33985 0.80375 0.08307 0.0
C948 C 0.35263 0.78216 0.1057 0.0
C949 C 0.08203 0.54949 0.12809 0.0
C950 C 0.06564 0.51378 0.12034 0.0
C951 C 0.10097 0.56276 0.15966 0.0
C952 C 0.10521 0.54065 0.18443 0.0
H953 H 0.08147 0.56705 0.1091 0.0
H954 H 0.11348 0.59021 0.16395 0.0
S955 S 0.06266 0.44729 0.18 0.0
N956 N 0.05053 0.45835 0.14292 0.0
N957 N 0.08814 0.48268 0.20104 0.0
C958 C 0.08765 0.50551 0.1779 0.0
C959 C 0.06744 0.49226 0.14622 0.0
C960 C 0.43989 0.74659 0.30595 0.0
C961 C 0.42661 0.71262 0.28702 0.0
C962 C 0.46615 0.75028 0.33178 0.0
C963 C 0.48006 0.72017 0.3399 0.0
H964 H 0.42974 0.7706 0.30088 0.0
H965 H 0.47584 0.77708 0.34541 0.0
S966 S 0.45553 0.62541 0.29727 0.0
N967 N 0.42984 0.6482 0.2777 0.0
N968 N 0.47997 0.65545 0.32628 0.0
C969 C 0.46761 0.68606 0.32094 0.0
C970 C 0.44043 0.68218 0.29472 0.0
C971 C 0.0647 0.4064 0.98385 0.0
C972 C 0.04879 0.41342 0.01645 0.0
C973 C 0.06478 0.37104 0.9657 0.0
C974 C 0.0483 0.34165 0.97928 0.0
H975 H 0.0762 0.42846 0.97184 0.0
H976 H 0.07584 0.36689 0.93994 0.0
S977 S 1.00526 0.34561 0.06473 0.0
N978 N 0.01831 0.38806 0.06258 0.0
N979 N 0.01783 0.32172 0.02823 0.0
C980 C 0.03375 0.34828 1.01254 0.0
C981 C 0.03417 0.38415 0.03121 0.0
C982 C 0.66474 0.8098 0.30029 0.0
C983 C 0.65401 0.83938 0.2879 0.0
C984 C 0.64719 0.79622 0.32765 0.0
C985 C 0.61809 0.81156 0.34292 0.0
H986 H 0.68576 0.79614 0.28778 0.0
H987 H 0.65515 0.77234 0.3354 0.0
S988 S 0.58264 0.89203 0.32185 0.0
N989 N 0.61493 0.88551 0.29451 0.0
N990 N 0.58168 0.86007 0.34564 0.0
C991 C 0.60855 0.84244 0.33187 0.0
C992 C 0.62659 0.85632 0.30432 0.0
C993 C 0.04938 0.1548 0.02272 0.0
C994 C 0.06198 0.12304 1.00653 0.0
C995 C 0.04662 0.18295 1.00446 0.0
C996 C 0.05659 0.1804 0.9694 0.0
H997 H 0.03964 0.15711 0.04903 0.0
H998 H 0.03502 0.20623 0.01739 0.0
S999 S 0.0937 0.10345 0.91627 0.0
N1000 N 0.08639 0.091 0.95446 0.0
N1001 N 0.08175 0.14423 0.92 0.0
C1002 C 0.07139 0.14958 0.95367 0.0
C1003 C 0.07385 0.1207 0.97228 0.0
C1004 C 0.44398 0.3207 0.31157 0.0
C1005 C 0.4099 0.32767 0.3035 0.0
C1006 C 0.46814 0.31242 0.2853 0.0
C1007 C 0.45947 0.31143 0.24997 0.0
H1008 H 0.45154 0.32004 0.33833 0.0
H1009 H 0.49307 0.3047 0.29248 0.0
S1010 S 0.37491 0.32945 0.21466 0.0
N1011 N 0.3695 0.33439 0.2573 0.0
N1012 N 0.41536 0.31965 0.2082 0.0
C1013 C 0.42641 0.32039 0.24162 0.0
C1014 C 0.40157 0.32847 0.26831 0.0
C1015 C 0.51244 0.40064 0.0748 0.0
C1016 C 0.54035 0.42849 0.08171 0.0
C1017 C 0.50978 0.37169 0.09301 0.0
C1018 C 0.53492 0.36961 0.11892 0.0
H1019 H 0.49229 0.40137 0.05538 0.0
H1020 H 0.4878 0.35083 0.08671 0.0
S1021 S 0.61309 0.4366 0.14653 0.0
N1022 N 0.59345 0.45276 0.11587 0.0
N1023 N 0.58892 0.39865 0.15022 0.0
C1024 C 0.56308 0.39757 0.12588 0.0
C1025 C 0.56567 0.42696 0.10725 0.0
C1026 C 0.6592 0.25125 0.2413 0.0
C1027 C 0.65889 0.22536 0.26284 0.0
C1028 C 0.62784 0.25916 0.22732 0.0
C1029 C 0.59503 0.24114 0.2341 0.0
H1030 H 0.6839 0.26448 0.23407 0.0
H1031 H 0.6296 0.27843 0.20981 0.0
S1032 S 0.58083 0.17309 0.292 0.0
N1033 N 0.62381 0.18343 0.29248 0.0
N1034 N 0.5647 0.19799 0.26653 0.0
C1035 C 0.5946 0.21633 0.25718 0.0
C1036 C 0.6266 0.20848 0.27142 0.0
C1037 C 0.47649 0.15644 0.05929 0.0
C1038 C 0.50152 0.1323 0.05011 0.0
C1039 C 0.48442 0.18821 0.08394 0.0
C1040 C 0.51782 0.1975 0.1001 0.0
H1041 H 0.45022 0.15048 0.04787 0.0
H1042 H 0.4641 0.20549 0.09069 0.0
S1043 S 0.59362 0.14575 0.08455 0.0
N1044 N 0.56175 0.12104 0.05933 0.0
N1045 N 0.57689 0.18199 0.10383 0.0
C1046 C 0.54374 0.17508 0.08988 0.0
C1047 C 0.53553 0.14216 0.06543 0.0
C1048 C 0.31781 0.42205 0.7515 0.0
C1049 C 0.30795 0.41257 0.71585 0.0
C1050 C 0.34642 0.44786 0.76291 0.0
C1051 C 0.36634 0.46489 0.73909 0.0
H1052 H 0.30346 0.40919 0.7707 0.0
H1053 H 0.35304 0.45454 0.79064 0.0
S1054 S 0.34995 0.45194 0.6435 0.0
N1055 N 0.31927 0.42371 0.657 0.0
N1056 N 0.3732 0.47255 0.6788 0.0
C1057 C 0.35624 0.45664 0.7036 0.0
C1058 C 0.32719 0.43011 0.69183 0.0
C1059 C 0.34928 0.66411 0.81059 0.0
C1060 C 0.32255 0.65985 0.83453 0.0
C1061 C 0.37589 0.64153 0.80626 0.0
C1062 C 0.37638 0.61327 0.82519 0.0
H1063 H 0.34915 0.6846 0.79451 0.0
H1064 H 0.39516 0.64515 0.7866 0.0
S1065 S 0.31337 0.59235 0.89277 0.0
N1066 N 0.29926 0.62691 0.87896 0.0
N1067 N 0.34867 0.58375 0.8703 0.0
C1068 C 0.35044 0.60959 0.85015 0.0
C1069 C 0.32369 0.63305 0.85496 0.0
C1070 C 0.89039 0.52765 0.51615 0.0
C1071 C 0.92231 0.51738 0.52623 0.0
C1072 C 0.85876 0.50538 0.5172 0.0
C1073 C 0.85781 0.47245 0.52913 0.0
H1074 H 0.89014 0.55201 0.50542 0.0
H1075 H 0.83505 0.51317 0.50705 0.0
S1076 S 0.93383 0.43566 0.56245 0.0
N1077 N 0.95087 0.47382 0.5513 0.0
N1078 N 0.89126 0.43223 0.55395 0.0
C1079 C 0.88923 0.46322 0.54172 0.0
C1080 C 0.92155 0.4856 0.54003 0.0
C1081 C 0.7915 0.96623 0.84122 0.0
C1082 C 0.78633 0.92878 0.8303 0.0
C1083 C 0.77005 0.98854 0.8281 0.0
C1084 C 0.74243 0.9742 0.80367 0.0
H1085 H 0.8117 0.97834 0.86077 0.0
H1086 H 0.77493 0.01724 0.83764 0.0
S1087 S 0.71879 0.87728 0.76652 0.0
N1088 N 0.75231 0.87804 0.79359 0.0
N1089 N 0.71195 0.91964 0.76861 0.0
C1090 C 0.73753 0.93661 0.79211 0.0
C1091 C 0.75947 0.91398 0.80555 0.0
C1092 C 0.67194 0.54441 0.98007 0.0
C1093 C 0.64831 0.54612 1.00786 0.0
C1094 C 0.70403 0.56666 0.98282 0.0
C1095 C 0.71431 0.59094 0.01373 0.0
H1096 H 0.66522 0.52641 0.95546 0.0
H1097 H 0.72078 0.56512 0.96043 0.0
S1098 S 0.66466 0.6044 0.09532 0.0
N1099 N 0.63889 0.57391 0.06803 0.0
N1100 N 0.70046 0.61353 0.07371 0.0
C1101 C 0.69251 0.59127 0.04255 0.0
C1102 C 0.65922 0.56944 0.03951 0.0
C1103 C 0.28893 0.64627 0.20814 0.0
C1104 C 0.30512 0.6682 0.23842 0.0
C1105 C 0.25983 0.62067 0.21039 0.0
C1106 C 0.24572 0.61656 0.24291 0.0
H1107 H 0.29975 0.64773 0.18272 0.0
H1108 H 0.24867 0.60357 0.18665 0.0
S1109 S 0.27845 0.66683 0.32977 0.0
N1110 N 0.30336 0.6851 0.30167 0.0
N1111 N 0.25117 0.63492 0.30591 0.0
C1112 C 0.26146 0.6384 0.27319 0.0
C1113 C 0.29035 0.6649 0.27091 0.0
C1114 C 0.91886 0.55184 0.99327 0.0
C1115 C 0.94533 0.56368 0.01923 0.0
C1116 C 0.88921 0.57005 0.99234 0.0
C1117 C 0.88506 0.60087 0.01732 0.0
H1118 H 0.92127 0.52857 0.97324 0.0
H1119 H 0.86954 0.55997 0.97175 0.0
S1120 S 0.94768 0.64225 0.09087 0.0
N1121 N 0.96599 0.60752 0.07044 0.0
N1122 N 0.91052 0.64199 0.06917 0.0
C1123 C 0.91154 0.6127 0.04364 0.0
C1124 C 0.94165 0.59404 0.04447 0.0
C1125 C 0.13762 0.97564 0.02553 0.0
C1126 C 0.13707 0.99252 0.06088 0.0
C1127 C 0.16525 0.95648 1.01265 0.0
C1128 C 0.19319 0.95267 0.03471 0.0
H1129 H 0.1162 0.97669 1.00763 0.0
H1130 H 0.16431 0.94398 0.98533 0.0
S1131 S 0.2063 0.99414 0.12849 0.0
N1132 N 0.16874 1.00641 0.117 0.0
N1133 N 0.21976 0.96906 0.09315 0.0
C1134 C 0.19329 0.96968 0.06997 0.0
C1135 C 0.16549 0.98983 0.08296 0.0
loop_
_geom_bond_atom_site_label_1
_geom_bond_atom_site_label_2
_geom_bond_distance
_geom_bond_site_symmetry_2
_ccdc_geom_bond_type
H0 C3 0.929 . S
H1 C6 0.929 . S
H2 C8 0.930 . S
C3 H0 0.929 . S
C3 C4 1.398 . S
C3 C5 1.396 . S
C4 C3 1.398 . S
C4 C8 1.407 . S
C5 C3 1.396 . S
C5 C6 1.394 . S
C6 H1 0.929 . S
C6 C5 1.394 . S
C6 C7 1.382 . S
C7 C6 1.382 . S
C7 C8 1.392 . S
C7 N9 1.420 . S
C8 H2 0.930 . S
C8 C4 1.407 . S
C8 C7 1.392 . S
N9 C7 1.420 . S
N9 C10 1.244 . S
C10 N9 1.244 . S
H11 C14 0.929 . S
H12 C17 0.929 . S
H13 C19 0.930 . S
C14 H11 0.929 . S
C14 C15 1.398 . S
C14 C16 1.396 . S
C15 C14 1.398 . S
C15 C19 1.407 . S
C16 C14 1.396 . S
C16 C17 1.394 . S
C17 H12 0.929 . S
C17 C16 1.394 . S
C17 C18 1.382 . S
C18 C17 1.382 . S
C18 C19 1.392 . S
C18 N20 1.420 . S
C19 H13 0.930 . S
C19 C15 1.407 . S
C19 C18 1.392 . S
N20 C18 1.420 . S
N20 C21 1.244 . S
C21 N20 1.244 . S
H22 C25 0.929 . S
H23 C28 0.929 . S
H24 C30 0.930 1_556 S
C25 H22 0.929 . S
C25 C26 1.398 . S
C25 C27 1.396 . S
C26 C25 1.398 . S
C26 C30 1.407 1_455 S
C27 C25 1.396 . S
C27 C28 1.394 . S
C28 H23 0.929 . S
C28 C27 1.394 . S
C28 C29 1.382 1_455 S
C29 C28 1.382 1_655 S
C29 C30 1.392 . S
C29 N31 1.420 . S
C30 H24 0.930 1_554 S
C30 C26 1.407 1_655 S
C30 C29 1.392 . S
N31 C29 1.420 . S
N31 C32 1.244 . S
C32 N31 1.244 . S
H33 C36 0.929 . S
H34 C39 0.929 . S
H35 C41 0.930 . S
C36 H33 0.929 . S
C36 C37 1.398 . S
C36 C38 1.396 . S
C37 C36 1.398 . S
C37 C41 1.407 . S
C38 C36 1.396 . S
C38 C39 1.394 . S
C39 H34 0.929 . S
C39 C38 1.394 . S
C39 C40 1.382 . S
C40 C39 1.382 . S
C40 C41 1.392 . S
C40 N42 1.420 . S
C41 H35 0.930 . S
C41 C37 1.407 . S
C41 C40 1.392 . S
N42 C40 1.420 . S
N42 C43 1.244 . S
C43 N42 1.244 . S
H44 C47 0.929 . S
H45 C50 0.929 . S
H46 C52 0.930 . S
C47 H44 0.929 . S
C47 C48 1.398 1_545 S
C47 C49 1.396 . S
C48 C47 1.398 1_565 S
C48 C52 1.407 . S
C49 C47 1.396 . S
C49 C50 1.394 1_545 S
C50 H45 0.929 . S
C50 C49 1.394 1_565 S
C50 C51 1.382 . S
C51 C50 1.382 . S
C51 C52 1.392 . S
C51 N53 1.420 . S
C52 H46 0.930 . S
C52 C48 1.407 . S
C52 C51 1.392 . S
N53 C51 1.420 . S
N53 C54 1.244 . S
C54 N53 1.244 . S
H55 C58 0.929 . S
H56 C61 0.929 . S
H57 C63 0.930 . S
C58 H55 0.929 . S
C58 C59 1.398 . S
C58 C60 1.396 . S
C59 C58 1.398 . S
C59 C63 1.407 . S
C60 C58 1.396 . S
C60 C61 1.394 . S
C61 H56 0.929 . S
C61 C60 1.394 . S
C61 C62 1.382 . S
C62 C61 1.382 . S
C62 C63 1.392 . S
C62 N64 1.420 . S
C63 H57 0.930 . S
C63 C59 1.407 . S
C63 C62 1.392 . S
N64 C62 1.420 . S
N64 C65 1.244 . S
C65 N64 1.244 . S
H66 C69 0.929 . S
H67 C72 0.929 . S
H68 C74 0.930 . S
C69 H66 0.929 . S
C69 C70 1.398 . S
C69 C71 1.396 . S
C70 C69 1.398 . S
C70 C74 1.407 . S
C71 C69 1.396 . S
C71 C72 1.394 1_655 S
C72 H67 0.929 . S
C72 C71 1.394 1_455 S
C72 C73 1.382 . S
C73 C72 1.382 . S
C73 C74 1.392 1_455 S
C73 N75 1.420 . S
C74 H68 0.930 . S
C74 C70 1.407 . S
C74 C73 1.392 1_655 S
N75 C73 1.420 . S
N75 C76 1.244 . S
C76 N75 1.244 . S
H77 C80 0.929 . S
H78 C83 0.929 . S
H79 C85 0.930 . S
C80 H77 0.929 . S
C80 C81 1.398 . S
C80 C82 1.396 . S
C81 C80 1.398 . S
C81 C85 1.407 . S
C82 C80 1.396 . S
C82 C83 1.394 . S
C83 H78 0.929 . S
C83 C82 1.394 . S
C83 C84 1.382 . S
C84 C83 1.382 . S
C84 C85 1.392 . S
C84 N86 1.420 . S
C85 H79 0.930 . S
C85 C81 1.407 . S
C85 C84 1.392 . S
N86 C84 1.420 . S
N86 C87 1.244 . S
C87 N86 1.244 . S
H88 C91 0.929 . S
H89 C94 0.929 . S
H90 C96 0.930 . S
C91 H88 0.929 . S
C91 C92 1.398 . S
C91 C93 1.396 . S
C92 C91 1.398 . S
C92 C96 1.407 . S
C93 C91 1.396 . S
C93 C94 1.394 . S
C94 H89 0.929 . S
C94 C93 1.394 . S
C94 C95 1.382 . S
C95 C94 1.382 . S
C95 C96 1.392 . S
C95 N97 1.420 . S
C96 H90 0.930 . S
C96 C92 1.407 . S
C96 C95 1.392 . S
N97 C95 1.420 . S
N97 C98 1.244 . S
C98 N97 1.244 . S
H99 C102 0.929 . S
H100 C105 0.929 . S
H101 C107 0.930 . S
C102 H99 0.929 . S
C102 C103 1.398 . S
C102 C104 1.396 . S
C103 C102 1.398 . S
C103 C107 1.407 . S
C104 C102 1.396 . S
C104 C105 1.394 1_565 S
C105 H100 0.929 . S
C105 C104 1.394 1_545 S
C105 C106 1.382 1_545 S
C106 C105 1.382 1_565 S
C106 C107 1.392 . S
C106 N108 1.420 1_565 S
C107 H101 0.930 . S
C107 C103 1.407 . S
C107 C106 1.392 . S
N108 C106 1.420 1_545 S
N108 C109 1.244 . S
C109 N108 1.244 . S
H110 C113 0.929 . S
H111 C116 0.929 . S
H112 C118 0.930 . S
C113 H110 0.929 . S
C113 C114 1.398 . S
C113 C115 1.396 . S
C114 C113 1.398 . S
C114 C118 1.407 . S
C115 C113 1.396 . S
C115 C116 1.394 . S
C116 H111 0.929 . S
C116 C115 1.394 . S
C116 C117 1.382 . S
C117 C116 1.382 . S
C117 C118 1.392 . S
C117 N119 1.420 . S
C118 H112 0.930 . S
C118 C114 1.407 . S
C118 C117 1.392 . S
N119 C117 1.420 . S
N119 C120 1.244 . S
C120 N119 1.244 . S
H121 C124 0.929 . S
H122 C127 0.929 . S
H123 C129 0.930 . S
C124 H121 0.929 . S
C124 C125 1.398 . S
C124 C126 1.396 . S
C125 C124 1.398 . S
C125 C129 1.407 . S
C126 C124 1.396 . S
C126 C127 1.394 . S
C127 H122 0.929 . S
C127 C126 1.394 . S
C127 C128 1.382 . S
C128 C127 1.382 . S
C128 C129 1.392 . S
C128 N130 1.420 . S
C129 H123 0.930 . S
C129 C125 1.407 . S
C129 C128 1.392 . S
N130 C128 1.420 . S
N130 C131 1.244 . S
C131 N130 1.244 . S
H132 C135 0.929 . S
H133 C138 0.929 . S
H134 C140 0.930 . S
C135 H132 0.929 . S
C135 C136 1.398 . S
C135 C137 1.396 . S
C136 C135 1.398 . S
C136 C140 1.407 . S
C137 C135 1.396 . S
C137 C138 1.394 . S
C138 H133 0.929 . S
C138 C137 1.394 . S
C138 C139 1.382 . S
C139 C138 1.382 . S
C139 C140 1.392 . S
C139 N141 1.420 . S
C140 H134 0.930 . S
C140 C136 1.407 . S
C140 C139 1.392 . S
N141 C139 1.420 . S
N141 C142 1.244 . S
C142 N141 1.244 . S
H143 C146 0.929 . S
H144 C149 0.929 . S
H145 C151 0.930 . S
C146 H143 0.929 . S
C146 C147 1.398 . S
C146 C148 1.396 . S
C147 C146 1.398 . S
C147 C151 1.407 . S
C148 C146 1.396 . S
C148 C149 1.394 1_556 S
C149 H144 0.929 . S
C149 C148 1.394 1_554 S
C149 C150 1.382 . S
C150 C149 1.382 . S
C150 C151 1.392 1_554 S
C150 N152 1.420 . S
C151 H145 0.930 . S
C151 C147 1.407 . S
C151 C150 1.392 1_556 S
N152 C150 1.420 . S
N152 C153 1.244 . S
C153 N152 1.244 . S
H154 C157 0.929 . S
H155 C160 0.929 . S
H156 C162 0.930 . S
C157 H154 0.929 . S
C157 C158 1.398 . S
C157 C159 1.396 . S
C158 C157 1.398 . S
C158 C162 1.407 . S
C159 C157 1.396 . S
C159 C160 1.394 . S
C160 H155 0.929 . S
C160 C159 1.394 . S
C160 C161 1.382 . S
C161 C160 1.382 . S
C161 C162 1.392 . S
C161 N163 1.420 . S
C162 H156 0.930 . S
C162 C158 1.407 . S
C162 C161 1.392 . S
N163 C161 1.420 . S
N163 C164 1.244 . S
C164 N163 1.244 . S
H165 C168 0.929 . S
H166 C171 0.929 . S
H167 C173 0.930 1_565 S
C168 H165 0.929 . S
C168 C169 1.398 1_554 S
C168 C170 1.396 . S
C169 C168 1.398 1_556 S
C169 C173 1.407 . S
C170 C168 1.396 . S
C170 C171 1.394 1_554 S
C171 H166 0.929 . S
C171 C170 1.394 1_556 S
C171 C172 1.382 . S
C172 C171 1.382 . S
C172 C173 1.392 . S
C172 N174 1.420 . S
C173 H167 0.930 1_545 S
C173 C169 1.407 . S
C173 C172 1.392 . S
N174 C172 1.420 . S
N174 C175 1.244 . S
C175 N174 1.244 . S
Mn176 O181 2.095 . S
Mn176 O191 2.162 . S
Mn176 O192 2.297 . S
Mn176 O200 2.385 . S
Mn176 O201 2.192 1_554 S
Mn176 O202 2.094 . S
Mn177 O182 2.121 1_556 S
Mn177 N184 2.257 . S
Mn177 N193 2.282 . S
Mn177 O201 2.224 . S
Mn177 O203 2.117 1_556 S
C178 O200 1.217 1_556 S
C178 O201 1.283 . S
C179 O191 1.281 . S
C179 O192 1.236 . S
C180 O202 1.240 . S
C180 O203 1.264 . S
O181 Mn176 2.095 . S
O181 C190 1.250 . S
O182 Mn177 2.121 1_554 S
O182 C190 1.258 . S
C183 N184 1.326 . S
C183 C187 1.460 . S
C183 H189 0.929 . S
N184 Mn177 2.257 . S
N184 C183 1.326 . S
N184 C188 1.362 . S
C185 C186 1.258 . S
C185 C188 1.431 . S
C185 C205 1.449 . S
C186 C185 1.258 . S
C186 C187 1.477 . S
C186 H206 0.931 . S
C187 C183 1.460 . S
C187 C186 1.477 . S
C187 H207 0.930 . S
C188 N184 1.362 . S
C188 C185 1.431 . S
C188 C198 1.476 . S
H189 C183 0.929 . S
C190 O181 1.250 . S
C190 O182 1.258 . S
O191 Mn176 2.162 . S
O191 C179 1.281 . S
O192 Mn176 2.297 . S
O192 C179 1.236 . S
N193 Mn177 2.282 . S
N193 C194 1.328 . S
N193 C198 1.318 . S
C194 N193 1.328 . S
C194 C195 1.457 . S
C194 H199 0.929 . S
C195 C194 1.457 . S
C195 C196 1.291 . S
C195 H208 0.931 . S
C196 C195 1.291 . S
C196 C197 1.373 . S
C196 H209 0.929 . S
C197 C196 1.373 . S
C197 C198 1.396 . S
C197 C204 1.403 . S
C198 C188 1.476 . S
C198 N193 1.318 . S
C198 C197 1.396 . S
H199 C194 0.929 . S
O200 Mn176 2.385 . S
O200 C178 1.217 1_554 S
O201 Mn176 2.192 1_556 S
O201 Mn177 2.224 . S
O201 C178 1.283 . S
O202 Mn176 2.094 . S
O202 C180 1.240 . S
O203 Mn177 2.117 1_554 S
O203 C180 1.264 . S
C204 C197 1.403 . S
C204 C205 1.399 . S
C204 H210 0.929 . S
C205 C185 1.449 . S
C205 C204 1.399 . S
C205 H211 0.930 . S
H206 C186 0.931 . S
H207 C187 0.930 . S
H208 C195 0.931 . S
H209 C196 0.929 . S
H210 C204 0.929 . S
H211 C205 0.930 . S
Mn212 O217 2.095 . S
Mn212 O227 2.162 . S
Mn212 O228 2.297 . S
Mn212 O236 2.385 . S
Mn212 O237 2.209 . S
Mn212 O238 2.094 . S
Mn213 O218 2.121 . S
Mn213 N220 2.257 . S
Mn213 N229 2.282 . S
Mn213 O237 2.215 . S
Mn213 O239 2.117 . S
C214 O236 1.234 . S
C214 O237 1.283 . S
C215 O227 1.281 . S
C215 O228 1.236 . S
C216 O238 1.240 . S
C216 O239 1.264 . S
O217 Mn212 2.095 . S
O217 C226 1.250 . S
O218 Mn213 2.121 . S
O218 C226 1.258 . S
C219 N220 1.326 . S
C219 C223 1.460 . S
C219 H225 0.929 . S
N220 Mn213 2.257 . S
N220 C219 1.326 . S
N220 C224 1.362 . S
C221 C222 1.258 . S
C221 C224 1.431 . S
C221 C241 1.449 . S
C222 C221 1.258 . S
C222 C223 1.477 . S
C222 H242 0.931 . S
C223 C219 1.460 . S
C223 C222 1.477 . S
C223 H243 0.930 . S
C224 N220 1.362 . S
C224 C221 1.431 . S
C224 C234 1.476 . S
H225 C219 0.929 . S
C226 O217 1.250 . S
C226 O218 1.258 . S
O227 Mn212 2.162 . S
O227 C215 1.281 . S
O228 Mn212 2.297 . S
O228 C215 1.236 . S
N229 Mn213 2.282 . S
N229 C230 1.328 . S
N229 C234 1.318 . S
C230 N229 1.328 . S
C230 C231 1.457 . S
C230 H235 0.929 . S
C231 C230 1.457 . S
C231 C232 1.291 . S
C231 H244 0.931 . S
C232 C231 1.291 . S
C232 C233 1.373 . S
C232 H245 0.929 . S
C233 C232 1.373 . S
C233 C234 1.396 . S
C233 C240 1.403 . S
C234 C224 1.476 . S
C234 N229 1.318 . S
C234 C233 1.396 . S
H235 C230 0.929 . S
O236 Mn212 2.385 . S
O236 C214 1.234 . S
O237 Mn212 2.209 . S
O237 Mn213 2.215 . S
O237 C214 1.283 . S
O238 Mn212 2.094 . S
O238 C216 1.240 . S
O239 Mn213 2.117 . S
O239 C216 1.264 . S
C240 C233 1.403 . S
C240 C241 1.399 . S
C240 H246 0.929 . S
C241 C221 1.449 . S
C241 C240 1.399 . S
C241 H247 0.930 . S
H242 C222 0.931 . S
H243 C223 0.930 . S
H244 C231 0.931 . S
H245 C232 0.929 . S
H246 C240 0.929 . S
H247 C241 0.930 . S
Mn248 O253 2.095 1_554 S
Mn248 O263 2.162 . S
Mn248 O264 2.297 1_554 S
Mn248 O272 2.385 . S
Mn248 O273 2.209 1_554 S
Mn248 O274 2.094 . S
Mn249 O254 2.121 . S
Mn249 N256 2.257 . S
Mn249 N265 2.265 1_556 S
Mn249 O273 2.215 . S
Mn249 O275 2.117 1_556 S
C250 O272 1.221 1_556 S
C250 O273 1.294 . S
C251 O263 1.297 . S
C251 O264 1.219 1_554 S
C252 O274 1.240 . S
C252 O275 1.264 . S
O253 Mn248 2.095 1_556 S
O253 C262 1.250 . S
O254 Mn249 2.121 . S
O254 C262 1.258 . S
C255 N256 1.326 . S
C255 C259 1.460 . S
C255 H261 0.929 . S
N256 Mn249 2.257 . S
N256 C255 1.326 . S
N256 C260 1.362 . S
C257 C258 1.258 . S
C257 C260 1.431 . S
C257 C277 1.449 . S
C258 C257 1.258 . S
C258 C259 1.477 . S
C258 H278 0.931 . S
C259 C255 1.460 . S
C259 C258 1.477 . S
C259 H279 0.930 . S
C260 N256 1.362 . S
C260 C257 1.431 . S
C260 C270 1.476 . S
H261 C255 0.929 . S
C262 O253 1.250 . S
C262 O254 1.258 . S
O263 Mn248 2.162 . S
O263 C251 1.297 . S
O264 Mn248 2.297 1_556 S
O264 C251 1.219 1_556 S
N265 Mn249 2.265 1_554 S
N265 C266 1.362 . S
N265 C270 1.299 1_554 S
C266 N265 1.362 . S
C266 C267 1.457 . S
C266 H271 0.929 . S
C267 C266 1.457 . S
C267 C268 1.291 . S
C267 H280 0.931 . S
C268 C267 1.291 . S
C268 C269 1.373 1_554 S
C268 H281 0.929 . S
C269 C268 1.373 1_556 S
C269 C270 1.396 . S
C269 C276 1.403 . S
C270 C260 1.476 . S
C270 N265 1.299 1_556 S
C270 C269 1.396 . S
H271 C266 0.929 . S
O272 Mn248 2.385 . S
O272 C250 1.221 1_554 S
O273 Mn248 2.209 1_556 S
O273 Mn249 2.215 . S
O273 C250 1.294 . S
O274 Mn248 2.094 . S
O274 C252 1.240 . S
O275 Mn249 2.117 1_554 S
O275 C252 1.264 . S
C276 C269 1.403 . S
C276 C277 1.399 . S
C276 H282 0.929 . S
C277 C257 1.449 . S
C277 C276 1.399 . S
C277 H283 0.930 . S
H278 C258 0.931 . S
H279 C259 0.930 . S
H280 C267 0.931 . S
H281 C268 0.929 . S
H282 C276 0.929 . S
H283 C277 0.930 . S
Mn284 O289 2.095 . S
Mn284 O299 2.162 . S
Mn284 O300 2.297 . S
Mn284 O308 2.385 . S
Mn284 O309 2.209 1_545 S
Mn284 O310 2.094 . S
Mn285 O290 2.121 . S
Mn285 N292 2.257 . S
Mn285 N301 2.282 . S
Mn285 O309 2.215 . S
Mn285 O311 2.117 . S
C286 O308 1.234 1_565 S
C286 O309 1.283 . S
C287 O299 1.281 . S
C287 O300 1.236 . S
C288 O310 1.240 . S
C288 O311 1.264 1_545 S
O289 Mn284 2.095 . S
O289 C298 1.250 . S
O290 Mn285 2.121 . S
O290 C298 1.258 1_565 S
C291 N292 1.326 . S
C291 C295 1.460 . S
C291 H297 0.929 . S
N292 Mn285 2.257 . S
N292 C291 1.326 . S
N292 C296 1.362 . S
C293 C294 1.258 . S
C293 C296 1.431 . S
C293 C313 1.449 . S
C294 C293 1.258 . S
C294 C295 1.477 . S
C294 H314 0.931 . S
C295 C291 1.460 . S
C295 C294 1.477 . S
C295 H315 0.930 . S
C296 N292 1.362 . S
C296 C293 1.431 . S
C296 C306 1.476 . S
H297 C291 0.929 . S
C298 O289 1.250 . S
C298 O290 1.258 1_545 S
O299 Mn284 2.162 . S
O299 C287 1.281 . S
O300 Mn284 2.297 . S
O300 C287 1.236 . S
N301 Mn285 2.282 . S
N301 C302 1.328 . S
N301 C306 1.318 . S
C302 N301 1.328 . S
C302 C303 1.457 . S
C302 H307 0.929 . S
C303 C302 1.457 . S
C303 C304 1.291 . S
C303 H316 0.931 . S
C304 C303 1.291 . S
C304 C305 1.373 . S
C304 H317 0.929 . S
C305 C304 1.373 . S
C305 C306 1.396 . S
C305 C312 1.403 . S
C306 C296 1.476 . S
C306 N301 1.318 . S
C306 C305 1.396 . S
H307 C302 0.929 . S
O308 Mn284 2.385 . S
O308 C286 1.234 1_545 S
O309 Mn284 2.209 1_565 S
O309 Mn285 2.215 . S
O309 C286 1.283 . S
O310 Mn284 2.094 . S
O310 C288 1.240 . S
O311 Mn285 2.117 . S
O311 C288 1.264 1_565 S
C312 C305 1.403 . S
C312 C313 1.399 . S
C312 H318 0.929 . S
C313 C293 1.449 . S
C313 C312 1.399 . S
C313 H319 0.930 . S
H314 C294 0.931 . S
H315 C295 0.930 . S
H316 C303 0.931 . S
H317 C304 0.929 . S
H318 C312 0.929 . S
H319 C313 0.930 . S
Mn320 O325 2.095 . S
Mn320 O335 2.162 . S
Mn320 O336 2.297 . S
Mn320 O344 2.385 . S
Mn320 O345 2.209 . S
Mn320 O346 2.094 . S
Mn321 O326 2.121 . S
Mn321 N328 2.257 . S
Mn321 N337 2.282 . S
Mn321 O345 2.215 . S
Mn321 O347 2.117 . S
C322 O344 1.234 . S
C322 O345 1.283 . S
C323 O335 1.281 . S
C323 O336 1.236 . S
C324 O346 1.240 . S
C324 O347 1.264 . S
O325 Mn320 2.095 . S
O325 C334 1.250 . S
O326 Mn321 2.121 . S
O326 C334 1.258 . S
C327 N328 1.326 . S
C327 C331 1.460 . S
C327 H333 0.929 . S
N328 Mn321 2.257 . S
N328 C327 1.326 . S
N328 C332 1.362 . S
C329 C330 1.258 . S
C329 C332 1.431 . S
C329 C349 1.449 . S
C330 C329 1.258 . S
C330 C331 1.477 . S
C330 H350 0.931 . S
C331 C327 1.460 . S
C331 C330 1.477 . S
C331 H351 0.930 . S
C332 N328 1.362 . S
C332 C329 1.431 . S
C332 C342 1.476 . S
H333 C327 0.929 . S
C334 O325 1.250 . S
C334 O326 1.258 . S
O335 Mn320 2.162 . S
O335 C323 1.281 . S
O336 Mn320 2.297 . S
O336 C323 1.236 . S
N337 Mn321 2.282 . S
N337 C338 1.328 . S
N337 C342 1.318 . S
C338 N337 1.328 . S
C338 C339 1.457 . S
C338 H343 0.929 . S
C339 C338 1.457 . S
C339 C340 1.291 . S
C339 H352 0.931 . S
C340 C339 1.291 . S
C340 C341 1.373 . S
C340 H353 0.929 . S
C341 C340 1.373 . S
C341 C342 1.396 . S
C341 C348 1.403 . S
C342 C332 1.476 . S
C342 N337 1.318 . S
C342 C341 1.396 . S
H343 C338 0.929 . S
O344 Mn320 2.385 . S
O344 C322 1.234 . S
O345 Mn320 2.209 . S
O345 Mn321 2.215 . S
O345 C322 1.283 . S
O346 Mn320 2.094 . S
O346 C324 1.240 . S
O347 Mn321 2.117 . S
O347 C324 1.264 . S
C348 C341 1.403 . S
C348 C349 1.399 . S
C348 H354 0.929 . S
C349 C329 1.449 . S
C349 C348 1.399 . S
C349 H355 0.930 . S
H350 C330 0.931 . S
H351 C331 0.930 . S
H352 C339 0.931 . S
H353 C340 0.929 . S
H354 C348 0.929 . S
H355 C349 0.930 . S
Mn356 O361 2.095 . S
Mn356 O371 2.162 . S
Mn356 O372 2.297 . S
Mn356 O380 2.385 . S
Mn356 O381 2.209 . S
Mn356 O382 2.094 . S
Mn357 O362 2.121 . S
Mn357 N364 2.257 . S
Mn357 N373 2.282 . S
Mn357 O381 2.215 . S
Mn357 O383 2.117 . S
C358 O380 1.234 . S
C358 O381 1.283 . S
C359 O371 1.281 . S
C359 O372 1.236 . S
C360 O382 1.240 . S
C360 O383 1.264 . S
O361 Mn356 2.095 . S
O361 C370 1.250 . S
O362 Mn357 2.121 . S
O362 C370 1.258 . S
C363 N364 1.326 . S
C363 C367 1.460 . S
C363 H369 0.929 . S
N364 Mn357 2.257 . S
N364 C363 1.326 . S
N364 C368 1.362 . S
C365 C366 1.258 . S
C365 C368 1.431 . S
C365 C385 1.449 . S
C366 C365 1.258 . S
C366 C367 1.477 . S
C366 H386 0.931 . S
C367 C363 1.460 . S
C367 C366 1.477 . S
C367 H387 0.930 . S
C368 N364 1.362 . S
C368 C365 1.431 . S
C368 C378 1.476 . S
H369 C363 0.929 . S
C370 O361 1.250 . S
C370 O362 1.258 . S
O371 Mn356 2.162 . S
O371 C359 1.281 . S
O372 Mn356 2.297 . S
O372 C359 1.236 . S
N373 Mn357 2.282 . S
N373 C374 1.328 . S
N373 C378 1.318 . S
C374 N373 1.328 . S
C374 C375 1.457 . S
C374 H379 0.929 . S
C375 C374 1.457 . S
C375 C376 1.291 . S
C375 H388 0.931 . S
C376 C375 1.291 . S
C376 C377 1.373 . S
C376 H389 0.929 . S
C377 C376 1.373 . S
C377 C378 1.396 . S
C377 C384 1.403 . S
C378 C368 1.476 . S
C378 N373 1.318 . S
C378 C377 1.396 . S
H379 C374 0.929 . S
O380 Mn356 2.385 . S
O380 C358 1.234 . S
O381 Mn356 2.209 . S
O381 Mn357 2.215 . S
O381 C358 1.283 . S
O382 Mn356 2.094 . S
O382 C360 1.240 . S
O383 Mn357 2.117 . S
O383 C360 1.264 . S
C384 C377 1.403 . S
C384 C385 1.399 . S
C384 H390 0.929 . S
C385 C365 1.449 . S
C385 C384 1.399 . S
C385 H391 0.930 . S
H386 C366 0.931 . S
H387 C367 0.930 . S
H388 C375 0.931 . S
H389 C376 0.929 . S
H390 C384 0.929 . S
H391 C385 0.930 . S
Mn392 O397 2.095 . S
Mn392 O407 2.162 . S
Mn392 O408 2.297 . S
Mn392 O416 2.385 . S
Mn392 O417 2.209 . S
Mn392 O418 2.094 . S
Mn393 O398 2.121 . S
Mn393 N400 2.257 . S
Mn393 N409 2.282 . S
Mn393 O417 2.215 . S
Mn393 O419 2.117 . S
C394 O416 1.234 . S
C394 O417 1.283 . S
C395 O407 1.281 . S
C395 O408 1.236 . S
C396 O418 1.240 . S
C396 O419 1.264 . S
O397 Mn392 2.095 . S
O397 C406 1.250 . S
O398 Mn393 2.121 . S
O398 C406 1.258 . S
C399 N400 1.326 . S
C399 C403 1.460 . S
C399 H405 0.929 . S
N400 Mn393 2.257 . S
N400 C399 1.326 . S
N400 C404 1.362 . S
C401 C402 1.258 . S
C401 C404 1.431 . S
C401 C421 1.449 . S
C402 C401 1.258 . S
C402 C403 1.477 . S
C402 H422 0.931 . S
C403 C399 1.460 . S
C403 C402 1.477 . S
C403 H423 0.930 . S
C404 N400 1.362 . S
C404 C401 1.431 . S
C404 C414 1.476 . S
H405 C399 0.929 . S
C406 O397 1.250 . S
C406 O398 1.258 . S
O407 Mn392 2.162 . S
O407 C395 1.281 . S
O408 Mn392 2.297 . S
O408 C395 1.236 . S
N409 Mn393 2.282 . S
N409 C410 1.328 . S
N409 C414 1.318 . S
C410 N409 1.328 . S
C410 C411 1.457 . S
C410 H415 0.929 . S
C411 C410 1.457 . S
C411 C412 1.291 . S
C411 H424 0.931 . S
C412 C411 1.291 . S
C412 C413 1.373 . S
C412 H425 0.929 . S
C413 C412 1.373 . S
C413 C414 1.396 . S
C413 C420 1.403 . S
C414 C404 1.476 . S
C414 N409 1.318 . S
C414 C413 1.396 . S
H415 C410 0.929 . S
O416 Mn392 2.385 . S
O416 C394 1.234 . S
O417 Mn392 2.209 . S
O417 Mn393 2.215 . S
O417 C394 1.283 . S
O418 Mn392 2.094 . S
O418 C396 1.240 . S
O419 Mn393 2.117 . S
O419 C396 1.264 . S
C420 C413 1.403 . S
C420 C421 1.399 . S
C420 H426 0.929 . S
C421 C401 1.449 . S
C421 C420 1.399 . S
C421 H427 0.930 . S
H422 C402 0.931 . S
H423 C403 0.930 . S
H424 C411 0.931 . S
H425 C412 0.929 . S
H426 C420 0.929 . S
H427 C421 0.930 . S
Mn428 O433 2.095 . S
Mn428 O443 2.162 . S
Mn428 O444 2.297 . S
Mn428 O452 2.385 1_565 S
Mn428 O453 2.209 1_565 S
Mn428 O454 2.094 . S
Mn429 O434 2.121 . S
Mn429 N436 2.257 . S
Mn429 N445 2.282 . S
Mn429 O453 2.215 . S
Mn429 O455 2.117 . S
C430 O452 1.234 . S
C430 O453 1.283 . S
C431 O443 1.281 . S
C431 O444 1.236 . S
C432 O454 1.240 . S
C432 O455 1.264 1_565 S
O433 Mn428 2.095 . S
O433 C442 1.250 1_565 S
O434 Mn429 2.121 . S
O434 C442 1.258 . S
C435 N436 1.326 . S
C435 C439 1.460 . S
C435 H441 0.929 . S
N436 Mn429 2.257 . S
N436 C435 1.326 . S
N436 C440 1.362 . S
C437 C438 1.258 . S
C437 C440 1.431 . S
C437 C457 1.449 . S
C438 C437 1.258 . S
C438 C439 1.477 . S
C438 H458 0.931 . S
C439 C435 1.460 . S
C439 C438 1.477 . S
C439 H459 0.930 . S
C440 N436 1.362 . S
C440 C437 1.431 . S
C440 C450 1.476 . S
H441 C435 0.929 . S
C442 O433 1.250 1_545 S
C442 O434 1.258 . S
O443 Mn428 2.162 . S
O443 C431 1.281 . S
O444 Mn428 2.297 . S
O444 C431 1.236 . S
N445 Mn429 2.282 . S
N445 C446 1.328 . S
N445 C450 1.318 . S
C446 N445 1.328 . S
C446 C447 1.457 . S
C446 H451 0.929 . S
C447 C446 1.457 . S
C447 C448 1.291 . S
C447 H460 0.931 . S
C448 C447 1.291 . S
C448 C449 1.373 . S
C448 H461 0.929 . S
C449 C448 1.373 . S
C449 C450 1.396 . S
C449 C456 1.403 . S
C450 C440 1.476 . S
C450 N445 1.318 . S
C450 C449 1.396 . S
H451 C446 0.929 . S
O452 Mn428 2.385 1_545 S
O452 C430 1.234 . S
O453 Mn428 2.209 1_545 S
O453 Mn429 2.215 . S
O453 C430 1.283 . S
O454 Mn428 2.094 . S
O454 C432 1.240 . S
O455 Mn429 2.117 . S
O455 C432 1.264 1_545 S
C456 C449 1.403 . S
C456 C457 1.399 . S
C456 H462 0.929 . S
C457 C437 1.449 . S
C457 C456 1.399 . S
C457 H463 0.930 . S
H458 C438 0.931 . S
H459 C439 0.930 . S
H460 C447 0.931 . S
H461 C448 0.929 . S
H462 C456 0.929 . S
H463 C457 0.930 . S
Mn464 O469 2.095 . S
Mn464 O479 2.162 . S
Mn464 O480 2.297 . S
Mn464 O488 2.385 . S
Mn464 O489 2.209 1_455 S
Mn464 O490 2.094 . S
Mn465 O470 2.121 . S
Mn465 N472 2.257 . S
Mn465 N481 2.282 . S
Mn465 O489 2.215 . S
Mn465 O491 2.117 . S
C466 O488 1.234 1_655 S
C466 O489 1.283 . S
C467 O479 1.281 . S
C467 O480 1.236 . S
C468 O490 1.240 . S
C468 O491 1.264 1_455 S
O469 Mn464 2.095 . S
O469 C478 1.250 . S
O470 Mn465 2.121 . S
O470 C478 1.258 1_655 S
C471 N472 1.326 . S
C471 C475 1.460 . S
C471 H477 0.929 . S
N472 Mn465 2.257 . S
N472 C471 1.326 . S
N472 C476 1.362 . S
C473 C474 1.258 . S
C473 C476 1.431 . S
C473 C493 1.449 . S
C474 C473 1.258 . S
C474 C475 1.477 . S
C474 H494 0.931 . S
C475 C471 1.460 . S
C475 C474 1.477 . S
C475 H495 0.930 . S
C476 N472 1.362 . S
C476 C473 1.431 . S
C476 C486 1.476 . S
H477 C471 0.929 . S
C478 O469 1.250 . S
C478 O470 1.258 1_455 S
O479 Mn464 2.162 . S
O479 C467 1.281 . S
O480 Mn464 2.297 . S
O480 C467 1.236 . S
N481 Mn465 2.282 . S
N481 C482 1.328 . S
N481 C486 1.318 . S
C482 N481 1.328 . S
C482 C483 1.457 . S
C482 H487 0.929 . S
C483 C482 1.457 . S
C483 C484 1.291 . S
C483 H496 0.931 . S
C484 C483 1.291 . S
C484 C485 1.373 . S
C484 H497 0.929 . S
C485 C484 1.373 . S
C485 C486 1.396 . S
C485 C492 1.403 . S
C486 C476 1.476 . S
C486 N481 1.318 . S
C486 C485 1.396 . S
H487 C482 0.929 . S
O488 Mn464 2.385 . S
O488 C466 1.234 1_455 S
O489 Mn464 2.209 1_655 S
O489 Mn465 2.215 . S
O489 C466 1.283 . S
O490 Mn464 2.094 . S
O490 C468 1.240 . S
O491 Mn465 2.117 . S
O491 C468 1.264 1_655 S
C492 C485 1.403 . S
C492 C493 1.399 . S
C492 H498 0.929 . S
C493 C473 1.449 . S
C493 C492 1.399 . S
C493 H499 0.930 . S
H494 C474 0.931 . S
H495 C475 0.930 . S
H496 C483 0.931 . S
H497 C484 0.929 . S
H498 C492 0.929 . S
H499 C493 0.930 . S
Mn500 O505 2.095 . S
Mn500 O515 2.162 . S
Mn500 O516 2.297 . S
Mn500 O524 2.385 . S
Mn500 O525 2.209 . S
Mn500 O526 2.094 . S
Mn501 O506 2.121 . S
Mn501 N508 2.257 . S
Mn501 N517 2.282 . S
Mn501 O525 2.215 . S
Mn501 O527 2.117 . S
C502 O524 1.234 . S
C502 O525 1.283 . S
C503 O515 1.281 . S
C503 O516 1.236 . S
C504 O526 1.240 . S
C504 O527 1.264 . S
O505 Mn500 2.095 . S
O505 C514 1.250 . S
O506 Mn501 2.121 . S
O506 C514 1.258 . S
C507 N508 1.326 . S
C507 C511 1.460 . S
C507 H513 0.929 . S
N508 Mn501 2.257 . S
N508 C507 1.326 . S
N508 C512 1.362 . S
C509 C510 1.258 . S
C509 C512 1.431 . S
C509 C529 1.449 . S
C510 C509 1.258 . S
C510 C511 1.477 . S
C510 H530 0.931 . S
C511 C507 1.460 . S
C511 C510 1.477 . S
C511 H531 0.930 . S
C512 N508 1.362 . S
C512 C509 1.431 . S
C512 C522 1.476 . S
H513 C507 0.929 . S
C514 O505 1.250 . S
C514 O506 1.258 . S
O515 Mn500 2.162 . S
O515 C503 1.281 . S
O516 Mn500 2.297 . S
O516 C503 1.236 . S
N517 Mn501 2.282 . S
N517 C518 1.328 . S
N517 C522 1.318 . S
C518 N517 1.328 . S
C518 C519 1.457 . S
C518 H523 0.929 . S
C519 C518 1.457 . S
C519 C520 1.291 . S
C519 H532 0.931 . S
C520 C519 1.291 . S
C520 C521 1.373 . S
C520 H533 0.929 . S
C521 C520 1.373 . S
C521 C522 1.396 . S
C521 C528 1.403 . S
C522 C512 1.476 . S
C522 N517 1.318 . S
C522 C521 1.396 . S
H523 C518 0.929 . S
O524 Mn500 2.385 . S
O524 C502 1.234 . S
O525 Mn500 2.209 . S
O525 Mn501 2.215 . S
O525 C502 1.283 . S
O526 Mn500 2.094 . S
O526 C504 1.240 . S
O527 Mn501 2.117 . S
O527 C504 1.264 . S
C528 C521 1.403 . S
C528 C529 1.399 . S
C528 H534 0.929 . S
C529 C509 1.449 . S
C529 C528 1.399 . S
C529 H535 0.930 . S
H530 C510 0.931 . S
H531 C511 0.930 . S
H532 C519 0.931 . S
H533 C520 0.929 . S
H534 C528 0.929 . S
H535 C529 0.930 . S
Mn536 O541 2.095 1_455 S
Mn536 O551 2.162 . S
Mn536 O552 2.297 1_455 S
Mn536 O560 2.385 . S
Mn536 O561 2.209 1_455 S
Mn536 O562 2.094 . S
Mn537 O542 2.121 . S
Mn537 N544 2.257 . S
Mn537 N553 2.282 1_655 S
Mn537 O561 2.215 . S
Mn537 O563 2.117 1_655 S
C538 O560 1.234 . S
C538 O561 1.283 1_455 S
C539 O551 1.281 . S
C539 O552 1.236 1_455 S
C540 O562 1.240 . S
C540 O563 1.264 . S
O541 Mn536 2.095 1_655 S
O541 C550 1.250 . S
O542 Mn537 2.121 . S
O542 C550 1.258 . S
C543 N544 1.326 . S
C543 C547 1.460 . S
C543 H549 0.929 . S
N544 Mn537 2.257 . S
N544 C543 1.326 . S
N544 C548 1.362 . S
C545 C546 1.258 . S
C545 C548 1.431 . S
C545 C565 1.449 . S
C546 C545 1.258 . S
C546 C547 1.477 . S
C546 H566 0.931 . S
C547 C543 1.460 . S
C547 C546 1.477 . S
C547 H567 0.930 . S
C548 N544 1.362 . S
C548 C545 1.431 . S
C548 C558 1.476 . S
H549 C543 0.929 . S
C550 O541 1.250 . S
C550 O542 1.258 . S
O551 Mn536 2.162 . S
O551 C539 1.281 . S
O552 Mn536 2.297 1_655 S
O552 C539 1.236 1_655 S
N553 Mn537 2.282 1_455 S
N553 C554 1.328 . S
N553 C558 1.318 1_455 S
C554 N553 1.328 . S
C554 C555 1.457 . S
C554 H559 0.929 . S
C555 C554 1.457 . S
C555 C556 1.291 . S
C555 H568 0.931 . S
C556 C555 1.291 . S
C556 C557 1.373 1_455 S
C556 H569 0.929 . S
C557 C556 1.373 1_655 S
C557 C558 1.396 . S
C557 C564 1.403 . S
C558 C548 1.476 . S
C558 N553 1.318 1_655 S
C558 C557 1.396 . S
H559 C554 0.929 . S
O560 Mn536 2.385 . S
O560 C538 1.234 . S
O561 Mn536 2.209 1_655 S
O561 Mn537 2.215 . S
O561 C538 1.283 1_655 S
O562 Mn536 2.094 . S
O562 C540 1.240 . S
O563 Mn537 2.117 1_455 S
O563 C540 1.264 . S
C564 C557 1.403 . S
C564 C565 1.399 . S
C564 H570 0.929 . S
C565 C545 1.449 . S
C565 C564 1.399 . S
C565 H571 0.930 . S
H566 C546 0.931 . S
H567 C547 0.930 . S
H568 C555 0.931 . S
H569 C556 0.929 . S
H570 C564 0.929 . S
H571 C565 0.930 . S
Mn572 O577 2.095 . S
Mn572 O587 2.162 . S
Mn572 O588 2.297 . S
Mn572 O596 2.385 . S
Mn572 O597 2.209 . S
Mn572 O598 2.094 . S
Mn573 O578 2.121 . S
Mn573 N580 2.257 . S
Mn573 N589 2.282 . S
Mn573 O597 2.215 . S
Mn573 O599 2.117 . S
C574 O596 1.234 . S
C574 O597 1.283 . S
C575 O587 1.281 . S
C575 O588 1.236 . S
C576 O598 1.240 . S
C576 O599 1.264 . S
O577 Mn572 2.095 . S
O577 C586 1.250 . S
O578 Mn573 2.121 . S
O578 C586 1.258 . S
C579 N580 1.326 . S
C579 C583 1.460 . S
C579 H585 0.929 . S
N580 Mn573 2.257 . S
N580 C579 1.326 . S
N580 C584 1.362 . S
C581 C582 1.258 . S
C581 C584 1.431 . S
C581 C601 1.449 . S
C582 C581 1.258 . S
C582 C583 1.477 . S
C582 H602 0.931 . S
C583 C579 1.460 . S
C583 C582 1.477 . S
C583 H603 0.930 . S
C584 N580 1.362 . S
C584 C581 1.431 . S
C584 C594 1.476 . S
H585 C579 0.929 . S
C586 O577 1.250 . S
C586 O578 1.258 . S
O587 Mn572 2.162 . S
O587 C575 1.281 . S
O588 Mn572 2.297 . S
O588 C575 1.236 . S
N589 Mn573 2.282 . S
N589 C590 1.328 . S
N589 C594 1.318 . S
C590 N589 1.328 . S
C590 C591 1.457 . S
C590 H595 0.929 . S
C591 C590 1.457 . S
C591 C592 1.291 . S
C591 H604 0.931 . S
C592 C591 1.291 . S
C592 C593 1.373 . S
C592 H605 0.929 . S
C593 C592 1.373 . S
C593 C594 1.396 . S
C593 C600 1.403 . S
C594 C584 1.476 . S
C594 N589 1.318 . S
C594 C593 1.396 . S
H595 C590 0.929 . S
O596 Mn572 2.385 . S
O596 C574 1.234 . S
O597 Mn572 2.209 . S
O597 Mn573 2.215 . S
O597 C574 1.283 . S
O598 Mn572 2.094 . S
O598 C576 1.240 . S
O599 Mn573 2.117 . S
O599 C576 1.264 . S
C600 C593 1.403 . S
C600 C601 1.399 . S
C600 H606 0.929 . S
C601 C581 1.449 . S
C601 C600 1.399 . S
C601 H607 0.930 . S
H602 C582 0.931 . S
H603 C583 0.930 . S
H604 C591 0.931 . S
H605 C592 0.929 . S
H606 C600 0.929 . S
H607 C601 0.930 . S
C608 C609 1.369 . S
C608 C610 1.419 . S
C608 H612 0.930 . S
C609 C608 1.369 . S
C609 C618 1.429 . S
C610 C608 1.419 . S
C610 C611 1.363 . S
C610 H613 0.929 . S
C611 C610 1.363 . S
C611 C617 1.428 . S
H612 C608 0.930 . S
H613 C610 0.929 . S
S614 N615 1.613 1_554 S
S614 N616 1.610 . S
N615 S614 1.613 1_556 S
N615 C618 1.350 . S
N616 S614 1.610 . S
N616 C617 1.351 1_554 S
C617 C611 1.428 . S
C617 N616 1.351 1_556 S
C617 C618 1.434 . S
C618 C609 1.429 . S
C618 N615 1.350 . S
C618 C617 1.434 . S
C619 C620 1.369 . S
C619 C621 1.419 . S
C619 H623 0.930 . S
C620 C619 1.369 . S
C620 C629 1.429 . S
C621 C619 1.419 . S
C621 C622 1.363 . S
C621 H624 0.929 . S
C622 C621 1.363 . S
C622 C628 1.428 . S
H623 C619 0.930 . S
H624 C621 0.929 . S
S625 N626 1.613 . S
S625 N627 1.610 . S
N626 S625 1.613 . S
N626 C629 1.350 . S
N627 S625 1.610 . S
N627 C628 1.351 . S
C628 C622 1.428 . S
C628 N627 1.351 . S
C628 C629 1.434 . S
C629 C620 1.429 . S
C629 N626 1.350 . S
C629 C628 1.434 . S
C630 C631 1.369 . S
C630 C632 1.419 . S
C630 H634 0.930 . S
C631 C630 1.369 . S
C631 C640 1.429 . S
C632 C630 1.419 . S
C632 C633 1.363 . S
C632 H635 0.929 . S
C633 C632 1.363 . S
C633 C639 1.428 . S
H634 C630 0.930 . S
H635 C632 0.929 . S
S636 N637 1.613 . S
S636 N638 1.610 . S
N637 S636 1.613 . S
N637 C640 1.350 . S
N638 S636 1.610 . S
N638 C639 1.351 . S
C639 C633 1.428 . S
C639 N638 1.351 . S
C639 C640 1.434 . S
C640 C631 1.429 . S
C640 N637 1.350 . S
C640 C639 1.434 . S
C641 C642 1.369 1_665 S
C641 C643 1.419 1_565 S
C641 H645 0.930 . S
C642 C641 1.369 1_445 S
C642 C651 1.429 . S
C643 C641 1.419 1_545 S
C643 C644 1.363 . S
C643 H646 0.929 1_545 S
C644 C643 1.363 . S
C644 C650 1.428 1_655 S
H645 C641 0.930 . S
H646 C643 0.929 1_565 S
S647 N648 1.613 . S
S647 N649 1.610 . S
N648 S647 1.613 . S
N648 C651 1.350 . S
N649 S647 1.610 . S
N649 C650 1.351 . S
C650 C644 1.428 1_455 S
C650 N649 1.351 . S
C650 C651 1.434 . S
C651 C642 1.429 . S
C651 N648 1.350 . S
C651 C650 1.434 . S
C652 C653 1.369 . S
C652 C654 1.419 . S
C652 H656 0.930 . S
C653 C652 1.369 . S
C653 C662 1.429 . S
C654 C652 1.419 . S
C654 C655 1.363 . S
C654 H657 0.929 . S
C655 C654 1.363 . S
C655 C661 1.428 . S
H656 C652 0.930 . S
H657 C654 0.929 . S
S658 N659 1.613 . S
S658 N660 1.610 . S
N659 S658 1.613 . S
N659 C662 1.350 . S
N660 S658 1.610 . S
N660 C661 1.351 . S
C661 C655 1.428 . S
C661 N660 1.351 . S
C661 C662 1.434 . S
C662 C653 1.429 . S
C662 N659 1.350 . S
C662 C661 1.434 . S
C663 C664 1.369 . S
C663 C665 1.419 . S
C663 H667 0.930 . S
C664 C663 1.369 . S
C664 C673 1.429 . S
C665 C663 1.419 . S
C665 C666 1.363 . S
C665 H668 0.929 . S
C666 C665 1.363 . S
C666 C672 1.428 . S
H667 C663 0.930 . S
H668 C665 0.929 . S
S669 N670 1.613 . S
S669 N671 1.610 . S
N670 S669 1.613 . S
N670 C673 1.350 . S
N671 S669 1.610 . S
N671 C672 1.351 . S
C672 C666 1.428 . S
C672 N671 1.351 . S
C672 C673 1.434 . S
C673 C664 1.429 . S
C673 N670 1.350 . S
C673 C672 1.434 . S
C674 C675 1.369 . S
C674 C676 1.419 . S
C674 H678 0.930 . S
C675 C674 1.369 . S
C675 C684 1.429 . S
C676 C674 1.419 . S
C676 C677 1.363 . S
C676 H679 0.929 . S
C677 C676 1.363 . S
C677 C683 1.428 . S
H678 C674 0.930 . S
H679 C676 0.929 . S
S680 N681 1.613 . S
S680 N682 1.610 . S
N681 S680 1.613 . S
N681 C684 1.350 . S
N682 S680 1.610 . S
N682 C683 1.351 . S
C683 C677 1.428 . S
C683 N682 1.351 . S
C683 C684 1.434 . S
C684 C675 1.429 . S
C684 N681 1.350 . S
C684 C683 1.434 . S
C685 C686 1.369 1_545 S
C685 C687 1.419 . S
C685 H689 0.930 . S
C686 C685 1.369 1_565 S
C686 C695 1.429 . S
C687 C685 1.419 . S
C687 C688 1.363 1_545 S
C687 H690 0.929 . S
C688 C687 1.363 1_565 S
C688 C694 1.428 . S
H689 C685 0.930 . S
H690 C687 0.929 . S
S691 N692 1.613 . S
S691 N693 1.610 . S
N692 S691 1.613 . S
N692 C695 1.350 . S
N693 S691 1.610 . S
N693 C694 1.351 . S
C694 C688 1.428 . S
C694 N693 1.351 . S
C694 C695 1.434 . S
C695 C686 1.429 . S
C695 N692 1.350 . S
C695 C694 1.434 . S
C696 C697 1.369 . S
C696 C698 1.419 . S
C696 H700 0.930 . S
C697 C696 1.369 . S
C697 C706 1.429 . S
C698 C696 1.419 . S
C698 C699 1.363 . S
C698 H701 0.929 . S
C699 C698 1.363 . S
C699 C705 1.428 . S
H700 C696 0.930 . S
H701 C698 0.929 . S
S702 N703 1.613 . S
S702 N704 1.610 . S
N703 S702 1.613 . S
N703 C706 1.350 . S
N704 S702 1.610 . S
N704 C705 1.351 . S
C705 C699 1.428 . S
C705 N704 1.351 . S
C705 C706 1.434 . S
C706 C697 1.429 . S
C706 N703 1.350 . S
C706 C705 1.434 . S
C707 C708 1.369 . S
C707 C709 1.419 . S
C707 H711 0.930 . S
C708 C707 1.369 . S
C708 C717 1.429 . S
C709 C707 1.419 . S
C709 C710 1.363 . S
C709 H712 0.929 . S
C710 C709 1.363 . S
C710 C716 1.428 . S
H711 C707 0.930 . S
H712 C709 0.929 . S
S713 N714 1.613 . S
S713 N715 1.610 . S
N714 S713 1.613 . S
N714 C717 1.350 . S
N715 S713 1.610 . S
N715 C716 1.351 . S
C716 C710 1.428 . S
C716 N715 1.351 . S
C716 C717 1.434 . S
C717 C708 1.429 . S
C717 N714 1.350 . S
C717 C716 1.434 . S
C718 C719 1.369 . S
C718 C720 1.419 . S
C718 H722 0.930 . S
C719 C718 1.369 . S
C719 C728 1.429 . S
C720 C718 1.419 . S
C720 C721 1.363 . S
C720 H723 0.929 . S
C721 C720 1.363 . S
C721 C727 1.428 . S
H722 C718 0.930 . S
H723 C720 0.929 . S
S724 N725 1.613 . S
S724 N726 1.610 . S
N725 S724 1.613 . S
N725 C728 1.350 . S
N726 S724 1.610 . S
N726 C727 1.351 . S
C727 C721 1.428 . S
C727 N726 1.351 . S
C727 C728 1.434 . S
C728 C719 1.429 . S
C728 N725 1.350 . S
C728 C727 1.434 . S
C729 C730 1.369 . S
C729 C731 1.419 . S
C729 H733 0.930 . S
C730 C729 1.369 . S
C730 C739 1.429 . S
C731 C729 1.419 . S
C731 C732 1.363 . S
C731 H734 0.929 . S
C732 C731 1.363 . S
C732 C738 1.428 . S
H733 C729 0.930 . S
H734 C731 0.929 . S
S735 N736 1.613 . S
S735 N737 1.610 . S
N736 S735 1.613 . S
N736 C739 1.350 . S
N737 S735 1.610 . S
N737 C738 1.351 . S
C738 C732 1.428 . S
C738 N737 1.351 . S
C738 C739 1.434 . S
C739 C730 1.429 . S
C739 N736 1.350 . S
C739 C738 1.434 . S
C740 C741 1.369 . S
C740 C742 1.419 . S
C740 H744 0.930 . S
C741 C740 1.369 . S
C741 C750 1.429 . S
C742 C740 1.419 . S
C742 C743 1.363 . S
C742 H745 0.929 . S
C743 C742 1.363 . S
C743 C749 1.428 . S
H744 C740 0.930 . S
H745 C742 0.929 . S
S746 N747 1.613 . S
S746 N748 1.610 . S
N747 S746 1.613 . S
N747 C750 1.350 . S
N748 S746 1.610 . S
N748 C749 1.351 . S
C749 C743 1.428 . S
C749 N748 1.351 . S
C749 C750 1.434 . S
C750 C741 1.429 . S
C750 N747 1.350 . S
C750 C749 1.434 . S
C751 C752 1.369 . S
C751 C753 1.419 . S
C751 H755 0.930 . S
C752 C751 1.369 . S
C752 C761 1.429 . S
C753 C751 1.419 . S
C753 C754 1.363 . S
C753 H756 0.929 1_455 S
C754 C753 1.363 . S
C754 C760 1.428 . S
H755 C751 0.930 . S
H756 C753 0.929 1_655 S
S757 N758 1.613 . S
S757 N759 1.610 . S
N758 S757 1.613 . S
N758 C761 1.350 . S
N759 S757 1.610 . S
N759 C760 1.351 . S
C760 C754 1.428 . S
C760 N759 1.351 . S
C760 C761 1.434 . S
C761 C752 1.429 . S
C761 N758 1.350 . S
C761 C760 1.434 . S
C762 C763 1.369 . S
C762 C764 1.419 . S
C762 H766 0.930 . S
C763 C762 1.369 . S
C763 C772 1.429 . S
C764 C762 1.419 . S
C764 C765 1.363 . S
C764 H767 0.929 . S
C765 C764 1.363 . S
C765 C771 1.428 . S
H766 C762 0.930 . S
H767 C764 0.929 . S
S768 N769 1.613 . S
S768 N770 1.610 . S
N769 S768 1.613 . S
N769 C772 1.350 . S
N770 S768 1.610 . S
N770 C771 1.351 . S
C771 C765 1.428 . S
C771 N770 1.351 . S
C771 C772 1.434 . S
C772 C763 1.429 . S
C772 N769 1.350 . S
C772 C771 1.434 . S
C773 C774 1.369 . S
C773 C775 1.419 . S
C773 H777 0.930 . S
C774 C773 1.369 . S
C774 C783 1.428 . S
C775 C773 1.419 . S
C775 C776 1.363 . S
C775 H778 0.929 . S
C776 C775 1.363 . S
C776 C782 1.428 . S
H777 C773 0.930 . S
H778 C775 0.929 . S
S779 N780 1.613 . S
S779 N781 1.611 1_655 S
N780 S779 1.613 . S
N780 C783 1.350 1_655 S
N781 S779 1.611 1_455 S
N781 C782 1.353 . S
C782 C776 1.428 . S
C782 N781 1.353 . S
C782 C783 1.434 . S
C783 C774 1.428 . S
C783 N780 1.350 1_455 S
C783 C782 1.434 . S
C784 C785 1.369 . S
C784 C786 1.419 . S
C784 H788 0.930 . S
C785 C784 1.369 . S
C785 C794 1.429 . S
C786 C784 1.419 . S
C786 C787 1.363 . S
C786 H789 0.929 . S
C787 C786 1.363 . S
C787 C793 1.428 . S
H788 C784 0.930 . S
H789 C786 0.929 . S
S790 N791 1.613 1_545 S
S790 N792 1.610 . S
N791 S790 1.613 1_565 S
N791 C794 1.350 . S
N792 S790 1.610 . S
N792 C793 1.351 1_545 S
C793 C787 1.428 . S
C793 N792 1.351 1_565 S
C793 C794 1.434 . S
C794 C785 1.429 . S
C794 N791 1.350 . S
C794 C793 1.434 . S
C795 C796 1.369 . S
C795 C797 1.419 . S
C795 H799 0.930 . S
C796 C795 1.369 . S
C796 C805 1.429 . S
C797 C795 1.419 . S
C797 C798 1.363 . S
C797 H800 0.929 . S
C798 C797 1.363 . S
C798 C804 1.428 . S
H799 C795 0.930 . S
H800 C797 0.929 . S
S801 N802 1.613 . S
S801 N803 1.610 . S
N802 S801 1.613 . S
N802 C805 1.350 . S
N803 S801 1.610 . S
N803 C804 1.351 . S
C804 C798 1.428 . S
C804 N803 1.351 . S
C804 C805 1.434 . S
C805 C796 1.429 . S
C805 N802 1.350 . S
C805 C804 1.434 . S
C806 C807 1.369 1_556 S
C806 C808 1.419 . S
C806 H810 0.930 . S
C807 C806 1.369 1_554 S
C807 C816 1.429 1_565 S
C808 C806 1.419 . S
C808 C809 1.363 1_556 S
C808 H811 0.929 . S
C809 C808 1.363 1_554 S
C809 C815 1.428 . S
H810 C806 0.930 . S
H811 C808 0.929 . S
S812 N813 1.613 . S
S812 N814 1.610 1_545 S
N813 S812 1.613 . S
N813 C816 1.357 . S
N814 S812 1.610 1_565 S
N814 C815 1.351 . S
C815 C809 1.428 . S
C815 N814 1.351 . S
C815 C816 1.426 1_565 S
C816 C807 1.429 1_545 S
C816 N813 1.357 . S
C816 C815 1.426 1_545 S
C817 C818 1.369 . S
C817 C819 1.419 . S
C817 H821 0.930 . S
C818 C817 1.369 . S
C818 C827 1.429 . S
C819 C817 1.419 . S
C819 C820 1.363 . S
C819 H822 0.929 . S
C820 C819 1.363 . S
C820 C826 1.428 . S
H821 C817 0.930 . S
H822 C819 0.929 . S
S823 N824 1.613 . S
S823 N825 1.610 . S
N824 S823 1.613 . S
N824 C827 1.350 . S
N825 S823 1.610 . S
N825 C826 1.351 . S
C826 C820 1.428 . S
C826 N825 1.351 . S
C826 C827 1.434 . S
C827 C818 1.429 . S
C827 N824 1.350 . S
C827 C826 1.434 . S
C828 C829 1.369 . S
C828 C830 1.419 . S
C828 H832 0.930 . S
C829 C828 1.369 . S
C829 C838 1.429 . S
C830 C828 1.419 . S
C830 C831 1.363 . S
C830 H833 0.929 . S
C831 C830 1.363 . S
C831 C837 1.428 . S
H832 C828 0.930 . S
H833 C830 0.929 . S
S834 N835 1.613 . S
S834 N836 1.610 1_565 S
N835 S834 1.613 . S
N835 C838 1.350 1_565 S
N836 S834 1.610 1_545 S
N836 C837 1.351 . S
C837 C831 1.428 . S
C837 N836 1.351 . S
C837 C838 1.434 . S
C838 C829 1.429 . S
C838 N835 1.350 1_545 S
C838 C837 1.434 . S
C839 C840 1.369 . S
C839 C841 1.419 . S
C839 H843 0.930 . S
C840 C839 1.369 . S
C840 C849 1.429 . S
C841 C839 1.419 . S
C841 C842 1.363 . S
C841 H844 0.929 . S
C842 C841 1.363 . S
C842 C848 1.428 . S
H843 C839 0.930 . S
H844 C841 0.929 . S
S845 N846 1.613 . S
S845 N847 1.610 . S
N846 S845 1.613 . S
N846 C849 1.350 . S
N847 S845 1.610 . S
N847 C848 1.351 . S
C848 C842 1.428 . S
C848 N847 1.351 . S
C848 C849 1.434 . S
C849 C840 1.429 . S
C849 N846 1.350 . S
C849 C848 1.434 . S
C850 C851 1.369 . S
C850 C852 1.419 . S
C850 H854 0.930 . S
C851 C850 1.369 . S
C851 C860 1.429 . S
C852 C850 1.419 . S
C852 C853 1.363 . S
C852 H855 0.929 . S
C853 C852 1.363 . S
C853 C859 1.428 . S
H854 C850 0.930 . S
H855 C852 0.929 . S
S856 N857 1.613 . S
S856 N858 1.610 . S
N857 S856 1.613 . S
N857 C860 1.350 . S
N858 S856 1.610 . S
N858 C859 1.351 . S
C859 C853 1.428 . S
C859 N858 1.351 . S
C859 C860 1.434 . S
C860 C851 1.429 . S
C860 N857 1.350 . S
C860 C859 1.434 . S
C861 C862 1.369 . S
C861 C863 1.419 . S
C861 H865 0.930 . S
C862 C861 1.369 . S
C862 C871 1.429 . S
C863 C861 1.419 . S
C863 C864 1.363 . S
C863 H866 0.929 . S
C864 C863 1.363 . S
C864 C870 1.428 . S
H865 C861 0.930 . S
H866 C863 0.929 . S
S867 N868 1.613 . S
S867 N869 1.610 . S
N868 S867 1.613 . S
N868 C871 1.350 . S
N869 S867 1.610 . S
N869 C870 1.351 . S
C870 C864 1.428 . S
C870 N869 1.351 . S
C870 C871 1.434 . S
C871 C862 1.429 . S
C871 N868 1.350 . S
C871 C870 1.434 . S
C872 C873 1.369 . S
C872 C874 1.419 . S
C872 H876 0.930 . S
C873 C872 1.369 . S
C873 C882 1.429 . S
C874 C872 1.419 . S
C874 C875 1.363 . S
C874 H877 0.929 . S
C875 C874 1.363 . S
C875 C881 1.428 . S
H876 C872 0.930 . S
H877 C874 0.929 . S
S878 N879 1.613 . S
S878 N880 1.610 . S
N879 S878 1.613 . S
N879 C882 1.350 . S
N880 S878 1.610 . S
N880 C881 1.351 . S
C881 C875 1.428 . S
C881 N880 1.351 . S
C881 C882 1.434 . S
C882 C873 1.429 . S
C882 N879 1.350 . S
C882 C881 1.434 . S
C883 C884 1.369 . S
C883 C885 1.419 . S
C883 H887 0.930 . S
C884 C883 1.369 . S
C884 C893 1.429 1_545 S
C885 C883 1.419 . S
C885 C886 1.363 . S
C885 H888 0.929 . S
C886 C885 1.363 . S
C886 C892 1.428 1_545 S
H887 C883 0.930 . S
H888 C885 0.929 . S
S889 N890 1.613 . S
S889 N891 1.610 . S
N890 S889 1.613 . S
N890 C893 1.350 . S
N891 S889 1.610 . S
N891 C892 1.351 . S
C892 C886 1.428 1_565 S
C892 N891 1.351 . S
C892 C893 1.434 . S
C893 C884 1.429 1_565 S
C893 N890 1.350 . S
C893 C892 1.434 . S
C894 C895 1.369 . S
C894 C896 1.419 . S
C894 H898 0.930 . S
C895 C894 1.369 . S
C895 C904 1.429 . S
C896 C894 1.419 . S
C896 C897 1.363 . S
C896 H899 0.929 . S
C897 C896 1.363 . S
C897 C903 1.428 . S
H898 C894 0.930 . S
H899 C896 0.929 . S
S900 N901 1.613 . S
S900 N902 1.610 . S
N901 S900 1.613 . S
N901 C904 1.350 . S
N902 S900 1.610 . S
N902 C903 1.351 . S
C903 C897 1.428 . S
C903 N902 1.351 . S
C903 C904 1.434 . S
C904 C895 1.429 . S
C904 N901 1.350 . S
C904 C903 1.434 . S
C905 C906 1.369 . S
C905 C907 1.419 . S
C905 H909 0.930 . S
C906 C905 1.369 . S
C906 C915 1.429 . S
C907 C905 1.419 . S
C907 C908 1.363 . S
C907 H910 0.929 . S
C908 C907 1.363 . S
C908 C914 1.428 . S
H909 C905 0.930 . S
H910 C907 0.929 . S
S911 N912 1.613 . S
S911 N913 1.610 . S
N912 S911 1.613 . S
N912 C915 1.350 . S
N913 S911 1.610 . S
N913 C914 1.351 . S
C914 C908 1.428 . S
C914 N913 1.351 . S
C914 C915 1.434 . S
C915 C906 1.429 . S
C915 N912 1.350 . S
C915 C914 1.434 . S
C916 C917 1.369 . S
C916 C918 1.419 . S
C916 H920 0.930 . S
C917 C916 1.369 . S
C917 C926 1.429 . S
C918 C916 1.419 . S
C918 C919 1.363 . S
C918 H921 0.929 . S
C919 C918 1.363 . S
C919 C925 1.428 . S
H920 C916 0.930 . S
H921 C918 0.929 . S
S922 N923 1.613 . S
S922 N924 1.610 . S
N923 S922 1.613 . S
N923 C926 1.350 . S
N924 S922 1.610 . S
N924 C925 1.351 . S
C925 C919 1.428 . S
C925 N924 1.351 . S
C925 C926 1.434 . S
C926 C917 1.429 . S
C926 N923 1.350 . S
C926 C925 1.434 . S
C927 C928 1.369 . S
C927 C929 1.419 . S
C927 H931 0.930 1_545 S
C928 C927 1.369 . S
C928 C937 1.441 . S
C929 C927 1.419 . S
C929 C930 1.363 1_455 S
C929 H932 0.929 1_545 S
C930 C929 1.363 1_655 S
C930 C936 1.428 . S
H931 C927 0.930 1_565 S
H932 C929 0.929 1_565 S
S933 N934 1.613 . S
S933 N935 1.610 . S
N934 S933 1.613 . S
N934 C937 1.344 1_655 S
N935 S933 1.610 . S
N935 C936 1.351 . S
C936 C930 1.428 . S
C936 N935 1.351 . S
C936 C937 1.427 1_655 S
C937 C928 1.441 . S
C937 N934 1.344 1_455 S
C937 C936 1.427 1_455 S
C938 C939 1.369 . S
C938 C940 1.419 . S
C938 H942 0.930 . S
C939 C938 1.369 . S
C939 C948 1.429 . S
C940 C938 1.419 . S
C940 C941 1.363 . S
C940 H943 0.929 . S
C941 C940 1.363 . S
C941 C947 1.428 . S
H942 C938 0.930 . S
H943 C940 0.929 . S
S944 N945 1.613 . S
S944 N946 1.610 . S
N945 S944 1.613 . S
N945 C948 1.350 . S
N946 S944 1.610 . S
N946 C947 1.351 . S
C947 C941 1.428 . S
C947 N946 1.351 . S
C947 C948 1.434 . S
C948 C939 1.429 . S
C948 N945 1.350 . S
C948 C947 1.434 . S
C949 C950 1.369 . S
C949 C951 1.419 . S
C949 H953 0.930 . S
C950 C949 1.369 . S
C950 C959 1.429 . S
C951 C949 1.419 . S
C951 C952 1.363 . S
C951 H954 0.929 . S
C952 C951 1.363 . S
C952 C958 1.428 . S
H953 C949 0.930 . S
H954 C951 0.929 . S
S955 N956 1.613 . S
S955 N957 1.610 . S
N956 S955 1.613 . S
N956 C959 1.350 . S
N957 S955 1.610 . S
N957 C958 1.351 . S
C958 C952 1.428 . S
C958 N957 1.351 . S
C958 C959 1.434 . S
C959 C950 1.429 . S
C959 N956 1.350 . S
C959 C958 1.434 . S
C960 C961 1.369 . S
C960 C962 1.419 . S
C960 H964 0.930 . S
C961 C960 1.369 . S
C961 C970 1.429 . S
C962 C960 1.419 . S
C962 C963 1.363 . S
C962 H965 0.929 . S
C963 C962 1.363 . S
C963 C969 1.428 . S
H964 C960 0.930 . S
H965 C962 0.929 . S
S966 N967 1.613 . S
S966 N968 1.610 . S
N967 S966 1.613 . S
N967 C970 1.350 . S
N968 S966 1.610 . S
N968 C969 1.351 . S
C969 C963 1.428 . S
C969 N968 1.351 . S
C969 C970 1.434 . S
C970 C961 1.429 . S
C970 N967 1.350 . S
C970 C969 1.434 . S
C971 C972 1.369 . S
C971 C973 1.419 . S
C971 H975 0.930 . S
C972 C971 1.369 . S
C972 C981 1.429 1_455 S
C973 C971 1.419 . S
C973 C974 1.363 . S
C973 H976 0.929 . S
C974 C973 1.363 . S
C974 C980 1.428 1_455 S
H975 C971 0.930 . S
H976 C973 0.929 . S
S977 N978 1.613 . S
S977 N979 1.610 1_554 S
N978 S977 1.613 . S
N978 C981 1.350 1_554 S
N979 S977 1.610 1_556 S
N979 C980 1.351 . S
C980 C974 1.428 1_655 S
C980 N979 1.351 . S
C980 C981 1.434 . S
C981 C972 1.429 1_655 S
C981 N978 1.350 1_556 S
C981 C980 1.434 . S
C982 C983 1.369 . S
C982 C984 1.419 . S
C982 H986 0.930 . S
C983 C982 1.369 . S
C983 C992 1.429 . S
C984 C982 1.419 . S
C984 C985 1.363 . S
C984 H987 0.929 . S
C985 C984 1.363 . S
C985 C991 1.428 . S
H986 C982 0.930 . S
H987 C984 0.929 . S
S988 N989 1.613 . S
S988 N990 1.610 . S
N989 S988 1.613 . S
N989 C992 1.350 . S
N990 S988 1.610 . S
N990 C991 1.351 . S
C991 C985 1.428 . S
C991 N990 1.351 . S
C991 C992 1.434 . S
C992 C983 1.429 . S
C992 N989 1.350 . S
C992 C991 1.434 . S
C993 C994 1.369 . S
C993 C995 1.419 . S
C993 H997 0.930 1_556 S
C994 C993 1.369 . S
C994 C1003 1.429 . S
C995 C993 1.419 . S
C995 C996 1.363 . S
C995 H998 0.929 . S
C996 C995 1.363 . S
C996 C1002 1.428 . S
H997 C993 0.930 1_554 S
H998 C995 0.929 . S
S999 N1000 1.613 1_655 S
S999 N1001 1.610 . S
N1000 S999 1.613 1_455 S
N1000 C1003 1.350 . S
N1001 S999 1.610 . S
N1001 C1002 1.351 1_655 S
C1002 C996 1.428 . S
C1002 N1001 1.351 1_455 S
C1002 C1003 1.434 . S
C1003 C994 1.429 . S
C1003 N1000 1.350 . S
C1003 C1002 1.434 . S
C1004 C1005 1.369 . S
C1004 C1006 1.419 . S
C1004 H1008 0.930 . S
C1005 C1004 1.369 . S
C1005 C1014 1.429 . S
C1006 C1004 1.419 . S
C1006 C1007 1.363 . S
C1006 H1009 0.929 . S
C1007 C1006 1.363 . S
C1007 C1013 1.428 . S
H1008 C1004 0.930 . S
H1009 C1006 0.929 . S
S1010 N1011 1.613 . S
S1010 N1012 1.610 . S
N1011 S1010 1.613 . S
N1011 C1014 1.350 . S
N1012 S1010 1.610 . S
N1012 C1013 1.351 . S
C1013 C1007 1.428 . S
C1013 N1012 1.351 . S
C1013 C1014 1.434 . S
C1014 C1005 1.429 . S
C1014 N1011 1.350 . S
C1014 C1013 1.434 . S
C1015 C1016 1.369 . S
C1015 C1017 1.419 . S
C1015 H1019 0.930 . S
C1016 C1015 1.369 . S
C1016 C1025 1.429 . S
C1017 C1015 1.419 . S
C1017 C1018 1.363 . S
C1017 H1020 0.929 . S
C1018 C1017 1.363 . S
C1018 C1024 1.428 . S
H1019 C1015 0.930 . S
H1020 C1017 0.929 . S
S1021 N1022 1.613 . S
S1021 N1023 1.610 . S
N1022 S1021 1.613 . S
N1022 C1025 1.350 . S
N1023 S1021 1.610 . S
N1023 C1024 1.351 . S
C1024 C1018 1.428 . S
C1024 N1023 1.351 . S
C1024 C1025 1.434 . S
C1025 C1016 1.429 . S
C1025 N1022 1.350 . S
C1025 C1024 1.434 . S
C1026 C1027 1.369 . S
C1026 C1028 1.419 . S
C1026 H1030 0.930 . S
C1027 C1026 1.369 . S
C1027 C1036 1.429 . S
C1028 C1026 1.419 . S
C1028 C1029 1.363 . S
C1028 H1031 0.929 . S
C1029 C1028 1.363 . S
C1029 C1035 1.428 . S
H1030 C1026 0.930 . S
H1031 C1028 0.929 . S
S1032 N1033 1.613 . S
S1032 N1034 1.610 . S
N1033 S1032 1.613 . S
N1033 C1036 1.350 . S
N1034 S1032 1.610 . S
N1034 C1035 1.351 . S
C1035 C1029 1.428 . S
C1035 N1034 1.351 . S
C1035 C1036 1.434 . S
C1036 C1027 1.429 . S
C1036 N1033 1.350 . S
C1036 C1035 1.434 . S
C1037 C1038 1.369 . S
C1037 C1039 1.419 . S
C1037 H1041 0.930 . S
C1038 C1037 1.369 . S
C1038 C1047 1.429 . S
C1039 C1037 1.419 . S
C1039 C1040 1.363 . S
C1039 H1042 0.929 . S
C1040 C1039 1.363 . S
C1040 C1046 1.428 . S
H1041 C1037 0.930 . S
H1042 C1039 0.929 . S
S1043 N1044 1.613 . S
S1043 N1045 1.610 . S
N1044 S1043 1.613 . S
N1044 C1047 1.350 . S
N1045 S1043 1.610 . S
N1045 C1046 1.351 . S
C1046 C1040 1.428 . S
C1046 N1045 1.351 . S
C1046 C1047 1.434 . S
C1047 C1038 1.429 . S
C1047 N1044 1.350 . S
C1047 C1046 1.434 . S
C1048 C1049 1.369 . S
C1048 C1050 1.419 . S
C1048 H1052 0.930 . S
C1049 C1048 1.369 . S
C1049 C1058 1.429 . S
C1050 C1048 1.419 . S
C1050 C1051 1.363 . S
C1050 H1053 0.929 . S
C1051 C1050 1.363 . S
C1051 C1057 1.428 . S
H1052 C1048 0.930 . S
H1053 C1050 0.929 . S
S1054 N1055 1.613 . S
S1054 N1056 1.610 . S
N1055 S1054 1.613 . S
N1055 C1058 1.350 . S
N1056 S1054 1.610 . S
N1056 C1057 1.351 . S
C1057 C1051 1.428 . S
C1057 N1056 1.351 . S
C1057 C1058 1.434 . S
C1058 C1049 1.429 . S
C1058 N1055 1.350 . S
C1058 C1057 1.434 . S
C1059 C1060 1.369 . S
C1059 C1061 1.419 . S
C1059 H1063 0.930 . S
C1060 C1059 1.369 . S
C1060 C1069 1.429 . S
C1061 C1059 1.419 . S
C1061 C1062 1.363 . S
C1061 H1064 0.929 . S
C1062 C1061 1.363 . S
C1062 C1068 1.428 . S
H1063 C1059 0.930 . S
H1064 C1061 0.929 . S
S1065 N1066 1.613 . S
S1065 N1067 1.610 . S
N1066 S1065 1.613 . S
N1066 C1069 1.350 . S
N1067 S1065 1.610 . S
N1067 C1068 1.351 . S
C1068 C1062 1.428 . S
C1068 N1067 1.351 . S
C1068 C1069 1.434 . S
C1069 C1060 1.429 . S
C1069 N1066 1.350 . S
C1069 C1068 1.434 . S
C1070 C1071 1.369 . S
C1070 C1072 1.419 . S
C1070 H1074 0.930 . S
C1071 C1070 1.369 . S
C1071 C1080 1.429 . S
C1072 C1070 1.419 . S
C1072 C1073 1.363 . S
C1072 H1075 0.929 . S
C1073 C1072 1.363 . S
C1073 C1079 1.428 . S
H1074 C1070 0.930 . S
H1075 C1072 0.929 . S
S1076 N1077 1.613 . S
S1076 N1078 1.610 . S
N1077 S1076 1.613 . S
N1077 C1080 1.350 . S
N1078 S1076 1.610 . S
N1078 C1079 1.351 . S
C1079 C1073 1.428 . S
C1079 N1078 1.351 . S
C1079 C1080 1.434 . S
C1080 C1071 1.429 . S
C1080 N1077 1.350 . S
C1080 C1079 1.434 . S
C1081 C1082 1.369 . S
C1081 C1083 1.419 . S
C1081 H1085 0.930 . S
C1082 C1081 1.369 . S
C1082 C1091 1.429 . S
C1083 C1081 1.419 . S
C1083 C1084 1.363 . S
C1083 H1086 0.929 . S
C1084 C1083 1.363 . S
C1084 C1090 1.428 . S
H1085 C1081 0.930 . S
H1086 C1083 0.929 . S
S1087 N1088 1.613 . S
S1087 N1089 1.610 . S
N1088 S1087 1.613 . S
N1088 C1091 1.350 . S
N1089 S1087 1.610 . S
N1089 C1090 1.351 . S
C1090 C1084 1.428 . S
C1090 N1089 1.351 . S
C1090 C1091 1.434 . S
C1091 C1082 1.429 . S
C1091 N1088 1.350 . S
C1091 C1090 1.434 . S
C1092 C1093 1.369 . S
C1092 C1094 1.419 . S
C1092 H1096 0.930 . S
C1093 C1092 1.369 . S
C1093 C1102 1.429 1_556 S
C1094 C1092 1.419 . S
C1094 C1095 1.363 . S
C1094 H1097 0.929 . S
C1095 C1094 1.363 . S
C1095 C1101 1.428 1_556 S
H1096 C1092 0.930 . S
H1097 C1094 0.929 . S
S1098 N1099 1.613 . S
S1098 N1100 1.610 . S
N1099 S1098 1.613 . S
N1099 C1102 1.350 . S
N1100 S1098 1.610 . S
N1100 C1101 1.351 . S
C1101 C1095 1.428 1_554 S
C1101 N1100 1.351 . S
C1101 C1102 1.434 . S
C1102 C1093 1.429 1_554 S
C1102 N1099 1.350 . S
C1102 C1101 1.434 . S
C1103 C1104 1.369 . S
C1103 C1105 1.419 . S
C1103 H1107 0.930 . S
C1104 C1103 1.369 . S
C1104 C1113 1.429 . S
C1105 C1103 1.419 . S
C1105 C1106 1.363 . S
C1105 H1108 0.929 . S
C1106 C1105 1.363 . S
C1106 C1112 1.428 . S
H1107 C1103 0.930 . S
H1108 C1105 0.929 . S
S1109 N1110 1.613 . S
S1109 N1111 1.610 . S
N1110 S1109 1.613 . S
N1110 C1113 1.350 . S
N1111 S1109 1.610 . S
N1111 C1112 1.351 . S
C1112 C1106 1.428 . S
C1112 N1111 1.351 . S
C1112 C1113 1.434 . S
C1113 C1104 1.429 . S
C1113 N1110 1.350 . S
C1113 C1112 1.434 . S
C1114 C1115 1.369 1_556 S
C1114 C1116 1.419 . S
C1114 H1118 0.930 . S
C1115 C1114 1.369 1_554 S
C1115 C1124 1.429 . S
C1116 C1114 1.419 . S
C1116 C1117 1.363 1_556 S
C1116 H1119 0.929 . S
C1117 C1116 1.363 1_554 S
C1117 C1123 1.428 . S
H1118 C1114 0.930 . S
H1119 C1116 0.929 . S
S1120 N1121 1.613 . S
S1120 N1122 1.610 . S
N1121 S1120 1.613 . S
N1121 C1124 1.350 . S
N1122 S1120 1.610 . S
N1122 C1123 1.351 . S
C1123 C1117 1.428 . S
C1123 N1122 1.351 . S
C1123 C1124 1.434 . S
C1124 C1115 1.429 . S
C1124 N1121 1.350 . S
C1124 C1123 1.434 . S
C1125 C1126 1.369 . S
C1125 C1127 1.419 . S
C1125 H1129 0.930 . S
C1126 C1125 1.369 . S
C1126 C1135 1.429 . S
C1127 C1125 1.419 . S
C1127 C1128 1.363 . S
C1127 H1130 0.929 . S
C1128 C1127 1.363 . S
C1128 C1134 1.428 . S
H1129 C1125 0.930 . S
H1130 C1127 0.929 . S
S1131 N1132 1.613 . S
S1131 N1133 1.610 . S
N1132 S1131 1.613 . S
N1132 C1135 1.350 . S
N1133 S1131 1.610 . S
N1133 C1134 1.351 . S
C1134 C1128 1.428 . S
C1134 N1133 1.351 . S
C1134 C1135 1.434 . S
C1135 C1126 1.429 . S
C1135 N1132 1.350 . S
C1135 C1134 1.434 . S
C611 C178 1.560 . S
C609 C60 1.552 . S
C622 C226 1.428 . S
C620 C76 1.464 . S
C631 C81 1.568 . S
C633 C262 1.504 . S
C644 C298 1.583 . S
C642 C48 1.653 1_545 S
C655 C324 1.467 . S
C653 C115 1.460 . S
C666 C360 1.654 . S
C664 C136 1.670 . S
C675 C131 1.451 . S
C677 C395 1.466 . S
C688 C432 1.541 . S
C686 C104 1.539 . S
C697 C126 1.487 . S
C699 C466 1.492 . S
C710 C514 1.481 . S
C708 C103 1.516 . S
C719 C120 1.401 . S
C721 C467 1.417 . S
C732 C504 1.558 . S
C730 C142 1.558 . S
C741 C82 1.453 . S
C743 C550 1.382 . S
C752 C54 1.763 . S
C754 C539 1.760 . S
C763 C65 1.461 . S
C765 C540 1.469 . S
C774 C71 1.402 1_455 S
C776 C538 1.405 . S
C785 C37 1.514 . S
C787 C286 1.507 . S
C796 C158 1.823 . S
C798 C287 1.831 . S
C809 C190 1.467 . S
C807 C169 1.546 1_564 S
C820 C215 1.286 . S
C818 C98 1.280 . S
C829 C49 1.744 . S
C831 C322 1.741 . S
C842 C430 1.460 . S
C840 C125 1.466 . S
C853 C323 1.459 . S
C851 C109 1.473 . S
C864 C396 1.773 . S
C862 C137 1.785 . S
C875 C394 1.549 . S
C873 C159 1.552 . S
C884 C175 1.467 . S
C886 C442 1.433 . S
C895 C92 1.568 . S
C897 C334 1.510 . S
C908 C370 1.582 . S
C906 C147 1.653 . S
C917 C38 1.458 . S
C919 C252 1.468 . S
C930 C288 1.653 . S
C928 C4 1.670 . S
C941 C179 1.467 . S
C939 C21 1.448 . S
C952 C216 1.541 . S
C950 C27 1.538 . S
C961 C16 1.486 . S
C963 C502 1.493 . S
C972 C26 1.514 1_556 S
C974 C478 1.480 . S
C983 C43 1.402 . S
C985 C503 1.417 . S
C994 C10 1.558 1_556 S
C996 C468 1.558 . S
C1007 C586 1.386 . S
C1005 C93 1.453 . S
C1018 C575 1.759 . S
C1016 C153 1.763 . S
C1029 C576 1.467 . S
C1027 C164 1.464 . S
C1038 C170 1.405 . S
C1040 C574 1.403 . S
C1049 C114 1.514 . S
C1051 C358 1.507 . S
C1062 C359 1.834 . S
C1060 C59 1.820 . S
C1073 C406 1.461 . S
C1071 C70 1.549 . S
C1084 C431 1.286 . S
C1082 C87 1.280 . S
C1093 C148 1.746 . S
C1095 C250 1.739 . S
C1106 C214 1.460 . S
C1104 C15 1.466 . S
C1115 C32 1.473 . S
C1117 C251 1.462 . S
C1128 C180 1.775 . S
C1126 C5 1.782 1_565 S
