# Generated by pormake.
# Topology apo, (3,6)-cn, num edge types: 1
# Building blocks:
#     Node 0, Type 0, BuildingBlock: BETDAH_clean_linker_0, # of connection points: 3
#     Node 1, Type 0, BuildingBlock: BETDAH_clean_linker_0, # of connection points: 3
#     Node 2, Type 0, BuildingBlock: BETDAH_clean_linker_0, # of connection points: 3
#     Node 3, Type 0, BuildingBlock: BETDAH_clean_linker_0, # of connection points: 3
#     Node 4, Type 0, BuildingBlock: BETDAH_clean_linker_0, # of connection points: 3
#     Node 5, Type 0, BuildingBlock: BETDAH_clean_linker_0, # of connection points: 3
#     Node 6, Type 0, BuildingBlock: BETDAH_clean_linker_0, # of connection points: 3
#     Node 7, Type 0, BuildingBlock: BETDAH_clean_linker_0, # of connection points: 3
#     Node 8, Type 1, BuildingBlock: KUMBOL_clean_sbu_1, # of connection points: 6
#     Node 9, Type 1, BuildingBlock: KUMBOL_clean_sbu_1, # of connection points: 6
#     Node 10, Type 1, BuildingBlock: KUMBOL_clean_sbu_1, # of connection points: 6
#     Node 11, Type 1, BuildingBlock: KUMBOL_clean_sbu_1, # of connection points: 6
#     Edge 12, Type (0, 1), BuildingBlock: OJICUG_clean_linker_0, # of connection points: 2
#     Edge 13, Type (0, 1), BuildingBlock: OJICUG_clean_linker_0, # of connection points: 2
#     Edge 14, Type (0, 1), BuildingBlock: OJICUG_clean_linker_0, # of connection points: 2
#     Edge 15, Type (0, 1), BuildingBlock: OJICUG_clean_linker_0, # of connection points: 2
#     Edge 16, Type (0, 1), BuildingBlock: OJICUG_clean_linker_0, # of connection points: 2
#     Edge 17, Type (0, 1), BuildingBlock: OJICUG_clean_linker_0, # of connection points: 2
#     Edge 18, Type (0, 1), BuildingBlock: OJICUG_clean_linker_0, # of connection points: 2
#     Edge 19, Type (0, 1), BuildingBlock: OJICUG_clean_linker_0, # of connection points: 2
#     Edge 20, Type (0, 1), BuildingBlock: OJICUG_clean_linker_0, # of connection points: 2
#     Edge 21, Type (0, 1), BuildingBlock: OJICUG_clean_linker_0, # of connection points: 2
#     Edge 22, Type (0, 1), BuildingBlock: OJICUG_clean_linker_0, # of connection points: 2
#     Edge 23, Type (0, 1), BuildingBlock: OJICUG_clean_linker_0, # of connection points: 2
#     Edge 24, Type (0, 1), BuildingBlock: OJICUG_clean_linker_0, # of connection points: 2
#     Edge 25, Type (0, 1), BuildingBlock: OJICUG_clean_linker_0, # of connection points: 2
#     Edge 26, Type (0, 1), BuildingBlock: OJICUG_clean_linker_0, # of connection points: 2
#     Edge 27, Type (0, 1), BuildingBlock: OJICUG_clean_linker_0, # of connection points: 2
#     Edge 28, Type (0, 1), BuildingBlock: OJICUG_clean_linker_0, # of connection points: 2
#     Edge 29, Type (0, 1), BuildingBlock: OJICUG_clean_linker_0, # of connection points: 2
#     Edge 30, Type (0, 1), BuildingBlock: OJICUG_clean_linker_0, # of connection points: 2
#     Edge 31, Type (0, 1), BuildingBlock: OJICUG_clean_linker_0, # of connection points: 2
#     Edge 32, Type (0, 1), BuildingBlock: OJICUG_clean_linker_0, # of connection points: 2
#     Edge 33, Type (0, 1), BuildingBlock: OJICUG_clean_linker_0, # of connection points: 2
#     Edge 34, Type (0, 1), BuildingBlock: OJICUG_clean_linker_0, # of connection points: 2
#     Edge 35, Type (0, 1), BuildingBlock: OJICUG_clean_linker_0, # of connection points: 2
# Relax obj value: 0.036
# Max RMSD: 0.242
# Mean RMSD: 0.168
data_MOF--net-apo--node1-KUMBOL_clean_sbu_1--node2-BETDAH_clean_linker_0--edge1-OJICUG_clean_linker_0
_symmetry_space_group_name_H-M    P1
_symmetry_Int_Tables_number       1
_symmetry_cell_setting            triclinic
loop_
_symmetry_equiv_pos_as_xyz
'x, y, z'
_cell_length_a     20.435657
_cell_length_b     30.119577
_cell_length_c     39.627499
_cell_angle_alpha  89.782955
_cell_angle_beta   89.86445
_cell_angle_gamma 90.851214
loop_
_atom_site_label
_atom_site_type_symbol
_atom_site_fract_x
_atom_site_fract_y
_atom_site_fract_z
_atom_type_partial_charge
H0 H 0.38562 0.46387 0.41861 0.0
H1 H 0.27015 0.38798 0.34851 0.0
H2 H 0.25393 0.36129 0.45461 0.0
C3 C 0.3489 0.4383 0.41419 0.0
C4 C 0.32184 0.41458 0.44149 0.0
C5 C 0.32829 0.43063 0.3809 0.0
C6 C 0.28563 0.39462 0.37414 0.0
C7 C 0.26069 0.36879 0.40113 0.0
C8 C 0.2773 0.37986 0.43438 0.0
N9 N 0.21619 0.33268 0.39669 0.0
C10 C 0.19938 0.31225 0.36649 0.0
H11 H 0.17191 0.04473 0.92315 0.0
H12 H 0.19838 0.14679 0.84763 0.0
H13 H 0.23075 0.17726 0.95187 0.0
C14 C 0.18679 0.07832 0.91642 0.0
C15 C 0.20276 0.10899 0.94198 0.0
C16 C 0.185 0.09166 0.88233 0.0
C17 C 0.20186 0.13579 0.87362 0.0
C18 C 0.21915 0.16641 0.89885 0.0
C19 C 0.21879 0.15293 0.93269 0.0
N20 N 0.22632 0.21238 0.89167 0.0
C21 C 0.27304 0.23109 0.87009 0.0
H22 H 0.84349 0.07372 0.59921 0.0
H23 H 0.83931 0.16387 0.68341 0.0
H24 H 0.80664 0.21236 0.58324 0.0
C25 C 0.83667 0.10673 0.60921 0.0
C26 C 0.82424 0.14183 0.58681 0.0
C27 C 0.84332 0.11404 0.64414 0.0
C28 C 0.83313 0.15699 0.65679 0.0
C29 C 0.81962 0.19214 0.63469 0.0
C30 C 0.8162 0.18464 0.59993 0.0
N31 N 0.81603 0.23613 0.64672 0.0
C32 C 0.76467 0.25026 0.66673 0.0
H33 H 0.6231 0.43407 0.1008 0.0
H34 H 0.776 0.40296 0.17154 0.0
H35 H 0.78083 0.34912 0.07173 0.0
C36 C 0.66748 0.4166 0.10699 0.0
C37 C 0.6977 0.39058 0.08221 0.0
C38 C 0.69539 0.4217 0.13933 0.0
C39 C 0.75283 0.39864 0.14719 0.0
C40 C 0.78352 0.37288 0.12248 0.0
C41 C 0.75622 0.36926 0.09032 0.0
N42 N 0.84562 0.35419 0.12808 0.0
C43 C 0.85855 0.32521 0.1544 0.0
H44 H 0.6257 0.55789 0.60184 0.0
H45 H 0.72898 0.64305 0.67132 0.0
H46 H 0.76048 0.65798 0.56466 0.0
C47 C 0.65978 0.58519 0.60613 0.0
C48 C 0.69072 0.60643 0.5786 0.0
C49 C 0.67373 0.59781 0.6395 0.0
C50 C 0.71742 0.63359 0.64564 0.0
C51 C 0.74749 0.65592 0.61823 0.0
C52 C 0.73442 0.64178 0.58523 0.0
N53 N 0.79443 0.69089 0.62201 0.0
C54 C 0.80773 0.71639 0.6505 0.0
H55 H 0.85639 0.9547 0.09832 0.0
H56 H 0.82489 0.81372 0.08728 0.0
H57 H 0.86643 0.86671 0.18445 0.0
C58 C 0.85391 0.92173 0.10923 0.0
C59 C 0.86363 0.91597 0.14426 0.0
C60 C 0.84001 0.88517 0.08816 0.0
C61 C 0.83368 0.84269 0.10283 0.0
C62 C 0.84079 0.83676 0.13758 0.0
C63 C 0.85696 0.87292 0.158 0.0
N64 N 0.83934 0.79348 0.15143 0.0
C65 C 0.78271 0.77433 0.16485 0.0
H66 H 0.13167 0.93377 0.42753 0.0
H67 H 0.26416 0.91132 0.34453 0.0
H68 H 0.30318 0.85388 0.44089 0.0
C69 C 0.17499 0.91834 0.41738 0.0
C70 C 0.21376 0.89159 0.43851 0.0
C71 C 0.19218 0.92536 0.38314 0.0
C72 C 0.24836 0.90485 0.37024 0.0
C73 C 0.2875 0.87871 0.39104 0.0
C74 C 0.27034 0.87238 0.42487 0.0
N75 N 0.34973 0.86511 0.37972 0.0
C76 C 0.35907 0.8266 0.36127 0.0
H77 H 0.35889 0.56568 0.92057 0.0
H78 H 0.3076 0.69949 0.94516 0.0
H79 H 0.30434 0.6577 0.84209 0.0
C80 C 0.34129 0.59784 0.91277 0.0
C81 C 0.33093 0.6067 0.87822 0.0
C82 C 0.33179 0.63054 0.9374 0.0
C83 C 0.31471 0.67336 0.92687 0.0
C84 C 0.30493 0.68308 0.89278 0.0
C85 C 0.31181 0.64968 0.86845 0.0
N86 N 0.29464 0.72783 0.88355 0.0
C87 C 0.24334 0.74196 0.86351 0.0
C88 C 0.79631 0.07872 0.2809 0.0
C89 C 0.78877 1.00274 0.30165 0.0
C90 C 0.82452 0.04269 0.29694 0.0
C91 C 0.72473 0.99904 0.28916 0.0
C92 C 0.73094 0.07562 0.26962 0.0
C93 C 0.69591 0.03537 0.27316 0.0
N94 N 0.83091 0.11766 0.27871 0.0
C95 C 0.80052 0.1555 0.26835 0.0
C96 C 0.70171 0.11357 0.25639 0.0
C97 C 0.73632 0.15382 0.25629 0.0
Gd98 Gd 0.0834 0.10824 0.22596 0.0
Gd99 Gd 0.93891 0.11601 0.29994 0.0
N100 N 0.88693 0.04699 0.30842 0.0
C101 C 0.81837 0.96782 0.31903 0.0
C102 C 0.91491 0.01392 0.32677 0.0
C103 C 0.88151 0.97361 0.33191 0.0
H104 H 0.96296 0.01877 0.33745 0.0
H105 H 0.90426 0.94717 0.34601 0.0
H106 H 0.09015 0.21494 0.19921 0.0
H107 H 0.82464 0.18752 0.27 0.0
H108 H 0.16909 0.27724 0.19887 0.0
H109 H 0.79255 0.93658 0.32313 0.0
H110 H 0.69666 0.96849 0.29227 0.0
H111 H 0.17009 0.01757 0.24606 0.0
H112 H 0.6516 0.11256 0.24751 0.0
H113 H 0.71311 0.1838 0.24756 0.0
H114 H 0.36647 0.21468 0.24211 0.0
H115 H 0.64585 0.03236 0.2644 0.0
H116 H 0.36539 0.0596 0.26922 0.0
H117 H 0.28123 1.0 0.26523 0.0
N118 N 0.1887 0.08711 0.24258 0.0
C119 C 0.23512 0.1199 0.24266 0.0
C120 C 0.2052 0.04424 0.24937 0.0
C121 C 0.31611 0.06768 0.26155 0.0
C122 C 0.2687 0.03399 0.25949 0.0
C123 C 0.29995 0.11115 0.25258 0.0
H124 H 0.39672 0.13964 0.26039 0.0
N125 N 0.15581 0.16936 0.22165 0.0
C126 C 0.2183 0.16215 0.23181 0.0
C127 C 0.24715 0.23875 0.21989 0.0
C128 C 0.26557 0.19678 0.23137 0.0
C129 C 0.13838 0.20976 0.20914 0.0
C130 C 0.18343 0.24514 0.20846 0.0
O131 O 0.93945 0.05727 0.2645 0.0
O132 O 0.97602 0.09556 0.21936 0.0
O133 O 0.1029 0.12009 0.17272 0.0
O134 O 0.09953 0.05277 0.19205 0.0
O135 O 0.03878 0.08911 0.31136 0.0
O136 O 0.06897 0.05123 0.26354 0.0
O137 O 0.10774 0.14603 0.27373 0.0
O138 O 0.00958 0.17416 0.29337 0.0
O139 O 0.95003 0.1098 0.35458 0.0
O140 O 0.88137 0.15605 0.33382 0.0
O141 O 0.00893 0.16175 0.21561 0.0
O142 O 0.93468 0.17065 0.2606 0.0
C143 C 0.94764 0.06026 0.23186 0.0
C144 C 0.06573 0.05477 0.29676 0.0
C145 C 0.16418 0.06709 0.14276 0.0
C146 C 0.20795 0.06467 0.08509 0.0
C147 C 0.27203 0.0374 0.13239 0.0
C148 C 0.22191 0.04812 0.15478 0.0
C149 C 0.26524 0.04552 0.09785 0.0
C150 C 0.1575 0.0754 0.10793 0.0
C151 C 0.11001 0.07825 0.1658 0.0
C152 C 0.32963 0.18843 0.24217 0.0
C153 C 0.34681 0.14572 0.25265 0.0
H154 H 0.28198 0.26622 0.21924 0.0
C155 C 0.07362 0.17675 0.28911 0.0
C156 C 0.96013 0.18187 0.23103 0.0
C157 C 0.85135 0.12073 0.38469 0.0
C158 C 0.81062 0.11157 0.44241 0.0
C159 C 0.7432 0.08884 0.39481 0.0
C160 C 0.79212 0.10291 0.37256 0.0
C161 C 0.75209 0.09326 0.42948 0.0
C162 C 0.86054 0.12487 0.41967 0.0
C163 C 0.90233 0.13667 0.36098 0.0
H164 H 0.31652 0.02287 0.14188 0.0
H165 H 0.22835 0.04148 0.18134 0.0
H166 H 0.30547 0.03754 0.08122 0.0
H167 H 0.11266 0.08977 0.09862 0.0
H168 H 0.69766 0.0753 0.38512 0.0
H169 H 0.7829 0.10069 0.34589 0.0
H170 H 0.71223 0.08346 0.44608 0.0
H171 H 0.90623 0.13869 0.42906 0.0
C172 C 0.6825 0.48791 0.78527 0.0
C173 C 0.65055 0.55971 0.80653 0.0
C174 C 0.63722 0.51411 0.80161 0.0
C175 C 0.70829 0.57881 0.79322 0.0
C176 C 0.74192 0.50642 0.77327 0.0
C177 C 0.75395 0.5522 0.77669 0.0
N178 N 0.66878 0.44397 0.7816 0.0
C179 C 0.71411 0.41595 0.7686 0.0
C180 C 0.78766 0.47821 0.75849 0.0
C181 C 0.77398 0.43267 0.75653 0.0
Gd182 Gd 0.43203 0.40451 0.72872 0.0
Gd183 Gd 0.56732 0.41852 0.80197 0.0
N184 N 0.58223 0.49446 0.81454 0.0
C185 C 0.60669 0.58435 0.82579 0.0
C186 C 0.54301 0.51739 0.83604 0.0
C187 C 0.55346 0.56286 0.84123 0.0
H188 H 0.50421 0.50066 0.84979 0.0
H189 H 0.52105 0.58111 0.85757 0.0
H190 H 0.44966 0.30189 0.7005 0.0
H191 H 0.70378 0.38078 0.76735 0.0
H192 H 0.38958 0.22967 0.70249 0.0
H193 H 0.61508 0.61947 0.83014 0.0
H194 H 0.71897 0.61389 0.79642 0.0
H195 H 0.31797 0.48197 0.74795 0.0
H196 H 0.83394 0.49112 0.74899 0.0
H197 H 0.80946 0.41048 0.74571 0.0
H198 H 0.19369 0.26151 0.76467 0.0
H199 H 0.79892 0.56719 0.76722 0.0
H200 H 0.15149 0.41386 0.78963 0.0
H201 H 0.20985 0.48392 0.77521 0.0
N202 N 0.3254 0.41147 0.75102 0.0
C203 C 0.29184 0.37268 0.75613 0.0
C204 C 0.29493 0.45109 0.75574 0.0
C205 C 0.20002 0.41276 0.77861 0.0
C206 C 0.23282 0.45237 0.77055 0.0
C207 C 0.22849 0.37224 0.77037 0.0
H208 H 0.14605 0.3307 0.78572 0.0
N209 N 0.37855 0.33534 0.72966 0.0
C210 C 0.3186 0.33358 0.74442 0.0
C211 C 0.30939 0.25536 0.73161 0.0
C212 C 0.28286 0.29327 0.74641 0.0
C213 C 0.4032 0.29925 0.71353 0.0
C214 C 0.36936 0.25854 0.71462 0.0
O215 O 0.58715 0.44305 0.74828 0.0
O216 O 0.4882 0.46943 0.73166 0.0
O217 O 0.46293 0.40543 0.67607 0.0
O218 O 0.36119 0.41378 0.689 0.0
O219 O 0.46449 0.44222 0.8123 0.0
O220 O 0.42946 0.4671 0.76051 0.0
O221 O 0.45064 0.3488 0.76614 0.0
O222 O 0.46925 0.38703 0.81461 0.0
O223 O 0.60655 0.42797 0.85244 0.0
O224 O 0.61346 0.36404 0.82836 0.0
O225 O 0.52958 0.37267 0.71818 0.0
O226 O 0.58036 0.35755 0.76954 0.0
C227 C 0.55235 0.47227 0.7317 0.0
C228 C 0.42922 0.46893 0.79365 0.0
C229 C 0.39825 0.44844 0.63945 0.0
C230 C 0.37581 0.46756 0.58063 0.0
C231 C 0.37805 0.5248 0.62422 0.0
C232 C 0.39232 0.49302 0.64868 0.0
C233 C 0.36864 0.51222 0.59063 0.0
C234 C 0.3922 0.43613 0.60557 0.0
C235 C 0.40448 0.41353 0.66498 0.0
C236 C 0.22144 0.29231 0.76236 0.0
C237 C 0.1944 0.3317 0.77443 0.0
H238 H 0.28338 0.22377 0.73254 0.0
C239 C 0.44406 0.35261 0.79888 0.0
C240 C 0.57299 0.35158 0.73674 0.0
C241 C 0.59232 0.36521 0.88717 0.0
C242 C 0.58942 0.35923 0.9488 0.0
C243 C 0.51291 0.3162 0.91451 0.0
C244 C 0.54026 0.33436 0.8852 0.0
C245 C 0.53729 0.32836 0.94608 0.0
C246 C 0.61649 0.37766 0.91899 0.0
C247 C 0.61957 0.38619 0.85639 0.0
H248 H 0.3724 0.55915 0.63145 0.0
H249 H 0.39703 0.50294 0.67483 0.0
H250 H 0.35422 0.53761 0.57291 0.0
H251 H 0.39931 0.40166 0.59911 0.0
H252 H 0.47285 0.2924 0.91274 0.0
H253 H 0.52055 0.32434 0.86104 0.0
H254 H 0.51601 0.31287 0.96831 0.0
H255 H 0.65577 0.40215 0.92044 0.0
C256 C 0.78077 0.87398 0.78798 0.0
C257 C 0.77581 0.79764 0.80776 0.0
C258 C 0.81106 0.83758 0.80214 0.0
C259 C 0.70983 0.79452 0.79815 0.0
C260 C 0.71366 0.8716 0.77973 0.0
C261 C 0.6788 0.83145 0.78419 0.0
N262 N 0.81563 0.91256 0.78456 0.0
C263 C 0.78433 0.95087 0.77638 0.0
C264 C 0.68291 0.91013 0.76856 0.0
C265 C 0.71816 0.95012 0.7675 0.0
Gd266 Gd 0.06943 0.90163 0.72589 0.0
Gd267 Gd 0.92693 0.91032 0.8003 0.0
N268 N 0.87503 0.84157 0.81101 0.0
C269 C 0.80771 0.76228 0.8234 0.0
C270 C 0.90551 0.80799 0.82773 0.0
C271 C 0.87265 0.76766 0.83373 0.0
H272 H 0.95531 0.81225 0.83627 0.0
H273 H 0.89731 0.74084 0.84647 0.0
H274 H 0.06946 0.01278 0.71187 0.0
H275 H 0.80948 0.98242 0.77788 0.0
H276 H 0.14743 0.0755 0.71498 0.0
H277 H 0.78232 0.73103 0.82815 0.0
H278 H 0.68202 0.76402 0.80205 0.0
H279 H 0.15702 0.81055 0.74063 0.0
H280 H 0.6314 0.90974 0.76213 0.0
H281 H 0.69407 0.98058 0.76058 0.0
H282 H 0.34955 1.00933 0.74808 0.0
H283 H 0.62738 0.82895 0.77775 0.0
H284 H 0.35291 0.85165 0.76417 0.0
H285 H 0.2696 0.79189 0.75752 0.0
N286 N 0.17493 0.88013 0.74097 0.0
C287 C 0.22062 0.91334 0.74272 0.0
C288 C 0.19224 0.83691 0.74502 0.0
C289 C 0.30322 0.86004 0.75746 0.0
C290 C 0.25629 0.82622 0.75388 0.0
C291 C 0.28594 0.90418 0.75143 0.0
H292 H 0.38237 0.9327 0.7602 0.0
N293 N 0.13891 0.96451 0.72686 0.0
C294 C 0.20233 0.95664 0.73523 0.0
C295 C 0.2283 0.03491 0.72997 0.0
C296 C 0.24858 0.99174 0.7372 0.0
C297 C 0.11919 1.00646 0.71915 0.0
C298 C 0.16342 0.04224 0.7208 0.0
O299 O 0.92321 0.8511 0.76535 0.0
O300 O 0.96258 0.88372 0.71741 0.0
O301 O 0.08735 0.91992 0.67359 0.0
O302 O 0.09415 0.85115 0.6889 0.0
O303 O 0.02482 0.8787 0.81075 0.0
O304 O 0.05192 0.84333 0.7611 0.0
O305 O 0.09608 0.93619 0.77511 0.0
O306 O 0.99797 0.96664 0.78923 0.0
O307 O 0.94011 0.90381 0.85496 0.0
O308 O 0.88081 0.95588 0.83475 0.0
O309 O 0.99266 0.95187 0.71521 0.0
O310 O 0.91586 0.96223 0.75841 0.0
C311 C 0.9296 0.85167 0.73248 0.0
C312 C 0.05391 0.84646 0.79425 0.0
C313 C 0.15705 0.87509 0.64117 0.0
C314 C 0.20078 0.8742 0.58363 0.0
C315 C 0.27228 0.86127 0.63152 0.0
C316 C 0.21972 0.86624 0.65364 0.0
C317 C 0.2629 0.86488 0.59675 0.0
C318 C 0.14792 0.87972 0.60604 0.0
C319 C 0.10074 0.87974 0.66422 0.0
C320 C 0.31338 0.98275 0.74642 0.0
C321 C 0.33204 0.93911 0.75342 0.0
H322 H 0.26235 0.06277 0.73128 0.0
C323 C 0.06168 0.965 0.79225 0.0
C324 C 0.94172 0.97178 0.72845 0.0
C325 C 0.8447 0.92322 0.88575 0.0
C326 C 0.80606 0.90768 0.94328 0.0
C327 C 0.72876 0.91102 0.89672 0.0
C328 C 0.77975 0.9199 0.87428 0.0
C329 C 0.74155 0.90526 0.93092 0.0
C330 C 0.8577 0.91692 0.92036 0.0
C331 C 0.89808 0.93454 0.86175 0.0
H332 H 0.32045 0.85436 0.64136 0.0
H333 H 0.22823 0.86298 0.68035 0.0
H334 H 0.30436 0.86067 0.58003 0.0
H335 H 0.09972 0.8867 0.59615 0.0
H336 H 0.67892 0.90905 0.88759 0.0
H337 H 0.7679 0.9249 0.84802 0.0
H338 H 0.70047 0.89951 0.94775 0.0
H339 H 0.90775 0.91898 0.92925 0.0
C340 C 0.71698 0.66394 0.28323 0.0
C341 C 0.70384 0.7381 0.30532 0.0
C342 C 0.67936 0.69465 0.30008 0.0
C343 C 0.76503 0.75065 0.29177 0.0
C344 C 0.77956 0.67569 0.27083 0.0
C345 C 0.80286 0.71948 0.2746 0.0
N346 N 0.69225 0.62225 0.27914 0.0
C347 C 0.7293 0.58964 0.26532 0.0
C348 C 0.8169 0.64294 0.25523 0.0
C349 C 0.79196 0.59958 0.25286 0.0
Gd350 Gd 0.44806 0.61524 0.22482 0.0
Gd351 Gd 0.58552 0.60866 0.29873 0.0
N352 N 0.6205 0.6813 0.31293 0.0
C353 C 0.66705 0.76714 0.32495 0.0
C354 C 0.58784 0.70811 0.33475 0.0
C355 C 0.60948 0.75174 0.34033 0.0
H356 H 0.54569 0.69581 0.34846 0.0
H357 H 0.58228 0.77321 0.35693 0.0
H358 H 0.45506 0.51474 0.19071 0.0
H359 H 0.71004 0.55614 0.26348 0.0
H360 H 0.39022 0.44451 0.19065 0.0
H361 H 0.68405 0.80082 0.32955 0.0
H362 H 0.78426 0.78405 0.29518 0.0
H363 H 0.34577 0.69342 0.25472 0.0
H364 H 0.86526 0.65061 0.24537 0.0
H365 H 0.82084 0.57388 0.24134 0.0
H366 H 0.20151 0.47726 0.25825 0.0
H367 H 0.85049 0.72937 0.26485 0.0
H368 H 0.17611 0.62746 0.29499 0.0
H369 H 0.24076 0.6964 0.28512 0.0
N370 N 0.34539 0.62294 0.25138 0.0
C371 C 0.30819 0.58523 0.25416 0.0
C372 C 0.32019 0.66281 0.26064 0.0
C373 C 0.22328 0.62579 0.28255 0.0
C374 C 0.25973 0.66475 0.27714 0.0
C375 C 0.24652 0.58552 0.2702 0.0
H376 H 0.16188 0.54558 0.28481 0.0
N377 N 0.38878 0.548 0.22295 0.0
C378 C 0.33003 0.54676 0.23904 0.0
C379 C 0.31416 0.47022 0.22257 0.0
C380 C 0.29156 0.50757 0.23976 0.0
C381 C 0.40958 0.51254 0.20464 0.0
C382 C 0.37301 0.47292 0.20456 0.0
O383 O 0.61197 0.63228 0.24643 0.0
O384 O 0.52392 0.67121 0.22741 0.0
O385 O 0.46212 0.60929 0.17048 0.0
O386 O 0.38265 0.64791 0.19003 0.0
O387 O 0.49151 0.64596 0.30942 0.0
O388 O 0.4612 0.67569 0.25806 0.0
O389 O 0.45613 0.55631 0.2604 0.0
O390 O 0.48077 0.59057 0.30961 0.0
O391 O 0.624 0.60999 0.3501 0.0
O392 O 0.61423 0.54695 0.32306 0.0
O393 O 0.53966 0.57882 0.21143 0.0
O394 O 0.58411 0.55048 0.26129 0.0
C395 C 0.58749 0.66601 0.23012 0.0
C396 C 0.46356 0.67718 0.29123 0.0
C397 C 0.36366 0.60909 0.13945 0.0
C398 C 0.32986 0.59461 0.08133 0.0
C399 C 0.2652 0.56561 0.12842 0.0
C400 C 0.30865 0.58517 0.15115 0.0
C401 C 0.27533 0.57045 0.09378 0.0
C402 C 0.37442 0.61341 0.10458 0.0
C403 C 0.40903 0.63064 0.16335 0.0
C404 C 0.23154 0.50718 0.25708 0.0
C405 C 0.20908 0.54607 0.27228 0.0
H406 H 0.28599 0.43946 0.22251 0.0
C407 C 0.45007 0.55919 0.29312 0.0
C408 C 0.5756 0.54991 0.22801 0.0
C409 C 0.658 0.54346 0.38026 0.0
C410 C 0.68048 0.53877 0.44102 0.0
C411 C 0.71591 0.48036 0.40295 0.0
C412 C 0.68875 0.50263 0.37561 0.0
C413 C 0.71222 0.49825 0.43529 0.0
C414 C 0.65387 0.56146 0.41304 0.0
C415 C 0.63161 0.56723 0.3507 0.0
H416 H 0.22273 0.54739 0.13768 0.0
H417 H 0.29853 0.58218 0.17781 0.0
H418 H 0.23921 0.55632 0.07684 0.0
H419 H 0.41719 0.6317 0.09569 0.0
H420 H 0.74044 0.44918 0.39903 0.0
H421 H 0.69277 0.48823 0.35069 0.0
H422 H 0.73522 0.48045 0.45576 0.0
H423 H 0.62905 0.5926 0.41672 0.0
C424 C 0.14258 0.94734 0.32729 0.0
C425 C 0.1554 0.95696 0.36143 0.0
H426 H 0.10289 0.96996 0.28029 0.0
C427 C 0.13671 0.99838 0.37412 0.0
H428 H 0.15567 0.91552 0.31679 0.0
C429 C 0.10753 0.02977 0.35309 0.0
C430 C 0.09597 0.02061 0.31878 0.0
H431 H 0.14657 1.00718 0.40011 0.0
H432 H 0.09497 0.06161 0.36373 0.0
C433 C 0.11279 0.97867 0.30628 0.0
C434 C 0.33329 0.52646 0.86099 0.0
C435 C 0.34466 0.5715 0.85284 0.0
H436 H 0.35199 0.45865 0.84855 0.0
C437 C 0.37523 0.58193 0.82183 0.0
H438 H 0.30786 0.51698 0.88397 0.0
C439 C 0.39812 0.54816 0.80085 0.0
C440 C 0.39219 0.50362 0.81097 0.0
H441 H 0.38527 0.61608 0.81468 0.0
H442 H 0.42496 0.55701 0.77813 0.0
C443 C 0.35782 0.49295 0.84058 0.0
C444 C 0.68146 0.53458 0.68002 0.0
C445 C 0.64579 0.57033 0.66722 0.0
H446 H 0.67928 0.47469 0.70928 0.0
C447 C 0.57996 0.57465 0.67665 0.0
H448 H 0.73175 0.52988 0.67227 0.0
C449 C 0.55011 0.54344 0.6983 0.0
C450 C 0.58526 0.50689 0.71053 0.0
H451 H 0.55113 0.6014 0.66642 0.0
H452 H 0.49906 0.54745 0.70486 0.0
C453 C 0.65137 0.50303 0.70124 0.0
C454 C 0.86565 0.95445 0.2008 0.0
C455 C 0.88298 0.95417 0.16636 0.0
H456 H 0.87506 0.98646 0.24845 0.0
C457 C 0.92115 0.98989 0.1537 0.0
H458 H 0.83504 0.92844 0.21163 0.0
C459 C 0.9412 0.02462 0.17481 0.0
C460 C 0.92535 0.02396 0.20933 0.0
H461 H 0.9369 0.99082 0.12762 0.0
H462 H 0.97004 0.05164 0.1641 0.0
C463 C 0.88768 0.98835 0.22204 0.0
C464 C 0.84524 0.07284 0.70007 0.0
C465 C 0.86659 0.07754 0.6664 0.0
H466 H 0.85365 0.03699 0.74659 0.0
C467 C 0.91253 0.04744 0.65394 0.0
H468 H 0.81006 0.0955 0.7106 0.0
C469 C 0.93513 0.01304 0.674 0.0
C470 C 0.91403 1.00803 0.70763 0.0
H471 H 0.9323 0.05069 0.62867 0.0
H472 H 0.97009 0.99062 0.66295 0.0
C473 C 0.86924 0.03867 0.72058 0.0
C474 C 0.64781 0.49587 0.15101 0.0
C475 C 0.66767 0.45447 0.1633 0.0
H476 H 0.60463 0.55806 0.16164 0.0
C477 C 0.66104 0.44541 0.19808 0.0
H478 H 0.65412 0.50462 0.12465 0.0
C479 C 0.63272 0.47668 0.21976 0.0
C480 C 0.61063 0.51736 0.20691 0.0
H481 H 0.67624 0.41383 0.20834 0.0
H482 H 0.62654 0.46858 0.24624 0.0
C483 C 0.61965 0.52671 0.1724 0.0
C484 C 0.3776 0.44974 0.324 0.0
C485 C 0.3493 0.46309 0.35461 0.0
H486 H 0.43231 0.47032 0.28003 0.0
C487 C 0.34735 0.50864 0.3622 0.0
H488 H 0.37946 0.4149 0.31747 0.0
C489 C 0.3783 0.5398 0.34144 0.0
C490 C 0.41064 0.52632 0.31215 0.0
H491 H 0.32432 0.52005 0.38519 0.0
H492 H 0.37835 0.57444 0.34877 0.0
C493 C 0.40797 0.48133 0.30276 0.0
C494 C 0.09532 0.06945 0.84298 0.0
C495 C 0.15708 0.06096 0.85677 0.0
H496 H 0.01648 0.04562 0.81214 0.0
C497 C 0.18886 0.02156 0.84808 0.0
H498 H 0.06969 0.09945 0.84956 0.0
C499 C 0.15895 0.99094 0.82615 0.0
C500 C 0.09592 0.99867 0.81334 0.0
H501 H 0.23642 0.01427 0.85858 0.0
H502 H 0.18422 0.96061 0.82011 0.0
C503 C 0.06479 0.03848 0.82176 0.0
C504 C 0.17456 0.12533 1.00261 0.0
C505 C 0.20014 0.09611 0.97842 0.0
H506 H 0.15721 0.1386 0.0549 0.0
C507 C 0.22463 0.05521 0.98952 0.0
H508 H 0.15402 0.15674 0.99499 0.0
C509 C 0.22573 0.04457 0.02398 0.0
C510 C 0.20212 0.07446 0.04824 0.0
H511 H 0.24466 0.03189 0.97166 0.0
H512 H 0.24559 0.01297 0.03165 0.0
C513 C 0.17555 0.11467 0.03702 0.0
C514 C 0.33243 0.39678 0.50376 0.0
C515 C 0.33778 0.42759 0.47708 0.0
H516 H 0.3355 0.38513 0.5566 0.0
C517 C 0.35702 0.4715 0.48492 0.0
H518 H 0.3192 0.36243 0.49923 0.0
C519 C 0.37141 0.48391 0.51801 0.0
C520 C 0.36396 0.45352 0.54485 0.0
H521 H 0.36022 0.49706 0.46574 0.0
H522 H 0.3882 0.51763 0.52225 0.0
C523 C 0.34379 0.40975 0.53708 0.0
C524 C 0.71026 0.38449 0.01917 0.0
C525 C 0.66926 0.38607 0.04772 0.0
H526 H 0.71776 0.37411 0.966 0.0
C527 C 0.60127 0.38176 0.04309 0.0
H528 H 0.76274 0.38874 0.02158 0.0
C529 C 0.57522 0.37445 1.01092 0.0
C530 C 0.61651 0.37094 0.98259 0.0
H531 H 0.56813 0.38272 0.06443 0.0
H532 H 0.52265 0.37105 1.00835 0.0
C533 C 0.6843 0.3768 0.98709 0.0
C534 C 0.84967 0.16471 0.52695 0.0
C535 C 0.82207 0.13378 0.54978 0.0
H536 H 0.86738 0.18224 0.47532 0.0
C537 C 0.79331 0.09465 0.53697 0.0
H538 H 0.87337 0.1948 0.53591 0.0
C539 C 0.79159 0.08686 0.50229 0.0
C540 C 0.81771 0.11826 0.4794 0.0
H541 H 0.77111 0.0702 0.55369 0.0
H542 H 0.76931 0.05623 0.49341 0.0
C543 C 0.84732 0.15712 0.49218 0.0
C544 C 0.78683 0.86488 0.03308 0.0
C545 C 0.83267 0.89089 0.05091 0.0
H546 H 0.74465 0.84833 0.98552 0.0
C547 C 0.87181 0.92162 0.03271 0.0
H548 H 0.75524 0.84121 0.04608 0.0
C549 C 0.86445 0.92659 0.99772 0.0
C550 C 0.81797 0.9008 0.98007 0.0
H551 H 0.90845 0.94173 0.04544 0.0
H552 H 0.89421 0.95128 0.98467 0.0
C553 C 0.78009 0.86944 0.99823 0.0
C554 C 0.67339 0.54418 0.53698 0.0
C555 C 0.68148 0.58987 0.54328 0.0
H556 H 0.66413 0.49265 0.50041 0.0
C557 C 0.68432 0.61907 0.5154 0.0
H558 H 0.67162 0.52036 0.55749 0.0
C559 C 0.68231 0.60284 0.48228 0.0
C560 C 0.67661 0.55697 0.47608 0.0
H561 H 0.68912 0.65457 0.51906 0.0
H562 H 0.6874 0.62625 0.4616 0.0
C563 C 0.67034 0.52808 0.50397 0.0
C564 C 0.31762 0.57809 0.98656 0.0
C565 C 0.33815 0.61981 0.97403 0.0
H566 H 0.30133 0.53682 0.0298 0.0
C567 C 0.36147 0.65177 0.99706 0.0
H568 H 0.29896 0.55262 0.9698 0.0
C569 C 0.36072 0.64316 0.03174 0.0
C570 C 0.33765 0.60208 0.04432 0.0
H571 H 0.37929 0.68388 0.98841 0.0
H572 H 0.37599 0.66944 0.04868 0.0
C573 C 0.31795 0.56923 0.02118 0.0
C574 C 0.21176 0.84478 0.49123 0.0
C575 C 0.19903 0.88561 0.47529 0.0
H576 H 0.22221 0.80942 0.53791 0.0
C577 C 0.17852 0.92134 0.4954 0.0
H578 H 0.22606 0.8162 0.47659 0.0
C579 C 0.17504 0.91702 0.5307 0.0
C580 C 0.19246 0.87705 0.54647 0.0
H581 H 0.16866 0.95334 0.48411 0.0
H582 H 0.16232 0.94559 0.54575 0.0
C583 C 0.20914 0.84071 0.52634 0.0
C584 C 0.20786 0.24724 0.3292 0.0
C585 C 0.17201 0.28328 0.34112 0.0
H586 H 0.20479 0.18486 0.30341 0.0
C587 C 0.10544 0.2862 0.33336 0.0
H588 H 0.25917 0.24411 0.33549 0.0
C589 C 0.07411 0.25236 0.31523 0.0
C590 C 0.10886 0.21486 0.30469 0.0
H591 H 0.07681 0.31351 0.34281 0.0
H592 H 0.02211 0.25491 0.3105 0.0
C593 C 0.17658 0.21331 0.31097 0.0
C594 C 0.32857 0.30342 0.86437 0.0
C595 C 0.31868 0.26012 0.85238 0.0
H596 H 0.37598 0.36659 0.85687 0.0
C597 C 0.35212 0.24641 0.82341 0.0
H598 H 0.30331 0.31454 0.88681 0.0
C599 C 0.39428 0.27616 0.80634 0.0
C600 C 0.4028 0.32008 0.81779 0.0
H601 H 0.34533 0.21301 0.81385 0.0
H602 H 0.41995 0.26493 0.78412 0.0
C603 C 0.37028 0.33311 0.84731 0.0
C604 C 0.66301 0.29232 0.66684 0.0
C605 C 0.71199 0.27066 0.68486 0.0
H606 H 0.58022 0.33464 0.66905 0.0
C607 C 0.71255 0.27256 0.72015 0.0
H608 H 0.66211 0.2912 0.6395 0.0
C609 C 0.66564 0.29739 0.73727 0.0
C610 C 0.61803 0.32104 0.71923 0.0
H611 H 0.7503 0.256 0.73439 0.0
H612 H 0.66804 0.29912 0.76453 0.0
C613 C 0.61631 0.31724 0.68383 0.0
C614 C 0.84399 0.2514 0.18035 0.0
C615 C 0.87961 0.29136 0.17747 0.0
H616 H 0.84257 0.18472 0.19977 0.0
C617 C 0.94013 0.29604 0.19371 0.0
H618 H 0.79748 0.24717 0.16758 0.0
C619 C 0.96583 0.26052 0.21192 0.0
C620 C 0.93137 0.22 0.21381 0.0
H621 H 0.96841 0.32663 0.19146 0.0
H622 H 0.01288 0.26453 0.22415 0.0
C623 C 0.86973 0.21585 0.19854 0.0
C624 C 0.83817 0.74543 0.70733 0.0
C625 C 0.83378 0.75088 0.67228 0.0
H626 H 0.87275 0.77298 0.75397 0.0
C627 C 0.8596 0.78959 0.65729 0.0
H628 H 0.81914 0.71555 0.71935 0.0
C629 C 0.89023 0.82232 0.67686 0.0
C630 C 0.89553 0.81712 0.71199 0.0
H631 H 0.85713 0.79424 0.63018 0.0
H632 H 0.91009 0.8516 0.66435 0.0
C633 C 0.86876 0.77837 0.72706 0.0
C634 C 0.67274 0.76711 0.19164 0.0
C635 C 0.73016 0.74789 0.17926 0.0
H636 H 0.58101 0.75572 0.21745 0.0
C637 C 0.73819 0.702 0.1818 0.0
H638 H 0.66596 0.80265 0.1899 0.0
C639 C 0.69026 0.67551 0.19721 0.0
C640 C 0.63336 0.69441 0.21054 0.0
H641 H 0.78221 0.68663 0.17238 0.0
H642 H 0.6983 0.64012 0.19921 0.0
C643 C 0.62424 0.74038 0.20712 0.0
C644 C 0.39744 0.7918 0.30889 0.0
C645 C 0.37852 0.78778 0.34276 0.0
H646 H 0.4396 0.75982 0.26598 0.0
C647 C 0.38486 0.74693 0.35938 0.0
H648 H 0.39337 0.82328 0.29579 0.0
C649 C 0.41134 0.71062 0.34245 0.0
C650 C 0.43225 0.7148 0.30872 0.0
H651 H 0.37085 0.74339 0.38565 0.0
H652 H 0.4164 0.6795 0.35591 0.0
C653 C 0.42399 0.75557 0.29195 0.0
C654 C 0.16134 0.74929 0.81782 0.0
C655 C 0.19198 0.76579 0.84685 0.0
H656 H 0.09155 0.76179 0.77857 0.0
C657 C 0.17444 0.80725 0.85956 0.0
H658 H 0.17431 0.71719 0.80777 0.0
C659 C 0.12802 0.83277 0.84294 0.0
C660 C 0.09852 0.81728 0.81317 0.0
H661 H 0.19769 0.8204 0.88204 0.0
H662 H 0.11687 0.86527 0.85286 0.0
C663 C 0.11441 0.77482 0.80117 0.0
loop_
_geom_bond_atom_site_label_1
_geom_bond_atom_site_label_2
_geom_bond_distance
_geom_bond_site_symmetry_2
_ccdc_geom_bond_type
H0 C3 0.929 . S
H1 C6 0.929 . S
H2 C8 0.930 . S
C3 H0 0.929 . S
C3 C4 1.398 . S
C3 C5 1.396 . S
C4 C3 1.398 . S
C4 C8 1.407 . S
C5 C3 1.396 . S
C5 C6 1.394 . S
C6 H1 0.929 . S
C6 C5 1.394 . S
C6 C7 1.382 . S
C7 C6 1.382 . S
C7 C8 1.392 . S
C7 N9 1.420 . S
C8 H2 0.930 . S
C8 C4 1.407 . S
C8 C7 1.392 . S
N9 C7 1.420 . S
N9 C10 1.244 . S
C10 N9 1.244 . S
H11 C14 0.929 . S
H12 C17 0.929 . S
H13 C19 0.930 . S
C14 H11 0.929 . S
C14 C15 1.398 . S
C14 C16 1.396 . S
C15 C14 1.398 . S
C15 C19 1.407 . S
C16 C14 1.396 . S
C16 C17 1.394 . S
C17 H12 0.929 . S
C17 C16 1.394 . S
C17 C18 1.382 . S
C18 C17 1.382 . S
C18 C19 1.392 . S
C18 N20 1.420 . S
C19 H13 0.930 . S
C19 C15 1.407 . S
C19 C18 1.392 . S
N20 C18 1.420 . S
N20 C21 1.244 . S
C21 N20 1.244 . S
H22 C25 0.929 . S
H23 C28 0.929 . S
H24 C30 0.930 . S
C25 H22 0.929 . S
C25 C26 1.398 . S
C25 C27 1.396 . S
C26 C25 1.398 . S
C26 C30 1.407 . S
C27 C25 1.396 . S
C27 C28 1.394 . S
C28 H23 0.929 . S
C28 C27 1.394 . S
C28 C29 1.382 . S
C29 C28 1.382 . S
C29 C30 1.392 . S
C29 N31 1.420 . S
C30 H24 0.930 . S
C30 C26 1.407 . S
C30 C29 1.392 . S
N31 C29 1.420 . S
N31 C32 1.244 . S
C32 N31 1.244 . S
H33 C36 0.929 . S
H34 C39 0.929 . S
H35 C41 0.930 . S
C36 H33 0.929 . S
C36 C37 1.398 . S
C36 C38 1.396 . S
C37 C36 1.398 . S
C37 C41 1.407 . S
C38 C36 1.396 . S
C38 C39 1.394 . S
C39 H34 0.929 . S
C39 C38 1.394 . S
C39 C40 1.382 . S
C40 C39 1.382 . S
C40 C41 1.392 . S
C40 N42 1.420 . S
C41 H35 0.930 . S
C41 C37 1.407 . S
C41 C40 1.392 . S
N42 C40 1.420 . S
N42 C43 1.244 . S
C43 N42 1.244 . S
H44 C47 0.929 . S
H45 C50 0.929 . S
H46 C52 0.930 . S
C47 H44 0.929 . S
C47 C48 1.398 . S
C47 C49 1.396 . S
C48 C47 1.398 . S
C48 C52 1.407 . S
C49 C47 1.396 . S
C49 C50 1.394 . S
C50 H45 0.929 . S
C50 C49 1.394 . S
C50 C51 1.382 . S
C51 C50 1.382 . S
C51 C52 1.392 . S
C51 N53 1.420 . S
C52 H46 0.930 . S
C52 C48 1.407 . S
C52 C51 1.392 . S
N53 C51 1.420 . S
N53 C54 1.244 . S
C54 N53 1.244 . S
H55 C58 0.929 . S
H56 C61 0.929 . S
H57 C63 0.930 . S
C58 H55 0.929 . S
C58 C59 1.398 . S
C58 C60 1.396 . S
C59 C58 1.398 . S
C59 C63 1.407 . S
C60 C58 1.396 . S
C60 C61 1.394 . S
C61 H56 0.929 . S
C61 C60 1.394 . S
C61 C62 1.382 . S
C62 C61 1.382 . S
C62 C63 1.392 . S
C62 N64 1.420 . S
C63 H57 0.930 . S
C63 C59 1.407 . S
C63 C62 1.392 . S
N64 C62 1.420 . S
N64 C65 1.244 . S
C65 N64 1.244 . S
H66 C69 0.929 . S
H67 C72 0.929 . S
H68 C74 0.930 . S
C69 H66 0.929 . S
C69 C70 1.398 . S
C69 C71 1.396 . S
C70 C69 1.398 . S
C70 C74 1.407 . S
C71 C69 1.396 . S
C71 C72 1.394 . S
C72 H67 0.929 . S
C72 C71 1.394 . S
C72 C73 1.382 . S
C73 C72 1.382 . S
C73 C74 1.392 . S
C73 N75 1.420 . S
C74 H68 0.930 . S
C74 C70 1.407 . S
C74 C73 1.392 . S
N75 C73 1.420 . S
N75 C76 1.244 . S
C76 N75 1.244 . S
H77 C80 0.929 . S
H78 C83 0.929 . S
H79 C85 0.930 . S
C80 H77 0.929 . S
C80 C81 1.398 . S
C80 C82 1.396 . S
C81 C80 1.398 . S
C81 C85 1.407 . S
C82 C80 1.396 . S
C82 C83 1.394 . S
C83 H78 0.929 . S
C83 C82 1.394 . S
C83 C84 1.382 . S
C84 C83 1.382 . S
C84 C85 1.392 . S
C84 N86 1.420 . S
C85 H79 0.930 . S
C85 C81 1.407 . S
C85 C84 1.392 . S
N86 C84 1.420 . S
N86 C87 1.244 . S
C87 N86 1.244 . S
C88 C90 1.422 . S
C88 C92 1.415 . S
C88 N94 1.369 . S
C89 C90 1.421 1_565 S
C89 C91 1.417 . S
C89 C101 1.422 . S
C90 C88 1.422 . S
C90 C89 1.421 1_545 S
C90 N100 1.359 . S
C91 C89 1.417 . S
C91 C93 1.329 1_565 S
C91 H110 0.930 . S
C92 C88 1.415 . S
C92 C93 1.437 . S
C92 C96 1.413 . S
C93 C91 1.329 1_545 S
C93 C92 1.437 . S
C93 H115 0.929 . S
N94 C88 1.369 . S
N94 C95 1.338 . S
N94 Gd99 2.622 . S
C95 N94 1.338 . S
C95 C97 1.378 . S
C95 H107 0.929 . S
C96 C92 1.413 . S
C96 C97 1.348 . S
C96 H112 0.931 . S
C97 C95 1.378 . S
C97 C96 1.348 . S
C97 H113 0.930 . S
Gd98 N118 2.622 . S
Gd98 N125 2.570 . S
Gd98 O132 2.353 . S
Gd98 O133 2.468 . S
Gd98 O134 2.427 . S
Gd98 O136 2.388 . S
Gd98 O137 2.386 . S
Gd98 O141 2.307 . S
Gd98 C151 2.805 . S
Gd99 N94 2.622 . S
Gd99 N100 2.570 . S
Gd99 O131 2.386 . S
Gd99 O135 2.307 1_655 S
Gd99 O138 2.353 1_655 S
Gd99 O139 2.468 . S
Gd99 O140 2.427 . S
Gd99 O142 2.388 . S
Gd99 C163 2.805 . S
N100 C90 1.359 . S
N100 Gd99 2.570 . S
N100 C102 1.343 1_545 S
C101 C89 1.422 . S
C101 C103 1.321 . S
C101 H109 0.931 . S
C102 N100 1.343 1_565 S
C102 C103 1.390 . S
C102 H104 0.931 . S
C103 C101 1.321 . S
C103 C102 1.390 . S
C103 H105 0.930 . S
H104 C102 0.931 . S
H105 C103 0.930 . S
H106 C129 0.931 . S
H107 C95 0.929 . S
H108 C130 0.930 . S
H109 C101 0.931 . S
H110 C91 0.930 . S
H111 C120 0.929 . S
H112 C96 0.931 . S
H113 C97 0.930 . S
H114 C152 0.930 . S
H115 C93 0.929 . S
H116 C121 0.931 . S
H117 C122 0.930 . S
N118 Gd98 2.622 . S
N118 C119 1.369 . S
N118 C120 1.338 . S
C119 N118 1.369 . S
C119 C123 1.415 . S
C119 C126 1.422 . S
C120 H111 0.929 . S
C120 N118 1.338 . S
C120 C122 1.378 . S
C121 H116 0.931 . S
C121 C122 1.348 . S
C121 C123 1.413 . S
C122 H117 0.930 . S
C122 C120 1.378 . S
C122 C121 1.348 . S
C123 C119 1.415 . S
C123 C121 1.413 . S
C123 C153 1.437 . S
H124 C153 0.929 . S
N125 Gd98 2.570 . S
N125 C126 1.359 . S
N125 C129 1.343 . S
C126 C119 1.422 . S
C126 N125 1.359 . S
C126 C128 1.421 . S
C127 C128 1.422 . S
C127 C130 1.321 . S
C127 H154 0.931 . S
C128 C126 1.421 . S
C128 C127 1.422 . S
C128 C152 1.417 . S
C129 H106 0.931 . S
C129 N125 1.343 . S
C129 C130 1.390 . S
C130 H108 0.930 . S
C130 C127 1.321 . S
C130 C129 1.390 . S
O131 Gd99 2.386 . S
O131 C143 1.265 . S
O132 Gd98 2.353 . S
O132 C143 1.242 1_455 S
O133 Gd98 2.468 . S
O133 C151 1.263 . S
O134 Gd98 2.427 . S
O134 C151 1.252 . S
O135 Gd99 2.307 1_455 S
O135 C144 1.261 . S
O136 Gd98 2.388 . S
O136 C144 1.252 . S
O137 Gd98 2.386 . S
O137 C155 1.265 . S
O138 Gd99 2.353 1_455 S
O138 C155 1.242 . S
O139 Gd99 2.468 . S
O139 C163 1.263 . S
O140 Gd99 2.427 . S
O140 C163 1.252 . S
O141 Gd98 2.307 . S
O141 C156 1.261 1_455 S
O142 Gd99 2.388 . S
O142 C156 1.252 . S
C143 O131 1.265 . S
C143 O132 1.242 1_655 S
C144 O135 1.261 . S
C144 O136 1.252 . S
C145 C148 1.394 . S
C145 C150 1.370 . S
C145 C151 1.500 . S
C146 C149 1.383 . S
C146 C150 1.395 . S
C147 C148 1.396 . S
C147 C149 1.365 . S
C147 H164 0.929 . S
C148 C145 1.394 . S
C148 C147 1.396 . S
C148 H165 0.930 . S
C149 C146 1.383 . S
C149 C147 1.365 . S
C149 H166 0.931 . S
C150 C145 1.370 . S
C150 C146 1.395 . S
C150 H167 0.930 . S
C151 Gd98 2.805 . S
C151 O133 1.263 . S
C151 O134 1.252 . S
C151 C145 1.500 . S
C152 H114 0.930 . S
C152 C128 1.417 . S
C152 C153 1.329 . S
C153 C123 1.437 . S
C153 H124 0.929 . S
C153 C152 1.329 . S
H154 C127 0.931 . S
C155 O137 1.265 . S
C155 O138 1.242 . S
C156 O141 1.261 1_655 S
C156 O142 1.252 . S
C157 C160 1.394 . S
C157 C162 1.370 . S
C157 C163 1.500 . S
C158 C161 1.383 . S
C158 C162 1.395 . S
C159 C160 1.396 . S
C159 C161 1.365 . S
C159 H168 0.929 . S
C160 C157 1.394 . S
C160 C159 1.396 . S
C160 H169 0.930 . S
C161 C158 1.383 . S
C161 C159 1.365 . S
C161 H170 0.931 . S
C162 C157 1.370 . S
C162 C158 1.395 . S
C162 H171 0.930 . S
C163 Gd99 2.805 . S
C163 O139 1.263 . S
C163 O140 1.252 . S
C163 C157 1.500 . S
H164 C147 0.929 . S
H165 C148 0.930 . S
H166 C149 0.931 . S
H167 C150 0.930 . S
H168 C159 0.929 . S
H169 C160 0.930 . S
H170 C161 0.931 . S
H171 C162 0.930 . S
C172 C174 1.422 . S
C172 C176 1.415 . S
C172 N178 1.369 . S
C173 C174 1.421 . S
C173 C175 1.417 . S
C173 C185 1.422 . S
C174 C172 1.422 . S
C174 C173 1.421 . S
C174 N184 1.359 . S
C175 C173 1.417 . S
C175 C177 1.329 . S
C175 H194 0.930 . S
C176 C172 1.415 . S
C176 C177 1.437 . S
C176 C180 1.413 . S
C177 C175 1.329 . S
C177 C176 1.437 . S
C177 H199 0.929 . S
N178 C172 1.369 . S
N178 C179 1.338 . S
N178 Gd183 2.622 . S
C179 N178 1.338 . S
C179 C181 1.378 . S
C179 H191 0.929 . S
C180 C176 1.413 . S
C180 C181 1.348 . S
C180 H196 0.931 . S
C181 C179 1.378 . S
C181 C180 1.348 . S
C181 H197 0.930 . S
Gd182 N202 2.622 . S
Gd182 N209 2.570 . S
Gd182 O216 2.353 . S
Gd182 O217 2.468 . S
Gd182 O218 2.427 . S
Gd182 O220 2.388 . S
Gd182 O221 2.386 . S
Gd182 O225 2.307 . S
Gd182 C235 2.805 . S
Gd183 N178 2.622 . S
Gd183 N184 2.570 . S
Gd183 O215 2.386 . S
Gd183 O219 2.307 . S
Gd183 O222 2.353 . S
Gd183 O223 2.468 . S
Gd183 O224 2.427 . S
Gd183 O226 2.388 . S
Gd183 C247 2.805 . S
N184 C174 1.359 . S
N184 Gd183 2.570 . S
N184 C186 1.343 . S
C185 C173 1.422 . S
C185 C187 1.321 . S
C185 H193 0.931 . S
C186 N184 1.343 . S
C186 C187 1.390 . S
C186 H188 0.931 . S
C187 C185 1.321 . S
C187 C186 1.390 . S
C187 H189 0.930 . S
H188 C186 0.931 . S
H189 C187 0.930 . S
H190 C213 0.931 . S
H191 C179 0.929 . S
H192 C214 0.930 . S
H193 C185 0.931 . S
H194 C175 0.930 . S
H195 C204 0.929 . S
H196 C180 0.931 . S
H197 C181 0.930 . S
H198 C236 0.930 . S
H199 C177 0.929 . S
H200 C205 0.931 . S
H201 C206 0.930 . S
N202 Gd182 2.622 . S
N202 C203 1.369 . S
N202 C204 1.338 . S
C203 N202 1.369 . S
C203 C207 1.415 . S
C203 C210 1.422 . S
C204 H195 0.929 . S
C204 N202 1.338 . S
C204 C206 1.378 . S
C205 H200 0.931 . S
C205 C206 1.348 . S
C205 C207 1.413 . S
C206 H201 0.930 . S
C206 C204 1.378 . S
C206 C205 1.348 . S
C207 C203 1.415 . S
C207 C205 1.413 . S
C207 C237 1.437 . S
H208 C237 0.929 . S
N209 Gd182 2.570 . S
N209 C210 1.359 . S
N209 C213 1.343 . S
C210 C203 1.422 . S
C210 N209 1.359 . S
C210 C212 1.421 . S
C211 C212 1.422 . S
C211 C214 1.321 . S
C211 H238 0.931 . S
C212 C210 1.421 . S
C212 C211 1.422 . S
C212 C236 1.417 . S
C213 H190 0.931 . S
C213 N209 1.343 . S
C213 C214 1.390 . S
C214 H192 0.930 . S
C214 C211 1.321 . S
C214 C213 1.390 . S
O215 Gd183 2.386 . S
O215 C227 1.265 . S
O216 Gd182 2.353 . S
O216 C227 1.242 . S
O217 Gd182 2.468 . S
O217 C235 1.263 . S
O218 Gd182 2.427 . S
O218 C235 1.252 . S
O219 Gd183 2.307 . S
O219 C228 1.261 . S
O220 Gd182 2.388 . S
O220 C228 1.252 . S
O221 Gd182 2.386 . S
O221 C239 1.265 . S
O222 Gd183 2.353 . S
O222 C239 1.242 . S
O223 Gd183 2.468 . S
O223 C247 1.263 . S
O224 Gd183 2.427 . S
O224 C247 1.252 . S
O225 Gd182 2.307 . S
O225 C240 1.261 . S
O226 Gd183 2.388 . S
O226 C240 1.252 . S
C227 O215 1.265 . S
C227 O216 1.242 . S
C228 O219 1.261 . S
C228 O220 1.252 . S
C229 C232 1.394 . S
C229 C234 1.370 . S
C229 C235 1.500 . S
C230 C233 1.383 . S
C230 C234 1.395 . S
C231 C232 1.396 . S
C231 C233 1.365 . S
C231 H248 0.929 . S
C232 C229 1.394 . S
C232 C231 1.396 . S
C232 H249 0.930 . S
C233 C230 1.383 . S
C233 C231 1.365 . S
C233 H250 0.931 . S
C234 C229 1.370 . S
C234 C230 1.395 . S
C234 H251 0.930 . S
C235 Gd182 2.805 . S
C235 O217 1.263 . S
C235 O218 1.252 . S
C235 C229 1.500 . S
C236 H198 0.930 . S
C236 C212 1.417 . S
C236 C237 1.329 . S
C237 C207 1.437 . S
C237 H208 0.929 . S
C237 C236 1.329 . S
H238 C211 0.931 . S
C239 O221 1.265 . S
C239 O222 1.242 . S
C240 O225 1.261 . S
C240 O226 1.252 . S
C241 C244 1.394 . S
C241 C246 1.370 . S
C241 C247 1.500 . S
C242 C245 1.383 . S
C242 C246 1.395 . S
C243 C244 1.396 . S
C243 C245 1.365 . S
C243 H252 0.929 . S
C244 C241 1.394 . S
C244 C243 1.396 . S
C244 H253 0.930 . S
C245 C242 1.383 . S
C245 C243 1.365 . S
C245 H254 0.931 . S
C246 C241 1.370 . S
C246 C242 1.395 . S
C246 H255 0.930 . S
C247 Gd183 2.805 . S
C247 O223 1.263 . S
C247 O224 1.252 . S
C247 C241 1.500 . S
H248 C231 0.929 . S
H249 C232 0.930 . S
H250 C233 0.931 . S
H251 C234 0.930 . S
H252 C243 0.929 . S
H253 C244 0.930 . S
H254 C245 0.931 . S
H255 C246 0.930 . S
C256 C258 1.422 . S
C256 C260 1.415 . S
C256 N262 1.369 . S
C257 C258 1.421 . S
C257 C259 1.417 . S
C257 C269 1.422 . S
C258 C256 1.422 . S
C258 C257 1.421 . S
C258 N268 1.359 . S
C259 C257 1.417 . S
C259 C261 1.329 . S
C259 H278 0.930 . S
C260 C256 1.415 . S
C260 C261 1.437 . S
C260 C264 1.413 . S
C261 C259 1.329 . S
C261 C260 1.437 . S
C261 H283 0.929 . S
N262 C256 1.369 . S
N262 C263 1.338 . S
N262 Gd267 2.622 . S
C263 N262 1.338 . S
C263 C265 1.378 . S
C263 H275 0.929 . S
C264 C260 1.413 . S
C264 C265 1.348 . S
C264 H280 0.931 . S
C265 C263 1.378 . S
C265 C264 1.348 . S
C265 H281 0.930 . S
Gd266 N286 2.622 . S
Gd266 N293 2.570 . S
Gd266 O300 2.353 1_455 S
Gd266 O301 2.468 . S
Gd266 O302 2.427 . S
Gd266 O304 2.388 . S
Gd266 O305 2.386 . S
Gd266 O309 2.296 1_455 S
Gd266 C319 2.805 . S
Gd267 N262 2.622 . S
Gd267 N268 2.570 . S
Gd267 O299 2.386 . S
Gd267 O303 2.307 1_655 S
Gd267 O306 2.353 1_655 S
Gd267 O307 2.468 . S
Gd267 O308 2.427 . S
Gd267 O310 2.388 . S
Gd267 C331 2.805 . S
N268 C258 1.359 . S
N268 Gd267 2.570 . S
N268 C270 1.343 . S
C269 C257 1.422 . S
C269 C271 1.321 . S
C269 H277 0.931 . S
C270 N268 1.343 . S
C270 C271 1.390 . S
C270 H272 0.931 . S
C271 C269 1.321 . S
C271 C270 1.390 . S
C271 H273 0.930 . S
H272 C270 0.931 . S
H273 C271 0.930 . S
H274 C297 0.931 . S
H275 C263 0.929 . S
H276 C298 0.930 . S
H277 C269 0.931 . S
H278 C259 0.930 . S
H279 C288 0.929 . S
H280 C264 0.931 . S
H281 C265 0.930 . S
H282 C320 0.930 . S
H283 C261 0.929 . S
H284 C289 0.931 . S
H285 C290 0.930 . S
N286 Gd266 2.622 . S
N286 C287 1.369 . S
N286 C288 1.338 . S
C287 N286 1.369 . S
C287 C291 1.415 . S
C287 C294 1.422 . S
C288 H279 0.929 . S
C288 N286 1.338 . S
C288 C290 1.378 . S
C289 H284 0.931 . S
C289 C290 1.348 . S
C289 C291 1.413 . S
C290 H285 0.930 . S
C290 C288 1.378 . S
C290 C289 1.348 . S
C291 C287 1.415 . S
C291 C289 1.413 . S
C291 C321 1.437 . S
H292 C321 0.929 . S
N293 Gd266 2.570 . S
N293 C294 1.359 . S
N293 C297 1.343 1_565 S
C294 C287 1.422 . S
C294 N293 1.359 . S
C294 C296 1.421 1_565 S
C295 C296 1.422 . S
C295 C298 1.321 . S
C295 H322 0.931 . S
C296 C294 1.421 1_545 S
C296 C295 1.422 . S
C296 C320 1.417 . S
C297 H274 0.931 . S
C297 N293 1.343 1_545 S
C297 C298 1.390 . S
C298 H276 0.930 . S
C298 C295 1.321 . S
C298 C297 1.390 . S
O299 Gd267 2.386 . S
O299 C311 1.265 . S
O300 Gd266 2.353 1_655 S
O300 C311 1.242 . S
O301 Gd266 2.468 . S
O301 C319 1.263 . S
O302 Gd266 2.427 . S
O302 C319 1.252 . S
O303 Gd267 2.307 1_455 S
O303 C312 1.261 . S
O304 Gd266 2.388 . S
O304 C312 1.252 . S
O305 Gd266 2.386 . S
O305 C323 1.265 . S
O306 Gd267 2.353 1_455 S
O306 C323 1.242 . S
O307 Gd267 2.468 . S
O307 C331 1.263 . S
O308 Gd267 2.427 . S
O308 C331 1.252 . S
O309 Gd266 2.296 1_655 S
O309 C324 1.274 . S
O310 Gd267 2.388 . S
O310 C324 1.252 . S
C311 O299 1.265 . S
C311 O300 1.242 . S
C312 O303 1.261 . S
C312 O304 1.252 . S
C313 C316 1.394 . S
C313 C318 1.370 . S
C313 C319 1.500 . S
C314 C317 1.383 . S
C314 C318 1.395 . S
C315 C316 1.396 . S
C315 C317 1.365 . S
C315 H332 0.929 . S
C316 C313 1.394 . S
C316 C315 1.396 . S
C316 H333 0.930 . S
C317 C314 1.383 . S
C317 C315 1.365 . S
C317 H334 0.931 . S
C318 C313 1.370 . S
C318 C314 1.395 . S
C318 H335 0.930 . S
C319 Gd266 2.805 . S
C319 O301 1.263 . S
C319 O302 1.252 . S
C319 C313 1.500 . S
C320 H282 0.930 . S
C320 C296 1.417 . S
C320 C321 1.329 1_545 S
C321 C291 1.437 . S
C321 H292 0.929 . S
C321 C320 1.329 1_565 S
H322 C295 0.931 . S
C323 O305 1.265 . S
C323 O306 1.242 . S
C324 O309 1.274 . S
C324 O310 1.252 . S
C325 C328 1.394 . S
C325 C330 1.370 . S
C325 C331 1.500 . S
C326 C329 1.383 . S
C326 C330 1.395 . S
C327 C328 1.396 . S
C327 C329 1.365 . S
C327 H336 0.929 . S
C328 C325 1.394 . S
C328 C327 1.396 . S
C328 H337 0.930 . S
C329 C326 1.383 . S
C329 C327 1.365 . S
C329 H338 0.931 . S
C330 C325 1.370 . S
C330 C326 1.395 . S
C330 H339 0.930 . S
C331 Gd267 2.805 . S
C331 O307 1.263 . S
C331 O308 1.252 . S
C331 C325 1.500 . S
H332 C315 0.929 . S
H333 C316 0.930 . S
H334 C317 0.931 . S
H335 C318 0.930 . S
H336 C327 0.929 . S
H337 C328 0.930 . S
H338 C329 0.931 . S
H339 C330 0.930 . S
C340 C342 1.422 . S
C340 C344 1.415 . S
C340 N346 1.369 . S
C341 C342 1.421 . S
C341 C343 1.417 . S
C341 C353 1.422 . S
C342 C340 1.422 . S
C342 C341 1.421 . S
C342 N352 1.359 . S
C343 C341 1.417 . S
C343 C345 1.329 . S
C343 H362 0.930 . S
C344 C340 1.415 . S
C344 C345 1.437 . S
C344 C348 1.413 . S
C345 C343 1.329 . S
C345 C344 1.437 . S
C345 H367 0.929 . S
N346 C340 1.369 . S
N346 C347 1.338 . S
N346 Gd351 2.622 . S
C347 N346 1.338 . S
C347 C349 1.378 . S
C347 H359 0.929 . S
C348 C344 1.413 . S
C348 C349 1.348 . S
C348 H364 0.931 . S
C349 C347 1.378 . S
C349 C348 1.348 . S
C349 H365 0.930 . S
Gd350 N370 2.622 . S
Gd350 N377 2.570 . S
Gd350 O384 2.353 . S
Gd350 O385 2.468 . S
Gd350 O386 2.427 . S
Gd350 O388 2.388 . S
Gd350 O389 2.386 . S
Gd350 O393 2.307 . S
Gd350 C403 2.805 . S
Gd351 N346 2.622 . S
Gd351 N352 2.570 . S
Gd351 O383 2.386 . S
Gd351 O387 2.307 . S
Gd351 O390 2.353 . S
Gd351 O391 2.468 . S
Gd351 O392 2.427 . S
Gd351 O394 2.388 . S
Gd351 C415 2.805 . S
N352 C342 1.359 . S
N352 Gd351 2.570 . S
N352 C354 1.343 . S
C353 C341 1.422 . S
C353 C355 1.321 . S
C353 H361 0.931 . S
C354 N352 1.343 . S
C354 C355 1.390 . S
C354 H356 0.931 . S
C355 C353 1.321 . S
C355 C354 1.390 . S
C355 H357 0.930 . S
H356 C354 0.931 . S
H357 C355 0.930 . S
H358 C381 0.931 . S
H359 C347 0.929 . S
H360 C382 0.930 . S
H361 C353 0.931 . S
H362 C343 0.930 . S
H363 C372 0.929 . S
H364 C348 0.931 . S
H365 C349 0.930 . S
H366 C404 0.930 . S
H367 C345 0.929 . S
H368 C373 0.931 . S
H369 C374 0.930 . S
N370 Gd350 2.622 . S
N370 C371 1.369 . S
N370 C372 1.338 . S
C371 N370 1.369 . S
C371 C375 1.415 . S
C371 C378 1.422 . S
C372 H363 0.929 . S
C372 N370 1.338 . S
C372 C374 1.378 . S
C373 H368 0.931 . S
C373 C374 1.348 . S
C373 C375 1.413 . S
C374 H369 0.930 . S
C374 C372 1.378 . S
C374 C373 1.348 . S
C375 C371 1.415 . S
C375 C373 1.413 . S
C375 C405 1.437 . S
H376 C405 0.929 . S
N377 Gd350 2.570 . S
N377 C378 1.359 . S
N377 C381 1.343 . S
C378 C371 1.422 . S
C378 N377 1.359 . S
C378 C380 1.421 . S
C379 C380 1.422 . S
C379 C382 1.321 . S
C379 H406 0.931 . S
C380 C378 1.421 . S
C380 C379 1.422 . S
C380 C404 1.417 . S
C381 H358 0.931 . S
C381 N377 1.343 . S
C381 C382 1.390 . S
C382 H360 0.930 . S
C382 C379 1.321 . S
C382 C381 1.390 . S
O383 Gd351 2.386 . S
O383 C395 1.265 . S
O384 Gd350 2.353 . S
O384 C395 1.242 . S
O385 Gd350 2.468 . S
O385 C403 1.263 . S
O386 Gd350 2.427 . S
O386 C403 1.252 . S
O387 Gd351 2.307 . S
O387 C396 1.261 . S
O388 Gd350 2.388 . S
O388 C396 1.252 . S
O389 Gd350 2.386 . S
O389 C407 1.265 . S
O390 Gd351 2.353 . S
O390 C407 1.242 . S
O391 Gd351 2.468 . S
O391 C415 1.263 . S
O392 Gd351 2.427 . S
O392 C415 1.252 . S
O393 Gd350 2.307 . S
O393 C408 1.261 . S
O394 Gd351 2.388 . S
O394 C408 1.252 . S
C395 O383 1.265 . S
C395 O384 1.242 . S
C396 O387 1.261 . S
C396 O388 1.252 . S
C397 C400 1.394 . S
C397 C402 1.370 . S
C397 C403 1.500 . S
C398 C401 1.383 . S
C398 C402 1.395 . S
C399 C400 1.396 . S
C399 C401 1.365 . S
C399 H416 0.929 . S
C400 C397 1.394 . S
C400 C399 1.396 . S
C400 H417 0.930 . S
C401 C398 1.383 . S
C401 C399 1.365 . S
C401 H418 0.931 . S
C402 C397 1.370 . S
C402 C398 1.395 . S
C402 H419 0.930 . S
C403 Gd350 2.805 . S
C403 O385 1.263 . S
C403 O386 1.252 . S
C403 C397 1.500 . S
C404 H366 0.930 . S
C404 C380 1.417 . S
C404 C405 1.329 . S
C405 C375 1.437 . S
C405 H376 0.929 . S
C405 C404 1.329 . S
H406 C379 0.931 . S
C407 O389 1.265 . S
C407 O390 1.242 . S
C408 O393 1.261 . S
C408 O394 1.252 . S
C409 C412 1.394 . S
C409 C414 1.370 . S
C409 C415 1.500 . S
C410 C413 1.383 . S
C410 C414 1.395 . S
C411 C412 1.396 . S
C411 C413 1.365 . S
C411 H420 0.929 . S
C412 C409 1.394 . S
C412 C411 1.396 . S
C412 H421 0.930 . S
C413 C410 1.383 . S
C413 C411 1.365 . S
C413 H422 0.931 . S
C414 C409 1.370 . S
C414 C410 1.395 . S
C414 H423 0.930 . S
C415 Gd351 2.805 . S
C415 O391 1.263 . S
C415 O392 1.252 . S
C415 C409 1.500 . S
H416 C399 0.929 . S
H417 C400 0.930 . S
H418 C401 0.931 . S
H419 C402 0.930 . S
H420 C411 0.929 . S
H421 C412 0.930 . S
H422 C413 0.931 . S
H423 C414 0.930 . S
C424 C425 1.387 . S
C424 H428 0.950 . S
C424 C433 1.390 . S
C425 C424 1.387 . S
C425 C427 1.387 . S
H426 C433 0.950 . S
C427 C425 1.387 . S
C427 C429 1.390 1_565 S
C427 H431 0.950 . S
H428 C424 0.950 . S
C429 C427 1.390 1_545 S
C429 C430 1.387 1_545 S
C429 H432 0.950 . S
C430 C429 1.387 1_565 S
C430 C433 1.387 . S
H431 C427 0.950 . S
H432 C429 0.950 . S
C433 C424 1.390 . S
C433 H426 0.950 . S
C433 C430 1.387 . S
C434 C435 1.387 . S
C434 H438 0.950 . S
C434 C443 1.390 . S
C435 C434 1.387 . S
C435 C437 1.387 . S
H436 C443 0.950 . S
C437 C435 1.387 . S
C437 C439 1.390 . S
C437 H441 0.950 . S
H438 C434 0.950 . S
C439 C437 1.390 . S
C439 C440 1.387 . S
C439 H442 0.950 . S
C440 C439 1.387 . S
C440 C443 1.387 . S
H441 C437 0.950 . S
H442 C439 0.950 . S
C443 C434 1.390 . S
C443 H436 0.950 . S
C443 C440 1.387 . S
C444 C445 1.387 . S
C444 H448 0.950 . S
C444 C453 1.390 . S
C445 C444 1.387 . S
C445 C447 1.387 . S
H446 C453 0.950 . S
C447 C445 1.387 . S
C447 C449 1.390 . S
C447 H451 0.950 . S
H448 C444 0.950 . S
C449 C447 1.390 . S
C449 C450 1.387 . S
C449 H452 0.950 . S
C450 C449 1.387 . S
C450 C453 1.387 . S
H451 C447 0.950 . S
H452 C449 0.950 . S
C453 C444 1.390 . S
C453 H446 0.950 . S
C453 C450 1.387 . S
C454 C455 1.387 . S
C454 H458 0.950 . S
C454 C463 1.390 . S
C455 C454 1.387 . S
C455 C457 1.387 . S
H456 C463 0.950 . S
C457 C455 1.387 . S
C457 C459 1.390 1_565 S
C457 H461 0.950 . S
H458 C454 0.950 . S
C459 C457 1.390 1_545 S
C459 C460 1.389 . S
C459 H462 0.950 . S
C460 C459 1.389 . S
C460 C463 1.371 1_545 S
H461 C457 0.950 . S
H462 C459 0.950 . S
C463 C454 1.390 . S
C463 H456 0.950 . S
C463 C460 1.371 1_565 S
C464 C465 1.387 . S
C464 H468 0.950 . S
C464 C473 1.390 . S
C465 C464 1.387 . S
C465 C467 1.387 . S
H466 C473 0.950 1_565 S
C467 C465 1.387 . S
C467 C469 1.390 . S
C467 H471 0.950 . S
H468 C464 0.950 . S
C469 C467 1.390 . S
C469 C470 1.388 . S
C469 H472 0.950 . S
C470 C469 1.388 . S
C470 C473 1.388 . S
H471 C467 0.950 . S
H472 C469 0.950 . S
C473 C464 1.390 . S
C473 H466 0.950 1_545 S
C473 C470 1.388 . S
C474 C475 1.387 . S
C474 H478 0.950 . S
C474 C483 1.390 . S
C475 C474 1.387 . S
C475 C477 1.387 . S
H476 C483 0.950 . S
C477 C475 1.387 . S
C477 C479 1.390 . S
C477 H481 0.950 . S
H478 C474 0.950 . S
C479 C477 1.390 . S
C479 C480 1.387 . S
C479 H482 0.950 . S
C480 C479 1.387 . S
C480 C483 1.387 . S
H481 C477 0.950 . S
H482 C479 0.950 . S
C483 C474 1.390 . S
C483 H476 0.950 . S
C483 C480 1.387 . S
C484 C485 1.387 . S
C484 H488 0.950 . S
C484 C493 1.390 . S
C485 C484 1.387 . S
C485 C487 1.387 . S
H486 C493 0.950 . S
C487 C485 1.387 . S
C487 C489 1.390 . S
C487 H491 0.950 . S
H488 C484 0.950 . S
C489 C487 1.390 . S
C489 C490 1.387 . S
C489 H492 0.950 . S
C490 C489 1.387 . S
C490 C493 1.387 . S
H491 C487 0.950 . S
H492 C489 0.950 . S
C493 C484 1.390 . S
C493 H486 0.950 . S
C493 C490 1.387 . S
C494 C495 1.387 . S
C494 H498 0.950 . S
C494 C503 1.390 . S
C495 C494 1.387 . S
C495 C497 1.387 . S
H496 C503 0.950 . S
C497 C495 1.387 . S
C497 C499 1.390 1_545 S
C497 H501 0.950 . S
H498 C494 0.950 . S
C499 C497 1.390 1_565 S
C499 C500 1.393 . S
C499 H502 0.950 . S
C500 C499 1.393 . S
C500 C503 1.366 1_565 S
H501 C497 0.950 . S
H502 C499 0.950 . S
C503 C494 1.390 . S
C503 H496 0.950 . S
C503 C500 1.366 1_545 S
C504 C505 1.387 . S
C504 H508 0.950 . S
C504 C513 1.390 1_556 S
C505 C504 1.387 . S
C505 C507 1.387 . S
H506 C513 0.950 . S
C507 C505 1.387 . S
C507 C509 1.390 1_556 S
C507 H511 0.950 . S
H508 C504 0.950 . S
C509 C507 1.390 1_554 S
C509 C510 1.387 . S
C509 H512 0.950 . S
C510 C509 1.387 . S
C510 C513 1.387 . S
H511 C507 0.950 . S
H512 C509 0.950 . S
C513 C504 1.390 1_554 S
C513 H506 0.950 . S
C513 C510 1.387 . S
C514 C515 1.387 . S
C514 H518 0.950 . S
C514 C523 1.390 . S
C515 C514 1.387 . S
C515 C517 1.387 . S
H516 C523 0.950 . S
C517 C515 1.387 . S
C517 C519 1.390 . S
C517 H521 0.950 . S
H518 C514 0.950 . S
C519 C517 1.390 . S
C519 C520 1.387 . S
C519 H522 0.950 . S
C520 C519 1.387 . S
C520 C523 1.387 . S
H521 C517 0.950 . S
H522 C519 0.950 . S
C523 C514 1.390 . S
C523 H516 0.950 . S
C523 C520 1.387 . S
C524 C525 1.387 . S
C524 H528 0.950 . S
C524 C533 1.390 1_554 S
C525 C524 1.387 . S
C525 C527 1.387 . S
H526 C533 0.950 . S
C527 C525 1.387 . S
C527 C529 1.390 1_554 S
C527 H531 0.950 . S
H528 C524 0.950 . S
C529 C527 1.390 1_556 S
C529 C530 1.387 . S
C529 H532 0.950 . S
C530 C529 1.387 . S
C530 C533 1.387 . S
H531 C527 0.950 . S
H532 C529 0.950 . S
C533 C524 1.390 1_556 S
C533 H526 0.950 . S
C533 C530 1.387 . S
C534 C535 1.387 . S
C534 H538 0.950 . S
C534 C543 1.390 . S
C535 C534 1.387 . S
C535 C537 1.387 . S
H536 C543 0.950 . S
C537 C535 1.387 . S
C537 C539 1.390 . S
C537 H541 0.950 . S
H538 C534 0.950 . S
C539 C537 1.390 . S
C539 C540 1.387 . S
C539 H542 0.950 . S
C540 C539 1.387 . S
C540 C543 1.387 . S
H541 C537 0.950 . S
H542 C539 0.950 . S
C543 C534 1.390 . S
C543 H536 0.950 . S
C543 C540 1.387 . S
C544 C545 1.387 . S
C544 H548 0.950 . S
C544 C553 1.390 1_554 S
C545 C544 1.387 . S
C545 C547 1.387 . S
H546 C553 0.950 . S
C547 C545 1.387 . S
C547 C549 1.390 1_554 S
C547 H551 0.950 . S
H548 C544 0.950 . S
C549 C547 1.390 1_556 S
C549 C550 1.387 . S
C549 H552 0.950 . S
C550 C549 1.387 . S
C550 C553 1.387 . S
H551 C547 0.950 . S
H552 C549 0.950 . S
C553 C544 1.390 1_556 S
C553 H546 0.950 . S
C553 C550 1.387 . S
C554 C555 1.387 . S
C554 H558 0.950 . S
C554 C563 1.390 . S
C555 C554 1.387 . S
C555 C557 1.387 . S
H556 C563 0.950 . S
C557 C555 1.387 . S
C557 C559 1.390 . S
C557 H561 0.950 . S
H558 C554 0.950 . S
C559 C557 1.390 . S
C559 C560 1.387 . S
C559 H562 0.950 . S
C560 C559 1.387 . S
C560 C563 1.387 . S
H561 C557 0.950 . S
H562 C559 0.950 . S
C563 C554 1.390 . S
C563 H556 0.950 . S
C563 C560 1.387 . S
C564 C565 1.387 . S
C564 H568 0.950 . S
C564 C573 1.390 . S
C565 C564 1.387 . S
C565 C567 1.387 . S
H566 C573 0.947 1_554 S
C567 C565 1.387 . S
C567 C569 1.390 1_556 S
C567 H571 0.950 . S
H568 C564 0.950 . S
C569 C567 1.390 1_554 S
C569 C570 1.387 . S
C569 H572 0.950 . S
C570 C569 1.387 . S
C570 C573 1.387 1_554 S
H571 C567 0.950 . S
H572 C569 0.950 . S
C573 C564 1.390 . S
C573 H566 0.947 1_556 S
C573 C570 1.387 1_556 S
C574 C575 1.387 . S
C574 H578 0.950 . S
C574 C583 1.390 . S
C575 C574 1.387 . S
C575 C577 1.387 . S
H576 C583 0.950 . S
C577 C575 1.387 . S
C577 C579 1.390 . S
C577 H581 0.950 . S
H578 C574 0.950 . S
C579 C577 1.390 . S
C579 C580 1.387 . S
C579 H582 0.950 . S
C580 C579 1.387 . S
C580 C583 1.387 . S
H581 C577 0.950 . S
H582 C579 0.950 . S
C583 C574 1.390 . S
C583 H576 0.950 . S
C583 C580 1.387 . S
C584 C585 1.387 . S
C584 H588 0.950 . S
C584 C593 1.390 . S
C585 C584 1.387 . S
C585 C587 1.387 . S
H586 C593 0.950 . S
C587 C585 1.387 . S
C587 C589 1.390 . S
C587 H591 0.950 . S
H588 C584 0.950 . S
C589 C587 1.390 . S
C589 C590 1.387 . S
C589 H592 0.950 . S
C590 C589 1.387 . S
C590 C593 1.387 . S
H591 C587 0.950 . S
H592 C589 0.950 . S
C593 C584 1.390 . S
C593 H586 0.950 . S
C593 C590 1.387 . S
C594 C595 1.387 . S
C594 H598 0.950 . S
C594 C603 1.390 . S
C595 C594 1.387 . S
C595 C597 1.387 . S
H596 C603 0.950 . S
C597 C595 1.387 . S
C597 C599 1.390 . S
C597 H601 0.950 . S
H598 C594 0.950 . S
C599 C597 1.390 . S
C599 C600 1.387 . S
C599 H602 0.950 . S
C600 C599 1.387 . S
C600 C603 1.387 . S
H601 C597 0.950 . S
H602 C599 0.950 . S
C603 C594 1.390 . S
C603 H596 0.950 . S
C603 C600 1.387 . S
C604 C605 1.387 . S
C604 H608 0.950 . S
C604 C613 1.390 . S
C605 C604 1.387 . S
C605 C607 1.387 . S
H606 C613 0.950 . S
C607 C605 1.387 . S
C607 C609 1.390 . S
C607 H611 0.950 . S
H608 C604 0.950 . S
C609 C607 1.390 . S
C609 C610 1.387 . S
C609 H612 0.950 . S
C610 C609 1.387 . S
C610 C613 1.387 . S
H611 C607 0.950 . S
H612 C609 0.950 . S
C613 C604 1.390 . S
C613 H606 0.950 . S
C613 C610 1.387 . S
C614 C615 1.387 . S
C614 H618 0.950 . S
C614 C623 1.390 . S
C615 C614 1.387 . S
C615 C617 1.387 . S
H616 C623 0.950 . S
C617 C615 1.387 . S
C617 C619 1.390 . S
C617 H621 0.950 . S
H618 C614 0.950 . S
C619 C617 1.390 . S
C619 C620 1.387 . S
C619 H622 0.950 1_655 S
C620 C619 1.387 . S
C620 C623 1.387 . S
H621 C617 0.950 . S
H622 C619 0.950 1_455 S
C623 C614 1.390 . S
C623 H616 0.950 . S
C623 C620 1.387 . S
C624 C625 1.387 . S
C624 H628 0.950 . S
C624 C633 1.390 . S
C625 C624 1.387 . S
C625 C627 1.387 . S
H626 C633 0.950 . S
C627 C625 1.387 . S
C627 C629 1.390 . S
C627 H631 0.950 . S
H628 C624 0.950 . S
C629 C627 1.390 . S
C629 C630 1.387 . S
C629 H632 0.950 . S
C630 C629 1.387 . S
C630 C633 1.387 . S
H631 C627 0.950 . S
H632 C629 0.950 . S
C633 C624 1.390 . S
C633 H626 0.950 . S
C633 C630 1.387 . S
C634 C635 1.387 . S
C634 H638 0.950 . S
C634 C643 1.390 . S
C635 C634 1.387 . S
C635 C637 1.387 . S
H636 C643 0.950 . S
C637 C635 1.387 . S
C637 C639 1.390 . S
C637 H641 0.950 . S
H638 C634 0.950 . S
C639 C637 1.390 . S
C639 C640 1.387 . S
C639 H642 0.950 . S
C640 C639 1.387 . S
C640 C643 1.387 . S
H641 C637 0.950 . S
H642 C639 0.950 . S
C643 C634 1.390 . S
C643 H636 0.950 . S
C643 C640 1.387 . S
C644 C645 1.387 . S
C644 H648 0.950 . S
C644 C653 1.390 . S
C645 C644 1.387 . S
C645 C647 1.387 . S
H646 C653 0.950 . S
C647 C645 1.387 . S
C647 C649 1.390 . S
C647 H651 0.950 . S
H648 C644 0.950 . S
C649 C647 1.390 . S
C649 C650 1.387 . S
C649 H652 0.950 . S
C650 C649 1.387 . S
C650 C653 1.387 . S
H651 C647 0.950 . S
H652 C649 0.950 . S
C653 C644 1.390 . S
C653 H646 0.950 . S
C653 C650 1.387 . S
C654 C655 1.387 . S
C654 H658 0.950 . S
C654 C663 1.390 . S
C655 C654 1.387 . S
C655 C657 1.387 . S
H656 C663 0.950 . S
C657 C655 1.387 . S
C657 C659 1.390 . S
C657 H661 0.950 . S
H658 C654 0.950 . S
C659 C657 1.390 . S
C659 C660 1.387 . S
C659 H662 0.950 . S
C660 C659 1.387 . S
C660 C663 1.387 . S
H661 C657 0.950 . S
H662 C659 0.950 . S
C663 C654 1.390 . S
C663 H656 0.950 . S
C663 C660 1.387 . S
C425 C71 1.657 . S
C430 C144 1.645 1_565 S
C440 C228 1.635 . S
C435 C81 1.635 . S
C450 C227 1.647 . S
C445 C49 1.652 . S
C455 C59 1.635 . S
C460 C143 1.650 . S
C470 C324 1.650 1_545 S
C465 C27 1.657 . S
C480 C408 1.680 . S
C475 C38 1.689 . S
C485 C5 1.652 . S
C490 C407 1.649 . S
C495 C16 1.684 . S
C500 C323 1.705 . S
C510 C146 1.393 . S
C505 C15 1.556 . S
C520 C230 1.412 . S
C515 C4 1.574 . S
C530 C242 1.337 . S
C525 C37 1.556 . S
C540 C158 1.344 . S
C535 C26 1.572 . S
C550 C326 1.455 . S
C545 C60 1.600 . S
C555 C48 1.624 . S
C560 C410 1.461 . S
C570 C398 1.375 . S
C565 C82 1.602 . S
C575 C70 1.622 . S
C580 C314 1.382 . S
C590 C155 1.492 . S
C585 C10 1.481 . S
C600 C239 1.529 . S
C595 C21 1.519 . S
C605 C32 1.475 . S
C610 C240 1.455 . S
C620 C156 1.493 . S
C615 C43 1.513 . S
C630 C311 1.566 . S
C625 C54 1.547 . S
C635 C65 1.529 . S
C640 C395 1.532 . S
C645 C76 1.546 . S
C650 C396 1.539 . S
C655 C87 1.523 . S
C660 C312 1.506 . S
