# Generated by pormake.
# Topology anh, (6,3)-cn, num edge types: 1
# Building blocks:
#     Node 0, Type 0, BuildingBlock: BETGAK_clean_sbu_0, # of connection points: 6
#     Node 1, Type 0, BuildingBlock: BETGAK_clean_sbu_0, # of connection points: 6
#     Node 2, Type 0, BuildingBlock: BETGAK_clean_sbu_0, # of connection points: 6
#     Node 3, Type 1, BuildingBlock: PAMTOO_clean_linker_0, # of connection points: 3
#     Node 4, Type 1, BuildingBlock: PAMTOO_clean_linker_0, # of connection points: 3
#     Node 5, Type 1, BuildingBlock: PAMTOO_clean_linker_0, # of connection points: 3
#     Node 6, Type 1, BuildingBlock: PAMTOO_clean_linker_0, # of connection points: 3
#     Node 7, Type 1, BuildingBlock: PAMTOO_clean_linker_0, # of connection points: 3
#     Node 8, Type 1, BuildingBlock: PAMTOO_clean_linker_0, # of connection points: 3
#     Edge 9, Type (0, 1), BuildingBlock: ZUJKAS_clean_linker_0, # of connection points: 2
#     Edge 10, Type (0, 1), BuildingBlock: ZUJKAS_clean_linker_0, # of connection points: 2
#     Edge 11, Type (0, 1), BuildingBlock: ZUJKAS_clean_linker_0, # of connection points: 2
#     Edge 12, Type (0, 1), BuildingBlock: ZUJKAS_clean_linker_0, # of connection points: 2
#     Edge 13, Type (0, 1), BuildingBlock: ZUJKAS_clean_linker_0, # of connection points: 2
#     Edge 14, Type (0, 1), BuildingBlock: ZUJKAS_clean_linker_0, # of connection points: 2
#     Edge 15, Type (0, 1), BuildingBlock: ZUJKAS_clean_linker_0, # of connection points: 2
#     Edge 16, Type (0, 1), BuildingBlock: ZUJKAS_clean_linker_0, # of connection points: 2
#     Edge 17, Type (0, 1), BuildingBlock: ZUJKAS_clean_linker_0, # of connection points: 2
#     Edge 18, Type (0, 1), BuildingBlock: ZUJKAS_clean_linker_0, # of connection points: 2
#     Edge 19, Type (0, 1), BuildingBlock: ZUJKAS_clean_linker_0, # of connection points: 2
#     Edge 20, Type (0, 1), BuildingBlock: ZUJKAS_clean_linker_0, # of connection points: 2
#     Edge 21, Type (0, 1), BuildingBlock: ZUJKAS_clean_linker_0, # of connection points: 2
#     Edge 22, Type (0, 1), BuildingBlock: ZUJKAS_clean_linker_0, # of connection points: 2
#     Edge 23, Type (0, 1), BuildingBlock: ZUJKAS_clean_linker_0, # of connection points: 2
#     Edge 24, Type (0, 1), BuildingBlock: ZUJKAS_clean_linker_0, # of connection points: 2
#     Edge 25, Type (0, 1), BuildingBlock: ZUJKAS_clean_linker_0, # of connection points: 2
#     Edge 26, Type (0, 1), BuildingBlock: ZUJKAS_clean_linker_0, # of connection points: 2
# Relax obj value: 0.136
# Max RMSD: 0.166
# Mean RMSD: 0.120
data_MOF--net-anh--node1-BETGAK_clean_sbu_0--node2-PAMTOO_clean_linker_0--edge1-ZUJKAS_clean_linker_0
_symmetry_space_group_name_H-M    P1
_symmetry_Int_Tables_number       1
_symmetry_cell_setting            triclinic
loop_
_symmetry_equiv_pos_as_xyz
'x, y, z'
_cell_length_a     39.048214
_cell_length_b     46.680201
_cell_length_c     63.743272
_cell_angle_alpha  89.10266
_cell_angle_beta   91.250321
_cell_angle_gamma 128.02379
loop_
_atom_site_label
_atom_site_type_symbol
_atom_site_fract_x
_atom_site_fract_y
_atom_site_fract_z
_atom_type_partial_charge
La0 La 0.17085 0.55844 0.15054 0.0
La1 La 0.12158 0.58113 0.17065 0.0
C2 C 0.21513 0.55233 0.12565 0.0
C3 C 0.25909 0.56293 0.12526 0.0
C4 C 0.28103 0.56677 0.144 0.0
C5 C 0.31855 0.56935 0.14354 0.0
C6 C 0.33492 0.56845 0.1243 0.0
C7 C 0.31503 0.56812 0.10552 0.0
C8 C 0.27718 0.56512 0.10602 0.0
C9 C 0.16905 0.5543 0.19175 0.0
C10 C 0.21912 0.64284 0.16217 0.0
C11 C 1.07214 0.5833 0.19398 0.0
C12 C 1.02726 0.55404 0.20054 0.0
C13 C 0.99404 0.55609 0.19467 0.0
C14 C 0.95064 0.52519 0.19555 0.0
C15 C 0.93975 0.49169 0.20232 0.0
C16 C 0.97264 0.4907 0.21054 0.0
C17 C 1.01616 0.5216 0.20953 0.0
C18 C 0.12677 0.58578 0.12939 0.0
C19 C 1.07331 0.49761 0.15947 0.0
O20 O 0.18961 0.52803 0.13984 0.0
O21 O 0.21179 0.57853 0.12437 0.0
O22 O 0.17321 0.53444 0.17984 0.0
O23 O 0.17157 0.57801 0.18069 0.0
O24 O 0.21932 0.61849 0.15169 0.0
O25 O 0.18508 0.6335 0.17302 0.0
O26 O 1.07642 0.59116 0.17393 0.0
O27 O 0.10238 0.5814 0.2011 0.0
O28 O 0.12717 0.60863 0.14095 0.0
O29 O 0.12104 0.56115 0.14082 0.0
O30 O 1.07575 0.52128 0.17192 0.0
O31 O 0.10501 0.50815 0.14643 0.0
H32 H 0.26765 0.56544 0.15902 0.0
H33 H 0.33268 0.56928 0.15832 0.0
H34 H 0.32734 0.5682 0.09044 0.0
H35 H 0.26081 0.56257 0.0914 0.0
H36 H 1.00176 0.58089 0.18795 0.0
H37 H 0.92576 0.52698 0.1897 0.0
H38 H 0.96523 0.46534 0.21594 0.0
H39 H 1.04107 0.51918 0.21433 0.0
La40 La 0.67138 0.03952 0.49069 0.0
La41 La 0.6129 0.05897 0.47966 0.0
C42 C 0.70553 0.01373 0.50832 0.0
C43 C 0.69731 0.97853 0.51043 0.0
C44 C 0.67623 0.95227 0.49448 0.0
C45 C 0.67145 0.92003 0.49638 0.0
C46 C 0.68751 0.91348 0.51429 0.0
C47 C 0.70731 0.93948 0.53046 0.0
C48 C 0.71226 0.97168 0.5285 0.0
C49 C 0.66686 0.05054 0.45047 0.0
C50 C 0.56965 0.97663 0.48145 0.0
C51 C 0.58008 0.08728 0.46411 0.0
C52 C 0.5886 0.12225 0.46758 0.0
C53 C 0.61568 0.14479 0.48424 0.0
C54 C 0.62195 0.17712 0.48821 0.0
C55 C 0.60133 0.18759 0.47555 0.0
C56 C 0.575 0.1652 0.45856 0.0
C57 C 0.56866 0.1328 0.45464 0.0
C58 C 0.61937 0.04939 0.52 0.0
C59 C 0.71542 0.12188 0.48713 0.0
O60 O 0.71593 0.02861 0.48965 0.0
O61 O 0.67821 0.01663 0.51759 0.0
O62 O 0.70114 0.05776 0.45984 0.0
O63 O 0.63583 0.03483 0.46308 0.0
O64 O 0.60623 0.98615 0.49052 0.0
O65 O 0.56699 1.00119 0.47283 0.0
O66 O 0.56396 0.06496 0.48013 0.0
O67 O 0.61126 0.08901 0.45527 0.0
O68 O 0.58459 0.04159 0.51099 0.0
O69 O 0.6494 0.06462 0.50692 0.0
O70 O 0.67808 0.11206 0.47898 0.0
O71 O 0.71891 0.09776 0.49567 0.0
H72 H 0.66418 0.95696 0.48043 0.0
H73 H 0.65622 0.90074 0.48358 0.0
H74 H 0.71912 0.93502 0.54469 0.0
H75 H 0.72829 0.99151 0.54104 0.0
H76 H 0.63133 0.13703 0.49443 0.0
H77 H 0.642 0.19335 0.50157 0.0
H78 H 0.55919 0.17268 0.44828 0.0
H79 H 0.54782 0.11579 0.44165 0.0
La80 La 0.66459 0.56673 0.8494 0.0
La81 La 0.60222 0.48571 0.85108 0.0
C82 C 0.7041 0.63249 0.83944 0.0
C83 C 0.69402 0.65801 0.83602 0.0
C84 C 0.68244 0.66973 0.85272 0.0
C85 C 0.67574 0.69563 0.84934 0.0
C86 C 0.68029 0.71024 0.82922 0.0
C87 C 0.69109 0.69802 0.81248 0.0
C88 C 0.69808 0.67231 0.81588 0.0
C89 C 0.65034 0.53783 0.88692 0.0
C90 C 0.56135 0.52593 0.85219 0.0
C91 C 0.56469 0.42025 0.86099 0.0
C92 C 0.57408 0.39475 0.85724 0.0
C93 C 0.6048 0.40276 0.84232 0.0
C94 C 0.61309 0.37814 0.83855 0.0
C95 C 0.59079 0.34505 0.84965 0.0
C96 C 0.56041 0.3374 0.86478 0.0
C97 C 0.55215 0.36208 0.86853 0.0
C98 C 0.61638 0.51351 0.81316 0.0
C99 C 0.70621 0.52707 0.84888 0.0
O100 O 0.70189 0.62124 0.85867 0.0
O101 O 0.68788 0.60629 0.82571 0.0
O102 O 0.68786 0.56667 0.88101 0.0
O103 O 0.62253 0.52765 0.87257 0.0
O104 O 0.6004 0.55552 0.84663 0.0
O105 O 0.55565 0.49576 0.85771 0.0
O106 O 0.55456 0.43044 0.8443 0.0
O107 O 0.5923 0.44766 0.87335 0.0
O108 O 0.5796 0.48409 0.81924 0.0
O109 O 0.6443 0.5246 0.82765 0.0
O110 O 0.66619 0.49634 0.85159 0.0
O111 O 0.71344 0.55849 0.84587 0.0
H112 H 0.67902 0.65926 0.86845 0.0
H113 H 0.66702 0.70425 0.86249 0.0
H114 H 0.69532 0.70907 0.79684 0.0
H115 H 0.70733 0.664 0.80278 0.0
H116 H 0.62216 0.42795 0.83349 0.0
H117 H 0.63709 0.38509 0.82701 0.0
H118 H 0.54232 0.312 0.87342 0.0
H119 H 0.52835 0.3555 0.88011 0.0
H120 H 0.71877 0.14382 0.22912 0.0
H121 H 0.61374 0.03037 0.21858 0.0
H122 H 0.67928 0.10211 0.16614 0.0
H123 H 0.58303 0.03874 0.15472 0.0
C124 C 0.57775 0.02558 0.17026 0.0
O125 O 0.61689 0.03492 0.17778 0.0
H126 H 0.56495 0.0357 0.18084 0.0
C127 C 0.69765 0.12134 0.21845 0.0
C128 C 0.70299 0.12745 0.19669 0.0
C129 C 0.66571 0.08646 0.2266 0.0
C130 C 0.63836 0.05754 0.21266 0.0
C131 C 0.64321 0.06323 0.19095 0.0
C132 C 0.67572 0.09803 0.18297 0.0
H133 H 0.67854 0.62139 0.59206 0.0
H134 H 0.66271 0.52235 0.58405 0.0
H135 H 0.66797 0.58101 0.53008 0.0
H136 H 0.60769 0.50125 0.52362 0.0
C137 C 0.61993 0.49339 0.53661 0.0
O138 O 0.66038 0.52373 0.54311 0.0
H139 H 0.59637 0.48236 0.54967 0.0
C140 C 0.675 0.60125 0.58193 0.0
C141 C 0.67403 0.60504 0.56006 0.0
C142 C 0.67071 0.5715 0.59086 0.0
C143 C 0.6664 0.54569 0.57755 0.0
C144 C 0.66526 0.5491 0.55571 0.0
C145 C 0.66891 0.57864 0.54698 0.0
H146 H 1.07252 0.5467 0.90815 0.0
H147 H 0.1871 0.55455 0.90178 0.0
H148 H 0.10311 0.52688 0.84806 0.0
H149 H 0.15709 0.49422 0.84634 0.0
C150 C 0.17621 0.50992 0.86057 0.0
O151 O 0.17721 0.54015 0.86187 0.0
H152 H 0.1588 0.49142 0.8742 0.0
C153 C 0.09284 0.54411 0.89838 0.0
C154 C 0.08177 0.535 0.87708 0.0
C155 C 0.12999 0.55055 0.90749 0.0
C156 C 0.15819 0.54949 0.89491 0.0
C157 C 0.14876 0.54083 0.87353 0.0
C158 C 0.11049 0.53369 0.86454 0.0
H159 H 1.07865 0.47107 0.41375 0.0
H160 H 0.19308 0.58096 0.42448 0.0
H161 H 0.1196 0.51205 0.47687 0.0
H162 H 0.16492 0.59475 0.48601 0.0
C163 C 0.18251 0.60323 0.47091 0.0
O164 O 0.18735 0.57741 0.46532 0.0
H165 H 0.1629 0.60525 0.45891 0.0
C166 C 0.10117 0.4929 0.42454 0.0
C167 C 0.09491 0.48701 0.44629 0.0
C168 C 0.1364 0.5266 0.41653 0.0
C169 C 0.16572 0.55478 0.43045 0.0
C170 C 0.15921 0.5497 0.45213 0.0
C171 C 0.12387 0.51589 0.46005 0.0
H172 H 0.66107 0.98691 0.74096 0.0
H173 H 0.65465 0.07441 0.75163 0.0
H174 H 0.6551 0.01586 0.80387 0.0
H175 H 0.60097 0.03798 0.81262 0.0
C176 C 0.6114 0.0568 0.79905 0.0
O177 O 0.65123 0.06778 0.79234 0.0
H178 H 0.58617 0.04168 0.78643 0.0
C179 C 0.65957 1.00395 0.75162 0.0
C180 C 0.65863 0.998 0.77338 0.0
C181 C 0.65808 0.03135 0.74346 0.0
C182 C 0.6557 0.05303 0.75745 0.0
C183 C 0.65471 0.04737 0.77912 0.0
C184 C 0.65654 0.02019 0.78707 0.0
H185 H 0.59104 0.3474 0.08608 0.0
H186 H 0.52237 0.38911 0.10218 0.0
H187 H 0.55014 0.34025 0.14941 0.0
H188 H 0.46965 0.34521 0.16239 0.0
C189 C 0.47622 0.35702 0.14635 0.0
O190 O 0.5194 0.37499 0.14194 0.0
H191 H 0.45442 0.33412 0.13526 0.0
C192 C 0.57378 0.35126 0.09728 0.0
C193 C 0.57137 0.34021 0.11826 0.0
C194 C 0.55655 0.36928 0.09107 0.0
C195 C 0.53593 0.37531 0.10623 0.0
C196 C 0.53353 0.36448 0.12705 0.0
C197 C 0.55047 0.34658 0.13295 0.0
H198 H 0.33633 0.52342 0.09823 0.0
H199 H 0.3788 0.50171 0.10266 0.0
H200 H 0.44826 0.5743 0.15493 0.0
H201 H 0.40646 0.5972 0.15031 0.0
H202 H 0.47255 0.53546 0.10674 0.0
H203 H 0.37558 0.46775 0.17905 0.0
H204 H 0.36037 0.48653 0.15946 0.0
H205 H 0.40603 0.51621 0.17664 0.0
C206 C 0.36175 0.53598 0.11017 0.0
C207 C 0.36757 0.56181 0.12409 0.0
C208 C 0.38588 0.52331 0.11273 0.0
C209 C 0.41605 0.53602 0.1293 0.0
C210 C 0.42463 0.5639 0.1422 0.0
H211 H 0.49574 0.40697 0.17581 0.0
H212 H 0.48876 0.45566 0.17259 0.0
C213 C 0.40061 0.5768 0.13958 0.0
C214 C 0.43362 0.51638 0.13448 0.0
H215 H 0.4168 0.45056 0.16734 0.0
C216 C 0.46107 0.51734 0.12017 0.0
C217 C 0.4185 0.49285 0.15205 0.0
C218 C 0.38831 0.49042 0.1677 0.0
C219 C 0.47271 0.4944 0.12261 0.0
C220 C 0.45536 0.46925 0.13947 0.0
C221 C 0.42978 0.46969 0.15436 0.0
C222 C 0.46078 0.44059 0.14123 0.0
C223 C 0.50302 0.49705 0.10698 0.0
C224 C 0.44655 0.41561 0.12485 0.0
C225 C 0.45043 0.38788 0.1267 0.0
C226 C 0.46766 0.3842 0.14516 0.0
C227 C 0.4815 0.40894 0.16162 0.0
C228 C 0.47786 0.43682 0.15972 0.0
H229 H 0.52451 0.52467 0.09991 0.0
H230 H 0.5236 0.49065 0.11438 0.0
H231 H 0.48357 0.47741 0.09409 0.0
H232 H 0.43224 0.41745 0.11066 0.0
H233 H 0.4403 0.36948 0.11368 0.0
H234 H 0.71838 0.18006 0.47548 0.0
H235 H 0.78269 0.24352 0.47199 0.0
H236 H 0.8641 0.21551 0.49362 0.0
H237 H 0.79986 0.15198 0.49754 0.0
H238 H 0.88886 0.2809 0.51042 0.0
H239 H 0.86719 0.27748 0.42387 0.0
H240 H 0.82096 0.26534 0.43831 0.0
H241 H 0.8374 0.23686 0.4398 0.0
C242 C 0.74991 0.18735 0.47963 0.0
C243 C 0.75398 0.1608 0.48659 0.0
C244 C 0.78667 0.22367 0.47755 0.0
C245 C 0.82827 0.23413 0.48215 0.0
C246 C 0.83232 0.208 0.48989 0.0
H247 H 1.07093 0.4214 0.43369 0.0
H248 H 1.0073 0.36093 0.44419 0.0
C249 C 0.79553 0.17167 0.49209 0.0
C250 C 0.8677 0.27192 0.47808 0.0
H251 H 0.92319 0.33433 0.43889 0.0
C252 C 0.89642 0.29267 0.4948 0.0
C253 C 0.87776 0.28701 0.45763 0.0
C254 C 0.84948 0.26547 0.43882 0.0
C255 C 0.93486 0.32819 0.49162 0.0
C256 C 0.94444 0.34349 0.47122 0.0
C257 C 0.91569 0.32268 0.45454 0.0
C258 C 0.9849 0.38042 0.46646 0.0
C259 C 0.96541 0.34865 0.50998 0.0
C260 C 0.99387 0.4116 0.47567 0.0
C261 C 1.03047 0.44636 0.46971 0.0
C262 C 1.05834 0.45046 0.45424 0.0
C263 C 1.04975 0.41914 0.44545 0.0
C264 C 1.01346 0.38456 0.45147 0.0
H265 H 0.95883 0.33016 0.5232 0.0
H266 H 0.99978 0.36383 0.50527 0.0
H267 H 0.96115 0.36858 0.51571 0.0
H268 H 0.97188 0.40913 0.48698 0.0
H269 H 1.03605 0.47 0.47661 0.0
H270 H 0.71288 0.7702 0.85331 0.0
H271 H 0.70678 0.8188 0.84682 0.0
H272 H 0.63112 0.7643 0.79064 0.0
H273 H 0.6366 0.71538 0.79715 0.0
H274 H 0.73529 0.8632 0.80926 0.0
H275 H 0.559 0.78681 0.8234 0.0
H276 H 0.58912 0.77149 0.83307 0.0
H277 H 0.57226 0.76512 0.80599 0.0
C278 C 0.69438 0.7683 0.83975 0.0
C279 C 0.6751 0.73892 0.82576 0.0
C280 C 0.69114 0.79615 0.83602 0.0
C281 C 0.66812 0.79489 0.81839 0.0
C282 C 0.64851 0.76548 0.80449 0.0
H283 H 0.61469 0.92918 0.75777 0.0
H284 H 0.61834 0.88132 0.77002 0.0
C285 C 0.65199 0.73775 0.80813 0.0
C286 C 0.66627 0.82514 0.81394 0.0
H287 H 0.59609 0.8452 0.80768 0.0
C288 C 0.70498 0.85946 0.8091 0.0
C289 C 0.62662 0.82001 0.81372 0.0
C290 C 0.58436 0.78397 0.81949 0.0
C291 C 0.70491 0.88857 0.80329 0.0
C292 C 0.66513 0.88335 0.80282 0.0
C293 C 0.62653 0.84915 0.80806 0.0
C294 C 0.66253 0.91247 0.79594 0.0
C295 C 0.74714 0.92418 0.79693 0.0
C296 C 0.68561 0.94574 0.80665 0.0
C297 C 0.68406 0.97343 0.79951 0.0
C298 C 0.6591 0.96823 0.7816 0.0
C299 C 0.63501 0.93443 0.77132 0.0
C300 C 0.63673 0.90689 0.77841 0.0
H301 H 0.77226 0.92095 0.79319 0.0
H302 H 0.74225 0.93601 0.78304 0.0
H303 H 0.75982 0.94377 0.81007 0.0
H304 H 0.70501 0.95036 0.82048 0.0
H305 H 0.70307 0.99912 0.80776 0.0
H306 H 0.89262 0.47451 0.16645 0.0
H307 H 0.82039 0.41932 0.15826 0.0
H308 H 0.81552 0.3746 0.21887 0.0
H309 H 0.88839 0.43092 0.22751 0.0
H310 H 0.78661 0.34411 0.15778 0.0
H311 H 0.70763 0.37285 0.21665 0.0
H312 H 0.76303 0.40809 0.20909 0.0
H313 H 0.75026 0.37034 0.22463 0.0
C314 C 0.87612 0.45323 0.17821 0.0
C315 C 0.8957 0.45749 0.19786 0.0
C316 C 0.83509 0.42141 0.17336 0.0
C317 C 0.81259 0.39297 0.18798 0.0
C318 C 0.83234 0.39641 0.20744 0.0
H319 H 0.54877 0.28825 0.14816 0.0
H320 H 0.59856 0.28121 0.16698 0.0
C321 C 0.87381 0.42851 0.21234 0.0
C322 C 0.76724 0.36165 0.18277 0.0
H323 H 0.66666 0.33927 0.18703 0.0
C324 C 0.75975 0.3416 0.16469 0.0
C325 C 0.73218 0.35808 0.19196 0.0
C326 C 0.73829 0.37837 0.21166 0.0
C327 C 0.71958 0.32202 0.15402 0.0
C328 C 0.68676 0.32335 0.16143 0.0
C329 C 0.69212 0.33872 0.18117 0.0
C330 C 0.65327 0.31856 0.14706 0.0
C331 C 0.71403 0.30287 0.13393 0.0
C332 C 0.66707 0.34089 0.12919 0.0
C333 C 0.63909 0.34546 0.11867 0.0
C334 C 0.59661 0.32779 0.1258 0.0
C335 C 0.58156 0.30275 0.1425 0.0
C336 C 0.60981 0.29842 0.15317 0.0
H337 H 0.72922 0.28919 0.13554 0.0
H338 H 0.67924 0.28228 0.12948 0.0
H339 H 0.73085 0.32319 0.1211 0.0
H340 H 0.70072 0.35749 0.12447 0.0
H341 H 0.65219 0.36538 0.10614 0.0
H342 H 0.56669 0.9177 0.49113 0.0
H343 H 0.50399 0.85331 0.48865 0.0
H344 H 0.42393 0.88261 0.46682 0.0
H345 H 0.48658 0.94693 0.46873 0.0
H346 H 0.42783 0.81465 0.50855 0.0
H347 H 0.39648 0.80964 0.4231 0.0
H348 H 0.44574 0.84788 0.43546 0.0
H349 H 0.39673 0.8437 0.43591 0.0
C350 C 0.5358 0.91047 0.48568 0.0
C351 C 0.53176 0.93753 0.47998 0.0
C352 C 0.49996 0.87361 0.48428 0.0
C353 C 0.45936 0.86302 0.47717 0.0
C354 C 0.45513 0.89001 0.47178 0.0
H355 H 0.20623 0.65718 0.49837 0.0
H356 H 0.27453 0.71921 0.50017 0.0
C357 C 0.49099 0.92684 0.47302 0.0
C358 C 0.42113 0.82384 0.47602 0.0
H359 H 0.33985 0.75901 0.44324 0.0
C360 C 0.4088 0.80241 0.49422 0.0
C361 C 0.39666 0.80762 0.45724 0.0
C362 C 0.40982 0.8283 0.43677 0.0
C363 C 0.37204 0.76558 0.49432 0.0
C364 C 0.34622 0.74992 0.47585 0.0
C365 C 0.35928 0.77106 0.45749 0.0
C366 C 0.30525 0.71185 0.47523 0.0
C367 C 0.36163 0.74376 0.51418 0.0
C368 C 0.2991 0.68729 0.46021 0.0
C369 C 0.25986 0.65195 0.45902 0.0
C370 C 0.22616 0.64032 0.47301 0.0
C371 C 0.23214 0.66507 0.48783 0.0
C372 C 0.27123 0.70047 0.48892 0.0
H373 H 0.39103 0.75584 0.52432 0.0
H374 H 0.33756 0.74361 0.52323 0.0
H375 H 0.34761 0.7152 0.51066 0.0
H376 H 0.32461 0.69556 0.44929 0.0
H377 H 0.25577 0.63384 0.44703 0.0
H378 H 0.59822 0.30392 0.87767 0.0
H379 H 0.60775 0.25803 0.86993 0.0
H380 H 0.60954 0.2793 0.80372 0.0
H381 H 0.59991 0.32508 0.8113 0.0
H382 H 0.5528 0.1957 0.84653 0.0
H383 H 0.71627 0.28325 0.81111 0.0
H384 H 0.69493 0.30148 0.82607 0.0
H385 H 0.67837 0.28848 0.79914 0.0
C386 C 0.60069 0.29885 0.86146 0.0
C387 C 0.59839 0.31823 0.8451 0.0
C388 C 0.60637 0.27277 0.85707 0.0
C389 C 0.61005 0.26565 0.83627 0.0
C390 C 0.6079 0.28499 0.81992 0.0
H391 H 0.61228 0.10424 0.773 0.0
H392 H 0.61388 0.15582 0.78267 0.0
C393 C 0.60233 0.31113 0.82428 0.0
C394 C 0.61353 0.2365 0.8316 0.0
H395 H 0.67587 0.21921 0.80693 0.0
C396 C 0.57991 0.20088 0.83805 0.0
C397 C 0.64888 0.24333 0.82047 0.0
C398 C 0.68689 0.28125 0.81396 0.0
C399 C 0.58007 0.17174 0.83321 0.0
C400 C 0.61516 0.1785 0.8219 0.0
C401 C 0.649 0.21414 0.81559 0.0
C402 C 0.61673 0.14869 0.81612 0.0
C403 C 0.54203 0.13379 0.83972 0.0
C404 C 0.61892 0.12826 0.83171 0.0
C405 C 0.61792 0.09886 0.82621 0.0
C406 C 0.61461 0.08943 0.80504 0.0
C407 C 0.61419 0.11077 0.78943 0.0
C408 C 0.61522 0.14019 0.79493 0.0
H409 H 0.51344 0.13219 0.84394 0.0
H410 H 0.53225 0.11404 0.82696 0.0
H411 H 0.55159 0.1255 0.85366 0.0
H412 H 0.62103 0.13487 0.84813 0.0
H413 H 0.61905 0.08316 0.8385 0.0
H414 H 0.74859 0.90776 0.53048 0.0
H415 H 0.74286 0.85293 0.53498 0.0
H416 H 0.61533 0.78895 0.50607 0.0
H417 H 0.62006 0.84364 0.50201 0.0
H418 H 0.66648 0.78528 0.55773 0.0
H419 H 0.69149 0.76368 0.47546 0.0
H420 H 0.7126 0.80814 0.485 0.0
H421 H 0.6554 0.77464 0.48022 0.0
C422 C 0.7191 0.88206 0.5252 0.0
C423 C 0.6846 0.88015 0.51605 0.0
C424 C 0.7161 0.8508 0.52762 0.0
C425 C 0.67883 0.81705 0.52074 0.0
C426 C 0.64458 0.81492 0.51126 0.0
H427 H 0.62151 0.60371 0.53022 0.0
H428 H 0.62116 0.65431 0.51946 0.0
C429 C 0.64742 0.84621 0.50892 0.0
C430 C 0.67519 0.78394 0.52466 0.0
H431 H 0.68207 0.72246 0.50109 0.0
C432 C 0.66968 0.7714 0.54536 0.0
C433 C 0.67893 0.76581 0.50842 0.0
C434 C 0.6851 0.77862 0.48598 0.0
C435 C 0.66831 0.74135 0.55034 0.0
C436 C 0.67389 0.72403 0.53424 0.0
C437 C 0.67818 0.73596 0.51341 0.0
C438 C 0.67648 0.69418 0.539 0.0
C439 C 0.66055 0.72827 0.57281 0.0
C440 C 0.7087 0.70015 0.55288 0.0
C441 C 0.70883 0.67141 0.55907 0.0
C442 C 0.67709 0.63618 0.55129 0.0
C443 C 0.6464 0.63062 0.53641 0.0
C444 C 0.64609 0.65943 0.53033 0.0
H445 H 0.64416 0.73697 0.58165 0.0
H446 H 0.64036 0.69818 0.57365 0.0
H447 H 0.69224 0.74009 0.58072 0.0
H448 H 0.73321 0.72696 0.55931 0.0
H449 H 0.7333 0.67658 0.57029 0.0
H450 H 0.70886 0.47331 0.83424 0.0
H451 H 0.77116 0.47274 0.83367 0.0
H452 H 0.85003 0.5766 0.86504 0.0
H453 H 0.78885 0.57846 0.8639 0.0
H454 H 0.81486 0.46778 0.85878 0.0
H455 H 0.93657 0.60256 0.82424 0.0
H456 H 0.91683 0.60815 0.84763 0.0
H457 H 0.88023 0.58366 0.82562 0.0
C458 C 0.73972 0.49625 0.84075 0.0
C459 C 0.74391 0.52616 0.84885 0.0
C460 C 0.77556 0.49593 0.84048 0.0
C461 C 0.81654 0.52513 0.84878 0.0
C462 C 0.82003 0.55442 0.85755 0.0
H463 H 1.0646 0.55525 0.83928 0.0
H464 H 0.99912 0.54934 0.82956 0.0
C465 C 0.78463 0.55529 0.85715 0.0
C466 C 0.8546 0.52404 0.8492 0.0
H467 H 0.96521 0.57648 0.84357 0.0
C468 C 0.84753 0.49159 0.85512 0.0
C469 C 0.89771 0.5544 0.84388 0.0
C470 C 0.90813 0.58893 0.83474 0.0
C471 C 0.88172 0.48902 0.85662 0.0
C472 C 0.92537 0.52039 0.85337 0.0
C473 C 0.9323 0.55243 0.84659 0.0
C474 C 0.96409 0.52106 0.85798 0.0
C475 C 0.87001 0.45213 0.86117 0.0
C476 C 0.96682 0.50677 0.87695 0.0
C477 C 1.00344 0.509 0.88212 0.0
C478 C 1.04002 0.52715 0.86902 0.0
C479 C 1.03723 0.54088 0.84975 0.0
C480 C 0.99979 0.53787 0.84431 0.0
H481 H 0.83753 0.43016 0.85438 0.0
H482 H 0.89414 0.44952 0.85472 0.0
H483 H 0.86813 0.44768 0.87839 0.0
H484 H 0.94109 0.49475 0.88828 0.0
H485 H 1.00357 0.49741 0.89695 0.0
H486 H 0.22896 0.70052 0.1799 0.0
H487 H 0.29299 0.76434 0.1797 0.0
H488 H 0.36263 0.73739 0.14452 0.0
H489 H 0.29854 0.6731 0.14466 0.0
H490 H 0.41018 0.78533 0.17973 0.0
H491 H 0.33786 0.83255 0.12786 0.0
H492 H 0.30515 0.80592 0.14996 0.0
H493 H 0.3153 0.7853 0.13001 0.0
C494 C 0.2578 0.708 0.17209 0.0
C495 C 0.25845 0.68157 0.16222 0.0
C496 C 0.29435 0.7446 0.17192 0.0
C497 C 0.33235 0.75567 0.16186 0.0
C498 C 0.33351 0.72941 0.15228 0.0
H499 H 0.54612 0.98337 0.13472 0.0
H500 H 0.48941 0.91733 0.13213 0.0
C501 C 0.29681 0.69269 0.15235 0.0
C502 C 0.37081 0.7947 0.16154 0.0
H503 H 0.40422 0.87835 0.14541 0.0
C504 C 0.40907 0.80569 0.17211 0.0
C505 C 0.36943 0.82113 0.15137 0.0
C506 C 0.3299 0.81072 0.13898 0.0
C507 C 0.44554 0.84259 0.17332 0.0
C508 C 0.44348 0.86917 0.1639 0.0
C509 C 0.40567 0.85801 0.15278 0.0
C510 C 0.4798 0.90876 0.16563 0.0
C511 C 0.48601 0.85279 0.1846 0.0
C512 C 0.49328 0.92588 0.18531 0.0
C513 C 0.52556 0.96356 0.18679 0.0
C514 C 0.54464 0.98481 0.16861 0.0
C515 C 0.53173 0.9676 0.14896 0.0
C516 C 0.4994 0.92994 0.14748 0.0
H517 H 0.48665 0.82936 0.18584 0.0
H518 H 0.51574 0.8755 0.17646 0.0
H519 H 0.48685 0.86179 0.20074 0.0
H520 H 0.4781 0.91023 0.19951 0.0
H521 H 0.53505 0.97627 0.20211 0.0
H522 H 0.53875 0.19714 0.47342 0.0
H523 H 0.54585 0.25121 0.48252 0.0
H524 H 0.68072 0.30714 0.49926 0.0
H525 H 0.67446 0.25369 0.48931 0.0
H526 H 0.5666 0.28413 0.52052 0.0
H527 H 0.6874 0.38143 0.46171 0.0
H528 H 0.65876 0.33302 0.45997 0.0
H529 H 0.70471 0.36017 0.47753 0.0
C530 C 0.57021 0.22116 0.47861 0.0
C531 C 0.60609 0.22102 0.4805 0.0
C532 C 0.5741 0.25198 0.48398 0.0
C533 C 0.61394 0.28342 0.49133 0.0
C534 C 0.64986 0.28347 0.49325 0.0
H535 H 0.63919 0.4559 0.56064 0.0
H536 H 0.63997 0.40596 0.54997 0.0
C537 C 0.64606 0.25267 0.4878 0.0
C538 C 0.61717 0.31547 0.49781 0.0
H539 H 0.67082 0.40602 0.48838 0.0
C540 C 0.58935 0.31077 0.51347 0.0
C541 C 0.64657 0.35016 0.48845 0.0
C542 C 0.67579 0.35655 0.47085 0.0
C543 C 0.59025 0.33977 0.52012 0.0
C544 C 0.62044 0.37467 0.51117 0.0
C545 C 0.64805 0.37935 0.49539 0.0
C546 C 0.62273 0.40632 0.5175 0.0
C547 C 0.55811 0.33252 0.53632 0.0
C548 C 0.61441 0.42398 0.50265 0.0
C549 C 0.61435 0.45263 0.5087 0.0
C550 C 0.62272 0.46417 0.52969 0.0
C551 C 0.63237 0.44726 0.5444 0.0
C552 C 0.63254 0.41866 0.53834 0.0
H553 H 0.53035 0.30308 0.53756 0.0
H554 H 0.57465 0.3418 0.55189 0.0
H555 H 0.54516 0.34755 0.53251 0.0
H556 H 0.60701 0.41505 0.48647 0.0
H557 H 0.60702 0.46535 0.49704 0.0
H558 H 0.47715 0.47164 0.86412 0.0
H559 H 0.41592 0.47342 0.86562 0.0
H560 H 0.49778 0.58408 0.84321 0.0
H561 H 0.55945 0.58273 0.84204 0.0
H562 H 0.3738 0.48242 0.83593 0.0
H563 H 0.44479 0.59479 0.89296 0.0
H564 H 0.47754 0.60713 0.8702 0.0
H565 H 0.4691 0.57298 0.88792 0.0
C566 C 0.48237 0.49651 0.8596 0.0
C567 C 0.5237 0.5271 0.85305 0.0
C568 C 0.44709 0.49747 0.86044 0.0
C569 C 0.45187 0.52907 0.85489 0.0
C570 C 0.49302 0.55956 0.84813 0.0
H571 H 0.22927 0.51807 0.89324 0.0
H572 H 0.29646 0.52438 0.89147 0.0
C573 C 0.5284 0.55865 0.8473 0.0
C574 C 0.41357 0.52955 0.85567 0.0
H575 H 0.37815 0.57444 0.87646 0.0
C576 C 0.37492 0.50262 0.84481 0.0
C577 C 0.41424 0.55549 0.86744 0.0
C578 C 0.45346 0.58403 0.88047 0.0
C579 C 0.3376 0.50105 0.84521 0.0
C580 C 0.33864 0.52759 0.85649 0.0
C581 C 0.37711 0.55431 0.86755 0.0
C582 C 0.29969 0.52715 0.85757 0.0
C583 C 0.2969 0.47018 0.83397 0.0
C584 C 0.27956 0.52811 0.83923 0.0
C585 C 0.24107 0.52453 0.84026 0.0
C586 C 0.22164 0.52003 0.85965 0.0
C587 C 0.24319 0.5213 0.87805 0.0
C588 C 0.28165 0.52482 0.87702 0.0
H589 H 0.29755 0.4471 0.83111 0.0
H590 H 0.26745 0.46 0.84309 0.0
H591 H 0.29418 0.47995 0.81851 0.0
H592 H 0.29316 0.53095 0.82402 0.0
H593 H 0.22557 0.52395 0.8258 0.0
H594 H 0.99545 0.46907 0.17739 0.0
H595 H 0.93194 0.40516 0.18022 0.0
H596 H 0.997 0.37478 0.14395 0.0
H597 H 1.06129 0.43872 0.14177 0.0
H598 H 0.87798 0.35395 0.15048 0.0
H599 H 0.96335 0.31167 0.1958 0.0
H600 H 0.98692 0.35879 0.19162 0.0
H601 H 0.98772 0.33314 0.17115 0.0
C602 C 0.99647 0.44877 0.17029 0.0
C603 C 1.03382 0.45897 0.15982 0.0
C604 C 0.95997 0.41223 0.17172 0.0
C605 C 0.95999 0.385 0.1627 0.0
C606 C 0.99661 0.39518 0.15151 0.0
H607 H 0.76384 0.14728 0.16705 0.0
H608 H 0.8252 0.20925 0.15637 0.0
C609 C 1.03324 0.4318 0.15014 0.0
C610 C 0.92181 0.34607 0.16522 0.0
H611 H 0.89041 0.26516 0.18578 0.0
C612 C 0.88077 0.33454 0.15814 0.0
C613 C 0.92536 0.32067 0.17524 0.0
C614 C 0.96809 0.33165 0.18407 0.0
C615 C 0.84331 0.29839 0.16081 0.0
C616 C 0.84684 0.27324 0.17108 0.0
C617 C 0.88788 0.28451 0.17781 0.0
C618 C 0.80803 0.23572 0.17619 0.0
C619 C 0.80022 0.28726 0.15255 0.0
C620 C 0.77801 0.23014 0.19076 0.0
C621 C 0.74325 0.19493 0.19695 0.0
C622 C 0.73768 0.16455 0.18862 0.0
C623 C 0.7671 0.17015 0.17358 0.0
C624 C 0.80223 0.20548 0.16756 0.0
H625 H 0.80456 0.30655 0.14041 0.0
H626 H 0.78051 0.25955 0.14569 0.0
H627 H 0.78174 0.28687 0.16569 0.0
H628 H 0.78214 0.2531 0.19778 0.0
H629 H 0.72097 0.19144 0.20849 0.0
H630 H 0.1489 0.64114 0.10257 0.0
H631 H 0.15984 0.64393 0.0645 0.0
H632 H 0.13048 0.53844 0.06702 0.0
H633 H 0.12042 0.53589 0.10481 0.0
H634 H 0.20116 0.58678 0.04253 0.0
H635 H 1.0618 0.58621 0.02122 0.0
H636 H 0.10247 0.62251 0.03816 0.0
H637 H 1.07021 0.57635 0.04745 0.0
C638 C 0.14479 0.61862 0.09492 0.0
C639 C 0.13353 0.58821 0.10656 0.0
C640 C 0.15093 0.62018 0.07321 0.0
C641 C 0.14547 0.59118 0.06288 0.0
C642 C 0.13489 0.56112 0.07464 0.0
H643 H 1.0723 0.51109 0.93854 0.0
H644 H 0.08165 0.5248 0.97596 0.0
C645 C 0.12895 0.55964 0.09623 0.0
C646 C 0.14947 0.59115 0.03978 0.0
H647 H 0.10088 0.58684 0.99349 0.0
C648 C 0.17957 0.58717 0.03175 0.0
C649 C 0.12098 0.59135 0.0258 0.0
C650 C 0.08677 0.59403 0.03351 0.0
C651 C 0.18106 0.58229 0.01018 0.0
C652 C 0.15217 0.582 0.99626 0.0
C653 C 0.12309 0.58718 0.00422 0.0
C654 C 0.14857 0.57313 0.97367 0.0
C655 C 0.21207 0.57576 0.0026 0.0
C656 C 0.18338 0.59544 0.95995 0.0
C657 C 0.17815 0.58747 0.93845 0.0
C658 C 0.13786 0.55738 0.93039 0.0
C659 C 0.10356 0.53469 0.94429 0.0
C660 C 0.10886 0.5425 0.96566 0.0
H661 H 0.22583 0.56964 0.01574 0.0
H662 H 0.19553 0.55286 0.99129 0.0
H663 H 0.2394 0.60048 0.99441 0.0
H664 H 0.21414 0.6195 0.96575 0.0
H665 H 0.20498 0.60553 0.92804 0.0
H666 H 0.73144 0.08237 0.42201 0.0
H667 H 0.72519 0.08608 0.38398 0.0
H668 H 0.58726 0.02925 0.38935 0.0
H669 H 0.59352 0.02606 0.42756 0.0
H670 H 0.67628 0.02875 0.35637 0.0
H671 H 0.62496 0.11651 0.3528 0.0
H672 H 0.64737 0.11149 0.37636 0.0
H673 H 0.59179 0.07639 0.36875 0.0
C674 C 0.69985 0.07094 0.4151 0.0
C675 C 0.66296 0.05394 0.42768 0.0
C676 C 0.69631 0.07303 0.39338 0.0
C677 C 0.65585 0.05826 0.38384 0.0
C678 C 0.61892 0.04143 0.39641 0.0
H679 H 0.59147 0.04698 0.24987 0.0
H680 H 0.58583 0.03727 0.28802 0.0
C681 C 0.62249 0.03945 0.4182 0.0
C682 C 0.65248 0.05937 0.36067 0.0
H683 H 0.62773 0.09358 0.32059 0.0
C684 C 0.66558 0.04287 0.34856 0.0
C685 C 0.63825 0.07761 0.35051 0.0
C686 C 0.6251 0.09679 0.36272 0.0
C687 C 0.66533 0.04447 0.32657 0.0
C688 C 0.65209 0.06341 0.31644 0.0
C689 C 0.63785 0.07908 0.32847 0.0
C690 C 0.65516 0.06892 0.29342 0.0
C691 C 0.67931 0.02594 0.31432 0.0
C692 C 0.696 0.09016 0.28395 0.0
C693 C 0.69932 0.09577 0.26227 0.0
C694 C 0.66183 0.08025 0.24964 0.0
C695 C 0.62089 0.05899 0.25919 0.0
C696 C 0.61761 0.05358 0.28094 0.0
H697 H 0.67793 1.00521 0.32394 0.0
H698 H 0.65853 1.01263 0.30008 0.0
H699 H 0.71334 0.04657 0.30923 0.0
H700 H 0.72537 0.10256 0.29336 0.0
H701 H 0.73127 0.11197 0.25537 0.0
H702 H 0.69626 0.56293 0.79561 0.0
H703 H 0.71213 0.57646 0.7581 0.0
H704 H 0.57492 0.50212 0.74334 0.0
H705 H 0.55899 0.48826 0.78062 0.0
H706 H 0.62481 0.49046 0.71991 0.0
H707 H 0.69298 0.63594 0.71838 0.0
H708 H 0.71778 0.62421 0.73702 0.0
H709 H 0.6622 0.60621 0.74018 0.0
C710 C 0.66954 0.54988 0.78434 0.0
C711 C 0.6264 0.52452 0.79095 0.0
C712 C 0.67862 0.55768 0.76295 0.0
C713 C 0.64466 0.54041 0.74796 0.0
C714 C 0.60159 0.51569 0.75465 0.0
H715 H 0.62668 0.58146 0.61863 0.0
H716 H 0.62452 0.57486 0.65674 0.0
C717 C 0.59253 0.50786 0.77594 0.0
C718 C 0.65359 0.54664 0.72518 0.0
H719 H 0.69249 0.61062 0.68648 0.0
C720 C 0.63985 0.51677 0.71259 0.0
C721 C 0.67299 0.58096 0.71572 0.0
C722 C 0.68709 0.61368 0.72843 0.0
C723 C 0.64424 0.5201 0.69071 0.0
C724 C 0.66356 0.55439 0.68122 0.0
C725 C 0.67796 0.58442 0.69384 0.0
C726 C 0.66628 0.55909 0.6581 0.0
C727 C 0.62668 0.4866 0.67788 0.0
C728 C 0.69073 0.55261 0.64621 0.0
C729 C 0.69205 0.55637 0.62434 0.0
C730 C 0.66927 0.56704 0.61404 0.0
C731 C 0.6451 0.57372 0.62608 0.0
C732 C 0.64373 0.56988 0.64787 0.0
H733 H 0.60471 0.46121 0.68711 0.0
H734 H 0.60862 0.48547 0.6638 0.0
H735 H 0.65417 0.48753 0.67248 0.0
H736 H 0.70893 0.54481 0.65384 0.0
H737 H 0.71138 0.55147 0.61552 0.0
H738 H 0.55645 0.016 0.54945 0.0
H739 H 0.56591 0.0144 0.5875 0.0
H740 H 0.70426 0.07663 0.57989 0.0
H741 H 0.69501 0.07827 0.54179 0.0
H742 H 0.60911 0.98784 0.60992 0.0
H743 H 0.68645 0.13377 0.62354 0.0
H744 H 0.65427 0.1098 0.60029 0.0
H745 H 0.70844 0.12377 0.60295 0.0
C746 C 0.58884 0.02927 0.55591 0.0
C747 C 0.62502 0.04737 0.54276 0.0
C748 C 0.59418 0.0283 0.57759 0.0
C749 C 0.63579 0.04573 0.58644 0.0
C750 C 0.67195 0.06339 0.57332 0.0
H751 H 0.7057 0.02844 0.7138 0.0
H752 H 0.70103 0.03229 0.67565 0.0
C753 C 0.6666 0.06417 0.55161 0.0
C754 C 0.64123 0.04534 0.60944 0.0
H755 H 0.68042 0.09944 0.6529 0.0
C756 C 0.62479 1.0122 0.61934 0.0
C757 C 0.66138 0.07719 0.62161 0.0
C758 C 0.67847 0.1132 0.61168 0.0
C759 C 0.62828 1.01013 0.64118 0.0
C760 C 0.6488 0.04203 0.65333 0.0
C761 C 0.66495 0.07513 0.64346 0.0
C762 C 0.65297 0.04127 0.67639 0.0
C763 C 0.60947 0.9738 0.65121 0.0
C764 C 0.62808 0.04577 0.68937 0.0
C765 C 0.63027 0.0432 0.71116 0.0
C766 C 0.65771 0.03636 0.72037 0.0
C767 C 0.68359 0.03299 0.70724 0.0
C768 C 0.68115 0.03534 0.68546 0.0
H769 H 0.58847 0.9509 0.6401 0.0
H770 H 0.63636 0.97339 0.65665 0.0
H771 H 0.59008 0.96942 0.66512 0.0
H772 H 0.60616 0.05039 0.68259 0.0
H773 H 0.60955 0.04554 0.72075 0.0
H774 H 0.57231 0.49496 0.90609 0.0
H775 H 0.55655 0.46628 0.94067 0.0
H776 H 0.69065 0.50911 0.94778 0.0
H777 H 0.70697 0.53989 0.91377 0.0
H778 H 0.55798 0.41648 0.95598 0.0
H779 H 0.67778 0.54068 0.00191 0.0
H780 H 0.66622 0.54251 0.97463 0.0
H781 H 0.70371 0.53363 0.98211 0.0
C782 C 0.59845 0.4985 0.91519 0.0
C783 C 0.64095 0.52 0.90752 0.0
C784 C 0.58943 0.48201 0.9349 0.0
C785 C 0.62258 0.48613 0.94715 0.0
C786 C 0.66482 0.5066 0.93907 0.0
H787 H 0.56028 0.34178 0.05386 0.0
H788 H 0.57711 0.36952 0.01915 0.0
C789 C 0.67409 0.52395 0.91958 0.0
C790 C 0.61252 0.46846 0.96815 0.0
H791 H 0.64507 0.4843 0.01959 0.0
C792 C 0.57686 0.43142 0.96992 0.0
C793 C 0.63663 0.48796 0.98647 0.0
C794 C 0.67288 0.52845 0.98624 0.0
C795 C 0.56461 0.4134 0.98938 0.0
C796 C 0.59002 0.43246 0.00751 0.0
C797 C 0.62574 0.46948 0.00572 0.0
C798 C 0.57964 0.41515 0.02864 0.0
C799 C 0.52367 0.37452 0.99029 0.0
C800 C 0.57713 0.43215 0.04584 0.0
C801 C 0.56952 0.41725 0.06594 0.0
C802 C 0.56327 0.38442 0.06938 0.0
C803 C 0.56529 0.36721 0.05203 0.0
C804 C 0.5741 0.38271 0.03198 0.0
H805 H 0.50102 0.36831 0.97707 0.0
H806 H 0.53225 0.35596 0.98899 0.0
H807 H 0.50633 0.36866 0.00523 0.0
H808 H 0.58157 0.45733 0.04378 0.0
H809 H 0.56959 0.43213 0.07881 0.0
H810 H 0.17444 0.60188 0.21869 0.0
H811 H 0.17049 0.59794 0.25695 0.0
H812 H 0.16335 0.50196 0.25531 0.0
H813 H 0.16416 0.50442 0.21693 0.0
H814 H 0.1068 0.49179 0.2814 0.0
H815 H 0.26304 0.6261 0.29884 0.0
H816 H 0.22806 0.63037 0.28287 0.0
H817 H 0.24792 0.60732 0.27274 0.0
C818 C 0.17143 0.57969 0.2265 0.0
C819 C 0.1689 0.55313 0.21487 0.0
C820 C 0.17001 0.57783 0.2484 0.0
C821 C 0.16746 0.55004 0.2591 0.0
C822 C 0.16545 0.52373 0.24744 0.0
H823 H 0.20887 0.55125 0.39435 0.0
H824 H 0.2167 0.55631 0.3561 0.0
C825 C 0.16606 0.52521 0.22553 0.0
C826 C 0.16502 0.54743 0.28237 0.0
H827 H 0.21403 0.5958 0.32747 0.0
C828 C 0.13048 0.51447 0.29146 0.0
C829 C 0.1963 0.57678 0.29557 0.0
C830 C 0.23615 0.61197 0.287 0.0
C831 C 0.1259 0.5102 0.3133 0.0
C832 C 0.15573 0.54021 0.32646 0.0
C833 C 0.19076 0.57296 0.3174 0.0
C834 C 0.15136 0.53809 0.34963 0.0
C835 C 0.08965 0.47327 0.32197 0.0
C836 C 0.11246 0.527 0.35875 0.0
C837 C 0.10777 0.52352 0.38051 0.0
C838 C 0.14229 0.53201 0.39358 0.0
C839 C 0.18183 0.54459 0.38456 0.0
C840 C 0.18626 0.54743 0.36275 0.0
H841 H 1.07941 0.45126 0.31071 0.0
H842 H 0.0995 0.46766 0.33699 0.0
H843 H 1.06097 0.47222 0.32483 0.0
H844 H 0.0856 0.52086 0.34905 0.0
H845 H 1.07718 0.51429 0.38715 0.0
loop_
_geom_bond_atom_site_label_1
_geom_bond_atom_site_label_2
_geom_bond_distance
_geom_bond_site_symmetry_2
_ccdc_geom_bond_type
La0 C2 2.928 . S
La0 O20 2.521 . S
La0 O21 2.628 . S
La0 O22 2.554 . S
La0 O23 2.757 1_455 S
La0 O24 2.470 . S
La0 O29 2.482 . S
La0 O31 2.503 1_455 S
La1 C11 2.928 . S
La1 O23 2.482 . S
La1 O25 2.503 1_655 S
La1 O26 2.521 . S
La1 O27 2.628 . S
La1 O28 2.554 . S
La1 O29 2.757 1_655 S
La1 O30 2.470 . S
C2 La0 2.928 . S
C2 C3 1.503 . S
C2 O20 1.261 . S
C2 O21 1.243 . S
C3 C2 1.503 . S
C3 C4 1.394 . S
C3 C8 1.373 . S
C4 C3 1.394 . S
C4 C5 1.380 . S
C4 H32 0.930 . S
C5 C4 1.380 . S
C5 C6 1.376 . S
C5 H33 0.930 . S
C6 C5 1.376 . S
C6 C7 1.370 . S
C7 C6 1.370 . S
C7 C8 1.396 . S
C7 H34 0.929 . S
C8 C3 1.373 . S
C8 C7 1.396 . S
C8 H35 0.929 . S
C9 O22 1.240 . S
C9 O23 1.289 1_455 S
C10 O24 1.258 . S
C10 O25 1.256 . S
C11 La1 2.928 . S
C11 C12 1.503 . S
C11 O26 1.261 . S
C11 O27 1.243 . S
C12 C11 1.503 . S
C12 C13 1.394 . S
C12 C17 1.373 . S
C13 C12 1.394 . S
C13 C14 1.380 . S
C13 H36 0.930 . S
C14 C13 1.380 . S
C14 C15 1.376 . S
C14 H37 0.930 . S
C15 C14 1.376 . S
C15 C16 1.370 . S
C16 C15 1.370 . S
C16 C17 1.396 . S
C16 H38 0.929 . S
C17 C12 1.373 . S
C17 C16 1.396 . S
C17 H39 0.929 . S
C18 O28 1.240 1_455 S
C18 O29 1.289 . S
C19 O30 1.258 . S
C19 O31 1.256 . S
O20 La0 2.521 . S
O20 C2 1.261 . S
O21 La0 2.628 . S
O21 C2 1.243 . S
O22 La0 2.554 . S
O22 C9 1.240 . S
O23 La0 2.757 1_655 S
O23 La1 2.482 . S
O23 C9 1.289 1_655 S
O24 La0 2.470 . S
O24 C10 1.258 . S
O25 La1 2.503 1_455 S
O25 C10 1.256 . S
O26 La1 2.521 . S
O26 C11 1.261 . S
O27 La1 2.628 . S
O27 C11 1.243 . S
O28 La1 2.554 . S
O28 C18 1.240 1_655 S
O29 La0 2.482 . S
O29 La1 2.757 1_455 S
O29 C18 1.289 . S
O30 La1 2.470 . S
O30 C19 1.258 . S
O31 La0 2.503 1_655 S
O31 C19 1.256 . S
H32 C4 0.930 . S
H33 C5 0.930 . S
H34 C7 0.929 . S
H35 C8 0.929 . S
H36 C13 0.930 . S
H37 C14 0.930 . S
H38 C16 0.929 . S
H39 C17 0.929 . S
La40 C42 2.928 1_545 S
La40 O60 2.521 1_545 S
La40 O61 2.628 1_545 S
La40 O62 2.554 . S
La40 O63 2.757 . S
La40 O64 2.470 1_545 S
La40 O69 2.482 . S
La40 O71 2.503 . S
La41 C51 2.928 . S
La41 O63 2.482 . S
La41 O65 2.503 1_545 S
La41 O66 2.521 . S
La41 O67 2.628 . S
La41 O68 2.554 . S
La41 O69 2.757 . S
La41 O70 2.470 . S
C42 La40 2.928 1_565 S
C42 C43 1.503 . S
C42 O60 1.261 . S
C42 O61 1.243 . S
C43 C42 1.503 . S
C43 C44 1.394 . S
C43 C48 1.373 . S
C44 C43 1.394 . S
C44 C45 1.380 . S
C44 H72 0.930 . S
C45 C44 1.380 . S
C45 C46 1.376 . S
C45 H73 0.930 . S
C46 C45 1.376 . S
C46 C47 1.370 . S
C47 C46 1.370 . S
C47 C48 1.396 . S
C47 H74 0.929 . S
C48 C43 1.373 . S
C48 C47 1.396 . S
C48 H75 0.929 . S
C49 O62 1.240 . S
C49 O63 1.289 . S
C50 O64 1.258 . S
C50 O65 1.256 . S
C51 La41 2.928 . S
C51 C52 1.503 . S
C51 O66 1.261 . S
C51 O67 1.243 . S
C52 C51 1.503 . S
C52 C53 1.394 . S
C52 C57 1.373 . S
C53 C52 1.394 . S
C53 C54 1.380 . S
C53 H76 0.930 . S
C54 C53 1.380 . S
C54 C55 1.376 . S
C54 H77 0.930 . S
C55 C54 1.376 . S
C55 C56 1.370 . S
C56 C55 1.370 . S
C56 C57 1.396 . S
C56 H78 0.929 . S
C57 C52 1.373 . S
C57 C56 1.396 . S
C57 H79 0.929 . S
C58 O68 1.240 . S
C58 O69 1.289 . S
C59 O70 1.258 . S
C59 O71 1.256 . S
O60 La40 2.521 1_565 S
O60 C42 1.261 . S
O61 La40 2.628 1_565 S
O61 C42 1.243 . S
O62 La40 2.554 . S
O62 C49 1.240 . S
O63 La40 2.757 . S
O63 La41 2.482 . S
O63 C49 1.289 . S
O64 La40 2.470 1_565 S
O64 C50 1.258 . S
O65 La41 2.503 1_565 S
O65 C50 1.256 . S
O66 La41 2.521 . S
O66 C51 1.261 . S
O67 La41 2.628 . S
O67 C51 1.243 . S
O68 La41 2.554 . S
O68 C58 1.240 . S
O69 La40 2.482 . S
O69 La41 2.757 . S
O69 C58 1.289 . S
O70 La41 2.470 . S
O70 C59 1.258 . S
O71 La40 2.503 . S
O71 C59 1.256 . S
H72 C44 0.930 . S
H73 C45 0.930 . S
H74 C47 0.929 . S
H75 C48 0.929 . S
H76 C53 0.930 . S
H77 C54 0.930 . S
H78 C56 0.929 . S
H79 C57 0.929 . S
La80 C82 2.928 . S
La80 O100 2.521 . S
La80 O101 2.628 . S
La80 O102 2.554 . S
La80 O103 2.757 . S
La80 O104 2.470 . S
La80 O109 2.482 . S
La80 O111 2.503 . S
La81 C91 2.928 . S
La81 O103 2.482 . S
La81 O105 2.503 . S
La81 O106 2.521 . S
La81 O107 2.628 . S
La81 O108 2.554 . S
La81 O109 2.757 . S
La81 O110 2.470 . S
C82 La80 2.928 . S
C82 C83 1.503 . S
C82 O100 1.261 . S
C82 O101 1.243 . S
C83 C82 1.503 . S
C83 C84 1.394 . S
C83 C88 1.373 . S
C84 C83 1.394 . S
C84 C85 1.380 . S
C84 H112 0.930 . S
C85 C84 1.380 . S
C85 C86 1.376 . S
C85 H113 0.930 . S
C86 C85 1.376 . S
C86 C87 1.370 . S
C87 C86 1.370 . S
C87 C88 1.396 . S
C87 H114 0.929 . S
C88 C83 1.373 . S
C88 C87 1.396 . S
C88 H115 0.929 . S
C89 O102 1.240 . S
C89 O103 1.289 . S
C90 O104 1.258 . S
C90 O105 1.256 . S
C91 La81 2.928 . S
C91 C92 1.503 . S
C91 O106 1.261 . S
C91 O107 1.243 . S
C92 C91 1.503 . S
C92 C93 1.394 . S
C92 C97 1.373 . S
C93 C92 1.394 . S
C93 C94 1.380 . S
C93 H116 0.930 . S
C94 C93 1.380 . S
C94 C95 1.376 . S
C94 H117 0.930 . S
C95 C94 1.376 . S
C95 C96 1.370 . S
C96 C95 1.370 . S
C96 C97 1.396 . S
C96 H118 0.929 . S
C97 C92 1.373 . S
C97 C96 1.396 . S
C97 H119 0.929 . S
C98 O108 1.240 . S
C98 O109 1.289 . S
C99 O110 1.258 . S
C99 O111 1.256 . S
O100 La80 2.521 . S
O100 C82 1.261 . S
O101 La80 2.628 . S
O101 C82 1.243 . S
O102 La80 2.554 . S
O102 C89 1.240 . S
O103 La80 2.757 . S
O103 La81 2.482 . S
O103 C89 1.289 . S
O104 La80 2.470 . S
O104 C90 1.258 . S
O105 La81 2.503 . S
O105 C90 1.256 . S
O106 La81 2.521 . S
O106 C91 1.261 . S
O107 La81 2.628 . S
O107 C91 1.243 . S
O108 La81 2.554 . S
O108 C98 1.240 . S
O109 La80 2.482 . S
O109 La81 2.757 . S
O109 C98 1.289 . S
O110 La81 2.470 . S
O110 C99 1.258 . S
O111 La80 2.503 . S
O111 C99 1.256 . S
H112 C84 0.930 . S
H113 C85 0.930 . S
H114 C87 0.929 . S
H115 C88 0.929 . S
H116 C93 0.930 . S
H117 C94 0.930 . S
H118 C96 0.929 . S
H119 C97 0.929 . S
H120 C127 0.929 . S
H121 C130 0.930 . S
H122 C132 0.929 . S
H123 C124 0.969 . S
C124 H123 0.969 . S
C124 O125 1.550 . S
C124 H126 0.973 . S
O125 C124 1.550 . S
O125 C131 1.412 . S
H126 C124 0.973 . S
C127 H120 0.929 . S
C127 C128 1.400 . S
C127 C129 1.364 . S
C128 C127 1.400 . S
C128 C132 1.377 . S
C129 C127 1.364 . S
C129 C130 1.374 1_545 S
C130 H121 0.930 . S
C130 C129 1.374 1_565 S
C130 C131 1.383 . S
C131 O125 1.412 . S
C131 C130 1.383 . S
C131 C132 1.394 1_565 S
C132 H122 0.929 . S
C132 C128 1.377 . S
C132 C131 1.394 1_545 S
H133 C140 0.929 . S
H134 C143 0.930 . S
H135 C145 0.929 . S
H136 C137 0.969 . S
C137 H136 0.969 . S
C137 O138 1.550 . S
C137 H139 0.973 . S
O138 C137 1.550 . S
O138 C144 1.412 . S
H139 C137 0.973 . S
C140 H133 0.929 . S
C140 C141 1.400 . S
C140 C142 1.364 . S
C141 C140 1.400 . S
C141 C145 1.377 . S
C142 C140 1.364 . S
C142 C143 1.374 . S
C143 H134 0.930 . S
C143 C142 1.374 . S
C143 C144 1.383 . S
C144 O138 1.412 . S
C144 C143 1.383 . S
C144 C145 1.394 . S
C145 H135 0.929 . S
C145 C141 1.377 . S
C145 C144 1.394 . S
H146 C153 0.929 . S
H147 C156 0.930 . S
H148 C158 0.929 . S
H149 C150 0.969 . S
C150 H149 0.969 . S
C150 O151 1.550 . S
C150 H152 0.973 . S
O151 C150 1.550 . S
O151 C157 1.412 . S
H152 C150 0.973 . S
C153 H146 0.929 . S
C153 C154 1.400 . S
C153 C155 1.364 . S
C154 C153 1.400 . S
C154 C158 1.377 . S
C155 C153 1.364 . S
C155 C156 1.374 . S
C156 H147 0.930 . S
C156 C155 1.374 . S
C156 C157 1.383 . S
C157 O151 1.412 . S
C157 C156 1.383 . S
C157 C158 1.394 . S
C158 H148 0.929 . S
C158 C154 1.377 . S
C158 C157 1.394 . S
H159 C166 0.929 1_655 S
H160 C169 0.930 . S
H161 C171 0.929 . S
H162 C163 0.969 . S
C163 H162 0.969 . S
C163 O164 1.550 . S
C163 H165 0.973 . S
O164 C163 1.550 . S
O164 C170 1.412 . S
H165 C163 0.973 . S
C166 H159 0.929 1_455 S
C166 C167 1.400 . S
C166 C168 1.364 . S
C167 C166 1.400 . S
C167 C171 1.380 . S
C168 C166 1.364 . S
C168 C169 1.374 . S
C169 H160 0.930 . S
C169 C168 1.374 . S
C169 C170 1.383 . S
C170 O164 1.412 . S
C170 C169 1.383 . S
C170 C171 1.394 . S
C171 H161 0.929 . S
C171 C167 1.380 . S
C171 C170 1.394 . S
H172 C179 0.929 . S
H173 C182 0.930 . S
H174 C184 0.929 . S
H175 C176 0.969 . S
C176 H175 0.969 . S
C176 O177 1.550 . S
C176 H178 0.973 . S
O177 C176 1.550 . S
O177 C183 1.412 . S
H178 C176 0.973 . S
C179 H172 0.929 . S
C179 C180 1.400 . S
C179 C181 1.364 1_565 S
C180 C179 1.400 . S
C180 C184 1.377 1_565 S
C181 C179 1.364 1_545 S
C181 C182 1.374 . S
C182 H173 0.930 . S
C182 C181 1.374 . S
C182 C183 1.383 . S
C183 O177 1.412 . S
C183 C182 1.383 . S
C183 C184 1.394 . S
C184 H174 0.929 . S
C184 C180 1.377 1_545 S
C184 C183 1.394 . S
H185 C192 0.929 . S
H186 C195 0.930 . S
H187 C197 0.929 . S
H188 C189 0.969 . S
C189 H188 0.969 . S
C189 O190 1.550 . S
C189 H191 0.973 . S
O190 C189 1.550 . S
O190 C196 1.412 . S
H191 C189 0.973 . S
C192 H185 0.929 . S
C192 C193 1.400 . S
C192 C194 1.364 . S
C193 C192 1.400 . S
C193 C197 1.377 . S
C194 C192 1.364 . S
C194 C195 1.374 . S
C195 H186 0.930 . S
C195 C194 1.374 . S
C195 C196 1.383 . S
C196 O190 1.412 . S
C196 C195 1.383 . S
C196 C197 1.394 . S
C197 H187 0.929 . S
C197 C193 1.377 . S
C197 C196 1.394 . S
H198 C206 0.929 . S
H199 C208 0.930 . S
H200 C210 0.930 . S
H201 C213 0.929 . S
H202 C216 0.930 . S
H203 C218 0.960 . S
H204 C218 0.960 . S
H205 C218 0.960 . S
C206 H198 0.929 . S
C206 C207 1.377 . S
C206 C208 1.384 . S
C207 C206 1.377 . S
C207 C213 1.390 . S
C208 H199 0.930 . S
C208 C206 1.384 . S
C208 C209 1.372 . S
C209 C208 1.372 . S
C209 C210 1.400 . S
C209 C214 1.490 . S
C210 H200 0.930 . S
C210 C209 1.400 . S
C210 C213 1.386 . S
H211 C227 0.930 . S
H212 C228 0.931 . S
C213 H201 0.929 . S
C213 C207 1.390 . S
C213 C210 1.386 . S
C214 C209 1.490 . S
C214 C216 1.395 . S
C214 C217 1.403 . S
H215 C221 0.930 . S
C216 H202 0.930 . S
C216 C214 1.395 . S
C216 C219 1.403 . S
C217 C214 1.403 . S
C217 C218 1.524 . S
C217 C221 1.400 . S
C218 H203 0.960 . S
C218 H204 0.960 . S
C218 H205 0.960 . S
C218 C217 1.524 . S
C219 C216 1.403 . S
C219 C220 1.392 . S
C219 C223 1.495 . S
C220 C219 1.392 . S
C220 C221 1.385 . S
C220 C222 1.478 . S
C221 H215 0.930 . S
C221 C217 1.400 . S
C221 C220 1.385 . S
C222 C220 1.478 . S
C222 C224 1.381 . S
C222 C228 1.383 . S
C223 C219 1.495 . S
C223 H229 0.959 . S
C223 H230 0.961 . S
C223 H231 0.960 . S
C224 C222 1.381 . S
C224 C225 1.394 . S
C224 H232 0.930 . S
C225 C224 1.394 . S
C225 C226 1.383 . S
C225 H233 0.929 . S
C226 C225 1.383 . S
C226 C227 1.377 . S
C227 H211 0.930 . S
C227 C226 1.377 . S
C227 C228 1.379 . S
C228 H212 0.931 . S
C228 C222 1.383 . S
C228 C227 1.379 . S
H229 C223 0.959 . S
H230 C223 0.961 . S
H231 C223 0.960 . S
H232 C224 0.930 . S
H233 C225 0.929 . S
H234 C242 0.929 . S
H235 C244 0.930 . S
H236 C246 0.930 . S
H237 C249 0.929 . S
H238 C252 0.930 . S
H239 C254 0.960 . S
H240 C254 0.960 . S
H241 C254 0.960 . S
C242 H234 0.929 . S
C242 C243 1.377 . S
C242 C244 1.384 . S
C243 C242 1.377 . S
C243 C249 1.390 . S
C244 H235 0.930 . S
C244 C242 1.384 . S
C244 C245 1.372 . S
C245 C244 1.372 . S
C245 C246 1.400 . S
C245 C250 1.490 . S
C246 H236 0.930 . S
C246 C245 1.400 . S
C246 C249 1.386 . S
H247 C263 0.930 . S
H248 C264 0.931 . S
C249 H237 0.929 . S
C249 C243 1.390 . S
C249 C246 1.386 . S
C250 C245 1.490 . S
C250 C252 1.395 . S
C250 C253 1.403 . S
H251 C257 0.930 . S
C252 H238 0.930 . S
C252 C250 1.395 . S
C252 C255 1.403 . S
C253 C250 1.403 . S
C253 C254 1.524 . S
C253 C257 1.400 . S
C254 H239 0.960 . S
C254 H240 0.960 . S
C254 H241 0.960 . S
C254 C253 1.524 . S
C255 C252 1.403 . S
C255 C256 1.392 . S
C255 C259 1.495 . S
C256 C255 1.392 . S
C256 C257 1.385 . S
C256 C258 1.478 . S
C257 H251 0.930 . S
C257 C253 1.400 . S
C257 C256 1.385 . S
C258 C256 1.478 . S
C258 C260 1.381 . S
C258 C264 1.383 . S
C259 C255 1.495 . S
C259 H265 0.959 . S
C259 H266 0.961 . S
C259 H267 0.960 . S
C260 C258 1.381 . S
C260 C261 1.394 . S
C260 H268 0.930 . S
C261 C260 1.394 . S
C261 C262 1.383 . S
C261 H269 0.929 . S
C262 C261 1.383 . S
C262 C263 1.377 . S
C263 H247 0.930 . S
C263 C262 1.377 . S
C263 C264 1.379 . S
C264 H248 0.931 . S
C264 C258 1.383 . S
C264 C263 1.379 . S
H265 C259 0.959 . S
H266 C259 0.961 . S
H267 C259 0.960 . S
H268 C260 0.930 . S
H269 C261 0.929 . S
H270 C278 0.929 . S
H271 C280 0.930 . S
H272 C282 0.930 . S
H273 C285 0.929 . S
H274 C288 0.930 . S
H275 C290 0.960 . S
H276 C290 0.960 . S
H277 C290 0.960 . S
C278 H270 0.929 . S
C278 C279 1.377 . S
C278 C280 1.384 . S
C279 C278 1.377 . S
C279 C285 1.390 . S
C280 H271 0.930 . S
C280 C278 1.384 . S
C280 C281 1.372 . S
C281 C280 1.372 . S
C281 C282 1.400 . S
C281 C286 1.490 . S
C282 H272 0.930 . S
C282 C281 1.400 . S
C282 C285 1.386 . S
H283 C299 0.930 . S
H284 C300 0.931 . S
C285 H273 0.929 . S
C285 C279 1.390 . S
C285 C282 1.386 . S
C286 C281 1.490 . S
C286 C288 1.395 . S
C286 C289 1.403 . S
H287 C293 0.930 . S
C288 H274 0.930 . S
C288 C286 1.395 . S
C288 C291 1.403 . S
C289 C286 1.403 . S
C289 C290 1.524 . S
C289 C293 1.400 . S
C290 H275 0.960 . S
C290 H276 0.960 . S
C290 H277 0.960 . S
C290 C289 1.524 . S
C291 C288 1.403 . S
C291 C292 1.392 . S
C291 C295 1.495 . S
C292 C291 1.392 . S
C292 C293 1.385 . S
C292 C294 1.478 . S
C293 H287 0.930 . S
C293 C289 1.400 . S
C293 C292 1.385 . S
C294 C292 1.478 . S
C294 C296 1.381 . S
C294 C300 1.383 . S
C295 C291 1.495 . S
C295 H301 0.959 . S
C295 H302 0.961 . S
C295 H303 0.960 . S
C296 C294 1.381 . S
C296 C297 1.394 . S
C296 H304 0.930 . S
C297 C296 1.394 . S
C297 C298 1.383 . S
C297 H305 0.929 1_565 S
C298 C297 1.383 . S
C298 C299 1.377 . S
C299 H283 0.930 . S
C299 C298 1.377 . S
C299 C300 1.379 . S
C300 H284 0.931 . S
C300 C294 1.383 . S
C300 C299 1.379 . S
H301 C295 0.959 . S
H302 C295 0.961 . S
H303 C295 0.960 . S
H304 C296 0.930 . S
H305 C297 0.929 1_545 S
H306 C314 0.929 . S
H307 C316 0.930 . S
H308 C318 0.930 . S
H309 C321 0.929 . S
H310 C324 0.930 . S
H311 C326 0.960 . S
H312 C326 0.960 . S
H313 C326 0.960 . S
C314 H306 0.929 . S
C314 C315 1.377 . S
C314 C316 1.384 . S
C315 C314 1.377 . S
C315 C321 1.390 . S
C316 H307 0.930 . S
C316 C314 1.384 . S
C316 C317 1.372 . S
C317 C316 1.372 . S
C317 C318 1.400 . S
C317 C322 1.490 . S
C318 H308 0.930 . S
C318 C317 1.400 . S
C318 C321 1.386 . S
H319 C335 0.930 . S
H320 C336 0.931 . S
C321 H309 0.929 . S
C321 C315 1.390 . S
C321 C318 1.386 . S
C322 C317 1.490 . S
C322 C324 1.395 . S
C322 C325 1.403 . S
H323 C329 0.930 . S
C324 H310 0.930 . S
C324 C322 1.395 . S
C324 C327 1.403 . S
C325 C322 1.403 . S
C325 C326 1.524 . S
C325 C329 1.400 . S
C326 H311 0.960 . S
C326 H312 0.960 . S
C326 H313 0.960 . S
C326 C325 1.524 . S
C327 C324 1.403 . S
C327 C328 1.392 . S
C327 C331 1.495 . S
C328 C327 1.392 . S
C328 C329 1.385 . S
C328 C330 1.478 . S
C329 H323 0.930 . S
C329 C325 1.400 . S
C329 C328 1.385 . S
C330 C328 1.478 . S
C330 C332 1.381 . S
C330 C336 1.383 . S
C331 C327 1.495 . S
C331 H337 0.959 . S
C331 H338 0.961 . S
C331 H339 0.960 . S
C332 C330 1.381 . S
C332 C333 1.394 . S
C332 H340 0.930 . S
C333 C332 1.394 . S
C333 C334 1.383 . S
C333 H341 0.929 . S
C334 C333 1.383 . S
C334 C335 1.377 . S
C335 H319 0.930 . S
C335 C334 1.377 . S
C335 C336 1.379 . S
C336 H320 0.931 . S
C336 C330 1.383 . S
C336 C335 1.379 . S
H337 C331 0.959 . S
H338 C331 0.961 . S
H339 C331 0.960 . S
H340 C332 0.930 . S
H341 C333 0.929 . S
H342 C350 0.929 . S
H343 C352 0.930 . S
H344 C354 0.930 . S
H345 C357 0.929 . S
H346 C360 0.930 . S
H347 C362 0.960 . S
H348 C362 0.960 . S
H349 C362 0.960 . S
C350 H342 0.929 . S
C350 C351 1.377 . S
C350 C352 1.384 . S
C351 C350 1.377 . S
C351 C357 1.390 . S
C352 H343 0.930 . S
C352 C350 1.384 . S
C352 C353 1.372 . S
C353 C352 1.372 . S
C353 C354 1.400 . S
C353 C358 1.490 . S
C354 H344 0.930 . S
C354 C353 1.400 . S
C354 C357 1.386 . S
H355 C371 0.930 . S
H356 C372 0.931 . S
C357 H345 0.929 . S
C357 C351 1.390 . S
C357 C354 1.386 . S
C358 C353 1.490 . S
C358 C360 1.395 . S
C358 C361 1.403 . S
H359 C365 0.930 . S
C360 H346 0.930 . S
C360 C358 1.395 . S
C360 C363 1.403 . S
C361 C358 1.403 . S
C361 C362 1.524 . S
C361 C365 1.400 . S
C362 H347 0.960 . S
C362 H348 0.960 . S
C362 H349 0.960 . S
C362 C361 1.524 . S
C363 C360 1.403 . S
C363 C364 1.392 . S
C363 C367 1.495 . S
C364 C363 1.392 . S
C364 C365 1.385 . S
C364 C366 1.478 . S
C365 H359 0.930 . S
C365 C361 1.400 . S
C365 C364 1.385 . S
C366 C364 1.478 . S
C366 C368 1.381 . S
C366 C372 1.383 . S
C367 C363 1.495 . S
C367 H373 0.959 . S
C367 H374 0.961 . S
C367 H375 0.960 . S
C368 C366 1.381 . S
C368 C369 1.394 . S
C368 H376 0.930 . S
C369 C368 1.394 . S
C369 C370 1.383 . S
C369 H377 0.929 . S
C370 C369 1.383 . S
C370 C371 1.377 . S
C371 H355 0.930 . S
C371 C370 1.377 . S
C371 C372 1.379 . S
C372 H356 0.931 . S
C372 C366 1.383 . S
C372 C371 1.379 . S
H373 C367 0.959 . S
H374 C367 0.961 . S
H375 C367 0.960 . S
H376 C368 0.930 . S
H377 C369 0.929 . S
H378 C386 0.929 . S
H379 C388 0.930 . S
H380 C390 0.930 . S
H381 C393 0.929 . S
H382 C396 0.930 . S
H383 C398 0.960 . S
H384 C398 0.960 . S
H385 C398 0.960 . S
C386 H378 0.929 . S
C386 C387 1.377 . S
C386 C388 1.384 . S
C387 C386 1.377 . S
C387 C393 1.390 . S
C388 H379 0.930 . S
C388 C386 1.384 . S
C388 C389 1.372 . S
C389 C388 1.372 . S
C389 C390 1.400 . S
C389 C394 1.490 . S
C390 H380 0.930 . S
C390 C389 1.400 . S
C390 C393 1.386 . S
H391 C407 0.930 . S
H392 C408 0.931 . S
C393 H381 0.929 . S
C393 C387 1.390 . S
C393 C390 1.386 . S
C394 C389 1.490 . S
C394 C396 1.395 . S
C394 C397 1.403 . S
H395 C401 0.930 . S
C396 H382 0.930 . S
C396 C394 1.395 . S
C396 C399 1.403 . S
C397 C394 1.403 . S
C397 C398 1.524 . S
C397 C401 1.400 . S
C398 H383 0.960 . S
C398 H384 0.960 . S
C398 H385 0.960 . S
C398 C397 1.524 . S
C399 C396 1.403 . S
C399 C400 1.392 . S
C399 C403 1.495 . S
C400 C399 1.392 . S
C400 C401 1.385 . S
C400 C402 1.478 . S
C401 H395 0.930 . S
C401 C397 1.400 . S
C401 C400 1.385 . S
C402 C400 1.478 . S
C402 C404 1.381 . S
C402 C408 1.383 . S
C403 C399 1.495 . S
C403 H409 0.959 . S
C403 H410 0.961 . S
C403 H411 0.960 . S
C404 C402 1.381 . S
C404 C405 1.394 . S
C404 H412 0.930 . S
C405 C404 1.394 . S
C405 C406 1.383 . S
C405 H413 0.929 . S
C406 C405 1.383 . S
C406 C407 1.377 . S
C407 H391 0.930 . S
C407 C406 1.377 . S
C407 C408 1.379 . S
C408 H392 0.931 . S
C408 C402 1.383 . S
C408 C407 1.379 . S
H409 C403 0.959 . S
H410 C403 0.961 . S
H411 C403 0.960 . S
H412 C404 0.930 . S
H413 C405 0.929 . S
H414 C422 0.929 . S
H415 C424 0.930 . S
H416 C426 0.930 . S
H417 C429 0.929 . S
H418 C432 0.930 . S
H419 C434 0.960 . S
H420 C434 0.960 . S
H421 C434 0.960 . S
C422 H414 0.929 . S
C422 C423 1.377 . S
C422 C424 1.384 . S
C423 C422 1.377 . S
C423 C429 1.390 . S
C424 H415 0.930 . S
C424 C422 1.384 . S
C424 C425 1.372 . S
C425 C424 1.372 . S
C425 C426 1.400 . S
C425 C430 1.490 . S
C426 H416 0.930 . S
C426 C425 1.400 . S
C426 C429 1.386 . S
H427 C443 0.930 . S
H428 C444 0.931 . S
C429 H417 0.929 . S
C429 C423 1.390 . S
C429 C426 1.386 . S
C430 C425 1.490 . S
C430 C432 1.395 . S
C430 C433 1.403 . S
H431 C437 0.930 . S
C432 H418 0.930 . S
C432 C430 1.395 . S
C432 C435 1.403 . S
C433 C430 1.403 . S
C433 C434 1.524 . S
C433 C437 1.400 . S
C434 H419 0.960 . S
C434 H420 0.960 . S
C434 H421 0.960 . S
C434 C433 1.524 . S
C435 C432 1.403 . S
C435 C436 1.392 . S
C435 C439 1.495 . S
C436 C435 1.392 . S
C436 C437 1.385 . S
C436 C438 1.478 . S
C437 H431 0.930 . S
C437 C433 1.400 . S
C437 C436 1.385 . S
C438 C436 1.478 . S
C438 C440 1.381 . S
C438 C444 1.383 . S
C439 C435 1.495 . S
C439 H445 0.959 . S
C439 H446 0.961 . S
C439 H447 0.960 . S
C440 C438 1.381 . S
C440 C441 1.394 . S
C440 H448 0.930 . S
C441 C440 1.394 . S
C441 C442 1.383 . S
C441 H449 0.929 . S
C442 C441 1.383 . S
C442 C443 1.377 . S
C443 H427 0.930 . S
C443 C442 1.377 . S
C443 C444 1.379 . S
C444 H428 0.931 . S
C444 C438 1.383 . S
C444 C443 1.379 . S
H445 C439 0.959 . S
H446 C439 0.961 . S
H447 C439 0.960 . S
H448 C440 0.930 . S
H449 C441 0.929 . S
H450 C458 0.929 . S
H451 C460 0.930 . S
H452 C462 0.930 . S
H453 C465 0.929 . S
H454 C468 0.930 . S
H455 C470 0.960 . S
H456 C470 0.960 . S
H457 C470 0.960 . S
C458 H450 0.929 . S
C458 C459 1.377 . S
C458 C460 1.384 . S
C459 C458 1.377 . S
C459 C465 1.390 . S
C460 H451 0.930 . S
C460 C458 1.384 . S
C460 C461 1.372 . S
C461 C460 1.372 . S
C461 C462 1.400 . S
C461 C466 1.490 . S
C462 H452 0.930 . S
C462 C461 1.400 . S
C462 C465 1.386 . S
H463 C479 0.930 . S
H464 C480 0.931 . S
C465 H453 0.929 . S
C465 C459 1.390 . S
C465 C462 1.386 . S
C466 C461 1.490 . S
C466 C468 1.395 . S
C466 C469 1.403 . S
H467 C473 0.930 . S
C468 H454 0.930 . S
C468 C466 1.395 . S
C468 C471 1.403 . S
C469 C466 1.403 . S
C469 C470 1.524 . S
C469 C473 1.400 . S
C470 H455 0.960 . S
C470 H456 0.960 . S
C470 H457 0.960 . S
C470 C469 1.524 . S
C471 C468 1.403 . S
C471 C472 1.392 . S
C471 C475 1.495 . S
C472 C471 1.392 . S
C472 C473 1.385 . S
C472 C474 1.478 . S
C473 H467 0.930 . S
C473 C469 1.400 . S
C473 C472 1.385 . S
C474 C472 1.478 . S
C474 C476 1.381 . S
C474 C480 1.383 . S
C475 C471 1.495 . S
C475 H481 0.959 . S
C475 H482 0.961 . S
C475 H483 0.960 . S
C476 C474 1.381 . S
C476 C477 1.394 . S
C476 H484 0.930 . S
C477 C476 1.394 . S
C477 C478 1.383 . S
C477 H485 0.929 . S
C478 C477 1.383 . S
C478 C479 1.377 . S
C479 H463 0.930 . S
C479 C478 1.377 . S
C479 C480 1.379 . S
C480 H464 0.931 . S
C480 C474 1.383 . S
C480 C479 1.379 . S
H481 C475 0.959 . S
H482 C475 0.961 . S
H483 C475 0.960 . S
H484 C476 0.930 . S
H485 C477 0.929 . S
H486 C494 0.929 . S
H487 C496 0.930 . S
H488 C498 0.930 . S
H489 C501 0.929 . S
H490 C504 0.930 . S
H491 C506 0.960 . S
H492 C506 0.960 . S
H493 C506 0.960 . S
C494 H486 0.929 . S
C494 C495 1.377 . S
C494 C496 1.384 . S
C495 C494 1.377 . S
C495 C501 1.390 . S
C496 H487 0.930 . S
C496 C494 1.384 . S
C496 C497 1.372 . S
C497 C496 1.372 . S
C497 C498 1.400 . S
C497 C502 1.490 . S
C498 H488 0.930 . S
C498 C497 1.400 . S
C498 C501 1.386 . S
H499 C515 0.930 . S
H500 C516 0.931 . S
C501 H489 0.929 . S
C501 C495 1.390 . S
C501 C498 1.386 . S
C502 C497 1.490 . S
C502 C504 1.395 . S
C502 C505 1.403 . S
H503 C509 0.930 . S
C504 H490 0.930 . S
C504 C502 1.395 . S
C504 C507 1.403 . S
C505 C502 1.403 . S
C505 C506 1.524 . S
C505 C509 1.400 . S
C506 H491 0.960 . S
C506 H492 0.960 . S
C506 H493 0.960 . S
C506 C505 1.524 . S
C507 C504 1.403 . S
C507 C508 1.392 . S
C507 C511 1.495 . S
C508 C507 1.392 . S
C508 C509 1.385 . S
C508 C510 1.478 . S
C509 H503 0.930 . S
C509 C505 1.400 . S
C509 C508 1.385 . S
C510 C508 1.478 . S
C510 C512 1.381 . S
C510 C516 1.383 . S
C511 C507 1.495 . S
C511 H517 0.959 . S
C511 H518 0.961 . S
C511 H519 0.960 . S
C512 C510 1.381 . S
C512 C513 1.394 . S
C512 H520 0.930 . S
C513 C512 1.394 . S
C513 C514 1.383 . S
C513 H521 0.929 . S
C514 C513 1.383 . S
C514 C515 1.377 . S
C515 H499 0.930 . S
C515 C514 1.377 . S
C515 C516 1.379 . S
C516 H500 0.931 . S
C516 C510 1.383 . S
C516 C515 1.379 . S
H517 C511 0.959 . S
H518 C511 0.961 . S
H519 C511 0.960 . S
H520 C512 0.930 . S
H521 C513 0.929 . S
H522 C530 0.929 . S
H523 C532 0.930 . S
H524 C534 0.930 . S
H525 C537 0.929 . S
H526 C540 0.930 . S
H527 C542 0.960 . S
H528 C542 0.960 . S
H529 C542 0.960 . S
C530 H522 0.929 . S
C530 C531 1.377 . S
C530 C532 1.384 . S
C531 C530 1.377 . S
C531 C537 1.390 . S
C532 H523 0.930 . S
C532 C530 1.384 . S
C532 C533 1.372 . S
C533 C532 1.372 . S
C533 C534 1.400 . S
C533 C538 1.490 . S
C534 H524 0.930 . S
C534 C533 1.400 . S
C534 C537 1.386 . S
H535 C551 0.930 . S
H536 C552 0.931 . S
C537 H525 0.929 . S
C537 C531 1.390 . S
C537 C534 1.386 . S
C538 C533 1.490 . S
C538 C540 1.395 . S
C538 C541 1.403 . S
H539 C545 0.930 . S
C540 H526 0.930 . S
C540 C538 1.395 . S
C540 C543 1.403 . S
C541 C538 1.403 . S
C541 C542 1.524 . S
C541 C545 1.400 . S
C542 H527 0.960 . S
C542 H528 0.960 . S
C542 H529 0.960 . S
C542 C541 1.524 . S
C543 C540 1.403 . S
C543 C544 1.392 . S
C543 C547 1.495 . S
C544 C543 1.392 . S
C544 C545 1.385 . S
C544 C546 1.478 . S
C545 H539 0.930 . S
C545 C541 1.400 . S
C545 C544 1.385 . S
C546 C544 1.478 . S
C546 C548 1.381 . S
C546 C552 1.383 . S
C547 C543 1.495 . S
C547 H553 0.959 . S
C547 H554 0.961 . S
C547 H555 0.960 . S
C548 C546 1.381 . S
C548 C549 1.394 . S
C548 H556 0.930 . S
C549 C548 1.394 . S
C549 C550 1.383 . S
C549 H557 0.929 . S
C550 C549 1.383 . S
C550 C551 1.377 . S
C551 H535 0.930 . S
C551 C550 1.377 . S
C551 C552 1.379 . S
C552 H536 0.931 . S
C552 C546 1.383 . S
C552 C551 1.379 . S
H553 C547 0.959 . S
H554 C547 0.961 . S
H555 C547 0.960 . S
H556 C548 0.930 . S
H557 C549 0.929 . S
H558 C566 0.929 . S
H559 C568 0.930 . S
H560 C570 0.930 . S
H561 C573 0.929 . S
H562 C576 0.930 . S
H563 C578 0.960 . S
H564 C578 0.960 . S
H565 C578 0.960 . S
C566 H558 0.929 . S
C566 C567 1.377 . S
C566 C568 1.384 . S
C567 C566 1.377 . S
C567 C573 1.390 . S
C568 H559 0.930 . S
C568 C566 1.384 . S
C568 C569 1.372 . S
C569 C568 1.372 . S
C569 C570 1.400 . S
C569 C574 1.490 . S
C570 H560 0.930 . S
C570 C569 1.400 . S
C570 C573 1.386 . S
H571 C587 0.930 . S
H572 C588 0.931 . S
C573 H561 0.929 . S
C573 C567 1.390 . S
C573 C570 1.386 . S
C574 C569 1.490 . S
C574 C576 1.395 . S
C574 C577 1.403 . S
H575 C581 0.930 . S
C576 H562 0.930 . S
C576 C574 1.395 . S
C576 C579 1.403 . S
C577 C574 1.403 . S
C577 C578 1.524 . S
C577 C581 1.400 . S
C578 H563 0.960 . S
C578 H564 0.960 . S
C578 H565 0.960 . S
C578 C577 1.524 . S
C579 C576 1.403 . S
C579 C580 1.392 . S
C579 C583 1.495 . S
C580 C579 1.392 . S
C580 C581 1.385 . S
C580 C582 1.478 . S
C581 H575 0.930 . S
C581 C577 1.400 . S
C581 C580 1.385 . S
C582 C580 1.478 . S
C582 C584 1.381 . S
C582 C588 1.383 . S
C583 C579 1.495 . S
C583 H589 0.959 . S
C583 H590 0.961 . S
C583 H591 0.960 . S
C584 C582 1.381 . S
C584 C585 1.394 . S
C584 H592 0.930 . S
C585 C584 1.394 . S
C585 C586 1.383 . S
C585 H593 0.929 . S
C586 C585 1.383 . S
C586 C587 1.377 . S
C587 H571 0.930 . S
C587 C586 1.377 . S
C587 C588 1.379 . S
C588 H572 0.931 . S
C588 C582 1.383 . S
C588 C587 1.379 . S
H589 C583 0.959 . S
H590 C583 0.961 . S
H591 C583 0.960 . S
H592 C584 0.930 . S
H593 C585 0.929 . S
H594 C602 0.929 . S
H595 C604 0.930 . S
H596 C606 0.930 . S
H597 C609 0.929 . S
H598 C612 0.930 . S
H599 C614 0.960 . S
H600 C614 0.960 . S
H601 C614 0.960 . S
C602 H594 0.929 . S
C602 C603 1.377 . S
C602 C604 1.384 . S
C603 C602 1.377 . S
C603 C609 1.390 . S
C604 H595 0.930 . S
C604 C602 1.384 . S
C604 C605 1.372 . S
C605 C604 1.372 . S
C605 C606 1.400 . S
C605 C610 1.490 . S
C606 H596 0.930 . S
C606 C605 1.400 . S
C606 C609 1.386 . S
H607 C623 0.930 . S
H608 C624 0.931 . S
C609 H597 0.929 . S
C609 C603 1.390 . S
C609 C606 1.386 . S
C610 C605 1.490 . S
C610 C612 1.395 . S
C610 C613 1.403 . S
H611 C617 0.930 . S
C612 H598 0.930 . S
C612 C610 1.395 . S
C612 C615 1.403 . S
C613 C610 1.403 . S
C613 C614 1.524 . S
C613 C617 1.400 . S
C614 H599 0.960 . S
C614 H600 0.960 . S
C614 H601 0.960 . S
C614 C613 1.524 . S
C615 C612 1.403 . S
C615 C616 1.392 . S
C615 C619 1.495 . S
C616 C615 1.392 . S
C616 C617 1.385 . S
C616 C618 1.478 . S
C617 H611 0.930 . S
C617 C613 1.400 . S
C617 C616 1.385 . S
C618 C616 1.478 . S
C618 C620 1.381 . S
C618 C624 1.383 . S
C619 C615 1.495 . S
C619 H625 0.959 . S
C619 H626 0.961 . S
C619 H627 0.960 . S
C620 C618 1.381 . S
C620 C621 1.394 . S
C620 H628 0.930 . S
C621 C620 1.394 . S
C621 C622 1.383 . S
C621 H629 0.929 . S
C622 C621 1.383 . S
C622 C623 1.377 . S
C623 H607 0.930 . S
C623 C622 1.377 . S
C623 C624 1.379 . S
C624 H608 0.931 . S
C624 C618 1.383 . S
C624 C623 1.379 . S
H625 C619 0.959 . S
H626 C619 0.961 . S
H627 C619 0.960 . S
H628 C620 0.930 . S
H629 C621 0.929 . S
H630 C638 0.929 . S
H631 C640 0.930 . S
H632 C642 0.930 . S
H633 C645 0.929 . S
H634 C648 0.930 . S
H635 C650 0.960 . S
H636 C650 0.960 . S
H637 C650 0.960 . S
C638 H630 0.929 . S
C638 C639 1.377 . S
C638 C640 1.384 . S
C639 C638 1.377 . S
C639 C645 1.390 1_455 S
C640 H631 0.930 . S
C640 C638 1.384 . S
C640 C641 1.372 . S
C641 C640 1.372 . S
C641 C642 1.400 1_455 S
C641 C646 1.490 . S
C642 H632 0.930 . S
C642 C641 1.400 1_655 S
C642 C645 1.386 . S
H643 C659 0.930 . S
H644 C660 0.931 . S
C645 H633 0.929 . S
C645 C639 1.390 1_655 S
C645 C642 1.386 . S
C646 C641 1.490 . S
C646 C648 1.395 . S
C646 C649 1.403 . S
H647 C653 0.957 1_655 S
C648 H634 0.930 . S
C648 C646 1.395 . S
C648 C651 1.403 . S
C649 C646 1.403 . S
C649 C650 1.524 1_455 S
C649 C653 1.362 1_554 S
C650 H635 0.960 . S
C650 H636 0.960 . S
C650 H637 0.960 . S
C650 C649 1.524 1_655 S
C651 C648 1.403 . S
C651 C652 1.392 1_554 S
C651 C655 1.495 . S
C652 C651 1.392 1_556 S
C652 C653 1.398 . S
C652 C654 1.478 . S
C653 H647 0.957 1_455 S
C653 C649 1.362 1_556 S
C653 C652 1.398 . S
C654 C652 1.478 . S
C654 C656 1.381 . S
C654 C660 1.383 . S
C655 C651 1.495 . S
C655 H661 0.959 . S
C655 H662 0.961 1_554 S
C655 H663 0.960 1_554 S
C656 C654 1.381 . S
C656 C657 1.394 . S
C656 H664 0.930 . S
C657 C656 1.394 . S
C657 C658 1.383 . S
C657 H665 0.929 . S
C658 C657 1.383 . S
C658 C659 1.377 . S
C659 H643 0.930 . S
C659 C658 1.377 . S
C659 C660 1.379 . S
C660 H644 0.931 . S
C660 C654 1.383 . S
C660 C659 1.379 . S
H661 C655 0.959 . S
H662 C655 0.961 1_556 S
H663 C655 0.960 1_556 S
H664 C656 0.930 . S
H665 C657 0.929 . S
H666 C674 0.929 . S
H667 C676 0.930 . S
H668 C678 0.930 . S
H669 C681 0.929 . S
H670 C684 0.930 . S
H671 C686 0.960 . S
H672 C686 0.960 . S
H673 C686 0.960 . S
C674 H666 0.929 . S
C674 C675 1.377 . S
C674 C676 1.384 . S
C675 C674 1.377 . S
C675 C681 1.390 . S
C676 H667 0.930 . S
C676 C674 1.384 . S
C676 C677 1.372 . S
C677 C676 1.372 . S
C677 C678 1.400 . S
C677 C682 1.490 . S
C678 H668 0.930 . S
C678 C677 1.400 . S
C678 C681 1.386 . S
H679 C695 0.930 . S
H680 C696 0.931 . S
C681 H669 0.929 . S
C681 C675 1.390 . S
C681 C678 1.386 . S
C682 C677 1.490 . S
C682 C684 1.395 1_545 S
C682 C685 1.403 . S
H683 C689 0.930 . S
C684 H670 0.930 . S
C684 C682 1.395 1_565 S
C684 C687 1.403 . S
C685 C682 1.403 . S
C685 C686 1.524 . S
C685 C689 1.400 . S
C686 H671 0.960 . S
C686 H672 0.960 . S
C686 H673 0.960 . S
C686 C685 1.524 . S
C687 C684 1.403 . S
C687 C688 1.392 1_565 S
C687 C691 1.495 . S
C688 C687 1.392 1_545 S
C688 C689 1.385 . S
C688 C690 1.478 . S
C689 H683 0.930 . S
C689 C685 1.400 . S
C689 C688 1.385 . S
C690 C688 1.478 . S
C690 C692 1.381 . S
C690 C696 1.383 . S
C691 C687 1.495 . S
C691 H697 0.959 . S
C691 H698 0.961 . S
C691 H699 0.960 . S
C692 C690 1.381 . S
C692 C693 1.394 . S
C692 H700 0.930 . S
C693 C692 1.394 . S
C693 C694 1.383 . S
C693 H701 0.929 . S
C694 C693 1.383 . S
C694 C695 1.377 . S
C695 H679 0.930 . S
C695 C694 1.377 . S
C695 C696 1.379 . S
C696 H680 0.931 . S
C696 C690 1.383 . S
C696 C695 1.379 . S
H697 C691 0.959 . S
H698 C691 0.961 . S
H699 C691 0.960 . S
H700 C692 0.930 . S
H701 C693 0.929 . S
H702 C710 0.929 . S
H703 C712 0.930 . S
H704 C714 0.930 . S
H705 C717 0.929 . S
H706 C720 0.930 . S
H707 C722 0.960 . S
H708 C722 0.960 . S
H709 C722 0.960 . S
C710 H702 0.929 . S
C710 C711 1.377 . S
C710 C712 1.384 . S
C711 C710 1.377 . S
C711 C717 1.390 . S
C712 H703 0.930 . S
C712 C710 1.384 . S
C712 C713 1.372 . S
C713 C712 1.372 . S
C713 C714 1.400 . S
C713 C718 1.490 . S
C714 H704 0.930 . S
C714 C713 1.400 . S
C714 C717 1.386 . S
H715 C731 0.930 . S
H716 C732 0.931 . S
C717 H705 0.929 . S
C717 C711 1.390 . S
C717 C714 1.386 . S
C718 C713 1.490 . S
C718 C720 1.395 . S
C718 C721 1.403 . S
H719 C725 0.930 . S
C720 H706 0.930 . S
C720 C718 1.395 . S
C720 C723 1.403 . S
C721 C718 1.403 . S
C721 C722 1.524 . S
C721 C725 1.400 . S
C722 H707 0.960 . S
C722 H708 0.960 . S
C722 H709 0.960 . S
C722 C721 1.524 . S
C723 C720 1.403 . S
C723 C724 1.392 . S
C723 C727 1.495 . S
C724 C723 1.392 . S
C724 C725 1.385 . S
C724 C726 1.478 . S
C725 H719 0.930 . S
C725 C721 1.400 . S
C725 C724 1.385 . S
C726 C724 1.478 . S
C726 C728 1.381 . S
C726 C732 1.383 . S
C727 C723 1.495 . S
C727 H733 0.959 . S
C727 H734 0.961 . S
C727 H735 0.960 . S
C728 C726 1.381 . S
C728 C729 1.394 . S
C728 H736 0.930 . S
C729 C728 1.394 . S
C729 C730 1.383 . S
C729 H737 0.929 . S
C730 C729 1.383 . S
C730 C731 1.377 . S
C731 H715 0.930 . S
C731 C730 1.377 . S
C731 C732 1.379 . S
C732 H716 0.931 . S
C732 C726 1.383 . S
C732 C731 1.379 . S
H733 C727 0.959 . S
H734 C727 0.961 . S
H735 C727 0.960 . S
H736 C728 0.930 . S
H737 C729 0.929 . S
H738 C746 0.929 . S
H739 C748 0.930 . S
H740 C750 0.956 . S
H741 C753 0.929 . S
H742 C756 0.930 . S
H743 C758 0.960 . S
H744 C758 0.960 . S
H745 C758 0.960 . S
C746 H738 0.929 . S
C746 C747 1.377 . S
C746 C748 1.384 . S
C747 C746 1.377 . S
C747 C753 1.390 1_545 S
C748 H739 0.930 . S
C748 C746 1.384 . S
C748 C749 1.372 . S
C749 C748 1.372 . S
C749 C750 1.370 1_545 S
C749 C754 1.490 . S
C750 H740 0.956 . S
C750 C749 1.370 1_565 S
C750 C753 1.390 . S
H751 C767 0.930 . S
H752 C768 0.931 . S
C753 H741 0.929 . S
C753 C747 1.390 1_565 S
C753 C750 1.390 . S
C754 C749 1.490 . S
C754 C756 1.395 . S
C754 C757 1.403 . S
H755 C761 0.930 . S
C756 H742 0.930 . S
C756 C754 1.395 . S
C756 C759 1.403 . S
C757 C754 1.403 . S
C757 C758 1.524 . S
C757 C761 1.400 . S
C758 H743 0.960 . S
C758 H744 0.960 . S
C758 H745 0.960 . S
C758 C757 1.524 . S
C759 C756 1.403 . S
C759 C760 1.392 . S
C759 C763 1.495 1_545 S
C760 C759 1.392 . S
C760 C761 1.385 . S
C760 C762 1.478 . S
C761 H755 0.930 . S
C761 C757 1.400 . S
C761 C760 1.385 . S
C762 C760 1.478 . S
C762 C764 1.381 . S
C762 C768 1.383 1_545 S
C763 C759 1.495 1_565 S
C763 H769 0.959 . S
C763 H770 0.961 . S
C763 H771 0.960 1_565 S
C764 C762 1.381 . S
C764 C765 1.394 . S
C764 H772 0.930 . S
C765 C764 1.394 . S
C765 C766 1.383 . S
C765 H773 0.929 . S
C766 C765 1.383 . S
C766 C767 1.377 1_545 S
C767 H751 0.930 . S
C767 C766 1.377 1_565 S
C767 C768 1.379 . S
C768 H752 0.931 . S
C768 C762 1.383 1_565 S
C768 C767 1.379 . S
H769 C763 0.959 . S
H770 C763 0.961 . S
H771 C763 0.960 1_545 S
H772 C764 0.930 . S
H773 C765 0.929 . S
H774 C782 0.929 . S
H775 C784 0.930 . S
H776 C786 0.930 . S
H777 C789 0.929 . S
H778 C792 0.930 . S
H779 C794 0.960 . S
H780 C794 0.960 . S
H781 C794 0.960 . S
C782 H774 0.929 . S
C782 C783 1.377 . S
C782 C784 1.384 . S
C783 C782 1.377 . S
C783 C789 1.390 . S
C784 H775 0.930 . S
C784 C782 1.384 . S
C784 C785 1.372 . S
C785 C784 1.372 . S
C785 C786 1.400 . S
C785 C790 1.490 . S
C786 H776 0.930 . S
C786 C785 1.400 . S
C786 C789 1.386 . S
H787 C803 0.930 . S
H788 C804 0.931 . S
C789 H777 0.929 . S
C789 C783 1.390 . S
C789 C786 1.386 . S
C790 C785 1.490 . S
C790 C792 1.395 . S
C790 C793 1.403 . S
H791 C797 0.945 . S
C792 H778 0.930 . S
C792 C790 1.395 . S
C792 C795 1.403 . S
C793 C790 1.403 . S
C793 C794 1.524 . S
C793 C797 1.381 1_556 S
C794 H779 0.960 . S
C794 H780 0.960 . S
C794 H781 0.960 . S
C794 C793 1.524 . S
C795 C792 1.403 . S
C795 C796 1.392 1_556 S
C795 C799 1.495 . S
C796 C795 1.392 1_554 S
C796 C797 1.390 . S
C796 C798 1.478 . S
C797 H791 0.945 . S
C797 C793 1.381 1_554 S
C797 C796 1.390 . S
C798 C796 1.478 . S
C798 C800 1.381 . S
C798 C804 1.383 . S
C799 C795 1.495 . S
C799 H805 0.959 . S
C799 H806 0.984 . S
C799 H807 0.934 1_556 S
C800 C798 1.381 . S
C800 C801 1.394 . S
C800 H808 0.930 . S
C801 C800 1.394 . S
C801 C802 1.383 . S
C801 H809 0.929 . S
C802 C801 1.383 . S
C802 C803 1.377 . S
C803 H787 0.930 . S
C803 C802 1.377 . S
C803 C804 1.379 . S
C804 H788 0.931 . S
C804 C798 1.383 . S
C804 C803 1.379 . S
H805 C799 0.959 . S
H806 C799 0.984 . S
H807 C799 0.934 1_554 S
H808 C800 0.930 . S
H809 C801 0.929 . S
H810 C818 0.929 . S
H811 C820 0.930 . S
H812 C822 0.930 . S
H813 C825 0.929 . S
H814 C828 0.930 . S
H815 C830 0.960 . S
H816 C830 0.960 . S
H817 C830 0.960 . S
C818 H810 0.929 . S
C818 C819 1.411 . S
C818 C820 1.384 . S
C819 C818 1.411 . S
C819 C825 1.356 1_655 S
C820 H811 0.930 . S
C820 C818 1.384 . S
C820 C821 1.372 1_655 S
C821 C820 1.372 1_455 S
C821 C822 1.400 . S
C821 C826 1.490 . S
C822 H812 0.930 . S
C822 C821 1.400 . S
C822 C825 1.386 . S
H823 C839 0.930 . S
H824 C840 0.931 . S
C825 H813 0.929 . S
C825 C819 1.356 1_455 S
C825 C822 1.386 . S
C826 C821 1.490 . S
C826 C828 1.395 1_455 S
C826 C829 1.403 . S
H827 C833 0.930 . S
C828 H814 0.930 . S
C828 C826 1.395 1_655 S
C828 C831 1.403 . S
C829 C826 1.403 . S
C829 C830 1.524 . S
C829 C833 1.400 . S
C830 H815 0.960 . S
C830 H816 0.960 . S
C830 H817 0.960 . S
C830 C829 1.524 . S
C831 C828 1.403 . S
C831 C832 1.392 1_655 S
C831 C835 1.495 . S
C832 C831 1.392 1_455 S
C832 C833 1.385 . S
C832 C834 1.478 . S
C833 H827 0.930 . S
C833 C829 1.400 . S
C833 C832 1.385 . S
C834 C832 1.478 . S
C834 C836 1.381 1_455 S
C834 C840 1.383 . S
C835 C831 1.495 . S
C835 H841 0.959 . S
C835 H842 0.961 . S
C835 H843 0.960 . S
C836 C834 1.381 1_655 S
C836 C837 1.394 1_655 S
C836 H844 0.930 . S
C837 C836 1.394 1_455 S
C837 C838 1.383 . S
C837 H845 0.929 1_455 S
C838 C837 1.383 . S
C838 C839 1.377 . S
C839 H823 0.930 . S
C839 C838 1.377 . S
C839 C840 1.379 . S
C840 H824 0.931 . S
C840 C834 1.383 . S
C840 C839 1.379 . S
H841 C835 0.959 . S
H842 C835 0.961 . S
H843 C835 0.960 . S
H844 C836 0.930 . S
H845 C837 0.929 1_655 S
C207 C6 0.438 . S
C226 C189 0.511 . S
C243 C59 1.783 . S
C262 C167 1.772 1_655 S
C279 C86 1.097 . S
C298 C180 1.072 . S
C315 C15 0.258 . S
C334 C193 0.132 . S
C370 C163 1.877 . S
C351 C50 1.986 . S
C406 C176 1.265 . S
C387 C95 1.300 . S
C423 C46 1.036 . S
C442 C141 1.011 . S
C459 C99 2.999 . S
C478 C154 2.961 1_655 S
C495 C10 1.983 . S
C514 C124 1.856 . S
C550 C137 1.214 . S
C531 C55 1.315 . S
C586 C150 2.876 . S
C567 C90 3.037 . S
C603 C19 1.788 . S
C622 C128 1.782 . S
C658 C155 1.742 . S
C639 C18 1.683 . S
C675 C49 1.460 . S
C694 C129 1.500 . S
C711 C98 1.514 . S
C730 C142 1.609 . S
C766 C181 1.550 . S
C747 C58 1.467 . S
C802 C194 1.352 . S
C783 C89 1.320 . S
C819 C9 1.428 1_655 S
C838 C168 1.480 . S
