# Generated by pormake.
# Topology anh, (6,3)-cn, num edge types: 1
# Building blocks:
#     Node 0, Type 0, BuildingBlock: BETGAK_clean_sbu_0, # of connection points: 6
#     Node 1, Type 0, BuildingBlock: BETGAK_clean_sbu_0, # of connection points: 6
#     Node 2, Type 0, BuildingBlock: BETGAK_clean_sbu_0, # of connection points: 6
#     Node 3, Type 1, BuildingBlock: BETDAH_clean_linker_0, # of connection points: 3
#     Node 4, Type 1, BuildingBlock: BETDAH_clean_linker_0, # of connection points: 3
#     Node 5, Type 1, BuildingBlock: BETDAH_clean_linker_0, # of connection points: 3
#     Node 6, Type 1, BuildingBlock: BETDAH_clean_linker_0, # of connection points: 3
#     Node 7, Type 1, BuildingBlock: BETDAH_clean_linker_0, # of connection points: 3
#     Node 8, Type 1, BuildingBlock: BETDAH_clean_linker_0, # of connection points: 3
#     Edge 9, Type (0, 1), BuildingBlock: MIFKUJ_clean_linker_0, # of connection points: 2
#     Edge 10, Type (0, 1), BuildingBlock: MIFKUJ_clean_linker_0, # of connection points: 2
#     Edge 11, Type (0, 1), BuildingBlock: MIFKUJ_clean_linker_0, # of connection points: 2
#     Edge 12, Type (0, 1), BuildingBlock: MIFKUJ_clean_linker_0, # of connection points: 2
#     Edge 13, Type (0, 1), BuildingBlock: MIFKUJ_clean_linker_0, # of connection points: 2
#     Edge 14, Type (0, 1), BuildingBlock: MIFKUJ_clean_linker_0, # of connection points: 2
#     Edge 15, Type (0, 1), BuildingBlock: MIFKUJ_clean_linker_0, # of connection points: 2
#     Edge 16, Type (0, 1), BuildingBlock: MIFKUJ_clean_linker_0, # of connection points: 2
#     Edge 17, Type (0, 1), BuildingBlock: MIFKUJ_clean_linker_0, # of connection points: 2
#     Edge 18, Type (0, 1), BuildingBlock: MIFKUJ_clean_linker_0, # of connection points: 2
#     Edge 19, Type (0, 1), BuildingBlock: MIFKUJ_clean_linker_0, # of connection points: 2
#     Edge 20, Type (0, 1), BuildingBlock: MIFKUJ_clean_linker_0, # of connection points: 2
#     Edge 21, Type (0, 1), BuildingBlock: MIFKUJ_clean_linker_0, # of connection points: 2
#     Edge 22, Type (0, 1), BuildingBlock: MIFKUJ_clean_linker_0, # of connection points: 2
#     Edge 23, Type (0, 1), BuildingBlock: MIFKUJ_clean_linker_0, # of connection points: 2
#     Edge 24, Type (0, 1), BuildingBlock: MIFKUJ_clean_linker_0, # of connection points: 2
#     Edge 25, Type (0, 1), BuildingBlock: MIFKUJ_clean_linker_0, # of connection points: 2
#     Edge 26, Type (0, 1), BuildingBlock: MIFKUJ_clean_linker_0, # of connection points: 2
# Relax obj value: 0.120
# Max RMSD: 0.164
# Mean RMSD: 0.106
data_MOF--net-anh--node1-BETGAK_clean_sbu_0--node2-BETDAH_clean_linker_0--edge1-MIFKUJ_clean_linker_0
_symmetry_space_group_name_H-M    P1
_symmetry_Int_Tables_number       1
_symmetry_cell_setting            triclinic
loop_
_symmetry_equiv_pos_as_xyz
'x, y, z'
_cell_length_a     40.035948
_cell_length_b     47.056659
_cell_length_c     64.233198
_cell_angle_alpha  94.52402
_cell_angle_beta   90.925109
_cell_angle_gamma 127.79043
loop_
_atom_site_label
_atom_site_type_symbol
_atom_site_fract_x
_atom_site_fract_y
_atom_site_fract_z
_atom_type_partial_charge
La0 La 0.11093 0.54445 0.15434 0.0
La1 La 0.06715 0.57478 0.16953 0.0
C2 C 0.15131 0.5292 0.13306 0.0
C3 C 0.19485 0.54181 0.13039 0.0
C4 C 0.20734 0.5222 0.13795 0.0
C5 C 0.24536 0.52953 0.13278 0.0
C6 C 0.27158 0.55637 0.11969 0.0
C7 C 0.2602 0.57724 0.1129 0.0
C8 C 0.22223 0.5702 0.11836 0.0
C9 C 0.10569 0.54762 0.19503 0.0
C10 C 0.1642 0.63066 0.16583 0.0
C11 C 1.02308 0.58839 0.18853 0.0
C12 C 0.9782 0.56725 0.19312 0.0
C13 C 0.95272 0.57453 0.18374 0.0
C14 C 0.90958 0.55352 0.18661 0.0
C15 C 0.89089 0.52499 0.19926 0.0
C16 C 0.91676 0.51839 0.20919 0.0
C17 C 0.95999 0.53924 0.20611 0.0
C18 C 0.07346 0.57074 0.12873 0.0
C19 C 1.01518 0.48919 0.16093 0.0
O20 O 0.13546 0.51602 0.15063 0.0
O21 O 0.14076 0.5488 0.12686 0.0
O22 O 0.1062 0.5235 0.18423 0.0
O23 O 0.1124 0.57071 0.18345 0.0
O24 O 0.16252 0.60359 0.15633 0.0
O25 O 0.13116 0.62487 0.17459 0.0
O26 O 1.0303 0.59258 0.1688 0.0
O27 O 1.04609 0.5813 0.1979 0.0
O28 O 0.07646 0.59683 0.13943 0.0
O29 O 0.06504 0.54755 0.14064 0.0
O30 O 1.01867 0.5165 0.17122 0.0
O31 O 1.04585 0.49479 0.1498 0.0
H32 H 0.18671 0.4999 0.14703 0.0
H33 H 0.25273 0.5124 0.13788 0.0
H34 H 0.27979 0.59795 0.10271 0.0
H35 H 0.21346 0.58587 0.11239 0.0
H36 H 0.96601 0.59599 0.17369 0.0
H37 H 0.89069 0.559 0.1783 0.0
H38 H 0.9036 0.49694 0.21921 0.0
H39 H 0.97887 0.53303 0.21365 0.0
La40 La 0.6622 0.0656 0.48951 0.0
La41 La 0.60619 0.08562 0.47947 0.0
C42 C 0.69432 0.03843 0.50435 0.0
C43 C 0.67974 1.00284 0.50993 0.0
C44 C 0.70281 0.99051 0.50406 0.0
C45 C 0.68988 0.95686 0.50892 0.0
C46 C 0.65378 0.93502 0.51992 0.0
C47 C 0.63046 0.94721 0.52572 0.0
C48 C 0.64324 0.98086 0.52071 0.0
C49 C 0.65963 0.07786 0.45055 0.0
C50 C 0.56264 1.0043 0.47788 0.0
C51 C 0.57532 0.11421 0.46532 0.0
C52 C 0.5837 0.14904 0.47121 0.0
C53 C 0.60359 0.16824 0.49098 0.0
C54 C 0.60997 0.20054 0.49697 0.0
C55 C 0.59699 0.21456 0.48322 0.0
C56 C 0.57807 0.19561 0.46316 0.0
C57 C 0.57143 0.1631 0.45725 0.0
C58 C 0.61067 0.07571 0.51892 0.0
C59 C 0.70706 0.1477 0.48963 0.0
O60 O 0.69084 0.04062 0.48437 0.0
O61 O 0.68345 0.05538 0.5159 0.0
O62 O 0.69313 0.08596 0.46073 0.0
O63 O 0.62857 0.06138 0.46161 0.0
O64 O 0.59733 0.0143 0.4888 0.0
O65 O 0.5617 0.02819 0.46895 0.0
O66 O 0.55828 0.0914 0.4794 0.0
O67 O 0.60624 0.11607 0.45713 0.0
O68 O 0.57739 0.06852 0.50916 0.0
O69 O 0.64067 0.09079 0.50723 0.0
O70 O 0.66985 0.1382 0.48252 0.0
O71 O 0.7113 0.12376 0.49572 0.0
H72 H 0.73095 1.00698 0.49569 0.0
H73 H 0.70845 0.94809 0.50433 0.0
H74 H 0.60218 0.93056 0.53395 0.0
H75 H 0.62464 0.98961 0.52525 0.0
H76 H 0.61356 0.15791 0.50195 0.0
H77 H 0.62413 0.214 0.5126 0.0
H78 H 0.56838 0.20587 0.45201 0.0
H79 H 0.55642 0.1488 0.44184 0.0
La80 La 0.62848 0.58992 0.84918 0.0
La81 La 0.56837 0.5098 0.84903 0.0
C82 C 0.66723 0.65365 0.84001 0.0
C83 C 0.65776 0.67763 0.83386 0.0
C84 C 0.68747 0.71487 0.83987 0.0
C85 C 0.6804 0.73865 0.83364 0.0
C86 C 0.64347 0.72566 0.82115 0.0
C87 C 0.61324 0.6881 0.81548 0.0
C88 C 0.62032 0.66425 0.8218 0.0
C89 C 0.61833 0.56685 0.88611 0.0
C90 C 0.52772 0.5494 0.85135 0.0
C91 C 0.53257 0.44537 0.85595 0.0
C92 C 0.54124 0.41987 0.84976 0.0
C93 C 0.56665 0.42595 0.83325 0.0
C94 C 0.57511 0.40184 0.82741 0.0
C95 C 0.55879 0.37134 0.83816 0.0
C96 C 0.53361 0.36565 0.85486 0.0
C97 C 0.5248 0.38964 0.86052 0.0
C98 C 0.57927 0.53301 0.81193 0.0
C99 C 0.67007 0.55065 0.84958 0.0
O100 O 0.66012 0.64497 0.85917 0.0
O101 O 0.65503 0.62608 0.82641 0.0
O102 O 0.65394 0.59528 0.88092 0.0
O103 O 0.5899 0.55414 0.87148 0.0
O104 O 0.56481 0.57756 0.84554 0.0
O105 O 0.52373 0.52086 0.85681 0.0
O106 O 0.52002 0.45439 0.84063 0.0
O107 O 0.56151 0.4735 0.869 0.0
O108 O 0.54383 0.50473 0.8172 0.0
O109 O 0.60754 0.54544 0.82662 0.0
O110 O 0.63099 0.52053 0.8511 0.0
O111 O 0.67669 0.58145 0.84707 0.0
H112 H 0.7164 0.72564 0.8493 0.0
H113 H 0.70389 0.76728 0.8387 0.0
H114 H 0.58458 0.67719 0.80579 0.0
H115 H 0.59686 0.6355 0.81706 0.0
H116 H 0.57978 0.44929 0.82478 0.0
H117 H 0.59395 0.40691 0.81426 0.0
H118 H 0.52118 0.34299 0.86382 0.0
H119 H 0.50545 0.38476 0.87344 0.0
H120 H 0.53968 0.99496 0.2347 0.0
H121 H 0.63809 0.10252 0.21959 0.0
H122 H 0.55123 0.01807 0.17069 0.0
C123 C 0.55622 0.01385 0.22317 0.0
C124 C 0.54173 1.00179 0.20192 0.0
C125 C 0.591 0.05005 0.2298 0.0
C126 C 0.61104 0.07469 0.21474 0.0
C127 C 0.59645 0.06316 0.19338 0.0
C128 C 0.56186 0.02685 0.18717 0.0
N129 N 0.61574 0.08703 0.17762 0.0
C130 C 0.65221 0.12293 0.18085 0.0
H131 H 0.62374 0.51455 0.59457 0.0
H132 H 0.60667 0.59449 0.5846 0.0
H133 H 0.60407 0.53068 0.53191 0.0
C134 C 0.61945 0.52909 0.58395 0.0
C135 C 0.61452 0.51938 0.56225 0.0
C136 C 0.61628 0.55592 0.59214 0.0
C137 C 0.60926 0.5739 0.57834 0.0
C138 C 0.60525 0.56494 0.55655 0.0
C139 C 0.60751 0.53757 0.54873 0.0
N140 N 0.59807 0.58207 0.54187 0.0
C141 C 0.59968 0.61228 0.54651 0.0
H142 H 1.01546 0.54202 0.90586 0.0
H143 H 0.12538 0.54678 0.89755 0.0
H144 H 1.06127 0.55146 0.84478 0.0
C145 C 1.03775 0.54356 0.89568 0.0
C146 C 1.03363 0.54629 0.87437 0.0
C147 C 0.07072 0.54397 0.90423 0.0
C148 C 0.10029 0.54683 0.89105 0.0
C149 C 0.09729 0.54934 0.86951 0.0
C150 C 0.06389 0.5494 0.86131 0.0
N151 N 0.1269 0.55175 0.85576 0.0
C152 C 0.16158 0.5518 0.86074 0.0
H153 H 0.18294 0.64322 0.41494 0.0
H154 H 0.08434 0.53459 0.42821 0.0
H155 H 0.17512 0.61539 0.47772 0.0
C156 C 0.16685 0.62355 0.42611 0.0
C157 C 0.18297 0.6339 0.44716 0.0
C158 C 0.13142 0.58789 0.41909 0.0
C159 C 0.11174 0.56209 0.43351 0.0
C160 C 0.12741 0.57203 0.45476 0.0
C161 C 0.16315 0.60782 0.46137 0.0
N162 N 0.1083 0.54704 0.46998 0.0
C163 C 0.0719 0.51112 0.46627 0.0
H164 H 0.62784 0.12141 0.73872 0.0
H165 H 0.61083 0.02361 0.74704 0.0
H166 H 0.59827 0.07974 0.79858 0.0
C167 C 0.6222 0.10175 0.74887 0.0
C168 C 0.61345 0.1044 0.7697 0.0
C169 C 0.6211 0.07262 0.74061 0.0
C170 C 0.61204 0.04624 0.75348 0.0
C171 C 0.60418 0.04908 0.77453 0.0
C172 C 0.60465 0.07793 0.78239 0.0
N173 N 0.5948 0.02323 0.78823 0.0
C174 C 0.59839 0.99587 0.78379 0.0
H175 H 0.55737 0.40317 0.08451 0.0
H176 H 0.432 0.35417 0.05712 0.0
H177 H 0.44798 0.32634 0.11652 0.0
C178 C 0.52321 0.38422 0.08486 0.0
C179 C 0.50587 0.36472 0.10225 0.0
C180 C 0.49691 0.38054 0.0684 0.0
C181 C 0.45283 0.35701 0.06954 0.0
C182 C 0.43516 0.33746 0.08685 0.0
C183 C 0.46166 0.34056 0.10287 0.0
N184 N 0.39148 0.31847 0.08948 0.0
C185 C 0.37382 0.33576 0.0865 0.0
H186 H 0.28741 0.55597 0.0786 0.0
H187 H 0.32404 0.53374 0.06338 0.0
H188 H 0.36862 0.53522 0.12533 0.0
H189 H 0.33283 0.55814 0.14058 0.0
H190 H 0.42068 0.54017 0.09405 0.0
H191 H 0.26928 0.46547 0.10861 0.0
H192 H 0.19937 0.45195 0.10381 0.0
H193 H 0.19931 0.43512 0.03711 0.0
H194 H 0.26958 0.44907 0.04156 0.0
H195 H 0.38721 0.38393 0.11721 0.0
H196 H 0.38331 0.43334 0.11398 0.0
H197 H 0.34077 0.39584 0.04847 0.0
H198 H 0.3449 0.34616 0.05177 0.0
H199 H 0.29451 0.41398 0.07012 0.0
H200 H 0.43749 0.46837 0.05877 0.0
H201 H 0.50729 0.48244 0.06524 0.0
H202 H 0.52471 0.53804 0.12557 0.0
H203 H 0.45468 0.52384 0.11964 0.0
C204 C 0.30696 0.55351 0.08892 0.0
C205 C 0.30636 0.55775 0.11079 0.0
C206 C 0.32782 0.5407 0.08018 0.0
C207 C 0.34792 0.53184 0.09327 0.0
C208 C 0.35296 0.54158 0.11495 0.0
C209 C 0.33224 0.55444 0.12368 0.0
C210 C 0.35347 0.50462 0.08553 0.0
C211 C 0.39334 0.51268 0.08855 0.0
C212 C 0.31778 0.46886 0.07801 0.0
C213 C 0.27463 0.45848 0.07539 0.0
C214 C 0.25426 0.45879 0.09293 0.0
C215 C 0.21467 0.45117 0.09028 0.0
C216 C 0.19495 0.44274 0.07016 0.0
C217 C 0.21466 0.4417 0.05267 0.0
C218 C 0.25434 0.44944 0.05525 0.0
C219 C 0.37638 0.38599 0.10224 0.0
C220 C 0.36565 0.36129 0.08482 0.0
C221 C 0.37465 0.41436 0.10032 0.0
C222 C 0.36243 0.41853 0.0809 0.0
C223 C 0.3505 0.39312 0.06354 0.0
C224 C 0.35252 0.36475 0.06546 0.0
C225 C 0.36157 0.44925 0.07923 0.0
C226 C 0.32237 0.44171 0.07466 0.0
C227 C 0.39794 0.4854 0.08528 0.0
C228 C 0.44063 0.49486 0.08878 0.0
C229 C 0.45605 0.48341 0.07348 0.0
C230 C 0.49563 0.49134 0.07707 0.0
C231 C 0.5203 0.51094 0.09584 0.0
C232 C 0.50552 0.52282 0.11104 0.0
C233 C 0.4659 0.51488 0.10756 0.0
H234 H 0.55095 0.51706 0.09858 0.0
H235 H 0.16438 0.43699 0.06812 0.0
H236 H 0.70946 0.20568 0.48317 0.0
H237 H 0.77154 0.26719 0.47903 0.0
H238 H 0.85294 0.23813 0.49075 0.0
H239 H 0.79089 0.17652 0.49534 0.0
H240 H 0.8874 0.3042 0.50964 0.0
H241 H 0.82545 0.24228 0.44075 0.0
H242 H 0.76668 0.20546 0.41306 0.0
H243 H 0.75175 0.28846 0.41418 0.0
H244 H 0.80997 0.32552 0.44215 0.0
H245 H 0.07093 0.4542 0.47053 0.0
H246 H 1.00857 0.39172 0.47358 0.0
H247 H 0.92714 0.42154 0.46438 0.0
H248 H 0.98971 0.48405 0.46111 0.0
H249 H 0.89273 0.35474 0.44369 0.0
H250 H 0.95352 0.41565 0.51317 0.0
H251 H 1.01067 0.45136 0.54169 0.0
H252 H 1.0272 0.36924 0.53943 0.0
H253 H 0.9705 0.33326 0.51068 0.0
C254 C 0.74056 0.21237 0.48508 0.0
C255 C 0.7451 0.186 0.48947 0.0
C256 C 0.77608 0.24759 0.48258 0.0
C257 C 0.81695 0.25718 0.48412 0.0
C258 C 0.82175 0.23136 0.48937 0.0
C259 C 0.7862 0.19612 0.49201 0.0
C260 C 0.85449 0.29384 0.47979 0.0
C261 C 0.88878 0.315 0.49508 0.0
C262 C 0.85606 0.30833 0.46095 0.0
C263 C 0.82188 0.28657 0.44368 0.0
C264 C 0.80952 0.25262 0.43516 0.0
C265 C 0.7763 0.23169 0.41942 0.0
C266 C 0.75545 0.24459 0.4119 0.0
C267 C 0.76791 0.2785 0.42004 0.0
C268 C 0.80105 0.2995 0.43583 0.0
C269 C 1.03961 0.44715 0.46883 0.0
C270 C 1.03482 0.47361 0.46553 0.0
C271 C 1.00405 0.41157 0.4707 0.0
C272 C 0.96311 0.40196 0.46951 0.0
C273 C 0.95833 0.42825 0.46537 0.0
C274 C 0.99398 0.46389 0.46351 0.0
C275 C 0.92565 0.36504 0.47355 0.0
C276 C 0.89137 0.34385 0.4582 0.0
C277 C 0.92409 0.35042 0.49231 0.0
C278 C 0.95807 0.37195 0.50964 0.0
C279 C 0.96957 0.40534 0.51865 0.0
C280 C 1.00184 0.42561 0.53487 0.0
C281 C 1.02263 0.41263 0.54233 0.0
C282 C 1.01111 0.37929 0.53361 0.0
C283 C 0.97889 0.35894 0.51737 0.0
H284 H 1.0476 0.42835 0.55489 0.0
H285 H 0.72968 0.22833 0.39974 0.0
H286 H 0.70268 0.79157 0.80758 0.0
H287 H 0.69359 0.83576 0.79802 0.0
H288 H 0.5608 0.76241 0.80824 0.0
H289 H 0.56976 0.71815 0.81833 0.0
H290 H 0.57715 0.79759 0.77168 0.0
H291 H 0.62424 0.82779 0.84496 0.0
H292 H 0.67124 0.84157 0.87586 0.0
H293 H 0.77655 0.9342 0.84978 0.0
H294 H 0.73027 0.92064 0.81856 0.0
H295 H 0.53494 0.92487 0.78402 0.0
H296 H 0.54203 0.87696 0.7863 0.0
H297 H 0.67726 0.95484 0.78284 0.0
H298 H 0.67003 1.00281 0.78085 0.0
H299 H 0.66002 0.91682 0.8149 0.0
H300 H 0.61306 0.88858 0.74218 0.0
H301 H 0.56673 0.87479 0.71098 0.0
H302 H 0.4622 0.77917 0.73528 0.0
H303 H 0.50776 0.79266 0.76679 0.0
C304 C 0.67155 0.78484 0.80795 0.0
C305 C 0.63706 0.75146 0.81401 0.0
C306 C 0.66638 0.81006 0.80234 0.0
C307 C 0.62663 0.80248 0.80263 0.0
C308 C 0.59173 0.76872 0.8079 0.0
C309 C 0.59691 0.74346 0.81362 0.0
C310 C 0.62212 0.83051 0.79831 0.0
C311 C 0.59483 0.82353 0.78124 0.0
C312 C 0.64603 0.86462 0.81051 0.0
C313 C 0.67388 0.87298 0.82933 0.0
C314 C 0.65749 0.85092 0.84574 0.0
C315 C 0.68399 0.85873 0.86332 0.0
C316 C 0.72688 0.88869 0.86475 0.0
C317 C 0.74333 0.91097 0.84863 0.0
C318 C 0.71698 0.90325 0.83099 0.0
C319 C 0.56597 0.93142 0.78331 0.0
C320 C 0.60195 0.96713 0.78212 0.0
C321 C 0.57003 0.90412 0.78457 0.0
C322 C 0.61016 0.91223 0.78459 0.0
C323 C 0.646 0.94795 0.78281 0.0
C324 C 0.64189 0.97523 0.78157 0.0
C325 C 0.61511 0.88412 0.78815 0.0
C326 C 0.64244 0.89102 0.80519 0.0
C327 C 0.59129 0.85003 0.77586 0.0
C328 C 0.56375 0.84184 0.75695 0.0
C329 C 0.5801 0.86478 0.74097 0.0
C330 C 0.55399 0.85698 0.7232 0.0
C331 C 0.51152 0.82617 0.72117 0.0
C332 C 0.49509 0.80305 0.73688 0.0
C333 C 0.52106 0.81074 0.75469 0.0
H334 H 0.49136 0.82018 0.7074 0.0
H335 H 0.74734 0.89469 0.87838 0.0
H336 H 0.83864 0.54416 0.20095 0.0
H337 H 0.762 0.5042 0.19556 0.0
H338 H 0.75968 0.41146 0.19736 0.0
H339 H 0.837 0.45138 0.20078 0.0
H340 H 0.71684 0.40057 0.16508 0.0
H341 H 0.7105 0.4348 0.23477 0.0
H342 H 0.72934 0.47477 0.26735 0.0
H343 H 0.69294 0.53057 0.23626 0.0
H344 H 0.67447 0.49136 0.2034 0.0
H345 H 0.50567 0.31615 0.12329 0.0
H346 H 0.55804 0.33015 0.15126 0.0
H347 H 0.62181 0.44422 0.14995 0.0
H348 H 0.56979 0.43041 0.12231 0.0
H349 H 0.62029 0.42589 0.19059 0.0
H350 H 0.65153 0.40281 0.1198 0.0
H351 H 0.63363 0.36309 0.08718 0.0
H352 H 0.62253 0.28448 0.12274 0.0
H353 H 0.63989 0.32364 0.15559 0.0
C354 C 0.82194 0.51527 0.2003 0.0
C355 C 0.84421 0.50106 0.20078 0.0
C356 C 0.77779 0.49233 0.19769 0.0
C357 C 0.75465 0.4546 0.19622 0.0
C358 C 0.7767 0.44044 0.19844 0.0
C359 C 0.82104 0.4634 0.20057 0.0
C360 C 0.70879 0.4305 0.18894 0.0
C361 C 0.69536 0.4053 0.17123 0.0
C362 C 0.68038 0.43645 0.19676 0.0
C363 C 0.69108 0.46004 0.21657 0.0
C364 C 0.70668 0.45569 0.23483 0.0
C365 C 0.71729 0.47823 0.25337 0.0
C366 C 0.71233 0.50519 0.25388 0.0
C367 C 0.69668 0.50963 0.23586 0.0
C368 C 0.68603 0.48718 0.21728 0.0
C369 C 0.53051 0.34412 0.1293 0.0
C370 C 0.53434 0.37227 0.12044 0.0
C371 C 0.56025 0.35206 0.14524 0.0
C372 C 0.59387 0.38822 0.15256 0.0
C373 C 0.59604 0.41615 0.14457 0.0
C374 C 0.56667 0.40827 0.12861 0.0
C375 C 0.63002 0.39785 0.16646 0.0
C376 C 0.64144 0.42024 0.18525 0.0
C377 C 0.65653 0.38914 0.15984 0.0
C378 C 0.64645 0.36586 0.14011 0.0
C379 C 0.645 0.37694 0.12064 0.0
C380 C 0.63498 0.35456 0.10213 0.0
C381 C 0.6268 0.32123 0.10289 0.0
C382 C 0.62876 0.31026 0.12217 0.0
C383 C 0.63867 0.33252 0.14074 0.0
H384 H 0.61907 0.30394 0.08854 0.0
H385 H 0.7206 0.52262 0.26824 0.0
H386 H 0.48479 0.97413 0.45813 0.0
H387 H 0.42117 0.91106 0.45549 0.0
H388 H 0.48939 0.88392 0.49023 0.0
H389 H 0.55341 0.94698 0.49282 0.0
H390 H 0.44127 0.83401 0.45677 0.0
H391 H 0.42016 0.89177 0.51382 0.0
H392 H 0.41638 0.93798 0.53164 0.0
H393 H 0.3154 0.90662 0.48687 0.0
H394 H 0.31901 0.86056 0.46858 0.0
H395 H 0.25433 0.6579 0.47173 0.0
H396 H 0.31931 0.72049 0.47964 0.0
H397 H 0.26243 0.75805 0.44515 0.0
H398 H 0.1975 0.69585 0.43747 0.0
H399 H 0.30623 0.80222 0.481 0.0
H400 H 0.32887 0.7458 0.42333 0.0
H401 H 0.33328 0.70019 0.40517 0.0
H402 H 0.43238 0.72981 0.45068 0.0
H403 H 0.42804 0.77526 0.46933 0.0
C404 C 0.4864 0.95479 0.46519 0.0
C405 C 0.52428 0.96574 0.47574 0.0
C406 C 0.44987 0.91872 0.46375 0.0
C407 C 0.45028 0.89278 0.4729 0.0
C408 C 0.48824 0.90345 0.48311 0.0
C409 C 0.52482 0.93957 0.4846 0.0
C410 C 0.4111 0.85454 0.47171 0.0
C411 C 0.41192 0.82698 0.4624 0.0
C412 C 0.37256 0.84539 0.47869 0.0
C413 C 0.37011 0.87292 0.48972 0.0
C414 C 0.39736 0.89491 0.50768 0.0
C415 C 0.39522 0.92105 0.51788 0.0
C416 C 0.36573 0.92529 0.51036 0.0
C417 C 0.33825 0.90333 0.49266 0.0
C418 C 0.34031 0.87717 0.48238 0.0
C419 C 0.2555 0.6796 0.46614 0.0
C420 C 0.2209 0.67192 0.45385 0.0
C421 C 0.29274 0.7153 0.47052 0.0
C422 C 0.29598 0.74397 0.46276 0.0
C423 C 0.2608 0.73644 0.45125 0.0
C424 C 0.22378 0.70084 0.44677 0.0
C425 C 0.3363 0.78169 0.46592 0.0
C426 C 0.33567 0.80919 0.47556 0.0
C427 C 0.375 0.79077 0.4592 0.0
C428 C 0.37758 0.76346 0.44796 0.0
C429 C 0.35124 0.74229 0.42963 0.0
C430 C 0.35379 0.71653 0.41921 0.0
C431 C 0.38292 0.71196 0.42684 0.0
C432 C 0.40967 0.73325 0.44486 0.0
C433 C 0.40715 0.75898 0.45536 0.0
H434 H 0.38489 0.69203 0.41874 0.0
H435 H 0.36411 0.94554 0.51828 0.0
H436 H 0.50604 0.29745 0.83839 0.0
H437 H 0.52069 0.25529 0.82799 0.0
H438 H 0.64495 0.34349 0.81198 0.0
H439 H 0.63169 0.38632 0.82339 0.0
H440 H 0.59446 0.27994 0.78037 0.0
H441 H 0.64451 0.3132 0.85321 0.0
H442 H 0.63926 0.32304 0.8909 0.0
H443 H 0.53317 0.21068 0.89031 0.0
H444 H 0.53735 0.20028 0.85251 0.0
H445 H 0.6683 0.17637 0.76425 0.0
H446 H 0.6633 0.22408 0.77669 0.0
H447 H 0.54925 0.14649 0.80586 0.0
H448 H 0.55417 0.09879 0.79356 0.0
H449 H 0.59911 0.20798 0.83115 0.0
H450 H 0.54547 0.17416 0.75892 0.0
H451 H 0.54785 0.16258 0.72108 0.0
H452 H 0.65644 0.27362 0.71998 0.0
H453 H 0.65513 0.28574 0.75794 0.0
C454 C 0.53682 0.30815 0.83304 0.0
C455 C 0.56766 0.34549 0.83181 0.0
C456 C 0.54496 0.28389 0.82692 0.0
C457 C 0.58386 0.29634 0.81922 0.0
C458 C 0.61462 0.33339 0.81777 0.0
C459 C 0.60681 0.35779 0.8242 0.0
C460 C 0.59225 0.27047 0.81274 0.0
C461 C 0.5962 0.26459 0.79148 0.0
C462 C 0.59346 0.24994 0.82722 0.0
C463 C 0.59098 0.25604 0.84998 0.0
C464 C 0.61981 0.29065 0.86107 0.0
C465 C 0.61708 0.29632 0.88246 0.0
C466 C 0.58583 0.26753 0.89298 0.0
C467 C 0.55732 0.23297 0.88214 0.0
C468 C 0.55988 0.22717 0.86073 0.0
C469 C 0.64213 0.1695 0.77328 0.0
C470 C 0.61159 0.13379 0.77789 0.0
C471 C 0.63932 0.19678 0.78039 0.0
C472 C 0.60562 0.18879 0.79202 0.0
C473 C 0.57559 0.15332 0.79697 0.0
C474 C 0.57849 0.1261 0.78997 0.0
C475 C 0.60105 0.21712 0.79869 0.0
C476 C 0.59771 0.22345 0.82 0.0
C477 C 0.59997 0.23781 0.7842 0.0
C478 C 0.60048 0.23076 0.76132 0.0
C479 C 0.57005 0.19605 0.75065 0.0
C480 C 0.57118 0.18939 0.72917 0.0
C481 C 0.60235 0.21732 0.71814 0.0
C482 C 0.63236 0.252 0.72856 0.0
C483 C 0.63143 0.25879 0.75005 0.0
H484 H 0.60318 0.2121 0.70151 0.0
H485 H 0.58377 0.27196 0.90955 0.0
H486 H 0.63928 0.87981 0.49348 0.0
H487 H 0.62244 0.82292 0.50255 0.0
H488 H 0.62415 0.85431 0.56772 0.0
H489 H 0.64018 0.91114 0.55859 0.0
H490 H 0.67474 0.83041 0.55894 0.0
H491 H 0.5342 0.79073 0.54637 0.0
H492 H 0.47317 0.78126 0.52784 0.0
H493 H 0.47735 0.72023 0.47608 0.0
H494 H 0.53892 0.72985 0.49413 0.0
H495 H 0.61123 0.65623 0.5808 0.0
H496 H 0.61424 0.71016 0.5807 0.0
H497 H 0.59455 0.69232 0.51317 0.0
H498 H 0.5909 0.63851 0.51339 0.0
H499 H 0.54713 0.70909 0.52893 0.0
H500 H 0.6938 0.75648 0.53941 0.0
H501 H 0.75446 0.7652 0.55789 0.0
H502 H 0.73867 0.81169 0.61341 0.0
H503 H 0.67756 0.80283 0.59531 0.0
C504 C 0.63566 0.87437 0.5097 0.0
C505 C 0.64095 0.89972 0.52535 0.0
C506 C 0.62594 0.84189 0.51486 0.0
C507 C 0.62194 0.83439 0.5358 0.0
C508 C 0.627 0.85959 0.55147 0.0
C509 C 0.63594 0.89186 0.54625 0.0
C510 C 0.61428 0.80083 0.54113 0.0
C511 C 0.64644 0.80379 0.55278 0.0
C512 C 0.57767 0.76623 0.5328 0.0
C513 C 0.54144 0.76126 0.52156 0.0
C514 C 0.52249 0.77569 0.53092 0.0
C515 C 0.48771 0.77021 0.52052 0.0
C516 C 0.47141 0.75016 0.5008 0.0
C517 C 0.49002 0.73575 0.49136 0.0
C518 C 0.52485 0.74119 0.50168 0.0
C519 C 0.60742 0.66397 0.56603 0.0
C520 C 0.60089 0.64361 0.54709 0.0
C521 C 0.60928 0.69473 0.56594 0.0
C522 C 0.6049 0.70547 0.54689 0.0
C523 C 0.59786 0.68458 0.52805 0.0
C524 C 0.59593 0.65396 0.52816 0.0
C525 C 0.60816 0.73864 0.54621 0.0
C526 C 0.57516 0.73563 0.5354 0.0
C527 C 0.64408 0.77319 0.55523 0.0
C528 C 0.68082 0.77858 0.5661 0.0
C529 C 0.70307 0.76829 0.55561 0.0
C530 C 0.73756 0.77331 0.56601 0.0
C531 C 0.75032 0.78888 0.58684 0.0
C532 C 0.72869 0.79956 0.59729 0.0
C533 C 0.69414 0.79457 0.58697 0.0
H534 H 0.77704 0.79275 0.59486 0.0
H535 H 0.4442 0.74561 0.49291 0.0
H536 H 0.66946 0.4917 0.85182 0.0
H537 H 0.72943 0.49017 0.85396 0.0
H538 H 0.81606 0.60571 0.85258 0.0
H539 H 0.75603 0.60718 0.84983 0.0
H540 H 0.84578 0.57914 0.83025 0.0
H541 H 0.79606 0.55837 0.89941 0.0
H542 H 0.74397 0.52733 0.92564 0.0
H543 H 0.72305 0.42817 0.90496 0.0
H544 H 0.77464 0.4585 0.87844 0.0
H545 H 1.03513 0.60291 0.86389 0.0
H546 H 0.9749 0.6038 0.85856 0.0
H547 H 0.88839 0.48922 0.86362 0.0
H548 H 0.94879 0.48897 0.86988 0.0
H549 H 0.85824 0.51512 0.88372 0.0
H550 H 0.90692 0.53442 0.81476 0.0
H551 H 0.95856 0.5643 0.78823 0.0
H552 H 0.98018 0.66417 0.80757 0.0
H553 H 0.92901 0.63499 0.83438 0.0
C554 C 0.70122 0.5169 0.85195 0.0
C555 C 0.7073 0.54962 0.85068 0.0
C556 C 0.73591 0.51604 0.85336 0.0
C557 C 0.77825 0.54793 0.85387 0.0
C558 C 0.78425 0.58053 0.8523 0.0
C559 C 0.74956 0.58137 0.85076 0.0
C560 C 0.81603 0.54743 0.85589 0.0
C561 C 0.84856 0.56546 0.84217 0.0
C562 C 0.82015 0.52893 0.87098 0.0
C563 C 0.78898 0.51065 0.88684 0.0
C564 C 0.78016 0.5299 0.90038 0.0
C565 C 0.7508 0.51245 0.91533 0.0
C566 C 0.73031 0.47584 0.91699 0.0
C567 C 0.73902 0.45655 0.90368 0.0
C568 C 0.76833 0.47386 0.8887 0.0
C569 C 1.00324 0.57773 0.86328 0.0
C570 C 0.9971 0.54566 0.86675 0.0
C571 C 0.96841 0.57817 0.86025 0.0
C572 C 0.92601 0.54643 0.86028 0.0
C573 C 0.92013 0.51429 0.86342 0.0
C574 C 0.95491 0.514 0.86674 0.0
C575 C 0.88806 0.54674 0.85802 0.0
C576 C 0.8555 0.52872 0.87174 0.0
C577 C 0.88378 0.56504 0.84284 0.0
C578 C 0.91445 0.58261 0.82671 0.0
C579 C 0.9229 0.56282 0.81344 0.0
C580 C 0.95205 0.57961 0.79834 0.0
C581 C 0.97273 0.61613 0.79626 0.0
C582 C 0.96419 0.6359 0.80922 0.0
C583 C 0.93509 0.61924 0.82436 0.0
H584 H 0.99529 0.62909 0.78456 0.0
H585 H 0.70763 0.4624 0.92859 0.0
H586 H 0.17817 0.69163 0.18442 0.0
H587 H 0.24365 0.75341 0.18817 0.0
H588 H 0.30763 0.7176 0.15592 0.0
H589 H 0.24155 0.65522 0.15178 0.0
H590 H 0.31706 0.78261 0.20858 0.0
H591 H 0.38708 0.78805 0.12981 0.0
H592 H 0.36249 0.75901 0.09336 0.0
H593 H 0.24326 0.73858 0.10056 0.0
H594 H 0.26736 0.76791 0.13693 0.0
H595 H 0.52813 0.94221 0.21569 0.0
H596 H 0.46644 0.87879 0.20728 0.0
H597 H 0.41196 0.90968 0.16491 0.0
H598 H 0.47376 0.97341 0.1733 0.0
H599 H 0.39817 0.84731 0.14892 0.0
H600 H 0.38062 0.89379 0.21362 0.0
H601 H 0.40171 0.9242 0.24976 0.0
H602 H 0.40858 0.843 0.27007 0.0
H603 H 0.38814 0.8124 0.23396 0.0
C604 C 0.20603 0.69669 0.17804 0.0
C605 C 0.20447 0.66828 0.1678 0.0
C606 C 0.24359 0.73217 0.18027 0.0
C607 C 0.28063 0.74032 0.17229 0.0
C608 C 0.27935 0.71209 0.16202 0.0
C609 C 0.24158 0.6764 0.15973 0.0
C610 C 0.32043 0.77836 0.17515 0.0
C611 C 0.33485 0.79662 0.19551 0.0
C612 C 0.34346 0.79697 0.15812 0.0
C613 C 0.32889 0.77982 0.13616 0.0
C614 C 0.35568 0.77747 0.12358 0.0
C615 C 0.34182 0.76095 0.10294 0.0
C616 C 0.30128 0.74684 0.09467 0.0
C617 C 0.27459 0.74938 0.107 0.0
C618 C 0.28832 0.76592 0.12764 0.0
C619 C 0.50304 0.93555 0.20457 0.0
C620 C 0.50564 0.96298 0.19539 0.0
C621 C 0.46785 0.89924 0.19972 0.0
C622 C 0.43425 0.88946 0.18568 0.0
C623 C 0.4375 0.91656 0.17578 0.0
C624 C 0.47284 0.95299 0.1806 0.0
C625 C 0.39479 0.85131 0.18234 0.0
C626 C 0.3805 0.8331 0.16196 0.0
C627 C 0.37132 0.83284 0.1993 0.0
C628 C 0.38327 0.85102 0.22105 0.0
C629 C 0.38693 0.88257 0.22577 0.0
C630 C 0.39873 0.89982 0.24625 0.0
C631 C 0.40659 0.88559 0.26219 0.0
C632 C 0.40255 0.85402 0.2577 0.0
C633 C 0.39083 0.8367 0.23723 0.0
H634 H 0.41573 0.89899 0.27804 0.0
H635 H 0.29059 0.73402 0.0787 0.0
H636 H 0.54219 0.22957 0.47458 0.0
H637 H 0.54918 0.28352 0.48703 0.0
H638 H 0.66906 0.32909 0.52051 0.0
H639 H 0.66307 0.27573 0.50763 0.0
H640 H 0.61473 0.33281 0.54488 0.0
H641 H 0.66871 0.36247 0.47727 0.0
H642 H 0.66712 0.35198 0.43893 0.0
H643 H 0.55488 0.34412 0.43115 0.0
H644 H 0.55545 0.35405 0.46949 0.0
H645 H 0.67063 0.50698 0.57326 0.0
H646 H 0.67089 0.45718 0.55926 0.0
H647 H 0.5595 0.41394 0.51824 0.0
H648 H 0.55962 0.46396 0.53191 0.0
H649 H 0.61254 0.41016 0.49759 0.0
H650 H 0.5553 0.37733 0.56427 0.0
H651 H 0.55389 0.38582 0.60254 0.0
H652 H 0.66808 0.3971 0.61207 0.0
H653 H 0.67049 0.38918 0.57382 0.0
C654 C 0.57047 0.2513 0.48426 0.0
C655 C 0.60206 0.24815 0.49007 0.0
C656 C 0.57429 0.28208 0.49146 0.0
C657 C 0.6097 0.31037 0.50465 0.0
C658 C 0.64138 0.30749 0.51042 0.0
C659 C 0.63777 0.27685 0.5031 0.0
C660 C 0.6131 0.34255 0.51283 0.0
C661 C 0.61493 0.3501 0.53457 0.0
C662 C 0.61222 0.36447 0.49934 0.0
C663 C 0.61191 0.35867 0.47627 0.0
C664 C 0.64349 0.35821 0.4674 0.0
C665 C 0.64281 0.35242 0.44566 0.0
C666 C 0.61086 0.3473 0.43261 0.0
C667 C 0.57959 0.34805 0.44128 0.0
C668 C 0.5801 0.35379 0.46301 0.0
C669 C 0.64614 0.48675 0.56131 0.0
C670 C 0.61509 0.48938 0.5537 0.0
C671 C 0.64626 0.45827 0.55333 0.0
C672 C 0.61488 0.43146 0.53785 0.0
C673 C 0.58411 0.43427 0.53012 0.0
C674 C 0.58423 0.46292 0.53794 0.0
C675 C 0.61393 0.40043 0.52971 0.0
C676 C 0.61253 0.39303 0.50795 0.0
C677 C 0.61476 0.3784 0.54318 0.0
C678 C 0.61331 0.38305 0.56618 0.0
C679 C 0.58029 0.3819 0.57453 0.0
C680 C 0.57928 0.38656 0.59621 0.0
C681 C 0.61094 0.3921 0.60972 0.0
C682 C 0.64361 0.39288 0.60158 0.0
C683 C 0.6448 0.38828 0.5799 0.0
H684 H 0.6101 0.3957 0.62651 0.0
H685 H 0.61039 0.34282 0.41579 0.0
H686 H 0.5208 0.60131 0.83958 0.0
H687 H 0.46036 0.60222 0.84138 0.0
H688 H 0.38903 0.5008 0.8679 0.0
H689 H 0.44893 0.49933 0.86558 0.0
H690 H 0.33665 0.49775 0.84239 0.0
H691 H 0.43714 0.58983 0.89719 0.0
H692 H 0.50654 0.64527 0.91216 0.0
H693 H 0.49679 0.70717 0.87036 0.0
H694 H 0.42749 0.652 0.85499 0.0
H695 H 0.16884 0.50201 0.87492 0.0
H696 H 0.23027 0.50201 0.87415 0.0
H697 H 0.30111 0.60298 0.84709 0.0
H698 H 0.23996 0.60319 0.8483 0.0
H699 H 0.35393 0.60651 0.87298 0.0
H700 H 0.25409 0.51523 0.81816 0.0
H701 H 0.18538 0.45998 0.80239 0.0
H702 H 0.19441 0.39681 0.84343 0.0
H703 H 0.26296 0.45179 0.85963 0.0
C704 C 0.49234 0.57915 0.84584 0.0
C705 C 0.49044 0.55031 0.85249 0.0
C706 C 0.4575 0.5798 0.84702 0.0
C707 C 0.41944 0.55188 0.85516 0.0
C708 C 0.41746 0.5229 0.86157 0.0
C709 C 0.45216 0.52213 0.86029 0.0
C710 C 0.3818 0.55253 0.85685 0.0
C711 C 0.34064 0.52149 0.8494 0.0
C712 C 0.38596 0.5835 0.86545 0.0
C713 C 0.42733 0.61674 0.87482 0.0
C714 C 0.44991 0.61524 0.89113 0.0
C715 C 0.4892 0.64661 0.89969 0.0
C716 C 0.5061 0.6797 0.89218 0.0
C717 C 0.48367 0.68151 0.87615 0.0
C718 C 0.44436 0.65021 0.86752 0.0
C719 C 0.19766 0.52438 0.86898 0.0
C720 C 0.19931 0.55271 0.86179 0.0
C721 C 0.23294 0.52424 0.86833 0.0
C722 C 0.27103 0.55222 0.8602 0.0
C723 C 0.27271 0.5809 0.85344 0.0
C724 C 0.2375 0.58104 0.85414 0.0
C725 C 0.30875 0.55167 0.8586 0.0
C726 C 0.34992 0.58273 0.86603 0.0
C727 C 0.30462 0.52075 0.84993 0.0
C728 C 0.26342 0.48768 0.84026 0.0
C729 C 0.24126 0.4896 0.82393 0.0
C730 C 0.20238 0.45833 0.81489 0.0
C731 C 0.18548 0.42492 0.82194 0.0
C732 C 0.2075 0.42271 0.83801 0.0
C733 C 0.24638 0.45391 0.84711 0.0
H734 H 0.15538 0.40074 0.81492 0.0
H735 H 0.53655 0.70395 0.89882 0.0
H736 H 0.99931 0.42568 0.14541 0.0
H737 H 0.93719 0.36404 0.14943 0.0
H738 H 0.88081 0.40567 0.18345 0.0
H739 H 0.94328 0.46747 0.1799 0.0
H740 H 0.87138 0.35391 0.20271 0.0
H741 H 0.84588 0.36554 0.13202 0.0
H742 H 0.86263 0.37923 0.09565 0.0
H743 H 0.87796 0.29659 0.086 0.0
H744 H 0.86185 0.28273 0.12242 0.0
H745 H 0.66305 0.18314 0.19712 0.0
H746 H 0.72487 0.2462 0.19455 0.0
H747 H 0.78741 0.20881 0.16235 0.0
H748 H 0.72541 0.14591 0.16475 0.0
H749 H 0.79241 0.2589 0.14227 0.0
H750 H 0.81805 0.24786 0.21349 0.0
H751 H 0.80044 0.23434 0.2498 0.0
H752 H 0.78347 0.31609 0.25831 0.0
H753 H 0.8004 0.32975 0.22193 0.0
C754 C 0.97359 0.42178 0.1536 0.0
C755 C 0.97632 0.45162 0.16224 0.0
C756 C 0.93795 0.38643 0.15585 0.0
C757 C 0.90395 0.38005 0.16656 0.0
C758 C 0.90654 0.40981 0.17513 0.0
C759 C 0.94228 0.44519 0.17299 0.0
C760 C 0.86617 0.34239 0.16917 0.0
C761 C 0.85374 0.33328 0.18945 0.0
C762 C 0.84351 0.31517 0.15195 0.0
C763 C 0.85304 0.32333 0.13001 0.0
C764 C 0.85313 0.35047 0.12219 0.0
C765 C 0.86246 0.35823 0.10156 0.0
C766 C 0.87146 0.33885 0.08854 0.0
C767 C 0.87103 0.3116 0.09611 0.0
C768 C 0.86176 0.30376 0.11674 0.0
C769 C 0.69034 0.1886 0.18978 0.0
C770 C 0.68996 0.16003 0.18127 0.0
C771 C 0.72562 0.22454 0.18832 0.0
C772 C 0.76102 0.23235 0.17836 0.0
C773 C 0.76057 0.20354 0.17009 0.0
C774 C 0.72534 0.16768 0.17157 0.0
C775 C 0.79785 0.27037 0.17581 0.0
C776 C 0.81003 0.27955 0.15553 0.0
C777 C 0.82011 0.29766 0.19301 0.0
C778 C 0.81006 0.28956 0.21491 0.0
C779 C 0.81022 0.26275 0.22305 0.0
C780 C 0.80042 0.2551 0.24365 0.0
C781 C 0.79073 0.27427 0.25634 0.0
C782 C 0.79092 0.30122 0.24846 0.0
C783 C 0.80065 0.30894 0.22785 0.0
H784 H 0.78315 0.26831 0.27229 0.0
H785 H 0.87868 0.3449 0.07257 0.0
H786 H 1.05935 0.51387 0.10385 0.0
H787 H 0.06382 0.50878 0.06589 0.0
H788 H 0.10135 0.61626 0.06433 0.0
H789 H 0.09641 0.62122 0.1022 0.0
H790 H 1.04145 0.57181 0.03445 0.0
H791 H 0.17607 0.59972 0.05592 0.0
H792 H 0.22407 0.59245 0.07479 0.0
H793 H 0.15048 0.48187 0.04747 0.0
H794 H 0.10261 0.48884 0.02799 0.0
H795 H 0.14254 0.5843 0.93142 0.0
H796 H 0.14673 0.58691 0.96973 0.0
H797 H 1.01146 0.5034 0.96727 0.0
H798 H 1.00707 0.5003 0.92908 0.0
H799 H 0.12361 0.53796 -0.00099 0.0
H800 H 0.97381 0.52855 0.00585 0.0
H801 H 0.93192 0.54094 0.9856 0.0
H802 H 1.04323 0.62267 0.95686 0.0
H803 H 0.08586 0.61115 0.97717 0.0
C804 C 0.06886 0.53649 0.0954 0.0
C805 C 0.07749 0.56794 0.10594 0.0
C806 C 0.07166 0.53365 0.07372 0.0
C807 C 0.08331 0.56226 0.0622 0.0
C808 C 0.0923 0.5938 0.07282 0.0
C809 C 0.08947 0.59663 0.09447 0.0
C810 C 0.08385 0.55868 0.03897 0.0
C811 C 1.05946 0.56441 0.02676 0.0
C812 C 0.10744 0.54921 0.0288 0.0
C813 C 0.1356 0.5447 0.0407 0.0
C814 C 0.17001 0.5738 0.05405 0.0
C815 C 0.19725 0.56975 0.0648 0.0
C816 C 0.19007 0.53658 0.06253 0.0
C817 C 0.15591 0.5075 0.04928 0.0
C818 C 0.12889 0.51156 0.03827 0.0
C819 C 0.11383 0.56594 0.939 0.0
C820 C 0.07439 0.54244 0.92719 0.0
C821 C 0.11626 0.56751 0.96091 0.0
C822 C 0.07932 0.54575 0.97138 0.0
C823 C 1.04029 0.52086 0.95955 0.0
C824 C 1.03783 0.51924 0.93771 0.0
C825 C 0.08099 0.55083 0.99462 0.0
C826 C 0.10558 0.54526 0.00677 0.0
C827 C 1.058 0.56092 0.00479 0.0
C828 C 1.03289 0.56871 0.99288 0.0
C829 C 0.98936 0.54928 0.99528 0.0
C830 C 0.96549 0.55614 0.98379 0.0
C831 C 0.98487 0.58249 0.9699 0.0
C832 C 1.02822 0.60218 0.96756 0.0
C833 C 1.05224 0.59548 0.97905 0.0
H834 H 0.96633 0.58771 0.96099 0.0
H835 H 0.21106 0.53341 0.07093 0.0
H836 H 0.72601 0.12104 0.42745 0.0
H837 H 0.72335 0.12951 0.39052 0.0
H838 H 0.5865 0.05699 0.38728 0.0
H839 H 0.5892 0.04957 0.42439 0.0
H840 H 0.69636 0.08431 0.35795 0.0
H841 H 0.54386 0.07532 0.35054 0.0
H842 H 0.50956 0.09516 0.37197 0.0
H843 H 0.62902 0.17874 0.40627 0.0
H844 H 0.66421 0.15989 0.3848 0.0
H845 H 0.59683 0.01219 0.25783 0.0
H846 H 0.61611 0.0282 0.29529 0.0
H847 H 0.64108 0.1306 0.29089 0.0
H848 H 0.61916 0.11368 0.25327 0.0
H849 H 0.60081 0.10401 0.32411 0.0
H850 H 0.72322 0.12544 0.29852 0.0
H851 H 0.76573 0.11383 0.27773 0.0
H852 H 0.72192 0.0218 0.31026 0.0
H853 H 0.67864 0.03252 0.33105 0.0
C854 C 0.69537 0.10721 0.41886 0.0
C855 C 0.65776 0.08445 0.42866 0.0
C856 C 0.6939 0.11205 0.39777 0.0
C857 C 0.65476 0.09405 0.38606 0.0
C858 C 0.61713 0.07175 0.39601 0.0
C859 C 0.61861 0.06727 0.41719 0.0
C860 C 0.65312 0.0965 0.36315 0.0
C861 C 0.67569 0.08889 0.35059 0.0
C862 C 0.62745 0.10384 0.35352 0.0
C863 C 0.60662 0.11597 0.36612 0.0
C864 C 0.56289 0.09811 0.36253 0.0
C865 C 0.54328 0.10916 0.37472 0.0
C866 C 0.56707 0.13813 0.3905 0.0
C867 C 0.61059 0.15625 0.39408 0.0
C868 C 0.63038 0.14538 0.3819 0.0
C869 C 0.60604 0.03803 0.26477 0.0
C870 C 0.6061 0.06151 0.25247 0.0
C871 C 0.61767 0.04739 0.28623 0.0
C872 C 0.63071 0.08087 0.29596 0.0
C873 C 0.63129 0.10466 0.28375 0.0
C874 C 0.61917 0.09511 0.2622 0.0
C875 C 0.64252 0.09012 0.31895 0.0
C876 C 0.62194 0.09997 0.33151 0.0
C877 C 0.67134 0.08625 0.32867 0.0
C878 C 0.69749 0.0797 0.31628 0.0
C879 C 0.72244 0.10259 0.30116 0.0
C880 C 0.7467 0.09618 0.28938 0.0
C881 C 0.74649 0.06707 0.29265 0.0
C882 C 0.72206 0.04434 0.30775 0.0
C883 C 0.69771 0.05061 0.31956 0.0
H884 H 0.76529 0.06215 0.28351 0.0
H885 H 0.5518 0.14659 0.39993 0.0
H886 H 0.52066 0.51821 0.78207 0.0
H887 H 0.53053 0.53005 0.74545 0.0
H888 H 0.66385 0.58123 0.75637 0.0
H889 H 0.65428 0.571 0.79344 0.0
H890 H 0.65512 0.61535 0.72967 0.0
H891 H 0.58973 0.49096 0.73424 0.0
H892 H 0.53714 0.42968 0.74445 0.0
H893 H 0.43801 0.41997 0.70909 0.0
H894 H 0.48995 0.48143 0.69891 0.0
H895 H 0.67674 0.57212 0.62189 0.0
H896 H 0.67417 0.57658 0.66011 0.0
H897 H 0.55495 0.55825 0.65231 0.0
H898 H 0.55783 0.55455 0.61412 0.0
H899 H 0.55808 0.50907 0.67705 0.0
H900 H 0.62994 0.63573 0.67138 0.0
H901 H 0.68685 0.69544 0.6606 0.0
H902 H 0.77956 0.69816 0.6973 0.0
H903 H 0.72323 0.63817 0.70805 0.0
C904 C 0.55214 0.53234 0.77668 0.0
C905 C 0.58661 0.5433 0.79043 0.0
C906 C 0.55775 0.53894 0.75573 0.0
C907 C 0.59771 0.5556 0.74793 0.0
C908 C 0.63264 0.56809 0.76194 0.0
C909 C 0.62717 0.56217 0.78308 0.0
C910 C 0.6024 0.55838 0.72506 0.0
C911 C 0.63416 0.592 0.71821 0.0
C912 C 0.57502 0.52799 0.70997 0.0
C913 C 0.54368 0.49094 0.71599 0.0
C914 C 0.55667 0.47586 0.72877 0.0
C915 C 0.52698 0.44108 0.73453 0.0
C916 C 0.48424 0.42098 0.72747 0.0
C917 C 0.47112 0.43559 0.71458 0.0
C918 C 0.50067 0.47039 0.70879 0.0
C919 C 0.65041 0.56971 0.6284 0.0
C920 C 0.61751 0.56306 0.61513 0.0
C921 C 0.64903 0.57233 0.65016 0.0
C922 C 0.6144 0.56778 0.65897 0.0
C923 C 0.582 0.56199 0.64577 0.0
C924 C 0.58377 0.56005 0.62402 0.0
C925 C 0.61025 0.56599 0.68179 0.0
C926 C 0.57879 0.53241 0.68859 0.0
C927 C 0.63852 0.59615 0.69673 0.0
C928 C 0.67239 0.63227 0.69034 0.0
C929 C 0.6625 0.64888 0.67698 0.0
C930 C 0.69465 0.68282 0.67092 0.0
C931 C 0.73681 0.70054 0.67821 0.0
C932 C 0.74689 0.68439 0.69164 0.0
C933 C 0.71486 0.65043 0.69774 0.0
H934 H 0.76166 0.72682 0.6735 0.0
H935 H 0.46131 0.39406 0.73195 0.0
H936 H 0.68255 0.1038 0.54405 0.0
H937 H 0.68767 0.09989 0.58164 0.0
H938 H 0.5515 0.0348 0.58156 0.0
H939 H 0.54644 0.0392 0.54413 0.0
H940 H 0.58635 0.08528 0.61292 0.0
H941 H 0.60192 0.99557 0.58852 0.0
H942 H 0.63076 0.96964 0.56814 0.0
H943 H 0.75574 0.05454 0.59681 0.0
H944 H 0.72735 0.0806 0.61776 0.0
H945 H 0.56491 0.01627 0.7114 0.0
H946 H 0.56808 0.01447 0.67321 0.0
H947 H 0.69175 0.11863 0.68092 0.0
H948 H 0.68813 0.12108 0.71912 0.0
H949 H 0.66504 0.04834 0.64639 0.0
H950 H 0.64214 0.13736 0.67065 0.0
H951 H 0.60527 0.15453 0.69214 0.0
H952 H 0.48519 0.06191 0.66254 0.0
H953 H 0.52141 0.04384 0.64117 0.0
C954 C 0.65375 0.08835 0.55205 0.0
C955 C 0.61411 0.07184 0.54125 0.0
C956 C 0.65665 0.086 0.5735 0.0
C957 C 0.61992 0.06684 0.58445 0.0
C958 C 0.58029 0.04983 0.5735 0.0
C959 C 0.57742 0.05232 0.55212 0.0
C960 C 0.62284 0.06607 0.60749 0.0
C961 C 0.60335 0.07694 0.62012 0.0
C962 C 0.64519 0.05545 0.61707 0.0
C963 C 0.66262 0.04022 0.6045 0.0
C964 C 0.6356 0.00883 0.59037 0.0
C965 C 0.65185 0.99407 0.57874 0.0
C966 C 0.69515 0.01063 0.58096 0.0
C967 C 0.72223 0.0418 0.59503 0.0
C968 C 0.70604 0.05646 0.6069 0.0
C969 C 0.59315 0.03834 0.70493 0.0
C970 C 0.62629 0.06881 0.71808 0.0
C971 C 0.5949 0.0373 0.68319 0.0
C972 C 0.63015 0.06641 0.67437 0.0
C973 C 0.66443 0.09588 0.68752 0.0
C974 C 0.66229 0.09729 0.70924 0.0
C975 C 0.62891 0.06779 0.6515 0.0
C976 C 0.64849 0.05695 0.63902 0.0
C977 C 0.60608 0.07786 0.64197 0.0
C978 C 0.58441 0.08904 0.65453 0.0
C979 C 0.60786 0.12048 0.66889 0.0
C980 C 0.5871 0.13041 0.68102 0.0
C981 C 0.54291 0.10927 0.67875 0.0
C982 C 0.51941 0.07822 0.66431 0.0
C983 C 0.54003 0.06812 0.65219 0.0
H984 H 0.52688 0.117 0.68812 0.0
H985 H 0.70765 0.9992 0.57185 0.0
H986 H 0.67642 0.59256 0.91947 0.0
H987 H 0.66535 0.5657 0.95243 0.0
H988 H 0.53488 0.47979 0.9305 0.0
H989 H 0.54519 0.50716 0.89802 0.0
H990 H 0.60073 0.54684 0.98229 0.0
H991 H 0.52293 0.40057 0.94319 0.0
H992 H 0.52789 0.37143 0.91103 0.0
H993 H 0.65362 0.46803 0.90537 0.0
H994 H 0.6504 0.49715 0.93802 0.0
H995 H 0.47179 0.41551 0.04958 0.0
H996 H 0.50184 0.45161 0.02029 0.0
H997 H 0.59505 0.43331 0.01823 0.0
H998 H 0.56414 0.396 0.04716 0.0
H999 H 0.56273 0.42442 0.98002 0.0
H1000 H 0.62311 0.51563 0.03793 0.0
H1001 H 0.62575 0.5487 0.07048 0.0
H1002 H 0.54605 0.56736 0.03946 0.0
H1003 H 0.54247 0.53402 0.00678 0.0
C1004 C 0.64535 0.56809 0.92179 0.0
C1005 C 0.61177 0.55163 0.90616 0.0
C1006 C 0.63909 0.55288 0.94057 0.0
C1007 C 0.59946 0.52066 0.94369 0.0
C1008 C 0.56579 0.5045 0.92822 0.0
C1009 C 0.57178 0.52007 0.90968 0.0
C1010 C 0.59288 0.50333 0.963 0.0
C1011 C 0.59258 0.52015 0.9819 0.0
C1012 C 0.58347 0.46899 0.9624 0.0
C1013 C 0.58614 0.45124 0.94299 0.0
C1014 C 0.55181 0.4155 0.93522 0.0
C1015 C 0.55442 0.39893 0.91694 0.0
C1016 C 0.59115 0.41785 0.90624 0.0
C1017 C 0.62533 0.45336 0.91377 0.0
C1018 C 0.62313 0.46989 0.93218 0.0
C1019 C 0.49844 0.41886 0.04279 0.0
C1020 C 0.51549 0.40276 0.05066 0.0
C1021 C 0.51594 0.43991 0.0262 0.0
C1022 C 0.55106 0.44556 0.01724 0.0
C1023 C 0.56809 0.42945 0.02499 0.0
C1024 C 0.55056 0.40833 0.04159 0.0
C1025 C 0.56891 0.46729 -0.0007 0.0
C1026 C 0.57125 0.45125 0.98057 0.0
C1027 C 0.58104 0.50269 0.00016 0.0
C1028 C 0.58242 0.5222 0.01991 0.0
C1029 C 0.60589 0.52655 0.03808 0.0
C1030 C 0.60767 0.54545 0.05654 0.0
C1031 C 0.5863 0.56031 0.05699 0.0
C1032 C 0.5628 0.55603 0.03904 0.0
C1033 C 0.56091 0.53715 0.02054 0.0
H1034 H 0.58777 0.57498 0.07129 0.0
H1035 H 0.59322 0.40501 0.89214 0.0
H1036 H 0.11511 0.6017 0.22066 0.0
H1037 H 0.11107 0.60514 0.25865 0.0
H1038 H 0.08878 0.50308 0.25908 0.0
H1039 H 0.09076 0.49876 0.22098 0.0
H1040 H 1.04033 0.50536 0.28503 0.0
H1041 H 0.188 0.58563 0.27312 0.0
H1042 H 0.25133 0.63592 0.25786 0.0
H1043 H 0.23332 0.71039 0.28714 0.0
H1044 H 0.16953 0.66043 0.30236 0.0
H1045 H 0.11002 0.52857 0.39352 0.0
H1046 H 0.09704 0.51811 0.35524 0.0
H1047 H 0.10794 0.61517 0.35527 0.0
H1048 H 0.1205 0.62556 0.39342 0.0
H1049 H 0.1603 0.61494 0.32918 0.0
H1050 H 1.01351 0.53306 0.34273 0.0
H1051 H 0.95157 0.48182 0.35819 0.0
H1052 H 0.97006 0.40925 0.32635 0.0
H1053 H 1.03252 0.46016 0.31093 0.0
C1054 C 0.10875 0.57979 0.22884 0.0
C1055 C 0.10311 0.54992 0.21791 0.0
C1056 C 0.10683 0.58191 0.25057 0.0
C1057 C 0.10021 0.55459 0.2618 0.0
C1058 C 0.09392 0.52447 0.25079 0.0
C1059 C 0.09533 0.52215 0.22905 0.0
C1060 C 0.10102 0.55783 0.28505 0.0
C1061 C 0.06677 0.52917 0.2947 0.0
C1062 C 0.13521 0.58908 0.2977 0.0
C1063 C 0.17375 0.61923 0.2887 0.0
C1064 C 0.19739 0.61269 0.27619 0.0
C1065 C 0.23338 0.64114 0.26756 0.0
C1066 C 0.24627 0.67631 0.27148 0.0
C1067 C 0.22326 0.68312 0.28409 0.0
C1068 C 0.1872 0.65476 0.29274 0.0
C1069 C 0.10854 0.54713 0.3854 0.0
C1070 C 0.11671 0.57808 0.39645 0.0
C1071 C 0.10123 0.54119 0.36353 0.0
C1072 C 0.10172 0.56598 0.3524 0.0
C1073 C 0.10775 0.59586 0.36352 0.0
C1074 C 0.11497 0.60177 0.38531 0.0
C1075 C 0.09954 0.56259 0.32916 0.0
C1076 C 0.13372 0.59121 0.31952 0.0
C1077 C 0.06554 0.53116 0.31659 0.0
C1078 C 1.02796 0.5005 0.32583 0.0
C1079 C 1.00461 0.50623 0.33917 0.0
C1080 C 0.96935 0.47723 0.34789 0.0
C1081 C 0.95696 0.44231 0.3433 0.0
C1082 C 0.97973 0.43631 0.32992 0.0
C1083 C 1.01504 0.46523 0.32116 0.0
H1084 H 0.92965 0.4199 0.35007 0.0
H1085 H 0.27414 0.6983 0.26478 0.0
loop_
_geom_bond_atom_site_label_1
_geom_bond_atom_site_label_2
_geom_bond_distance
_geom_bond_site_symmetry_2
_ccdc_geom_bond_type
La0 C2 2.928 . S
La0 O20 2.521 . S
La0 O21 2.628 . S
La0 O22 2.554 . S
La0 O23 2.757 . S
La0 O24 2.470 . S
La0 O29 2.482 . S
La0 O31 2.503 1_455 S
La1 C11 2.928 1_455 S
La1 O23 2.482 . S
La1 O25 2.503 . S
La1 O26 2.521 1_455 S
La1 O27 2.628 1_455 S
La1 O28 2.554 . S
La1 O29 2.757 . S
La1 O30 2.470 1_455 S
C2 La0 2.928 . S
C2 C3 1.503 . S
C2 O20 1.261 . S
C2 O21 1.243 . S
C3 C2 1.503 . S
C3 C4 1.394 . S
C3 C8 1.373 . S
C4 C3 1.394 . S
C4 C5 1.380 . S
C4 H32 0.930 . S
C5 C4 1.380 . S
C5 C6 1.376 . S
C5 H33 0.930 . S
C6 C5 1.376 . S
C6 C7 1.370 . S
C7 C6 1.370 . S
C7 C8 1.396 . S
C7 H34 0.929 . S
C8 C3 1.373 . S
C8 C7 1.396 . S
C8 H35 0.929 . S
C9 O22 1.240 . S
C9 O23 1.289 . S
C10 O24 1.258 . S
C10 O25 1.256 . S
C11 La1 2.928 1_655 S
C11 C12 1.503 . S
C11 O26 1.261 . S
C11 O27 1.243 . S
C12 C11 1.503 . S
C12 C13 1.394 . S
C12 C17 1.373 . S
C13 C12 1.394 . S
C13 C14 1.380 . S
C13 H36 0.930 . S
C14 C13 1.380 . S
C14 C15 1.376 . S
C14 H37 0.930 . S
C15 C14 1.376 . S
C15 C16 1.370 . S
C16 C15 1.370 . S
C16 C17 1.396 . S
C16 H38 0.929 . S
C17 C12 1.373 . S
C17 C16 1.396 . S
C17 H39 0.929 . S
C18 O28 1.240 . S
C18 O29 1.289 . S
C19 O30 1.258 . S
C19 O31 1.256 . S
O20 La0 2.521 . S
O20 C2 1.261 . S
O21 La0 2.628 . S
O21 C2 1.243 . S
O22 La0 2.554 . S
O22 C9 1.240 . S
O23 La0 2.757 . S
O23 La1 2.482 . S
O23 C9 1.289 . S
O24 La0 2.470 . S
O24 C10 1.258 . S
O25 La1 2.503 . S
O25 C10 1.256 . S
O26 La1 2.521 1_655 S
O26 C11 1.261 . S
O27 La1 2.628 1_655 S
O27 C11 1.243 . S
O28 La1 2.554 . S
O28 C18 1.240 . S
O29 La0 2.482 . S
O29 La1 2.757 . S
O29 C18 1.289 . S
O30 La1 2.470 1_655 S
O30 C19 1.258 . S
O31 La0 2.503 1_655 S
O31 C19 1.256 . S
H32 C4 0.930 . S
H33 C5 0.930 . S
H34 C7 0.929 . S
H35 C8 0.929 . S
H36 C13 0.930 . S
H37 C14 0.930 . S
H38 C16 0.929 . S
H39 C17 0.929 . S
La40 C42 2.928 1_545 S
La40 O60 2.521 1_545 S
La40 O61 2.628 1_545 S
La40 O62 2.554 . S
La40 O63 2.757 . S
La40 O64 2.470 1_545 S
La40 O69 2.482 . S
La40 O71 2.503 . S
La41 C51 2.928 . S
La41 O63 2.482 . S
La41 O65 2.503 1_545 S
La41 O66 2.521 . S
La41 O67 2.628 . S
La41 O68 2.554 . S
La41 O69 2.757 . S
La41 O70 2.470 . S
C42 La40 2.928 1_565 S
C42 C43 1.503 . S
C42 O60 1.261 . S
C42 O61 1.243 . S
C43 C42 1.503 . S
C43 C44 1.394 . S
C43 C48 1.373 . S
C44 C43 1.394 . S
C44 C45 1.380 . S
C44 H72 0.930 . S
C45 C44 1.380 . S
C45 C46 1.376 . S
C45 H73 0.930 . S
C46 C45 1.376 . S
C46 C47 1.370 . S
C47 C46 1.370 . S
C47 C48 1.396 . S
C47 H74 0.929 . S
C48 C43 1.373 . S
C48 C47 1.396 . S
C48 H75 0.929 . S
C49 O62 1.240 . S
C49 O63 1.289 . S
C50 O64 1.258 . S
C50 O65 1.256 . S
C51 La41 2.928 . S
C51 C52 1.503 . S
C51 O66 1.261 . S
C51 O67 1.243 . S
C52 C51 1.503 . S
C52 C53 1.394 . S
C52 C57 1.373 . S
C53 C52 1.394 . S
C53 C54 1.380 . S
C53 H76 0.930 . S
C54 C53 1.380 . S
C54 C55 1.376 . S
C54 H77 0.930 . S
C55 C54 1.376 . S
C55 C56 1.370 . S
C56 C55 1.370 . S
C56 C57 1.396 . S
C56 H78 0.929 . S
C57 C52 1.373 . S
C57 C56 1.396 . S
C57 H79 0.929 . S
C58 O68 1.240 . S
C58 O69 1.289 . S
C59 O70 1.258 . S
C59 O71 1.256 . S
O60 La40 2.521 1_565 S
O60 C42 1.261 . S
O61 La40 2.628 1_565 S
O61 C42 1.243 . S
O62 La40 2.554 . S
O62 C49 1.240 . S
O63 La40 2.757 . S
O63 La41 2.482 . S
O63 C49 1.289 . S
O64 La40 2.470 1_565 S
O64 C50 1.258 . S
O65 La41 2.503 1_565 S
O65 C50 1.256 . S
O66 La41 2.521 . S
O66 C51 1.261 . S
O67 La41 2.628 . S
O67 C51 1.243 . S
O68 La41 2.554 . S
O68 C58 1.240 . S
O69 La40 2.482 . S
O69 La41 2.757 . S
O69 C58 1.289 . S
O70 La41 2.470 . S
O70 C59 1.258 . S
O71 La40 2.503 . S
O71 C59 1.256 . S
H72 C44 0.930 . S
H73 C45 0.930 . S
H74 C47 0.929 . S
H75 C48 0.929 . S
H76 C53 0.930 . S
H77 C54 0.930 . S
H78 C56 0.929 . S
H79 C57 0.929 . S
La80 C82 2.928 . S
La80 O100 2.521 . S
La80 O101 2.628 . S
La80 O102 2.554 . S
La80 O103 2.757 . S
La80 O104 2.470 . S
La80 O109 2.482 . S
La80 O111 2.503 . S
La81 C91 2.928 . S
La81 O103 2.482 . S
La81 O105 2.503 . S
La81 O106 2.521 . S
La81 O107 2.628 . S
La81 O108 2.554 . S
La81 O109 2.757 . S
La81 O110 2.470 . S
C82 La80 2.928 . S
C82 C83 1.503 . S
C82 O100 1.261 . S
C82 O101 1.243 . S
C83 C82 1.503 . S
C83 C84 1.394 . S
C83 C88 1.373 . S
C84 C83 1.394 . S
C84 C85 1.380 . S
C84 H112 0.930 . S
C85 C84 1.380 . S
C85 C86 1.376 . S
C85 H113 0.930 . S
C86 C85 1.376 . S
C86 C87 1.370 . S
C87 C86 1.370 . S
C87 C88 1.396 . S
C87 H114 0.929 . S
C88 C83 1.373 . S
C88 C87 1.396 . S
C88 H115 0.929 . S
C89 O102 1.240 . S
C89 O103 1.289 . S
C90 O104 1.258 . S
C90 O105 1.256 . S
C91 La81 2.928 . S
C91 C92 1.503 . S
C91 O106 1.261 . S
C91 O107 1.243 . S
C92 C91 1.503 . S
C92 C93 1.394 . S
C92 C97 1.373 . S
C93 C92 1.394 . S
C93 C94 1.380 . S
C93 H116 0.930 . S
C94 C93 1.380 . S
C94 C95 1.376 . S
C94 H117 0.930 . S
C95 C94 1.376 . S
C95 C96 1.370 . S
C96 C95 1.370 . S
C96 C97 1.396 . S
C96 H118 0.929 . S
C97 C92 1.373 . S
C97 C96 1.396 . S
C97 H119 0.929 . S
C98 O108 1.240 . S
C98 O109 1.289 . S
C99 O110 1.258 . S
C99 O111 1.256 . S
O100 La80 2.521 . S
O100 C82 1.261 . S
O101 La80 2.628 . S
O101 C82 1.243 . S
O102 La80 2.554 . S
O102 C89 1.240 . S
O103 La80 2.757 . S
O103 La81 2.482 . S
O103 C89 1.289 . S
O104 La80 2.470 . S
O104 C90 1.258 . S
O105 La81 2.503 . S
O105 C90 1.256 . S
O106 La81 2.521 . S
O106 C91 1.261 . S
O107 La81 2.628 . S
O107 C91 1.243 . S
O108 La81 2.554 . S
O108 C98 1.240 . S
O109 La80 2.482 . S
O109 La81 2.757 . S
O109 C98 1.289 . S
O110 La81 2.470 . S
O110 C99 1.258 . S
O111 La80 2.503 . S
O111 C99 1.256 . S
H112 C84 0.930 . S
H113 C85 0.930 . S
H114 C87 0.929 . S
H115 C88 0.929 . S
H116 C93 0.930 . S
H117 C94 0.930 . S
H118 C96 0.929 . S
H119 C97 0.929 . S
H120 C123 0.929 1_565 S
H121 C126 0.929 . S
H122 C128 0.930 . S
C123 H120 0.929 1_545 S
C123 C124 1.398 . S
C123 C125 1.396 . S
C124 C123 1.398 . S
C124 C128 1.407 . S
C125 C123 1.396 . S
C125 C126 1.394 . S
C126 H121 0.929 . S
C126 C125 1.394 . S
C126 C127 1.382 . S
C127 C126 1.382 . S
C127 C128 1.392 . S
C127 N129 1.420 . S
C128 H122 0.930 . S
C128 C124 1.407 . S
C128 C127 1.392 . S
N129 C127 1.420 . S
N129 C130 1.244 . S
C130 N129 1.244 . S
H131 C134 0.929 . S
H132 C137 0.929 . S
H133 C139 0.930 . S
C134 H131 0.929 . S
C134 C135 1.398 . S
C134 C136 1.396 . S
C135 C134 1.398 . S
C135 C139 1.407 . S
C136 C134 1.396 . S
C136 C137 1.394 . S
C137 H132 0.929 . S
C137 C136 1.394 . S
C137 C138 1.382 . S
C138 C137 1.382 . S
C138 C139 1.392 . S
C138 N140 1.420 . S
C139 H133 0.930 . S
C139 C135 1.407 . S
C139 C138 1.392 . S
N140 C138 1.420 . S
N140 C141 1.244 . S
C141 N140 1.244 . S
H142 C145 0.929 . S
H143 C148 0.929 . S
H144 C150 0.930 . S
C145 H142 0.929 . S
C145 C146 1.398 . S
C145 C147 1.396 . S
C146 C145 1.398 . S
C146 C150 1.407 . S
C147 C145 1.396 . S
C147 C148 1.394 . S
C148 H143 0.929 . S
C148 C147 1.394 . S
C148 C149 1.382 . S
C149 C148 1.382 . S
C149 C150 1.392 . S
C149 N151 1.420 . S
C150 H144 0.930 . S
C150 C146 1.407 . S
C150 C149 1.392 . S
N151 C149 1.420 . S
N151 C152 1.244 . S
C152 N151 1.244 . S
H153 C156 0.929 . S
H154 C159 0.929 . S
H155 C161 0.930 . S
C156 H153 0.929 . S
C156 C157 1.398 . S
C156 C158 1.396 . S
C157 C156 1.398 . S
C157 C161 1.407 . S
C158 C156 1.396 . S
C158 C159 1.394 1_455 S
C159 H154 0.929 . S
C159 C158 1.394 1_655 S
C159 C160 1.382 . S
C160 C159 1.382 . S
C160 C161 1.392 1_655 S
C160 N162 1.420 . S
C161 H155 0.930 . S
C161 C157 1.407 . S
C161 C160 1.392 1_455 S
N162 C160 1.420 . S
N162 C163 1.244 . S
C163 N162 1.244 . S
H164 C167 0.929 . S
H165 C170 0.920 1_565 S
H166 C172 0.930 . S
C167 H164 0.929 . S
C167 C168 1.398 . S
C167 C169 1.396 . S
C168 C167 1.398 . S
C168 C172 1.407 . S
C169 C167 1.396 . S
C169 C170 1.394 . S
C170 H165 0.920 1_545 S
C170 C169 1.394 . S
C170 C171 1.382 . S
C171 C170 1.382 . S
C171 C172 1.392 . S
C171 N173 1.420 . S
C172 H166 0.930 . S
C172 C168 1.407 . S
C172 C171 1.392 . S
N173 C171 1.420 . S
N173 C174 1.244 1_545 S
C174 N173 1.244 1_565 S
H175 C178 0.929 . S
H176 C181 0.929 . S
H177 C183 0.930 . S
C178 H175 0.929 . S
C178 C179 1.398 . S
C178 C180 1.396 . S
C179 C178 1.398 . S
C179 C183 1.407 . S
C180 C178 1.396 . S
C180 C181 1.394 . S
C181 H176 0.929 . S
C181 C180 1.394 . S
C181 C182 1.382 . S
C182 C181 1.382 . S
C182 C183 1.392 . S
C182 N184 1.420 . S
C183 H177 0.930 . S
C183 C179 1.407 . S
C183 C182 1.392 . S
N184 C182 1.420 . S
N184 C185 1.244 . S
C185 N184 1.244 . S
H186 C204 0.951 . S
H187 C206 0.951 . S
H188 C208 0.950 . S
H189 C209 0.950 . S
H190 C211 0.950 . S
H191 C214 0.950 . S
H192 C215 0.950 . S
H193 C217 0.950 . S
H194 C218 0.950 . S
H195 C219 0.951 . S
H196 C221 0.951 . S
H197 C223 0.950 . S
H198 C224 0.950 . S
H199 C226 0.950 . S
H200 C229 0.950 . S
H201 C230 0.950 . S
H202 C232 0.950 . S
H203 C233 0.950 . S
C204 H186 0.951 . S
C204 C205 1.366 . S
C204 C206 1.388 . S
C205 C204 1.366 . S
C205 C209 1.385 . S
C206 H187 0.951 . S
C206 C204 1.388 . S
C206 C207 1.366 . S
C207 C206 1.366 . S
C207 C208 1.414 . S
C207 C210 1.499 . S
C208 H188 0.950 . S
C208 C207 1.414 . S
C208 C209 1.374 . S
C209 H189 0.950 . S
C209 C205 1.385 . S
C209 C208 1.374 . S
C210 C207 1.499 . S
C210 C211 1.373 . S
C210 C212 1.389 . S
C211 H190 0.950 . S
C211 C210 1.373 . S
C211 C227 1.377 . S
C212 C210 1.389 . S
C212 C213 1.524 . S
C212 C226 1.377 . S
C213 C212 1.524 . S
C213 C214 1.397 . S
C213 C218 1.363 . S
C214 H191 0.950 . S
C214 C213 1.397 . S
C214 C215 1.334 . S
C215 H192 0.950 . S
C215 C214 1.334 . S
C215 C216 1.287 . S
C216 C215 1.287 . S
C216 C217 1.524 . S
C216 H235 0.913 . S
C217 H193 0.950 . S
C217 C216 1.524 . S
C217 C218 1.415 . S
C218 H194 0.950 . S
C218 C213 1.363 . S
C218 C217 1.415 . S
C219 H195 0.951 . S
C219 C220 1.366 . S
C219 C221 1.388 . S
C220 C219 1.366 . S
C220 C224 1.385 . S
C221 H196 0.951 . S
C221 C219 1.388 . S
C221 C222 1.366 . S
C222 C221 1.366 . S
C222 C223 1.414 . S
C222 C225 1.499 . S
C223 H197 0.950 . S
C223 C222 1.414 . S
C223 C224 1.374 . S
C224 H198 0.950 . S
C224 C220 1.385 . S
C224 C223 1.374 . S
C225 C222 1.499 . S
C225 C226 1.373 . S
C225 C227 1.389 . S
C226 H199 0.950 . S
C226 C212 1.377 . S
C226 C225 1.373 . S
C227 C211 1.377 . S
C227 C225 1.389 . S
C227 C228 1.524 . S
C228 C227 1.524 . S
C228 C229 1.397 . S
C228 C233 1.363 . S
C229 H200 0.950 . S
C229 C228 1.397 . S
C229 C230 1.334 . S
C230 H201 0.950 . S
C230 C229 1.334 . S
C230 C231 1.287 . S
C231 C230 1.287 . S
C231 C232 1.524 . S
C231 H234 0.999 . S
C232 H202 0.950 . S
C232 C231 1.524 . S
C232 C233 1.415 . S
C233 H203 0.950 . S
C233 C228 1.363 . S
C233 C232 1.415 . S
H234 C231 0.999 . S
H235 C216 0.913 . S
H236 C254 0.951 . S
H237 C256 0.951 . S
H238 C258 0.950 . S
H239 C259 0.950 . S
H240 C261 0.950 . S
H241 C264 0.950 . S
H242 C265 0.950 . S
H243 C267 0.950 . S
H244 C268 0.950 . S
H245 C269 0.951 . S
H246 C271 0.951 . S
H247 C273 0.950 . S
H248 C274 0.950 . S
H249 C276 0.950 . S
H250 C279 0.950 . S
H251 C280 0.950 . S
H252 C282 0.950 . S
H253 C283 0.950 . S
C254 H236 0.951 . S
C254 C255 1.366 . S
C254 C256 1.388 . S
C255 C254 1.366 . S
C255 C259 1.385 . S
C256 H237 0.951 . S
C256 C254 1.388 . S
C256 C257 1.366 . S
C257 C256 1.366 . S
C257 C258 1.414 . S
C257 C260 1.499 . S
C258 H238 0.950 . S
C258 C257 1.414 . S
C258 C259 1.374 . S
C259 H239 0.950 . S
C259 C255 1.385 . S
C259 C258 1.374 . S
C260 C257 1.499 . S
C260 C261 1.373 . S
C260 C262 1.389 . S
C261 H240 0.950 . S
C261 C260 1.373 . S
C261 C277 1.377 . S
C262 C260 1.389 . S
C262 C263 1.524 . S
C262 C276 1.377 . S
C263 C262 1.524 . S
C263 C264 1.397 . S
C263 C268 1.363 . S
C264 H241 0.950 . S
C264 C263 1.397 . S
C264 C265 1.334 . S
C265 H242 0.950 . S
C265 C264 1.334 . S
C265 C266 1.287 . S
C266 C265 1.287 . S
C266 C267 1.524 . S
C266 H285 0.913 . S
C267 H243 0.950 . S
C267 C266 1.524 . S
C267 C268 1.415 . S
C268 H244 0.950 . S
C268 C263 1.363 . S
C268 C267 1.415 . S
C269 H245 0.951 . S
C269 C270 1.366 . S
C269 C271 1.388 . S
C270 C269 1.366 . S
C270 C274 1.385 . S
C271 H246 0.951 . S
C271 C269 1.388 . S
C271 C272 1.366 . S
C272 C271 1.366 . S
C272 C273 1.414 . S
C272 C275 1.499 . S
C273 H247 0.950 . S
C273 C272 1.414 . S
C273 C274 1.374 . S
C274 H248 0.950 . S
C274 C270 1.385 . S
C274 C273 1.374 . S
C275 C272 1.499 . S
C275 C276 1.373 . S
C275 C277 1.389 . S
C276 H249 0.950 . S
C276 C262 1.377 . S
C276 C275 1.373 . S
C277 C261 1.377 . S
C277 C275 1.389 . S
C277 C278 1.524 . S
C278 C277 1.524 . S
C278 C279 1.397 . S
C278 C283 1.363 . S
C279 H250 0.950 . S
C279 C278 1.397 . S
C279 C280 1.334 . S
C280 H251 0.950 . S
C280 C279 1.334 . S
C280 C281 1.287 . S
C281 C280 1.287 . S
C281 C282 1.524 . S
C281 H284 0.999 . S
C282 H252 0.950 . S
C282 C281 1.524 . S
C282 C283 1.415 . S
C283 H253 0.950 . S
C283 C278 1.363 . S
C283 C282 1.415 . S
H284 C281 0.999 . S
H285 C266 0.913 . S
H286 C304 0.951 . S
H287 C306 0.951 . S
H288 C308 0.950 . S
H289 C309 0.950 . S
H290 C311 0.950 . S
H291 C314 0.950 . S
H292 C315 0.950 . S
H293 C317 0.950 . S
H294 C318 0.950 . S
H295 C319 0.951 . S
H296 C321 0.951 . S
H297 C323 0.950 . S
H298 C324 0.950 . S
H299 C326 0.950 . S
H300 C329 0.950 . S
H301 C330 0.950 . S
H302 C332 0.950 . S
H303 C333 0.950 . S
C304 H286 0.951 . S
C304 C305 1.366 . S
C304 C306 1.388 . S
C305 C304 1.366 . S
C305 C309 1.385 . S
C306 H287 0.951 . S
C306 C304 1.388 . S
C306 C307 1.366 . S
C307 C306 1.366 . S
C307 C308 1.414 . S
C307 C310 1.499 . S
C308 H288 0.950 . S
C308 C307 1.414 . S
C308 C309 1.374 . S
C309 H289 0.950 . S
C309 C305 1.385 . S
C309 C308 1.374 . S
C310 C307 1.499 . S
C310 C311 1.373 . S
C310 C312 1.389 . S
C311 H290 0.950 . S
C311 C310 1.373 . S
C311 C327 1.377 . S
C312 C310 1.389 . S
C312 C313 1.524 . S
C312 C326 1.377 . S
C313 C312 1.524 . S
C313 C314 1.397 . S
C313 C318 1.363 . S
C314 H291 0.950 . S
C314 C313 1.397 . S
C314 C315 1.334 . S
C315 H292 0.950 . S
C315 C314 1.334 . S
C315 C316 1.287 . S
C316 C315 1.287 . S
C316 C317 1.524 . S
C316 H335 0.913 . S
C317 H293 0.950 . S
C317 C316 1.524 . S
C317 C318 1.415 . S
C318 H294 0.950 . S
C318 C313 1.363 . S
C318 C317 1.415 . S
C319 H295 0.951 . S
C319 C320 1.366 . S
C319 C321 1.388 . S
C320 C319 1.366 . S
C320 C324 1.385 . S
C321 H296 0.951 . S
C321 C319 1.388 . S
C321 C322 1.366 . S
C322 C321 1.366 . S
C322 C323 1.414 . S
C322 C325 1.499 . S
C323 H297 0.950 . S
C323 C322 1.414 . S
C323 C324 1.374 . S
C324 H298 0.950 . S
C324 C320 1.385 . S
C324 C323 1.374 . S
C325 C322 1.499 . S
C325 C326 1.373 . S
C325 C327 1.389 . S
C326 H299 0.950 . S
C326 C312 1.377 . S
C326 C325 1.373 . S
C327 C311 1.377 . S
C327 C325 1.389 . S
C327 C328 1.524 . S
C328 C327 1.524 . S
C328 C329 1.397 . S
C328 C333 1.363 . S
C329 H300 0.950 . S
C329 C328 1.397 . S
C329 C330 1.334 . S
C330 H301 0.950 . S
C330 C329 1.334 . S
C330 C331 1.287 . S
C331 C330 1.287 . S
C331 C332 1.524 . S
C331 H334 0.999 . S
C332 H302 0.950 . S
C332 C331 1.524 . S
C332 C333 1.415 . S
C333 H303 0.950 . S
C333 C328 1.363 . S
C333 C332 1.415 . S
H334 C331 0.999 . S
H335 C316 0.913 . S
H336 C354 0.951 . S
H337 C356 0.951 . S
H338 C358 0.950 . S
H339 C359 0.950 . S
H340 C361 0.950 . S
H341 C364 0.950 . S
H342 C365 0.950 . S
H343 C367 0.950 . S
H344 C368 0.950 . S
H345 C369 0.951 . S
H346 C371 0.951 . S
H347 C373 0.950 . S
H348 C374 0.950 . S
H349 C376 0.950 . S
H350 C379 0.950 . S
H351 C380 0.950 . S
H352 C382 0.950 . S
H353 C383 0.950 . S
C354 H336 0.951 . S
C354 C355 1.366 . S
C354 C356 1.388 . S
C355 C354 1.366 . S
C355 C359 1.385 . S
C356 H337 0.951 . S
C356 C354 1.388 . S
C356 C357 1.366 . S
C357 C356 1.366 . S
C357 C358 1.414 . S
C357 C360 1.499 . S
C358 H338 0.950 . S
C358 C357 1.414 . S
C358 C359 1.374 . S
C359 H339 0.950 . S
C359 C355 1.385 . S
C359 C358 1.374 . S
C360 C357 1.499 . S
C360 C361 1.373 . S
C360 C362 1.389 . S
C361 H340 0.950 . S
C361 C360 1.373 . S
C361 C377 1.377 . S
C362 C360 1.389 . S
C362 C363 1.524 . S
C362 C376 1.377 . S
C363 C362 1.524 . S
C363 C364 1.397 . S
C363 C368 1.363 . S
C364 H341 0.950 . S
C364 C363 1.397 . S
C364 C365 1.334 . S
C365 H342 0.950 . S
C365 C364 1.334 . S
C365 C366 1.287 . S
C366 C365 1.287 . S
C366 C367 1.524 . S
C366 H385 0.913 . S
C367 H343 0.950 . S
C367 C366 1.524 . S
C367 C368 1.415 . S
C368 H344 0.950 . S
C368 C363 1.363 . S
C368 C367 1.415 . S
C369 H345 0.951 . S
C369 C370 1.366 . S
C369 C371 1.388 . S
C370 C369 1.366 . S
C370 C374 1.385 . S
C371 H346 0.951 . S
C371 C369 1.388 . S
C371 C372 1.366 . S
C372 C371 1.366 . S
C372 C373 1.414 . S
C372 C375 1.499 . S
C373 H347 0.950 . S
C373 C372 1.414 . S
C373 C374 1.374 . S
C374 H348 0.950 . S
C374 C370 1.385 . S
C374 C373 1.374 . S
C375 C372 1.499 . S
C375 C376 1.373 . S
C375 C377 1.389 . S
C376 H349 0.950 . S
C376 C362 1.377 . S
C376 C375 1.373 . S
C377 C361 1.377 . S
C377 C375 1.389 . S
C377 C378 1.524 . S
C378 C377 1.524 . S
C378 C379 1.397 . S
C378 C383 1.363 . S
C379 H350 0.950 . S
C379 C378 1.397 . S
C379 C380 1.334 . S
C380 H351 0.950 . S
C380 C379 1.334 . S
C380 C381 1.287 . S
C381 C380 1.287 . S
C381 C382 1.524 . S
C381 H384 0.999 . S
C382 H352 0.950 . S
C382 C381 1.524 . S
C382 C383 1.415 . S
C383 H353 0.950 . S
C383 C378 1.363 . S
C383 C382 1.415 . S
H384 C381 0.999 . S
H385 C366 0.913 . S
H386 C404 0.951 . S
H387 C406 0.951 . S
H388 C408 0.950 . S
H389 C409 0.950 . S
H390 C411 0.950 . S
H391 C414 0.950 . S
H392 C415 0.950 . S
H393 C417 0.950 . S
H394 C418 0.950 . S
H395 C419 0.951 . S
H396 C421 0.951 . S
H397 C423 0.950 . S
H398 C424 0.950 . S
H399 C426 0.950 . S
H400 C429 0.950 . S
H401 C430 0.950 . S
H402 C432 0.950 . S
H403 C433 0.950 . S
C404 H386 0.951 . S
C404 C405 1.366 . S
C404 C406 1.388 . S
C405 C404 1.366 . S
C405 C409 1.385 . S
C406 H387 0.951 . S
C406 C404 1.388 . S
C406 C407 1.366 . S
C407 C406 1.366 . S
C407 C408 1.414 . S
C407 C410 1.499 . S
C408 H388 0.950 . S
C408 C407 1.414 . S
C408 C409 1.374 . S
C409 H389 0.950 . S
C409 C405 1.385 . S
C409 C408 1.374 . S
C410 C407 1.499 . S
C410 C411 1.373 . S
C410 C412 1.389 . S
C411 H390 0.950 . S
C411 C410 1.373 . S
C411 C427 1.377 . S
C412 C410 1.389 . S
C412 C413 1.524 . S
C412 C426 1.377 . S
C413 C412 1.524 . S
C413 C414 1.397 . S
C413 C418 1.363 . S
C414 H391 0.950 . S
C414 C413 1.397 . S
C414 C415 1.334 . S
C415 H392 0.950 . S
C415 C414 1.334 . S
C415 C416 1.287 . S
C416 C415 1.287 . S
C416 C417 1.524 . S
C416 H435 0.913 . S
C417 H393 0.950 . S
C417 C416 1.524 . S
C417 C418 1.415 . S
C418 H394 0.950 . S
C418 C413 1.363 . S
C418 C417 1.415 . S
C419 H395 0.951 . S
C419 C420 1.366 . S
C419 C421 1.388 . S
C420 C419 1.366 . S
C420 C424 1.385 . S
C421 H396 0.951 . S
C421 C419 1.388 . S
C421 C422 1.366 . S
C422 C421 1.366 . S
C422 C423 1.414 . S
C422 C425 1.499 . S
C423 H397 0.950 . S
C423 C422 1.414 . S
C423 C424 1.374 . S
C424 H398 0.950 . S
C424 C420 1.385 . S
C424 C423 1.374 . S
C425 C422 1.499 . S
C425 C426 1.373 . S
C425 C427 1.389 . S
C426 H399 0.950 . S
C426 C412 1.377 . S
C426 C425 1.373 . S
C427 C411 1.377 . S
C427 C425 1.389 . S
C427 C428 1.524 . S
C428 C427 1.524 . S
C428 C429 1.397 . S
C428 C433 1.363 . S
C429 H400 0.950 . S
C429 C428 1.397 . S
C429 C430 1.334 . S
C430 H401 0.950 . S
C430 C429 1.334 . S
C430 C431 1.287 . S
C431 C430 1.287 . S
C431 C432 1.524 . S
C431 H434 0.999 . S
C432 H402 0.950 . S
C432 C431 1.524 . S
C432 C433 1.415 . S
C433 H403 0.950 . S
C433 C428 1.363 . S
C433 C432 1.415 . S
H434 C431 0.999 . S
H435 C416 0.913 . S
H436 C454 0.951 . S
H437 C456 0.951 . S
H438 C458 0.950 . S
H439 C459 0.950 . S
H440 C461 0.950 . S
H441 C464 0.950 . S
H442 C465 0.950 . S
H443 C467 0.950 . S
H444 C468 0.950 . S
H445 C469 0.951 . S
H446 C471 0.951 . S
H447 C473 0.950 . S
H448 C474 0.950 . S
H449 C476 0.950 . S
H450 C479 0.950 . S
H451 C480 0.950 . S
H452 C482 0.950 . S
H453 C483 0.950 . S
C454 H436 0.951 . S
C454 C455 1.366 . S
C454 C456 1.388 . S
C455 C454 1.366 . S
C455 C459 1.385 . S
C456 H437 0.951 . S
C456 C454 1.388 . S
C456 C457 1.366 . S
C457 C456 1.366 . S
C457 C458 1.414 . S
C457 C460 1.499 . S
C458 H438 0.950 . S
C458 C457 1.414 . S
C458 C459 1.374 . S
C459 H439 0.950 . S
C459 C455 1.385 . S
C459 C458 1.374 . S
C460 C457 1.499 . S
C460 C461 1.373 . S
C460 C462 1.389 . S
C461 H440 0.950 . S
C461 C460 1.373 . S
C461 C477 1.377 . S
C462 C460 1.389 . S
C462 C463 1.524 . S
C462 C476 1.377 . S
C463 C462 1.524 . S
C463 C464 1.397 . S
C463 C468 1.363 . S
C464 H441 0.950 . S
C464 C463 1.397 . S
C464 C465 1.334 . S
C465 H442 0.950 . S
C465 C464 1.334 . S
C465 C466 1.287 . S
C466 C465 1.287 . S
C466 C467 1.524 . S
C466 H485 0.913 . S
C467 H443 0.950 . S
C467 C466 1.524 . S
C467 C468 1.415 . S
C468 H444 0.950 . S
C468 C463 1.363 . S
C468 C467 1.415 . S
C469 H445 0.951 . S
C469 C470 1.366 . S
C469 C471 1.388 . S
C470 C469 1.366 . S
C470 C474 1.385 . S
C471 H446 0.951 . S
C471 C469 1.388 . S
C471 C472 1.366 . S
C472 C471 1.366 . S
C472 C473 1.414 . S
C472 C475 1.499 . S
C473 H447 0.950 . S
C473 C472 1.414 . S
C473 C474 1.374 . S
C474 H448 0.950 . S
C474 C470 1.385 . S
C474 C473 1.374 . S
C475 C472 1.499 . S
C475 C476 1.373 . S
C475 C477 1.389 . S
C476 H449 0.950 . S
C476 C462 1.377 . S
C476 C475 1.373 . S
C477 C461 1.377 . S
C477 C475 1.389 . S
C477 C478 1.524 . S
C478 C477 1.524 . S
C478 C479 1.397 . S
C478 C483 1.363 . S
C479 H450 0.950 . S
C479 C478 1.397 . S
C479 C480 1.334 . S
C480 H451 0.950 . S
C480 C479 1.334 . S
C480 C481 1.287 . S
C481 C480 1.287 . S
C481 C482 1.524 . S
C481 H484 0.999 . S
C482 H452 0.950 . S
C482 C481 1.524 . S
C482 C483 1.415 . S
C483 H453 0.950 . S
C483 C478 1.363 . S
C483 C482 1.415 . S
H484 C481 0.999 . S
H485 C466 0.913 . S
H486 C504 0.951 . S
H487 C506 0.951 . S
H488 C508 0.950 . S
H489 C509 0.950 . S
H490 C511 0.950 . S
H491 C514 0.950 . S
H492 C515 0.950 . S
H493 C517 0.950 . S
H494 C518 0.950 . S
H495 C519 0.951 . S
H496 C521 0.951 . S
H497 C523 0.950 . S
H498 C524 0.950 . S
H499 C526 0.950 . S
H500 C529 0.950 . S
H501 C530 0.950 . S
H502 C532 0.950 . S
H503 C533 0.950 . S
C504 H486 0.951 . S
C504 C505 1.366 . S
C504 C506 1.388 . S
C505 C504 1.366 . S
C505 C509 1.385 . S
C506 H487 0.951 . S
C506 C504 1.388 . S
C506 C507 1.366 . S
C507 C506 1.366 . S
C507 C508 1.414 . S
C507 C510 1.499 . S
C508 H488 0.950 . S
C508 C507 1.414 . S
C508 C509 1.374 . S
C509 H489 0.950 . S
C509 C505 1.385 . S
C509 C508 1.374 . S
C510 C507 1.499 . S
C510 C511 1.373 . S
C510 C512 1.389 . S
C511 H490 0.950 . S
C511 C510 1.373 . S
C511 C527 1.377 . S
C512 C510 1.389 . S
C512 C513 1.524 . S
C512 C526 1.377 . S
C513 C512 1.524 . S
C513 C514 1.397 . S
C513 C518 1.363 . S
C514 H491 0.950 . S
C514 C513 1.397 . S
C514 C515 1.334 . S
C515 H492 0.950 . S
C515 C514 1.334 . S
C515 C516 1.287 . S
C516 C515 1.287 . S
C516 C517 1.524 . S
C516 H535 0.913 . S
C517 H493 0.950 . S
C517 C516 1.524 . S
C517 C518 1.415 . S
C518 H494 0.950 . S
C518 C513 1.363 . S
C518 C517 1.415 . S
C519 H495 0.951 . S
C519 C520 1.366 . S
C519 C521 1.388 . S
C520 C519 1.366 . S
C520 C524 1.385 . S
C521 H496 0.951 . S
C521 C519 1.388 . S
C521 C522 1.366 . S
C522 C521 1.366 . S
C522 C523 1.414 . S
C522 C525 1.499 . S
C523 H497 0.950 . S
C523 C522 1.414 . S
C523 C524 1.374 . S
C524 H498 0.950 . S
C524 C520 1.385 . S
C524 C523 1.374 . S
C525 C522 1.499 . S
C525 C526 1.373 . S
C525 C527 1.389 . S
C526 H499 0.950 . S
C526 C512 1.377 . S
C526 C525 1.373 . S
C527 C511 1.377 . S
C527 C525 1.389 . S
C527 C528 1.524 . S
C528 C527 1.524 . S
C528 C529 1.397 . S
C528 C533 1.363 . S
C529 H500 0.950 . S
C529 C528 1.397 . S
C529 C530 1.334 . S
C530 H501 0.950 . S
C530 C529 1.334 . S
C530 C531 1.287 . S
C531 C530 1.287 . S
C531 C532 1.524 . S
C531 H534 0.999 . S
C532 H502 0.950 . S
C532 C531 1.524 . S
C532 C533 1.415 . S
C533 H503 0.950 . S
C533 C528 1.363 . S
C533 C532 1.415 . S
H534 C531 0.999 . S
H535 C516 0.913 . S
H536 C554 0.951 . S
H537 C556 0.951 . S
H538 C558 0.950 . S
H539 C559 0.950 . S
H540 C561 0.950 . S
H541 C564 0.950 . S
H542 C565 0.950 . S
H543 C567 0.950 . S
H544 C568 0.950 . S
H545 C569 0.951 . S
H546 C571 0.951 . S
H547 C573 0.950 . S
H548 C574 0.950 . S
H549 C576 0.950 . S
H550 C579 0.950 . S
H551 C580 0.950 . S
H552 C582 0.950 . S
H553 C583 0.950 . S
C554 H536 0.951 . S
C554 C555 1.366 . S
C554 C556 1.388 . S
C555 C554 1.366 . S
C555 C559 1.385 . S
C556 H537 0.951 . S
C556 C554 1.388 . S
C556 C557 1.366 . S
C557 C556 1.366 . S
C557 C558 1.414 . S
C557 C560 1.499 . S
C558 H538 0.950 . S
C558 C557 1.414 . S
C558 C559 1.374 . S
C559 H539 0.950 . S
C559 C555 1.385 . S
C559 C558 1.374 . S
C560 C557 1.499 . S
C560 C561 1.373 . S
C560 C562 1.389 . S
C561 H540 0.950 . S
C561 C560 1.373 . S
C561 C577 1.377 . S
C562 C560 1.389 . S
C562 C563 1.524 . S
C562 C576 1.377 . S
C563 C562 1.524 . S
C563 C564 1.397 . S
C563 C568 1.363 . S
C564 H541 0.950 . S
C564 C563 1.397 . S
C564 C565 1.334 . S
C565 H542 0.950 . S
C565 C564 1.334 . S
C565 C566 1.287 . S
C566 C565 1.287 . S
C566 C567 1.524 . S
C566 H585 0.913 . S
C567 H543 0.950 . S
C567 C566 1.524 . S
C567 C568 1.415 . S
C568 H544 0.950 . S
C568 C563 1.363 . S
C568 C567 1.415 . S
C569 H545 0.951 . S
C569 C570 1.366 . S
C569 C571 1.388 . S
C570 C569 1.366 . S
C570 C574 1.385 . S
C571 H546 0.951 . S
C571 C569 1.388 . S
C571 C572 1.366 . S
C572 C571 1.366 . S
C572 C573 1.414 . S
C572 C575 1.499 . S
C573 H547 0.950 . S
C573 C572 1.414 . S
C573 C574 1.374 . S
C574 H548 0.950 . S
C574 C570 1.385 . S
C574 C573 1.374 . S
C575 C572 1.499 . S
C575 C576 1.373 . S
C575 C577 1.389 . S
C576 H549 0.950 . S
C576 C562 1.377 . S
C576 C575 1.373 . S
C577 C561 1.377 . S
C577 C575 1.389 . S
C577 C578 1.524 . S
C578 C577 1.524 . S
C578 C579 1.397 . S
C578 C583 1.363 . S
C579 H550 0.950 . S
C579 C578 1.397 . S
C579 C580 1.334 . S
C580 H551 0.950 . S
C580 C579 1.334 . S
C580 C581 1.287 . S
C581 C580 1.287 . S
C581 C582 1.524 . S
C581 H584 0.999 . S
C582 H552 0.950 . S
C582 C581 1.524 . S
C582 C583 1.415 . S
C583 H553 0.950 . S
C583 C578 1.363 . S
C583 C582 1.415 . S
H584 C581 0.999 . S
H585 C566 0.913 . S
H586 C604 0.951 . S
H587 C606 0.951 . S
H588 C608 0.950 . S
H589 C609 0.950 . S
H590 C611 0.950 . S
H591 C614 0.950 . S
H592 C615 0.950 . S
H593 C617 0.950 . S
H594 C618 0.950 . S
H595 C619 0.951 . S
H596 C621 0.951 . S
H597 C623 0.950 . S
H598 C624 0.950 . S
H599 C626 0.950 . S
H600 C629 0.950 . S
H601 C630 0.950 . S
H602 C632 0.950 . S
H603 C633 0.950 . S
C604 H586 0.951 . S
C604 C605 1.366 . S
C604 C606 1.388 . S
C605 C604 1.366 . S
C605 C609 1.385 . S
C606 H587 0.951 . S
C606 C604 1.388 . S
C606 C607 1.366 . S
C607 C606 1.366 . S
C607 C608 1.414 . S
C607 C610 1.499 . S
C608 H588 0.950 . S
C608 C607 1.414 . S
C608 C609 1.374 . S
C609 H589 0.950 . S
C609 C605 1.385 . S
C609 C608 1.374 . S
C610 C607 1.499 . S
C610 C611 1.373 . S
C610 C612 1.389 . S
C611 H590 0.950 . S
C611 C610 1.373 . S
C611 C627 1.377 . S
C612 C610 1.389 . S
C612 C613 1.524 . S
C612 C626 1.377 . S
C613 C612 1.524 . S
C613 C614 1.397 . S
C613 C618 1.363 . S
C614 H591 0.950 . S
C614 C613 1.397 . S
C614 C615 1.334 . S
C615 H592 0.950 . S
C615 C614 1.334 . S
C615 C616 1.287 . S
C616 C615 1.287 . S
C616 C617 1.524 . S
C616 H635 0.913 . S
C617 H593 0.950 . S
C617 C616 1.524 . S
C617 C618 1.415 . S
C618 H594 0.950 . S
C618 C613 1.363 . S
C618 C617 1.415 . S
C619 H595 0.951 . S
C619 C620 1.366 . S
C619 C621 1.388 . S
C620 C619 1.366 . S
C620 C624 1.385 . S
C621 H596 0.951 . S
C621 C619 1.388 . S
C621 C622 1.366 . S
C622 C621 1.366 . S
C622 C623 1.414 . S
C622 C625 1.499 . S
C623 H597 0.950 . S
C623 C622 1.414 . S
C623 C624 1.374 . S
C624 H598 0.950 . S
C624 C620 1.385 . S
C624 C623 1.374 . S
C625 C622 1.499 . S
C625 C626 1.373 . S
C625 C627 1.389 . S
C626 H599 0.950 . S
C626 C612 1.377 . S
C626 C625 1.373 . S
C627 C611 1.377 . S
C627 C625 1.389 . S
C627 C628 1.524 . S
C628 C627 1.524 . S
C628 C629 1.397 . S
C628 C633 1.363 . S
C629 H600 0.950 . S
C629 C628 1.397 . S
C629 C630 1.334 . S
C630 H601 0.950 . S
C630 C629 1.334 . S
C630 C631 1.287 . S
C631 C630 1.287 . S
C631 C632 1.524 . S
C631 H634 0.999 . S
C632 H602 0.950 . S
C632 C631 1.524 . S
C632 C633 1.415 . S
C633 H603 0.950 . S
C633 C628 1.363 . S
C633 C632 1.415 . S
H634 C631 0.999 . S
H635 C616 0.913 . S
H636 C654 0.951 . S
H637 C656 0.951 . S
H638 C658 0.950 . S
H639 C659 0.950 . S
H640 C661 0.950 . S
H641 C664 0.950 . S
H642 C665 0.950 . S
H643 C667 0.950 . S
H644 C668 0.950 . S
H645 C669 0.951 . S
H646 C671 0.951 . S
H647 C673 0.950 . S
H648 C674 0.950 . S
H649 C676 0.950 . S
H650 C679 0.950 . S
H651 C680 0.950 . S
H652 C682 0.950 . S
H653 C683 0.950 . S
C654 H636 0.951 . S
C654 C655 1.366 . S
C654 C656 1.388 . S
C655 C654 1.366 . S
C655 C659 1.385 . S
C656 H637 0.951 . S
C656 C654 1.388 . S
C656 C657 1.366 . S
C657 C656 1.366 . S
C657 C658 1.414 . S
C657 C660 1.499 . S
C658 H638 0.950 . S
C658 C657 1.414 . S
C658 C659 1.374 . S
C659 H639 0.950 . S
C659 C655 1.385 . S
C659 C658 1.374 . S
C660 C657 1.499 . S
C660 C661 1.373 . S
C660 C662 1.389 . S
C661 H640 0.950 . S
C661 C660 1.373 . S
C661 C677 1.377 . S
C662 C660 1.389 . S
C662 C663 1.524 . S
C662 C676 1.377 . S
C663 C662 1.524 . S
C663 C664 1.397 . S
C663 C668 1.363 . S
C664 H641 0.950 . S
C664 C663 1.397 . S
C664 C665 1.334 . S
C665 H642 0.950 . S
C665 C664 1.334 . S
C665 C666 1.287 . S
C666 C665 1.287 . S
C666 C667 1.524 . S
C666 H685 0.913 . S
C667 H643 0.950 . S
C667 C666 1.524 . S
C667 C668 1.415 . S
C668 H644 0.950 . S
C668 C663 1.363 . S
C668 C667 1.415 . S
C669 H645 0.951 . S
C669 C670 1.366 . S
C669 C671 1.388 . S
C670 C669 1.366 . S
C670 C674 1.385 . S
C671 H646 0.951 . S
C671 C669 1.388 . S
C671 C672 1.366 . S
C672 C671 1.366 . S
C672 C673 1.414 . S
C672 C675 1.499 . S
C673 H647 0.950 . S
C673 C672 1.414 . S
C673 C674 1.374 . S
C674 H648 0.950 . S
C674 C670 1.385 . S
C674 C673 1.374 . S
C675 C672 1.499 . S
C675 C676 1.373 . S
C675 C677 1.389 . S
C676 H649 0.950 . S
C676 C662 1.377 . S
C676 C675 1.373 . S
C677 C661 1.377 . S
C677 C675 1.389 . S
C677 C678 1.524 . S
C678 C677 1.524 . S
C678 C679 1.397 . S
C678 C683 1.363 . S
C679 H650 0.950 . S
C679 C678 1.397 . S
C679 C680 1.334 . S
C680 H651 0.950 . S
C680 C679 1.334 . S
C680 C681 1.287 . S
C681 C680 1.287 . S
C681 C682 1.524 . S
C681 H684 0.999 . S
C682 H652 0.950 . S
C682 C681 1.524 . S
C682 C683 1.415 . S
C683 H653 0.950 . S
C683 C678 1.363 . S
C683 C682 1.415 . S
H684 C681 0.999 . S
H685 C666 0.913 . S
H686 C704 0.951 . S
H687 C706 0.951 . S
H688 C708 0.950 . S
H689 C709 0.950 . S
H690 C711 0.950 . S
H691 C714 0.950 . S
H692 C715 0.950 . S
H693 C717 0.950 . S
H694 C718 0.950 . S
H695 C719 0.951 . S
H696 C721 0.951 . S
H697 C723 0.950 . S
H698 C724 0.950 . S
H699 C726 0.950 . S
H700 C729 0.950 . S
H701 C730 0.950 . S
H702 C732 0.950 . S
H703 C733 0.950 . S
C704 H686 0.951 . S
C704 C705 1.366 . S
C704 C706 1.388 . S
C705 C704 1.366 . S
C705 C709 1.385 . S
C706 H687 0.951 . S
C706 C704 1.388 . S
C706 C707 1.366 . S
C707 C706 1.366 . S
C707 C708 1.414 . S
C707 C710 1.499 . S
C708 H688 0.950 . S
C708 C707 1.414 . S
C708 C709 1.374 . S
C709 H689 0.950 . S
C709 C705 1.385 . S
C709 C708 1.374 . S
C710 C707 1.499 . S
C710 C711 1.373 . S
C710 C712 1.389 . S
C711 H690 0.950 . S
C711 C710 1.373 . S
C711 C727 1.377 . S
C712 C710 1.389 . S
C712 C713 1.524 . S
C712 C726 1.377 . S
C713 C712 1.524 . S
C713 C714 1.397 . S
C713 C718 1.363 . S
C714 H691 0.950 . S
C714 C713 1.397 . S
C714 C715 1.334 . S
C715 H692 0.950 . S
C715 C714 1.334 . S
C715 C716 1.287 . S
C716 C715 1.287 . S
C716 C717 1.524 . S
C716 H735 0.913 . S
C717 H693 0.950 . S
C717 C716 1.524 . S
C717 C718 1.415 . S
C718 H694 0.950 . S
C718 C713 1.363 . S
C718 C717 1.415 . S
C719 H695 0.951 . S
C719 C720 1.366 . S
C719 C721 1.388 . S
C720 C719 1.366 . S
C720 C724 1.385 . S
C721 H696 0.951 . S
C721 C719 1.388 . S
C721 C722 1.366 . S
C722 C721 1.366 . S
C722 C723 1.414 . S
C722 C725 1.499 . S
C723 H697 0.950 . S
C723 C722 1.414 . S
C723 C724 1.374 . S
C724 H698 0.950 . S
C724 C720 1.385 . S
C724 C723 1.374 . S
C725 C722 1.499 . S
C725 C726 1.373 . S
C725 C727 1.389 . S
C726 H699 0.950 . S
C726 C712 1.377 . S
C726 C725 1.373 . S
C727 C711 1.377 . S
C727 C725 1.389 . S
C727 C728 1.524 . S
C728 C727 1.524 . S
C728 C729 1.397 . S
C728 C733 1.363 . S
C729 H700 0.950 . S
C729 C728 1.397 . S
C729 C730 1.334 . S
C730 H701 0.950 . S
C730 C729 1.334 . S
C730 C731 1.287 . S
C731 C730 1.287 . S
C731 C732 1.524 . S
C731 H734 0.999 . S
C732 H702 0.950 . S
C732 C731 1.524 . S
C732 C733 1.415 . S
C733 H703 0.950 . S
C733 C728 1.363 . S
C733 C732 1.415 . S
H734 C731 0.999 . S
H735 C716 0.913 . S
H736 C754 0.951 . S
H737 C756 0.951 . S
H738 C758 0.950 . S
H739 C759 0.950 . S
H740 C761 0.950 . S
H741 C764 0.950 . S
H742 C765 0.950 . S
H743 C767 0.950 . S
H744 C768 0.950 . S
H745 C769 0.951 . S
H746 C771 0.951 . S
H747 C773 0.950 . S
H748 C774 0.950 . S
H749 C776 0.950 . S
H750 C779 0.950 . S
H751 C780 0.950 . S
H752 C782 0.950 . S
H753 C783 0.950 . S
C754 H736 0.951 . S
C754 C755 1.366 . S
C754 C756 1.388 . S
C755 C754 1.366 . S
C755 C759 1.385 . S
C756 H737 0.951 . S
C756 C754 1.388 . S
C756 C757 1.366 . S
C757 C756 1.366 . S
C757 C758 1.414 . S
C757 C760 1.499 . S
C758 H738 0.950 . S
C758 C757 1.414 . S
C758 C759 1.374 . S
C759 H739 0.950 . S
C759 C755 1.385 . S
C759 C758 1.374 . S
C760 C757 1.499 . S
C760 C761 1.373 . S
C760 C762 1.389 . S
C761 H740 0.950 . S
C761 C760 1.373 . S
C761 C777 1.377 . S
C762 C760 1.389 . S
C762 C763 1.524 . S
C762 C776 1.377 . S
C763 C762 1.524 . S
C763 C764 1.397 . S
C763 C768 1.363 . S
C764 H741 0.950 . S
C764 C763 1.397 . S
C764 C765 1.334 . S
C765 H742 0.950 . S
C765 C764 1.334 . S
C765 C766 1.287 . S
C766 C765 1.287 . S
C766 C767 1.524 . S
C766 H785 0.913 . S
C767 H743 0.950 . S
C767 C766 1.524 . S
C767 C768 1.415 . S
C768 H744 0.950 . S
C768 C763 1.363 . S
C768 C767 1.415 . S
C769 H745 0.951 . S
C769 C770 1.366 . S
C769 C771 1.388 . S
C770 C769 1.366 . S
C770 C774 1.385 . S
C771 H746 0.951 . S
C771 C769 1.388 . S
C771 C772 1.366 . S
C772 C771 1.366 . S
C772 C773 1.414 . S
C772 C775 1.499 . S
C773 H747 0.950 . S
C773 C772 1.414 . S
C773 C774 1.374 . S
C774 H748 0.950 . S
C774 C770 1.385 . S
C774 C773 1.374 . S
C775 C772 1.499 . S
C775 C776 1.373 . S
C775 C777 1.389 . S
C776 H749 0.950 . S
C776 C762 1.377 . S
C776 C775 1.373 . S
C777 C761 1.377 . S
C777 C775 1.389 . S
C777 C778 1.524 . S
C778 C777 1.524 . S
C778 C779 1.397 . S
C778 C783 1.363 . S
C779 H750 0.950 . S
C779 C778 1.397 . S
C779 C780 1.334 . S
C780 H751 0.950 . S
C780 C779 1.334 . S
C780 C781 1.287 . S
C781 C780 1.287 . S
C781 C782 1.524 . S
C781 H784 0.999 . S
C782 H752 0.950 . S
C782 C781 1.524 . S
C782 C783 1.415 . S
C783 H753 0.950 . S
C783 C778 1.363 . S
C783 C782 1.415 . S
H784 C781 0.999 . S
H785 C766 0.913 . S
H786 C804 0.951 1_655 S
H787 C806 0.951 1_655 S
H788 C808 0.950 . S
H789 C809 0.950 . S
H790 C811 0.950 . S
H791 C814 0.950 . S
H792 C815 0.950 . S
H793 C817 0.950 1_655 S
H794 C818 0.950 1_655 S
H795 C819 0.951 . S
H796 C821 0.951 . S
H797 C823 0.950 . S
H798 C824 0.950 . S
H799 C826 0.950 1_556 S
H800 C829 0.953 . S
H801 C830 0.950 1_655 S
H802 C832 0.950 . S
H803 C833 0.950 . S
C804 H786 0.951 1_455 S
C804 C805 1.366 . S
C804 C806 1.388 . S
C805 C804 1.366 . S
C805 C809 1.385 . S
C806 H787 0.951 1_455 S
C806 C804 1.388 . S
C806 C807 1.366 . S
C807 C806 1.366 . S
C807 C808 1.414 . S
C807 C810 1.499 . S
C808 H788 0.950 . S
C808 C807 1.414 . S
C808 C809 1.374 . S
C809 H789 0.950 . S
C809 C805 1.385 . S
C809 C808 1.374 . S
C810 C807 1.499 . S
C810 C811 1.373 . S
C810 C812 1.389 . S
C811 H790 0.950 . S
C811 C810 1.373 . S
C811 C827 1.377 . S
C812 C810 1.389 . S
C812 C813 1.524 . S
C812 C826 1.377 . S
C813 C812 1.524 . S
C813 C814 1.397 . S
C813 C818 1.363 . S
C814 H791 0.950 . S
C814 C813 1.397 . S
C814 C815 1.334 . S
C815 H792 0.950 . S
C815 C814 1.334 . S
C815 C816 1.287 . S
C816 C815 1.287 . S
C816 C817 1.524 . S
C816 H835 0.913 . S
C817 H793 0.950 1_455 S
C817 C816 1.524 . S
C817 C818 1.415 . S
C818 H794 0.950 1_455 S
C818 C813 1.363 . S
C818 C817 1.415 . S
C819 H795 0.951 . S
C819 C820 1.366 . S
C819 C821 1.388 . S
C820 C819 1.366 . S
C820 C824 1.385 . S
C821 H796 0.951 . S
C821 C819 1.388 . S
C821 C822 1.366 . S
C822 C821 1.366 . S
C822 C823 1.414 . S
C822 C825 1.499 . S
C823 H797 0.950 . S
C823 C822 1.414 . S
C823 C824 1.374 . S
C824 H798 0.950 . S
C824 C820 1.385 . S
C824 C823 1.374 . S
C825 C822 1.499 . S
C825 C826 1.373 1_556 S
C825 C827 1.389 1_556 S
C826 H799 0.950 1_554 S
C826 C812 1.377 . S
C826 C825 1.373 1_554 S
C827 C811 1.377 . S
C827 C825 1.389 1_554 S
C827 C828 1.524 1_554 S
C828 C827 1.524 1_556 S
C828 C829 1.397 . S
C828 C833 1.363 1_556 S
C829 H800 0.953 . S
C829 C828 1.397 . S
C829 C830 1.334 . S
C830 H801 0.950 1_455 S
C830 C829 1.334 . S
C830 C831 1.287 . S
C831 C830 1.287 . S
C831 C832 1.524 . S
C831 H834 0.999 . S
C832 H802 0.950 . S
C832 C831 1.524 . S
C832 C833 1.415 1_556 S
C833 H803 0.950 . S
C833 C828 1.363 1_554 S
C833 C832 1.415 1_554 S
H834 C831 0.999 . S
H835 C816 0.913 . S
H836 C854 0.951 . S
H837 C856 0.951 . S
H838 C858 0.950 1_565 S
H839 C859 0.950 1_565 S
H840 C861 0.975 . S
H841 C864 0.950 . S
H842 C865 0.950 . S
H843 C867 0.950 . S
H844 C868 0.950 . S
H845 C869 0.951 1_565 S
H846 C871 0.951 1_565 S
H847 C873 0.950 . S
H848 C874 0.950 . S
H849 C876 0.950 . S
H850 C879 0.950 . S
H851 C880 0.950 1_545 S
H852 C882 0.950 . S
H853 C883 0.950 . S
C854 H836 0.951 . S
C854 C855 1.366 . S
C854 C856 1.388 . S
C855 C854 1.366 . S
C855 C859 1.385 . S
C856 H837 0.951 . S
C856 C854 1.388 . S
C856 C857 1.366 . S
C857 C856 1.366 . S
C857 C858 1.414 . S
C857 C860 1.499 . S
C858 H838 0.950 1_545 S
C858 C857 1.414 . S
C858 C859 1.374 . S
C859 H839 0.950 1_545 S
C859 C855 1.385 . S
C859 C858 1.374 . S
C860 C857 1.499 . S
C860 C861 1.373 . S
C860 C862 1.389 . S
C861 H840 0.975 . S
C861 C860 1.373 . S
C861 C877 1.377 . S
C862 C860 1.389 . S
C862 C863 1.524 . S
C862 C876 1.377 . S
C863 C862 1.524 . S
C863 C864 1.397 . S
C863 C868 1.363 . S
C864 H841 0.950 . S
C864 C863 1.397 . S
C864 C865 1.334 . S
C865 H842 0.950 . S
C865 C864 1.334 . S
C865 C866 1.287 . S
C866 C865 1.287 . S
C866 C867 1.524 . S
C866 H885 0.913 . S
C867 H843 0.950 . S
C867 C866 1.524 . S
C867 C868 1.415 . S
C868 H844 0.950 . S
C868 C863 1.363 . S
C868 C867 1.415 . S
C869 H845 0.951 1_545 S
C869 C870 1.366 . S
C869 C871 1.388 . S
C870 C869 1.366 . S
C870 C874 1.385 . S
C871 H846 0.951 1_545 S
C871 C869 1.388 . S
C871 C872 1.366 . S
C872 C871 1.366 . S
C872 C873 1.414 . S
C872 C875 1.499 . S
C873 H847 0.950 . S
C873 C872 1.414 . S
C873 C874 1.374 . S
C874 H848 0.950 . S
C874 C870 1.385 . S
C874 C873 1.374 . S
C875 C872 1.499 . S
C875 C876 1.373 . S
C875 C877 1.389 . S
C876 H849 0.950 . S
C876 C862 1.377 . S
C876 C875 1.373 . S
C877 C861 1.377 . S
C877 C875 1.389 . S
C877 C878 1.524 1_545 S
C878 C877 1.524 1_565 S
C878 C879 1.397 1_565 S
C878 C883 1.363 . S
C879 H850 0.950 . S
C879 C878 1.397 1_545 S
C879 C880 1.334 1_545 S
C880 H851 0.950 1_565 S
C880 C879 1.334 1_565 S
C880 C881 1.287 . S
C881 C880 1.287 . S
C881 C882 1.524 . S
C881 H884 0.999 . S
C882 H852 0.950 . S
C882 C881 1.524 . S
C882 C883 1.415 . S
C883 H853 0.950 . S
C883 C878 1.363 . S
C883 C882 1.415 . S
H884 C881 0.999 . S
H885 C866 0.913 . S
H886 C904 0.951 . S
H887 C906 0.951 . S
H888 C908 0.950 . S
H889 C909 0.950 . S
H890 C911 0.950 . S
H891 C914 0.950 . S
H892 C915 0.950 . S
H893 C917 0.950 . S
H894 C918 0.950 . S
H895 C919 0.951 . S
H896 C921 0.951 . S
H897 C923 0.950 . S
H898 C924 0.950 . S
H899 C926 0.950 . S
H900 C929 0.950 . S
H901 C930 0.950 . S
H902 C932 0.950 . S
H903 C933 0.950 . S
C904 H886 0.951 . S
C904 C905 1.366 . S
C904 C906 1.388 . S
C905 C904 1.366 . S
C905 C909 1.385 . S
C906 H887 0.951 . S
C906 C904 1.388 . S
C906 C907 1.366 . S
C907 C906 1.366 . S
C907 C908 1.414 . S
C907 C910 1.499 . S
C908 H888 0.950 . S
C908 C907 1.414 . S
C908 C909 1.374 . S
C909 H889 0.950 . S
C909 C905 1.385 . S
C909 C908 1.374 . S
C910 C907 1.499 . S
C910 C911 1.373 . S
C910 C912 1.389 . S
C911 H890 0.950 . S
C911 C910 1.373 . S
C911 C927 1.377 . S
C912 C910 1.389 . S
C912 C913 1.524 . S
C912 C926 1.377 . S
C913 C912 1.524 . S
C913 C914 1.397 . S
C913 C918 1.363 . S
C914 H891 0.950 . S
C914 C913 1.397 . S
C914 C915 1.334 . S
C915 H892 0.950 . S
C915 C914 1.334 . S
C915 C916 1.287 . S
C916 C915 1.287 . S
C916 C917 1.524 . S
C916 H935 0.913 . S
C917 H893 0.950 . S
C917 C916 1.524 . S
C917 C918 1.415 . S
C918 H894 0.950 . S
C918 C913 1.363 . S
C918 C917 1.415 . S
C919 H895 0.951 . S
C919 C920 1.366 . S
C919 C921 1.388 . S
C920 C919 1.366 . S
C920 C924 1.385 . S
C921 H896 0.951 . S
C921 C919 1.388 . S
C921 C922 1.366 . S
C922 C921 1.366 . S
C922 C923 1.414 . S
C922 C925 1.499 . S
C923 H897 0.950 . S
C923 C922 1.414 . S
C923 C924 1.374 . S
C924 H898 0.950 . S
C924 C920 1.385 . S
C924 C923 1.374 . S
C925 C922 1.499 . S
C925 C926 1.373 . S
C925 C927 1.389 . S
C926 H899 0.950 . S
C926 C912 1.377 . S
C926 C925 1.373 . S
C927 C911 1.377 . S
C927 C925 1.389 . S
C927 C928 1.524 . S
C928 C927 1.524 . S
C928 C929 1.397 . S
C928 C933 1.363 . S
C929 H900 0.950 . S
C929 C928 1.397 . S
C929 C930 1.334 . S
C930 H901 0.950 . S
C930 C929 1.334 . S
C930 C931 1.287 . S
C931 C930 1.287 . S
C931 C932 1.524 . S
C931 H934 0.999 . S
C932 H902 0.950 . S
C932 C931 1.524 . S
C932 C933 1.415 . S
C933 H903 0.950 . S
C933 C928 1.363 . S
C933 C932 1.415 . S
H934 C931 0.999 . S
H935 C916 0.913 . S
H936 C954 0.951 . S
H937 C956 0.951 . S
H938 C958 0.950 1_565 S
H939 C959 0.950 1_565 S
H940 C961 0.950 1_565 S
H941 C964 0.950 . S
H942 C965 0.950 . S
H943 C967 0.950 . S
H944 C968 0.950 . S
H945 C969 0.931 1_565 S
H946 C971 0.951 1_565 S
H947 C973 0.950 . S
H948 C974 0.950 . S
H949 C976 0.950 . S
H950 C979 0.950 1_545 S
H951 C980 0.950 . S
H952 C982 0.950 . S
H953 C983 0.950 . S
C954 H936 0.951 . S
C954 C955 1.366 . S
C954 C956 1.388 . S
C955 C954 1.366 . S
C955 C959 1.385 . S
C956 H937 0.951 . S
C956 C954 1.388 . S
C956 C957 1.366 . S
C957 C956 1.366 . S
C957 C958 1.414 . S
C957 C960 1.499 . S
C958 H938 0.950 1_545 S
C958 C957 1.414 . S
C958 C959 1.374 . S
C959 H939 0.950 1_545 S
C959 C955 1.385 . S
C959 C958 1.374 . S
C960 C957 1.499 . S
C960 C961 1.373 . S
C960 C962 1.389 . S
C961 H940 0.950 1_545 S
C961 C960 1.373 . S
C961 C977 1.377 . S
C962 C960 1.389 . S
C962 C963 1.524 . S
C962 C976 1.377 . S
C963 C962 1.524 . S
C963 C964 1.397 . S
C963 C968 1.363 . S
C964 H941 0.950 . S
C964 C963 1.397 . S
C964 C965 1.334 . S
C965 H942 0.950 . S
C965 C964 1.334 . S
C965 C966 1.287 . S
C966 C965 1.287 . S
C966 C967 1.524 . S
C966 H985 0.913 . S
C967 H943 0.950 . S
C967 C966 1.524 . S
C967 C968 1.415 . S
C968 H944 0.950 . S
C968 C963 1.363 . S
C968 C967 1.415 . S
C969 H945 0.931 1_545 S
C969 C970 1.381 . S
C969 C971 1.393 . S
C970 C969 1.381 . S
C970 C974 1.385 . S
C971 H946 0.951 1_545 S
C971 C969 1.393 . S
C971 C972 1.366 . S
C972 C971 1.366 . S
C972 C973 1.414 . S
C972 C975 1.499 . S
C973 H947 0.950 . S
C973 C972 1.414 . S
C973 C974 1.374 . S
C974 H948 0.950 . S
C974 C970 1.385 . S
C974 C973 1.374 . S
C975 C972 1.499 . S
C975 C976 1.373 . S
C975 C977 1.389 . S
C976 H949 0.950 . S
C976 C962 1.377 . S
C976 C975 1.373 . S
C977 C961 1.377 . S
C977 C975 1.389 . S
C977 C978 1.524 1_545 S
C978 C977 1.524 1_565 S
C978 C979 1.397 . S
C978 C983 1.363 . S
C979 H950 0.950 1_565 S
C979 C978 1.397 . S
C979 C980 1.334 . S
C980 H951 0.950 . S
C980 C979 1.334 . S
C980 C981 1.287 . S
C981 C980 1.287 . S
C981 C982 1.524 . S
C981 H984 0.999 . S
C982 H952 0.950 . S
C982 C981 1.524 . S
C982 C983 1.415 . S
C983 H953 0.950 . S
C983 C978 1.363 . S
C983 C982 1.415 . S
H984 C981 0.999 . S
H985 C966 0.913 . S
H986 C1004 0.951 . S
H987 C1006 0.951 . S
H988 C1008 0.950 . S
H989 C1009 0.950 . S
H990 C1011 0.950 . S
H991 C1014 0.950 . S
H992 C1015 0.950 . S
H993 C1017 0.950 . S
H994 C1018 0.950 . S
H995 C1019 0.951 . S
H996 C1021 0.951 . S
H997 C1023 0.950 . S
H998 C1024 0.950 . S
H999 C1026 0.950 . S
H1000 C1029 0.950 . S
H1001 C1030 0.950 . S
H1002 C1032 0.950 . S
H1003 C1033 0.925 1_556 S
C1004 H986 0.951 . S
C1004 C1005 1.366 . S
C1004 C1006 1.388 . S
C1005 C1004 1.366 . S
C1005 C1009 1.385 . S
C1006 H987 0.951 . S
C1006 C1004 1.388 . S
C1006 C1007 1.366 . S
C1007 C1006 1.366 . S
C1007 C1008 1.414 . S
C1007 C1010 1.499 . S
C1008 H988 0.950 . S
C1008 C1007 1.414 . S
C1008 C1009 1.374 . S
C1009 H989 0.950 . S
C1009 C1005 1.385 . S
C1009 C1008 1.374 . S
C1010 C1007 1.499 . S
C1010 C1011 1.373 . S
C1010 C1012 1.389 . S
C1011 H990 0.950 . S
C1011 C1010 1.373 . S
C1011 C1027 1.377 . S
C1012 C1010 1.389 . S
C1012 C1013 1.524 . S
C1012 C1026 1.377 . S
C1013 C1012 1.524 . S
C1013 C1014 1.397 . S
C1013 C1018 1.363 . S
C1014 H991 0.950 . S
C1014 C1013 1.397 . S
C1014 C1015 1.334 . S
C1015 H992 0.950 . S
C1015 C1014 1.334 . S
C1015 C1016 1.287 . S
C1016 C1015 1.287 . S
C1016 C1017 1.524 . S
C1016 H1035 0.913 . S
C1017 H993 0.950 . S
C1017 C1016 1.524 . S
C1017 C1018 1.415 . S
C1018 H994 0.950 . S
C1018 C1013 1.363 . S
C1018 C1017 1.415 . S
C1019 H995 0.951 . S
C1019 C1020 1.366 . S
C1019 C1021 1.388 . S
C1020 C1019 1.366 . S
C1020 C1024 1.385 . S
C1021 H996 0.951 . S
C1021 C1019 1.388 . S
C1021 C1022 1.366 . S
C1022 C1021 1.366 . S
C1022 C1023 1.414 . S
C1022 C1025 1.499 . S
C1023 H997 0.950 . S
C1023 C1022 1.414 . S
C1023 C1024 1.374 . S
C1024 H998 0.950 . S
C1024 C1020 1.385 . S
C1024 C1023 1.374 . S
C1025 C1022 1.499 . S
C1025 C1026 1.373 1_554 S
C1025 C1027 1.389 1_554 S
C1026 H999 0.950 . S
C1026 C1012 1.377 . S
C1026 C1025 1.373 1_556 S
C1027 C1011 1.377 . S
C1027 C1025 1.389 1_556 S
C1027 C1028 1.524 1_556 S
C1028 C1027 1.524 1_554 S
C1028 C1029 1.397 . S
C1028 C1033 1.363 . S
C1029 H1000 0.950 . S
C1029 C1028 1.397 . S
C1029 C1030 1.334 . S
C1030 H1001 0.950 . S
C1030 C1029 1.334 . S
C1030 C1031 1.287 . S
C1031 C1030 1.287 . S
C1031 C1032 1.524 . S
C1031 H1034 0.999 . S
C1032 H1002 0.950 . S
C1032 C1031 1.524 . S
C1032 C1033 1.415 . S
C1033 H1003 0.925 1_554 S
C1033 C1028 1.363 . S
C1033 C1032 1.415 . S
H1034 C1031 0.999 . S
H1035 C1016 0.913 . S
H1036 C1054 0.951 . S
H1037 C1056 0.951 . S
H1038 C1058 0.950 1_655 S
H1039 C1059 0.950 1_655 S
H1040 C1061 0.950 . S
H1041 C1064 0.950 . S
H1042 C1065 0.950 . S
H1043 C1067 0.950 . S
H1044 C1068 0.950 . S
H1045 C1069 0.951 . S
H1046 C1071 0.951 . S
H1047 C1073 0.950 . S
H1048 C1074 0.950 . S
H1049 C1076 0.950 . S
H1050 C1079 0.950 . S
H1051 C1080 0.950 . S
H1052 C1082 0.950 . S
H1053 C1083 0.950 . S
C1054 H1036 0.951 . S
C1054 C1055 1.366 . S
C1054 C1056 1.388 . S
C1055 C1054 1.366 . S
C1055 C1059 1.385 . S
C1056 H1037 0.951 . S
C1056 C1054 1.388 . S
C1056 C1057 1.366 . S
C1057 C1056 1.366 . S
C1057 C1058 1.414 . S
C1057 C1060 1.499 . S
C1058 H1038 0.950 1_455 S
C1058 C1057 1.414 . S
C1058 C1059 1.374 . S
C1059 H1039 0.950 1_455 S
C1059 C1055 1.385 . S
C1059 C1058 1.374 . S
C1060 C1057 1.499 . S
C1060 C1061 1.373 1_455 S
C1060 C1062 1.389 . S
C1061 H1040 0.950 . S
C1061 C1060 1.373 1_655 S
C1061 C1077 1.377 . S
C1062 C1060 1.389 . S
C1062 C1063 1.524 . S
C1062 C1076 1.377 . S
C1063 C1062 1.524 . S
C1063 C1064 1.397 . S
C1063 C1068 1.363 . S
C1064 H1041 0.950 . S
C1064 C1063 1.397 . S
C1064 C1065 1.334 . S
C1065 H1042 0.950 . S
C1065 C1064 1.334 . S
C1065 C1066 1.287 . S
C1066 C1065 1.287 . S
C1066 C1067 1.524 . S
C1066 H1085 0.913 . S
C1067 H1043 0.950 . S
C1067 C1066 1.524 . S
C1067 C1068 1.415 . S
C1068 H1044 0.950 . S
C1068 C1063 1.363 . S
C1068 C1067 1.415 . S
C1069 H1045 0.951 . S
C1069 C1070 1.366 1_655 S
C1069 C1071 1.388 . S
C1070 C1069 1.366 1_455 S
C1070 C1074 1.385 . S
C1071 H1046 0.951 . S
C1071 C1069 1.388 . S
C1071 C1072 1.366 1_655 S
C1072 C1071 1.366 1_455 S
C1072 C1073 1.414 . S
C1072 C1075 1.499 . S
C1073 H1047 0.950 . S
C1073 C1072 1.414 . S
C1073 C1074 1.374 . S
C1074 H1048 0.950 . S
C1074 C1070 1.385 . S
C1074 C1073 1.374 . S
C1075 C1072 1.499 . S
C1075 C1076 1.373 . S
C1075 C1077 1.389 1_455 S
C1076 H1049 0.950 . S
C1076 C1062 1.377 . S
C1076 C1075 1.373 . S
C1077 C1061 1.377 . S
C1077 C1075 1.389 1_655 S
C1077 C1078 1.524 . S
C1078 C1077 1.524 . S
C1078 C1079 1.397 . S
C1078 C1083 1.363 . S
C1079 H1050 0.950 . S
C1079 C1078 1.397 . S
C1079 C1080 1.334 . S
C1080 H1051 0.950 . S
C1080 C1079 1.334 . S
C1080 C1081 1.287 . S
C1081 C1080 1.287 . S
C1081 C1082 1.524 . S
C1081 H1084 0.999 . S
C1082 H1052 0.950 . S
C1082 C1081 1.524 . S
C1082 C1083 1.415 . S
C1083 H1053 0.950 . S
C1083 C1078 1.363 . S
C1083 C1082 1.415 . S
H1084 C1081 0.999 . S
H1085 C1066 0.913 . S
C205 C6 0.550 . S
C220 C185 0.548 . S
C255 C59 1.920 . S
C270 C163 1.880 . S
C305 C86 1.219 . S
C320 C174 1.211 . S
C355 C15 0.239 . S
C370 C179 0.182 . S
C420 C157 1.812 . S
C405 C50 1.825 . S
C470 C168 1.108 . S
C455 C95 1.115 . S
C505 C46 1.258 . S
C520 C141 1.247 . S
C555 C99 3.005 . S
C570 C146 2.972 1_655 S
C605 C10 1.838 . S
C620 C124 1.833 1_565 S
C670 C135 1.090 . S
C655 C55 1.094 . S
C720 C152 2.993 . S
C705 C90 3.015 . S
C755 C19 1.920 . S
C770 C130 1.889 . S
C820 C147 1.718 . S
C805 C18 1.678 . S
C855 C49 1.414 . S
C870 C125 1.479 . S
C905 C98 1.510 . S
C920 C136 1.546 . S
C970 C169 1.530 . S
C955 C58 1.511 . S
C1020 C180 1.293 . S
C1005 C89 1.260 . S
C1055 C9 1.395 . S
C1070 C158 1.447 . S
