# Generated by pormake.
# Topology ctn, (3,4)-cn, num edge types: 1
# Building blocks:
#     Node 0, Type 0, BuildingBlock: CUQRIR_clean_linker_1, # of connection points: 3
#     Node 1, Type 0, BuildingBlock: CUQRIR_clean_linker_1, # of connection points: 3
#     Node 2, Type 0, BuildingBlock: CUQRIR_clean_linker_1, # of connection points: 3
#     Node 3, Type 0, BuildingBlock: CUQRIR_clean_linker_1, # of connection points: 3
#     Node 4, Type 0, BuildingBlock: CUQRIR_clean_linker_1, # of connection points: 3
#     Node 5, Type 0, BuildingBlock: CUQRIR_clean_linker_1, # of connection points: 3
#     Node 6, Type 0, BuildingBlock: CUQRIR_clean_linker_1, # of connection points: 3
#     Node 7, Type 0, BuildingBlock: CUQRIR_clean_linker_1, # of connection points: 3
#     Node 8, Type 0, BuildingBlock: CUQRIR_clean_linker_1, # of connection points: 3
#     Node 9, Type 0, BuildingBlock: CUQRIR_clean_linker_1, # of connection points: 3
#     Node 10, Type 0, BuildingBlock: CUQRIR_clean_linker_1, # of connection points: 3
#     Node 11, Type 0, BuildingBlock: CUQRIR_clean_linker_1, # of connection points: 3
#     Node 12, Type 0, BuildingBlock: CUQRIR_clean_linker_1, # of connection points: 3
#     Node 13, Type 0, BuildingBlock: CUQRIR_clean_linker_1, # of connection points: 3
#     Node 14, Type 0, BuildingBlock: CUQRIR_clean_linker_1, # of connection points: 3
#     Node 15, Type 0, BuildingBlock: CUQRIR_clean_linker_1, # of connection points: 3
#     Node 16, Type 1, BuildingBlock: QUQFOY_clean_sbu_1, # of connection points: 4
#     Node 17, Type 1, BuildingBlock: QUQFOY_clean_sbu_1, # of connection points: 4
#     Node 18, Type 1, BuildingBlock: QUQFOY_clean_sbu_1, # of connection points: 4
#     Node 19, Type 1, BuildingBlock: QUQFOY_clean_sbu_1, # of connection points: 4
#     Node 20, Type 1, BuildingBlock: QUQFOY_clean_sbu_1, # of connection points: 4
#     Node 21, Type 1, BuildingBlock: QUQFOY_clean_sbu_1, # of connection points: 4
#     Node 22, Type 1, BuildingBlock: QUQFOY_clean_sbu_1, # of connection points: 4
#     Node 23, Type 1, BuildingBlock: QUQFOY_clean_sbu_1, # of connection points: 4
#     Node 24, Type 1, BuildingBlock: QUQFOY_clean_sbu_1, # of connection points: 4
#     Node 25, Type 1, BuildingBlock: QUQFOY_clean_sbu_1, # of connection points: 4
#     Node 26, Type 1, BuildingBlock: QUQFOY_clean_sbu_1, # of connection points: 4
#     Node 27, Type 1, BuildingBlock: QUQFOY_clean_sbu_1, # of connection points: 4
#     Edge 28, Type (0, 1), BuildingBlock: KIFKEQ_clean_linker_1, # of connection points: 2
#     Edge 29, Type (0, 1), BuildingBlock: KIFKEQ_clean_linker_1, # of connection points: 2
#     Edge 30, Type (0, 1), BuildingBlock: KIFKEQ_clean_linker_1, # of connection points: 2
#     Edge 31, Type (0, 1), BuildingBlock: KIFKEQ_clean_linker_1, # of connection points: 2
#     Edge 32, Type (0, 1), BuildingBlock: KIFKEQ_clean_linker_1, # of connection points: 2
#     Edge 33, Type (0, 1), BuildingBlock: KIFKEQ_clean_linker_1, # of connection points: 2
#     Edge 34, Type (0, 1), BuildingBlock: KIFKEQ_clean_linker_1, # of connection points: 2
#     Edge 35, Type (0, 1), BuildingBlock: KIFKEQ_clean_linker_1, # of connection points: 2
#     Edge 36, Type (0, 1), BuildingBlock: KIFKEQ_clean_linker_1, # of connection points: 2
#     Edge 37, Type (0, 1), BuildingBlock: KIFKEQ_clean_linker_1, # of connection points: 2
#     Edge 38, Type (0, 1), BuildingBlock: KIFKEQ_clean_linker_1, # of connection points: 2
#     Edge 39, Type (0, 1), BuildingBlock: KIFKEQ_clean_linker_1, # of connection points: 2
#     Edge 40, Type (0, 1), BuildingBlock: KIFKEQ_clean_linker_1, # of connection points: 2
#     Edge 41, Type (0, 1), BuildingBlock: KIFKEQ_clean_linker_1, # of connection points: 2
#     Edge 42, Type (0, 1), BuildingBlock: KIFKEQ_clean_linker_1, # of connection points: 2
#     Edge 43, Type (0, 1), BuildingBlock: KIFKEQ_clean_linker_1, # of connection points: 2
#     Edge 44, Type (0, 1), BuildingBlock: KIFKEQ_clean_linker_1, # of connection points: 2
#     Edge 45, Type (0, 1), BuildingBlock: KIFKEQ_clean_linker_1, # of connection points: 2
#     Edge 46, Type (0, 1), BuildingBlock: KIFKEQ_clean_linker_1, # of connection points: 2
#     Edge 47, Type (0, 1), BuildingBlock: KIFKEQ_clean_linker_1, # of connection points: 2
#     Edge 48, Type (0, 1), BuildingBlock: KIFKEQ_clean_linker_1, # of connection points: 2
#     Edge 49, Type (0, 1), BuildingBlock: KIFKEQ_clean_linker_1, # of connection points: 2
#     Edge 50, Type (0, 1), BuildingBlock: KIFKEQ_clean_linker_1, # of connection points: 2
#     Edge 51, Type (0, 1), BuildingBlock: KIFKEQ_clean_linker_1, # of connection points: 2
#     Edge 52, Type (0, 1), BuildingBlock: KIFKEQ_clean_linker_1, # of connection points: 2
#     Edge 53, Type (0, 1), BuildingBlock: KIFKEQ_clean_linker_1, # of connection points: 2
#     Edge 54, Type (0, 1), BuildingBlock: KIFKEQ_clean_linker_1, # of connection points: 2
#     Edge 55, Type (0, 1), BuildingBlock: KIFKEQ_clean_linker_1, # of connection points: 2
#     Edge 56, Type (0, 1), BuildingBlock: KIFKEQ_clean_linker_1, # of connection points: 2
#     Edge 57, Type (0, 1), BuildingBlock: KIFKEQ_clean_linker_1, # of connection points: 2
#     Edge 58, Type (0, 1), BuildingBlock: KIFKEQ_clean_linker_1, # of connection points: 2
#     Edge 59, Type (0, 1), BuildingBlock: KIFKEQ_clean_linker_1, # of connection points: 2
#     Edge 60, Type (0, 1), BuildingBlock: KIFKEQ_clean_linker_1, # of connection points: 2
#     Edge 61, Type (0, 1), BuildingBlock: KIFKEQ_clean_linker_1, # of connection points: 2
#     Edge 62, Type (0, 1), BuildingBlock: KIFKEQ_clean_linker_1, # of connection points: 2
#     Edge 63, Type (0, 1), BuildingBlock: KIFKEQ_clean_linker_1, # of connection points: 2
#     Edge 64, Type (0, 1), BuildingBlock: KIFKEQ_clean_linker_1, # of connection points: 2
#     Edge 65, Type (0, 1), BuildingBlock: KIFKEQ_clean_linker_1, # of connection points: 2
#     Edge 66, Type (0, 1), BuildingBlock: KIFKEQ_clean_linker_1, # of connection points: 2
#     Edge 67, Type (0, 1), BuildingBlock: KIFKEQ_clean_linker_1, # of connection points: 2
#     Edge 68, Type (0, 1), BuildingBlock: KIFKEQ_clean_linker_1, # of connection points: 2
#     Edge 69, Type (0, 1), BuildingBlock: KIFKEQ_clean_linker_1, # of connection points: 2
#     Edge 70, Type (0, 1), BuildingBlock: KIFKEQ_clean_linker_1, # of connection points: 2
#     Edge 71, Type (0, 1), BuildingBlock: KIFKEQ_clean_linker_1, # of connection points: 2
#     Edge 72, Type (0, 1), BuildingBlock: KIFKEQ_clean_linker_1, # of connection points: 2
#     Edge 73, Type (0, 1), BuildingBlock: KIFKEQ_clean_linker_1, # of connection points: 2
#     Edge 74, Type (0, 1), BuildingBlock: KIFKEQ_clean_linker_1, # of connection points: 2
#     Edge 75, Type (0, 1), BuildingBlock: KIFKEQ_clean_linker_1, # of connection points: 2
# Relax obj value: 0.108
# Max RMSD: 0.206
# Mean RMSD: 0.154
data_MOF--net-ctn--node1-QUQFOY_clean_sbu_1--node2-CUQRIR_clean_linker_1--edge1-KIFKEQ_clean_linker_1
_symmetry_space_group_name_H-M    P1
_symmetry_Int_Tables_number       1
_symmetry_cell_setting            triclinic
loop_
_symmetry_equiv_pos_as_xyz
'x, y, z'
_cell_length_a     53.368485
_cell_length_b     49.322198
_cell_length_c     50.926081
_cell_angle_alpha  100.36801
_cell_angle_beta   88.673279
_cell_angle_gamma 98.275607
loop_
_atom_site_label
_atom_site_type_symbol
_atom_site_fract_x
_atom_site_fract_y
_atom_site_fract_z
_atom_type_partial_charge
C0 C 0.03442 0.06418 0.11213 0.0
N1 N 0.04507 0.06636 0.08803 0.0
N2 N 0.01786 0.0826 0.11871 0.0
C3 C 0.03932 0.04345 0.12906 0.0
C4 C 0.01881 0.09617 0.09785 0.0
N5 N 0.03564 0.08669 0.0794 0.0
C6 C 0.00108 0.11624 0.09402 0.0
H7 H 0.0256 0.02419 0.12357 0.0
H8 H 0.03664 0.05184 0.1505 0.0
H9 H 0.05881 0.03814 0.12596 0.0
H10 H 0.9925 0.12477 0.11324 0.0
H11 H 0.98575 0.10518 0.08004 0.0
H12 H 0.01126 0.13359 0.08506 0.0
C13 C 0.27854 0.74537 0.23185 0.0
N14 N 0.28826 0.73446 0.25124 0.0
N15 N 0.29134 0.77079 0.23051 0.0
C16 C 0.2556 0.73198 0.21521 0.0
C17 C 0.30917 0.7751 0.24988 0.0
N18 N 0.30715 0.75304 0.26276 0.0
C19 C 0.32988 0.79961 0.2544 0.0
H20 H 0.26164 0.7178 0.19751 0.0
H21 H 0.24597 0.74787 0.2082 0.0
H22 H 0.24197 0.71956 0.22676 0.0
H23 H 0.32397 0.81581 0.27043 0.0
H24 H 0.33349 0.80877 0.23607 0.0
H25 H 0.34769 0.79343 0.26068 0.0
C26 C 0.96198 0.51445 0.08764 0.0
N27 N 0.9753 0.49292 0.08722 0.0
N28 N 0.94874 0.51131 0.06466 0.0
C29 C 0.96354 0.5397 0.10941 0.0
C30 C 0.95453 0.48719 0.05021 0.0
N31 N 0.97092 0.47619 0.06375 0.0
C32 C 0.94243 0.47317 0.0239 0.0
H33 H 0.94915 0.53566 0.12483 0.0
H34 H 0.95971 0.55821 0.10144 0.0
H35 H 0.9825 0.54427 0.11901 0.0
H36 H 0.9545 0.47965 0.00745 0.0
H37 H 0.92339 0.47918 0.02198 0.0
H38 H 0.94058 0.45018 0.02172 0.0
C39 C 0.69821 0.75508 0.24906 0.0
N40 N 0.71919 0.77136 0.2424 0.0
N41 N 0.69099 0.76448 0.27431 0.0
C42 C 0.68497 0.72972 0.23117 0.0
C43 C 0.70821 0.78721 0.28274 0.0
N44 N 0.72558 0.79119 0.26346 0.0
C45 C 0.70611 0.8075 0.30838 0.0
H46 H 0.67105 0.73616 0.21853 0.0
H47 H 0.67467 0.71495 0.24311 0.0
H48 H 0.69874 0.71911 0.21788 0.0
H49 H 0.71767 0.80204 0.32396 0.0
H50 H 0.68625 0.80674 0.31543 0.0
H51 H 0.71324 0.82914 0.30586 0.0
C52 C 0.02728 0.00209 0.5041 0.0
N53 N 0.05024 0.00284 0.51524 0.0
N54 N 0.0298 0.01274 0.48136 0.0
C55 C 0.00255 0.98906 0.51427 0.0
C56 C 0.05505 0.01977 0.47884 0.0
N57 N 0.06757 0.01337 0.49924 0.0
C58 C 0.06725 0.03488 0.4576 0.0
H59 H 0.00516 0.97029 0.52249 0.0
H60 H 0.98801 0.98317 0.49826 0.0
H61 H 0.99559 0.00428 0.53055 0.0
H62 H 0.08332 0.05068 0.466 0.0
H63 H 0.05348 0.04533 0.44852 0.0
H64 H 0.07469 0.01964 0.44168 0.0
C65 C 0.20261 0.75814 0.80848 0.0
N66 N 0.21719 0.74567 0.82266 0.0
N67 N 0.20515 0.74903 0.78198 0.0
C68 C 0.18442 0.77761 0.82062 0.0
C69 C 0.22194 0.73063 0.78063 0.0
N70 N 0.2296 0.72897 0.8054 0.0
C71 C 0.22918 0.71258 0.75538 0.0
H72 H 0.16548 0.76534 0.82217 0.0
H73 H 0.18252 0.79342 0.80818 0.0
H74 H 0.19065 0.78863 0.84086 0.0
H75 H 0.25004 0.71333 0.75439 0.0
H76 H 0.22255 0.71929 0.73741 0.0
H77 H 0.22078 0.69068 0.75554 0.0
C78 C 0.93871 0.55294 0.45392 0.0
N79 N 0.95843 0.57383 0.45623 0.0
N80 N 0.919 0.56106 0.46904 0.0
C81 C 0.93814 0.52508 0.43596 0.0
C82 C 0.92739 0.58765 0.48053 0.0
N83 N 0.95121 0.59555 0.47242 0.0
C84 C 0.9132 0.60489 0.50166 0.0
H85 H 0.94942 0.52713 0.41766 0.0
H86 H 0.91841 0.51575 0.43026 0.0
H87 H 0.94651 0.51083 0.44668 0.0
H88 H 0.90316 0.59169 0.51521 0.0
H89 H 0.89881 0.61383 0.49181 0.0
H90 H 0.92586 0.62227 0.51367 0.0
C91 C 0.78364 0.81622 0.82716 0.0
N92 N 0.80408 0.80264 0.82249 0.0
N93 N 0.78526 0.83729 0.81316 0.0
C94 C 0.76308 0.81026 0.84693 0.0
C95 C 0.80753 0.8362 0.80001 0.0
N96 N 0.81908 0.81533 0.80588 0.0
C97 C 0.81785 0.85526 0.78114 0.0
H98 H 0.74839 0.79366 0.83686 0.0
H99 H 0.75406 0.82903 0.85459 0.0
H100 H 0.77069 0.8028 0.864 0.0
H101 H 0.80245 0.86412 0.77284 0.0
H102 H 0.82832 0.8441 0.76452 0.0
H103 H 0.83129 0.8726 0.79217 0.0
C104 C 0.28225 0.31106 0.32075 0.0
N105 N 0.30393 0.29948 0.31755 0.0
N106 N 0.2834 0.33244 0.3072 0.0
C107 C 0.26103 0.30324 0.33918 0.0
C108 C 0.30662 0.33366 0.29589 0.0
N109 N 0.31926 0.31388 0.30243 0.0
C110 C 0.31647 0.35348 0.27752 0.0
H111 H 0.24823 0.28507 0.3285 0.0
H112 H 0.24989 0.32058 0.34562 0.0
H113 H 0.26848 0.29718 0.35711 0.0
H114 H 0.3283 0.37184 0.28918 0.0
H115 H 0.30067 0.36076 0.26822 0.0
H116 H 0.32839 0.34339 0.2616 0.0
C117 C 0.46352 0.01539 0.59285 0.0
N118 N 0.47601 0.99326 0.5927 0.0
N119 N 0.45095 0.01286 0.56954 0.0
C120 C 0.46535 0.04061 0.61467 0.0
C121 C 0.45627 0.9885 0.55519 0.0
N122 N 0.47174 0.97676 0.56911 0.0
C123 C 0.4448 0.97517 0.5284 0.0
H124 H 0.4507 0.03685 0.62992 0.0
H125 H 0.46209 0.05933 0.60673 0.0
H126 H 0.4842 0.04466 0.62449 0.0
H127 H 0.42622 0.98197 0.52584 0.0
H128 H 0.44222 0.95213 0.526 0.0
H129 H 0.45771 0.98144 0.51247 0.0
C130 C 0.20272 0.24926 0.75132 0.0
N131 N 0.22232 0.26606 0.74269 0.0
N132 N 0.19599 0.26 0.77642 0.0
C133 C 0.18969 0.22269 0.7351 0.0
C134 C 0.21211 0.28407 0.78265 0.0
N135 N 0.22818 0.28769 0.76221 0.0
C136 C 0.20992 0.30562 0.80729 0.0
H137 H 0.17462 0.22758 0.7228 0.0
H138 H 0.18079 0.20844 0.74832 0.0
H139 H 0.20332 0.21221 0.72151 0.0
H140 H 0.20939 0.29585 0.8253 0.0
H141 H 0.19188 0.31418 0.80647 0.0
H142 H 0.22593 0.3229 0.80924 0.0
C143 C 0.7804 0.25141 0.73861 0.0
N144 N 0.78981 0.23866 0.75681 0.0
N145 N 0.79362 0.27701 0.73896 0.0
C146 C 0.75752 0.23955 0.72134 0.0
C147 C 0.81137 0.27949 0.75816 0.0
N148 N 0.80888 0.25621 0.76921 0.0
C149 C 0.83223 0.3036 0.76469 0.0
H150 H 0.76351 0.22622 0.70302 0.0
H151 H 0.7484 0.25636 0.71535 0.0
H152 H 0.7435 0.22656 0.73197 0.0
H153 H 0.83506 0.31588 0.74837 0.0
H154 H 0.85022 0.29612 0.7685 0.0
H155 H 0.82716 0.31739 0.78315 0.0
C156 C 0.53395 0.5652 0.60844 0.0
N157 N 0.54384 0.56819 0.58421 0.0
N158 N 0.51304 0.57801 0.61316 0.0
C159 C 0.54316 0.54738 0.62626 0.0
C160 C 0.51043 0.58859 0.5908 0.0
N161 N 0.52898 0.58241 0.57314 0.0
C162 C 0.49015 0.6056 0.58641 0.0
H163 H 0.52737 0.53823 0.63791 0.0
H164 H 0.5574 0.56049 0.64041 0.0
H165 H 0.55224 0.53024 0.61447 0.0
H166 H 0.48265 0.6156 0.60568 0.0
H167 H 0.47441 0.59174 0.57488 0.0
H168 H 0.49759 0.6219 0.57468 0.0
C169 C 0.52187 0.50151 0.00759 0.0
N170 N 0.54485 0.50705 0.01959 0.0
N171 N 0.51954 0.52007 0.99154 0.0
C172 C 0.50148 0.47837 0.01209 0.0
C173 C 0.54194 0.53712 0.99418 0.0
N174 N 0.55727 0.52944 0.01156 0.0
C175 C 0.54967 0.55948 0.97778 0.0
H176 H 0.50499 0.45885 0.99882 0.0
H177 H 0.48248 0.48297 0.0075 0.0
H178 H 0.50182 0.47495 0.03302 0.0
H179 H 0.54562 0.57972 0.98925 0.0
H180 H 0.53896 0.55514 0.95872 0.0
H181 H 0.57022 0.56128 0.97328 0.0
C182 C 0.68601 0.24508 0.32565 0.0
N183 N 0.70312 0.2352 0.3392 0.0
N184 N 0.68785 0.23586 0.29915 0.0
C185 C 0.66821 0.26484 0.33807 0.0
C186 C 0.70686 0.22016 0.29695 0.0
N187 N 0.71643 0.22007 0.32137 0.0
C188 C 0.7145 0.20302 0.27133 0.0
H189 H 0.65106 0.25271 0.34517 0.0
H190 H 0.6623 0.27681 0.32338 0.0
H191 H 0.67725 0.2796 0.35543 0.0
H192 H 0.73221 0.21391 0.26399 0.0
H193 H 0.69969 0.20002 0.25574 0.0
H194 H 0.71832 0.18239 0.27476 0.0
C195 C 0.43819 0.05639 0.95704 0.0
N196 N 0.45729 0.07787 0.95819 0.0
N197 N 0.41819 0.06454 0.97165 0.0
C198 C 0.43838 0.02795 0.94037 0.0
C199 C 0.42572 0.09178 0.98156 0.0
N200 N 0.44931 0.09999 0.97299 0.0
C201 C 0.41114 0.10954 0.00183 0.0
H202 H 0.44969 0.02931 0.92197 0.0
H203 H 0.41884 0.0178 0.9348 0.0
H204 H 0.44709 0.01477 0.95205 0.0
H205 H 0.39949 0.09671 0.01466 0.0
H206 H 0.3983 0.1197 0.99115 0.0
H207 H 0.42392 0.12605 0.01475 0.0
O208 O 0.23535 0.86167 0.01711 0.0
Cd209 Cd 0.24583 0.89275 0.04945 0.0
Cd210 Cd 0.21046 0.91794 0.02065 0.0
O211 O 0.20549 0.87837 0.99808 0.0
O212 O 0.27025 0.87469 0.06701 0.0
O213 O 0.23561 0.88716 0.08701 0.0
C214 C 0.25592 0.8759 0.08768 0.0
C215 C 0.17573 0.94224 0.02993 0.0
C216 C 0.21862 0.859 0.99911 0.0
C217 C 0.26542 0.94445 0.02702 0.0
O218 O 0.24406 0.94287 0.01595 0.0
O219 O 0.26909 0.92772 0.04234 0.0
O220 O 0.18552 0.93831 0.00645 0.0
O221 O 0.18509 0.93146 0.04815 0.0
O222 O 0.17777 0.55446 0.30695 0.0
Cd223 Cd 0.15359 0.52114 0.31637 0.0
Cd224 Cd 0.12272 0.53522 0.27652 0.0
O225 O 0.15611 0.5613 0.27285 0.0
O226 O 0.17503 0.50148 0.33585 0.0
O227 O 0.15709 0.48252 0.29687 0.0
C228 C 0.17152 0.48068 0.31632 0.0
C229 C 0.0973 0.52143 0.23796 0.0
C230 C 0.1757 0.56715 0.28768 0.0
C231 C 0.10413 0.53902 0.33453 0.0
O232 O 0.10142 0.54279 0.31078 0.0
O233 O 0.12346 0.52938 0.34103 0.0
O234 O 0.10013 0.5465 0.25108 0.0
O235 O 0.10959 0.50385 0.2462 0.0
O236 O 0.78542 0.69729 0.98301 0.0
Cd237 Cd 0.77141 0.68117 0.01635 0.0
Cd238 Cd 0.78711 0.63401 0.98621 0.0
O239 O 0.79447 0.65881 0.95752 0.0
O240 O 0.76141 0.7143 0.0405 0.0
O241 O 0.78963 0.68985 0.05192 0.0
C242 C 0.7763 0.70993 0.05834 0.0
C243 C 0.82001 0.61499 0.00187 0.0
C244 C 0.79316 0.68474 0.96092 0.0
C245 C 0.73358 0.62759 0.00404 0.0
O246 O 0.75061 0.61534 0.9911 0.0
O247 O 0.73826 0.6532 0.01452 0.0
O248 O 0.80926 0.6044 0.97916 0.0
O249 O 0.81212 0.63676 0.01573 0.0
O250 O 0.89928 0.02246 0.32859 0.0
Cd251 Cd 0.87585 0.02005 0.29631 0.0
Cd252 Cd 0.8431 0.03385 0.33651 0.0
O253 O 0.87335 0.03537 0.3613 0.0
O254 O 0.89916 0.0123 0.26585 0.0
O255 O 0.8816 0.05084 0.27444 0.0
C256 C 0.89643 0.03591 0.25981 0.0
C257 C 0.82402 0.07334 0.33651 0.0
C258 C 0.8949 0.02926 0.35336 0.0
C259 C 0.82864 0.97916 0.301 0.0
O260 O 0.82331 0.99513 0.32225 0.0
O261 O 0.84796 0.98608 0.28736 0.0
O262 O 0.81947 0.05866 0.35513 0.0
O263 O 0.83966 0.06557 0.31782 0.0
O264 O 0.28507 0.1967 0.47968 0.0
Cd265 Cd 0.27047 0.17915 0.51189 0.0
Cd266 Cd 0.29299 0.13517 0.48542 0.0
O267 O 0.29945 0.15992 0.45644 0.0
O268 O 0.25801 0.21037 0.53672 0.0
O269 O 0.28761 0.18749 0.54794 0.0
C270 C 0.273 0.20633 0.55464 0.0
C271 C 0.32691 0.11829 0.50179 0.0
C272 C 0.29543 0.18503 0.45872 0.0
C273 C 0.23813 0.12257 0.4984 0.0
O274 O 0.25775 0.11265 0.48879 0.0
O275 O 0.2392 0.14851 0.50726 0.0
O276 O 0.31715 0.1076 0.47864 0.0
O277 O 0.31763 0.13918 0.5156 0.0
O278 O 0.39588 0.52008 0.83101 0.0
Cd279 Cd 0.37623 0.5173 0.79626 0.0
Cd280 Cd 0.33996 0.53193 0.83196 0.0
O281 O 0.3672 0.53297 0.86061 0.0
O282 O 0.40385 0.51208 0.76992 0.0
O283 O 0.38239 0.54773 0.77408 0.0
C284 C 0.40028 0.53489 0.76266 0.0
C285 C 0.32243 0.57203 0.82959 0.0
C286 C 0.38924 0.52672 0.85513 0.0
C287 C 0.32853 0.47661 0.79536 0.0
O288 O 0.32071 0.49355 0.81462 0.0
O289 O 0.35002 0.4825 0.78494 0.0
O290 O 0.31505 0.55691 0.84732 0.0
O291 O 0.34 0.56434 0.81317 0.0
O292 O 0.73599 0.36395 0.52725 0.0
Cd293 Cd 0.74747 0.39676 0.55774 0.0
Cd294 Cd 0.71147 0.42019 0.52816 0.0
O295 O 0.7048 0.37927 0.50901 0.0
O296 O 0.7726 0.38018 0.5759 0.0
O297 O 0.7384 0.39358 0.59617 0.0
C298 C 0.75884 0.38259 0.597 0.0
C299 C 0.67769 0.44608 0.53677 0.0
C300 C 0.71812 0.36014 0.51035 0.0
C301 C 0.7666 0.44566 0.5309 0.0
O302 O 0.74507 0.4433 0.51995 0.0
O303 O 0.77038 0.43065 0.54784 0.0
O304 O 0.68577 0.43879 0.51288 0.0
O305 O 0.68825 0.43778 0.5559 0.0
O306 O 0.67869 0.05877 0.81157 0.0
Cd307 Cd 0.65481 0.02569 0.82185 0.0
Cd308 Cd 0.6239 0.03826 0.78119 0.0
O309 O 0.65714 0.06432 0.77688 0.0
O310 O 0.67672 0.00669 0.84149 0.0
O311 O 0.65855 0.98702 0.80278 0.0
C312 C 0.67334 0.98571 0.82213 0.0
C313 C 0.59827 0.02349 0.74291 0.0
C314 C 0.67667 0.07074 0.79179 0.0
C315 C 0.60513 0.0433 0.83929 0.0
O316 O 0.60257 0.04645 0.81532 0.0
O317 O 0.6245 0.03407 0.84629 0.0
O318 O 0.60113 0.04878 0.75548 0.0
O319 O 0.61072 0.00625 0.75149 0.0
O320 O 0.97545 0.26825 0.96798 0.0
Cd321 Cd 0.97029 0.23078 0.94187 0.0
Cd322 Cd 1.00007 0.25767 0.90871 0.0
O323 O 0.0026 0.28902 0.94206 0.0
O324 O 0.96404 0.19986 0.9625 0.0
O325 O 0.99858 0.20757 0.93836 0.0
C326 C 0.98581 0.1932 0.95434 0.0
C327 C 0.03714 0.25329 0.88379 0.0
C328 C 0.99048 0.28951 0.96391 0.0
C329 C 0.94564 0.23565 0.89167 0.0
O330 O 0.96696 0.24868 0.88645 0.0
O331 O 0.94254 0.22585 0.91313 0.0
O332 O 0.02452 0.2736 0.88355 0.0
O333 O 0.02886 0.23527 0.8986 0.0
O334 O 0.47215 0.77076 0.46689 0.0
Cd335 Cd 0.46834 0.734 0.43923 0.0
Cd336 Cd 0.49781 0.76408 0.40944 0.0
O337 O 0.50235 0.79228 0.44471 0.0
O338 O 0.46129 0.7023 0.45882 0.0
O339 O 0.49689 0.71114 0.43668 0.0
C340 C 0.48345 0.69613 0.45168 0.0
C341 C 0.53367 0.75831 0.38298 0.0
C342 C 0.48869 0.79175 0.46543 0.0
C343 C 0.44382 0.74385 0.39101 0.0
O344 O 0.46422 0.76007 0.38881 0.0
O345 O 0.44167 0.72905 0.40917 0.0
O346 O 0.52285 0.7803 0.385 0.0
O347 O 0.5243 0.73941 0.39642 0.0
O348 O 0.98711 0.7903 0.68961 0.0
Cd349 Cd 0.01762 0.78403 0.6643 0.0
Cd350 Cd 0.99442 0.81856 0.63725 0.0
O351 O 0.96865 0.81713 0.66809 0.0
O352 O 0.03609 0.76116 0.6833 0.0
O353 O 0.05338 0.80201 0.67456 0.0
C354 C 0.05549 0.78013 0.6845 0.0
C355 C 0.01157 0.86125 0.62594 0.0
C356 C 0.96916 0.80415 0.68745 0.0
C357 C 0.00114 0.76262 0.60655 0.0
O358 O 0.99171 0.78483 0.60654 0.0
O359 O 0.01217 0.75893 0.6272 0.0
O360 O 0.9883 0.85066 0.62079 0.0
O361 O 0.0252 0.84786 0.6383 0.0
O362 O 0.48666 0.2857 0.18595 0.0
Cd363 Cd 0.51826 0.28229 0.16175 0.0
Cd364 Cd 0.497 0.32194 0.13919 0.0
O365 O 0.47378 0.32136 0.17224 0.0
O366 O 0.53463 0.25486 0.17688 0.0
O367 O 0.55319 0.29783 0.17677 0.0
C368 C 0.55404 0.27359 0.18266 0.0
C369 C 0.5153 0.36455 0.12857 0.0
C370 C 0.4717 0.30383 0.18795 0.0
C371 C 0.50167 0.26785 0.10379 0.0
O372 O 0.49078 0.28948 0.10701 0.0
O373 O 0.5145 0.26277 0.12253 0.0
O374 O 0.49142 0.35588 0.12539 0.0
O375 O 0.52897 0.34928 0.13853 0.0
H376 H 0.17979 0.73396 0.85682 0.0
H377 H 0.25824 0.76839 0.85239 0.0
H378 H 0.17904 0.75457 0.90432 0.0
H379 H 0.25785 0.78904 0.8999 0.0
H380 H 0.25092 0.82012 0.98786 0.0
H381 H 0.25084 0.78394 0.94822 0.0
H382 H 0.18146 0.806 0.92167 0.0
H383 H 0.18149 0.84218 0.96114 0.0
C384 C 0.19708 0.74513 0.86643 0.0
C385 C 0.21898 0.75007 0.85124 0.0
C386 C 0.19665 0.75704 0.89343 0.0
C387 C 0.21825 0.77382 0.90566 0.0
C388 C 0.24093 0.77615 0.89104 0.0
C389 C 0.24125 0.76435 0.86395 0.0
C390 C 0.23535 0.81689 0.97385 0.0
C391 C 0.21633 0.83426 0.97751 0.0
C392 C 0.23539 0.79621 0.95113 0.0
C393 C 0.21622 0.7922 0.93185 0.0
C394 C 0.19636 0.80838 0.93634 0.0
C395 C 0.19647 0.82927 0.95887 0.0
H396 H 0.99013 0.53637 0.45801 0.0
H397 H 0.98105 0.60922 0.42562 0.0
H398 H 0.02763 0.5301 0.43034 0.0
H399 H 0.01918 0.60389 0.39855 0.0
H400 H 0.06043 0.55929 0.32688 0.0
H401 H 0.02792 0.57088 0.35937 0.0
H402 H 0.07103 0.54784 0.4206 0.0
H403 H 0.10355 0.53561 0.38781 0.0
C404 C 0.99655 0.55127 0.44521 0.0
C405 C 0.98268 0.57298 0.44346 0.0
C406 C 0.0181 0.5479 0.42956 0.0
C407 C 0.02622 0.5663 0.41195 0.0
C408 C 0.01314 0.58906 0.41154 0.0
C409 C 0.99154 0.59235 0.42718 0.0
C410 C 0.0631 0.55673 0.34727 0.0
C411 C 0.08459 0.54637 0.35468 0.0
C412 C 0.04452 0.56366 0.36599 0.0
C413 C 0.04693 0.56048 0.39265 0.0
C414 C 0.06852 0.55035 0.40017 0.0
C415 C 0.08717 0.54338 0.38139 0.0
H416 H 0.77965 0.75057 0.81833 0.0
H417 H 0.8404 0.80828 0.85938 0.0
H418 H 0.78166 0.7195 0.85052 0.0
H419 H 0.84258 0.77746 0.8919 0.0
H420 H 0.7995 0.66368 0.90793 0.0
H421 H 0.80771 0.68961 0.8712 0.0
H422 H 0.81036 0.76693 0.92715 0.0
H423 H 0.80205 0.74118 0.96378 0.0
C424 C 0.79409 0.75594 0.83372 0.0
C425 C 0.81005 0.78148 0.8364 0.0
C426 C 0.79523 0.73831 0.85219 0.0
C427 C 0.81212 0.74619 0.87392 0.0
C428 C 0.82923 0.77096 0.8755 0.0
C429 C 0.82826 0.7884 0.85679 0.0
C430 C 0.80211 0.68622 0.91243 0.0
C431 C 0.79995 0.70035 0.9388 0.0
C432 C 0.80676 0.70104 0.89137 0.0
C433 C 0.80978 0.7303 0.89628 0.0
C434 C 0.80848 0.74441 0.92274 0.0
C435 C 0.80348 0.72962 0.94372 0.0
H436 H 0.02447 0.98906 0.42979 0.0
H437 H 0.99144 0.04263 0.49318 0.0
H438 H 0.99147 0.9938 0.39909 0.0
H439 H 0.95876 0.04857 0.4625 0.0
H440 H 0.88959 0.02894 0.40687 0.0
H441 H 0.92212 0.02506 0.43826 0.0
H442 H 0.97804 0.02617 0.37551 0.0
H443 H 0.94536 0.02887 0.34399 0.0
C444 C 0.0101 0.00202 0.43693 0.0
C445 C 0.01024 0.0155 0.46358 0.0
C446 C 0.99133 0.00495 0.41944 0.0
C447 C 0.97249 0.02175 0.42824 0.0
C448 C 0.97273 0.0352 0.4551 0.0
C449 C 0.9914 0.03197 0.47264 0.0
C450 C 0.90887 0.02849 0.39985 0.0
C451 C 0.91487 0.02902 0.37292 0.0
C452 C 0.92756 0.02639 0.41787 0.0
C453 C 0.95272 0.02509 0.40941 0.0
C454 C 0.95878 0.02646 0.38261 0.0
C455 C 0.94006 0.02821 0.36456 0.0
H456 H 0.27069 0.2614 0.72876 0.0
H457 H 0.19713 0.26391 0.69718 0.0
H458 H 0.28752 0.25205 0.68321 0.0
H459 H 0.21327 0.25369 0.65177 0.0
H460 H 0.24946 0.25159 0.57266 0.0
H461 H 0.24066 0.27112 0.61875 0.0
H462 H 0.28314 0.21314 0.64593 0.0
H463 H 0.29254 0.19409 0.59971 0.0
C464 C 0.2583 0.26028 0.71196 0.0
C465 C 0.2327 0.26316 0.71619 0.0
C466 C 0.26777 0.25469 0.68596 0.0
C467 C 0.25175 0.25202 0.66378 0.0
C468 C 0.22628 0.25595 0.66829 0.0
C469 C 0.21691 0.26151 0.69421 0.0
C470 C 0.25732 0.24334 0.58847 0.0
C471 C 0.27146 0.22107 0.58253 0.0
C472 C 0.25214 0.25443 0.61491 0.0
C473 C 0.2608 0.24339 0.63606 0.0
C474 C 0.27628 0.22227 0.63016 0.0
C475 C 0.28162 0.21127 0.60365 0.0
H476 H 0.52566 0.59276 0.66517 0.0
H477 H 0.46251 0.5622 0.61151 0.0
H478 H 0.49781 0.58683 0.70334 0.0
H479 H 0.43443 0.55718 0.64961 0.0
H480 H 0.39016 0.57055 0.72992 0.0
H481 H 0.41737 0.58607 0.69426 0.0
H482 H 0.47466 0.5397 0.71438 0.0
H483 H 0.44759 0.52385 0.74934 0.0
C484 C 0.50573 0.5852 0.66168 0.0
C485 C 0.49616 0.57777 0.63556 0.0
C486 C 0.48984 0.58193 0.68339 0.0
C487 C 0.46404 0.57157 0.67931 0.0
C488 C 0.4542 0.56553 0.65325 0.0
C489 C 0.47019 0.5684 0.63152 0.0
C490 C 0.40865 0.5639 0.72677 0.0
C491 C 0.41673 0.54587 0.74221 0.0
C492 C 0.42412 0.57271 0.70642 0.0
C493 C 0.44809 0.56415 0.70177 0.0
C494 C 0.45638 0.54683 0.71778 0.0
C495 C 0.44079 0.5376 0.73762 0.0
H496 H 0.7815 0.32912 0.75007 0.0
H497 H 0.80003 0.26535 0.68617 0.0
H498 H 0.77438 0.35859 0.71741 0.0
H499 H 0.79298 0.29426 0.65353 0.0
H500 H 0.73225 0.37954 0.64358 0.0
H501 H 0.74272 0.35673 0.68007 0.0
H502 H 0.81215 0.33849 0.64005 0.0
H503 H 0.80175 0.36088 0.60376 0.0
C504 C 0.78428 0.32169 0.72902 0.0
C505 C 0.79132 0.29522 0.72037 0.0
C506 C 0.78006 0.33832 0.71039 0.0
C507 C 0.78319 0.32875 0.68293 0.0
C508 C 0.79074 0.30239 0.67454 0.0
C509 C 0.79468 0.28579 0.69308 0.0
C510 C 0.74988 0.37096 0.64279 0.0
C511 C 0.766 0.37172 0.62062 0.0
C512 C 0.75592 0.35802 0.66371 0.0
C513 C 0.77812 0.34556 0.66273 0.0
C514 C 0.79471 0.34749 0.64114 0.0
C515 C 0.78874 0.36042 0.62037 0.0
H516 H 0.52497 0.98495 0.58759 0.0
H517 H 0.46423 0.99362 0.6443 0.0
H518 H 0.55482 0.98713 0.62422 0.0
H519 H 0.49394 0.99645 0.68095 0.0
H520 H 0.56072 0.05084 0.73113 0.0
H521 H 0.5305 0.03752 0.69454 0.0
H522 H 0.56466 0.96352 0.66622 0.0
H523 H 0.59507 0.97668 0.70358 0.0
C524 C 0.51796 0.98656 0.60785 0.0
C525 C 0.49249 0.98948 0.61334 0.0
C526 C 0.53497 0.98784 0.62875 0.0
C527 C 0.52669 0.9923 0.65538 0.0
C528 C 0.50084 0.99332 0.66061 0.0
C529 C 0.48389 0.99176 0.63976 0.0
C530 C 0.56187 0.03168 0.7172 0.0
C531 C 0.58032 0.01482 0.72023 0.0
C532 C 0.54441 0.02397 0.69634 0.0
C533 C 0.54513 0.99939 0.67773 0.0
C534 C 0.56372 0.98255 0.68041 0.0
C535 C 0.58103 0.99005 0.70174 0.0
H536 H 0.81817 0.2821 0.81992 0.0
H537 H 0.83837 0.21585 0.75959 0.0
H538 H 0.84994 0.27308 0.85031 0.0
H539 H 0.87053 0.20699 0.78959 0.0
H540 H 0.94749 0.23772 0.83852 0.0
H541 H 0.9123 0.23924 0.80919 0.0
H542 H 0.85993 0.23192 0.87421 0.0
H543 H 0.8951 0.22977 0.90355 0.0
C544 C 0.82934 0.26547 0.81341 0.0
C545 C 0.82607 0.24962 0.78766 0.0
C546 C 0.84734 0.2602 0.83069 0.0
C547 C 0.86265 0.23935 0.82223 0.0
C548 C 0.859 0.22321 0.79654 0.0
C549 C 0.84067 0.22815 0.77949 0.0
C550 C 0.92843 0.23603 0.84647 0.0
C551 C 0.92405 0.23365 0.87334 0.0
C552 C 0.90831 0.2368 0.82966 0.0
C553 C 0.88346 0.23577 0.8395 0.0
C554 C 0.87896 0.23284 0.8662 0.0
C555 C 0.89904 0.23146 0.8829 0.0
H556 H 0.49956 0.96361 0.52556 0.0
H557 H 0.46378 0.93118 0.59224 0.0
H558 H 0.50768 0.9172 0.50497 0.0
H559 H 0.47253 0.88431 0.57225 0.0
H560 H 0.45445 0.80572 0.50464 0.0
H561 H 0.4552 0.85026 0.53473 0.0
H562 H 0.52916 0.87842 0.50513 0.0
H563 H 0.52794 0.83432 0.47439 0.0
C564 C 0.4941 0.94645 0.53607 0.0
C565 C 0.48093 0.95065 0.56022 0.0
C566 C 0.49886 0.91986 0.52445 0.0
C567 C 0.49061 0.89685 0.53684 0.0
C568 C 0.47882 0.90148 0.56198 0.0
C569 C 0.47405 0.92823 0.57359 0.0
C570 C 0.47105 0.82125 0.5049 0.0
C571 C 0.49092 0.81669 0.4868 0.0
C572 C 0.47157 0.84678 0.5223 0.0
C573 C 0.4921 0.86815 0.52212 0.0
C574 C 0.51278 0.8627 0.50536 0.0
C575 C 0.51212 0.83736 0.48779 0.0
H576 H 0.14899 0.25766 0.75786 0.0
H577 H 0.19088 0.24673 0.82553 0.0
H578 H 0.10949 0.25185 0.78286 0.0
H579 H 0.15145 0.24167 0.85115 0.0
H580 H 0.0554 0.28554 0.84773 0.0
H581 H 0.09325 0.28274 0.82063 0.0
H582 H 0.10909 0.21299 0.85487 0.0
H583 H 0.07095 0.21592 0.88246 0.0
C584 C 0.14955 0.25343 0.77796 0.0
C585 C 0.17275 0.25264 0.78992 0.0
C586 C 0.12707 0.25042 0.79237 0.0
C587 C 0.12741 0.24665 0.81909 0.0
C588 C 0.15057 0.24442 0.83058 0.0
C589 C 0.17308 0.24746 0.81608 0.0
C590 C 0.06685 0.26952 0.84951 0.0
C591 C 0.06017 0.25095 0.86728 0.0
C592 C 0.08847 0.26777 0.83378 0.0
C593 C 0.10404 0.24748 0.83542 0.0
C594 C 0.09746 0.22889 0.85324 0.0
C595 C 0.07563 0.23052 0.86895 0.0
H596 H 0.5597 0.62596 0.56023 0.0
H597 H 0.50233 0.55792 0.52938 0.0
H598 H 0.55218 0.64942 0.52324 0.0
H599 H 0.49489 0.58072 0.49194 0.0
H600 H 0.45685 0.65519 0.47449 0.0
H601 H 0.47337 0.62199 0.49686 0.0
H602 H 0.54947 0.65276 0.47499 0.0
H603 H 0.53277 0.68636 0.45246 0.0
C604 C 0.5465 0.6154 0.54459 0.0
C605 C 0.53166 0.59023 0.54732 0.0
C606 C 0.54204 0.62881 0.5235 0.0
C607 C 0.52257 0.61716 0.50492 0.0
C608 C 0.50972 0.59044 0.50617 0.0
C609 C 0.51416 0.57718 0.52729 0.0
C610 C 0.47707 0.6546 0.47401 0.0
C611 C 0.4935 0.67355 0.46188 0.0
C612 C 0.48656 0.63535 0.48664 0.0
C613 C 0.51277 0.63464 0.48766 0.0
C614 C 0.5292 0.65285 0.4746 0.0
C615 C 0.51963 0.672 0.46164 0.0
H616 H 0.82162 0.77837 0.76099 0.0
H617 H 0.86698 0.83475 0.82179 0.0
H618 H 0.85936 0.77316 0.73306 0.0
H619 H 0.90508 0.82927 0.79427 0.0
H620 H 0.96893 0.79239 0.73815 0.0
H621 H 0.9333 0.79097 0.76948 0.0
H622 H 0.88589 0.81321 0.71157 0.0
H623 H 0.92139 0.81525 0.68056 0.0
C624 C 0.83995 0.78868 0.76871 0.0
C625 C 0.84171 0.80656 0.79351 0.0
C626 C 0.86142 0.78601 0.75273 0.0
C627 C 0.88507 0.80098 0.76146 0.0
C628 C 0.88711 0.81737 0.78715 0.0
C629 C 0.86548 0.82038 0.80294 0.0
C630 C 0.95091 0.79706 0.73216 0.0
C631 C 0.948 0.80401 0.70688 0.0
C632 C 0.93058 0.79624 0.75009 0.0
C633 C 0.90683 0.80169 0.7428 0.0
C634 C 0.90393 0.80857 0.71755 0.0
C635 C 0.92432 0.80996 0.69989 0.0
H636 H 0.07596 0.95977 0.51488 0.0
H637 H 0.03357 0.01647 0.56535 0.0
H638 H 0.07171 0.92907 0.54812 0.0
H639 H 0.02929 0.98612 0.5988 0.0
H640 H 0.98571 0.90071 0.61347 0.0
H641 H 0.00183 0.94014 0.59239 0.0
H642 H 0.07767 0.91976 0.59502 0.0
H643 H 0.06137 0.88001 0.6165 0.0
C644 C 0.06675 0.96619 0.53369 0.0
C645 C 0.05488 0.99017 0.53765 0.0
C646 C 0.06422 0.94865 0.55268 0.0
C647 C 0.04973 0.95493 0.57585 0.0
C648 C 0.0402 0.98051 0.58095 0.0
C649 C 0.04277 0.99796 0.56199 0.0
C650 C 0.00589 0.90489 0.61002 0.0
C651 C 0.02225 0.8872 0.61653 0.0
C652 C 0.01519 0.92765 0.59811 0.0
C653 C 0.04107 0.93315 0.5921 0.0
C654 C 0.05764 0.91601 0.5994 0.0
C655 C 0.04834 0.89337 0.61178 0.0
H656 H 0.17165 0.70918 0.754 0.0
H657 H 0.2007 0.79647 0.76444 0.0
H658 H 0.13751 0.71617 0.72593 0.0
H659 H 0.16558 0.8043 0.73803 0.0
H660 H 0.10335 0.80767 0.67921 0.0
H661 H 0.14274 0.79877 0.69761 0.0
H662 H 0.10012 0.7354 0.736 0.0
H663 H 0.06139 0.74345 0.71679 0.0
C664 C 0.17085 0.72979 0.74979 0.0
C665 C 0.1884 0.75238 0.76148 0.0
C666 C 0.15113 0.73398 0.73413 0.0
C667 C 0.14829 0.76097 0.73032 0.0
C668 C 0.16707 0.78324 0.74048 0.0
C669 C 0.18708 0.77888 0.75573 0.0
C670 C 0.10254 0.79186 0.69159 0.0
C671 C 0.07933 0.7762 0.69651 0.0
C672 C 0.12507 0.78674 0.70215 0.0
C673 C 0.12474 0.76608 0.71804 0.0
C674 C 0.10134 0.75086 0.72321 0.0
C675 C 0.07901 0.75571 0.71243 0.0
H676 H 0.98329 0.59954 0.51271 0.0
H677 H 0.95365 0.64658 0.46038 0.0
H678 H 1.00017 0.64246 0.54233 0.0
H679 H 0.97178 0.69012 0.48887 0.0
H680 H 0.96589 0.75291 0.56676 0.0
H681 H 0.95981 0.71387 0.52979 0.0
H682 H 0.02654 0.68429 0.55431 0.0
H683 H 0.03159 0.72255 0.59223 0.0
C684 C 0.9816 0.61933 0.50702 0.0
C685 C 0.96745 0.62012 0.48447 0.0
C686 C 0.99119 0.644 0.52393 0.0
C687 C 0.98701 0.66997 0.51833 0.0
C688 C 0.97479 0.67057 0.49425 0.0
C689 C 0.9648 0.6458 0.47765 0.0
C690 C 0.97936 0.73817 0.56408 0.0
C691 C 0.99896 0.74052 0.58259 0.0
C692 C 0.97607 0.71586 0.54267 0.0
C693 C 0.99262 0.69566 0.53896 0.0
C694 C 0.01306 0.69898 0.55678 0.0
C695 C 0.01602 0.72098 0.5785 0.0
H696 H 0.76268 0.80908 0.2997 0.0
H697 H 0.73017 0.82791 0.22962 0.0
H698 H 0.78879 0.85492 0.3071 0.0
H699 H 0.75676 0.87359 0.23647 0.0
H700 H 0.82743 0.94472 0.25231 0.0
H701 H 0.80466 0.89741 0.24031 0.0
H702 H 0.77334 0.9035 0.3197 0.0
H703 H 0.7957 0.95078 0.33168 0.0
C704 C 0.76171 0.82286 0.28554 0.0
C705 C 0.74453 0.8152 0.26418 0.0
C706 C 0.77642 0.84904 0.28982 0.0
C707 C 0.77447 0.86785 0.27254 0.0
C708 C 0.75861 0.85941 0.25003 0.0
C709 C 0.7436 0.83329 0.24599 0.0
C710 C 0.81553 0.93603 0.26713 0.0
C711 C 0.81339 0.95147 0.29297 0.0
C712 C 0.80252 0.909 0.26023 0.0
C713 C 0.78756 0.89678 0.27919 0.0
C714 C 0.78508 0.91235 0.30484 0.0
C715 C 0.7977 0.93949 0.3116 0.0
H716 H 0.70847 0.18078 0.352 0.0
H717 H 0.76434 0.22038 0.30355 0.0
H718 H 0.73656 0.14722 0.35744 0.0
H719 H 0.79317 0.1875 0.30946 0.0
H720 H 0.82123 0.10199 0.29566 0.0
H721 H 0.79702 0.14001 0.29435 0.0
H722 H 0.77405 0.13888 0.37617 0.0
H723 H 0.7974 0.10013 0.37701 0.0
C724 C 0.72713 0.18259 0.34311 0.0
C725 C 0.73438 0.20291 0.32735 0.0
C726 C 0.74329 0.16347 0.34619 0.0
C727 C 0.76718 0.16446 0.33374 0.0
C728 C 0.77476 0.18571 0.31888 0.0
C729 C 0.75844 0.20465 0.31563 0.0
C730 C 0.81113 0.11001 0.3134 0.0
C731 C 0.81104 0.09789 0.33634 0.0
C732 C 0.79737 0.13197 0.31275 0.0
C733 C 0.78341 0.14253 0.33513 0.0
C734 C 0.78411 0.13096 0.35838 0.0
C735 C 0.79763 0.10882 0.35891 0.0
H736 H 0.36997 0.07392 0.96839 0.0
H737 H 0.41615 0.01705 0.99102 0.0
H738 H 0.33209 0.0468 0.9835 0.0
H739 H 0.37843 0.98883 0.00466 0.0
H740 H 0.3112 0.95986 0.05232 0.0
H741 H 0.34767 0.99005 0.03912 0.0
H742 H 0.30493 0.00365 0.97275 0.0
H743 H 0.26818 0.97434 0.98656 0.0
C744 C 0.37185 0.05538 0.97636 0.0
C745 C 0.39578 0.0474 0.97853 0.0
C746 C 0.35024 0.03974 0.98483 0.0
C747 C 0.3522 0.01568 0.99544 0.0
C748 C 0.37623 0.0075 0.99707 0.0
C749 C 0.3978 0.02332 0.98885 0.0
C750 C 0.30952 0.96952 0.03507 0.0
C751 C 0.28683 0.96462 0.02043 0.0
C752 C 0.3305 0.98665 0.02736 0.0
C753 C 0.32936 0.99901 0.00466 0.0
C754 C 0.30642 0.9947 0.99047 0.0
C755 C 0.28535 0.97781 0.99835 0.0
H756 H 0.23418 0.3222 0.29249 0.0
H757 H 0.29369 0.38741 0.32483 0.0
H758 H 0.20459 0.35656 0.29516 0.0
H759 H 0.26467 0.42182 0.32718 0.0
H760 H 0.20182 0.47139 0.35508 0.0
H761 H 0.22726 0.43397 0.35311 0.0
H762 H 0.19769 0.3975 0.27446 0.0
H763 H 0.1718 0.43499 0.27652 0.0
C764 C 0.2408 0.34394 0.30009 0.0
C765 C 0.26604 0.35239 0.3084 0.0
C766 C 0.22404 0.36356 0.30151 0.0
C767 C 0.23227 0.39188 0.31151 0.0
C768 C 0.25763 0.40014 0.31974 0.0
C769 C 0.27431 0.38059 0.31818 0.0
C770 C 0.20051 0.45529 0.33743 0.0
C771 C 0.18493 0.45632 0.31585 0.0
C772 C 0.21522 0.43392 0.33625 0.0
C773 C 0.21475 0.41299 0.31349 0.0
C774 C 0.19839 0.41329 0.29232 0.0
C775 C 0.18364 0.4348 0.29346 0.0
H776 H 0.08869 0.04781 0.54241 0.0
H777 H 0.10592 0.99787 0.46769 0.0
H778 H 0.13234 0.0718 0.54551 0.0
H779 H 0.14925 0.02219 0.46996 0.0
H780 H 0.22963 0.06553 0.48562 0.0
H781 H 0.19042 0.03466 0.49058 0.0
H782 H 0.15321 0.10611 0.52097 0.0
H783 H 0.19239 0.13683 0.51663 0.0
C784 C 0.10217 0.0414 0.52715 0.0
C785 C 0.09416 0.02126 0.50476 0.0
C786 C 0.12698 0.05537 0.52861 0.0
C787 C 0.14416 0.0494 0.50766 0.0
C788 C 0.13663 0.02735 0.48648 0.0
C789 C 0.11186 0.01339 0.48511 0.0
C790 C 0.21308 0.07465 0.49337 0.0
C791 C 0.21415 0.1037 0.50058 0.0
C792 C 0.1906 0.05693 0.49625 0.0
C793 C 0.16868 0.06784 0.50638 0.0
C794 C 0.16984 0.0969 0.51367 0.0
C795 C 0.19228 0.11458 0.51085 0.0
H796 H 0.783 0.18974 0.72275 0.0
H797 H 0.77386 0.2277 0.80475 0.0
H798 H 0.75884 0.1461 0.73131 0.0
H799 H 0.74968 0.18415 0.81364 0.0
H800 H 0.71768 0.09546 0.82312 0.0
H801 H 0.74967 0.13381 0.81512 0.0
H802 H 0.71318 0.13464 0.74051 0.0
H803 H 0.68141 0.09635 0.7483 0.0
C804 C 0.77608 0.18845 0.7427 0.0
C805 C 0.77983 0.21191 0.76305 0.0
C806 C 0.76225 0.16363 0.74762 0.0
C807 C 0.75204 0.16185 0.77305 0.0
C808 C 0.7574 0.18484 0.79388 0.0
C809 C 0.77119 0.20971 0.78887 0.0
C810 C 0.71662 0.10367 0.8049 0.0
C811 C 0.69691 0.09292 0.7864 0.0
C812 C 0.7349 0.12568 0.80038 0.0
C813 C 0.73397 0.13717 0.77717 0.0
C814 C 0.71463 0.12596 0.75841 0.0
C815 C 0.69628 0.10415 0.76299 0.0
H816 H 0.45633 0.03549 0.52515 0.0
H817 H 0.41101 0.03238 0.59591 0.0
H818 H 0.42821 0.06429 0.50941 0.0
H819 H 0.38266 0.0612 0.58037 0.0
H820 H 0.34737 0.13057 0.55221 0.0
H821 H 0.37957 0.10793 0.56988 0.0
H822 H 0.38456 0.05543 0.49285 0.0
H823 H 0.3528 0.07809 0.47521 0.0
C824 C 0.44034 0.04116 0.53732 0.0
C825 C 0.43558 0.03167 0.56155 0.0
C826 C 0.42425 0.05756 0.52837 0.0
C827 C 0.40309 0.06485 0.54356 0.0
C828 C 0.39892 0.05617 0.56834 0.0
C829 C 0.41503 0.03968 0.57723 0.0
C830 C 0.35555 0.11438 0.53902 0.0
C831 C 0.3475 0.1061 0.51233 0.0
C832 C 0.37386 0.10132 0.54918 0.0
C833 C 0.38462 0.07991 0.53276 0.0
C834 C 0.37692 0.07211 0.50593 0.0
C835 C 0.35857 0.085 0.49586 0.0
H836 H 0.54336 0.52899 0.5399 0.0
H837 H 0.59149 0.57859 0.60251 0.0
H838 H 0.57666 0.49979 0.52641 0.0
H839 H 0.62498 0.54985 0.58919 0.0
H840 H 0.65977 0.46952 0.58507 0.0
H841 H 0.62868 0.50177 0.5935 0.0
H842 H 0.61998 0.49717 0.50864 0.0
H843 H 0.65089 0.46465 0.50016 0.0
C844 C 0.56148 0.53417 0.55006 0.0
C845 C 0.5651 0.55592 0.57209 0.0
C846 C 0.58046 0.51743 0.54255 0.0
C847 C 0.60329 0.52219 0.55708 0.0
C848 C 0.60742 0.54525 0.57797 0.0
C849 C 0.58849 0.56192 0.58537 0.0
C850 C 0.65115 0.47527 0.56821 0.0
C851 C 0.65782 0.4645 0.54197 0.0
C852 C 0.63351 0.49397 0.57302 0.0
C853 C 0.62205 0.50229 0.55172 0.0
C854 C 0.62839 0.49113 0.52546 0.0
C855 C 0.64614 0.47252 0.52065 0.0
H856 H 0.66945 0.22625 0.37784 0.0
H857 H 0.74631 0.26079 0.36387 0.0
H858 H 0.67272 0.25027 0.42439 0.0
H859 H 0.74993 0.28478 0.41043 0.0
H860 H 0.75053 0.3215 0.49802 0.0
H861 H 0.7478 0.28314 0.45999 0.0
H862 H 0.67528 0.3022 0.43872 0.0
H863 H 0.67797 0.34053 0.47654 0.0
C864 C 0.68729 0.23831 0.38513 0.0
C865 C 0.70753 0.24218 0.36749 0.0
C866 C 0.68916 0.2521 0.41161 0.0
C867 C 0.71141 0.26977 0.42087 0.0
C868 C 0.73256 0.27123 0.40387 0.0
C869 C 0.73058 0.25752 0.3773 0.0
C870 C 0.73374 0.31714 0.48556 0.0
C871 C 0.71455 0.33425 0.49014 0.0
C872 C 0.73227 0.29523 0.46375 0.0
C873 C 0.71139 0.28973 0.44638 0.0
C874 C 0.6915 0.30574 0.45194 0.0
C875 C 0.69311 0.32784 0.4735 0.0
H876 H 0.47905 0.11205 0.92595 0.0
H877 H 0.49018 0.04213 0.96201 0.0
H878 H 0.51762 0.10698 0.89957 0.0
H879 H 0.52809 0.03602 0.935 0.0
H880 H 0.60426 0.04192 0.89305 0.0
H881 H 0.57109 0.05425 0.92502 0.0
H882 H 0.52779 0.07341 0.86179 0.0
H883 H 0.56093 0.0618 0.83016 0.0
C884 C 0.49004 0.09586 0.92841 0.0
C885 C 0.48163 0.0772 0.94554 0.0
C886 C 0.51191 0.0927 0.91318 0.0
C887 C 0.52573 0.07079 0.91483 0.0
C888 C 0.518 0.05316 0.93325 0.0
C889 C 0.4962 0.05642 0.9485 0.0
C890 C 0.5877 0.04887 0.88603 0.0
C891 C 0.58526 0.05078 0.85901 0.0
C892 C 0.56867 0.05589 0.90434 0.0
C893 C 0.54682 0.06496 0.89601 0.0
C894 C 0.54456 0.06706 0.86904 0.0
C895 C 0.56352 0.0601 0.8508 0.0
H896 H 0.33845 0.30917 0.35682 0.0
H897 H 0.28322 0.24598 0.31321 0.0
H898 H 0.34146 0.27968 0.39037 0.0
H899 H 0.28613 0.2162 0.34641 0.0
H900 H 0.29981 0.24122 0.46064 0.0
H901 H 0.30791 0.26671 0.42379 0.0
H902 H 0.314 0.18984 0.36965 0.0
H903 H 0.30606 0.16419 0.40665 0.0
C904 C 0.32775 0.28846 0.35397 0.0
C905 C 0.31077 0.27958 0.33254 0.0
C906 C 0.32919 0.27175 0.37323 0.0
C907 C 0.31384 0.24574 0.37115 0.0
C908 C 0.29833 0.23602 0.34848 0.0
C909 C 0.29669 0.25291 0.32946 0.0
C910 C 0.30313 0.22974 0.44095 0.0
C911 C 0.30213 0.20063 0.43659 0.0
C912 C 0.30799 0.24439 0.41987 0.0
C913 C 0.31168 0.23029 0.39383 0.0
C914 C 0.31119 0.20125 0.3895 0.0
C915 C 0.30669 0.1866 0.4107 0.0
H916 H 0.4932 0.56251 0.99072 0.0
H917 H 0.49982 0.47841 0.95298 0.0
H918 H 0.45986 0.56417 0.95879 0.0
H919 H 0.46637 0.47964 0.92127 0.0
H920 H 0.43477 0.50769 0.84942 0.0
H921 H 0.46465 0.50573 0.88397 0.0
H922 H 0.41509 0.54227 0.94414 0.0
H923 H 0.38484 0.54439 0.90929 0.0
C924 C 0.48722 0.54435 0.97568 0.0
C925 C 0.49888 0.52037 0.97407 0.0
C926 C 0.46813 0.54518 0.9576 0.0
C927 C 0.46062 0.52207 0.9375 0.0
C928 C 0.47196 0.49786 0.93639 0.0
C929 C 0.4909 0.49702 0.95455 0.0
C930 C 0.43013 0.51537 0.86997 0.0
C931 C 0.40735 0.52619 0.87657 0.0
C932 C 0.44722 0.51403 0.8898 0.0
C933 C 0.4421 0.52362 0.91675 0.0
C934 C 0.41952 0.53479 0.92348 0.0
C935 C 0.4022 0.53592 0.90356 0.0
H936 H 0.76806 0.76514 0.23218 0.0
H937 H 0.69794 0.77163 0.19529 0.0
H938 H 0.78773 0.75571 0.18789 0.0
H939 H 0.71693 0.7617 0.15123 0.0
H940 H 0.75718 0.75836 0.07508 0.0
H941 H 0.74786 0.77891 0.12073 0.0
H942 H 0.7833 0.71662 0.14988 0.0
H943 H 0.79323 0.69646 0.10408 0.0
C944 C 0.75705 0.76484 0.21451 0.0
C945 C 0.73152 0.7687 0.21683 0.0
C946 C 0.76816 0.7593 0.18925 0.0
C947 C 0.7539 0.75787 0.16599 0.0
C948 C 0.72861 0.76298 0.16864 0.0
C949 C 0.71758 0.76835 0.19379 0.0
C950 C 0.7635 0.74941 0.09125 0.0
C951 C 0.77562 0.72554 0.08597 0.0
C952 C 0.75803 0.76111 0.11743 0.0
C953 C 0.76435 0.74906 0.13894 0.0
C954 C 0.77823 0.72648 0.13379 0.0
C955 C 0.78388 0.71486 0.10753 0.0
H956 H 0.97255 0.05186 0.10951 0.0
H957 H 0.0184 0.10804 0.17012 0.0
H958 H 0.93951 0.04347 0.14258 0.0
H959 H 0.98541 0.09987 0.20358 0.0
H960 H 0.91049 0.08949 0.25162 0.0
H961 H 0.93802 0.10446 0.21596 0.0
H962 H 0.94176 0.01843 0.18179 0.0
H963 H 0.91478 0.0036 0.21721 0.0
C964 C 0.97518 0.0627 0.12994 0.0
C965 C 0.9977 0.08044 0.1376 0.0
C966 C 0.95646 0.05794 0.14879 0.0
C967 C 0.95999 0.07097 0.17561 0.0
C968 C 0.98213 0.0898 0.18298 0.0
C969 C 0.00098 0.09438 0.16405 0.0
C970 C 0.91696 0.07388 0.23623 0.0
C971 C 0.9106 0.04541 0.23716 0.0
C972 C 0.93277 0.08242 0.216 0.0
C973 C 0.94193 0.06257 0.19615 0.0
C974 C 0.93476 0.03416 0.19666 0.0
C975 C 0.91943 0.02568 0.21703 0.0
H976 H 0.29439 0.75644 0.1774 0.0
H977 H 0.28034 0.82336 0.24038 0.0
H978 H 0.28643 0.78417 0.14401 0.0
H979 H 0.27241 0.8516 0.20698 0.0
H980 H 0.22974 0.87364 0.13462 0.0
H981 H 0.23961 0.85003 0.17077 0.0
H982 H 0.30674 0.82717 0.12867 0.0
H983 H 0.29697 0.8504 0.09276 0.0
C984 C 0.28971 0.77723 0.18394 0.0
C985 C 0.28794 0.78793 0.21122 0.0
C986 C 0.28527 0.79316 0.16496 0.0
C987 C 0.27885 0.82009 0.1729 0.0
C988 C 0.27718 0.83086 0.20031 0.0
C989 C 0.28187 0.81491 0.21935 0.0
C990 C 0.2467 0.86377 0.13325 0.0
C991 C 0.26243 0.86369 0.11071 0.0
C992 C 0.2524 0.85038 0.15397 0.0
C993 C 0.27382 0.83655 0.15239 0.0
C994 C 0.2899 0.83727 0.13025 0.0
C995 C 0.28431 0.85071 0.10971 0.0
H996 H 0.02454 0.4856 0.08197 0.0
H997 H 0.9638 0.493 0.13884 0.0
H998 H 0.05453 0.48773 0.1185 0.0
H999 H 0.99363 0.49582 0.17536 0.0
H1000 H 0.06015 0.54944 0.22637 0.0
H1001 H 0.03025 0.53701 0.18943 0.0
H1002 H 0.06419 0.46308 0.16015 0.0
H1003 H 0.09426 0.47532 0.19784 0.0
C1004 C 0.01759 0.48699 0.10224 0.0
C1005 C 0.99205 0.48953 0.10781 0.0
C1006 C 0.03466 0.48823 0.12307 0.0
C1007 C 0.02639 0.49227 0.14972 0.0
C1008 C 0.00053 0.49303 0.15501 0.0
C1009 C 0.98351 0.49149 0.13423 0.0
C1010 C 0.06133 0.5305 0.21214 0.0
C1011 C 0.07959 0.51336 0.21502 0.0
C1012 C 0.04406 0.5233 0.19108 0.0
C1013 C 0.0448 0.49899 0.1721 0.0
C1014 C 0.06324 0.48192 0.1746 0.0
C1015 C 0.08035 0.48889 0.19613 0.0
H1016 H 0.33148 0.70873 0.26357 0.0
H1017 H 0.32015 0.78884 0.30845 0.0
H1018 H 0.3628 0.70447 0.29661 0.0
H1019 H 0.35216 0.78521 0.34088 0.0
H1020 H 0.43643 0.78351 0.36237 0.0
H1021 H 0.40098 0.78393 0.33325 0.0
H1022 H 0.36705 0.7037 0.34913 0.0
H1023 H 0.40253 0.70339 0.37896 0.0
C1024 C 0.3354 0.72516 0.28077 0.0
C1025 C 0.32363 0.74923 0.28344 0.0
C1026 C 0.35332 0.72278 0.29958 0.0
C1027 C 0.36001 0.74463 0.32111 0.0
C1028 C 0.34753 0.76822 0.32428 0.0
C1029 C 0.32935 0.77036 0.30575 0.0
C1030 C 0.42147 0.76591 0.35971 0.0
C1031 C 0.42231 0.7434 0.37298 0.0
C1032 C 0.40109 0.76627 0.34316 0.0
C1033 C 0.38126 0.74393 0.3391 0.0
C1034 C 0.38215 0.72117 0.35198 0.0
C1035 C 0.40238 0.72104 0.36904 0.0
H1036 H 0.99683 0.46305 0.01874 0.0
H1037 H 0.96646 0.4314 0.08806 0.0
H1038 H 0.00577 0.41692 0.99836 0.0
H1039 H 0.97642 0.38499 0.06843 0.0
H1040 H 0.95834 0.30385 0.00504 0.0
H1041 H 0.9587 0.3492 0.03344 0.0
H1042 H 0.02862 0.37944 0.99685 0.0
H1043 H 0.02758 0.33439 0.96765 0.0
C1044 C 0.99275 0.44616 0.02984 0.0
C1045 C 0.98076 0.45047 0.05469 0.0
C1046 C 0.99803 0.41974 0.01834 0.0
C1047 C 0.99162 0.397 0.0316 0.0
C1048 C 0.98119 0.40186 0.05742 0.0
C1049 C 0.97576 0.42841 0.06885 0.0
C1050 C 0.97398 0.32007 0.00333 0.0
C1051 C 0.9927 0.31566 0.98379 0.0
C1052 C 0.9743 0.34609 0.01978 0.0
C1053 C 0.99355 0.36821 0.01729 0.0
C1054 C 0.01317 0.36314 0.99892 0.0
C1055 C 0.01264 0.33726 0.98223 0.0
H1056 H 0.6856 0.74957 0.32265 0.0
H1057 H 0.64404 0.76212 0.2554 0.0
H1058 H 0.64604 0.74367 0.34789 0.0
H1059 H 0.60441 0.75572 0.28014 0.0
H1060 H 0.55209 0.79077 0.34718 0.0
H1061 H 0.58919 0.78695 0.319 0.0
H1062 H 0.60309 0.71495 0.35074 0.0
H1063 H 0.56564 0.71881 0.3793 0.0
C1064 C 0.66783 0.7503 0.31315 0.0
C1065 C 0.66764 0.75625 0.28724 0.0
C1066 C 0.64525 0.74685 0.32745 0.0
C1067 C 0.62218 0.74949 0.31604 0.0
C1068 C 0.62195 0.75389 0.28953 0.0
C1069 C 0.64449 0.75726 0.27527 0.0
C1070 C 0.56294 0.77402 0.34814 0.0
C1071 C 0.55597 0.75513 0.36554 0.0
C1072 C 0.58409 0.77169 0.33178 0.0
C1073 C 0.59893 0.75052 0.3325 0.0
C1074 C 0.59199 0.7315 0.34982 0.0
C1075 C 0.57057 0.73368 0.36609 0.0
H1076 H 0.0095 0.05907 0.0362 0.0
H1077 H 0.06455 0.13034 0.06462 0.0
H1078 H 0.00069 0.07954 0.99753 0.0
H1079 H 0.05594 0.15119 0.02625 0.0
H1080 H 0.96015 0.15264 0.9784 0.0
H1081 H 0.97772 0.12043 0.00129 0.0
H1082 H 0.05297 0.15132 0.97707 0.0
H1083 H 0.03523 0.18376 0.95393 0.0
C1084 C 0.02061 0.07847 0.03329 0.0
C1085 C 0.03777 0.09317 0.05301 0.0
C1086 C 0.01539 0.09038 0.01146 0.0
C1087 C 0.02732 0.11719 0.00907 0.0
C1088 C 0.04655 0.13045 0.02737 0.0
C1089 C 0.05161 0.11854 0.04925 0.0
C1090 C 0.98039 0.15222 0.97748 0.0
C1091 C 0.99632 0.17092 0.96458 0.0
C1092 C 0.99047 0.13354 0.9904 0.0
C1093 C 0.01677 0.13328 0.99098 0.0
C1094 C 0.03264 0.15109 0.97701 0.0
C1095 C 0.02248 0.16959 0.96372 0.0
H1096 H 0.36205 0.35022 0.3108 0.0
H1097 H 0.33234 0.26684 0.27327 0.0
H1098 H 0.40168 0.34667 0.28608 0.0
H1099 H 0.37207 0.26292 0.24839 0.0
H1100 H 0.45453 0.26354 0.2175 0.0
H1101 H 0.41996 0.26386 0.24999 0.0
H1102 H 0.4085 0.34533 0.23704 0.0
H1103 H 0.44279 0.34505 0.20466 0.0
C1104 C 0.36441 0.33086 0.29773 0.0
C1105 C 0.34427 0.3089 0.2936 0.0
C1106 C 0.38692 0.32886 0.28346 0.0
C1107 C 0.38979 0.30472 0.2649 0.0
C1108 C 0.37042 0.28178 0.26256 0.0
C1109 C 0.34778 0.2839 0.27681 0.0
C1110 C 0.44473 0.2816 0.22173 0.0
C1111 C 0.45142 0.30427 0.20843 0.0
C1112 C 0.42489 0.2817 0.24027 0.0
C1113 C 0.41163 0.30468 0.24621 0.0
C1114 C 0.41861 0.32749 0.23321 0.0
C1115 C 0.43816 0.32723 0.21448 0.0
H1116 H 0.5426 0.52286 0.07257 0.0
H1117 H 0.5624 0.45803 0.01061 0.0
H1118 H 0.54191 0.49168 0.10524 0.0
H1119 H 0.5622 0.4268 0.04302 0.0
H1120 H 0.49217 0.40932 0.1253 0.0
H1121 H 0.50784 0.44856 0.10354 0.0
H1122 H 0.579 0.41683 0.08776 0.0
H1123 H 0.56339 0.37758 0.11021 0.0
C1124 C 0.54807 0.50236 0.06636 0.0
C1125 C 0.55284 0.49274 0.03938 0.0
C1126 C 0.54745 0.48447 0.08487 0.0
C1127 C 0.55186 0.45677 0.07662 0.0
C1128 C 0.55901 0.44809 0.05003 0.0
C1129 C 0.55923 0.46589 0.0315 0.0
C1130 C 0.51138 0.41106 0.11777 0.0
C1131 C 0.52652 0.39037 0.11933 0.0
C1132 C 0.52043 0.43364 0.10548 0.0
C1133 C 0.54467 0.43577 0.094 0.0
C1134 C 0.56027 0.4157 0.09651 0.0
C1135 C 0.55137 0.39334 0.10939 0.0
H1136 H 0.69853 0.26179 0.2571 0.0
H1137 H 0.63843 0.21683 0.29665 0.0
H1138 H 0.66771 0.27039 0.2253 0.0
H1139 H 0.60761 0.22534 0.26547 0.0
H1140 H 0.59658 0.3091 0.20234 0.0
H1141 H 0.63117 0.29828 0.22771 0.0
H1142 H 0.596 0.21254 0.21798 0.0
H1143 H 0.5615 0.22328 0.19316 0.0
C1144 C 0.67873 0.2535 0.25861 0.0
C1145 C 0.67058 0.23864 0.27898 0.0
C1146 C 0.66115 0.25855 0.24071 0.0
C1147 C 0.63528 0.24849 0.2429 0.0
C1148 C 0.62743 0.23303 0.26302 0.0
C1149 C 0.64492 0.22821 0.28089 0.0
C1150 C 0.5964 0.28792 0.20545 0.0
C1151 C 0.57615 0.26715 0.19609 0.0
C1152 C 0.61626 0.28169 0.21981 0.0
C1153 C 0.61612 0.25462 0.22502 0.0
C1154 C 0.5964 0.23369 0.21465 0.0
C1155 C 0.57664 0.23988 0.2004 0.0
H1156 H 0.44437 0.15018 0.96213 0.0
H1157 H 0.48716 0.1077 0.00809 0.0
H1158 H 0.46236 0.1951 0.98838 0.0
H1159 H 0.50426 0.15194 0.03551 0.0
H1160 H 0.53489 0.23323 0.08209 0.0
H1161 H 0.52826 0.19569 0.04366 0.0
H1162 H 0.45446 0.21799 0.03132 0.0
H1163 H 0.46194 0.25652 0.0688 0.0
C1164 C 0.45828 0.15075 0.97744 0.0
C1165 C 0.46466 0.1259 0.98322 0.0
C1166 C 0.46829 0.1763 0.99276 0.0
C1167 C 0.48442 0.17728 0.01451 0.0
C1168 C 0.49218 0.15227 0.01882 0.0
C1169 C 0.48246 0.12685 0.00318 0.0
C1170 C 0.51745 0.23034 0.07081 0.0
C1171 C 0.49877 0.24752 0.07859 0.0
C1172 C 0.51357 0.20873 0.04885 0.0
C1173 C 0.49065 0.20336 0.03452 0.0
C1174 C 0.47252 0.22157 0.04155 0.0
C1175 C 0.47666 0.24359 0.0632 0.0
H1176 H 0.21193 0.33275 0.75006 0.0
H1177 H 0.27837 0.30048 0.76997 0.0
H1178 H 0.23629 0.3795 0.75401 0.0
H1179 H 0.30308 0.34705 0.77381 0.0
H1180 H 0.34314 0.43207 0.76153 0.0
H1181 H 0.3191 0.38577 0.74841 0.0
H1182 H 0.25539 0.41265 0.79451 0.0
H1183 H 0.27936 0.45899 0.80773 0.0
C1184 C 0.23198 0.33574 0.75455 0.0
C1185 C 0.24355 0.31337 0.75947 0.0
C1186 C 0.24583 0.36235 0.75705 0.0
C1187 C 0.27153 0.36692 0.76437 0.0
C1188 C 0.28337 0.34409 0.76789 0.0
C1189 C 0.26939 0.31752 0.76564 0.0
C1190 C 0.32391 0.42823 0.76867 0.0
C1191 C 0.3132 0.44921 0.78581 0.0
C1192 C 0.31022 0.40166 0.76122 0.0
C1193 C 0.28542 0.39561 0.77044 0.0
C1194 C 0.2744 0.41681 0.78686 0.0
C1195 C 0.28819 0.4433 0.79457 0.0
H1196 H 0.27899 0.7268 0.7951 0.0
H1197 H 0.21323 0.68626 0.83027 0.0
H1198 H 0.30336 0.69049 0.80298 0.0
H1199 H 0.23694 0.64934 0.8376 0.0
H1200 H 0.29039 0.59735 0.86535 0.0
H1201 H 0.26969 0.63748 0.862 0.0
H1202 H 0.30632 0.64289 0.78614 0.0
H1203 H 0.32774 0.60335 0.79004 0.0
C1204 C 0.26991 0.71002 0.80461 0.0
C1205 C 0.24441 0.70902 0.81207 0.0
C1206 C 0.28369 0.68915 0.80898 0.0
C1207 C 0.27211 0.66677 0.82076 0.0
C1208 C 0.24664 0.66637 0.82883 0.0
C1209 C 0.23299 0.68737 0.82461 0.0
C1210 C 0.29414 0.60722 0.84802 0.0
C1211 C 0.31064 0.59709 0.8279 0.0
C1212 C 0.28214 0.63016 0.84602 0.0
C1213 C 0.28615 0.64342 0.82372 0.0
C1214 C 0.30301 0.63352 0.8038 0.0
C1215 C 0.31519 0.6107 0.80593 0.0
H1216 H 0.91656 0.51272 0.48684 0.0
H1217 H 0.87098 0.5715 0.46692 0.0
H1218 H 0.87882 0.48523 0.50143 0.0
H1219 H 0.83309 0.54492 0.48278 0.0
H1220 H 0.7683 0.47367 0.48901 0.0
H1221 H 0.8049 0.50149 0.47284 0.0
H1222 H 0.84976 0.48907 0.53811 0.0
H1223 H 0.81346 0.4606 0.5538 0.0
C1224 C 0.89832 0.5195 0.48537 0.0
C1225 C 0.89647 0.54399 0.47569 0.0
C1226 C 0.87678 0.5041 0.49411 0.0
C1227 C 0.85297 0.51307 0.49357 0.0
C1228 C 0.85111 0.53735 0.48331 0.0
C1229 C 0.8727 0.55265 0.47441 0.0
C1230 C 0.78592 0.47706 0.50002 0.0
C1231 C 0.78802 0.46476 0.52259 0.0
C1232 C 0.80688 0.49307 0.49079 0.0
C1233 C 0.83032 0.49724 0.50401 0.0
C1234 C 0.83214 0.48571 0.52709 0.0
C1235 C 0.81126 0.46958 0.53622 0.0
H1236 H 0.7355 0.82752 0.80113 0.0
H1237 H 0.79711 0.89271 0.82728 0.0
H1238 H 0.70645 0.86232 0.80366 0.0
H1239 H 0.7685 0.92762 0.82949 0.0
H1240 H 0.70643 0.97869 0.85944 0.0
H1241 H 0.73246 0.94173 0.8572 0.0
H1242 H 0.69861 0.9017 0.78131 0.0
H1243 H 0.67223 0.93876 0.7836 0.0
C1244 C 0.74271 0.84937 0.80732 0.0
C1245 C 0.76837 0.85765 0.81398 0.0
C1246 C 0.72623 0.86924 0.80864 0.0
C1247 C 0.73517 0.8977 0.81689 0.0
C1248 C 0.76096 0.90585 0.8234 0.0
C1249 C 0.77738 0.886 0.82192 0.0
C1250 C 0.70433 0.96193 0.84234 0.0
C1251 C 0.68734 0.96178 0.82161 0.0
C1252 C 0.71939 0.94083 0.841 0.0
C1253 C 0.71781 0.91898 0.81894 0.0
C1254 C 0.70018 0.91823 0.79861 0.0
C1255 C 0.68513 0.93948 0.7999 0.0
H1256 H 0.57383 0.58314 0.0308 0.0
H1257 H 0.59867 0.50334 0.00531 0.0
H1258 H 0.61741 0.606 0.03123 0.0
H1259 H 0.6428 0.52573 0.00723 0.0
H1260 H 0.71149 0.57789 0.97515 0.0
H1261 H 0.66962 0.55277 0.98144 0.0
H1262 H 0.65773 0.61575 0.04967 0.0
H1263 H 0.69893 0.64143 0.04243 0.0
C1264 C 0.58888 0.57049 0.02611 0.0
C1265 C 0.58305 0.54162 0.01788 0.0
C1266 C 0.61391 0.58349 0.02645 0.0
C1267 C 0.63381 0.56781 0.01894 0.0
C1268 C 0.62799 0.53858 0.01255 0.0
C1269 C 0.60281 0.52563 0.01193 0.0
C1270 C 0.69988 0.58633 0.99145 0.0
C1271 C 0.70839 0.61183 0.00804 0.0
C1272 C 0.67593 0.57178 0.99528 0.0
C1273 C 0.66009 0.58217 0.01608 0.0
C1274 C 0.66905 0.60732 0.0331 0.0
C1275 C 0.69276 0.62207 0.02899 0.0
H1276 H 0.27048 0.72589 0.29945 0.0
H1277 H 0.28428 0.68425 0.21975 0.0
H1278 H 0.24646 0.68259 0.30943 0.0
H1279 H 0.26036 0.64096 0.22938 0.0
H1280 H 0.18193 0.59176 0.24368 0.0
H1281 H 0.21375 0.6302 0.23636 0.0
H1282 H 0.24717 0.632 0.31319 0.0
H1283 H 0.21517 0.59332 0.32065 0.0
C1284 C 0.2689 0.70718 0.2844 0.0
C1285 C 0.27879 0.70818 0.2588 0.0
C1286 C 0.25521 0.68248 0.29001 0.0
C1287 C 0.25121 0.65855 0.27001 0.0
C1288 C 0.26275 0.65921 0.24501 0.0
C1289 C 0.27647 0.68381 0.2395 0.0
C1290 C 0.19614 0.60017 0.25897 0.0
C1291 C 0.19595 0.58952 0.28278 0.0
C1292 C 0.2145 0.62207 0.25468 0.0
C1293 C 0.23301 0.63401 0.27417 0.0
C1294 C 0.23307 0.62323 0.29788 0.0
C1295 C 0.21481 0.60104 0.30207 0.0
H1296 H 0.90916 0.52985 0.09263 0.0
H1297 H 0.9511 0.53301 0.0197 0.0
H1298 H 0.87913 0.55755 0.07825 0.0
H1299 H 0.92116 0.5605 0.00503 0.0
H1300 H 0.84381 0.57325 0.97463 0.0
H1301 H 0.87631 0.55049 0.9909 0.0
H1302 H 0.87521 0.60443 0.06766 0.0
H1303 H 0.84238 0.62727 0.05137 0.0
C1304 C 0.91207 0.53688 0.0737 0.0
C1305 C 0.93221 0.52927 0.05713 0.0
C1306 C 0.89497 0.55271 0.06545 0.0
C1307 C 0.89769 0.56104 0.04041 0.0
C1308 C 0.91834 0.55403 0.02424 0.0
C1309 C 0.93545 0.53836 0.03257 0.0
C1310 C 0.85054 0.58039 0.99495 0.0
C1311 C 0.84048 0.60206 0.01172 0.0
C1312 C 0.8693 0.56744 0.00422 0.0
C1313 C 0.87838 0.57571 0.03054 0.0
C1314 C 0.86845 0.59749 0.04733 0.0
C1315 C 0.84976 0.61064 0.03796 0.0
H1316 H 0.03643 0.01041 0.07579 0.0
H1317 H 0.09101 0.08178 0.06784 0.0
H1318 H 0.06764 0.97948 0.05969 0.0
H1319 H 0.12224 0.05079 0.05072 0.0
H1320 H 0.16203 0.97924 0.00098 0.0
H1321 H 0.12921 0.00941 0.01146 0.0
H1322 H 0.11002 0.97461 0.08245 0.0
H1323 H 0.14316 0.94477 0.07232 0.0
C1324 C 0.05507 0.01936 0.07019 0.0
C1325 C 0.06163 0.04838 0.07351 0.0
C1326 C 0.07288 0.00174 0.06103 0.0
C1327 C 0.09744 0.0128 0.05441 0.0
C1328 C 0.10342 0.04176 0.05577 0.0
C1329 C 0.08563 0.05945 0.06538 0.0
C1330 C 0.15072 0.97792 0.01877 0.0
C1331 C 0.15513 0.95958 0.03582 0.0
C1332 C 0.13205 0.99529 0.02478 0.0
C1333 C 0.11707 0.99425 0.04768 0.0
C1334 C 0.12119 0.97563 0.06453 0.0
C1335 C 0.1402 0.95864 0.05879 0.0
loop_
_geom_bond_atom_site_label_1
_geom_bond_atom_site_label_2
_geom_bond_distance
_geom_bond_site_symmetry_2
_ccdc_geom_bond_type
C0 N1 1.317 . S
C0 N2 1.348 . S
C0 C3 1.485 . S
N1 C0 1.317 . S
N1 N5 1.370 . S
N2 C0 1.348 . S
N2 C4 1.346 . S
C3 C0 1.485 . S
C3 H7 0.960 . S
C3 H8 0.961 . S
C3 H9 0.960 . S
C4 N2 1.346 . S
C4 N5 1.307 . S
C4 C6 1.486 . S
N5 N1 1.370 . S
N5 C4 1.307 . S
C6 C4 1.486 . S
C6 H10 0.960 . S
C6 H11 0.960 . S
C6 H12 0.959 . S
H7 C3 0.960 . S
H8 C3 0.961 . S
H9 C3 0.960 . S
H10 C6 0.960 . S
H11 C6 0.960 . S
H12 C6 0.959 . S
C13 N14 1.317 . S
C13 N15 1.348 . S
C13 C16 1.485 . S
N14 C13 1.317 . S
N14 N18 1.370 . S
N15 C13 1.348 . S
N15 C17 1.346 . S
C16 C13 1.485 . S
C16 H20 0.960 . S
C16 H21 0.961 . S
C16 H22 0.960 . S
C17 N15 1.346 . S
C17 N18 1.307 . S
C17 C19 1.486 . S
N18 N14 1.370 . S
N18 C17 1.307 . S
C19 C17 1.486 . S
C19 H23 0.960 . S
C19 H24 0.960 . S
C19 H25 0.959 . S
H20 C16 0.960 . S
H21 C16 0.961 . S
H22 C16 0.960 . S
H23 C19 0.960 . S
H24 C19 0.960 . S
H25 C19 0.959 . S
C26 N27 1.317 . S
C26 N28 1.348 . S
C26 C29 1.485 . S
N27 C26 1.317 . S
N27 N31 1.370 . S
N28 C26 1.348 . S
N28 C30 1.346 . S
C29 C26 1.485 . S
C29 H33 0.960 . S
C29 H34 0.961 . S
C29 H35 0.960 . S
C30 N28 1.346 . S
C30 N31 1.307 . S
C30 C32 1.486 . S
N31 N27 1.370 . S
N31 C30 1.307 . S
C32 C30 1.486 . S
C32 H36 0.960 . S
C32 H37 0.960 . S
C32 H38 0.959 . S
H33 C29 0.960 . S
H34 C29 0.961 . S
H35 C29 0.960 . S
H36 C32 0.960 . S
H37 C32 0.960 . S
H38 C32 0.959 . S
C39 N40 1.317 . S
C39 N41 1.348 . S
C39 C42 1.485 . S
N40 C39 1.317 . S
N40 N44 1.370 . S
N41 C39 1.348 . S
N41 C43 1.346 . S
C42 C39 1.485 . S
C42 H46 0.960 . S
C42 H47 0.961 . S
C42 H48 0.960 . S
C43 N41 1.346 . S
C43 N44 1.307 . S
C43 C45 1.486 . S
N44 N40 1.370 . S
N44 C43 1.307 . S
C45 C43 1.486 . S
C45 H49 0.960 . S
C45 H50 0.960 . S
C45 H51 0.959 . S
H46 C42 0.960 . S
H47 C42 0.961 . S
H48 C42 0.960 . S
H49 C45 0.960 . S
H50 C45 0.960 . S
H51 C45 0.959 . S
C52 N53 1.317 . S
C52 N54 1.348 . S
C52 C55 1.485 . S
N53 C52 1.317 . S
N53 N57 1.370 . S
N54 C52 1.348 . S
N54 C56 1.346 . S
C55 C52 1.485 . S
C55 H59 0.960 . S
C55 H60 0.961 . S
C55 H61 0.960 . S
C56 N54 1.346 . S
C56 N57 1.307 . S
C56 C58 1.486 . S
N57 N53 1.370 . S
N57 C56 1.307 . S
C58 C56 1.486 . S
C58 H62 0.960 1_565 S
C58 H63 0.960 . S
C58 H64 0.959 1_565 S
H59 C55 0.960 . S
H60 C55 0.961 . S
H61 C55 0.960 . S
H62 C58 0.960 1_545 S
H63 C58 0.960 . S
H64 C58 0.959 1_545 S
C65 N66 1.317 . S
C65 N67 1.348 . S
C65 C68 1.485 . S
N66 C65 1.317 . S
N66 N70 1.370 . S
N67 C65 1.348 . S
N67 C69 1.346 . S
C68 C65 1.485 . S
C68 H72 0.960 . S
C68 H73 0.961 . S
C68 H74 0.960 . S
C69 N67 1.346 . S
C69 N70 1.307 . S
C69 C71 1.486 . S
N70 N66 1.370 . S
N70 C69 1.307 . S
C71 C69 1.486 . S
C71 H75 0.960 . S
C71 H76 0.960 . S
C71 H77 0.959 . S
H72 C68 0.960 . S
H73 C68 0.961 . S
H74 C68 0.960 . S
H75 C71 0.960 . S
H76 C71 0.960 . S
H77 C71 0.959 . S
C78 N79 1.317 . S
C78 N80 1.348 . S
C78 C81 1.485 . S
N79 C78 1.317 . S
N79 N83 1.370 . S
N80 C78 1.348 . S
N80 C82 1.346 . S
C81 C78 1.485 . S
C81 H85 0.960 . S
C81 H86 0.961 . S
C81 H87 0.960 . S
C82 N80 1.346 . S
C82 N83 1.307 . S
C82 C84 1.486 . S
N83 N79 1.370 . S
N83 C82 1.307 . S
C84 C82 1.486 . S
C84 H88 0.960 . S
C84 H89 0.960 . S
C84 H90 0.959 . S
H85 C81 0.960 . S
H86 C81 0.961 . S
H87 C81 0.960 . S
H88 C84 0.960 . S
H89 C84 0.960 . S
H90 C84 0.959 . S
C91 N92 1.317 . S
C91 N93 1.348 . S
C91 C94 1.485 . S
N92 C91 1.317 . S
N92 N96 1.370 . S
N93 C91 1.348 . S
N93 C95 1.346 . S
C94 C91 1.485 . S
C94 H98 0.960 . S
C94 H99 0.961 . S
C94 H100 0.960 . S
C95 N93 1.346 . S
C95 N96 1.307 . S
C95 C97 1.486 . S
N96 N92 1.370 . S
N96 C95 1.307 . S
C97 C95 1.486 . S
C97 H101 0.960 . S
C97 H102 0.960 . S
C97 H103 0.959 . S
H98 C94 0.960 . S
H99 C94 0.961 . S
H100 C94 0.960 . S
H101 C97 0.960 . S
H102 C97 0.960 . S
H103 C97 0.959 . S
C104 N105 1.317 . S
C104 N106 1.348 . S
C104 C107 1.485 . S
N105 C104 1.317 . S
N105 N109 1.370 . S
N106 C104 1.348 . S
N106 C108 1.346 . S
C107 C104 1.485 . S
C107 H111 0.960 . S
C107 H112 0.961 . S
C107 H113 0.960 . S
C108 N106 1.346 . S
C108 N109 1.307 . S
C108 C110 1.486 . S
N109 N105 1.370 . S
N109 C108 1.307 . S
C110 C108 1.486 . S
C110 H114 0.960 . S
C110 H115 0.960 . S
C110 H116 0.959 . S
H111 C107 0.960 . S
H112 C107 0.961 . S
H113 C107 0.960 . S
H114 C110 0.960 . S
H115 C110 0.960 . S
H116 C110 0.959 . S
C117 N118 1.317 . S
C117 N119 1.348 . S
C117 C120 1.485 . S
N118 C117 1.317 . S
N118 N122 1.370 . S
N119 C117 1.348 . S
N119 C121 1.346 . S
C120 C117 1.485 . S
C120 H124 0.960 . S
C120 H125 0.961 . S
C120 H126 0.960 . S
C121 N119 1.346 . S
C121 N122 1.307 . S
C121 C123 1.486 . S
N122 N118 1.370 . S
N122 C121 1.307 . S
C123 C121 1.486 . S
C123 H127 0.960 . S
C123 H128 0.960 . S
C123 H129 0.959 . S
H124 C120 0.960 . S
H125 C120 0.961 . S
H126 C120 0.960 . S
H127 C123 0.960 . S
H128 C123 0.960 . S
H129 C123 0.959 . S
C130 N131 1.317 . S
C130 N132 1.348 . S
C130 C133 1.485 . S
N131 C130 1.317 . S
N131 N135 1.370 . S
N132 C130 1.348 . S
N132 C134 1.346 . S
C133 C130 1.485 . S
C133 H137 0.960 . S
C133 H138 0.961 . S
C133 H139 0.960 . S
C134 N132 1.346 . S
C134 N135 1.307 . S
C134 C136 1.486 . S
N135 N131 1.370 . S
N135 C134 1.307 . S
C136 C134 1.486 . S
C136 H140 0.960 . S
C136 H141 0.960 . S
C136 H142 0.959 . S
H137 C133 0.960 . S
H138 C133 0.961 . S
H139 C133 0.960 . S
H140 C136 0.960 . S
H141 C136 0.960 . S
H142 C136 0.959 . S
C143 N144 1.317 . S
C143 N145 1.348 . S
C143 C146 1.485 . S
N144 C143 1.317 . S
N144 N148 1.370 . S
N145 C143 1.348 . S
N145 C147 1.346 . S
C146 C143 1.485 . S
C146 H150 0.960 . S
C146 H151 0.961 . S
C146 H152 0.960 . S
C147 N145 1.346 . S
C147 N148 1.307 . S
C147 C149 1.486 . S
N148 N144 1.370 . S
N148 C147 1.307 . S
C149 C147 1.486 . S
C149 H153 0.960 . S
C149 H154 0.960 . S
C149 H155 0.959 . S
H150 C146 0.960 . S
H151 C146 0.961 . S
H152 C146 0.960 . S
H153 C149 0.960 . S
H154 C149 0.960 . S
H155 C149 0.959 . S
C156 N157 1.317 . S
C156 N158 1.348 . S
C156 C159 1.485 . S
N157 C156 1.317 . S
N157 N161 1.370 . S
N158 C156 1.348 . S
N158 C160 1.346 . S
C159 C156 1.485 . S
C159 H163 0.960 . S
C159 H164 0.961 . S
C159 H165 0.960 . S
C160 N158 1.346 . S
C160 N161 1.307 . S
C160 C162 1.486 . S
N161 N157 1.370 . S
N161 C160 1.307 . S
C162 C160 1.486 . S
C162 H166 0.960 . S
C162 H167 0.960 . S
C162 H168 0.959 . S
H163 C159 0.960 . S
H164 C159 0.961 . S
H165 C159 0.960 . S
H166 C162 0.960 . S
H167 C162 0.960 . S
H168 C162 0.959 . S
C169 N170 1.317 . S
C169 N171 1.348 . S
C169 C172 1.485 . S
N170 C169 1.317 . S
N170 N174 1.370 . S
N171 C169 1.348 . S
N171 C173 1.346 . S
C172 C169 1.485 . S
C172 H176 0.960 . S
C172 H177 0.961 . S
C172 H178 0.960 . S
C173 N171 1.346 . S
C173 N174 1.307 . S
C173 C175 1.486 . S
N174 N170 1.370 . S
N174 C173 1.307 . S
C175 C173 1.486 . S
C175 H179 0.960 . S
C175 H180 0.960 . S
C175 H181 0.959 . S
H176 C172 0.960 . S
H177 C172 0.961 . S
H178 C172 0.960 . S
H179 C175 0.960 . S
H180 C175 0.960 . S
H181 C175 0.959 . S
C182 N183 1.317 . S
C182 N184 1.348 . S
C182 C185 1.485 . S
N183 C182 1.317 . S
N183 N187 1.370 . S
N184 C182 1.348 . S
N184 C186 1.346 . S
C185 C182 1.485 . S
C185 H189 0.960 . S
C185 H190 0.961 . S
C185 H191 0.960 . S
C186 N184 1.346 . S
C186 N187 1.307 . S
C186 C188 1.486 . S
N187 N183 1.370 . S
N187 C186 1.307 . S
C188 C186 1.486 . S
C188 H192 0.960 . S
C188 H193 0.960 . S
C188 H194 0.959 . S
H189 C185 0.960 . S
H190 C185 0.961 . S
H191 C185 0.960 . S
H192 C188 0.960 . S
H193 C188 0.960 . S
H194 C188 0.959 . S
C195 N196 1.317 . S
C195 N197 1.348 . S
C195 C198 1.485 . S
N196 C195 1.317 . S
N196 N200 1.370 . S
N197 C195 1.348 . S
N197 C199 1.346 . S
C198 C195 1.485 . S
C198 H202 0.960 . S
C198 H203 0.961 . S
C198 H204 0.960 . S
C199 N197 1.346 . S
C199 N200 1.307 . S
C199 C201 1.486 . S
N200 N196 1.370 . S
N200 C199 1.307 . S
C201 C199 1.486 . S
C201 H205 0.960 1_556 S
C201 H206 0.960 . S
C201 H207 0.959 . S
H202 C198 0.960 . S
H203 C198 0.961 . S
H204 C198 0.960 . S
H205 C201 0.960 1_554 S
H206 C201 0.960 . S
H207 C201 0.959 . S
O208 Cd209 2.223 . S
O208 C216 1.315 . S
Cd209 O208 2.223 . S
Cd209 O212 2.297 . S
Cd209 O213 2.439 . S
Cd209 O219 2.240 . S
Cd210 O211 2.240 . S
Cd210 O218 2.223 . S
Cd210 O220 2.297 . S
Cd210 O221 2.439 . S
O211 Cd210 2.240 . S
O211 C216 1.279 . S
O212 Cd209 2.297 . S
O212 C214 1.247 . S
O213 Cd209 2.439 . S
O213 C214 1.208 . S
C214 O212 1.247 . S
C214 O213 1.208 . S
C215 O220 1.247 . S
C215 O221 1.208 . S
C216 O208 1.315 . S
C216 O211 1.279 . S
C217 O218 1.315 . S
C217 O219 1.279 . S
O218 Cd210 2.223 . S
O218 C217 1.315 . S
O219 Cd209 2.240 . S
O219 C217 1.279 . S
O220 Cd210 2.297 . S
O220 C215 1.247 . S
O221 Cd210 2.439 . S
O221 C215 1.208 . S
O222 Cd223 2.223 . S
O222 C230 1.315 . S
Cd223 O222 2.223 . S
Cd223 O226 2.297 . S
Cd223 O227 2.439 . S
Cd223 O233 2.240 . S
Cd224 O225 2.240 . S
Cd224 O232 2.223 . S
Cd224 O234 2.297 . S
Cd224 O235 2.439 . S
O225 Cd224 2.240 . S
O225 C230 1.279 . S
O226 Cd223 2.297 . S
O226 C228 1.247 . S
O227 Cd223 2.439 . S
O227 C228 1.208 . S
C228 O226 1.247 . S
C228 O227 1.208 . S
C229 O234 1.247 . S
C229 O235 1.208 . S
C230 O222 1.315 . S
C230 O225 1.279 . S
C231 O232 1.315 . S
C231 O233 1.279 . S
O232 Cd224 2.223 . S
O232 C231 1.315 . S
O233 Cd223 2.240 . S
O233 C231 1.279 . S
O234 Cd224 2.297 . S
O234 C229 1.247 . S
O235 Cd224 2.439 . S
O235 C229 1.208 . S
O236 Cd237 2.223 1_556 S
O236 C244 1.315 . S
Cd237 O236 2.223 1_554 S
Cd237 O240 2.297 . S
Cd237 O241 2.439 . S
Cd237 O247 2.240 . S
Cd238 O239 2.240 . S
Cd238 O246 2.223 . S
Cd238 O248 2.297 . S
Cd238 O249 2.439 1_556 S
O239 Cd238 2.240 . S
O239 C244 1.279 . S
O240 Cd237 2.297 . S
O240 C242 1.247 . S
O241 Cd237 2.439 . S
O241 C242 1.208 . S
C242 O240 1.247 . S
C242 O241 1.208 . S
C243 O248 1.247 1_554 S
C243 O249 1.208 . S
C244 O236 1.315 . S
C244 O239 1.279 . S
C245 O246 1.315 . S
C245 O247 1.279 1_556 S
O246 Cd238 2.223 . S
O246 C245 1.315 . S
O247 Cd237 2.240 . S
O247 C245 1.279 1_554 S
O248 Cd238 2.297 . S
O248 C243 1.247 1_556 S
O249 Cd238 2.439 1_554 S
O249 C243 1.208 . S
O250 Cd251 2.223 . S
O250 C258 1.315 . S
Cd251 O250 2.223 . S
Cd251 O254 2.297 . S
Cd251 O255 2.439 . S
Cd251 O261 2.240 . S
Cd252 O253 2.240 . S
Cd252 O260 2.223 . S
Cd252 O262 2.297 . S
Cd252 O263 2.439 . S
O253 Cd252 2.240 . S
O253 C258 1.279 . S
O254 Cd251 2.297 . S
O254 C256 1.247 . S
O255 Cd251 2.439 . S
O255 C256 1.208 . S
C256 O254 1.247 . S
C256 O255 1.208 . S
C257 O262 1.247 . S
C257 O263 1.208 . S
C258 O250 1.315 . S
C258 O253 1.279 . S
C259 O260 1.315 . S
C259 O261 1.279 . S
O260 Cd252 2.223 . S
O260 C259 1.315 . S
O261 Cd251 2.240 . S
O261 C259 1.279 . S
O262 Cd252 2.297 . S
O262 C257 1.247 . S
O263 Cd252 2.439 . S
O263 C257 1.208 . S
O264 Cd265 2.223 . S
O264 C272 1.315 . S
Cd265 O264 2.223 . S
Cd265 O268 2.297 . S
Cd265 O269 2.439 . S
Cd265 O275 2.240 . S
Cd266 O267 2.240 . S
Cd266 O274 2.223 . S
Cd266 O276 2.297 . S
Cd266 O277 2.439 . S
O267 Cd266 2.240 . S
O267 C272 1.279 . S
O268 Cd265 2.297 . S
O268 C270 1.247 . S
O269 Cd265 2.439 . S
O269 C270 1.208 . S
C270 O268 1.247 . S
C270 O269 1.208 . S
C271 O276 1.247 . S
C271 O277 1.208 . S
C272 O264 1.315 . S
C272 O267 1.279 . S
C273 O274 1.315 . S
C273 O275 1.279 . S
O274 Cd266 2.223 . S
O274 C273 1.315 . S
O275 Cd265 2.240 . S
O275 C273 1.279 . S
O276 Cd266 2.297 . S
O276 C271 1.247 . S
O277 Cd266 2.439 . S
O277 C271 1.208 . S
O278 Cd279 2.223 . S
O278 C286 1.315 . S
Cd279 O278 2.223 . S
Cd279 O282 2.297 . S
Cd279 O283 2.439 . S
Cd279 O289 2.240 . S
Cd280 O281 2.240 . S
Cd280 O288 2.223 . S
Cd280 O290 2.297 . S
Cd280 O291 2.439 . S
O281 Cd280 2.240 . S
O281 C286 1.279 . S
O282 Cd279 2.297 . S
O282 C284 1.247 . S
O283 Cd279 2.439 . S
O283 C284 1.208 . S
C284 O282 1.247 . S
C284 O283 1.208 . S
C285 O290 1.247 . S
C285 O291 1.208 . S
C286 O278 1.315 . S
C286 O281 1.279 . S
C287 O288 1.315 . S
C287 O289 1.279 . S
O288 Cd280 2.223 . S
O288 C287 1.315 . S
O289 Cd279 2.240 . S
O289 C287 1.279 . S
O290 Cd280 2.297 . S
O290 C285 1.247 . S
O291 Cd280 2.439 . S
O291 C285 1.208 . S
O292 Cd293 2.223 . S
O292 C300 1.315 . S
Cd293 O292 2.223 . S
Cd293 O296 2.297 . S
Cd293 O297 2.439 . S
Cd293 O303 2.240 . S
Cd294 O295 2.240 . S
Cd294 O302 2.223 . S
Cd294 O304 2.297 . S
Cd294 O305 2.439 . S
O295 Cd294 2.240 . S
O295 C300 1.279 . S
O296 Cd293 2.297 . S
O296 C298 1.247 . S
O297 Cd293 2.439 . S
O297 C298 1.208 . S
C298 O296 1.247 . S
C298 O297 1.208 . S
C299 O304 1.247 . S
C299 O305 1.208 . S
C300 O292 1.315 . S
C300 O295 1.279 . S
C301 O302 1.315 . S
C301 O303 1.279 . S
O302 Cd294 2.223 . S
O302 C301 1.315 . S
O303 Cd293 2.240 . S
O303 C301 1.279 . S
O304 Cd294 2.297 . S
O304 C299 1.247 . S
O305 Cd294 2.439 . S
O305 C299 1.208 . S
O306 Cd307 2.223 1_545 S
O306 C314 1.315 . S
Cd307 O306 2.223 1_565 S
Cd307 O310 2.297 . S
Cd307 O311 2.439 . S
Cd307 O317 2.240 1_565 S
Cd308 O309 2.240 . S
Cd308 O316 2.223 . S
Cd308 O318 2.297 . S
Cd308 O319 2.439 1_545 S
O309 Cd308 2.240 . S
O309 C314 1.279 . S
O310 Cd307 2.297 . S
O310 C312 1.247 . S
O311 Cd307 2.439 . S
O311 C312 1.208 . S
C312 O310 1.247 . S
C312 O311 1.208 . S
C313 O318 1.247 1_565 S
C313 O319 1.208 . S
C314 O306 1.315 . S
C314 O309 1.279 . S
C315 O316 1.315 . S
C315 O317 1.279 . S
O316 Cd308 2.223 . S
O316 C315 1.315 . S
O317 Cd307 2.240 1_545 S
O317 C315 1.279 . S
O318 Cd308 2.297 . S
O318 C313 1.247 1_545 S
O319 Cd308 2.439 1_565 S
O319 C313 1.208 . S
O320 Cd321 2.223 . S
O320 C328 1.315 . S
Cd321 O320 2.223 . S
Cd321 O324 2.297 . S
Cd321 O325 2.439 1_655 S
Cd321 O331 2.240 . S
Cd322 O323 2.240 1_455 S
Cd322 O330 2.223 1_455 S
Cd322 O332 2.297 . S
Cd322 O333 2.439 . S
O323 Cd322 2.240 1_655 S
O323 C328 1.279 . S
O324 Cd321 2.297 . S
O324 C326 1.247 1_655 S
O325 Cd321 2.439 1_455 S
O325 C326 1.208 . S
C326 O324 1.247 1_455 S
C326 O325 1.208 . S
C327 O332 1.247 . S
C327 O333 1.208 . S
C328 O320 1.315 . S
C328 O323 1.279 . S
C329 O330 1.315 . S
C329 O331 1.279 . S
O330 Cd322 2.223 1_655 S
O330 C329 1.315 . S
O331 Cd321 2.240 . S
O331 C329 1.279 . S
O332 Cd322 2.297 . S
O332 C327 1.247 . S
O333 Cd322 2.439 . S
O333 C327 1.208 . S
O334 Cd335 2.223 . S
O334 C342 1.315 . S
Cd335 O334 2.223 . S
Cd335 O338 2.297 . S
Cd335 O339 2.439 . S
Cd335 O345 2.240 . S
Cd336 O337 2.240 . S
Cd336 O344 2.223 . S
Cd336 O346 2.297 . S
Cd336 O347 2.439 . S
O337 Cd336 2.240 . S
O337 C342 1.279 . S
O338 Cd335 2.297 . S
O338 C340 1.247 . S
O339 Cd335 2.439 . S
O339 C340 1.208 . S
C340 O338 1.247 . S
C340 O339 1.208 . S
C341 O346 1.247 . S
C341 O347 1.208 . S
C342 O334 1.315 . S
C342 O337 1.279 . S
C343 O344 1.315 . S
C343 O345 1.279 . S
O344 Cd336 2.223 . S
O344 C343 1.315 . S
O345 Cd335 2.240 . S
O345 C343 1.279 . S
O346 Cd336 2.297 . S
O346 C341 1.247 . S
O347 Cd336 2.439 . S
O347 C341 1.208 . S
O348 Cd349 2.223 1_655 S
O348 C356 1.315 . S
Cd349 O348 2.223 1_455 S
Cd349 O352 2.297 . S
Cd349 O353 2.439 . S
Cd349 O359 2.240 . S
Cd350 O351 2.240 . S
Cd350 O358 2.223 1_455 S
Cd350 O360 2.297 . S
Cd350 O361 2.439 . S
O351 Cd350 2.240 . S
O351 C356 1.279 1_455 S
O352 Cd349 2.297 . S
O352 C354 1.247 . S
O353 Cd349 2.439 . S
O353 C354 1.208 . S
C354 O352 1.247 . S
C354 O353 1.208 . S
C355 O360 1.247 . S
C355 O361 1.208 . S
C356 O348 1.315 . S
C356 O351 1.279 1_655 S
C357 O358 1.315 . S
C357 O359 1.279 1_655 S
O358 Cd350 2.223 1_655 S
O358 C357 1.315 . S
O359 Cd349 2.240 . S
O359 C357 1.279 1_455 S
O360 Cd350 2.297 . S
O360 C355 1.247 . S
O361 Cd350 2.439 . S
O361 C355 1.208 . S
O362 Cd363 2.223 . S
O362 C370 1.315 . S
Cd363 O362 2.223 . S
Cd363 O366 2.297 . S
Cd363 O367 2.439 . S
Cd363 O373 2.240 . S
Cd364 O365 2.240 . S
Cd364 O372 2.223 . S
Cd364 O374 2.297 . S
Cd364 O375 2.439 . S
O365 Cd364 2.240 . S
O365 C370 1.279 . S
O366 Cd363 2.297 . S
O366 C368 1.247 . S
O367 Cd363 2.439 . S
O367 C368 1.208 . S
C368 O366 1.247 . S
C368 O367 1.208 . S
C369 O374 1.247 . S
C369 O375 1.208 . S
C370 O362 1.315 . S
C370 O365 1.279 . S
C371 O372 1.315 . S
C371 O373 1.279 . S
O372 Cd364 2.223 . S
O372 C371 1.315 . S
O373 Cd363 2.240 . S
O373 C371 1.279 . S
O374 Cd364 2.297 . S
O374 C369 1.247 . S
O375 Cd364 2.439 . S
O375 C369 1.208 . S
H376 C384 0.950 . S
H377 C389 0.950 . S
H378 C386 0.950 . S
H379 C388 0.950 . S
H380 C390 0.957 . S
H381 C392 0.950 . S
H382 C394 0.950 . S
H383 C395 0.950 . S
C384 H376 0.950 . S
C384 C385 1.386 . S
C384 C386 1.391 . S
C385 C384 1.386 . S
C385 C389 1.393 . S
C386 H378 0.950 . S
C386 C384 1.391 . S
C386 C387 1.400 . S
C387 C386 1.400 . S
C387 C388 1.398 . S
C387 C393 1.491 . S
C388 H379 0.950 . S
C388 C387 1.398 . S
C388 C389 1.391 . S
C389 H377 0.950 . S
C389 C385 1.393 . S
C389 C388 1.391 . S
C390 H380 0.957 . S
C390 C391 1.386 . S
C390 C392 1.391 . S
C391 C390 1.386 . S
C391 C395 1.393 . S
C392 H381 0.950 . S
C392 C390 1.391 . S
C392 C393 1.400 . S
C393 C387 1.491 . S
C393 C392 1.400 . S
C393 C394 1.398 . S
C394 H382 0.950 . S
C394 C393 1.398 . S
C394 C395 1.391 . S
C395 H383 0.950 . S
C395 C391 1.393 . S
C395 C394 1.391 . S
H396 C404 0.950 . S
H397 C409 0.950 . S
H398 C406 0.935 1_455 S
H399 C408 0.950 . S
H400 C410 0.950 . S
H401 C412 0.974 . S
H402 C414 0.950 . S
H403 C415 0.950 . S
C404 H396 0.950 . S
C404 C405 1.386 . S
C404 C406 1.405 . S
C405 C404 1.386 . S
C405 C409 1.393 . S
C406 H398 0.935 1_655 S
C406 C404 1.405 . S
C406 C407 1.401 . S
C407 C406 1.401 . S
C407 C408 1.398 . S
C407 C413 1.491 1_655 S
C408 H399 0.950 . S
C408 C407 1.398 . S
C408 C409 1.391 . S
C409 H397 0.950 . S
C409 C405 1.393 . S
C409 C408 1.391 . S
C410 H400 0.950 . S
C410 C411 1.386 . S
C410 C412 1.391 . S
C411 C410 1.386 . S
C411 C415 1.393 . S
C412 H401 0.974 . S
C412 C410 1.391 . S
C412 C413 1.400 . S
C413 C407 1.491 1_455 S
C413 C412 1.400 . S
C413 C414 1.398 . S
C414 H402 0.950 . S
C414 C413 1.398 . S
C414 C415 1.391 . S
C415 H403 0.950 . S
C415 C411 1.393 . S
C415 C414 1.391 . S
H416 C424 0.950 . S
H417 C429 0.950 . S
H418 C426 0.950 . S
H419 C428 0.950 . S
H420 C430 0.950 . S
H421 C432 0.950 . S
H422 C434 0.950 . S
H423 C435 0.950 . S
C424 H416 0.950 . S
C424 C425 1.386 . S
C424 C426 1.391 . S
C425 C424 1.386 . S
C425 C429 1.393 . S
C426 H418 0.950 . S
C426 C424 1.391 . S
C426 C427 1.400 . S
C427 C426 1.400 . S
C427 C428 1.398 . S
C427 C433 1.491 . S
C428 H419 0.950 . S
C428 C427 1.398 . S
C428 C429 1.391 . S
C429 H417 0.950 . S
C429 C425 1.393 . S
C429 C428 1.391 . S
C430 H420 0.950 . S
C430 C431 1.386 . S
C430 C432 1.391 . S
C431 C430 1.386 . S
C431 C435 1.393 . S
C432 H421 0.950 . S
C432 C430 1.391 . S
C432 C433 1.400 . S
C433 C427 1.491 . S
C433 C432 1.400 . S
C433 C434 1.398 . S
C434 H422 0.950 . S
C434 C433 1.398 . S
C434 C435 1.391 . S
C435 H423 0.950 . S
C435 C431 1.393 . S
C435 C434 1.391 . S
H436 C444 0.950 . S
H437 C449 0.950 . S
H438 C446 0.950 . S
H439 C448 0.950 . S
H440 C450 0.950 . S
H441 C452 0.950 . S
H442 C454 0.950 . S
H443 C455 0.950 . S
C444 H436 0.950 . S
C444 C445 1.386 . S
C444 C446 1.391 . S
C445 C444 1.386 . S
C445 C449 1.393 . S
C446 H438 0.950 . S
C446 C444 1.391 . S
C446 C447 1.400 1_455 S
C447 C446 1.400 1_655 S
C447 C448 1.398 . S
C447 C453 1.491 1_565 S
C448 H439 0.950 . S
C448 C447 1.398 . S
C448 C449 1.391 1_655 S
C449 H437 0.950 . S
C449 C445 1.393 . S
C449 C448 1.391 1_455 S
C450 H440 0.950 . S
C450 C451 1.386 . S
C450 C452 1.391 . S
C451 C450 1.386 . S
C451 C455 1.393 . S
C452 H441 0.950 . S
C452 C450 1.391 . S
C452 C453 1.400 . S
C453 C447 1.491 1_545 S
C453 C452 1.400 . S
C453 C454 1.398 . S
C454 H442 0.950 . S
C454 C453 1.398 . S
C454 C455 1.391 . S
C455 H443 0.950 . S
C455 C451 1.393 . S
C455 C454 1.391 . S
H456 C464 0.950 . S
H457 C469 0.950 . S
H458 C466 0.950 . S
H459 C468 0.950 . S
H460 C470 0.950 . S
H461 C472 0.950 . S
H462 C474 0.950 . S
H463 C475 0.950 . S
C464 H456 0.950 . S
C464 C465 1.386 . S
C464 C466 1.391 . S
C465 C464 1.386 . S
C465 C469 1.393 . S
C466 H458 0.950 . S
C466 C464 1.391 . S
C466 C467 1.400 . S
C467 C466 1.400 . S
C467 C468 1.398 . S
C467 C473 1.491 . S
C468 H459 0.950 . S
C468 C467 1.398 . S
C468 C469 1.391 . S
C469 H457 0.950 . S
C469 C465 1.393 . S
C469 C468 1.391 . S
C470 H460 0.950 . S
C470 C471 1.386 . S
C470 C472 1.391 . S
C471 C470 1.386 . S
C471 C475 1.393 . S
C472 H461 0.950 . S
C472 C470 1.391 . S
C472 C473 1.400 . S
C473 C467 1.491 . S
C473 C472 1.400 . S
C473 C474 1.398 . S
C474 H462 0.950 . S
C474 C473 1.398 . S
C474 C475 1.391 . S
C475 H463 0.950 . S
C475 C471 1.393 . S
C475 C474 1.391 . S
H476 C484 0.950 . S
H477 C489 0.950 . S
H478 C486 0.950 . S
H479 C488 0.950 . S
H480 C490 0.950 . S
H481 C492 0.950 . S
H482 C494 0.950 . S
H483 C495 0.950 . S
C484 H476 0.950 . S
C484 C485 1.386 . S
C484 C486 1.391 . S
C485 C484 1.386 . S
C485 C489 1.393 . S
C486 H478 0.950 . S
C486 C484 1.391 . S
C486 C487 1.400 . S
C487 C486 1.400 . S
C487 C488 1.398 . S
C487 C493 1.491 . S
C488 H479 0.950 . S
C488 C487 1.398 . S
C488 C489 1.391 . S
C489 H477 0.950 . S
C489 C485 1.393 . S
C489 C488 1.391 . S
C490 H480 0.950 . S
C490 C491 1.386 . S
C490 C492 1.391 . S
C491 C490 1.386 . S
C491 C495 1.393 . S
C492 H481 0.950 . S
C492 C490 1.391 . S
C492 C493 1.400 . S
C493 C487 1.491 . S
C493 C492 1.400 . S
C493 C494 1.398 . S
C494 H482 0.950 . S
C494 C493 1.398 . S
C494 C495 1.391 . S
C495 H483 0.950 . S
C495 C491 1.393 . S
C495 C494 1.391 . S
H496 C504 0.950 . S
H497 C509 0.950 . S
H498 C506 0.950 . S
H499 C508 0.950 . S
H500 C510 0.950 . S
H501 C512 0.950 . S
H502 C514 0.950 . S
H503 C515 0.950 . S
C504 H496 0.950 . S
C504 C505 1.386 . S
C504 C506 1.391 . S
C505 C504 1.386 . S
C505 C509 1.393 . S
C506 H498 0.950 . S
C506 C504 1.391 . S
C506 C507 1.400 . S
C507 C506 1.400 . S
C507 C508 1.398 . S
C507 C513 1.491 . S
C508 H499 0.950 . S
C508 C507 1.398 . S
C508 C509 1.391 . S
C509 H497 0.950 . S
C509 C505 1.393 . S
C509 C508 1.391 . S
C510 H500 0.950 . S
C510 C511 1.386 . S
C510 C512 1.391 . S
C511 C510 1.386 . S
C511 C515 1.393 . S
C512 H501 0.950 . S
C512 C510 1.391 . S
C512 C513 1.400 . S
C513 C507 1.491 . S
C513 C512 1.400 . S
C513 C514 1.398 . S
C514 H502 0.950 . S
C514 C513 1.398 . S
C514 C515 1.391 . S
C515 H503 0.950 . S
C515 C511 1.393 . S
C515 C514 1.391 . S
H516 C524 0.950 . S
H517 C529 0.950 . S
H518 C526 0.950 . S
H519 C528 0.950 . S
H520 C530 0.950 . S
H521 C532 0.950 . S
H522 C534 0.950 . S
H523 C535 0.950 . S
C524 H516 0.950 . S
C524 C525 1.386 . S
C524 C526 1.391 . S
C525 C524 1.386 . S
C525 C529 1.393 . S
C526 H518 0.950 . S
C526 C524 1.391 . S
C526 C527 1.400 . S
C527 C526 1.400 . S
C527 C528 1.398 . S
C527 C533 1.491 . S
C528 H519 0.950 . S
C528 C527 1.398 . S
C528 C529 1.391 . S
C529 H517 0.950 . S
C529 C525 1.393 . S
C529 C528 1.391 . S
C530 H520 0.950 . S
C530 C531 1.386 . S
C530 C532 1.391 . S
C531 C530 1.386 . S
C531 C535 1.393 . S
C532 H521 0.950 . S
C532 C530 1.391 . S
C532 C533 1.400 . S
C533 C527 1.491 . S
C533 C532 1.400 . S
C533 C534 1.398 . S
C534 H522 0.950 . S
C534 C533 1.398 . S
C534 C535 1.391 . S
C535 H523 0.950 . S
C535 C531 1.393 . S
C535 C534 1.391 . S
H536 C544 0.950 . S
H537 C549 0.950 . S
H538 C546 0.950 . S
H539 C548 0.950 . S
H540 C550 0.950 . S
H541 C552 0.950 . S
H542 C554 0.950 . S
H543 C555 0.950 . S
C544 H536 0.950 . S
C544 C545 1.386 . S
C544 C546 1.391 . S
C545 C544 1.386 . S
C545 C549 1.393 . S
C546 H538 0.950 . S
C546 C544 1.391 . S
C546 C547 1.400 . S
C547 C546 1.400 . S
C547 C548 1.398 . S
C547 C553 1.491 . S
C548 H539 0.950 . S
C548 C547 1.398 . S
C548 C549 1.391 . S
C549 H537 0.950 . S
C549 C545 1.393 . S
C549 C548 1.391 . S
C550 H540 0.950 . S
C550 C551 1.386 . S
C550 C552 1.391 . S
C551 C550 1.386 . S
C551 C555 1.393 . S
C552 H541 0.950 . S
C552 C550 1.391 . S
C552 C553 1.400 . S
C553 C547 1.491 . S
C553 C552 1.400 . S
C553 C554 1.398 . S
C554 H542 0.950 . S
C554 C553 1.398 . S
C554 C555 1.391 . S
C555 H543 0.950 . S
C555 C551 1.393 . S
C555 C554 1.391 . S
H556 C564 0.950 . S
H557 C569 0.950 . S
H558 C566 0.950 . S
H559 C568 0.950 . S
H560 C570 0.950 . S
H561 C572 0.950 . S
H562 C574 0.950 . S
H563 C575 0.950 . S
C564 H556 0.950 . S
C564 C565 1.386 . S
C564 C566 1.391 . S
C565 C564 1.386 . S
C565 C569 1.393 . S
C566 H558 0.950 . S
C566 C564 1.391 . S
C566 C567 1.400 . S
C567 C566 1.400 . S
C567 C568 1.398 . S
C567 C573 1.491 . S
C568 H559 0.950 . S
C568 C567 1.398 . S
C568 C569 1.391 . S
C569 H557 0.950 . S
C569 C565 1.393 . S
C569 C568 1.391 . S
C570 H560 0.950 . S
C570 C571 1.386 . S
C570 C572 1.391 . S
C571 C570 1.386 . S
C571 C575 1.393 . S
C572 H561 0.950 . S
C572 C570 1.391 . S
C572 C573 1.400 . S
C573 C567 1.491 . S
C573 C572 1.400 . S
C573 C574 1.398 . S
C574 H562 0.950 . S
C574 C573 1.398 . S
C574 C575 1.391 . S
C575 H563 0.950 . S
C575 C571 1.393 . S
C575 C574 1.391 . S
H576 C584 0.950 . S
H577 C589 0.950 . S
H578 C586 0.950 . S
H579 C588 0.950 . S
H580 C590 0.950 . S
H581 C592 0.950 . S
H582 C594 0.950 . S
H583 C595 0.950 . S
C584 H576 0.950 . S
C584 C585 1.386 . S
C584 C586 1.391 . S
C585 C584 1.386 . S
C585 C589 1.393 . S
C586 H578 0.950 . S
C586 C584 1.391 . S
C586 C587 1.400 . S
C587 C586 1.400 . S
C587 C588 1.398 . S
C587 C593 1.491 . S
C588 H579 0.950 . S
C588 C587 1.398 . S
C588 C589 1.391 . S
C589 H577 0.950 . S
C589 C585 1.393 . S
C589 C588 1.391 . S
C590 H580 0.950 . S
C590 C591 1.386 . S
C590 C592 1.391 . S
C591 C590 1.386 . S
C591 C595 1.393 . S
C592 H581 0.950 . S
C592 C590 1.391 . S
C592 C593 1.400 . S
C593 C587 1.491 . S
C593 C592 1.400 . S
C593 C594 1.398 . S
C594 H582 0.950 . S
C594 C593 1.398 . S
C594 C595 1.391 . S
C595 H583 0.950 . S
C595 C591 1.393 . S
C595 C594 1.391 . S
H596 C604 0.950 . S
H597 C609 0.950 . S
H598 C606 0.950 . S
H599 C608 0.950 . S
H600 C610 0.950 . S
H601 C612 0.950 . S
H602 C614 0.950 . S
H603 C615 0.950 . S
C604 H596 0.950 . S
C604 C605 1.386 . S
C604 C606 1.391 . S
C605 C604 1.386 . S
C605 C609 1.393 . S
C606 H598 0.950 . S
C606 C604 1.391 . S
C606 C607 1.400 . S
C607 C606 1.400 . S
C607 C608 1.398 . S
C607 C613 1.491 . S
C608 H599 0.950 . S
C608 C607 1.398 . S
C608 C609 1.391 . S
C609 H597 0.950 . S
C609 C605 1.393 . S
C609 C608 1.391 . S
C610 H600 0.950 . S
C610 C611 1.386 . S
C610 C612 1.391 . S
C611 C610 1.386 . S
C611 C615 1.393 . S
C612 H601 0.950 . S
C612 C610 1.391 . S
C612 C613 1.400 . S
C613 C607 1.491 . S
C613 C612 1.400 . S
C613 C614 1.398 . S
C614 H602 0.950 . S
C614 C613 1.398 . S
C614 C615 1.391 . S
C615 H603 0.950 . S
C615 C611 1.393 . S
C615 C614 1.391 . S
H616 C624 0.950 . S
H617 C629 0.950 . S
H618 C626 0.950 . S
H619 C628 0.950 . S
H620 C630 0.950 . S
H621 C632 0.950 . S
H622 C634 0.950 . S
H623 C635 0.950 . S
C624 H616 0.950 . S
C624 C625 1.386 . S
C624 C626 1.391 . S
C625 C624 1.386 . S
C625 C629 1.393 . S
C626 H618 0.950 . S
C626 C624 1.391 . S
C626 C627 1.400 . S
C627 C626 1.400 . S
C627 C628 1.398 . S
C627 C633 1.491 . S
C628 H619 0.950 . S
C628 C627 1.398 . S
C628 C629 1.391 . S
C629 H617 0.950 . S
C629 C625 1.393 . S
C629 C628 1.391 . S
C630 H620 0.950 . S
C630 C631 1.386 . S
C630 C632 1.391 . S
C631 C630 1.386 . S
C631 C635 1.393 . S
C632 H621 0.950 . S
C632 C630 1.391 . S
C632 C633 1.400 . S
C633 C627 1.491 . S
C633 C632 1.400 . S
C633 C634 1.398 . S
C634 H622 0.950 . S
C634 C633 1.398 . S
C634 C635 1.391 . S
C635 H623 0.950 . S
C635 C631 1.393 . S
C635 C634 1.391 . S
H636 C644 0.950 . S
H637 C649 0.950 . S
H638 C646 0.950 . S
H639 C648 0.950 . S
H640 C650 0.950 . S
H641 C652 0.950 . S
H642 C654 0.950 . S
H643 C655 0.950 . S
C644 H636 0.950 . S
C644 C645 1.386 . S
C644 C646 1.391 . S
C645 C644 1.386 . S
C645 C649 1.393 . S
C646 H638 0.950 . S
C646 C644 1.391 . S
C646 C647 1.400 . S
C647 C646 1.400 . S
C647 C648 1.398 . S
C647 C653 1.491 . S
C648 H639 0.950 . S
C648 C647 1.398 . S
C648 C649 1.391 . S
C649 H637 0.950 . S
C649 C645 1.393 . S
C649 C648 1.391 . S
C650 H640 0.950 . S
C650 C651 1.386 . S
C650 C652 1.391 . S
C651 C650 1.386 . S
C651 C655 1.393 . S
C652 H641 0.950 . S
C652 C650 1.391 . S
C652 C653 1.400 . S
C653 C647 1.491 . S
C653 C652 1.400 . S
C653 C654 1.398 . S
C654 H642 0.950 . S
C654 C653 1.398 . S
C654 C655 1.391 . S
C655 H643 0.950 . S
C655 C651 1.393 . S
C655 C654 1.391 . S
H656 C664 0.950 . S
H657 C669 0.950 . S
H658 C666 0.950 . S
H659 C668 0.950 . S
H660 C670 0.950 . S
H661 C672 0.950 . S
H662 C674 0.950 . S
H663 C675 0.950 . S
C664 H656 0.950 . S
C664 C665 1.386 . S
C664 C666 1.391 . S
C665 C664 1.386 . S
C665 C669 1.393 . S
C666 H658 0.950 . S
C666 C664 1.391 . S
C666 C667 1.400 . S
C667 C666 1.400 . S
C667 C668 1.398 . S
C667 C673 1.491 . S
C668 H659 0.950 . S
C668 C667 1.398 . S
C668 C669 1.391 . S
C669 H657 0.950 . S
C669 C665 1.393 . S
C669 C668 1.391 . S
C670 H660 0.950 . S
C670 C671 1.386 . S
C670 C672 1.391 . S
C671 C670 1.386 . S
C671 C675 1.393 . S
C672 H661 0.950 . S
C672 C670 1.391 . S
C672 C673 1.400 . S
C673 C667 1.491 . S
C673 C672 1.400 . S
C673 C674 1.398 . S
C674 H662 0.950 . S
C674 C673 1.398 . S
C674 C675 1.391 . S
C675 H663 0.950 . S
C675 C671 1.393 . S
C675 C674 1.391 . S
H676 C684 0.950 . S
H677 C689 0.950 . S
H678 C686 0.950 . S
H679 C688 0.950 . S
H680 C690 0.950 . S
H681 C692 0.950 . S
H682 C694 0.950 . S
H683 C695 0.950 . S
C684 H676 0.950 . S
C684 C685 1.386 . S
C684 C686 1.391 . S
C685 C684 1.386 . S
C685 C689 1.393 . S
C686 H678 0.950 . S
C686 C684 1.391 . S
C686 C687 1.400 . S
C687 C686 1.400 . S
C687 C688 1.398 . S
C687 C693 1.491 . S
C688 H679 0.950 . S
C688 C687 1.398 . S
C688 C689 1.391 . S
C689 H677 0.950 . S
C689 C685 1.393 . S
C689 C688 1.391 . S
C690 H680 0.950 . S
C690 C691 1.386 . S
C690 C692 1.391 . S
C691 C690 1.386 . S
C691 C695 1.393 . S
C692 H681 0.950 . S
C692 C690 1.391 . S
C692 C693 1.400 . S
C693 C687 1.491 . S
C693 C692 1.400 . S
C693 C694 1.398 . S
C694 H682 0.950 . S
C694 C693 1.398 . S
C694 C695 1.391 . S
C695 H683 0.950 . S
C695 C691 1.393 . S
C695 C694 1.391 . S
H696 C704 0.950 . S
H697 C709 0.950 . S
H698 C706 0.950 . S
H699 C708 0.950 . S
H700 C710 0.950 . S
H701 C712 0.950 . S
H702 C714 0.950 . S
H703 C715 0.950 . S
C704 H696 0.950 . S
C704 C705 1.386 . S
C704 C706 1.391 . S
C705 C704 1.386 . S
C705 C709 1.393 . S
C706 H698 0.950 . S
C706 C704 1.391 . S
C706 C707 1.400 . S
C707 C706 1.400 . S
C707 C708 1.398 . S
C707 C713 1.491 . S
C708 H699 0.950 . S
C708 C707 1.398 . S
C708 C709 1.391 . S
C709 H697 0.950 . S
C709 C705 1.393 . S
C709 C708 1.391 . S
C710 H700 0.950 . S
C710 C711 1.386 . S
C710 C712 1.391 . S
C711 C710 1.386 . S
C711 C715 1.393 . S
C712 H701 0.950 . S
C712 C710 1.391 . S
C712 C713 1.400 . S
C713 C707 1.491 . S
C713 C712 1.400 . S
C713 C714 1.398 . S
C714 H702 0.950 . S
C714 C713 1.398 . S
C714 C715 1.391 . S
C715 H703 0.950 . S
C715 C711 1.393 . S
C715 C714 1.391 . S
H716 C724 0.950 . S
H717 C729 0.950 . S
H718 C726 0.950 . S
H719 C728 0.950 . S
H720 C730 0.950 . S
H721 C732 0.950 . S
H722 C734 0.950 . S
H723 C735 0.950 . S
C724 H716 0.950 . S
C724 C725 1.386 . S
C724 C726 1.391 . S
C725 C724 1.386 . S
C725 C729 1.393 . S
C726 H718 0.950 . S
C726 C724 1.391 . S
C726 C727 1.400 . S
C727 C726 1.400 . S
C727 C728 1.398 . S
C727 C733 1.491 . S
C728 H719 0.950 . S
C728 C727 1.398 . S
C728 C729 1.391 . S
C729 H717 0.950 . S
C729 C725 1.393 . S
C729 C728 1.391 . S
C730 H720 0.950 . S
C730 C731 1.386 . S
C730 C732 1.391 . S
C731 C730 1.386 . S
C731 C735 1.393 . S
C732 H721 0.950 . S
C732 C730 1.391 . S
C732 C733 1.400 . S
C733 C727 1.491 . S
C733 C732 1.400 . S
C733 C734 1.398 . S
C734 H722 0.950 . S
C734 C733 1.398 . S
C734 C735 1.391 . S
C735 H723 0.950 . S
C735 C731 1.393 . S
C735 C734 1.391 . S
H736 C744 0.950 . S
H737 C749 0.950 . S
H738 C746 0.950 . S
H739 C748 0.950 1_554 S
H740 C750 0.950 . S
H741 C752 0.950 . S
H742 C754 0.950 . S
H743 C755 0.955 . S
C744 H736 0.950 . S
C744 C745 1.386 . S
C744 C746 1.391 . S
C745 C744 1.386 . S
C745 C749 1.393 . S
C746 H738 0.950 . S
C746 C744 1.391 . S
C746 C747 1.400 . S
C747 C746 1.400 . S
C747 C748 1.398 . S
C747 C753 1.490 . S
C748 H739 0.950 1_556 S
C748 C747 1.398 . S
C748 C749 1.391 . S
C749 H737 0.950 . S
C749 C745 1.393 . S
C749 C748 1.391 . S
C750 H740 0.950 . S
C750 C751 1.386 . S
C750 C752 1.391 1_565 S
C751 C750 1.386 . S
C751 C755 1.380 1_554 S
C752 H741 0.950 . S
C752 C750 1.391 1_545 S
C752 C753 1.402 1_554 S
C753 C747 1.490 . S
C753 C752 1.402 1_556 S
C753 C754 1.398 1_545 S
C754 H742 0.950 . S
C754 C753 1.398 1_565 S
C754 C755 1.398 . S
C755 H743 0.955 . S
C755 C751 1.380 1_556 S
C755 C754 1.398 . S
H756 C764 0.950 . S
H757 C769 0.950 . S
H758 C766 0.950 . S
H759 C768 0.950 . S
H760 C770 0.950 . S
H761 C772 0.950 . S
H762 C774 0.950 . S
H763 C775 0.950 . S
C764 H756 0.950 . S
C764 C765 1.386 . S
C764 C766 1.391 . S
C765 C764 1.386 . S
C765 C769 1.393 . S
C766 H758 0.950 . S
C766 C764 1.391 . S
C766 C767 1.400 . S
C767 C766 1.400 . S
C767 C768 1.398 . S
C767 C773 1.491 . S
C768 H759 0.950 . S
C768 C767 1.398 . S
C768 C769 1.391 . S
C769 H757 0.950 . S
C769 C765 1.393 . S
C769 C768 1.391 . S
C770 H760 0.950 . S
C770 C771 1.386 . S
C770 C772 1.391 . S
C771 C770 1.386 . S
C771 C775 1.393 . S
C772 H761 0.950 . S
C772 C770 1.391 . S
C772 C773 1.400 . S
C773 C767 1.491 . S
C773 C772 1.400 . S
C773 C774 1.398 . S
C774 H762 0.950 . S
C774 C773 1.398 . S
C774 C775 1.391 . S
C775 H763 0.950 . S
C775 C771 1.393 . S
C775 C774 1.391 . S
H776 C784 0.950 . S
H777 C789 0.950 . S
H778 C786 0.950 . S
H779 C788 0.950 . S
H780 C790 0.950 . S
H781 C792 0.950 . S
H782 C794 0.950 . S
H783 C795 0.950 . S
C784 H776 0.950 . S
C784 C785 1.386 1_545 S
C784 C786 1.391 . S
C785 C784 1.386 1_565 S
C785 C789 1.393 . S
C786 H778 0.950 . S
C786 C784 1.391 . S
C786 C787 1.400 . S
C787 C786 1.400 . S
C787 C788 1.398 1_545 S
C787 C793 1.491 . S
C788 H779 0.950 . S
C788 C787 1.398 1_565 S
C788 C789 1.391 . S
C789 H777 0.950 . S
C789 C785 1.393 . S
C789 C788 1.391 . S
C790 H780 0.950 . S
C790 C791 1.386 . S
C790 C792 1.391 . S
C791 C790 1.386 . S
C791 C795 1.393 . S
C792 H781 0.950 . S
C792 C790 1.391 . S
C792 C793 1.400 . S
C793 C787 1.491 . S
C793 C792 1.400 . S
C793 C794 1.398 . S
C794 H782 0.950 . S
C794 C793 1.398 . S
C794 C795 1.391 . S
C795 H783 0.950 . S
C795 C791 1.393 . S
C795 C794 1.391 . S
H796 C804 0.950 . S
H797 C809 0.950 . S
H798 C806 0.950 . S
H799 C808 0.950 . S
H800 C810 0.950 . S
H801 C812 0.950 . S
H802 C814 0.950 . S
H803 C815 0.950 . S
C804 H796 0.950 . S
C804 C805 1.386 . S
C804 C806 1.391 . S
C805 C804 1.386 . S
C805 C809 1.393 . S
C806 H798 0.950 . S
C806 C804 1.391 . S
C806 C807 1.400 . S
C807 C806 1.400 . S
C807 C808 1.398 . S
C807 C813 1.491 . S
C808 H799 0.950 . S
C808 C807 1.398 . S
C808 C809 1.391 . S
C809 H797 0.950 . S
C809 C805 1.393 . S
C809 C808 1.391 . S
C810 H800 0.950 . S
C810 C811 1.386 . S
C810 C812 1.391 . S
C811 C810 1.386 . S
C811 C815 1.393 . S
C812 H801 0.950 . S
C812 C810 1.391 . S
C812 C813 1.400 . S
C813 C807 1.491 . S
C813 C812 1.400 . S
C813 C814 1.398 . S
C814 H802 0.950 . S
C814 C813 1.398 . S
C814 C815 1.391 . S
C815 H803 0.950 . S
C815 C811 1.393 . S
C815 C814 1.391 . S
H816 C824 0.950 . S
H817 C829 0.950 . S
H818 C826 0.950 1_545 S
H819 C828 0.950 . S
H820 C830 0.950 . S
H821 C832 0.950 . S
H822 C834 0.950 . S
H823 C835 0.950 . S
C824 H816 0.950 . S
C824 C825 1.386 . S
C824 C826 1.391 . S
C825 C824 1.386 . S
C825 C829 1.393 . S
C826 H818 0.950 1_565 S
C826 C824 1.391 . S
C826 C827 1.400 1_565 S
C827 C826 1.400 1_545 S
C827 C828 1.398 1_545 S
C827 C833 1.491 . S
C828 H819 0.950 . S
C828 C827 1.398 1_565 S
C828 C829 1.391 . S
C829 H817 0.950 . S
C829 C825 1.393 . S
C829 C828 1.391 . S
C830 H820 0.950 . S
C830 C831 1.386 . S
C830 C832 1.391 . S
C831 C830 1.386 . S
C831 C835 1.393 . S
C832 H821 0.950 . S
C832 C830 1.391 . S
C832 C833 1.400 . S
C833 C827 1.491 . S
C833 C832 1.400 . S
C833 C834 1.398 . S
C834 H822 0.950 . S
C834 C833 1.398 . S
C834 C835 1.391 . S
C835 H823 0.950 . S
C835 C831 1.393 . S
C835 C834 1.391 . S
H836 C844 0.950 . S
H837 C849 0.950 . S
H838 C846 0.950 . S
H839 C848 0.950 . S
H840 C850 0.950 . S
H841 C852 0.950 . S
H842 C854 0.950 . S
H843 C855 0.950 . S
C844 H836 0.950 . S
C844 C845 1.386 . S
C844 C846 1.391 . S
C845 C844 1.386 . S
C845 C849 1.393 . S
C846 H838 0.950 . S
C846 C844 1.391 . S
C846 C847 1.400 . S
C847 C846 1.400 . S
C847 C848 1.398 . S
C847 C853 1.491 . S
C848 H839 0.950 . S
C848 C847 1.398 . S
C848 C849 1.391 . S
C849 H837 0.950 . S
C849 C845 1.393 . S
C849 C848 1.391 . S
C850 H840 0.950 . S
C850 C851 1.386 . S
C850 C852 1.391 . S
C851 C850 1.386 . S
C851 C855 1.393 . S
C852 H841 0.950 . S
C852 C850 1.391 . S
C852 C853 1.400 . S
C853 C847 1.491 . S
C853 C852 1.400 . S
C853 C854 1.398 . S
C854 H842 0.950 . S
C854 C853 1.398 . S
C854 C855 1.391 . S
C855 H843 0.950 . S
C855 C851 1.393 . S
C855 C854 1.391 . S
H856 C864 0.950 . S
H857 C869 0.950 . S
H858 C866 0.950 . S
H859 C868 0.950 . S
H860 C870 0.950 . S
H861 C872 0.950 . S
H862 C874 0.950 . S
H863 C875 0.950 . S
C864 H856 0.950 . S
C864 C865 1.386 . S
C864 C866 1.391 . S
C865 C864 1.386 . S
C865 C869 1.393 . S
C866 H858 0.950 . S
C866 C864 1.391 . S
C866 C867 1.400 . S
C867 C866 1.400 . S
C867 C868 1.398 . S
C867 C873 1.491 . S
C868 H859 0.950 . S
C868 C867 1.398 . S
C868 C869 1.391 . S
C869 H857 0.950 . S
C869 C865 1.393 . S
C869 C868 1.391 . S
C870 H860 0.950 . S
C870 C871 1.386 . S
C870 C872 1.391 . S
C871 C870 1.386 . S
C871 C875 1.393 . S
C872 H861 0.950 . S
C872 C870 1.391 . S
C872 C873 1.400 . S
C873 C867 1.491 . S
C873 C872 1.400 . S
C873 C874 1.398 . S
C874 H862 0.950 . S
C874 C873 1.398 . S
C874 C875 1.391 . S
C875 H863 0.950 . S
C875 C871 1.393 . S
C875 C874 1.391 . S
H876 C884 0.950 . S
H877 C889 0.950 . S
H878 C886 0.950 . S
H879 C888 0.950 . S
H880 C890 0.950 . S
H881 C892 0.950 . S
H882 C894 0.950 . S
H883 C895 0.950 . S
C884 H876 0.950 . S
C884 C885 1.386 . S
C884 C886 1.391 . S
C885 C884 1.386 . S
C885 C889 1.393 . S
C886 H878 0.950 . S
C886 C884 1.391 . S
C886 C887 1.400 . S
C887 C886 1.400 . S
C887 C888 1.398 . S
C887 C893 1.491 . S
C888 H879 0.950 . S
C888 C887 1.398 . S
C888 C889 1.391 . S
C889 H877 0.950 . S
C889 C885 1.393 . S
C889 C888 1.391 . S
C890 H880 0.950 . S
C890 C891 1.386 . S
C890 C892 1.391 . S
C891 C890 1.386 . S
C891 C895 1.393 . S
C892 H881 0.950 . S
C892 C890 1.391 . S
C892 C893 1.400 . S
C893 C887 1.491 . S
C893 C892 1.400 . S
C893 C894 1.398 . S
C894 H882 0.950 . S
C894 C893 1.398 . S
C894 C895 1.391 . S
C895 H883 0.950 . S
C895 C891 1.393 . S
C895 C894 1.391 . S
H896 C904 0.950 . S
H897 C909 0.950 . S
H898 C906 0.950 . S
H899 C908 0.950 . S
H900 C910 0.950 . S
H901 C912 0.950 . S
H902 C914 0.950 . S
H903 C915 0.950 . S
C904 H896 0.950 . S
C904 C905 1.386 . S
C904 C906 1.391 . S
C905 C904 1.386 . S
C905 C909 1.393 . S
C906 H898 0.950 . S
C906 C904 1.391 . S
C906 C907 1.400 . S
C907 C906 1.400 . S
C907 C908 1.398 . S
C907 C913 1.491 . S
C908 H899 0.950 . S
C908 C907 1.398 . S
C908 C909 1.391 . S
C909 H897 0.950 . S
C909 C905 1.393 . S
C909 C908 1.391 . S
C910 H900 0.950 . S
C910 C911 1.386 . S
C910 C912 1.391 . S
C911 C910 1.386 . S
C911 C915 1.393 . S
C912 H901 0.950 . S
C912 C910 1.391 . S
C912 C913 1.400 . S
C913 C907 1.491 . S
C913 C912 1.400 . S
C913 C914 1.398 . S
C914 H902 0.950 . S
C914 C913 1.398 . S
C914 C915 1.391 . S
C915 H903 0.950 . S
C915 C911 1.393 . S
C915 C914 1.391 . S
H916 C924 0.950 . S
H917 C929 0.950 . S
H918 C926 0.950 . S
H919 C928 0.950 . S
H920 C930 0.950 . S
H921 C932 0.950 . S
H922 C934 0.950 . S
H923 C935 0.950 . S
C924 H916 0.950 . S
C924 C925 1.386 . S
C924 C926 1.391 . S
C925 C924 1.386 . S
C925 C929 1.393 . S
C926 H918 0.950 . S
C926 C924 1.391 . S
C926 C927 1.400 . S
C927 C926 1.400 . S
C927 C928 1.398 . S
C927 C933 1.491 . S
C928 H919 0.950 . S
C928 C927 1.398 . S
C928 C929 1.391 . S
C929 H917 0.950 . S
C929 C925 1.393 . S
C929 C928 1.391 . S
C930 H920 0.950 . S
C930 C931 1.386 . S
C930 C932 1.391 . S
C931 C930 1.386 . S
C931 C935 1.393 . S
C932 H921 0.950 . S
C932 C930 1.391 . S
C932 C933 1.400 . S
C933 C927 1.491 . S
C933 C932 1.400 . S
C933 C934 1.398 . S
C934 H922 0.950 . S
C934 C933 1.398 . S
C934 C935 1.391 . S
C935 H923 0.950 . S
C935 C931 1.393 . S
C935 C934 1.391 . S
H936 C944 0.950 . S
H937 C949 0.950 . S
H938 C946 0.950 . S
H939 C948 0.950 . S
H940 C950 0.950 . S
H941 C952 0.950 . S
H942 C954 0.950 . S
H943 C955 0.950 . S
C944 H936 0.950 . S
C944 C945 1.386 . S
C944 C946 1.391 . S
C945 C944 1.386 . S
C945 C949 1.393 . S
C946 H938 0.950 . S
C946 C944 1.391 . S
C946 C947 1.400 . S
C947 C946 1.400 . S
C947 C948 1.398 . S
C947 C953 1.491 . S
C948 H939 0.950 . S
C948 C947 1.398 . S
C948 C949 1.391 . S
C949 H937 0.950 . S
C949 C945 1.393 . S
C949 C948 1.391 . S
C950 H940 0.950 . S
C950 C951 1.386 . S
C950 C952 1.391 . S
C951 C950 1.386 . S
C951 C955 1.393 . S
C952 H941 0.950 . S
C952 C950 1.391 . S
C952 C953 1.400 . S
C953 C947 1.491 . S
C953 C952 1.400 . S
C953 C954 1.398 . S
C954 H942 0.950 . S
C954 C953 1.398 . S
C954 C955 1.391 . S
C955 H943 0.950 . S
C955 C951 1.393 . S
C955 C954 1.391 . S
H956 C964 0.950 . S
H957 C969 0.950 . S
H958 C966 0.950 . S
H959 C968 0.950 . S
H960 C970 0.950 . S
H961 C972 0.950 . S
H962 C974 0.950 . S
H963 C975 0.950 . S
C964 H956 0.950 . S
C964 C965 1.386 . S
C964 C966 1.391 . S
C965 C964 1.386 . S
C965 C969 1.393 . S
C966 H958 0.950 . S
C966 C964 1.391 . S
C966 C967 1.400 . S
C967 C966 1.400 . S
C967 C968 1.398 . S
C967 C973 1.491 1_455 S
C968 H959 0.950 . S
C968 C967 1.398 . S
C968 C969 1.391 . S
C969 H957 0.950 . S
C969 C965 1.393 . S
C969 C968 1.391 . S
C970 H960 0.950 . S
C970 C971 1.386 . S
C970 C972 1.391 . S
C971 C970 1.386 . S
C971 C975 1.393 . S
C972 H961 0.950 . S
C972 C970 1.391 . S
C972 C973 1.400 . S
C973 C967 1.491 1_655 S
C973 C972 1.400 . S
C973 C974 1.398 . S
C974 H962 0.950 . S
C974 C973 1.398 . S
C974 C975 1.391 . S
C975 H963 0.950 . S
C975 C971 1.393 . S
C975 C974 1.391 . S
H976 C984 0.950 . S
H977 C989 0.950 . S
H978 C986 0.950 . S
H979 C988 0.950 . S
H980 C990 0.950 . S
H981 C992 0.950 . S
H982 C994 0.950 . S
H983 C995 0.950 . S
C984 H976 0.950 . S
C984 C985 1.386 . S
C984 C986 1.391 . S
C985 C984 1.386 . S
C985 C989 1.393 . S
C986 H978 0.950 . S
C986 C984 1.391 . S
C986 C987 1.400 . S
C987 C986 1.400 . S
C987 C988 1.398 . S
C987 C993 1.491 . S
C988 H979 0.950 . S
C988 C987 1.398 . S
C988 C989 1.391 . S
C989 H977 0.950 . S
C989 C985 1.393 . S
C989 C988 1.391 . S
C990 H980 0.950 . S
C990 C991 1.386 . S
C990 C992 1.391 . S
C991 C990 1.386 . S
C991 C995 1.393 . S
C992 H981 0.950 . S
C992 C990 1.391 . S
C992 C993 1.400 . S
C993 C987 1.491 . S
C993 C992 1.400 . S
C993 C994 1.398 . S
C994 H982 0.950 . S
C994 C993 1.398 . S
C994 C995 1.391 . S
C995 H983 0.950 . S
C995 C991 1.393 . S
C995 C994 1.391 . S
H996 C1004 0.950 . S
H997 C1009 0.950 . S
H998 C1006 0.950 . S
H999 C1008 0.950 . S
H1000 C1010 0.950 . S
H1001 C1012 0.950 . S
H1002 C1014 0.950 . S
H1003 C1015 0.950 . S
C1004 H996 0.950 . S
C1004 C1005 1.386 . S
C1004 C1006 1.391 . S
C1005 C1004 1.386 . S
C1005 C1009 1.393 . S
C1006 H998 0.950 . S
C1006 C1004 1.391 . S
C1006 C1007 1.400 . S
C1007 C1006 1.400 . S
C1007 C1008 1.398 . S
C1007 C1013 1.486 1_655 S
C1008 H999 0.950 . S
C1008 C1007 1.398 . S
C1008 C1009 1.391 . S
C1009 H997 0.950 . S
C1009 C1005 1.393 . S
C1009 C1008 1.391 . S
C1010 H1000 0.950 . S
C1010 C1011 1.386 . S
C1010 C1012 1.391 1_455 S
C1011 C1010 1.386 . S
C1011 C1015 1.393 . S
C1012 H1001 0.950 . S
C1012 C1010 1.391 1_655 S
C1012 C1013 1.399 1_655 S
C1013 C1007 1.486 1_455 S
C1013 C1012 1.399 1_455 S
C1013 C1014 1.404 . S
C1014 H1002 0.950 . S
C1014 C1013 1.404 . S
C1014 C1015 1.391 . S
C1015 H1003 0.950 . S
C1015 C1011 1.393 . S
C1015 C1014 1.391 . S
H1016 C1024 0.950 . S
H1017 C1029 0.950 . S
H1018 C1026 0.950 . S
H1019 C1028 0.950 . S
H1020 C1030 0.950 . S
H1021 C1032 0.950 . S
H1022 C1034 0.950 . S
H1023 C1035 0.950 . S
C1024 H1016 0.950 . S
C1024 C1025 1.386 . S
C1024 C1026 1.391 . S
C1025 C1024 1.386 . S
C1025 C1029 1.393 . S
C1026 H1018 0.950 . S
C1026 C1024 1.391 . S
C1026 C1027 1.400 . S
C1027 C1026 1.400 . S
C1027 C1028 1.398 . S
C1027 C1033 1.491 . S
C1028 H1019 0.950 . S
C1028 C1027 1.398 . S
C1028 C1029 1.391 . S
C1029 H1017 0.950 . S
C1029 C1025 1.393 . S
C1029 C1028 1.391 . S
C1030 H1020 0.950 . S
C1030 C1031 1.386 . S
C1030 C1032 1.391 . S
C1031 C1030 1.386 . S
C1031 C1035 1.393 . S
C1032 H1021 0.950 . S
C1032 C1030 1.391 . S
C1032 C1033 1.400 . S
C1033 C1027 1.491 . S
C1033 C1032 1.400 . S
C1033 C1034 1.398 . S
C1034 H1022 0.950 . S
C1034 C1033 1.398 . S
C1034 C1035 1.391 . S
C1035 H1023 0.950 . S
C1035 C1031 1.393 . S
C1035 C1034 1.391 . S
H1036 C1044 0.950 . S
H1037 C1049 0.950 . S
H1038 C1046 0.950 . S
H1039 C1048 0.950 . S
H1040 C1050 0.950 . S
H1041 C1052 0.950 . S
H1042 C1054 0.950 . S
H1043 C1055 0.950 . S
C1044 H1036 0.950 . S
C1044 C1045 1.386 . S
C1044 C1046 1.391 . S
C1045 C1044 1.386 . S
C1045 C1049 1.393 . S
C1046 H1038 0.950 . S
C1046 C1044 1.391 . S
C1046 C1047 1.400 . S
C1047 C1046 1.400 . S
C1047 C1048 1.398 . S
C1047 C1053 1.491 . S
C1048 H1039 0.950 . S
C1048 C1047 1.398 . S
C1048 C1049 1.391 . S
C1049 H1037 0.950 . S
C1049 C1045 1.393 . S
C1049 C1048 1.391 . S
C1050 H1040 0.950 . S
C1050 C1051 1.386 . S
C1050 C1052 1.391 1_556 S
C1051 C1050 1.386 . S
C1051 C1055 1.393 . S
C1052 H1041 0.950 . S
C1052 C1050 1.391 1_554 S
C1052 C1053 1.400 . S
C1053 C1047 1.491 . S
C1053 C1052 1.400 . S
C1053 C1054 1.398 1_554 S
C1054 H1042 0.950 . S
C1054 C1053 1.398 1_556 S
C1054 C1055 1.391 . S
C1055 H1043 0.950 . S
C1055 C1051 1.393 . S
C1055 C1054 1.391 . S
H1056 C1064 0.950 . S
H1057 C1069 0.950 . S
H1058 C1066 0.950 . S
H1059 C1068 0.950 . S
H1060 C1070 0.950 . S
H1061 C1072 0.950 . S
H1062 C1074 0.950 . S
H1063 C1075 0.950 . S
C1064 H1056 0.950 . S
C1064 C1065 1.386 . S
C1064 C1066 1.391 . S
C1065 C1064 1.386 . S
C1065 C1069 1.393 . S
C1066 H1058 0.950 . S
C1066 C1064 1.391 . S
C1066 C1067 1.400 . S
C1067 C1066 1.400 . S
C1067 C1068 1.398 . S
C1067 C1073 1.491 . S
C1068 H1059 0.950 . S
C1068 C1067 1.398 . S
C1068 C1069 1.391 . S
C1069 H1057 0.950 . S
C1069 C1065 1.393 . S
C1069 C1068 1.391 . S
C1070 H1060 0.950 . S
C1070 C1071 1.386 . S
C1070 C1072 1.391 . S
C1071 C1070 1.386 . S
C1071 C1075 1.393 . S
C1072 H1061 0.950 . S
C1072 C1070 1.391 . S
C1072 C1073 1.400 . S
C1073 C1067 1.491 . S
C1073 C1072 1.400 . S
C1073 C1074 1.398 . S
C1074 H1062 0.950 . S
C1074 C1073 1.398 . S
C1074 C1075 1.391 . S
C1075 H1063 0.950 . S
C1075 C1071 1.393 . S
C1075 C1074 1.391 . S
H1076 C1084 0.950 . S
H1077 C1089 0.950 . S
H1078 C1086 0.950 . S
H1079 C1088 0.950 . S
H1080 C1090 0.950 . S
H1081 C1092 0.950 . S
H1082 C1094 0.950 . S
H1083 C1095 0.950 . S
C1084 H1076 0.950 . S
C1084 C1085 1.386 . S
C1084 C1086 1.391 . S
C1085 C1084 1.386 . S
C1085 C1089 1.393 . S
C1086 H1078 0.950 . S
C1086 C1084 1.391 . S
C1086 C1087 1.400 . S
C1087 C1086 1.400 . S
C1087 C1088 1.398 . S
C1087 C1093 1.491 . S
C1088 H1079 0.950 . S
C1088 C1087 1.398 . S
C1088 C1089 1.391 . S
C1089 H1077 0.950 . S
C1089 C1085 1.393 . S
C1089 C1088 1.391 . S
C1090 H1080 0.950 . S
C1090 C1091 1.386 1_554 S
C1090 C1092 1.391 . S
C1091 C1090 1.386 1_556 S
C1091 C1095 1.393 . S
C1092 H1081 0.950 . S
C1092 C1090 1.391 . S
C1092 C1093 1.400 . S
C1093 C1087 1.491 . S
C1093 C1092 1.400 . S
C1093 C1094 1.398 . S
C1094 H1082 0.950 . S
C1094 C1093 1.398 . S
C1094 C1095 1.391 1_554 S
C1095 H1083 0.950 . S
C1095 C1091 1.393 . S
C1095 C1094 1.391 1_556 S
H1096 C1104 0.950 . S
H1097 C1109 0.950 . S
H1098 C1106 0.950 . S
H1099 C1108 0.950 . S
H1100 C1110 0.950 . S
H1101 C1112 0.950 . S
H1102 C1114 0.950 . S
H1103 C1115 0.950 . S
C1104 H1096 0.950 . S
C1104 C1105 1.386 . S
C1104 C1106 1.391 . S
C1105 C1104 1.386 . S
C1105 C1109 1.393 . S
C1106 H1098 0.950 . S
C1106 C1104 1.391 . S
C1106 C1107 1.400 . S
C1107 C1106 1.400 . S
C1107 C1108 1.398 . S
C1107 C1113 1.491 . S
C1108 H1099 0.950 . S
C1108 C1107 1.398 . S
C1108 C1109 1.391 . S
C1109 H1097 0.950 . S
C1109 C1105 1.393 . S
C1109 C1108 1.391 . S
C1110 H1100 0.950 . S
C1110 C1111 1.386 . S
C1110 C1112 1.391 . S
C1111 C1110 1.386 . S
C1111 C1115 1.393 . S
C1112 H1101 0.950 . S
C1112 C1110 1.391 . S
C1112 C1113 1.400 . S
C1113 C1107 1.491 . S
C1113 C1112 1.400 . S
C1113 C1114 1.398 . S
C1114 H1102 0.950 . S
C1114 C1113 1.398 . S
C1114 C1115 1.391 . S
C1115 H1103 0.950 . S
C1115 C1111 1.393 . S
C1115 C1114 1.391 . S
H1116 C1124 0.950 . S
H1117 C1129 0.950 . S
H1118 C1126 0.950 1_554 S
H1119 C1128 0.950 . S
H1120 C1130 0.950 . S
H1121 C1132 0.967 . S
H1122 C1134 0.950 . S
H1123 C1135 0.950 . S
C1124 H1116 0.950 . S
C1124 C1125 1.386 . S
C1124 C1126 1.391 . S
C1125 C1124 1.386 . S
C1125 C1129 1.393 . S
C1126 H1118 0.950 1_556 S
C1126 C1124 1.391 . S
C1126 C1127 1.400 . S
C1127 C1126 1.400 . S
C1127 C1128 1.398 . S
C1127 C1133 1.491 1_556 S
C1128 H1119 0.950 . S
C1128 C1127 1.398 . S
C1128 C1129 1.391 . S
C1129 H1117 0.950 . S
C1129 C1125 1.393 . S
C1129 C1128 1.391 . S
C1130 H1120 0.950 . S
C1130 C1131 1.386 . S
C1130 C1132 1.391 . S
C1131 C1130 1.386 . S
C1131 C1135 1.393 . S
C1132 H1121 0.967 . S
C1132 C1130 1.391 . S
C1132 C1133 1.400 . S
C1133 C1127 1.491 1_554 S
C1133 C1132 1.400 . S
C1133 C1134 1.398 . S
C1134 H1122 0.950 . S
C1134 C1133 1.398 . S
C1134 C1135 1.391 . S
C1135 H1123 0.950 . S
C1135 C1131 1.393 . S
C1135 C1134 1.391 . S
H1136 C1144 0.950 . S
H1137 C1149 0.950 . S
H1138 C1146 0.950 . S
H1139 C1148 0.950 . S
H1140 C1150 0.950 . S
H1141 C1152 0.950 . S
H1142 C1154 0.950 . S
H1143 C1155 0.950 . S
C1144 H1136 0.950 . S
C1144 C1145 1.386 . S
C1144 C1146 1.391 . S
C1145 C1144 1.386 . S
C1145 C1149 1.393 . S
C1146 H1138 0.950 . S
C1146 C1144 1.391 . S
C1146 C1147 1.400 . S
C1147 C1146 1.400 . S
C1147 C1148 1.398 . S
C1147 C1153 1.491 . S
C1148 H1139 0.950 . S
C1148 C1147 1.398 . S
C1148 C1149 1.391 . S
C1149 H1137 0.950 . S
C1149 C1145 1.393 . S
C1149 C1148 1.391 . S
C1150 H1140 0.950 . S
C1150 C1151 1.386 . S
C1150 C1152 1.391 . S
C1151 C1150 1.386 . S
C1151 C1155 1.393 . S
C1152 H1141 0.950 . S
C1152 C1150 1.391 . S
C1152 C1153 1.400 . S
C1153 C1147 1.491 . S
C1153 C1152 1.400 . S
C1153 C1154 1.398 . S
C1154 H1142 0.950 . S
C1154 C1153 1.398 . S
C1154 C1155 1.391 . S
C1155 H1143 0.950 . S
C1155 C1151 1.393 . S
C1155 C1154 1.391 . S
H1156 C1164 0.950 . S
H1157 C1169 0.950 . S
H1158 C1166 0.950 . S
H1159 C1168 0.950 . S
H1160 C1170 0.950 . S
H1161 C1172 0.950 . S
H1162 C1174 0.950 . S
H1163 C1175 0.950 . S
C1164 H1156 0.950 . S
C1164 C1165 1.386 . S
C1164 C1166 1.391 . S
C1165 C1164 1.386 . S
C1165 C1169 1.393 . S
C1166 H1158 0.950 . S
C1166 C1164 1.391 . S
C1166 C1167 1.400 1_556 S
C1167 C1166 1.400 1_554 S
C1167 C1168 1.398 . S
C1167 C1173 1.491 . S
C1168 H1159 0.950 . S
C1168 C1167 1.398 . S
C1168 C1169 1.391 1_554 S
C1169 H1157 0.950 . S
C1169 C1165 1.393 . S
C1169 C1168 1.391 1_556 S
C1170 H1160 0.950 . S
C1170 C1171 1.386 . S
C1170 C1172 1.391 . S
C1171 C1170 1.386 . S
C1171 C1175 1.393 . S
C1172 H1161 0.950 . S
C1172 C1170 1.391 . S
C1172 C1173 1.400 . S
C1173 C1167 1.491 . S
C1173 C1172 1.400 . S
C1173 C1174 1.398 . S
C1174 H1162 0.950 . S
C1174 C1173 1.398 . S
C1174 C1175 1.391 . S
C1175 H1163 0.950 . S
C1175 C1171 1.393 . S
C1175 C1174 1.391 . S
H1176 C1184 0.950 . S
H1177 C1189 0.950 . S
H1178 C1186 0.950 . S
H1179 C1188 0.950 . S
H1180 C1190 0.950 . S
H1181 C1192 0.950 . S
H1182 C1194 0.950 . S
H1183 C1195 0.950 . S
C1184 H1176 0.950 . S
C1184 C1185 1.386 . S
C1184 C1186 1.391 . S
C1185 C1184 1.386 . S
C1185 C1189 1.393 . S
C1186 H1178 0.950 . S
C1186 C1184 1.391 . S
C1186 C1187 1.400 . S
C1187 C1186 1.400 . S
C1187 C1188 1.398 . S
C1187 C1193 1.491 . S
C1188 H1179 0.950 . S
C1188 C1187 1.398 . S
C1188 C1189 1.391 . S
C1189 H1177 0.950 . S
C1189 C1185 1.393 . S
C1189 C1188 1.391 . S
C1190 H1180 0.950 . S
C1190 C1191 1.386 . S
C1190 C1192 1.391 . S
C1191 C1190 1.386 . S
C1191 C1195 1.393 . S
C1192 H1181 0.950 . S
C1192 C1190 1.391 . S
C1192 C1193 1.400 . S
C1193 C1187 1.491 . S
C1193 C1192 1.400 . S
C1193 C1194 1.398 . S
C1194 H1182 0.950 . S
C1194 C1193 1.398 . S
C1194 C1195 1.391 . S
C1195 H1183 0.950 . S
C1195 C1191 1.393 . S
C1195 C1194 1.391 . S
H1196 C1204 0.950 . S
H1197 C1209 0.950 . S
H1198 C1206 0.950 . S
H1199 C1208 0.950 . S
H1200 C1210 0.950 . S
H1201 C1212 0.950 . S
H1202 C1214 0.950 . S
H1203 C1215 0.950 . S
C1204 H1196 0.950 . S
C1204 C1205 1.386 . S
C1204 C1206 1.391 . S
C1205 C1204 1.386 . S
C1205 C1209 1.393 . S
C1206 H1198 0.950 . S
C1206 C1204 1.391 . S
C1206 C1207 1.400 . S
C1207 C1206 1.400 . S
C1207 C1208 1.398 . S
C1207 C1213 1.491 . S
C1208 H1199 0.950 . S
C1208 C1207 1.398 . S
C1208 C1209 1.391 . S
C1209 H1197 0.950 . S
C1209 C1205 1.393 . S
C1209 C1208 1.391 . S
C1210 H1200 0.950 . S
C1210 C1211 1.386 . S
C1210 C1212 1.391 . S
C1211 C1210 1.386 . S
C1211 C1215 1.393 . S
C1212 H1201 0.950 . S
C1212 C1210 1.391 . S
C1212 C1213 1.400 . S
C1213 C1207 1.491 . S
C1213 C1212 1.400 . S
C1213 C1214 1.398 . S
C1214 H1202 0.950 . S
C1214 C1213 1.398 . S
C1214 C1215 1.391 . S
C1215 H1203 0.950 . S
C1215 C1211 1.393 . S
C1215 C1214 1.391 . S
H1216 C1224 0.950 . S
H1217 C1229 0.950 . S
H1218 C1226 0.950 . S
H1219 C1228 0.950 . S
H1220 C1230 0.950 . S
H1221 C1232 0.950 . S
H1222 C1234 0.950 . S
H1223 C1235 0.950 . S
C1224 H1216 0.950 . S
C1224 C1225 1.386 . S
C1224 C1226 1.391 . S
C1225 C1224 1.386 . S
C1225 C1229 1.393 . S
C1226 H1218 0.950 . S
C1226 C1224 1.391 . S
C1226 C1227 1.400 . S
C1227 C1226 1.400 . S
C1227 C1228 1.398 . S
C1227 C1233 1.491 . S
C1228 H1219 0.950 . S
C1228 C1227 1.398 . S
C1228 C1229 1.391 . S
C1229 H1217 0.950 . S
C1229 C1225 1.393 . S
C1229 C1228 1.391 . S
C1230 H1220 0.950 . S
C1230 C1231 1.386 . S
C1230 C1232 1.391 . S
C1231 C1230 1.386 . S
C1231 C1235 1.393 . S
C1232 H1221 0.950 . S
C1232 C1230 1.391 . S
C1232 C1233 1.400 . S
C1233 C1227 1.491 . S
C1233 C1232 1.400 . S
C1233 C1234 1.398 . S
C1234 H1222 0.950 . S
C1234 C1233 1.398 . S
C1234 C1235 1.391 . S
C1235 H1223 0.950 . S
C1235 C1231 1.393 . S
C1235 C1234 1.391 . S
H1236 C1244 0.950 . S
H1237 C1249 0.950 . S
H1238 C1246 0.950 . S
H1239 C1248 0.950 . S
H1240 C1250 0.950 . S
H1241 C1252 0.950 . S
H1242 C1254 0.950 . S
H1243 C1255 0.950 . S
C1244 H1236 0.950 . S
C1244 C1245 1.386 . S
C1244 C1246 1.391 . S
C1245 C1244 1.386 . S
C1245 C1249 1.393 . S
C1246 H1238 0.950 . S
C1246 C1244 1.391 . S
C1246 C1247 1.400 . S
C1247 C1246 1.400 . S
C1247 C1248 1.398 . S
C1247 C1253 1.491 . S
C1248 H1239 0.950 . S
C1248 C1247 1.398 . S
C1248 C1249 1.391 . S
C1249 H1237 0.950 . S
C1249 C1245 1.393 . S
C1249 C1248 1.391 . S
C1250 H1240 0.950 . S
C1250 C1251 1.386 . S
C1250 C1252 1.391 . S
C1251 C1250 1.386 . S
C1251 C1255 1.393 . S
C1252 H1241 0.950 . S
C1252 C1250 1.391 . S
C1252 C1253 1.400 . S
C1253 C1247 1.491 . S
C1253 C1252 1.400 . S
C1253 C1254 1.398 . S
C1254 H1242 0.950 . S
C1254 C1253 1.398 . S
C1254 C1255 1.391 . S
C1255 H1243 0.950 . S
C1255 C1251 1.393 . S
C1255 C1254 1.391 . S
H1256 C1264 0.950 . S
H1257 C1269 0.950 . S
H1258 C1266 0.950 . S
H1259 C1268 0.950 . S
H1260 C1270 0.950 . S
H1261 C1272 0.950 . S
H1262 C1274 0.950 . S
H1263 C1275 0.966 . S
C1264 H1256 0.950 . S
C1264 C1265 1.386 . S
C1264 C1266 1.391 . S
C1265 C1264 1.386 . S
C1265 C1269 1.393 . S
C1266 H1258 0.950 . S
C1266 C1264 1.391 . S
C1266 C1267 1.400 . S
C1267 C1266 1.400 . S
C1267 C1268 1.398 . S
C1267 C1273 1.491 . S
C1268 H1259 0.950 . S
C1268 C1267 1.398 . S
C1268 C1269 1.391 . S
C1269 H1257 0.950 . S
C1269 C1265 1.393 . S
C1269 C1268 1.391 . S
C1270 H1260 0.950 . S
C1270 C1271 1.386 . S
C1270 C1272 1.391 . S
C1271 C1270 1.386 . S
C1271 C1275 1.393 . S
C1272 H1261 0.950 . S
C1272 C1270 1.391 . S
C1272 C1273 1.400 . S
C1273 C1267 1.491 . S
C1273 C1272 1.400 . S
C1273 C1274 1.398 . S
C1274 H1262 0.950 . S
C1274 C1273 1.398 . S
C1274 C1275 1.391 . S
C1275 H1263 0.966 . S
C1275 C1271 1.393 . S
C1275 C1274 1.391 . S
H1276 C1284 0.950 . S
H1277 C1289 0.950 . S
H1278 C1286 0.950 . S
H1279 C1288 0.950 . S
H1280 C1290 0.950 . S
H1281 C1292 0.950 . S
H1282 C1294 0.950 . S
H1283 C1295 0.950 . S
C1284 H1276 0.950 . S
C1284 C1285 1.386 . S
C1284 C1286 1.391 . S
C1285 C1284 1.386 . S
C1285 C1289 1.393 . S
C1286 H1278 0.950 . S
C1286 C1284 1.391 . S
C1286 C1287 1.400 . S
C1287 C1286 1.400 . S
C1287 C1288 1.398 . S
C1287 C1293 1.491 . S
C1288 H1279 0.950 . S
C1288 C1287 1.398 . S
C1288 C1289 1.391 . S
C1289 H1277 0.950 . S
C1289 C1285 1.393 . S
C1289 C1288 1.391 . S
C1290 H1280 0.950 . S
C1290 C1291 1.386 . S
C1290 C1292 1.391 . S
C1291 C1290 1.386 . S
C1291 C1295 1.393 . S
C1292 H1281 0.950 . S
C1292 C1290 1.391 . S
C1292 C1293 1.400 . S
C1293 C1287 1.491 . S
C1293 C1292 1.400 . S
C1293 C1294 1.398 . S
C1294 H1282 0.950 . S
C1294 C1293 1.398 . S
C1294 C1295 1.391 . S
C1295 H1283 0.950 . S
C1295 C1291 1.393 . S
C1295 C1294 1.391 . S
H1296 C1304 0.950 . S
H1297 C1309 0.950 . S
H1298 C1306 0.950 . S
H1299 C1308 0.950 . S
H1300 C1310 0.950 . S
H1301 C1312 0.950 . S
H1302 C1314 0.950 . S
H1303 C1315 0.950 . S
C1304 H1296 0.950 . S
C1304 C1305 1.386 . S
C1304 C1306 1.391 . S
C1305 C1304 1.386 . S
C1305 C1309 1.393 . S
C1306 H1298 0.950 . S
C1306 C1304 1.391 . S
C1306 C1307 1.400 . S
C1307 C1306 1.400 . S
C1307 C1308 1.398 . S
C1307 C1313 1.491 . S
C1308 H1299 0.950 . S
C1308 C1307 1.398 . S
C1308 C1309 1.391 . S
C1309 H1297 0.950 . S
C1309 C1305 1.393 . S
C1309 C1308 1.391 . S
C1310 H1300 0.950 . S
C1310 C1311 1.386 . S
C1310 C1312 1.391 . S
C1311 C1310 1.386 . S
C1311 C1315 1.393 . S
C1312 H1301 0.950 . S
C1312 C1310 1.391 . S
C1312 C1313 1.400 . S
C1313 C1307 1.491 . S
C1313 C1312 1.400 . S
C1313 C1314 1.398 . S
C1314 H1302 0.950 . S
C1314 C1313 1.398 . S
C1314 C1315 1.391 . S
C1315 H1303 0.950 . S
C1315 C1311 1.393 . S
C1315 C1314 1.391 . S
H1316 C1324 0.950 . S
H1317 C1329 0.950 . S
H1318 C1326 0.950 . S
H1319 C1328 0.950 . S
H1320 C1330 0.950 . S
H1321 C1332 0.950 . S
H1322 C1334 0.950 . S
H1323 C1335 0.950 1_565 S
C1324 H1316 0.950 . S
C1324 C1325 1.386 . S
C1324 C1326 1.391 . S
C1325 C1324 1.386 . S
C1325 C1329 1.393 . S
C1326 H1318 0.950 . S
C1326 C1324 1.391 . S
C1326 C1327 1.400 . S
C1327 C1326 1.400 . S
C1327 C1328 1.398 . S
C1327 C1333 1.491 . S
C1328 H1319 0.950 . S
C1328 C1327 1.398 . S
C1328 C1329 1.391 . S
C1329 H1317 0.950 . S
C1329 C1325 1.393 . S
C1329 C1328 1.391 . S
C1330 H1320 0.950 . S
C1330 C1331 1.386 . S
C1330 C1332 1.391 . S
C1331 C1330 1.386 . S
C1331 C1335 1.393 . S
C1332 H1321 0.950 . S
C1332 C1330 1.391 . S
C1332 C1333 1.400 . S
C1333 C1327 1.491 . S
C1333 C1332 1.400 . S
C1333 C1334 1.398 . S
C1334 H1322 0.950 . S
C1334 C1333 1.398 . S
C1334 C1335 1.391 . S
C1335 H1323 0.950 1_545 S
C1335 C1331 1.393 . S
C1335 C1334 1.391 . S
C391 C216 1.434 1_556 S
C385 N66 1.425 . S
C411 C231 1.728 . S
C405 N79 1.732 . S
C425 N92 1.885 . S
C431 C244 1.895 . S
C451 C258 1.364 . S
C445 N54 1.430 . S
C471 C270 1.687 . S
C465 N131 1.759 . S
C491 C284 1.000 . S
C485 N158 1.033 . S
C505 N145 1.745 . S
C511 C298 1.712 . S
C531 C313 1.642 . S
C525 N118 1.636 . S
C545 N148 1.956 . S
C551 C329 1.911 . S
C571 C342 1.495 . S
C565 N122 1.479 . S
C585 N132 1.479 . S
C591 C327 1.397 . S
C611 C340 1.508 . S
C605 N161 1.471 . S
C625 N96 2.170 . S
C631 C356 2.191 . S
C645 N53 1.684 . S
C651 C355 1.647 . S
C665 N67 1.304 . S
C671 C354 1.237 . S
C685 N83 1.306 . S
C691 C357 1.328 . S
C705 N44 1.618 . S
C711 C259 1.644 1_565 S
C725 N187 1.445 . S
C731 C257 1.454 . S
C751 C217 1.239 . S
C745 N197 1.240 . S
C771 C228 1.490 . S
C765 N106 1.513 . S
C785 N57 1.875 . S
C791 C273 1.904 . S
C811 C314 1.831 . S
C805 N144 1.821 . S
C831 C271 1.415 . S
C825 N119 1.393 . S
C851 C299 1.659 . S
C845 N157 1.681 . S
C871 C300 1.437 . S
C865 N183 1.428 . S
C885 N196 1.749 . S
C891 C315 1.727 . S
C905 N105 1.868 . S
C911 C272 1.905 . S
C931 C286 1.379 . S
C925 N171 1.432 . S
C945 N40 1.764 . S
C951 C242 1.685 . S
C971 C256 1.009 . S
C965 N2 1.034 . S
C991 C214 1.696 . S
C985 N15 1.742 . S
C1011 C229 1.642 . S
C1005 N27 1.637 . S
C1025 N18 1.954 . S
C1031 C343 1.916 . S
C1045 N31 1.479 . S
C1051 C328 1.494 . S
C1065 N41 1.486 . S
C1071 C341 1.420 . S
C1085 N5 1.463 . S
C1091 C326 1.519 . S
C1111 C370 2.194 . S
C1105 N109 2.174 . S
C1131 C369 1.666 . S
C1125 N170 1.671 . S
C1151 C368 1.268 . S
C1145 N184 1.315 . S
C1165 N200 1.277 . S
C1171 C371 1.313 . S
C1185 N135 1.616 . S
C1191 C287 1.645 . S
C1211 C285 1.458 . S
C1205 N70 1.456 . S
C1231 C301 1.258 . S
C1225 N80 1.253 . S
C1251 C312 1.498 . S
C1245 N93 1.508 . S
C1265 N174 1.884 . S
C1271 C245 1.908 . S
C1291 C230 1.825 . S
C1285 N14 1.819 . S
C1305 N28 1.383 . S
C1311 C243 1.402 . S
C1331 C215 1.671 1_545 S
C1325 N1 1.675 . S
