# Generated by pormake.
# Topology tsx, (6,3)-cn, num edge types: 1
# Building blocks:
#     Node 0, Type 0, BuildingBlock: JUFBIX_clean_sbu_0, # of connection points: 6
#     Node 1, Type 0, BuildingBlock: JUFBIX_clean_sbu_0, # of connection points: 6
#     Node 2, Type 1, BuildingBlock: PAMTOO_clean_linker_0, # of connection points: 3
#     Node 3, Type 1, BuildingBlock: PAMTOO_clean_linker_0, # of connection points: 3
#     Node 4, Type 1, BuildingBlock: PAMTOO_clean_linker_0, # of connection points: 3
#     Node 5, Type 1, BuildingBlock: PAMTOO_clean_linker_0, # of connection points: 3
#     Edge 6, Type (0, 1), BuildingBlock: ZUJKAS_clean_linker_0, # of connection points: 2
#     Edge 7, Type (0, 1), BuildingBlock: ZUJKAS_clean_linker_0, # of connection points: 2
#     Edge 8, Type (0, 1), BuildingBlock: ZUJKAS_clean_linker_0, # of connection points: 2
#     Edge 9, Type (0, 1), BuildingBlock: ZUJKAS_clean_linker_0, # of connection points: 2
#     Edge 10, Type (0, 1), BuildingBlock: ZUJKAS_clean_linker_0, # of connection points: 2
#     Edge 11, Type (0, 1), BuildingBlock: ZUJKAS_clean_linker_0, # of connection points: 2
#     Edge 12, Type (0, 1), BuildingBlock: ZUJKAS_clean_linker_0, # of connection points: 2
#     Edge 13, Type (0, 1), BuildingBlock: ZUJKAS_clean_linker_0, # of connection points: 2
#     Edge 14, Type (0, 1), BuildingBlock: ZUJKAS_clean_linker_0, # of connection points: 2
#     Edge 15, Type (0, 1), BuildingBlock: ZUJKAS_clean_linker_0, # of connection points: 2
#     Edge 16, Type (0, 1), BuildingBlock: ZUJKAS_clean_linker_0, # of connection points: 2
#     Edge 17, Type (0, 1), BuildingBlock: ZUJKAS_clean_linker_0, # of connection points: 2
# Relax obj value: 0.109
# Max RMSD: 0.123
# Mean RMSD: 0.120
data_MOF--net-tsx--node1-JUFBIX_clean_sbu_0--node2-PAMTOO_clean_linker_0--edge1-ZUJKAS_clean_linker_0
_symmetry_space_group_name_H-M    P1
_symmetry_Int_Tables_number       1
_symmetry_cell_setting            triclinic
loop_
_symmetry_equiv_pos_as_xyz
'x, y, z'
_cell_length_a     25.944894
_cell_length_b     30.477561
_cell_length_c     42.64485
_cell_angle_alpha  84.476793
_cell_angle_beta   90.153938
_cell_angle_gamma 97.090982
loop_
_atom_site_label
_atom_site_type_symbol
_atom_site_fract_x
_atom_site_fract_y
_atom_site_fract_z
_atom_type_partial_charge
Co0 Co 0.06097 0.00833 -0.00142 0.0
C1 C 0.0143 0.04593 0.94451 0.0
Co2 Co 0.99483 0.04565 0.00722 0.0
C3 C 0.1292 0.93842 -0.00513 0.0
C4 C 0.15771 1.00063 0.96945 0.0
N5 N 0.11819 0.98064 0.9882 0.0
N6 N 0.17392 0.93145 0.98079 0.0
C7 C 0.19185 0.97081 0.965 0.0
H8 H 0.10414 0.91303 0.00897 0.0
H9 H 0.1611 0.03469 0.95911 0.0
C10 C 0.04129 0.00842 0.06137 0.0
N11 N 0.93788 0.07346 0.01754 0.0
C12 C 0.92395 0.11373 0.00723 0.0
C13 C 0.90145 0.05608 0.03925 0.0
N14 N 0.8805 0.12212 0.02196 0.0
C15 C 0.86636 0.08572 0.04203 0.0
C16 C 0.96747 0.95478 0.00085 0.0
O17 O 0.07104 0.99344 0.04238 0.0
O18 O 1.00657 0.03151 0.05048 0.0
O19 O 0.95061 0.9909 0.00607 0.0
O20 O 0.01589 0.95453 -0.00354 0.0
O21 O 0.98384 0.05945 0.96374 0.0
H22 H 0.90068 0.02388 0.05248 0.0
H23 H 0.94586 0.13674 0.98979 0.0
O24 O 0.05015 0.02374 0.95505 0.0
O25 O 0.10516 0.06267 0.00088 0.0
O26 O 0.03988 0.09993 0.00838 0.0
C27 C 0.0885 0.09917 0.00517 0.0
H28 H 0.22725 0.97777 0.9511 0.0
H29 H 0.83266 0.0806 0.05746 0.0
Co30 Co 0.54855 0.49624 0.49373 0.0
C31 C 0.49855 0.53166 0.43983 0.0
Co32 Co 0.4832 0.53441 0.50236 0.0
C33 C 0.62038 0.42801 0.49124 0.0
C34 C 0.6395 0.48684 0.45976 0.0
N35 N 0.60496 0.46825 0.48227 0.0
N36 N 0.6628 0.42097 0.4748 0.0
C37 C 0.67478 0.45811 0.45515 0.0
H38 H 0.60017 0.40401 0.50878 0.0
H39 H 0.63868 0.51922 0.44706 0.0
C40 C 0.53271 0.4991 0.55629 0.0
N41 N 0.42759 0.56332 0.51322 0.0
C42 C 0.41628 0.60452 0.50324 0.0
C43 C 0.3909 0.54738 0.53513 0.0
N44 N 0.37426 0.61497 0.51832 0.0
C45 C 0.35822 0.57893 0.53832 0.0
C46 C 0.45435 0.44325 0.49857 0.0
O47 O 0.56221 0.48401 0.53723 0.0
O48 O 0.49675 0.52099 0.54558 0.0
O49 O 0.43848 0.48028 0.50232 0.0
O50 O 0.50272 0.44185 0.49438 0.0
O51 O 0.47023 0.54749 0.45907 0.0
H52 H 0.38859 0.51506 0.54835 0.0
H53 H 0.43936 0.62685 0.48593 0.0
O54 O 0.53392 0.50898 0.45035 0.0
O55 O 0.5934 0.5511 0.4935 0.0
O56 O 0.52853 0.58808 0.50236 0.0
C57 C 0.57684 0.58758 0.498 0.0
H58 H 0.70701 0.4642 0.43859 0.0
H59 H 0.32511 0.5755 0.55414 0.0
H60 H 0.14272 0.97487 0.40289 0.0
H61 H 0.03635 0.07311 0.39377 0.0
H62 H 0.08685 0.02517 0.48545 0.0
H63 H 0.97337 0.04251 0.48143 0.0
C64 C 0.97713 0.06712 0.46046 0.0
O65 O 0.0292 0.08019 0.45395 0.0
H66 H 0.95832 0.0503 0.44055 0.0
C67 C 0.1195 0.99691 0.41345 0.0
C68 C 0.11892 0.9972 0.44627 0.0
C69 C 0.0893 0.02344 0.3942 0.0
C70 C 0.06016 0.05243 0.40814 0.0
C71 C 0.05921 0.05321 0.44097 0.0
C72 C 0.08816 0.02516 0.4601 0.0
H73 H 0.05939 0.1155 0.60725 0.0
H74 H 0.94746 0.99879 0.60778 0.0
H75 H 0.03197 0.04957 0.52299 0.0
H76 H 0.91013 0.01561 0.51674 0.0
C77 C 0.90909 0.99187 0.53816 0.0
O78 O 0.95917 0.98854 0.54845 0.0
H79 H 0.886 1.00467 0.55647 0.0
C80 C 0.03843 0.08941 0.59494 0.0
C81 C 0.04982 0.08676 0.56305 0.0
C82 C 1.00188 0.0578 0.61143 0.0
C83 C 0.97634 0.02321 0.59562 0.0
C84 C 0.98632 0.02076 0.56363 0.0
C85 C 0.02381 0.05197 0.54753 0.0
H86 H 0.60398 0.45753 0.89494 0.0
H87 H 0.51169 0.56589 0.89054 0.0
H88 H 0.53607 0.49256 0.97947 0.0
H89 H 0.41874 0.51903 0.96218 0.0
C90 C 0.43463 0.5497 0.94746 0.0
O91 O 0.48813 0.55688 0.95025 0.0
H92 H 0.42385 0.54446 0.92268 0.0
C93 C 0.58125 0.47884 0.90661 0.0
C94 C 0.57345 0.47135 0.93932 0.0
C95 C 0.55916 0.51264 0.88869 0.0
C96 C 0.52916 0.53962 0.90396 0.0
C97 C 0.5198 0.53197 0.9365 0.0
C98 C 0.54268 0.49824 0.95431 0.0
H99 H 0.59302 0.61066 0.10731 0.0
H100 H 0.47844 0.49651 0.10443 0.0
H101 H 0.57646 0.54058 0.02398 0.0
H102 H 0.46329 0.50845 0.00706 0.0
C103 C 0.45259 0.49161 0.03064 0.0
O104 O 0.49742 0.48399 0.0466 0.0
H105 H 0.43065 0.5143 0.04289 0.0
C106 C 0.5749 0.58341 0.09498 0.0
C107 C 0.59135 0.57876 0.06418 0.0
C108 C 0.53452 0.55394 0.1099 0.0
C109 C 0.5095 0.5199 0.09341 0.0
C110 C 0.52403 0.5157 0.06242 0.0
C111 C 0.56506 0.54481 0.04781 0.0
H112 H 0.06805 0.18271 0.01621 0.0
H113 H 0.13097 0.2489 0.02007 0.0
H114 H 0.25613 0.17382 0.00164 0.0
H115 H 0.19391 0.10759 -0.00186 0.0
H116 H 0.27541 0.22369 0.05217 0.0
H117 H 0.21143 0.32662 0.9482 0.0
H118 H 0.16065 0.30553 0.9762 0.0
H119 H 0.19153 0.26758 0.95501 0.0
C120 C 0.10895 0.18035 0.01283 0.0
C121 C 0.12588 0.13984 0.0068 0.0
C122 C 0.14484 0.21827 0.01488 0.0
C123 C 0.19822 0.21644 0.01075 0.0
C124 C 0.21515 0.17604 0.00481 0.0
H125 H 0.44265 0.44011 0.98096 0.0
H126 H 0.38284 0.37198 0.97652 0.0
C127 C 0.17942 0.1382 0.00278 0.0
C128 C 0.2368 0.25617 0.0134 0.0
H129 H 0.27401 0.36232 0.98112 0.0
C130 C 0.27516 0.25399 0.03661 0.0
C131 C 0.23689 0.29544 0.99279 0.0
C132 C 0.19826 0.299 0.96644 0.0
C133 C 0.31312 0.29023 0.04008 0.0
C134 C 0.31224 0.32996 0.02009 0.0
C135 C 0.27439 0.33193 -0.00344 0.0
C136 C 0.35001 0.37001 0.02332 0.0
C137 C 0.35431 0.28545 0.06479 0.0
C138 C 0.35153 0.39135 0.05112 0.0
C139 C 0.38556 0.43015 0.05365 0.0
C140 C 0.41817 0.44857 0.02828 0.0
C141 C 0.41747 0.42675 0.00071 0.0
C142 C 0.38336 0.38795 -0.00184 0.0
H143 H 0.35791 0.25 0.07222 0.0
H144 H 0.39271 0.30219 0.056 0.0
H145 H 0.34371 0.30118 0.08588 0.0
H146 H 0.32568 0.37848 0.07066 0.0
H147 H 0.38574 0.44635 0.07518 0.0
H148 H 0.16456 0.86105 0.02596 0.0
H149 H 0.20894 0.79412 0.02687 0.0
H150 H 0.28081 0.84277 0.93717 0.0
H151 H 0.23654 0.90874 0.93582 0.0
H152 H 0.20738 0.72921 0.98164 0.0
H153 H 0.40483 0.81799 0.99412 0.0
H154 H 0.34669 0.84217 0.00217 0.0
H155 H 0.36894 0.84211 0.96226 0.0
C156 C 0.18953 0.85731 0.00636 0.0
C157 C 0.19756 0.8908 0.98109 0.0
C158 C 0.21505 0.81915 0.00698 0.0
C159 C 0.24918 0.81396 0.98243 0.0
C160 C 0.25584 0.8466 0.95679 0.0
H161 H 0.43841 0.63152 0.91472 0.0
H162 H 0.39359 0.6944 0.92666 0.0
C163 C 0.23045 0.88447 0.95612 0.0
C164 C 0.2777 0.77444 0.98294 0.0
H165 H 0.39998 0.74465 0.97797 0.0
C166 C 0.24947 0.73237 0.98134 0.0
C167 C 0.33266 0.77865 0.98253 0.0
C168 C 0.36513 0.82259 0.98567 0.0
C169 C 0.27472 0.6948 0.97774 0.0
C170 C 0.32972 0.69933 0.97627 0.0
C171 C 0.35788 0.74117 0.97895 0.0
C172 C 0.3587 0.66171 0.97018 0.0
C173 C 0.24224 0.65102 0.97405 0.0
C174 C 0.35518 0.62283 0.99106 0.0
C175 C 0.38074 0.58692 0.98421 0.0
C176 C 0.41041 0.58935 0.95641 0.0
C177 C 0.41552 0.62883 0.93619 0.0
C178 C 0.38994 0.66467 0.94301 0.0
H179 H 0.2011 0.65525 0.96871 0.0
H180 H 0.25806 0.63407 0.95496 0.0
H181 H 0.24292 0.62908 -0.00367 0.0
H182 H 0.33234 0.62012 0.01253 0.0
H183 H 0.3765 0.55695 0.00031 0.0
H184 H 0.98213 0.87864 0.97453 0.0
H185 H 0.92082 0.81074 0.97399 0.0
H186 H 0.81057 0.86916 0.02747 0.0
H187 H 0.87035 0.93754 0.02664 0.0
H188 H 0.88325 0.75293 0.01789 0.0
H189 H 0.71582 0.82294 0.96253 0.0
H190 H 0.77903 0.85493 0.96332 0.0
H191 H 0.73467 0.85157 -0.00374 0.0
C192 C 0.94453 0.87708 0.98585 0.0
C193 C 0.93086 0.91355 0.00038 0.0
C194 C 0.90949 0.83827 0.98552 0.0
C195 C 0.86034 0.83503 -1e-05 0.0
C196 C 0.84724 0.87124 0.01504 0.0
H197 H 0.68027 0.61148 0.09283 0.0
H198 H 0.74698 0.66968 0.07198 0.0
C199 C 0.88176 0.91026 0.01484 0.0
C200 C 0.82397 0.79302 0.0013 0.0
H201 H 0.69559 0.7535 -0.00419 0.0
C202 C 0.84239 0.753 0.01248 0.0
C203 C 0.77083 0.79236 0.99332 0.0
C204 C 0.74919 0.83273 0.97783 0.0
C205 C 0.80867 0.71324 0.01793 0.0
C206 C 0.75463 0.71377 0.01333 0.0
C207 C 0.73676 0.75304 4e-05 0.0
C208 C 0.7157 0.67555 0.02483 0.0
C209 C 0.83153 0.67123 0.02876 0.0
C210 C 0.67468 0.65979 0.00561 0.0
C211 C 0.63505 0.62721 0.0179 0.0
C212 C 0.63567 0.60986 0.04969 0.0
C213 C 0.67786 0.6246 0.06842 0.0
C214 C 0.71682 0.65742 0.0563 0.0
H215 H 0.87111 0.67196 0.01868 0.0
H216 H 0.83524 0.66856 0.05478 0.0
H217 H 0.80701 0.64122 0.02193 0.0
H218 H 0.67266 0.67343 0.98129 0.0
H219 H 0.60303 0.61691 0.00284 0.0
H220 H 0.87581 0.17798 0.96861 0.0
H221 H 0.82463 0.24058 0.96075 0.0
H222 H 0.77365 0.21738 0.05775 0.0
H223 H 0.82431 0.15495 0.06565 0.0
H224 H 0.69303 0.22546 0.01863 0.0
H225 H 0.84806 0.36506 0.9885 0.0
H226 H 0.84948 0.3205 0.96402 0.0
H227 H 0.86171 0.3112 0.00554 0.0
C228 C 0.85441 0.18673 0.98837 0.0
C229 C 0.85393 0.16124 0.01769 0.0
C230 C 0.82522 0.2226 0.98389 0.0
C231 C 0.79558 0.23405 0.00875 0.0
C232 C 0.79607 0.20923 0.03819 0.0
H233 H 0.6373 0.47513 0.99063 0.0
H234 H 0.68927 0.41721 0.01253 0.0
C235 C 0.82492 0.17336 0.04262 0.0
C236 C 0.76148 0.26998 0.00374 0.0
H237 H 0.76084 0.37956 0.97774 0.0
C238 C 0.70801 0.25925 0.00997 0.0
C239 C 0.78095 0.31431 0.99298 0.0
C240 C 0.83826 0.32866 0.98767 0.0
C241 C 0.67335 0.2911 0.00462 0.0
C242 C 0.69244 0.33478 0.9922 0.0
C243 C 0.74613 0.34601 0.9871 0.0
C244 C 0.65706 0.36821 0.98197 0.0
C245 C 0.61651 0.27757 0.01222 0.0
C246 C 0.62111 0.35965 0.95801 0.0
C247 C 0.59157 0.39242 0.94566 0.0
C248 C 0.59747 0.43465 0.95683 0.0
C249 C 0.63169 0.44273 0.98181 0.0
C250 C 0.66161 0.40983 0.99412 0.0
H251 H 0.61075 0.24874 0.03043 0.0
H252 H 0.59829 0.30543 0.02067 0.0
H253 H 0.59609 0.26762 0.99063 0.0
H254 H 0.61744 0.32817 0.94788 0.0
H255 H 0.56547 0.38533 0.92641 0.0
H256 H 0.68307 0.59607 0.49603 0.0
H257 H 0.74366 0.66282 0.50211 0.0
H258 H 0.61486 0.73845 0.5089 0.0
H259 H 0.55396 0.67175 0.50352 0.0
H260 H 0.7601 0.74365 0.46734 0.0
H261 H 0.6953 0.7637 0.5883 0.0
H262 H 0.67653 0.71386 0.56927 0.0
H263 H 0.64334 0.76198 0.56041 0.0
C264 C 0.66759 0.62693 0.49876 0.0
C265 C 0.61364 0.6285 0.49959 0.0
C266 C 0.70231 0.66504 0.50222 0.0
C267 C 0.68377 0.7054 0.50659 0.0
C268 C 0.63 0.70741 0.50635 0.0
H269 H 0.85036 0.97072 0.48704 0.0
H270 H 0.7992 0.89975 0.47893 0.0
C271 C 0.59525 0.66929 0.50307 0.0
C272 C 0.72065 0.74537 0.51149 0.0
H273 H 0.7511 0.82421 0.56248 0.0
C274 C 0.75836 0.76116 0.48821 0.0
C275 C 0.719 0.76768 0.53902 0.0
C276 C 0.68173 0.75073 0.56583 0.0
C277 C 0.79356 0.79938 0.49132 0.0
C278 C 0.79021 0.8229 0.51815 0.0
C279 C 0.75337 0.80642 0.54178 0.0
C280 C 0.82381 0.86511 0.52205 0.0
C281 C 0.83436 0.8138 0.46604 0.0
C282 C 0.85383 0.86958 0.54929 0.0
C283 C 0.88261 0.91026 0.5541 0.0
C284 C 0.88221 0.94706 0.53162 0.0
C285 C 0.85226 0.94255 0.50436 0.0
C286 C 0.82325 0.90197 0.49965 0.0
H287 H 0.84207 0.78564 0.45275 0.0
H288 H 0.82043 0.83955 0.44904 0.0
H289 H 0.87142 0.82813 0.47619 0.0
H290 H 0.8544 0.84174 0.56706 0.0
H291 H 0.9045 0.91322 0.57562 0.0
H292 H 0.67906 0.36498 0.52663 0.0
H293 H 0.73446 0.30456 0.52944 0.0
H294 H 0.76313 0.32929 0.42938 0.0
H295 H 0.70861 0.38916 0.42655 0.0
H296 H 0.73145 0.22645 0.49855 0.0
H297 H 0.90967 0.34053 0.46494 0.0
H298 H 0.8506 0.36004 0.47708 0.0
H299 H 0.85815 0.34649 0.43731 0.0
C300 C 0.69682 0.35709 0.50527 0.0
C301 C 0.69022 0.38234 0.47647 0.0
C302 C 0.72862 0.32278 0.50689 0.0
C303 C 0.7542 0.31325 0.47975 0.0
C304 C 0.74526 0.33692 0.45081 0.0
H305 H 0.9469 0.12928 0.41597 0.0
H306 H 0.89457 0.18948 0.42338 0.0
C307 C 0.71393 0.37111 0.44921 0.0
C308 C 0.79054 0.27892 0.48119 0.0
H309 H 0.91403 0.26322 0.46107 0.0
C310 C 0.77157 0.23452 0.49081 0.0
C311 C 0.84303 0.28947 0.47117 0.0
C312 C 0.86677 0.33679 0.46235 0.0
C313 C 0.80295 0.20021 0.48925 0.0
C314 C 0.85481 0.21068 0.4781 0.0
C315 C 0.87419 0.25519 0.46939 0.0
C316 C 0.88889 0.17574 0.47408 0.0
C317 C 0.77979 0.15283 0.49834 0.0
C318 C 0.90446 0.14895 0.50017 0.0
C319 C 0.93451 0.11479 0.49595 0.0
C320 C 0.94932 0.10664 0.46555 0.0
C321 C 0.93559 0.13467 0.4396 0.0
C322 C 0.9057 0.16894 0.44383 0.0
H323 H 0.73681 0.14956 0.50061 0.0
H324 H 0.79017 0.13084 0.48066 0.0
H325 H 0.79571 0.14099 0.52136 0.0
H326 H 0.89294 0.15421 0.52378 0.0
H327 H 0.94508 0.09416 0.51641 0.0
H328 H 0.34995 0.43704 0.50841 0.0
H329 H 0.28697 0.37044 0.51311 0.0
H330 H 0.40799 0.29036 0.49636 0.0
H331 H 0.47213 0.35733 0.49161 0.0
H332 H 0.29701 0.27674 0.4613 0.0
H333 H 0.29708 0.27009 0.59211 0.0
H334 H 0.29532 0.32392 0.57096 0.0
H335 H 0.35188 0.29602 0.56813 0.0
C336 C 0.36344 0.40542 0.50549 0.0
C337 C 0.41628 0.40255 0.49981 0.0
C338 C 0.32724 0.36738 0.50813 0.0
C339 C 0.3429 0.32562 0.50512 0.0
C340 C 0.39526 0.32244 0.49866 0.0
H341 H 0.13376 0.07281 0.52798 0.0
H342 H 0.20731 0.12816 0.50989 0.0
C343 C 0.43178 0.36066 0.49607 0.0
C344 C 0.30439 0.28552 0.51064 0.0
H345 H 0.22902 0.22544 0.56896 0.0
C346 C 0.28256 0.26488 0.48482 0.0
C347 C 0.28576 0.2704 0.54135 0.0
C348 C 0.30881 0.29092 0.56986 0.0
C349 C 0.24066 0.23066 0.4889 0.0
C350 C 0.22075 0.21675 0.51959 0.0
C351 C 0.24412 0.23635 0.54542 0.0
C352 C 0.1738 0.18391 0.52573 0.0
C353 C 0.21647 0.21104 0.46039 0.0
C354 C 0.13023 0.19698 0.54 0.0
C355 C 0.08859 0.16559 0.55039 0.0
C356 C 0.08964 0.12036 0.54681 0.0
C357 C 0.13183 0.10751 0.53082 0.0
C358 C 0.17383 0.13908 0.5205 0.0
H359 H 0.23048 0.23067 0.43807 0.0
H360 H 0.22647 0.17675 0.45986 0.0
H361 H 0.17348 0.20911 0.46159 0.0
H362 H 0.1293 0.2314 0.54414 0.0
H363 H 0.05628 0.17646 0.56231 0.0
H364 H 0.32371 0.65127 0.56295 0.0
H365 H 0.28141 0.71895 0.55626 0.0
H366 H 0.33127 0.74037 0.45908 0.0
H367 H 0.37338 0.67227 0.46551 0.0
H368 H 0.32677 0.81025 0.53385 0.0
H369 H 0.16866 0.73915 0.45846 0.0
H370 H 0.20767 0.70488 0.4831 0.0
H371 H 0.23376 0.7332 0.44665 0.0
C372 C 0.3255 0.67021 0.54009 0.0
C373 C 0.35153 0.65609 0.51465 0.0
C374 C 0.30161 0.70906 0.53639 0.0
C375 C 0.30276 0.7344 0.50712 0.0
C376 C 0.32954 0.72101 0.48181 0.0
H377 H 0.2226 0.99249 0.44395 0.0
H378 H 0.26756 0.92972 0.46426 0.0
C379 C 0.35386 0.68228 0.48556 0.0
C380 C 0.27505 0.77435 0.50298 0.0
H381 H 0.17279 0.81572 0.46499 0.0
C382 C 0.29301 0.81147 0.51889 0.0
C383 C 0.23057 0.77556 0.48385 0.0
C384 C 0.20857 0.73602 0.46717 0.0
C385 C 0.26845 0.8503 0.51537 0.0
C386 C 0.22491 0.85194 0.49548 0.0
C387 C 0.20616 0.81437 0.48028 0.0
C388 C 0.20003 0.89307 0.48837 0.0
C389 C 0.28918 0.88931 0.5329 0.0
C390 C 0.14742 0.89383 0.49584 0.0
C391 C 0.12182 0.93001 0.48454 0.0
C392 C 0.14832 0.96552 0.4652 0.0
C393 C 0.20157 0.9657 0.45915 0.0
C394 C 0.22723 0.92987 0.47071 0.0
H395 H 0.31437 0.87935 0.55278 0.0
H396 H 0.31265 0.91445 0.51649 0.0
H397 H 0.25687 0.90521 0.5422 0.0
H398 H 0.12566 0.86559 0.50924 0.0
H399 H 0.08057 0.92878 0.48906 0.0
H400 H 0.11872 0.97096 0.09447 0.0
H401 H 0.13028 0.96451 0.1519 0.0
H402 H 0.99004 0.02433 0.16303 0.0
H403 H 0.97781 0.03032 0.10635 0.0
H404 H 0.14183 0.03443 0.19025 0.0
H405 H 0.96918 0.9154 0.22699 0.0
H406 H 0.99368 0.92334 0.18699 0.0
H407 H 0.95289 0.96125 0.20085 0.0
C408 C 0.09003 0.98212 0.10926 0.0
C409 C 0.04737 1.00111 0.09587 0.0
C410 C 0.09673 0.97851 0.14197 0.0
C411 C 0.06059 0.99338 0.16168 0.0
C412 C 0.01777 0.01178 0.14833 0.0
H413 H 0.08962 0.08906 0.34525 0.0
H414 H 0.08523 0.07992 0.28878 0.0
C415 C 0.01109 0.01544 0.11583 0.0
C416 C 0.06866 0.99253 0.19606 0.0
H417 H 1.00746 0.9598 0.26664 0.0
C418 C 0.11288 0.0176 0.20704 0.0
C419 C 0.03107 0.9702 0.21788 0.0
C420 C 0.98431 0.94066 0.20761 0.0
C421 C 0.11942 0.02247 0.23926 0.0
C422 C 0.08019 1.00241 0.26086 0.0
C423 C 0.03708 0.97579 0.24998 0.0
C424 C 0.08306 0.00834 0.2949 0.0
C425 C 0.16826 0.04898 0.24984 0.0
C426 C 0.08152 0.97109 0.317 0.0
C427 C 0.08315 0.97615 0.34915 0.0
C428 C 0.08646 0.01864 0.3599 0.0
C429 C 0.08711 0.05594 0.33771 0.0
C430 C 0.08528 0.0508 0.30546 0.0
H431 H 0.20018 0.05111 0.23222 0.0
H432 H 0.16025 0.08329 0.25275 0.0
H433 H 0.18163 0.03414 0.27277 0.0
H434 H 0.07915 0.938 0.30937 0.0
H435 H 0.08132 0.94663 0.36562 0.0
H436 H 0.07751 0.02685 0.89814 0.0
H437 H 0.06567 0.03838 0.84137 0.0
H438 H 0.9251 0.09618 0.8559 0.0
H439 H 0.93642 0.08452 0.91313 0.0
H440 H 0.91588 0.02949 0.81304 0.0
H441 H 0.08528 0.1563 0.78424 0.0
H442 H 0.10169 0.10856 0.80841 0.0
H443 H 0.05875 0.14362 0.82365 0.0
C444 C 0.04421 0.04231 0.88936 0.0
C445 C 1.00791 0.05483 0.91015 0.0
C446 C 0.03771 0.04911 0.85689 0.0
C447 C 0.99495 0.06868 0.84452 0.0
C448 C 0.95856 0.0813 0.86509 0.0
H449 H 0.98847 0.132 0.64022 0.0
H450 H 0.97853 0.13787 0.69666 0.0
C451 C 0.96514 0.07468 0.89771 0.0
C452 C 0.98751 0.07378 0.81007 0.0
H453 H 0.04934 0.117 0.74151 0.0
C454 C 0.94455 0.04918 0.79733 0.0
C455 C 0.02458 0.09998 0.78973 0.0
C456 C 0.06991 0.12898 0.80218 0.0
C457 C 0.93925 0.04815 0.76465 0.0
C458 C 0.97832 0.07186 0.74439 0.0
C459 C 0.0197 0.09843 0.75711 0.0
C460 C 0.97894 0.06764 0.71013 0.0
C461 C 0.89229 0.02126 0.75213 0.0
C462 C 0.98229 0.02618 0.69905 0.0
C463 C 0.98818 0.02274 0.66688 0.0
C464 C 0.99133 0.06082 0.64526 0.0
C465 C 0.98681 0.10217 0.65638 0.0
C466 C 0.98084 0.10556 0.68855 0.0
H467 H 0.8592 0.01698 0.76909 0.0
H468 H 0.87977 0.03713 0.72931 0.0
H469 H 0.90214 0.98774 0.74835 0.0
H470 H 0.98222 0.99667 0.71539 0.0
H471 H 0.99227 0.99056 0.65906 0.0
H472 H 0.61914 0.47661 0.58833 0.0
H473 H 0.63305 0.47445 0.64554 0.0
H474 H 0.47807 0.50741 0.65839 0.0
H475 H 0.4639 0.50975 0.60182 0.0
H476 H 0.6214 0.55017 0.68291 0.0
H477 H 0.49065 0.39707 0.72285 0.0
H478 H 0.51667 0.40816 0.68322 0.0
H479 H 0.46223 0.43444 0.69462 0.0
C480 C 0.58787 0.48272 0.60347 0.0
C481 C 0.54047 0.49336 0.59065 0.0
C482 C 0.59593 0.48165 0.63602 0.0
C483 C 0.55638 0.49042 0.65604 0.0
C484 C 0.50878 0.50001 0.64331 0.0
H485 H 0.4832 0.52483 0.8455 0.0
H486 H 0.48852 0.52179 0.78857 0.0
C487 C 0.50088 0.5015 0.61096 0.0
C488 C 0.56487 0.49212 0.69015 0.0
H489 H 0.51497 0.44721 0.7616 0.0
C490 C 0.59893 0.52728 0.70027 0.0
C491 C 0.53521 0.46227 0.71251 0.0
C492 C 0.49943 0.42309 0.70285 0.0
C493 C 0.6021 0.53472 0.73225 0.0
C494 C 0.57091 0.50577 0.75449 0.0
C495 C 0.53843 0.4696 0.74441 0.0
C496 C 0.56996 0.51281 0.78829 0.0
C497 C 0.63688 0.57454 0.74181 0.0
C498 C 0.6143 0.50971 0.80683 0.0
C499 C 0.61152 0.51194 0.83933 0.0
C500 C 0.56421 0.51689 0.85386 0.0
C501 C 0.52035 0.52159 0.835 0.0
C502 C 0.52321 0.51946 0.80252 0.0
H503 H 0.64931 0.59874 0.72125 0.0
H504 H 0.61691 0.59172 0.75915 0.0
H505 H 0.67221 0.56336 0.75308 0.0
H506 H 0.65057 0.504 0.79635 0.0
H507 H 0.64607 0.50859 0.85323 0.0
H508 H 0.43327 0.58445 0.4079 0.0
H509 H 0.42038 0.5943 0.35065 0.0
H510 H 0.53217 0.50392 0.3375 0.0
H511 H 0.54541 0.49395 0.39414 0.0
H512 H 0.50117 0.62411 0.30285 0.0
H513 H 0.40098 0.45601 0.28851 0.0
H514 H 0.40415 0.47969 0.32585 0.0
H515 H 0.45847 0.45528 0.31202 0.0
C516 C 0.45491 0.56659 0.39277 0.0
C517 C 0.49025 0.53833 0.40553 0.0
C518 C 0.44747 0.57223 0.36017 0.0
C519 C 0.4747 0.54921 0.34007 0.0
C520 C 0.51009 0.52128 0.35275 0.0
H521 H 0.59844 0.57268 0.15902 0.0
H522 H 0.57411 0.57793 0.21358 0.0
C523 C 0.51782 0.51587 0.38513 0.0
C524 C 0.46857 0.55533 0.30558 0.0
H525 H 0.44364 0.49593 0.24231 0.0
C526 C 0.48749 0.59645 0.28952 0.0
C527 C 0.44999 0.51935 0.28837 0.0
C528 C 0.42675 0.47519 0.30456 0.0
C529 C 0.49205 0.6015 0.25657 0.0
C530 C 0.47782 0.56433 0.23954 0.0
C531 C 0.45507 0.52425 0.25547 0.0
C532 C 0.49139 0.5648 0.20588 0.0
C533 C 0.51367 0.64611 0.24034 0.0
C534 C 0.45292 0.55488 0.18359 0.0
C535 C 0.46672 0.55192 0.15226 0.0
C536 C 0.51928 0.5584 0.14285 0.0
C537 C 0.55759 0.56841 0.16533 0.0
C538 C 0.54376 0.57151 0.19652 0.0
H539 H 0.50677 0.67349 0.25462 0.0
H540 H 0.55626 0.64712 0.23721 0.0
H541 H 0.49615 0.65202 0.21676 0.0
H542 H 0.41231 0.54917 0.1905 0.0
H543 H 0.43628 0.5446 0.13544 0.0
loop_
_geom_bond_atom_site_label_1
_geom_bond_atom_site_label_2
_geom_bond_distance
_geom_bond_site_symmetry_2
_ccdc_geom_bond_type
Co0 N5 2.067 . S
Co0 O17 2.021 . S
Co0 O20 2.074 . S
Co0 O24 2.117 1_564 S
Co0 O25 2.020 1_565 S
C1 O21 1.259 1_455 S
C1 O24 1.258 . S
Co2 N11 2.057 . S
Co2 O18 2.112 1_655 S
Co2 O19 2.020 1_545 S
Co2 O21 2.021 1_554 S
Co2 O26 2.062 1_655 S
C3 N5 1.338 . S
C3 N6 1.347 . S
C3 H8 0.931 . S
C4 N5 1.341 1_556 S
C4 C7 1.350 . S
C4 H9 0.930 . S
N5 Co0 2.067 . S
N5 C3 1.338 . S
N5 C4 1.341 1_554 S
N6 C3 1.347 . S
N6 C7 1.373 1_554 S
C7 C4 1.350 . S
C7 N6 1.373 1_556 S
C7 H28 0.931 . S
H8 C3 0.931 . S
H9 C4 0.930 . S
C10 O17 1.259 1_545 S
C10 O18 1.270 . S
N11 Co2 2.057 . S
N11 C12 1.316 1_554 S
N11 C13 1.375 . S
C12 N11 1.316 1_556 S
C12 N14 1.347 1_556 S
C12 H23 0.931 . S
C13 N11 1.375 . S
C13 C15 1.350 . S
C13 H22 0.930 . S
N14 C12 1.347 1_554 S
N14 C15 1.373 . S
C15 C13 1.350 . S
C15 N14 1.373 . S
C15 H29 0.931 . S
C16 O19 1.256 . S
C16 O20 1.237 1_655 S
O17 Co0 2.021 . S
O17 C10 1.259 1_565 S
O18 Co2 2.112 1_455 S
O18 C10 1.270 . S
O19 Co2 2.020 1_565 S
O19 C16 1.256 . S
O20 Co0 2.074 . S
O20 C16 1.237 1_455 S
O21 C1 1.259 1_655 S
O21 Co2 2.021 1_556 S
H22 C13 0.930 . S
H23 C12 0.931 . S
O24 Co0 2.117 1_546 S
O24 C1 1.258 . S
O25 Co0 2.020 1_545 S
O25 C27 1.256 . S
O26 Co2 2.062 1_455 S
O26 C27 1.255 . S
C27 O25 1.256 . S
C27 O26 1.255 . S
H28 C7 0.931 . S
H29 C15 0.931 . S
Co30 N35 2.057 . S
Co30 O47 2.021 . S
Co30 O50 2.062 . S
Co30 O54 2.117 . S
Co30 O55 2.020 . S
C31 O51 1.259 . S
C31 O54 1.258 . S
Co32 N41 2.057 . S
Co32 O48 2.117 . S
Co32 O49 2.020 . S
Co32 O51 2.021 . S
Co32 O56 2.062 . S
C33 N35 1.316 . S
C33 N36 1.347 . S
C33 H38 0.931 . S
C34 N35 1.375 . S
C34 C37 1.350 . S
C34 H39 0.930 . S
N35 Co30 2.057 . S
N35 C33 1.316 . S
N35 C34 1.375 . S
N36 C33 1.347 . S
N36 C37 1.373 . S
C37 C34 1.350 . S
C37 N36 1.373 . S
C37 H58 0.931 . S
H38 C33 0.931 . S
H39 C34 0.930 . S
C40 O47 1.259 . S
C40 O48 1.258 . S
N41 Co32 2.057 . S
N41 C42 1.316 . S
N41 C43 1.375 . S
C42 N41 1.316 . S
C42 N44 1.347 . S
C42 H53 0.931 . S
C43 N41 1.375 . S
C43 C45 1.350 . S
C43 H52 0.930 . S
N44 C42 1.347 . S
N44 C45 1.373 . S
C45 C43 1.350 . S
C45 N44 1.373 . S
C45 H59 0.931 . S
C46 O49 1.256 . S
C46 O50 1.255 . S
O47 Co30 2.021 . S
O47 C40 1.259 . S
O48 Co32 2.117 . S
O48 C40 1.258 . S
O49 Co32 2.020 . S
O49 C46 1.256 . S
O50 Co30 2.062 . S
O50 C46 1.255 . S
O51 C31 1.259 . S
O51 Co32 2.021 . S
H52 C43 0.930 . S
H53 C42 0.931 . S
O54 Co30 2.117 . S
O54 C31 1.258 . S
O55 Co30 2.020 . S
O55 C57 1.256 . S
O56 Co32 2.062 . S
O56 C57 1.255 . S
C57 O55 1.256 . S
C57 O56 1.255 . S
H58 C37 0.931 . S
H59 C45 0.931 . S
H60 C67 0.929 . S
H61 C70 0.930 . S
H62 C72 0.929 . S
H63 C64 0.969 . S
C64 H63 0.969 . S
C64 O65 1.550 . S
C64 H66 0.973 . S
O65 C64 1.550 . S
O65 C71 1.412 . S
H66 C64 0.973 . S
C67 H60 0.929 . S
C67 C68 1.400 . S
C67 C69 1.364 . S
C68 C67 1.400 . S
C68 C72 1.377 . S
C69 C67 1.364 . S
C69 C70 1.374 1_465 S
C70 H61 0.930 . S
C70 C69 1.374 1_645 S
C70 C71 1.383 . S
C71 O65 1.412 . S
C71 C70 1.383 . S
C71 C72 1.394 1_645 S
C72 H62 0.929 . S
C72 C68 1.377 . S
C72 C71 1.394 1_465 S
H73 C80 0.929 . S
H74 C83 0.930 1_565 S
H75 C85 0.929 . S
H76 C77 0.969 . S
C77 H76 0.969 . S
C77 O78 1.550 . S
C77 H79 0.973 . S
O78 C77 1.550 . S
O78 C84 1.412 1_565 S
H79 C77 0.973 . S
C80 H73 0.929 . S
C80 C81 1.400 . S
C80 C82 1.364 . S
C81 C80 1.400 . S
C81 C85 1.377 . S
C82 C80 1.364 . S
C82 C83 1.374 1_455 S
C83 H74 0.930 1_545 S
C83 C82 1.374 1_655 S
C83 C84 1.383 . S
C84 O78 1.412 1_545 S
C84 C83 1.383 . S
C84 C85 1.394 1_655 S
C85 H75 0.929 . S
C85 C81 1.377 . S
C85 C84 1.394 1_455 S
H86 C93 0.929 . S
H87 C96 0.930 . S
H88 C98 0.929 . S
H89 C90 0.969 . S
C90 H89 0.969 . S
C90 O91 1.550 . S
C90 H92 0.973 . S
O91 C90 1.550 . S
O91 C97 1.412 . S
H92 C90 0.973 . S
C93 H86 0.929 . S
C93 C94 1.400 . S
C93 C95 1.364 . S
C94 C93 1.400 . S
C94 C98 1.377 . S
C95 C93 1.364 . S
C95 C96 1.374 . S
C96 H87 0.930 . S
C96 C95 1.374 . S
C96 C97 1.383 . S
C97 O91 1.412 . S
C97 C96 1.383 . S
C97 C98 1.394 . S
C98 H88 0.929 . S
C98 C94 1.377 . S
C98 C97 1.394 . S
H99 C106 0.929 . S
H100 C109 0.930 . S
H101 C111 0.929 . S
H102 C103 0.969 . S
C103 H102 0.969 . S
C103 O104 1.550 . S
C103 H105 0.973 . S
O104 C103 1.550 . S
O104 C110 1.412 . S
H105 C103 0.973 . S
C106 H99 0.929 . S
C106 C107 1.400 . S
C106 C108 1.364 . S
C107 C106 1.400 . S
C107 C111 1.377 . S
C108 C106 1.364 . S
C108 C109 1.374 . S
C109 H100 0.930 . S
C109 C108 1.374 . S
C109 C110 1.383 . S
C110 O104 1.412 . S
C110 C109 1.383 . S
C110 C111 1.394 . S
C111 H101 0.929 . S
C111 C107 1.377 . S
C111 C110 1.394 . S
H112 C120 0.929 . S
H113 C122 0.930 . S
H114 C124 0.930 . S
H115 C127 0.929 . S
H116 C130 0.930 . S
H117 C132 0.960 . S
H118 C132 0.960 . S
H119 C132 0.960 . S
C120 H112 0.929 . S
C120 C121 1.377 . S
C120 C122 1.384 . S
C121 C120 1.377 . S
C121 C127 1.390 1_554 S
C122 H113 0.930 . S
C122 C120 1.384 . S
C122 C123 1.372 . S
C123 C122 1.372 . S
C123 C124 1.400 1_554 S
C123 C128 1.490 . S
C124 H114 0.930 . S
C124 C123 1.400 1_556 S
C124 C127 1.386 . S
H125 C141 0.930 1_556 S
H126 C142 0.931 1_556 S
C127 H115 0.929 . S
C127 C121 1.390 1_556 S
C127 C124 1.386 . S
C128 C123 1.490 . S
C128 C130 1.395 . S
C128 C131 1.403 1_554 S
H129 C135 0.930 . S
C130 H116 0.930 . S
C130 C128 1.395 . S
C130 C133 1.403 . S
C131 C128 1.403 1_556 S
C131 C132 1.524 . S
C131 C135 1.400 . S
C132 H117 0.960 . S
C132 H118 0.960 . S
C132 H119 0.960 . S
C132 C131 1.524 . S
C133 C130 1.403 . S
C133 C134 1.392 . S
C133 C137 1.495 . S
C134 C133 1.392 . S
C134 C135 1.385 1_554 S
C134 C136 1.478 . S
C135 H129 0.930 . S
C135 C131 1.400 . S
C135 C134 1.385 1_556 S
C136 C134 1.478 . S
C136 C138 1.381 . S
C136 C142 1.383 . S
C137 C133 1.495 . S
C137 H143 0.959 . S
C137 H144 0.961 . S
C137 H145 0.960 . S
C138 C136 1.381 . S
C138 C139 1.394 . S
C138 H146 0.930 . S
C139 C138 1.394 . S
C139 C140 1.383 . S
C139 H147 0.929 . S
C140 C139 1.383 . S
C140 C141 1.377 . S
C141 H125 0.930 1_554 S
C141 C140 1.377 . S
C141 C142 1.379 . S
C142 H126 0.931 1_554 S
C142 C136 1.383 . S
C142 C141 1.379 . S
H143 C137 0.959 . S
H144 C137 0.961 . S
H145 C137 0.960 . S
H146 C138 0.930 . S
H147 C139 0.929 . S
H148 C156 0.929 . S
H149 C158 0.930 . S
H150 C160 0.930 . S
H151 C163 0.929 . S
H152 C166 0.930 . S
H153 C168 0.960 . S
H154 C168 0.960 . S
H155 C168 0.960 . S
C156 H148 0.929 . S
C156 C157 1.377 . S
C156 C158 1.384 . S
C157 C156 1.377 . S
C157 C163 1.390 1_554 S
C158 H149 0.930 . S
C158 C156 1.384 . S
C158 C159 1.372 . S
C159 C158 1.372 . S
C159 C160 1.400 1_554 S
C159 C164 1.490 . S
C160 H150 0.930 . S
C160 C159 1.400 1_556 S
C160 C163 1.386 . S
H161 C177 0.930 . S
H162 C178 0.931 . S
C163 H151 0.929 . S
C163 C157 1.390 1_556 S
C163 C160 1.386 . S
C164 C159 1.490 . S
C164 C166 1.395 . S
C164 C167 1.403 1_554 S
H165 C171 0.930 . S
C166 H152 0.930 . S
C166 C164 1.395 . S
C166 C169 1.403 . S
C167 C164 1.403 1_556 S
C167 C168 1.524 . S
C167 C171 1.400 . S
C168 H153 0.960 . S
C168 H154 0.960 . S
C168 H155 0.960 . S
C168 C167 1.524 . S
C169 C166 1.403 . S
C169 C170 1.392 1_554 S
C169 C173 1.495 . S
C170 C169 1.392 1_556 S
C170 C171 1.385 . S
C170 C172 1.478 . S
C171 H165 0.930 . S
C171 C167 1.400 . S
C171 C170 1.385 . S
C172 C170 1.478 . S
C172 C174 1.381 1_556 S
C172 C178 1.383 . S
C173 C169 1.495 . S
C173 H179 0.959 . S
C173 H180 0.961 . S
C173 H181 0.960 . S
C174 C172 1.381 1_554 S
C174 C175 1.394 . S
C174 H182 0.930 . S
C175 C174 1.394 . S
C175 C176 1.383 1_554 S
C175 H183 0.929 . S
C176 C175 1.383 1_556 S
C176 C177 1.377 . S
C177 H161 0.930 . S
C177 C176 1.377 . S
C177 C178 1.379 . S
C178 H162 0.931 . S
C178 C172 1.383 . S
C178 C177 1.379 . S
H179 C173 0.959 . S
H180 C173 0.961 . S
H181 C173 0.960 . S
H182 C174 0.930 . S
H183 C175 0.929 . S
H184 C192 0.929 . S
H185 C194 0.930 . S
H186 C196 0.930 . S
H187 C199 0.929 . S
H188 C202 0.930 . S
H189 C204 0.960 . S
H190 C204 0.960 . S
H191 C204 0.960 . S
C192 H184 0.929 . S
C192 C193 1.377 1_556 S
C192 C194 1.384 . S
C193 C192 1.377 1_554 S
C193 C199 1.390 . S
C194 H185 0.930 . S
C194 C192 1.384 . S
C194 C195 1.372 1_556 S
C195 C194 1.372 1_554 S
C195 C196 1.400 . S
C195 C200 1.490 . S
C196 H186 0.930 . S
C196 C195 1.400 . S
C196 C199 1.386 . S
H197 C213 0.930 . S
H198 C214 0.931 . S
C199 H187 0.929 . S
C199 C193 1.390 . S
C199 C196 1.386 . S
C200 C195 1.490 . S
C200 C202 1.395 . S
C200 C203 1.403 . S
H201 C207 0.930 . S
C202 H188 0.930 . S
C202 C200 1.395 . S
C202 C205 1.403 . S
C203 C200 1.403 . S
C203 C204 1.524 . S
C203 C207 1.400 . S
C204 H189 0.960 . S
C204 H190 0.960 . S
C204 H191 0.960 . S
C204 C203 1.524 . S
C205 C202 1.403 . S
C205 C206 1.392 . S
C205 C209 1.495 . S
C206 C205 1.392 . S
C206 C207 1.385 . S
C206 C208 1.478 . S
C207 H201 0.930 . S
C207 C203 1.400 . S
C207 C206 1.385 . S
C208 C206 1.478 . S
C208 C210 1.381 . S
C208 C214 1.383 . S
C209 C205 1.495 . S
C209 H215 0.959 1_554 S
C209 H216 0.961 . S
C209 H217 0.960 1_554 S
C210 C208 1.381 . S
C210 C211 1.394 . S
C210 H218 0.930 1_554 S
C211 C210 1.394 . S
C211 C212 1.383 . S
C211 H219 0.929 1_554 S
C212 C211 1.383 . S
C212 C213 1.377 . S
C213 H197 0.930 . S
C213 C212 1.377 . S
C213 C214 1.379 . S
C214 H198 0.931 . S
C214 C208 1.383 . S
C214 C213 1.379 . S
H215 C209 0.959 1_556 S
H216 C209 0.961 . S
H217 C209 0.960 1_556 S
H218 C210 0.930 1_556 S
H219 C211 0.929 1_556 S
H220 C228 0.929 . S
H221 C230 0.930 . S
H222 C232 0.930 . S
H223 C235 0.929 . S
H224 C238 0.930 . S
H225 C240 0.960 . S
H226 C240 0.960 . S
H227 C240 0.960 . S
C228 H220 0.929 . S
C228 C229 1.377 . S
C228 C230 1.384 . S
C229 C228 1.377 . S
C229 C235 1.390 1_556 S
C230 H221 0.930 . S
C230 C228 1.384 . S
C230 C231 1.372 . S
C231 C230 1.372 . S
C231 C232 1.400 1_556 S
C231 C236 1.490 . S
C232 H222 0.930 . S
C232 C231 1.400 1_554 S
C232 C235 1.386 . S
H233 C249 0.930 1_554 S
H234 C250 0.931 1_554 S
C235 H223 0.929 . S
C235 C229 1.390 1_554 S
C235 C232 1.386 . S
C236 C231 1.490 . S
C236 C238 1.395 . S
C236 C239 1.403 . S
H237 C243 0.930 . S
C238 H224 0.930 . S
C238 C236 1.395 . S
C238 C241 1.403 . S
C239 C236 1.403 . S
C239 C240 1.524 . S
C239 C243 1.400 . S
C240 H225 0.960 . S
C240 H226 0.960 . S
C240 H227 0.960 . S
C240 C239 1.524 . S
C241 C238 1.403 . S
C241 C242 1.392 . S
C241 C245 1.495 . S
C242 C241 1.392 . S
C242 C243 1.385 . S
C242 C244 1.478 . S
C243 H237 0.930 . S
C243 C239 1.400 . S
C243 C242 1.385 . S
C244 C242 1.478 . S
C244 C246 1.381 . S
C244 C250 1.383 . S
C245 C241 1.495 . S
C245 H251 0.959 . S
C245 H252 0.961 1_556 S
C245 H253 0.960 . S
C246 C244 1.381 . S
C246 C247 1.394 . S
C246 H254 0.930 . S
C247 C246 1.394 . S
C247 C248 1.383 . S
C247 H255 0.929 . S
C248 C247 1.383 . S
C248 C249 1.377 . S
C249 H233 0.930 1_556 S
C249 C248 1.377 . S
C249 C250 1.379 . S
C250 H234 0.931 1_556 S
C250 C244 1.383 . S
C250 C249 1.379 . S
H251 C245 0.959 . S
H252 C245 0.961 1_554 S
H253 C245 0.960 . S
H254 C246 0.930 . S
H255 C247 0.929 . S
H256 C264 0.929 . S
H257 C266 0.930 . S
H258 C268 0.930 . S
H259 C271 0.929 . S
H260 C274 0.930 . S
H261 C276 0.960 . S
H262 C276 0.960 . S
H263 C276 0.960 . S
C264 H256 0.929 . S
C264 C265 1.377 . S
C264 C266 1.384 . S
C265 C264 1.377 . S
C265 C271 1.390 . S
C266 H257 0.930 . S
C266 C264 1.384 . S
C266 C267 1.372 . S
C267 C266 1.372 . S
C267 C268 1.400 . S
C267 C272 1.490 . S
C268 H258 0.930 . S
C268 C267 1.400 . S
C268 C271 1.386 . S
H269 C285 0.930 . S
H270 C286 0.931 . S
C271 H259 0.929 . S
C271 C265 1.390 . S
C271 C268 1.386 . S
C272 C267 1.490 . S
C272 C274 1.395 . S
C272 C275 1.403 . S
H273 C279 0.930 . S
C274 H260 0.930 . S
C274 C272 1.395 . S
C274 C277 1.403 . S
C275 C272 1.403 . S
C275 C276 1.524 . S
C275 C279 1.400 . S
C276 H261 0.960 . S
C276 H262 0.960 . S
C276 H263 0.960 . S
C276 C275 1.524 . S
C277 C274 1.403 . S
C277 C278 1.392 . S
C277 C281 1.495 . S
C278 C277 1.392 . S
C278 C279 1.385 . S
C278 C280 1.478 . S
C279 H273 0.930 . S
C279 C275 1.400 . S
C279 C278 1.385 . S
C280 C278 1.478 . S
C280 C282 1.381 . S
C280 C286 1.383 . S
C281 C277 1.495 . S
C281 H287 0.959 . S
C281 H288 0.961 . S
C281 H289 0.960 . S
C282 C280 1.381 . S
C282 C283 1.394 . S
C282 H290 0.930 . S
C283 C282 1.394 . S
C283 C284 1.383 . S
C283 H291 0.929 . S
C284 C283 1.383 . S
C284 C285 1.377 . S
C285 H269 0.930 . S
C285 C284 1.377 . S
C285 C286 1.379 . S
C286 H270 0.931 . S
C286 C280 1.383 . S
C286 C285 1.379 . S
H287 C281 0.959 . S
H288 C281 0.961 . S
H289 C281 0.960 . S
H290 C282 0.930 . S
H291 C283 0.929 . S
H292 C300 0.929 . S
H293 C302 0.930 . S
H294 C304 0.930 . S
H295 C307 0.929 . S
H296 C310 0.930 . S
H297 C312 0.960 . S
H298 C312 0.960 . S
H299 C312 0.960 . S
C300 H292 0.929 . S
C300 C301 1.377 . S
C300 C302 1.384 . S
C301 C300 1.377 . S
C301 C307 1.390 . S
C302 H293 0.930 . S
C302 C300 1.384 . S
C302 C303 1.372 . S
C303 C302 1.372 . S
C303 C304 1.400 . S
C303 C308 1.490 . S
C304 H294 0.930 . S
C304 C303 1.400 . S
C304 C307 1.386 . S
H305 C321 0.930 . S
H306 C322 0.931 . S
C307 H295 0.929 . S
C307 C301 1.390 . S
C307 C304 1.386 . S
C308 C303 1.490 . S
C308 C310 1.395 . S
C308 C311 1.403 . S
H309 C315 0.930 . S
C310 H296 0.930 . S
C310 C308 1.395 . S
C310 C313 1.403 . S
C311 C308 1.403 . S
C311 C312 1.524 . S
C311 C315 1.400 . S
C312 H297 0.960 . S
C312 H298 0.960 . S
C312 H299 0.960 . S
C312 C311 1.524 . S
C313 C310 1.403 . S
C313 C314 1.392 . S
C313 C317 1.495 . S
C314 C313 1.392 . S
C314 C315 1.385 . S
C314 C316 1.478 . S
C315 H309 0.930 . S
C315 C311 1.400 . S
C315 C314 1.385 . S
C316 C314 1.478 . S
C316 C318 1.381 . S
C316 C322 1.383 . S
C317 C313 1.495 . S
C317 H323 0.959 . S
C317 H324 0.961 . S
C317 H325 0.960 . S
C318 C316 1.381 . S
C318 C319 1.394 . S
C318 H326 0.930 . S
C319 C318 1.394 . S
C319 C320 1.383 . S
C319 H327 0.929 . S
C320 C319 1.383 . S
C320 C321 1.377 . S
C321 H305 0.930 . S
C321 C320 1.377 . S
C321 C322 1.379 . S
C322 H306 0.931 . S
C322 C316 1.383 . S
C322 C321 1.379 . S
H323 C317 0.959 . S
H324 C317 0.961 . S
H325 C317 0.960 . S
H326 C318 0.930 . S
H327 C319 0.929 . S
H328 C336 0.929 . S
H329 C338 0.930 . S
H330 C340 0.930 . S
H331 C343 0.929 . S
H332 C346 0.930 . S
H333 C348 0.960 . S
H334 C348 0.960 . S
H335 C348 0.960 . S
C336 H328 0.929 . S
C336 C337 1.377 . S
C336 C338 1.384 . S
C337 C336 1.377 . S
C337 C343 1.390 . S
C338 H329 0.930 . S
C338 C336 1.384 . S
C338 C339 1.372 . S
C339 C338 1.372 . S
C339 C340 1.400 . S
C339 C344 1.490 . S
C340 H330 0.930 . S
C340 C339 1.400 . S
C340 C343 1.386 . S
H341 C357 0.930 . S
H342 C358 0.931 . S
C343 H331 0.929 . S
C343 C337 1.390 . S
C343 C340 1.386 . S
C344 C339 1.490 . S
C344 C346 1.395 . S
C344 C347 1.403 . S
H345 C351 0.930 . S
C346 H332 0.930 . S
C346 C344 1.395 . S
C346 C349 1.403 . S
C347 C344 1.403 . S
C347 C348 1.524 . S
C347 C351 1.400 . S
C348 H333 0.960 . S
C348 H334 0.960 . S
C348 H335 0.960 . S
C348 C347 1.524 . S
C349 C346 1.403 . S
C349 C350 1.392 . S
C349 C353 1.495 . S
C350 C349 1.392 . S
C350 C351 1.385 . S
C350 C352 1.478 . S
C351 H345 0.930 . S
C351 C347 1.400 . S
C351 C350 1.385 . S
C352 C350 1.478 . S
C352 C354 1.381 . S
C352 C358 1.383 . S
C353 C349 1.495 . S
C353 H359 0.959 . S
C353 H360 0.961 . S
C353 H361 0.960 . S
C354 C352 1.381 . S
C354 C355 1.394 . S
C354 H362 0.930 . S
C355 C354 1.394 . S
C355 C356 1.383 . S
C355 H363 0.929 . S
C356 C355 1.383 . S
C356 C357 1.377 . S
C357 H341 0.930 . S
C357 C356 1.377 . S
C357 C358 1.379 . S
C358 H342 0.931 . S
C358 C352 1.383 . S
C358 C357 1.379 . S
H359 C353 0.959 . S
H360 C353 0.961 . S
H361 C353 0.960 . S
H362 C354 0.930 . S
H363 C355 0.929 . S
H364 C372 0.929 . S
H365 C374 0.930 . S
H366 C376 0.930 . S
H367 C379 0.929 . S
H368 C382 0.930 . S
H369 C384 0.960 . S
H370 C384 0.960 . S
H371 C384 0.960 . S
C372 H364 0.929 . S
C372 C373 1.377 . S
C372 C374 1.384 . S
C373 C372 1.377 . S
C373 C379 1.390 . S
C374 H365 0.930 . S
C374 C372 1.384 . S
C374 C375 1.372 . S
C375 C374 1.372 . S
C375 C376 1.400 . S
C375 C380 1.490 . S
C376 H366 0.930 . S
C376 C375 1.400 . S
C376 C379 1.386 . S
H377 C393 0.930 . S
H378 C394 0.931 . S
C379 H367 0.929 . S
C379 C373 1.390 . S
C379 C376 1.386 . S
C380 C375 1.490 . S
C380 C382 1.395 . S
C380 C383 1.403 . S
H381 C387 0.930 . S
C382 H368 0.930 . S
C382 C380 1.395 . S
C382 C385 1.403 . S
C383 C380 1.403 . S
C383 C384 1.524 . S
C383 C387 1.400 . S
C384 H369 0.960 . S
C384 H370 0.960 . S
C384 H371 0.960 . S
C384 C383 1.524 . S
C385 C382 1.403 . S
C385 C386 1.392 . S
C385 C389 1.495 . S
C386 C385 1.392 . S
C386 C387 1.385 . S
C386 C388 1.478 . S
C387 H381 0.930 . S
C387 C383 1.400 . S
C387 C386 1.385 . S
C388 C386 1.478 . S
C388 C390 1.381 . S
C388 C394 1.383 . S
C389 C385 1.495 . S
C389 H395 0.959 . S
C389 H396 0.961 . S
C389 H397 0.960 . S
C390 C388 1.381 . S
C390 C391 1.394 . S
C390 H398 0.930 . S
C391 C390 1.394 . S
C391 C392 1.383 . S
C391 H399 0.929 . S
C392 C391 1.383 . S
C392 C393 1.377 . S
C393 H377 0.930 . S
C393 C392 1.377 . S
C393 C394 1.379 . S
C394 H378 0.931 . S
C394 C388 1.383 . S
C394 C393 1.379 . S
H395 C389 0.959 . S
H396 C389 0.961 . S
H397 C389 0.960 . S
H398 C390 0.930 . S
H399 C391 0.929 . S
H400 C408 0.929 . S
H401 C410 0.930 . S
H402 C412 0.930 . S
H403 C415 0.929 . S
H404 C418 0.930 . S
H405 C420 0.960 . S
H406 C420 0.960 . S
H407 C420 0.960 1_455 S
C408 H400 0.929 . S
C408 C409 1.377 1_665 S
C408 C410 1.384 . S
C409 C408 1.377 1_445 S
C409 C415 1.390 . S
C410 H401 0.930 . S
C410 C408 1.384 . S
C410 C411 1.372 1_665 S
C411 C410 1.372 1_445 S
C411 C412 1.400 . S
C411 C416 1.490 1_545 S
C412 H402 0.930 . S
C412 C411 1.400 . S
C412 C415 1.386 . S
H413 C429 0.930 . S
H414 C430 0.931 . S
C415 H403 0.929 . S
C415 C409 1.390 . S
C415 C412 1.386 . S
C416 C411 1.490 1_565 S
C416 C418 1.393 . S
C416 C419 1.399 1_465 S
H417 C423 0.922 1_655 S
C418 H404 0.930 . S
C418 C416 1.393 . S
C418 C421 1.403 . S
C419 C416 1.399 1_645 S
C419 C420 1.529 . S
C419 C423 1.399 1_655 S
C420 H405 0.960 . S
C420 H406 0.960 . S
C420 H407 0.960 1_655 S
C420 C419 1.529 . S
C421 C418 1.403 . S
C421 C422 1.392 . S
C421 C425 1.495 . S
C422 C421 1.392 . S
C422 C423 1.394 1_565 S
C422 C424 1.478 . S
C423 H417 0.922 1_455 S
C423 C419 1.399 1_455 S
C423 C422 1.394 1_545 S
C424 C422 1.478 . S
C424 C426 1.381 1_455 S
C424 C430 1.383 1_565 S
C425 C421 1.495 . S
C425 H431 0.959 . S
C425 H432 0.961 . S
C425 H433 0.960 . S
C426 C424 1.381 1_655 S
C426 C427 1.394 . S
C426 H434 0.930 . S
C427 C426 1.394 . S
C427 C428 1.383 1_655 S
C427 H435 0.929 . S
C428 C427 1.383 1_455 S
C428 C429 1.377 1_565 S
C429 H413 0.930 . S
C429 C428 1.377 1_545 S
C429 C430 1.379 . S
C430 H414 0.931 . S
C430 C424 1.383 1_545 S
C430 C429 1.379 . S
H431 C425 0.959 . S
H432 C425 0.961 . S
H433 C425 0.960 . S
H434 C426 0.930 . S
H435 C427 0.929 . S
H436 C444 0.922 1_565 S
H437 C446 0.911 1_565 S
H438 C448 0.930 1_655 S
H439 C451 0.929 1_655 S
H440 C454 0.930 . S
H441 C456 0.960 . S
H442 C456 0.960 . S
H443 C456 0.960 . S
C444 H436 0.922 1_545 S
C444 C445 1.385 . S
C444 C446 1.385 . S
C445 C444 1.385 . S
C445 C451 1.390 . S
C446 H437 0.911 1_545 S
C446 C444 1.385 . S
C446 C447 1.389 . S
C447 C446 1.389 . S
C447 C448 1.400 . S
C447 C452 1.490 . S
C448 H438 0.930 1_455 S
C448 C447 1.400 . S
C448 C451 1.386 . S
H449 C465 0.930 . S
H450 C466 0.931 . S
C451 H439 0.929 1_455 S
C451 C445 1.390 . S
C451 C448 1.386 . S
C452 C447 1.490 . S
C452 C454 1.395 1_445 S
C452 C455 1.403 . S
H453 C459 0.930 . S
C454 H440 0.930 . S
C454 C452 1.395 1_665 S
C454 C457 1.403 . S
C455 C452 1.403 . S
C455 C456 1.524 . S
C455 C459 1.400 . S
C456 H441 0.960 . S
C456 H442 0.960 . S
C456 H443 0.960 . S
C456 C455 1.524 . S
C457 C454 1.403 . S
C457 C458 1.392 1_665 S
C457 C461 1.495 . S
C458 C457 1.392 1_445 S
C458 C459 1.385 . S
C458 C460 1.478 . S
C459 H453 0.930 . S
C459 C455 1.400 . S
C459 C458 1.385 . S
C460 C458 1.478 . S
C460 C462 1.381 . S
C460 C466 1.383 1_455 S
C461 C457 1.495 . S
C461 H467 0.959 . S
C461 H468 0.961 . S
C461 H469 0.960 . S
C462 C460 1.381 . S
C462 C463 1.394 . S
C462 H470 0.930 1_545 S
C463 C462 1.394 . S
C463 C464 1.383 . S
C463 H471 0.929 1_545 S
C464 C463 1.383 . S
C464 C465 1.377 1_455 S
C465 H449 0.930 . S
C465 C464 1.377 1_655 S
C465 C466 1.379 . S
C466 H450 0.931 . S
C466 C460 1.383 1_655 S
C466 C465 1.379 . S
H467 C461 0.959 . S
H468 C461 0.961 . S
H469 C461 0.960 . S
H470 C462 0.930 1_565 S
H471 C463 0.929 1_565 S
H472 C480 0.929 . S
H473 C482 0.930 . S
H474 C484 0.930 . S
H475 C487 0.929 . S
H476 C490 0.930 . S
H477 C492 0.960 . S
H478 C492 0.960 . S
H479 C492 0.960 . S
C480 H472 0.929 . S
C480 C481 1.377 . S
C480 C482 1.384 . S
C481 C480 1.377 . S
C481 C487 1.390 . S
C482 H473 0.930 . S
C482 C480 1.384 . S
C482 C483 1.372 . S
C483 C482 1.372 . S
C483 C484 1.400 . S
C483 C488 1.490 . S
C484 H474 0.930 . S
C484 C483 1.400 . S
C484 C487 1.386 . S
H485 C501 0.930 . S
H486 C502 0.931 . S
C487 H475 0.929 . S
C487 C481 1.390 . S
C487 C484 1.386 . S
C488 C483 1.490 . S
C488 C490 1.395 . S
C488 C491 1.403 . S
H489 C495 0.930 . S
C490 H476 0.930 . S
C490 C488 1.395 . S
C490 C493 1.403 . S
C491 C488 1.403 . S
C491 C492 1.524 . S
C491 C495 1.400 . S
C492 H477 0.960 . S
C492 H478 0.960 . S
C492 H479 0.960 . S
C492 C491 1.524 . S
C493 C490 1.403 . S
C493 C494 1.392 . S
C493 C497 1.495 . S
C494 C493 1.392 . S
C494 C495 1.385 . S
C494 C496 1.478 . S
C495 H489 0.930 . S
C495 C491 1.400 . S
C495 C494 1.385 . S
C496 C494 1.478 . S
C496 C498 1.381 . S
C496 C502 1.383 . S
C497 C493 1.495 . S
C497 H503 0.959 . S
C497 H504 0.961 . S
C497 H505 0.960 . S
C498 C496 1.381 . S
C498 C499 1.394 . S
C498 H506 0.930 . S
C499 C498 1.394 . S
C499 C500 1.383 . S
C499 H507 0.929 . S
C500 C499 1.383 . S
C500 C501 1.377 . S
C501 H485 0.930 . S
C501 C500 1.377 . S
C501 C502 1.379 . S
C502 H486 0.931 . S
C502 C496 1.383 . S
C502 C501 1.379 . S
H503 C497 0.959 . S
H504 C497 0.961 . S
H505 C497 0.960 . S
H506 C498 0.930 . S
H507 C499 0.929 . S
H508 C516 0.929 . S
H509 C518 0.930 . S
H510 C520 0.930 . S
H511 C523 0.929 . S
H512 C526 0.930 . S
H513 C528 0.960 . S
H514 C528 0.960 . S
H515 C528 0.960 . S
C516 H508 0.929 . S
C516 C517 1.377 . S
C516 C518 1.384 . S
C517 C516 1.377 . S
C517 C523 1.390 . S
C518 H509 0.930 . S
C518 C516 1.384 . S
C518 C519 1.372 . S
C519 C518 1.372 . S
C519 C520 1.400 . S
C519 C524 1.490 . S
C520 H510 0.930 . S
C520 C519 1.400 . S
C520 C523 1.386 . S
H521 C537 0.930 . S
H522 C538 0.931 . S
C523 H511 0.929 . S
C523 C517 1.390 . S
C523 C520 1.386 . S
C524 C519 1.490 . S
C524 C526 1.395 . S
C524 C527 1.403 . S
H525 C531 0.930 . S
C526 H512 0.930 . S
C526 C524 1.395 . S
C526 C529 1.403 . S
C527 C524 1.403 . S
C527 C528 1.524 . S
C527 C531 1.400 . S
C528 H513 0.960 . S
C528 H514 0.960 . S
C528 H515 0.960 . S
C528 C527 1.524 . S
C529 C526 1.403 . S
C529 C530 1.392 . S
C529 C533 1.495 . S
C530 C529 1.392 . S
C530 C531 1.385 . S
C530 C532 1.478 . S
C531 H525 0.930 . S
C531 C527 1.400 . S
C531 C530 1.385 . S
C532 C530 1.478 . S
C532 C534 1.381 . S
C532 C538 1.383 . S
C533 C529 1.495 . S
C533 H539 0.959 . S
C533 H540 0.961 . S
C533 H541 0.960 . S
C534 C532 1.381 . S
C534 C535 1.394 . S
C534 H542 0.930 . S
C535 C534 1.394 . S
C535 C536 1.383 . S
C535 H543 0.929 . S
C536 C535 1.383 . S
C536 C537 1.377 . S
C537 H521 0.930 . S
C537 C536 1.377 . S
C537 C538 1.379 . S
C538 H522 0.931 . S
C538 C532 1.383 . S
C538 C537 1.379 . S
H539 C533 0.959 . S
H540 C533 0.961 . S
H541 C533 0.960 . S
H542 C534 0.930 . S
H543 C535 0.929 . S
C140 C103 1.240 . S
C121 C27 1.376 . S
C157 N6 1.316 . S
C176 C90 1.261 . S
C193 C16 1.476 . S
C212 C107 1.460 . S
C229 N14 1.427 1_556 S
C248 C94 1.434 . S
C265 C57 1.376 . S
C284 C77 1.282 . S
C301 N36 1.316 . S
C320 C64 1.262 . S
C356 C81 1.462 . S
C337 C46 1.476 . S
C392 C68 1.441 . S
C373 N44 1.419 . S
C409 C10 1.473 . S
C428 C69 1.461 . S
C445 C1 1.552 . S
C464 C82 1.555 . S
C500 C95 1.466 . S
C481 C40 1.472 . S
C517 C31 1.549 . S
C536 C108 1.547 . S
