# Generated by pormake.
# Topology rtl, (3,6)-cn, num edge types: 1
# Building blocks:
#     Node 0, Type 0, BuildingBlock: BELTOD_clean_linker_0, # of connection points: 3
#     Node 1, Type 0, BuildingBlock: BELTOD_clean_linker_0, # of connection points: 3
#     Node 2, Type 0, BuildingBlock: BELTOD_clean_linker_0, # of connection points: 3
#     Node 3, Type 0, BuildingBlock: BELTOD_clean_linker_0, # of connection points: 3
#     Node 4, Type 1, BuildingBlock: FUNLAD_clean_sbu_0, # of connection points: 6
#     Node 5, Type 1, BuildingBlock: FUNLAD_clean_sbu_0, # of connection points: 6
#     Edge 6, Type (0, 1), BuildingBlock: TEMPAE_clean_linker_10, # of connection points: 2
#     Edge 7, Type (0, 1), BuildingBlock: TEMPAE_clean_linker_10, # of connection points: 2
#     Edge 8, Type (0, 1), BuildingBlock: TEMPAE_clean_linker_10, # of connection points: 2
#     Edge 9, Type (0, 1), BuildingBlock: TEMPAE_clean_linker_10, # of connection points: 2
#     Edge 10, Type (0, 1), BuildingBlock: TEMPAE_clean_linker_10, # of connection points: 2
#     Edge 11, Type (0, 1), BuildingBlock: TEMPAE_clean_linker_10, # of connection points: 2
#     Edge 12, Type (0, 1), BuildingBlock: TEMPAE_clean_linker_10, # of connection points: 2
#     Edge 13, Type (0, 1), BuildingBlock: TEMPAE_clean_linker_10, # of connection points: 2
#     Edge 14, Type (0, 1), BuildingBlock: TEMPAE_clean_linker_10, # of connection points: 2
#     Edge 15, Type (0, 1), BuildingBlock: TEMPAE_clean_linker_10, # of connection points: 2
#     Edge 16, Type (0, 1), BuildingBlock: TEMPAE_clean_linker_10, # of connection points: 2
#     Edge 17, Type (0, 1), BuildingBlock: TEMPAE_clean_linker_10, # of connection points: 2
# Relax obj value: 0.023
# Max RMSD: 0.088
# Mean RMSD: 0.075
data_MOF--net-rtl--node1-FUNLAD_clean_sbu_0--node2-BELTOD_clean_linker_0--edge1-TEMPAE_clean_linker_10
_symmetry_space_group_name_H-M    P1
_symmetry_Int_Tables_number       1
_symmetry_cell_setting            triclinic
loop_
_symmetry_equiv_pos_as_xyz
'x, y, z'
_cell_length_a     46.334971
_cell_length_b     38.06786
_cell_length_c     26.202985
_cell_angle_alpha  89.039789
_cell_angle_beta   90.954249
_cell_angle_gamma 90.537019
loop_
_atom_site_label
_atom_site_type_symbol
_atom_site_fract_x
_atom_site_fract_y
_atom_site_fract_z
_atom_type_partial_charge
P0 P 0.16048 0.81986 0.01822 0.0
H1 H 0.17007 0.8743 0.09402 0.0
H2 H 0.14242 0.89178 0.1676 0.0
H3 H 0.08543 0.80252 0.14707 0.0
H4 H 0.11339 0.78499 0.073 0.0
H5 H 0.22183 0.80766 0.03104 0.0
H6 H 0.25085 0.75492 0.03512 0.0
H7 H 0.17359 0.691 0.02161 0.0
H8 H 0.14439 0.74464 0.01652 0.0
H9 H 0.11111 0.86452 0.00206 0.0
H10 H 0.15084 0.77912 0.92409 0.0
O11 O 0.18306 0.85297 0.00442 0.0
H12 H 0.07826 0.87372 0.93047 0.0
H13 H 0.11676 0.78693 0.85253 0.0
C14 C 0.14366 0.82844 0.07798 0.0
C15 C 0.15193 0.85811 0.10568 0.0
C16 C 0.13599 0.86823 0.14754 0.0
C17 C 0.11153 0.8488 0.16247 0.0
C18 C 0.10421 0.81794 0.13636 0.0
C19 C 0.12016 0.80789 0.0942 0.0
C20 C 0.18102 0.78006 0.02248 0.0
C21 C 0.21102 0.78238 0.02884 0.0
C22 C 0.22761 0.7521 0.03174 0.0
C23 C 0.21453 0.7187 0.02895 0.0
C24 C 0.1843 0.71636 0.02348 0.0
C25 C 0.16762 0.74691 0.02068 0.0
C26 C 0.133 0.82063 0.96901 0.0
C27 C 0.11205 0.84683 0.97019 0.0
C28 C 0.09306 0.85193 0.92908 0.0
C29 C 0.09455 0.83088 0.88558 0.0
C30 C 0.11506 0.80378 0.88521 0.0
C31 C 0.13438 0.79898 0.92639 0.0
P32 P 0.65517 0.69766 0.50655 0.0
H33 H 0.65102 0.63286 0.4506 0.0
H34 H 0.61871 0.6127 0.38264 0.0
H35 H 0.57647 0.7134 0.37906 0.0
H36 H 0.60903 0.73352 0.448 0.0
H37 H 0.6732 0.74636 0.58581 0.0
H38 H 0.70057 0.80134 0.5817 0.0
H39 H 0.69223 0.80214 0.41718 0.0
H40 H 0.66557 0.74663 0.42159 0.0
H41 H 0.65151 0.63295 0.56534 0.0
H42 H 0.61301 0.7356 0.56741 0.0
O43 O 0.68517 0.67373 0.50672 0.0
H44 H 0.621 0.61359 0.63543 0.0
H45 H 0.58222 0.71627 0.63841 0.0
C46 C 0.63295 0.685 0.45313 0.0
C47 C 0.63509 0.65082 0.43482 0.0
C48 C 0.6164 0.63918 0.39641 0.0
C49 C 0.59505 0.66148 0.3758 0.0
C50 C 0.5929 0.69583 0.39414 0.0
C51 C 0.61151 0.70735 0.43318 0.0
C52 C 0.66676 0.7428 0.50411 0.0
C53 C 0.67628 0.75906 0.54899 0.0
C54 C 0.69195 0.79056 0.54656 0.0
C55 C 0.69868 0.80605 0.49907 0.0
C56 C 0.68758 0.79071 0.45431 0.0
C57 C 0.67203 0.75915 0.45682 0.0
C58 C 0.63505 0.68595 0.56226 0.0
C59 C 0.63681 0.65153 0.58153 0.0
C60 C 0.61912 0.64037 0.62117 0.0
C61 C 0.59917 0.66341 0.64208 0.0
C62 C 0.59758 0.69811 0.6231 0.0
C63 C 0.61519 0.70918 0.58285 0.0
P64 P 0.90939 0.29764 0.01079 0.0
H65 H 0.93015 0.31133 0.90766 0.0
H66 H 0.9395 0.27298 0.83584 0.0
H67 H 0.91045 0.18342 0.92528 0.0
H68 H 0.90184 0.22156 0.99683 0.0
H69 H 0.88394 0.36484 0.03606 0.0
H70 H 0.83438 0.38603 0.03421 0.0
H71 H 0.80477 0.28488 0.98047 0.0
H72 H 0.85451 0.26457 0.98021 0.0
H73 H 0.95942 0.29403 0.08017 0.0
H74 H 0.87379 0.24874 0.07109 0.0
O75 O 0.93202 0.33194 0.00733 0.0
H76 H 0.96983 0.25793 0.15657 0.0
H77 H 0.88449 0.21199 0.14631 0.0
C78 C 0.91597 0.26926 0.95805 0.0
C79 C 0.92599 0.2834 0.91185 0.0
C80 C 0.93107 0.2615 0.8707 0.0
C81 C 0.92594 0.22509 0.87502 0.0
C82 C 0.91521 0.21122 0.92106 0.0
C83 C 0.91022 0.23311 0.96211 0.0
C84 C 0.87293 0.31335 0.00755 0.0
C85 C 0.86679 0.3474 0.0233 0.0
C86 C 0.83838 0.35934 0.02273 0.0
C87 C 0.8155 0.33717 0.00722 0.0
C88 C 0.82184 0.30291 0.99175 0.0
C89 C 0.85031 0.29117 0.9918 0.0
C90 C 0.91573 0.27435 0.0702 0.0
C91 C 0.94273 0.27676 0.09495 0.0
C92 C 0.94868 0.25616 0.13847 0.0
C93 C 0.92793 0.23229 0.15698 0.0
C94 C 0.9008 0.23023 0.13257 0.0
C95 C 0.89467 0.25134 0.08975 0.0
P96 P 0.41422 0.20011 0.50933 0.0
H97 H 0.43466 0.1871 0.61369 0.0
H98 H 0.44486 0.22598 0.68542 0.0
H99 H 0.42143 0.31558 0.59059 0.0
H100 H 0.41211 0.27695 0.51925 0.0
H101 H 0.38679 0.13199 0.49022 0.0
H102 H 0.33671 0.11119 0.4967 0.0
H103 H 0.31157 0.21307 0.54963 0.0
H104 H 0.36163 0.23355 0.5441 0.0
H105 H 0.46075 0.20511 0.43543 0.0
H106 H 0.37511 0.24672 0.45136 0.0
O107 O 0.43684 0.16623 0.51135 0.0
H108 H 0.46719 0.24139 0.35814 0.0
H109 H 0.38179 0.28344 0.37513 0.0
C110 C 0.42326 0.22912 0.5608 0.0
C111 C 0.43211 0.21517 0.60827 0.0
C112 C 0.43764 0.23738 0.64933 0.0
C113 C 0.43409 0.27391 0.64363 0.0
C114 C 0.42494 0.28767 0.596 0.0
C115 C 0.41953 0.26548 0.55505 0.0
C116 C 0.37793 0.18416 0.51718 0.0
C117 C 0.37057 0.14968 0.50387 0.0
C118 C 0.34204 0.13783 0.50759 0.0
C119 C 0.32042 0.16059 0.52365 0.0
C120 C 0.32788 0.19511 0.53695 0.0
C121 C 0.35646 0.20673 0.53401 0.0
C122 C 0.41734 0.22288 0.44889 0.0
C123 C 0.44316 0.2215 0.42188 0.0
C124 C 0.44683 0.24219 0.37783 0.0
C125 C 0.42495 0.26509 0.36097 0.0
C126 C 0.39894 0.26595 0.38752 0.0
C127 C 0.39509 0.24482 0.43094 0.0
C128 C 0.01368 0.96937 0.44698 0.0
N129 N 0.05831 0.04834 0.52425 0.0
C130 C 0.08082 0.02563 0.52412 0.0
C131 C 0.10914 0.03825 0.52453 0.0
C132 C 0.11435 0.07454 0.52595 0.0
C133 C 0.09083 0.09745 0.5271 0.0
C134 C 0.06277 0.0837 0.5258 0.0
Zn135 Zn 0.01744 0.02806 0.52114 0.0
C136 C 0.98084 0.06351 0.44262 0.0
N137 N 0.93306 0.98306 0.514 0.0
C138 C 0.92996 0.94754 0.51255 0.0
C139 C 0.90969 0.00445 0.51453 0.0
C140 C 0.8818 0.99016 0.51405 0.0
C141 C 0.87799 0.95353 0.51307 0.0
C142 C 0.90254 0.93218 0.51196 0.0
Zn143 Zn 0.9737 0.00399 0.51673 0.0
O144 O 0.03077 0.9911 0.46818 0.0
C145 C 0.01063 0.96883 0.5954 0.0
O146 O 0.98715 0.96919 0.4586 0.0
H147 H 0.91268 0.03263 0.51574 0.0
H148 H 0.07684 0.99761 0.52346 0.0
H149 H 0.94882 0.93104 0.51204 0.0
O150 O 0.02789 0.9931 0.58147 0.0
O151 O 0.98598 0.96624 0.57375 0.0
H152 H 0.04456 0.10128 0.5257 0.0
O153 O 0.96102 0.03916 0.57476 0.0
O154 O 0.00366 0.06465 0.57425 0.0
O155 O 0.96216 0.04196 0.46 0.0
O156 O 0.00648 0.06298 0.46061 0.0
C157 C 0.97821 0.06278 0.59133 0.0
H158 H 0.12681 0.01983 0.52417 0.0
H159 H 0.09413 0.12565 0.52795 0.0
H160 H 0.86347 0.00755 0.51529 0.0
H161 H 0.9006 0.90385 0.51027 0.0
C162 C 0.47693 0.43934 0.93241 0.0
N163 N 0.55531 0.4538 0.0115 0.0
C164 C 0.55899 0.41849 0.00846 0.0
C165 C 0.58672 0.40444 0.00788 0.0
C166 C 0.61092 0.42692 0.01091 0.0
C167 C 0.60638 0.46321 0.01481 0.0
C168 C 0.57833 0.47614 0.01472 0.0
Zn169 Zn 0.51478 0.47446 0.00948 0.0
C170 C 0.51075 0.53345 0.93418 0.0
N171 N 0.43054 0.5189 0.00351 0.0
C172 C 0.40615 0.49868 0.0024 0.0
C173 C 0.42913 0.55455 0.00371 0.0
C174 C 0.40253 0.57127 0.00281 0.0
C175 C 0.37694 0.55121 0.00158 0.0
C176 C 0.37894 0.5144 0.00153 0.0
Zn177 Zn 0.47069 0.49713 0.00581 0.0
O178 O 0.50204 0.43895 0.95259 0.0
C179 C 0.47545 0.43791 0.08117 0.0
O180 O 0.45873 0.4617 0.94709 0.0
H181 H 0.44874 0.57016 0.00492 0.0
H182 H 0.54039 0.40119 0.00589 0.0
H183 H 0.40779 0.47036 0.00229 0.0
O184 O 0.50141 0.43865 0.06633 0.0
O185 O 0.45734 0.45947 0.06181 0.0
H186 H 0.57497 0.50413 0.01695 0.0
O187 O 0.48343 0.53232 0.06503 0.0
O188 O 0.52689 0.51009 0.06601 0.0
O189 O 0.48486 0.53419 0.94937 0.0
O190 O 0.52782 0.5106 0.953 0.0
C191 C 0.5091 0.532 0.08292 0.0
H192 H 0.58913 0.37634 0.00418 0.0
H193 H 0.62431 0.48153 0.01816 0.0
H194 H 0.40204 0.59968 0.00394 0.0
H195 H 0.35974 0.49798 0.00039 0.0
C196 C 0.28258 0.11751 0.55116 0.0
C197 C 0.29001 0.14867 0.52525 0.0
C198 C 0.25378 0.10589 0.55267 0.0
C199 C 0.23213 0.12562 0.52679 0.0
C200 C 0.23959 0.15708 0.50042 0.0
C201 C 0.26847 0.1684 0.50036 0.0
C202 C 0.24654 0.07251 0.58187 0.0
C203 C 0.21717 0.17844 0.47158 0.0
C204 C 0.16347 0.0771 0.48873 0.0
C205 C 0.14427 0.08827 0.52572 0.0
C206 C 0.19207 0.08941 0.48828 0.0
C207 C 0.20173 0.11293 0.52633 0.0
C208 C 0.18241 0.12423 0.56387 0.0
C209 C 0.15375 0.11199 0.56281 0.0
C210 C 0.2119 0.0773 0.44707 0.0
C211 C 0.19211 0.14886 0.60549 0.0
H212 H 0.29929 0.10245 0.57072 0.0
H213 H 0.27434 0.19235 0.47992 0.0
H214 H 0.22997 0.07783 0.61078 0.0
H215 H 0.23724 0.05276 0.55548 0.0
H216 H 0.26574 0.06099 0.60153 0.0
H217 H 0.22655 0.20232 0.45313 0.0
H218 H 0.20669 0.16217 0.44168 0.0
H219 H 0.20002 0.1866 0.49782 0.0
H220 H 0.15598 0.05898 0.45979 0.0
H221 H 0.13888 0.12035 0.59163 0.0
H222 H 0.2305 0.0631 0.46449 0.0
H223 H 0.22072 0.10034 0.42579 0.0
H224 H 0.20077 0.05967 0.41953 0.0
H225 H 0.21026 0.13705 0.62774 0.0
H226 H 0.17445 0.15486 0.63206 0.0
H227 H 0.20018 0.17387 0.58845 0.0
C228 C 0.25688 0.68508 0.06326 0.0
C229 C 0.23291 0.68692 0.02995 0.0
C230 C 0.27734 0.65847 0.05917 0.0
C231 C 0.27356 0.6327 0.02125 0.0
C232 C 0.24829 0.63279 0.99011 0.0
C233 C 0.22827 0.66005 0.99466 0.0
C234 C 0.30394 0.65935 0.09326 0.0
C235 C 0.24324 0.60538 0.94991 0.0
C236 C 0.34446 0.59977 0.97202 0.0
C237 C 0.34857 0.5691 0.00151 0.0
C238 C 0.31943 0.61976 0.9763 0.0
C239 C 0.29775 0.60863 0.01058 0.0
C240 C 0.30088 0.57651 0.03804 0.0
C241 C 0.32635 0.55714 0.03334 0.0
C242 C 0.31694 0.65381 0.94615 0.0
C243 C 0.27803 0.56354 0.07435 0.0
H244 H 0.26021 0.70531 0.09144 0.0
H245 H 0.20982 0.66129 0.96875 0.0
H246 H 0.30747 0.63328 0.11174 0.0
H247 H 0.32317 0.66549 0.06992 0.0
H248 H 0.30248 0.67935 0.12347 0.0
H249 H 0.22066 0.60556 0.93498 0.0
H250 H 0.25792 0.61053 0.91755 0.0
H251 H 0.24814 0.57877 0.96545 0.0
H252 H 0.36126 0.6087 0.94644 0.0
H253 H 0.32939 0.53349 0.05633 0.0
H254 H 0.31733 0.67624 0.97268 0.0
H255 H 0.2961 0.65466 0.92474 0.0
H256 H 0.33476 0.6575 0.91868 0.0
H257 H 0.27832 0.5801 0.10879 0.0
H258 H 0.28157 0.53581 0.08663 0.0
H259 H 0.25625 0.5657 0.0564 0.0
C260 C 0.74304 0.83257 0.46123 0.0
C261 C 0.72053 0.83476 0.49616 0.0
C262 C 0.76649 0.85602 0.46284 0.0
C263 C 0.7675 0.88236 0.5003 0.0
C264 C 0.74407 0.88609 0.53373 0.0
C265 C 0.72087 0.86211 0.5314 0.0
C266 C 0.79109 0.85106 0.42659 0.0
C267 C 0.74422 0.91417 0.57371 0.0
C268 C 0.84338 0.90702 0.54263 0.0
C269 C 0.84869 0.93739 0.51314 0.0
C270 C 0.81662 0.88967 0.54022 0.0
C271 C 0.79448 0.90316 0.50778 0.0
C272 C 0.7992 0.9347 0.47966 0.0
C273 C 0.82632 0.95142 0.48255 0.0
C274 C 0.81243 0.85612 0.57095 0.0
C275 C 0.77603 0.94997 0.44497 0.0
H276 H 0.74321 0.81122 0.43439 0.0
H277 H 0.70337 0.86414 0.55812 0.0
H278 H 0.79686 0.87636 0.4076 0.0
H279 H 0.81044 0.84192 0.4483 0.0
H280 H 0.78578 0.83154 0.39674 0.0
H281 H 0.72286 0.91663 0.5919 0.0
H282 H 0.7605 0.90769 0.60386 0.0
H283 H 0.75042 0.93999 0.55671 0.0
H284 H 0.86036 0.89649 0.56723 0.0
H285 H 0.83031 0.97481 0.45948 0.0
H286 H 0.80908 0.83378 0.54478 0.0
H287 H 0.79289 0.85789 0.59462 0.0
H288 H 0.83124 0.85022 0.59641 0.0
H289 H 0.77246 0.9326 0.41184 0.0
H290 H 0.78189 0.97664 0.43046 0.0
H291 H 0.75529 0.95144 0.46533 0.0
C292 C 0.76557 0.34021 0.96866 0.0
C293 C 0.78515 0.34961 0.00766 0.0
C294 C 0.73688 0.35169 0.96874 0.0
C295 C 0.72765 0.37351 0.00838 0.0
C296 C 0.74725 0.38317 0.04779 0.0
C297 C 0.77569 0.3709 0.04716 0.0
C298 C 0.7165 0.34063 0.92627 0.0
C299 C 0.73823 0.40665 0.0905 0.0
C300 C 0.66244 0.43116 0.98326 0.0
C301 C 0.64073 0.41278 0.00959 0.0
C302 C 0.6908 0.41869 0.98261 0.0
C303 C 0.69758 0.38674 0.00824 0.0
C304 C 0.67575 0.36772 0.03421 0.0
C305 C 0.64763 0.38108 0.03486 0.0
C306 C 0.71356 0.43983 0.95477 0.0
C307 C 0.68215 0.33338 0.06159 0.0
H308 H 0.77275 0.32421 0.93758 0.0
H309 H 0.79046 0.37779 0.07797 0.0
H310 H 0.69724 0.32729 0.94247 0.0
H311 H 0.70879 0.36412 0.90465 0.0
H312 H 0.72681 0.32261 0.89924 0.0
H313 H 0.75616 0.41192 0.11807 0.0
H314 H 0.73047 0.4321 0.07452 0.0
H315 H 0.72005 0.39435 0.11147 0.0
H316 H 0.65724 0.45531 0.96277 0.0
H317 H 0.63114 0.3669 0.05586 0.0
H318 H 0.72308 0.42382 0.92445 0.0
H319 H 0.73132 0.44703 0.98165 0.0
H320 H 0.70478 0.46428 0.93703 0.0
H321 H 0.69156 0.31457 0.03473 0.0
H322 H 0.66255 0.32122 0.07852 0.0
H323 H 0.69837 0.3377 0.09252 0.0
C324 C 0.08511 0.89752 0.20275 0.0
C325 C 0.09302 0.86207 0.20336 0.0
C326 C 0.06923 0.9115 0.24247 0.0
C327 C 0.06117 0.88952 0.28404 0.0
C328 C 0.06805 0.85334 0.28391 0.0
C329 C 0.08385 0.83996 0.24334 0.0
C330 C 0.06213 0.95016 0.2409 0.0
C331 C 0.05987 0.82916 0.32765 0.0
C332 C 0.05483 0.93992 0.40625 0.0
C333 C 0.02499 0.94535 0.40852 0.0
C334 C 0.06667 0.92005 0.36746 0.0
C335 C 0.04824 0.90551 0.32959 0.0
C336 C 0.01796 0.90951 0.33288 0.0
C337 C 0.00664 0.9293 0.37261 0.0
C338 C 0.09905 0.9161 0.36569 0.0
C339 C 0.99768 0.89446 0.29307 0.0
H340 H 0.09166 0.91448 0.17128 0.0
H341 H 0.08993 0.81253 0.2438 0.0
H342 H 0.03878 0.95397 0.24734 0.0
H343 H 0.07413 0.96374 0.27194 0.0
H344 H 0.06784 0.96293 0.20394 0.0
H345 H 0.06385 0.80115 0.31912 0.0
H346 H 0.07267 0.8362 0.36222 0.0
H347 H 0.03676 0.83225 0.33687 0.0
H348 H 0.06912 0.95184 0.43436 0.0
H349 H 0.98355 0.93337 0.3743 0.0
H350 H 0.10751 0.93077 0.33209 0.0
H351 H 0.10478 0.8881 0.36133 0.0
H352 H 0.11007 0.92618 0.40055 0.0
H353 H 0.00038 0.90908 0.25645 0.0
H354 H 0.97474 0.89616 0.30435 0.0
H355 H 0.00285 0.86657 0.28612 0.0
C356 C 0.56596 0.61813 0.67868 0.0
C357 C 0.58018 0.65059 0.6834 0.0
C358 C 0.55133 0.60286 0.71988 0.0
C359 C 0.551 0.62048 0.767 0.0
C360 C 0.56367 0.65435 0.77099 0.0
C361 C 0.57812 0.6691 0.72894 0.0
C362 C 0.53787 0.56684 0.71387 0.0
C363 C 0.56363 0.67397 0.82055 0.0
C364 C 0.5019 0.5805 0.86764 0.0
C365 C 0.52106 0.55813 0.89413 0.0
C366 C 0.51147 0.60214 0.82723 0.0
C367 C 0.54083 0.60131 0.81324 0.0
C368 C 0.56043 0.57977 0.84115 0.0
C369 C 0.5503 0.55847 0.88117 0.0
C370 C 0.49002 0.62487 0.79838 0.0
C371 C 0.59196 0.5782 0.82757 0.0
H372 H 0.56711 0.60412 0.64309 0.0
H373 H 0.58912 0.69422 0.7326 0.0
H374 H 0.55052 0.54732 0.73657 0.0
H375 H 0.51557 0.56638 0.7286 0.0
H376 H 0.53722 0.55848 0.67344 0.0
H377 H 0.57044 0.70185 0.81535 0.0
H378 H 0.54187 0.67315 0.83756 0.0
H379 H 0.57873 0.66117 0.84824 0.0
H380 H 0.47928 0.58049 0.87761 0.0
H381 H 0.56533 0.54154 0.90175 0.0
H382 H 0.48675 0.61471 0.75925 0.0
H383 H 0.4984 0.65217 0.79454 0.0
H384 H 0.46876 0.62542 0.81735 0.0
H385 H 0.59409 0.56711 0.78893 0.0
H386 H 0.60466 0.56177 0.85505 0.0
H387 H 0.60153 0.60502 0.82652 0.0
C388 C 0.93291 0.17184 0.19342 0.0
C389 C 0.93506 0.2082 0.19998 0.0
C390 C 0.94039 0.14841 0.2332 0.0
C391 C 0.94957 0.16177 0.28095 0.0
C392 C 0.95132 0.19856 0.28797 0.0
C393 C 0.94438 0.2214 0.24705 0.0
C394 C 0.9389 0.10938 0.22388 0.0
C395 C 0.96041 0.21374 0.33867 0.0
C396 C 0.9441 0.09925 0.39486 0.0
C397 C 0.97287 0.08894 0.40179 0.0
C398 C 0.93629 0.12359 0.35637 0.0
C399 C 0.95768 0.13717 0.32329 0.0
C400 C 0.98675 0.12664 0.32994 0.0
C401 C 0.99406 0.10297 0.36957 0.0
C402 C 0.90519 0.1348 0.35114 0.0
C403 C 0.01004 0.13991 0.29467 0.0
H404 H 0.92595 0.16178 0.15671 0.0
H405 H 0.94587 0.24959 0.25195 0.0
H406 H 0.96042 0.09756 0.231 0.0
H407 H 0.92371 0.09656 0.25082 0.0
H408 H 0.93175 0.10333 0.18428 0.0
H409 H 0.95962 0.24291 0.33834 0.0
H410 H 0.94615 0.20346 0.36919 0.0
H411 H 0.98272 0.20553 0.34872 0.0
H412 H 0.92772 0.08865 0.42003 0.0
H413 H 0.0163 0.09487 0.37466 0.0
H414 H 0.89629 0.12702 0.31339 0.0
H415 H 0.9038 0.16383 0.35304 0.0
H416 H 0.89146 0.12297 0.38136 0.0
H417 H 0.00451 0.13282 0.25475 0.0
H418 H 0.03155 0.12893 0.3048 0.0
H419 H 0.0115 0.16898 0.29588 0.0
C420 C 0.45399 0.32993 0.67924 0.0
C421 C 0.43969 0.2977 0.68711 0.0
C422 C 0.45913 0.35294 0.71966 0.0
C423 C 0.44993 0.34339 0.76925 0.0
C424 C 0.43552 0.31091 0.77756 0.0
C425 C 0.43052 0.28846 0.73633 0.0
C426 C 0.47463 0.38736 0.70936 0.0
C427 C 0.42548 0.29983 0.82999 0.0
C428 C 0.48881 0.38771 0.87944 0.0
C429 C 0.46933 0.41412 0.89188 0.0
C430 C 0.4825 0.36412 0.84024 0.0
C431 C 0.45612 0.3671 0.8126 0.0
C432 C 0.43617 0.39337 0.82536 0.0
C433 C 0.44298 0.41655 0.865 0.0
C434 C 0.50425 0.33631 0.82793 0.0
C435 C 0.40787 0.39736 0.79654 0.0
H436 H 0.46151 0.33703 0.64146 0.0
H437 H 0.4191 0.26382 0.74255 0.0
H438 H 0.46124 0.40958 0.7217 0.0
H439 H 0.49512 0.38833 0.73183 0.0
H440 H 0.47965 0.39128 0.66833 0.0
H441 H 0.41439 0.27383 0.82996 0.0
H442 H 0.4442 0.29849 0.8569 0.0
H443 H 0.41046 0.31962 0.84477 0.0
H444 H 0.50916 0.3855 0.90021 0.0
H445 H 0.42783 0.43687 0.87442 0.0
H446 H 0.51183 0.34028 0.7883 0.0
H447 H 0.49403 0.30987 0.83014 0.0
H448 H 0.52329 0.33676 0.85424 0.0
H449 H 0.41203 0.40365 0.75581 0.0
H450 H 0.39432 0.4184 0.81224 0.0
H451 H 0.39551 0.37227 0.79781 0.0
C452 C 0.56258 0.61522 0.34001 0.0
C453 C 0.57554 0.64846 0.3349 0.0
C454 C 0.54787 0.59981 0.29887 0.0
C455 C 0.54621 0.61809 0.25145 0.0
C456 C 0.55746 0.65272 0.24713 0.0
C457 C 0.572 0.66758 0.28911 0.0
C458 C 0.53593 0.56297 0.30522 0.0
C459 C 0.55601 0.67306 0.19724 0.0
C460 C 0.54764 0.5581 0.13806 0.0
C461 C 0.5184 0.55626 0.12361 0.0
C462 C 0.55699 0.5792 0.1784 0.0
C463 C 0.5366 0.59893 0.20519 0.0
C464 C 0.50716 0.59815 0.18985 0.0
C465 C 0.49838 0.57681 0.14906 0.0
C466 C 0.58864 0.57945 0.19337 0.0
C467 C 0.48487 0.61889 0.21756 0.0
H468 H 0.56489 0.60069 0.37577 0.0
H469 H 0.58204 0.69331 0.28515 0.0
H470 H 0.5136 0.56128 0.2895 0.0
H471 H 0.54931 0.54451 0.28362 0.0
H472 H 0.53582 0.55416 0.34586 0.0
H473 H 0.56151 0.70128 0.20222 0.0
H474 H 0.57148 0.66179 0.17023 0.0
H475 H 0.53416 0.67095 0.17955 0.0
H476 H 0.56332 0.5426 0.11827 0.0
H477 H 0.47576 0.57559 0.13795 0.0
H478 H 0.59146 0.56801 0.23235 0.0
H479 H 0.59705 0.60681 0.19423 0.0
H480 H 0.60191 0.56421 0.16677 0.0
H481 H 0.48237 0.60792 0.25674 0.0
H482 H 0.46347 0.61826 0.1978 0.0
H483 H 0.49199 0.64665 0.22127 0.0
C484 C 0.94565 0.16912 0.84163 0.0
C485 C 0.93219 0.20148 0.83209 0.0
C486 C 0.95201 0.14659 0.80166 0.0
C487 C 0.94486 0.15672 0.75083 0.0
C488 C 0.93112 0.18923 0.74088 0.0
C489 C 0.92493 0.21124 0.78166 0.0
C490 C 0.96677 0.11216 0.81377 0.0
C491 C 0.92319 0.20088 0.68713 0.0
C492 C 0.98794 0.11424 0.64714 0.0
C493 C 0.96902 0.0876 0.63066 0.0
C494 C 0.98009 0.13734 0.68552 0.0
C495 C 0.95267 0.13368 0.70808 0.0
C496 C 0.93326 0.10725 0.69109 0.0
C497 C 0.94165 0.08451 0.65249 0.0
C498 C 0.00135 0.16528 0.70252 0.0
C499 C 0.90385 0.10257 0.71435 0.0
H500 H 0.95172 0.16164 0.88041 0.0
H501 H 0.91419 0.23601 0.77411 0.0
H502 H 0.95381 0.09002 0.79821 0.0
H503 H 0.98812 0.11172 0.79526 0.0
H504 H 0.97001 0.10767 0.85546 0.0
H505 H 0.91205 0.2266 0.68595 0.0
H506 H 0.94293 0.2031 0.66385 0.0
H507 H 0.90891 0.18098 0.66897 0.0
H508 H 0.00908 0.11694 0.63034 0.0
H509 H 0.92689 0.06404 0.63989 0.0
H510 H 0.00732 0.1609 0.74329 0.0
H511 H 0.99134 0.1916 0.69918 0.0
H512 H 0.02138 0.16545 0.67977 0.0
H513 H 0.90627 0.09566 0.7555 0.0
H514 H 0.89086 0.08167 0.69546 0.0
H515 H 0.89175 0.12756 0.71162 0.0
C516 C 0.43864 0.27749 0.27057 0.0
C517 C 0.42999 0.28979 0.31793 0.0
C518 C 0.44441 0.30103 0.23012 0.0
C519 C 0.44216 0.33763 0.2379 0.0
C520 C 0.43326 0.35009 0.2857 0.0
C521 C 0.42698 0.32594 0.32501 0.0
C522 C 0.45328 0.28678 0.17935 0.0
C523 C 0.43127 0.38892 0.29584 0.0
C524 C 0.48747 0.39823 0.1548 0.0
C525 C 0.46669 0.41228 0.12098 0.0
C526 C 0.47971 0.37404 0.19317 0.0
C527 C 0.45056 0.36302 0.197 0.0
C528 C 0.42952 0.37674 0.16249 0.0
C529 C 0.43779 0.40161 0.1252 0.0
C530 C 0.50266 0.36063 0.23 0.0
C531 C 0.39834 0.36502 0.16482 0.0
H532 H 0.44079 0.24946 0.26522 0.0
H533 H 0.42056 0.33535 0.36193 0.0
H534 H 0.43931 0.29773 0.14828 0.0
H535 H 0.47578 0.29502 0.17117 0.0
H536 H 0.45196 0.25764 0.17847 0.0
H537 H 0.42339 0.39422 0.33475 0.0
H538 H 0.45283 0.40146 0.29155 0.0
H539 H 0.41652 0.40167 0.26753 0.0
H540 H 0.50982 0.40662 0.15184 0.0
H541 H 0.42172 0.41225 0.09882 0.0
H542 H 0.50418 0.33164 0.2277 0.0
H543 H 0.49675 0.3668 0.2697 0.0
H544 H 0.52426 0.37228 0.22227 0.0
H545 H 0.39684 0.33603 0.16148 0.0
H546 H 0.38485 0.3773 0.13408 0.0
H547 H 0.38925 0.37182 0.20224 0.0
C548 C 0.08924 0.8393 0.79067 0.0
C549 C 0.07697 0.8402 0.83926 0.0
C550 C 0.07534 0.85487 0.74815 0.0
C551 C 0.04892 0.87248 0.75462 0.0
C552 C 0.03529 0.87098 0.80252 0.0
C553 C 0.04928 0.85438 0.84407 0.0
C554 C 0.09018 0.85502 0.69728 0.0
C555 C 0.00721 0.88963 0.81118 0.0
C556 C 0.03992 0.9548 0.67315 0.0
C557 C 0.01939 0.94415 0.63666 0.0
C558 C 0.04917 0.93184 0.71222 0.0
C559 C 0.03815 0.89702 0.71409 0.0
C560 C 0.01741 0.88602 0.67727 0.0
C561 C 0.00796 0.90994 0.63923 0.0
C562 C 0.07085 0.94489 0.75142 0.0
C563 C 0.00575 0.84887 0.67738 0.0
H564 H 0.1106 0.82856 0.78622 0.0
H565 H 0.03918 0.85425 0.88108 0.0
H566 H 0.07442 0.84999 0.66585 0.0
H567 H 0.10008 0.88125 0.69006 0.0
H568 H 0.10745 0.83502 0.69618 0.0
H569 H 0.99743 0.8818 0.84813 0.0
H570 H 0.01125 0.91842 0.8113 0.0
H571 H 0.99143 0.88426 0.77996 0.0
H572 H 0.04861 0.98134 0.67146 0.0
H573 H 0.99222 0.90162 0.61072 0.0
H574 H 0.09108 0.92968 0.74919 0.0
H575 H 0.06232 0.94087 0.79042 0.0
H576 H 0.07618 0.9732 0.74591 0.0
H577 H 0.02364 0.8303 0.67127 0.0
H578 H 0.98898 0.84483 0.6472 0.0
H579 H 0.99636 0.84208 0.71497 0.0
loop_
_geom_bond_atom_site_label_1
_geom_bond_atom_site_label_2
_geom_bond_distance
_geom_bond_site_symmetry_2
_ccdc_geom_bond_type
P0 O11 1.490 . S
P0 C14 1.812 . S
P0 C20 1.803 . S
P0 C26 1.819 1_554 S
H1 C15 0.941 . S
H2 C16 0.939 . S
H3 C18 0.940 . S
H4 C19 0.940 . S
H5 C21 0.939 1_556 S
H6 C22 0.942 1_556 S
H7 C24 0.940 . S
H8 C25 0.939 . S
H9 C27 0.941 . S
H10 C31 0.939 . S
O11 P0 1.490 . S
H12 C28 0.939 . S
H13 C30 0.940 . S
C14 P0 1.812 . S
C14 C15 1.389 . S
C14 C19 1.391 . S
C15 H1 0.941 . S
C15 C14 1.389 . S
C15 C16 1.397 . S
C16 H2 0.939 . S
C16 C15 1.397 . S
C16 C17 1.378 . S
C17 C16 1.378 . S
C17 C18 1.378 . S
C18 H3 0.940 . S
C18 C17 1.378 . S
C18 C19 1.396 . S
C19 H4 0.940 . S
C19 C14 1.391 . S
C19 C18 1.396 . S
C20 P0 1.803 . S
C20 C21 1.378 . S
C20 C25 1.400 . S
C21 H5 0.939 1_554 S
C21 C20 1.378 . S
C21 C22 1.361 . S
C22 H6 0.942 1_554 S
C22 C21 1.361 . S
C22 C23 1.369 . S
C23 C22 1.369 . S
C23 C24 1.404 . S
C24 H7 0.940 . S
C24 C23 1.404 . S
C24 C25 1.389 . S
C25 H8 0.939 . S
C25 C20 1.400 . S
C25 C24 1.389 . S
C26 P0 1.819 1_556 S
C26 C27 1.391 . S
C26 C31 1.391 . S
C27 H9 0.941 . S
C27 C26 1.391 . S
C27 C28 1.396 . S
C28 H12 0.939 . S
C28 C27 1.396 . S
C28 C29 1.397 . S
C29 C28 1.397 . S
C29 C30 1.385 . S
C30 H13 0.940 . S
C30 C29 1.385 . S
C30 C31 1.388 . S
C31 H10 0.939 . S
C31 C26 1.391 . S
C31 C30 1.388 . S
P32 O43 1.490 . S
P32 C46 1.812 . S
P32 C52 1.803 . S
P32 C58 1.819 . S
H33 C47 0.941 . S
H34 C48 0.939 . S
H35 C50 0.940 . S
H36 C51 0.940 . S
H37 C53 0.939 . S
H38 C54 0.942 . S
H39 C56 0.940 . S
H40 C57 0.939 . S
H41 C59 0.941 . S
H42 C63 0.939 . S
O43 P32 1.490 . S
H44 C60 0.939 . S
H45 C62 0.940 . S
C46 P32 1.812 . S
C46 C47 1.389 . S
C46 C51 1.391 . S
C47 H33 0.941 . S
C47 C46 1.389 . S
C47 C48 1.397 . S
C48 H34 0.939 . S
C48 C47 1.397 . S
C48 C49 1.378 . S
C49 C48 1.378 . S
C49 C50 1.378 . S
C50 H35 0.940 . S
C50 C49 1.378 . S
C50 C51 1.396 . S
C51 H36 0.940 . S
C51 C46 1.391 . S
C51 C50 1.396 . S
C52 P32 1.803 . S
C52 C53 1.378 . S
C52 C57 1.400 . S
C53 H37 0.939 . S
C53 C52 1.378 . S
C53 C54 1.361 . S
C54 H38 0.942 . S
C54 C53 1.361 . S
C54 C55 1.369 . S
C55 C54 1.369 . S
C55 C56 1.404 . S
C56 H39 0.940 . S
C56 C55 1.404 . S
C56 C57 1.389 . S
C57 H40 0.939 . S
C57 C52 1.400 . S
C57 C56 1.389 . S
C58 P32 1.819 . S
C58 C59 1.391 . S
C58 C63 1.391 . S
C59 H41 0.941 . S
C59 C58 1.391 . S
C59 C60 1.396 . S
C60 H44 0.939 . S
C60 C59 1.396 . S
C60 C61 1.397 . S
C61 C60 1.397 . S
C61 C62 1.385 . S
C62 H45 0.940 . S
C62 C61 1.385 . S
C62 C63 1.388 . S
C63 H42 0.939 . S
C63 C58 1.391 . S
C63 C62 1.388 . S
P64 O75 1.490 . S
P64 C78 1.812 1_554 S
P64 C84 1.803 . S
P64 C90 1.819 . S
H65 C79 0.941 . S
H66 C80 0.939 . S
H67 C82 0.940 . S
H68 C83 0.940 . S
H69 C85 0.939 . S
H70 C86 0.942 . S
H71 C88 0.940 . S
H72 C89 0.939 . S
H73 C91 0.941 . S
H74 C95 0.939 . S
O75 P64 1.490 . S
H76 C92 0.939 . S
H77 C94 0.940 . S
C78 P64 1.812 1_556 S
C78 C79 1.389 . S
C78 C83 1.391 . S
C79 H65 0.941 . S
C79 C78 1.389 . S
C79 C80 1.397 . S
C80 H66 0.939 . S
C80 C79 1.397 . S
C80 C81 1.378 . S
C81 C80 1.378 . S
C81 C82 1.378 . S
C82 H67 0.940 . S
C82 C81 1.378 . S
C82 C83 1.396 . S
C83 H68 0.940 . S
C83 C78 1.391 . S
C83 C82 1.396 . S
C84 P64 1.803 . S
C84 C85 1.378 . S
C84 C89 1.400 1_554 S
C85 H69 0.939 . S
C85 C84 1.378 . S
C85 C86 1.361 . S
C86 H70 0.942 . S
C86 C85 1.361 . S
C86 C87 1.369 . S
C87 C86 1.369 . S
C87 C88 1.404 1_554 S
C88 H71 0.940 . S
C88 C87 1.404 1_556 S
C88 C89 1.389 . S
C89 H72 0.939 . S
C89 C84 1.400 1_556 S
C89 C88 1.389 . S
C90 P64 1.819 . S
C90 C91 1.391 . S
C90 C95 1.391 . S
C91 H73 0.941 . S
C91 C90 1.391 . S
C91 C92 1.396 . S
C92 H76 0.939 . S
C92 C91 1.396 . S
C92 C93 1.397 . S
C93 C92 1.397 . S
C93 C94 1.385 . S
C94 H77 0.940 . S
C94 C93 1.385 . S
C94 C95 1.388 . S
C95 H74 0.939 . S
C95 C90 1.391 . S
C95 C94 1.388 . S
P96 O107 1.490 . S
P96 C110 1.812 . S
P96 C116 1.803 . S
P96 C122 1.819 . S
H97 C111 0.941 . S
H98 C112 0.939 . S
H99 C114 0.940 . S
H100 C115 0.940 . S
H101 C117 0.939 . S
H102 C118 0.942 . S
H103 C120 0.940 . S
H104 C121 0.939 . S
H105 C123 0.941 . S
H106 C127 0.939 . S
O107 P96 1.490 . S
H108 C124 0.939 . S
H109 C126 0.940 . S
C110 P96 1.812 . S
C110 C111 1.389 . S
C110 C115 1.391 . S
C111 H97 0.941 . S
C111 C110 1.389 . S
C111 C112 1.397 . S
C112 H98 0.939 . S
C112 C111 1.397 . S
C112 C113 1.378 . S
C113 C112 1.378 . S
C113 C114 1.378 . S
C114 H99 0.940 . S
C114 C113 1.378 . S
C114 C115 1.396 . S
C115 H100 0.940 . S
C115 C110 1.391 . S
C115 C114 1.396 . S
C116 P96 1.803 . S
C116 C117 1.378 . S
C116 C121 1.400 . S
C117 H101 0.939 . S
C117 C116 1.378 . S
C117 C118 1.361 . S
C118 H102 0.942 . S
C118 C117 1.361 . S
C118 C119 1.369 . S
C119 C118 1.369 . S
C119 C120 1.404 . S
C120 H103 0.940 . S
C120 C119 1.404 . S
C120 C121 1.389 . S
C121 H104 0.939 . S
C121 C116 1.400 . S
C121 C120 1.389 . S
C122 P96 1.819 . S
C122 C123 1.391 . S
C122 C127 1.391 . S
C123 H105 0.941 . S
C123 C122 1.391 . S
C123 C124 1.396 . S
C124 H108 0.939 . S
C124 C123 1.396 . S
C124 C125 1.397 . S
C125 C124 1.397 . S
C125 C126 1.385 . S
C126 H109 0.940 . S
C126 C125 1.385 . S
C126 C127 1.388 . S
C127 H106 0.939 . S
C127 C122 1.391 . S
C127 C126 1.388 . S
C128 O144 1.251 . S
C128 O146 1.254 1_455 S
N129 C130 1.333 . S
N129 C134 1.307 . S
N129 Zn135 2.020 . S
C130 N129 1.333 . S
C130 C131 1.379 . S
C130 H148 0.952 . S
C131 C130 1.379 . S
C131 C132 1.390 . S
C131 H158 0.949 . S
C132 C131 1.390 . S
C132 C133 1.357 . S
C133 C132 1.357 . S
C133 C134 1.370 . S
C133 H159 0.950 . S
C134 N129 1.307 . S
C134 C133 1.370 . S
C134 H152 0.948 . S
Zn135 N129 2.020 . S
Zn135 O144 2.039 1_545 S
Zn135 O150 2.034 1_545 S
Zn135 O154 2.025 . S
Zn135 O156 2.024 . S
C136 O155 1.246 . S
C136 O156 1.249 1_655 S
N137 C138 1.307 . S
N137 C139 1.333 . S
N137 Zn143 2.020 . S
C138 N137 1.307 . S
C138 C142 1.370 . S
C138 H149 0.948 . S
C139 N137 1.333 . S
C139 C140 1.379 . S
C139 H147 0.952 . S
C140 C139 1.379 . S
C140 C141 1.390 . S
C140 H160 0.949 . S
C141 C140 1.390 . S
C141 C142 1.357 . S
C142 C138 1.370 . S
C142 C141 1.357 . S
C142 H161 0.950 . S
Zn143 N137 2.020 . S
Zn143 O146 2.025 . S
Zn143 O151 2.024 . S
Zn143 O153 2.039 1_565 S
Zn143 O155 2.034 1_565 S
O144 C128 1.251 . S
O144 Zn135 2.039 1_565 S
C145 O150 1.246 . S
C145 O151 1.249 1_455 S
O146 C128 1.254 1_655 S
O146 Zn143 2.025 . S
H147 C139 0.952 . S
H148 C130 0.952 . S
H149 C138 0.948 . S
O150 Zn135 2.034 1_565 S
O150 C145 1.246 . S
O151 Zn143 2.024 . S
O151 C145 1.249 1_655 S
H152 C134 0.948 . S
O153 Zn143 2.039 1_545 S
O153 C157 1.251 . S
O154 Zn135 2.025 . S
O154 C157 1.254 1_455 S
O155 C136 1.246 . S
O155 Zn143 2.034 1_545 S
O156 Zn135 2.024 . S
O156 C136 1.249 1_455 S
C157 O153 1.251 . S
C157 O154 1.254 1_655 S
H158 C131 0.949 . S
H159 C133 0.950 . S
H160 C140 0.949 . S
H161 C142 0.950 . S
C162 O178 1.251 . S
C162 O180 1.254 . S
N163 C164 1.333 . S
N163 C168 1.307 . S
N163 Zn169 2.020 . S
C164 N163 1.333 . S
C164 C165 1.379 . S
C164 H182 0.952 1_554 S
C165 C164 1.379 . S
C165 C166 1.390 . S
C165 H192 0.949 1_554 S
C166 C165 1.390 . S
C166 C167 1.357 . S
C167 C166 1.357 . S
C167 C168 1.370 . S
C167 H193 0.950 . S
C168 N163 1.307 . S
C168 C167 1.370 . S
C168 H186 0.948 . S
Zn169 N163 2.020 . S
Zn169 O178 2.039 1_554 S
Zn169 O184 2.034 . S
Zn169 O188 2.025 . S
Zn169 O190 2.024 1_554 S
C170 O189 1.246 . S
C170 O190 1.249 . S
N171 C172 1.307 . S
N171 C173 1.333 . S
N171 Zn177 2.020 . S
C172 N171 1.307 . S
C172 C176 1.370 . S
C172 H183 0.948 1_554 S
C173 N171 1.333 . S
C173 C174 1.379 . S
C173 H181 0.952 . S
C174 C173 1.379 . S
C174 C175 1.390 . S
C174 H194 0.949 . S
C175 C174 1.390 . S
C175 C176 1.357 . S
C176 C172 1.370 . S
C176 C175 1.357 . S
C176 H195 0.950 1_554 S
Zn177 N171 2.020 . S
Zn177 O180 2.025 1_554 S
Zn177 O185 2.024 . S
Zn177 O187 2.039 . S
Zn177 O189 2.034 1_554 S
O178 C162 1.251 . S
O178 Zn169 2.039 1_556 S
C179 O184 1.246 . S
C179 O185 1.249 . S
O180 C162 1.254 . S
O180 Zn177 2.025 1_556 S
H181 C173 0.952 . S
H182 C164 0.952 1_556 S
H183 C172 0.948 1_556 S
O184 Zn169 2.034 . S
O184 C179 1.246 . S
O185 Zn177 2.024 . S
O185 C179 1.249 . S
H186 C168 0.948 . S
O187 Zn177 2.039 . S
O187 C191 1.251 . S
O188 Zn169 2.025 . S
O188 C191 1.254 . S
O189 C170 1.246 . S
O189 Zn177 2.034 1_556 S
O190 Zn169 2.024 1_556 S
O190 C170 1.249 . S
C191 O187 1.251 . S
C191 O188 1.254 . S
H192 C165 0.949 1_556 S
H193 C167 0.950 . S
H194 C174 0.949 . S
H195 C176 0.950 1_556 S
C196 C197 1.391 . S
C196 C198 1.394 . S
C196 H212 0.931 . S
C197 C196 1.391 . S
C197 C201 1.376 . S
C198 C196 1.394 . S
C198 C199 1.369 . S
C198 C202 1.531 . S
C199 C198 1.369 . S
C199 C200 1.410 . S
C199 C207 1.503 . S
C200 C199 1.410 . S
C200 C201 1.392 . S
C200 C203 1.511 . S
C201 C197 1.376 . S
C201 C200 1.392 . S
C201 H213 0.929 . S
C202 C198 1.531 . S
C202 H214 0.960 . S
C202 H215 0.962 . S
C202 H216 0.960 . S
C203 C200 1.511 . S
C203 H217 0.961 . S
C203 H218 0.961 . S
C203 H219 0.961 . S
C204 C205 1.370 . S
C204 C206 1.363 . S
C204 H220 0.931 . S
C205 C204 1.370 . S
C205 C209 1.408 . S
C206 C204 1.363 . S
C206 C207 1.370 . S
C206 C210 1.524 . S
C207 C199 1.503 . S
C207 C206 1.370 . S
C207 C208 1.403 . S
C208 C207 1.403 . S
C208 C209 1.404 . S
C208 C211 1.539 . S
C209 C205 1.408 . S
C209 C208 1.404 . S
C209 H221 0.930 . S
C210 C206 1.524 . S
C210 H222 0.956 . S
C210 H223 0.961 . S
C210 H224 0.961 . S
C211 C208 1.539 . S
C211 H225 0.958 . S
C211 H226 0.961 . S
C211 H227 0.960 . S
H212 C196 0.931 . S
H213 C201 0.929 . S
H214 C202 0.960 . S
H215 C202 0.962 . S
H216 C202 0.960 . S
H217 C203 0.961 . S
H218 C203 0.961 . S
H219 C203 0.961 . S
H220 C204 0.931 . S
H221 C209 0.930 . S
H222 C210 0.956 . S
H223 C210 0.961 . S
H224 C210 0.961 . S
H225 C211 0.958 . S
H226 C211 0.961 . S
H227 C211 0.960 . S
C228 C229 1.391 . S
C228 C230 1.394 . S
C228 H244 0.931 . S
C229 C228 1.391 . S
C229 C233 1.376 . S
C230 C228 1.394 . S
C230 C231 1.369 . S
C230 C234 1.531 . S
C231 C230 1.369 . S
C231 C232 1.410 . S
C231 C239 1.503 . S
C232 C231 1.410 . S
C232 C233 1.392 . S
C232 C235 1.511 . S
C233 C229 1.376 . S
C233 C232 1.392 . S
C233 H245 0.929 . S
C234 C230 1.531 . S
C234 H246 0.960 . S
C234 H247 0.962 . S
C234 H248 0.960 . S
C235 C232 1.511 . S
C235 H249 0.961 . S
C235 H250 0.961 . S
C235 H251 0.961 . S
C236 C237 1.370 1_556 S
C236 C238 1.363 . S
C236 H252 0.931 . S
C237 C236 1.370 1_554 S
C237 C241 1.408 . S
C238 C236 1.363 . S
C238 C239 1.370 1_556 S
C238 C242 1.524 . S
C239 C231 1.503 . S
C239 C238 1.370 1_554 S
C239 C240 1.403 . S
C240 C239 1.403 . S
C240 C241 1.404 . S
C240 C243 1.539 . S
C241 C237 1.408 . S
C241 C240 1.404 . S
C241 H253 0.930 . S
C242 C238 1.524 . S
C242 H254 0.956 . S
C242 H255 0.961 . S
C242 H256 0.961 . S
C243 C240 1.539 . S
C243 H257 0.958 . S
C243 H258 0.961 . S
C243 H259 0.960 . S
H244 C228 0.931 . S
H245 C233 0.929 . S
H246 C234 0.960 . S
H247 C234 0.962 . S
H248 C234 0.960 . S
H249 C235 0.961 . S
H250 C235 0.961 . S
H251 C235 0.961 . S
H252 C236 0.931 . S
H253 C241 0.930 . S
H254 C242 0.956 . S
H255 C242 0.961 . S
H256 C242 0.961 . S
H257 C243 0.958 . S
H258 C243 0.961 . S
H259 C243 0.960 . S
C260 C261 1.391 . S
C260 C262 1.394 . S
C260 H276 0.931 . S
C261 C260 1.391 . S
C261 C265 1.376 . S
C262 C260 1.394 . S
C262 C263 1.369 . S
C262 C266 1.531 . S
C263 C262 1.369 . S
C263 C264 1.410 . S
C263 C271 1.503 . S
C264 C263 1.410 . S
C264 C265 1.392 . S
C264 C267 1.511 . S
C265 C261 1.376 . S
C265 C264 1.392 . S
C265 H277 0.929 . S
C266 C262 1.531 . S
C266 H278 0.960 . S
C266 H279 0.962 . S
C266 H280 0.960 . S
C267 C264 1.511 . S
C267 H281 0.961 . S
C267 H282 0.961 . S
C267 H283 0.961 . S
C268 C269 1.370 . S
C268 C270 1.363 . S
C268 H284 0.931 . S
C269 C268 1.370 . S
C269 C273 1.408 . S
C270 C268 1.363 . S
C270 C271 1.370 . S
C270 C274 1.524 . S
C271 C263 1.503 . S
C271 C270 1.370 . S
C271 C272 1.403 . S
C272 C271 1.403 . S
C272 C273 1.404 . S
C272 C275 1.539 . S
C273 C269 1.408 . S
C273 C272 1.404 . S
C273 H285 0.930 . S
C274 C270 1.524 . S
C274 H286 0.956 . S
C274 H287 0.961 . S
C274 H288 0.961 . S
C275 C272 1.539 . S
C275 H289 0.958 . S
C275 H290 0.961 . S
C275 H291 0.960 . S
H276 C260 0.931 . S
H277 C265 0.929 . S
H278 C266 0.960 . S
H279 C266 0.962 . S
H280 C266 0.960 . S
H281 C267 0.961 . S
H282 C267 0.961 . S
H283 C267 0.961 . S
H284 C268 0.931 . S
H285 C273 0.930 . S
H286 C274 0.956 . S
H287 C274 0.961 . S
H288 C274 0.961 . S
H289 C275 0.958 . S
H290 C275 0.961 . S
H291 C275 0.960 . S
C292 C293 1.391 1_556 S
C292 C294 1.394 . S
C292 H308 0.931 . S
C293 C292 1.391 1_554 S
C293 C297 1.376 . S
C294 C292 1.394 . S
C294 C295 1.369 1_556 S
C294 C298 1.531 . S
C295 C294 1.369 1_554 S
C295 C296 1.410 . S
C295 C303 1.503 . S
C296 C295 1.410 . S
C296 C297 1.392 . S
C296 C299 1.511 . S
C297 C293 1.376 . S
C297 C296 1.392 . S
C297 H309 0.929 . S
C298 C294 1.531 . S
C298 H310 0.960 . S
C298 H311 0.962 . S
C298 H312 0.960 . S
C299 C296 1.511 . S
C299 H313 0.961 . S
C299 H314 0.961 . S
C299 H315 0.961 . S
C300 C301 1.370 1_556 S
C300 C302 1.363 . S
C300 H316 0.931 . S
C301 C300 1.370 1_554 S
C301 C305 1.408 . S
C302 C300 1.363 . S
C302 C303 1.370 1_556 S
C302 C306 1.524 . S
C303 C295 1.503 . S
C303 C302 1.370 1_554 S
C303 C304 1.403 . S
C304 C303 1.403 . S
C304 C305 1.404 . S
C304 C307 1.539 . S
C305 C301 1.408 . S
C305 C304 1.404 . S
C305 H317 0.930 . S
C306 C302 1.524 . S
C306 H318 0.956 . S
C306 H319 0.961 . S
C306 H320 0.961 . S
C307 C304 1.539 . S
C307 H321 0.958 . S
C307 H322 0.961 . S
C307 H323 0.960 . S
H308 C292 0.931 . S
H309 C297 0.929 . S
H310 C298 0.960 . S
H311 C298 0.962 . S
H312 C298 0.960 . S
H313 C299 0.961 . S
H314 C299 0.961 . S
H315 C299 0.961 . S
H316 C300 0.931 . S
H317 C305 0.930 . S
H318 C306 0.956 . S
H319 C306 0.961 . S
H320 C306 0.961 . S
H321 C307 0.958 . S
H322 C307 0.961 . S
H323 C307 0.960 . S
C324 C325 1.391 . S
C324 C326 1.394 . S
C324 H340 0.931 . S
C325 C324 1.391 . S
C325 C329 1.376 . S
C326 C324 1.394 . S
C326 C327 1.369 . S
C326 C330 1.531 . S
C327 C326 1.369 . S
C327 C328 1.410 . S
C327 C335 1.503 . S
C328 C327 1.410 . S
C328 C329 1.392 . S
C328 C331 1.511 . S
C329 C325 1.376 . S
C329 C328 1.392 . S
C329 H341 0.929 . S
C330 C326 1.531 . S
C330 H342 0.960 . S
C330 H343 0.962 . S
C330 H344 0.960 . S
C331 C328 1.511 . S
C331 H345 0.961 1_455 S
C331 H346 0.961 . S
C331 H347 0.961 1_455 S
C332 C333 1.370 . S
C332 C334 1.363 . S
C332 H348 0.931 . S
C333 C332 1.370 . S
C333 C337 1.408 . S
C334 C332 1.363 . S
C334 C335 1.370 . S
C334 C338 1.524 . S
C335 C327 1.503 . S
C335 C334 1.370 . S
C335 C336 1.403 . S
C336 C335 1.403 . S
C336 C337 1.404 . S
C336 C339 1.539 . S
C337 C333 1.408 . S
C337 C336 1.404 . S
C337 H349 0.930 . S
C338 C334 1.524 . S
C338 H350 0.956 . S
C338 H351 0.961 . S
C338 H352 0.961 . S
C339 C336 1.539 . S
C339 H353 0.958 . S
C339 H354 0.961 . S
C339 H355 0.960 . S
H340 C324 0.931 . S
H341 C329 0.929 . S
H342 C330 0.960 . S
H343 C330 0.962 . S
H344 C330 0.960 . S
H345 C331 0.961 1_655 S
H346 C331 0.961 . S
H347 C331 0.961 1_655 S
H348 C332 0.931 . S
H349 C337 0.930 . S
H350 C338 0.956 . S
H351 C338 0.961 . S
H352 C338 0.961 . S
H353 C339 0.958 . S
H354 C339 0.961 . S
H355 C339 0.960 . S
C356 C357 1.391 . S
C356 C358 1.394 . S
C356 H372 0.931 . S
C357 C356 1.391 . S
C357 C361 1.376 . S
C358 C356 1.394 . S
C358 C359 1.369 . S
C358 C362 1.531 . S
C359 C358 1.369 . S
C359 C360 1.410 . S
C359 C367 1.503 . S
C360 C359 1.410 . S
C360 C361 1.392 . S
C360 C363 1.511 . S
C361 C357 1.376 . S
C361 C360 1.392 . S
C361 H373 0.929 . S
C362 C358 1.531 . S
C362 H374 0.960 . S
C362 H375 0.962 . S
C362 H376 0.960 . S
C363 C360 1.511 . S
C363 H377 0.961 . S
C363 H378 0.961 . S
C363 H379 0.961 . S
C364 C365 1.370 . S
C364 C366 1.363 . S
C364 H380 0.931 . S
C365 C364 1.370 . S
C365 C369 1.408 . S
C366 C364 1.363 . S
C366 C367 1.370 . S
C366 C370 1.524 . S
C367 C359 1.503 . S
C367 C366 1.370 . S
C367 C368 1.403 . S
C368 C367 1.403 . S
C368 C369 1.404 . S
C368 C371 1.539 . S
C369 C365 1.408 . S
C369 C368 1.404 . S
C369 H381 0.930 . S
C370 C366 1.524 . S
C370 H382 0.956 . S
C370 H383 0.961 . S
C370 H384 0.961 . S
C371 C368 1.539 . S
C371 H385 0.958 . S
C371 H386 0.961 . S
C371 H387 0.960 . S
H372 C356 0.931 . S
H373 C361 0.929 . S
H374 C362 0.960 . S
H375 C362 0.962 . S
H376 C362 0.960 . S
H377 C363 0.961 . S
H378 C363 0.961 . S
H379 C363 0.961 . S
H380 C364 0.931 . S
H381 C369 0.930 . S
H382 C370 0.956 . S
H383 C370 0.961 . S
H384 C370 0.961 . S
H385 C371 0.958 . S
H386 C371 0.961 . S
H387 C371 0.960 . S
C388 C389 1.391 . S
C388 C390 1.394 . S
C388 H404 0.931 . S
C389 C388 1.391 . S
C389 C393 1.376 . S
C390 C388 1.394 . S
C390 C391 1.369 . S
C390 C394 1.531 . S
C391 C390 1.369 . S
C391 C392 1.410 . S
C391 C399 1.503 . S
C392 C391 1.410 . S
C392 C393 1.392 . S
C392 C395 1.511 1_655 S
C393 C389 1.376 . S
C393 C392 1.392 . S
C393 H405 0.929 . S
C394 C390 1.531 . S
C394 H406 0.960 . S
C394 H407 0.962 . S
C394 H408 0.960 . S
C395 C392 1.511 1_455 S
C395 H409 0.961 . S
C395 H410 0.961 . S
C395 H411 0.961 . S
C396 C397 1.370 . S
C396 C398 1.363 . S
C396 H412 0.931 . S
C397 C396 1.370 . S
C397 C401 1.408 . S
C398 C396 1.363 . S
C398 C399 1.370 . S
C398 C402 1.524 . S
C399 C391 1.503 . S
C399 C398 1.370 . S
C399 C400 1.403 . S
C400 C399 1.403 . S
C400 C401 1.404 . S
C400 C403 1.539 . S
C401 C397 1.408 . S
C401 C400 1.404 . S
C401 H413 0.930 . S
C402 C398 1.524 . S
C402 H414 0.956 . S
C402 H415 0.961 . S
C402 H416 0.961 . S
C403 C400 1.539 . S
C403 H417 0.958 . S
C403 H418 0.961 . S
C403 H419 0.960 . S
H404 C388 0.931 . S
H405 C393 0.929 . S
H406 C394 0.960 . S
H407 C394 0.962 . S
H408 C394 0.960 . S
H409 C395 0.961 . S
H410 C395 0.961 . S
H411 C395 0.961 . S
H412 C396 0.931 . S
H413 C401 0.930 . S
H414 C402 0.956 . S
H415 C402 0.961 . S
H416 C402 0.961 . S
H417 C403 0.958 . S
H418 C403 0.961 . S
H419 C403 0.960 . S
C420 C421 1.391 . S
C420 C422 1.394 . S
C420 H436 0.931 . S
C421 C420 1.391 . S
C421 C425 1.376 . S
C422 C420 1.394 . S
C422 C423 1.369 . S
C422 C426 1.531 . S
C423 C422 1.369 . S
C423 C424 1.410 . S
C423 C431 1.503 . S
C424 C423 1.410 . S
C424 C425 1.392 . S
C424 C427 1.511 . S
C425 C421 1.376 . S
C425 C424 1.392 . S
C425 H437 0.929 . S
C426 C422 1.531 . S
C426 H438 0.960 . S
C426 H439 0.962 . S
C426 H440 0.960 . S
C427 C424 1.511 . S
C427 H441 0.961 . S
C427 H442 0.961 . S
C427 H443 0.961 . S
C428 C429 1.370 . S
C428 C430 1.363 . S
C428 H444 0.931 . S
C429 C428 1.370 . S
C429 C433 1.408 . S
C430 C428 1.363 . S
C430 C431 1.370 . S
C430 C434 1.524 . S
C431 C423 1.503 . S
C431 C430 1.370 . S
C431 C432 1.403 . S
C432 C431 1.403 . S
C432 C433 1.404 . S
C432 C435 1.539 . S
C433 C429 1.408 . S
C433 C432 1.404 . S
C433 H445 0.930 . S
C434 C430 1.524 . S
C434 H446 0.956 . S
C434 H447 0.961 . S
C434 H448 0.961 . S
C435 C432 1.539 . S
C435 H449 0.958 . S
C435 H450 0.961 . S
C435 H451 0.960 . S
H436 C420 0.931 . S
H437 C425 0.929 . S
H438 C426 0.960 . S
H439 C426 0.962 . S
H440 C426 0.960 . S
H441 C427 0.961 . S
H442 C427 0.961 . S
H443 C427 0.961 . S
H444 C428 0.931 . S
H445 C433 0.930 . S
H446 C434 0.956 . S
H447 C434 0.961 . S
H448 C434 0.961 . S
H449 C435 0.958 . S
H450 C435 0.961 . S
H451 C435 0.960 . S
C452 C453 1.391 . S
C452 C454 1.394 . S
C452 H468 0.931 . S
C453 C452 1.391 . S
C453 C457 1.376 . S
C454 C452 1.394 . S
C454 C455 1.369 . S
C454 C458 1.531 . S
C455 C454 1.369 . S
C455 C456 1.410 . S
C455 C463 1.503 . S
C456 C455 1.410 . S
C456 C457 1.392 . S
C456 C459 1.511 . S
C457 C453 1.376 . S
C457 C456 1.392 . S
C457 H469 0.929 . S
C458 C454 1.531 . S
C458 H470 0.960 . S
C458 H471 0.962 . S
C458 H472 0.960 . S
C459 C456 1.511 . S
C459 H473 0.961 . S
C459 H474 0.961 . S
C459 H475 0.961 . S
C460 C461 1.370 . S
C460 C462 1.363 . S
C460 H476 0.931 . S
C461 C460 1.370 . S
C461 C465 1.408 . S
C462 C460 1.363 . S
C462 C463 1.370 . S
C462 C466 1.524 . S
C463 C455 1.503 . S
C463 C462 1.370 . S
C463 C464 1.403 . S
C464 C463 1.403 . S
C464 C465 1.404 . S
C464 C467 1.539 . S
C465 C461 1.408 . S
C465 C464 1.404 . S
C465 H477 0.930 . S
C466 C462 1.524 . S
C466 H478 0.956 . S
C466 H479 0.961 . S
C466 H480 0.961 . S
C467 C464 1.539 . S
C467 H481 0.958 . S
C467 H482 0.961 . S
C467 H483 0.960 . S
H468 C452 0.931 . S
H469 C457 0.929 . S
H470 C458 0.960 . S
H471 C458 0.962 . S
H472 C458 0.960 . S
H473 C459 0.961 . S
H474 C459 0.961 . S
H475 C459 0.961 . S
H476 C460 0.931 . S
H477 C465 0.930 . S
H478 C466 0.956 . S
H479 C466 0.961 . S
H480 C466 0.961 . S
H481 C467 0.958 . S
H482 C467 0.961 . S
H483 C467 0.960 . S
C484 C485 1.391 . S
C484 C486 1.394 . S
C484 H500 0.931 . S
C485 C484 1.391 . S
C485 C489 1.376 . S
C486 C484 1.394 . S
C486 C487 1.369 . S
C486 C490 1.531 . S
C487 C486 1.369 . S
C487 C488 1.410 . S
C487 C495 1.503 . S
C488 C487 1.410 . S
C488 C489 1.392 . S
C488 C491 1.511 . S
C489 C485 1.376 . S
C489 C488 1.392 . S
C489 H501 0.929 . S
C490 C486 1.531 . S
C490 H502 0.960 . S
C490 H503 0.962 . S
C490 H504 0.960 . S
C491 C488 1.511 . S
C491 H505 0.961 . S
C491 H506 0.961 . S
C491 H507 0.961 . S
C492 C493 1.370 . S
C492 C494 1.363 . S
C492 H508 0.931 1_655 S
C493 C492 1.370 . S
C493 C497 1.408 . S
C494 C492 1.363 . S
C494 C495 1.370 . S
C494 C498 1.524 1_655 S
C495 C487 1.503 . S
C495 C494 1.370 . S
C495 C496 1.403 . S
C496 C495 1.403 . S
C496 C497 1.404 . S
C496 C499 1.539 . S
C497 C493 1.408 . S
C497 C496 1.404 . S
C497 H509 0.930 . S
C498 C494 1.524 1_455 S
C498 H510 0.956 . S
C498 H511 0.961 . S
C498 H512 0.961 . S
C499 C496 1.539 . S
C499 H513 0.958 . S
C499 H514 0.961 . S
C499 H515 0.960 . S
H500 C484 0.931 . S
H501 C489 0.929 . S
H502 C490 0.960 . S
H503 C490 0.962 . S
H504 C490 0.960 . S
H505 C491 0.961 . S
H506 C491 0.961 . S
H507 C491 0.961 . S
H508 C492 0.931 1_455 S
H509 C497 0.930 . S
H510 C498 0.956 . S
H511 C498 0.961 . S
H512 C498 0.961 . S
H513 C499 0.958 . S
H514 C499 0.961 . S
H515 C499 0.960 . S
C516 C517 1.391 . S
C516 C518 1.394 . S
C516 H532 0.931 . S
C517 C516 1.391 . S
C517 C521 1.376 . S
C518 C516 1.394 . S
C518 C519 1.369 . S
C518 C522 1.531 . S
C519 C518 1.369 . S
C519 C520 1.410 . S
C519 C527 1.503 . S
C520 C519 1.410 . S
C520 C521 1.392 . S
C520 C523 1.511 . S
C521 C517 1.376 . S
C521 C520 1.392 . S
C521 H533 0.929 . S
C522 C518 1.531 . S
C522 H534 0.960 . S
C522 H535 0.962 . S
C522 H536 0.960 . S
C523 C520 1.511 . S
C523 H537 0.961 . S
C523 H538 0.961 . S
C523 H539 0.961 . S
C524 C525 1.370 . S
C524 C526 1.363 . S
C524 H540 0.931 . S
C525 C524 1.370 . S
C525 C529 1.408 . S
C526 C524 1.363 . S
C526 C527 1.370 . S
C526 C530 1.524 . S
C527 C519 1.503 . S
C527 C526 1.370 . S
C527 C528 1.403 . S
C528 C527 1.403 . S
C528 C529 1.404 . S
C528 C531 1.539 . S
C529 C525 1.408 . S
C529 C528 1.404 . S
C529 H541 0.930 . S
C530 C526 1.524 . S
C530 H542 0.956 . S
C530 H543 0.961 . S
C530 H544 0.961 . S
C531 C528 1.539 . S
C531 H545 0.958 . S
C531 H546 0.961 . S
C531 H547 0.960 . S
H532 C516 0.931 . S
H533 C521 0.929 . S
H534 C522 0.960 . S
H535 C522 0.962 . S
H536 C522 0.960 . S
H537 C523 0.961 . S
H538 C523 0.961 . S
H539 C523 0.961 . S
H540 C524 0.931 . S
H541 C529 0.930 . S
H542 C530 0.956 . S
H543 C530 0.961 . S
H544 C530 0.961 . S
H545 C531 0.958 . S
H546 C531 0.961 . S
H547 C531 0.960 . S
C548 C549 1.391 . S
C548 C550 1.394 . S
C548 H564 0.931 . S
C549 C548 1.391 . S
C549 C553 1.376 . S
C550 C548 1.394 . S
C550 C551 1.369 . S
C550 C554 1.531 . S
C551 C550 1.369 . S
C551 C552 1.410 . S
C551 C559 1.503 . S
C552 C551 1.410 . S
C552 C553 1.392 . S
C552 C555 1.511 . S
C553 C549 1.376 . S
C553 C552 1.392 . S
C553 H565 0.929 . S
C554 C550 1.531 . S
C554 H566 0.960 . S
C554 H567 0.962 . S
C554 H568 0.960 . S
C555 C552 1.511 . S
C555 H569 0.961 . S
C555 H570 0.961 . S
C555 H571 0.965 . S
C556 C557 1.370 . S
C556 C558 1.363 . S
C556 H572 0.931 . S
C557 C556 1.370 . S
C557 C561 1.408 . S
C558 C556 1.363 . S
C558 C559 1.370 . S
C558 C562 1.524 . S
C559 C551 1.503 . S
C559 C558 1.370 . S
C559 C560 1.403 . S
C560 C559 1.403 . S
C560 C561 1.404 . S
C560 C563 1.539 1_455 S
C561 C557 1.408 . S
C561 C560 1.404 . S
C561 H573 0.930 1_455 S
C562 C558 1.524 . S
C562 H574 0.956 . S
C562 H575 0.961 . S
C562 H576 0.961 . S
C563 C560 1.539 1_655 S
C563 H577 0.956 1_655 S
C563 H578 0.961 . S
C563 H579 0.960 . S
H564 C548 0.931 . S
H565 C553 0.929 . S
H566 C554 0.960 . S
H567 C554 0.962 . S
H568 C554 0.960 . S
H569 C555 0.961 . S
H570 C555 0.961 . S
H571 C555 0.965 . S
H572 C556 0.931 . S
H573 C561 0.930 1_655 S
H574 C562 0.956 . S
H575 C562 0.961 . S
H576 C562 0.961 . S
H577 C563 0.956 1_455 S
H578 C563 0.961 . S
H579 C563 0.960 . S
C205 C132 1.600 . S
C197 C119 1.594 . S
C229 C23 1.464 . S
C237 C175 1.541 . S
C261 C55 1.530 . S
C269 C141 1.599 . S
C293 C87 1.547 . S
C301 C166 1.541 . S
C333 C128 1.579 . S
C325 C17 1.473 . S
C365 C170 1.658 . S
C357 C61 1.493 . S
C389 C93 1.571 . S
C397 C136 1.574 . S
C421 C113 1.647 . S
C429 C162 1.655 . S
C461 C191 1.650 . S
C453 C49 1.554 . S
C493 C157 1.581 . S
C485 C81 1.580 . S
C525 C179 1.653 . S
C517 C125 1.657 . S
C549 C29 1.509 . S
C557 C145 1.568 . S
