# Generated by pormake.
# Topology hwx, (6,3)-cn, num edge types: 1
# Building blocks:
#     Node 0, Type 0, BuildingBlock: OJICUG_clean_sbu_0, # of connection points: 6
#     Node 1, Type 0, BuildingBlock: OJICUG_clean_sbu_0, # of connection points: 6
#     Node 2, Type 0, BuildingBlock: OJICUG_clean_sbu_0, # of connection points: 6
#     Node 3, Type 0, BuildingBlock: OJICUG_clean_sbu_0, # of connection points: 6
#     Node 4, Type 1, BuildingBlock: KAKCAD_clean_linker_0, # of connection points: 3
#     Node 5, Type 1, BuildingBlock: KAKCAD_clean_linker_0, # of connection points: 3
#     Node 6, Type 1, BuildingBlock: KAKCAD_clean_linker_0, # of connection points: 3
#     Node 7, Type 1, BuildingBlock: KAKCAD_clean_linker_0, # of connection points: 3
#     Node 8, Type 1, BuildingBlock: KAKCAD_clean_linker_0, # of connection points: 3
#     Node 9, Type 1, BuildingBlock: KAKCAD_clean_linker_0, # of connection points: 3
#     Node 10, Type 1, BuildingBlock: KAKCAD_clean_linker_0, # of connection points: 3
#     Node 11, Type 1, BuildingBlock: KAKCAD_clean_linker_0, # of connection points: 3
#     Edge 12, Type (0, 1), BuildingBlock: CIFDUS_clean_linker_0, # of connection points: 2
#     Edge 13, Type (0, 1), BuildingBlock: CIFDUS_clean_linker_0, # of connection points: 2
#     Edge 14, Type (0, 1), BuildingBlock: CIFDUS_clean_linker_0, # of connection points: 2
#     Edge 15, Type (0, 1), BuildingBlock: CIFDUS_clean_linker_0, # of connection points: 2
#     Edge 16, Type (0, 1), BuildingBlock: CIFDUS_clean_linker_0, # of connection points: 2
#     Edge 17, Type (0, 1), BuildingBlock: CIFDUS_clean_linker_0, # of connection points: 2
#     Edge 18, Type (0, 1), BuildingBlock: CIFDUS_clean_linker_0, # of connection points: 2
#     Edge 19, Type (0, 1), BuildingBlock: CIFDUS_clean_linker_0, # of connection points: 2
#     Edge 20, Type (0, 1), BuildingBlock: CIFDUS_clean_linker_0, # of connection points: 2
#     Edge 21, Type (0, 1), BuildingBlock: CIFDUS_clean_linker_0, # of connection points: 2
#     Edge 22, Type (0, 1), BuildingBlock: CIFDUS_clean_linker_0, # of connection points: 2
#     Edge 23, Type (0, 1), BuildingBlock: CIFDUS_clean_linker_0, # of connection points: 2
#     Edge 24, Type (0, 1), BuildingBlock: CIFDUS_clean_linker_0, # of connection points: 2
#     Edge 25, Type (0, 1), BuildingBlock: CIFDUS_clean_linker_0, # of connection points: 2
#     Edge 26, Type (0, 1), BuildingBlock: CIFDUS_clean_linker_0, # of connection points: 2
#     Edge 27, Type (0, 1), BuildingBlock: CIFDUS_clean_linker_0, # of connection points: 2
#     Edge 28, Type (0, 1), BuildingBlock: CIFDUS_clean_linker_0, # of connection points: 2
#     Edge 29, Type (0, 1), BuildingBlock: CIFDUS_clean_linker_0, # of connection points: 2
#     Edge 30, Type (0, 1), BuildingBlock: CIFDUS_clean_linker_0, # of connection points: 2
#     Edge 31, Type (0, 1), BuildingBlock: CIFDUS_clean_linker_0, # of connection points: 2
#     Edge 32, Type (0, 1), BuildingBlock: CIFDUS_clean_linker_0, # of connection points: 2
#     Edge 33, Type (0, 1), BuildingBlock: CIFDUS_clean_linker_0, # of connection points: 2
#     Edge 34, Type (0, 1), BuildingBlock: CIFDUS_clean_linker_0, # of connection points: 2
#     Edge 35, Type (0, 1), BuildingBlock: CIFDUS_clean_linker_0, # of connection points: 2
# Relax obj value: 0.076
# Max RMSD: 0.101
# Mean RMSD: 0.093
data_MOF--net-hwx--node1-OJICUG_clean_sbu_0--node2-KAKCAD_clean_linker_0--edge1-CIFDUS_clean_linker_0
_symmetry_space_group_name_H-M    P1
_symmetry_Int_Tables_number       1
_symmetry_cell_setting            triclinic
loop_
_symmetry_equiv_pos_as_xyz
'x, y, z'
_cell_length_a     55.335702
_cell_length_b     55.295216
_cell_length_c     24.883633
_cell_angle_alpha  89.672334
_cell_angle_beta   90.031721
_cell_angle_gamma 90.090846
loop_
_atom_site_label
_atom_site_type_symbol
_atom_site_fract_x
_atom_site_fract_y
_atom_site_fract_z
_atom_type_partial_charge
Sc0 Sc 0.21197 0.21885 0.06947 0.0
Sc1 Sc 0.17381 0.17746 0.00237 0.0
Sc2 Sc 0.20935 0.21913 0.92878 0.0
O3 O 0.19835 0.20512 0.00025 0.0
C4 C 0.20505 0.26683 0.99802 0.0
C5 C 0.15654 0.21092 0.09954 0.0
C6 C 0.153 0.21052 0.90839 0.0
C7 C 0.21002 0.16215 0.09622 0.0
C8 C 0.25858 0.219 0.99541 0.0
C9 C 0.20789 0.16268 0.90447 0.0
O10 O 0.20845 0.25601 0.04269 0.0
O11 O 0.15292 0.19431 0.06525 0.0
O12 O 0.17328 0.22013 0.89763 0.0
O13 O 0.21726 0.18363 0.10449 0.0
O14 O 0.24671 0.22064 0.95188 0.0
O15 O 0.19192 0.15769 0.93959 0.0
O16 O 0.24869 0.21715 0.0413 0.0
O17 O 0.19471 0.15691 0.05995 0.0
O18 O 0.21615 0.18386 0.8968 0.0
O19 O 0.17673 0.22167 0.10473 0.0
O20 O 0.20403 0.25572 0.95359 0.0
O21 O 0.15009 0.19474 0.94512 0.0
Sc22 Sc 0.26907 0.72371 0.44038 0.0
Sc23 Sc 0.30901 0.68848 0.51833 0.0
Sc24 Sc 0.26483 0.72488 0.58061 0.0
O25 O 0.281 0.71223 0.51314 0.0
C26 C 0.2665 0.77231 0.50924 0.0
C27 C 0.32611 0.72454 0.42433 0.0
C28 C 0.32012 0.72279 0.61764 0.0
C29 C 0.28197 0.66873 0.41473 0.0
C30 C 0.21967 0.7178 0.50185 0.0
C31 C 0.27231 0.6691 0.609 0.0
O32 O 0.26494 0.76045 0.46585 0.0
O33 O 0.3302 0.70816 0.45941 0.0
O34 O 0.29822 0.72904 0.62314 0.0
O35 O 0.27219 0.68896 0.40471 0.0
O36 O 0.22905 0.72274 0.54708 0.0
O37 O 0.29055 0.6667 0.57818 0.0
O38 O 0.23195 0.71537 0.45912 0.0
O39 O 0.29476 0.66486 0.45641 0.0
O40 O 0.26035 0.68872 0.6124 0.0
O41 O 0.30506 0.7327 0.41457 0.0
O42 O 0.26829 0.76213 0.55504 0.0
O43 O 0.3272 0.70902 0.58008 0.0
Sc44 Sc 0.77201 0.76781 0.88772 0.0
Sc45 Sc 0.80882 0.80972 0.95688 0.0
Sc46 Sc 0.77392 0.76703 0.0288 0.0
O47 O 0.7849 0.78158 0.95777 0.0
C48 C 0.72483 0.76687 0.96112 0.0
C49 C 0.77298 0.8245 0.86174 0.0
C50 C 0.77429 0.82349 0.05463 0.0
C51 C 0.8277 0.77692 0.86058 0.0
C52 C 0.78002 0.71984 0.95738 0.0
C53 C 0.82984 0.77688 0.05167 0.0
O54 O 0.73516 0.76755 0.91551 0.0
O55 O 0.78869 0.82953 0.89723 0.0
O56 O 0.7673 0.80191 0.06303 0.0
O57 O 0.80753 0.76643 0.85312 0.0
O58 O 0.7793 0.73063 0.00225 0.0
O59 O 0.83202 0.79337 0.01624 0.0
O60 O 0.77733 0.7308 0.91276 0.0
O61 O 0.83091 0.79315 0.89592 0.0
O62 O 0.8101 0.76578 0.06044 0.0
O63 O 0.7652 0.80315 0.854 0.0
O64 O 0.7365 0.76644 0.00513 0.0
O65 O 0.78932 0.82922 0.018 0.0
Sc66 Sc 0.70823 0.26504 0.58263 0.0
Sc67 Sc 0.67971 0.31419 0.51678 0.0
Sc68 Sc 0.7159 0.27363 0.44369 0.0
O69 O 0.7012 0.28428 0.51438 0.0
C70 C 0.75953 0.26495 0.5243 0.0
C71 C 0.71178 0.31987 0.62257 0.0
C72 C 0.71982 0.33074 0.4318 0.0
C73 C 0.65308 0.27908 0.60066 0.0
C74 C 0.70172 0.22298 0.49742 0.0
C75 C 0.66236 0.28877 0.4089 0.0
O76 O 0.74647 0.26222 0.5659 0.0
O77 O 0.69945 0.32889 0.58415 0.0
O78 O 0.72685 0.30945 0.42174 0.0
O79 O 0.67122 0.26544 0.60804 0.0
O80 O 0.70726 0.23609 0.45717 0.0
O81 O 0.65822 0.30211 0.44942 0.0
O82 O 0.70086 0.23089 0.54517 0.0
O83 O 0.65365 0.29746 0.56977 0.0
O84 O 0.68224 0.27772 0.40175 0.0
O85 O 0.71591 0.29732 0.62734 0.0
O86 O 0.751 0.26935 0.478 0.0
O87 O 0.70261 0.3353 0.46398 0.0
C88 C 0.24368 0.54908 0.83242 0.0
C89 C 0.2656 0.56111 0.82189 0.0
C90 C 0.24096 0.53499 0.87906 0.0
C91 C 0.25996 0.53315 0.91634 0.0
C92 C 0.28192 0.54492 0.90537 0.0
C93 C 0.28477 0.55862 0.85853 0.0
C94 C 0.25679 0.51996 0.96788 0.0
C95 C 0.24866 0.49588 0.96906 0.0
C96 C 0.24718 0.4832 0.01813 0.0
C97 C 0.25319 0.49506 0.06609 0.0
C98 C 0.26088 0.51922 0.06571 0.0
C99 C 0.26269 0.5315 0.01629 0.0
C100 C 0.26687 0.53167 0.11682 0.0
C101 C 0.2528 0.52785 0.16328 0.0
C102 C 0.28626 0.54809 0.11908 0.0
C103 C 0.29066 0.56131 0.16564 0.0
C104 C 0.27599 0.55816 0.21115 0.0
C105 C 0.24015 0.45733 0.01999 0.0
C106 C 0.22003 0.44881 0.99126 0.0
C107 C 0.25329 0.44109 0.05224 0.0
C108 C 0.24626 0.41695 0.05656 0.0
C109 C 0.2259 0.40843 0.02872 0.0
C110 C 0.21294 0.42457 0.99564 0.0
C111 C 0.25742 0.54091 0.21015 0.0
H112 H 0.22865 0.55065 0.80471 0.0
H113 H 0.22382 0.52614 0.88678 0.0
H114 H 0.29688 0.54367 0.93337 0.0
H115 H 0.30177 0.56787 0.85175 0.0
H116 H 0.24445 0.48677 0.93174 0.0
H117 H 0.26828 0.55029 0.01534 0.0
H118 H 0.25202 0.48532 0.10393 0.0
H119 H 0.23758 0.51552 0.16285 0.0
H120 H 0.29782 0.55105 0.08456 0.0
H121 H 0.30517 0.5745 0.16571 0.0
H122 H 0.20948 0.461 0.9664 0.0
H123 H 0.26916 0.44702 0.07402 0.0
H124 H 0.2457 0.53844 0.24462 0.0
H125 H 0.19711 0.41855 0.97384 0.0
H126 H 0.25701 0.40487 0.08123 0.0
C127 C 0.93909 0.70682 0.26862 0.0
C128 C 0.92665 0.72884 0.26279 0.0
C129 C 0.95303 0.70231 0.31451 0.0
C130 C 0.95436 0.71959 0.35549 0.0
C131 C 0.94275 0.74194 0.34864 0.0
C132 C 0.92913 0.74658 0.30259 0.0
C133 C 0.96572 0.71358 0.40755 0.0
C134 C 0.98988 0.7061 0.41064 0.0
C135 C 0.00062 0.70079 0.46082 0.0
C136 C 0.98625 0.70229 0.50757 0.0
C137 C 0.9624 0.71067 0.5048 0.0
C138 C 0.95223 0.71606 0.4547 0.0
C139 C 0.94843 0.71556 0.55417 0.0
C140 C 0.94564 0.69784 0.59431 0.0
C141 C 0.93731 0.73816 0.56053 0.0
C142 C 0.92318 0.74283 0.60558 0.0
C143 C 0.91972 0.72493 0.64506 0.0
C144 C 0.02717 0.69613 0.4649 0.0
C145 C 0.0401 0.68558 0.42228 0.0
C146 C 0.04018 0.70384 0.51032 0.0
C147 C 0.06524 0.70179 0.5124 0.0
C148 C 0.0783 0.69286 0.46833 0.0
C149 C 0.06535 0.68426 0.42367 0.0
C150 C 0.93119 0.70242 0.63927 0.0
H151 H 0.93753 0.69291 0.23833 0.0
H152 H 0.96178 0.68491 0.31918 0.0
H153 H 0.94362 0.75555 0.37975 0.0
H154 H 0.91956 0.7636 0.29942 0.0
H155 H 0.00043 0.70566 0.37404 0.0
H156 H 0.93363 0.72217 0.4524 0.0
H157 H 0.99377 0.69791 0.54659 0.0
H158 H 0.95407 0.68028 0.59018 0.0
H159 H 0.93942 0.75221 0.53035 0.0
H160 H 0.91434 0.76024 0.60867 0.0
H161 H 0.03084 0.67879 0.38713 0.0
H162 H 0.03129 0.71242 0.54387 0.0
H163 H 0.92885 0.68835 0.6693 0.0
H164 H 0.07466 0.67724 0.38886 0.0
H165 H 0.07437 0.70783 0.5484 0.0
C166 C 0.73402 0.42905 0.1666 0.0
C167 C 0.7494 0.42947 0.21147 0.0
C168 C 0.74105 0.43994 0.11842 0.0
C169 C 0.76347 0.45171 0.11436 0.0
C170 C 0.77877 0.45244 0.15937 0.0
C171 C 0.7719 0.44115 0.20747 0.0
C172 C 0.77026 0.46383 0.06348 0.0
C173 C 0.77657 0.48837 0.06322 0.0
C174 C 0.77984 0.50096 0.01448 0.0
C175 C 0.77761 0.48836 0.96576 0.0
C176 C 0.7721 0.46358 0.96568 0.0
C177 C 0.76839 0.45146 0.01465 0.0
C178 C 0.76855 0.45049 0.91465 0.0
C179 C 0.75225 0.45921 0.87594 0.0
C180 C 0.78018 0.42833 0.90614 0.0
C181 C 0.77497 0.41468 0.86057 0.0
C182 C 0.75767 0.42269 0.82302 0.0
C183 C 0.78381 0.52752 0.01449 0.0
C184 C 0.77109 0.54216 0.05077 0.0
C185 C 0.79959 0.53854 0.97739 0.0
C186 C 0.80232 0.56368 0.97622 0.0
C187 C 0.78949 0.57821 0.01242 0.0
C188 C 0.77399 0.56719 0.0499 0.0
C189 C 0.74674 0.44538 0.83067 0.0
H190 H 0.71672 0.41989 0.1685 0.0
H191 H 0.72883 0.43939 0.08441 0.0
H192 H 0.79613 0.46147 0.15709 0.0
H193 H 0.78406 0.44164 0.24158 0.0
H194 H 0.77802 0.49786 0.10109 0.0
H195 H 0.76331 0.43251 0.01473 0.0
H196 H 0.77958 0.49787 0.92781 0.0
H197 H 0.74292 0.47619 0.88192 0.0
H198 H 0.79304 0.4214 0.93522 0.0
H199 H 0.7842 0.3976 0.85532 0.0
H200 H 0.75835 0.53438 0.07902 0.0
H201 H 0.80984 0.52774 0.94931 0.0
H202 H 0.73316 0.45203 0.80299 0.0
H203 H 0.76353 0.578 0.07759 0.0
H204 H 0.81451 0.57176 0.94714 0.0
C205 C 0.03649 0.26078 0.70215 0.0
C206 C 0.05992 0.27056 0.70503 0.0
C207 C 0.02263 0.26358 0.65564 0.0
C208 C 0.03179 0.27646 0.61118 0.0
C209 C 0.05448 0.2877 0.61558 0.0
C210 C 0.06845 0.28465 0.66178 0.0
C211 C 0.01885 0.27601 0.55889 0.0
C212 C 0.99353 0.27697 0.55672 0.0
C213 C 0.98109 0.27336 0.508 0.0
C214 C 0.99454 0.2694 0.4608 0.0
C215 C 0.01983 0.26971 0.46213 0.0
C216 C 0.03184 0.2728 0.5111 0.0
C217 C 0.03417 0.2662 0.41291 0.0
C218 C 0.03262 0.24454 0.38409 0.0
C219 C 0.05113 0.28376 0.39751 0.0
C220 C 0.067 0.27938 0.3552 0.0
C221 C 0.06658 0.25711 0.32815 0.0
C222 C 0.95417 0.27368 0.5067 0.0
C223 C 0.94065 0.26545 0.55109 0.0
C224 C 0.94171 0.2825 0.46141 0.0
C225 C 0.91651 0.28306 0.46054 0.0
C226 C 0.90301 0.27548 0.50553 0.0
C227 C 0.91547 0.26667 0.55083 0.0
C228 C 0.0488 0.23995 0.34222 0.0
H229 H 0.02915 0.25024 0.73515 0.0
H230 H 0.00525 0.25459 0.65362 0.0
H231 H 0.06187 0.29815 0.58249 0.0
H232 H 0.08646 0.29235 0.66227 0.0
H233 H 0.9836 0.28065 0.59323 0.0
H234 H 0.05139 0.27167 0.51199 0.0
H235 H 0.98551 0.26606 0.42292 0.0
H236 H 0.01973 0.23071 0.39573 0.0
H237 H 0.05244 0.30068 0.41909 0.0
H238 H 0.08 0.29326 0.34456 0.0
H239 H 0.94944 0.25798 0.58632 0.0
H240 H 0.95135 0.28933 0.42665 0.0
H241 H 0.04808 0.22252 0.32266 0.0
H242 H 0.90589 0.26098 0.58664 0.0
H243 H 0.90768 0.28945 0.42434 0.0
C244 C 0.73055 0.94312 0.64765 0.0
C245 C 0.75362 0.93321 0.6561 0.0
C246 C 0.72555 0.95618 0.60066 0.0
C247 C 0.7434 0.95903 0.56107 0.0
C248 C 0.76661 0.94969 0.57016 0.0
C249 C 0.77174 0.93707 0.61751 0.0
C250 C 0.73735 0.97 0.50857 0.0
C251 C 0.72853 0.99371 0.50505 0.0
C252 C 0.7227 0.0041 0.45472 0.0
C253 C 0.72504 0.98975 0.40835 0.0
C254 C 0.73487 0.96645 0.41144 0.0
C255 C 0.74091 0.95666 0.46163 0.0
C256 C 0.74042 0.95292 0.36196 0.0
C257 C 0.72276 0.94945 0.32219 0.0
C258 C 0.76374 0.94364 0.35415 0.0
C259 C 0.76932 0.93096 0.30754 0.0
C260 C 0.75159 0.92706 0.26816 0.0
C261 C 0.71641 0.03034 0.45003 0.0
C262 C 0.70561 0.04281 0.49293 0.0
C263 C 0.72272 0.04362 0.40362 0.0
C264 C 0.71905 0.06852 0.40084 0.0
C265 C 0.70995 0.08123 0.44518 0.0
C266 C 0.70282 0.06792 0.49093 0.0
C267 C 0.72824 0.9364 0.27581 0.0
H268 H 0.71632 0.94037 0.67694 0.0
H269 H 0.70749 0.96316 0.59419 0.0
H270 H 0.78063 0.95173 0.54007 0.0
H271 H 0.7896 0.92941 0.62291 0.0
H272 H 0.72737 0.00421 0.54153 0.0
H273 H 0.7482 0.93849 0.46421 0.0
H274 H 0.72013 0.99687 0.36925 0.0
H275 H 0.70465 0.95647 0.32744 0.0
H276 H 0.77772 0.94633 0.38406 0.0
H277 H 0.78736 0.9237 0.30283 0.0
H278 H 0.69978 0.03336 0.52885 0.0
H279 H 0.73144 0.03515 0.36972 0.0
H280 H 0.71429 0.93361 0.24592 0.0
H281 H 0.69586 0.07685 0.52626 0.0
H282 H 0.72403 0.07781 0.36408 0.0
C283 C 0.53259 0.26182 0.21295 0.0
C284 C 0.55023 0.27999 0.2091 0.0
C285 C 0.51929 0.25512 0.16758 0.0
C286 C 0.52334 0.26665 0.1178 0.0
C287 C 0.53974 0.28607 0.11529 0.0
C288 C 0.55317 0.29255 0.16039 0.0
C289 C 0.51217 0.25713 0.0679 0.0
C290 C 0.48814 0.24896 0.06745 0.0
C291 C 0.47805 0.23853 0.021 0.0
C292 C 0.49246 0.23661 0.97457 0.0
C293 C 0.5161 0.2457 0.97376 0.0
C294 C 0.52593 0.25555 0.02069 0.0
C295 C 0.5304 0.24582 0.92346 0.0
C296 C 0.53201 0.22508 0.89128 0.0
C297 C 0.54264 0.26693 0.90754 0.0
C298 C 0.55651 0.26726 0.86083 0.0
C299 C 0.55855 0.24644 0.82907 0.0
C300 C 0.45224 0.23069 0.02029 0.0
C301 C 0.44088 0.222 0.0672 0.0
C302 C 0.43845 0.23264 0.97296 0.0
C303 C 0.41402 0.22648 0.97273 0.0
C304 C 0.40235 0.21907 0.02026 0.0
C305 C 0.41621 0.21659 0.06737 0.0
C306 C 0.54611 0.22535 0.84461 0.0
H307 H 0.53017 0.25178 0.25008 0.0
H308 H 0.50689 0.24002 0.17084 0.0
H309 H 0.54282 0.29574 0.07793 0.0
H310 H 0.56655 0.30679 0.15674 0.0
H311 H 0.47721 0.25135 0.10309 0.0
H312 H 0.54459 0.26154 0.02056 0.0
H313 H 0.48524 0.22849 0.93847 0.0
H314 H 0.52279 0.20856 0.90278 0.0
H315 H 0.54148 0.28325 0.9313 0.0
H316 H 0.56616 0.28367 0.85031 0.0
H317 H 0.45091 0.2196 0.10419 0.0
H318 H 0.44622 0.23956 0.93605 0.0
H319 H 0.54733 0.20907 0.82075 0.0
H320 H 0.40797 0.21111 0.10496 0.0
H321 H 0.40427 0.22795 0.93514 0.0
C322 C 0.25099 0.05598 0.33505 0.0
C323 C 0.26673 0.07503 0.32094 0.0
C324 C 0.25655 0.04048 0.37793 0.0
C325 C 0.27778 0.04395 0.40778 0.0
C326 C 0.2941 0.06206 0.39208 0.0
C327 C 0.28877 0.07727 0.34874 0.0
C328 C 0.2815 0.03082 0.45894 0.0
C329 C 0.28195 0.00549 0.46094 0.0
C330 C 0.28468 0.99339 0.51043 0.0
C331 C 0.28659 0.0069 0.55789 0.0
C332 C 0.28517 0.03225 0.55667 0.0
C333 C 0.28304 0.04403 0.50673 0.0
C334 C 0.28348 0.04635 0.60731 0.0
C335 C 0.2703 0.03725 0.65135 0.0
C336 C 0.29317 0.06982 0.61046 0.0
C337 C 0.2884 0.08439 0.65484 0.0
C338 C 0.27419 0.07569 0.69768 0.0
C339 C 0.28397 0.96664 0.51352 0.0
C340 C 0.26594 0.95372 0.4862 0.0
C341 C 0.30036 0.95399 0.54636 0.0
C342 C 0.29858 0.92892 0.55226 0.0
C343 C 0.2803 0.91599 0.52562 0.0
C344 C 0.26407 0.92868 0.49231 0.0
C345 C 0.26593 0.05165 0.69616 0.0
H346 H 0.23376 0.05381 0.31499 0.0
H347 H 0.24362 0.02672 0.38976 0.0
H348 H 0.31066 0.06491 0.41446 0.0
H349 H 0.30163 0.09129 0.33815 0.0
H350 H 0.28032 0.99527 0.42406 0.0
H351 H 0.28121 0.06353 0.5049 0.0
H352 H 0.28831 -0.00245 0.59608 0.0
H353 H 0.26234 0.01936 0.65043 0.0
H354 H 0.30384 0.07727 0.57785 0.0
H355 H 0.29499 0.10283 0.65425 0.0
H356 H 0.25281 0.96306 0.46137 0.0
H357 H 0.31456 0.96351 0.56752 0.0
H358 H 0.25544 0.04411 0.72894 0.0
H359 H 0.24956 0.91934 0.47185 0.0
H360 H 0.31161 0.91964 0.57744 0.0
C361 C 0.44744 0.74187 0.83016 0.0
C362 C 0.42808 0.75723 0.8168 0.0
C363 C 0.46119 0.74601 0.87636 0.0
C364 C 0.45571 0.76544 0.91033 0.0
C365 C 0.4371 0.7814 0.89585 0.0
C366 C 0.42356 0.77746 0.84936 0.0
C367 C 0.46817 0.76794 0.96266 0.0
C368 C 0.4934 0.76635 0.96602 0.0
C369 C 0.50514 0.76698 0.01614 0.0
C370 C 0.49123 0.76887 0.06323 0.0
C371 C 0.46598 0.77062 0.06026 0.0
C372 C 0.45461 0.77046 0.00988 0.0
C373 C 0.45107 0.77087 0.1095 0.0
C374 C 0.453 0.75205 0.14727 0.0
C375 C 0.4333 0.78864 0.11645 0.0
C376 C 0.41712 0.78711 0.1594 0.0
C377 C 0.41801 0.76747 0.19562 0.0
C378 C 0.53189 0.76564 0.01898 0.0
C379 C 0.54464 0.74967 0.98569 0.0
C380 C 0.54489 0.78082 0.05372 0.0
C381 C 0.57014 0.78044 0.05421 0.0
C382 C 0.58288 0.76488 0.01992 0.0
C383 C 0.56986 0.74932 0.98612 0.0
C384 C 0.43654 0.75025 0.18969 0.0
H385 H 0.45129 0.72599 0.80642 0.0
H386 H 0.47535 0.73333 0.88689 0.0
H387 H 0.43276 0.79671 0.92104 0.0
H388 H 0.40917 0.78999 0.83959 0.0
H389 H 0.50388 0.76493 0.92939 0.0
H390 H 0.43504 0.77106 0.00766 0.0
H391 H 0.49998 0.76871 0.10222 0.0
H392 H 0.46645 0.73801 0.14234 0.0
H393 H 0.43163 0.80343 0.08796 0.0
H394 H 0.40352 0.80105 0.16337 0.0
H395 H 0.53513 0.73741 0.95924 0.0
H396 H 0.53558 0.7935 0.07943 0.0
H397 H 0.43767 0.73468 0.21614 0.0
H398 H 0.57917 0.73681 0.95997 0.0
H399 H 0.5797 0.7928 0.08032 0.0
H400 H 0.15972 0.23845 0.18897 0.0
H401 H 0.10843 0.19911 0.09194 0.0
H402 H 0.07585 0.21061 0.153 0.0
H403 H 0.06209 0.23165 0.23447 0.0
H404 H 0.11441 0.26891 0.33303 0.0
H405 H 0.14627 0.25881 0.26996 0.0
C406 C 0.14142 0.23243 0.18086 0.0
C407 C 0.13658 0.21795 0.13585 0.0
C408 C 0.12288 0.23888 0.21623 0.0
C409 C 0.11273 0.21021 0.12639 0.0
C410 C 0.09407 0.21681 0.16124 0.0
C411 C 0.08047 0.23744 0.24235 0.0
C412 C 0.08569 0.25125 0.28832 0.0
C413 C 0.09897 0.23106 0.20645 0.0
C414 C 0.10964 0.25878 0.29745 0.0
C415 C 0.12799 0.25281 0.26165 0.0
H416 H 0.29838 0.62837 0.63016 0.0
H417 H 0.23136 0.66394 0.66996 0.0
H418 H 0.22236 0.63239 0.73599 0.0
H419 H 0.23504 0.59643 0.78764 0.0
H420 H 0.30281 0.56203 0.75024 0.0
H421 H 0.30992 0.59131 0.67795 0.0
C422 C 0.28164 0.62913 0.65273 0.0
C423 C 0.26568 0.64866 0.64516 0.0
C424 C 0.27677 0.61117 0.6914 0.0
C425 C 0.24411 0.64926 0.67508 0.0
C426 C 0.23892 0.6312 0.71294 0.0
C427 C 0.25114 0.59512 0.76297 0.0
C428 C 0.26841 0.57716 0.77429 0.0
C429 C 0.25533 0.61232 0.72217 0.0
C430 C 0.28935 0.57584 0.74252 0.0
C431 C 0.29342 0.59256 0.70122 0.0
H432 H 0.83843 0.73454 0.10383 0.0
H433 H 0.86903 0.80517 0.07372 0.0
H434 H 0.90283 0.79584 0.1335 0.0
H435 H 0.92228 0.76854 0.19876 0.0
H436 H 0.89187 0.69782 0.22798 0.0
H437 H 0.85963 0.70607 0.16331 0.0
C438 C 0.85253 0.74786 0.11025 0.0
C439 C 0.85107 0.77062 0.08497 0.0
C440 C 0.87199 0.74232 0.1443 0.0
C441 C 0.8697 0.78754 0.09285 0.0
C442 C 0.88901 0.78224 0.12709 0.0
C443 C 0.90869 0.7549 0.19051 0.0
C444 C 0.90934 0.73268 0.21819 0.0
C445 C 0.89013 0.75984 0.15364 0.0
C446 C 0.89184 0.71499 0.20679 0.0
C447 C 0.8733 0.71978 0.17021 0.0
H448 H 0.71879 0.36872 0.61643 0.0
H449 H 0.72655 0.30737 0.72327 0.0
H450 H 0.74173 0.33369 0.79374 0.0
H451 H 0.75151 0.37399 0.8262 0.0
H452 H 0.74586 0.43548 0.71926 0.0
H453 H 0.73076 0.40923 0.64799 0.0
C454 C 0.72379 0.36113 0.65515 0.0
C455 C 0.72142 0.33611 0.66453 0.0
C456 C 0.73277 0.37637 0.69558 0.0
C457 C 0.72823 0.32654 0.71478 0.0
C458 C 0.73688 0.34158 0.75524 0.0
C459 C 0.74748 0.38168 0.78704 0.0
C460 C 0.74988 0.40672 0.77827 0.0
C461 C 0.73915 0.36649 0.74613 0.0
C462 C 0.74391 0.41633 0.72748 0.0
C463 C 0.73538 0.40131 0.68658 0.0
H464 H 0.61344 0.29434 0.41823 0.0
H465 H 0.66991 0.27878 0.3038 0.0
H466 H 0.64019 0.27583 0.23211 0.0
H467 H 0.59835 0.27707 0.20169 0.0
H468 H 0.54105 0.2901 0.31491 0.0
H469 H 0.57084 0.29467 0.38749 0.0
C470 C 0.61917 0.29036 0.37757 0.0
C471 C 0.64384 0.28678 0.3664 0.0
C472 C 0.60188 0.28828 0.3364 0.0
C473 C 0.65102 0.28142 0.31361 0.0
C474 C 0.63407 0.27982 0.27247 0.0
C475 C 0.59245 0.28118 0.24221 0.0
C476 C 0.56772 0.28362 0.25312 0.0
C477 C 0.60951 0.28318 0.28342 0.0
C478 C 0.5601 0.28832 0.30583 0.0
C479 C 0.57709 0.2909 0.34714 0.0
H480 H 0.25281 0.15919 0.86274 0.0
H481 H 0.18416 0.12225 0.87067 0.0
H482 H 0.19909 0.09136 0.80903 0.0
H483 H 0.23058 0.0767 0.7485 0.0
H484 H 0.30024 0.11213 0.74521 0.0
H485 H 0.28577 0.14205 0.80915 0.0
C486 C 0.24116 0.14431 0.85104 0.0
C487 C 0.21735 0.1431 0.87052 0.0
C488 C 0.24995 0.12652 0.81628 0.0
C489 C 0.20255 0.12355 0.85603 0.0
C490 C 0.21105 0.10595 0.82072 0.0
C491 C 0.24289 0.09055 0.76262 0.0
C492 C 0.26644 0.0922 0.74142 0.0
C493 C 0.23461 0.10746 0.8001 0.0
C494 C 0.28186 0.11066 0.75977 0.0
C495 C 0.27365 0.12773 0.79661 0.0
H496 H 0.32333 0.75046 0.33161 0.0
H497 H 0.37473 0.71861 0.44169 0.0
H498 H 0.40792 0.73084 0.38267 0.0
H499 H 0.4221 0.74874 0.29758 0.0
H500 H 0.36985 0.77756 0.18513 0.0
H501 H 0.33743 0.76896 0.24817 0.0
C502 C 0.34179 0.74638 0.34314 0.0
C503 C 0.34647 0.73354 0.391 0.0
C504 C 0.36071 0.75301 0.30861 0.0
C505 C 0.37055 0.72834 0.40495 0.0
C506 C 0.38956 0.73533 0.37121 0.0
C507 C 0.40363 0.75308 0.28668 0.0
C508 C 0.3986 0.76385 0.23643 0.0
C509 C 0.38481 0.74732 0.32248 0.0
C510 C 0.37451 0.76972 0.22372 0.0
C511 C 0.35582 0.76455 0.25958 0.0
H512 H 0.7941 0.86818 0.84368 0.0
H513 H 0.73234 0.82485 0.79921 0.0
H514 H 0.71963 0.85599 0.73527 0.0
H515 H 0.72771 0.89413 0.68724 0.0
H516 H 0.79075 0.93615 0.72771 0.0
H517 H 0.80125 0.90701 0.79838 0.0
C518 C 0.77769 0.86565 0.82049 0.0
C519 C 0.76425 0.84415 0.8261 0.0
C520 C 0.77078 0.88337 0.78297 0.0
C521 C 0.74313 0.84113 0.7954 0.0
C522 C 0.73582 0.85894 0.75886 0.0
C523 C 0.74348 0.89708 0.71229 0.0
C524 C 0.75842 0.91721 0.70266 0.0
C525 C 0.74973 0.87993 0.75167 0.0
C526 C 0.77906 0.9207 0.73454 0.0
C527 C 0.78506 0.90406 0.77478 0.0
H528 H 0.83364 0.7345 0.80832 0.0
H529 H 0.86801 0.80343 0.83622 0.0
H530 H 0.90063 0.79263 0.77468 0.0
H531 H 0.91797 0.76457 0.70877 0.0
H532 H 0.88363 0.69564 0.68155 0.0
H533 H 0.85259 0.70528 0.74788 0.0
C534 C 0.84829 0.74716 0.801 0.0
C535 C 0.84824 0.76987 0.82616 0.0
C536 C 0.86701 0.74078 0.76593 0.0
C537 C 0.86759 0.78587 0.81717 0.0
C538 C 0.88622 0.77973 0.78194 0.0
C539 C 0.90376 0.75163 0.71772 0.0
C540 C 0.90294 0.72952 0.69015 0.0
C541 C 0.8859 0.75739 0.7555 0.0
C542 C 0.88469 0.71271 0.70257 0.0
C543 C 0.86685 0.7183 0.74011 0.0
H544 H 0.69845 0.37233 0.39874 0.0
H545 H 0.7658 0.33324 0.39368 0.0
H546 H 0.78214 0.36256 0.32946 0.0
H547 H 0.77546 0.39629 0.26662 0.0
H548 H 0.70705 0.43344 0.26639 0.0
H549 H 0.69293 0.40807 0.34094 0.0
C550 C 0.71688 0.37058 0.38447 0.0
C551 C 0.73087 0.35065 0.40064 0.0
C552 C 0.72583 0.38699 0.34608 0.0
C553 C 0.75464 0.34838 0.38141 0.0
C554 C 0.76397 0.36509 0.34464 0.0
C555 C 0.75767 0.39912 0.28377 0.0
C556 C 0.74225 0.41656 0.26117 0.0
C557 C 0.74946 0.38401 0.32543 0.0
C558 C 0.71911 0.41994 0.28308 0.0
C559 C 0.71106 0.40546 0.32561 0.0
H560 H 0.14486 0.25537 0.8699 0.0
H561 H 0.11404 0.18373 0.87682 0.0
H562 H 0.08117 0.19662 0.81719 0.0
H563 H 0.06362 0.22725 0.75717 0.0
H564 H 0.09341 0.29953 0.75438 0.0
H565 H 0.12448 0.28727 0.81844 0.0
C566 C 0.13085 0.24262 0.8585 0.0
C567 C 0.13198 0.21857 0.87678 0.0
C568 C 0.11201 0.25021 0.82487 0.0
C569 C 0.11352 0.20232 0.8629 0.0
C570 C 0.09482 0.20967 0.82877 0.0
C571 C 0.07647 0.24056 0.77154 0.0
C572 C 0.07633 0.26423 0.75027 0.0
C573 C 0.09415 0.23346 0.80877 0.0
C574 C 0.0934 0.28106 0.76905 0.0
C575 C 0.11113 0.27409 0.80585 0.0
H576 H 0.28547 0.61922 0.42476 0.0
H577 H 0.27467 0.67678 0.30902 0.0
H578 H 0.27264 0.64772 0.23675 0.0
H579 H 0.27382 0.60628 0.20541 0.0
H580 H 0.28219 0.5476 0.31831 0.0
H581 H 0.28523 0.57662 0.39265 0.0
C582 C 0.28265 0.62529 0.38372 0.0
C583 C 0.28014 0.65014 0.37249 0.0
C584 C 0.28112 0.60832 0.3418 0.0
C585 C 0.27637 0.65777 0.31907 0.0
C586 C 0.27533 0.64118 0.27748 0.0
C587 C 0.27652 0.5999 0.24631 0.0
C588 C 0.27817 0.57505 0.25661 0.0
C589 C 0.2777 0.6165 0.28833 0.0
C590 C 0.28104 0.56679 0.30972 0.0
C591 C 0.28277 0.58335 0.35203 0.0
H592 H 0.36958 0.72042 0.6142 0.0
H593 H 0.31018 0.74495 0.71246 0.0
H594 H 0.33831 0.75831 0.78106 0.0
H595 H 0.37932 0.76155 0.8153 0.0
H596 H 0.43938 0.73855 0.71762 0.0
H597 H 0.41137 0.72581 0.6471 0.0
C598 C 0.36281 0.72873 0.65056 0.0
C599 C 0.33774 0.73153 0.65804 0.0
C600 C 0.37916 0.73656 0.69017 0.0
C601 C 0.32933 0.74253 0.70535 0.0
C602 C 0.34541 0.75018 0.74482 0.0
C603 C 0.38642 0.75424 0.77818 0.0
C604 C 0.41146 0.75109 0.77187 0.0
C605 C 0.37031 0.74715 0.73781 0.0
C606 C 0.42017 0.74096 0.72389 0.0
C607 C 0.40417 0.73375 0.68343 0.0
H608 H 0.79523 0.86671 0.0778 0.0
H609 H 0.73266 0.82265 0.11285 0.0
H610 H 0.71894 0.85214 0.17863 0.0
H611 H 0.72633 0.88878 0.23121 0.0
H612 H 0.78995 0.93171 0.20022 0.0
H613 H 0.80164 0.90443 0.12763 0.0
C614 C 0.77844 0.86374 0.09933 0.0
C615 C 0.76506 0.84248 0.09068 0.0
C616 C 0.77093 0.88049 0.13804 0.0
C617 C 0.74341 0.83878 0.11917 0.0
C618 C 0.73553 0.85563 0.15674 0.0
C619 C 0.74251 0.89235 0.20785 0.0
C620 C 0.75728 0.91213 0.22079 0.0
C621 C 0.74937 0.8763 0.16722 0.0
C622 C 0.77841 0.91645 0.19097 0.0
C623 C 0.78508 0.90088 0.14956 0.0
H624 H 0.64295 0.23926 0.66133 0.0
H625 H 0.61366 0.30842 0.61296 0.0
H626 H 0.58032 0.30321 0.6761 0.0
H627 H 0.56182 0.28094 0.75129 0.0
H628 H 0.5918 0.21242 0.80117 0.0
H629 H 0.62232 0.2153 0.73052 0.0
C630 C 0.62916 0.25312 0.66412 0.0
C631 C 0.63107 0.27438 0.63299 0.0
C632 C 0.6102 0.25017 0.70094 0.0
C633 C 0.61278 0.29194 0.63661 0.0
C634 C 0.59374 0.28903 0.67289 0.0
C635 C 0.57495 0.26658 0.74636 0.0
C636 C 0.57475 0.24664 0.7817 0.0
C637 C 0.59266 0.26854 0.70626 0.0
C638 C 0.59153 0.22791 0.77432 0.0
C639 C 0.60909 0.22963 0.73421 0.0
H640 H 0.23868 0.16709 0.18403 0.0
H641 H 0.20315 0.11309 0.08715 0.0
H642 H 0.2185 0.08123 0.14647 0.0
H643 H 0.24139 0.06884 0.2271 0.0
H644 H 0.27483 0.12368 0.3255 0.0
H645 H 0.26136 0.15491 0.26342 0.0
C646 C 0.23431 0.14836 0.17555 0.0
C647 C 0.21969 0.14258 0.13115 0.0
C648 C 0.24299 0.1302 0.20994 0.0
C649 C 0.21426 0.11814 0.12113 0.0
C650 C 0.22307 0.09989 0.15502 0.0
C651 C 0.24566 0.08762 0.23512 0.0
C652 C 0.25932 0.09374 0.28091 0.0
C653 C 0.23731 0.10573 0.19982 0.0
C654 C 0.26487 0.11822 0.2901 0.0
C655 C 0.25694 0.13621 0.25488 0.0
H656 H 0.21071 0.29794 0.08187 0.0
H657 H 0.19731 0.29615 0.91084 0.0
H658 H 0.20076 0.33999 0.90608 0.0
H659 H 0.21134 0.37844 0.94868 0.0
H660 H 0.22469 0.38039 0.11947 0.0
H661 H 0.21759 0.3369 0.12588 0.0
C662 C 0.20825 0.30711 0.04363 0.0
C663 C 0.20408 0.29362 0.99675 0.0
C664 C 0.21052 0.33238 0.04091 0.0
C665 C 0.20078 0.30595 0.94761 0.0
C666 C 0.20278 0.33108 0.94473 0.0
C667 C 0.21222 0.36944 0.98747 0.0
C668 C 0.21884 0.3826 0.03336 0.0
C669 C 0.2082 0.34442 0.99088 0.0
C670 C 0.22011 0.37059 0.08329 0.0
C671 C 0.21596 0.34574 0.08706 0.0
H672 H 0.19243 0.68463 0.44852 0.0
H673 H 0.18784 0.74774 0.54903 0.0
H674 H 0.1438 0.74613 0.54542 0.0
H675 H 0.10698 0.72718 0.5136 0.0
H676 H 0.11061 0.66113 0.42198 0.0
H677 H 0.15467 0.66387 0.42096 0.0
C678 C 0.18167 0.69799 0.46942 0.0
C679 C 0.19318 0.71632 0.49883 0.0
C680 C 0.15629 0.69651 0.46856 0.0
C681 C 0.17924 0.73342 0.52637 0.0
C682 C 0.15412 0.73254 0.52422 0.0
C683 C 0.11724 0.71296 0.49439 0.0
C684 C 0.10525 0.69388 0.46826 0.0
C685 C 0.14248 0.71411 0.4957 0.0
C686 C 0.11917 0.67624 0.44194 0.0
C687 C 0.14443 0.67767 0.44165 0.0
H688 H 0.78882 0.69089 0.04371 0.0
H689 H 0.77963 0.68904 0.87133 0.0
H690 H 0.78357 0.64507 0.87283 0.0
H691 H 0.7871 0.60697 0.92385 0.0
H692 H 0.79558 0.60913 0.0961 0.0
H693 H 0.79445 0.65328 0.09379 0.0
C694 C 0.78774 0.68096 0.00632 0.0
C695 C 0.78368 0.69331 0.95756 0.0
C696 C 0.78983 0.65572 0.00746 0.0
C697 C 0.7826 0.68004 0.90954 0.0
C698 C 0.78484 0.65488 0.91032 0.0
C699 C 0.7891 0.61716 0.9607 0.0
C700 C 0.79131 0.60489 0.01008 0.0
C701 C 0.78815 0.64251 0.95914 0.0
C702 C 0.7936 0.61824 0.05769 0.0
C703 C 0.79299 0.64344 0.05639 0.0
H704 H 0.79127 0.29466 0.47642 0.0
H705 H 0.78666 0.23348 0.58403 0.0
H706 H 0.83093 0.23094 0.58692 0.0
H707 H 0.87053 0.24527 0.5555 0.0
H708 H 0.87456 0.3095 0.45576 0.0
H709 H 0.83076 0.31123 0.45197 0.0
C710 C 0.80003 0.2808 0.50057 0.0
C711 C 0.78596 0.2641 0.52951 0.0
C712 C 0.82526 0.27983 0.50286 0.0
C713 C 0.79729 0.24649 0.56148 0.0
C714 C 0.82252 0.24501 0.56291 0.0
C715 C 0.86198 0.25997 0.53372 0.0
C716 C 0.87612 0.277 0.50529 0.0
C717 C 0.83667 0.26151 0.53341 0.0
C718 C 0.86438 0.29563 0.47668 0.0
C719 C 0.83925 0.29685 0.47494 0.0
H720 H 0.72683 0.19417 0.43124 0.0
H721 H 0.66855 0.19364 0.54605 0.0
H722 H 0.6643 0.14975 0.53606 0.0
H723 H 0.67844 0.11157 0.4974 0.0
H724 H 0.74104 0.11229 0.39317 0.0
H725 H 0.74168 0.15603 0.3949 0.0
C726 C 0.713 0.18443 0.45349 0.0
C727 C 0.69789 0.19696 0.48892 0.0
C728 C 0.71137 0.15923 0.44925 0.0
C729 C 0.68035 0.18422 0.51848 0.0
C730 C 0.67795 0.15919 0.51279 0.0
C731 C 0.69244 0.12114 0.47546 0.0
C732 C 0.70949 0.10824 0.44484 0.0
C733 C 0.69364 0.14646 0.47889 0.0
C734 C 0.72712 0.12137 0.41592 0.0
C735 C 0.72778 0.14654 0.41737 0.0
H736 H 0.29153 0.19452 0.0555 0.0
H737 H 0.28468 0.24754 0.92858 0.0
H738 H 0.32851 0.25243 0.92569 0.0
H739 H 0.36823 0.24291 0.96146 0.0
H740 H 0.37606 0.18654 0.08127 0.0
H741 H 0.33225 0.18217 0.08568 0.0
C742 C 0.29974 0.20706 0.0272 0.0
C743 C 0.28505 0.22076 0.99252 0.0
C744 C 0.32499 0.20936 0.02484 0.0
C745 C 0.29574 0.23675 0.95548 0.0
C746 C 0.32074 0.23962 0.95396 0.0
C747 C 0.3606 0.22917 0.98765 0.0
C748 C 0.37569 0.21516 0.02105 0.0
C749 C 0.3355 0.22609 0.98859 0.0
C750 C 0.36504 0.198 0.0558 0.0
C751 C 0.33994 0.19531 0.05808 0.0
H752 H 0.27522 0.80513 0.589 0.0
H753 H 0.25919 0.79977 0.41943 0.0
H754 H 0.26209 0.8434 0.40997 0.0
H755 H 0.27028 0.88299 0.44851 0.0
H756 H 0.28555 0.88919 0.61795 0.0
H757 H 0.28224 0.84532 0.6284 0.0
C758 C 0.2722 0.8135 0.55006 0.0
C759 C 0.26706 0.79905 0.50508 0.0
C760 C 0.27398 0.83876 0.54462 0.0
C761 C 0.26327 0.81031 0.45486 0.0
C762 C 0.26494 0.83533 0.44926 0.0
C763 C 0.27258 0.87482 0.4879 0.0
C764 C 0.27815 0.88937 0.5323 0.0
C765 C 0.27043 0.8497 0.49373 0.0
C766 C 0.28156 0.87838 0.58288 0.0
C767 C 0.27951 0.85331 0.58898 0.0
H768 H 0.6961 0.76755 0.05005 0.0
H769 H 0.6932 0.7654 0.87658 0.0
H770 H 0.64919 0.76451 0.87979 0.0
H771 H 0.61153 0.76451 0.93154 0.0
H772 H 0.61427 0.76646 0.10475 0.0
H773 H 0.65843 0.7675 0.10179 0.0
C774 C 0.6859 0.76686 0.01286 0.0
C775 C 0.69806 0.76649 0.96315 0.0
C776 C 0.66057 0.76638 0.0149 0.0
C777 C 0.68442 0.76569 0.91545 0.0
C778 C 0.65921 0.76517 0.91719 0.0
C779 C 0.6218 0.76491 0.96866 0.0
C780 C 0.60966 0.76531 0.01828 0.0
C781 C 0.64712 0.76546 0.96666 0.0
C782 C 0.6232 0.76633 0.06602 0.0
C783 C 0.64843 0.76682 0.06437 0.0
loop_
_geom_bond_atom_site_label_1
_geom_bond_atom_site_label_2
_geom_bond_distance
_geom_bond_site_symmetry_2
_ccdc_geom_bond_type
Sc0 O3 2.030 . S
Sc0 O10 2.105 . S
Sc0 O13 2.105 . S
Sc0 O16 2.105 . S
Sc0 O19 2.105 . S
Sc1 O3 2.025 . S
Sc1 O11 2.109 . S
Sc1 O15 2.101 1_554 S
Sc1 O17 2.109 . S
Sc1 O21 2.101 1_554 S
Sc2 O3 2.020 1_556 S
Sc2 O12 2.105 . S
Sc2 O14 2.105 . S
Sc2 O18 2.105 . S
Sc2 O20 2.105 . S
O3 Sc0 2.030 . S
O3 Sc1 2.025 . S
O3 Sc2 2.020 1_554 S
C4 O10 1.271 . S
C4 O20 1.265 1_554 S
C5 O11 1.268 . S
C5 O19 1.268 . S
C6 O12 1.268 . S
C6 O21 1.268 . S
C7 O13 1.268 . S
C7 O17 1.268 . S
C8 O14 1.261 1_554 S
C8 O16 1.276 . S
C9 O15 1.268 . S
C9 O18 1.268 . S
O10 Sc0 2.105 . S
O10 C4 1.271 . S
O11 Sc1 2.109 . S
O11 C5 1.268 . S
O12 Sc2 2.105 . S
O12 C6 1.268 . S
O13 Sc0 2.105 . S
O13 C7 1.268 . S
O14 Sc2 2.105 . S
O14 C8 1.261 1_556 S
O15 Sc1 2.101 1_556 S
O15 C9 1.268 . S
O16 Sc0 2.105 . S
O16 C8 1.276 . S
O17 Sc1 2.109 . S
O17 C7 1.268 . S
O18 Sc2 2.105 . S
O18 C9 1.268 . S
O19 Sc0 2.105 . S
O19 C5 1.268 . S
O20 Sc2 2.105 . S
O20 C4 1.265 1_556 S
O21 Sc1 2.101 1_556 S
O21 C6 1.268 . S
Sc22 O25 2.025 . S
Sc22 O32 2.105 . S
Sc22 O35 2.105 . S
Sc22 O38 2.105 . S
Sc22 O41 2.105 . S
Sc23 O25 2.025 . S
Sc23 O33 2.105 . S
Sc23 O37 2.105 . S
Sc23 O39 2.105 . S
Sc23 O43 2.105 . S
Sc24 O25 2.025 . S
Sc24 O34 2.105 . S
Sc24 O36 2.105 . S
Sc24 O40 2.105 . S
Sc24 O42 2.105 . S
O25 Sc22 2.025 . S
O25 Sc23 2.025 . S
O25 Sc24 2.025 . S
C26 O32 1.268 . S
C26 O42 1.268 . S
C27 O33 1.268 . S
C27 O41 1.268 . S
C28 O34 1.268 . S
C28 O43 1.268 . S
C29 O35 1.268 . S
C29 O39 1.268 . S
C30 O36 1.268 . S
C30 O38 1.268 . S
C31 O37 1.268 . S
C31 O40 1.268 . S
O32 Sc22 2.105 . S
O32 C26 1.268 . S
O33 Sc23 2.105 . S
O33 C27 1.268 . S
O34 Sc24 2.105 . S
O34 C28 1.268 . S
O35 Sc22 2.105 . S
O35 C29 1.268 . S
O36 Sc24 2.105 . S
O36 C30 1.268 . S
O37 Sc23 2.105 . S
O37 C31 1.268 . S
O38 Sc22 2.105 . S
O38 C30 1.268 . S
O39 Sc23 2.105 . S
O39 C29 1.268 . S
O40 Sc24 2.105 . S
O40 C31 1.268 . S
O41 Sc22 2.105 . S
O41 C27 1.268 . S
O42 Sc24 2.105 . S
O42 C26 1.268 . S
O43 Sc23 2.105 . S
O43 C28 1.268 . S
Sc44 O47 2.020 1_556 S
Sc44 O54 2.105 . S
Sc44 O57 2.105 . S
Sc44 O60 2.105 . S
Sc44 O63 2.105 . S
Sc45 O47 2.025 . S
Sc45 O55 2.101 1_554 S
Sc45 O59 2.109 . S
Sc45 O61 2.101 1_554 S
Sc45 O65 2.109 . S
Sc46 O47 2.030 . S
Sc46 O56 2.105 . S
Sc46 O58 2.105 . S
Sc46 O62 2.105 . S
Sc46 O64 2.105 . S
O47 Sc44 2.020 1_554 S
O47 Sc45 2.025 . S
O47 Sc46 2.030 . S
C48 O54 1.265 1_554 S
C48 O64 1.271 . S
C49 O55 1.268 . S
C49 O63 1.268 . S
C50 O56 1.268 . S
C50 O65 1.268 . S
C51 O57 1.268 . S
C51 O61 1.268 . S
C52 O58 1.276 . S
C52 O60 1.261 1_554 S
C53 O59 1.268 . S
C53 O62 1.268 . S
O54 Sc44 2.105 . S
O54 C48 1.265 1_556 S
O55 Sc45 2.101 1_556 S
O55 C49 1.268 . S
O56 Sc46 2.105 . S
O56 C50 1.268 . S
O57 Sc44 2.105 . S
O57 C51 1.268 . S
O58 Sc46 2.105 . S
O58 C52 1.276 . S
O59 Sc45 2.109 . S
O59 C53 1.268 . S
O60 Sc44 2.105 . S
O60 C52 1.261 1_556 S
O61 Sc45 2.101 1_556 S
O61 C51 1.268 . S
O62 Sc46 2.105 . S
O62 C53 1.268 . S
O63 Sc44 2.105 . S
O63 C49 1.268 . S
O64 Sc46 2.105 . S
O64 C48 1.271 . S
O65 Sc45 2.109 . S
O65 C50 1.268 . S
Sc66 O69 2.025 . S
Sc66 O76 2.105 . S
Sc66 O79 2.105 . S
Sc66 O82 2.105 . S
Sc66 O85 2.105 . S
Sc67 O69 2.025 . S
Sc67 O77 2.105 . S
Sc67 O81 2.105 . S
Sc67 O83 2.105 . S
Sc67 O87 2.105 . S
Sc68 O69 2.025 . S
Sc68 O78 2.105 . S
Sc68 O80 2.105 . S
Sc68 O84 2.105 . S
Sc68 O86 2.105 . S
O69 Sc66 2.025 . S
O69 Sc67 2.025 . S
O69 Sc68 2.025 . S
C70 O76 1.268 . S
C70 O86 1.268 . S
C71 O77 1.268 . S
C71 O85 1.268 . S
C72 O78 1.268 . S
C72 O87 1.268 . S
C73 O79 1.268 . S
C73 O83 1.268 . S
C74 O80 1.268 . S
C74 O82 1.268 . S
C75 O81 1.268 . S
C75 O84 1.268 . S
O76 Sc66 2.105 . S
O76 C70 1.268 . S
O77 Sc67 2.105 . S
O77 C71 1.268 . S
O78 Sc68 2.105 . S
O78 C72 1.268 . S
O79 Sc66 2.105 . S
O79 C73 1.268 . S
O80 Sc68 2.105 . S
O80 C74 1.268 . S
O81 Sc67 2.105 . S
O81 C75 1.268 . S
O82 Sc66 2.105 . S
O82 C74 1.268 . S
O83 Sc67 2.105 . S
O83 C73 1.268 . S
O84 Sc68 2.105 . S
O84 C75 1.268 . S
O85 Sc66 2.105 . S
O85 C71 1.268 . S
O86 Sc68 2.105 . S
O86 C70 1.268 . S
O87 Sc67 2.105 . S
O87 C72 1.268 . S
C88 C89 1.386 . S
C88 C90 1.397 . S
C88 H112 0.931 . S
C89 C88 1.386 . S
C89 C93 1.397 . S
C90 C88 1.397 . S
C90 C91 1.384 . S
C90 H113 0.930 . S
C91 C90 1.384 . S
C91 C92 1.377 . S
C91 C94 1.481 . S
C92 C91 1.377 . S
C92 C93 1.389 . S
C92 H114 0.929 . S
C93 C89 1.397 . S
C93 C92 1.389 . S
C93 H115 0.931 . S
C94 C91 1.481 . S
C94 C95 1.387 . S
C94 C99 1.390 1_556 S
C95 C94 1.387 . S
C95 C96 1.401 1_556 S
C95 H116 0.930 . S
C96 C95 1.401 1_554 S
C96 C97 1.376 . S
C96 C105 1.511 . S
C97 C96 1.376 . S
C97 C98 1.392 . S
C97 H118 0.931 . S
C98 C97 1.392 . S
C98 C99 1.361 . S
C98 C100 1.500 . S
C99 C94 1.390 1_554 S
C99 C98 1.361 . S
C99 H117 0.931 . S
C100 C98 1.500 . S
C100 C101 1.371 . S
C100 C102 1.365 . S
C101 C100 1.371 . S
C101 C111 1.386 . S
C101 H119 0.931 . S
C102 C100 1.365 . S
C102 C103 1.409 . S
C102 H120 0.929 . S
C103 C102 1.409 . S
C103 C104 1.380 . S
C103 H121 0.930 . S
C104 C103 1.380 . S
C104 C111 1.357 . S
C105 C96 1.511 . S
C105 C106 1.341 1_554 S
C105 C107 1.371 . S
C106 C105 1.341 1_556 S
C106 C110 1.394 . S
C106 H122 0.930 . S
C107 C105 1.371 . S
C107 C108 1.392 . S
C107 H123 0.931 . S
C108 C107 1.392 . S
C108 C109 1.346 . S
C108 H126 0.932 . S
C109 C108 1.346 . S
C109 C110 1.321 1_554 S
C110 C106 1.394 . S
C110 C109 1.321 1_556 S
C110 H125 0.929 . S
C111 C101 1.386 . S
C111 C104 1.357 . S
C111 H124 0.928 . S
H112 C88 0.931 . S
H113 C90 0.930 . S
H114 C92 0.929 . S
H115 C93 0.931 . S
H116 C95 0.930 . S
H117 C99 0.931 . S
H118 C97 0.931 . S
H119 C101 0.931 . S
H120 C102 0.929 . S
H121 C103 0.930 . S
H122 C106 0.930 . S
H123 C107 0.931 . S
H124 C111 0.928 . S
H125 C110 0.929 . S
H126 C108 0.932 . S
C127 C128 1.386 . S
C127 C129 1.397 . S
C127 H151 0.931 . S
C128 C127 1.386 . S
C128 C132 1.397 . S
C129 C127 1.397 . S
C129 C130 1.384 . S
C129 H152 0.930 . S
C130 C129 1.384 . S
C130 C131 1.377 . S
C130 C133 1.481 . S
C131 C130 1.377 . S
C131 C132 1.389 . S
C131 H153 0.929 . S
C132 C128 1.397 . S
C132 C131 1.389 . S
C132 H154 0.931 . S
C133 C130 1.481 . S
C133 C134 1.387 . S
C133 C138 1.390 . S
C134 C133 1.387 . S
C134 C135 1.401 1_655 S
C134 H155 0.930 1_655 S
C135 C134 1.401 1_455 S
C135 C136 1.376 1_455 S
C135 C144 1.511 . S
C136 C135 1.376 1_655 S
C136 C137 1.392 . S
C136 H157 0.913 1_655 S
C137 C136 1.392 . S
C137 C138 1.361 . S
C137 C139 1.500 . S
C138 C133 1.390 . S
C138 C137 1.361 . S
C138 H156 0.931 . S
C139 C137 1.500 . S
C139 C140 1.371 . S
C139 C141 1.365 . S
C140 C139 1.371 . S
C140 C150 1.386 . S
C140 H158 0.931 . S
C141 C139 1.365 . S
C141 C142 1.409 . S
C141 H159 0.929 . S
C142 C141 1.409 . S
C142 C143 1.380 . S
C142 H160 0.930 . S
C143 C142 1.380 . S
C143 C150 1.357 . S
C144 C135 1.511 . S
C144 C145 1.341 . S
C144 C146 1.371 . S
C145 C144 1.341 . S
C145 C149 1.394 . S
C145 H161 0.930 . S
C146 C144 1.371 . S
C146 C147 1.392 . S
C146 H162 0.931 . S
C147 C146 1.392 . S
C147 C148 1.331 . S
C147 H165 0.932 . S
C148 C147 1.331 . S
C148 C149 1.336 . S
C149 C145 1.394 . S
C149 C148 1.336 . S
C149 H164 0.929 . S
C150 C140 1.386 . S
C150 C143 1.357 . S
C150 H163 0.928 . S
H151 C127 0.931 . S
H152 C129 0.930 . S
H153 C131 0.929 . S
H154 C132 0.931 . S
H155 C134 0.930 1_455 S
H156 C138 0.931 . S
H157 C136 0.913 1_455 S
H158 C140 0.931 . S
H159 C141 0.929 . S
H160 C142 0.930 . S
H161 C145 0.930 . S
H162 C146 0.931 . S
H163 C150 0.928 . S
H164 C149 0.929 . S
H165 C147 0.932 . S
C166 C167 1.386 . S
C166 C168 1.397 . S
C166 H190 0.931 . S
C167 C166 1.386 . S
C167 C171 1.397 . S
C168 C166 1.397 . S
C168 C169 1.384 . S
C168 H191 0.930 . S
C169 C168 1.384 . S
C169 C170 1.377 . S
C169 C172 1.481 . S
C170 C169 1.377 . S
C170 C171 1.389 . S
C170 H192 0.929 . S
C171 C167 1.397 . S
C171 C170 1.389 . S
C171 H193 0.931 . S
C172 C169 1.481 . S
C172 C173 1.387 . S
C172 C177 1.381 1_554 S
C173 C172 1.387 . S
C173 C174 1.401 1_554 S
C173 H194 0.930 . S
C174 C173 1.401 1_556 S
C174 C175 1.376 . S
C174 C183 1.511 . S
C175 C174 1.376 . S
C175 C176 1.392 . S
C175 H196 0.931 . S
C176 C175 1.392 . S
C176 C177 1.371 . S
C176 C178 1.500 . S
C177 C172 1.381 1_556 S
C177 C176 1.371 . S
C177 H195 0.931 . S
C178 C176 1.500 . S
C178 C179 1.371 . S
C178 C180 1.365 . S
C179 C178 1.371 . S
C179 C189 1.386 . S
C179 H197 0.931 . S
C180 C178 1.365 . S
C180 C181 1.409 . S
C180 H198 0.929 . S
C181 C180 1.409 . S
C181 C182 1.380 . S
C181 H199 0.930 . S
C182 C181 1.380 . S
C182 C189 1.357 . S
C183 C174 1.511 . S
C183 C184 1.341 1_556 S
C183 C185 1.371 . S
C184 C183 1.341 1_554 S
C184 C188 1.394 . S
C184 H200 0.930 . S
C185 C183 1.371 . S
C185 C186 1.392 . S
C185 H201 0.931 . S
C186 C185 1.392 . S
C186 C187 1.333 . S
C186 H204 0.932 . S
C187 C186 1.333 . S
C187 C188 1.334 1_556 S
C188 C184 1.394 . S
C188 C187 1.334 1_554 S
C188 H203 0.929 . S
C189 C179 1.386 . S
C189 C182 1.357 . S
C189 H202 0.928 . S
H190 C166 0.931 . S
H191 C168 0.930 . S
H192 C170 0.929 . S
H193 C171 0.931 . S
H194 C173 0.930 . S
H195 C177 0.931 . S
H196 C175 0.931 . S
H197 C179 0.931 . S
H198 C180 0.929 . S
H199 C181 0.930 . S
H200 C184 0.930 . S
H201 C185 0.931 . S
H202 C189 0.928 . S
H203 C188 0.929 . S
H204 C186 0.932 . S
C205 C206 1.386 . S
C205 C207 1.397 . S
C205 H229 0.931 . S
C206 C205 1.386 . S
C206 C210 1.397 . S
C207 C205 1.397 . S
C207 C208 1.384 . S
C207 H230 0.930 . S
C208 C207 1.384 . S
C208 C209 1.377 . S
C208 C211 1.481 . S
C209 C208 1.377 . S
C209 C210 1.389 . S
C209 H231 0.929 . S
C210 C206 1.397 . S
C210 C209 1.389 . S
C210 H232 0.931 . S
C211 C208 1.481 . S
C211 C212 1.387 . S
C211 C216 1.390 . S
C212 C211 1.387 . S
C212 C213 1.401 1_455 S
C212 H233 0.930 1_455 S
C213 C212 1.401 1_655 S
C213 C214 1.376 1_655 S
C213 C222 1.511 . S
C214 C213 1.376 1_455 S
C214 C215 1.392 . S
C214 H235 0.931 1_455 S
C215 C214 1.392 . S
C215 C216 1.361 . S
C215 C217 1.500 . S
C216 C211 1.390 . S
C216 C215 1.361 . S
C216 H234 0.931 . S
C217 C215 1.500 . S
C217 C218 1.371 . S
C217 C219 1.365 . S
C218 C217 1.371 . S
C218 C228 1.386 . S
C218 H236 0.931 . S
C219 C217 1.365 . S
C219 C220 1.409 . S
C219 H237 0.929 . S
C220 C219 1.409 . S
C220 C221 1.380 . S
C220 H238 0.930 . S
C221 C220 1.380 . S
C221 C228 1.357 . S
C222 C213 1.511 . S
C222 C223 1.341 . S
C222 C224 1.371 . S
C223 C222 1.341 . S
C223 C227 1.394 . S
C223 H239 0.930 . S
C224 C222 1.371 . S
C224 C225 1.392 . S
C224 H240 0.931 . S
C225 C224 1.392 . S
C225 C226 1.331 . S
C225 H243 0.932 . S
C226 C225 1.331 . S
C226 C227 1.336 . S
C227 C223 1.394 . S
C227 C226 1.336 . S
C227 H242 0.929 . S
C228 C218 1.386 . S
C228 C221 1.357 . S
C228 H241 0.928 . S
H229 C205 0.931 . S
H230 C207 0.930 . S
H231 C209 0.929 . S
H232 C210 0.931 . S
H233 C212 0.930 1_655 S
H234 C216 0.931 . S
H235 C214 0.931 1_655 S
H236 C218 0.931 . S
H237 C219 0.929 . S
H238 C220 0.930 . S
H239 C223 0.930 . S
H240 C224 0.931 . S
H241 C228 0.928 . S
H242 C227 0.929 . S
H243 C225 0.932 . S
C244 C245 1.386 . S
C244 C246 1.397 . S
C244 H268 0.931 . S
C245 C244 1.386 . S
C245 C249 1.397 . S
C246 C244 1.397 . S
C246 C247 1.384 . S
C246 H269 0.930 . S
C247 C246 1.384 . S
C247 C248 1.377 . S
C247 C250 1.481 . S
C248 C247 1.377 . S
C248 C249 1.389 . S
C248 H270 0.929 . S
C249 C245 1.397 . S
C249 C248 1.389 . S
C249 H271 0.931 . S
C250 C247 1.481 . S
C250 C251 1.387 . S
C250 C255 1.390 . S
C251 C250 1.387 . S
C251 C252 1.401 1_565 S
C251 H272 0.930 1_565 S
C252 C251 1.401 1_545 S
C252 C253 1.376 1_545 S
C252 C261 1.511 . S
C253 C252 1.376 1_565 S
C253 C254 1.392 . S
C253 H274 0.913 1_565 S
C254 C253 1.392 . S
C254 C255 1.361 . S
C254 C256 1.500 . S
C255 C250 1.390 . S
C255 C254 1.361 . S
C255 H273 0.931 . S
C256 C254 1.500 . S
C256 C257 1.371 . S
C256 C258 1.365 . S
C257 C256 1.371 . S
C257 C267 1.386 . S
C257 H275 0.931 . S
C258 C256 1.365 . S
C258 C259 1.409 . S
C258 H276 0.929 . S
C259 C258 1.409 . S
C259 C260 1.380 . S
C259 H277 0.930 . S
C260 C259 1.380 . S
C260 C267 1.357 . S
C261 C252 1.511 . S
C261 C262 1.341 . S
C261 C263 1.371 . S
C262 C261 1.341 . S
C262 C266 1.394 . S
C262 H278 0.930 . S
C263 C261 1.371 . S
C263 C264 1.392 . S
C263 H279 0.931 . S
C264 C263 1.392 . S
C264 C265 1.331 . S
C264 H282 0.932 . S
C265 C264 1.331 . S
C265 C266 1.336 . S
C266 C262 1.394 . S
C266 C265 1.336 . S
C266 H281 0.929 . S
C267 C257 1.386 . S
C267 C260 1.357 . S
C267 H280 0.928 . S
H268 C244 0.931 . S
H269 C246 0.930 . S
H270 C248 0.929 . S
H271 C249 0.931 . S
H272 C251 0.930 1_545 S
H273 C255 0.931 . S
H274 C253 0.913 1_545 S
H275 C257 0.931 . S
H276 C258 0.929 . S
H277 C259 0.930 . S
H278 C262 0.930 . S
H279 C263 0.931 . S
H280 C267 0.928 . S
H281 C266 0.929 . S
H282 C264 0.932 . S
C283 C284 1.386 . S
C283 C285 1.397 . S
C283 H307 0.931 . S
C284 C283 1.386 . S
C284 C288 1.397 . S
C285 C283 1.397 . S
C285 C286 1.384 . S
C285 H308 0.930 . S
C286 C285 1.384 . S
C286 C287 1.377 . S
C286 C289 1.481 . S
C287 C286 1.377 . S
C287 C288 1.389 . S
C287 H309 0.929 . S
C288 C284 1.397 . S
C288 C287 1.389 . S
C288 H310 0.931 . S
C289 C286 1.481 . S
C289 C290 1.387 . S
C289 C294 1.381 1_554 S
C290 C289 1.387 . S
C290 C291 1.401 1_554 S
C290 H311 0.930 . S
C291 C290 1.401 1_556 S
C291 C292 1.376 . S
C291 C300 1.511 . S
C292 C291 1.376 . S
C292 C293 1.392 . S
C292 H313 0.931 . S
C293 C292 1.392 . S
C293 C294 1.371 . S
C293 C295 1.500 . S
C294 C289 1.381 1_556 S
C294 C293 1.371 . S
C294 H312 0.931 . S
C295 C293 1.500 . S
C295 C296 1.371 . S
C295 C297 1.365 . S
C296 C295 1.371 . S
C296 C306 1.386 . S
C296 H314 0.931 . S
C297 C295 1.365 . S
C297 C298 1.409 . S
C297 H315 0.929 . S
C298 C297 1.409 . S
C298 C299 1.380 . S
C298 H316 0.930 . S
C299 C298 1.380 . S
C299 C306 1.357 . S
C300 C291 1.511 . S
C300 C301 1.341 1_556 S
C300 C302 1.371 . S
C301 C300 1.341 1_554 S
C301 C305 1.394 . S
C301 H317 0.930 . S
C302 C300 1.371 . S
C302 C303 1.392 . S
C302 H318 0.931 . S
C303 C302 1.392 . S
C303 C304 1.333 . S
C303 H321 0.932 . S
C304 C303 1.333 . S
C304 C305 1.334 1_556 S
C305 C301 1.394 . S
C305 C304 1.334 1_554 S
C305 H320 0.929 . S
C306 C296 1.386 . S
C306 C299 1.357 . S
C306 H319 0.928 . S
H307 C283 0.931 . S
H308 C285 0.930 . S
H309 C287 0.929 . S
H310 C288 0.931 . S
H311 C290 0.930 . S
H312 C294 0.931 . S
H313 C292 0.931 . S
H314 C296 0.931 . S
H315 C297 0.929 . S
H316 C298 0.930 . S
H317 C301 0.930 . S
H318 C302 0.931 . S
H319 C306 0.928 . S
H320 C305 0.929 . S
H321 C303 0.932 . S
C322 C323 1.386 . S
C322 C324 1.397 . S
C322 H346 0.931 . S
C323 C322 1.386 . S
C323 C327 1.397 . S
C324 C322 1.397 . S
C324 C325 1.384 . S
C324 H347 0.930 . S
C325 C324 1.384 . S
C325 C326 1.377 . S
C325 C328 1.481 . S
C326 C325 1.377 . S
C326 C327 1.389 . S
C326 H348 0.929 . S
C327 C323 1.397 . S
C327 C326 1.389 . S
C327 H349 0.931 . S
C328 C325 1.481 . S
C328 C329 1.387 . S
C328 C333 1.390 . S
C329 C328 1.387 . S
C329 C330 1.401 1_545 S
C329 H350 0.930 1_545 S
C330 C329 1.401 1_565 S
C330 C331 1.376 1_565 S
C330 C339 1.511 . S
C331 C330 1.376 1_545 S
C331 C332 1.392 . S
C331 H352 0.931 1_545 S
C332 C331 1.392 . S
C332 C333 1.361 . S
C332 C334 1.500 . S
C333 C328 1.390 . S
C333 C332 1.361 . S
C333 H351 0.931 . S
C334 C332 1.500 . S
C334 C335 1.371 . S
C334 C336 1.365 . S
C335 C334 1.371 . S
C335 C345 1.386 . S
C335 H353 0.931 . S
C336 C334 1.365 . S
C336 C337 1.409 . S
C336 H354 0.929 . S
C337 C336 1.409 . S
C337 C338 1.380 . S
C337 H355 0.930 . S
C338 C337 1.380 . S
C338 C345 1.357 . S
C339 C330 1.511 . S
C339 C340 1.341 . S
C339 C341 1.371 . S
C340 C339 1.341 . S
C340 C344 1.394 . S
C340 H356 0.930 . S
C341 C339 1.371 . S
C341 C342 1.392 . S
C341 H357 0.931 . S
C342 C341 1.392 . S
C342 C343 1.331 . S
C342 H360 0.932 . S
C343 C342 1.331 . S
C343 C344 1.336 . S
C344 C340 1.394 . S
C344 C343 1.336 . S
C344 H359 0.929 . S
C345 C335 1.386 . S
C345 C338 1.357 . S
C345 H358 0.928 . S
H346 C322 0.931 . S
H347 C324 0.930 . S
H348 C326 0.929 . S
H349 C327 0.931 . S
H350 C329 0.930 1_565 S
H351 C333 0.931 . S
H352 C331 0.931 1_565 S
H353 C335 0.931 . S
H354 C336 0.929 . S
H355 C337 0.930 . S
H356 C340 0.930 . S
H357 C341 0.931 . S
H358 C345 0.928 . S
H359 C344 0.929 . S
H360 C342 0.932 . S
C361 C362 1.386 . S
C361 C363 1.397 . S
C361 H385 0.931 . S
C362 C361 1.386 . S
C362 C366 1.397 . S
C363 C361 1.397 . S
C363 C364 1.384 . S
C363 H386 0.930 . S
C364 C363 1.384 . S
C364 C365 1.377 . S
C364 C367 1.481 . S
C365 C364 1.377 . S
C365 C366 1.389 . S
C365 H387 0.929 . S
C366 C362 1.397 . S
C366 C365 1.389 . S
C366 H388 0.931 . S
C367 C364 1.481 . S
C367 C368 1.387 . S
C367 C372 1.390 1_556 S
C368 C367 1.387 . S
C368 C369 1.401 1_556 S
C368 H389 0.930 . S
C369 C368 1.401 1_554 S
C369 C370 1.376 . S
C369 C378 1.511 . S
C370 C369 1.376 . S
C370 C371 1.392 . S
C370 H391 0.931 . S
C371 C370 1.392 . S
C371 C372 1.361 . S
C371 C373 1.500 . S
C372 C367 1.390 1_554 S
C372 C371 1.361 . S
C372 H390 0.931 . S
C373 C371 1.500 . S
C373 C374 1.371 . S
C373 C375 1.365 . S
C374 C373 1.371 . S
C374 C384 1.386 . S
C374 H392 0.931 . S
C375 C373 1.365 . S
C375 C376 1.409 . S
C375 H393 0.929 . S
C376 C375 1.409 . S
C376 C377 1.380 . S
C376 H394 0.930 . S
C377 C376 1.380 . S
C377 C384 1.357 . S
C378 C369 1.511 . S
C378 C379 1.341 1_554 S
C378 C380 1.371 . S
C379 C378 1.341 1_556 S
C379 C383 1.394 . S
C379 H395 0.930 . S
C380 C378 1.371 . S
C380 C381 1.392 . S
C380 H396 0.931 . S
C381 C380 1.392 . S
C381 C382 1.346 . S
C381 H399 0.932 . S
C382 C381 1.346 . S
C382 C383 1.321 1_554 S
C383 C379 1.394 . S
C383 C382 1.321 1_556 S
C383 H398 0.929 . S
C384 C374 1.386 . S
C384 C377 1.357 . S
C384 H397 0.928 . S
H385 C361 0.931 . S
H386 C363 0.930 . S
H387 C365 0.929 . S
H388 C366 0.931 . S
H389 C368 0.930 . S
H390 C372 0.931 . S
H391 C370 0.931 . S
H392 C374 0.931 . S
H393 C375 0.929 . S
H394 C376 0.930 . S
H395 C379 0.930 . S
H396 C380 0.931 . S
H397 C384 0.928 . S
H398 C383 0.929 . S
H399 C381 0.932 . S
H400 C406 0.930 . S
H401 C409 0.930 . S
H402 C410 0.930 . S
H403 C411 0.930 . S
H404 C414 0.930 . S
H405 C415 0.930 . S
C406 H400 0.930 . S
C406 C407 1.355 . S
C406 C408 1.415 . S
C407 C406 1.355 . S
C407 C409 1.419 . S
C408 C406 1.415 . S
C408 C413 1.425 . S
C408 C415 1.409 . S
C409 H401 0.930 . S
C409 C407 1.419 . S
C409 C410 1.362 . S
C410 H402 0.930 . S
C410 C409 1.362 . S
C410 C413 1.409 . S
C411 H403 0.930 . S
C411 C412 1.355 . S
C411 C413 1.415 . S
C412 C411 1.355 . S
C412 C414 1.419 . S
C413 C408 1.425 . S
C413 C410 1.409 . S
C413 C411 1.415 . S
C414 H404 0.930 . S
C414 C412 1.419 . S
C414 C415 1.362 . S
C415 H405 0.930 . S
C415 C408 1.409 . S
C415 C414 1.362 . S
H416 C422 0.930 . S
H417 C425 0.930 . S
H418 C426 0.930 . S
H419 C427 0.930 . S
H420 C430 0.930 . S
H421 C431 0.930 . S
C422 H416 0.930 . S
C422 C423 1.355 . S
C422 C424 1.415 . S
C423 C422 1.355 . S
C423 C425 1.419 . S
C424 C422 1.415 . S
C424 C429 1.425 . S
C424 C431 1.409 . S
C425 H417 0.930 . S
C425 C423 1.419 . S
C425 C426 1.362 . S
C426 H418 0.930 . S
C426 C425 1.362 . S
C426 C429 1.409 . S
C427 H419 0.930 . S
C427 C428 1.355 . S
C427 C429 1.415 . S
C428 C427 1.355 . S
C428 C430 1.419 . S
C429 C424 1.425 . S
C429 C426 1.409 . S
C429 C427 1.415 . S
C430 H420 0.930 . S
C430 C428 1.419 . S
C430 C431 1.362 . S
C431 H421 0.930 . S
C431 C424 1.409 . S
C431 C430 1.362 . S
H432 C438 0.930 . S
H433 C441 0.930 . S
H434 C442 0.930 . S
H435 C443 0.930 . S
H436 C446 0.930 . S
H437 C447 0.930 . S
C438 H432 0.930 . S
C438 C439 1.355 . S
C438 C440 1.415 . S
C439 C438 1.355 . S
C439 C441 1.419 . S
C440 C438 1.415 . S
C440 C445 1.425 . S
C440 C447 1.409 . S
C441 H433 0.930 . S
C441 C439 1.419 . S
C441 C442 1.362 . S
C442 H434 0.930 . S
C442 C441 1.362 . S
C442 C445 1.409 . S
C443 H435 0.930 . S
C443 C444 1.355 . S
C443 C445 1.415 . S
C444 C443 1.355 . S
C444 C446 1.419 . S
C445 C440 1.425 . S
C445 C442 1.409 . S
C445 C443 1.415 . S
C446 H436 0.930 . S
C446 C444 1.419 . S
C446 C447 1.362 . S
C447 H437 0.930 . S
C447 C440 1.409 . S
C447 C446 1.362 . S
H448 C454 0.930 . S
H449 C457 0.930 . S
H450 C458 0.930 . S
H451 C459 0.930 . S
H452 C462 0.930 . S
H453 C463 0.930 . S
C454 H448 0.930 . S
C454 C455 1.355 . S
C454 C456 1.415 . S
C455 C454 1.355 . S
C455 C457 1.419 . S
C456 C454 1.415 . S
C456 C461 1.425 . S
C456 C463 1.409 . S
C457 H449 0.930 . S
C457 C455 1.419 . S
C457 C458 1.362 . S
C458 H450 0.930 . S
C458 C457 1.362 . S
C458 C461 1.409 . S
C459 H451 0.930 . S
C459 C460 1.355 . S
C459 C461 1.415 . S
C460 C459 1.355 . S
C460 C462 1.419 . S
C461 C456 1.425 . S
C461 C458 1.409 . S
C461 C459 1.415 . S
C462 H452 0.930 . S
C462 C460 1.419 . S
C462 C463 1.362 . S
C463 H453 0.930 . S
C463 C456 1.409 . S
C463 C462 1.362 . S
H464 C470 0.930 . S
H465 C473 0.930 . S
H466 C474 0.930 . S
H467 C475 0.930 . S
H468 C478 0.930 . S
H469 C479 0.930 . S
C470 H464 0.930 . S
C470 C471 1.355 . S
C470 C472 1.415 . S
C471 C470 1.355 . S
C471 C473 1.419 . S
C472 C470 1.415 . S
C472 C477 1.425 . S
C472 C479 1.409 . S
C473 H465 0.930 . S
C473 C471 1.419 . S
C473 C474 1.362 . S
C474 H466 0.930 . S
C474 C473 1.362 . S
C474 C477 1.409 . S
C475 H467 0.930 . S
C475 C476 1.355 . S
C475 C477 1.415 . S
C476 C475 1.355 . S
C476 C478 1.419 . S
C477 C472 1.425 . S
C477 C474 1.409 . S
C477 C475 1.415 . S
C478 H468 0.930 . S
C478 C476 1.419 . S
C478 C479 1.362 . S
C479 H469 0.930 . S
C479 C472 1.409 . S
C479 C478 1.362 . S
H480 C486 0.930 . S
H481 C489 0.930 . S
H482 C490 0.930 . S
H483 C491 0.930 . S
H484 C494 0.930 . S
H485 C495 0.930 . S
C486 H480 0.930 . S
C486 C487 1.355 . S
C486 C488 1.415 . S
C487 C486 1.355 . S
C487 C489 1.419 . S
C488 C486 1.415 . S
C488 C493 1.425 . S
C488 C495 1.409 . S
C489 H481 0.930 . S
C489 C487 1.419 . S
C489 C490 1.362 . S
C490 H482 0.930 . S
C490 C489 1.362 . S
C490 C493 1.409 . S
C491 H483 0.930 . S
C491 C492 1.355 . S
C491 C493 1.415 . S
C492 C491 1.355 . S
C492 C494 1.419 . S
C493 C488 1.425 . S
C493 C490 1.409 . S
C493 C491 1.415 . S
C494 H484 0.930 . S
C494 C492 1.419 . S
C494 C495 1.362 . S
C495 H485 0.930 . S
C495 C488 1.409 . S
C495 C494 1.362 . S
H496 C502 0.930 . S
H497 C505 0.930 . S
H498 C506 0.930 . S
H499 C507 0.930 . S
H500 C510 0.930 . S
H501 C511 0.930 . S
C502 H496 0.930 . S
C502 C503 1.355 . S
C502 C504 1.415 . S
C503 C502 1.355 . S
C503 C505 1.419 . S
C504 C502 1.415 . S
C504 C509 1.425 . S
C504 C511 1.409 . S
C505 H497 0.930 . S
C505 C503 1.419 . S
C505 C506 1.362 . S
C506 H498 0.930 . S
C506 C505 1.362 . S
C506 C509 1.409 . S
C507 H499 0.930 . S
C507 C508 1.355 . S
C507 C509 1.415 . S
C508 C507 1.355 . S
C508 C510 1.419 . S
C509 C504 1.425 . S
C509 C506 1.409 . S
C509 C507 1.415 . S
C510 H500 0.930 . S
C510 C508 1.419 . S
C510 C511 1.362 . S
C511 H501 0.930 . S
C511 C504 1.409 . S
C511 C510 1.362 . S
H512 C518 0.930 . S
H513 C521 0.930 . S
H514 C522 0.930 . S
H515 C523 0.930 . S
H516 C526 0.930 . S
H517 C527 0.930 . S
C518 H512 0.930 . S
C518 C519 1.355 . S
C518 C520 1.415 . S
C519 C518 1.355 . S
C519 C521 1.419 . S
C520 C518 1.415 . S
C520 C525 1.425 . S
C520 C527 1.409 . S
C521 H513 0.930 . S
C521 C519 1.419 . S
C521 C522 1.362 . S
C522 H514 0.930 . S
C522 C521 1.362 . S
C522 C525 1.409 . S
C523 H515 0.930 . S
C523 C524 1.355 . S
C523 C525 1.415 . S
C524 C523 1.355 . S
C524 C526 1.419 . S
C525 C520 1.425 . S
C525 C522 1.409 . S
C525 C523 1.415 . S
C526 H516 0.930 . S
C526 C524 1.419 . S
C526 C527 1.362 . S
C527 H517 0.930 . S
C527 C520 1.409 . S
C527 C526 1.362 . S
H528 C534 0.930 . S
H529 C537 0.930 . S
H530 C538 0.930 . S
H531 C539 0.930 . S
H532 C542 0.930 . S
H533 C543 0.930 . S
C534 H528 0.930 . S
C534 C535 1.355 . S
C534 C536 1.415 . S
C535 C534 1.355 . S
C535 C537 1.419 . S
C536 C534 1.415 . S
C536 C541 1.425 . S
C536 C543 1.409 . S
C537 H529 0.930 . S
C537 C535 1.419 . S
C537 C538 1.362 . S
C538 H530 0.930 . S
C538 C537 1.362 . S
C538 C541 1.409 . S
C539 H531 0.930 . S
C539 C540 1.355 . S
C539 C541 1.415 . S
C540 C539 1.355 . S
C540 C542 1.419 . S
C541 C536 1.425 . S
C541 C538 1.409 . S
C541 C539 1.415 . S
C542 H532 0.930 . S
C542 C540 1.419 . S
C542 C543 1.362 . S
C543 H533 0.930 . S
C543 C536 1.409 . S
C543 C542 1.362 . S
H544 C550 0.930 . S
H545 C553 0.930 . S
H546 C554 0.930 . S
H547 C555 0.930 . S
H548 C558 0.930 . S
H549 C559 0.930 . S
C550 H544 0.930 . S
C550 C551 1.355 . S
C550 C552 1.415 . S
C551 C550 1.355 . S
C551 C553 1.419 . S
C552 C550 1.415 . S
C552 C557 1.425 . S
C552 C559 1.409 . S
C553 H545 0.930 . S
C553 C551 1.419 . S
C553 C554 1.362 . S
C554 H546 0.930 . S
C554 C553 1.362 . S
C554 C557 1.409 . S
C555 H547 0.930 . S
C555 C556 1.355 . S
C555 C557 1.415 . S
C556 C555 1.355 . S
C556 C558 1.419 . S
C557 C552 1.425 . S
C557 C554 1.409 . S
C557 C555 1.415 . S
C558 H548 0.930 . S
C558 C556 1.419 . S
C558 C559 1.362 . S
C559 H549 0.930 . S
C559 C552 1.409 . S
C559 C558 1.362 . S
H560 C566 0.930 . S
H561 C569 0.930 . S
H562 C570 0.930 . S
H563 C571 0.930 . S
H564 C574 0.930 . S
H565 C575 0.930 . S
C566 H560 0.930 . S
C566 C567 1.355 . S
C566 C568 1.415 . S
C567 C566 1.355 . S
C567 C569 1.419 . S
C568 C566 1.415 . S
C568 C573 1.425 . S
C568 C575 1.409 . S
C569 H561 0.930 . S
C569 C567 1.419 . S
C569 C570 1.362 . S
C570 H562 0.930 . S
C570 C569 1.362 . S
C570 C573 1.409 . S
C571 H563 0.930 . S
C571 C572 1.355 . S
C571 C573 1.415 . S
C572 C571 1.355 . S
C572 C574 1.419 . S
C573 C568 1.425 . S
C573 C570 1.409 . S
C573 C571 1.415 . S
C574 H564 0.930 . S
C574 C572 1.419 . S
C574 C575 1.362 . S
C575 H565 0.930 . S
C575 C568 1.409 . S
C575 C574 1.362 . S
H576 C582 0.930 . S
H577 C585 0.930 . S
H578 C586 0.930 . S
H579 C587 0.930 . S
H580 C590 0.930 . S
H581 C591 0.930 . S
C582 H576 0.930 . S
C582 C583 1.355 . S
C582 C584 1.415 . S
C583 C582 1.355 . S
C583 C585 1.419 . S
C584 C582 1.415 . S
C584 C589 1.425 . S
C584 C591 1.409 . S
C585 H577 0.930 . S
C585 C583 1.419 . S
C585 C586 1.362 . S
C586 H578 0.930 . S
C586 C585 1.362 . S
C586 C589 1.409 . S
C587 H579 0.930 . S
C587 C588 1.355 . S
C587 C589 1.415 . S
C588 C587 1.355 . S
C588 C590 1.419 . S
C589 C584 1.425 . S
C589 C586 1.409 . S
C589 C587 1.415 . S
C590 H580 0.930 . S
C590 C588 1.419 . S
C590 C591 1.362 . S
C591 H581 0.930 . S
C591 C584 1.409 . S
C591 C590 1.362 . S
H592 C598 0.930 . S
H593 C601 0.930 . S
H594 C602 0.930 . S
H595 C603 0.930 . S
H596 C606 0.930 . S
H597 C607 0.930 . S
C598 H592 0.930 . S
C598 C599 1.355 . S
C598 C600 1.415 . S
C599 C598 1.355 . S
C599 C601 1.419 . S
C600 C598 1.415 . S
C600 C605 1.425 . S
C600 C607 1.409 . S
C601 H593 0.930 . S
C601 C599 1.419 . S
C601 C602 1.362 . S
C602 H594 0.930 . S
C602 C601 1.362 . S
C602 C605 1.409 . S
C603 H595 0.930 . S
C603 C604 1.355 . S
C603 C605 1.415 . S
C604 C603 1.355 . S
C604 C606 1.419 . S
C605 C600 1.425 . S
C605 C602 1.409 . S
C605 C603 1.415 . S
C606 H596 0.930 . S
C606 C604 1.419 . S
C606 C607 1.362 . S
C607 H597 0.930 . S
C607 C600 1.409 . S
C607 C606 1.362 . S
H608 C614 0.930 . S
H609 C617 0.930 . S
H610 C618 0.930 . S
H611 C619 0.930 . S
H612 C622 0.930 . S
H613 C623 0.930 . S
C614 H608 0.930 . S
C614 C615 1.355 . S
C614 C616 1.415 . S
C615 C614 1.355 . S
C615 C617 1.419 . S
C616 C614 1.415 . S
C616 C621 1.425 . S
C616 C623 1.409 . S
C617 H609 0.930 . S
C617 C615 1.419 . S
C617 C618 1.362 . S
C618 H610 0.930 . S
C618 C617 1.362 . S
C618 C621 1.409 . S
C619 H611 0.930 . S
C619 C620 1.355 . S
C619 C621 1.415 . S
C620 C619 1.355 . S
C620 C622 1.419 . S
C621 C616 1.425 . S
C621 C618 1.409 . S
C621 C619 1.415 . S
C622 H612 0.930 . S
C622 C620 1.419 . S
C622 C623 1.362 . S
C623 H613 0.930 . S
C623 C616 1.409 . S
C623 C622 1.362 . S
H624 C630 0.930 . S
H625 C633 0.930 . S
H626 C634 0.930 . S
H627 C635 0.930 . S
H628 C638 0.930 . S
H629 C639 0.930 . S
C630 H624 0.930 . S
C630 C631 1.355 . S
C630 C632 1.415 . S
C631 C630 1.355 . S
C631 C633 1.419 . S
C632 C630 1.415 . S
C632 C637 1.425 . S
C632 C639 1.409 . S
C633 H625 0.930 . S
C633 C631 1.419 . S
C633 C634 1.362 . S
C634 H626 0.930 . S
C634 C633 1.362 . S
C634 C637 1.409 . S
C635 H627 0.930 . S
C635 C636 1.355 . S
C635 C637 1.415 . S
C636 C635 1.355 . S
C636 C638 1.419 . S
C637 C632 1.425 . S
C637 C634 1.409 . S
C637 C635 1.415 . S
C638 H628 0.930 . S
C638 C636 1.419 . S
C638 C639 1.362 . S
C639 H629 0.930 . S
C639 C632 1.409 . S
C639 C638 1.362 . S
H640 C646 0.930 . S
H641 C649 0.930 . S
H642 C650 0.930 . S
H643 C651 0.930 . S
H644 C654 0.930 . S
H645 C655 0.930 . S
C646 H640 0.930 . S
C646 C647 1.355 . S
C646 C648 1.415 . S
C647 C646 1.355 . S
C647 C649 1.419 . S
C648 C646 1.415 . S
C648 C653 1.425 . S
C648 C655 1.409 . S
C649 H641 0.930 . S
C649 C647 1.419 . S
C649 C650 1.362 . S
C650 H642 0.930 . S
C650 C649 1.362 . S
C650 C653 1.409 . S
C651 H643 0.930 . S
C651 C652 1.355 . S
C651 C653 1.415 . S
C652 C651 1.355 . S
C652 C654 1.419 . S
C653 C648 1.425 . S
C653 C650 1.409 . S
C653 C651 1.415 . S
C654 H644 0.930 . S
C654 C652 1.419 . S
C654 C655 1.362 . S
C655 H645 0.930 . S
C655 C648 1.409 . S
C655 C654 1.362 . S
H656 C662 0.930 . S
H657 C665 0.930 . S
H658 C666 0.930 . S
H659 C667 0.930 . S
H660 C670 0.930 . S
H661 C671 0.930 . S
C662 H656 0.930 . S
C662 C663 1.355 1_554 S
C662 C664 1.415 . S
C663 C662 1.355 1_556 S
C663 C665 1.419 . S
C664 C662 1.415 . S
C664 C669 1.425 1_554 S
C664 C671 1.409 . S
C665 H657 0.930 . S
C665 C663 1.419 . S
C665 C666 1.362 . S
C666 H658 0.930 . S
C666 C665 1.362 . S
C666 C669 1.409 . S
C667 H659 0.930 . S
C667 C668 1.355 1_556 S
C667 C669 1.415 . S
C668 C667 1.355 1_554 S
C668 C670 1.419 . S
C669 C664 1.425 1_556 S
C669 C666 1.409 . S
C669 C667 1.415 . S
C670 H660 0.930 . S
C670 C668 1.419 . S
C670 C671 1.362 . S
C671 H661 0.930 . S
C671 C664 1.409 . S
C671 C670 1.362 . S
H672 C678 0.930 . S
H673 C681 0.930 . S
H674 C682 0.930 . S
H675 C683 0.930 . S
H676 C686 0.930 . S
H677 C687 0.930 . S
C678 H672 0.930 . S
C678 C679 1.355 . S
C678 C680 1.415 . S
C679 C678 1.355 . S
C679 C681 1.419 . S
C680 C678 1.415 . S
C680 C685 1.425 . S
C680 C687 1.409 . S
C681 H673 0.930 . S
C681 C679 1.419 . S
C681 C682 1.362 . S
C682 H674 0.930 . S
C682 C681 1.362 . S
C682 C685 1.409 . S
C683 H675 0.930 . S
C683 C684 1.355 . S
C683 C685 1.415 . S
C684 C683 1.355 . S
C684 C686 1.419 . S
C685 C680 1.425 . S
C685 C682 1.409 . S
C685 C683 1.415 . S
C686 H676 0.930 . S
C686 C684 1.419 . S
C686 C687 1.362 . S
C687 H677 0.930 . S
C687 C680 1.409 . S
C687 C686 1.362 . S
H688 C694 0.930 . S
H689 C697 0.930 . S
H690 C698 0.930 . S
H691 C699 0.930 . S
H692 C702 0.930 . S
H693 C703 0.930 . S
C694 H688 0.930 . S
C694 C695 1.355 1_554 S
C694 C696 1.415 . S
C695 C694 1.355 1_556 S
C695 C697 1.419 . S
C696 C694 1.415 . S
C696 C701 1.425 1_554 S
C696 C703 1.409 . S
C697 H689 0.930 . S
C697 C695 1.419 . S
C697 C698 1.362 . S
C698 H690 0.930 . S
C698 C697 1.362 . S
C698 C701 1.409 . S
C699 H691 0.930 . S
C699 C700 1.355 1_556 S
C699 C701 1.415 . S
C700 C699 1.355 1_554 S
C700 C702 1.419 . S
C701 C696 1.425 1_556 S
C701 C698 1.409 . S
C701 C699 1.415 . S
C702 H692 0.930 . S
C702 C700 1.419 . S
C702 C703 1.362 . S
C703 H693 0.930 . S
C703 C696 1.409 . S
C703 C702 1.362 . S
H704 C710 0.930 . S
H705 C713 0.930 . S
H706 C714 0.930 . S
H707 C715 0.930 . S
H708 C718 0.930 . S
H709 C719 0.930 . S
C710 H704 0.930 . S
C710 C711 1.355 . S
C710 C712 1.415 . S
C711 C710 1.355 . S
C711 C713 1.419 . S
C712 C710 1.415 . S
C712 C717 1.425 . S
C712 C719 1.409 . S
C713 H705 0.930 . S
C713 C711 1.419 . S
C713 C714 1.362 . S
C714 H706 0.930 . S
C714 C713 1.362 . S
C714 C717 1.409 . S
C715 H707 0.930 . S
C715 C716 1.355 . S
C715 C717 1.415 . S
C716 C715 1.355 . S
C716 C718 1.419 . S
C717 C712 1.425 . S
C717 C714 1.409 . S
C717 C715 1.415 . S
C718 H708 0.930 . S
C718 C716 1.419 . S
C718 C719 1.362 . S
C719 H709 0.930 . S
C719 C712 1.409 . S
C719 C718 1.362 . S
H720 C726 0.930 . S
H721 C729 0.930 . S
H722 C730 0.930 . S
H723 C731 0.930 . S
H724 C734 0.930 . S
H725 C735 0.930 . S
C726 H720 0.930 . S
C726 C727 1.355 . S
C726 C728 1.415 . S
C727 C726 1.355 . S
C727 C729 1.419 . S
C728 C726 1.415 . S
C728 C733 1.425 . S
C728 C735 1.409 . S
C729 H721 0.930 . S
C729 C727 1.419 . S
C729 C730 1.362 . S
C730 H722 0.930 . S
C730 C729 1.362 . S
C730 C733 1.409 . S
C731 H723 0.930 . S
C731 C732 1.355 . S
C731 C733 1.415 . S
C732 C731 1.355 . S
C732 C734 1.419 . S
C733 C728 1.425 . S
C733 C730 1.409 . S
C733 C731 1.415 . S
C734 H724 0.930 . S
C734 C732 1.419 . S
C734 C735 1.362 . S
C735 H725 0.930 . S
C735 C728 1.409 . S
C735 C734 1.362 . S
H736 C742 0.930 . S
H737 C745 0.930 . S
H738 C746 0.930 . S
H739 C747 0.930 . S
H740 C750 0.930 . S
H741 C751 0.930 . S
C742 H736 0.930 . S
C742 C743 1.355 1_554 S
C742 C744 1.415 . S
C743 C742 1.355 1_556 S
C743 C745 1.419 . S
C744 C742 1.415 . S
C744 C749 1.425 1_554 S
C744 C751 1.409 . S
C745 H737 0.930 . S
C745 C743 1.419 . S
C745 C746 1.362 . S
C746 H738 0.930 . S
C746 C745 1.362 . S
C746 C749 1.409 . S
C747 H739 0.930 . S
C747 C748 1.355 1_556 S
C747 C749 1.415 . S
C748 C747 1.355 1_554 S
C748 C750 1.419 . S
C749 C744 1.425 1_556 S
C749 C746 1.409 . S
C749 C747 1.415 . S
C750 H740 0.930 . S
C750 C748 1.419 . S
C750 C751 1.362 . S
C751 H741 0.930 . S
C751 C744 1.409 . S
C751 C750 1.362 . S
H752 C758 0.930 . S
H753 C761 0.930 . S
H754 C762 0.930 . S
H755 C763 0.930 . S
H756 C766 0.930 . S
H757 C767 0.930 . S
C758 H752 0.930 . S
C758 C759 1.355 . S
C758 C760 1.415 . S
C759 C758 1.355 . S
C759 C761 1.419 . S
C760 C758 1.415 . S
C760 C765 1.425 . S
C760 C767 1.409 . S
C761 H753 0.930 . S
C761 C759 1.419 . S
C761 C762 1.362 . S
C762 H754 0.930 . S
C762 C761 1.362 . S
C762 C765 1.409 . S
C763 H755 0.930 . S
C763 C764 1.355 . S
C763 C765 1.415 . S
C764 C763 1.355 . S
C764 C766 1.419 . S
C765 C760 1.425 . S
C765 C762 1.409 . S
C765 C763 1.415 . S
C766 H756 0.930 . S
C766 C764 1.419 . S
C766 C767 1.362 . S
C767 H757 0.930 . S
C767 C760 1.409 . S
C767 C766 1.362 . S
H768 C774 0.930 . S
H769 C777 0.930 . S
H770 C778 0.930 . S
H771 C779 0.930 . S
H772 C782 0.930 . S
H773 C783 0.930 . S
C774 H768 0.930 . S
C774 C775 1.355 1_554 S
C774 C776 1.415 . S
C775 C774 1.355 1_556 S
C775 C777 1.419 . S
C776 C774 1.415 . S
C776 C781 1.425 1_554 S
C776 C783 1.409 . S
C777 H769 0.930 . S
C777 C775 1.419 . S
C777 C778 1.362 . S
C778 H770 0.930 . S
C778 C777 1.362 . S
C778 C781 1.409 . S
C779 H771 0.930 . S
C779 C780 1.355 1_556 S
C779 C781 1.415 . S
C780 C779 1.355 1_554 S
C780 C782 1.419 . S
C781 C776 1.425 1_556 S
C781 C778 1.409 . S
C781 C779 1.415 . S
C782 H772 0.930 . S
C782 C780 1.419 . S
C782 C783 1.362 . S
C783 H773 0.930 . S
C783 C776 1.409 . S
C783 C782 1.362 . S
C407 C5 1.511 . S
C412 C221 1.485 . S
C423 C31 1.513 . S
C428 C89 1.474 . S
C444 C128 1.494 . S
C439 C53 1.508 . S
C455 C71 1.483 . S
C460 C182 1.506 . S
C476 C284 1.513 . S
C471 C75 1.486 . S
C492 C338 1.497 . S
C487 C9 1.502 . S
C508 C377 1.470 . S
C503 C27 1.517 . S
C524 C245 1.498 . S
C519 C49 1.492 . S
C535 C51 1.518 . S
C540 C143 1.461 . S
C551 C72 1.488 . S
C556 C167 1.504 . S
C567 C6 1.491 . S
C572 C206 1.511 . S
C588 C104 1.506 . S
C583 C29 1.482 . S
C599 C28 1.487 . S
C604 C362 1.506 . S
C620 C260 1.501 . S
C615 C50 1.486 . S
C636 C299 1.460 . S
C631 C73 1.516 . S
C647 C7 1.517 . S
C652 C323 1.477 . S
C668 C109 1.507 . S
C663 C4 1.508 1_556 S
C684 C148 1.520 . S
C679 C30 1.498 . S
C695 C52 1.509 1_556 S
C700 C187 1.500 1_554 S
C711 C70 1.498 . S
C716 C226 1.517 . S
C732 C265 1.494 . S
C727 C74 1.520 . S
C743 C8 1.499 1_556 S
C748 C304 1.519 1_554 S
C759 C26 1.513 . S
C764 C343 1.491 . S
C775 C48 1.502 1_556 S
C780 C382 1.510 . S
