# Generated by pormake.
# Topology apo, (3,6)-cn, num edge types: 1
# Building blocks:
#     Node 0, Type 0, BuildingBlock: BETDAH_clean_linker_0, # of connection points: 3
#     Node 1, Type 0, BuildingBlock: BETDAH_clean_linker_0, # of connection points: 3
#     Node 2, Type 0, BuildingBlock: BETDAH_clean_linker_0, # of connection points: 3
#     Node 3, Type 0, BuildingBlock: BETDAH_clean_linker_0, # of connection points: 3
#     Node 4, Type 0, BuildingBlock: BETDAH_clean_linker_0, # of connection points: 3
#     Node 5, Type 0, BuildingBlock: BETDAH_clean_linker_0, # of connection points: 3
#     Node 6, Type 0, BuildingBlock: BETDAH_clean_linker_0, # of connection points: 3
#     Node 7, Type 0, BuildingBlock: BETDAH_clean_linker_0, # of connection points: 3
#     Node 8, Type 1, BuildingBlock: KUMBUR_clean_sbu_1, # of connection points: 6
#     Node 9, Type 1, BuildingBlock: KUMBUR_clean_sbu_1, # of connection points: 6
#     Node 10, Type 1, BuildingBlock: KUMBUR_clean_sbu_1, # of connection points: 6
#     Node 11, Type 1, BuildingBlock: KUMBUR_clean_sbu_1, # of connection points: 6
#     Edge 12, Type (0, 1), BuildingBlock: TEMPAE_clean_linker_10, # of connection points: 2
#     Edge 13, Type (0, 1), BuildingBlock: TEMPAE_clean_linker_10, # of connection points: 2
#     Edge 14, Type (0, 1), BuildingBlock: TEMPAE_clean_linker_10, # of connection points: 2
#     Edge 15, Type (0, 1), BuildingBlock: TEMPAE_clean_linker_10, # of connection points: 2
#     Edge 16, Type (0, 1), BuildingBlock: TEMPAE_clean_linker_10, # of connection points: 2
#     Edge 17, Type (0, 1), BuildingBlock: TEMPAE_clean_linker_10, # of connection points: 2
#     Edge 18, Type (0, 1), BuildingBlock: TEMPAE_clean_linker_10, # of connection points: 2
#     Edge 19, Type (0, 1), BuildingBlock: TEMPAE_clean_linker_10, # of connection points: 2
#     Edge 20, Type (0, 1), BuildingBlock: TEMPAE_clean_linker_10, # of connection points: 2
#     Edge 21, Type (0, 1), BuildingBlock: TEMPAE_clean_linker_10, # of connection points: 2
#     Edge 22, Type (0, 1), BuildingBlock: TEMPAE_clean_linker_10, # of connection points: 2
#     Edge 23, Type (0, 1), BuildingBlock: TEMPAE_clean_linker_10, # of connection points: 2
#     Edge 24, Type (0, 1), BuildingBlock: TEMPAE_clean_linker_10, # of connection points: 2
#     Edge 25, Type (0, 1), BuildingBlock: TEMPAE_clean_linker_10, # of connection points: 2
#     Edge 26, Type (0, 1), BuildingBlock: TEMPAE_clean_linker_10, # of connection points: 2
#     Edge 27, Type (0, 1), BuildingBlock: TEMPAE_clean_linker_10, # of connection points: 2
#     Edge 28, Type (0, 1), BuildingBlock: TEMPAE_clean_linker_10, # of connection points: 2
#     Edge 29, Type (0, 1), BuildingBlock: TEMPAE_clean_linker_10, # of connection points: 2
#     Edge 30, Type (0, 1), BuildingBlock: TEMPAE_clean_linker_10, # of connection points: 2
#     Edge 31, Type (0, 1), BuildingBlock: TEMPAE_clean_linker_10, # of connection points: 2
#     Edge 32, Type (0, 1), BuildingBlock: TEMPAE_clean_linker_10, # of connection points: 2
#     Edge 33, Type (0, 1), BuildingBlock: TEMPAE_clean_linker_10, # of connection points: 2
#     Edge 34, Type (0, 1), BuildingBlock: TEMPAE_clean_linker_10, # of connection points: 2
#     Edge 35, Type (0, 1), BuildingBlock: TEMPAE_clean_linker_10, # of connection points: 2
# Relax obj value: 0.036
# Max RMSD: 0.220
# Mean RMSD: 0.155
data_MOF--net-apo--node1-KUMBUR_clean_sbu_1--node2-BETDAH_clean_linker_0--edge1-TEMPAE_clean_linker_10
_symmetry_space_group_name_H-M    P1
_symmetry_Int_Tables_number       1
_symmetry_cell_setting            triclinic
loop_
_symmetry_equiv_pos_as_xyz
'x, y, z'
_cell_length_a     27.810378
_cell_length_b     42.569651
_cell_length_c     52.191123
_cell_angle_alpha  89.507093
_cell_angle_beta   89.785024
_cell_angle_gamma 90.318889
loop_
_atom_site_label
_atom_site_type_symbol
_atom_site_fract_x
_atom_site_fract_y
_atom_site_fract_z
_atom_type_partial_charge
H0 H 0.35772 0.43728 0.42789 0.0
H1 H 0.29623 0.37584 0.3705 0.0
H2 H 0.29718 0.34841 0.44941 0.0
C3 C 0.33945 0.41602 0.42226 0.0
C4 C 0.32615 0.39462 0.44175 0.0
C5 C 0.32923 0.41009 0.39607 0.0
C6 C 0.30582 0.38131 0.39 0.0
C7 C 0.29518 0.35902 0.40936 0.0
C8 C 0.30555 0.3659 0.43481 0.0
N9 N 0.27552 0.32876 0.40452 0.0
C10 C 0.25245 0.31844 0.38253 0.0
H11 H 0.1492 0.09701 0.9249 0.0
H12 H 0.25353 0.1233 0.86681 0.0
H13 H 0.27242 0.15248 0.94459 0.0
C14 C 0.18165 0.10929 0.91893 0.0
C15 C 0.20844 0.12515 0.93747 0.0
C16 C 0.19808 0.10729 0.8934 0.0
C17 C 0.23946 0.12469 0.88613 0.0
C18 C 0.26547 0.14177 0.9045 0.0
C19 C 0.25071 0.14095 0.9302 0.0
N20 N 0.31038 0.1559 0.89835 0.0
C21 C 0.31647 0.1799 0.88034 0.0
H22 H 0.8522 0.09643 0.59205 0.0
H23 H 0.79504 0.15412 0.65223 0.0
H24 H 0.78679 0.18529 0.57392 0.0
C25 C 0.83474 0.11789 0.59798 0.0
C26 C 0.81972 0.13988 0.57944 0.0
C27 C 0.82607 0.12289 0.62424 0.0
C28 C 0.8017 0.15016 0.63205 0.0
C29 C 0.78773 0.17271 0.61369 0.0
C30 C 0.79717 0.16745 0.58774 0.0
N31 N 0.76521 0.20146 0.62015 0.0
C32 C 0.74611 0.20971 0.6438 0.0
H33 H 0.66186 0.42075 0.09683 0.0
H34 H 0.73227 0.36781 0.1564 0.0
H35 H 0.71805 0.32873 0.08142 0.0
C36 C 0.68013 0.39962 0.10304 0.0
C37 C 0.68861 0.37538 0.08547 0.0
C38 C 0.69521 0.39695 0.12873 0.0
C39 C 0.72072 0.37011 0.13667 0.0
C40 C 0.72922 0.34573 0.11924 0.0
C41 C 0.71263 0.34841 0.09412 0.0
N42 N 0.75308 0.31752 0.12597 0.0
C43 C 0.77386 0.31032 0.1494 0.0
H44 H 0.64174 0.58845 0.59622 0.0
H45 H 0.71768 0.64935 0.64813 0.0
H46 H 0.71601 0.66997 0.56727 0.0
C47 C 0.6637 0.60913 0.59959 0.0
C48 C 0.67723 0.6282 0.57877 0.0
C49 C 0.6775 0.61666 0.62474 0.0
C50 C 0.70682 0.64333 0.62887 0.0
C51 C 0.72048 0.66266 0.60795 0.0
C52 C 0.70523 0.65501 0.58323 0.0
N53 N 0.74857 0.6904 0.61048 0.0
C54 C 0.77129 0.70137 0.63237 0.0
H55 H 0.87201 0.93047 0.09127 0.0
H56 H 0.82835 0.83627 0.07432 0.0
H57 H 0.84312 0.86396 0.15272 0.0
C58 C 0.86176 0.90724 0.09802 0.0
C59 C 0.85969 0.9005 0.12458 0.0
C60 C 0.85047 0.88431 0.07983 0.0
C61 C 0.83593 0.85442 0.08822 0.0
C62 C 0.832 0.84727 0.11435 0.0
C63 C 0.84376 0.87028 0.13258 0.0
N64 N 0.82205 0.81561 0.12138 0.0
C65 C 0.78988 0.80577 0.14033 0.0
H66 H 0.16838 0.92426 0.4223 0.0
H67 H 0.25049 0.87196 0.36712 0.0
H68 H 0.24728 0.84264 0.4461 0.0
C69 C 0.19104 0.90445 0.41767 0.0
C70 C 0.20553 0.88391 0.43731 0.0
C71 C 0.20718 0.90045 0.39229 0.0
C72 C 0.23798 0.87525 0.38659 0.0
C73 C 0.25226 0.85435 0.40615 0.0
C74 C 0.23612 0.85896 0.43124 0.0
N75 N 0.28327 0.82856 0.40178 0.0
C76 C 0.2983 0.81762 0.37808 0.0
H77 H 0.35325 0.59368 0.92194 0.0
H78 H 0.25074 0.66126 0.94817 0.0
H79 H 0.2596 0.64053 0.86794 0.0
C80 C 0.32562 0.61079 0.91769 0.0
C81 C 0.30922 0.61492 0.89228 0.0
C82 C 0.30436 0.62727 0.93792 0.0
C83 C 0.26742 0.6485 0.93262 0.0
C84 C 0.25181 0.65394 0.90759 0.0
C85 C 0.27253 0.63703 0.8873 0.0
N86 N 0.21352 0.67551 0.90428 0.0
C87 C 0.20027 0.69074 0.88175 0.0
Tb88 Tb 0.07532 0.11996 0.23207 0.0
C89 C 0.89124 0.06607 0.27277 0.0
N90 N 0.90506 0.09674 0.27226 0.0
C91 C 0.83054 0.11086 0.25235 0.0
C92 C 0.84736 0.05636 0.26192 0.0
C93 C 0.87476 0.1193 0.26306 0.0
C94 C 0.81699 0.07923 0.25152 0.0
C95 C 0.91046 0.01216 0.28338 0.0
C96 C 0.92248 0.04437 0.28329 0.0
C97 C 0.86716 1.00218 0.2722 0.0
C98 C 0.83563 0.02424 0.26153 0.0
Tb99 Tb 0.97849 0.10793 0.28958 0.0
N100 N 0.96458 0.0549 0.29342 0.0
C101 C 0.94215 0.99102 0.2949 0.0
C102 C 0.99342 0.03462 0.30659 0.0
C103 C 0.98336 1.0024 0.30692 0.0
H104 H 0.88432 0.14381 0.26418 0.0
H105 H 0.00699 0.98638 0.31673 0.0
H106 H 0.16111 0.06595 0.24356 0.0
H107 H 0.09455 0.24297 0.20966 0.0
H108 H 0.02347 0.04315 0.3175 0.0
H109 H 0.93444 0.96604 0.2953 0.0
H110 H 0.05368 0.19105 0.21033 0.0
H111 H 0.8069 0.12878 0.2448 0.0
H112 H 0.85754 0.97748 0.27191 0.0
H113 H 0.80229 0.01623 0.25304 0.0
H114 H 0.24324 0.06573 0.26077 0.0
H115 H 0.78292 0.07274 0.243 0.0
H116 H 0.17537 0.24876 0.22891 0.0
N117 N 0.15374 0.11581 0.24539 0.0
C118 C 0.17777 0.1435 0.24797 0.0
C119 C 0.22495 0.08781 0.25768 0.0
C120 C 0.22569 0.1445 0.25665 0.0
C121 C 0.17781 0.08807 0.24843 0.0
C122 C 0.2487 0.11616 0.26233 0.0
N123 N 0.11012 0.16847 0.23057 0.0
C124 C 0.08884 0.19358 0.21884 0.0
C125 C 0.18028 0.19967 0.23978 0.0
C126 C 0.15555 0.17072 0.23975 0.0
C127 C 0.15758 0.22605 0.22926 0.0
C128 C 0.11194 0.22288 0.21837 0.0
H129 H 0.28548 0.11588 0.26909 0.0
H130 H 0.28644 0.17485 0.26502 0.0
H131 H 0.2468 0.22312 0.24991 0.0
O132 O 0.04716 0.12039 0.19463 0.0
O133 O 0.06602 0.15687 0.26058 0.0
O134 O 0.04678 0.13208 0.29858 0.0
O135 O 0.12242 0.11338 0.20103 0.0
O136 O 0.00397 0.14209 0.22803 0.0
O137 O 0.97321 0.15267 0.26881 0.0
O138 O 0.96308 0.09653 0.32798 0.0
O139 O 0.96703 0.09308 0.24954 0.0
O140 O 0.03881 0.07461 0.23529 0.0
O141 O 0.93762 0.13964 0.3116 0.0
O142 O 0.05205 0.09132 0.29652 0.0
O143 O 0.08149 0.07763 0.25656 0.0
C144 C 0.06893 0.15457 0.28557 0.0
C145 C 0.08971 0.09039 0.16427 0.0
C146 C 0.10549 0.07644 0.11961 0.0
C147 C 0.09915 0.04455 0.12642 0.0
C148 C 0.08325 0.05859 0.17056 0.0
C149 C 0.08785 0.03582 0.15164 0.0
C150 C 0.10008 0.09923 0.13885 0.0
C151 C 0.9762 0.15822 0.24387 0.0
C152 C 0.08854 0.11468 0.18406 0.0
C153 C 0.24976 0.17356 0.25817 0.0
C154 C 0.22719 0.20106 0.24958 0.0
C155 C 0.99214 0.07153 0.23778 0.0
C156 C 0.89272 0.1169 0.34616 0.0
C157 C 0.85125 0.11293 0.38752 0.0
C158 C 0.80908 0.10389 0.37469 0.0
C159 C 0.85022 0.10791 0.33379 0.0
C160 C 0.89296 0.11959 0.37302 0.0
C161 C 0.80862 0.10156 0.34801 0.0
C162 C 0.08127 0.07515 0.28178 0.0
C163 C 0.93803 0.12164 0.33188 0.0
H164 H 0.104 0.02618 0.11245 0.0
H165 H 0.07547 0.05138 0.19009 0.0
H166 H 0.08359 0.01123 0.15662 0.0
H167 H 0.10419 0.12397 0.13423 0.0
H168 H 0.77631 0.09892 0.38529 0.0
H169 H 0.84911 0.10551 0.31325 0.0
H170 H 0.92597 0.12608 0.38268 0.0
H171 H 0.77594 0.09462 0.33832 0.0
Tb172 Tb 0.45954 0.40132 0.73185 0.0
C173 C 0.64678 0.44073 0.77742 0.0
N174 N 0.62627 0.41164 0.77854 0.0
C175 C 0.7005 0.38901 0.76414 0.0
C176 C 0.69403 0.44526 0.76818 0.0
C177 C 0.65373 0.38574 0.77381 0.0
C178 C 0.72039 0.41895 0.76077 0.0
C179 C 0.64177 0.49616 0.78762 0.0
C180 C 0.6213 0.46585 0.78707 0.0
C181 C 0.68788 0.5011 0.77723 0.0
C182 C 0.71395 0.4757 0.76749 0.0
Tb183 Tb 0.54779 0.41028 0.79264 0.0
N184 N 0.57607 0.46041 0.79601 0.0
C185 C 0.61533 0.52043 0.79878 0.0
C186 C 0.55115 0.48346 0.80824 0.0
C187 C 0.57011 0.51393 0.80949 0.0
H188 H 0.64037 0.36239 0.77787 0.0
H189 H 0.54982 0.53238 0.81862 0.0
H190 H 0.35822 0.43022 0.75458 0.0
H191 H 0.49933 0.28844 0.68958 0.0
H192 H 0.51638 0.47838 0.81663 0.0
H193 H 0.62977 0.54409 0.79959 0.0
H194 H 0.51179 0.34485 0.69706 0.0
H195 H 0.72148 0.36839 0.75975 0.0
H196 H 0.70404 0.52432 0.77707 0.0
H197 H 0.74996 0.4797 0.76013 0.0
H198 H 0.27753 0.41036 0.76669 0.0
H199 H 0.75681 0.42138 0.75355 0.0
H200 H 0.42573 0.262 0.70586 0.0
N201 N 0.38364 0.38553 0.7429 0.0
C202 C 0.37249 0.35493 0.73866 0.0
C203 C 0.30405 0.39447 0.75899 0.0
C204 C 0.32716 0.34247 0.74548 0.0
C205 C 0.34984 0.40563 0.75222 0.0
C206 C 0.2928 0.36268 0.75586 0.0
N207 N 0.44959 0.34966 0.72056 0.0
C208 C 0.48119 0.3333 0.70574 0.0
C209 C 0.39729 0.30424 0.7229 0.0
C210 C 0.40713 0.33618 0.72767 0.0
C211 C 0.43182 0.28662 0.70991 0.0
C212 C 0.47351 0.30141 0.7008 0.0
H213 H 0.25748 0.35405 0.76134 0.0
H214 H 0.28345 0.30018 0.74726 0.0
H215 H 0.34487 0.26666 0.72738 0.0
O216 O 0.44371 0.39668 0.69262 0.0
O217 O 0.43908 0.38201 0.76974 0.0
O218 O 0.50959 0.36555 0.78804 0.0
O219 O 0.43226 0.44044 0.71177 0.0
O220 O 0.53371 0.38337 0.72849 0.0
O221 O 0.55747 0.36787 0.7692 0.0
O222 O 0.52208 0.41094 0.83065 0.0
O223 O 0.53879 0.44841 0.7644 0.0
O224 O 0.53134 0.42167 0.72716 0.0
O225 O 0.59562 0.39996 0.82255 0.0
O226 O 0.47374 0.42706 0.7969 0.0
O227 O 0.44696 0.44264 0.75646 0.0
C228 C 0.46348 0.36161 0.78346 0.0
C229 C 0.38427 0.42975 0.67503 0.0
C230 C 0.34638 0.43182 0.63277 0.0
C231 C 0.30314 0.44097 0.64452 0.0
C232 C 0.34073 0.43889 0.68633 0.0
C233 C 0.30039 0.44433 0.6711 0.0
C234 C 0.38678 0.42604 0.64827 0.0
C235 C 0.5583 0.36485 0.74403 0.0
C236 C 0.42821 0.42523 0.69034 0.0
C237 C 0.3178 0.31037 0.74178 0.0
C238 C 0.35286 0.29126 0.73056 0.0
C239 C 0.54624 0.44631 0.73971 0.0
C240 C 0.56107 0.37592 0.85878 0.0
C241 C 0.57291 0.35727 0.90276 0.0
C242 C 0.56523 0.32628 0.8942 0.0
C243 C 0.55322 0.345 0.85077 0.0
C244 C 0.56985 0.38202 0.8847 0.0
C245 C 0.55488 0.32034 0.8685 0.0
C246 C 0.44793 0.44535 0.78176 0.0
C247 C 0.56285 0.40196 0.8402 0.0
H248 H 0.27128 0.44524 0.63316 0.0
H249 H 0.33796 0.44215 0.70681 0.0
H250 H 0.26689 0.45136 0.67993 0.0
H251 H 0.42055 0.41936 0.63947 0.0
H252 H 0.56834 0.3064 0.90713 0.0
H253 H 0.54671 0.33992 0.83081 0.0
H254 H 0.57473 0.40617 0.89059 0.0
H255 H 0.54919 0.29645 0.8622 0.0
Tb256 Tb 0.04906 0.90282 0.73177 0.0
C257 C 0.85009 0.86137 0.76674 0.0
N258 N 0.86712 0.89118 0.76376 0.0
C259 C 0.79647 0.90548 0.74026 0.0
C260 C 0.8058 0.85225 0.756 0.0
C261 C 0.84072 0.91343 0.75115 0.0
C262 C 0.77901 0.87473 0.7426 0.0
C263 C 0.8617 0.80862 0.7833 0.0
C264 C 0.87809 0.83982 0.77997 0.0
C265 C 0.81787 0.79927 0.77236 0.0
C266 C 0.78999 0.82103 0.75876 0.0
Tb267 Tb 0.93902 0.90161 0.78286 0.0
N268 N 0.92037 0.84971 0.79034 0.0
C269 C 0.88906 0.78803 0.79824 0.0
C270 C 0.94399 0.83061 0.80726 0.0
C271 C 0.92986 0.79928 0.81071 0.0
H272 H 0.85389 0.93728 0.7495 0.0
H273 H 0.94972 0.78408 0.82355 0.0
H274 H 0.12498 0.84612 0.74783 0.0
H275 H 0.07283 0.0285 0.72077 0.0
H276 H 0.97277 0.83949 0.81893 0.0
H277 H 0.87779 0.76386 0.80122 0.0
H278 H 0.0299 0.97825 0.71676 0.0
H279 H 0.77587 0.92305 0.73007 0.0
H280 H 0.80481 0.77539 0.7747 0.0
H281 H 0.75612 0.81353 0.75057 0.0
H282 H 0.20795 0.84213 0.7641 0.0
H283 H 0.74486 0.8686 0.734 0.0
H284 H 0.15579 0.02964 0.73773 0.0
N285 N 0.12622 0.89599 0.74551 0.0
C286 C 0.15308 0.92258 0.74787 0.0
C287 C 0.19286 0.86493 0.75974 0.0
C288 C 0.20096 0.92141 0.75652 0.0
C289 C 0.14559 0.86729 0.75088 0.0
C290 C 0.22063 0.89211 0.76267 0.0
N291 N 0.08564 0.95112 0.73357 0.0
C292 C 0.06496 0.97834 0.72526 0.0
C293 C 0.15884 0.97926 0.74342 0.0
C294 C 0.13226 0.95112 0.74148 0.0
C295 C 0.13669 0.00746 0.73642 0.0
C296 C 0.08976 0.00693 0.72701 0.0
H297 H 0.25728 0.8902 0.76945 0.0
H298 H 0.26433 0.94905 0.76543 0.0
H299 H 0.22745 0.99968 0.75397 0.0
O300 O 0.04098 0.91334 0.69245 0.0
O301 O 0.06078 0.92478 0.76944 0.0
O302 O 0.98776 0.94183 0.78546 0.0
O303 O 0.0933 0.87986 0.70508 0.0
O304 O 0.98278 0.92845 0.72218 0.0
O305 O 0.94572 0.94471 0.75986 0.0
O306 O 0.93043 0.89957 0.82375 0.0
O307 O 0.93 0.88473 0.74335 0.0
O308 O 0.00095 0.86174 0.73175 0.0
O309 O 0.88417 0.9278 0.79947 0.0
O310 O 0.00871 0.88011 0.79354 0.0
O311 O 0.03911 0.86084 0.75546 0.0
C312 C 0.0348 0.94387 0.78348 0.0
C313 C 0.11214 0.9094 0.66776 0.0
C314 C 0.14052 0.91961 0.62401 0.0
C315 C 0.17998 0.93623 0.63402 0.0
C316 C 0.15234 0.92561 0.67711 0.0
C317 C 0.18576 0.93914 0.66038 0.0
C318 C 0.10647 0.90627 0.6411 0.0
C319 C 0.95477 0.94765 0.73514 0.0
C320 C 0.07644 0.89539 0.68558 0.0
C321 C 0.22752 0.94943 0.75872 0.0
C322 C 0.20651 0.97828 0.75219 0.0
C323 C 0.9537 0.86185 0.73252 0.0
C324 C 0.86473 0.92926 0.84456 0.0
C325 C 0.84844 0.9334 0.89066 0.0
C326 C 0.80656 0.95047 0.8849 0.0
C327 C 0.82288 0.94665 0.83963 0.0
C328 C 0.87739 0.92253 0.87023 0.0
C329 C 0.7941 0.95707 0.85964 0.0
C330 C 0.03569 0.86013 0.78062 0.0
C331 C 0.89382 0.91841 0.82252 0.0
H332 H 0.20721 0.94627 0.62146 0.0
H333 H 0.15847 0.92751 0.69731 0.0
H334 H 0.21665 0.95155 0.66789 0.0
H335 H 0.07575 0.8935 0.6337 0.0
H336 H 0.7828 0.95841 0.89997 0.0
H337 H 0.81199 0.9521 0.8202 0.0
H338 H 0.90971 0.90931 0.87426 0.0
H339 H 0.76177 0.97021 0.85555 0.0
Tb340 Tb 0.47321 0.61417 0.22447 0.0
C341 C 0.66766 0.64343 0.27123 0.0
N342 N 0.6431 0.61569 0.27137 0.0
C343 C 0.71476 0.58901 0.25793 0.0
C344 C 0.7162 0.64522 0.2634 0.0
C345 C 0.66701 0.58836 0.26644 0.0
C346 C 0.73923 0.61764 0.25595 0.0
C347 C 0.66974 0.69861 0.2825 0.0
C348 C 0.64493 0.6698 0.28055 0.0
C349 C 0.71756 0.70077 0.27396 0.0
C350 C 0.74066 0.67418 0.26426 0.0
Tb351 Tb 0.56423 0.61849 0.28458 0.0
N352 N 0.59839 0.66699 0.28814 0.0
C353 C 0.64587 0.72418 0.29335 0.0
C354 C 0.57572 0.69128 0.30004 0.0
C355 C 0.59882 0.72038 0.30244 0.0
H356 H 0.65008 0.56578 0.26953 0.0
H357 H 0.58041 0.7398 0.31135 0.0
H358 H 0.37946 0.65112 0.24924 0.0
H359 H 0.48875 0.49891 0.18226 0.0
H360 H 0.53967 0.6882 0.30741 0.0
H361 H 0.66368 0.74675 0.29518 0.0
H362 H 0.51522 0.55271 0.19158 0.0
H363 H 0.73299 0.56733 0.25345 0.0
H364 H 0.73721 0.72275 0.27517 0.0
H365 H 0.77787 0.67605 0.25817 0.0
H366 H 0.29617 0.63828 0.26179 0.0
H367 H 0.77646 0.618 0.24975 0.0
H368 H 0.40979 0.47968 0.19734 0.0
N369 N 0.39555 0.60487 0.23685 0.0
C370 C 0.37784 0.57576 0.23191 0.0
C371 C 0.31892 0.62036 0.25365 0.0
C372 C 0.33025 0.56741 0.23854 0.0
C373 C 0.36648 0.62746 0.24686 0.0
C374 C 0.30082 0.59013 0.24969 0.0
N375 N 0.45339 0.56356 0.21396 0.0
C376 C 0.48172 0.54436 0.19957 0.0
C377 C 0.3912 0.52369 0.21519 0.0
C378 C 0.40809 0.55421 0.22057 0.0
C379 C 0.42149 0.50325 0.20206 0.0
C380 C 0.46645 0.5139 0.19375 0.0
H381 H 0.26403 0.58466 0.25507 0.0
H382 H 0.2775 0.52975 0.23919 0.0
H383 H 0.3308 0.49146 0.21856 0.0
O384 O 0.45706 0.6095 0.18527 0.0
O385 O 0.45243 0.5933 0.26201 0.0
O386 O 0.5225 0.57513 0.27993 0.0
O387 O 0.44701 0.65351 0.20431 0.0
O388 O 0.54475 0.59303 0.21973 0.0
O389 O 0.5691 0.57644 0.26016 0.0
O390 O 0.53975 0.62336 0.32248 0.0
O391 O 0.56015 0.65697 0.25633 0.0
O392 O 0.54644 0.6325 0.21829 0.0
O393 O 0.60885 0.60352 0.31485 0.0
O394 O 0.49154 0.63764 0.28885 0.0
O395 O 0.46835 0.6559 0.24876 0.0
C396 C 0.47602 0.57237 0.27572 0.0
C397 C 0.39656 0.64243 0.16862 0.0
C398 C 0.35481 0.64251 0.12742 0.0
C399 C 0.31323 0.65345 0.13979 0.0
C400 C 0.35464 0.65348 0.18052 0.0
C401 C 0.31317 0.65871 0.16616 0.0
C402 C 0.39628 0.6367 0.14207 0.0
C403 C 0.56932 0.57413 0.23491 0.0
C404 C 0.44162 0.63807 0.18306 0.0
C405 C 0.31379 0.53673 0.23399 0.0
C406 C 0.34422 0.5149 0.22235 0.0
C407 C 0.56723 0.65477 0.2316 0.0
C408 C 0.56982 0.58794 0.35317 0.0
C409 C 0.57477 0.57437 0.39864 0.0
C410 C 0.55116 0.54579 0.39362 0.0
C411 C 0.54682 0.55925 0.3485 0.0
C412 C 0.584 0.59536 0.37819 0.0
C413 C 0.53749 0.53829 0.36866 0.0
C414 C 0.4683 0.65768 0.27403 0.0
C415 C 0.57795 0.61093 0.33245 0.0
H416 H 0.28069 0.65788 0.12902 0.0
H417 H 0.35401 0.65851 0.20077 0.0
H418 H 0.28098 0.66722 0.17546 0.0
H419 H 0.42875 0.62862 0.1327 0.0
H420 H 0.54384 0.52909 0.40893 0.0
H421 H 0.53604 0.55328 0.32932 0.0
H422 H 0.6014 0.61775 0.3818 0.0
H423 H 0.51958 0.51619 0.36499 0.0
C424 C 0.14365 0.9321 0.37067 0.0
C425 C 0.19195 0.9232 0.37219 0.0
C426 C 0.12888 0.95605 0.35393 0.0
C427 C 0.16319 0.97138 0.33797 0.0
C428 C 0.21185 0.96166 0.33869 0.0
C429 C 0.22567 0.9376 0.35577 0.0
C430 C 0.07629 0.96449 0.35343 0.0
C431 C 0.24955 0.97749 0.32211 0.0
C432 C 0.11251 0.0202 0.2829 0.0
C433 C 0.1093 0.04987 0.29418 0.0
C434 C 0.13141 0.99449 0.29659 0.0
C435 C 0.14851 0.99884 0.32187 0.0
C436 C 0.14778 0.02925 0.33269 0.0
C437 C 0.1278 0.05432 0.31881 0.0
C438 C 0.13031 0.96239 0.28459 0.0
C439 C 0.16538 0.03493 0.35959 0.0
H440 H 0.1173 0.92052 0.38294 0.0
H441 H 0.26314 0.93089 0.35699 0.0
H442 H 0.07081 0.99008 0.35066 0.0
H443 H 0.05919 0.95198 0.33727 0.0
H444 H 0.05752 0.95707 0.37133 0.0
H445 H 0.28513 0.9659 0.32369 0.0
H446 H 0.23825 0.97737 0.30175 0.0
H447 H 0.25353 1.00241 0.32782 0.0
H448 H 0.09761 0.01664 0.26398 0.0
H449 H 0.12527 0.07729 0.32752 0.0
H450 H 0.10316 0.94754 0.29465 0.0
H451 H 0.16565 0.9507 0.28672 0.0
H452 H 0.12094 0.96347 0.26393 0.0
H453 H 0.14105 0.02285 0.37346 0.0
H454 H 0.16659 0.06033 0.3643 0.0
H455 H 0.20184 0.02497 0.36217 0.0
C456 C 0.37763 0.58832 0.86963 0.0
C457 C 0.32819 0.59438 0.87157 0.0
C458 C 0.39542 0.56605 0.8523 0.0
C459 C 0.363 0.54908 0.83667 0.0
C460 C 0.31328 0.55607 0.83774 0.0
C461 C 0.29651 0.57871 0.85509 0.0
C462 C 0.44878 0.55971 0.85152 0.0
C463 C 0.27743 0.53841 0.82159 0.0
C464 C 0.41573 0.50036 0.78224 0.0
C465 C 0.42097 0.471 0.79425 0.0
C466 C 0.39605 0.52597 0.79556 0.0
C467 C 0.38062 0.52191 0.82133 0.0
C468 C 0.38405 0.49188 0.83307 0.0
C469 C 0.40448 0.46695 0.81949 0.0
C470 C 0.39366 0.55764 0.78245 0.0
C471 C 0.36749 0.48627 0.86033 0.0
H472 H 0.40239 0.60061 0.88209 0.0
H473 H 0.25823 0.58301 0.85662 0.0
H474 H 0.4559 0.53577 0.85913 0.0
H475 H 0.46215 0.56051 0.83146 0.0
H476 H 0.46961 0.57687 0.863 0.0
H477 H 0.24089 0.54874 0.82268 0.0
H478 H 0.28919 0.53822 0.80126 0.0
H479 H 0.27533 0.51361 0.82824 0.0
H480 H 0.42902 0.50371 0.76285 0.0
H481 H 0.40827 0.44425 0.82882 0.0
H482 H 0.41882 0.57416 0.79191 0.0
H483 H 0.35703 0.56759 0.78425 0.0
H484 H 0.4033 0.55638 0.7618 0.0
H485 H 0.39 0.50024 0.8736 0.0
H486 H 0.36972 0.46113 0.86608 0.0
H487 H 0.32979 0.49414 0.86273 0.0
C488 C 0.69149 0.58366 0.66428 0.0
C489 C 0.65979 0.59644 0.64619 0.0
C490 C 0.67559 0.56073 0.68207 0.0
C491 C 0.62698 0.55052 0.68168 0.0
C492 C 0.59441 0.56471 0.66439 0.0
C493 C 0.61118 0.58749 0.64696 0.0
C494 C 0.71127 0.54634 0.70039 0.0
C495 C 0.54221 0.55476 0.66343 0.0
C496 C 0.59134 0.46763 0.70185 0.0
C497 C 0.56916 0.47272 0.72558 0.0
C498 C 0.61203 0.49261 0.68786 0.0
C499 C 0.61045 0.52346 0.69783 0.0
C500 C 0.58911 0.52858 0.7221 0.0
C501 C 0.56839 0.50318 0.73557 0.0
C502 C 0.63429 0.48611 0.66203 0.0
C503 C 0.58693 0.56101 0.7335 0.0
H504 H 0.7291 0.59046 0.66371 0.0
H505 H 0.5864 0.59771 0.63327 0.0
H506 H 0.69645 0.54575 0.72016 0.0
H507 H 0.7183 0.52169 0.69481 0.0
H508 H 0.74599 0.55936 0.70045 0.0
H509 H 0.52093 0.56954 0.65004 0.0
H510 H 0.53961 0.52997 0.65716 0.0
H511 H 0.52572 0.55606 0.68278 0.0
H512 H 0.59228 0.44409 0.69411 0.0
H513 H 0.55049 0.50734 0.75368 0.0
H514 H 0.67148 0.49563 0.66118 0.0
H515 H 0.61335 0.49814 0.64681 0.0
H516 H 0.63534 0.46061 0.65773 0.0
H517 H 0.62351 0.57147 0.73427 0.0
H518 H 0.57137 0.56075 0.75314 0.0
H519 H 0.56475 0.57653 0.72118 0.0
C520 C 0.85568 0.92704 0.16799 0.0
C521 C 0.87646 0.92465 0.14346 0.0
C522 C 0.87161 0.94985 0.18554 0.0
C523 C 0.90837 0.97136 0.17826 0.0
C524 C 0.9293 0.96918 0.15359 0.0
C525 C 0.91387 0.94563 0.13681 0.0
C526 C 0.84934 0.95084 0.21195 0.0
C527 C 0.96834 0.99173 0.14488 0.0
C528 C 0.92524 0.0503 0.21101 0.0
C529 C 0.96792 0.04535 0.22455 0.0
C530 C 0.90421 0.02605 0.19665 0.0
C531 C 0.92593 0.99598 0.19629 0.0
C532 C 0.9676 0.99053 0.2112 0.0
C533 C 0.98853 0.01542 0.22479 0.0
C534 C 0.86029 0.03314 0.18078 0.0
C535 C 0.99106 0.95866 0.21218 0.0
H536 H 0.82663 0.9113 0.17347 0.0
H537 H 0.93172 0.9436 0.11843 0.0
H538 H 0.87775 0.94856 0.22671 0.0
H539 H 0.83165 0.9738 0.21494 0.0
H540 H 0.82231 0.93186 0.21502 0.0
H541 H 0.97879 0.98823 0.12454 0.0
H542 H 0.95624 0.01635 0.1472 0.0
H543 H 1.00067 0.98857 0.15696 0.0
H544 H 0.90934 0.07351 0.21083 0.0
H545 H 0.02119 0.01151 0.23561 0.0
H546 H 0.8319 0.01522 0.18427 0.0
H547 H 0.86992 0.03225 0.16014 0.0
H548 H 0.8453 0.0567 0.18495 0.0
H549 H 0.96369 0.94 0.21554 0.0
H550 H 0.01867 0.95712 0.22747 0.0
H551 H 0.00866 0.95385 0.19353 0.0
C552 C 0.89226 0.09225 0.64455 0.0
C553 C 0.84323 0.09947 0.64327 0.0
C554 C 0.9091 0.06868 0.66118 0.0
C555 C 0.87592 0.05129 0.67641 0.0
C556 C 0.82635 0.05882 0.67543 0.0
C557 C 0.81065 0.08312 0.65906 0.0
C558 C 0.96233 0.06194 0.66203 0.0
C559 C 0.78972 0.04043 0.69091 0.0
C560 C 0.91799 0.96945 0.69527 0.0
C561 C 0.93162 0.97362 0.72084 0.0
C562 C 0.89812 0.99423 0.68095 0.0
C563 C 0.89303 0.02419 0.69223 0.0
C564 C 0.90643 0.02844 0.71816 0.0
C565 C 0.92496 1.00295 0.73227 0.0
C566 C 0.88327 0.98842 0.65359 0.0
C567 C 0.90281 0.06015 0.73071 0.0
H568 H 0.91743 0.10503 0.63237 0.0
H569 H 0.77269 0.08859 0.65789 0.0
H570 H 0.97522 0.06214 0.68213 0.0
H571 H 0.9693 0.03818 0.65435 0.0
H572 H 0.9837 0.07928 0.65068 0.0
H573 H 0.75284 0.04998 0.68878 0.0
H574 H 0.78954 0.01557 0.68468 0.0
H575 H 0.79943 0.04054 0.7115 0.0
H576 H 0.92275 0.9467 0.68646 0.0
H577 H 0.93596 1.00628 0.75198 0.0
H578 H 0.90642 1.0024 0.64037 0.0
H579 H 0.84565 0.99616 0.65057 0.0
H580 H 0.88604 0.96326 0.64833 0.0
H581 H 0.92669 0.07719 0.72059 0.0
H582 H 0.91313 0.05931 0.75125 0.0
H583 H 0.8656 0.06919 0.72922 0.0
C584 C 0.63346 0.43138 0.14843 0.0
C585 C 0.68135 0.42153 0.14734 0.0
C586 C 0.6192 0.45545 0.16486 0.0
C587 C 0.65368 0.47041 0.18057 0.0
C588 C 0.70206 0.4601 0.18002 0.0
C589 C 0.71531 0.43557 0.1635 0.0
C590 C 0.56718 0.46512 0.16515 0.0
C591 C 0.73995 0.47556 0.19632 0.0
C592 C 0.61712 0.55319 0.1984 0.0
C593 C 0.59692 0.54857 0.22278 0.0
C594 C 0.63837 0.5283 0.18511 0.0
C595 C 0.63896 0.49788 0.19634 0.0
C596 C 0.62064 0.49344 0.22152 0.0
C597 C 0.60007 0.51892 0.23452 0.0
C598 C 0.65786 0.53424 0.15845 0.0
C599 C 0.62024 0.46143 0.23416 0.0
H600 H 0.60697 0.42016 0.1363 0.0
H601 H 0.75242 0.42798 0.16266 0.0
H602 H 0.55251 0.4623 0.18483 0.0
H603 H 0.56419 0.49026 0.15964 0.0
H604 H 0.54475 0.45102 0.15189 0.0
H605 H 0.77526 0.46361 0.19486 0.0
H606 H 0.74458 0.50044 0.19025 0.0
H607 H 0.72845 0.47559 0.2167 0.0
H608 H 0.61518 0.57621 0.1894 0.0
H609 H 0.58432 0.51528 0.25336 0.0
H610 H 0.63442 0.52247 0.14426 0.0
H611 H 0.69438 0.52416 0.15648 0.0
H612 H 0.65964 0.55969 0.15363 0.0
H613 H 0.59369 0.44612 0.22443 0.0
H614 H 0.61053 0.46261 0.2548 0.0
H615 H 0.65591 0.45013 0.23231 0.0
C616 C 0.35312 0.46532 0.38151 0.0
C617 C 0.34405 0.4336 0.37546 0.0
C618 C 0.37262 0.48658 0.36347 0.0
C619 C 0.37942 0.47713 0.33778 0.0
C620 C 0.36688 0.44606 0.33083 0.0
C621 C 0.35105 0.42452 0.34978 0.0
C622 C 0.38766 0.51892 0.37229 0.0
C623 C 0.37121 0.4349 0.30354 0.0
C624 C 0.39993 0.54746 0.29316 0.0
C625 C 0.44976 0.54631 0.28903 0.0
C626 C 0.3759 0.5237 0.30724 0.0
C627 C 0.40272 0.49929 0.31896 0.0
C628 C 0.45284 0.49757 0.31423 0.0
C629 C 0.4753 0.52048 0.2987 0.0
C630 C 0.32187 0.52487 0.30969 0.0
C631 C 0.48326 0.47201 0.32601 0.0
H632 H 0.34583 0.47394 0.40053 0.0
H633 H 0.34518 0.40041 0.34418 0.0
H634 H 0.42499 0.52422 0.36594 0.0
H635 H 0.36396 0.53694 0.36368 0.0
H636 H 0.3859 0.5212 0.39346 0.0
H637 H 0.34316 0.41701 0.29933 0.0
H638 H 0.36796 0.45444 0.28945 0.0
H639 H 0.40665 0.42357 0.30084 0.0
H640 H 0.37978 0.5673 0.28598 0.0
H641 H 0.51354 0.51871 0.29491 0.0
H642 H 0.31163 0.5317 0.3294 0.0
H643 H 0.3061 0.5013 0.30611 0.0
H644 H 0.30581 0.54201 0.29607 0.0
H645 H 0.47393 0.46834 0.34652 0.0
H646 H 0.52231 0.47744 0.32453 0.0
H647 H 0.47649 0.44963 0.31592 0.0
C648 C 0.17183 0.09044 0.84905 0.0
C649 C 0.17469 0.08452 0.87554 0.0
C650 C 0.15056 0.06847 0.83245 0.0
C651 C 0.13068 0.04027 0.84262 0.0
C652 C 0.13338 0.03418 0.86923 0.0
C653 C 0.15604 0.05597 0.88519 0.0
C654 C 0.14939 0.07536 0.80404 0.0
C655 C 0.1124 1.00451 0.88095 0.0
C656 C 0.03403 0.99501 0.80688 0.0
C657 C 0.05971 0.969 0.79794 0.0
C658 C 0.05693 0.01882 0.82084 0.0
C659 C 0.1069 0.01686 0.82569 0.0
C660 C 0.13319 0.99097 0.8163 0.0
C661 C 0.10915 0.96716 0.8029 0.0
C662 C 0.02732 0.04558 0.8311 0.0
C663 C 0.18666 0.98822 0.82065 0.0
H664 H 0.18591 0.11231 0.84127 0.0
H665 H 0.15957 0.05025 0.90535 0.0
H666 H 0.16649 0.05591 0.79338 0.0
H667 H 0.1116 0.07688 0.79744 0.0
H668 H 0.16818 0.09768 0.799 0.0
H669 H 0.11565 1.00394 0.90215 0.0
H670 H 0.07379 1.00235 0.8759 0.0
H671 H 0.13096 0.98367 0.87311 0.0
H672 H 0.99582 0.99671 0.80312 0.0
H673 H 0.12909 0.94684 0.79666 0.0
H674 H 0.04293 0.06842 0.82481 0.0
H675 H 0.02798 0.04508 0.85236 0.0
H676 H 0.98929 0.04441 0.82471 0.0
H677 H 0.20546 0.00834 0.8113 0.0
H678 H 0.20151 0.96606 0.8129 0.0
H679 H 0.19483 0.98921 0.84142 0.0
C680 C 0.15227 0.13505 0.97403 0.0
C681 C 0.19485 0.12182 0.96479 0.0
C682 C 0.13716 0.12969 0.99945 0.0
C683 C 0.1646 0.10985 0.01566 0.0
C684 C 0.2078 0.09658 1.0063 0.0
C685 C 0.22266 0.10303 0.98105 0.0
C686 C 0.09158 0.14491 0.00886 0.0
C687 C 0.23752 0.07474 0.0227 0.0
C688 C 0.15022 0.11141 0.08819 0.0
C689 C 0.11914 0.08579 0.09281 0.0
C690 C 0.16408 0.12008 0.06318 0.0
C691 C 0.14765 0.10224 0.04217 0.0
C692 C 0.11628 0.07642 0.04658 0.0
C693 C 0.10195 0.06878 0.07174 0.0
C694 C 0.19686 0.14813 0.05927 0.0
C695 C 0.09851 0.05647 0.02474 0.0
H696 H 0.13074 0.14944 0.96129 0.0
H697 H 0.25522 0.09246 0.97365 0.0
H698 H 0.06432 0.1266 0.01352 0.0
H699 H 0.09875 0.15806 0.02673 0.0
H700 H 0.07614 0.1613 0.99444 0.0
H701 H 0.27031 0.06652 0.01261 0.0
H702 H 0.24857 0.0867 0.04055 0.0
H703 H 0.21562 0.05394 0.0284 0.0
H704 H 0.16466 0.12447 0.10416 0.0
H705 H 0.07719 0.04938 0.07484 0.0
H706 H 0.18098 0.16466 0.04513 0.0
H707 H 0.23189 0.14038 0.05139 0.0
H708 H 0.20356 0.16095 0.07738 0.0
H709 H 0.0786 0.07118 0.01076 0.0
H710 H 0.07453 0.03707 0.03137 0.0
H711 H 0.12955 0.04619 0.01442 0.0
C712 C 0.37393 0.41712 0.47861 0.0
C713 C 0.33236 0.40207 0.46952 0.0
C714 C 0.37976 0.42338 0.5049 0.0
C715 C 0.34338 0.41415 0.52257 0.0
C716 C 0.30131 0.39915 0.51348 0.0
C717 C 0.29618 0.39357 0.48717 0.0
C718 C 0.42493 0.4397 0.51381 0.0
C719 C 0.26162 0.38883 0.53158 0.0
C720 C 0.36981 0.40162 0.59351 0.0
C721 C 0.34906 0.42835 0.60441 0.0
C722 C 0.36964 0.39714 0.56683 0.0
C723 C 0.34871 0.42013 0.5506 0.0
C724 C 0.32936 0.44772 0.56146 0.0
C725 C 0.3295 0.4514 0.5882 0.0
C726 C 0.39015 0.36723 0.5561 0.0
C727 C 0.30727 0.473 0.54487 0.0
H728 H 0.40229 0.42356 0.46525 0.0
H729 H 0.26343 0.38258 0.48038 0.0
H730 H 0.41554 0.46134 0.52438 0.0
H731 H 0.44473 0.42422 0.52727 0.0
H732 H 0.44922 0.44616 0.49763 0.0
H733 H 0.2316 0.37691 0.52151 0.0
H734 H 0.27611 0.3725 0.54628 0.0
H735 H 0.24704 0.40946 0.5418 0.0
H736 H 0.38472 0.38364 0.60594 0.0
H737 H 0.31406 0.47234 0.59648 0.0
H738 H 0.4166 0.3727 0.54072 0.0
H739 H 0.3609 0.35311 0.54739 0.0
H740 H 0.40801 0.3527 0.57102 0.0
H741 H 0.33261 0.48012 0.52939 0.0
H742 H 0.29745 0.49414 0.55603 0.0
H743 H 0.27438 0.46373 0.53557 0.0
C744 C 0.69778 0.36292 0.03869 0.0
C745 C 0.67147 0.37732 0.05837 0.0
C746 C 0.68001 0.36137 0.01363 0.0
C747 C 0.63576 0.37585 1.00764 0.0
C748 C 0.61024 0.39204 0.02693 0.0
C749 C 0.62793 0.39212 0.05215 0.0
C750 C 0.70801 0.34338 0.99376 0.0
C751 C 0.56382 0.4088 0.02105 0.0
C752 C 0.61679 0.38868 0.93631 0.0
C753 C 0.58599 0.36356 0.93007 0.0
C754 C 0.63098 0.39404 0.9617 0.0
C755 C 0.61583 0.37305 0.9813 0.0
C756 C 0.58437 0.34793 0.97534 0.0
C757 C 0.56909 0.34389 0.94996 0.0
C758 C 0.66331 0.42172 0.9674 0.0
C759 C 0.56826 0.32456 0.99559 0.0
H760 H 0.73222 0.35233 0.04288 0.0
H761 H 0.60688 0.40313 0.06705 0.0
H762 H 0.68524 0.3243 0.98586 0.0
H763 H 0.71815 0.35912 0.97757 0.0
H764 H 0.74127 0.3328 1.00169 0.0
H765 H 0.5512 0.42316 0.0374 0.0
H766 H 0.56846 0.42435 1.00403 0.0
H767 H 0.53541 0.3914 0.0164 0.0
H768 H 0.6311 0.40383 0.92134 0.0
H769 H 0.54428 0.32496 0.94574 0.0
H770 H 0.69986 0.4133 0.97223 0.0
H771 H 0.64958 0.43477 0.9842 0.0
H772 H 0.6663 0.43822 0.95085 0.0
H773 H 0.60007 0.31249 1.00375 0.0
H774 H 0.54328 0.30653 0.98791 0.0
H775 H 0.55008 0.33684 0.01154 0.0
C776 C 0.79094 0.14309 0.53389 0.0
C777 C 0.82672 0.13423 0.55143 0.0
C778 C 0.79718 0.13908 0.50743 0.0
C779 C 0.83996 0.12535 0.49808 0.0
C780 C 0.87593 0.11579 0.51561 0.0
C781 C 0.869 0.12048 0.54204 0.0
C782 C 0.75793 0.14968 0.48944 0.0
C783 C 0.92182 0.10077 0.50642 0.0
C784 C 0.83113 0.09117 0.43111 0.0
C785 C 0.85146 0.11523 0.41597 0.0
C786 C 0.8288 0.09364 0.45792 0.0
C787 C 0.84663 0.12103 0.46992 0.0
C788 C 0.86812 0.14512 0.45476 0.0
C789 C 0.87056 0.14183 0.42799 0.0
C790 C 0.80627 0.06722 0.47335 0.0
C791 C 0.88704 0.17486 0.46674 0.0
H792 H 0.75767 0.15307 0.54088 0.0
H793 H 0.89709 0.11381 0.55532 0.0
H794 H 0.77256 0.16706 0.47545 0.0
H795 H 0.74428 0.1294 0.47836 0.0
H796 H 0.72724 0.16049 0.49973 0.0
H797 H 0.94567 0.09383 0.52251 0.0
H798 H 0.91336 0.0796 0.49499 0.0
H799 H 0.94174 0.11732 0.49367 0.0
H800 H 0.81693 0.07036 0.42193 0.0
H801 H 0.88601 0.16057 0.41637 0.0
H802 H 0.77284 0.07554 0.48269 0.0
H803 H 0.83101 0.05957 0.4888 0.0
H804 H 0.79726 0.04659 0.46135 0.0
H805 H 0.85695 0.18778 0.47577 0.0
H806 H 0.90491 0.19062 0.45251 0.0
H807 H 0.91311 0.16912 0.4821 0.0
C808 C 0.81632 0.88554 0.03553 0.0
C809 C 0.85506 0.8912 0.05196 0.0
C810 C 0.81993 0.89202 0.00915 0.0
C811 C 0.86377 0.90377 0.99882 0.0
C812 C 0.90339 0.90886 0.01529 0.0
C813 C 0.89837 0.90287 0.04173 0.0
C814 C 0.77646 0.88691 0.99241 0.0
C815 C 0.951 0.9207 1.00499 0.0
C816 C 0.87465 0.89681 0.9262 0.0
C817 C 0.86006 0.92678 0.91809 0.0
C818 C 0.87847 0.88936 0.95248 0.0
C819 C 0.86689 0.91229 0.97103 0.0
C820 C 0.85469 0.94301 0.9629 0.0
C821 C 0.85198 0.94993 0.93662 0.0
C822 C 0.89274 0.85654 0.96037 0.0
C823 C 0.84189 0.96819 0.98193 0.0
H824 H 0.78278 0.87661 0.04346 0.0
H825 H 0.92855 0.90689 0.0544 0.0
H826 H 0.76586 0.90946 0.98329 0.0
H827 H 0.78524 0.87036 0.9768 0.0
H828 H 0.7452 0.87741 1.00336 0.0
H829 H 0.9791 0.92161 0.02005 0.0
H830 H 0.96365 0.9053 0.98933 0.0
H831 H 0.94669 0.9446 0.99674 0.0
H832 H 0.88093 0.87874 0.91209 0.0
H833 H 0.8419 0.97339 0.93055 0.0
H834 H 0.86115 0.84403 0.96866 0.0
H835 H 0.92084 0.85734 0.97539 0.0
H836 H 0.90645 0.84275 0.94393 0.0
H837 H 0.80872 0.96124 0.99247 0.0
H838 H 0.83574 0.99134 0.97255 0.0
H839 H 0.87089 0.97087 0.99628 0.0
C840 C 0.64133 0.64321 0.53648 0.0
C841 C 0.66183 0.62025 0.55238 0.0
C842 C 0.62647 0.63601 0.51151 0.0
C843 C 0.63284 0.60519 0.50212 0.0
C844 C 0.65372 0.58193 0.51808 0.0
C845 C 0.66767 0.5897 0.54308 0.0
C846 C 0.60376 0.66134 0.49522 0.0
C847 C 0.66166 0.54892 0.50867 0.0
C848 C 0.55759 0.57794 0.44571 0.0
C849 C 0.58958 0.58233 0.42514 0.0
C850 C 0.57109 0.58544 0.47085 0.0
C851 C 0.61788 0.59731 0.47555 0.0
C852 C 0.6504 0.60165 0.45485 0.0
C853 C 0.63577 0.59427 0.42988 0.0
C854 C 0.53519 0.58084 0.49235 0.0
C855 C 0.70077 0.6139 0.45911 0.0
H856 H 0.63629 0.66676 0.54373 0.0
H857 H 0.68393 0.57198 0.55527 0.0
H858 H 0.62539 0.66527 0.47757 0.0
H859 H 0.56733 0.65378 0.48915 0.0
H860 H 0.60068 0.68398 0.50551 0.0
H861 H 0.67863 0.53365 0.52341 0.0
H862 H 0.62688 0.5382 0.50302 0.0
H863 H 0.68502 0.54945 0.49138 0.0
H864 H 0.52168 0.56905 0.44209 0.0
H865 H 0.66077 0.59737 0.41406 0.0
H866 H 0.52901 0.60348 0.50218 0.0
H867 H 0.54963 0.56417 0.50681 0.0
H868 H 0.50011 0.57168 0.48545 0.0
H869 H 0.69941 0.63748 0.46797 0.0
H870 H 0.7218 0.61567 0.44101 0.0
H871 H 0.72008 0.59819 0.47261 0.0
C872 C 0.28456 0.61285 0.98311 0.0
C873 C 0.31901 0.62231 0.96494 0.0
C874 C 0.29495 0.61294 0.0094 0.0
C875 C 0.34071 0.62331 0.01778 0.0
C876 C 0.37648 0.63139 0.99939 0.0
C877 C 0.36525 0.6306 0.9731 0.0
C878 C 0.25599 0.60361 0.02825 0.0
C879 C 0.42554 0.64279 1.00748 0.0
C880 C 0.33781 0.66202 0.08307 0.0
C881 C 0.35487 0.63809 0.09919 0.0
C882 C 0.33498 0.65789 0.05647 0.0
C883 C 0.34888 0.62889 0.04565 0.0
C884 C 0.36726 0.60486 0.06176 0.0
C885 C 0.3704 0.60984 0.08835 0.0
C886 C 0.31591 0.68435 0.04001 0.0
C887 C 0.38189 0.5735 0.05105 0.0
H888 H 0.24881 0.60635 0.97674 0.0
H889 H 0.39175 0.63815 0.95902 0.0
H890 H 0.27014 0.58677 0.04266 0.0
H891 H 0.24361 0.62468 0.0387 0.0
H892 H 0.22448 0.59276 0.01866 0.0
H893 H 0.45101 0.64445 0.99106 0.0
H894 H 0.42227 0.66639 0.01616 0.0
H895 H 0.44088 0.62691 0.02226 0.0
H896 H 0.32643 0.68405 0.09136 0.0
H897 H 0.38345 0.59125 0.10079 0.0
H898 H 0.28128 0.67717 0.03127 0.0
H899 H 0.34137 0.68969 0.02413 0.0
H900 H 0.30994 0.70614 0.05112 0.0
H901 H 0.34975 0.56121 0.04345 0.0
H902 H 0.39892 0.55819 0.06574 0.0
H903 H 0.40738 0.57684 0.03484 0.0
C904 C 0.14205 0.89633 0.47014 0.0
C905 C 0.18994 0.8889 0.46427 0.0
C906 C 0.12729 0.90113 0.49561 0.0
C907 C 0.16131 0.8986 0.51564 0.0
C908 C 0.20963 0.89101 0.5098 0.0
C909 C 0.2233 0.88626 0.48425 0.0
C910 C 0.07544 0.90902 0.50109 0.0
C911 C 0.24715 0.88833 0.53055 0.0
C912 C 0.14765 0.94027 0.5791 0.0
C913 C 0.13716 0.91517 0.59584 0.0
C914 C 0.15289 0.93551 0.55268 0.0
C915 C 0.14736 0.9049 0.5427 0.0
C916 C 0.13353 0.87985 0.55925 0.0
C917 C 0.12861 0.88529 0.58567 0.0
C918 C 0.16729 0.96292 0.53571 0.0
C919 C 0.12691 0.84692 0.54933 0.0
H920 H 0.11599 0.89808 0.45481 0.0
H921 H 0.2605 0.88099 0.47983 0.0
H922 H 0.05985 0.89166 0.51479 0.0
H923 H 0.07323 0.9324 0.51023 0.0
H924 H 0.05319 0.90932 0.48346 0.0
H925 H 0.28292 0.88161 0.52287 0.0
H926 H 0.25087 0.91111 0.54055 0.0
H927 H 0.2358 0.87055 0.54504 0.0
H928 H 0.15346 0.96354 0.58682 0.0
H929 H 0.1207 0.86576 0.5985 0.0
H930 H 0.14392 0.96411 0.51856 0.0
H931 H 0.20475 0.95967 0.52887 0.0
H932 H 0.16525 0.98568 0.5459 0.0
H933 H 0.1042 0.84704 0.5319 0.0
H934 H 0.11018 0.83104 0.56387 0.0
H935 H 0.16241 0.83719 0.54388 0.0
C936 C 0.17519 0.29658 0.36857 0.0
C937 C 0.22472 0.30004 0.36465 0.0
C938 C 0.14862 0.27399 0.35505 0.0
C939 C 0.17234 0.25437 0.33727 0.0
C940 C 0.22225 0.25867 0.33264 0.0
C941 C 0.24794 0.28144 0.34651 0.0
C942 C 0.09555 0.27027 0.36056 0.0
C943 C 0.24868 0.23871 0.3135 0.0
C944 C 0.11626 0.17439 0.32302 0.0
C945 C 0.09379 0.18013 0.29948 0.0
C946 C 0.142 0.19833 0.33551 0.0
C947 C 0.14522 0.22872 0.3242 0.0
C948 C 0.12194 0.23466 0.30061 0.0
C949 C 0.09628 0.21039 0.28869 0.0
C950 C 0.16618 0.19104 0.36068 0.0
C951 C 0.1244 0.26658 0.28782 0.0
H952 H 0.15756 0.31065 0.38302 0.0
H953 H 0.28648 0.28389 0.34385 0.0
H954 H 0.07474 0.27178 0.3425 0.0
H955 H 0.08848 0.24672 0.36909 0.0
H956 H 0.08204 0.28838 0.37395 0.0
H957 H 0.28781 0.24406 0.31286 0.0
H958 H 0.24365 0.21342 0.31817 0.0
H959 H 0.23351 0.24279 0.29417 0.0
H960 H 0.11449 0.15102 0.33142 0.0
H961 H 0.07787 0.21519 0.27086 0.0
H962 H 0.15262 0.207 0.37574 0.0
H963 H 0.20549 0.19515 0.3589 0.0
H964 H 0.15996 0.16637 0.36704 0.0
H965 H 0.11228 0.285 0.30125 0.0
H966 H 0.10203 0.26783 0.27025 0.0
H967 H 0.16218 0.2721 0.28249 0.0
C968 C 0.34973 0.23323 0.87714 0.0
C969 C 0.33073 0.20685 0.86492 0.0
C970 C 0.36857 0.25864 0.86292 0.0
C971 C 0.36831 0.25761 0.83579 0.0
C972 C 0.34785 0.23123 0.82336 0.0
C973 C 0.32942 0.20599 0.83814 0.0
C974 C 0.3901 0.2862 0.87697 0.0
C975 C 0.34675 0.2293 0.7945 0.0
C976 C 0.38905 0.33576 0.8012 0.0
C977 C 0.43837 0.33454 0.79568 0.0
C978 C 0.36532 0.31046 0.81338 0.0
C979 C 0.39174 0.28347 0.82066 0.0
C980 C 0.44152 0.28204 0.81491 0.0
C981 C 0.46413 0.30751 0.80242 0.0
C982 C 0.31219 0.31288 0.81895 0.0
C983 C 0.47124 0.2539 0.82248 0.0
H984 H 0.35094 0.23364 0.8979 0.0
H985 H 0.31495 0.18537 0.82878 0.0
H986 H 0.42906 0.28812 0.87251 0.0
H987 H 0.37307 0.30838 0.87049 0.0
H988 H 0.38564 0.284 0.89807 0.0
H989 H 0.32696 0.20821 0.78778 0.0
H990 H 0.32961 0.25056 0.78626 0.0
H991 H 0.38404 0.22852 0.7869 0.0
H992 H 0.36917 0.35683 0.79652 0.0
H993 H 0.50221 0.3063 0.79803 0.0
H994 H 0.30574 0.31129 0.83991 0.0
H995 H 0.29273 0.29299 0.81002 0.0
H996 H 0.29669 0.33522 0.81167 0.0
H997 H 0.47174 0.25147 0.84366 0.0
H998 H 0.50894 0.25579 0.8155 0.0
H999 H 0.45494 0.23212 0.81475 0.0
C1000 C 0.67106 0.22455 0.66521 0.0
C1001 C 0.72131 0.22518 0.66451 0.0
C1002 C 0.6454 0.24507 0.6811 0.0
C1003 C 0.67081 0.26677 0.69652 0.0
C1004 C 0.72177 0.26601 0.69699 0.0
C1005 C 0.74649 0.24528 0.6808 0.0
C1006 C 0.59117 0.24511 0.67988 0.0
C1007 C 0.75022 0.28852 0.71328 0.0
C1008 C 0.60837 0.34463 0.70798 0.0
C1009 C 0.58939 0.34041 0.73268 0.0
C1010 C 0.63549 0.32103 0.69624 0.0
C1011 C 0.64429 0.29252 0.7096 0.0
C1012 C 0.62635 0.28847 0.73486 0.0
C1013 C 0.59909 0.31249 0.74612 0.0
C1014 C 0.65389 0.32641 0.66929 0.0
C1015 C 0.63504 0.25852 0.74976 0.0
H1016 H 0.65174 0.20925 0.65225 0.0
H1017 H 0.78545 0.24597 0.67991 0.0
H1018 H 0.57536 0.24587 0.69941 0.0
H1019 H 0.57909 0.26645 0.66943 0.0
H1020 H 0.57681 0.22416 0.66987 0.0
H1021 H 0.78889 0.28218 0.71416 0.0
H1022 H 0.7473 0.31262 0.70518 0.0
H1023 H 0.7355 0.28906 0.73306 0.0
H1024 H 0.60146 0.36633 0.69765 0.0
H1025 H 0.58444 0.30912 0.76523 0.0
H1026 H 0.63808 0.30865 0.65631 0.0
H1027 H 0.6935 0.32353 0.66867 0.0
H1028 H 0.64495 0.35017 0.6618 0.0
H1029 H 0.61734 0.23854 0.73997 0.0
H1030 H 0.62101 0.25972 0.76968 0.0
H1031 H 0.6741 0.25341 0.75043 0.0
C1032 C 0.77907 0.26836 0.18143 0.0
C1033 C 0.79897 0.29537 0.17019 0.0
C1034 C 0.80721 0.24844 0.19671 0.0
C1035 C 0.85634 0.25588 0.20065 0.0
C1036 C 0.87547 0.28449 0.19083 0.0
C1037 C 0.84648 0.30388 0.17548 0.0
C1038 C 0.78542 0.21818 0.20679 0.0
C1039 C 0.92748 0.29342 0.19485 0.0
C1040 C 0.9251 0.20618 0.24892 0.0
C1041 C 0.94689 0.18398 0.23293 0.0
C1042 C 0.89627 0.23019 0.23872 0.0
C1043 C 0.88882 0.23187 0.21194 0.0
C1044 C 0.91122 0.20977 0.19571 0.0
C1045 C 0.94008 0.1862 0.20639 0.0
C1046 C 0.87335 0.2535 0.25657 0.0
C1047 C 0.90398 0.21063 0.16704 0.0
H1048 H 0.74235 0.26173 0.17693 0.0
H1049 H 0.86179 0.32467 0.1664 0.0
H1050 H 0.80044 0.1981 0.19601 0.0
H1051 H 0.79462 0.21459 0.22726 0.0
H1052 H 0.74567 0.21774 0.2048 0.0
H1053 H 0.93475 0.3183 0.18943 0.0
H1054 H 0.93788 0.28973 0.21515 0.0
H1055 H 0.95073 0.27819 0.18298 0.0
H1056 H 0.93046 0.20479 0.26946 0.0
H1057 H 0.95664 0.16915 0.19388 0.0
H1058 H 0.83363 0.25139 0.25557 0.0
H1059 H 0.88295 0.27781 0.25057 0.0
H1060 H 0.8846 0.24991 0.27678 0.0
H1061 H 0.86527 0.2075 0.16258 0.0
H1062 H 0.92461 0.19206 0.15707 0.0
H1063 H 0.91526 0.23383 0.15917 0.0
C1064 C 0.83828 0.73736 0.63958 0.0
C1065 C 0.80023 0.71962 0.64977 0.0
C1066 C 0.86392 0.7586 0.6548 0.0
C1067 C 0.85127 0.76205 0.68093 0.0
C1068 C 0.81392 0.7431 0.69157 0.0
C1069 C 0.78838 0.72223 0.67572 0.0
C1070 C 0.90328 0.7783 0.64259 0.0
C1071 C 0.79951 0.74573 0.71933 0.0
C1072 C 0.94463 0.80535 0.72071 0.0
C1073 C 0.92682 0.83607 0.72016 0.0
C1074 C 0.91927 0.78064 0.70908 0.0
C1075 C 0.87541 0.78693 0.69634 0.0
C1076 C 0.8569 0.81788 0.69625 0.0
C1077 C 0.88294 0.84207 0.70806 0.0
C1078 C 0.9398 0.74792 0.71002 0.0
C1079 C 0.81009 0.82563 0.68315 0.0
H1080 H 0.84701 0.73537 0.61938 0.0
H1081 H 0.75857 0.70858 0.68345 0.0
H1082 H 0.89318 0.80347 0.6431 0.0
H1083 H 0.9372 0.77574 0.6535 0.0
H1084 H 0.91015 0.77174 0.62235 0.0
H1085 H 0.77814 0.72504 0.72591 0.0
H1086 H 0.83156 0.74816 0.73176 0.0
H1087 H 0.77717 0.76699 0.72177 0.0
H1088 H 0.9783 0.80061 0.73038 0.0
H1089 H 0.8693 0.86587 0.70749 0.0
H1090 H 0.94969 0.74043 0.6904 0.0
H1091 H 0.91236 0.73107 0.71739 0.0
H1092 H 0.97221 0.74645 0.72235 0.0
H1093 H 0.81292 0.82048 0.66239 0.0
H1094 H 0.80002 0.85067 0.68543 0.0
H1095 H 0.78075 0.81072 0.69115 0.0
C1096 C 0.70722 0.78849 0.15051 0.0
C1097 C 0.75618 0.78877 0.15656 0.0
C1098 C 0.67509 0.76799 0.16329 0.0
C1099 C 0.69256 0.74715 0.18241 0.0
C1100 C 0.742 0.74807 0.18896 0.0
C1101 C 0.77322 0.76894 0.17595 0.0
C1102 C 0.62276 0.76788 0.15573 0.0
C1103 C 0.76214 0.7268 0.20949 0.0
C1104 C 0.6033 0.70873 0.22881 0.0
C1105 C 0.59785 0.67863 0.21843 0.0
C1106 C 0.63401 0.7312 0.21741 0.0
C1107 C 0.65951 0.72361 0.19479 0.0
C1108 C 0.65343 0.69341 0.18393 0.0
C1109 C 0.62264 0.67131 0.19585 0.0
C1110 C 0.63963 0.76289 0.22982 0.0
C1111 C 0.68009 0.68426 0.15991 0.0
H1112 H 0.69434 0.80356 0.13517 0.0
H1113 H 0.8113 0.76901 0.18037 0.0
H1114 H 0.6131 0.74475 0.14748 0.0
H1115 H 0.5997 0.77126 0.17287 0.0
H1116 H 0.61444 0.78652 0.14143 0.0
H1117 H 0.80207 0.72726 0.20985 0.0
H1118 H 0.74876 0.73463 0.22839 0.0
H1119 H 0.74987 0.70221 0.2068 0.0
H1120 H 0.58341 0.71477 0.24592 0.0
H1121 H 0.61868 0.64807 0.18776 0.0
H1122 H 0.6338 0.78197 0.21558 0.0
H1123 H 0.67683 0.76546 0.23715 0.0
H1124 H 0.61421 0.76606 0.24606 0.0
H1125 H 0.67163 0.70094 0.14413 0.0
H1126 H 0.67091 0.66009 0.15365 0.0
H1127 H 0.71943 0.68565 0.16326 0.0
C1128 C 0.29173 0.77625 0.34578 0.0
C1129 C 0.31828 0.80055 0.35684 0.0
C1130 C 0.31386 0.75483 0.3292 0.0
C1131 C 0.36371 0.75782 0.32388 0.0
C1132 C 0.38983 0.78362 0.33387 0.0
C1133 C 0.36671 0.80468 0.35037 0.0
C1134 C 0.2847 0.72776 0.3189 0.0
C1135 C 0.44293 0.78771 0.32863 0.0
C1136 C 0.43384 0.68281 0.31311 0.0
C1137 C 0.44062 0.68313 0.28647 0.0
C1138 C 0.40872 0.70689 0.32539 0.0
C1139 C 0.38967 0.732 0.3107 0.0
C1140 C 0.39596 0.73241 0.28377 0.0
C1141 C 0.42142 0.70798 0.27196 0.0
C1142 C 0.4028 0.70551 0.35417 0.0
C1143 C 0.37612 0.75875 0.26749 0.0
H1144 H 0.2543 0.77299 0.35114 0.0
H1145 H 0.38717 0.82338 0.35927 0.0
H1146 H 0.29158 0.72477 0.29812 0.0
H1147 H 0.29561 0.70568 0.32868 0.0
H1148 H 0.2455 0.73106 0.32195 0.0
H1149 H 0.45658 0.81086 0.33517 0.0
H1150 H 0.46315 0.76897 0.33875 0.0
H1151 H 0.45061 0.78541 0.30786 0.0
H1152 H 0.44831 0.66371 0.32452 0.0
H1153 H 0.42654 0.7085 0.25137 0.0
H1154 H 0.36406 0.70558 0.35929 0.0
H1155 H 0.41943 0.72659 0.3629 0.0
H1156 H 0.4195 0.68426 0.36276 0.0
H1157 H 0.33675 0.76069 0.27054 0.0
H1158 H 0.38314 0.75525 0.24674 0.0
H1159 H 0.39247 0.78141 0.27329 0.0
C1160 C 0.20672 0.73377 0.84985 0.0
C1161 C 0.17874 0.71148 0.86304 0.0
C1162 C 0.18487 0.75758 0.83515 0.0
C1163 C 0.13398 0.75917 0.834 0.0
C1164 C 0.10582 0.73599 0.84677 0.0
C1165 C 0.12864 0.7124 0.86115 0.0
C1166 C 0.21611 0.78166 0.8216 0.0
C1167 C 0.05155 0.73684 0.84609 0.0
C1168 C 0.07423 0.83785 0.82019 0.0
C1169 C 0.06123 0.83463 0.79444 0.0
C1170 C 0.09839 0.81361 0.83324 0.0
C1171 C 0.10998 0.78555 0.82016 0.0
C1172 C 0.09715 0.78231 0.79411 0.0
C1173 C 0.07275 0.80678 0.78164 0.0
C1174 C 0.11118 0.8179 0.86107 0.0
C1175 C 0.10883 0.75288 0.77946 0.0
H1176 H 0.24553 0.73322 0.85174 0.0
H1177 H 0.10716 0.69535 0.87178 0.0
H1178 H 0.20605 0.78343 0.80108 0.0
H1179 H 0.21032 0.80511 0.83015 0.0
H1180 H 0.25495 0.7759 0.8229 0.0
H1181 H 0.03496 0.71632 0.85609 0.0
H1182 H 0.0386 0.75862 0.85531 0.0
H1183 H 0.03878 0.7373 0.82598 0.0
H1184 H 0.06553 0.85934 0.83015 0.0
H1185 H 0.06235 0.80396 0.76179 0.0
H1186 H 0.15052 0.81528 0.8637 0.0
H1187 H 0.09333 0.79942 0.8729 0.0
H1188 H 0.10027 0.84125 0.86837 0.0
H1189 H 0.14805 0.74832 0.78021 0.0
H1190 H 0.09774 0.75447 0.75906 0.0
H1191 H 0.09042 0.73237 0.78845 0.0
loop_
_geom_bond_atom_site_label_1
_geom_bond_atom_site_label_2
_geom_bond_distance
_geom_bond_site_symmetry_2
_ccdc_geom_bond_type
H0 C3 0.929 . S
H1 C6 0.929 . S
H2 C8 0.930 . S
C3 H0 0.929 . S
C3 C4 1.398 . S
C3 C5 1.396 . S
C4 C3 1.398 . S
C4 C8 1.407 . S
C5 C3 1.396 . S
C5 C6 1.394 . S
C6 H1 0.929 . S
C6 C5 1.394 . S
C6 C7 1.382 . S
C7 C6 1.382 . S
C7 C8 1.392 . S
C7 N9 1.420 . S
C8 H2 0.930 . S
C8 C4 1.407 . S
C8 C7 1.392 . S
N9 C7 1.420 . S
N9 C10 1.244 . S
C10 N9 1.244 . S
H11 C14 0.929 . S
H12 C17 0.929 . S
H13 C19 0.930 . S
C14 H11 0.929 . S
C14 C15 1.398 . S
C14 C16 1.396 . S
C15 C14 1.398 . S
C15 C19 1.407 . S
C16 C14 1.396 . S
C16 C17 1.394 . S
C17 H12 0.929 . S
C17 C16 1.394 . S
C17 C18 1.382 . S
C18 C17 1.382 . S
C18 C19 1.392 . S
C18 N20 1.420 . S
C19 H13 0.930 . S
C19 C15 1.407 . S
C19 C18 1.392 . S
N20 C18 1.420 . S
N20 C21 1.244 . S
C21 N20 1.244 . S
H22 C25 0.929 . S
H23 C28 0.929 . S
H24 C30 0.930 . S
C25 H22 0.929 . S
C25 C26 1.398 . S
C25 C27 1.396 . S
C26 C25 1.398 . S
C26 C30 1.407 . S
C27 C25 1.396 . S
C27 C28 1.394 . S
C28 H23 0.929 . S
C28 C27 1.394 . S
C28 C29 1.382 . S
C29 C28 1.382 . S
C29 C30 1.392 . S
C29 N31 1.420 . S
C30 H24 0.930 . S
C30 C26 1.407 . S
C30 C29 1.392 . S
N31 C29 1.420 . S
N31 C32 1.244 . S
C32 N31 1.244 . S
H33 C36 0.929 . S
H34 C39 0.929 . S
H35 C41 0.930 . S
C36 H33 0.929 . S
C36 C37 1.398 . S
C36 C38 1.396 . S
C37 C36 1.398 . S
C37 C41 1.407 . S
C38 C36 1.396 . S
C38 C39 1.394 . S
C39 H34 0.929 . S
C39 C38 1.394 . S
C39 C40 1.382 . S
C40 C39 1.382 . S
C40 C41 1.392 . S
C40 N42 1.420 . S
C41 H35 0.930 . S
C41 C37 1.407 . S
C41 C40 1.392 . S
N42 C40 1.420 . S
N42 C43 1.244 . S
C43 N42 1.244 . S
H44 C47 0.929 . S
H45 C50 0.929 . S
H46 C52 0.930 . S
C47 H44 0.929 . S
C47 C48 1.398 . S
C47 C49 1.396 . S
C48 C47 1.398 . S
C48 C52 1.407 . S
C49 C47 1.396 . S
C49 C50 1.394 . S
C50 H45 0.929 . S
C50 C49 1.394 . S
C50 C51 1.382 . S
C51 C50 1.382 . S
C51 C52 1.392 . S
C51 N53 1.420 . S
C52 H46 0.930 . S
C52 C48 1.407 . S
C52 C51 1.392 . S
N53 C51 1.420 . S
N53 C54 1.244 . S
C54 N53 1.244 . S
H55 C58 0.929 . S
H56 C61 0.929 . S
H57 C63 0.930 . S
C58 H55 0.929 . S
C58 C59 1.398 . S
C58 C60 1.396 . S
C59 C58 1.398 . S
C59 C63 1.407 . S
C60 C58 1.396 . S
C60 C61 1.394 . S
C61 H56 0.929 . S
C61 C60 1.394 . S
C61 C62 1.382 . S
C62 C61 1.382 . S
C62 C63 1.392 . S
C62 N64 1.420 . S
C63 H57 0.930 . S
C63 C59 1.407 . S
C63 C62 1.392 . S
N64 C62 1.420 . S
N64 C65 1.244 . S
C65 N64 1.244 . S
H66 C69 0.929 . S
H67 C72 0.929 . S
H68 C74 0.930 . S
C69 H66 0.929 . S
C69 C70 1.398 . S
C69 C71 1.396 . S
C70 C69 1.398 . S
C70 C74 1.407 . S
C71 C69 1.396 . S
C71 C72 1.394 . S
C72 H67 0.929 . S
C72 C71 1.394 . S
C72 C73 1.382 . S
C73 C72 1.382 . S
C73 C74 1.392 . S
C73 N75 1.420 . S
C74 H68 0.930 . S
C74 C70 1.407 . S
C74 C73 1.392 . S
N75 C73 1.420 . S
N75 C76 1.244 . S
C76 N75 1.244 . S
H77 C80 0.929 . S
H78 C83 0.929 . S
H79 C85 0.930 . S
C80 H77 0.929 . S
C80 C81 1.398 . S
C80 C82 1.396 . S
C81 C80 1.398 . S
C81 C85 1.407 . S
C82 C80 1.396 . S
C82 C83 1.394 . S
C83 H78 0.929 . S
C83 C82 1.394 . S
C83 C84 1.382 . S
C84 C83 1.382 . S
C84 C85 1.392 . S
C84 N86 1.420 . S
C85 H79 0.930 . S
C85 C81 1.407 . S
C85 C84 1.392 . S
N86 C84 1.420 . S
N86 C87 1.244 . S
C87 N86 1.244 . S
Tb88 N117 2.617 . S
Tb88 N123 2.572 . S
Tb88 O132 2.465 . S
Tb88 O133 2.387 . S
Tb88 O135 2.428 . S
Tb88 O136 2.308 . S
Tb88 O140 2.349 . S
Tb88 O143 2.393 . S
Tb88 C152 2.802 . S
C89 N90 1.379 . S
C89 C92 1.416 . S
C89 C96 1.424 . S
N90 C89 1.379 . S
N90 C93 1.334 . S
N90 Tb99 2.617 . S
C91 C93 1.390 . S
C91 C94 1.339 . S
C91 H111 0.930 . S
C92 C89 1.416 . S
C92 C94 1.416 . S
C92 C98 1.448 . S
C93 N90 1.334 . S
C93 C91 1.390 . S
C93 H104 0.930 . S
C94 C91 1.339 . S
C94 C92 1.416 . S
C94 H115 0.930 . S
C95 C96 1.413 . S
C95 C97 1.427 . S
C95 C101 1.416 1_545 S
C96 C89 1.424 . S
C96 C95 1.413 . S
C96 N100 1.361 . S
C97 C95 1.427 . S
C97 C98 1.328 . S
C97 H112 0.929 . S
C98 C92 1.448 . S
C98 C97 1.328 . S
C98 H113 0.930 . S
Tb99 N90 2.617 . S
Tb99 N100 2.572 . S
Tb99 O134 2.349 1_655 S
Tb99 O137 2.393 . S
Tb99 O138 2.465 . S
Tb99 O139 2.387 . S
Tb99 O141 2.428 . S
Tb99 O142 2.308 1_655 S
Tb99 C163 2.802 . S
N100 C96 1.361 . S
N100 Tb99 2.572 . S
N100 C102 1.340 . S
C101 C95 1.416 1_565 S
C101 C103 1.332 . S
C101 H109 0.931 . S
C102 N100 1.340 . S
C102 C103 1.411 1_545 S
C102 H108 0.930 . S
C103 C101 1.332 . S
C103 C102 1.411 1_565 S
C103 H105 0.926 . S
H104 C93 0.930 . S
H105 C103 0.926 . S
H106 C121 0.930 . S
H107 C128 0.929 . S
H108 C102 0.930 . S
H109 C101 0.931 . S
H110 C124 0.930 . S
H111 C91 0.930 . S
H112 C97 0.929 . S
H113 C98 0.930 . S
H114 C119 0.930 . S
H115 C94 0.930 . S
H116 C127 0.931 . S
N117 Tb88 2.617 . S
N117 C118 1.379 . S
N117 C121 1.334 . S
C118 N117 1.379 . S
C118 C120 1.416 . S
C118 C126 1.424 . S
C119 H114 0.930 . S
C119 C121 1.390 . S
C119 C122 1.339 . S
C120 C118 1.416 . S
C120 C122 1.416 . S
C120 C153 1.448 . S
C121 H106 0.930 . S
C121 N117 1.334 . S
C121 C119 1.390 . S
C122 C119 1.339 . S
C122 C120 1.416 . S
C122 H129 0.930 . S
N123 Tb88 2.572 . S
N123 C124 1.340 . S
N123 C126 1.361 . S
C124 H110 0.930 . S
C124 N123 1.340 . S
C124 C128 1.407 . S
C125 C126 1.413 . S
C125 C127 1.416 . S
C125 C154 1.427 . S
C126 C118 1.424 . S
C126 N123 1.361 . S
C126 C125 1.413 . S
C127 H116 0.931 . S
C127 C125 1.416 . S
C127 C128 1.332 . S
C128 H107 0.929 . S
C128 C124 1.407 . S
C128 C127 1.332 . S
H129 C122 0.930 . S
H130 C153 0.930 . S
H131 C154 0.929 . S
O132 Tb88 2.465 . S
O132 C152 1.264 . S
O133 Tb88 2.387 . S
O133 C144 1.264 . S
O134 Tb99 2.349 1_455 S
O134 C144 1.243 . S
O135 Tb88 2.428 . S
O135 C152 1.256 . S
O136 Tb88 2.308 . S
O136 C151 1.266 1_455 S
O137 Tb99 2.393 . S
O137 C151 1.248 . S
O138 Tb99 2.465 . S
O138 C163 1.264 . S
O139 Tb99 2.387 . S
O139 C155 1.264 . S
O140 Tb88 2.349 . S
O140 C155 1.243 1_455 S
O141 Tb99 2.428 . S
O141 C163 1.256 . S
O142 Tb99 2.308 1_455 S
O142 C162 1.266 . S
O143 Tb88 2.393 . S
O143 C162 1.248 . S
C144 O133 1.264 . S
C144 O134 1.243 . S
C145 C148 1.399 . S
C145 C150 1.383 . S
C145 C152 1.496 . S
C146 C147 1.399 . S
C146 C150 1.389 . S
C147 C146 1.399 . S
C147 C149 1.380 . S
C147 H164 0.929 . S
C148 C145 1.399 . S
C148 C149 1.392 . S
C148 H165 0.929 . S
C149 C147 1.380 . S
C149 C148 1.392 . S
C149 H166 0.929 . S
C150 C145 1.383 . S
C150 C146 1.389 . S
C150 H167 0.931 . S
C151 O136 1.266 1_655 S
C151 O137 1.248 . S
C152 Tb88 2.802 . S
C152 O132 1.264 . S
C152 O135 1.256 . S
C152 C145 1.496 . S
C153 C120 1.448 . S
C153 H130 0.930 . S
C153 C154 1.328 . S
C154 C125 1.427 . S
C154 H131 0.929 . S
C154 C153 1.328 . S
C155 O139 1.264 . S
C155 O140 1.243 1_655 S
C156 C159 1.399 . S
C156 C160 1.383 . S
C156 C163 1.496 . S
C157 C158 1.399 . S
C157 C160 1.389 . S
C158 C157 1.399 . S
C158 C161 1.380 . S
C158 H168 0.929 . S
C159 C156 1.399 . S
C159 C161 1.392 . S
C159 H169 0.929 . S
C160 C156 1.383 . S
C160 C157 1.389 . S
C160 H170 0.931 . S
C161 C158 1.380 . S
C161 C159 1.392 . S
C161 H171 0.929 . S
C162 O142 1.266 . S
C162 O143 1.248 . S
C163 Tb99 2.802 . S
C163 O138 1.264 . S
C163 O141 1.256 . S
C163 C156 1.496 . S
H164 C147 0.929 . S
H165 C148 0.929 . S
H166 C149 0.929 . S
H167 C150 0.931 . S
H168 C158 0.929 . S
H169 C159 0.929 . S
H170 C160 0.931 . S
H171 C161 0.929 . S
Tb172 N201 2.617 . S
Tb172 N207 2.572 . S
Tb172 O216 2.465 . S
Tb172 O217 2.387 . S
Tb172 O219 2.428 . S
Tb172 O220 2.308 . S
Tb172 O224 2.349 . S
Tb172 O227 2.393 . S
Tb172 C236 2.802 . S
C173 N174 1.379 . S
C173 C176 1.416 . S
C173 C180 1.424 . S
N174 C173 1.379 . S
N174 C177 1.334 . S
N174 Tb183 2.617 . S
C175 C177 1.390 . S
C175 C178 1.339 . S
C175 H195 0.930 . S
C176 C173 1.416 . S
C176 C178 1.416 . S
C176 C182 1.448 . S
C177 N174 1.334 . S
C177 C175 1.390 . S
C177 H188 0.930 . S
C178 C175 1.339 . S
C178 C176 1.416 . S
C178 H199 0.930 . S
C179 C180 1.413 . S
C179 C181 1.427 . S
C179 C185 1.416 . S
C180 C173 1.424 . S
C180 C179 1.413 . S
C180 N184 1.361 . S
C181 C179 1.427 . S
C181 C182 1.328 . S
C181 H196 0.929 . S
C182 C176 1.448 . S
C182 C181 1.328 . S
C182 H197 0.930 . S
Tb183 N174 2.617 . S
Tb183 N184 2.572 . S
Tb183 O218 2.349 . S
Tb183 O221 2.393 . S
Tb183 O222 2.465 . S
Tb183 O223 2.387 . S
Tb183 O225 2.428 . S
Tb183 O226 2.308 . S
Tb183 C247 2.802 . S
N184 C180 1.361 . S
N184 Tb183 2.572 . S
N184 C186 1.340 . S
C185 C179 1.416 . S
C185 C187 1.332 . S
C185 H193 0.931 . S
C186 N184 1.340 . S
C186 C187 1.407 . S
C186 H192 0.930 . S
C187 C185 1.332 . S
C187 C186 1.407 . S
C187 H189 0.929 . S
H188 C177 0.930 . S
H189 C187 0.929 . S
H190 C205 0.930 . S
H191 C212 0.929 . S
H192 C186 0.930 . S
H193 C185 0.931 . S
H194 C208 0.930 . S
H195 C175 0.930 . S
H196 C181 0.929 . S
H197 C182 0.930 . S
H198 C203 0.930 . S
H199 C178 0.930 . S
H200 C211 0.931 . S
N201 Tb172 2.617 . S
N201 C202 1.379 . S
N201 C205 1.334 . S
C202 N201 1.379 . S
C202 C204 1.416 . S
C202 C210 1.424 . S
C203 H198 0.930 . S
C203 C205 1.390 . S
C203 C206 1.339 . S
C204 C202 1.416 . S
C204 C206 1.416 . S
C204 C237 1.448 . S
C205 H190 0.930 . S
C205 N201 1.334 . S
C205 C203 1.390 . S
C206 C203 1.339 . S
C206 C204 1.416 . S
C206 H213 0.930 . S
N207 Tb172 2.572 . S
N207 C208 1.340 . S
N207 C210 1.361 . S
C208 H194 0.930 . S
C208 N207 1.340 . S
C208 C212 1.407 . S
C209 C210 1.413 . S
C209 C211 1.416 . S
C209 C238 1.427 . S
C210 C202 1.424 . S
C210 N207 1.361 . S
C210 C209 1.413 . S
C211 H200 0.931 . S
C211 C209 1.416 . S
C211 C212 1.332 . S
C212 H191 0.929 . S
C212 C208 1.407 . S
C212 C211 1.332 . S
H213 C206 0.930 . S
H214 C237 0.930 . S
H215 C238 0.929 . S
O216 Tb172 2.465 . S
O216 C236 1.264 . S
O217 Tb172 2.387 . S
O217 C228 1.264 . S
O218 Tb183 2.349 . S
O218 C228 1.243 . S
O219 Tb172 2.428 . S
O219 C236 1.256 . S
O220 Tb172 2.308 . S
O220 C235 1.266 . S
O221 Tb183 2.393 . S
O221 C235 1.248 . S
O222 Tb183 2.465 . S
O222 C247 1.264 . S
O223 Tb183 2.387 . S
O223 C239 1.264 . S
O224 Tb172 2.349 . S
O224 C239 1.243 . S
O225 Tb183 2.428 . S
O225 C247 1.256 . S
O226 Tb183 2.308 . S
O226 C246 1.266 . S
O227 Tb172 2.393 . S
O227 C246 1.248 . S
C228 O217 1.264 . S
C228 O218 1.243 . S
C229 C232 1.399 . S
C229 C234 1.383 . S
C229 C236 1.496 . S
C230 C231 1.399 . S
C230 C234 1.389 . S
C231 C230 1.399 . S
C231 C233 1.380 . S
C231 H248 0.929 . S
C232 C229 1.399 . S
C232 C233 1.392 . S
C232 H249 0.929 . S
C233 C231 1.380 . S
C233 C232 1.392 . S
C233 H250 0.929 . S
C234 C229 1.383 . S
C234 C230 1.389 . S
C234 H251 0.931 . S
C235 O220 1.266 . S
C235 O221 1.248 . S
C236 Tb172 2.802 . S
C236 O216 1.264 . S
C236 O219 1.256 . S
C236 C229 1.496 . S
C237 C204 1.448 . S
C237 H214 0.930 . S
C237 C238 1.328 . S
C238 C209 1.427 . S
C238 H215 0.929 . S
C238 C237 1.328 . S
C239 O223 1.264 . S
C239 O224 1.243 . S
C240 C243 1.399 . S
C240 C244 1.383 . S
C240 C247 1.496 . S
C241 C242 1.399 . S
C241 C244 1.389 . S
C242 C241 1.399 . S
C242 C245 1.380 . S
C242 H252 0.929 . S
C243 C240 1.399 . S
C243 C245 1.392 . S
C243 H253 0.929 . S
C244 C240 1.383 . S
C244 C241 1.389 . S
C244 H254 0.931 . S
C245 C242 1.380 . S
C245 C243 1.392 . S
C245 H255 0.929 . S
C246 O226 1.266 . S
C246 O227 1.248 . S
C247 Tb183 2.802 . S
C247 O222 1.264 . S
C247 O225 1.256 . S
C247 C240 1.496 . S
H248 C231 0.929 . S
H249 C232 0.929 . S
H250 C233 0.929 . S
H251 C234 0.931 . S
H252 C242 0.929 . S
H253 C243 0.929 . S
H254 C244 0.931 . S
H255 C245 0.929 . S
Tb256 N285 2.617 . S
Tb256 N291 2.572 . S
Tb256 O300 2.465 . S
Tb256 O301 2.387 . S
Tb256 O303 2.428 . S
Tb256 O304 2.310 . S
Tb256 O308 2.351 1_455 S
Tb256 O311 2.393 . S
Tb256 C320 2.802 . S
C257 N258 1.379 . S
C257 C260 1.416 . S
C257 C264 1.424 . S
N258 C257 1.379 . S
N258 C261 1.334 . S
N258 Tb267 2.617 . S
C259 C261 1.390 . S
C259 C262 1.339 . S
C259 H279 0.930 . S
C260 C257 1.416 . S
C260 C262 1.416 . S
C260 C266 1.448 . S
C261 N258 1.334 . S
C261 C259 1.390 . S
C261 H272 0.930 . S
C262 C259 1.339 . S
C262 C260 1.416 . S
C262 H283 0.930 . S
C263 C264 1.413 . S
C263 C265 1.427 . S
C263 C269 1.416 . S
C264 C257 1.424 . S
C264 C263 1.413 . S
C264 N268 1.361 . S
C265 C263 1.427 . S
C265 C266 1.328 . S
C265 H280 0.929 . S
C266 C260 1.448 . S
C266 C265 1.328 . S
C266 H281 0.930 . S
Tb267 N258 2.617 . S
Tb267 N268 2.572 . S
Tb267 O302 2.349 1_655 S
Tb267 O305 2.393 . S
Tb267 O306 2.465 . S
Tb267 O307 2.387 . S
Tb267 O309 2.428 . S
Tb267 O310 2.308 1_655 S
Tb267 C331 2.802 . S
N268 C264 1.361 . S
N268 Tb267 2.572 . S
N268 C270 1.340 . S
C269 C263 1.416 . S
C269 C271 1.332 . S
C269 H277 0.931 . S
C270 N268 1.340 . S
C270 C271 1.407 . S
C270 H276 0.930 . S
C271 C269 1.332 . S
C271 C270 1.407 . S
C271 H273 0.929 . S
H272 C261 0.930 . S
H273 C271 0.929 . S
H274 C289 0.930 . S
H275 C296 0.929 . S
H276 C270 0.930 . S
H277 C269 0.931 . S
H278 C292 0.930 . S
H279 C259 0.930 . S
H280 C265 0.929 . S
H281 C266 0.930 . S
H282 C287 0.930 . S
H283 C262 0.930 . S
H284 C295 0.931 . S
N285 Tb256 2.617 . S
N285 C286 1.379 . S
N285 C289 1.334 . S
C286 N285 1.379 . S
C286 C288 1.416 . S
C286 C294 1.424 . S
C287 H282 0.930 . S
C287 C289 1.390 . S
C287 C290 1.339 . S
C288 C286 1.416 . S
C288 C290 1.416 . S
C288 C321 1.448 . S
C289 H274 0.930 . S
C289 N285 1.334 . S
C289 C287 1.390 . S
C290 C287 1.339 . S
C290 C288 1.416 . S
C290 H297 0.930 . S
N291 Tb256 2.572 . S
N291 C292 1.340 . S
N291 C294 1.361 . S
C292 H278 0.930 . S
C292 N291 1.340 . S
C292 C296 1.407 1_565 S
C293 C294 1.413 . S
C293 C295 1.416 1_565 S
C293 C322 1.427 . S
C294 C286 1.424 . S
C294 N291 1.361 . S
C294 C293 1.413 . S
C295 H284 0.931 . S
C295 C293 1.416 1_545 S
C295 C296 1.332 . S
C296 H275 0.929 . S
C296 C292 1.407 1_545 S
C296 C295 1.332 . S
H297 C290 0.930 . S
H298 C321 0.930 . S
H299 C322 0.929 . S
O300 Tb256 2.465 . S
O300 C320 1.264 . S
O301 Tb256 2.387 . S
O301 C312 1.264 . S
O302 Tb267 2.349 1_455 S
O302 C312 1.243 . S
O303 Tb256 2.428 . S
O303 C320 1.256 . S
O304 Tb256 2.310 . S
O304 C319 1.263 1_455 S
O305 Tb267 2.393 . S
O305 C319 1.248 . S
O306 Tb267 2.465 . S
O306 C331 1.264 . S
O307 Tb267 2.387 . S
O307 C323 1.264 . S
O308 Tb256 2.351 1_655 S
O308 C323 1.241 . S
O309 Tb267 2.428 . S
O309 C331 1.256 . S
O310 Tb267 2.308 1_455 S
O310 C330 1.266 . S
O311 Tb256 2.393 . S
O311 C330 1.248 . S
C312 O301 1.264 . S
C312 O302 1.243 . S
C313 C316 1.399 . S
C313 C318 1.383 . S
C313 C320 1.496 . S
C314 C315 1.399 . S
C314 C318 1.389 . S
C315 C314 1.399 . S
C315 C317 1.380 . S
C315 H332 0.929 . S
C316 C313 1.399 . S
C316 C317 1.392 . S
C316 H333 0.929 . S
C317 C315 1.380 . S
C317 C316 1.392 . S
C317 H334 0.929 . S
C318 C313 1.383 . S
C318 C314 1.389 . S
C318 H335 0.931 . S
C319 O304 1.263 1_655 S
C319 O305 1.248 . S
C320 Tb256 2.802 . S
C320 O300 1.264 . S
C320 O303 1.256 . S
C320 C313 1.496 . S
C321 C288 1.448 . S
C321 H298 0.930 . S
C321 C322 1.328 . S
C322 C293 1.427 . S
C322 H299 0.929 . S
C322 C321 1.328 . S
C323 O307 1.264 . S
C323 O308 1.241 . S
C324 C327 1.399 . S
C324 C328 1.383 . S
C324 C331 1.496 . S
C325 C326 1.399 . S
C325 C328 1.389 . S
C326 C325 1.399 . S
C326 C329 1.380 . S
C326 H336 0.929 . S
C327 C324 1.399 . S
C327 C329 1.392 . S
C327 H337 0.929 . S
C328 C324 1.383 . S
C328 C325 1.389 . S
C328 H338 0.931 . S
C329 C326 1.380 . S
C329 C327 1.392 . S
C329 H339 0.929 . S
C330 O310 1.266 . S
C330 O311 1.248 . S
C331 Tb267 2.802 . S
C331 O306 1.264 . S
C331 O309 1.256 . S
C331 C324 1.496 . S
H332 C315 0.929 . S
H333 C316 0.929 . S
H334 C317 0.929 . S
H335 C318 0.931 . S
H336 C326 0.929 . S
H337 C327 0.929 . S
H338 C328 0.931 . S
H339 C329 0.929 . S
Tb340 N369 2.617 . S
Tb340 N375 2.572 . S
Tb340 O384 2.465 . S
Tb340 O385 2.387 . S
Tb340 O387 2.428 . S
Tb340 O388 2.308 . S
Tb340 O392 2.349 . S
Tb340 O395 2.393 . S
Tb340 C404 2.802 . S
C341 N342 1.379 . S
C341 C344 1.416 . S
C341 C348 1.424 . S
N342 C341 1.379 . S
N342 C345 1.334 . S
N342 Tb351 2.617 . S
C343 C345 1.390 . S
C343 C346 1.339 . S
C343 H363 0.930 . S
C344 C341 1.416 . S
C344 C346 1.416 . S
C344 C350 1.448 . S
C345 N342 1.334 . S
C345 C343 1.390 . S
C345 H356 0.930 . S
C346 C343 1.339 . S
C346 C344 1.416 . S
C346 H367 0.930 . S
C347 C348 1.413 . S
C347 C349 1.427 . S
C347 C353 1.416 . S
C348 C341 1.424 . S
C348 C347 1.413 . S
C348 N352 1.361 . S
C349 C347 1.427 . S
C349 C350 1.328 . S
C349 H364 0.929 . S
C350 C344 1.448 . S
C350 C349 1.328 . S
C350 H365 0.930 . S
Tb351 N342 2.617 . S
Tb351 N352 2.572 . S
Tb351 O386 2.349 . S
Tb351 O389 2.393 . S
Tb351 O390 2.465 . S
Tb351 O391 2.387 . S
Tb351 O393 2.428 . S
Tb351 O394 2.308 . S
Tb351 C415 2.802 . S
N352 C348 1.361 . S
N352 Tb351 2.572 . S
N352 C354 1.340 . S
C353 C347 1.416 . S
C353 C355 1.332 . S
C353 H361 0.931 . S
C354 N352 1.340 . S
C354 C355 1.407 . S
C354 H360 0.930 . S
C355 C353 1.332 . S
C355 C354 1.407 . S
C355 H357 0.929 . S
H356 C345 0.930 . S
H357 C355 0.929 . S
H358 C373 0.930 . S
H359 C380 0.929 . S
H360 C354 0.930 . S
H361 C353 0.931 . S
H362 C376 0.930 . S
H363 C343 0.930 . S
H364 C349 0.929 . S
H365 C350 0.930 . S
H366 C371 0.930 . S
H367 C346 0.930 . S
H368 C379 0.931 . S
N369 Tb340 2.617 . S
N369 C370 1.379 . S
N369 C373 1.334 . S
C370 N369 1.379 . S
C370 C372 1.416 . S
C370 C378 1.424 . S
C371 H366 0.930 . S
C371 C373 1.390 . S
C371 C374 1.339 . S
C372 C370 1.416 . S
C372 C374 1.416 . S
C372 C405 1.448 . S
C373 H358 0.930 . S
C373 N369 1.334 . S
C373 C371 1.390 . S
C374 C371 1.339 . S
C374 C372 1.416 . S
C374 H381 0.930 . S
N375 Tb340 2.572 . S
N375 C376 1.340 . S
N375 C378 1.361 . S
C376 H362 0.930 . S
C376 N375 1.340 . S
C376 C380 1.407 . S
C377 C378 1.413 . S
C377 C379 1.416 . S
C377 C406 1.427 . S
C378 C370 1.424 . S
C378 N375 1.361 . S
C378 C377 1.413 . S
C379 H368 0.931 . S
C379 C377 1.416 . S
C379 C380 1.332 . S
C380 H359 0.929 . S
C380 C376 1.407 . S
C380 C379 1.332 . S
H381 C374 0.930 . S
H382 C405 0.930 . S
H383 C406 0.929 . S
O384 Tb340 2.465 . S
O384 C404 1.264 . S
O385 Tb340 2.387 . S
O385 C396 1.264 . S
O386 Tb351 2.349 . S
O386 C396 1.243 . S
O387 Tb340 2.428 . S
O387 C404 1.256 . S
O388 Tb340 2.308 . S
O388 C403 1.266 . S
O389 Tb351 2.393 . S
O389 C403 1.248 . S
O390 Tb351 2.465 . S
O390 C415 1.264 . S
O391 Tb351 2.387 . S
O391 C407 1.264 . S
O392 Tb340 2.349 . S
O392 C407 1.243 . S
O393 Tb351 2.428 . S
O393 C415 1.256 . S
O394 Tb351 2.308 . S
O394 C414 1.266 . S
O395 Tb340 2.393 . S
O395 C414 1.248 . S
C396 O385 1.264 . S
C396 O386 1.243 . S
C397 C400 1.399 . S
C397 C402 1.383 . S
C397 C404 1.496 . S
C398 C399 1.399 . S
C398 C402 1.389 . S
C399 C398 1.399 . S
C399 C401 1.380 . S
C399 H416 0.929 . S
C400 C397 1.399 . S
C400 C401 1.392 . S
C400 H417 0.929 . S
C401 C399 1.380 . S
C401 C400 1.392 . S
C401 H418 0.929 . S
C402 C397 1.383 . S
C402 C398 1.389 . S
C402 H419 0.931 . S
C403 O388 1.266 . S
C403 O389 1.248 . S
C404 Tb340 2.802 . S
C404 O384 1.264 . S
C404 O387 1.256 . S
C404 C397 1.496 . S
C405 C372 1.448 . S
C405 H382 0.930 . S
C405 C406 1.328 . S
C406 C377 1.427 . S
C406 H383 0.929 . S
C406 C405 1.328 . S
C407 O391 1.264 . S
C407 O392 1.243 . S
C408 C411 1.399 . S
C408 C412 1.383 . S
C408 C415 1.496 . S
C409 C410 1.399 . S
C409 C412 1.389 . S
C410 C409 1.399 . S
C410 C413 1.380 . S
C410 H420 0.929 . S
C411 C408 1.399 . S
C411 C413 1.392 . S
C411 H421 0.929 . S
C412 C408 1.383 . S
C412 C409 1.389 . S
C412 H422 0.931 . S
C413 C410 1.380 . S
C413 C411 1.392 . S
C413 H423 0.929 . S
C414 O394 1.266 . S
C414 O395 1.248 . S
C415 Tb351 2.802 . S
C415 O390 1.264 . S
C415 O393 1.256 . S
C415 C408 1.496 . S
H416 C399 0.929 . S
H417 C400 0.929 . S
H418 C401 0.929 . S
H419 C402 0.931 . S
H420 C410 0.929 . S
H421 C411 0.929 . S
H422 C412 0.931 . S
H423 C413 0.929 . S
C424 C425 1.391 . S
C424 C426 1.394 . S
C424 H440 0.931 . S
C425 C424 1.391 . S
C425 C429 1.376 . S
C426 C424 1.394 . S
C426 C427 1.369 . S
C426 C430 1.531 . S
C427 C426 1.369 . S
C427 C428 1.410 . S
C427 C435 1.503 . S
C428 C427 1.410 . S
C428 C429 1.392 . S
C428 C431 1.511 . S
C429 C425 1.376 . S
C429 C428 1.392 . S
C429 H441 0.929 . S
C430 C426 1.531 . S
C430 H442 0.960 . S
C430 H443 0.962 . S
C430 H444 0.960 . S
C431 C428 1.511 . S
C431 H445 0.961 . S
C431 H446 0.961 . S
C431 H447 0.961 1_565 S
C432 C433 1.370 . S
C432 C434 1.363 1_545 S
C432 H448 0.931 1_545 S
C433 C432 1.370 . S
C433 C437 1.408 . S
C434 C432 1.363 1_565 S
C434 C435 1.370 . S
C434 C438 1.524 . S
C435 C427 1.503 . S
C435 C434 1.370 . S
C435 C436 1.403 1_565 S
C436 C435 1.403 1_545 S
C436 C437 1.404 . S
C436 C439 1.539 . S
C437 C433 1.408 . S
C437 C436 1.404 . S
C437 H449 0.930 . S
C438 C434 1.524 . S
C438 H450 0.956 . S
C438 H451 0.961 . S
C438 H452 0.961 . S
C439 C436 1.539 . S
C439 H453 0.958 . S
C439 H454 0.961 . S
C439 H455 0.960 . S
H440 C424 0.931 . S
H441 C429 0.929 . S
H442 C430 0.960 . S
H443 C430 0.962 . S
H444 C430 0.960 . S
H445 C431 0.961 . S
H446 C431 0.961 . S
H447 C431 0.961 1_545 S
H448 C432 0.931 1_565 S
H449 C437 0.930 . S
H450 C438 0.956 . S
H451 C438 0.961 . S
H452 C438 0.961 . S
H453 C439 0.958 . S
H454 C439 0.961 . S
H455 C439 0.960 . S
C456 C457 1.391 . S
C456 C458 1.394 . S
C456 H472 0.931 . S
C457 C456 1.391 . S
C457 C461 1.376 . S
C458 C456 1.394 . S
C458 C459 1.369 . S
C458 C462 1.531 . S
C459 C458 1.369 . S
C459 C460 1.410 . S
C459 C467 1.503 . S
C460 C459 1.410 . S
C460 C461 1.392 . S
C460 C463 1.511 . S
C461 C457 1.376 . S
C461 C460 1.392 . S
C461 H473 0.929 . S
C462 C458 1.531 . S
C462 H474 0.960 . S
C462 H475 0.962 . S
C462 H476 0.960 . S
C463 C460 1.511 . S
C463 H477 0.961 . S
C463 H478 0.961 . S
C463 H479 0.961 . S
C464 C465 1.370 . S
C464 C466 1.363 . S
C464 H480 0.931 . S
C465 C464 1.370 . S
C465 C469 1.408 . S
C466 C464 1.363 . S
C466 C467 1.370 . S
C466 C470 1.524 . S
C467 C459 1.503 . S
C467 C466 1.370 . S
C467 C468 1.403 . S
C468 C467 1.403 . S
C468 C469 1.404 . S
C468 C471 1.539 . S
C469 C465 1.408 . S
C469 C468 1.404 . S
C469 H481 0.930 . S
C470 C466 1.524 . S
C470 H482 0.956 . S
C470 H483 0.961 . S
C470 H484 0.961 . S
C471 C468 1.539 . S
C471 H485 0.958 . S
C471 H486 0.961 . S
C471 H487 0.960 . S
H472 C456 0.931 . S
H473 C461 0.929 . S
H474 C462 0.960 . S
H475 C462 0.962 . S
H476 C462 0.960 . S
H477 C463 0.961 . S
H478 C463 0.961 . S
H479 C463 0.961 . S
H480 C464 0.931 . S
H481 C469 0.930 . S
H482 C470 0.956 . S
H483 C470 0.961 . S
H484 C470 0.961 . S
H485 C471 0.958 . S
H486 C471 0.961 . S
H487 C471 0.960 . S
C488 C489 1.391 . S
C488 C490 1.394 . S
C488 H504 0.931 . S
C489 C488 1.391 . S
C489 C493 1.376 . S
C490 C488 1.394 . S
C490 C491 1.369 . S
C490 C494 1.531 . S
C491 C490 1.369 . S
C491 C492 1.410 . S
C491 C499 1.503 . S
C492 C491 1.410 . S
C492 C493 1.392 . S
C492 C495 1.511 . S
C493 C489 1.376 . S
C493 C492 1.392 . S
C493 H505 0.929 . S
C494 C490 1.531 . S
C494 H506 0.960 . S
C494 H507 0.962 . S
C494 H508 0.960 . S
C495 C492 1.511 . S
C495 H509 0.961 . S
C495 H510 0.961 . S
C495 H511 0.961 . S
C496 C497 1.370 . S
C496 C498 1.363 . S
C496 H512 0.931 . S
C497 C496 1.370 . S
C497 C501 1.408 . S
C498 C496 1.363 . S
C498 C499 1.370 . S
C498 C502 1.524 . S
C499 C491 1.503 . S
C499 C498 1.370 . S
C499 C500 1.403 . S
C500 C499 1.403 . S
C500 C501 1.404 . S
C500 C503 1.539 . S
C501 C497 1.408 . S
C501 C500 1.404 . S
C501 H513 0.930 . S
C502 C498 1.524 . S
C502 H514 0.956 . S
C502 H515 0.961 . S
C502 H516 0.961 . S
C503 C500 1.539 . S
C503 H517 0.958 . S
C503 H518 0.961 . S
C503 H519 0.960 . S
H504 C488 0.931 . S
H505 C493 0.929 . S
H506 C494 0.960 . S
H507 C494 0.962 . S
H508 C494 0.960 . S
H509 C495 0.961 . S
H510 C495 0.961 . S
H511 C495 0.961 . S
H512 C496 0.931 . S
H513 C501 0.930 . S
H514 C502 0.956 . S
H515 C502 0.961 . S
H516 C502 0.961 . S
H517 C503 0.958 . S
H518 C503 0.961 . S
H519 C503 0.960 . S
C520 C521 1.391 . S
C520 C522 1.394 . S
C520 H536 0.931 . S
C521 C520 1.391 . S
C521 C525 1.376 . S
C522 C520 1.394 . S
C522 C523 1.369 . S
C522 C526 1.531 . S
C523 C522 1.369 . S
C523 C524 1.410 . S
C523 C531 1.503 . S
C524 C523 1.410 . S
C524 C525 1.392 . S
C524 C527 1.511 . S
C525 C521 1.376 . S
C525 C524 1.392 . S
C525 H537 0.929 . S
C526 C522 1.531 . S
C526 H538 0.960 . S
C526 H539 0.962 . S
C526 H540 0.960 . S
C527 C524 1.511 . S
C527 H541 0.961 . S
C527 H542 0.961 . S
C527 H543 0.961 . S
C528 C529 1.370 . S
C528 C530 1.363 . S
C528 H544 0.931 . S
C529 C528 1.370 . S
C529 C533 1.408 . S
C530 C528 1.363 . S
C530 C531 1.370 1_545 S
C530 C534 1.524 . S
C531 C523 1.503 . S
C531 C530 1.370 1_565 S
C531 C532 1.403 . S
C532 C531 1.403 . S
C532 C533 1.404 1_565 S
C532 C535 1.539 . S
C533 C529 1.408 . S
C533 C532 1.404 1_545 S
C533 H545 0.930 1_545 S
C534 C530 1.524 . S
C534 H546 0.956 . S
C534 H547 0.961 . S
C534 H548 0.961 . S
C535 C532 1.539 . S
C535 H549 0.958 . S
C535 H550 0.961 . S
C535 H551 0.960 . S
H536 C520 0.931 . S
H537 C525 0.929 . S
H538 C526 0.960 . S
H539 C526 0.962 . S
H540 C526 0.960 . S
H541 C527 0.961 . S
H542 C527 0.961 . S
H543 C527 0.961 . S
H544 C528 0.931 . S
H545 C533 0.930 1_565 S
H546 C534 0.956 . S
H547 C534 0.961 . S
H548 C534 0.961 . S
H549 C535 0.958 . S
H550 C535 0.961 . S
H551 C535 0.960 . S
C552 C553 1.391 . S
C552 C554 1.394 . S
C552 H568 0.931 . S
C553 C552 1.391 . S
C553 C557 1.376 . S
C554 C552 1.394 . S
C554 C555 1.369 . S
C554 C558 1.531 . S
C555 C554 1.369 . S
C555 C556 1.410 . S
C555 C563 1.503 . S
C556 C555 1.410 . S
C556 C557 1.392 . S
C556 C559 1.511 . S
C557 C553 1.376 . S
C557 C556 1.392 . S
C557 H569 0.929 . S
C558 C554 1.531 . S
C558 H570 0.960 . S
C558 H571 0.962 . S
C558 H572 0.960 . S
C559 C556 1.511 . S
C559 H573 0.961 . S
C559 H574 0.961 . S
C559 H575 0.961 . S
C560 C561 1.370 . S
C560 C562 1.363 . S
C560 H576 0.931 . S
C561 C560 1.370 . S
C561 C565 1.424 . S
C562 C560 1.363 . S
C562 C563 1.370 1_565 S
C562 C566 1.524 . S
C563 C555 1.503 . S
C563 C562 1.370 1_545 S
C563 C564 1.403 . S
C564 C563 1.403 . S
C564 C565 1.391 1_545 S
C564 C567 1.539 . S
C565 C561 1.424 . S
C565 C564 1.391 1_565 S
C565 H577 0.927 1_565 S
C566 C562 1.524 . S
C566 H578 0.956 . S
C566 H579 0.961 . S
C566 H580 0.961 . S
C567 C564 1.539 . S
C567 H581 0.958 . S
C567 H582 0.961 . S
C567 H583 0.960 . S
H568 C552 0.931 . S
H569 C557 0.929 . S
H570 C558 0.960 . S
H571 C558 0.962 . S
H572 C558 0.960 . S
H573 C559 0.961 . S
H574 C559 0.961 . S
H575 C559 0.961 . S
H576 C560 0.931 . S
H577 C565 0.927 1_545 S
H578 C566 0.956 . S
H579 C566 0.961 . S
H580 C566 0.961 . S
H581 C567 0.958 . S
H582 C567 0.961 . S
H583 C567 0.960 . S
C584 C585 1.391 . S
C584 C586 1.394 . S
C584 H600 0.931 . S
C585 C584 1.391 . S
C585 C589 1.376 . S
C586 C584 1.394 . S
C586 C587 1.369 . S
C586 C590 1.531 . S
C587 C586 1.369 . S
C587 C588 1.410 . S
C587 C595 1.503 . S
C588 C587 1.410 . S
C588 C589 1.392 . S
C588 C591 1.511 . S
C589 C585 1.376 . S
C589 C588 1.392 . S
C589 H601 0.929 . S
C590 C586 1.531 . S
C590 H602 0.960 . S
C590 H603 0.962 . S
C590 H604 0.960 . S
C591 C588 1.511 . S
C591 H605 0.961 . S
C591 H606 0.961 . S
C591 H607 0.961 . S
C592 C593 1.370 . S
C592 C594 1.363 . S
C592 H608 0.931 . S
C593 C592 1.370 . S
C593 C597 1.408 . S
C594 C592 1.363 . S
C594 C595 1.370 . S
C594 C598 1.524 . S
C595 C587 1.503 . S
C595 C594 1.370 . S
C595 C596 1.403 . S
C596 C595 1.403 . S
C596 C597 1.404 . S
C596 C599 1.539 . S
C597 C593 1.408 . S
C597 C596 1.404 . S
C597 H609 0.930 . S
C598 C594 1.524 . S
C598 H610 0.956 . S
C598 H611 0.961 . S
C598 H612 0.961 . S
C599 C596 1.539 . S
C599 H613 0.958 . S
C599 H614 0.961 . S
C599 H615 0.960 . S
H600 C584 0.931 . S
H601 C589 0.929 . S
H602 C590 0.960 . S
H603 C590 0.962 . S
H604 C590 0.960 . S
H605 C591 0.961 . S
H606 C591 0.961 . S
H607 C591 0.961 . S
H608 C592 0.931 . S
H609 C597 0.930 . S
H610 C598 0.956 . S
H611 C598 0.961 . S
H612 C598 0.961 . S
H613 C599 0.958 . S
H614 C599 0.961 . S
H615 C599 0.960 . S
C616 C617 1.391 . S
C616 C618 1.394 . S
C616 H632 0.931 . S
C617 C616 1.391 . S
C617 C621 1.376 . S
C618 C616 1.394 . S
C618 C619 1.369 . S
C618 C622 1.531 . S
C619 C618 1.369 . S
C619 C620 1.410 . S
C619 C627 1.503 . S
C620 C619 1.410 . S
C620 C621 1.392 . S
C620 C623 1.511 . S
C621 C617 1.376 . S
C621 C620 1.392 . S
C621 H633 0.929 . S
C622 C618 1.531 . S
C622 H634 0.960 . S
C622 H635 0.962 . S
C622 H636 0.960 . S
C623 C620 1.511 . S
C623 H637 0.961 . S
C623 H638 0.961 . S
C623 H639 0.961 . S
C624 C625 1.370 . S
C624 C626 1.363 . S
C624 H640 0.931 . S
C625 C624 1.370 . S
C625 C629 1.408 . S
C626 C624 1.363 . S
C626 C627 1.370 . S
C626 C630 1.524 . S
C627 C619 1.503 . S
C627 C626 1.370 . S
C627 C628 1.403 . S
C628 C627 1.403 . S
C628 C629 1.404 . S
C628 C631 1.539 . S
C629 C625 1.408 . S
C629 C628 1.404 . S
C629 H641 0.930 . S
C630 C626 1.524 . S
C630 H642 0.956 . S
C630 H643 0.961 . S
C630 H644 0.961 . S
C631 C628 1.539 . S
C631 H645 0.958 . S
C631 H646 0.961 . S
C631 H647 0.960 . S
H632 C616 0.931 . S
H633 C621 0.929 . S
H634 C622 0.960 . S
H635 C622 0.962 . S
H636 C622 0.960 . S
H637 C623 0.961 . S
H638 C623 0.961 . S
H639 C623 0.961 . S
H640 C624 0.931 . S
H641 C629 0.930 . S
H642 C630 0.956 . S
H643 C630 0.961 . S
H644 C630 0.961 . S
H645 C631 0.958 . S
H646 C631 0.961 . S
H647 C631 0.960 . S
C648 C649 1.391 . S
C648 C650 1.394 . S
C648 H664 0.931 . S
C649 C648 1.391 . S
C649 C653 1.376 . S
C650 C648 1.394 . S
C650 C651 1.369 . S
C650 C654 1.531 . S
C651 C650 1.369 . S
C651 C652 1.410 . S
C651 C659 1.503 . S
C652 C651 1.410 . S
C652 C653 1.392 . S
C652 C655 1.511 1_545 S
C653 C649 1.376 . S
C653 C652 1.392 . S
C653 H665 0.929 . S
C654 C650 1.531 . S
C654 H666 0.960 . S
C654 H667 0.962 . S
C654 H668 0.960 . S
C655 C652 1.511 1_565 S
C655 H669 0.961 . S
C655 H670 0.961 . S
C655 H671 0.961 . S
C656 C657 1.370 . S
C656 C658 1.363 1_565 S
C656 H672 0.931 . S
C657 C656 1.370 . S
C657 C661 1.408 . S
C658 C656 1.363 1_545 S
C658 C659 1.370 . S
C658 C662 1.524 . S
C659 C651 1.503 . S
C659 C658 1.370 . S
C659 C660 1.403 1_545 S
C660 C659 1.403 1_565 S
C660 C661 1.404 . S
C660 C663 1.539 . S
C661 C657 1.408 . S
C661 C660 1.404 . S
C661 H673 0.930 . S
C662 C658 1.524 . S
C662 H674 0.956 . S
C662 H675 0.961 . S
C662 H676 0.961 . S
C663 C660 1.539 . S
C663 H677 0.958 1_565 S
C663 H678 0.961 . S
C663 H679 0.960 1_565 S
H664 C648 0.931 . S
H665 C653 0.929 . S
H666 C654 0.960 . S
H667 C654 0.962 . S
H668 C654 0.960 . S
H669 C655 0.961 . S
H670 C655 0.961 . S
H671 C655 0.961 . S
H672 C656 0.931 . S
H673 C661 0.930 . S
H674 C662 0.956 . S
H675 C662 0.961 . S
H676 C662 0.961 . S
H677 C663 0.958 1_545 S
H678 C663 0.961 . S
H679 C663 0.960 1_545 S
C680 C681 1.391 . S
C680 C682 1.394 . S
C680 H696 0.931 . S
C681 C680 1.391 . S
C681 C685 1.376 . S
C682 C680 1.394 . S
C682 C683 1.369 1_556 S
C682 C686 1.531 . S
C683 C682 1.369 1_554 S
C683 C684 1.410 . S
C683 C691 1.503 . S
C684 C683 1.410 . S
C684 C685 1.392 1_554 S
C684 C687 1.511 . S
C685 C681 1.376 . S
C685 C684 1.392 1_556 S
C685 H697 0.929 . S
C686 C682 1.531 . S
C686 H698 0.960 1_556 S
C686 H699 0.962 . S
C686 H700 0.960 . S
C687 C684 1.511 . S
C687 H701 0.961 . S
C687 H702 0.961 . S
C687 H703 0.961 . S
C688 C689 1.370 . S
C688 C690 1.363 . S
C688 H704 0.931 . S
C689 C688 1.370 . S
C689 C693 1.408 . S
C690 C688 1.363 . S
C690 C691 1.370 . S
C690 C694 1.524 . S
C691 C683 1.503 . S
C691 C690 1.370 . S
C691 C692 1.403 . S
C692 C691 1.403 . S
C692 C693 1.404 . S
C692 C695 1.539 . S
C693 C689 1.408 . S
C693 C692 1.404 . S
C693 H705 0.930 . S
C694 C690 1.524 . S
C694 H706 0.956 . S
C694 H707 0.961 . S
C694 H708 0.961 . S
C695 C692 1.539 . S
C695 H709 0.958 . S
C695 H710 0.961 . S
C695 H711 0.960 . S
H696 C680 0.931 . S
H697 C685 0.929 . S
H698 C686 0.960 1_554 S
H699 C686 0.962 . S
H700 C686 0.960 . S
H701 C687 0.961 . S
H702 C687 0.961 . S
H703 C687 0.961 . S
H704 C688 0.931 . S
H705 C693 0.930 . S
H706 C694 0.956 . S
H707 C694 0.961 . S
H708 C694 0.961 . S
H709 C695 0.958 . S
H710 C695 0.961 . S
H711 C695 0.960 . S
C712 C713 1.391 . S
C712 C714 1.394 . S
C712 H728 0.931 . S
C713 C712 1.391 . S
C713 C717 1.376 . S
C714 C712 1.394 . S
C714 C715 1.369 . S
C714 C718 1.531 . S
C715 C714 1.369 . S
C715 C716 1.410 . S
C715 C723 1.503 . S
C716 C715 1.410 . S
C716 C717 1.392 . S
C716 C719 1.511 . S
C717 C713 1.376 . S
C717 C716 1.392 . S
C717 H729 0.929 . S
C718 C714 1.531 . S
C718 H730 0.960 . S
C718 H731 0.962 . S
C718 H732 0.960 . S
C719 C716 1.511 . S
C719 H733 0.961 . S
C719 H734 0.961 . S
C719 H735 0.961 . S
C720 C721 1.370 . S
C720 C722 1.363 . S
C720 H736 0.931 . S
C721 C720 1.370 . S
C721 C725 1.408 . S
C722 C720 1.363 . S
C722 C723 1.370 . S
C722 C726 1.524 . S
C723 C715 1.503 . S
C723 C722 1.370 . S
C723 C724 1.403 . S
C724 C723 1.403 . S
C724 C725 1.404 . S
C724 C727 1.539 . S
C725 C721 1.408 . S
C725 C724 1.404 . S
C725 H737 0.930 . S
C726 C722 1.524 . S
C726 H738 0.956 . S
C726 H739 0.961 . S
C726 H740 0.961 . S
C727 C724 1.539 . S
C727 H741 0.958 . S
C727 H742 0.961 . S
C727 H743 0.960 . S
H728 C712 0.931 . S
H729 C717 0.929 . S
H730 C718 0.960 . S
H731 C718 0.962 . S
H732 C718 0.960 . S
H733 C719 0.961 . S
H734 C719 0.961 . S
H735 C719 0.961 . S
H736 C720 0.931 . S
H737 C725 0.930 . S
H738 C726 0.956 . S
H739 C726 0.961 . S
H740 C726 0.961 . S
H741 C727 0.958 . S
H742 C727 0.961 . S
H743 C727 0.960 . S
C744 C745 1.391 . S
C744 C746 1.358 1_554 S
C744 H760 0.931 . S
C745 C744 1.391 . S
C745 C749 1.376 . S
C746 C744 1.358 1_556 S
C746 C747 1.375 . S
C746 C750 1.561 . S
C747 C746 1.375 . S
C747 C748 1.410 1_556 S
C747 C755 1.503 . S
C748 C747 1.410 1_554 S
C748 C749 1.392 . S
C748 C751 1.511 . S
C749 C745 1.376 . S
C749 C748 1.392 . S
C749 H761 0.929 . S
C750 C746 1.561 . S
C750 H762 0.960 . S
C750 H763 0.962 . S
C750 H764 0.960 . S
C751 C748 1.511 . S
C751 H765 0.961 . S
C751 H766 0.961 1_554 S
C751 H767 0.961 . S
C752 C753 1.370 . S
C752 C754 1.363 . S
C752 H768 0.931 . S
C753 C752 1.370 . S
C753 C757 1.408 . S
C754 C752 1.363 . S
C754 C755 1.370 . S
C754 C758 1.524 . S
C755 C747 1.503 . S
C755 C754 1.370 . S
C755 C756 1.403 . S
C756 C755 1.403 . S
C756 C757 1.404 . S
C756 C759 1.539 . S
C757 C753 1.408 . S
C757 C756 1.404 . S
C757 H769 0.930 . S
C758 C754 1.524 . S
C758 H770 0.956 . S
C758 H771 0.961 . S
C758 H772 0.961 . S
C759 C756 1.539 . S
C759 H773 0.958 . S
C759 H774 0.961 . S
C759 H775 0.960 . S
H760 C744 0.931 . S
H761 C749 0.929 . S
H762 C750 0.960 . S
H763 C750 0.962 . S
H764 C750 0.960 . S
H765 C751 0.961 . S
H766 C751 0.961 1_556 S
H767 C751 0.961 . S
H768 C752 0.931 . S
H769 C757 0.930 . S
H770 C758 0.956 . S
H771 C758 0.961 . S
H772 C758 0.961 . S
H773 C759 0.958 . S
H774 C759 0.961 . S
H775 C759 0.960 . S
C776 C777 1.391 . S
C776 C778 1.394 . S
C776 H792 0.931 . S
C777 C776 1.391 . S
C777 C781 1.376 . S
C778 C776 1.394 . S
C778 C779 1.369 . S
C778 C782 1.531 . S
C779 C778 1.369 . S
C779 C780 1.410 . S
C779 C787 1.503 . S
C780 C779 1.410 . S
C780 C781 1.392 . S
C780 C783 1.511 . S
C781 C777 1.376 . S
C781 C780 1.392 . S
C781 H793 0.929 . S
C782 C778 1.531 . S
C782 H794 0.960 . S
C782 H795 0.962 . S
C782 H796 0.960 . S
C783 C780 1.511 . S
C783 H797 0.961 . S
C783 H798 0.961 . S
C783 H799 0.961 . S
C784 C785 1.370 . S
C784 C786 1.363 . S
C784 H800 0.931 . S
C785 C784 1.370 . S
C785 C789 1.408 . S
C786 C784 1.363 . S
C786 C787 1.370 . S
C786 C790 1.524 . S
C787 C779 1.503 . S
C787 C786 1.370 . S
C787 C788 1.403 . S
C788 C787 1.403 . S
C788 C789 1.404 . S
C788 C791 1.539 . S
C789 C785 1.408 . S
C789 C788 1.404 . S
C789 H801 0.930 . S
C790 C786 1.524 . S
C790 H802 0.956 . S
C790 H803 0.961 . S
C790 H804 0.961 . S
C791 C788 1.539 . S
C791 H805 0.958 . S
C791 H806 0.961 . S
C791 H807 0.960 . S
H792 C776 0.931 . S
H793 C781 0.929 . S
H794 C782 0.960 . S
H795 C782 0.962 . S
H796 C782 0.960 . S
H797 C783 0.961 . S
H798 C783 0.961 . S
H799 C783 0.961 . S
H800 C784 0.931 . S
H801 C789 0.930 . S
H802 C790 0.956 . S
H803 C790 0.961 . S
H804 C790 0.961 . S
H805 C791 0.958 . S
H806 C791 0.961 . S
H807 C791 0.960 . S
C808 C809 1.391 . S
C808 C810 1.380 1_554 S
C808 H824 0.931 . S
C809 C808 1.391 . S
C809 C813 1.376 . S
C810 C808 1.380 1_556 S
C810 C811 1.370 . S
C810 C814 1.543 . S
C811 C810 1.370 . S
C811 C812 1.410 1_556 S
C811 C819 1.503 . S
C812 C811 1.410 1_554 S
C812 C813 1.392 . S
C812 C815 1.511 . S
C813 C809 1.376 . S
C813 C812 1.392 . S
C813 H825 0.929 . S
C814 C810 1.543 . S
C814 H826 0.960 . S
C814 H827 0.962 . S
C814 H828 0.960 . S
C815 C812 1.511 . S
C815 H829 0.961 . S
C815 H830 0.965 . S
C815 H831 0.961 . S
C816 C817 1.370 . S
C816 C818 1.363 . S
C816 H832 0.931 . S
C817 C816 1.370 . S
C817 C821 1.408 . S
C818 C816 1.363 . S
C818 C819 1.370 . S
C818 C822 1.524 . S
C819 C811 1.503 . S
C819 C818 1.370 . S
C819 C820 1.403 . S
C820 C819 1.403 . S
C820 C821 1.404 . S
C820 C823 1.539 . S
C821 C817 1.408 . S
C821 C820 1.404 . S
C821 H833 0.930 . S
C822 C818 1.524 . S
C822 H834 0.956 . S
C822 H835 0.961 . S
C822 H836 0.961 . S
C823 C820 1.539 . S
C823 H837 0.958 . S
C823 H838 0.961 . S
C823 H839 0.960 . S
H824 C808 0.931 . S
H825 C813 0.929 . S
H826 C814 0.960 . S
H827 C814 0.962 . S
H828 C814 0.960 . S
H829 C815 0.961 . S
H830 C815 0.965 . S
H831 C815 0.961 . S
H832 C816 0.931 . S
H833 C821 0.930 . S
H834 C822 0.956 . S
H835 C822 0.961 . S
H836 C822 0.961 . S
H837 C823 0.958 . S
H838 C823 0.961 . S
H839 C823 0.960 . S
C840 C841 1.391 . S
C840 C842 1.394 . S
C840 H856 0.931 . S
C841 C840 1.391 . S
C841 C845 1.376 . S
C842 C840 1.394 . S
C842 C843 1.369 . S
C842 C846 1.531 . S
C843 C842 1.369 . S
C843 C844 1.410 . S
C843 C851 1.503 . S
C844 C843 1.410 . S
C844 C845 1.392 . S
C844 C847 1.511 . S
C845 C841 1.376 . S
C845 C844 1.392 . S
C845 H857 0.929 . S
C846 C842 1.531 . S
C846 H858 0.960 . S
C846 H859 0.962 . S
C846 H860 0.960 . S
C847 C844 1.511 . S
C847 H861 0.961 . S
C847 H862 0.961 . S
C847 H863 0.961 . S
C848 C849 1.370 . S
C848 C850 1.363 . S
C848 H864 0.931 . S
C849 C848 1.370 . S
C849 C853 1.408 . S
C850 C848 1.363 . S
C850 C851 1.370 . S
C850 C854 1.524 . S
C851 C843 1.503 . S
C851 C850 1.370 . S
C851 C852 1.403 . S
C852 C851 1.403 . S
C852 C853 1.404 . S
C852 C855 1.539 . S
C853 C849 1.408 . S
C853 C852 1.404 . S
C853 H865 0.930 . S
C854 C850 1.524 . S
C854 H866 0.956 . S
C854 H867 0.961 . S
C854 H868 0.961 . S
C855 C852 1.539 . S
C855 H869 0.958 . S
C855 H870 0.961 . S
C855 H871 0.960 . S
H856 C840 0.931 . S
H857 C845 0.929 . S
H858 C846 0.960 . S
H859 C846 0.962 . S
H860 C846 0.960 . S
H861 C847 0.961 . S
H862 C847 0.961 . S
H863 C847 0.961 . S
H864 C848 0.931 . S
H865 C853 0.930 . S
H866 C854 0.956 . S
H867 C854 0.961 . S
H868 C854 0.961 . S
H869 C855 0.958 . S
H870 C855 0.961 . S
H871 C855 0.960 . S
C872 C873 1.391 . S
C872 C874 1.394 . S
C872 H888 0.931 . S
C873 C872 1.391 . S
C873 C877 1.376 . S
C874 C872 1.394 . S
C874 C875 1.369 1_556 S
C874 C878 1.531 1_556 S
C875 C874 1.369 1_554 S
C875 C876 1.410 1_554 S
C875 C883 1.503 . S
C876 C875 1.410 1_556 S
C876 C877 1.392 . S
C876 C879 1.511 . S
C877 C873 1.376 . S
C877 C876 1.392 . S
C877 H889 0.929 . S
C878 C874 1.531 1_554 S
C878 H890 0.960 . S
C878 H891 0.962 . S
C878 H892 0.960 . S
C879 C876 1.511 . S
C879 H893 0.961 . S
C879 H894 0.918 1_556 S
C879 H895 0.961 . S
C880 C881 1.370 . S
C880 C882 1.363 . S
C880 H896 0.931 . S
C881 C880 1.370 . S
C881 C885 1.408 . S
C882 C880 1.363 . S
C882 C883 1.370 . S
C882 C886 1.524 . S
C883 C875 1.503 . S
C883 C882 1.370 . S
C883 C884 1.403 . S
C884 C883 1.403 . S
C884 C885 1.404 . S
C884 C887 1.539 . S
C885 C881 1.408 . S
C885 C884 1.404 . S
C885 H897 0.930 . S
C886 C882 1.524 . S
C886 H898 0.956 . S
C886 H899 0.961 . S
C886 H900 0.961 . S
C887 C884 1.539 . S
C887 H901 0.958 . S
C887 H902 0.961 . S
C887 H903 0.960 . S
H888 C872 0.931 . S
H889 C877 0.929 . S
H890 C878 0.960 . S
H891 C878 0.962 . S
H892 C878 0.960 . S
H893 C879 0.961 . S
H894 C879 0.918 1_554 S
H895 C879 0.961 . S
H896 C880 0.931 . S
H897 C885 0.930 . S
H898 C886 0.956 . S
H899 C886 0.961 . S
H900 C886 0.961 . S
H901 C887 0.958 . S
H902 C887 0.961 . S
H903 C887 0.960 . S
C904 C905 1.391 . S
C904 C906 1.394 . S
C904 H920 0.931 . S
C905 C904 1.391 . S
C905 C909 1.376 . S
C906 C904 1.394 . S
C906 C907 1.369 . S
C906 C910 1.531 . S
C907 C906 1.369 . S
C907 C908 1.410 . S
C907 C915 1.503 . S
C908 C907 1.410 . S
C908 C909 1.392 . S
C908 C911 1.511 . S
C909 C905 1.376 . S
C909 C908 1.392 . S
C909 H921 0.929 . S
C910 C906 1.531 . S
C910 H922 0.960 . S
C910 H923 0.962 . S
C910 H924 0.960 . S
C911 C908 1.511 . S
C911 H925 0.961 . S
C911 H926 0.961 . S
C911 H927 0.961 . S
C912 C913 1.370 . S
C912 C914 1.363 . S
C912 H928 0.931 . S
C913 C912 1.370 . S
C913 C917 1.408 . S
C914 C912 1.363 . S
C914 C915 1.370 . S
C914 C918 1.524 . S
C915 C907 1.503 . S
C915 C914 1.370 . S
C915 C916 1.403 . S
C916 C915 1.403 . S
C916 C917 1.404 . S
C916 C919 1.539 . S
C917 C913 1.408 . S
C917 C916 1.404 . S
C917 H929 0.930 . S
C918 C914 1.524 . S
C918 H930 0.956 . S
C918 H931 0.961 . S
C918 H932 0.961 . S
C919 C916 1.539 . S
C919 H933 0.958 . S
C919 H934 0.961 . S
C919 H935 0.960 . S
H920 C904 0.931 . S
H921 C909 0.929 . S
H922 C910 0.960 . S
H923 C910 0.962 . S
H924 C910 0.960 . S
H925 C911 0.961 . S
H926 C911 0.961 . S
H927 C911 0.961 . S
H928 C912 0.931 . S
H929 C917 0.930 . S
H930 C918 0.956 . S
H931 C918 0.961 . S
H932 C918 0.961 . S
H933 C919 0.958 . S
H934 C919 0.961 . S
H935 C919 0.960 . S
C936 C937 1.391 . S
C936 C938 1.394 . S
C936 H952 0.931 . S
C937 C936 1.391 . S
C937 C941 1.376 . S
C938 C936 1.394 . S
C938 C939 1.369 . S
C938 C942 1.531 . S
C939 C938 1.369 . S
C939 C940 1.410 . S
C939 C947 1.503 . S
C940 C939 1.410 . S
C940 C941 1.392 . S
C940 C943 1.511 . S
C941 C937 1.376 . S
C941 C940 1.392 . S
C941 H953 0.929 . S
C942 C938 1.531 . S
C942 H954 0.960 . S
C942 H955 0.962 . S
C942 H956 0.960 . S
C943 C940 1.511 . S
C943 H957 0.961 . S
C943 H958 0.961 . S
C943 H959 0.961 . S
C944 C945 1.370 . S
C944 C946 1.363 . S
C944 H960 0.931 . S
C945 C944 1.370 . S
C945 C949 1.408 . S
C946 C944 1.363 . S
C946 C947 1.370 . S
C946 C950 1.524 . S
C947 C939 1.503 . S
C947 C946 1.370 . S
C947 C948 1.403 . S
C948 C947 1.403 . S
C948 C949 1.404 . S
C948 C951 1.539 . S
C949 C945 1.408 . S
C949 C948 1.404 . S
C949 H961 0.930 . S
C950 C946 1.524 . S
C950 H962 0.956 . S
C950 H963 0.961 . S
C950 H964 0.961 . S
C951 C948 1.539 . S
C951 H965 0.958 . S
C951 H966 0.961 . S
C951 H967 0.960 . S
H952 C936 0.931 . S
H953 C941 0.929 . S
H954 C942 0.960 . S
H955 C942 0.962 . S
H956 C942 0.960 . S
H957 C943 0.961 . S
H958 C943 0.961 . S
H959 C943 0.961 . S
H960 C944 0.931 . S
H961 C949 0.930 . S
H962 C950 0.956 . S
H963 C950 0.961 . S
H964 C950 0.961 . S
H965 C951 0.958 . S
H966 C951 0.961 . S
H967 C951 0.960 . S
C968 C969 1.391 . S
C968 C970 1.394 . S
C968 H984 0.931 . S
C969 C968 1.391 . S
C969 C973 1.376 . S
C970 C968 1.394 . S
C970 C971 1.369 . S
C970 C974 1.531 . S
C971 C970 1.369 . S
C971 C972 1.410 . S
C971 C979 1.503 . S
C972 C971 1.410 . S
C972 C973 1.392 . S
C972 C975 1.511 . S
C973 C969 1.376 . S
C973 C972 1.392 . S
C973 H985 0.929 . S
C974 C970 1.531 . S
C974 H986 0.960 . S
C974 H987 0.962 . S
C974 H988 0.960 . S
C975 C972 1.511 . S
C975 H989 0.961 . S
C975 H990 0.961 . S
C975 H991 0.961 . S
C976 C977 1.370 . S
C976 C978 1.363 . S
C976 H992 0.931 . S
C977 C976 1.370 . S
C977 C981 1.408 . S
C978 C976 1.363 . S
C978 C979 1.370 . S
C978 C982 1.524 . S
C979 C971 1.503 . S
C979 C978 1.370 . S
C979 C980 1.403 . S
C980 C979 1.403 . S
C980 C981 1.404 . S
C980 C983 1.539 . S
C981 C977 1.408 . S
C981 C980 1.404 . S
C981 H993 0.930 . S
C982 C978 1.524 . S
C982 H994 0.956 . S
C982 H995 0.961 . S
C982 H996 0.961 . S
C983 C980 1.539 . S
C983 H997 0.958 . S
C983 H998 0.961 . S
C983 H999 0.960 . S
H984 C968 0.931 . S
H985 C973 0.929 . S
H986 C974 0.960 . S
H987 C974 0.962 . S
H988 C974 0.960 . S
H989 C975 0.961 . S
H990 C975 0.961 . S
H991 C975 0.961 . S
H992 C976 0.931 . S
H993 C981 0.930 . S
H994 C982 0.956 . S
H995 C982 0.961 . S
H996 C982 0.961 . S
H997 C983 0.958 . S
H998 C983 0.961 . S
H999 C983 0.960 . S
C1000 C1001 1.391 . S
C1000 C1002 1.394 . S
C1000 H1016 0.931 . S
C1001 C1000 1.391 . S
C1001 C1005 1.376 . S
C1002 C1000 1.394 . S
C1002 C1003 1.369 . S
C1002 C1006 1.531 . S
C1003 C1002 1.369 . S
C1003 C1004 1.410 . S
C1003 C1011 1.503 . S
C1004 C1003 1.410 . S
C1004 C1005 1.392 . S
C1004 C1007 1.511 . S
C1005 C1001 1.376 . S
C1005 C1004 1.392 . S
C1005 H1017 0.929 . S
C1006 C1002 1.531 . S
C1006 H1018 0.960 . S
C1006 H1019 0.962 . S
C1006 H1020 0.960 . S
C1007 C1004 1.511 . S
C1007 H1021 0.961 . S
C1007 H1022 0.961 . S
C1007 H1023 0.961 . S
C1008 C1009 1.370 . S
C1008 C1010 1.363 . S
C1008 H1024 0.931 . S
C1009 C1008 1.370 . S
C1009 C1013 1.408 . S
C1010 C1008 1.363 . S
C1010 C1011 1.370 . S
C1010 C1014 1.524 . S
C1011 C1003 1.503 . S
C1011 C1010 1.370 . S
C1011 C1012 1.403 . S
C1012 C1011 1.403 . S
C1012 C1013 1.404 . S
C1012 C1015 1.539 . S
C1013 C1009 1.408 . S
C1013 C1012 1.404 . S
C1013 H1025 0.930 . S
C1014 C1010 1.524 . S
C1014 H1026 0.956 . S
C1014 H1027 0.961 . S
C1014 H1028 0.961 . S
C1015 C1012 1.539 . S
C1015 H1029 0.958 . S
C1015 H1030 0.961 . S
C1015 H1031 0.960 . S
H1016 C1000 0.931 . S
H1017 C1005 0.929 . S
H1018 C1006 0.960 . S
H1019 C1006 0.962 . S
H1020 C1006 0.960 . S
H1021 C1007 0.961 . S
H1022 C1007 0.961 . S
H1023 C1007 0.961 . S
H1024 C1008 0.931 . S
H1025 C1013 0.930 . S
H1026 C1014 0.956 . S
H1027 C1014 0.961 . S
H1028 C1014 0.961 . S
H1029 C1015 0.958 . S
H1030 C1015 0.961 . S
H1031 C1015 0.960 . S
C1032 C1033 1.391 . S
C1032 C1034 1.394 . S
C1032 H1048 0.931 . S
C1033 C1032 1.391 . S
C1033 C1037 1.376 . S
C1034 C1032 1.394 . S
C1034 C1035 1.369 . S
C1034 C1038 1.531 . S
C1035 C1034 1.369 . S
C1035 C1036 1.410 . S
C1035 C1043 1.503 . S
C1036 C1035 1.410 . S
C1036 C1037 1.392 . S
C1036 C1039 1.511 . S
C1037 C1033 1.376 . S
C1037 C1036 1.392 . S
C1037 H1049 0.929 . S
C1038 C1034 1.531 . S
C1038 H1050 0.960 . S
C1038 H1051 0.962 . S
C1038 H1052 0.960 . S
C1039 C1036 1.511 . S
C1039 H1053 0.961 . S
C1039 H1054 0.961 . S
C1039 H1055 0.961 . S
C1040 C1041 1.370 . S
C1040 C1042 1.363 . S
C1040 H1056 0.931 . S
C1041 C1040 1.370 . S
C1041 C1045 1.408 . S
C1042 C1040 1.363 . S
C1042 C1043 1.370 . S
C1042 C1046 1.524 . S
C1043 C1035 1.503 . S
C1043 C1042 1.370 . S
C1043 C1044 1.403 . S
C1044 C1043 1.403 . S
C1044 C1045 1.404 . S
C1044 C1047 1.539 . S
C1045 C1041 1.408 . S
C1045 C1044 1.404 . S
C1045 H1057 0.930 . S
C1046 C1042 1.524 . S
C1046 H1058 0.956 . S
C1046 H1059 0.961 . S
C1046 H1060 0.961 . S
C1047 C1044 1.539 . S
C1047 H1061 0.958 . S
C1047 H1062 0.961 . S
C1047 H1063 0.960 . S
H1048 C1032 0.931 . S
H1049 C1037 0.929 . S
H1050 C1038 0.960 . S
H1051 C1038 0.962 . S
H1052 C1038 0.960 . S
H1053 C1039 0.961 . S
H1054 C1039 0.961 . S
H1055 C1039 0.961 . S
H1056 C1040 0.931 . S
H1057 C1045 0.930 . S
H1058 C1046 0.956 . S
H1059 C1046 0.961 . S
H1060 C1046 0.961 . S
H1061 C1047 0.958 . S
H1062 C1047 0.961 . S
H1063 C1047 0.960 . S
C1064 C1065 1.391 . S
C1064 C1066 1.394 . S
C1064 H1080 0.931 . S
C1065 C1064 1.391 . S
C1065 C1069 1.376 . S
C1066 C1064 1.394 . S
C1066 C1067 1.369 . S
C1066 C1070 1.531 . S
C1067 C1066 1.369 . S
C1067 C1068 1.410 . S
C1067 C1075 1.503 . S
C1068 C1067 1.410 . S
C1068 C1069 1.392 . S
C1068 C1071 1.511 . S
C1069 C1065 1.376 . S
C1069 C1068 1.392 . S
C1069 H1081 0.929 . S
C1070 C1066 1.531 . S
C1070 H1082 0.960 . S
C1070 H1083 0.962 . S
C1070 H1084 0.960 . S
C1071 C1068 1.511 . S
C1071 H1085 0.961 . S
C1071 H1086 0.961 . S
C1071 H1087 0.961 . S
C1072 C1073 1.370 . S
C1072 C1074 1.363 . S
C1072 H1088 0.931 . S
C1073 C1072 1.370 . S
C1073 C1077 1.408 . S
C1074 C1072 1.363 . S
C1074 C1075 1.370 . S
C1074 C1078 1.524 . S
C1075 C1067 1.503 . S
C1075 C1074 1.370 . S
C1075 C1076 1.403 . S
C1076 C1075 1.403 . S
C1076 C1077 1.404 . S
C1076 C1079 1.539 . S
C1077 C1073 1.408 . S
C1077 C1076 1.404 . S
C1077 H1089 0.930 . S
C1078 C1074 1.524 . S
C1078 H1090 0.956 . S
C1078 H1091 0.961 . S
C1078 H1092 0.961 . S
C1079 C1076 1.539 . S
C1079 H1093 0.958 . S
C1079 H1094 0.961 . S
C1079 H1095 0.960 . S
H1080 C1064 0.931 . S
H1081 C1069 0.929 . S
H1082 C1070 0.960 . S
H1083 C1070 0.962 . S
H1084 C1070 0.960 . S
H1085 C1071 0.961 . S
H1086 C1071 0.961 . S
H1087 C1071 0.961 . S
H1088 C1072 0.931 . S
H1089 C1077 0.930 . S
H1090 C1078 0.956 . S
H1091 C1078 0.961 . S
H1092 C1078 0.961 . S
H1093 C1079 0.958 . S
H1094 C1079 0.961 . S
H1095 C1079 0.960 . S
C1096 C1097 1.391 . S
C1096 C1098 1.394 . S
C1096 H1112 0.931 . S
C1097 C1096 1.391 . S
C1097 C1101 1.376 . S
C1098 C1096 1.394 . S
C1098 C1099 1.369 . S
C1098 C1102 1.531 . S
C1099 C1098 1.369 . S
C1099 C1100 1.410 . S
C1099 C1107 1.503 . S
C1100 C1099 1.410 . S
C1100 C1101 1.392 . S
C1100 C1103 1.511 . S
C1101 C1097 1.376 . S
C1101 C1100 1.392 . S
C1101 H1113 0.929 . S
C1102 C1098 1.531 . S
C1102 H1114 0.960 . S
C1102 H1115 0.962 . S
C1102 H1116 0.960 . S
C1103 C1100 1.511 . S
C1103 H1117 0.961 . S
C1103 H1118 0.961 . S
C1103 H1119 0.961 . S
C1104 C1105 1.370 . S
C1104 C1106 1.363 . S
C1104 H1120 0.931 . S
C1105 C1104 1.370 . S
C1105 C1109 1.408 . S
C1106 C1104 1.363 . S
C1106 C1107 1.370 . S
C1106 C1110 1.524 . S
C1107 C1099 1.503 . S
C1107 C1106 1.370 . S
C1107 C1108 1.403 . S
C1108 C1107 1.403 . S
C1108 C1109 1.404 . S
C1108 C1111 1.539 . S
C1109 C1105 1.408 . S
C1109 C1108 1.404 . S
C1109 H1121 0.930 . S
C1110 C1106 1.524 . S
C1110 H1122 0.956 . S
C1110 H1123 0.961 . S
C1110 H1124 0.961 . S
C1111 C1108 1.539 . S
C1111 H1125 0.958 . S
C1111 H1126 0.961 . S
C1111 H1127 0.960 . S
H1112 C1096 0.931 . S
H1113 C1101 0.929 . S
H1114 C1102 0.960 . S
H1115 C1102 0.962 . S
H1116 C1102 0.960 . S
H1117 C1103 0.961 . S
H1118 C1103 0.961 . S
H1119 C1103 0.961 . S
H1120 C1104 0.931 . S
H1121 C1109 0.930 . S
H1122 C1110 0.956 . S
H1123 C1110 0.961 . S
H1124 C1110 0.961 . S
H1125 C1111 0.958 . S
H1126 C1111 0.961 . S
H1127 C1111 0.960 . S
C1128 C1129 1.391 . S
C1128 C1130 1.394 . S
C1128 H1144 0.931 . S
C1129 C1128 1.391 . S
C1129 C1133 1.376 . S
C1130 C1128 1.394 . S
C1130 C1131 1.369 . S
C1130 C1134 1.531 . S
C1131 C1130 1.369 . S
C1131 C1132 1.410 . S
C1131 C1139 1.503 . S
C1132 C1131 1.410 . S
C1132 C1133 1.392 . S
C1132 C1135 1.511 . S
C1133 C1129 1.376 . S
C1133 C1132 1.392 . S
C1133 H1145 0.929 . S
C1134 C1130 1.531 . S
C1134 H1146 0.960 . S
C1134 H1147 0.962 . S
C1134 H1148 0.960 . S
C1135 C1132 1.511 . S
C1135 H1149 0.961 . S
C1135 H1150 0.961 . S
C1135 H1151 0.961 . S
C1136 C1137 1.370 . S
C1136 C1138 1.363 . S
C1136 H1152 0.931 . S
C1137 C1136 1.370 . S
C1137 C1141 1.408 . S
C1138 C1136 1.363 . S
C1138 C1139 1.370 . S
C1138 C1142 1.524 . S
C1139 C1131 1.503 . S
C1139 C1138 1.370 . S
C1139 C1140 1.403 . S
C1140 C1139 1.403 . S
C1140 C1141 1.404 . S
C1140 C1143 1.539 . S
C1141 C1137 1.408 . S
C1141 C1140 1.404 . S
C1141 H1153 0.930 . S
C1142 C1138 1.524 . S
C1142 H1154 0.956 . S
C1142 H1155 0.961 . S
C1142 H1156 0.961 . S
C1143 C1140 1.539 . S
C1143 H1157 0.958 . S
C1143 H1158 0.961 . S
C1143 H1159 0.960 . S
H1144 C1128 0.931 . S
H1145 C1133 0.929 . S
H1146 C1134 0.960 . S
H1147 C1134 0.962 . S
H1148 C1134 0.960 . S
H1149 C1135 0.961 . S
H1150 C1135 0.961 . S
H1151 C1135 0.961 . S
H1152 C1136 0.931 . S
H1153 C1141 0.930 . S
H1154 C1142 0.956 . S
H1155 C1142 0.961 . S
H1156 C1142 0.961 . S
H1157 C1143 0.958 . S
H1158 C1143 0.961 . S
H1159 C1143 0.960 . S
C1160 C1161 1.391 . S
C1160 C1162 1.394 . S
C1160 H1176 0.931 . S
C1161 C1160 1.391 . S
C1161 C1165 1.376 . S
C1162 C1160 1.394 . S
C1162 C1163 1.369 . S
C1162 C1166 1.531 . S
C1163 C1162 1.369 . S
C1163 C1164 1.410 . S
C1163 C1171 1.503 . S
C1164 C1163 1.410 . S
C1164 C1165 1.392 . S
C1164 C1167 1.511 . S
C1165 C1161 1.376 . S
C1165 C1164 1.392 . S
C1165 H1177 0.929 . S
C1166 C1162 1.531 . S
C1166 H1178 0.960 . S
C1166 H1179 0.962 . S
C1166 H1180 0.960 . S
C1167 C1164 1.511 . S
C1167 H1181 0.961 . S
C1167 H1182 0.961 . S
C1167 H1183 0.961 . S
C1168 C1169 1.370 . S
C1168 C1170 1.363 . S
C1168 H1184 0.931 . S
C1169 C1168 1.370 . S
C1169 C1173 1.408 . S
C1170 C1168 1.363 . S
C1170 C1171 1.370 . S
C1170 C1174 1.524 . S
C1171 C1163 1.503 . S
C1171 C1170 1.370 . S
C1171 C1172 1.403 . S
C1172 C1171 1.403 . S
C1172 C1173 1.404 . S
C1172 C1175 1.539 . S
C1173 C1169 1.408 . S
C1173 C1172 1.404 . S
C1173 H1185 0.930 . S
C1174 C1170 1.524 . S
C1174 H1186 0.956 . S
C1174 H1187 0.961 . S
C1174 H1188 0.961 . S
C1175 C1172 1.539 . S
C1175 H1189 0.958 . S
C1175 H1190 0.961 . S
C1175 H1191 0.960 . S
H1176 C1160 0.931 . S
H1177 C1165 0.929 . S
H1178 C1166 0.960 . S
H1179 C1166 0.962 . S
H1180 C1166 0.960 . S
H1181 C1167 0.961 . S
H1182 C1167 0.961 . S
H1183 C1167 0.961 . S
H1184 C1168 0.931 . S
H1185 C1173 0.930 . S
H1186 C1174 0.956 . S
H1187 C1174 0.961 . S
H1188 C1174 0.961 . S
H1189 C1175 0.958 . S
H1190 C1175 0.961 . S
H1191 C1175 0.960 . S
C425 C71 1.657 . S
C433 C162 1.654 . S
C465 C246 1.632 . S
C457 C81 1.640 . S
C497 C239 1.661 . S
C489 C49 1.659 . S
C521 C59 1.617 . S
C529 C155 1.637 . S
C561 C319 1.648 . S
C553 C27 1.654 . S
C593 C403 1.681 . S
C585 C38 1.709 . S
C617 C5 1.641 . S
C625 C396 1.660 . S
C649 C16 1.705 . S
C657 C312 1.698 . S
C689 C146 1.389 . S
C681 C15 1.556 . S
C721 C230 1.398 . S
C713 C4 1.575 . S
C753 C241 1.371 . S
C745 C37 1.556 . S
C785 C157 1.359 . S
C777 C26 1.580 . S
C817 C325 1.462 . S
C809 C60 1.593 . S
C841 C48 1.643 . S
C849 C409 1.470 . S
C881 C398 1.436 . S
C873 C82 1.600 . S
C905 C70 1.648 . S
C913 C314 1.405 . S
C945 C144 1.499 . S
C937 C10 1.471 . S
C977 C228 1.548 . S
C969 C21 1.547 . S
C1001 C32 1.467 . S
C1009 C235 1.459 . S
C1041 C151 1.522 . S
C1033 C43 1.538 . S
C1073 C323 1.590 . S
C1065 C54 1.576 . S
C1097 C65 1.544 . S
C1105 C407 1.542 . S
C1129 C76 1.560 . S
C1137 C414 1.558 . S
C1161 C87 1.530 . S
C1169 C330 1.505 . S
