# Generated by pormake.
# Topology wbl, (4,4)-cn, num edge types: 1
# Building blocks:
#     Node 0, Type 0, BuildingBlock: NAWXER_clean_linker_0, # of connection points: 4
#     Node 1, Type 0, BuildingBlock: NAWXER_clean_linker_0, # of connection points: 4
#     Node 2, Type 0, BuildingBlock: NAWXER_clean_linker_0, # of connection points: 4
#     Node 3, Type 0, BuildingBlock: NAWXER_clean_linker_0, # of connection points: 4
#     Node 4, Type 0, BuildingBlock: NAWXER_clean_linker_0, # of connection points: 4
#     Node 5, Type 0, BuildingBlock: NAWXER_clean_linker_0, # of connection points: 4
#     Node 6, Type 0, BuildingBlock: NAWXER_clean_linker_0, # of connection points: 4
#     Node 7, Type 0, BuildingBlock: NAWXER_clean_linker_0, # of connection points: 4
#     Node 8, Type 1, BuildingBlock: QUQFOY_clean_sbu_3, # of connection points: 4
#     Node 9, Type 1, BuildingBlock: QUQFOY_clean_sbu_3, # of connection points: 4
#     Node 10, Type 1, BuildingBlock: QUQFOY_clean_sbu_3, # of connection points: 4
#     Node 11, Type 1, BuildingBlock: QUQFOY_clean_sbu_3, # of connection points: 4
#     Node 12, Type 1, BuildingBlock: QUQFOY_clean_sbu_3, # of connection points: 4
#     Node 13, Type 1, BuildingBlock: QUQFOY_clean_sbu_3, # of connection points: 4
#     Node 14, Type 1, BuildingBlock: QUQFOY_clean_sbu_3, # of connection points: 4
#     Node 15, Type 1, BuildingBlock: QUQFOY_clean_sbu_3, # of connection points: 4
#     Edge 16, Type (0, 1), BuildingBlock: TEMPAE_clean_linker_10, # of connection points: 2
#     Edge 17, Type (0, 1), BuildingBlock: TEMPAE_clean_linker_10, # of connection points: 2
#     Edge 18, Type (0, 1), BuildingBlock: TEMPAE_clean_linker_10, # of connection points: 2
#     Edge 19, Type (0, 1), BuildingBlock: TEMPAE_clean_linker_10, # of connection points: 2
#     Edge 20, Type (0, 1), BuildingBlock: TEMPAE_clean_linker_10, # of connection points: 2
#     Edge 21, Type (0, 1), BuildingBlock: TEMPAE_clean_linker_10, # of connection points: 2
#     Edge 22, Type (0, 1), BuildingBlock: TEMPAE_clean_linker_10, # of connection points: 2
#     Edge 23, Type (0, 1), BuildingBlock: TEMPAE_clean_linker_10, # of connection points: 2
#     Edge 24, Type (0, 1), BuildingBlock: TEMPAE_clean_linker_10, # of connection points: 2
#     Edge 25, Type (0, 1), BuildingBlock: TEMPAE_clean_linker_10, # of connection points: 2
#     Edge 26, Type (0, 1), BuildingBlock: TEMPAE_clean_linker_10, # of connection points: 2
#     Edge 27, Type (0, 1), BuildingBlock: TEMPAE_clean_linker_10, # of connection points: 2
#     Edge 28, Type (0, 1), BuildingBlock: TEMPAE_clean_linker_10, # of connection points: 2
#     Edge 29, Type (0, 1), BuildingBlock: TEMPAE_clean_linker_10, # of connection points: 2
#     Edge 30, Type (0, 1), BuildingBlock: TEMPAE_clean_linker_10, # of connection points: 2
#     Edge 31, Type (0, 1), BuildingBlock: TEMPAE_clean_linker_10, # of connection points: 2
#     Edge 32, Type (0, 1), BuildingBlock: TEMPAE_clean_linker_10, # of connection points: 2
#     Edge 33, Type (0, 1), BuildingBlock: TEMPAE_clean_linker_10, # of connection points: 2
#     Edge 34, Type (0, 1), BuildingBlock: TEMPAE_clean_linker_10, # of connection points: 2
#     Edge 35, Type (0, 1), BuildingBlock: TEMPAE_clean_linker_10, # of connection points: 2
#     Edge 36, Type (0, 1), BuildingBlock: TEMPAE_clean_linker_10, # of connection points: 2
#     Edge 37, Type (0, 1), BuildingBlock: TEMPAE_clean_linker_10, # of connection points: 2
#     Edge 38, Type (0, 1), BuildingBlock: TEMPAE_clean_linker_10, # of connection points: 2
#     Edge 39, Type (0, 1), BuildingBlock: TEMPAE_clean_linker_10, # of connection points: 2
#     Edge 40, Type (0, 1), BuildingBlock: TEMPAE_clean_linker_10, # of connection points: 2
#     Edge 41, Type (0, 1), BuildingBlock: TEMPAE_clean_linker_10, # of connection points: 2
#     Edge 42, Type (0, 1), BuildingBlock: TEMPAE_clean_linker_10, # of connection points: 2
#     Edge 43, Type (0, 1), BuildingBlock: TEMPAE_clean_linker_10, # of connection points: 2
#     Edge 44, Type (0, 1), BuildingBlock: TEMPAE_clean_linker_10, # of connection points: 2
#     Edge 45, Type (0, 1), BuildingBlock: TEMPAE_clean_linker_10, # of connection points: 2
#     Edge 46, Type (0, 1), BuildingBlock: TEMPAE_clean_linker_10, # of connection points: 2
#     Edge 47, Type (0, 1), BuildingBlock: TEMPAE_clean_linker_10, # of connection points: 2
# Relax obj value: 0.172
# Max RMSD: 0.174
# Mean RMSD: 0.145
data_MOF--net-wbl--node1-QUQFOY_clean_sbu_3--node2-NAWXER_clean_linker_0--edge1-TEMPAE_clean_linker_10
_symmetry_space_group_name_H-M    P1
_symmetry_Int_Tables_number       1
_symmetry_cell_setting            triclinic
loop_
_symmetry_equiv_pos_as_xyz
'x, y, z'
_cell_length_a     46.683585
_cell_length_b     47.124469
_cell_length_c     79.05098
_cell_angle_alpha  90.711773
_cell_angle_beta   90.306695
_cell_angle_gamma 90.18413
loop_
_atom_site_label
_atom_site_type_symbol
_atom_site_fract_x
_atom_site_fract_y
_atom_site_fract_z
_atom_type_partial_charge
C0 C 0.08581 0.94555 0.36089 0.0
C1 C 0.10398 0.9593 0.37262 0.0
C2 C 0.07077 0.96123 0.34887 0.0
C3 C 0.0735 -0.00908 0.34852 0.0
C4 C 0.10739 -0.01111 0.37187 0.0
C5 C 0.09203 0.00459 0.36003 0.0
C6 C 0.05502 0.00797 0.33736 0.0
C7 C 0.12046 0.96777 0.30488 0.0
C8 C 0.10989 0.94527 0.29478 0.0
C9 C 0.10177 -0.01331 0.31274 0.0
C10 C 0.07207 0.98357 0.31069 0.0
C11 C 0.08012 0.94277 0.29222 0.0
C12 C 0.06135 0.96191 0.30006 0.0
C13 C 0.05253 0.00298 0.31978 0.0
C14 C 0.97308 0.09758 0.2988 0.0
C15 C 0.95158 0.08214 0.29023 0.0
C16 C -0.00512 0.08339 0.30741 0.0
C17 C -0.00455 0.05358 0.30753 0.0
C18 C 0.95314 0.05236 0.28962 0.0
C19 C 0.97504 0.03821 0.2981 0.0
C20 C 0.01612 0.03822 0.3182 0.0
C21 C 0.95467 0.08124 0.35467 0.0
C22 C 0.9678 0.09814 0.36734 0.0
C23 C 0.97117 0.06404 0.34399 0.0
C24 C 0.0012 0.06398 0.34544 0.0
C25 C -0.00211 0.09835 0.36851 0.0
C26 C 0.01433 0.08151 0.35769 0.0
C27 C 0.01903 0.04357 0.33577 0.0
H28 H 0.08278 0.92276 0.36127 0.0
H29 H 0.05618 0.9503 0.3403 0.0
H30 H 0.12097 3e-05 0.38093 0.0
H31 H 0.09422 0.02749 0.36006 0.0
H32 H 0.14327 0.97083 0.30671 0.0
H33 H 0.11056 0.00376 0.32049 0.0
H34 H 0.07134 0.92568 0.28449 0.0
H35 H 0.03847 0.95935 0.29822 0.0
H36 H 0.97233 0.12054 0.29945 0.0
H37 H 0.01076 0.09563 0.31441 0.0
H38 H 0.93701 0.04 0.2829 0.0
H39 H 0.97528 0.01522 0.29792 0.0
H40 H 0.93159 0.08067 0.3533 0.0
H41 H 0.96032 0.05005 0.33507 0.0
H42 H 0.00883 0.1105 0.37831 0.0
H43 H 0.03742 0.08156 0.35923 0.0
N44 N 0.0384 0.0282 0.34462 0.0
N45 N 0.03295 0.01806 0.31084 0.0
C46 C 0.91193 0.48314 0.60471 0.0
C47 C 0.92187 0.47403 0.62052 0.0
C48 C 0.93047 0.49729 0.59373 0.0
C49 C 0.95941 0.50162 0.59822 0.0
C50 C 0.95062 0.47859 0.62503 0.0
C51 C 0.96918 0.49214 0.61399 0.0
C52 C 0.97955 0.51749 0.58732 0.0
C53 C 0.95145 0.44204 0.55732 0.0
C54 C 0.93845 0.44732 0.54156 0.0
C55 C 0.96578 0.46355 0.56617 0.0
C56 C 0.96632 0.49132 0.55997 0.0
C57 C 0.9399 0.47498 0.53505 0.0
C58 C 0.95368 0.49676 0.54419 0.0
C59 C 0.98139 0.51421 0.56951 0.0
C60 C 0.0843 0.58838 0.55453 0.0
C61 C 0.07317 0.60615 0.542 0.0
C62 C 0.06653 0.56907 0.56268 0.0
C63 C 0.03716 0.56775 0.55877 0.0
C64 C 0.04428 0.6033 0.53717 0.0
C65 C 0.02639 0.58422 0.54552 0.0
C66 C 0.01746 0.55027 0.56892 0.0
C67 C 0.04653 0.61715 0.60921 0.0
C68 C 0.06784 0.60494 0.6195 0.0
C69 C 0.03059 0.6003 0.59786 0.0
C70 C 0.03548 0.57103 0.59679 0.0
C71 C 0.07352 0.57575 0.61761 0.0
C72 C 0.05715 0.55891 0.60661 0.0
C73 C 0.01654 0.55236 0.5867 0.0
H74 H 0.88973 0.47996 0.60108 0.0
H75 H 0.92208 0.50515 0.58189 0.0
H76 H 0.95877 0.47154 0.63713 0.0
H77 H -0.0087 0.49528 0.61784 0.0
H78 H 0.9505 0.42126 0.56297 0.0
H79 H 0.97643 0.45834 0.57793 0.0
H80 H 0.93069 0.47979 0.52283 0.0
H81 H 0.95438 0.51788 0.53895 0.0
H82 H 0.10662 0.58989 0.55826 0.0
H83 H 0.07565 0.55567 0.57232 0.0
H84 H 0.03522 0.61682 0.52755 0.0
H85 H 0.00388 0.58325 0.54215 0.0
H86 H 0.04128 0.63943 0.61041 0.0
H87 H 0.0137 0.60988 0.59044 0.0
H88 H 0.09026 0.56569 0.62491 0.0
H89 H 0.0612 0.5363 0.60587 0.0
N90 N -0.00244 0.53614 0.59516 0.0
N91 N -0.00014 0.53123 0.56095 0.0
C92 C 0.54389 0.42309 0.85546 0.0
C93 C 0.5606 0.43526 0.86851 0.0
C94 C 0.52829 0.4404 0.8445 0.0
C95 C 0.52893 0.47004 0.84662 0.0
C96 C 0.56175 0.46494 0.87027 0.0
C97 C 0.54582 0.48213 0.85954 0.0
C98 C 0.51038 0.48857 0.8364 0.0
C99 C 0.58087 0.45886 0.80354 0.0
C100 C 0.57305 0.44416 0.78861 0.0
C101 C 0.56058 0.47365 0.81296 0.0
C102 C 0.53156 0.47307 0.80823 0.0
C103 C 0.54408 0.44442 0.78351 0.0
C104 C 0.52355 0.45873 0.79325 0.0
C105 C 0.51001 0.48853 0.8185 0.0
C106 C 0.42721 0.58503 0.80559 0.0
C107 C 0.40842 0.5722 0.79387 0.0
C108 C 0.44892 0.56922 0.81313 0.0
C109 C 0.45165 0.5401 0.80947 0.0
C110 C 0.41246 0.54361 0.78925 0.0
C111 C 0.43393 0.52765 0.79702 0.0
C112 C 0.47204 0.52238 0.81905 0.0
C113 C 0.40825 0.54961 0.86036 0.0
C114 C 0.42022 0.57152 0.87047 0.0
C115 C 0.42524 0.53446 0.84888 0.0
C116 C 0.45449 0.5407 0.8475 0.0
C117 C 0.44936 0.5784 0.86836 0.0
C118 C 0.4664 0.5628 0.85723 0.0
C119 C 0.47332 0.52301 0.83688 0.0
H120 H 0.54258 0.40025 0.85392 0.0
H121 H 0.51504 0.43066 0.83473 0.0
H122 H 0.57408 0.47483 0.8804 0.0
H123 H 0.54642 0.50494 0.86146 0.0
H124 H 0.60274 0.45889 0.80815 0.0
H125 H 0.5678 0.48566 0.82394 0.0
H126 H 0.53726 0.43382 0.77194 0.0
H127 H 0.50138 0.45847 0.78912 0.0
H128 H 0.42479 0.60718 0.80912 0.0
H129 H 0.46314 0.57966 0.82212 0.0
H130 H 0.39819 0.53329 0.78023 0.0
H131 H 0.43591 0.50532 0.79384 0.0
H132 H 0.38605 0.54339 0.86174 0.0
H133 H 0.41581 0.51724 0.84152 0.0
H134 H 0.45922 0.5956 0.87551 0.0
H135 H 0.48897 0.56793 0.85623 0.0
N136 N 0.49231 0.50607 0.84486 0.0
N137 N 0.49046 0.50514 0.81047 0.0
C138 C 0.48017 0.89898 0.05824 0.0
C139 C 0.46322 0.90576 0.04408 0.0
C140 C 0.49752 0.91945 0.06603 0.0
C141 C 0.49748 0.94755 0.06035 0.0
C142 C 0.46414 0.93369 0.03796 0.0
C143 C 0.4811 0.95437 0.04604 0.0
C144 C 0.51501 0.96959 0.06906 0.0
C145 C 0.45181 0.93967 0.10827 0.0
C146 C 0.46426 0.92941 0.12318 0.0
C147 C 0.46873 0.95342 0.09629 0.0
C148 C 0.49848 0.95629 0.09882 0.0
C149 C 0.49389 0.9324 0.12573 0.0
C150 C 0.51081 0.94566 0.11367 0.0
C151 C 0.51677 0.97219 0.0869 0.0
C152 C 0.57857 0.07458 0.10622 0.0
C153 C 0.6035 0.06483 0.11443 0.0
C154 C 0.56272 0.05648 0.09557 0.0
C155 C 0.5713 0.02829 0.09312 0.0
C156 C 0.61271 0.03688 0.1111 0.0
C157 C 0.59644 0.01865 0.10083 0.0
C158 C 0.55248 0.00799 0.08416 0.0
C159 C 0.60995 0.05029 0.04797 0.0
C160 C 0.59493 0.06687 0.03628 0.0
C161 C 0.5957 0.02947 0.05712 0.0
C162 C 0.56603 0.02548 0.05512 0.0
C163 C 0.56576 0.06132 0.03329 0.0
C164 C 0.5514 0.04078 0.04266 0.0
C165 C 0.54988 0.00644 0.0664 0.0
H166 H 0.47987 0.87789 0.0635 0.0
H167 H 0.51078 0.91327 0.07664 0.0
H168 H 0.45192 0.93958 0.02688 0.0
H169 H 0.48115 0.97579 0.04122 0.0
H170 H 0.42894 0.93784 0.10615 0.0
H171 H 0.45846 0.96227 0.08524 0.0
H172 H 0.50398 0.92448 0.1371 0.0
H173 H 0.53362 0.94778 0.11601 0.0
H174 H 0.57047 0.09573 0.10862 0.0
H175 H 0.54309 0.06408 0.08986 0.0
H176 H 0.63214 0.02877 0.11677 0.0
H177 H 0.60328 -0.00313 0.09906 0.0
H178 H 0.63257 0.05393 0.05029 0.0
H179 H 0.60778 0.01697 0.06604 0.0
H180 H 0.55373 0.07392 0.02437 0.0
H181 H 0.52859 0.03778 0.04073 0.0
N182 N 0.53123 -0.01276 0.05948 0.0
N183 N 0.53575 -0.00896 0.09369 0.0
C184 C 0.03916 0.60981 0.90449 0.0
C185 C 0.05462 0.59845 0.89079 0.0
C186 C 0.0231 0.59198 0.91487 0.0
C187 C 0.02212 0.56261 0.91159 0.0
C188 C 0.05381 0.56903 0.88772 0.0
C189 C 0.03754 0.55134 0.89792 0.0
C190 C 0.00399 0.5435 0.92168 0.0
C191 C 0.0769 0.57052 0.95417 0.0
C192 C 0.07018 0.58419 0.96957 0.0
C193 C 0.05583 0.55664 0.94468 0.0
C194 C 0.0271 0.55718 0.94981 0.0
C195 C 0.04151 0.5839 0.97504 0.0
C196 C 0.02018 0.57053 0.96523 0.0
C197 C 0.00477 0.54246 0.93955 0.0
C198 C 0.92839 0.44257 0.95392 0.0
C199 C 0.90669 0.45478 0.96382 0.0
C200 C 0.94883 0.45981 0.94622 0.0
C201 C 0.94792 0.4894 0.94846 0.0
C202 C 0.90661 0.48428 0.96662 0.0
C203 C 0.92727 0.50145 0.95912 0.0
C204 C 0.96717 0.50803 0.93888 0.0
C205 C 0.90219 0.47195 0.90138 0.0
C206 C 0.91473 0.457 0.88781 0.0
C207 C 0.91915 0.48832 0.91245 0.0
C208 C 0.94897 0.48971 0.91026 0.0
C209 C 0.94459 0.4585 0.88572 0.0
C210 C 0.96147 0.47469 0.8968 0.0
C211 C 0.96738 0.50819 0.92103 0.0
H212 H 0.03932 0.63244 0.90706 0.0
H213 H 0.01099 0.60116 0.92522 0.0
H214 H 0.06506 0.55975 0.87706 0.0
H215 H 0.03692 0.52878 0.8951 0.0
H216 H 0.09851 0.57059 0.94927 0.0
H217 H 0.0622 0.54533 0.93332 0.0
H218 H 0.03555 0.59372 0.98696 0.0
H219 H -0.00173 0.57069 0.96967 0.0
H220 H 0.92881 0.41988 0.95157 0.0
H221 H 0.96483 0.45015 0.93813 0.0
H222 H 0.8902 0.4941 0.97434 0.0
H223 H 0.92636 0.52423 0.96103 0.0
H224 H 0.87926 0.47123 0.90335 0.0
H225 H 0.90886 0.50036 0.92245 0.0
H226 H 0.95492 0.44783 0.8752 0.0
H227 H -0.01563 0.47572 0.89473 0.0
N228 N -0.0143 0.52601 0.91316 0.0
N229 N -0.01411 0.5251 0.94751 0.0
C230 C 0.41746 0.53932 0.14909 0.0
C231 C 0.43155 0.54995 0.13486 0.0
C232 C 0.43256 0.52353 0.16106 0.0
C233 C 0.46219 0.51896 0.15925 0.0
C234 C 0.46101 0.54522 0.13298 0.0
C235 C 0.47618 0.52999 0.14507 0.0
C236 C 0.47868 0.50124 0.17127 0.0
C237 C 0.44711 0.5743 0.20151 0.0
C238 C 0.42405 0.56742 0.2121 0.0
C239 C 0.46385 0.55308 0.19425 0.0
C240 C 0.45798 0.52447 0.19741 0.0
C241 C 0.41871 0.5387 0.21567 0.0
C242 C 0.43572 0.51736 0.20844 0.0
C243 C 0.47524 0.50231 0.18903 0.0
C244 C 0.57582 0.43495 0.21315 0.0
C245 C 0.56356 0.41189 0.22157 0.0
C246 C 0.55852 0.45358 0.20409 0.0
C247 C 0.52873 0.44954 0.20348 0.0
C248 C 0.53361 0.4087 0.2216 0.0
C249 C 0.51627 0.42762 0.21276 0.0
C250 C 0.51091 0.46664 0.19207 0.0
C251 C 0.55673 0.40215 0.15866 0.0
C252 C 0.57374 0.41446 0.14605 0.0
C253 C 0.53809 0.41889 0.16833 0.0
C254 C 0.53643 0.44827 0.16569 0.0
C255 C 0.5724 0.44398 0.14376 0.0
C256 C 0.55394 0.46063 0.15344 0.0
C257 C 0.51492 0.46615 0.17439 0.0
H258 H 0.39463 0.54245 0.15063 0.0
H259 H 0.42087 0.51437 0.17145 0.0
H260 H 0.47229 0.55332 0.1221 0.0
H261 H 0.49893 0.5267 0.14327 0.0
H262 H 0.45248 0.5962 0.19893 0.0
H263 H 0.4814 0.55902 0.18609 0.0
H264 H 0.40117 0.53272 0.22381 0.0
H265 H 0.43107 0.49533 0.21112 0.0
H266 H 0.59886 0.4377 0.21287 0.0
H267 H 0.56844 0.47053 0.19705 0.0
H268 H 0.52372 0.39108 0.22807 0.0
H269 H 0.4933 0.42426 0.21243 0.0
H270 H 0.55729 0.3795 0.16077 0.0
H271 H 0.52429 0.40869 0.1774 0.0
H272 H 0.58468 0.45414 0.13393 0.0
H273 H 0.55285 0.48321 0.15107 0.0
N274 N 0.49859 0.48338 0.16473 0.0
N275 N 0.49123 0.48472 0.1988 0.0
C276 C 0.46427 0.92719 0.40202 0.0
C277 C 0.44857 0.93926 0.38871 0.0
C278 C 0.48168 0.94417 0.41244 0.0
C279 C 0.4835 0.97357 0.40985 0.0
C280 C 0.45038 0.9687 0.3862 0.0
C281 C 0.46777 -0.01436 0.39662 0.0
C282 C 0.50296 -0.00838 0.42023 0.0
C283 C 0.43386 0.96299 0.45378 0.0
C284 C 0.44192 0.94608 0.46754 0.0
C285 C 0.45432 0.97759 0.44456 0.0
C286 C 0.48358 0.97472 0.44828 0.0
C287 C 0.47123 0.94389 0.47164 0.0
C288 C 0.49188 0.95813 0.46209 0.0
C289 C 0.50513 -0.01011 0.43804 0.0
C290 C 0.59029 0.08181 0.45578 0.0
C291 C 0.61239 0.06641 0.4635 0.0
C292 C 0.56769 0.06759 0.44766 0.0
C293 C 0.56676 0.03781 0.44732 0.0
C294 C 0.61098 0.03662 0.46352 0.0
C295 C 0.58815 0.02244 0.45563 0.0
C296 C 0.54424 0.02253 0.43774 0.0
C297 C 0.60301 0.05693 0.39641 0.0
C298 C 0.58902 0.07685 0.38614 0.0
C299 C 0.58759 0.04124 0.40823 0.0
C300 C 0.55797 0.0452 0.40992 0.0
C301 C 0.55963 0.08179 0.38864 0.0
C302 C 0.54423 0.06588 0.40026 0.0
C303 C 0.54051 0.02587 0.42018 0.0
H304 H 0.46329 0.90458 0.40427 0.0
H305 H 0.49413 0.93423 0.42232 0.0
H306 H 0.439 0.97856 0.37586 0.0
H307 H 0.46906 0.00821 0.39428 0.0
H308 H 0.41165 0.96492 0.44998 0.0
H309 H 0.44711 -0.00886 0.43443 0.0
H310 H 0.47821 0.93144 0.48231 0.0
H311 H 0.51431 0.95601 0.46541 0.0
H312 H 0.59101 0.10478 0.45556 0.0
H313 H 0.55117 0.07979 0.44142 0.0
H314 H 0.62772 0.02435 0.46949 0.0
H315 H 0.5877 -0.00055 0.45551 0.0
H316 H 0.62553 0.05234 0.3947 0.0
H317 H 0.59849 0.02506 0.41542 0.0
H318 H 0.5483 0.09737 0.38122 0.0
H319 H 0.52136 0.06924 0.40143 0.0
N320 N 0.52028 0.01004 0.41206 0.0
N321 N 0.52621 0.00489 0.44612 0.0
C322 C 0.09775 0.96723 0.66013 0.0
C323 C 0.08694 0.95115 0.6464 0.0
C324 C 0.07958 -0.01511 0.66953 0.0
C325 C 0.05035 -0.01331 0.66533 0.0
C326 C 0.0577 0.95313 0.64226 0.0
C327 C 0.03966 0.97083 0.65156 0.0
C328 C 0.03078 0.00565 0.67476 0.0
C329 C 0.05733 0.93615 0.7083 0.0
C330 C 0.0723 0.94449 0.72306 0.0
C331 C 0.04223 0.95587 0.69884 0.0
C332 C 0.04278 -0.01526 0.70336 0.0
C333 C 0.07163 0.97328 0.72806 0.0
C334 C 0.05701 -0.00678 0.71828 0.0
C335 C 0.02822 0.00583 0.69259 0.0
C336 C 0.92719 0.08487 0.70193 0.0
C337 C 0.93734 0.10216 0.71525 0.0
C338 C 0.94508 0.0647 0.69446 0.0
C339 C 0.97373 0.06215 0.6998 0.0
C340 C 0.96532 0.09824 0.7214 0.0
C341 C 0.98339 0.07837 0.71371 0.0
C342 C -0.00625 0.04298 0.6908 0.0
C343 C 0.97014 0.10788 0.65049 0.0
C344 C 0.95115 0.096 0.6384 0.0
C345 C -0.01582 0.0906 0.66215 0.0
C346 C 0.97974 0.06116 0.66178 0.0
C347 C 0.94611 0.06651 0.63859 0.0
C348 C 0.96063 0.04926 0.64997 0.0
C349 C -0.00395 0.04233 0.673 0.0
H350 H 0.12021 0.9662 0.66356 0.0
H351 H 0.08839 -0.00265 0.67993 0.0
H352 H 0.04887 0.9415 0.63153 0.0
H353 H 0.01725 0.97209 0.64802 0.0
H354 H 0.05758 0.91439 0.70377 0.0
H355 H 0.03043 0.94848 0.6878 0.0
H356 H 0.08237 0.98046 0.73952 0.0
H357 H 0.05722 0.01533 0.72221 0.0
H358 H 0.90554 0.08728 0.69716 0.0
H359 H 0.93662 0.05148 0.6843 0.0
H360 H 0.97361 0.11142 0.73164 0.0
H361 H 0.00525 0.07644 0.71821 0.0
H362 H 0.9749 0.13038 0.65062 0.0
H363 H -0.00089 0.10008 0.67113 0.0
H364 H 0.93108 0.0566 0.62986 0.0
H365 H 0.95687 0.02656 0.64958 0.0
N366 N 0.01437 0.02369 0.66568 0.0
N367 N 0.01005 0.02477 0.69997 0.0
C368 C 0.35847 0.65307 0.03405 0.0
O369 O 0.37872 0.65554 0.02351 0.0
Cd370 Cd 0.37251 0.66909 0.99476 0.0
O371 O 0.33285 0.65935 0.0299 0.0
Cd372 Cd 0.31012 0.67996 0.00417 0.0
C373 C 0.35353 0.73688 0.00311 0.0
O374 O 0.33035 0.64544 0.98451 0.0
O375 O 0.31276 0.68251 0.97289 0.0
O376 O 0.26688 0.65614 0.01404 0.0
C377 C 0.32253 0.65761 0.97111 0.0
O378 O 0.37065 0.72074 0.99507 0.0
C379 C 0.24968 0.67463 0.00846 0.0
O380 O 0.33081 0.72698 0.00967 0.0
O381 O 0.26064 0.69632 0.00163 0.0
C382 C 0.38573 0.83541 0.2249 0.0
O383 O 0.40688 0.83069 0.23463 0.0
Cd384 Cd 0.40385 0.81809 0.2636 0.0
O385 O 0.36007 0.83302 0.23022 0.0
Cd386 Cd 0.33657 0.81897 0.25732 0.0
C387 C 0.36892 0.75471 0.25761 0.0
O388 O 0.36768 0.84826 0.27486 0.0
O389 O 0.34013 0.82023 0.28865 0.0
O390 O 0.30005 0.85353 0.25038 0.0
C391 C 0.35804 0.84051 0.28899 0.0
O392 O 0.39123 0.7682 0.26242 0.0
C393 C 0.27878 0.838 0.25407 0.0
O394 O 0.34602 0.76795 0.2539 0.0
O395 O 0.28428 0.81279 0.25854 0.0
C396 C 0.18114 0.89143 0.4833 0.0
O397 O 0.18629 0.91152 0.49374 0.0
Cd398 Cd 0.20231 0.90568 0.52222 0.0
O399 O 0.18402 0.86563 0.48768 0.0
Cd400 Cd 0.19752 0.84018 0.51406 0.0
C401 C 0.26385 0.86866 0.5145 0.0
O402 O 0.17106 0.87063 0.5331 0.0
O403 O 0.20023 0.84249 0.5456 0.0
O404 O 0.15945 0.80643 0.50779 0.0
C405 C 0.1802 0.86051 0.54682 0.0
O406 O 0.25219 0.8907 0.52084 0.0
C407 C 0.17437 0.78431 0.50994 0.0
O408 O 0.24878 0.84764 0.5094 0.0
O409 O 0.20079 0.78804 0.51327 0.0
C410 C 0.1358 0.66923 0.7839 0.0
O411 O 0.13216 0.65001 0.7727 0.0
Cd412 Cd 0.15293 0.65101 0.74549 0.0
O413 O 0.14999 0.69167 0.78055 0.0
Cd414 Cd 0.17359 0.71273 0.75506 0.0
C415 C 0.22383 0.66231 0.75704 0.0
O416 O 0.13853 0.69568 0.7345 0.0
O417 O 0.1785 0.70935 0.72392 0.0
O418 O 0.15155 0.7562 0.76554 0.0
C419 C 0.15282 0.70151 0.72145 0.0
O420 O 0.2043 0.64598 0.75114 0.0
C421 C 0.17093 0.77271 0.76024 0.0
O422 O 0.2186 0.68828 0.76038 0.0
O423 O 0.19252 0.76127 0.75327 0.0
C424 C 0.88101 0.16285 0.47614 0.0
O425 O 0.88375 0.14363 0.48714 0.0
Cd426 Cd 0.8641 0.14661 0.51477 0.0
O427 O 0.86839 0.18609 0.47978 0.0
Cd428 Cd 0.84673 0.2081 0.50571 0.0
C429 C 0.79384 0.1601 0.50417 0.0
O430 O 0.88149 0.19063 0.52601 0.0
O431 O 0.84163 0.20422 0.53682 0.0
O432 O 0.86983 0.2516 0.49645 0.0
C433 C 0.86734 0.19661 0.53916 0.0
O434 O 0.81195 0.14348 0.51094 0.0
C435 C 0.8502 0.26806 0.50162 0.0
O436 O 0.80118 0.18492 0.4997 0.0
O437 O 0.82815 0.25655 0.50794 0.0
C438 C 0.8539 0.3713 0.72056 0.0
O439 O 0.87538 0.37121 0.73048 0.0
Cd440 Cd 0.87522 0.35734 0.75927 0.0
O441 O 0.8293 0.36314 0.72559 0.0
Cd442 Cd 0.80907 0.34353 0.7524 0.0
C443 C 0.85519 0.28808 0.75215 0.0
O444 O 0.833 0.37847 0.77048 0.0
O445 O 0.8111 0.34544 0.78372 0.0
O446 O 0.76551 0.36695 0.74265 0.0
C447 C 0.82499 0.36854 0.78446 0.0
O448 O 0.87397 0.30599 0.75715 0.0
C449 C 0.74844 0.34894 0.7489 0.0
O450 O 0.8298 0.296 0.74862 0.0
O451 O 0.75956 0.32758 0.756 0.0
C452 C 0.6414 0.36577 0.977 0.0
O453 O 0.64265 0.38597 0.98777 0.0
Cd454 Cd 0.66253 0.38303 0.01558 0.0
O455 O 0.65042 0.34109 0.98075 0.0
Cd456 Cd 0.67116 0.31773 0.0062 0.0
C457 C 0.72985 0.3598 0.00506 0.0
O458 O 0.64172 0.34162 0.02701 0.0
O459 O 0.6769 0.3182 0.0375 0.0
O460 O 0.63969 0.27777 0.00056 0.0
C461 C 0.65443 0.33265 0.04004 0.0
O462 O 0.71408 0.37884 0.01173 0.0
C463 C 0.65888 0.25883 0.00147 0.0
O464 O 0.71945 0.33584 0.00053 0.0
O465 O 0.6845 0.26737 0.00372 0.0
C466 C 0.68314 0.13866 0.27892 0.0
O467 O 0.68667 0.11824 0.26852 0.0
Cd468 Cd 0.70072 0.1242 0.23983 0.0
O469 O 0.68713 0.1642 0.27431 0.0
Cd470 Cd 0.70205 0.18867 0.24791 0.0
C471 C 0.76564 0.15564 0.24771 0.0
O472 O 0.67161 0.16126 0.22874 0.0
O473 O 0.70526 0.18475 0.21671 0.0
O474 O 0.66867 0.22507 0.25728 0.0
C475 C 0.68243 0.1703 0.21519 0.0
O476 O 0.75182 0.13486 0.24118 0.0
C477 C 0.68331 0.24594 0.25215 0.0
O478 O 0.7526 0.17778 0.25288 0.0
O479 O 0.70755 0.24035 0.2457 0.0
C480 C 0.15371 0.91524 0.29667 0.0
C481 C 0.13021 0.92461 0.28716 0.0
C482 C 0.175 0.89834 0.28934 0.0
C483 C 0.17256 0.89015 0.2721 0.0
C484 C 0.14802 0.89802 0.26268 0.0
C485 C 0.12715 0.91534 0.2703 0.0
C486 C 0.20079 0.89039 0.29988 0.0
C487 C 0.14442 0.88923 0.24437 0.0
C488 C 0.24546 0.87911 0.25272 0.0
C489 C 0.24958 0.84999 0.25518 0.0
C490 C 0.21955 0.89218 0.25705 0.0
C491 C 0.19709 0.87564 0.26382 0.0
C492 C 0.2002 0.84584 0.26489 0.0
C493 C 0.22653 0.83335 0.26066 0.0
C494 C 0.21717 0.92403 0.25573 0.0
C495 C 0.17647 0.82741 0.27164 0.0
H496 H 0.1558 0.92168 0.30983 0.0
H497 H 0.10904 0.92249 0.26288 0.0
H498 H 0.2039 0.86707 0.29956 0.0
H499 H 0.22034 0.90023 0.29453 0.0
H500 H 0.19879 0.89743 0.31328 0.0
H501 H 0.12233 0.89312 0.23967 0.0
H502 H 0.15957 0.90143 0.23648 0.0
H503 H 0.14949 0.8664 0.2426 0.0
H504 H 0.26308 0.89211 0.24836 0.0
H505 H 0.22946 0.81076 0.26242 0.0
H506 H 0.21714 0.93366 0.26861 0.0
H507 H 0.19676 0.92994 0.24948 0.0
H508 H 0.2352 0.93337 0.24853 0.0
H509 H 0.17531 0.83011 0.28558 0.0
H510 H 0.18008 0.80458 0.26871 0.0
H511 H 0.15545 0.83377 0.26631 0.0
C512 C 0.10449 0.64835 0.54643 0.0
C513 C 0.09092 0.62937 0.5352 0.0
C514 C 0.11944 0.672 0.54049 0.0
C515 C 0.12131 0.67647 0.52285 0.0
C516 C 0.1086 0.65672 0.5114 0.0
C517 C 0.09317 0.63354 0.51774 0.0
C518 C 0.13219 0.69282 0.55314 0.0
C519 C 0.11073 0.66045 0.49252 0.0
C520 C 0.13092 0.75363 0.51142 0.0
C521 C 0.16082 0.7559 0.51042 0.0
C522 C 0.11767 0.72756 0.51468 0.0
C523 C 0.13471 0.70301 0.51663 0.0
C524 C 0.16474 0.70477 0.51444 0.0
C525 C 0.17752 0.7313 0.51153 0.0
C526 C 0.08561 0.72671 0.51716 0.0
C527 C 0.18352 0.67891 0.51601 0.0
H528 H 0.10245 0.64528 0.55995 0.0
H529 H 0.08276 0.61872 0.50907 0.0
H530 H 0.15537 0.69578 0.55069 0.0
H531 H 0.12178 0.71382 0.55177 0.0
H532 H 0.12951 0.68579 0.56641 0.0
H533 H 0.10236 0.64172 0.48537 0.0
H534 H 0.09835 0.67939 0.48868 0.0
H535 H 0.13334 0.66413 0.48885 0.0
H536 H 0.11786 0.77255 0.51058 0.0
H537 H 0.20063 0.73288 0.51063 0.0
H538 H 0.08084 0.72183 0.53055 0.0
H539 H 0.07582 0.70965 0.50924 0.0
H540 H 0.07524 0.74716 0.51398 0.0
H541 H 0.18468 0.67251 0.52945 0.0
H542 H 0.20564 0.68294 0.5115 0.0
H543 H 0.17429 0.66079 0.5087 0.0
C544 C 0.37763 0.5894 0.77011 0.0
C545 C 0.38339 0.58802 0.78748 0.0
C546 C 0.35307 0.60326 0.76412 0.0
C547 C 0.33357 0.61529 0.77583 0.0
C548 C 0.33955 0.6142 0.79339 0.0
C549 C 0.36455 0.6008 0.79899 0.0
C550 C 0.34768 0.60454 0.7453 0.0
C551 C 0.31902 0.62622 0.80631 0.0
C552 C 0.27644 0.66807 0.76271 0.0
C553 C 0.25238 0.65038 0.76087 0.0
C554 C 0.30332 0.65683 0.767 0.0
C555 C 0.30596 0.62735 0.76989 0.0
C556 C 0.28179 0.6094 0.76789 0.0
C557 C 0.25539 0.62109 0.76323 0.0
C558 C 0.32879 0.67651 0.76868 0.0
C559 C 0.28359 0.57794 0.77119 0.0
H560 H 0.39235 0.57962 0.76124 0.0
H561 H 0.36891 0.59942 0.81244 0.0
H562 H 0.32844 0.59176 0.74194 0.0
H563 H 0.34334 0.62672 0.74152 0.0
H564 H 0.3661 0.59638 0.73787 0.0
H565 H 0.3273 0.62441 0.81945 0.0
H566 H 0.31477 0.64891 0.80374 0.0
H567 H 0.29822 0.61482 0.80539 0.0
H568 H 0.27427 0.6907 0.76078 0.0
H569 H 0.23684 0.60732 0.76194 0.0
H570 H 0.34675 0.66853 0.76082 0.0
H571 H 0.33639 0.67711 0.782 0.0
H572 H 0.32363 0.6985 0.7648 0.0
H573 H 0.30017 0.56809 0.76304 0.0
H574 H 0.26289 0.56686 0.76881 0.0
H575 H 0.29008 0.57443 0.78453 0.0
C576 C 0.45383 0.85534 0.03515 0.0
C577 C 0.4447 0.88368 0.0359 0.0
C578 C 0.43594 0.83382 0.02875 0.0
C579 C 0.40853 0.84083 0.02234 0.0
C580 C 0.39957 0.86948 0.02231 0.0
C581 C 0.4176 0.89054 0.02931 0.0
C582 C 0.44623 0.80346 0.02918 0.0
C583 C 0.37082 0.87781 0.01514 0.0
C584 C 0.3794 0.78095 0.99503 0.0
C585 C 0.3624 0.76641 0.00665 0.0
C586 C 0.39251 0.80682 0.99948 0.0
C587 C 0.3893 0.81776 0.01612 0.0
C588 C 0.3707 0.80403 0.02754 0.0
C589 C 0.3571 0.77866 0.02256 0.0
C590 C 0.41132 0.8214 0.98675 0.0
C591 C 0.36715 0.81467 0.0455 0.0
H592 H 0.475 0.84983 0.03969 0.0
H593 H 0.41014 0.91226 0.02994 0.0
H594 H 0.43094 0.79028 0.03642 0.0
H595 H 0.44715 0.79452 0.01615 0.0
H596 H 0.46779 0.80153 0.03507 0.0
H597 H 0.36828 0.90121 0.0145 0.0
H598 H 0.36797 0.86863 0.00224 0.0
H599 H 0.35346 0.86916 0.02311 0.0
H600 H 0.38325 0.7716 0.98266 0.0
H601 H 0.34408 0.76732 0.03158 0.0
H602 H 0.43415 0.81783 0.99001 0.0
H603 H 0.40761 0.84465 0.98699 0.0
H604 H 0.40746 0.8132 0.97369 0.0
H605 H 0.38739 0.81128 0.05262 0.0
H606 H 0.34956 0.80353 0.05214 0.0
H607 H 0.36274 0.83777 0.04576 0.0
C608 C 0.088 0.62412 0.98851 0.0
C609 C 0.09324 0.59869 0.97958 0.0
C610 C 0.11044 0.63917 0.99652 0.0
C611 C 0.13887 0.62913 0.99498 0.0
C612 C 0.1441 0.60297 0.98659 0.0
C613 C 0.12119 0.58779 0.97942 0.0
C614 C 0.10379 0.6663 0.00603 0.0
C615 C 0.17413 0.59158 0.98443 0.0
C616 C 0.20335 0.67744 0.99311 0.0
C617 C 0.2187 0.66877 0.0074 0.0
C618 C 0.17615 0.66618 0.98947 0.0
C619 C 0.16366 0.64665 0.00077 0.0
C620 C 0.17774 0.64043 0.01618 0.0
C621 C 0.20548 0.65104 0.01914 0.0
C622 C 0.1622 0.67296 0.97273 0.0
C623 C 0.16441 0.62098 0.02898 0.0
H624 H 0.06658 0.63286 0.9888 0.0
H625 H 0.12542 0.56761 0.97323 0.0
H626 H 0.11724 0.66842 0.0176 0.0
H627 H 0.10845 0.68471 0.99788 0.0
H628 H 0.08087 0.66732 0.0097 0.0
H629 H 0.17452 0.57116 0.97726 0.0
H630 H 0.18747 0.60721 0.97761 0.0
H631 H 0.18425 0.58824 0.99696 0.0
H632 H 0.21361 0.69108 0.98398 0.0
H633 H 0.21724 0.6446 0.03031 0.0
H634 H 0.13955 0.67921 0.97457 0.0
H635 H 0.16229 0.65374 0.96447 0.0
H636 H 0.17347 0.69032 0.96606 0.0
H637 H 0.14113 0.62521 0.03021 0.0
H638 H 0.17472 0.62342 0.04162 0.0
H639 H 0.16692 0.59861 0.02474 0.0
C640 C 0.39995 0.61449 0.20996 0.0
C641 C 0.40649 0.59056 0.21961 0.0
C642 C 0.38844 0.63891 0.21749 0.0
C643 C 0.3826 0.63917 0.23504 0.0
C644 C 0.38623 0.61409 0.24448 0.0
C645 C 0.39846 0.59009 0.23668 0.0
C646 C 0.38493 0.66518 0.20693 0.0
C647 C 0.37921 0.61322 0.26307 0.0
C648 C 0.39806 0.71073 0.255 0.0
C649 C 0.37107 0.7237 0.25453 0.0
C650 C 0.40174 0.68265 0.24953 0.0
C651 C 0.37772 0.66682 0.24377 0.0
C652 C 0.35004 0.67894 0.24454 0.0
C653 C 0.34705 0.70744 0.24972 0.0
C654 C 0.43172 0.67066 0.2488 0.0
C655 C 0.32379 0.66239 0.23908 0.0
H656 H 0.40516 0.61464 0.19662 0.0
H657 H 0.40321 0.57162 0.24422 0.0
H658 H 0.36337 0.67447 0.20876 0.0
H659 H 0.4009 0.6814 0.21102 0.0
H660 H 0.38799 0.66074 0.19322 0.0
H661 H 0.37706 0.59108 0.26758 0.0
H662 H 0.39659 0.62376 0.27045 0.0
H663 H 0.35904 0.62479 0.26575 0.0
H664 H 0.41676 0.72297 0.25881 0.0
H665 H 0.32605 0.71718 0.24952 0.0
H666 H 0.43771 0.66655 0.23542 0.0
H667 H 0.43271 0.65014 0.25548 0.0
H668 H 0.44789 0.68526 0.25455 0.0
H669 H 0.32236 0.66198 0.22507 0.0
H670 H 0.30386 0.67211 0.24408 0.0
H671 H 0.32503 0.64009 0.24337 0.0
C672 C 0.39277 0.94395 0.47991 0.0
C673 C 0.4195 0.9311 0.47741 0.0
C674 C 0.37014 0.92929 0.48739 0.0
C675 C 0.37458 0.90138 0.49325 0.0
C676 C 0.40198 0.88882 0.4918 0.0
C677 C 0.42404 0.90367 0.48364 0.0
C678 C 0.3412 0.94349 0.48854 0.0
C679 C 0.40782 0.85951 0.49843 0.0
C680 C 0.31352 0.88337 0.52214 0.0
C681 C 0.29469 0.86979 0.51079 0.0
C682 C 0.34134 0.89075 0.51718 0.0
C683 C 0.34988 0.88552 0.50028 0.0
C684 C 0.33174 0.86969 0.48923 0.0
C685 C 0.30442 0.8616 0.49474 0.0
C686 C 0.36059 0.90636 0.52958 0.0
C687 C 0.33979 0.86406 0.47103 0.0
H688 H 0.38927 0.96549 0.47575 0.0
H689 H 0.44455 0.89344 0.48176 0.0
H690 H 0.32474 0.93023 0.48201 0.0
H691 H 0.33474 0.94572 0.50196 0.0
H692 H 0.34113 0.96489 0.48279 0.0
H693 H 0.43115 0.85518 0.4994 0.0
H694 H 0.39803 0.85676 0.51108 0.0
H695 H 0.39813 0.84342 0.48978 0.0
H696 H 0.30603 0.88942 0.53463 0.0
H697 H 0.28976 0.8512 0.48595 0.0
H698 H 0.3601 0.92941 0.52691 0.0
H699 H 0.38309 0.89914 0.52831 0.0
H700 H 0.35361 0.90328 0.54285 0.0
H701 H 0.33875 0.88421 0.46393 0.0
H702 H 0.32519 0.84842 0.4648 0.0
H703 H 0.36205 0.85609 0.47014 0.0
C704 C 0.11517 0.93007 0.74056 0.0
C705 C 0.08889 0.92306 0.73278 0.0
C706 C 0.13212 0.90916 0.74822 0.0
C707 C 0.12313 0.88046 0.74744 0.0
C708 C 0.09621 0.87344 0.74017 0.0
C709 C 0.07918 0.89487 0.73337 0.0
C710 C 0.16006 0.91776 0.75652 0.0
C711 C 0.08584 0.84305 0.73885 0.0
C712 C 0.17329 0.81803 0.74477 0.0
C713 C 0.16576 0.80347 0.75943 0.0
C714 C 0.1613 0.84458 0.74126 0.0
C715 C 0.14224 0.85716 0.75302 0.0
C716 C 0.13759 0.84411 0.76881 0.0
C717 C 0.14885 0.817 0.77167 0.0
C718 C 0.16652 0.85751 0.72416 0.0
C719 C 0.11884 0.85769 0.7821 0.0
H720 H 0.12307 0.95169 0.74022 0.0
H721 H 0.05843 0.88929 0.72808 0.0
H722 H 0.1645 0.90481 0.76787 0.0
H723 H 0.17784 0.91444 0.74748 0.0
H724 H 0.16 0.94054 0.76032 0.0
H725 H 0.06478 0.84115 0.73232 0.0
H726 H 0.10165 0.83001 0.73178 0.0
H727 H 0.08379 0.8339 0.75164 0.0
H728 H 0.18629 0.8075 0.73527 0.0
H729 H 0.1433 0.80583 0.78311 0.0
H730 H 0.17218 0.88028 0.72553 0.0
H731 H 0.14659 0.85611 0.71646 0.0
H732 H 0.18393 0.84656 0.71715 0.0
H733 H 0.12272 0.88093 0.78286 0.0
H734 H 0.12263 0.84842 0.79476 0.0
H735 H 0.09599 0.85433 0.77869 0.0
C736 C 0.58904 0.40266 0.77048 0.0
C737 C 0.59527 0.42861 0.77868 0.0
C738 C 0.61072 0.38677 0.76253 0.0
C739 C 0.6394 0.39652 0.76339 0.0
C740 C 0.64562 0.42314 0.77107 0.0
C741 C 0.62344 0.4391 0.7782 0.0
C742 C 0.60299 0.35912 0.75379 0.0
C743 C 0.67597 0.43427 0.7725 0.0
C744 C 0.7032 0.34762 0.76515 0.0
C745 C 0.71764 0.35518 0.75039 0.0
C746 C 0.67647 0.35942 0.76904 0.0
C747 C 0.66351 0.37839 0.75756 0.0
C748 C 0.67657 0.38347 0.74175 0.0
C749 C 0.70389 0.37233 0.73851 0.0
C750 C 0.66363 0.35387 0.78619 0.0
C751 C 0.66267 0.40228 0.72879 0.0
H752 H 0.56744 0.39421 0.77071 0.0
H753 H 0.62842 0.45962 0.78382 0.0
H754 H 0.61552 0.35617 0.74201 0.0
H755 H 0.60807 0.34121 0.76225 0.0
H756 H 0.5798 0.35802 0.75062 0.0
H757 H 0.67718 0.45511 0.7792 0.0
H758 H 0.68947 0.41891 0.77945 0.0
H759 H 0.68533 0.4367 0.75974 0.0
H760 H 0.71388 0.33445 0.77438 0.0
H761 H 0.71494 0.37793 0.72699 0.0
H762 H 0.64075 0.34788 0.78492 0.0
H763 H 0.66473 0.37356 0.79402 0.0
H764 H 0.67504 0.33676 0.79301 0.0
H765 H 0.63926 0.3982 0.72805 0.0
H766 H 0.67207 0.399 0.71603 0.0
H767 H 0.6658 0.42485 0.73251 0.0
C768 C 0.62155 0.11237 0.03925 0.0
C769 C 0.60879 0.09186 0.02867 0.0
C770 C 0.63173 0.13797 0.03273 0.0
C771 C 0.6296 0.14289 0.01513 0.0
C772 C 0.61816 0.12155 0.00425 0.0
C773 C 0.60744 0.09638 0.0112 0.0
C774 C 0.64323 0.16036 0.04483 0.0
C775 C 0.61629 0.12573 0.98538 0.0
C776 C 0.6225 0.2206 0.00464 0.0
C777 C 0.65111 0.2284 0.00196 0.0
C778 C 0.61503 0.19248 0.00813 0.0
C779 C 0.63663 0.17149 0.00857 0.0
C780 C 0.66524 0.17881 0.0046 0.0
C781 C 0.67224 0.20732 0.00154 0.0
C782 C 0.58433 0.18569 0.01255 0.0
C783 C 0.68868 0.15684 0.00445 0.0
H784 H 0.62228 0.10896 0.05279 0.0
H785 H 0.59768 0.08038 0.00303 0.0
H786 H 0.66485 0.16735 0.04086 0.0
H787 H 0.62909 0.17925 0.04461 0.0
H788 H 0.6446 0.15267 0.05804 0.0
H789 H 0.61082 0.10571 0.97851 0.0
H790 H 0.59959 0.14168 0.98252 0.0
H791 H 0.6369 0.13397 0.98048 0.0
H792 H 0.60604 0.23677 0.00497 0.0
H793 H 0.69436 0.2132 0.99933 0.0
H794 H 0.5831 0.1795 0.02603 0.0
H795 H 0.57639 0.16747 0.00484 0.0
H796 H 0.56983 0.204 0.01055 0.0
H797 H 0.69385 0.15071 0.01761 0.0
H798 H 0.70855 0.16488 0.99847 0.0
H799 H 0.68151 0.13738 0.99757 0.0
C800 C 0.92978 0.12017 0.27236 0.0
C801 C 0.92644 0.09677 0.28296 0.0
C802 C 0.90579 0.13373 0.26535 0.0
C803 C 0.87797 0.12382 0.26928 0.0
C804 C 0.87458 0.10058 0.28028 0.0
C805 C 0.89886 0.08727 0.28691 0.0
C806 C 0.91017 0.15824 0.25353 0.0
C807 C 0.84528 0.08956 0.28498 0.0
C808 C 0.80974 0.16632 0.26473 0.0
C809 C 0.7966 0.15216 0.25104 0.0
C810 C 0.83731 0.1587 0.27018 0.0
C811 C 0.85211 0.13675 0.26154 0.0
C812 C 0.83995 0.12425 0.24679 0.0
C813 C 0.81223 0.13194 0.2418 0.0
C814 C 0.8495 0.17246 0.28601 0.0
C815 C 0.85526 0.10117 0.23703 0.0
H816 H 0.95116 0.12748 0.2693 0.0
H817 H 0.89627 0.06949 0.29535 0.0
H818 H 0.90173 0.15255 0.24078 0.0
H819 H 0.89805 0.17705 0.25803 0.0
H820 H 0.93312 0.16418 0.25235 0.0
H821 H 0.84639 0.07207 0.29425 0.0
H822 H 0.83221 0.10697 0.29047 0.0
H823 H 0.83394 0.08162 0.27348 0.0
H824 H 0.79775 0.18197 0.27192 0.0
H825 H 0.8023 0.12122 0.23105 0.0
H826 H 0.87239 0.17803 0.28428 0.0
H827 H 0.8483 0.15724 0.29658 0.0
H828 H 0.83758 0.19193 0.28969 0.0
H829 H 0.878 0.10704 0.23499 0.0
H830 H 0.84501 0.09679 0.22455 0.0
H831 H 0.85501 0.08131 0.24443 0.0
C832 C 0.93387 0.396 0.53324 0.0
C833 C 0.92359 0.42388 0.53214 0.0
C834 C 0.91874 0.37314 0.52607 0.0
C835 C 0.89325 0.37826 0.51684 0.0
C836 C 0.88366 0.40644 0.51466 0.0
C837 C 0.89865 0.4289 0.5226 0.0
C838 C 0.92963 0.34337 0.52888 0.0
C839 C 0.85718 0.41285 0.50438 0.0
C840 C 0.87415 0.3122 0.49176 0.0
C841 C 0.85519 0.29892 0.50286 0.0
C842 C 0.88432 0.33975 0.49518 0.0
C843 C 0.87625 0.35366 0.51039 0.0
C844 C 0.85536 0.34118 0.52091 0.0
C845 C 0.8447 0.31408 0.51684 0.0
C846 C 0.90544 0.35297 0.4832 0.0
C847 C 0.84654 0.355 0.53741 0.0
H848 H 0.95365 0.39186 0.53998 0.0
H849 H 0.89033 0.45025 0.52167 0.0
H850 H 0.91292 0.33052 0.53519 0.0
H851 H 0.93437 0.33292 0.51658 0.0
H852 H 0.94935 0.34304 0.5368 0.0
H853 H 0.85595 0.43565 0.50106 0.0
H854 H 0.85668 0.39992 0.49255 0.0
H855 H 0.83783 0.40737 0.51175 0.0
H856 H 0.88202 0.30058 0.48082 0.0
H857 H 0.83011 0.30377 0.52547 0.0
H858 H 0.92745 0.35076 0.48836 0.0
H859 H 0.90113 0.37597 0.48178 0.0
H860 H 0.9047 0.34258 0.47051 0.0
H861 H 0.86473 0.35426 0.5465 0.0
H862 H 0.82784 0.3442 0.54315 0.0
H863 H 0.84114 0.37763 0.53554 0.0
C864 C 0.63434 0.10346 0.4825 0.0
C865 C 0.63764 0.08128 0.47072 0.0
C866 C 0.65833 0.11778 0.48925 0.0
C867 C 0.68608 0.11005 0.48376 0.0
C868 C 0.68942 0.08778 0.47174 0.0
C869 C 0.66515 0.07349 0.46549 0.0
C870 C 0.65401 0.14105 0.50228 0.0
C871 C 0.71862 0.07923 0.46534 0.0
C872 C 0.74858 0.16144 0.4872 0.0
C873 C 0.76465 0.1495 0.50033 0.0
C874 C 0.72239 0.14938 0.48203 0.0
C875 C 0.71182 0.12517 0.49042 0.0
C876 C 0.72717 0.11401 0.50431 0.0
C877 C 0.75358 0.12613 0.50898 0.0
C878 C 0.70685 0.16162 0.467 0.0
C879 C 0.71627 0.08859 0.5138 0.0
H880 H 0.61301 0.10934 0.48658 0.0
H881 H 0.66761 0.05655 0.45621 0.0
H882 H 0.66598 0.13601 0.51402 0.0
H883 H 0.66268 0.16138 0.49753 0.0
H884 H 0.63107 0.14406 0.50547 0.0
H885 H 0.71743 0.06185 0.45573 0.0
H886 H 0.72946 0.09776 0.45963 0.0
H887 H 0.7322 0.0721 0.47602 0.0
H888 H 0.75709 0.17944 0.48043 0.0
H889 H 0.7658 0.117 0.51926 0.0
H890 H 0.68413 0.16583 0.47016 0.0
H891 H 0.70698 0.14601 0.45637 0.0
H892 H 0.71683 0.18165 0.46263 0.0
H893 H 0.69356 0.09173 0.51744 0.0
H894 H 0.72907 0.08449 0.5254 0.0
H895 H 0.71713 0.06946 0.50551 0.0
C896 C 0.90922 0.14601 0.71035 0.0
C897 C 0.91977 0.12592 0.72169 0.0
C898 C 0.89559 0.17064 0.71622 0.0
C899 C 0.89197 0.17496 0.73384 0.0
C900 C 0.90104 0.15387 0.74528 0.0
C901 C 0.91526 0.12971 0.73907 0.0
C902 C 0.88679 0.19286 0.70362 0.0
C903 C 0.89692 0.15741 0.76411 0.0
C904 C 0.89333 0.25179 0.74821 0.0
C905 C 0.86407 0.25832 0.74908 0.0
C906 C 0.90259 0.22453 0.74369 0.0
C907 C 0.8821 0.20301 0.74026 0.0
C908 C 0.85253 0.20902 0.74186 0.0
C909 C 0.84381 0.23675 0.74608 0.0
C910 C 0.93434 0.21915 0.74187 0.0
C911 C 0.83014 0.18637 0.73868 0.0
H912 H 0.91297 0.14313 0.69691 0.0
H913 H 0.92327 0.114 0.74779 0.0
H914 H 0.86421 0.1992 0.70566 0.0
H915 H 0.90025 0.21212 0.70546 0.0
H916 H 0.88914 0.18531 0.69033 0.0
H917 H 0.90117 0.13743 0.77099 0.0
H918 H 0.91172 0.17403 0.76907 0.0
H919 H 0.87477 0.16446 0.7669 0.0
H920 H 0.90917 0.26829 0.75046 0.0
H921 H 0.82117 0.24159 0.74685 0.0
H922 H 0.9392 0.21316 0.72857 0.0
H923 H 0.94094 0.20118 0.74992 0.0
H924 H 0.94748 0.23801 0.74542 0.0
H925 H 0.82985 0.18038 0.72507 0.0
H926 H 0.80835 0.19358 0.7423 0.0
H927 H 0.83542 0.16698 0.74588 0.0
C928 C 0.85468 0.44473 0.96676 0.0
C929 C 0.88302 0.43714 0.9703 0.0
C930 C 0.83174 0.42863 0.97279 0.0
C931 C 0.83729 0.4046 0.98286 0.0
C932 C 0.86593 0.39661 0.98633 0.0
C933 C 0.88855 0.41289 0.97985 0.0
C934 C 0.80152 0.43761 0.96855 0.0
C935 C 0.87262 0.37137 0.99721 0.0
C936 C 0.77403 0.38817 0.01069 0.0
C937 C 0.75986 0.3671 0.00115 0.0
C938 C 0.80053 0.399 0.00555 0.0
C939 C 0.81284 0.38892 0.99031 0.0
C940 C 0.79951 0.36639 0.98118 0.0
C941 C 0.77323 0.35553 0.98682 0.0
C942 C 0.81436 0.42257 0.01585 0.0
C943 C 0.81182 0.35527 0.96478 0.0
H944 H 0.85048 0.46325 0.95913 0.0
H945 H 0.91053 0.40709 0.98257 0.0
H946 H 0.78955 0.41963 0.96267 0.0
H947 H 0.79011 0.44376 0.98031 0.0
H948 H 0.80096 0.45583 0.95977 0.0
H949 H 0.89598 0.36712 0.998 0.0
H950 H 0.86443 0.37518 0.01019 0.0
H951 H 0.86165 0.35213 0.99216 0.0
H952 H 0.76389 0.39691 0.02191 0.0
H953 H 0.76228 0.33929 0.97938 0.0
H954 H 0.8123 0.44288 0.009 0.0
H955 H 0.83756 0.41844 0.01762 0.0
H956 H 0.80431 0.42517 0.02848 0.0
H957 H 0.80894 0.37141 0.95481 0.0
H958 H 0.80119 0.3353 0.96049 0.0
H959 H 0.83513 0.3514 0.9661 0.0
C960 C 0.60415 0.39659 0.24019 0.0
C961 C 0.58209 0.38966 0.22877 0.0
C962 C 0.62268 0.37555 0.24629 0.0
C963 C 0.6194 0.3472 0.24042 0.0
C964 C 0.59707 0.3402 0.22889 0.0
C965 C 0.57853 0.36149 0.22334 0.0
C966 C 0.64582 0.38363 0.25887 0.0
C967 C 0.59313 0.31033 0.22208 0.0
C968 C 0.67992 0.29394 0.23941 0.0
C969 C 0.67089 0.2747 0.25168 0.0
C970 C 0.66429 0.31874 0.23628 0.0
C971 C 0.63947 0.32463 0.24591 0.0
C972 C 0.63181 0.30654 0.25933 0.0
C973 C 0.64742 0.28156 0.26192 0.0
C974 C 0.67295 0.33726 0.2217 0.0
C975 C 0.60598 0.31251 0.27019 0.0
H976 H 0.60682 0.41844 0.24437 0.0
H977 H 0.56171 0.35627 0.2143 0.0
H978 H 0.64423 0.37016 0.27024 0.0
H979 H 0.6672 0.37981 0.25325 0.0
H980 H 0.64449 0.40627 0.26287 0.0
H981 H 0.57493 0.30856 0.21301 0.0
H982 H 0.61293 0.30326 0.21558 0.0
H983 H 0.58925 0.29555 0.23264 0.0
H984 H 0.698 0.28866 0.23144 0.0
H985 H 0.64055 0.26684 0.27153 0.0
H986 H 0.67296 0.35996 0.22556 0.0
H987 H 0.65715 0.33467 0.21125 0.0
H988 H 0.6945 0.33173 0.21679 0.0
H989 H 0.60543 0.3352 0.2741 0.0
H990 H 0.60571 0.29922 0.2817 0.0
H991 H 0.58618 0.30802 0.26279 0.0
C992 C 0.1464 0.94734 0.39061 0.0
C993 C 0.11736 0.94343 0.38663 0.0
C994 C 0.15832 0.93552 0.40525 0.0
C995 C 0.14058 0.91997 0.4163 0.0
C996 C 0.11157 0.91481 0.41189 0.0
C997 C 0.10036 0.92646 0.39702 0.0
C998 C 0.18948 0.941 0.40934 0.0
C999 C 0.09184 0.89869 0.42344 0.0
C1000 C 0.17299 0.87852 0.45272 0.0
C1001 C 0.17101 0.89833 0.46606 0.0
C1002 C 0.16352 0.88529 0.43634 0.0
C1003 C 0.15131 0.91226 0.43338 0.0
C1004 C 0.14905 0.93219 0.44685 0.0
C1005 C 0.15915 0.92508 0.46296 0.0
C1006 C 0.16671 0.86373 0.42221 0.0
C1007 C 0.13573 0.96102 0.44429 0.0
H1008 H 0.15959 0.96028 0.38248 0.0
H1009 H 0.07783 0.92364 0.39402 0.0
H1010 H 0.19117 0.95624 0.42011 0.0
H1011 H 0.20017 0.9211 0.41322 0.0
H1012 H 0.20119 0.94996 0.39842 0.0
H1013 H 0.07083 0.89393 0.41736 0.0
H1014 H 0.10181 0.87846 0.42735 0.0
H1015 H 0.08803 0.91147 0.43509 0.0
H1016 H 0.18228 0.85787 0.45503 0.0
H1017 H 0.15734 0.94042 0.47322 0.0
H1018 H 0.1797 0.87284 0.41187 0.0
H1019 H 0.1454 0.85832 0.41678 0.0
H1020 H 0.17709 0.8439 0.42653 0.0
H1021 H 0.14806 0.973 0.43477 0.0
H1022 H 0.13504 0.97382 0.45618 0.0
H1023 H 0.11356 0.95854 0.43936 0.0
C1024 C 0.08957 0.65066 0.63065 0.0
C1025 C 0.08267 0.62193 0.63298 0.0
C1026 C 0.10209 0.66698 0.64375 0.0
C1027 C 0.10832 0.65413 0.65943 0.0
C1028 C 0.10211 0.62503 0.66171 0.0
C1029 C 0.08905 0.60946 0.64859 0.0
C1030 C 0.10802 0.69808 0.64098 0.0
C1031 C 0.10869 0.61041 0.67819 0.0
C1032 C 0.16064 0.68459 0.69176 0.0
C1033 C 0.14188 0.69369 0.70449 0.0
C1034 C 0.15004 0.67294 0.67652 0.0
C1035 C 0.12006 0.67104 0.67388 0.0
C1036 C 0.10115 0.6822 0.68621 0.0
C1037 C 0.1123 0.69304 0.70147 0.0
C1038 C 0.17087 0.66081 0.66383 0.0
C1039 C 0.06907 0.68122 0.68371 0.0
H1040 H 0.08508 0.66047 0.6186 0.0
H1041 H 0.0832 0.58755 0.65079 0.0
H1042 H 0.09504 0.71104 0.64988 0.0
H1043 H 0.13085 0.70298 0.64368 0.0
H1044 H 0.10292 0.70463 0.62785 0.0
H1045 H 0.10452 0.5872 0.67747 0.0
H1046 H 0.13146 0.61384 0.68179 0.0
H1047 H 0.09536 0.6196 0.68845 0.0
H1048 H 0.18354 0.68501 0.6941 0.0
H1049 H 0.0978 0.70039 0.71125 0.0
H1050 H 0.16542 0.66779 0.65087 0.0
H1051 H 0.16944 0.6373 0.66388 0.0
H1052 H 0.19334 0.66709 0.66674 0.0
H1053 H 0.0632 0.68884 0.67093 0.0
H1054 H 0.05764 0.69427 0.69331 0.0
H1055 H 0.06144 0.65897 0.68464 0.0
C1056 C 0.41599 0.59386 0.8993 0.0
C1057 C 0.40302 0.58599 0.88387 0.0
C1058 C 0.40028 0.6068 0.91229 0.0
C1059 C 0.37055 0.61128 0.91008 0.0
C1060 C 0.35717 0.60344 0.8946 0.0
C1061 C 0.37363 0.59118 0.8816 0.0
C1062 C 0.41547 0.61519 0.92854 0.0
C1063 C 0.32541 0.60743 0.89192 0.0
C1064 C 0.3327 0.61642 0.95217 0.0
C1065 C 0.33054 0.64584 0.95444 0.0
C1066 C 0.34373 0.60478 0.93716 0.0
C1067 C 0.35361 0.6231 0.92437 0.0
C1068 C 0.35027 0.65283 0.9263 0.0
C1069 C 0.33839 0.66386 0.94127 0.0
C1070 C 0.3462 0.57294 0.9354 0.0
C1071 C 0.36109 0.67307 0.91311 0.0
H1072 H 0.43844 0.58936 0.90147 0.0
H1073 H 0.36339 0.58559 0.86968 0.0
H1074 H 0.4111 0.63776 0.93172 0.0
H1075 H 0.4073 0.60224 0.9391 0.0
H1076 H 0.43903 0.61224 0.92774 0.0
H1077 H 0.31837 0.60088 0.879 0.0
H1078 H 0.31338 0.59476 0.90127 0.0
H1079 H 0.31955 0.62998 0.89404 0.0
H1080 H 0.32634 0.60249 0.96231 0.0
H1081 H 0.33684 0.68665 0.94306 0.0
H1082 H 0.36903 0.56669 0.93641 0.0
H1083 H 0.33828 0.56572 0.9228 0.0
H1084 H 0.334 0.56169 0.94533 0.0
H1085 H 0.38486 0.67273 0.91304 0.0
H1086 H 0.35399 0.69521 0.91559 0.0
H1087 H 0.35368 0.66642 0.90031 0.0
C1088 C 0.42888 0.89293 0.13268 0.0
C1089 C 0.44658 0.91626 0.13644 0.0
C1090 C 0.41468 0.87844 0.14564 0.0
C1091 C 0.41809 0.88784 0.16263 0.0
C1092 C 0.43466 0.9124 0.16629 0.0
C1093 C 0.44886 0.92618 0.15316 0.0
C1094 C 0.39737 0.85224 0.14127 0.0
C1095 C 0.43854 0.92339 0.18419 0.0
C1096 C 0.37237 0.86337 0.1993 0.0
C1097 C 0.39149 0.84525 0.20757 0.0
C1098 C 0.38 0.87633 0.18403 0.0
C1099 C 0.40714 0.87061 0.17685 0.0
C1100 C 0.42555 0.8507 0.18454 0.0
C1101 C 0.4176 0.83846 0.19988 0.0
C1102 C 0.35986 0.89754 0.17624 0.0
C1103 C 0.45446 0.84359 0.17714 0.0
H1104 H 0.4272 0.88527 0.11972 0.0
H1105 H 0.46227 0.94448 0.156 0.0
H1106 H 0.40888 0.83318 0.14577 0.0
H1107 H 0.37633 0.85279 0.14771 0.0
H1108 H 0.39373 0.84989 0.12742 0.0
H1109 H 0.44975 0.94422 0.18469 0.0
H1110 H 0.41745 0.92569 0.19046 0.0
H1111 H 0.45124 0.90797 0.19159 0.0
H1112 H 0.35215 0.86867 0.20522 0.0
H1113 H 0.43227 0.82413 0.20612 0.0
H1114 H 0.35804 0.89395 0.16238 0.0
H1115 H 0.36853 0.91927 0.17829 0.0
H1116 H 0.33813 0.89652 0.18186 0.0
H1117 H 0.45241 0.83854 0.16345 0.0
H1118 H 0.46467 0.82532 0.18353 0.0
H1119 H 0.46891 0.86224 0.17846 0.0
C1120 C 0.09737 0.60952 0.87321 0.0
C1121 C 0.06996 0.61699 0.87883 0.0
C1122 C 0.10978 0.62309 0.85937 0.0
C1123 C 0.0943 0.6445 0.85091 0.0
C1124 C 0.06776 0.65387 0.85749 0.0
C1125 C 0.05587 0.63998 0.87143 0.0
C1126 C 0.1383 0.61268 0.8529 0.0
C1127 C 0.05067 0.67676 0.84891 0.0
C1128 C 0.13216 0.68186 0.81485 0.0
C1129 C 0.12375 0.66485 0.80097 0.0
C1130 C 0.12214 0.67615 0.83122 0.0
C1131 C 0.10328 0.65299 0.83368 0.0
C1132 C 0.09397 0.63645 0.81962 0.0
C1133 C 0.10433 0.64255 0.8035 0.0
C1134 C 0.13245 0.69425 0.84592 0.0
C1135 C 0.07366 0.61168 0.82164 0.0
H1136 H 0.10849 0.59205 0.87913 0.0
H1137 H 0.03465 0.6458 0.87574 0.0
H1138 H 0.13487 0.59993 0.84116 0.0
H1139 H 0.15241 0.6308 0.8497 0.0
H1140 H 0.1495 0.59922 0.86228 0.0
H1141 H 0.03351 0.68525 0.85722 0.0
H1142 H 0.06475 0.69453 0.84507 0.0
H1143 H 0.04052 0.66786 0.83727 0.0
H1144 H 0.14714 0.69916 0.813 0.0
H1145 H 0.09743 0.62948 0.79285 0.0
H1146 H 0.1468 0.68157 0.8541 0.0
H1147 H 0.11412 0.70118 0.85382 0.0
H1148 H 0.14437 0.71331 0.8417 0.0
H1149 H 0.08384 0.59522 0.82957 0.0
H1150 H 0.06749 0.6018 0.80931 0.0
H1151 H 0.0539 0.61869 0.82818 0.0
C1152 C 0.40099 0.59026 0.12531 0.0
C1153 C 0.41566 0.5651 0.12156 0.0
C1154 C 0.3884 0.60621 0.11235 0.0
C1155 C 0.3902 0.59637 0.09538 0.0
C1156 C 0.40379 0.57019 0.09172 0.0
C1157 C 0.41661 0.55503 0.10485 0.0
C1158 C 0.37448 0.6342 0.1167 0.0
C1159 C 0.40575 0.55869 0.07384 0.0
C1160 C 0.34467 0.62549 0.05963 0.0
C1161 C 0.36494 0.64172 0.05097 0.0
C1162 C 0.35213 0.61148 0.07461 0.0
C1163 C 0.38031 0.61434 0.08118 0.0
C1164 C 0.40021 0.63224 0.07304 0.0
C1165 C 0.39238 0.64544 0.05793 0.0
C1166 C 0.33045 0.5923 0.08282 0.0
C1167 C 0.43027 0.63637 0.07982 0.0
H1168 H 0.40041 0.59801 0.13828 0.0
H1169 H 0.42778 0.5354 0.10204 0.0
H1170 H 0.38759 0.65179 0.1116 0.0
H1171 H 0.35296 0.63556 0.11075 0.0
H1172 H 0.37229 0.63745 0.13058 0.0
H1173 H 0.4146 0.53684 0.07337 0.0
H1174 H 0.38428 0.55848 0.06775 0.0
H1175 H 0.41976 0.57265 0.06626 0.0
H1176 H 0.32345 0.62253 0.05424 0.0
H1177 H 0.40798 0.6583 0.05137 0.0
H1178 H 0.32956 0.59648 0.09664 0.0
H1179 H 0.33701 0.56986 0.08099 0.0
H1180 H 0.30865 0.59495 0.07737 0.0
H1181 H 0.42978 0.6417 0.09353 0.0
H1182 H 0.44196 0.65343 0.07314 0.0
H1183 H 0.44246 0.61633 0.07832 0.0
C1184 C 0.40492 0.93011 0.37086 0.0
C1185 C 0.43176 0.92117 0.37676 0.0
C1186 C 0.3905 0.91511 0.35795 0.0
C1187 C 0.40327 0.89059 0.35077 0.0
C1188 C 0.42954 0.88052 0.35736 0.0
C1189 C 0.4435 0.89596 0.37026 0.0
C1190 C 0.36243 0.92643 0.35133 0.0
C1191 C 0.44382 0.85444 0.35005 0.0
C1192 C 0.36009 0.8432 0.32071 0.0
C1193 C 0.36903 0.85321 0.30495 0.0
C1194 C 0.37094 0.85517 0.33583 0.0
C1195 C 0.39108 0.87765 0.33508 0.0
C1196 C 0.39999 0.8879 0.31919 0.0
C1197 C 0.38887 0.87556 0.30435 0.0
C1198 C 0.36103 0.84373 0.35256 0.0
C1199 C 0.42139 0.91189 0.31785 0.0
H1200 H 0.39552 0.94931 0.37606 0.0
H1201 H 0.46434 0.88903 0.37466 0.0
H1202 H 0.36559 0.93496 0.33845 0.0
H1203 H 0.34628 0.90918 0.35029 0.0
H1204 H 0.35376 0.94364 0.35954 0.0
H1205 H 0.46224 0.84744 0.3579 0.0
H1206 H 0.42826 0.83667 0.34888 0.0
H1207 H 0.45171 0.85906 0.33716 0.0
H1208 H 0.34472 0.82593 0.32125 0.0
H1209 H 0.39584 0.88346 0.29223 0.0
H1210 H 0.35147 0.86102 0.36031 0.0
H1211 H 0.3796 0.83546 0.35977 0.0
H1212 H 0.34496 0.82644 0.35098 0.0
H1213 H 0.41324 0.93104 0.32453 0.0
H1214 H 0.4259 0.91749 0.30451 0.0
H1215 H 0.44184 0.90591 0.32405 0.0
C1216 C 0.13185 0.94498 0.62962 0.0
C1217 C 0.10608 0.93366 0.63562 0.0
C1218 C 0.14751 0.93078 0.61701 0.0
C1219 C 0.13706 0.90473 0.61029 0.0
C1220 C 0.11235 0.89212 0.61731 0.0
C1221 C 0.09715 0.90676 0.6299 0.0
C1222 C 0.17387 0.94485 0.60993 0.0
C1223 C 0.1006 0.86427 0.61059 0.0
C1224 C 0.14768 0.89165 0.56345 0.0
C1225 C 0.16964 0.87144 0.56324 0.0
C1226 C 0.13715 0.90266 0.57869 0.0
C1227 C 0.14885 0.89326 0.59419 0.0
C1228 C 0.17109 0.87289 0.59413 0.0
C1229 C 0.18124 0.86214 0.57861 0.0
C1230 C 0.11334 0.92431 0.57817 0.0
C1231 C 0.18406 0.86248 0.61043 0.0
H1232 H 0.13884 0.9658 0.63398 0.0
H1233 H 0.07752 0.89769 0.63477 0.0
H1234 H 0.1913 0.92919 0.60809 0.0
H1235 H 0.16868 0.95381 0.59736 0.0
H1236 H 0.18182 0.96234 0.61828 0.0
H1237 H 0.084 0.85531 0.61903 0.0
H1238 H 0.09082 0.8676 0.59794 0.0
H1239 H 0.118 0.8485 0.60901 0.0
H1240 H 0.13857 0.89893 0.55162 0.0
H1241 H 0.19821 0.84657 0.5785 0.0
H1242 H 0.12028 0.94417 0.58469 0.0
H1243 H 0.09433 0.91618 0.58497 0.0
H1244 H 0.10679 0.92951 0.56504 0.0
H1245 H 0.19281 0.88065 0.61789 0.0
H1246 H 0.20149 0.8469 0.60821 0.0
H1247 H 0.16729 0.85237 0.61824 0.0
C1248 C 0.6033 0.42319 0.88611 0.0
C1249 C 0.57492 0.41746 0.8813 0.0
C1250 C 0.61542 0.41042 0.90037 0.0
C1251 C 0.59856 0.39182 0.91016 0.0
C1252 C 0.57059 0.38438 0.90463 0.0
C1253 C 0.55913 0.39723 0.89018 0.0
C1254 C 0.6455 0.41854 0.90566 0.0
C1255 C 0.55189 0.36474 0.91474 0.0
C1256 C 0.6344 0.35258 0.94635 0.0
C1257 C 0.62947 0.37131 0.95997 0.0
C1258 C 0.62421 0.35869 0.93002 0.0
C1259 C 0.60849 0.3839 0.92736 0.0
C1260 C 0.60286 0.40246 0.94116 0.0
C1261 C 0.61354 0.39602 0.95723 0.0
C1262 C 0.63081 0.33856 0.91557 0.0
C1263 C 0.58588 0.42942 0.93891 0.0
H1264 H 0.61561 0.43862 0.87911 0.0
H1265 H 0.53711 0.3929 0.88653 0.0
H1266 H 0.64465 0.43283 0.91691 0.0
H1267 H 0.65787 0.39947 0.90928 0.0
H1268 H 0.65713 0.42967 0.89545 0.0
H1269 H 0.53265 0.35769 0.90748 0.0
H1270 H 0.56405 0.34576 0.91873 0.0
H1271 H 0.54467 0.37593 0.92639 0.0
H1272 H 0.64676 0.33348 0.94837 0.0
H1273 H 0.6094 0.41048 0.9677 0.0
H1274 H 0.64463 0.34938 0.90625 0.0
H1275 H 0.61079 0.33227 0.90888 0.0
H1276 H 0.6419 0.31911 0.9199 0.0
H1277 H 0.59732 0.44379 0.9302 0.0
H1278 H 0.58236 0.44092 0.95107 0.0
H1279 H 0.56471 0.42448 0.93312 0.0
C1280 C 0.61976 0.11247 0.12591 0.0
C1281 C 0.61841 0.08281 0.12743 0.0
C1282 C 0.63128 0.1296 0.13896 0.0
C1283 C 0.64227 0.11674 0.1537 0.0
C1284 C 0.6422 0.08683 0.15499 0.0
C1285 C 0.62994 0.07031 0.14199 0.0
C1286 C 0.63064 0.16146 0.13725 0.0
C1287 C 0.65412 0.07224 0.1704 0.0
C1288 C 0.69055 0.15575 0.1851 0.0
C1289 C 0.67174 0.16007 0.19863 0.0
C1290 C 0.68107 0.14259 0.17003 0.0
C1291 C 0.65198 0.1343 0.1684 0.0
C1292 C 0.63259 0.14029 0.18168 0.0
C1293 C 0.6428 0.15274 0.19673 0.0
C1294 C 0.7025 0.13601 0.15631 0.0
C1295 C 0.60126 0.13242 0.18028 0.0
H1296 H 0.61143 0.12239 0.11463 0.0
H1297 H 0.62854 0.04756 0.14359 0.0
H1298 H 0.61606 0.17067 0.1469 0.0
H1299 H 0.65223 0.1706 0.13964 0.0
H1300 H 0.62318 0.1681 0.12454 0.0
H1301 H 0.65508 0.04883 0.16869 0.0
H1302 H 0.676 0.08024 0.17334 0.0
H1303 H 0.6405 0.07707 0.18152 0.0
H1304 H 0.71298 0.16131 0.1866 0.0
H1305 H 0.6282 0.15636 0.20716 0.0
H1306 H 0.69428 0.1428 0.14382 0.0
H1307 H 0.70589 0.11273 0.15553 0.0
H1308 H 0.72351 0.14647 0.15873 0.0
H1309 H 0.59219 0.13995 0.16814 0.0
H1310 H 0.58849 0.1415 0.19084 0.0
H1311 H 0.59891 0.10899 0.1804 0.0
C1312 C 0.92585 0.1004 0.38704 0.0
C1313 C 0.95045 0.11326 0.38039 0.0
C1314 C 0.91201 0.11195 0.40123 0.0
C1315 C 0.92334 0.13664 0.40918 0.0
C1316 C 0.94692 0.15081 0.40189 0.0
C1317 C 0.96001 0.1391 0.38748 0.0
C1318 C 0.88654 0.0965 0.40844 0.0
C1319 C 0.95972 0.17713 0.41002 0.0
C1320 C 0.88107 0.17142 0.44488 0.0
C1321 C 0.89264 0.1578 0.45902 0.0
C1322 C 0.89095 0.16503 0.42849 0.0
C1323 C 0.91325 0.14503 0.42633 0.0
C1324 C 0.92559 0.13197 0.44065 0.0
C1325 C 0.91495 0.13831 0.45678 0.0
C1326 C 0.87698 0.17897 0.41349 0.0
C1327 C 0.94978 0.11091 0.43895 0.0
H1328 H 0.9183 0.08035 0.38182 0.0
H1329 H 0.97851 0.14963 0.38218 0.0
H1330 H 0.8931 0.08545 0.42014 0.0
H1331 H 0.86936 0.11168 0.41189 0.0
H1332 H 0.87764 0.08048 0.3994 0.0
H1333 H 0.97537 0.18771 0.40162 0.0
H1334 H 0.94273 0.19253 0.41343 0.0
H1335 H 0.9709 0.17126 0.42189 0.0
H1336 H 0.8637 0.18639 0.44657 0.0
H1337 H 0.92416 0.12794 0.46769 0.0
H1338 H 0.8658 0.16266 0.40563 0.0
H1339 H 0.8934 0.18897 0.40538 0.0
H1340 H 0.8612 0.19538 0.41736 0.0
H1341 H 0.94233 0.09194 0.4317 0.0
H1342 H 0.95803 0.10387 0.45141 0.0
H1343 H 0.96775 0.12042 0.43181 0.0
C1344 C 0.89 0.4338 0.6287 0.0
C1345 C 0.90272 0.46001 0.63267 0.0
C1346 C 0.87662 0.41778 0.64132 0.0
C1347 C 0.87588 0.4285 0.65814 0.0
C1348 C 0.88661 0.45607 0.66179 0.0
C1349 C 0.90009 0.47139 0.64902 0.0
C1350 C 0.86538 0.38854 0.63692 0.0
C1351 C 0.88593 0.46851 0.67948 0.0
C1352 C 0.83535 0.39516 0.69449 0.0
C1353 C 0.85784 0.3821 0.70324 0.0
C1354 C 0.84039 0.40912 0.67915 0.0
C1355 C 0.86846 0.40965 0.67243 0.0
C1356 C 0.8907 0.39471 0.68065 0.0
C1357 C 0.88515 0.38131 0.69599 0.0
C1358 C 0.81615 0.42477 0.67074 0.0
C1359 C 0.92086 0.3943 0.67379 0.0
H1360 H 0.89214 0.42504 0.61602 0.0
H1361 H 0.90977 0.49183 0.65198 0.0
H1362 H 0.88075 0.37242 0.64151 0.0
H1363 H 0.8446 0.38457 0.64322 0.0
H1364 H 0.86259 0.38552 0.62305 0.0
H1365 H 0.89165 0.49141 0.67974 0.0
H1366 H 0.86436 0.4659 0.68509 0.0
H1367 H 0.90139 0.45705 0.68762 0.0
H1368 H 0.81418 0.39578 0.70006 0.0
H1369 H 0.90251 0.37084 0.70257 0.0
H1370 H 0.81623 0.42098 0.65687 0.0
H1371 H 0.81896 0.44792 0.67294 0.0
H1372 H 0.79497 0.4184 0.67582 0.0
H1373 H 0.92071 0.38816 0.6602 0.0
H1374 H 0.9349 0.37937 0.68073 0.0
H1375 H 0.93034 0.41588 0.67484 0.0
C1376 C 0.63285 0.09925 0.3734 0.0
C1377 C 0.60421 0.09037 0.37182 0.0
C1378 C 0.64784 0.10976 0.35941 0.0
C1379 C 0.63383 0.11145 0.34353 0.0
C1380 C 0.60468 0.10346 0.34202 0.0
C1381 C 0.59032 0.0929 0.35612 0.0
C1382 C 0.67892 0.11811 0.36149 0.0
C1383 C 0.58893 0.10494 0.3253 0.0
C1384 C 0.6623 0.15409 0.30674 0.0
C1385 C 0.67334 0.13251 0.29629 0.0
C1386 C 0.65049 0.1478 0.32258 0.0
C1387 C 0.64993 0.11933 0.3281 0.0
C1388 C 0.66236 0.09772 0.31797 0.0
C1389 C 0.6738 0.10455 0.30219 0.0
C1390 C 0.63736 0.17138 0.33302 0.0
C1391 C 0.66243 0.06713 0.32347 0.0
H1392 H 0.64364 0.09768 0.38552 0.0
H1393 H 0.5684 0.0856 0.35464 0.0
H1394 H 0.69253 0.10318 0.35416 0.0
H1395 H 0.68263 0.13962 0.35638 0.0
H1396 H 0.68596 0.11789 0.37493 0.0
H1397 H 0.56575 0.1 0.32655 0.0
H1398 H 0.59117 0.1264 0.31985 0.0
H1399 H 0.59842 0.0896 0.31618 0.0
H1400 H 0.66193 0.17575 0.3023 0.0
H1401 H 0.68262 0.08779 0.29429 0.0
H1402 H 0.64508 0.17051 0.3463 0.0
H1403 H 0.61374 0.16867 0.33324 0.0
H1404 H 0.64234 0.19267 0.3279 0.0
H1405 H 0.67124 0.06542 0.33647 0.0
H1406 H 0.6752 0.05335 0.31487 0.0
H1407 H 0.64014 0.05892 0.32369 0.0
C1408 C 0.93346 0.10278 0.60872 0.0
C1409 C 0.93761 0.11385 0.62513 0.0
C1410 C 0.92078 0.11896 0.596 0.0
C1411 C 0.91279 0.14734 0.59953 0.0
C1412 C 0.91719 0.15892 0.61594 0.0
C1413 C 0.92925 0.14194 0.62861 0.0
C1414 C 0.91616 0.10566 0.57869 0.0
C1415 C 0.90949 0.18932 0.62005 0.0
C1416 C 0.90768 0.18956 0.55928 0.0
C1417 C 0.87821 0.18851 0.55594 0.0
C1418 C 0.91903 0.17827 0.5742 0.0
C1419 C 0.9005 0.16478 0.58574 0.0
C1420 C 0.87053 0.1649 0.58281 0.0
C1421 C 0.85969 0.17716 0.568 0.0
C1422 C 0.95101 0.17933 0.5771 0.0
C1423 C 0.85013 0.1502 0.59461 0.0
H1424 H 0.94051 0.08145 0.60566 0.0
H1425 H 0.93201 0.15068 0.64126 0.0
H1426 H 0.89341 0.10782 0.57478 0.0
H1427 H 0.92936 0.11685 0.56922 0.0
H1428 H 0.92189 0.0828 0.57833 0.0
H1429 H 0.91438 0.19516 0.63341 0.0
H1430 H 0.92147 0.2038 0.61166 0.0
H1431 H 0.88636 0.19286 0.61765 0.0
H1432 H 0.92197 0.19861 0.54999 0.0
H1433 H 0.83688 0.17621 0.56537 0.0
H1434 H 0.96018 0.15787 0.57507 0.0
H1435 H 0.95595 0.18588 0.59033 0.0
H1436 H 0.9618 0.19422 0.56839 0.0
H1437 H 0.85323 0.1269 0.59356 0.0
H1438 H 0.82739 0.15502 0.59163 0.0
H1439 H 0.85458 0.15646 0.60793 0.0
C1440 C 0.90662 0.41548 0.86825 0.0
C1441 C 0.89691 0.44125 0.87517 0.0
C1442 C 0.89236 0.40244 0.85456 0.0
C1443 C 0.86754 0.41527 0.84776 0.0
C1444 C 0.85651 0.44024 0.8554 0.0
C1445 C 0.87142 0.45304 0.86896 0.0
C1446 C 0.90484 0.37582 0.84677 0.0
C1447 C 0.82987 0.45433 0.84865 0.0
C1448 C 0.85491 0.4032 0.80083 0.0
C1449 C 0.8345 0.38132 0.80072 0.0
C1450 C 0.86546 0.41466 0.81608 0.0
C1451 C 0.85508 0.40424 0.83162 0.0
C1452 C 0.83387 0.3827 0.83161 0.0
C1453 C 0.82393 0.37134 0.81614 0.0
C1454 C 0.88825 0.43746 0.81554 0.0
C1455 C 0.82204 0.3714 0.84795 0.0
H1456 H 0.92594 0.40591 0.87322 0.0
H1457 H 0.86383 0.47302 0.87414 0.0
H1458 H 0.88811 0.35918 0.84537 0.0
H1459 H 0.9129 0.38051 0.83392 0.0
H1460 H 0.9228 0.36723 0.8544 0.0
H1461 H 0.82194 0.47123 0.85733 0.0
H1462 H 0.83459 0.46399 0.83624 0.0
H1463 H 0.81256 0.43846 0.84657 0.0
H1464 H 0.86317 0.411 0.78897 0.0
H1465 H 0.80802 0.35456 0.8161 0.0
H1466 H 0.90804 0.42989 0.82184 0.0
H1467 H 0.88101 0.45664 0.82254 0.0
H1468 H 0.89362 0.44359 0.8024 0.0
H1469 H 0.83932 0.36083 0.85518 0.0
H1470 H 0.80436 0.35593 0.84577 0.0
H1471 H 0.81399 0.38913 0.85595 0.0
C1472 C 0.57881 0.37171 0.12716 0.0
C1473 C 0.59067 0.39668 0.13411 0.0
C1474 C 0.59187 0.35771 0.11348 0.0
C1475 C 0.61718 0.36916 0.10648 0.0
C1476 C 0.63048 0.39299 0.1143 0.0
C1477 C 0.61714 0.40635 0.1281 0.0
C1478 C 0.57725 0.33208 0.10565 0.0
C1479 C 0.65749 0.40585 0.10724 0.0
C1480 C 0.65692 0.32917 0.07168 0.0
C1481 C 0.64513 0.34144 0.05716 0.0
C1482 C 0.64793 0.33771 0.08792 0.0
C1483 C 0.62699 0.35923 0.08956 0.0
C1484 C 0.61516 0.37171 0.07492 0.0
C1485 C 0.62424 0.36255 0.05893 0.0
C1486 C 0.66071 0.32373 0.10327 0.0
C1487 C 0.59296 0.39493 0.07611 0.0
H1488 H 0.55831 0.36409 0.13164 0.0
H1489 H 0.62679 0.42525 0.13367 0.0
H1490 H 0.56654 0.33827 0.09369 0.0
H1491 H 0.5931 0.31537 0.1025 0.0
H1492 H 0.56083 0.323 0.11417 0.0
H1493 H 0.66731 0.42161 0.11611 0.0
H1494 H 0.67348 0.38915 0.10435 0.0
H1495 H 0.65238 0.41669 0.09522 0.0
H1496 H 0.673 0.31276 0.07036 0.0
H1497 H 0.61511 0.37222 0.04776 0.0
H1498 H 0.6435 0.31387 0.11086 0.0
H1499 H 0.6714 0.33986 0.11148 0.0
H1500 H 0.67657 0.30714 0.09982 0.0
H1501 H 0.57374 0.38706 0.0828 0.0
H1502 H 0.58622 0.40266 0.06349 0.0
H1503 H 0.60162 0.41316 0.08357 0.0
loop_
_geom_bond_atom_site_label_1
_geom_bond_atom_site_label_2
_geom_bond_distance
_geom_bond_site_symmetry_2
_ccdc_geom_bond_type
C0 C1 1.384 . S
C0 C2 1.384 . S
C0 H28 0.931 . S
C1 C0 1.384 . S
C1 C4 1.382 1_565 S
C2 C0 1.384 . S
C2 C3 1.381 1_565 S
C2 H29 0.930 . S
C3 C2 1.381 1_545 S
C3 C5 1.381 . S
C3 C6 1.487 . S
C4 C1 1.382 1_545 S
C4 C5 1.387 . S
C4 H30 0.930 . S
C5 C3 1.381 . S
C5 C4 1.387 . S
C5 H31 0.931 . S
C6 C3 1.487 . S
C6 C13 1.399 . S
C6 N44 1.343 . S
C7 C8 1.384 . S
C7 C9 1.384 1_565 S
C7 H32 0.931 . S
C8 C7 1.384 . S
C8 C11 1.382 . S
C9 C7 1.384 1_545 S
C9 C10 1.384 . S
C9 H33 0.930 . S
C10 C9 1.384 . S
C10 C12 1.366 1_545 S
C10 C13 1.502 . S
C11 C8 1.382 . S
C11 C12 1.387 . S
C11 H34 0.930 . S
C12 C10 1.366 1_565 S
C12 C11 1.387 . S
C12 H35 0.931 . S
C13 C6 1.399 . S
C13 C10 1.502 . S
C13 N45 1.343 . S
C14 C15 1.384 . S
C14 C16 1.384 . S
C14 H36 0.931 . S
C15 C14 1.384 . S
C15 C18 1.382 . S
C16 C14 1.384 . S
C16 C17 1.381 . S
C16 H37 0.930 1_655 S
C17 C16 1.381 . S
C17 C19 1.381 . S
C17 C20 1.487 1_655 S
C18 C15 1.382 . S
C18 C19 1.387 . S
C18 H38 0.930 . S
C19 C17 1.381 . S
C19 C18 1.387 . S
C19 H39 0.931 . S
C20 C17 1.487 1_455 S
C20 C27 1.399 . S
C20 N45 1.343 . S
C21 C22 1.384 . S
C21 C23 1.384 . S
C21 H40 0.931 . S
C22 C21 1.384 . S
C22 C25 1.382 . S
C23 C21 1.384 . S
C23 C24 1.349 1_655 S
C23 H41 0.930 . S
C24 C23 1.349 1_455 S
C24 C26 1.393 . S
C24 C27 1.508 . S
C25 C22 1.382 . S
C25 C26 1.387 1_655 S
C25 H42 0.928 1_655 S
C26 C24 1.393 . S
C26 C25 1.387 1_455 S
C26 H43 0.931 . S
C27 C20 1.399 . S
C27 C24 1.508 . S
C27 N44 1.343 . S
H28 C0 0.931 . S
H29 C2 0.930 . S
H30 C4 0.930 . S
H31 C5 0.931 . S
H32 C7 0.931 . S
H33 C9 0.930 . S
H34 C11 0.930 . S
H35 C12 0.931 . S
H36 C14 0.931 . S
H37 C16 0.930 1_455 S
H38 C18 0.930 . S
H39 C19 0.931 . S
H40 C21 0.931 . S
H41 C23 0.930 . S
H42 C25 0.928 1_455 S
H43 C26 0.931 . S
N44 C6 1.343 . S
N44 C27 1.343 . S
N45 C13 1.343 . S
N45 C20 1.343 . S
C46 C47 1.384 . S
C46 C48 1.384 . S
C46 H74 0.931 . S
C47 C46 1.384 . S
C47 C50 1.382 . S
C48 C46 1.384 . S
C48 C49 1.381 . S
C48 H75 0.930 . S
C49 C48 1.381 . S
C49 C51 1.381 . S
C49 C52 1.487 . S
C50 C47 1.382 . S
C50 C51 1.387 . S
C50 H76 0.930 . S
C51 C49 1.381 . S
C51 C50 1.387 . S
C51 H77 0.931 1_655 S
C52 C49 1.487 . S
C52 C59 1.399 . S
C52 N90 1.343 1_655 S
C53 C54 1.384 . S
C53 C55 1.384 . S
C53 H78 0.931 . S
C54 C53 1.384 . S
C54 C57 1.382 . S
C55 C53 1.384 . S
C55 C56 1.381 . S
C55 H79 0.930 . S
C56 C55 1.381 . S
C56 C58 1.381 . S
C56 C59 1.487 . S
C57 C54 1.382 . S
C57 C58 1.387 . S
C57 H80 0.930 . S
C58 C56 1.381 . S
C58 C57 1.387 . S
C58 H81 0.931 . S
C59 C52 1.399 . S
C59 C56 1.487 . S
C59 N91 1.343 1_655 S
C60 C61 1.384 . S
C60 C62 1.384 . S
C60 H82 0.931 . S
C61 C60 1.384 . S
C61 C64 1.382 . S
C62 C60 1.384 . S
C62 C63 1.381 . S
C62 H83 0.930 . S
C63 C62 1.381 . S
C63 C65 1.381 . S
C63 C66 1.487 . S
C64 C61 1.382 . S
C64 C65 1.387 . S
C64 H84 0.930 . S
C65 C63 1.381 . S
C65 C64 1.387 . S
C65 H85 0.931 . S
C66 C63 1.487 . S
C66 C73 1.399 . S
C66 N91 1.343 . S
C67 C68 1.384 . S
C67 C69 1.384 . S
C67 H86 0.931 . S
C68 C67 1.384 . S
C68 C71 1.382 . S
C69 C67 1.384 . S
C69 C70 1.381 . S
C69 H87 0.930 . S
C70 C69 1.381 . S
C70 C72 1.381 . S
C70 C73 1.487 . S
C71 C68 1.382 . S
C71 C72 1.387 . S
C71 H88 0.930 . S
C72 C70 1.381 . S
C72 C71 1.387 . S
C72 H89 0.931 . S
C73 C66 1.399 . S
C73 C70 1.487 . S
C73 N90 1.343 . S
H74 C46 0.931 . S
H75 C48 0.930 . S
H76 C50 0.930 . S
H77 C51 0.931 1_455 S
H78 C53 0.931 . S
H79 C55 0.930 . S
H80 C57 0.930 . S
H81 C58 0.931 . S
H82 C60 0.931 . S
H83 C62 0.930 . S
H84 C64 0.930 . S
H85 C65 0.931 . S
H86 C67 0.931 . S
H87 C69 0.930 . S
H88 C71 0.930 . S
H89 C72 0.931 . S
N90 C52 1.343 1_455 S
N90 C73 1.343 . S
N91 C59 1.343 1_455 S
N91 C66 1.343 . S
C92 C93 1.384 . S
C92 C94 1.384 . S
C92 H120 0.931 . S
C93 C92 1.384 . S
C93 C96 1.382 . S
C94 C92 1.384 . S
C94 C95 1.381 . S
C94 H121 0.930 . S
C95 C94 1.381 . S
C95 C97 1.381 . S
C95 C98 1.487 . S
C96 C93 1.382 . S
C96 C97 1.387 . S
C96 H122 0.930 . S
C97 C95 1.381 . S
C97 C96 1.387 . S
C97 H123 0.931 . S
C98 C95 1.487 . S
C98 C105 1.399 . S
C98 N136 1.343 . S
C99 C100 1.384 . S
C99 C101 1.384 . S
C99 H124 0.931 . S
C100 C99 1.384 . S
C100 C103 1.382 . S
C101 C99 1.384 . S
C101 C102 1.381 . S
C101 H125 0.930 . S
C102 C101 1.381 . S
C102 C104 1.381 . S
C102 C105 1.487 . S
C103 C100 1.382 . S
C103 C104 1.387 . S
C103 H126 0.930 . S
C104 C102 1.381 . S
C104 C103 1.387 . S
C104 H127 0.931 . S
C105 C98 1.399 . S
C105 C102 1.487 . S
C105 N137 1.343 . S
C106 C107 1.384 . S
C106 C108 1.384 . S
C106 H128 0.931 . S
C107 C106 1.384 . S
C107 C110 1.382 . S
C108 C106 1.384 . S
C108 C109 1.381 . S
C108 H129 0.930 . S
C109 C108 1.381 . S
C109 C111 1.381 . S
C109 C112 1.487 . S
C110 C107 1.382 . S
C110 C111 1.387 . S
C110 H130 0.930 . S
C111 C109 1.381 . S
C111 C110 1.387 . S
C111 H131 0.931 . S
C112 C109 1.487 . S
C112 C119 1.399 . S
C112 N137 1.343 . S
C113 C114 1.384 . S
C113 C115 1.384 . S
C113 H132 0.931 . S
C114 C113 1.384 . S
C114 C117 1.382 . S
C115 C113 1.384 . S
C115 C116 1.381 . S
C115 H133 0.930 . S
C116 C115 1.381 . S
C116 C118 1.381 . S
C116 C119 1.487 . S
C117 C114 1.382 . S
C117 C118 1.387 . S
C117 H134 0.930 . S
C118 C116 1.381 . S
C118 C117 1.387 . S
C118 H135 0.931 . S
C119 C112 1.399 . S
C119 C116 1.487 . S
C119 N136 1.343 . S
H120 C92 0.931 . S
H121 C94 0.930 . S
H122 C96 0.930 . S
H123 C97 0.931 . S
H124 C99 0.931 . S
H125 C101 0.930 . S
H126 C103 0.930 . S
H127 C104 0.931 . S
H128 C106 0.931 . S
H129 C108 0.930 . S
H130 C110 0.930 . S
H131 C111 0.931 . S
H132 C113 0.931 . S
H133 C115 0.930 . S
H134 C117 0.930 . S
H135 C118 0.931 . S
N136 C98 1.343 . S
N136 C119 1.343 . S
N137 C105 1.343 . S
N137 C112 1.343 . S
C138 C139 1.384 . S
C138 C140 1.384 . S
C138 H166 0.931 . S
C139 C138 1.384 . S
C139 C142 1.382 . S
C140 C138 1.384 . S
C140 C141 1.381 . S
C140 H167 0.930 . S
C141 C140 1.381 . S
C141 C143 1.381 . S
C141 C144 1.487 . S
C142 C139 1.382 . S
C142 C143 1.387 . S
C142 H168 0.930 . S
C143 C141 1.381 . S
C143 C142 1.387 . S
C143 H169 0.931 . S
C144 C141 1.487 . S
C144 C151 1.399 . S
C144 N182 1.343 1_565 S
C145 C146 1.384 . S
C145 C147 1.384 . S
C145 H170 0.931 . S
C146 C145 1.384 . S
C146 C149 1.382 . S
C147 C145 1.384 . S
C147 C148 1.381 . S
C147 H171 0.930 . S
C148 C147 1.381 . S
C148 C150 1.381 . S
C148 C151 1.487 . S
C149 C146 1.382 . S
C149 C150 1.387 . S
C149 H172 0.930 . S
C150 C148 1.381 . S
C150 C149 1.387 . S
C150 H173 0.931 . S
C151 C144 1.399 . S
C151 C148 1.487 . S
C151 N183 1.343 . S
C152 C153 1.384 . S
C152 C154 1.384 . S
C152 H174 0.931 . S
C153 C152 1.384 . S
C153 C156 1.382 . S
C154 C152 1.384 . S
C154 C155 1.381 . S
C154 H175 0.930 . S
C155 C154 1.381 . S
C155 C157 1.381 . S
C155 C158 1.487 . S
C156 C153 1.382 . S
C156 C157 1.387 . S
C156 H176 0.930 . S
C157 C155 1.381 . S
C157 C156 1.387 . S
C157 H177 0.931 . S
C158 C155 1.487 . S
C158 C165 1.399 . S
C158 N183 1.343 1_545 S
C159 C160 1.384 . S
C159 C161 1.384 . S
C159 H178 0.931 . S
C160 C159 1.384 . S
C160 C163 1.382 . S
C161 C159 1.384 . S
C161 C162 1.381 . S
C161 H179 0.930 . S
C162 C161 1.381 . S
C162 C164 1.381 . S
C162 C165 1.487 . S
C163 C160 1.382 . S
C163 C164 1.387 . S
C163 H180 0.930 . S
C164 C162 1.381 . S
C164 C163 1.387 . S
C164 H181 0.931 . S
C165 C158 1.399 . S
C165 C162 1.487 . S
C165 N182 1.343 . S
H166 C138 0.931 . S
H167 C140 0.930 . S
H168 C142 0.930 . S
H169 C143 0.931 . S
H170 C145 0.931 . S
H171 C147 0.930 . S
H172 C149 0.930 . S
H173 C150 0.931 . S
H174 C152 0.931 . S
H175 C154 0.930 . S
H176 C156 0.930 . S
H177 C157 0.931 . S
H178 C159 0.931 . S
H179 C161 0.930 . S
H180 C163 0.930 . S
H181 C164 0.931 . S
N182 C144 1.343 1_545 S
N182 C165 1.343 . S
N183 C151 1.343 . S
N183 C158 1.343 1_565 S
C184 C185 1.384 . S
C184 C186 1.384 . S
C184 H212 0.931 . S
C185 C184 1.384 . S
C185 C188 1.382 . S
C186 C184 1.384 . S
C186 C187 1.381 . S
C186 H213 0.930 . S
C187 C186 1.381 . S
C187 C189 1.381 . S
C187 C190 1.487 . S
C188 C185 1.382 . S
C188 C189 1.387 . S
C188 H214 0.930 . S
C189 C187 1.381 . S
C189 C188 1.387 . S
C189 H215 0.931 . S
C190 C187 1.487 . S
C190 C197 1.399 . S
C190 N228 1.343 . S
C191 C192 1.384 . S
C191 C193 1.384 . S
C191 H216 0.931 . S
C192 C191 1.384 . S
C192 C195 1.382 . S
C193 C191 1.384 . S
C193 C194 1.381 . S
C193 H217 0.930 . S
C194 C193 1.381 . S
C194 C196 1.381 . S
C194 C197 1.487 . S
C195 C192 1.382 . S
C195 C196 1.387 . S
C195 H218 0.930 . S
C196 C194 1.381 . S
C196 C195 1.387 . S
C196 H219 0.931 . S
C197 C190 1.399 . S
C197 C194 1.487 . S
C197 N229 1.343 1_455 S
C198 C199 1.384 . S
C198 C200 1.384 . S
C198 H220 0.931 . S
C199 C198 1.384 . S
C199 C202 1.382 . S
C200 C198 1.384 . S
C200 C201 1.381 . S
C200 H221 0.930 . S
C201 C200 1.381 . S
C201 C203 1.381 . S
C201 C204 1.487 . S
C202 C199 1.382 . S
C202 C203 1.387 . S
C202 H222 0.930 . S
C203 C201 1.381 . S
C203 C202 1.387 . S
C203 H223 0.931 . S
C204 C201 1.487 . S
C204 C211 1.399 . S
C204 N229 1.343 . S
C205 C206 1.384 . S
C205 C207 1.384 . S
C205 H224 0.931 . S
C206 C205 1.384 . S
C206 C209 1.382 . S
C207 C205 1.384 . S
C207 C208 1.381 . S
C207 H225 0.930 . S
C208 C207 1.381 . S
C208 C210 1.381 . S
C208 C211 1.487 . S
C209 C206 1.382 . S
C209 C210 1.387 . S
C209 H226 0.930 . S
C210 C208 1.381 . S
C210 C209 1.387 . S
C210 H227 0.931 . S
C211 C204 1.399 . S
C211 C208 1.487 . S
C211 N228 1.343 1_655 S
H212 C184 0.931 . S
H213 C186 0.930 . S
H214 C188 0.930 . S
H215 C189 0.931 . S
H216 C191 0.931 . S
H217 C193 0.930 . S
H218 C195 0.930 . S
H219 C196 0.931 . S
H220 C198 0.931 . S
H221 C200 0.930 . S
H222 C202 0.930 . S
H223 C203 0.931 . S
H224 C205 0.931 . S
H225 C207 0.930 . S
H226 C209 0.930 . S
H227 C210 0.931 . S
N228 C190 1.343 . S
N228 C211 1.343 1_455 S
N229 C197 1.343 1_655 S
N229 C204 1.343 . S
C230 C231 1.384 . S
C230 C232 1.384 . S
C230 H258 0.931 . S
C231 C230 1.384 . S
C231 C234 1.382 . S
C232 C230 1.384 . S
C232 C233 1.381 . S
C232 H259 0.930 . S
C233 C232 1.381 . S
C233 C235 1.381 . S
C233 C236 1.487 . S
C234 C231 1.382 . S
C234 C235 1.387 . S
C234 H260 0.930 . S
C235 C233 1.381 . S
C235 C234 1.387 . S
C235 H261 0.931 . S
C236 C233 1.487 . S
C236 C243 1.399 . S
C236 N274 1.343 . S
C237 C238 1.384 . S
C237 C239 1.384 . S
C237 H262 0.931 . S
C238 C237 1.384 . S
C238 C241 1.382 . S
C239 C237 1.384 . S
C239 C240 1.381 . S
C239 H263 0.930 . S
C240 C239 1.381 . S
C240 C242 1.381 . S
C240 C243 1.487 . S
C241 C238 1.382 . S
C241 C242 1.387 . S
C241 H264 0.930 . S
C242 C240 1.381 . S
C242 C241 1.387 . S
C242 H265 0.931 . S
C243 C236 1.399 . S
C243 C240 1.487 . S
C243 N275 1.343 . S
C244 C245 1.384 . S
C244 C246 1.384 . S
C244 H266 0.931 . S
C245 C244 1.384 . S
C245 C248 1.382 . S
C246 C244 1.384 . S
C246 C247 1.381 . S
C246 H267 0.930 . S
C247 C246 1.381 . S
C247 C249 1.381 . S
C247 C250 1.487 . S
C248 C245 1.382 . S
C248 C249 1.387 . S
C248 H268 0.930 . S
C249 C247 1.381 . S
C249 C248 1.387 . S
C249 H269 0.931 . S
C250 C247 1.487 . S
C250 C257 1.399 . S
C250 N275 1.343 . S
C251 C252 1.384 . S
C251 C253 1.384 . S
C251 H270 0.931 . S
C252 C251 1.384 . S
C252 C255 1.382 . S
C253 C251 1.384 . S
C253 C254 1.381 . S
C253 H271 0.930 . S
C254 C253 1.381 . S
C254 C256 1.381 . S
C254 C257 1.487 . S
C255 C252 1.382 . S
C255 C256 1.387 . S
C255 H272 0.930 . S
C256 C254 1.381 . S
C256 C255 1.387 . S
C256 H273 0.931 . S
C257 C250 1.399 . S
C257 C254 1.487 . S
C257 N274 1.343 . S
H258 C230 0.931 . S
H259 C232 0.930 . S
H260 C234 0.930 . S
H261 C235 0.931 . S
H262 C237 0.931 . S
H263 C239 0.930 . S
H264 C241 0.930 . S
H265 C242 0.931 . S
H266 C244 0.931 . S
H267 C246 0.930 . S
H268 C248 0.930 . S
H269 C249 0.931 . S
H270 C251 0.931 . S
H271 C253 0.930 . S
H272 C255 0.930 . S
H273 C256 0.931 . S
N274 C236 1.343 . S
N274 C257 1.343 . S
N275 C243 1.343 . S
N275 C250 1.343 . S
C276 C277 1.384 . S
C276 C278 1.384 . S
C276 H304 0.931 . S
C277 C276 1.384 . S
C277 C280 1.382 . S
C278 C276 1.384 . S
C278 C279 1.381 . S
C278 H305 0.930 . S
C279 C278 1.381 . S
C279 C281 1.381 . S
C279 C282 1.487 . S
C280 C277 1.382 . S
C280 C281 1.387 . S
C280 H306 0.930 . S
C281 C279 1.381 . S
C281 C280 1.387 . S
C281 H307 0.931 1_565 S
C282 C279 1.487 . S
C282 C289 1.399 . S
C282 N320 1.343 1_565 S
C283 C284 1.384 . S
C283 C285 1.384 . S
C283 H308 0.931 . S
C284 C283 1.384 . S
C284 C287 1.382 . S
C285 C283 1.384 . S
C285 C286 1.381 . S
C285 H309 0.930 . S
C286 C285 1.381 . S
C286 C288 1.381 . S
C286 C289 1.487 . S
C287 C284 1.382 . S
C287 C288 1.387 . S
C287 H310 0.930 . S
C288 C286 1.381 . S
C288 C287 1.387 . S
C288 H311 0.931 . S
C289 C282 1.399 . S
C289 C286 1.487 . S
C289 N321 1.343 1_565 S
C290 C291 1.384 . S
C290 C292 1.384 . S
C290 H312 0.931 . S
C291 C290 1.384 . S
C291 C294 1.382 . S
C292 C290 1.384 . S
C292 C293 1.381 . S
C292 H313 0.930 . S
C293 C292 1.381 . S
C293 C295 1.381 . S
C293 C296 1.487 . S
C294 C291 1.382 . S
C294 C295 1.387 . S
C294 H314 0.930 . S
C295 C293 1.381 . S
C295 C294 1.387 . S
C295 H315 0.931 . S
C296 C293 1.487 . S
C296 C303 1.399 . S
C296 N321 1.343 . S
C297 C298 1.384 . S
C297 C299 1.384 . S
C297 H316 0.931 . S
C298 C297 1.384 . S
C298 C301 1.382 . S
C299 C297 1.384 . S
C299 C300 1.381 . S
C299 H317 0.930 . S
C300 C299 1.381 . S
C300 C302 1.381 . S
C300 C303 1.487 . S
C301 C298 1.382 . S
C301 C302 1.387 . S
C301 H318 0.930 . S
C302 C300 1.381 . S
C302 C301 1.387 . S
C302 H319 0.931 . S
C303 C296 1.399 . S
C303 C300 1.487 . S
C303 N320 1.343 . S
H304 C276 0.931 . S
H305 C278 0.930 . S
H306 C280 0.930 . S
H307 C281 0.931 1_545 S
H308 C283 0.931 . S
H309 C285 0.930 . S
H310 C287 0.930 . S
H311 C288 0.931 . S
H312 C290 0.931 . S
H313 C292 0.930 . S
H314 C294 0.930 . S
H315 C295 0.931 . S
H316 C297 0.931 . S
H317 C299 0.930 . S
H318 C301 0.930 . S
H319 C302 0.931 . S
N320 C282 1.343 1_545 S
N320 C303 1.343 . S
N321 C289 1.343 1_545 S
N321 C296 1.343 . S
C322 C323 1.384 . S
C322 C324 1.384 1_565 S
C322 H350 0.931 . S
C323 C322 1.384 . S
C323 C326 1.382 . S
C324 C322 1.384 1_545 S
C324 C325 1.381 . S
C324 H351 0.930 . S
C325 C324 1.381 . S
C325 C327 1.375 1_545 S
C325 C328 1.487 . S
C326 C323 1.382 . S
C326 C327 1.397 . S
C326 H352 0.930 . S
C327 C325 1.375 1_565 S
C327 C326 1.397 . S
C327 H353 0.929 1_565 S
C328 C325 1.487 . S
C328 C335 1.399 . S
C328 N366 1.343 . S
C329 C330 1.384 . S
C329 C331 1.384 . S
C329 H354 0.931 . S
C330 C329 1.384 . S
C330 C333 1.382 1_565 S
C331 C329 1.384 . S
C331 C332 1.381 1_565 S
C331 H355 0.930 . S
C332 C331 1.381 1_545 S
C332 C334 1.381 . S
C332 C335 1.487 . S
C333 C330 1.382 1_545 S
C333 C334 1.387 . S
C333 H356 0.930 . S
C334 C332 1.381 . S
C334 C333 1.387 . S
C334 H357 0.931 . S
C335 C328 1.399 . S
C335 C332 1.487 . S
C335 N367 1.343 . S
C336 C337 1.384 . S
C336 C338 1.384 . S
C336 H358 0.931 . S
C337 C336 1.384 . S
C337 C340 1.382 1_655 S
C338 C336 1.384 . S
C338 C339 1.381 1_655 S
C338 H359 0.930 . S
C339 C338 1.381 1_455 S
C339 C341 1.381 . S
C339 C342 1.487 . S
C340 C337 1.382 1_455 S
C340 C341 1.387 . S
C340 H360 0.930 . S
C341 C339 1.381 . S
C341 C340 1.387 . S
C341 H361 0.931 . S
C342 C339 1.487 . S
C342 C349 1.399 . S
C342 N367 1.343 . S
C343 C344 1.384 1_455 S
C343 C345 1.384 . S
C343 H362 0.931 . S
C344 C343 1.384 1_655 S
C344 C347 1.382 . S
C345 C343 1.384 . S
C345 C346 1.381 . S
C345 H363 0.930 . S
C346 C345 1.381 . S
C346 C348 1.381 1_455 S
C346 C349 1.487 . S
C347 C344 1.382 . S
C347 C348 1.387 . S
C347 H364 0.930 . S
C348 C346 1.381 1_655 S
C348 C347 1.387 . S
C348 H365 0.931 . S
C349 C342 1.399 . S
C349 C346 1.487 . S
C349 N366 1.343 . S
H350 C322 0.931 . S
H351 C324 0.930 . S
H352 C326 0.930 . S
H353 C327 0.929 1_545 S
H354 C329 0.931 . S
H355 C331 0.930 . S
H356 C333 0.930 . S
H357 C334 0.931 . S
H358 C336 0.931 . S
H359 C338 0.930 . S
H360 C340 0.930 . S
H361 C341 0.931 . S
H362 C343 0.931 . S
H363 C345 0.930 . S
H364 C347 0.930 . S
H365 C348 0.931 . S
N366 C328 1.343 . S
N366 C349 1.343 . S
N367 C335 1.343 . S
N367 C342 1.343 . S
C368 O369 1.306 . S
C368 O371 1.160 . S
O369 C368 1.306 . S
O369 Cd370 2.228 . S
Cd370 O369 2.228 . S
Cd370 O374 2.273 1_554 S
Cd370 O378 2.277 . S
O371 C368 1.160 . S
O371 Cd372 2.203 . S
Cd372 O371 2.203 . S
Cd372 O374 2.411 1_554 S
Cd372 O375 2.333 1_554 S
Cd372 O376 2.352 . S
Cd372 O380 2.277 . S
Cd372 O381 2.356 . S
C373 O378 1.209 . S
C373 O380 1.226 . S
O374 Cd370 2.273 1_556 S
O374 Cd372 2.411 1_556 S
O374 C377 1.320 . S
O375 Cd372 2.333 1_556 S
O375 C377 1.214 . S
O376 Cd372 2.352 . S
O376 C379 1.258 . S
C377 O374 1.320 . S
C377 O375 1.214 . S
O378 Cd370 2.277 . S
O378 C373 1.209 . S
C379 O376 1.258 . S
C379 O381 1.282 . S
O380 Cd372 2.277 . S
O380 C373 1.226 . S
O381 Cd372 2.356 . S
O381 C379 1.282 . S
C382 O383 1.306 . S
C382 O385 1.160 . S
O383 C382 1.306 . S
O383 Cd384 2.228 . S
Cd384 O383 2.228 . S
Cd384 O388 2.273 . S
Cd384 O392 2.277 . S
O385 C382 1.160 . S
O385 Cd386 2.203 . S
Cd386 O385 2.203 . S
Cd386 O388 2.411 . S
Cd386 O389 2.333 . S
Cd386 O390 2.352 . S
Cd386 O394 2.277 . S
Cd386 O395 2.356 . S
C387 O392 1.209 . S
C387 O394 1.226 . S
O388 Cd384 2.273 . S
O388 Cd386 2.411 . S
O388 C391 1.320 . S
O389 Cd386 2.333 . S
O389 C391 1.214 . S
O390 Cd386 2.352 . S
O390 C393 1.258 . S
C391 O388 1.320 . S
C391 O389 1.214 . S
O392 Cd384 2.277 . S
O392 C387 1.209 . S
C393 O390 1.258 . S
C393 O395 1.282 . S
O394 Cd386 2.277 . S
O394 C387 1.226 . S
O395 Cd386 2.356 . S
O395 C393 1.282 . S
C396 O397 1.306 . S
C396 O399 1.160 . S
O397 C396 1.306 . S
O397 Cd398 2.228 . S
Cd398 O397 2.228 . S
Cd398 O402 2.273 . S
Cd398 O406 2.277 . S
O399 C396 1.160 . S
O399 Cd400 2.203 . S
Cd400 O399 2.203 . S
Cd400 O402 2.411 . S
Cd400 O403 2.333 . S
Cd400 O404 2.352 . S
Cd400 O408 2.277 . S
Cd400 O409 2.356 . S
C401 O406 1.209 . S
C401 O408 1.226 . S
O402 Cd398 2.273 . S
O402 Cd400 2.411 . S
O402 C405 1.320 . S
O403 Cd400 2.333 . S
O403 C405 1.214 . S
O404 Cd400 2.352 . S
O404 C407 1.258 . S
C405 O402 1.320 . S
C405 O403 1.214 . S
O406 Cd398 2.277 . S
O406 C401 1.209 . S
C407 O404 1.258 . S
C407 O409 1.282 . S
O408 Cd400 2.277 . S
O408 C401 1.226 . S
O409 Cd400 2.356 . S
O409 C407 1.282 . S
C410 O411 1.306 . S
C410 O413 1.160 . S
O411 C410 1.306 . S
O411 Cd412 2.228 . S
Cd412 O411 2.228 . S
Cd412 O416 2.273 . S
Cd412 O420 2.277 . S
O413 C410 1.160 . S
O413 Cd414 2.203 . S
Cd414 O413 2.203 . S
Cd414 O416 2.411 . S
Cd414 O417 2.333 . S
Cd414 O418 2.352 . S
Cd414 O422 2.277 . S
Cd414 O423 2.356 . S
C415 O420 1.209 . S
C415 O422 1.226 . S
O416 Cd412 2.273 . S
O416 Cd414 2.411 . S
O416 C419 1.320 . S
O417 Cd414 2.333 . S
O417 C419 1.214 . S
O418 Cd414 2.352 . S
O418 C421 1.258 . S
C419 O416 1.320 . S
C419 O417 1.214 . S
O420 Cd412 2.277 . S
O420 C415 1.209 . S
C421 O418 1.258 . S
C421 O423 1.282 . S
O422 Cd414 2.277 . S
O422 C415 1.226 . S
O423 Cd414 2.356 . S
O423 C421 1.282 . S
C424 O425 1.306 . S
C424 O427 1.160 . S
O425 C424 1.306 . S
O425 Cd426 2.228 . S
Cd426 O425 2.228 . S
Cd426 O430 2.273 . S
Cd426 O434 2.277 . S
O427 C424 1.160 . S
O427 Cd428 2.203 . S
Cd428 O427 2.203 . S
Cd428 O430 2.411 . S
Cd428 O431 2.333 . S
Cd428 O432 2.352 . S
Cd428 O436 2.277 . S
Cd428 O437 2.356 . S
C429 O434 1.209 . S
C429 O436 1.226 . S
O430 Cd426 2.273 . S
O430 Cd428 2.411 . S
O430 C433 1.320 . S
O431 Cd428 2.333 . S
O431 C433 1.214 . S
O432 Cd428 2.352 . S
O432 C435 1.258 . S
C433 O430 1.320 . S
C433 O431 1.214 . S
O434 Cd426 2.277 . S
O434 C429 1.209 . S
C435 O432 1.258 . S
C435 O437 1.282 . S
O436 Cd428 2.277 . S
O436 C429 1.226 . S
O437 Cd428 2.356 . S
O437 C435 1.282 . S
C438 O439 1.306 . S
C438 O441 1.160 . S
O439 C438 1.306 . S
O439 Cd440 2.228 . S
Cd440 O439 2.228 . S
Cd440 O444 2.273 . S
Cd440 O448 2.277 . S
O441 C438 1.160 . S
O441 Cd442 2.203 . S
Cd442 O441 2.203 . S
Cd442 O444 2.411 . S
Cd442 O445 2.333 . S
Cd442 O446 2.352 . S
Cd442 O450 2.277 . S
Cd442 O451 2.356 . S
C443 O448 1.209 . S
C443 O450 1.226 . S
O444 Cd440 2.273 . S
O444 Cd442 2.411 . S
O444 C447 1.320 . S
O445 Cd442 2.333 . S
O445 C447 1.214 . S
O446 Cd442 2.352 . S
O446 C449 1.258 . S
C447 O444 1.320 . S
C447 O445 1.214 . S
O448 Cd440 2.277 . S
O448 C443 1.209 . S
C449 O446 1.258 . S
C449 O451 1.282 . S
O450 Cd442 2.277 . S
O450 C443 1.226 . S
O451 Cd442 2.356 . S
O451 C449 1.282 . S
C452 O453 1.306 . S
C452 O455 1.160 . S
O453 C452 1.306 . S
O453 Cd454 2.270 . S
Cd454 O453 2.270 . S
Cd454 O458 2.238 1_556 S
Cd454 O462 2.283 . S
O455 C452 1.160 . S
O455 Cd456 2.203 1_556 S
Cd456 O455 2.203 1_554 S
Cd456 O458 2.411 . S
Cd456 O459 2.333 . S
Cd456 O460 2.352 . S
Cd456 O464 2.277 1_554 S
Cd456 O465 2.356 . S
C457 O462 1.209 . S
C457 O464 1.226 . S
O458 Cd454 2.238 1_554 S
O458 Cd456 2.411 . S
O458 C461 1.320 . S
O459 Cd456 2.333 . S
O459 C461 1.214 . S
O460 Cd456 2.352 . S
O460 C463 1.258 . S
C461 O458 1.320 . S
C461 O459 1.214 . S
O462 Cd454 2.283 . S
O462 C457 1.209 . S
C463 O460 1.258 . S
C463 O465 1.282 . S
O464 Cd456 2.277 1_556 S
O464 C457 1.226 . S
O465 Cd456 2.356 . S
O465 C463 1.282 . S
C466 O467 1.306 . S
C466 O469 1.160 . S
O467 C466 1.306 . S
O467 Cd468 2.228 . S
Cd468 O467 2.228 . S
Cd468 O472 2.273 . S
Cd468 O476 2.277 . S
O469 C466 1.160 . S
O469 Cd470 2.203 . S
Cd470 O469 2.203 . S
Cd470 O472 2.411 . S
Cd470 O473 2.333 . S
Cd470 O474 2.352 . S
Cd470 O478 2.277 . S
Cd470 O479 2.356 . S
C471 O476 1.209 . S
C471 O478 1.226 . S
O472 Cd468 2.273 . S
O472 Cd470 2.411 . S
O472 C475 1.320 . S
O473 Cd470 2.333 . S
O473 C475 1.214 . S
O474 Cd470 2.352 . S
O474 C477 1.258 . S
C475 O472 1.320 . S
C475 O473 1.214 . S
O476 Cd468 2.277 . S
O476 C471 1.209 . S
C477 O474 1.258 . S
C477 O479 1.282 . S
O478 Cd470 2.277 . S
O478 C471 1.226 . S
O479 Cd470 2.356 . S
O479 C477 1.282 . S
C480 C481 1.391 . S
C480 C482 1.394 . S
C480 H496 0.931 . S
C481 C480 1.391 . S
C481 C485 1.376 . S
C482 C480 1.394 . S
C482 C483 1.369 . S
C482 C486 1.531 . S
C483 C482 1.369 . S
C483 C484 1.410 . S
C483 C491 1.503 . S
C484 C483 1.410 . S
C484 C485 1.392 . S
C484 C487 1.511 . S
C485 C481 1.376 . S
C485 C484 1.392 . S
C485 H497 0.929 . S
C486 C482 1.531 . S
C486 H498 0.960 . S
C486 H499 0.962 . S
C486 H500 0.960 . S
C487 C484 1.511 . S
C487 H501 0.961 . S
C487 H502 0.961 . S
C487 H503 0.961 . S
C488 C489 1.370 . S
C488 C490 1.363 . S
C488 H504 0.931 . S
C489 C488 1.370 . S
C489 C493 1.408 . S
C490 C488 1.363 . S
C490 C491 1.370 . S
C490 C494 1.524 . S
C491 C483 1.503 . S
C491 C490 1.370 . S
C491 C492 1.403 . S
C492 C491 1.403 . S
C492 C493 1.404 . S
C492 C495 1.539 . S
C493 C489 1.408 . S
C493 C492 1.404 . S
C493 H505 0.930 . S
C494 C490 1.524 . S
C494 H506 0.956 . S
C494 H507 0.961 . S
C494 H508 0.961 . S
C495 C492 1.539 . S
C495 H509 0.958 . S
C495 H510 0.961 . S
C495 H511 0.960 . S
H496 C480 0.931 . S
H497 C485 0.929 . S
H498 C486 0.960 . S
H499 C486 0.962 . S
H500 C486 0.960 . S
H501 C487 0.961 . S
H502 C487 0.961 . S
H503 C487 0.961 . S
H504 C488 0.931 . S
H505 C493 0.930 . S
H506 C494 0.956 . S
H507 C494 0.961 . S
H508 C494 0.961 . S
H509 C495 0.958 . S
H510 C495 0.961 . S
H511 C495 0.960 . S
C512 C513 1.391 . S
C512 C514 1.394 . S
C512 H528 0.931 . S
C513 C512 1.391 . S
C513 C517 1.376 . S
C514 C512 1.394 . S
C514 C515 1.369 . S
C514 C518 1.531 . S
C515 C514 1.369 . S
C515 C516 1.410 . S
C515 C523 1.503 . S
C516 C515 1.410 . S
C516 C517 1.392 . S
C516 C519 1.511 . S
C517 C513 1.376 . S
C517 C516 1.392 . S
C517 H529 0.929 . S
C518 C514 1.531 . S
C518 H530 0.960 . S
C518 H531 0.962 . S
C518 H532 0.960 . S
C519 C516 1.511 . S
C519 H533 0.961 . S
C519 H534 0.961 . S
C519 H535 0.961 . S
C520 C521 1.370 . S
C520 C522 1.363 . S
C520 H536 0.931 . S
C521 C520 1.370 . S
C521 C525 1.408 . S
C522 C520 1.363 . S
C522 C523 1.370 . S
C522 C526 1.524 . S
C523 C515 1.503 . S
C523 C522 1.370 . S
C523 C524 1.403 . S
C524 C523 1.403 . S
C524 C525 1.404 . S
C524 C527 1.539 . S
C525 C521 1.408 . S
C525 C524 1.404 . S
C525 H537 0.930 . S
C526 C522 1.524 . S
C526 H538 0.956 . S
C526 H539 0.961 . S
C526 H540 0.961 . S
C527 C524 1.539 . S
C527 H541 0.958 . S
C527 H542 0.961 . S
C527 H543 0.960 . S
H528 C512 0.931 . S
H529 C517 0.929 . S
H530 C518 0.960 . S
H531 C518 0.962 . S
H532 C518 0.960 . S
H533 C519 0.961 . S
H534 C519 0.961 . S
H535 C519 0.961 . S
H536 C520 0.931 . S
H537 C525 0.930 . S
H538 C526 0.956 . S
H539 C526 0.961 . S
H540 C526 0.961 . S
H541 C527 0.958 . S
H542 C527 0.961 . S
H543 C527 0.960 . S
C544 C545 1.391 . S
C544 C546 1.394 . S
C544 H560 0.931 . S
C545 C544 1.391 . S
C545 C549 1.376 . S
C546 C544 1.394 . S
C546 C547 1.369 . S
C546 C550 1.531 . S
C547 C546 1.369 . S
C547 C548 1.410 . S
C547 C555 1.503 . S
C548 C547 1.410 . S
C548 C549 1.392 . S
C548 C551 1.511 . S
C549 C545 1.376 . S
C549 C548 1.392 . S
C549 H561 0.929 . S
C550 C546 1.531 . S
C550 H562 0.960 . S
C550 H563 0.962 . S
C550 H564 0.960 . S
C551 C548 1.511 . S
C551 H565 0.961 . S
C551 H566 0.961 . S
C551 H567 0.961 . S
C552 C553 1.370 . S
C552 C554 1.363 . S
C552 H568 0.931 . S
C553 C552 1.370 . S
C553 C557 1.408 . S
C554 C552 1.363 . S
C554 C555 1.370 . S
C554 C558 1.524 . S
C555 C547 1.503 . S
C555 C554 1.370 . S
C555 C556 1.403 . S
C556 C555 1.403 . S
C556 C557 1.404 . S
C556 C559 1.539 . S
C557 C553 1.408 . S
C557 C556 1.404 . S
C557 H569 0.930 . S
C558 C554 1.524 . S
C558 H570 0.956 . S
C558 H571 0.961 . S
C558 H572 0.961 . S
C559 C556 1.539 . S
C559 H573 0.958 . S
C559 H574 0.961 . S
C559 H575 0.960 . S
H560 C544 0.931 . S
H561 C549 0.929 . S
H562 C550 0.960 . S
H563 C550 0.962 . S
H564 C550 0.960 . S
H565 C551 0.961 . S
H566 C551 0.961 . S
H567 C551 0.961 . S
H568 C552 0.931 . S
H569 C557 0.930 . S
H570 C558 0.956 . S
H571 C558 0.961 . S
H572 C558 0.961 . S
H573 C559 0.958 . S
H574 C559 0.961 . S
H575 C559 0.960 . S
C576 C577 1.391 . S
C576 C578 1.394 . S
C576 H592 0.931 . S
C577 C576 1.391 . S
C577 C581 1.376 . S
C578 C576 1.394 . S
C578 C579 1.369 . S
C578 C582 1.531 . S
C579 C578 1.369 . S
C579 C580 1.410 . S
C579 C587 1.503 . S
C580 C579 1.410 . S
C580 C581 1.392 . S
C580 C583 1.511 . S
C581 C577 1.376 . S
C581 C580 1.392 . S
C581 H593 0.929 . S
C582 C578 1.531 . S
C582 H594 0.960 . S
C582 H595 0.962 . S
C582 H596 0.960 . S
C583 C580 1.511 . S
C583 H597 0.961 . S
C583 H598 0.961 . S
C583 H599 0.961 . S
C584 C585 1.370 . S
C584 C586 1.363 . S
C584 H600 0.931 1_554 S
C585 C584 1.370 . S
C585 C589 1.408 . S
C586 C584 1.363 . S
C586 C587 1.370 . S
C586 C590 1.524 1_554 S
C587 C579 1.503 . S
C587 C586 1.370 . S
C587 C588 1.403 . S
C588 C587 1.403 . S
C588 C589 1.404 . S
C588 C591 1.539 . S
C589 C585 1.408 . S
C589 C588 1.404 . S
C589 H601 0.930 . S
C590 C586 1.524 1_556 S
C590 H602 0.956 . S
C590 H603 0.953 1_556 S
C590 H604 0.961 . S
C591 C588 1.539 . S
C591 H605 0.958 . S
C591 H606 0.961 . S
C591 H607 0.960 . S
H592 C576 0.931 . S
H593 C581 0.929 . S
H594 C582 0.960 . S
H595 C582 0.962 . S
H596 C582 0.960 . S
H597 C583 0.961 . S
H598 C583 0.961 . S
H599 C583 0.961 . S
H600 C584 0.931 1_556 S
H601 C589 0.930 . S
H602 C590 0.956 . S
H603 C590 0.953 1_554 S
H604 C590 0.961 . S
H605 C591 0.958 . S
H606 C591 0.961 . S
H607 C591 0.960 . S
C608 C609 1.391 . S
C608 C610 1.394 . S
C608 H624 0.931 . S
C609 C608 1.391 . S
C609 C613 1.376 . S
C610 C608 1.394 . S
C610 C611 1.369 . S
C610 C614 1.531 . S
C611 C610 1.369 . S
C611 C612 1.410 . S
C611 C619 1.503 . S
C612 C611 1.410 . S
C612 C613 1.392 . S
C612 C615 1.511 . S
C613 C609 1.376 . S
C613 C612 1.392 . S
C613 H625 0.929 . S
C614 C610 1.531 . S
C614 H626 0.960 1_556 S
C614 H627 0.962 . S
C614 H628 0.960 1_556 S
C615 C612 1.511 . S
C615 H629 0.961 . S
C615 H630 0.961 . S
C615 H631 0.961 . S
C616 C617 1.343 1_556 S
C616 C618 1.363 . S
C616 H632 0.931 . S
C617 C616 1.343 1_554 S
C617 C621 1.431 . S
C618 C616 1.363 . S
C618 C619 1.370 . S
C618 C622 1.524 . S
C619 C611 1.503 . S
C619 C618 1.370 . S
C619 C620 1.403 1_556 S
C620 C619 1.403 1_554 S
C620 C621 1.404 . S
C620 C623 1.539 . S
C621 C617 1.431 . S
C621 C620 1.404 . S
C621 H633 0.930 . S
C622 C618 1.524 . S
C622 H634 0.956 . S
C622 H635 0.961 . S
C622 H636 0.961 . S
C623 C620 1.539 . S
C623 H637 0.958 . S
C623 H638 0.961 . S
C623 H639 0.960 . S
H624 C608 0.931 . S
H625 C613 0.929 . S
H626 C614 0.960 1_554 S
H627 C614 0.962 . S
H628 C614 0.960 1_554 S
H629 C615 0.961 . S
H630 C615 0.961 . S
H631 C615 0.961 . S
H632 C616 0.931 . S
H633 C621 0.930 . S
H634 C622 0.956 . S
H635 C622 0.961 . S
H636 C622 0.961 . S
H637 C623 0.958 . S
H638 C623 0.961 . S
H639 C623 0.960 . S
C640 C641 1.391 . S
C640 C642 1.394 . S
C640 H656 0.931 . S
C641 C640 1.391 . S
C641 C645 1.376 . S
C642 C640 1.394 . S
C642 C643 1.369 . S
C642 C646 1.531 . S
C643 C642 1.369 . S
C643 C644 1.410 . S
C643 C651 1.503 . S
C644 C643 1.410 . S
C644 C645 1.392 . S
C644 C647 1.511 . S
C645 C641 1.376 . S
C645 C644 1.392 . S
C645 H657 0.929 . S
C646 C642 1.531 . S
C646 H658 0.960 . S
C646 H659 0.962 . S
C646 H660 0.960 . S
C647 C644 1.511 . S
C647 H661 0.961 . S
C647 H662 0.961 . S
C647 H663 0.961 . S
C648 C649 1.370 . S
C648 C650 1.363 . S
C648 H664 0.931 . S
C649 C648 1.370 . S
C649 C653 1.408 . S
C650 C648 1.363 . S
C650 C651 1.370 . S
C650 C654 1.524 . S
C651 C643 1.503 . S
C651 C650 1.370 . S
C651 C652 1.403 . S
C652 C651 1.403 . S
C652 C653 1.404 . S
C652 C655 1.539 . S
C653 C649 1.408 . S
C653 C652 1.404 . S
C653 H665 0.930 . S
C654 C650 1.524 . S
C654 H666 0.956 . S
C654 H667 0.961 . S
C654 H668 0.961 . S
C655 C652 1.539 . S
C655 H669 0.958 . S
C655 H670 0.961 . S
C655 H671 0.960 . S
H656 C640 0.931 . S
H657 C645 0.929 . S
H658 C646 0.960 . S
H659 C646 0.962 . S
H660 C646 0.960 . S
H661 C647 0.961 . S
H662 C647 0.961 . S
H663 C647 0.961 . S
H664 C648 0.931 . S
H665 C653 0.930 . S
H666 C654 0.956 . S
H667 C654 0.961 . S
H668 C654 0.961 . S
H669 C655 0.958 . S
H670 C655 0.961 . S
H671 C655 0.960 . S
C672 C673 1.391 . S
C672 C674 1.394 . S
C672 H688 0.931 . S
C673 C672 1.391 . S
C673 C677 1.376 . S
C674 C672 1.394 . S
C674 C675 1.369 . S
C674 C678 1.531 . S
C675 C674 1.369 . S
C675 C676 1.410 . S
C675 C683 1.503 . S
C676 C675 1.410 . S
C676 C677 1.392 . S
C676 C679 1.511 . S
C677 C673 1.376 . S
C677 C676 1.392 . S
C677 H689 0.929 . S
C678 C674 1.531 . S
C678 H690 0.960 . S
C678 H691 0.962 . S
C678 H692 0.960 . S
C679 C676 1.511 . S
C679 H693 0.961 . S
C679 H694 0.961 . S
C679 H695 0.961 . S
C680 C681 1.370 . S
C680 C682 1.363 . S
C680 H696 0.931 . S
C681 C680 1.370 . S
C681 C685 1.408 . S
C682 C680 1.363 . S
C682 C683 1.370 . S
C682 C686 1.524 . S
C683 C675 1.503 . S
C683 C682 1.370 . S
C683 C684 1.403 . S
C684 C683 1.403 . S
C684 C685 1.404 . S
C684 C687 1.539 . S
C685 C681 1.408 . S
C685 C684 1.404 . S
C685 H697 0.930 . S
C686 C682 1.524 . S
C686 H698 0.956 . S
C686 H699 0.961 . S
C686 H700 0.961 . S
C687 C684 1.539 . S
C687 H701 0.958 . S
C687 H702 0.961 . S
C687 H703 0.960 . S
H688 C672 0.931 . S
H689 C677 0.929 . S
H690 C678 0.960 . S
H691 C678 0.962 . S
H692 C678 0.960 . S
H693 C679 0.961 . S
H694 C679 0.961 . S
H695 C679 0.961 . S
H696 C680 0.931 . S
H697 C685 0.930 . S
H698 C686 0.956 . S
H699 C686 0.961 . S
H700 C686 0.961 . S
H701 C687 0.958 . S
H702 C687 0.961 . S
H703 C687 0.960 . S
C704 C705 1.391 . S
C704 C706 1.394 . S
C704 H720 0.931 . S
C705 C704 1.391 . S
C705 C709 1.376 . S
C706 C704 1.394 . S
C706 C707 1.369 . S
C706 C710 1.531 . S
C707 C706 1.369 . S
C707 C708 1.410 . S
C707 C715 1.503 . S
C708 C707 1.410 . S
C708 C709 1.392 . S
C708 C711 1.511 . S
C709 C705 1.376 . S
C709 C708 1.392 . S
C709 H721 0.929 . S
C710 C706 1.531 . S
C710 H722 0.960 . S
C710 H723 0.962 . S
C710 H724 0.960 . S
C711 C708 1.511 . S
C711 H725 0.961 . S
C711 H726 0.961 . S
C711 H727 0.961 . S
C712 C713 1.370 . S
C712 C714 1.363 . S
C712 H728 0.931 . S
C713 C712 1.370 . S
C713 C717 1.408 . S
C714 C712 1.363 . S
C714 C715 1.370 . S
C714 C718 1.524 . S
C715 C707 1.503 . S
C715 C714 1.370 . S
C715 C716 1.403 . S
C716 C715 1.403 . S
C716 C717 1.404 . S
C716 C719 1.539 . S
C717 C713 1.408 . S
C717 C716 1.404 . S
C717 H729 0.930 . S
C718 C714 1.524 . S
C718 H730 0.956 . S
C718 H731 0.961 . S
C718 H732 0.961 . S
C719 C716 1.539 . S
C719 H733 0.958 . S
C719 H734 0.961 . S
C719 H735 0.960 . S
H720 C704 0.931 . S
H721 C709 0.929 . S
H722 C710 0.960 . S
H723 C710 0.962 . S
H724 C710 0.960 . S
H725 C711 0.961 . S
H726 C711 0.961 . S
H727 C711 0.961 . S
H728 C712 0.931 . S
H729 C717 0.930 . S
H730 C718 0.956 . S
H731 C718 0.961 . S
H732 C718 0.961 . S
H733 C719 0.958 . S
H734 C719 0.961 . S
H735 C719 0.960 . S
C736 C737 1.391 . S
C736 C738 1.394 . S
C736 H752 0.931 . S
C737 C736 1.391 . S
C737 C741 1.376 . S
C738 C736 1.394 . S
C738 C739 1.369 . S
C738 C742 1.531 . S
C739 C738 1.369 . S
C739 C740 1.410 . S
C739 C747 1.503 . S
C740 C739 1.410 . S
C740 C741 1.392 . S
C740 C743 1.511 . S
C741 C737 1.376 . S
C741 C740 1.392 . S
C741 H753 0.929 . S
C742 C738 1.531 . S
C742 H754 0.960 . S
C742 H755 0.962 . S
C742 H756 0.960 . S
C743 C740 1.511 . S
C743 H757 0.961 . S
C743 H758 0.961 . S
C743 H759 0.961 . S
C744 C745 1.370 . S
C744 C746 1.363 . S
C744 H760 0.931 . S
C745 C744 1.370 . S
C745 C749 1.408 . S
C746 C744 1.363 . S
C746 C747 1.370 . S
C746 C750 1.524 . S
C747 C739 1.503 . S
C747 C746 1.370 . S
C747 C748 1.403 . S
C748 C747 1.403 . S
C748 C749 1.404 . S
C748 C751 1.539 . S
C749 C745 1.408 . S
C749 C748 1.404 . S
C749 H761 0.930 . S
C750 C746 1.524 . S
C750 H762 0.956 . S
C750 H763 0.961 . S
C750 H764 0.961 . S
C751 C748 1.539 . S
C751 H765 0.958 . S
C751 H766 0.961 . S
C751 H767 0.960 . S
H752 C736 0.931 . S
H753 C741 0.929 . S
H754 C742 0.960 . S
H755 C742 0.962 . S
H756 C742 0.960 . S
H757 C743 0.961 . S
H758 C743 0.961 . S
H759 C743 0.961 . S
H760 C744 0.931 . S
H761 C749 0.930 . S
H762 C750 0.956 . S
H763 C750 0.961 . S
H764 C750 0.961 . S
H765 C751 0.958 . S
H766 C751 0.961 . S
H767 C751 0.960 . S
C768 C769 1.391 . S
C768 C770 1.394 . S
C768 H784 0.931 . S
C769 C768 1.391 . S
C769 C773 1.376 . S
C770 C768 1.394 . S
C770 C771 1.369 . S
C770 C774 1.531 . S
C771 C770 1.369 . S
C771 C772 1.410 . S
C771 C779 1.503 . S
C772 C771 1.410 . S
C772 C773 1.392 . S
C772 C775 1.511 . S
C773 C769 1.376 . S
C773 C772 1.392 . S
C773 H785 0.929 . S
C774 C770 1.531 . S
C774 H786 0.960 . S
C774 H787 0.962 . S
C774 H788 0.960 . S
C775 C772 1.511 . S
C775 H789 0.961 . S
C775 H790 0.961 . S
C775 H791 0.961 1_554 S
C776 C777 1.370 . S
C776 C778 1.363 . S
C776 H792 0.931 . S
C777 C776 1.370 . S
C777 C781 1.383 1_554 S
C778 C776 1.363 . S
C778 C779 1.370 . S
C778 C782 1.524 . S
C779 C771 1.503 . S
C779 C778 1.370 . S
C779 C780 1.403 . S
C780 C779 1.403 . S
C780 C781 1.396 1_554 S
C780 C783 1.539 1_554 S
C781 C777 1.383 1_556 S
C781 C780 1.396 1_556 S
C781 H793 0.963 . S
C782 C778 1.524 . S
C782 H794 0.956 . S
C782 H795 0.961 . S
C782 H796 0.961 . S
C783 C780 1.539 1_556 S
C783 H797 0.958 . S
C783 H798 0.961 . S
C783 H799 0.960 . S
H784 C768 0.931 . S
H785 C773 0.929 . S
H786 C774 0.960 . S
H787 C774 0.962 . S
H788 C774 0.960 . S
H789 C775 0.961 . S
H790 C775 0.961 . S
H791 C775 0.961 1_556 S
H792 C776 0.931 . S
H793 C781 0.963 . S
H794 C782 0.956 . S
H795 C782 0.961 . S
H796 C782 0.961 . S
H797 C783 0.958 . S
H798 C783 0.961 . S
H799 C783 0.960 . S
C800 C801 1.391 . S
C800 C802 1.394 . S
C800 H816 0.931 . S
C801 C800 1.391 . S
C801 C805 1.376 . S
C802 C800 1.394 . S
C802 C803 1.369 . S
C802 C806 1.531 . S
C803 C802 1.369 . S
C803 C804 1.410 . S
C803 C811 1.503 . S
C804 C803 1.410 . S
C804 C805 1.392 . S
C804 C807 1.511 . S
C805 C801 1.376 . S
C805 C804 1.392 . S
C805 H817 0.929 . S
C806 C802 1.531 . S
C806 H818 0.960 . S
C806 H819 0.962 . S
C806 H820 0.960 . S
C807 C804 1.511 . S
C807 H821 0.961 . S
C807 H822 0.961 . S
C807 H823 0.961 . S
C808 C809 1.370 . S
C808 C810 1.363 . S
C808 H824 0.931 . S
C809 C808 1.370 . S
C809 C813 1.408 . S
C810 C808 1.363 . S
C810 C811 1.370 . S
C810 C814 1.524 . S
C811 C803 1.503 . S
C811 C810 1.370 . S
C811 C812 1.403 . S
C812 C811 1.403 . S
C812 C813 1.404 . S
C812 C815 1.539 . S
C813 C809 1.408 . S
C813 C812 1.404 . S
C813 H825 0.930 . S
C814 C810 1.524 . S
C814 H826 0.956 . S
C814 H827 0.961 . S
C814 H828 0.961 . S
C815 C812 1.539 . S
C815 H829 0.958 . S
C815 H830 0.961 . S
C815 H831 0.960 . S
H816 C800 0.931 . S
H817 C805 0.929 . S
H818 C806 0.960 . S
H819 C806 0.962 . S
H820 C806 0.960 . S
H821 C807 0.961 . S
H822 C807 0.961 . S
H823 C807 0.961 . S
H824 C808 0.931 . S
H825 C813 0.930 . S
H826 C814 0.956 . S
H827 C814 0.961 . S
H828 C814 0.961 . S
H829 C815 0.958 . S
H830 C815 0.961 . S
H831 C815 0.960 . S
C832 C833 1.391 . S
C832 C834 1.394 . S
C832 H848 0.931 . S
C833 C832 1.391 . S
C833 C837 1.376 . S
C834 C832 1.394 . S
C834 C835 1.369 . S
C834 C838 1.531 . S
C835 C834 1.369 . S
C835 C836 1.410 . S
C835 C843 1.503 . S
C836 C835 1.410 . S
C836 C837 1.392 . S
C836 C839 1.511 . S
C837 C833 1.376 . S
C837 C836 1.392 . S
C837 H849 0.929 . S
C838 C834 1.531 . S
C838 H850 0.960 . S
C838 H851 0.962 . S
C838 H852 0.960 . S
C839 C836 1.511 . S
C839 H853 0.961 . S
C839 H854 0.961 . S
C839 H855 0.961 . S
C840 C841 1.370 . S
C840 C842 1.363 . S
C840 H856 0.931 . S
C841 C840 1.370 . S
C841 C845 1.408 . S
C842 C840 1.363 . S
C842 C843 1.370 . S
C842 C846 1.524 . S
C843 C835 1.503 . S
C843 C842 1.370 . S
C843 C844 1.403 . S
C844 C843 1.403 . S
C844 C845 1.404 . S
C844 C847 1.539 . S
C845 C841 1.408 . S
C845 C844 1.404 . S
C845 H857 0.930 . S
C846 C842 1.524 . S
C846 H858 0.956 . S
C846 H859 0.961 . S
C846 H860 0.961 . S
C847 C844 1.539 . S
C847 H861 0.958 . S
C847 H862 0.961 . S
C847 H863 0.960 . S
H848 C832 0.931 . S
H849 C837 0.929 . S
H850 C838 0.960 . S
H851 C838 0.962 . S
H852 C838 0.960 . S
H853 C839 0.961 . S
H854 C839 0.961 . S
H855 C839 0.961 . S
H856 C840 0.931 . S
H857 C845 0.930 . S
H858 C846 0.956 . S
H859 C846 0.961 . S
H860 C846 0.961 . S
H861 C847 0.958 . S
H862 C847 0.961 . S
H863 C847 0.960 . S
C864 C865 1.391 . S
C864 C866 1.394 . S
C864 H880 0.931 . S
C865 C864 1.391 . S
C865 C869 1.376 . S
C866 C864 1.394 . S
C866 C867 1.369 . S
C866 C870 1.531 . S
C867 C866 1.369 . S
C867 C868 1.410 . S
C867 C875 1.503 . S
C868 C867 1.410 . S
C868 C869 1.392 . S
C868 C871 1.511 . S
C869 C865 1.376 . S
C869 C868 1.392 . S
C869 H881 0.929 . S
C870 C866 1.531 . S
C870 H882 0.960 . S
C870 H883 0.962 . S
C870 H884 0.960 . S
C871 C868 1.511 . S
C871 H885 0.961 . S
C871 H886 0.961 . S
C871 H887 0.961 . S
C872 C873 1.370 . S
C872 C874 1.363 . S
C872 H888 0.931 . S
C873 C872 1.370 . S
C873 C877 1.408 . S
C874 C872 1.363 . S
C874 C875 1.370 . S
C874 C878 1.524 . S
C875 C867 1.503 . S
C875 C874 1.370 . S
C875 C876 1.403 . S
C876 C875 1.403 . S
C876 C877 1.404 . S
C876 C879 1.539 . S
C877 C873 1.408 . S
C877 C876 1.404 . S
C877 H889 0.930 . S
C878 C874 1.524 . S
C878 H890 0.956 . S
C878 H891 0.961 . S
C878 H892 0.961 . S
C879 C876 1.539 . S
C879 H893 0.958 . S
C879 H894 0.961 . S
C879 H895 0.960 . S
H880 C864 0.931 . S
H881 C869 0.929 . S
H882 C870 0.960 . S
H883 C870 0.962 . S
H884 C870 0.960 . S
H885 C871 0.961 . S
H886 C871 0.961 . S
H887 C871 0.961 . S
H888 C872 0.931 . S
H889 C877 0.930 . S
H890 C878 0.956 . S
H891 C878 0.961 . S
H892 C878 0.961 . S
H893 C879 0.958 . S
H894 C879 0.961 . S
H895 C879 0.960 . S
C896 C897 1.391 . S
C896 C898 1.394 . S
C896 H912 0.931 . S
C897 C896 1.391 . S
C897 C901 1.376 . S
C898 C896 1.394 . S
C898 C899 1.369 . S
C898 C902 1.531 . S
C899 C898 1.369 . S
C899 C900 1.410 . S
C899 C907 1.503 . S
C900 C899 1.410 . S
C900 C901 1.392 . S
C900 C903 1.511 . S
C901 C897 1.376 . S
C901 C900 1.392 . S
C901 H913 0.929 . S
C902 C898 1.531 . S
C902 H914 0.960 . S
C902 H915 0.962 . S
C902 H916 0.960 . S
C903 C900 1.511 . S
C903 H917 0.961 . S
C903 H918 0.961 . S
C903 H919 0.961 . S
C904 C905 1.370 . S
C904 C906 1.363 . S
C904 H920 0.931 . S
C905 C904 1.370 . S
C905 C909 1.408 . S
C906 C904 1.363 . S
C906 C907 1.370 . S
C906 C910 1.524 . S
C907 C899 1.503 . S
C907 C906 1.370 . S
C907 C908 1.403 . S
C908 C907 1.403 . S
C908 C909 1.404 . S
C908 C911 1.539 . S
C909 C905 1.408 . S
C909 C908 1.404 . S
C909 H921 0.930 . S
C910 C906 1.524 . S
C910 H922 0.956 . S
C910 H923 0.961 . S
C910 H924 0.961 . S
C911 C908 1.539 . S
C911 H925 0.958 . S
C911 H926 0.961 . S
C911 H927 0.960 . S
H912 C896 0.931 . S
H913 C901 0.929 . S
H914 C902 0.960 . S
H915 C902 0.962 . S
H916 C902 0.960 . S
H917 C903 0.961 . S
H918 C903 0.961 . S
H919 C903 0.961 . S
H920 C904 0.931 . S
H921 C909 0.930 . S
H922 C910 0.956 . S
H923 C910 0.961 . S
H924 C910 0.961 . S
H925 C911 0.958 . S
H926 C911 0.961 . S
H927 C911 0.960 . S
C928 C929 1.391 . S
C928 C930 1.394 . S
C928 H944 0.931 . S
C929 C928 1.391 . S
C929 C933 1.376 . S
C930 C928 1.394 . S
C930 C931 1.369 . S
C930 C934 1.531 . S
C931 C930 1.369 . S
C931 C932 1.410 . S
C931 C939 1.503 . S
C932 C931 1.410 . S
C932 C933 1.392 . S
C932 C935 1.511 . S
C933 C929 1.376 . S
C933 C932 1.392 . S
C933 H945 0.929 . S
C934 C930 1.531 . S
C934 H946 0.960 . S
C934 H947 0.962 . S
C934 H948 0.960 . S
C935 C932 1.511 . S
C935 H949 0.961 . S
C935 H950 0.961 . S
C935 H951 0.961 . S
C936 C937 1.370 1_554 S
C936 C938 1.363 1_554 S
C936 H952 0.931 . S
C937 C936 1.370 1_556 S
C937 C941 1.408 . S
C938 C936 1.363 1_556 S
C938 C939 1.370 . S
C938 C942 1.524 1_556 S
C939 C931 1.503 . S
C939 C938 1.370 . S
C939 C940 1.403 . S
C940 C939 1.403 . S
C940 C941 1.404 . S
C940 C943 1.539 . S
C941 C937 1.408 . S
C941 C940 1.404 . S
C941 H953 0.930 . S
C942 C938 1.524 1_554 S
C942 H954 0.956 . S
C942 H955 0.961 . S
C942 H956 0.961 . S
C943 C940 1.539 . S
C943 H957 0.958 . S
C943 H958 0.961 . S
C943 H959 0.960 . S
H944 C928 0.931 . S
H945 C933 0.929 . S
H946 C934 0.960 . S
H947 C934 0.962 . S
H948 C934 0.960 . S
H949 C935 0.961 . S
H950 C935 0.961 . S
H951 C935 0.961 . S
H952 C936 0.931 . S
H953 C941 0.930 . S
H954 C942 0.956 . S
H955 C942 0.961 . S
H956 C942 0.961 . S
H957 C943 0.958 . S
H958 C943 0.961 . S
H959 C943 0.960 . S
C960 C961 1.391 . S
C960 C962 1.394 . S
C960 H976 0.931 . S
C961 C960 1.391 . S
C961 C965 1.376 . S
C962 C960 1.394 . S
C962 C963 1.369 . S
C962 C966 1.531 . S
C963 C962 1.369 . S
C963 C964 1.410 . S
C963 C971 1.503 . S
C964 C963 1.410 . S
C964 C965 1.392 . S
C964 C967 1.511 . S
C965 C961 1.376 . S
C965 C964 1.392 . S
C965 H977 0.929 . S
C966 C962 1.531 . S
C966 H978 0.960 . S
C966 H979 0.962 . S
C966 H980 0.960 . S
C967 C964 1.511 . S
C967 H981 0.961 . S
C967 H982 0.961 . S
C967 H983 0.961 . S
C968 C969 1.370 . S
C968 C970 1.363 . S
C968 H984 0.931 . S
C969 C968 1.370 . S
C969 C973 1.408 . S
C970 C968 1.363 . S
C970 C971 1.370 . S
C970 C974 1.524 . S
C971 C963 1.503 . S
C971 C970 1.370 . S
C971 C972 1.403 . S
C972 C971 1.403 . S
C972 C973 1.404 . S
C972 C975 1.539 . S
C973 C969 1.408 . S
C973 C972 1.404 . S
C973 H985 0.930 . S
C974 C970 1.524 . S
C974 H986 0.956 . S
C974 H987 0.961 . S
C974 H988 0.961 . S
C975 C972 1.539 . S
C975 H989 0.958 . S
C975 H990 0.961 . S
C975 H991 0.960 . S
H976 C960 0.931 . S
H977 C965 0.929 . S
H978 C966 0.960 . S
H979 C966 0.962 . S
H980 C966 0.960 . S
H981 C967 0.961 . S
H982 C967 0.961 . S
H983 C967 0.961 . S
H984 C968 0.931 . S
H985 C973 0.930 . S
H986 C974 0.956 . S
H987 C974 0.961 . S
H988 C974 0.961 . S
H989 C975 0.958 . S
H990 C975 0.961 . S
H991 C975 0.960 . S
C992 C993 1.391 . S
C992 C994 1.394 . S
C992 H1008 0.931 . S
C993 C992 1.391 . S
C993 C997 1.376 . S
C994 C992 1.394 . S
C994 C995 1.369 . S
C994 C998 1.531 . S
C995 C994 1.369 . S
C995 C996 1.410 . S
C995 C1003 1.503 . S
C996 C995 1.410 . S
C996 C997 1.392 . S
C996 C999 1.511 . S
C997 C993 1.376 . S
C997 C996 1.392 . S
C997 H1009 0.929 . S
C998 C994 1.531 . S
C998 H1010 0.960 . S
C998 H1011 0.962 . S
C998 H1012 0.960 . S
C999 C996 1.511 . S
C999 H1013 0.961 . S
C999 H1014 0.961 . S
C999 H1015 0.961 . S
C1000 C1001 1.370 . S
C1000 C1002 1.363 . S
C1000 H1016 0.931 . S
C1001 C1000 1.370 . S
C1001 C1005 1.408 . S
C1002 C1000 1.363 . S
C1002 C1003 1.370 . S
C1002 C1006 1.524 . S
C1003 C995 1.503 . S
C1003 C1002 1.370 . S
C1003 C1004 1.403 . S
C1004 C1003 1.403 . S
C1004 C1005 1.404 . S
C1004 C1007 1.539 . S
C1005 C1001 1.408 . S
C1005 C1004 1.404 . S
C1005 H1017 0.930 . S
C1006 C1002 1.524 . S
C1006 H1018 0.956 . S
C1006 H1019 0.961 . S
C1006 H1020 0.961 . S
C1007 C1004 1.539 . S
C1007 H1021 0.958 . S
C1007 H1022 0.961 . S
C1007 H1023 0.960 . S
H1008 C992 0.931 . S
H1009 C997 0.929 . S
H1010 C998 0.960 . S
H1011 C998 0.962 . S
H1012 C998 0.960 . S
H1013 C999 0.961 . S
H1014 C999 0.961 . S
H1015 C999 0.961 . S
H1016 C1000 0.931 . S
H1017 C1005 0.930 . S
H1018 C1006 0.956 . S
H1019 C1006 0.961 . S
H1020 C1006 0.961 . S
H1021 C1007 0.958 . S
H1022 C1007 0.961 . S
H1023 C1007 0.960 . S
C1024 C1025 1.391 . S
C1024 C1026 1.394 . S
C1024 H1040 0.931 . S
C1025 C1024 1.391 . S
C1025 C1029 1.376 . S
C1026 C1024 1.394 . S
C1026 C1027 1.369 . S
C1026 C1030 1.531 . S
C1027 C1026 1.369 . S
C1027 C1028 1.410 . S
C1027 C1035 1.503 . S
C1028 C1027 1.410 . S
C1028 C1029 1.392 . S
C1028 C1031 1.511 . S
C1029 C1025 1.376 . S
C1029 C1028 1.392 . S
C1029 H1041 0.929 . S
C1030 C1026 1.531 . S
C1030 H1042 0.960 . S
C1030 H1043 0.962 . S
C1030 H1044 0.960 . S
C1031 C1028 1.511 . S
C1031 H1045 0.961 . S
C1031 H1046 0.961 . S
C1031 H1047 0.961 . S
C1032 C1033 1.370 . S
C1032 C1034 1.363 . S
C1032 H1048 0.931 . S
C1033 C1032 1.370 . S
C1033 C1037 1.408 . S
C1034 C1032 1.363 . S
C1034 C1035 1.370 . S
C1034 C1038 1.524 . S
C1035 C1027 1.503 . S
C1035 C1034 1.370 . S
C1035 C1036 1.403 . S
C1036 C1035 1.403 . S
C1036 C1037 1.404 . S
C1036 C1039 1.539 . S
C1037 C1033 1.408 . S
C1037 C1036 1.404 . S
C1037 H1049 0.930 . S
C1038 C1034 1.524 . S
C1038 H1050 0.956 . S
C1038 H1051 0.961 . S
C1038 H1052 0.961 . S
C1039 C1036 1.539 . S
C1039 H1053 0.958 . S
C1039 H1054 0.961 . S
C1039 H1055 0.960 . S
H1040 C1024 0.931 . S
H1041 C1029 0.929 . S
H1042 C1030 0.960 . S
H1043 C1030 0.962 . S
H1044 C1030 0.960 . S
H1045 C1031 0.961 . S
H1046 C1031 0.961 . S
H1047 C1031 0.961 . S
H1048 C1032 0.931 . S
H1049 C1037 0.930 . S
H1050 C1038 0.956 . S
H1051 C1038 0.961 . S
H1052 C1038 0.961 . S
H1053 C1039 0.958 . S
H1054 C1039 0.961 . S
H1055 C1039 0.960 . S
C1056 C1057 1.391 . S
C1056 C1058 1.394 . S
C1056 H1072 0.931 . S
C1057 C1056 1.391 . S
C1057 C1061 1.376 . S
C1058 C1056 1.394 . S
C1058 C1059 1.369 . S
C1058 C1062 1.531 . S
C1059 C1058 1.369 . S
C1059 C1060 1.410 . S
C1059 C1067 1.503 . S
C1060 C1059 1.410 . S
C1060 C1061 1.392 . S
C1060 C1063 1.511 . S
C1061 C1057 1.376 . S
C1061 C1060 1.392 . S
C1061 H1073 0.929 . S
C1062 C1058 1.531 . S
C1062 H1074 0.960 . S
C1062 H1075 0.962 . S
C1062 H1076 0.960 . S
C1063 C1060 1.511 . S
C1063 H1077 0.961 . S
C1063 H1078 0.961 . S
C1063 H1079 0.961 . S
C1064 C1065 1.370 . S
C1064 C1066 1.363 . S
C1064 H1080 0.931 . S
C1065 C1064 1.370 . S
C1065 C1069 1.408 . S
C1066 C1064 1.363 . S
C1066 C1067 1.370 . S
C1066 C1070 1.524 . S
C1067 C1059 1.503 . S
C1067 C1066 1.370 . S
C1067 C1068 1.403 . S
C1068 C1067 1.403 . S
C1068 C1069 1.404 . S
C1068 C1071 1.539 . S
C1069 C1065 1.408 . S
C1069 C1068 1.404 . S
C1069 H1081 0.930 . S
C1070 C1066 1.524 . S
C1070 H1082 0.956 . S
C1070 H1083 0.961 . S
C1070 H1084 0.961 . S
C1071 C1068 1.539 . S
C1071 H1085 0.958 . S
C1071 H1086 0.961 . S
C1071 H1087 0.960 . S
H1072 C1056 0.931 . S
H1073 C1061 0.929 . S
H1074 C1062 0.960 . S
H1075 C1062 0.962 . S
H1076 C1062 0.960 . S
H1077 C1063 0.961 . S
H1078 C1063 0.961 . S
H1079 C1063 0.961 . S
H1080 C1064 0.931 . S
H1081 C1069 0.930 . S
H1082 C1070 0.956 . S
H1083 C1070 0.961 . S
H1084 C1070 0.961 . S
H1085 C1071 0.958 . S
H1086 C1071 0.961 . S
H1087 C1071 0.960 . S
C1088 C1089 1.391 . S
C1088 C1090 1.394 . S
C1088 H1104 0.931 . S
C1089 C1088 1.391 . S
C1089 C1093 1.376 . S
C1090 C1088 1.394 . S
C1090 C1091 1.369 . S
C1090 C1094 1.531 . S
C1091 C1090 1.369 . S
C1091 C1092 1.410 . S
C1091 C1099 1.503 . S
C1092 C1091 1.410 . S
C1092 C1093 1.392 . S
C1092 C1095 1.511 . S
C1093 C1089 1.376 . S
C1093 C1092 1.392 . S
C1093 H1105 0.929 . S
C1094 C1090 1.531 . S
C1094 H1106 0.960 . S
C1094 H1107 0.962 . S
C1094 H1108 0.960 . S
C1095 C1092 1.511 . S
C1095 H1109 0.961 . S
C1095 H1110 0.961 . S
C1095 H1111 0.961 . S
C1096 C1097 1.370 . S
C1096 C1098 1.363 . S
C1096 H1112 0.931 . S
C1097 C1096 1.370 . S
C1097 C1101 1.408 . S
C1098 C1096 1.363 . S
C1098 C1099 1.370 . S
C1098 C1102 1.524 . S
C1099 C1091 1.503 . S
C1099 C1098 1.370 . S
C1099 C1100 1.403 . S
C1100 C1099 1.403 . S
C1100 C1101 1.404 . S
C1100 C1103 1.539 . S
C1101 C1097 1.408 . S
C1101 C1100 1.404 . S
C1101 H1113 0.930 . S
C1102 C1098 1.524 . S
C1102 H1114 0.956 . S
C1102 H1115 0.961 . S
C1102 H1116 0.961 . S
C1103 C1100 1.539 . S
C1103 H1117 0.958 . S
C1103 H1118 0.961 . S
C1103 H1119 0.960 . S
H1104 C1088 0.931 . S
H1105 C1093 0.929 . S
H1106 C1094 0.960 . S
H1107 C1094 0.962 . S
H1108 C1094 0.960 . S
H1109 C1095 0.961 . S
H1110 C1095 0.961 . S
H1111 C1095 0.961 . S
H1112 C1096 0.931 . S
H1113 C1101 0.930 . S
H1114 C1102 0.956 . S
H1115 C1102 0.961 . S
H1116 C1102 0.961 . S
H1117 C1103 0.958 . S
H1118 C1103 0.961 . S
H1119 C1103 0.960 . S
C1120 C1121 1.391 . S
C1120 C1122 1.394 . S
C1120 H1136 0.931 . S
C1121 C1120 1.391 . S
C1121 C1125 1.376 . S
C1122 C1120 1.394 . S
C1122 C1123 1.369 . S
C1122 C1126 1.531 . S
C1123 C1122 1.369 . S
C1123 C1124 1.410 . S
C1123 C1131 1.503 . S
C1124 C1123 1.410 . S
C1124 C1125 1.392 . S
C1124 C1127 1.511 . S
C1125 C1121 1.376 . S
C1125 C1124 1.392 . S
C1125 H1137 0.929 . S
C1126 C1122 1.531 . S
C1126 H1138 0.960 . S
C1126 H1139 0.962 . S
C1126 H1140 0.960 . S
C1127 C1124 1.511 . S
C1127 H1141 0.961 . S
C1127 H1142 0.961 . S
C1127 H1143 0.961 . S
C1128 C1129 1.370 . S
C1128 C1130 1.363 . S
C1128 H1144 0.931 . S
C1129 C1128 1.370 . S
C1129 C1133 1.408 . S
C1130 C1128 1.363 . S
C1130 C1131 1.370 . S
C1130 C1134 1.524 . S
C1131 C1123 1.503 . S
C1131 C1130 1.370 . S
C1131 C1132 1.403 . S
C1132 C1131 1.403 . S
C1132 C1133 1.404 . S
C1132 C1135 1.539 . S
C1133 C1129 1.408 . S
C1133 C1132 1.404 . S
C1133 H1145 0.930 . S
C1134 C1130 1.524 . S
C1134 H1146 0.956 . S
C1134 H1147 0.961 . S
C1134 H1148 0.961 . S
C1135 C1132 1.539 . S
C1135 H1149 0.958 . S
C1135 H1150 0.961 . S
C1135 H1151 0.960 . S
H1136 C1120 0.931 . S
H1137 C1125 0.929 . S
H1138 C1126 0.960 . S
H1139 C1126 0.962 . S
H1140 C1126 0.960 . S
H1141 C1127 0.961 . S
H1142 C1127 0.961 . S
H1143 C1127 0.961 . S
H1144 C1128 0.931 . S
H1145 C1133 0.930 . S
H1146 C1134 0.956 . S
H1147 C1134 0.961 . S
H1148 C1134 0.961 . S
H1149 C1135 0.958 . S
H1150 C1135 0.961 . S
H1151 C1135 0.960 . S
C1152 C1153 1.391 . S
C1152 C1154 1.394 . S
C1152 H1168 0.931 . S
C1153 C1152 1.391 . S
C1153 C1157 1.376 . S
C1154 C1152 1.394 . S
C1154 C1155 1.369 . S
C1154 C1158 1.531 . S
C1155 C1154 1.369 . S
C1155 C1156 1.410 . S
C1155 C1163 1.503 . S
C1156 C1155 1.410 . S
C1156 C1157 1.392 . S
C1156 C1159 1.511 . S
C1157 C1153 1.376 . S
C1157 C1156 1.392 . S
C1157 H1169 0.929 . S
C1158 C1154 1.531 . S
C1158 H1170 0.960 . S
C1158 H1171 0.962 . S
C1158 H1172 0.960 . S
C1159 C1156 1.511 . S
C1159 H1173 0.961 . S
C1159 H1174 0.961 . S
C1159 H1175 0.961 . S
C1160 C1161 1.370 . S
C1160 C1162 1.363 . S
C1160 H1176 0.931 . S
C1161 C1160 1.370 . S
C1161 C1165 1.408 . S
C1162 C1160 1.363 . S
C1162 C1163 1.370 . S
C1162 C1166 1.524 . S
C1163 C1155 1.503 . S
C1163 C1162 1.370 . S
C1163 C1164 1.403 . S
C1164 C1163 1.403 . S
C1164 C1165 1.404 . S
C1164 C1167 1.539 . S
C1165 C1161 1.408 . S
C1165 C1164 1.404 . S
C1165 H1177 0.930 . S
C1166 C1162 1.524 . S
C1166 H1178 0.956 . S
C1166 H1179 0.961 . S
C1166 H1180 0.961 . S
C1167 C1164 1.539 . S
C1167 H1181 0.958 . S
C1167 H1182 0.961 . S
C1167 H1183 0.960 . S
H1168 C1152 0.931 . S
H1169 C1157 0.929 . S
H1170 C1158 0.960 . S
H1171 C1158 0.962 . S
H1172 C1158 0.960 . S
H1173 C1159 0.961 . S
H1174 C1159 0.961 . S
H1175 C1159 0.961 . S
H1176 C1160 0.931 . S
H1177 C1165 0.930 . S
H1178 C1166 0.956 . S
H1179 C1166 0.961 . S
H1180 C1166 0.961 . S
H1181 C1167 0.958 . S
H1182 C1167 0.961 . S
H1183 C1167 0.960 . S
C1184 C1185 1.391 . S
C1184 C1186 1.394 . S
C1184 H1200 0.931 . S
C1185 C1184 1.391 . S
C1185 C1189 1.376 . S
C1186 C1184 1.394 . S
C1186 C1187 1.369 . S
C1186 C1190 1.531 . S
C1187 C1186 1.369 . S
C1187 C1188 1.410 . S
C1187 C1195 1.503 . S
C1188 C1187 1.410 . S
C1188 C1189 1.392 . S
C1188 C1191 1.511 . S
C1189 C1185 1.376 . S
C1189 C1188 1.392 . S
C1189 H1201 0.929 . S
C1190 C1186 1.531 . S
C1190 H1202 0.960 . S
C1190 H1203 0.962 . S
C1190 H1204 0.960 . S
C1191 C1188 1.511 . S
C1191 H1205 0.961 . S
C1191 H1206 0.961 . S
C1191 H1207 0.961 . S
C1192 C1193 1.370 . S
C1192 C1194 1.363 . S
C1192 H1208 0.931 . S
C1193 C1192 1.370 . S
C1193 C1197 1.408 . S
C1194 C1192 1.363 . S
C1194 C1195 1.370 . S
C1194 C1198 1.524 . S
C1195 C1187 1.503 . S
C1195 C1194 1.370 . S
C1195 C1196 1.403 . S
C1196 C1195 1.403 . S
C1196 C1197 1.404 . S
C1196 C1199 1.539 . S
C1197 C1193 1.408 . S
C1197 C1196 1.404 . S
C1197 H1209 0.930 . S
C1198 C1194 1.524 . S
C1198 H1210 0.956 . S
C1198 H1211 0.961 . S
C1198 H1212 0.961 . S
C1199 C1196 1.539 . S
C1199 H1213 0.958 . S
C1199 H1214 0.961 . S
C1199 H1215 0.960 . S
H1200 C1184 0.931 . S
H1201 C1189 0.929 . S
H1202 C1190 0.960 . S
H1203 C1190 0.962 . S
H1204 C1190 0.960 . S
H1205 C1191 0.961 . S
H1206 C1191 0.961 . S
H1207 C1191 0.961 . S
H1208 C1192 0.931 . S
H1209 C1197 0.930 . S
H1210 C1198 0.956 . S
H1211 C1198 0.961 . S
H1212 C1198 0.961 . S
H1213 C1199 0.958 . S
H1214 C1199 0.961 . S
H1215 C1199 0.960 . S
C1216 C1217 1.391 . S
C1216 C1218 1.394 . S
C1216 H1232 0.931 . S
C1217 C1216 1.391 . S
C1217 C1221 1.376 . S
C1218 C1216 1.394 . S
C1218 C1219 1.369 . S
C1218 C1222 1.531 . S
C1219 C1218 1.369 . S
C1219 C1220 1.410 . S
C1219 C1227 1.503 . S
C1220 C1219 1.410 . S
C1220 C1221 1.392 . S
C1220 C1223 1.511 . S
C1221 C1217 1.376 . S
C1221 C1220 1.392 . S
C1221 H1233 0.929 . S
C1222 C1218 1.531 . S
C1222 H1234 0.960 . S
C1222 H1235 0.962 . S
C1222 H1236 0.960 . S
C1223 C1220 1.511 . S
C1223 H1237 0.961 . S
C1223 H1238 0.961 . S
C1223 H1239 0.961 . S
C1224 C1225 1.370 . S
C1224 C1226 1.363 . S
C1224 H1240 0.931 . S
C1225 C1224 1.370 . S
C1225 C1229 1.408 . S
C1226 C1224 1.363 . S
C1226 C1227 1.370 . S
C1226 C1230 1.524 . S
C1227 C1219 1.503 . S
C1227 C1226 1.370 . S
C1227 C1228 1.403 . S
C1228 C1227 1.403 . S
C1228 C1229 1.404 . S
C1228 C1231 1.539 . S
C1229 C1225 1.408 . S
C1229 C1228 1.404 . S
C1229 H1241 0.930 . S
C1230 C1226 1.524 . S
C1230 H1242 0.956 . S
C1230 H1243 0.961 . S
C1230 H1244 0.961 . S
C1231 C1228 1.539 . S
C1231 H1245 0.958 . S
C1231 H1246 0.961 . S
C1231 H1247 0.960 . S
H1232 C1216 0.931 . S
H1233 C1221 0.929 . S
H1234 C1222 0.960 . S
H1235 C1222 0.962 . S
H1236 C1222 0.960 . S
H1237 C1223 0.961 . S
H1238 C1223 0.961 . S
H1239 C1223 0.961 . S
H1240 C1224 0.931 . S
H1241 C1229 0.930 . S
H1242 C1230 0.956 . S
H1243 C1230 0.961 . S
H1244 C1230 0.961 . S
H1245 C1231 0.958 . S
H1246 C1231 0.961 . S
H1247 C1231 0.960 . S
C1248 C1249 1.391 . S
C1248 C1250 1.394 . S
C1248 H1264 0.931 . S
C1249 C1248 1.391 . S
C1249 C1253 1.376 . S
C1250 C1248 1.394 . S
C1250 C1251 1.369 . S
C1250 C1254 1.531 . S
C1251 C1250 1.369 . S
C1251 C1252 1.410 . S
C1251 C1259 1.503 . S
C1252 C1251 1.410 . S
C1252 C1253 1.392 . S
C1252 C1255 1.511 . S
C1253 C1249 1.376 . S
C1253 C1252 1.392 . S
C1253 H1265 0.929 . S
C1254 C1250 1.531 . S
C1254 H1266 0.960 . S
C1254 H1267 0.962 . S
C1254 H1268 0.960 . S
C1255 C1252 1.511 . S
C1255 H1269 0.961 . S
C1255 H1270 0.961 . S
C1255 H1271 0.961 . S
C1256 C1257 1.370 . S
C1256 C1258 1.363 . S
C1256 H1272 0.931 . S
C1257 C1256 1.370 . S
C1257 C1261 1.408 . S
C1258 C1256 1.363 . S
C1258 C1259 1.370 . S
C1258 C1262 1.524 . S
C1259 C1251 1.503 . S
C1259 C1258 1.370 . S
C1259 C1260 1.403 . S
C1260 C1259 1.403 . S
C1260 C1261 1.404 . S
C1260 C1263 1.539 . S
C1261 C1257 1.408 . S
C1261 C1260 1.404 . S
C1261 H1273 0.930 . S
C1262 C1258 1.524 . S
C1262 H1274 0.956 . S
C1262 H1275 0.961 . S
C1262 H1276 0.961 . S
C1263 C1260 1.539 . S
C1263 H1277 0.958 . S
C1263 H1278 0.961 . S
C1263 H1279 0.960 . S
H1264 C1248 0.931 . S
H1265 C1253 0.929 . S
H1266 C1254 0.960 . S
H1267 C1254 0.962 . S
H1268 C1254 0.960 . S
H1269 C1255 0.961 . S
H1270 C1255 0.961 . S
H1271 C1255 0.961 . S
H1272 C1256 0.931 . S
H1273 C1261 0.930 . S
H1274 C1262 0.956 . S
H1275 C1262 0.961 . S
H1276 C1262 0.961 . S
H1277 C1263 0.958 . S
H1278 C1263 0.961 . S
H1279 C1263 0.960 . S
C1280 C1281 1.391 . S
C1280 C1282 1.394 . S
C1280 H1296 0.931 . S
C1281 C1280 1.391 . S
C1281 C1285 1.376 . S
C1282 C1280 1.394 . S
C1282 C1283 1.369 . S
C1282 C1286 1.531 . S
C1283 C1282 1.369 . S
C1283 C1284 1.410 . S
C1283 C1291 1.503 . S
C1284 C1283 1.410 . S
C1284 C1285 1.392 . S
C1284 C1287 1.511 . S
C1285 C1281 1.376 . S
C1285 C1284 1.392 . S
C1285 H1297 0.929 . S
C1286 C1282 1.531 . S
C1286 H1298 0.960 . S
C1286 H1299 0.962 . S
C1286 H1300 0.960 . S
C1287 C1284 1.511 . S
C1287 H1301 0.961 . S
C1287 H1302 0.961 . S
C1287 H1303 0.961 . S
C1288 C1289 1.370 . S
C1288 C1290 1.363 . S
C1288 H1304 0.931 . S
C1289 C1288 1.370 . S
C1289 C1293 1.408 . S
C1290 C1288 1.363 . S
C1290 C1291 1.370 . S
C1290 C1294 1.524 . S
C1291 C1283 1.503 . S
C1291 C1290 1.370 . S
C1291 C1292 1.403 . S
C1292 C1291 1.403 . S
C1292 C1293 1.404 . S
C1292 C1295 1.539 . S
C1293 C1289 1.408 . S
C1293 C1292 1.404 . S
C1293 H1305 0.930 . S
C1294 C1290 1.524 . S
C1294 H1306 0.956 . S
C1294 H1307 0.961 . S
C1294 H1308 0.961 . S
C1295 C1292 1.539 . S
C1295 H1309 0.958 . S
C1295 H1310 0.961 . S
C1295 H1311 0.960 . S
H1296 C1280 0.931 . S
H1297 C1285 0.929 . S
H1298 C1286 0.960 . S
H1299 C1286 0.962 . S
H1300 C1286 0.960 . S
H1301 C1287 0.961 . S
H1302 C1287 0.961 . S
H1303 C1287 0.961 . S
H1304 C1288 0.931 . S
H1305 C1293 0.930 . S
H1306 C1294 0.956 . S
H1307 C1294 0.961 . S
H1308 C1294 0.961 . S
H1309 C1295 0.958 . S
H1310 C1295 0.961 . S
H1311 C1295 0.960 . S
C1312 C1313 1.391 . S
C1312 C1314 1.394 . S
C1312 H1328 0.931 . S
C1313 C1312 1.391 . S
C1313 C1317 1.376 . S
C1314 C1312 1.394 . S
C1314 C1315 1.369 . S
C1314 C1318 1.531 . S
C1315 C1314 1.369 . S
C1315 C1316 1.410 . S
C1315 C1323 1.503 . S
C1316 C1315 1.410 . S
C1316 C1317 1.392 . S
C1316 C1319 1.511 . S
C1317 C1313 1.376 . S
C1317 C1316 1.392 . S
C1317 H1329 0.929 . S
C1318 C1314 1.531 . S
C1318 H1330 0.960 . S
C1318 H1331 0.962 . S
C1318 H1332 0.960 . S
C1319 C1316 1.511 . S
C1319 H1333 0.961 . S
C1319 H1334 0.961 . S
C1319 H1335 0.961 . S
C1320 C1321 1.370 . S
C1320 C1322 1.363 . S
C1320 H1336 0.931 . S
C1321 C1320 1.370 . S
C1321 C1325 1.408 . S
C1322 C1320 1.363 . S
C1322 C1323 1.370 . S
C1322 C1326 1.524 . S
C1323 C1315 1.503 . S
C1323 C1322 1.370 . S
C1323 C1324 1.403 . S
C1324 C1323 1.403 . S
C1324 C1325 1.404 . S
C1324 C1327 1.539 . S
C1325 C1321 1.408 . S
C1325 C1324 1.404 . S
C1325 H1337 0.930 . S
C1326 C1322 1.524 . S
C1326 H1338 0.956 . S
C1326 H1339 0.961 . S
C1326 H1340 0.961 . S
C1327 C1324 1.539 . S
C1327 H1341 0.958 . S
C1327 H1342 0.961 . S
C1327 H1343 0.960 . S
H1328 C1312 0.931 . S
H1329 C1317 0.929 . S
H1330 C1318 0.960 . S
H1331 C1318 0.962 . S
H1332 C1318 0.960 . S
H1333 C1319 0.961 . S
H1334 C1319 0.961 . S
H1335 C1319 0.961 . S
H1336 C1320 0.931 . S
H1337 C1325 0.930 . S
H1338 C1326 0.956 . S
H1339 C1326 0.961 . S
H1340 C1326 0.961 . S
H1341 C1327 0.958 . S
H1342 C1327 0.961 . S
H1343 C1327 0.960 . S
C1344 C1345 1.391 . S
C1344 C1346 1.394 . S
C1344 H1360 0.931 . S
C1345 C1344 1.391 . S
C1345 C1349 1.376 . S
C1346 C1344 1.394 . S
C1346 C1347 1.369 . S
C1346 C1350 1.531 . S
C1347 C1346 1.369 . S
C1347 C1348 1.410 . S
C1347 C1355 1.503 . S
C1348 C1347 1.410 . S
C1348 C1349 1.392 . S
C1348 C1351 1.511 . S
C1349 C1345 1.376 . S
C1349 C1348 1.392 . S
C1349 H1361 0.929 . S
C1350 C1346 1.531 . S
C1350 H1362 0.960 . S
C1350 H1363 0.962 . S
C1350 H1364 0.960 . S
C1351 C1348 1.511 . S
C1351 H1365 0.961 . S
C1351 H1366 0.961 . S
C1351 H1367 0.961 . S
C1352 C1353 1.370 . S
C1352 C1354 1.363 . S
C1352 H1368 0.931 . S
C1353 C1352 1.370 . S
C1353 C1357 1.408 . S
C1354 C1352 1.363 . S
C1354 C1355 1.370 . S
C1354 C1358 1.524 . S
C1355 C1347 1.503 . S
C1355 C1354 1.370 . S
C1355 C1356 1.403 . S
C1356 C1355 1.403 . S
C1356 C1357 1.404 . S
C1356 C1359 1.539 . S
C1357 C1353 1.408 . S
C1357 C1356 1.404 . S
C1357 H1369 0.930 . S
C1358 C1354 1.524 . S
C1358 H1370 0.956 . S
C1358 H1371 0.961 . S
C1358 H1372 0.961 . S
C1359 C1356 1.539 . S
C1359 H1373 0.958 . S
C1359 H1374 0.961 . S
C1359 H1375 0.960 . S
H1360 C1344 0.931 . S
H1361 C1349 0.929 . S
H1362 C1350 0.960 . S
H1363 C1350 0.962 . S
H1364 C1350 0.960 . S
H1365 C1351 0.961 . S
H1366 C1351 0.961 . S
H1367 C1351 0.961 . S
H1368 C1352 0.931 . S
H1369 C1357 0.930 . S
H1370 C1358 0.956 . S
H1371 C1358 0.961 . S
H1372 C1358 0.961 . S
H1373 C1359 0.958 . S
H1374 C1359 0.961 . S
H1375 C1359 0.960 . S
C1376 C1377 1.391 . S
C1376 C1378 1.394 . S
C1376 H1392 0.931 . S
C1377 C1376 1.391 . S
C1377 C1381 1.376 . S
C1378 C1376 1.394 . S
C1378 C1379 1.369 . S
C1378 C1382 1.531 . S
C1379 C1378 1.369 . S
C1379 C1380 1.410 . S
C1379 C1387 1.503 . S
C1380 C1379 1.410 . S
C1380 C1381 1.392 . S
C1380 C1383 1.511 . S
C1381 C1377 1.376 . S
C1381 C1380 1.392 . S
C1381 H1393 0.929 . S
C1382 C1378 1.531 . S
C1382 H1394 0.960 . S
C1382 H1395 0.962 . S
C1382 H1396 0.960 . S
C1383 C1380 1.511 . S
C1383 H1397 0.961 . S
C1383 H1398 0.961 . S
C1383 H1399 0.961 . S
C1384 C1385 1.370 . S
C1384 C1386 1.363 . S
C1384 H1400 0.931 . S
C1385 C1384 1.370 . S
C1385 C1389 1.408 . S
C1386 C1384 1.363 . S
C1386 C1387 1.370 . S
C1386 C1390 1.524 . S
C1387 C1379 1.503 . S
C1387 C1386 1.370 . S
C1387 C1388 1.403 . S
C1388 C1387 1.403 . S
C1388 C1389 1.404 . S
C1388 C1391 1.539 . S
C1389 C1385 1.408 . S
C1389 C1388 1.404 . S
C1389 H1401 0.930 . S
C1390 C1386 1.524 . S
C1390 H1402 0.956 . S
C1390 H1403 0.961 . S
C1390 H1404 0.961 . S
C1391 C1388 1.539 . S
C1391 H1405 0.958 . S
C1391 H1406 0.961 . S
C1391 H1407 0.960 . S
H1392 C1376 0.931 . S
H1393 C1381 0.929 . S
H1394 C1382 0.960 . S
H1395 C1382 0.962 . S
H1396 C1382 0.960 . S
H1397 C1383 0.961 . S
H1398 C1383 0.961 . S
H1399 C1383 0.961 . S
H1400 C1384 0.931 . S
H1401 C1389 0.930 . S
H1402 C1390 0.956 . S
H1403 C1390 0.961 . S
H1404 C1390 0.961 . S
H1405 C1391 0.958 . S
H1406 C1391 0.961 . S
H1407 C1391 0.960 . S
C1408 C1409 1.391 . S
C1408 C1410 1.394 . S
C1408 H1424 0.931 . S
C1409 C1408 1.391 . S
C1409 C1413 1.376 . S
C1410 C1408 1.394 . S
C1410 C1411 1.369 . S
C1410 C1414 1.531 . S
C1411 C1410 1.369 . S
C1411 C1412 1.410 . S
C1411 C1419 1.503 . S
C1412 C1411 1.410 . S
C1412 C1413 1.392 . S
C1412 C1415 1.511 . S
C1413 C1409 1.376 . S
C1413 C1412 1.392 . S
C1413 H1425 0.929 . S
C1414 C1410 1.531 . S
C1414 H1426 0.960 . S
C1414 H1427 0.962 . S
C1414 H1428 0.960 . S
C1415 C1412 1.511 . S
C1415 H1429 0.961 . S
C1415 H1430 0.961 . S
C1415 H1431 0.961 . S
C1416 C1417 1.370 . S
C1416 C1418 1.363 . S
C1416 H1432 0.931 . S
C1417 C1416 1.370 . S
C1417 C1421 1.408 . S
C1418 C1416 1.363 . S
C1418 C1419 1.370 . S
C1418 C1422 1.524 . S
C1419 C1411 1.503 . S
C1419 C1418 1.370 . S
C1419 C1420 1.403 . S
C1420 C1419 1.403 . S
C1420 C1421 1.404 . S
C1420 C1423 1.539 . S
C1421 C1417 1.408 . S
C1421 C1420 1.404 . S
C1421 H1433 0.930 . S
C1422 C1418 1.524 . S
C1422 H1434 0.956 . S
C1422 H1435 0.961 . S
C1422 H1436 0.961 . S
C1423 C1420 1.539 . S
C1423 H1437 0.958 . S
C1423 H1438 0.961 . S
C1423 H1439 0.960 . S
H1424 C1408 0.931 . S
H1425 C1413 0.929 . S
H1426 C1414 0.960 . S
H1427 C1414 0.962 . S
H1428 C1414 0.960 . S
H1429 C1415 0.961 . S
H1430 C1415 0.961 . S
H1431 C1415 0.961 . S
H1432 C1416 0.931 . S
H1433 C1421 0.930 . S
H1434 C1422 0.956 . S
H1435 C1422 0.961 . S
H1436 C1422 0.961 . S
H1437 C1423 0.958 . S
H1438 C1423 0.961 . S
H1439 C1423 0.960 . S
C1440 C1441 1.391 . S
C1440 C1442 1.394 . S
C1440 H1456 0.931 . S
C1441 C1440 1.391 . S
C1441 C1445 1.376 . S
C1442 C1440 1.394 . S
C1442 C1443 1.369 . S
C1442 C1446 1.531 . S
C1443 C1442 1.369 . S
C1443 C1444 1.410 . S
C1443 C1451 1.503 . S
C1444 C1443 1.410 . S
C1444 C1445 1.392 . S
C1444 C1447 1.511 . S
C1445 C1441 1.376 . S
C1445 C1444 1.392 . S
C1445 H1457 0.929 . S
C1446 C1442 1.531 . S
C1446 H1458 0.960 . S
C1446 H1459 0.962 . S
C1446 H1460 0.960 . S
C1447 C1444 1.511 . S
C1447 H1461 0.961 . S
C1447 H1462 0.961 . S
C1447 H1463 0.961 . S
C1448 C1449 1.370 . S
C1448 C1450 1.363 . S
C1448 H1464 0.931 . S
C1449 C1448 1.370 . S
C1449 C1453 1.408 . S
C1450 C1448 1.363 . S
C1450 C1451 1.370 . S
C1450 C1454 1.524 . S
C1451 C1443 1.503 . S
C1451 C1450 1.370 . S
C1451 C1452 1.403 . S
C1452 C1451 1.403 . S
C1452 C1453 1.404 . S
C1452 C1455 1.539 . S
C1453 C1449 1.408 . S
C1453 C1452 1.404 . S
C1453 H1465 0.930 . S
C1454 C1450 1.524 . S
C1454 H1466 0.956 . S
C1454 H1467 0.961 . S
C1454 H1468 0.961 . S
C1455 C1452 1.539 . S
C1455 H1469 0.958 . S
C1455 H1470 0.961 . S
C1455 H1471 0.960 . S
H1456 C1440 0.931 . S
H1457 C1445 0.929 . S
H1458 C1446 0.960 . S
H1459 C1446 0.962 . S
H1460 C1446 0.960 . S
H1461 C1447 0.961 . S
H1462 C1447 0.961 . S
H1463 C1447 0.961 . S
H1464 C1448 0.931 . S
H1465 C1453 0.930 . S
H1466 C1454 0.956 . S
H1467 C1454 0.961 . S
H1468 C1454 0.961 . S
H1469 C1455 0.958 . S
H1470 C1455 0.961 . S
H1471 C1455 0.960 . S
C1472 C1473 1.391 . S
C1472 C1474 1.394 . S
C1472 H1488 0.931 . S
C1473 C1472 1.391 . S
C1473 C1477 1.376 . S
C1474 C1472 1.394 . S
C1474 C1475 1.369 . S
C1474 C1478 1.531 . S
C1475 C1474 1.369 . S
C1475 C1476 1.410 . S
C1475 C1483 1.503 . S
C1476 C1475 1.410 . S
C1476 C1477 1.392 . S
C1476 C1479 1.511 . S
C1477 C1473 1.376 . S
C1477 C1476 1.392 . S
C1477 H1489 0.929 . S
C1478 C1474 1.531 . S
C1478 H1490 0.960 . S
C1478 H1491 0.962 . S
C1478 H1492 0.960 . S
C1479 C1476 1.511 . S
C1479 H1493 0.961 . S
C1479 H1494 0.961 . S
C1479 H1495 0.961 . S
C1480 C1481 1.370 . S
C1480 C1482 1.363 . S
C1480 H1496 0.931 . S
C1481 C1480 1.370 . S
C1481 C1485 1.408 . S
C1482 C1480 1.363 . S
C1482 C1483 1.370 . S
C1482 C1486 1.524 . S
C1483 C1475 1.503 . S
C1483 C1482 1.370 . S
C1483 C1484 1.403 . S
C1484 C1483 1.403 . S
C1484 C1485 1.404 . S
C1484 C1487 1.539 . S
C1485 C1481 1.408 . S
C1485 C1484 1.404 . S
C1485 H1497 0.930 . S
C1486 C1482 1.524 . S
C1486 H1498 0.956 . S
C1486 H1499 0.961 . S
C1486 H1500 0.961 . S
C1487 C1484 1.539 . S
C1487 H1501 0.958 . S
C1487 H1502 0.961 . S
C1487 H1503 0.960 . S
H1488 C1472 0.931 . S
H1489 C1477 0.929 . S
H1490 C1478 0.960 . S
H1491 C1478 0.962 . S
H1492 C1478 0.960 . S
H1493 C1479 0.961 . S
H1494 C1479 0.961 . S
H1495 C1479 0.961 . S
H1496 C1480 0.931 . S
H1497 C1485 0.930 . S
H1498 C1486 0.956 . S
H1499 C1486 0.961 . S
H1500 C1486 0.961 . S
H1501 C1487 0.958 . S
H1502 C1487 0.961 . S
H1503 C1487 0.960 . S
C489 C393 1.322 . S
C481 C8 1.288 . S
C521 C407 1.330 . S
C513 C61 1.288 . S
C553 C415 1.359 . S
C545 C107 1.332 . S
C577 C139 1.270 . S
C585 C373 1.331 . S
C609 C192 1.264 . S
C617 C379 1.275 . S
C641 C238 1.231 . S
C649 C387 1.264 . S
C681 C401 1.383 . S
C673 C284 1.318 . S
C713 C421 1.346 . S
C705 C330 1.325 . S
C737 C100 1.275 . S
C745 C449 1.283 . S
C777 C463 1.377 . S
C769 C160 1.359 . S
C801 C15 1.269 . S
C809 C471 1.275 . S
C841 C435 1.220 . S
C833 C54 1.163 . S
C865 C291 1.333 . S
C873 C429 1.338 . S
C897 C337 1.328 . S
C905 C443 1.374 . S
C937 C457 1.362 . S
C929 C199 1.303 . S
C961 C245 1.358 . S
C969 C477 1.368 . S
C1001 C396 1.663 . S
C993 C1 1.686 . S
C1033 C419 1.689 . S
C1025 C68 1.706 . S
C1057 C114 1.700 . S
C1065 C377 1.725 . S
C1089 C146 1.753 . S
C1097 C382 1.688 . S
C1121 C185 1.626 . S
C1129 C410 1.573 . S
C1161 C368 1.581 . S
C1153 C231 1.644 . S
C1193 C391 1.632 . S
C1185 C277 1.634 . S
C1225 C405 1.633 . S
C1217 C323 1.661 . S
C1257 C452 1.579 . S
C1249 C93 1.623 . S
C1289 C475 1.620 . S
C1281 C153 1.640 . S
C1313 C22 1.610 . S
C1321 C424 1.572 . S
C1353 C438 1.558 . S
C1345 C47 1.618 . S
C1385 C466 1.687 . S
C1377 C298 1.737 . S
C1409 C344 1.715 . S
C1417 C433 1.746 . S
C1449 C447 1.716 . S
C1441 C206 1.738 . S
C1481 C461 1.706 . S
C1473 C252 1.687 . S
