# Generated by pormake.
# Topology eea, (3,6)-cn, num edge types: 1
# Building blocks:
#     Node 0, Type 0, BuildingBlock: ESEHIV_clean_linker_0, # of connection points: 3
#     Node 1, Type 0, BuildingBlock: ESEHIV_clean_linker_0, # of connection points: 3
#     Node 2, Type 0, BuildingBlock: ESEHIV_clean_linker_0, # of connection points: 3
#     Node 3, Type 0, BuildingBlock: ESEHIV_clean_linker_0, # of connection points: 3
#     Node 4, Type 0, BuildingBlock: ESEHIV_clean_linker_0, # of connection points: 3
#     Node 5, Type 0, BuildingBlock: ESEHIV_clean_linker_0, # of connection points: 3
#     Node 6, Type 0, BuildingBlock: ESEHIV_clean_linker_0, # of connection points: 3
#     Node 7, Type 0, BuildingBlock: ESEHIV_clean_linker_0, # of connection points: 3
#     Node 8, Type 0, BuildingBlock: ESEHIV_clean_linker_0, # of connection points: 3
#     Node 9, Type 0, BuildingBlock: ESEHIV_clean_linker_0, # of connection points: 3
#     Node 10, Type 0, BuildingBlock: ESEHIV_clean_linker_0, # of connection points: 3
#     Node 11, Type 0, BuildingBlock: ESEHIV_clean_linker_0, # of connection points: 3
#     Node 12, Type 0, BuildingBlock: ESEHIV_clean_linker_0, # of connection points: 3
#     Node 13, Type 0, BuildingBlock: ESEHIV_clean_linker_0, # of connection points: 3
#     Node 14, Type 0, BuildingBlock: ESEHIV_clean_linker_0, # of connection points: 3
#     Node 15, Type 0, BuildingBlock: ESEHIV_clean_linker_0, # of connection points: 3
#     Node 16, Type 0, BuildingBlock: ESEHIV_clean_linker_0, # of connection points: 3
#     Node 17, Type 0, BuildingBlock: ESEHIV_clean_linker_0, # of connection points: 3
#     Node 18, Type 1, BuildingBlock: HISSIN_clean_sbu_0, # of connection points: 6
#     Node 19, Type 1, BuildingBlock: HISSIN_clean_sbu_0, # of connection points: 6
#     Node 20, Type 1, BuildingBlock: HISSIN_clean_sbu_0, # of connection points: 6
#     Node 21, Type 1, BuildingBlock: HISSIN_clean_sbu_0, # of connection points: 6
#     Node 22, Type 1, BuildingBlock: HISSIN_clean_sbu_0, # of connection points: 6
#     Node 23, Type 1, BuildingBlock: HISSIN_clean_sbu_0, # of connection points: 6
#     Node 24, Type 1, BuildingBlock: HISSIN_clean_sbu_0, # of connection points: 6
#     Node 25, Type 1, BuildingBlock: HISSIN_clean_sbu_0, # of connection points: 6
#     Node 26, Type 1, BuildingBlock: HISSIN_clean_sbu_0, # of connection points: 6
#     Edge 27, Type (0, 1), BuildingBlock: OJICUG_clean_linker_0, # of connection points: 2
#     Edge 28, Type (0, 1), BuildingBlock: OJICUG_clean_linker_0, # of connection points: 2
#     Edge 29, Type (0, 1), BuildingBlock: OJICUG_clean_linker_0, # of connection points: 2
#     Edge 30, Type (0, 1), BuildingBlock: OJICUG_clean_linker_0, # of connection points: 2
#     Edge 31, Type (0, 1), BuildingBlock: OJICUG_clean_linker_0, # of connection points: 2
#     Edge 32, Type (0, 1), BuildingBlock: OJICUG_clean_linker_0, # of connection points: 2
#     Edge 33, Type (0, 1), BuildingBlock: OJICUG_clean_linker_0, # of connection points: 2
#     Edge 34, Type (0, 1), BuildingBlock: OJICUG_clean_linker_0, # of connection points: 2
#     Edge 35, Type (0, 1), BuildingBlock: OJICUG_clean_linker_0, # of connection points: 2
#     Edge 36, Type (0, 1), BuildingBlock: OJICUG_clean_linker_0, # of connection points: 2
#     Edge 37, Type (0, 1), BuildingBlock: OJICUG_clean_linker_0, # of connection points: 2
#     Edge 38, Type (0, 1), BuildingBlock: OJICUG_clean_linker_0, # of connection points: 2
#     Edge 39, Type (0, 1), BuildingBlock: OJICUG_clean_linker_0, # of connection points: 2
#     Edge 40, Type (0, 1), BuildingBlock: OJICUG_clean_linker_0, # of connection points: 2
#     Edge 41, Type (0, 1), BuildingBlock: OJICUG_clean_linker_0, # of connection points: 2
#     Edge 42, Type (0, 1), BuildingBlock: OJICUG_clean_linker_0, # of connection points: 2
#     Edge 43, Type (0, 1), BuildingBlock: OJICUG_clean_linker_0, # of connection points: 2
#     Edge 44, Type (0, 1), BuildingBlock: OJICUG_clean_linker_0, # of connection points: 2
#     Edge 45, Type (0, 1), BuildingBlock: OJICUG_clean_linker_0, # of connection points: 2
#     Edge 46, Type (0, 1), BuildingBlock: OJICUG_clean_linker_0, # of connection points: 2
#     Edge 47, Type (0, 1), BuildingBlock: OJICUG_clean_linker_0, # of connection points: 2
#     Edge 48, Type (0, 1), BuildingBlock: OJICUG_clean_linker_0, # of connection points: 2
#     Edge 49, Type (0, 1), BuildingBlock: OJICUG_clean_linker_0, # of connection points: 2
#     Edge 50, Type (0, 1), BuildingBlock: OJICUG_clean_linker_0, # of connection points: 2
#     Edge 51, Type (0, 1), BuildingBlock: OJICUG_clean_linker_0, # of connection points: 2
#     Edge 52, Type (0, 1), BuildingBlock: OJICUG_clean_linker_0, # of connection points: 2
#     Edge 53, Type (0, 1), BuildingBlock: OJICUG_clean_linker_0, # of connection points: 2
#     Edge 54, Type (0, 1), BuildingBlock: OJICUG_clean_linker_0, # of connection points: 2
#     Edge 55, Type (0, 1), BuildingBlock: OJICUG_clean_linker_0, # of connection points: 2
#     Edge 56, Type (0, 1), BuildingBlock: OJICUG_clean_linker_0, # of connection points: 2
#     Edge 57, Type (0, 1), BuildingBlock: OJICUG_clean_linker_0, # of connection points: 2
#     Edge 58, Type (0, 1), BuildingBlock: OJICUG_clean_linker_0, # of connection points: 2
#     Edge 59, Type (0, 1), BuildingBlock: OJICUG_clean_linker_0, # of connection points: 2
#     Edge 60, Type (0, 1), BuildingBlock: OJICUG_clean_linker_0, # of connection points: 2
#     Edge 61, Type (0, 1), BuildingBlock: OJICUG_clean_linker_0, # of connection points: 2
#     Edge 62, Type (0, 1), BuildingBlock: OJICUG_clean_linker_0, # of connection points: 2
#     Edge 63, Type (0, 1), BuildingBlock: OJICUG_clean_linker_0, # of connection points: 2
#     Edge 64, Type (0, 1), BuildingBlock: OJICUG_clean_linker_0, # of connection points: 2
#     Edge 65, Type (0, 1), BuildingBlock: OJICUG_clean_linker_0, # of connection points: 2
#     Edge 66, Type (0, 1), BuildingBlock: OJICUG_clean_linker_0, # of connection points: 2
#     Edge 67, Type (0, 1), BuildingBlock: OJICUG_clean_linker_0, # of connection points: 2
#     Edge 68, Type (0, 1), BuildingBlock: OJICUG_clean_linker_0, # of connection points: 2
#     Edge 69, Type (0, 1), BuildingBlock: OJICUG_clean_linker_0, # of connection points: 2
#     Edge 70, Type (0, 1), BuildingBlock: OJICUG_clean_linker_0, # of connection points: 2
#     Edge 71, Type (0, 1), BuildingBlock: OJICUG_clean_linker_0, # of connection points: 2
#     Edge 72, Type (0, 1), BuildingBlock: OJICUG_clean_linker_0, # of connection points: 2
#     Edge 73, Type (0, 1), BuildingBlock: OJICUG_clean_linker_0, # of connection points: 2
#     Edge 74, Type (0, 1), BuildingBlock: OJICUG_clean_linker_0, # of connection points: 2
#     Edge 75, Type (0, 1), BuildingBlock: OJICUG_clean_linker_0, # of connection points: 2
#     Edge 76, Type (0, 1), BuildingBlock: OJICUG_clean_linker_0, # of connection points: 2
#     Edge 77, Type (0, 1), BuildingBlock: OJICUG_clean_linker_0, # of connection points: 2
#     Edge 78, Type (0, 1), BuildingBlock: OJICUG_clean_linker_0, # of connection points: 2
#     Edge 79, Type (0, 1), BuildingBlock: OJICUG_clean_linker_0, # of connection points: 2
#     Edge 80, Type (0, 1), BuildingBlock: OJICUG_clean_linker_0, # of connection points: 2
# Relax obj value: 0.034
# Max RMSD: 0.130
# Mean RMSD: 0.112
data_MOF--net-eea--node1-HISSIN_clean_sbu_0--node2-ESEHIV_clean_linker_0--edge1-OJICUG_clean_linker_0
_symmetry_space_group_name_H-M    P1
_symmetry_Int_Tables_number       1
_symmetry_cell_setting            triclinic
loop_
_symmetry_equiv_pos_as_xyz
'x, y, z'
_cell_length_a     33.783265
_cell_length_b     33.994549
_cell_length_c     56.100036
_cell_angle_alpha  93.124824
_cell_angle_beta   92.540677
_cell_angle_gamma 119.99375
loop_
_atom_site_label
_atom_site_type_symbol
_atom_site_fract_x
_atom_site_fract_y
_atom_site_fract_z
_atom_type_partial_charge
H0 H 0.28256 0.21223 0.44516 0.0
H1 H 0.28706 0.08865 0.4451 0.0
H2 H 0.26221 0.13243 0.37865 0.0
C3 C 0.28148 0.18353 0.43514 0.0
C4 C 0.26964 0.17536 0.41023 0.0
C5 C 0.28946 0.1531 0.44758 0.0
C6 C 0.28354 0.11333 0.4352 0.0
C7 C 0.272 0.10477 0.4104 0.0
C8 C 0.26818 0.1375 0.39798 0.0
H9 H 0.8293 0.0728 0.45187 0.0
H10 H 0.95447 0.20087 0.45106 0.0
H11 H 0.89796 0.10834 0.38726 0.0
C12 C 0.85744 0.09657 0.44226 0.0
C13 C 0.86003 0.08491 0.41826 0.0
C14 C 0.89065 0.13864 0.45411 0.0
C15 C 0.92795 0.16902 0.44178 0.0
C16 C 0.93167 0.15732 0.41777 0.0
C17 C 0.8967 0.11604 0.4061 0.0
H18 H 0.81964 0.73906 0.45171 0.0
H19 H 0.94417 0.73405 0.44876 0.0
H20 H 0.90491 0.795 0.39411 0.0
C21 C 0.84986 0.7458 0.44272 0.0
C22 C 0.8581 0.76754 0.42137 0.0
C23 C 0.88089 0.7339 0.45297 0.0
C24 C 0.92088 0.74428 0.44138 0.0
C25 C 0.93003 0.76632 0.41995 0.0
C26 C 0.89835 0.77787 0.41039 0.0
H27 H 0.06024 0.26147 0.58065 0.0
H28 H 0.19054 0.26666 0.58193 0.0
H29 H 0.1052 0.21426 0.6399 0.0
C30 C 0.08584 0.25569 0.58946 0.0
C31 C 0.0785 0.23799 0.61212 0.0
C32 C 0.12601 0.2656 0.57811 0.0
C33 C 0.1589 0.25788 0.58998 0.0
C34 C 0.15197 0.23997 0.61242 0.0
C35 C 0.1116 0.22992 0.62312 0.0
H36 H 0.70898 0.90334 0.58592 0.0
H37 H 0.71427 0.77963 0.58433 0.0
H38 H 0.74927 0.86552 0.65021 0.0
C39 C 0.71477 0.8793 0.59519 0.0
C40 C 0.7316 0.88966 0.61934 0.0
C41 C 0.7069 0.83876 0.58271 0.0
C42 C 0.7173 0.80916 0.59449 0.0
C43 C 0.73415 0.81923 0.6188 0.0
C44 C 0.73858 0.8583 0.63123 0.0
H45 H 0.05556 0.78786 0.57841 0.0
H46 H 0.18302 0.91476 0.57971 0.0
H47 H 0.09918 0.88855 0.63862 0.0
C48 C 0.08016 0.82095 0.58734 0.0
C49 C 0.07161 0.83534 0.60966 0.0
C50 C 0.12099 0.84912 0.57671 0.0
C51 C 0.15238 0.89227 0.58821 0.0
C52 C 0.14416 0.90705 0.61026 0.0
C53 C 0.10422 0.87811 0.62096 0.0
H54 H 0.94528 0.53817 0.77974 0.0
H55 H 0.94086 0.40989 0.78074 0.0
H56 H 0.90124 0.44699 0.71562 0.0
C57 C 0.93913 0.50667 0.77032 0.0
C58 C 0.92093 0.49541 0.74631 0.0
C59 C 0.94713 0.47615 0.78265 0.0
C60 C 0.93623 0.43402 0.77089 0.0
C61 C 0.91893 0.42276 0.74676 0.0
C62 C 0.91286 0.4544 0.73449 0.0
H63 H 0.49088 0.41984 0.78441 0.0
H64 H 0.6176 0.54512 0.78198 0.0
H65 H 0.56165 0.44636 0.72041 0.0
C66 C 0.51927 0.44201 0.77441 0.0
C67 C 0.52317 0.42707 0.75134 0.0
C68 C 0.55217 0.4852 0.7851 0.0
C69 C 0.59127 0.51271 0.77314 0.0
C70 C 0.59577 0.49831 0.74979 0.0
C71 C 0.56042 0.45633 0.73888 0.0
H72 H 0.47617 0.06502 0.78303 0.0
H73 H 0.60314 0.06467 0.78227 0.0
H74 H 0.56676 0.12868 0.72825 0.0
C75 C 0.50806 0.07487 0.77503 0.0
C76 C 0.51678 0.09685 0.75373 0.0
C77 C 0.53962 0.0643 0.78588 0.0
C78 C 0.57953 0.07407 0.77441 0.0
C79 C 0.58912 0.09625 0.75304 0.0
C80 C 0.5582 0.10879 0.74358 0.0
H81 H 0.72847 0.59264 0.91273 0.0
H82 H 0.85942 0.59958 0.91515 0.0
H83 H 0.76886 0.53874 0.97039 0.0
C84 C 0.75353 0.58608 0.92151 0.0
C85 C 0.74485 0.56638 0.94363 0.0
C86 C 0.79444 0.597 0.91066 0.0
C87 C 0.82701 0.58904 0.92269 0.0
C88 C 0.81862 0.56858 0.94447 0.0
C89 C 0.77702 0.55672 0.95436 0.0
H90 H 0.3718 0.23101 0.9213 0.0
H91 H 0.36839 0.10264 0.91802 0.0
H92 H 0.42248 0.19376 0.98241 0.0
C93 C 0.37767 0.2064 0.92992 0.0
C94 C 0.39782 0.2169 0.95349 0.0
C95 C 0.36683 0.16524 0.91699 0.0
C96 C 0.37568 0.134 0.92807 0.0
C97 C 0.39585 0.14415 0.95175 0.0
C98 C 0.40614 0.18533 0.96435 0.0
H99 H 0.72287 0.11988 0.91332 0.0
H100 H 0.85113 0.24561 0.91332 0.0
H101 H 0.77272 0.2194 0.97446 0.0
C102 C 0.74887 0.15229 0.92234 0.0
C103 C 0.74299 0.16606 0.94552 0.0
C104 C 0.78757 0.1813 0.91041 0.0
C105 C 0.82066 0.22362 0.92208 0.0
C106 C 0.81539 0.23757 0.94508 0.0
C107 C 0.77668 0.20859 0.95665 0.0
H108 H 0.62284 0.86945 0.11104 0.0
H109 H 0.61153 0.73803 0.11003 0.0
H110 H 0.56636 0.77635 0.04735 0.0
C111 C 0.61328 0.83704 0.10143 0.0
C112 C 0.59328 0.82679 0.07768 0.0
C113 C 0.61961 0.80494 0.11319 0.0
C114 C 0.6072 0.76296 0.1008 0.0
C115 C 0.58851 0.75253 0.07693 0.0
C116 C 0.58172 0.78467 0.06557 0.0
H117 H 0.1547 0.75167 0.11466 0.0
H118 H 0.28061 0.87984 0.11518 0.0
H119 H 0.23122 0.7837 0.05263 0.0
C120 C 0.1839 0.77535 0.10559 0.0
C121 C 0.18901 0.763 0.08221 0.0
C122 C 0.21667 0.81734 0.11771 0.0
C123 C 0.25485 0.84763 0.10586 0.0
C124 C 0.26034 0.83566 0.08223 0.0
C125 C 0.22696 0.7935 0.07061 0.0
H126 H 0.1412 0.3934 0.1143 0.0
H127 H 0.26713 0.39062 0.11413 0.0
H128 H 0.23122 0.45345 0.05898 0.0
C129 C 0.17266 0.40162 0.10618 0.0
C130 C 0.18204 0.42349 0.0849 0.0
C131 C 0.20358 0.39037 0.11714 0.0
C132 C 0.24413 0.40068 0.10616 0.0
C133 C 0.2541 0.42244 0.08465 0.0
C134 C 0.22311 0.43451 0.07468 0.0
H135 H 0.40385 0.93404 0.24831 0.0
H136 H 0.53038 0.93186 0.24856 0.0
H137 H 0.44432 0.88087 0.30643 0.0
C138 C 0.42827 0.92632 0.25682 0.0
C139 C 0.41999 0.90775 0.27921 0.0
C140 C 0.4678 0.93458 0.24531 0.0
C141 C 0.49918 0.92433 0.25675 0.0
C142 C 0.49129 0.9055 0.27895 0.0
C143 C 0.45152 0.89712 0.28983 0.0
H144 H 0.05612 0.58446 0.25344 0.0
H145 H 0.04764 0.45389 0.25174 0.0
H146 H 0.11054 0.55007 0.31403 0.0
C147 C 0.06223 0.56005 0.26213 0.0
C148 C 0.08393 0.57152 0.28533 0.0
C149 C 0.04963 0.51796 0.24975 0.0
C150 C 0.05758 0.48649 0.26123 0.0
C151 C 0.07963 0.49772 0.28455 0.0
C152 C 0.09267 0.54041 0.29632 0.0
H153 H 0.3947 0.44302 0.24757 0.0
H154 H 0.51979 0.57202 0.24801 0.0
H155 H 0.44133 0.54075 0.30934 0.0
C156 C 0.41994 0.4756 0.25676 0.0
C157 C 0.41356 0.48802 0.28012 0.0
C158 C 0.45836 0.50586 0.24502 0.0
C159 C 0.49042 0.54836 0.25698 0.0
C160 C 0.4844 0.56116 0.28009 0.0
C161 C 0.44625 0.53065 0.29157 0.0
Eu162 Eu 0.48784 0.96266 0.98879 0.0
Eu163 Eu 0.52161 0.02751 0.04106 0.0
C164 C 0.47371 0.04669 0.99663 0.0
C165 C 0.47859 0.94417 0.92162 0.0
C166 C 0.5021 0.99172 0.92082 0.0
C167 C 0.47851 0.93551 0.87819 0.0
C168 C 0.51317 0.01099 0.89892 0.0
C169 C 0.46714 0.91622 0.90016 0.0
C170 C 0.50131 0.98319 0.87725 0.0
C171 C 0.46604 0.92417 0.94482 0.0
O172 O 0.46414 0.95867 0.04725 0.0
O173 O 0.42516 0.93775 1.01023 0.0
C174 C 0.42577 0.93609 0.03366 0.0
O175 O 0.50466 0.92251 0.01374 0.0
O176 O 0.50261 0.05791 0.07045 0.0
O177 O 0.56957 0.06421 0.07261 0.0
O178 O 0.55156 0.98163 0.04234 0.0
C179 C 0.53531 0.94 0.03233 0.0
O180 O 0.56414 0.00906 0.99068 0.0
O181 O 0.57314 0.06978 0.01521 0.0
O182 O 0.47295 0.04241 0.01973 0.0
O183 O 0.49951 0.92693 0.9587 0.0
O184 O 0.43987 0.93477 0.95675 0.0
O185 O 0.49297 0.02954 0.98323 0.0
C186 C 0.53019 0.04954 0.10796 0.0
C187 C 0.51253 0.00268 0.10957 0.0
C188 C 0.5262 0.05887 0.15102 0.0
C189 C 0.50173 0.98403 0.13164 0.0
C190 C 0.53691 0.07748 0.12885 0.0
C191 C 0.50838 0.01181 0.15275 0.0
C192 C 0.53912 0.0684 0.08433 0.0
C193 C 0.58725 0.05251 0.9982 0.0
H194 H 0.51178 0.01402 0.93717 0.0
H195 H 0.46852 0.91304 0.86189 0.0
H196 H 0.53132 0.04778 0.89898 0.0
H197 H 0.44911 0.87947 0.90037 0.0
H198 H 0.50661 0.98035 0.09364 0.0
H199 H 0.53237 0.0815 0.16685 0.0
H200 H 0.48741 0.94762 0.13205 0.0
H201 H 0.55025 0.11369 0.12802 0.0
Eu202 Eu 0.03345 0.51101 0.99163 0.0
Eu203 Eu 0.97192 0.48604 0.0384 0.0
C204 C 0.94345 0.41526 0.99212 0.0
C205 C 0.05987 0.52572 0.92836 0.0
C206 C 0.01275 0.50843 0.92327 0.0
C207 C 0.07086 0.53328 0.8861 0.0
C208 C 0.99467 0.50303 0.89976 0.0
C209 C 0.08899 0.53856 0.90975 0.0
C210 C 0.02342 0.51488 0.88089 0.0
C211 C 0.07759 0.52944 0.95316 0.0
O212 O 0.038 0.48936 0.05049 0.0
O213 O 0.05434 0.47009 0.01405 0.0
C214 C 0.05923 0.47349 0.03758 0.0
O215 O 0.07713 0.56499 0.02105 0.0
O216 O 0.93532 0.43689 0.06405 0.0
O217 O 0.93825 0.50198 0.06658 0.0
O218 O 0.01946 0.56207 0.0422 0.0
C219 C 0.06211 0.58353 0.03662 0.0
O220 O 0.98564 0.53857 0.98575 0.0
O221 O 0.92915 0.49653 1.01037 0.0
O222 O 0.94898 0.4206 0.01557 0.0
O223 O 0.07635 0.56038 0.96742 0.0
O224 O 0.0621 0.49067 0.96263 0.0
O225 O 0.96576 0.44954 0.97925 0.0
C226 C 0.94443 0.4721 0.10234 0.0
C227 C 0.99174 0.49483 0.10875 0.0
C228 C 0.93003 0.46122 0.14412 0.0
C229 C 0.00814 0.50081 0.13266 0.0
C230 C 0.9136 0.45515 0.12007 0.0
C231 C 0.97752 0.48433 0.15065 0.0
C232 C 0.92784 0.46507 0.07706 0.0
C233 C 0.9443 0.52332 0.99289 0.0
H234 H 0.98986 0.49862 0.93752 0.0
H235 H 0.0937 0.54236 0.87185 0.0
H236 H 0.95811 0.48938 0.89632 0.0
H237 H 0.12545 0.55204 0.91346 0.0
H238 H 0.01599 0.50782 0.09521 0.0
H239 H 0.90564 0.44852 0.15761 0.0
H240 H 0.04487 0.51807 0.13704 0.0
H241 H 0.87696 0.43732 0.11533 0.0
Eu242 Eu 0.5206 0.47665 0.03934 0.0
Eu243 Eu 0.476 0.49403 0.98939 0.0
C244 C 0.52813 0.57285 0.03272 0.0
C245 C 0.5317 0.46447 0.10426 0.0
C246 C 0.50431 0.4844 0.10713 0.0
C247 C 0.52818 0.45145 0.14654 0.0
C248 C 0.48916 0.48806 0.12946 0.0
C249 C 0.54327 0.44767 0.12405 0.0
C250 C 0.50122 0.47206 0.14956 0.0
C251 C 0.5464 0.46023 0.08035 0.0
O252 O 0.53935 0.49259 0.97981 0.0
O253 O 0.58049 0.51274 0.01646 0.0
C254 C 0.5785 0.50944 0.99284 0.0
O255 O 0.50316 0.41891 1.01166 0.0
O256 O 0.4754 0.53966 0.96355 0.0
O257 O 0.43156 0.46689 0.95613 0.0
O258 O 0.4418 0.41893 0.99315 0.0
C259 C 0.46425 0.39793 0.99828 0.0
O260 O 0.44702 0.45507 0.04542 0.0
O261 O 0.42512 0.48697 0.01595 0.0
O262 O 0.51899 0.56299 1.00951 0.0
O263 O 0.51436 0.42857 0.06525 0.0
O264 O 0.57015 0.49842 0.07055 0.0
O265 O 0.52304 0.54274 0.04766 0.0
C266 C 0.46798 0.50919 0.92394 0.0
C267 C 0.49531 0.48971 0.91933 0.0
C268 C 0.478 0.53533 0.88404 0.0
C269 C 0.51354 0.49266 0.89718 0.0
C270 C 0.45988 0.53247 0.90627 0.0
C271 C 0.50471 0.51508 0.87915 0.0
C272 C 0.4493 0.50644 0.94742 0.0
C273 C 0.41843 0.46676 0.03598 0.0
H274 H 0.49463 0.4972 0.09202 0.0
H275 H 0.53848 0.43915 0.16166 0.0
H276 H 0.46784 0.50339 0.13095 0.0
H277 H 0.56412 0.43189 0.12216 0.0
H278 H 0.5021 0.47169 0.93278 0.0
H279 H 0.47093 0.55323 0.87063 0.0
H280 H 0.53335 0.47611 0.89395 0.0
H281 H 0.43937 0.54822 0.90962 0.0
Eu282 Eu 0.14908 0.29731 0.32077 0.0
Eu283 Eu 0.18564 0.36281 0.37347 0.0
C284 C 0.13809 0.38563 0.33023 0.0
C285 C 0.13711 0.27476 0.25361 0.0
C286 C 0.16253 0.32206 0.252 0.0
C287 C 0.13311 0.26311 0.21013 0.0
C288 C 0.1738 0.33974 0.22973 0.0
C289 C 0.12233 0.24542 0.2325 0.0
C290 C 0.15938 0.31052 0.20847 0.0
C291 C 0.12801 0.25636 0.27734 0.0
O292 O 0.10948 0.31579 0.3722 0.0
O293 O 0.09952 0.2551 0.3473 0.0
C294 C 0.08635 0.27229 0.3648 0.0
O295 O 0.19539 0.27862 0.34107 0.0
O296 O 0.17401 0.39934 0.40318 0.0
O297 O 0.23318 0.39074 0.40577 0.0
O298 O 0.18444 0.29781 0.37906 0.0
C299 C 0.19906 0.27764 0.36437 0.0
O300 O 0.20903 0.36489 0.31455 0.0
O301 O 0.24791 0.38726 0.35179 0.0
O302 O 0.17033 0.40334 0.34808 0.0
O303 O 0.16428 0.26467 0.2908 0.0
O304 O 0.09953 0.26314 0.28948 0.0
O305 O 0.11928 0.34317 0.32115 0.0
C306 C 0.19418 0.38276 0.44131 0.0
C307 C 0.22348 0.37278 0.45499 0.0
C308 C 0.14038 0.35491 0.47247 0.0
C309 C 0.21119 0.35365 0.47689 0.0
C310 C 0.15261 0.37394 0.45049 0.0
C311 C 0.16931 0.34409 0.48592 0.0
C312 C 0.20663 0.40121 0.41744 0.0
C313 C 0.24733 0.38772 0.32828 0.0
H314 H 0.17395 0.34534 0.26804 0.0
H315 H 0.12165 0.23963 0.19415 0.0
H316 H 0.19342 0.37639 0.22913 0.0
H317 H 0.10285 0.20882 0.23332 0.0
H318 H 0.25593 0.37947 0.44867 0.0
H319 H 0.10774 0.3478 0.47868 0.0
H320 H 0.23484 0.34665 0.48687 0.0
H321 H 0.12914 0.38123 0.44056 0.0
Eu322 Eu 0.69853 0.83776 0.32485 0.0
Eu323 Eu 0.63597 0.81192 0.37141 0.0
C324 C 0.60914 0.74071 0.3265 0.0
C325 C 0.72456 0.84774 0.2606 0.0
C326 C 0.67718 0.82515 0.25441 0.0
C327 C 0.73824 0.85832 0.21874 0.0
C328 C 0.66039 0.81926 0.23056 0.0
C329 C 0.75505 0.86433 0.2427 0.0
C330 C 0.69069 0.83571 0.21242 0.0
C331 C 0.74164 0.85601 0.28588 0.0
O332 O 0.68558 0.78606 0.37667 0.0
O333 O 0.74324 0.83386 0.35444 0.0
C334 C 0.72853 0.80591 0.37141 0.0
O335 O 0.72583 0.90358 0.34774 0.0
O336 O 0.59486 0.76049 0.39521 0.0
O337 O 0.60408 0.82824 0.40031 0.0
O338 O 0.70003 0.87726 0.38415 0.0
C339 C 0.72641 0.90976 0.37106 0.0
O340 O 0.63373 0.83741 0.31299 0.0
O341 O 0.61412 0.85262 0.34951 0.0
O342 O 0.59317 0.75999 0.34098 0.0
O343 O 0.73452 0.88502 0.29836 0.0
O344 O 0.73144 0.81981 0.29703 0.0
O345 O 0.65265 0.76151 0.32253 0.0
C346 C 0.60661 0.79308 0.43458 0.0
C347 C 0.65383 0.81382 0.44097 0.0
C348 C 0.59189 0.78167 0.4763 0.0
C349 C 0.67005 0.81907 0.46488 0.0
C350 C 0.57565 0.77663 0.45229 0.0
C351 C 0.63932 0.80348 0.48284 0.0
C352 C 0.59039 0.78942 0.40945 0.0
C353 C 0.61145 0.85188 0.32602 0.0
H354 H 0.65317 0.81253 0.26809 0.0
H355 H 0.76242 0.87092 0.20515 0.0
H356 H 0.62363 0.80237 0.22638 0.0
H357 H 0.79175 0.8821 0.24727 0.0
H358 H 0.67818 0.82637 0.42744 0.0
H359 H 0.56749 0.76963 0.48981 0.0
H360 H 0.7067 0.83542 0.46934 0.0
H361 H 0.53909 0.76045 0.44759 0.0
Eu362 Eu 0.19745 0.82615 0.37481 0.0
Eu363 Eu 0.15341 0.84446 0.32481 0.0
C364 C 0.20764 0.92327 0.36802 0.0
C365 C 0.20673 0.81116 0.43954 0.0
C366 C 0.17847 0.83004 0.44271 0.0
C367 C 0.20172 0.79488 0.4813 0.0
C368 C 0.16187 0.8313 0.46495 0.0
C369 C 0.21808 0.79335 0.45892 0.0
C370 C 0.17342 0.81391 0.48458 0.0
C371 C 0.22246 0.80872 0.41571 0.0
O372 O 0.21622 0.84168 0.31544 0.0
O373 O 0.25744 0.8617 0.35208 0.0
C374 C 0.25532 0.85808 0.32847 0.0
O375 O 0.18228 0.76981 0.34675 0.0
O376 O 0.15783 0.88979 0.29757 0.0
O377 O 0.10533 0.81882 0.29279 0.0
O378 O 0.12114 0.7693 0.32753 0.0
C379 C 0.14432 0.74904 0.33263 0.0
O380 O 0.12334 0.80308 0.38006 0.0
O381 O 0.10306 0.83803 0.35167 0.0
O382 O 0.19754 0.91314 0.34487 0.0
O383 O 0.19126 0.77731 0.40019 0.0
O384 O 0.24586 0.84762 0.4065 0.0
O385 O 0.20148 0.89299 0.38306 0.0
C386 C 0.14249 0.85318 0.25884 0.0
C387 C 0.16882 0.83217 0.25571 0.0
C388 C 0.1485 0.86935 0.21703 0.0
C389 C 0.18485 0.8297 0.23348 0.0
C390 C 0.13271 0.87208 0.23943 0.0
C391 C 0.17454 0.84782 0.21374 0.0
C392 C 0.12713 0.85678 0.28263 0.0
C393 C 0.09545 0.81605 0.37115 0.0
H394 H 0.16935 0.84398 0.42793 0.0
H395 H 0.21099 0.78091 0.49601 0.0
H396 H 0.14081 0.84683 0.46689 0.0
H397 H 0.23949 0.77826 0.45676 0.0
H398 H 0.17696 0.81757 0.27049 0.0
H399 H 0.13945 0.88321 0.20219 0.0
H400 H 0.2054 0.81357 0.23179 0.0
H401 H 0.11269 0.88872 0.24156 0.0
Eu402 Eu 0.81986 0.63016 0.65473 0.0
Eu403 Eu 0.85582 0.69666 0.70733 0.0
C404 C 0.80513 0.71597 0.66339 0.0
C405 C 0.81602 0.61006 0.58784 0.0
C406 C 0.84951 0.65616 0.58709 0.0
C407 C 0.80668 0.60208 0.54421 0.0
C408 C 0.86138 0.67509 0.5651 0.0
C409 C 0.79489 0.58316 0.56623 0.0
C410 C 0.8399 0.64844 0.5433 0.0
C411 C 0.80213 0.5907 0.61111 0.0
O412 O 0.79212 0.63231 0.71366 0.0
O413 O 0.75693 0.60147 0.67563 0.0
C414 C 0.75597 0.6052 0.69907 0.0
O415 O 0.83131 0.58971 0.68169 0.0
O416 O 0.84258 0.73081 0.7375 0.0
O417 O 0.90486 0.72769 0.73901 0.0
O418 O 0.88693 0.65171 0.70545 0.0
C419 C 0.86558 0.60805 0.69839 0.0
O420 O 0.89592 0.67812 0.65703 0.0
O421 O 0.90391 0.73946 0.68043 0.0
O422 O 0.81261 0.71858 0.68674 0.0
O423 O 0.83496 0.59469 0.62603 0.0
O424 O 0.77428 0.60058 0.62183 0.0
O425 O 0.81541 0.69214 0.64846 0.0
C426 C 0.86591 0.71598 0.77453 0.0
C427 C 0.84798 0.66898 0.77583 0.0
C428 C 0.85737 0.72355 0.81724 0.0
C429 C 0.83505 0.64947 0.7976 0.0
C430 C 0.87035 0.74306 0.79541 0.0
C431 C 0.83958 0.67642 0.8187 0.0
C432 C 0.87732 0.73594 0.75118 0.0
C433 C 0.91743 0.72207 0.66321 0.0
H434 H 0.8661 0.67771 0.60356 0.0
H435 H 0.7898 0.58025 0.52788 0.0
H436 H 0.8866 0.71097 0.56525 0.0
H437 H 0.76897 0.54756 0.56637 0.0
H438 H 0.84357 0.64719 0.75991 0.0
H439 H 0.86188 0.74556 0.83306 0.0
H440 H 0.82084 0.61304 0.79778 0.0
H441 H 0.88372 0.77931 0.79481 0.0
Eu442 Eu 0.36217 0.17697 0.65969 0.0
Eu443 Eu 0.29897 0.1522 0.70657 0.0
C444 C 0.27204 0.08114 0.66096 0.0
C445 C 0.38706 0.18986 0.5954 0.0
C446 C 0.33961 0.16682 0.58932 0.0
C447 C 0.40037 0.20441 0.55387 0.0
C448 C 0.32259 0.16255 0.56565 0.0
C449 C 0.41738 0.20873 0.57763 0.0
C450 C 0.35277 0.18122 0.54765 0.0
C451 C 0.40445 0.19612 0.62049 0.0
O452 O 0.35012 0.12895 0.71398 0.0
O453 O 0.40462 0.1658 0.68733 0.0
C454 C 0.39059 0.1422 0.70603 0.0
O455 O 0.39376 0.24184 0.68375 0.0
O456 O 0.25576 0.09996 0.72947 0.0
O457 O 0.26706 0.1684 0.73553 0.0
O458 O 0.36236 0.2177 0.71957 0.0
C459 C 0.3919 0.24872 0.7068 0.0
O460 O 0.29776 0.17758 0.64817 0.0
O461 O 0.27822 0.19361 0.68454 0.0
O462 O 0.25664 0.10044 0.67583 0.0
O463 O 0.39905 0.2254 0.63383 0.0
O464 O 0.393 0.15885 0.63084 0.0
O465 O 0.31545 0.10114 0.65699 0.0
C466 C 0.26743 0.13073 0.76921 0.0
C467 C 0.31438 0.14959 0.77572 0.0
C468 C 0.25165 0.117 0.81067 0.0
C469 C 0.32996 0.15268 0.79956 0.0
C470 C 0.23605 0.11403 0.78672 0.0
C471 C 0.29886 0.13691 0.81735 0.0
C472 C 0.25199 0.12887 0.7441 0.0
C473 C 0.2757 0.19254 0.66104 0.0
H474 H 0.31574 0.15246 0.60294 0.0
H475 H 0.42444 0.21864 0.54034 0.0
H476 H 0.2858 0.14502 0.56148 0.0
H477 H 0.45411 0.22688 0.58214 0.0
H478 H 0.33905 0.1623 0.76236 0.0
H479 H 0.22696 0.10486 0.82403 0.0
H480 H 0.36643 0.16755 0.80408 0.0
H481 H 0.19967 0.09922 0.78192 0.0
Eu482 Eu 0.85321 0.14681 0.70688 0.0
Eu483 Eu 0.81063 0.16721 0.65704 0.0
C484 C 0.86074 0.24396 0.70198 0.0
C485 C 0.86157 0.1325 0.77133 0.0
C486 C 0.83574 0.15421 0.77368 0.0
C487 C 0.85593 0.11975 0.81361 0.0
C488 C 0.82024 0.15883 0.79572 0.0
C489 C 0.87129 0.11492 0.79137 0.0
C490 C 0.83053 0.14217 0.81609 0.0
C491 C 0.87654 0.12745 0.74763 0.0
O492 O 0.87328 0.16353 0.64833 0.0
O493 O 0.91413 0.18402 0.68494 0.0
C494 C 0.9124 0.18078 0.66138 0.0
O495 O 0.83545 0.08997 0.67856 0.0
O496 O 0.81925 0.21352 0.62966 0.0
O497 O 0.76335 0.14393 0.62474 0.0
O498 O 0.77562 0.09173 0.65922 0.0
C499 C 0.79721 0.07004 0.66459 0.0
O500 O 0.78019 0.12763 0.71271 0.0
O501 O 0.75897 0.15999 0.68316 0.0
O502 O 0.84917 0.23481 0.67886 0.0
O503 O 0.84404 0.097 0.73228 0.0
O504 O 0.90218 0.1655 0.73809 0.0
O505 O 0.85854 0.21387 0.71624 0.0
C506 C 0.8042 0.17601 0.59131 0.0
C507 C 0.82872 0.15287 0.58946 0.0
C508 C 0.81634 0.19303 0.54983 0.0
C509 C 0.84731 0.15017 0.56813 0.0
C510 C 0.79826 0.19627 0.5714 0.0
C511 C 0.84112 0.16987 0.5479 0.0
C512 C 0.78796 0.18136 0.61454 0.0
C513 C 0.75208 0.13985 0.70323 0.0
H514 H 0.82757 0.16772 0.75838 0.0
H515 H 0.86483 0.10688 0.82896 0.0
H516 H 0.80011 0.17551 0.79677 0.0
H517 H 0.89093 0.09777 0.78986 0.0
H518 H 0.83382 0.13709 0.60463 0.0
H519 H 0.81024 0.20804 0.53458 0.0
H520 H 0.86682 0.13281 0.5676 0.0
H521 H 0.77972 0.21458 0.57255 0.0
C522 C 0.29982 0.86921 0.04527 0.0
C523 C 0.30242 0.86452 0.07003 0.0
H524 H 0.33651 0.89484 0.01421 0.0
C525 C 0.34578 0.88375 0.08253 0.0
H526 H 0.26686 0.85511 0.03514 0.0
C527 C 0.3855 0.90632 0.07055 0.0
C528 C 0.38299 0.91029 0.04571 0.0
H529 H 0.3491 0.88011 0.10146 0.0
H530 H 0.41828 0.92033 0.08084 0.0
C531 C 0.33967 0.89176 0.03323 0.0
C532 C 0.14069 0.42863 0.04791 0.0
C533 C 0.14917 0.43491 0.07301 0.0
H534 H 0.10596 0.43579 0.0171 0.0
C535 C 0.12692 0.45309 0.08642 0.0
H536 H 0.15663 0.41399 0.03704 0.0
C537 C 0.09751 0.46536 0.07496 0.0
C538 C 0.0897 0.45974 0.04982 0.0
H539 H 0.13298 0.45876 0.10575 0.0
H540 H 0.0813 0.47968 0.08583 0.0
C541 C 0.11144 0.44096 0.03646 0.0
C542 C 0.59912 0.68502 0.06923 0.0
C543 C 0.5744 0.70731 0.06431 0.0
H544 H 0.60295 0.62427 0.06331 0.0
C545 C 0.53529 0.6853 0.04784 0.0
H546 H 0.63006 0.70121 0.08125 0.0
C547 C 0.52117 0.64207 0.03678 0.0
C548 C 0.54497 0.61958 0.04261 0.0
H549 H 0.51467 0.70069 0.04393 0.0
H550 H 0.49064 0.62547 0.02443 0.0
C551 C 0.584 0.64121 0.05882 0.0
C552 C 0.86301 0.28807 0.98152 0.0
C553 C 0.84973 0.28289 0.95693 0.0
H554 H 0.9029 0.33396 1.01195 0.0
C555 C 0.86832 0.32153 0.9439 0.0
H556 H 0.84988 0.25884 0.99196 0.0
C557 C 0.89913 0.36452 0.95529 0.0
C558 C 0.91167 0.36974 0.97997 0.0
H559 H 0.85829 0.31872 0.925 0.0
H560 H 0.91249 0.39371 0.94481 0.0
C561 C 0.8935 0.33109 0.99295 0.0
C562 C 0.70439 0.56171 0.98102 0.0
C563 C 0.70223 0.5546 0.95586 0.0
H564 H 0.66769 0.5529 1.01236 0.0
C565 C 0.65898 0.53354 0.94298 0.0
H566 H 0.73715 0.57852 0.99155 0.0
C567 C 0.61901 0.51891 0.95499 0.0
C568 C 0.62117 0.52499 0.98021 0.0
H569 H 0.65585 0.52711 0.92367 0.0
H570 H 0.58634 0.50233 0.94444 0.0
C571 C 0.66449 0.547 0.99301 0.0
C572 C 0.40674 0.10736 0.98711 0.0
C573 C 0.41124 0.11484 0.9627 0.0
H574 H 0.42333 0.08034 0.01711 0.0
C575 C 0.43505 0.0984 0.94947 0.0
H576 H 0.38821 0.11934 0.99771 0.0
C577 C 0.45513 0.07617 0.96055 0.0
C578 C 0.45192 0.06996 0.98513 0.0
H579 H 0.43978 0.10428 0.93076 0.0
H580 H 0.47386 0.06458 0.94985 0.0
C581 C 0.42698 0.0852 0.99824 0.0
C582 C 0.68199 0.15618 0.97285 0.0
C583 C 0.70221 0.13671 0.95855 0.0
H584 H 0.6306 0.14521 0.99697 0.0
C585 C 0.68465 0.0895 0.95785 0.0
H586 H 0.694 0.19235 0.97348 0.0
C587 C 0.64803 0.06252 0.97118 0.0
C588 C 0.62821 0.08209 0.98566 0.0
H589 H 0.69971 0.07345 0.94734 0.0
H590 H 0.6353 0.02618 0.97014 0.0
C591 C 0.64566 0.12925 0.9864 0.0
C592 C 0.85592 0.55893 0.98209 0.0
C593 C 0.85266 0.55887 0.95691 0.0
H594 H 0.88652 0.54671 0.01302 0.0
C595 C 0.88135 0.54827 0.94386 0.0
H596 H 0.83582 0.56832 0.99302 0.0
C597 C 0.91193 0.53778 0.95562 0.0
C598 C 0.91358 0.53631 0.98058 0.0
H599 H 0.87962 0.54697 0.92451 0.0
H600 H 0.93329 0.52944 0.94509 0.0
C601 C 0.88533 0.54695 0.9937 0.0
C602 C 0.38642 0.28275 0.9646 0.0
C603 C 0.41358 0.26229 0.96609 0.0
H604 H 0.38104 0.34164 0.97373 0.0
C605 C 0.45689 0.28622 0.97899 0.0
H606 H 0.35271 0.26491 0.95501 0.0
C607 C 0.47294 0.32992 0.98991 0.0
C608 C 0.44619 0.35073 0.98799 0.0
H609 H 0.479 0.2717 0.98011 0.0
H610 H 0.50677 0.34773 0.99938 0.0
C611 C 0.4026 0.32659 0.97541 0.0
C612 C 0.10876 0.69757 0.07241 0.0
C613 C 0.15611 0.71717 0.07035 0.0
H614 H 0.04179 0.63981 0.06339 0.0
C615 C 0.17214 0.6923 0.05722 0.0
H616 H 0.09535 0.71607 0.08222 0.0
C617 C 0.14152 0.64901 0.04621 0.0
C618 C 0.09423 0.62938 0.04829 0.0
H619 H 0.20848 0.70599 0.05573 0.0
H620 H 0.15508 0.63075 0.03629 0.0
C621 C 0.0781 0.65399 0.06156 0.0
C622 C 0.33763 0.44343 0.08524 0.0
C623 C 0.29634 0.43273 0.07224 0.0
H624 H 0.40825 0.46228 0.08399 0.0
C625 C 0.29593 0.43293 0.04705 0.0
H626 H 0.3399 0.44436 0.10458 0.0
C627 C 0.33567 0.44489 0.03536 0.0
C628 C 0.37665 0.45553 0.0484 0.0
H629 H 0.26474 0.42348 0.03613 0.0
H630 H 0.33401 0.44481 0.01603 0.0
C631 C 0.37709 0.45417 0.07343 0.0
C632 C 0.56659 0.88383 0.07962 0.0
C633 C 0.5812 0.85817 0.06599 0.0
H634 H 0.54102 0.93011 0.07946 0.0
C635 C 0.58116 0.8605 0.04095 0.0
H636 H 0.56496 0.88229 0.09879 0.0
C637 C 0.56526 0.88634 0.02981 0.0
C638 C 0.55079 0.91163 0.04358 0.0
H639 H 0.59326 0.84231 0.02984 0.0
H640 H 0.56511 0.88727 1.01053 0.0
C641 C 0.55223 0.9108 0.06854 0.0
C642 C 0.99006 0.16775 0.38867 0.0
C643 C 0.97186 0.18713 0.40451 0.0
H644 H 0.03975 0.17911 0.36344 0.0
C645 C 0.99136 0.23467 0.40683 0.0
H646 H 0.97651 0.13126 0.38678 0.0
C647 C 0.02793 0.26208 0.39356 0.0
C648 C 0.04577 0.2426 0.37757 0.0
H649 H 0.97795 0.2507 0.4186 0.0
H650 H 0.04218 0.29866 0.39586 0.0
C651 C 0.02635 0.19512 0.37525 0.0
C652 C 0.83978 0.81873 0.39812 0.0
C653 C 0.82449 0.77877 0.41001 0.0
H654 H 0.82174 0.85823 0.37647 0.0
C655 C 0.77693 0.74865 0.40984 0.0
H656 H 0.87599 0.84345 0.39836 0.0
C657 C 0.74567 0.75774 0.39764 0.0
C658 C 0.76126 0.79678 0.38502 0.0
H659 H 0.76377 0.71734 0.41856 0.0
H660 H 0.70933 0.73355 0.39759 0.0
C661 C 0.80863 0.82736 0.3856 0.0
C662 C 0.22335 0.0401 0.37935 0.0
C663 C 0.25894 0.05977 0.39793 0.0
H664 H 0.17985 0.98154 0.35505 0.0
C665 C 0.27894 0.03445 0.40562 0.0
H666 H 0.20609 0.05778 0.37329 0.0
C667 C 0.2622 0.98988 0.39582 0.0
C668 C 0.22634 0.97051 0.37762 0.0
H669 H 0.30706 0.04867 0.41944 0.0
H670 H 0.27735 0.97057 0.40239 0.0
C671 C 0.20777 -0.00383 0.36903 0.0
C672 C 0.49994 0.63204 0.30447 0.0
C673 C 0.5167 0.60726 0.29189 0.0
H674 H 0.51589 0.69342 0.32525 0.0
C675 C 0.56425 0.62698 0.29057 0.0
H676 H 0.46344 0.61825 0.30539 0.0
C677 C 0.59439 0.67048 0.3017 0.0
C678 C 0.57753 0.69495 0.31449 0.0
H679 H 0.57822 0.60857 0.28118 0.0
H680 H 0.63087 0.68471 0.30047 0.0
C681 C 0.53001 0.67529 0.31573 0.0
C682 C 0.38061 0.90565 0.3167 0.0
C683 C 0.37805 0.8978 0.29158 0.0
H684 H 0.34437 0.89919 0.34801 0.0
C685 C 0.33484 0.87782 0.27874 0.0
H686 H 0.41339 0.92163 0.32717 0.0
C687 C 0.29521 0.86508 0.29072 0.0
C688 C 0.29769 0.87196 0.31589 0.0
H689 H 0.33141 0.87078 0.25946 0.0
H690 H 0.26255 0.84929 0.28019 0.0
C691 C 0.34099 0.8928 0.32869 0.0
C692 C 0.10575 0.44031 0.28265 0.0
C693 C 0.09206 0.46674 0.29627 0.0
H694 H 0.1309 0.39367 0.283 0.0
C695 C 0.09333 0.46565 0.3214 0.0
H696 H 0.10625 0.44087 0.26339 0.0
C697 C 0.10958 0.44027 0.33264 0.0
C698 C 0.12317 0.41422 0.3189 0.0
H699 H 0.08189 0.4845 0.33248 0.0
H700 H 0.11057 0.44017 0.35197 0.0
C701 C 0.12052 0.41378 0.29387 0.0
C702 C 0.37358 0.455 0.31706 0.0
C703 C 0.37132 0.45904 0.29221 0.0
H704 H 0.33647 0.42996 0.34806 0.0
C705 C 0.3281 0.43913 0.27949 0.0
H706 H 0.40643 0.46967 0.32737 0.0
C707 C 0.28817 0.41662 0.29136 0.0
C708 C 0.29032 0.4133 0.31628 0.0
H709 H 0.32503 0.44226 0.26048 0.0
H710 H 0.25554 0.40221 0.2809 0.0
C711 C 0.33353 0.43247 0.32897 0.0
C712 C 0.53347 0.90089 0.31586 0.0
C713 C 0.52392 0.89367 0.29081 0.0
H714 H 0.56819 0.89335 0.34657 0.0
C715 C 0.54446 0.87358 0.2774 0.0
H716 H 0.51897 0.91703 0.32675 0.0
C717 C 0.57317 0.86038 0.28878 0.0
C718 C 0.58184 0.86675 0.31388 0.0
H719 H 0.53751 0.86701 0.25812 0.0
H720 H 0.58798 0.84457 0.2779 0.0
C721 C 0.56188 0.88744 0.32725 0.0
C722 C 0.07023 0.63535 0.29717 0.0
C723 C 0.09904 0.61669 0.29784 0.0
H724 H 0.06188 0.69184 0.30783 0.0
C725 C 0.14251 0.64147 0.31049 0.0
H726 H 0.03633 0.6167 0.2878 0.0
C727 C 0.15692 0.68417 0.32223 0.0
C728 C 0.12829 0.70302 0.32133 0.0
H729 H 0.16575 0.62822 0.31097 0.0
H730 H 0.19081 0.70272 0.3316 0.0
C731 C 0.08477 0.6782 0.30876 0.0
C732 C 0.83783 0.0177 0.38863 0.0
C733 C 0.82514 0.0399 0.40601 0.0
H734 H 0.81596 0.95938 0.36363 0.0
C735 C 0.77913 0.01836 0.41172 0.0
H736 H 0.87302 0.03229 0.38419 0.0
C737 C 0.74697 0.97554 0.4006 0.0
C738 C 0.7599 0.95432 0.38302 0.0
H739 H 0.76767 0.03461 0.42458 0.0
H740 H 0.71183 0.95944 0.40535 0.0
C741 C 0.80533 0.97571 0.37697 0.0
C742 C 0.97204 0.77873 0.38218 0.0
C743 C 0.97242 0.77782 0.40736 0.0
H744 H 0.0105 0.79269 0.35118 0.0
C745 C 0.01407 0.78956 0.4203 0.0
H746 H 0.94066 0.76854 0.37128 0.0
C747 C 0.05382 0.80187 0.40849 0.0
C748 C 0.0534 0.80391 0.3835 0.0
H749 H 0.01638 0.79008 0.43963 0.0
H750 H 0.08518 0.81056 0.41902 0.0
C751 C 0.01211 0.79236 0.37049 0.0
C752 C 0.27117 0.2493 0.40486 0.0
C753 C 0.25436 0.20317 0.39726 0.0
H754 H 0.26587 0.3088 0.40046 0.0
C755 C 0.22047 0.18273 0.37779 0.0
H756 H 0.29774 0.26663 0.41938 0.0
C757 C 0.20397 0.20762 0.36633 0.0
C758 C 0.2196 0.25282 0.37467 0.0
H759 H 0.20525 0.14698 0.37178 0.0
H760 H 0.17745 0.19094 0.35169 0.0
C761 C 0.25332 0.27364 0.39391 0.0
C762 C 0.65212 0.50471 0.71993 0.0
C763 C 0.63676 0.52614 0.73641 0.0
H764 H 0.70087 0.51306 0.69448 0.0
C765 C 0.66053 0.57405 0.73956 0.0
H766 H 0.63597 0.46795 0.71746 0.0
C767 C 0.69872 0.59958 0.72689 0.0
C768 C 0.71315 0.57791 0.71029 0.0
H769 H 0.64966 0.59199 0.75169 0.0
H770 H 0.71709 0.63644 0.73004 0.0
C771 C 0.68942 0.53037 0.70671 0.0
C772 C 0.45448 0.11778 0.75494 0.0
C773 C 0.4829 0.10712 0.74168 0.0
H774 H 0.40251 0.13664 0.75401 0.0
C775 C 0.47913 0.10681 0.71652 0.0
H776 H 0.45655 0.11902 0.7743 0.0
C777 C 0.44942 0.11853 0.70509 0.0
C778 C 0.42146 0.12936 0.71836 0.0
H779 H 0.499 0.0973 0.70547 0.0
H780 H 0.44784 0.11845 0.68575 0.0
C781 C 0.42366 0.12821 0.74335 0.0
C782 C 0.86716 0.35588 0.71739 0.0
C783 C 0.90512 0.37733 0.73461 0.0
H784 H 0.82409 0.29701 0.69315 0.0
C785 C 0.92883 0.35448 0.74046 0.0
H786 H 0.84715 0.37165 0.71286 0.0
C787 C 0.91421 0.31089 0.72982 0.0
C788 C 0.87663 0.29006 0.71262 0.0
H789 H 0.95874 0.37016 0.7532 0.0
H790 H 0.93259 0.29365 0.73483 0.0
C791 C 0.85357 0.31296 0.7062 0.0
C792 C 0.16146 0.97865 0.63451 0.0
C793 C 0.17731 0.95244 0.62251 0.0
H794 H 0.1789 0.03959 0.6562 0.0
C795 C 0.22475 0.96934 0.62293 0.0
H796 H 0.12515 0.967 0.63413 0.0
C797 C 0.25564 0.01132 0.63534 0.0
C798 C 0.23962 0.03695 0.64773 0.0
H799 H 0.23801 0.94972 0.6141 0.0
H800 H 0.29201 0.02333 0.63551 0.0
C801 C 0.19226 0.0203 0.64711 0.0
C802 C 0.99262 0.20351 0.61165 0.0
C803 C 0.036 0.22614 0.62443 0.0
H804 H 0.91998 0.17097 0.61321 0.0
C805 C 0.03835 0.23455 0.64951 0.0
H806 H 0.98935 0.19593 0.59242 0.0
C807 C 0.99846 0.21968 0.66154 0.0
C808 C 0.95506 0.19625 0.64882 0.0
H809 H 0.0712 0.25252 0.65993 0.0
H810 H 0.00172 0.22666 0.68082 0.0
C811 C 0.95272 0.18877 0.62368 0.0
C812 C 0.73108 0.74473 0.62463 0.0
C813 C 0.75091 0.79177 0.63092 0.0
H814 H 0.73349 0.68395 0.62997 0.0
C815 C 0.78826 0.81308 0.64859 0.0
H816 H 0.70201 0.72689 0.61143 0.0
C817 C 0.8047 0.788 0.6599 0.0
C818 C 0.78544 0.74156 0.6531 0.0
H819 H 0.80584 0.84947 0.6534 0.0
H820 H 0.83364 0.80526 0.67325 0.0
C821 C 0.74872 0.72001 0.63538 0.0
C822 C 0.00882 0.82497 0.63575 0.0
C823 C 0.03018 0.80576 0.62218 0.0
H824 H 0.95726 0.814 0.65977 0.0
C825 C 0.01381 0.75886 0.62225 0.0
H826 H 0.01992 0.86088 0.63575 0.0
C827 C 0.97762 0.73204 0.63584 0.0
C828 C 0.95714 0.7515 0.64987 0.0
H829 H 0.02972 0.74299 0.61234 0.0
H830 H 0.96602 0.69597 0.63552 0.0
C831 C 0.97298 0.79822 0.6496 0.0
C832 C 0.20779 0.21127 0.61165 0.0
C833 C 0.18604 0.23049 0.62467 0.0
H834 H 0.25292 0.1842 0.61282 0.0
C835 C 0.19547 0.23866 0.64973 0.0
H836 H 0.201 0.20402 0.59238 0.0
C837 C 0.22478 0.22671 0.66151 0.0
C838 C 0.24574 0.20662 0.64854 0.0
H839 H 0.18001 0.25419 0.66031 0.0
H840 H 0.23083 0.2331 0.68084 0.0
C841 C 0.23735 0.19957 0.62342 0.0
C842 C 0.78876 0.95788 0.64584 0.0
C843 C 0.7468 0.93509 0.63165 0.0
H844 H 0.83736 0.01807 0.66748 0.0
C845 C 0.72097 0.95669 0.62874 0.0
H846 H 0.80998 0.94253 0.648 0.0
C847 C 0.73704 0.00043 0.63973 0.0
C848 C 0.77916 0.0232 0.65381 0.0
H849 H 0.68843 0.93981 0.61801 0.0
H850 H 0.71656 0.01644 0.63707 0.0
C851 C 0.80465 0.00134 0.65689 0.0
C852 C 0.44262 0.35987 0.74513 0.0
C853 C 0.48906 0.38071 0.7403 0.0
H854 H 0.37542 0.30088 0.73857 0.0
C855 C 0.50297 0.35669 0.72482 0.0
H856 H 0.43033 0.37743 0.75659 0.0
C857 C 0.47114 0.31381 0.71385 0.0
C858 C 0.42512 0.29335 0.71879 0.0
H859 H 0.53856 0.37076 0.72121 0.0
H860 H 0.48263 0.29628 0.70178 0.0
C861 C 0.41105 0.31621 0.73473 0.0
C862 C 0.67259 0.11743 0.75301 0.0
C863 C 0.63107 0.10677 0.74031 0.0
H864 H 0.74296 0.13601 0.75127 0.0
C865 C 0.63013 0.10718 0.7151 0.0
H866 H 0.6753 0.11831 0.77234 0.0
C867 C 0.66955 0.11902 0.70311 0.0
C868 C 0.71069 0.12938 0.71586 0.0
H869 H 0.59874 0.09788 0.70443 0.0
H870 H 0.66749 0.11894 0.68378 0.0
C871 C 0.71168 0.12808 0.74091 0.0
C872 C 0.86634 0.50467 0.71891 0.0
C873 C 0.90754 0.52467 0.73375 0.0
H874 H 0.821 0.51528 0.69593 0.0
C875 C 0.93516 0.57231 0.73654 0.0
H876 H 0.84376 0.46803 0.7168 0.0
C877 C 0.92176 0.5994 0.72478 0.0
C878 C 0.8806 0.57931 0.70992 0.0
H879 H 0.96725 0.58863 0.74766 0.0
H880 H 0.9437 0.6361 0.72736 0.0
C881 C 0.85316 0.53171 0.707 0.0
C882 C 0.4956 0.93788 0.20401 0.0
C883 C 0.47673 0.95369 0.22137 0.0
H884 H 0.52099 0.94396 0.16934 0.0
C885 C 0.46764 0.98844 0.21578 0.0
H886 H 0.50253 0.91076 0.20743 0.0
C887 C 0.47776 0.00723 0.19363 0.0
C888 C 0.49713 0.99171 0.17639 0.0
H889 H 0.45345 0.00178 0.22869 0.0
H890 H 0.47006 0.03375 0.18997 0.0
C891 C 0.50571 0.95662 0.18194 0.0
C892 C 0.05066 0.54273 0.20859 0.0
C893 C 0.03081 0.50851 0.22439 0.0
H894 H 0.04888 0.5622 0.17321 0.0
C895 C 0.99321 0.46591 0.21578 0.0
H896 H 0.0801 0.57571 0.21458 0.0
C897 C 0.97557 0.45793 0.19185 0.0
C898 C 0.99543 0.49235 0.17611 0.0
H899 H 0.97714 0.43898 0.2276 0.0
H900 H 0.94676 0.42472 0.1856 0.0
C901 C 0.03311 0.53481 0.18479 0.0
C902 C 0.46194 0.45296 0.21288 0.0
C903 C 0.46513 0.49481 0.22 0.0
H904 H 0.47092 0.41281 0.18505 0.0
C905 C 0.47808 0.52791 0.20345 0.0
H906 H 0.45221 0.42688 0.22527 0.0
C907 C 0.4891 0.52012 0.18066 0.0
C908 C 0.48737 0.4789 0.17365 0.0
H909 H 0.4804 0.56033 0.20828 0.0
H910 H 0.50025 0.54709 0.16874 0.0
C911 C 0.47319 0.44517 0.18996 0.0
C912 C 0.94515 0.45488 0.82465 0.0
C913 C 0.96559 0.48731 0.80803 0.0
H914 H 0.94772 0.43814 0.86063 0.0
C915 C 0.00467 0.52955 0.8156 0.0
H916 H 0.91475 0.4222 0.81933 0.0
C917 C 0.0236 0.53873 0.83931 0.0
C918 C 0.00338 0.50601 0.85585 0.0
H919 H 0.02115 0.555 0.80305 0.0
H920 H 0.05391 0.57141 0.84472 0.0
C921 C 0.9638 0.46415 0.84832 0.0
C922 C 0.50173 0.49761 0.81176 0.0
C923 C 0.5441 0.50043 0.80871 0.0
H924 H 0.45614 0.49984 0.83624 0.0
C925 C 0.57559 0.51258 0.82874 0.0
H926 H 0.4769 0.48837 0.79655 0.0
C927 C 0.56367 0.51915 0.85165 0.0
C928 C 0.52023 0.51408 0.85482 0.0
H929 H 0.60838 0.51476 0.82684 0.0
H930 H 0.58796 0.52708 0.86694 0.0
C931 C 0.48997 0.50445 0.8345 0.0
C932 C 0.51417 0.06007 0.82765 0.0
C933 C 0.53067 0.04356 0.80933 0.0
H934 H 0.49185 0.05407 0.86308 0.0
C935 C 0.53794 0.00716 0.81363 0.0
H936 H 0.50861 0.08835 0.8251 0.0
C937 C 0.52834 0.98743 0.83556 0.0
C938 C 0.51175 0.00397 0.85384 0.0
H939 H 0.55034 0.99339 0.79991 0.0
H940 H 0.53434 0.95948 0.83827 0.0
C941 C 0.50498 0.04067 0.84956 0.0
C942 C 0.15499 0.26946 0.53705 0.0
C943 C 0.13431 0.28402 0.55395 0.0
H944 H 0.18149 0.27616 0.50261 0.0
C945 C 0.12341 0.31732 0.54781 0.0
H946 H 0.16296 0.24315 0.54079 0.0
C947 C 0.13409 0.33635 0.52571 0.0
C948 C 0.15599 0.32265 0.50913 0.0
H949 H 0.10786 0.32973 0.56037 0.0
H950 H 0.1263 0.36276 0.52192 0.0
C951 C 0.16571 0.28849 0.51506 0.0
C952 C 0.71021 0.86319 0.54125 0.0
C953 C 0.69036 0.8289 0.55699 0.0
H954 H 0.70939 0.88204 0.50557 0.0
C955 C 0.65407 0.78568 0.54813 0.0
H956 H 0.73856 0.89668 0.54754 0.0
C957 C 0.63733 0.77724 0.52403 0.0
C958 C 0.65702 0.81173 0.50834 0.0
H959 H 0.63809 0.75872 0.55994 0.0
H960 H 0.6092 0.74372 0.51763 0.0
C961 C 0.69378 0.85468 0.51719 0.0
C962 C 0.10021 0.81785 0.53341 0.0
C963 C 0.13189 0.83448 0.55366 0.0
H964 H 0.0884 0.79814 0.49562 0.0
C965 C 0.17593 0.84076 0.55135 0.0
H966 H 0.0661 0.81283 0.53465 0.0
C967 C 0.18873 0.83248 0.52913 0.0
C968 C 0.15789 0.81791 0.50859 0.0
H969 H 0.20095 0.85321 0.5667 0.0
H970 H 0.22347 0.83932 0.52788 0.0
C971 C 0.11317 0.80988 0.51105 0.0
C972 C 0.61648 0.77965 0.15443 0.0
C973 C 0.63734 0.81393 0.13875 0.0
H974 H 0.61748 0.75928 0.18967 0.0
C975 C 0.67558 0.85595 0.14753 0.0
H976 H 0.58655 0.74712 0.1483 0.0
C977 C 0.69304 0.86318 0.17145 0.0
C978 C 0.67245 0.82857 0.18703 0.0
H979 H 0.69245 0.88291 0.13581 0.0
H980 H 0.72245 0.89594 0.17778 0.0
C981 C 0.63391 0.78681 0.17823 0.0
C982 C 0.19763 0.7939 0.15908 0.0
C983 C 0.21082 0.82776 0.14298 0.0
H984 H 0.17505 0.77321 0.19351 0.0
C985 C 0.21477 0.86967 0.15075 0.0
H986 H 0.19481 0.76142 0.15374 0.0
C987 C 0.20377 0.8767 0.17384 0.0
C988 C 0.18896 0.84207 0.18965 0.0
H989 H 0.22476 0.89634 0.13872 0.0
H990 H 0.20652 0.9091 0.17925 0.0
C991 C 0.18671 0.80087 0.18202 0.0
C992 C 0.22667 0.3842 0.15956 0.0
C993 C 0.19319 0.36809 0.14009 0.0
H994 H 0.2423 0.37893 0.19634 0.0
C995 C 0.14897 0.33186 0.14308 0.0
H996 H 0.26096 0.41221 0.15791 0.0
C997 C 0.1383 0.31268 0.16505 0.0
C998 C 0.1714 0.32957 0.18472 0.0
H999 H 0.12246 0.3184 0.1284 0.0
H1000 H 0.10371 0.28533 0.16679 0.0
C1001 C 0.21583 0.3654 0.18164 0.0
C1002 C 0.79383 0.6503 0.88074 0.0
C1003 C 0.8038 0.61632 0.88675 0.0
H1004 H 0.79704 0.6958 0.85479 0.0
C1005 C 0.82448 0.60167 0.86989 0.0
H1006 H 0.77815 0.66265 0.89325 0.0
C1007 C 0.8357 0.62091 0.84799 0.0
C1008 C 0.82655 0.65546 0.84208 0.0
H1009 H 0.83216 0.57516 0.87364 0.0
H1010 H 0.85243 0.60917 0.83585 0.0
C1011 C 0.80521 0.66972 0.85876 0.0
C1012 C 0.37064 0.19176 0.87606 0.0
C1013 C 0.34951 0.15692 0.8914 0.0
H1014 H 0.37092 0.21284 0.84087 0.0
C1015 C 0.31178 0.11487 0.88218 0.0
H1016 H 0.40015 0.22434 0.88258 0.0
C1017 C 0.29503 0.10818 0.85812 0.0
C1018 C 0.31613 0.14325 0.84286 0.0
H1019 H 0.29482 0.08749 0.89365 0.0
H1020 H 0.26586 0.07552 0.85142 0.0
C1021 C 0.35418 0.18502 0.8521 0.0
C1022 C 0.78932 0.12609 0.87905 0.0
C1023 C 0.79412 0.16885 0.88564 0.0
H1024 H 0.79713 0.08395 0.8519 0.0
C1025 C 0.80882 0.20159 0.86885 0.0
H1026 H 0.77827 0.10027 0.89165 0.0
C1027 C 0.82002 0.19256 0.84636 0.0
C1028 C 0.81662 0.15037 0.83989 0.0
H1029 H 0.81247 0.23473 0.87328 0.0
H1030 H 0.8326 0.2193 0.83428 0.0
C1031 C 0.80067 0.117 0.85642 0.0
C1032 C 0.33864 0.20456 0.48338 0.0
C1033 C 0.30284 0.16179 0.47365 0.0
H1034 H 0.38251 0.24436 0.51454 0.0
C1035 C 0.28197 0.12636 0.48868 0.0
H1036 H 0.3554 0.23238 0.47215 0.0
C1037 C 0.29769 0.13301 0.51277 0.0
C1038 C 0.33457 0.17527 0.52237 0.0
H1039 H 0.25389 0.0932 0.48171 0.0
H1040 H 0.2818 0.10456 0.52368 0.0
C1041 C 0.35447 0.21122 0.50753 0.0
C1042 C 0.8884 0.19181 0.48641 0.0
C1043 C 0.88492 0.14985 0.47927 0.0
H1044 H 0.87775 0.23139 0.51375 0.0
C1045 C 0.87059 0.11626 0.49557 0.0
H1046 H 0.89921 0.2183 0.47421 0.0
C1047 C 0.85734 0.12322 0.51787 0.0
C1048 C 0.85865 0.16431 0.52472 0.0
H1049 H 0.86809 0.08375 0.49074 0.0
H1050 H 0.84433 0.09547 0.52932 0.0
C1051 C 0.87538 0.19897 0.50891 0.0
C1052 C 0.82611 0.67707 0.47967 0.0
C1053 C 0.87109 0.71065 0.47574 0.0
H1054 H 0.781 0.63179 0.50376 0.0
C1055 C 0.9061 0.72264 0.49404 0.0
H1056 H 0.79828 0.66643 0.46595 0.0
C1057 C 0.8962 0.70229 0.51578 0.0
C1058 C 0.85103 0.66919 0.51982 0.0
H1059 H 0.94109 0.74853 0.49179 0.0
H1060 H 0.92406 0.7125 0.52942 0.0
C1061 C 0.81625 0.65671 0.50134 0.0
loop_
_geom_bond_atom_site_label_1
_geom_bond_atom_site_label_2
_geom_bond_distance
_geom_bond_site_symmetry_2
_ccdc_geom_bond_type
H0 C3 0.931 . S
H1 C6 0.928 . S
H2 C8 0.930 . S
C3 H0 0.931 . S
C3 C4 1.413 . S
C3 C5 1.360 . S
C4 C3 1.413 . S
C4 C8 1.429 . S
C5 C3 1.360 . S
C5 C6 1.372 . S
C6 H1 0.928 . S
C6 C5 1.372 . S
C6 C7 1.404 . S
C7 C6 1.404 . S
C7 C8 1.391 . S
C8 H2 0.930 . S
C8 C4 1.429 . S
C8 C7 1.391 . S
H9 C12 0.931 . S
H10 C15 0.928 . S
H11 C17 0.930 . S
C12 H9 0.931 . S
C12 C13 1.413 . S
C12 C14 1.360 . S
C13 C12 1.413 . S
C13 C17 1.429 . S
C14 C12 1.360 . S
C14 C15 1.372 . S
C15 H10 0.928 . S
C15 C14 1.372 . S
C15 C16 1.404 . S
C16 C15 1.404 . S
C16 C17 1.391 . S
C17 H11 0.930 . S
C17 C13 1.429 . S
C17 C16 1.391 . S
H18 C21 0.931 . S
H19 C24 0.928 . S
H20 C26 0.930 . S
C21 H18 0.931 . S
C21 C22 1.413 . S
C21 C23 1.360 . S
C22 C21 1.413 . S
C22 C26 1.429 . S
C23 C21 1.360 . S
C23 C24 1.372 . S
C24 H19 0.928 . S
C24 C23 1.372 . S
C24 C25 1.404 . S
C25 C24 1.404 . S
C25 C26 1.391 . S
C26 H20 0.930 . S
C26 C22 1.429 . S
C26 C25 1.391 . S
H27 C30 0.931 . S
H28 C33 0.928 . S
H29 C35 0.930 . S
C30 H27 0.931 . S
C30 C31 1.413 . S
C30 C32 1.360 . S
C31 C30 1.413 . S
C31 C35 1.429 . S
C32 C30 1.360 . S
C32 C33 1.372 . S
C33 H28 0.928 . S
C33 C32 1.372 . S
C33 C34 1.404 . S
C34 C33 1.404 . S
C34 C35 1.391 . S
C35 H29 0.930 . S
C35 C31 1.429 . S
C35 C34 1.391 . S
H36 C39 0.931 . S
H37 C42 0.928 . S
H38 C44 0.930 . S
C39 H36 0.931 . S
C39 C40 1.413 . S
C39 C41 1.360 . S
C40 C39 1.413 . S
C40 C44 1.429 . S
C41 C39 1.360 . S
C41 C42 1.372 . S
C42 H37 0.928 . S
C42 C41 1.372 . S
C42 C43 1.404 . S
C43 C42 1.404 . S
C43 C44 1.391 . S
C44 H38 0.930 . S
C44 C40 1.429 . S
C44 C43 1.391 . S
H45 C48 0.931 . S
H46 C51 0.928 . S
H47 C53 0.930 . S
C48 H45 0.931 . S
C48 C49 1.413 . S
C48 C50 1.360 . S
C49 C48 1.413 . S
C49 C53 1.429 . S
C50 C48 1.360 . S
C50 C51 1.372 . S
C51 H46 0.928 . S
C51 C50 1.372 . S
C51 C52 1.404 . S
C52 C51 1.404 . S
C52 C53 1.391 . S
C53 H47 0.930 . S
C53 C49 1.429 . S
C53 C52 1.391 . S
H54 C57 0.931 . S
H55 C60 0.928 . S
H56 C62 0.930 . S
C57 H54 0.931 . S
C57 C58 1.413 . S
C57 C59 1.360 . S
C58 C57 1.413 . S
C58 C62 1.429 . S
C59 C57 1.360 . S
C59 C60 1.372 . S
C60 H55 0.928 . S
C60 C59 1.372 . S
C60 C61 1.404 . S
C61 C60 1.404 . S
C61 C62 1.391 . S
C62 H56 0.930 . S
C62 C58 1.429 . S
C62 C61 1.391 . S
H63 C66 0.931 . S
H64 C69 0.928 . S
H65 C71 0.930 . S
C66 H63 0.931 . S
C66 C67 1.413 . S
C66 C68 1.360 . S
C67 C66 1.413 . S
C67 C71 1.429 . S
C68 C66 1.360 . S
C68 C69 1.372 . S
C69 H64 0.928 . S
C69 C68 1.372 . S
C69 C70 1.404 . S
C70 C69 1.404 . S
C70 C71 1.391 . S
C71 H65 0.930 . S
C71 C67 1.429 . S
C71 C70 1.391 . S
H72 C75 0.931 . S
H73 C78 0.928 . S
H74 C80 0.930 . S
C75 H72 0.931 . S
C75 C76 1.413 . S
C75 C77 1.360 . S
C76 C75 1.413 . S
C76 C80 1.429 . S
C77 C75 1.360 . S
C77 C78 1.372 . S
C78 H73 0.928 . S
C78 C77 1.372 . S
C78 C79 1.404 . S
C79 C78 1.404 . S
C79 C80 1.391 . S
C80 H74 0.930 . S
C80 C76 1.429 . S
C80 C79 1.391 . S
H81 C84 0.931 . S
H82 C87 0.928 . S
H83 C89 0.930 . S
C84 H81 0.931 . S
C84 C85 1.413 . S
C84 C86 1.360 . S
C85 C84 1.413 . S
C85 C89 1.429 . S
C86 C84 1.360 . S
C86 C87 1.372 . S
C87 H82 0.928 . S
C87 C86 1.372 . S
C87 C88 1.404 . S
C88 C87 1.404 . S
C88 C89 1.391 . S
C89 H83 0.930 . S
C89 C85 1.429 . S
C89 C88 1.391 . S
H90 C93 0.931 . S
H91 C96 0.928 . S
H92 C98 0.930 . S
C93 H90 0.931 . S
C93 C94 1.413 . S
C93 C95 1.360 . S
C94 C93 1.413 . S
C94 C98 1.429 . S
C95 C93 1.360 . S
C95 C96 1.372 . S
C96 H91 0.928 . S
C96 C95 1.372 . S
C96 C97 1.404 . S
C97 C96 1.404 . S
C97 C98 1.391 . S
C98 H92 0.930 . S
C98 C94 1.429 . S
C98 C97 1.391 . S
H99 C102 0.931 . S
H100 C105 0.928 . S
H101 C107 0.930 . S
C102 H99 0.931 . S
C102 C103 1.413 . S
C102 C104 1.360 . S
C103 C102 1.413 . S
C103 C107 1.429 . S
C104 C102 1.360 . S
C104 C105 1.372 . S
C105 H100 0.928 . S
C105 C104 1.372 . S
C105 C106 1.404 . S
C106 C105 1.404 . S
C106 C107 1.391 . S
C107 H101 0.930 . S
C107 C103 1.429 . S
C107 C106 1.391 . S
H108 C111 0.931 . S
H109 C114 0.928 . S
H110 C116 0.930 . S
C111 H108 0.931 . S
C111 C112 1.413 . S
C111 C113 1.360 . S
C112 C111 1.413 . S
C112 C116 1.429 . S
C113 C111 1.360 . S
C113 C114 1.372 . S
C114 H109 0.928 . S
C114 C113 1.372 . S
C114 C115 1.404 . S
C115 C114 1.404 . S
C115 C116 1.391 . S
C116 H110 0.930 . S
C116 C112 1.429 . S
C116 C115 1.391 . S
H117 C120 0.931 . S
H118 C123 0.928 . S
H119 C125 0.930 . S
C120 H117 0.931 . S
C120 C121 1.413 . S
C120 C122 1.360 . S
C121 C120 1.413 . S
C121 C125 1.429 . S
C122 C120 1.360 . S
C122 C123 1.372 . S
C123 H118 0.928 . S
C123 C122 1.372 . S
C123 C124 1.404 . S
C124 C123 1.404 . S
C124 C125 1.391 . S
C125 H119 0.930 . S
C125 C121 1.429 . S
C125 C124 1.391 . S
H126 C129 0.931 . S
H127 C132 0.928 . S
H128 C134 0.930 . S
C129 H126 0.931 . S
C129 C130 1.413 . S
C129 C131 1.360 . S
C130 C129 1.413 . S
C130 C134 1.429 . S
C131 C129 1.360 . S
C131 C132 1.372 . S
C132 H127 0.928 . S
C132 C131 1.372 . S
C132 C133 1.404 . S
C133 C132 1.404 . S
C133 C134 1.391 . S
C134 H128 0.930 . S
C134 C130 1.429 . S
C134 C133 1.391 . S
H135 C138 0.931 . S
H136 C141 0.928 . S
H137 C143 0.930 . S
C138 H135 0.931 . S
C138 C139 1.413 . S
C138 C140 1.360 . S
C139 C138 1.413 . S
C139 C143 1.429 . S
C140 C138 1.360 . S
C140 C141 1.372 . S
C141 H136 0.928 . S
C141 C140 1.372 . S
C141 C142 1.404 . S
C142 C141 1.404 . S
C142 C143 1.391 . S
C143 H137 0.930 . S
C143 C139 1.429 . S
C143 C142 1.391 . S
H144 C147 0.931 . S
H145 C150 0.928 . S
H146 C152 0.930 . S
C147 H144 0.931 . S
C147 C148 1.413 . S
C147 C149 1.360 . S
C148 C147 1.413 . S
C148 C152 1.429 . S
C149 C147 1.360 . S
C149 C150 1.372 . S
C150 H145 0.928 . S
C150 C149 1.372 . S
C150 C151 1.404 . S
C151 C150 1.404 . S
C151 C152 1.391 . S
C152 H146 0.930 . S
C152 C148 1.429 . S
C152 C151 1.391 . S
H153 C156 0.931 . S
H154 C159 0.928 . S
H155 C161 0.930 . S
C156 H153 0.931 . S
C156 C157 1.413 . S
C156 C158 1.360 . S
C157 C156 1.413 . S
C157 C161 1.429 . S
C158 C156 1.360 . S
C158 C159 1.372 . S
C159 H154 0.928 . S
C159 C158 1.372 . S
C159 C160 1.404 . S
C160 C159 1.404 . S
C160 C161 1.391 . S
C161 H155 0.930 . S
C161 C157 1.429 . S
C161 C160 1.391 . S
Eu162 C171 2.828 . S
Eu162 O173 2.413 . S
Eu162 O175 2.418 . S
Eu162 O180 2.373 1_565 S
Eu162 O183 2.488 . S
Eu162 O184 2.471 . S
Eu162 O185 2.349 1_565 S
Eu163 O172 2.373 1_545 S
Eu163 O176 2.488 . S
Eu163 O177 2.471 . S
Eu163 O178 2.349 1_545 S
Eu163 O181 2.392 . S
Eu163 O182 2.418 . S
Eu163 C192 2.828 . S
C164 O182 1.244 1_556 S
C164 O185 1.265 . S
C165 C166 1.379 1_565 S
C165 C169 1.373 . S
C165 C171 1.505 . S
C166 C165 1.379 1_545 S
C166 C168 1.369 . S
C166 H194 0.930 . S
C167 C169 1.383 . S
C167 C170 1.385 1_565 S
C167 H195 0.930 . S
C168 C166 1.369 . S
C168 C170 1.390 . S
C168 H196 0.930 . S
C169 C165 1.373 . S
C169 C167 1.383 . S
C169 H197 0.931 . S
C170 C167 1.385 1_545 S
C170 C168 1.390 . S
C171 Eu162 2.828 . S
C171 C165 1.505 . S
C171 O183 1.249 . S
C171 O184 1.244 . S
O172 Eu163 2.373 1_565 S
O172 C174 1.258 . S
O173 Eu162 2.413 . S
O173 C174 1.218 1_556 S
C174 O172 1.258 . S
C174 O173 1.218 1_554 S
O175 Eu162 2.418 . S
O175 C179 1.244 1_556 S
O176 Eu163 2.488 . S
O176 C192 1.249 . S
O177 Eu163 2.471 . S
O177 C192 1.244 . S
O178 Eu163 2.349 1_565 S
O178 C179 1.265 . S
C179 O175 1.244 1_554 S
C179 O178 1.265 . S
O180 Eu162 2.373 1_545 S
O180 C193 1.258 . S
O181 Eu163 2.392 . S
O181 C193 1.242 1_554 S
O182 Eu163 2.418 . S
O182 C164 1.244 1_554 S
O183 Eu162 2.488 . S
O183 C171 1.249 . S
O184 Eu162 2.471 . S
O184 C171 1.244 . S
O185 Eu162 2.349 1_545 S
O185 C164 1.265 . S
C186 C187 1.379 1_545 S
C186 C190 1.373 . S
C186 C192 1.505 . S
C187 C186 1.379 1_565 S
C187 C189 1.369 . S
C187 H198 0.930 . S
C188 C190 1.383 . S
C188 C191 1.388 . S
C188 H199 0.930 . S
C189 C187 1.369 . S
C189 C191 1.387 1_565 S
C189 H200 0.930 . S
C190 C186 1.373 . S
C190 C188 1.383 . S
C190 H201 0.931 . S
C191 C188 1.388 . S
C191 C189 1.387 1_545 S
C192 Eu163 2.828 . S
C192 O176 1.249 . S
C192 O177 1.244 . S
C192 C186 1.505 . S
C193 O180 1.258 . S
C193 O181 1.242 1_556 S
H194 C166 0.930 . S
H195 C167 0.930 . S
H196 C168 0.930 . S
H197 C169 0.931 . S
H198 C187 0.930 . S
H199 C188 0.930 . S
H200 C189 0.930 . S
H201 C190 0.931 . S
Eu202 C211 2.828 . S
Eu202 O213 2.392 1_556 S
Eu202 O215 2.418 . S
Eu202 O220 2.373 1_455 S
Eu202 O223 2.488 . S
Eu202 O224 2.471 1_455 S
Eu202 O225 2.349 1_455 S
Eu203 O212 2.373 1_655 S
Eu203 O216 2.488 . S
Eu203 O217 2.471 1_655 S
Eu203 O218 2.349 1_655 S
Eu203 O221 2.392 1_554 S
Eu203 O222 2.418 . S
Eu203 C232 2.828 . S
C204 O222 1.244 1_556 S
C204 O225 1.265 . S
C205 C206 1.379 1_455 S
C205 C209 1.373 . S
C205 C211 1.505 . S
C206 C205 1.379 1_655 S
C206 C208 1.369 . S
C206 H234 0.930 . S
C207 C209 1.383 . S
C207 C210 1.382 1_455 S
C207 H235 0.930 . S
C208 C206 1.369 . S
C208 C210 1.392 . S
C208 H236 0.930 . S
C209 C205 1.373 . S
C209 C207 1.383 . S
C209 H237 0.931 . S
C210 C207 1.382 1_655 S
C210 C208 1.392 . S
C211 Eu202 2.828 . S
C211 C205 1.505 . S
C211 O223 1.249 . S
C211 O224 1.244 1_455 S
O212 Eu203 2.373 1_455 S
O212 C214 1.258 . S
O213 Eu202 2.392 1_554 S
O213 C214 1.242 . S
C214 O212 1.258 . S
C214 O213 1.242 . S
O215 Eu202 2.418 . S
O215 C219 1.244 1_556 S
O216 Eu203 2.488 . S
O216 C232 1.249 . S
O217 Eu203 2.471 1_455 S
O217 C232 1.244 1_455 S
O218 Eu203 2.349 1_455 S
O218 C219 1.265 . S
C219 O215 1.244 1_554 S
C219 O218 1.265 . S
O220 Eu202 2.373 1_655 S
O220 C233 1.258 . S
O221 Eu203 2.392 1_556 S
O221 C233 1.242 . S
O222 Eu203 2.418 . S
O222 C204 1.244 1_554 S
O223 Eu202 2.488 . S
O223 C211 1.249 . S
O224 Eu202 2.471 1_655 S
O224 C211 1.244 1_655 S
O225 Eu202 2.349 1_655 S
O225 C204 1.265 . S
C226 C227 1.379 1_655 S
C226 C230 1.373 . S
C226 C232 1.505 . S
C227 C226 1.379 1_455 S
C227 C229 1.369 . S
C227 H238 0.930 . S
C228 C230 1.383 . S
C228 C231 1.382 1_655 S
C228 H239 0.930 . S
C229 C227 1.369 . S
C229 C231 1.392 . S
C229 H240 0.930 . S
C230 C226 1.373 . S
C230 C228 1.383 . S
C230 H241 0.931 . S
C231 C228 1.382 1_455 S
C231 C229 1.392 . S
C232 Eu203 2.828 . S
C232 O216 1.249 . S
C232 O217 1.244 1_655 S
C232 C226 1.505 . S
C233 O220 1.258 . S
C233 O221 1.242 . S
H234 C206 0.930 . S
H235 C207 0.930 . S
H236 C208 0.930 . S
H237 C209 0.931 . S
H238 C227 0.930 . S
H239 C228 0.930 . S
H240 C229 0.930 . S
H241 C230 0.931 . S
Eu242 C251 2.828 . S
Eu242 O253 2.419 . S
Eu242 O255 2.418 . S
Eu242 O260 2.373 . S
Eu242 O263 2.488 . S
Eu242 O264 2.471 . S
Eu242 O265 2.349 . S
Eu243 O252 2.373 . S
Eu243 O256 2.488 . S
Eu243 O257 2.471 . S
Eu243 O258 2.349 . S
Eu243 O261 2.392 1_556 S
Eu243 O262 2.418 . S
Eu243 C272 2.828 . S
C244 O262 1.244 1_554 S
C244 O265 1.265 . S
C245 C246 1.379 . S
C245 C249 1.373 . S
C245 C251 1.505 . S
C246 C245 1.379 . S
C246 C248 1.369 . S
C246 H274 0.930 . S
C247 C249 1.383 . S
C247 C250 1.382 . S
C247 H275 0.930 . S
C248 C246 1.369 . S
C248 C250 1.392 . S
C248 H276 0.930 . S
C249 C245 1.373 . S
C249 C247 1.383 . S
C249 H277 0.931 . S
C250 C247 1.382 . S
C250 C248 1.392 . S
C251 Eu242 2.828 . S
C251 C245 1.505 . S
C251 O263 1.249 . S
C251 O264 1.244 . S
O252 Eu243 2.373 . S
O252 C254 1.258 . S
O253 Eu242 2.419 . S
O253 C254 1.211 1_554 S
C254 O252 1.258 . S
C254 O253 1.211 1_556 S
O255 Eu242 2.418 . S
O255 C259 1.244 1_554 S
O256 Eu243 2.488 . S
O256 C272 1.249 . S
O257 Eu243 2.471 . S
O257 C272 1.244 . S
O258 Eu243 2.349 . S
O258 C259 1.265 . S
C259 O255 1.244 1_556 S
C259 O258 1.265 . S
O260 Eu242 2.373 . S
O260 C273 1.258 . S
O261 Eu243 2.392 1_554 S
O261 C273 1.242 . S
O262 Eu243 2.418 . S
O262 C244 1.244 1_556 S
O263 Eu242 2.488 . S
O263 C251 1.249 . S
O264 Eu242 2.471 . S
O264 C251 1.244 . S
O265 Eu242 2.349 . S
O265 C244 1.265 . S
C266 C267 1.379 . S
C266 C270 1.373 . S
C266 C272 1.505 . S
C267 C266 1.379 . S
C267 C269 1.369 . S
C267 H278 0.930 . S
C268 C270 1.383 . S
C268 C271 1.382 . S
C268 H279 0.930 . S
C269 C267 1.369 . S
C269 C271 1.392 . S
C269 H280 0.930 . S
C270 C266 1.373 . S
C270 C268 1.383 . S
C270 H281 0.931 . S
C271 C268 1.382 . S
C271 C269 1.392 . S
C272 Eu243 2.828 . S
C272 O256 1.249 . S
C272 O257 1.244 . S
C272 C266 1.505 . S
C273 O260 1.258 . S
C273 O261 1.242 . S
H274 C246 0.930 . S
H275 C247 0.930 . S
H276 C248 0.930 . S
H277 C249 0.931 . S
H278 C267 0.930 . S
H279 C268 0.930 . S
H280 C269 0.930 . S
H281 C270 0.931 . S
Eu282 C291 2.828 . S
Eu282 O293 2.392 . S
Eu282 O295 2.418 . S
Eu282 O300 2.373 . S
Eu282 O303 2.488 . S
Eu282 O304 2.471 . S
Eu282 O305 2.349 . S
Eu283 O292 2.373 . S
Eu283 O296 2.488 . S
Eu283 O297 2.471 . S
Eu283 O298 2.349 . S
Eu283 O301 2.392 . S
Eu283 O302 2.418 . S
Eu283 C312 2.828 . S
C284 O302 1.244 . S
C284 O305 1.265 . S
C285 C286 1.379 . S
C285 C289 1.373 . S
C285 C291 1.505 . S
C286 C285 1.379 . S
C286 C288 1.369 . S
C286 H314 0.930 . S
C287 C289 1.383 . S
C287 C290 1.382 . S
C287 H315 0.930 . S
C288 C286 1.369 . S
C288 C290 1.392 . S
C288 H316 0.930 . S
C289 C285 1.373 . S
C289 C287 1.383 . S
C289 H317 0.931 . S
C290 C287 1.382 . S
C290 C288 1.392 . S
C291 Eu282 2.828 . S
C291 C285 1.505 . S
C291 O303 1.249 . S
C291 O304 1.244 . S
O292 Eu283 2.373 . S
O292 C294 1.258 . S
O293 Eu282 2.392 . S
O293 C294 1.242 . S
C294 O292 1.258 . S
C294 O293 1.242 . S
O295 Eu282 2.418 . S
O295 C299 1.244 . S
O296 Eu283 2.488 . S
O296 C312 1.249 . S
O297 Eu283 2.471 . S
O297 C312 1.244 . S
O298 Eu283 2.349 . S
O298 C299 1.265 . S
C299 O295 1.244 . S
C299 O298 1.265 . S
O300 Eu282 2.373 . S
O300 C313 1.258 . S
O301 Eu283 2.392 . S
O301 C313 1.242 . S
O302 Eu283 2.418 . S
O302 C284 1.244 . S
O303 Eu282 2.488 . S
O303 C291 1.249 . S
O304 Eu282 2.471 . S
O304 C291 1.244 . S
O305 Eu282 2.349 . S
O305 C284 1.265 . S
C306 C307 1.379 . S
C306 C310 1.373 . S
C306 C312 1.505 . S
C307 C306 1.379 . S
C307 C309 1.369 . S
C307 H318 0.930 . S
C308 C310 1.383 . S
C308 C311 1.382 . S
C308 H319 0.930 . S
C309 C307 1.369 . S
C309 C311 1.392 . S
C309 H320 0.930 . S
C310 C306 1.373 . S
C310 C308 1.383 . S
C310 H321 0.931 . S
C311 C308 1.382 . S
C311 C309 1.392 . S
C312 Eu283 2.828 . S
C312 O296 1.249 . S
C312 O297 1.244 . S
C312 C306 1.505 . S
C313 O300 1.258 . S
C313 O301 1.242 . S
H314 C286 0.930 . S
H315 C287 0.930 . S
H316 C288 0.930 . S
H317 C289 0.931 . S
H318 C307 0.930 . S
H319 C308 0.930 . S
H320 C309 0.930 . S
H321 C310 0.931 . S
Eu322 C331 2.828 . S
Eu322 O333 2.392 . S
Eu322 O335 2.418 . S
Eu322 O340 2.373 . S
Eu322 O343 2.488 . S
Eu322 O344 2.471 . S
Eu322 O345 2.349 . S
Eu323 O332 2.373 . S
Eu323 O336 2.488 . S
Eu323 O337 2.471 . S
Eu323 O338 2.349 . S
Eu323 O341 2.392 . S
Eu323 O342 2.418 . S
Eu323 C352 2.828 . S
C324 O342 1.244 . S
C324 O345 1.265 . S
C325 C326 1.379 . S
C325 C329 1.373 . S
C325 C331 1.505 . S
C326 C325 1.379 . S
C326 C328 1.369 . S
C326 H354 0.930 . S
C327 C329 1.383 . S
C327 C330 1.382 . S
C327 H355 0.930 . S
C328 C326 1.369 . S
C328 C330 1.392 . S
C328 H356 0.930 . S
C329 C325 1.373 . S
C329 C327 1.383 . S
C329 H357 0.931 . S
C330 C327 1.382 . S
C330 C328 1.392 . S
C331 Eu322 2.828 . S
C331 C325 1.505 . S
C331 O343 1.249 . S
C331 O344 1.244 . S
O332 Eu323 2.373 . S
O332 C334 1.258 . S
O333 Eu322 2.392 . S
O333 C334 1.242 . S
C334 O332 1.258 . S
C334 O333 1.242 . S
O335 Eu322 2.418 . S
O335 C339 1.244 . S
O336 Eu323 2.488 . S
O336 C352 1.249 . S
O337 Eu323 2.471 . S
O337 C352 1.244 . S
O338 Eu323 2.349 . S
O338 C339 1.265 . S
C339 O335 1.244 . S
C339 O338 1.265 . S
O340 Eu322 2.373 . S
O340 C353 1.258 . S
O341 Eu323 2.392 . S
O341 C353 1.242 . S
O342 Eu323 2.418 . S
O342 C324 1.244 . S
O343 Eu322 2.488 . S
O343 C331 1.249 . S
O344 Eu322 2.471 . S
O344 C331 1.244 . S
O345 Eu322 2.349 . S
O345 C324 1.265 . S
C346 C347 1.379 . S
C346 C350 1.373 . S
C346 C352 1.505 . S
C347 C346 1.379 . S
C347 C349 1.369 . S
C347 H358 0.930 . S
C348 C350 1.383 . S
C348 C351 1.382 . S
C348 H359 0.930 . S
C349 C347 1.369 . S
C349 C351 1.392 . S
C349 H360 0.930 . S
C350 C346 1.373 . S
C350 C348 1.383 . S
C350 H361 0.931 . S
C351 C348 1.382 . S
C351 C349 1.392 . S
C352 Eu323 2.828 . S
C352 O336 1.249 . S
C352 O337 1.244 . S
C352 C346 1.505 . S
C353 O340 1.258 . S
C353 O341 1.242 . S
H354 C326 0.930 . S
H355 C327 0.930 . S
H356 C328 0.930 . S
H357 C329 0.931 . S
H358 C347 0.930 . S
H359 C348 0.930 . S
H360 C349 0.930 . S
H361 C350 0.931 . S
Eu362 C371 2.828 . S
Eu362 O373 2.392 . S
Eu362 O375 2.418 . S
Eu362 O380 2.373 . S
Eu362 O383 2.488 . S
Eu362 O384 2.471 . S
Eu362 O385 2.349 . S
Eu363 O372 2.373 . S
Eu363 O376 2.488 . S
Eu363 O377 2.471 . S
Eu363 O378 2.349 . S
Eu363 O381 2.392 . S
Eu363 O382 2.418 . S
Eu363 C392 2.828 . S
C364 O382 1.244 . S
C364 O385 1.265 . S
C365 C366 1.379 . S
C365 C369 1.373 . S
C365 C371 1.505 . S
C366 C365 1.379 . S
C366 C368 1.369 . S
C366 H394 0.930 . S
C367 C369 1.383 . S
C367 C370 1.382 . S
C367 H395 0.930 . S
C368 C366 1.369 . S
C368 C370 1.392 . S
C368 H396 0.930 . S
C369 C365 1.373 . S
C369 C367 1.383 . S
C369 H397 0.931 . S
C370 C367 1.382 . S
C370 C368 1.392 . S
C371 Eu362 2.828 . S
C371 C365 1.505 . S
C371 O383 1.249 . S
C371 O384 1.244 . S
O372 Eu363 2.373 . S
O372 C374 1.258 . S
O373 Eu362 2.392 . S
O373 C374 1.242 . S
C374 O372 1.258 . S
C374 O373 1.242 . S
O375 Eu362 2.418 . S
O375 C379 1.244 . S
O376 Eu363 2.488 . S
O376 C392 1.249 . S
O377 Eu363 2.471 . S
O377 C392 1.244 . S
O378 Eu363 2.349 . S
O378 C379 1.265 . S
C379 O375 1.244 . S
C379 O378 1.265 . S
O380 Eu362 2.373 . S
O380 C393 1.258 . S
O381 Eu363 2.392 . S
O381 C393 1.242 . S
O382 Eu363 2.418 . S
O382 C364 1.244 . S
O383 Eu362 2.488 . S
O383 C371 1.249 . S
O384 Eu362 2.471 . S
O384 C371 1.244 . S
O385 Eu362 2.349 . S
O385 C364 1.265 . S
C386 C387 1.379 . S
C386 C390 1.373 . S
C386 C392 1.505 . S
C387 C386 1.379 . S
C387 C389 1.369 . S
C387 H398 0.930 . S
C388 C390 1.383 . S
C388 C391 1.382 . S
C388 H399 0.930 . S
C389 C387 1.369 . S
C389 C391 1.392 . S
C389 H400 0.930 . S
C390 C386 1.373 . S
C390 C388 1.383 . S
C390 H401 0.931 . S
C391 C388 1.382 . S
C391 C389 1.392 . S
C392 Eu363 2.828 . S
C392 O376 1.249 . S
C392 O377 1.244 . S
C392 C386 1.505 . S
C393 O380 1.258 . S
C393 O381 1.242 . S
H394 C366 0.930 . S
H395 C367 0.930 . S
H396 C368 0.930 . S
H397 C369 0.931 . S
H398 C387 0.930 . S
H399 C388 0.930 . S
H400 C389 0.930 . S
H401 C390 0.931 . S
Eu402 C411 2.828 . S
Eu402 O413 2.392 . S
Eu402 O415 2.418 . S
Eu402 O420 2.373 . S
Eu402 O423 2.488 . S
Eu402 O424 2.471 . S
Eu402 O425 2.349 . S
Eu403 O412 2.373 . S
Eu403 O416 2.488 . S
Eu403 O417 2.471 . S
Eu403 O418 2.349 . S
Eu403 O421 2.392 . S
Eu403 O422 2.418 . S
Eu403 C432 2.828 . S
C404 O422 1.244 . S
C404 O425 1.265 . S
C405 C406 1.379 . S
C405 C409 1.373 . S
C405 C411 1.505 . S
C406 C405 1.379 . S
C406 C408 1.369 . S
C406 H434 0.930 . S
C407 C409 1.383 . S
C407 C410 1.382 . S
C407 H435 0.930 . S
C408 C406 1.369 . S
C408 C410 1.392 . S
C408 H436 0.930 . S
C409 C405 1.373 . S
C409 C407 1.383 . S
C409 H437 0.931 . S
C410 C407 1.382 . S
C410 C408 1.392 . S
C411 Eu402 2.828 . S
C411 C405 1.505 . S
C411 O423 1.249 . S
C411 O424 1.244 . S
O412 Eu403 2.373 . S
O412 C414 1.258 . S
O413 Eu402 2.392 . S
O413 C414 1.242 . S
C414 O412 1.258 . S
C414 O413 1.242 . S
O415 Eu402 2.418 . S
O415 C419 1.244 . S
O416 Eu403 2.488 . S
O416 C432 1.249 . S
O417 Eu403 2.471 . S
O417 C432 1.244 . S
O418 Eu403 2.349 . S
O418 C419 1.265 . S
C419 O415 1.244 . S
C419 O418 1.265 . S
O420 Eu402 2.373 . S
O420 C433 1.258 . S
O421 Eu403 2.392 . S
O421 C433 1.242 . S
O422 Eu403 2.418 . S
O422 C404 1.244 . S
O423 Eu402 2.488 . S
O423 C411 1.249 . S
O424 Eu402 2.471 . S
O424 C411 1.244 . S
O425 Eu402 2.349 . S
O425 C404 1.265 . S
C426 C427 1.379 . S
C426 C430 1.373 . S
C426 C432 1.505 . S
C427 C426 1.379 . S
C427 C429 1.369 . S
C427 H438 0.930 . S
C428 C430 1.383 . S
C428 C431 1.382 . S
C428 H439 0.930 . S
C429 C427 1.369 . S
C429 C431 1.392 . S
C429 H440 0.930 . S
C430 C426 1.373 . S
C430 C428 1.383 . S
C430 H441 0.931 . S
C431 C428 1.382 . S
C431 C429 1.392 . S
C432 Eu403 2.828 . S
C432 O416 1.249 . S
C432 O417 1.244 . S
C432 C426 1.505 . S
C433 O420 1.258 . S
C433 O421 1.242 . S
H434 C406 0.930 . S
H435 C407 0.930 . S
H436 C408 0.930 . S
H437 C409 0.931 . S
H438 C427 0.930 . S
H439 C428 0.930 . S
H440 C429 0.930 . S
H441 C430 0.931 . S
Eu442 C451 2.828 . S
Eu442 O453 2.392 . S
Eu442 O455 2.418 . S
Eu442 O460 2.373 . S
Eu442 O463 2.488 . S
Eu442 O464 2.471 . S
Eu442 O465 2.349 . S
Eu443 O452 2.373 . S
Eu443 O456 2.488 . S
Eu443 O457 2.471 . S
Eu443 O458 2.349 . S
Eu443 O461 2.392 . S
Eu443 O462 2.418 . S
Eu443 C472 2.828 . S
C444 O462 1.244 . S
C444 O465 1.265 . S
C445 C446 1.379 . S
C445 C449 1.373 . S
C445 C451 1.505 . S
C446 C445 1.379 . S
C446 C448 1.369 . S
C446 H474 0.930 . S
C447 C449 1.383 . S
C447 C450 1.382 . S
C447 H475 0.930 . S
C448 C446 1.369 . S
C448 C450 1.392 . S
C448 H476 0.930 . S
C449 C445 1.373 . S
C449 C447 1.383 . S
C449 H477 0.931 . S
C450 C447 1.382 . S
C450 C448 1.392 . S
C451 Eu442 2.828 . S
C451 C445 1.505 . S
C451 O463 1.249 . S
C451 O464 1.244 . S
O452 Eu443 2.373 . S
O452 C454 1.258 . S
O453 Eu442 2.392 . S
O453 C454 1.242 . S
C454 O452 1.258 . S
C454 O453 1.242 . S
O455 Eu442 2.418 . S
O455 C459 1.244 . S
O456 Eu443 2.488 . S
O456 C472 1.249 . S
O457 Eu443 2.471 . S
O457 C472 1.244 . S
O458 Eu443 2.349 . S
O458 C459 1.265 . S
C459 O455 1.244 . S
C459 O458 1.265 . S
O460 Eu442 2.373 . S
O460 C473 1.258 . S
O461 Eu443 2.392 . S
O461 C473 1.242 . S
O462 Eu443 2.418 . S
O462 C444 1.244 . S
O463 Eu442 2.488 . S
O463 C451 1.249 . S
O464 Eu442 2.471 . S
O464 C451 1.244 . S
O465 Eu442 2.349 . S
O465 C444 1.265 . S
C466 C467 1.379 . S
C466 C470 1.373 . S
C466 C472 1.505 . S
C467 C466 1.379 . S
C467 C469 1.369 . S
C467 H478 0.930 . S
C468 C470 1.383 . S
C468 C471 1.382 . S
C468 H479 0.930 . S
C469 C467 1.369 . S
C469 C471 1.392 . S
C469 H480 0.930 . S
C470 C466 1.373 . S
C470 C468 1.383 . S
C470 H481 0.931 . S
C471 C468 1.382 . S
C471 C469 1.392 . S
C472 Eu443 2.828 . S
C472 O456 1.249 . S
C472 O457 1.244 . S
C472 C466 1.505 . S
C473 O460 1.258 . S
C473 O461 1.242 . S
H474 C446 0.930 . S
H475 C447 0.930 . S
H476 C448 0.930 . S
H477 C449 0.931 . S
H478 C467 0.930 . S
H479 C468 0.930 . S
H480 C469 0.930 . S
H481 C470 0.931 . S
Eu482 C491 2.828 . S
Eu482 O493 2.392 . S
Eu482 O495 2.418 . S
Eu482 O500 2.373 . S
Eu482 O503 2.488 . S
Eu482 O504 2.471 . S
Eu482 O505 2.349 . S
Eu483 O492 2.373 . S
Eu483 O496 2.488 . S
Eu483 O497 2.471 . S
Eu483 O498 2.349 . S
Eu483 O501 2.392 . S
Eu483 O502 2.418 . S
Eu483 C512 2.828 . S
C484 O502 1.244 . S
C484 O505 1.265 . S
C485 C486 1.379 . S
C485 C489 1.373 . S
C485 C491 1.505 . S
C486 C485 1.379 . S
C486 C488 1.369 . S
C486 H514 0.930 . S
C487 C489 1.383 . S
C487 C490 1.382 . S
C487 H515 0.930 . S
C488 C486 1.369 . S
C488 C490 1.392 . S
C488 H516 0.930 . S
C489 C485 1.373 . S
C489 C487 1.383 . S
C489 H517 0.931 . S
C490 C487 1.382 . S
C490 C488 1.392 . S
C491 Eu482 2.828 . S
C491 C485 1.505 . S
C491 O503 1.249 . S
C491 O504 1.244 . S
O492 Eu483 2.373 . S
O492 C494 1.258 . S
O493 Eu482 2.392 . S
O493 C494 1.242 . S
C494 O492 1.258 . S
C494 O493 1.242 . S
O495 Eu482 2.418 . S
O495 C499 1.244 . S
O496 Eu483 2.488 . S
O496 C512 1.249 . S
O497 Eu483 2.471 . S
O497 C512 1.244 . S
O498 Eu483 2.349 . S
O498 C499 1.265 . S
C499 O495 1.244 . S
C499 O498 1.265 . S
O500 Eu482 2.373 . S
O500 C513 1.258 . S
O501 Eu483 2.392 . S
O501 C513 1.242 . S
O502 Eu483 2.418 . S
O502 C484 1.244 . S
O503 Eu482 2.488 . S
O503 C491 1.249 . S
O504 Eu482 2.471 . S
O504 C491 1.244 . S
O505 Eu482 2.349 . S
O505 C484 1.265 . S
C506 C507 1.379 . S
C506 C510 1.373 . S
C506 C512 1.505 . S
C507 C506 1.379 . S
C507 C509 1.369 . S
C507 H518 0.930 . S
C508 C510 1.383 . S
C508 C511 1.382 . S
C508 H519 0.930 . S
C509 C507 1.369 . S
C509 C511 1.392 . S
C509 H520 0.930 . S
C510 C506 1.373 . S
C510 C508 1.383 . S
C510 H521 0.931 . S
C511 C508 1.382 . S
C511 C509 1.392 . S
C512 Eu483 2.828 . S
C512 O496 1.249 . S
C512 O497 1.244 . S
C512 C506 1.505 . S
C513 O500 1.258 . S
C513 O501 1.242 . S
H514 C486 0.930 . S
H515 C487 0.930 . S
H516 C488 0.930 . S
H517 C489 0.931 . S
H518 C507 0.930 . S
H519 C508 0.930 . S
H520 C509 0.930 . S
H521 C510 0.931 . S
C522 C523 1.387 . S
C522 H526 0.950 . S
C522 C531 1.390 . S
C523 C522 1.387 . S
C523 C525 1.387 . S
H524 C531 0.931 1_556 S
C525 C523 1.387 . S
C525 C527 1.390 . S
C525 H529 0.950 . S
H526 C522 0.950 . S
C527 C525 1.390 . S
C527 C528 1.387 . S
C527 H530 0.950 . S
C528 C527 1.387 . S
C528 C531 1.387 . S
H529 C525 0.950 . S
H530 C527 0.950 . S
C531 C522 1.390 . S
C531 H524 0.931 1_554 S
C531 C528 1.387 . S
C532 C533 1.387 . S
C532 H536 0.950 . S
C532 C541 1.390 . S
C533 C532 1.387 . S
C533 C535 1.387 . S
H534 C541 0.950 . S
C535 C533 1.387 . S
C535 C537 1.390 . S
C535 H539 0.950 . S
H536 C532 0.950 . S
C537 C535 1.390 . S
C537 C538 1.387 . S
C537 H540 0.950 . S
C538 C537 1.387 . S
C538 C541 1.387 . S
H539 C535 0.950 . S
H540 C537 0.950 . S
C541 C532 1.390 . S
C541 H534 0.950 . S
C541 C538 1.387 . S
C542 C543 1.387 . S
C542 H546 0.950 . S
C542 C551 1.390 . S
C543 C542 1.387 . S
C543 C545 1.387 . S
H544 C551 0.950 . S
C545 C543 1.387 . S
C545 C547 1.390 . S
C545 H549 0.950 . S
H546 C542 0.950 . S
C547 C545 1.390 . S
C547 C548 1.387 . S
C547 H550 0.950 . S
C548 C547 1.387 . S
C548 C551 1.387 . S
H549 C545 0.950 . S
H550 C547 0.950 . S
C551 C542 1.390 . S
C551 H544 0.950 . S
C551 C548 1.387 . S
C552 C553 1.387 . S
C552 H556 0.950 . S
C552 C561 1.390 . S
C553 C552 1.387 . S
C553 C555 1.387 . S
H554 C561 0.950 1_554 S
C555 C553 1.387 . S
C555 C557 1.390 . S
C555 H559 0.950 . S
H556 C552 0.950 . S
C557 C555 1.390 . S
C557 C558 1.387 . S
C557 H560 0.950 . S
C558 C557 1.387 . S
C558 C561 1.387 . S
H559 C555 0.950 . S
H560 C557 0.950 . S
C561 C552 1.390 . S
C561 H554 0.950 1_556 S
C561 C558 1.387 . S
C562 C563 1.387 . S
C562 H566 0.950 . S
C562 C571 1.390 . S
C563 C562 1.387 . S
C563 C565 1.387 . S
H564 C571 0.950 . S
C565 C563 1.387 . S
C565 C567 1.390 . S
C565 H569 0.950 . S
H566 C562 0.950 . S
C567 C565 1.390 . S
C567 C568 1.387 . S
C567 H570 0.950 . S
C568 C567 1.387 . S
C568 C571 1.387 . S
H569 C565 0.950 . S
H570 C567 0.950 . S
C571 C562 1.390 . S
C571 H564 0.950 . S
C571 C568 1.387 . S
C572 C573 1.387 . S
C572 H576 0.950 1_556 S
C572 C581 1.380 1_556 S
C573 C572 1.387 . S
C573 C575 1.387 . S
H574 C581 0.982 . S
C575 C573 1.387 . S
C575 C577 1.390 . S
C575 H579 0.950 . S
H576 C572 0.950 1_554 S
C577 C575 1.390 . S
C577 C578 1.387 . S
C577 H580 0.950 . S
C578 C577 1.387 . S
C578 C581 1.366 1_556 S
H579 C575 0.950 . S
H580 C577 0.950 . S
C581 C572 1.380 1_554 S
C581 H574 0.982 . S
C581 C578 1.366 1_554 S
C582 C583 1.387 . S
C582 H586 0.950 . S
C582 C591 1.390 . S
C583 C582 1.387 . S
C583 C585 1.387 . S
H584 C591 0.950 . S
C585 C583 1.387 . S
C585 C587 1.390 . S
C585 H589 0.950 . S
H586 C582 0.950 . S
C587 C585 1.390 . S
C587 C588 1.387 . S
C587 H590 0.950 . S
C588 C587 1.387 . S
C588 C591 1.387 . S
H589 C585 0.950 . S
H590 C587 0.950 . S
C591 C582 1.390 . S
C591 H584 0.950 . S
C591 C588 1.387 . S
C592 C593 1.387 . S
C592 H596 0.950 . S
C592 C601 1.390 . S
C593 C592 1.387 . S
C593 C595 1.387 . S
H594 C601 0.950 . S
C595 C593 1.387 . S
C595 C597 1.390 . S
C595 H599 0.950 . S
H596 C592 0.950 . S
C597 C595 1.390 . S
C597 C598 1.387 . S
C597 H600 0.950 . S
C598 C597 1.387 . S
C598 C601 1.387 . S
H599 C595 0.950 . S
H600 C597 0.950 . S
C601 C592 1.390 . S
C601 H594 0.950 . S
C601 C598 1.387 . S
C602 C603 1.387 . S
C602 H606 0.950 . S
C602 C611 1.390 . S
C603 C602 1.387 . S
C603 C605 1.387 . S
H604 C611 0.950 . S
C605 C603 1.387 . S
C605 C607 1.390 . S
C605 H609 0.950 . S
H606 C602 0.950 . S
C607 C605 1.390 . S
C607 C608 1.387 . S
C607 H610 0.950 . S
C608 C607 1.387 . S
C608 C611 1.387 . S
H609 C605 0.950 . S
H610 C607 0.950 . S
C611 C602 1.390 . S
C611 H604 0.950 . S
C611 C608 1.387 . S
C612 C613 1.387 . S
C612 H616 0.950 . S
C612 C621 1.390 . S
C613 C612 1.387 . S
C613 C615 1.387 . S
H614 C621 0.950 . S
C615 C613 1.387 . S
C615 C617 1.390 . S
C615 H619 0.950 . S
H616 C612 0.950 . S
C617 C615 1.390 . S
C617 C618 1.387 . S
C617 H620 0.950 . S
C618 C617 1.387 . S
C618 C621 1.387 . S
H619 C615 0.950 . S
H620 C617 0.950 . S
C621 C612 1.390 . S
C621 H614 0.950 . S
C621 C618 1.387 . S
C622 C623 1.387 . S
C622 H626 0.950 . S
C622 C631 1.390 . S
C623 C622 1.387 . S
C623 C625 1.387 . S
H624 C631 0.950 . S
C625 C623 1.387 . S
C625 C627 1.390 . S
C625 H629 0.950 . S
H626 C622 0.950 . S
C627 C625 1.390 . S
C627 C628 1.387 . S
C627 H630 0.950 . S
C628 C627 1.387 . S
C628 C631 1.387 . S
H629 C625 0.950 . S
H630 C627 0.950 . S
C631 C622 1.390 . S
C631 H624 0.950 . S
C631 C628 1.387 . S
C632 C633 1.387 . S
C632 H636 0.950 . S
C632 C641 1.390 . S
C633 C632 1.387 . S
C633 C635 1.387 . S
H634 C641 0.950 . S
C635 C633 1.387 . S
C635 C637 1.390 . S
C635 H639 0.950 . S
H636 C632 0.950 . S
C637 C635 1.390 . S
C637 C638 1.387 . S
C637 H640 0.950 1_554 S
C638 C637 1.387 . S
C638 C641 1.387 . S
H639 C635 0.950 . S
H640 C637 0.950 1_556 S
C641 C632 1.390 . S
C641 H634 0.950 . S
C641 C638 1.387 . S
C642 C643 1.387 . S
C642 H646 0.950 . S
C642 C651 1.405 . S
C643 C642 1.387 . S
C643 C645 1.387 . S
H644 C651 0.943 1_455 S
C645 C643 1.387 . S
C645 C647 1.390 1_655 S
C645 H649 0.950 . S
H646 C642 0.950 . S
C647 C645 1.390 1_455 S
C647 C648 1.387 . S
C647 H650 0.950 . S
C648 C647 1.387 . S
C648 C651 1.380 1_455 S
H649 C645 0.950 . S
H650 C647 0.950 . S
C651 C642 1.405 . S
C651 H644 0.943 1_655 S
C651 C648 1.380 1_655 S
C652 C653 1.387 . S
C652 H656 0.950 . S
C652 C661 1.390 . S
C653 C652 1.387 . S
C653 C655 1.387 . S
H654 C661 0.950 . S
C655 C653 1.387 . S
C655 C657 1.390 . S
C655 H659 0.950 . S
H656 C652 0.950 . S
C657 C655 1.390 . S
C657 C658 1.387 . S
C657 H660 0.950 . S
C658 C657 1.387 . S
C658 C661 1.387 . S
H659 C655 0.950 . S
H660 C657 0.950 . S
C661 C652 1.390 . S
C661 H654 0.950 . S
C661 C658 1.387 . S
C662 C663 1.387 . S
C662 H666 0.950 . S
C662 C671 1.390 1_545 S
C663 C662 1.387 . S
C663 C665 1.387 . S
H664 C671 0.950 . S
C665 C663 1.387 . S
C665 C667 1.390 1_545 S
C665 H669 0.950 . S
H666 C662 0.950 . S
C667 C665 1.390 1_565 S
C667 C668 1.387 . S
C667 H670 0.950 . S
C668 C667 1.387 . S
C668 C671 1.387 . S
H669 C665 0.950 . S
H670 C667 0.950 . S
C671 C662 1.390 1_565 S
C671 H664 0.950 . S
C671 C668 1.387 . S
C672 C673 1.387 . S
C672 H676 0.950 . S
C672 C681 1.390 . S
C673 C672 1.387 . S
C673 C675 1.387 . S
H674 C681 0.950 . S
C675 C673 1.387 . S
C675 C677 1.390 . S
C675 H679 0.950 . S
H676 C672 0.950 . S
C677 C675 1.390 . S
C677 C678 1.387 . S
C677 H680 0.950 . S
C678 C677 1.387 . S
C678 C681 1.387 . S
H679 C675 0.950 . S
H680 C677 0.950 . S
C681 C672 1.390 . S
C681 H674 0.950 . S
C681 C678 1.387 . S
C682 C683 1.387 . S
C682 H686 0.950 . S
C682 C691 1.390 . S
C683 C682 1.387 . S
C683 C685 1.387 . S
H684 C691 0.950 . S
C685 C683 1.387 . S
C685 C687 1.390 . S
C685 H689 0.950 . S
H686 C682 0.950 . S
C687 C685 1.390 . S
C687 C688 1.387 . S
C687 H690 0.950 . S
C688 C687 1.387 . S
C688 C691 1.387 . S
H689 C685 0.950 . S
H690 C687 0.950 . S
C691 C682 1.390 . S
C691 H684 0.950 . S
C691 C688 1.387 . S
C692 C693 1.387 . S
C692 H696 0.950 . S
C692 C701 1.390 . S
C693 C692 1.387 . S
C693 C695 1.387 . S
H694 C701 0.950 . S
C695 C693 1.387 . S
C695 C697 1.390 . S
C695 H699 0.950 . S
H696 C692 0.950 . S
C697 C695 1.390 . S
C697 C698 1.387 . S
C697 H700 0.950 . S
C698 C697 1.387 . S
C698 C701 1.387 . S
H699 C695 0.950 . S
H700 C697 0.950 . S
C701 C692 1.390 . S
C701 H694 0.950 . S
C701 C698 1.387 . S
C702 C703 1.387 . S
C702 H706 0.950 . S
C702 C711 1.390 . S
C703 C702 1.387 . S
C703 C705 1.387 . S
H704 C711 0.950 . S
C705 C703 1.387 . S
C705 C707 1.390 . S
C705 H709 0.950 . S
H706 C702 0.950 . S
C707 C705 1.390 . S
C707 C708 1.387 . S
C707 H710 0.950 . S
C708 C707 1.387 . S
C708 C711 1.387 . S
H709 C705 0.950 . S
H710 C707 0.950 . S
C711 C702 1.390 . S
C711 H704 0.950 . S
C711 C708 1.387 . S
C712 C713 1.387 . S
C712 H716 0.950 . S
C712 C721 1.390 . S
C713 C712 1.387 . S
C713 C715 1.387 . S
H714 C721 0.950 . S
C715 C713 1.387 . S
C715 C717 1.390 . S
C715 H719 0.950 . S
H716 C712 0.950 . S
C717 C715 1.390 . S
C717 C718 1.387 . S
C717 H720 0.950 . S
C718 C717 1.387 . S
C718 C721 1.387 . S
H719 C715 0.950 . S
H720 C717 0.950 . S
C721 C712 1.390 . S
C721 H714 0.950 . S
C721 C718 1.387 . S
C722 C723 1.387 . S
C722 H726 0.950 . S
C722 C731 1.390 . S
C723 C722 1.387 . S
C723 C725 1.387 . S
H724 C731 0.950 . S
C725 C723 1.387 . S
C725 C727 1.390 . S
C725 H729 0.950 . S
H726 C722 0.950 . S
C727 C725 1.390 . S
C727 C728 1.387 . S
C727 H730 0.950 . S
C728 C727 1.387 . S
C728 C731 1.387 . S
H729 C725 0.950 . S
H730 C727 0.950 . S
C731 C722 1.390 . S
C731 H724 0.950 . S
C731 C728 1.387 . S
C732 C733 1.387 . S
C732 H736 0.950 . S
C732 C741 1.398 . S
C733 C732 1.387 . S
C733 C735 1.387 . S
H734 C741 0.945 1_565 S
C735 C733 1.387 . S
C735 C737 1.390 1_545 S
C735 H739 0.950 . S
H736 C732 0.950 . S
C737 C735 1.390 1_565 S
C737 C738 1.387 . S
C737 H740 0.950 . S
C738 C737 1.387 . S
C738 C741 1.384 1_565 S
H739 C735 0.950 . S
H740 C737 0.950 . S
C741 C732 1.398 . S
C741 H734 0.945 1_545 S
C741 C738 1.384 1_545 S
C742 C743 1.387 . S
C742 H746 0.950 . S
C742 C751 1.390 1_655 S
C743 C742 1.387 . S
C743 C745 1.387 1_655 S
H744 C751 0.950 . S
C745 C743 1.387 1_455 S
C745 C747 1.390 . S
C745 H749 0.950 . S
H746 C742 0.950 . S
C747 C745 1.390 . S
C747 C748 1.387 . S
C747 H750 0.950 . S
C748 C747 1.387 . S
C748 C751 1.387 . S
H749 C745 0.950 . S
H750 C747 0.950 . S
C751 C742 1.390 1_455 S
C751 H744 0.950 . S
C751 C748 1.387 . S
C752 C753 1.387 . S
C752 H756 0.950 . S
C752 C761 1.390 . S
C753 C752 1.387 . S
C753 C755 1.387 . S
H754 C761 0.950 . S
C755 C753 1.387 . S
C755 C757 1.390 . S
C755 H759 0.950 . S
H756 C752 0.950 . S
C757 C755 1.390 . S
C757 C758 1.387 . S
C757 H760 0.950 . S
C758 C757 1.387 . S
C758 C761 1.387 . S
H759 C755 0.950 . S
H760 C757 0.950 . S
C761 C752 1.390 . S
C761 H754 0.950 . S
C761 C758 1.387 . S
C762 C763 1.387 . S
C762 H766 0.950 . S
C762 C771 1.390 . S
C763 C762 1.387 . S
C763 C765 1.387 . S
H764 C771 0.950 . S
C765 C763 1.387 . S
C765 C767 1.390 . S
C765 H769 0.950 . S
H766 C762 0.950 . S
C767 C765 1.390 . S
C767 C768 1.387 . S
C767 H770 0.950 . S
C768 C767 1.387 . S
C768 C771 1.387 . S
H769 C765 0.950 . S
H770 C767 0.950 . S
C771 C762 1.390 . S
C771 H764 0.950 . S
C771 C768 1.387 . S
C772 C773 1.387 . S
C772 H776 0.950 . S
C772 C781 1.390 . S
C773 C772 1.387 . S
C773 C775 1.387 . S
H774 C781 0.950 . S
C775 C773 1.387 . S
C775 C777 1.390 . S
C775 H779 0.950 . S
H776 C772 0.950 . S
C777 C775 1.390 . S
C777 C778 1.387 . S
C777 H780 0.950 . S
C778 C777 1.387 . S
C778 C781 1.387 . S
H779 C775 0.950 . S
H780 C777 0.950 . S
C781 C772 1.390 . S
C781 H774 0.950 . S
C781 C778 1.387 . S
C782 C783 1.387 . S
C782 H786 0.950 . S
C782 C791 1.390 . S
C783 C782 1.387 . S
C783 C785 1.387 . S
H784 C791 0.950 . S
C785 C783 1.387 . S
C785 C787 1.390 . S
C785 H789 0.950 . S
H786 C782 0.950 . S
C787 C785 1.390 . S
C787 C788 1.387 . S
C787 H790 0.950 . S
C788 C787 1.387 . S
C788 C791 1.387 . S
H789 C785 0.950 . S
H790 C787 0.950 . S
C791 C782 1.390 . S
C791 H784 0.950 . S
C791 C788 1.387 . S
C792 C793 1.387 . S
C792 H796 0.950 . S
C792 C801 1.390 1_565 S
C793 C792 1.387 . S
C793 C795 1.387 . S
H794 C801 0.950 . S
C795 C793 1.387 . S
C795 C797 1.390 1_565 S
C795 H799 0.950 . S
H796 C792 0.950 . S
C797 C795 1.390 1_545 S
C797 C798 1.387 . S
C797 H800 0.950 . S
C798 C797 1.387 . S
C798 C801 1.387 . S
H799 C795 0.950 . S
H800 C797 0.950 . S
C801 C792 1.390 1_545 S
C801 H794 0.950 . S
C801 C798 1.387 . S
C802 C803 1.387 1_655 S
C802 H806 0.950 . S
C802 C811 1.390 . S
C803 C802 1.387 1_455 S
C803 C805 1.387 . S
H804 C811 0.950 . S
C805 C803 1.387 . S
C805 C807 1.390 1_455 S
C805 H809 0.950 . S
H806 C802 0.950 . S
C807 C805 1.390 1_655 S
C807 C808 1.387 . S
C807 H810 0.950 . S
C808 C807 1.387 . S
C808 C811 1.387 . S
H809 C805 0.950 . S
H810 C807 0.950 . S
C811 C802 1.390 . S
C811 H804 0.950 . S
C811 C808 1.387 . S
C812 C813 1.387 . S
C812 H816 0.950 . S
C812 C821 1.390 . S
C813 C812 1.387 . S
C813 C815 1.387 . S
H814 C821 0.950 . S
C815 C813 1.387 . S
C815 C817 1.390 . S
C815 H819 0.950 . S
H816 C812 0.950 . S
C817 C815 1.390 . S
C817 C818 1.387 . S
C817 H820 0.950 . S
C818 C817 1.387 . S
C818 C821 1.387 . S
H819 C815 0.950 . S
H820 C817 0.950 . S
C821 C812 1.390 . S
C821 H814 0.950 . S
C821 C818 1.387 . S
C822 C823 1.387 . S
C822 H826 0.950 . S
C822 C831 1.390 1_455 S
C823 C822 1.387 . S
C823 C825 1.387 . S
H824 C831 0.950 . S
C825 C823 1.387 . S
C825 C827 1.390 1_455 S
C825 H829 0.950 . S
H826 C822 0.950 . S
C827 C825 1.390 1_655 S
C827 C828 1.387 . S
C827 H830 0.950 . S
C828 C827 1.387 . S
C828 C831 1.387 . S
H829 C825 0.950 . S
H830 C827 0.950 . S
C831 C822 1.390 1_655 S
C831 H824 0.950 . S
C831 C828 1.387 . S
C832 C833 1.387 . S
C832 H836 0.950 . S
C832 C841 1.390 . S
C833 C832 1.387 . S
C833 C835 1.387 . S
H834 C841 0.950 . S
C835 C833 1.387 . S
C835 C837 1.390 . S
C835 H839 0.950 . S
H836 C832 0.950 . S
C837 C835 1.390 . S
C837 C838 1.387 . S
C837 H840 0.950 . S
C838 C837 1.387 . S
C838 C841 1.387 . S
H839 C835 0.950 . S
H840 C837 0.950 . S
C841 C832 1.390 . S
C841 H834 0.950 . S
C841 C838 1.387 . S
C842 C843 1.387 . S
C842 H846 0.950 . S
C842 C851 1.390 1_565 S
C843 C842 1.387 . S
C843 C845 1.387 . S
H844 C851 0.950 . S
C845 C843 1.387 . S
C845 C847 1.390 1_565 S
C845 H849 0.950 . S
H846 C842 0.950 . S
C847 C845 1.390 1_545 S
C847 C848 1.387 . S
C847 H850 0.950 . S
C848 C847 1.387 . S
C848 C851 1.387 . S
H849 C845 0.950 . S
H850 C847 0.950 . S
C851 C842 1.390 1_545 S
C851 H844 0.950 . S
C851 C848 1.387 . S
C852 C853 1.387 . S
C852 H856 0.950 . S
C852 C861 1.390 . S
C853 C852 1.387 . S
C853 C855 1.387 . S
H854 C861 0.950 . S
C855 C853 1.387 . S
C855 C857 1.390 . S
C855 H859 0.950 . S
H856 C852 0.950 . S
C857 C855 1.390 . S
C857 C858 1.387 . S
C857 H860 0.950 . S
C858 C857 1.387 . S
C858 C861 1.387 . S
H859 C855 0.950 . S
H860 C857 0.950 . S
C861 C852 1.390 . S
C861 H854 0.950 . S
C861 C858 1.387 . S
C862 C863 1.387 . S
C862 H866 0.950 . S
C862 C871 1.390 . S
C863 C862 1.387 . S
C863 C865 1.387 . S
H864 C871 0.950 . S
C865 C863 1.387 . S
C865 C867 1.390 . S
C865 H869 0.950 . S
H866 C862 0.950 . S
C867 C865 1.390 . S
C867 C868 1.387 . S
C867 H870 0.950 . S
C868 C867 1.387 . S
C868 C871 1.387 . S
H869 C865 0.950 . S
H870 C867 0.950 . S
C871 C862 1.390 . S
C871 H864 0.950 . S
C871 C868 1.387 . S
C872 C873 1.387 . S
C872 H876 0.950 . S
C872 C881 1.390 . S
C873 C872 1.387 . S
C873 C875 1.387 . S
H874 C881 0.950 . S
C875 C873 1.387 . S
C875 C877 1.390 . S
C875 H879 0.950 . S
H876 C872 0.950 . S
C877 C875 1.390 . S
C877 C878 1.387 . S
C877 H880 0.950 . S
C878 C877 1.387 . S
C878 C881 1.387 . S
H879 C875 0.950 . S
H880 C877 0.950 . S
C881 C872 1.390 . S
C881 H874 0.950 . S
C881 C878 1.387 . S
C882 C883 1.387 . S
C882 H886 0.950 . S
C882 C891 1.390 . S
C883 C882 1.387 . S
C883 C885 1.387 . S
H884 C891 0.950 . S
C885 C883 1.387 . S
C885 C887 1.390 1_565 S
C885 H889 0.950 1_565 S
H886 C882 0.950 . S
C887 C885 1.390 1_545 S
C887 C888 1.387 1_545 S
C887 H890 0.950 . S
C888 C887 1.387 1_565 S
C888 C891 1.387 . S
H889 C885 0.950 1_545 S
H890 C887 0.950 . S
C891 C882 1.390 . S
C891 H884 0.950 . S
C891 C888 1.387 . S
C892 C893 1.387 . S
C892 H896 0.950 . S
C892 C901 1.390 . S
C893 C892 1.387 . S
C893 C895 1.387 1_455 S
H894 C901 0.950 . S
C895 C893 1.387 1_655 S
C895 C897 1.390 . S
C895 H899 0.950 . S
H896 C892 0.950 . S
C897 C895 1.390 . S
C897 C898 1.387 1_655 S
C897 H900 0.950 . S
C898 C897 1.387 1_455 S
C898 C901 1.387 . S
H899 C895 0.950 . S
H900 C897 0.950 . S
C901 C892 1.390 . S
C901 H894 0.950 . S
C901 C898 1.387 . S
C902 C903 1.387 . S
C902 H906 0.950 . S
C902 C911 1.390 . S
C903 C902 1.387 . S
C903 C905 1.387 . S
H904 C911 0.950 . S
C905 C903 1.387 . S
C905 C907 1.390 . S
C905 H909 0.950 . S
H906 C902 0.950 . S
C907 C905 1.390 . S
C907 C908 1.387 . S
C907 H910 0.950 . S
C908 C907 1.387 . S
C908 C911 1.387 . S
H909 C905 0.950 . S
H910 C907 0.950 . S
C911 C902 1.390 . S
C911 H904 0.950 . S
C911 C908 1.387 . S
C912 C913 1.387 . S
C912 H916 0.950 . S
C912 C921 1.390 . S
C913 C912 1.387 . S
C913 C915 1.387 . S
H914 C921 0.950 . S
C915 C913 1.387 . S
C915 C917 1.390 . S
C915 H919 0.950 . S
H916 C912 0.950 . S
C917 C915 1.390 . S
C917 C918 1.387 . S
C917 H920 0.950 . S
C918 C917 1.387 . S
C918 C921 1.387 . S
H919 C915 0.950 . S
H920 C917 0.950 . S
C921 C912 1.390 . S
C921 H914 0.950 . S
C921 C918 1.387 . S
C922 C923 1.387 . S
C922 H926 0.950 . S
C922 C931 1.390 . S
C923 C922 1.387 . S
C923 C925 1.387 . S
H924 C931 0.950 . S
C925 C923 1.387 . S
C925 C927 1.390 . S
C925 H929 0.950 . S
H926 C922 0.950 . S
C927 C925 1.390 . S
C927 C928 1.387 . S
C927 H930 0.950 . S
C928 C927 1.387 . S
C928 C931 1.387 . S
H929 C925 0.950 . S
H930 C927 0.950 . S
C931 C922 1.390 . S
C931 H924 0.950 . S
C931 C928 1.387 . S
C932 C933 1.387 . S
C932 H936 0.950 . S
C932 C941 1.390 . S
C933 C932 1.387 . S
C933 C935 1.387 . S
H934 C941 0.950 . S
C935 C933 1.387 . S
C935 C937 1.390 . S
C935 H939 0.950 . S
H936 C932 0.950 . S
C937 C935 1.390 . S
C937 C938 1.387 . S
C937 H940 0.950 . S
C938 C937 1.387 . S
C938 C941 1.387 . S
H939 C935 0.950 . S
H940 C937 0.950 . S
C941 C932 1.390 . S
C941 H934 0.950 . S
C941 C938 1.387 . S
C942 C943 1.387 . S
C942 H946 0.950 . S
C942 C951 1.390 . S
C943 C942 1.387 . S
C943 C945 1.387 . S
H944 C951 0.950 . S
C945 C943 1.387 . S
C945 C947 1.390 . S
C945 H949 0.950 . S
H946 C942 0.950 . S
C947 C945 1.390 . S
C947 C948 1.387 . S
C947 H950 0.950 . S
C948 C947 1.387 . S
C948 C951 1.387 . S
H949 C945 0.950 . S
H950 C947 0.950 . S
C951 C942 1.390 . S
C951 H944 0.950 . S
C951 C948 1.387 . S
C952 C953 1.387 . S
C952 H956 0.950 . S
C952 C961 1.390 . S
C953 C952 1.387 . S
C953 C955 1.387 . S
H954 C961 0.950 . S
C955 C953 1.387 . S
C955 C957 1.390 . S
C955 H959 0.950 . S
H956 C952 0.950 . S
C957 C955 1.390 . S
C957 C958 1.387 . S
C957 H960 0.950 . S
C958 C957 1.387 . S
C958 C961 1.387 . S
H959 C955 0.950 . S
H960 C957 0.950 . S
C961 C952 1.390 . S
C961 H954 0.950 . S
C961 C958 1.387 . S
C962 C963 1.387 . S
C962 H966 0.950 . S
C962 C971 1.390 . S
C963 C962 1.387 . S
C963 C965 1.387 . S
H964 C971 0.950 . S
C965 C963 1.387 . S
C965 C967 1.390 . S
C965 H969 0.950 . S
H966 C962 0.950 . S
C967 C965 1.390 . S
C967 C968 1.387 . S
C967 H970 0.950 . S
C968 C967 1.387 . S
C968 C971 1.387 . S
H969 C965 0.950 . S
H970 C967 0.950 . S
C971 C962 1.390 . S
C971 H964 0.950 . S
C971 C968 1.387 . S
C972 C973 1.387 . S
C972 H976 0.950 . S
C972 C981 1.390 . S
C973 C972 1.387 . S
C973 C975 1.387 . S
H974 C981 0.950 . S
C975 C973 1.387 . S
C975 C977 1.390 . S
C975 H979 0.950 . S
H976 C972 0.950 . S
C977 C975 1.390 . S
C977 C978 1.387 . S
C977 H980 0.950 . S
C978 C977 1.387 . S
C978 C981 1.387 . S
H979 C975 0.950 . S
H980 C977 0.950 . S
C981 C972 1.390 . S
C981 H974 0.950 . S
C981 C978 1.387 . S
C982 C983 1.387 . S
C982 H986 0.950 . S
C982 C991 1.390 . S
C983 C982 1.387 . S
C983 C985 1.387 . S
H984 C991 0.950 . S
C985 C983 1.387 . S
C985 C987 1.390 . S
C985 H989 0.950 . S
H986 C982 0.950 . S
C987 C985 1.390 . S
C987 C988 1.387 . S
C987 H990 0.950 . S
C988 C987 1.387 . S
C988 C991 1.387 . S
H989 C985 0.950 . S
H990 C987 0.950 . S
C991 C982 1.390 . S
C991 H984 0.950 . S
C991 C988 1.387 . S
C992 C993 1.387 . S
C992 H996 0.950 . S
C992 C1001 1.390 . S
C993 C992 1.387 . S
C993 C995 1.387 . S
H994 C1001 0.950 . S
C995 C993 1.387 . S
C995 C997 1.390 . S
C995 H999 0.950 . S
H996 C992 0.950 . S
C997 C995 1.390 . S
C997 C998 1.387 . S
C997 H1000 0.950 . S
C998 C997 1.387 . S
C998 C1001 1.387 . S
H999 C995 0.950 . S
H1000 C997 0.950 . S
C1001 C992 1.390 . S
C1001 H994 0.950 . S
C1001 C998 1.387 . S
C1002 C1003 1.387 . S
C1002 H1006 0.950 . S
C1002 C1011 1.390 . S
C1003 C1002 1.387 . S
C1003 C1005 1.387 . S
H1004 C1011 0.950 . S
C1005 C1003 1.387 . S
C1005 C1007 1.390 . S
C1005 H1009 0.950 . S
H1006 C1002 0.950 . S
C1007 C1005 1.390 . S
C1007 C1008 1.387 . S
C1007 H1010 0.950 . S
C1008 C1007 1.387 . S
C1008 C1011 1.387 . S
H1009 C1005 0.950 . S
H1010 C1007 0.950 . S
C1011 C1002 1.390 . S
C1011 H1004 0.950 . S
C1011 C1008 1.387 . S
C1012 C1013 1.387 . S
C1012 H1016 0.950 . S
C1012 C1021 1.390 . S
C1013 C1012 1.387 . S
C1013 C1015 1.387 . S
H1014 C1021 0.950 . S
C1015 C1013 1.387 . S
C1015 C1017 1.390 . S
C1015 H1019 0.950 . S
H1016 C1012 0.950 . S
C1017 C1015 1.390 . S
C1017 C1018 1.387 . S
C1017 H1020 0.950 . S
C1018 C1017 1.387 . S
C1018 C1021 1.387 . S
H1019 C1015 0.950 . S
H1020 C1017 0.950 . S
C1021 C1012 1.390 . S
C1021 H1014 0.950 . S
C1021 C1018 1.387 . S
C1022 C1023 1.387 . S
C1022 H1026 0.950 . S
C1022 C1031 1.390 . S
C1023 C1022 1.387 . S
C1023 C1025 1.387 . S
H1024 C1031 0.950 . S
C1025 C1023 1.387 . S
C1025 C1027 1.390 . S
C1025 H1029 0.950 . S
H1026 C1022 0.950 . S
C1027 C1025 1.390 . S
C1027 C1028 1.387 . S
C1027 H1030 0.950 . S
C1028 C1027 1.387 . S
C1028 C1031 1.387 . S
H1029 C1025 0.950 . S
H1030 C1027 0.950 . S
C1031 C1022 1.390 . S
C1031 H1024 0.950 . S
C1031 C1028 1.387 . S
C1032 C1033 1.387 . S
C1032 H1036 0.950 . S
C1032 C1041 1.390 . S
C1033 C1032 1.387 . S
C1033 C1035 1.387 . S
H1034 C1041 0.950 . S
C1035 C1033 1.387 . S
C1035 C1037 1.390 . S
C1035 H1039 0.950 . S
H1036 C1032 0.950 . S
C1037 C1035 1.390 . S
C1037 C1038 1.387 . S
C1037 H1040 0.950 . S
C1038 C1037 1.387 . S
C1038 C1041 1.387 . S
H1039 C1035 0.950 . S
H1040 C1037 0.950 . S
C1041 C1032 1.390 . S
C1041 H1034 0.950 . S
C1041 C1038 1.387 . S
C1042 C1043 1.387 . S
C1042 H1046 0.950 . S
C1042 C1051 1.390 . S
C1043 C1042 1.387 . S
C1043 C1045 1.387 . S
H1044 C1051 0.950 . S
C1045 C1043 1.387 . S
C1045 C1047 1.390 . S
C1045 H1049 0.950 . S
H1046 C1042 0.950 . S
C1047 C1045 1.390 . S
C1047 C1048 1.387 . S
C1047 H1050 0.950 . S
C1048 C1047 1.387 . S
C1048 C1051 1.387 . S
H1049 C1045 0.950 . S
H1050 C1047 0.950 . S
C1051 C1042 1.390 . S
C1051 H1044 0.950 . S
C1051 C1048 1.387 . S
C1052 C1053 1.387 . S
C1052 H1056 0.950 . S
C1052 C1061 1.390 . S
C1053 C1052 1.387 . S
C1053 C1055 1.387 . S
H1054 C1061 0.950 . S
C1055 C1053 1.387 . S
C1055 C1057 1.390 . S
C1055 H1059 0.950 . S
H1056 C1052 0.950 . S
C1057 C1055 1.390 . S
C1057 C1058 1.387 . S
C1057 H1060 0.950 . S
C1058 C1057 1.387 . S
C1058 C1061 1.387 . S
H1059 C1055 0.950 . S
H1060 C1057 0.950 . S
C1061 C1052 1.390 . S
C1061 H1054 0.950 . S
C1061 C1058 1.387 . S
C523 C124 1.567 . S
C528 C174 1.586 . S
C533 C130 1.681 . S
C538 C214 1.689 . S
C543 C115 1.569 . S
C548 C244 1.582 . S
C553 C106 1.496 . S
C558 C204 1.498 . S
C568 C254 1.485 . S
C563 C85 1.470 . S
C573 C97 1.375 . S
C578 C164 1.400 . S
C588 C193 1.606 . S
C583 C103 1.586 . S
C598 C233 1.671 . S
C593 C88 1.661 . S
C603 C94 1.567 . S
C608 C259 1.577 . S
C613 C121 1.494 . S
C618 C219 1.493 . S
C623 C133 1.449 . S
C628 C273 1.464 . S
C638 C179 1.417 . S
C633 C112 1.391 . S
C648 C294 1.586 . S
C643 C16 1.567 . S
C653 C22 1.681 . S
C658 C334 1.688 . S
C663 C7 1.567 . S
C668 C364 1.580 . S
C673 C160 1.495 . S
C678 C324 1.496 . S
C683 C139 1.470 . S
C688 C374 1.485 . S
C693 C151 1.377 . S
C698 C284 1.400 . S
C703 C157 1.586 . S
C708 C313 1.607 . S
C713 C142 1.661 . S
C718 C353 1.671 . S
C728 C379 1.577 . S
C723 C148 1.567 . S
C733 C13 1.496 . S
C738 C339 1.495 . S
C748 C393 1.464 . S
C743 C25 1.451 . S
C753 C4 1.391 . S
C758 C299 1.417 . S
C768 C414 1.587 . S
C763 C70 1.568 . S
C773 C76 1.682 . S
C778 C454 1.689 . S
C788 C484 1.580 . S
C783 C61 1.567 . S
C798 C444 1.496 . S
C793 C52 1.495 . S
C808 C494 1.485 . S
C803 C31 1.471 . S
C813 C43 1.377 . S
C818 C404 1.400 . S
C823 C49 1.585 . S
C828 C433 1.606 . S
C833 C34 1.660 . S
C838 C473 1.671 . S
C848 C499 1.579 . S
C843 C40 1.569 . S
C853 C67 1.495 . S
C858 C459 1.493 . S
C863 C79 1.450 . S
C868 C513 1.464 . S
C873 C58 1.393 . S
C878 C419 1.419 . S
C883 C140 1.500 . S
C888 C191 1.472 1_565 S
C898 C231 1.677 . S
C893 C149 1.701 . S
C903 C158 1.548 . S
C908 C250 1.541 . S
C913 C59 1.717 . S
C918 C210 1.690 . S
C923 C68 1.533 . S
C928 C271 1.526 . S
C938 C170 1.473 . S
C933 C77 1.500 . S
C943 C32 1.500 . S
C948 C311 1.474 . S
C953 C41 1.701 . S
C958 C351 1.677 . S
C963 C50 1.548 . S
C968 C370 1.540 . S
C973 C113 1.717 . S
C978 C330 1.690 . S
C988 C391 1.527 . S
C983 C122 1.533 . S
C993 C131 1.499 . S
C998 C290 1.473 . S
C1003 C86 1.500 . S
C1008 C431 1.472 . S
C1013 C95 1.701 . S
C1018 C471 1.677 . S
C1028 C490 1.541 . S
C1023 C104 1.548 . S
C1033 C5 1.718 . S
C1038 C450 1.692 . S
C1043 C14 1.532 . S
C1048 C511 1.526 . S
C1053 C23 1.500 . S
C1058 C410 1.475 . S
