# Generated by pormake.
# Topology pyr, (3,6)-cn, num edge types: 1
# Building blocks:
#     Node 0, Type 0, BuildingBlock: CUQRIR_clean_linker_1, # of connection points: 3
#     Node 1, Type 0, BuildingBlock: CUQRIR_clean_linker_1, # of connection points: 3
#     Node 2, Type 0, BuildingBlock: CUQRIR_clean_linker_1, # of connection points: 3
#     Node 3, Type 0, BuildingBlock: CUQRIR_clean_linker_1, # of connection points: 3
#     Node 4, Type 0, BuildingBlock: CUQRIR_clean_linker_1, # of connection points: 3
#     Node 5, Type 0, BuildingBlock: CUQRIR_clean_linker_1, # of connection points: 3
#     Node 6, Type 0, BuildingBlock: CUQRIR_clean_linker_1, # of connection points: 3
#     Node 7, Type 0, BuildingBlock: CUQRIR_clean_linker_1, # of connection points: 3
#     Node 8, Type 1, BuildingBlock: GEDQOX_clean_sbu_0, # of connection points: 6
#     Node 9, Type 1, BuildingBlock: GEDQOX_clean_sbu_0, # of connection points: 6
#     Node 10, Type 1, BuildingBlock: GEDQOX_clean_sbu_0, # of connection points: 6
#     Node 11, Type 1, BuildingBlock: GEDQOX_clean_sbu_0, # of connection points: 6
#     Edge 12, Type (0, 1), BuildingBlock: EZIPEK_clean_linker_0, # of connection points: 2
#     Edge 13, Type (0, 1), BuildingBlock: EZIPEK_clean_linker_0, # of connection points: 2
#     Edge 14, Type (0, 1), BuildingBlock: EZIPEK_clean_linker_0, # of connection points: 2
#     Edge 15, Type (0, 1), BuildingBlock: EZIPEK_clean_linker_0, # of connection points: 2
#     Edge 16, Type (0, 1), BuildingBlock: EZIPEK_clean_linker_0, # of connection points: 2
#     Edge 17, Type (0, 1), BuildingBlock: EZIPEK_clean_linker_0, # of connection points: 2
#     Edge 18, Type (0, 1), BuildingBlock: EZIPEK_clean_linker_0, # of connection points: 2
#     Edge 19, Type (0, 1), BuildingBlock: EZIPEK_clean_linker_0, # of connection points: 2
#     Edge 20, Type (0, 1), BuildingBlock: EZIPEK_clean_linker_0, # of connection points: 2
#     Edge 21, Type (0, 1), BuildingBlock: EZIPEK_clean_linker_0, # of connection points: 2
#     Edge 22, Type (0, 1), BuildingBlock: EZIPEK_clean_linker_0, # of connection points: 2
#     Edge 23, Type (0, 1), BuildingBlock: EZIPEK_clean_linker_0, # of connection points: 2
#     Edge 24, Type (0, 1), BuildingBlock: EZIPEK_clean_linker_0, # of connection points: 2
#     Edge 25, Type (0, 1), BuildingBlock: EZIPEK_clean_linker_0, # of connection points: 2
#     Edge 26, Type (0, 1), BuildingBlock: EZIPEK_clean_linker_0, # of connection points: 2
#     Edge 27, Type (0, 1), BuildingBlock: EZIPEK_clean_linker_0, # of connection points: 2
#     Edge 28, Type (0, 1), BuildingBlock: EZIPEK_clean_linker_0, # of connection points: 2
#     Edge 29, Type (0, 1), BuildingBlock: EZIPEK_clean_linker_0, # of connection points: 2
#     Edge 30, Type (0, 1), BuildingBlock: EZIPEK_clean_linker_0, # of connection points: 2
#     Edge 31, Type (0, 1), BuildingBlock: EZIPEK_clean_linker_0, # of connection points: 2
#     Edge 32, Type (0, 1), BuildingBlock: EZIPEK_clean_linker_0, # of connection points: 2
#     Edge 33, Type (0, 1), BuildingBlock: EZIPEK_clean_linker_0, # of connection points: 2
#     Edge 34, Type (0, 1), BuildingBlock: EZIPEK_clean_linker_0, # of connection points: 2
#     Edge 35, Type (0, 1), BuildingBlock: EZIPEK_clean_linker_0, # of connection points: 2
# Relax obj value: 0.276
# Max RMSD: 0.239
# Mean RMSD: 0.174
data_MOF--net-pyr--node1-GEDQOX_clean_sbu_0--node2-CUQRIR_clean_linker_1--edge1-EZIPEK_clean_linker_0
_symmetry_space_group_name_H-M    P1
_symmetry_Int_Tables_number       1
_symmetry_cell_setting            triclinic
loop_
_symmetry_equiv_pos_as_xyz
'x, y, z'
_cell_length_a     27.641898
_cell_length_b     27.257288
_cell_length_c     23.8685
_cell_angle_alpha  89.433749
_cell_angle_beta   97.308804
_cell_angle_gamma 91.127613
loop_
_atom_site_label
_atom_site_type_symbol
_atom_site_fract_x
_atom_site_fract_y
_atom_site_fract_z
_atom_type_partial_charge
C0 C 0.2002 0.2167 0.18154 0.0
N1 N 0.23029 0.17563 0.19561 0.0
N2 N 0.21324 0.2482 0.13937 0.0
C3 C 0.15543 0.22617 0.20944 0.0
C4 C 0.25439 0.22263 0.12709 0.0
N5 N 0.26646 0.17869 0.15835 0.0
C6 C 0.28495 0.24217 0.08415 0.0
H7 H 0.13435 0.19162 0.21387 0.0
H8 H 0.13139 0.25301 0.18496 0.0
H9 H 0.16659 0.24122 0.25223 0.0
H10 H 0.2742 0.27983 0.07039 0.0
H11 H 0.28032 0.21757 0.04714 0.0
H12 H 0.32406 0.24241 0.10188 0.0
C13 C 0.42767 0.75795 0.73071 0.0
N14 N 0.42488 0.79916 0.76059 0.0
N15 N 0.46982 0.73501 0.74756 0.0
C16 C 0.39175 0.74314 0.68058 0.0
C17 C 0.49263 0.76367 0.78944 0.0
N18 N 0.46529 0.80333 0.797 0.0
C19 C 0.54239 0.75432 0.82009 0.0
H20 H 0.35393 0.75124 0.68798 0.0
H21 H 0.39409 0.70357 0.67115 0.0
H22 H 0.39996 0.7647 0.64313 0.0
H23 H 0.57028 0.7686 0.79426 0.0
H24 H 0.54775 0.71427 0.82609 0.0
H25 H 0.54763 0.77302 0.86156 0.0
C26 C 0.73207 0.40463 0.80707 0.0
N27 N 0.77112 0.39326 0.84454 0.0
N28 N 0.74201 0.4438 0.77554 0.0
C29 C 0.68465 0.37566 0.79896 0.0
C30 C 0.78841 0.45692 0.79565 0.0
N31 N 0.80642 0.42625 0.83825 0.0
C32 C 0.81536 0.50034 0.77484 0.0
H33 H 0.68638 0.34797 0.76554 0.0
H34 H 0.65348 0.39981 0.78525 0.0
H35 H 0.67797 0.35639 0.83844 0.0
H36 H 0.80628 0.53352 0.79766 0.0
H37 H 0.80398 0.50647 0.72907 0.0
H38 H 0.85536 0.49508 0.78281 0.0
C39 C 0.8243 0.84917 0.21379 0.0
N40 N 0.8655 0.87833 0.21401 0.0
N41 N 0.80672 0.85117 0.26408 0.0
C42 C 0.80456 0.812 0.16966 0.0
C43 C 0.83644 0.88326 0.29453 0.0
N44 N 0.87222 0.89916 0.26506 0.0
C45 C 0.83461 0.89351 0.35614 0.0
H46 H 0.79151 0.83041 0.12927 0.0
H47 H 0.77271 0.79121 0.18214 0.0
H48 H 0.83282 0.78502 0.16356 0.0
H49 H 0.8567 0.86591 0.38196 0.0
H50 H 0.79662 0.89069 0.3664 0.0
H51 H 0.84984 0.93054 0.36763 0.0
C52 C 0.86298 0.86261 0.88037 0.0
N53 N 0.90236 0.85253 0.84925 0.0
N54 N 0.83564 0.9049 0.8655 0.0
C55 C 0.85081 0.8295 0.92718 0.0
C56 C 0.86216 0.92024 0.82104 0.0
N57 N 0.90248 0.89108 0.80983 0.0
C58 C 0.84803 0.96552 0.78715 0.0
H59 H 0.84579 0.79121 0.91196 0.0
H60 H 0.81727 0.84096 0.94409 0.0
H61 H 0.88195 0.8303 0.96136 0.0
H62 H 0.87281 0.99631 0.80265 0.0
H63 H 0.81012 0.97595 0.79147 0.0
H64 H 0.85162 0.95971 0.74192 0.0
C65 C 0.69374 0.30055 0.32081 0.0
N66 N 0.70415 0.2589 0.29517 0.0
N67 N 0.64851 0.3154 0.30099 0.0
C68 C 0.72551 0.32388 0.36973 0.0
C69 C 0.63212 0.28226 0.26076 0.0
N70 N 0.66598 0.24755 0.25741 0.0
C71 C 0.58197 0.28144 0.22819 0.0
H72 H 0.71171 0.31254 0.40967 0.0
H73 H 0.72381 0.36443 0.36655 0.0
H74 H 0.76404 0.31269 0.37147 0.0
H75 H 0.58468 0.27766 0.18246 0.0
H76 H 0.56194 0.31521 0.23537 0.0
H77 H 0.56132 0.2489 0.24139 0.0
C78 C 0.33407 0.6008 0.20161 0.0
N79 N 0.37775 0.61541 0.22897 0.0
N80 N 0.32542 0.62395 0.15101 0.0
C81 C 0.30056 0.56301 0.22302 0.0
C82 C 0.36526 0.65283 0.14824 0.0
N83 N 0.39716 0.64743 0.19548 0.0
C84 C 0.37227 0.68772 0.10072 0.0
H85 H 0.30324 0.52828 0.19984 0.0
H86 H 0.26224 0.57521 0.21451 0.0
H87 H 0.31027 0.556 0.2689 0.0
H88 H 0.3678 0.7258 0.11501 0.0
H89 H 0.34551 0.68036 0.06289 0.0
H90 H 0.40986 0.68493 0.0895 0.0
C91 C 0.22822 0.17022 0.82789 0.0
N92 N 0.23751 0.17062 0.77359 0.0
N93 N 0.23662 0.215 0.85242 0.0
C94 C 0.21356 0.12459 0.85758 0.0
C95 C 0.25639 0.24117 0.81153 0.0
N96 N 0.2555 0.21491 0.76383 0.0
C97 C 0.27341 0.29417 0.81582 0.0
H98 H 0.17624 0.11268 0.8396 0.0
H99 H 0.21586 0.13039 0.90382 0.0
H100 H 0.23824 0.09451 0.84963 0.0
H101 H 0.24133 0.31822 0.81164 0.0
H102 H 0.2958 0.3047 0.78212 0.0
H103 H 0.29608 0.30117 0.85664 0.0
Nd104 Nd 0.09674 0.98639 0.49949 0.0
Nd105 Nd 0.05698 0.05875 0.5033 0.0
C106 C 0.15148 0.90813 0.50984 0.0
C107 C 0.189 0.89763 0.55698 0.0
C108 C 0.22813 0.86768 0.54982 0.0
C109 C 0.26527 0.86114 0.59445 0.0
C110 C 0.26375 0.88503 0.64616 0.0
C111 C 0.22474 0.91518 0.65317 0.0
C112 C 0.18718 0.92078 0.60906 0.0
C113 C 0.1341 0.04066 0.61095 0.0
C114 C 1.02098 0.97403 0.60499 0.0
C115 C 1.00465 0.13728 0.5145 0.0
C116 C 0.96221 0.15251 0.47559 0.0
C117 C 0.94541 0.20064 0.47484 0.0
C118 C 0.9036 0.2132 0.43856 0.0
C119 C 0.87889 0.17779 0.40258 0.0
C120 C 0.89661 0.13021 0.40213 0.0
C121 C 0.93757 0.11753 0.43895 0.0
C122 C 1.01183 1.00861 0.40891 0.0
C123 C 0.13406 0.06784 0.39978 0.0
O124 O 0.10725 0.90834 0.52316 0.0
O125 O 0.16088 0.94568 0.47847 0.0
O126 O 0.13101 0.04708 0.55666 0.0
O127 O 0.13055 0.04622 0.55733 0.0
O128 O 0.04948 0.94907 0.57351 0.0
O129 O 1.01939 0.02119 0.58611 0.0
O130 O 0.04641 0.1395 0.49468 0.0
O131 O 0.99822 0.09592 0.54035 0.0
O132 O 1.03043 0.05194 0.40803 0.0
O133 O 1.02023 0.99085 0.45773 0.0
O134 O 0.11425 0.09411 0.43883 0.0
O135 O 0.12602 0.01934 0.40991 0.0
H136 H 0.23018 0.84992 0.5098 0.0
H137 H 0.29553 0.83785 0.58859 0.0
H138 H 0.22334 0.93405 0.69265 0.0
H139 H 0.15699 0.94385 0.61531 0.0
H140 H 0.96396 0.22801 0.50283 0.0
H141 H 0.88997 0.25016 0.43919 0.0
H142 H 0.87755 0.10252 0.37498 0.0
H143 H 0.94923 0.07992 0.43983 0.0
Nd144 Nd 0.54957 1.01264 0.05763 0.0
Nd145 Nd 0.55565 0.05687 0.99059 0.0
C146 C 0.53443 0.93811 0.12597 0.0
C147 C 0.54253 0.88596 0.14047 0.0
C148 C 0.57048 0.87294 0.19171 0.0
C149 C 0.5668 0.82543 0.21387 0.0
C150 C 0.53386 0.79132 0.18577 0.0
C151 C 0.51039 0.80274 0.13174 0.0
C152 C 0.51483 0.84955 0.10912 0.0
C153 C 0.46448 0.07925 0.07793 0.0
C154 C 0.50412 0.96658 0.9449 0.0
C155 C 0.56261 0.13635 0.92701 0.0
C156 C 0.60577 0.16442 0.91462 0.0
C157 C 0.60041 0.2105 0.88859 0.0
C158 C 0.6414 0.24037 0.88434 0.0
C159 C 0.68813 0.22473 0.90665 0.0
C160 C 0.69365 0.1781 0.93162 0.0
C161 C 0.65264 0.14787 0.93503 0.0
C162 C 0.64114 0.99465 0.96461 0.0
C163 C 0.62046 0.0902 0.10581 0.0
O164 O 0.57021 0.96973 0.13698 0.0
O165 O 0.50617 0.94834 0.0796 0.0
O166 O 0.50401 0.06745 0.11122 0.0
O167 O 0.47713 0.06069 0.03015 0.0
O168 O 0.5366 0.95569 0.98699 0.0
O169 O 0.49355 1.0127 0.94025 0.0
O170 O 0.55518 0.13758 0.97967 0.0
O171 O 0.55718 0.09229 0.90637 0.0
O172 O 0.60554 1.0142 0.93106 0.0
O173 O 0.62705 1.00625 0.01477 0.0
O174 O 0.59574 0.1075 0.05999 0.0
O175 O 0.61351 0.04424 0.1151 0.0
H176 H 0.59223 0.90035 0.21661 0.0
H177 H 0.58608 0.81679 0.25504 0.0
H178 H 0.48526 0.77663 0.109 0.0
H179 H 0.49325 0.85809 0.06928 0.0
H180 H 0.5645 0.22398 0.87321 0.0
H181 H 0.63657 0.27639 0.86509 0.0
H182 H 0.72937 0.16565 0.94934 0.0
H183 H 0.65723 0.11235 0.95559 0.0
Nd184 Nd 0.50143 0.48823 0.52631 0.0
Nd185 Nd 0.58514 0.5554 0.5091 0.0
C186 C 0.42606 0.42588 0.51304 0.0
C187 C 0.40052 0.38882 0.54377 0.0
C188 C 0.37458 0.35065 0.51355 0.0
C189 C 0.34982 0.31486 0.54181 0.0
C190 C 0.35072 0.31717 0.60055 0.0
C191 C 0.37739 0.35487 0.63087 0.0
C192 C 0.40231 0.39048 0.60266 0.0
C193 C 0.58031 0.47933 0.60907 0.0
C194 C 0.51182 0.58488 0.59816 0.0
C195 C 0.65812 0.61955 0.5144 0.0
C196 C 0.67393 0.65442 0.47353 0.0
C197 C 0.65252 0.65292 0.41697 0.0
C198 C 0.66743 0.68623 0.37776 0.0
C199 C 0.70394 0.72113 0.39497 0.0
C200 C 0.72458 0.7234 0.45172 0.0
C201 C 0.70946 0.69018 0.49101 0.0
C202 C 0.50863 0.56248 0.42324 0.0
C203 C 0.57982 0.45724 0.4427 0.0
O204 O 0.42261 0.47176 0.52733 0.0
O205 O 0.46986 0.41479 0.50329 0.0
O206 O 0.53547 0.47281 0.61877 0.0
O207 O 0.58202 0.48508 0.55717 0.0
O208 O 0.47822 0.55584 0.57119 0.0
O209 O 0.55768 0.583 0.58915 0.0
O210 O 0.66277 0.57321 0.50294 0.0
O211 O 0.61611 0.62907 0.5309 0.0
O212 O 0.554 0.56779 0.41639 0.0
O213 O 0.50425 0.55799 0.47505 0.0
O214 O 0.61201 0.48683 0.47083 0.0
O215 O 0.53321 0.45872 0.44916 0.0
H216 H 0.37326 0.34874 0.46806 0.0
H217 H 0.32934 0.28598 0.51797 0.0
H218 H 0.37834 0.357 0.67631 0.0
H219 H 0.42261 0.41941 0.62665 0.0
H220 H 0.62494 0.62554 0.40298 0.0
H221 H 0.6518 0.68382 0.33385 0.0
H222 H 0.75327 0.75 0.46513 0.0
H223 H 0.72589 0.69192 0.53467 0.0
Nd224 Nd 0.04847 0.56069 0.04028 0.0
Nd225 Nd 0.0683 0.53962 0.93946 0.0
C226 C 1.0163 0.59735 0.13031 0.0
C227 C 0.99988 0.64778 0.13701 0.0
C228 C 0.95847 0.65687 0.16337 0.0
C229 C 0.94201 0.7049 0.1665 0.0
C230 C 0.96673 0.74402 0.14306 0.0
C231 C 1.00788 0.73498 0.11659 0.0
C232 C 1.02448 0.68733 0.11382 0.0
C233 C 0.14473 0.57884 0.03266 0.0
C234 C 1.01068 0.65247 0.93864 0.0
C235 C 0.09836 0.52058 0.84257 0.0
C236 C 0.10718 0.47004 0.82636 0.0
C237 C 0.15453 0.45703 0.81784 0.0
C238 C 0.16998 0.40896 0.82853 0.0
C239 C 0.13849 0.37381 0.84887 0.0
C240 C 0.08992 0.38588 0.85215 0.0
C241 C 0.07397 0.4331 0.83913 0.0
C242 C 0.98709 0.48496 0.96264 0.0
C243 C 0.10737 0.44818 0.04013 0.0
O244 O 0.98889 0.56987 0.0942 0.0
O245 O 0.06232 0.59377 0.12511 0.0
O246 O 0.129 0.5505 0.07017 0.0
O247 O 0.11026 0.59401 0.99741 0.0
O248 O 1.01834 0.63986 0.99422 0.0
O249 O 1.02644 0.617 0.90642 0.0
O250 O 0.12813 0.53553 0.88635 0.0
O251 O 0.05292 0.53126 0.84635 0.0
O252 O 1.02576 0.46715 0.94623 0.0
O253 O 0.99405 0.53039 0.97023 0.0
O254 O 0.11327 0.46877 0.98921 0.0
O255 O 0.07693 0.47548 0.0674 0.0
H256 H 0.93879 0.62693 0.18101 0.0
H257 H 0.90998 0.7116 0.18698 0.0
H258 H 1.02718 0.76486 0.09828 0.0
H259 H 0.05641 0.68145 0.09294 0.0
H260 H 0.18089 0.48492 0.80852 0.0
H261 H 0.20751 0.40021 0.82503 0.0
H262 H 0.06477 0.35935 0.8672 0.0
H263 H 1.03689 0.44163 0.84502 0.0
C264 C 0.22237 0.15798 0.30542 0.0
C265 C 0.21734 0.14128 0.24676 0.0
C266 C 0.15667 0.07707 0.28682 0.0
C267 C 0.16362 0.09253 0.34625 0.0
N268 N 0.21448 0.14715 0.40728 0.0
N269 N 0.17678 0.07934 0.18745 0.0
C270 C 0.19959 0.13297 0.35311 0.0
C271 C 0.18355 0.09912 0.24014 0.0
N272 N 0.24853 0.20052 0.31611 0.0
N273 N 0.12135 0.04198 0.2734 0.0
H274 H 0.19404 0.09435 0.15458 0.0
H275 H 0.15774 0.04675 0.17709 0.0
H276 H 0.10177 0.02608 0.30368 0.0
H277 H 0.10881 0.03096 0.23249 0.0
H278 H 0.24921 0.22037 0.35322 0.0
H279 H 0.26687 0.21775 0.28549 0.0
H280 H 0.24392 0.17094 0.41868 0.0
H281 H 0.20015 0.13131 0.4417 0.0
C282 C 0.50306 0.88532 0.81807 0.0
C283 C 0.47681 0.84392 0.83517 0.0
C284 C 0.46157 0.88677 0.92075 0.0
C285 C 0.48658 0.92877 0.90266 0.0
N286 N 0.52201 0.97205 0.82872 0.0
N287 N 0.44274 0.7998 0.90846 0.0
C288 C 0.5044 0.92936 0.84954 0.0
C289 C 0.45891 0.84324 0.88804 0.0
N290 N 0.53024 0.88107 0.77458 0.0
N291 N 0.43878 0.88948 0.96815 0.0
H292 H 0.44361 0.76703 0.8864 0.0
H293 H 0.43299 0.7951 0.94889 0.0
H294 H 0.43876 0.92168 0.99145 0.0
H295 H 0.41637 0.86178 0.9815 0.0
H296 H 0.5543 0.90821 0.76333 0.0
H297 H 0.53293 0.84799 0.75391 0.0
H298 H 0.53076 0.97583 0.78772 0.0
H299 H 0.52374 1.00506 0.85049 0.0
C300 C 0.67221 0.49476 0.74209 0.0
C301 C 0.70928 0.4634 0.72955 0.0
C302 C 0.66185 0.44143 0.63951 0.0
C303 C 0.62434 0.47337 0.65137 0.0
N304 N 0.59659 0.53544 0.71098 0.0
N305 N 0.74545 0.41498 0.66365 0.0
C306 C 0.6304 0.50164 0.70179 0.0
C307 C 0.70615 0.43997 0.67681 0.0
N308 N 0.67609 0.5155 0.79437 0.0
N309 N 0.65367 0.40954 0.59529 0.0
H310 H 0.77773 0.41279 0.69139 0.0
H311 H 0.7478 0.40048 0.62392 0.0
H312 H 0.62043 0.40653 0.56954 0.0
H313 H 0.67779 0.38234 0.5875 0.0
H314 H 0.64793 0.53364 0.81002 0.0
H315 H 0.70755 0.51255 0.8233 0.0
H316 H 0.60177 0.56151 0.74285 0.0
H317 H 0.5639 0.53902 0.68493 0.0
C318 C 0.88733 0.85617 0.1206 0.0
C319 C 0.90126 0.87735 0.17366 0.0
C320 C 0.97285 0.8273 0.18748 0.0
C321 C 0.94944 0.79463 0.1463 0.0
N322 N 0.889 0.78232 0.06488 0.0
N323 N 0.9788 0.91361 0.20763 0.0
C324 C 0.90891 0.8111 0.10853 0.0
C325 C 0.95097 0.87279 0.19395 0.0
N326 N 0.85268 0.87836 0.08403 0.0
N327 N 1.01487 0.81532 0.2206 0.0
H328 H 0.96371 0.94848 0.20317 0.0
H329 H 1.01663 0.91249 0.21767 0.0
H330 H 1.03237 0.78215 0.21699 0.0
H331 H 1.03041 0.83794 0.25338 0.0
H332 H 0.84189 0.86601 0.04316 0.0
H333 H 0.83682 0.91069 0.09537 0.0
H334 H 0.85532 0.78943 0.04169 0.0
H335 H 0.90517 0.75003 0.05411 0.0
C336 C 0.31514 0.12228 0.08973 0.0
C337 C 0.31248 0.14663 0.14425 0.0
C338 C 0.40735 0.12596 0.1557 0.0
C339 C 0.41101 0.10333 0.09983 0.0
N340 N 0.35887 0.0896 0.01294 0.0
N341 N 0.36717 0.17801 0.22138 0.0
C342 C 0.36173 0.10451 0.0676 0.0
C343 C 0.36202 0.14956 0.17431 0.0
N344 N 0.27118 0.11465 0.0578 0.0
N345 N 0.44843 0.12533 0.19384 0.0
H346 H 0.33712 0.19343 0.23652 0.0
H347 H 0.40075 0.1895 0.24235 0.0
H348 H 0.48214 0.11489 0.18369 0.0
H349 H 0.44851 0.13243 0.23663 0.0
H350 H 0.26604 0.09323 0.02165 0.0
H351 H 0.23879 0.12674 0.07081 0.0
H352 H 0.32846 0.09432 0.98306 0.0
H353 H 0.38892 0.07596 0.99626 0.0
C354 C 0.39212 0.87048 0.70576 0.0
C355 C 0.3874 0.83476 0.74825 0.0
C356 C 0.29904 0.84446 0.73624 0.0
C357 C 0.3042 0.87837 0.69195 0.0
N358 N 0.35451 0.9371 0.64937 0.0
N359 N 0.33921 0.79431 0.81217 0.0
C360 C 0.35063 0.89662 0.68275 0.0
C361 C 0.34172 0.82514 0.76728 0.0
N362 N 0.43452 0.8749 0.68241 0.0
N363 N 0.25373 0.82759 0.74513 0.0
H364 H 0.3697 0.77622 0.83168 0.0
H365 H 0.30801 0.78889 0.83186 0.0
H366 H 0.22169 0.84142 0.72352 0.0
H367 H 0.24766 0.79857 0.77216 0.0
H368 H 0.43853 0.89705 0.64742 0.0
H369 H 0.46391 0.85222 0.69418 0.0
H370 H 0.3878 0.95412 0.6444 0.0
H371 H 0.3239 0.95623 0.63151 0.0
C372 C 0.8507 0.476 0.91583 0.0
C373 C 0.84967 0.43567 0.87819 0.0
C374 C 0.93344 0.41658 0.91729 0.0
C375 C 0.93759 0.46185 0.9463 0.0
N376 N 0.89552 0.52259 0.9927 0.0
N377 N 0.89296 0.37249 0.8371 0.0
C378 C 0.8947 0.4883 0.95128 0.0
C379 C 0.89158 0.40674 0.87793 0.0
N380 N 0.80962 0.50292 0.91658 0.0
N381 N 0.96845 0.3821 0.92923 0.0
H382 H 0.86458 0.36798 0.80461 0.0
H383 H 0.92425 0.35332 0.83163 0.0
H384 H 0.99631 0.38619 0.96275 0.0
H385 H 0.96572 0.34706 0.91188 0.0
H386 H 0.80873 0.53628 0.93716 0.0
H387 H 0.77594 0.49215 0.89514 0.0
H388 H 0.86536 0.54203 1.0013 0.0
H389 H 0.92569 0.52744 0.02312 0.0
C390 C 0.72957 0.82736 0.29853 0.0
C391 C 0.77685 0.81477 0.28792 0.0
C392 C 0.76909 0.73527 0.33429 0.0
C393 C 0.72538 0.75119 0.35266 0.0
N394 N 0.66246 0.81107 0.35303 0.0
N395 N 0.84355 0.75812 0.2972 0.0
C396 C 0.70469 0.79669 0.33438 0.0
C397 C 0.79693 0.76878 0.30551 0.0
N398 N 0.70914 0.86891 0.27437 0.0
N399 N 0.78366 0.68791 0.344 0.0
H400 H 0.86451 0.78029 0.27373 0.0
H401 H 0.8626 0.72845 0.31611 0.0
H402 H 0.76435 0.66232 0.3657 0.0
H403 H 0.81236 0.67259 0.32628 0.0
H404 H 0.67333 0.87891 0.27667 0.0
H405 H 0.72746 0.89173 0.24832 0.0
H406 H 0.6479 0.84582 0.34591 0.0
H407 H 0.64282 0.78861 0.37808 0.0
C408 C 0.18915 0.34402 0.14473 0.0
C409 C 0.18818 0.2977 0.11429 0.0
C410 C 0.13214 0.34804 0.03726 0.0
C411 C 0.13523 0.39543 0.06628 0.0
N412 N 0.17589 0.43379 0.14968 0.0
N413 N 0.15592 0.26093 0.02677 0.0
C414 C 0.16608 0.39113 0.12072 0.0
C415 C 0.15882 0.30203 0.05921 0.0
N416 N 0.21223 0.34326 0.19869 0.0
N417 N 0.10115 0.34612 0.98812 0.0
H418 H 0.17273 0.22842 0.04119 0.0
H419 H 0.13903 0.25902 0.98544 0.0
H420 H 0.08277 0.37699 0.97136 0.0
H421 H 0.09111 0.31426 0.96572 0.0
H422 H 0.21042 0.37129 0.22755 0.0
H423 H 0.2308 0.31247 0.21568 0.0
H424 H 0.20176 0.43736 0.18512 0.0
H425 H 0.16064 0.46699 0.13521 0.0
C426 C 0.76012 0.3429 0.92766 0.0
C427 C 0.77513 0.34641 0.87323 0.0
C428 C 0.75659 0.25863 0.85909 0.0
C429 C 0.73006 0.25936 0.90572 0.0
N430 N 0.7107 0.29867 0.98943 0.0
N431 N 0.78549 0.30764 0.78518 0.0
C432 C 0.73445 0.30002 0.94262 0.0
C433 C 0.77503 0.3036 0.83947 0.0
N434 N 0.76696 0.3822 0.96273 0.0
N435 N 0.76125 0.21565 0.83158 0.0
H436 H 0.7946 0.34097 0.76721 0.0
H437 H 0.78044 0.27912 0.75619 0.0
H438 H 0.74654 0.18252 0.8445 0.0
H439 H 0.78361 0.21213 0.79991 0.0
H440 H 0.76015 0.38159 1.00461 0.0
H441 H 0.78294 0.41469 0.95054 0.0
H442 H 0.70764 0.3286 0.01537 0.0
H443 H 0.69231 0.2672 1.00119 0.0
C444 C 0.9514 0.90323 0.32513 0.0
C445 C 0.91374 0.92732 0.29027 0.0
C446 C 0.9485 1.00742 0.32118 0.0
C447 C 0.98325 0.98283 0.36059 0.0
N448 N 1.02995 0.90981 0.38228 0.0
N449 N 0.87408 1.0005 0.25482 0.0
C450 C 0.98828 0.93134 0.35731 0.0
C451 C 0.91217 0.97902 0.28755 0.0
N452 N 0.95073 0.85324 0.32859 0.0
N453 N 0.95078 0.05722 0.31432 0.0
H454 H 0.84841 0.98015 0.22826 0.0
H455 H 0.8662 0.03761 0.25588 0.0
H456 H 0.97728 0.07988 0.33583 0.0
H457 H 0.92909 0.07636 0.28299 0.0
H458 H 0.97301 0.83331 0.3587 0.0
H459 H 0.92605 0.83178 0.30242 0.0
H460 H 1.03785 0.87304 0.37731 0.0
H461 H 0.05944 0.93002 0.40249 0.0
C462 C 0.51033 0.70809 0.66828 0.0
C463 C 0.48849 0.69594 0.71709 0.0
C464 C 0.4809 0.60966 0.68855 0.0
C465 C 0.49933 0.62279 0.63742 0.0
N466 N 0.52278 0.68551 0.57351 0.0
N467 N 0.44985 0.6377 0.77343 0.0
C468 C 0.51201 0.67229 0.62606 0.0
C469 C 0.47335 0.64719 0.7274 0.0
N470 N 0.52858 0.75445 0.6621 0.0
N471 N 0.47162 0.56149 0.7004 0.0
H472 H 0.44594 0.66451 0.80341 0.0
H473 H 0.43256 0.60443 0.78077 0.0
H474 H 0.47487 0.53328 0.67205 0.0
H475 H 0.46325 0.54895 0.73941 0.0
H476 H 0.54957 0.76468 0.63052 0.0
H477 H 0.52616 0.78184 0.6916 0.0
H478 H 0.52759 0.72168 0.56065 0.0
H479 H 0.52225 0.66066 0.5405 0.0
C480 C 0.96536 0.95264 0.76357 0.0
C481 C 0.93709 0.9065 0.76258 0.0
C482 C 0.96676 0.90196 0.66109 0.0
C483 C 0.9919 0.95016 0.66009 0.0
N484 N 1.0068 0.02147 0.71864 0.0
N485 N 0.90691 0.8439 0.69708 0.0
C486 C 0.9882 0.97483 0.71394 0.0
C487 C 0.93743 0.88344 0.70745 0.0
N488 N 0.97269 0.97553 0.81456 0.0
N489 N 0.97034 0.87226 0.6163 0.0
H490 H 0.88619 0.83038 0.72752 0.0
H491 H 0.89891 0.82764 0.65764 0.0
H492 H 0.98704 0.88388 0.58161 0.0
H493 H 0.95997 0.83533 0.61536 0.0
H494 H 0.99663 1.00515 0.82359 0.0
H495 H 0.95807 0.96141 0.84974 0.0
H496 H 1.00047 0.04545 0.75046 0.0
H497 H 1.02609 0.03729 0.68819 0.0
C498 C 0.64491 0.15971 0.24137 0.0
C499 C 0.66118 0.20527 0.22106 0.0
C500 C 0.66705 0.16824 0.1292 0.0
C501 C 0.64729 0.12386 0.14847 0.0
N502 N 0.64062 0.07178 0.22994 0.0
N503 N 0.68059 0.25556 0.14347 0.0
C504 C 0.64351 0.11759 0.20681 0.0
C505 C 0.67113 0.21013 0.16453 0.0
N506 N 0.62646 0.15764 0.29163 0.0
N507 N 0.68425 0.16912 0.07811 0.0
H508 H 0.68169 0.28724 0.16778 0.0
H509 H 0.6831 0.26249 0.101 0.0
H510 H 0.6844 0.13752 0.05381 0.0
H511 H 0.70374 0.19863 0.0636 0.0
H512 H 0.60968 0.1264 0.30643 0.0
H513 H 0.6219 0.18904 0.31452 0.0
H514 H 0.64119 0.06561 0.27317 0.0
H515 H 0.64564 0.03993 0.20792 0.0
C516 C 0.43412 0.55585 0.27759 0.0
C517 C 0.40294 0.59561 0.28049 0.0
C518 C 0.43353 0.60791 0.38024 0.0
C519 C 0.4684 0.5706 0.37647 0.0
N520 N 0.50259 0.5096 0.32053 0.0
N521 N 0.35972 0.64715 0.33669 0.0
C522 C 0.46841 0.5443 0.32499 0.0
C523 C 0.39857 0.61788 0.33262 0.0
N524 N 0.42921 0.5279 0.2299 0.0
N525 N 0.4362 0.63664 0.42721 0.0
H526 H 0.33267 0.65263 0.30268 0.0
H527 H 0.35136 0.66131 0.37458 0.0
H528 H 0.46171 0.63198 0.4627 0.0
H529 H 0.41563 0.66798 0.42942 0.0
H530 H 0.44681 0.4949 0.22638 0.0
H531 H 0.40398 0.53568 0.1948 0.0
H532 H 0.50958 0.4945 0.28257 0.0
H533 H 0.52589 0.49722 0.35483 0.0
C534 C 0.15509 0.23706 0.87026 0.0
C535 C 0.20543 0.23716 0.88943 0.0
C536 C 0.19826 0.32328 0.91314 0.0
C537 C 0.15735 0.32566 0.87014 0.0
N538 N 0.09543 0.28068 0.80812 0.0
N539 N 0.26934 0.2758 0.95044 0.0
C540 C 0.13454 0.2813 0.84924 0.0
C541 C 0.22417 0.27844 0.92053 0.0
N542 N 0.12716 0.19584 0.87358 0.0
N543 N 0.21217 0.36325 0.94565 0.0
H544 H 0.28833 0.2429 0.95282 0.0
H545 H 0.28832 0.30586 0.96953 0.0
H546 H 0.19269 0.39579 0.9419 0.0
H547 H 0.23979 0.36247 0.97963 0.0
H548 H 0.08956 0.19531 0.86128 0.0
H549 H 0.14059 0.16542 0.89677 0.0
H550 H 0.07954 0.24804 0.79163 0.0
H551 H 0.08195 0.31206 0.78683 0.0
C552 C 0.78828 0.94892 0.94677 0.0
C553 C 0.78852 0.92704 0.89059 0.0
C554 C 0.69448 0.94919 0.88367 0.0
C555 C 0.69314 0.96965 0.94093 0.0
N556 N 0.74741 0.97998 0.02684 0.0
N557 N 0.73226 0.90236 0.81139 0.0
C558 C 0.74288 0.96648 0.97161 0.0
C559 C 0.7387 0.92693 0.86136 0.0
N560 N 0.83313 0.95522 0.97705 0.0
N561 N 0.65185 0.95041 0.84816 0.0
H562 H 0.76148 0.8872 0.79429 0.0
H563 H 0.69836 0.8932 0.78951 0.0
H564 H 0.61859 0.95749 0.86202 0.0
H565 H 0.64955 0.94609 0.80463 0.0
H566 H 0.83968 0.97543 0.01404 0.0
H567 H 0.86468 0.943 0.96212 0.0
H568 H 0.77857 0.97468 0.05539 0.0
H569 H 0.71806 0.99346 0.04508 0.0
C570 C 0.78818 0.23383 0.28823 0.0
C571 C 0.74504 0.22846 0.3142 0.0
C572 C 0.78823 0.17921 0.39028 0.0
C573 C 0.83241 0.18982 0.36816 0.0
N574 N 0.87597 0.22266 0.29477 0.0
N575 N 0.70529 0.20313 0.39426 0.0
C576 C 0.83273 0.21521 0.3161 0.0
C577 C 0.7451 0.20208 0.36576 0.0
N578 N 0.78654 0.25929 0.23854 0.0
N579 N 0.78765 0.14804 0.43548 0.0
H580 H 0.67384 0.22196 0.37947 0.0
H581 H 0.70498 0.18972 0.4352 0.0
H582 H 0.81896 0.1325 0.45682 0.0
H583 H 0.75563 0.13432 0.44901 0.0
H584 H 0.81526 0.2627 0.21452 0.0
H585 H 0.75522 0.27684 0.22056 0.0
H586 H 0.88018 0.24349 0.25896 0.0
H587 H 0.9087 0.20794 0.31363 0.0
C588 C 0.27935 0.57925 0.07217 0.0
C589 C 0.28304 0.61909 0.10992 0.0
C590 C 0.20093 0.64491 0.07287 0.0
C591 C 0.19424 0.60027 0.04282 0.0
N592 N 0.22663 0.52731 1.00743 0.0
N593 N 0.25011 0.69102 0.14679 0.0
C594 C 0.23379 0.56859 0.03966 0.0
C595 C 0.2449 0.65294 0.1096 0.0
N596 N 0.31951 0.55165 0.0684 0.0
N597 N 0.16473 0.67869 0.06711 0.0
H598 H 0.28225 0.69761 0.17382 0.0
H599 H 0.22219 0.71458 0.15314 0.0
H600 H 0.13251 0.67355 0.03983 0.0
H601 H 0.16807 0.71337 0.08513 0.0
H602 H 0.32081 0.52368 0.03934 0.0
H603 H 0.35298 0.55891 0.09267 0.0
H604 H 0.25179 0.49943 1.0075 0.0
H605 H 0.19435 0.52088 0.98057 0.0
C606 C 0.32396 0.22081 0.70722 0.0
C607 C 0.27488 0.23148 0.71336 0.0
C608 C 0.27291 0.2919 0.63618 0.0
C609 C 0.3221 0.28184 0.63115 0.0
N610 N 0.391 0.22922 0.65097 0.0
N611 N 0.20418 0.28175 0.68546 0.0
C612 C 0.34633 0.24344 0.66289 0.0
C613 C 0.24948 0.26707 0.67759 0.0
N614 N 0.35086 0.19363 0.7478 0.0
N615 N 0.24872 0.32721 0.6032 0.0
H616 H 0.18534 0.26876 0.71779 0.0
H617 H 0.18534 0.26876 0.71779 0.0
H618 H 0.26441 0.34698 0.57228 0.0
H619 H 0.21255 0.33598 0.60623 0.0
H620 H 0.38823 0.18858 0.74929 0.0
H621 H 0.33675 0.18023 0.78352 0.0
H622 H 0.40872 0.19843 0.66896 0.0
H623 H 0.40824 0.24572 0.61898 0.0
C624 C 0.91997 0.75576 0.84431 0.0
C625 C 0.9349 0.80516 0.86361 0.0
C626 C 0.99775 0.75513 0.93394 0.0
C627 C 0.98423 0.70579 0.91269 0.0
N628 N 0.93214 0.66628 0.83748 0.0
N629 N 0.98521 0.84523 0.93894 0.0
C630 C 0.94555 0.70904 0.86482 0.0
C631 C 0.97328 0.80213 0.91163 0.0
N632 N 0.87747 0.75242 0.80858 0.0
N633 N 1.03689 0.75793 0.97486 0.0
H634 H 0.97062 0.87852 0.92356 0.0
H635 H 1.00652 0.84791 0.978 0.0
H636 H 0.05495 0.7268 0.99154 0.0
H637 H 0.05393 0.79058 0.98928 0.0
H638 H 0.8594 0.71945 0.7973 0.0
H639 H 0.85759 0.78335 0.79485 0.0
H640 H 0.9105 0.66472 0.7985 0.0
H641 H 0.94548 0.6324 0.85214 0.0
C642 C 0.48424 0.66488 0.1889 0.0
C643 C 0.44051 0.67694 0.21033 0.0
C644 C 0.47746 0.75405 0.24675 0.0
C645 C 0.51606 0.74717 0.21422 0.0
N646 N 0.56315 0.6938 0.16464 0.0
N647 N 0.39324 0.73415 0.2555 0.0
C648 C 0.52227 0.70099 0.18992 0.0
C649 C 0.43696 0.72124 0.23965 0.0
N650 N 0.48762 0.62019 0.16465 0.0
N651 N 0.47857 0.79314 0.2822 0.0
H652 H 0.36195 0.71216 0.24744 0.0
H653 H 0.3868 0.76842 0.27165 0.0
H654 H 0.50807 0.81766 0.28832 0.0
H655 H 0.45301 0.79793 0.31011 0.0
H656 H 0.51898 0.60741 0.15027 0.0
H657 H 0.45852 0.59507 0.16015 0.0
H658 H 0.56949 0.66263 0.14211 0.0
H659 H 0.59131 0.72013 0.16693 0.0
C660 C 0.16182 0.14586 0.71267 0.0
C661 C 0.21233 0.13904 0.73061 0.0
C662 C 0.21287 0.0717 0.66365 0.0
C663 C 0.16179 0.07644 0.6489 0.0
N664 N 0.08651 0.11562 0.66046 0.0
N665 N 0.28291 0.08898 0.73311 0.0
C666 C 0.13601 0.11299 0.6736 0.0
C667 C 0.23718 0.1003 0.70857 0.0
N668 N 0.13841 0.18398 0.73317 0.0
N669 N 0.23815 0.04037 0.63435 0.0
H670 H 0.2997 0.10729 0.76867 0.0
H671 H 0.30171 0.05841 0.72246 0.0
H672 H 0.22144 0.01916 0.60099 0.0
H673 H 0.27605 0.03866 0.63969 0.0
H674 H 0.15471 0.20613 0.76541 0.0
H675 H 0.10401 0.1957 0.71619 0.0
H676 H 0.06418 0.13635 0.68262 0.0
H677 H 0.06702 0.09498 0.62849 0.0
C678 C 0.63216 0.40133 0.31845 0.0
C679 C 0.6221 0.35118 0.32794 0.0
C680 C 0.58554 0.37061 0.41279 0.0
C681 C 0.59525 0.42114 0.40331 0.0
N682 N 0.62281 0.48601 0.34448 0.0
N683 N 0.58235 0.28772 0.37685 0.0
C684 C 0.61714 0.43702 0.35528 0.0
C685 C 0.59612 0.33586 0.37257 0.0
N686 N 0.65818 0.41404 0.27535 0.0
N687 N 0.56932 0.35555 0.46214 0.0
H688 H 0.59125 0.26102 0.34931 0.0
H689 H 0.55874 0.27475 0.40451 0.0
H690 H 0.56208 0.37964 0.49351 0.0
H691 H 0.56688 0.31901 0.47464 0.0
H692 H 0.67224 0.44907 0.26918 0.0
H693 H 0.66735 0.38833 0.24651 0.0
H694 H 0.63365 0.5001 0.30728 0.0
H695 H 0.61405 0.51328 0.37147 0.0
loop_
_geom_bond_atom_site_label_1
_geom_bond_atom_site_label_2
_geom_bond_distance
_geom_bond_site_symmetry_2
_ccdc_geom_bond_type
C0 N1 1.317 . S
C0 N2 1.348 . S
C0 C3 1.485 . S
N1 C0 1.317 . S
N1 N5 1.370 . S
N2 C0 1.348 . S
N2 C4 1.346 . S
C3 C0 1.485 . S
C3 H7 0.960 . S
C3 H8 0.961 . S
C3 H9 0.960 . S
C4 N2 1.346 . S
C4 N5 1.307 . S
C4 C6 1.486 . S
N5 N1 1.370 . S
N5 C4 1.307 . S
C6 C4 1.486 . S
C6 H10 0.960 . S
C6 H11 0.960 . S
C6 H12 0.959 . S
H7 C3 0.960 . S
H8 C3 0.961 . S
H9 C3 0.960 . S
H10 C6 0.960 . S
H11 C6 0.960 . S
H12 C6 0.959 . S
C13 N14 1.317 . S
C13 N15 1.348 . S
C13 C16 1.485 . S
N14 C13 1.317 . S
N14 N18 1.370 . S
N15 C13 1.348 . S
N15 C17 1.346 . S
C16 C13 1.485 . S
C16 H20 0.960 . S
C16 H21 0.961 . S
C16 H22 0.960 . S
C17 N15 1.346 . S
C17 N18 1.307 . S
C17 C19 1.486 . S
N18 N14 1.370 . S
N18 C17 1.307 . S
C19 C17 1.486 . S
C19 H23 0.960 . S
C19 H24 0.960 . S
C19 H25 0.959 . S
H20 C16 0.960 . S
H21 C16 0.961 . S
H22 C16 0.960 . S
H23 C19 0.960 . S
H24 C19 0.960 . S
H25 C19 0.959 . S
C26 N27 1.317 . S
C26 N28 1.348 . S
C26 C29 1.485 . S
N27 C26 1.317 . S
N27 N31 1.370 . S
N28 C26 1.348 . S
N28 C30 1.346 . S
C29 C26 1.485 . S
C29 H33 0.960 . S
C29 H34 0.961 . S
C29 H35 0.960 . S
C30 N28 1.346 . S
C30 N31 1.307 . S
C30 C32 1.486 . S
N31 N27 1.370 . S
N31 C30 1.307 . S
C32 C30 1.486 . S
C32 H36 0.960 . S
C32 H37 0.960 . S
C32 H38 0.959 . S
H33 C29 0.960 . S
H34 C29 0.961 . S
H35 C29 0.960 . S
H36 C32 0.960 . S
H37 C32 0.960 . S
H38 C32 0.959 . S
C39 N40 1.317 . S
C39 N41 1.348 . S
C39 C42 1.485 . S
N40 C39 1.317 . S
N40 N44 1.370 . S
N41 C39 1.348 . S
N41 C43 1.346 . S
C42 C39 1.485 . S
C42 H46 0.960 . S
C42 H47 0.961 . S
C42 H48 0.960 . S
C43 N41 1.346 . S
C43 N44 1.307 . S
C43 C45 1.486 . S
N44 N40 1.370 . S
N44 C43 1.307 . S
C45 C43 1.486 . S
C45 H49 0.960 . S
C45 H50 0.960 . S
C45 H51 0.959 . S
H46 C42 0.960 . S
H47 C42 0.961 . S
H48 C42 0.960 . S
H49 C45 0.960 . S
H50 C45 0.960 . S
H51 C45 0.959 . S
C52 N53 1.317 . S
C52 N54 1.348 . S
C52 C55 1.485 . S
N53 C52 1.317 . S
N53 N57 1.370 . S
N54 C52 1.348 . S
N54 C56 1.346 . S
C55 C52 1.485 . S
C55 H59 0.960 . S
C55 H60 0.961 . S
C55 H61 0.960 . S
C56 N54 1.346 . S
C56 N57 1.307 . S
C56 C58 1.486 . S
N57 N53 1.370 . S
N57 C56 1.307 . S
C58 C56 1.486 . S
C58 H62 0.960 . S
C58 H63 0.960 . S
C58 H64 0.959 . S
H59 C55 0.960 . S
H60 C55 0.961 . S
H61 C55 0.960 . S
H62 C58 0.960 . S
H63 C58 0.960 . S
H64 C58 0.959 . S
C65 N66 1.317 . S
C65 N67 1.348 . S
C65 C68 1.485 . S
N66 C65 1.317 . S
N66 N70 1.370 . S
N67 C65 1.348 . S
N67 C69 1.346 . S
C68 C65 1.485 . S
C68 H72 0.960 . S
C68 H73 0.961 . S
C68 H74 0.960 . S
C69 N67 1.346 . S
C69 N70 1.307 . S
C69 C71 1.486 . S
N70 N66 1.370 . S
N70 C69 1.307 . S
C71 C69 1.486 . S
C71 H75 0.960 . S
C71 H76 0.960 . S
C71 H77 0.959 . S
H72 C68 0.960 . S
H73 C68 0.961 . S
H74 C68 0.960 . S
H75 C71 0.960 . S
H76 C71 0.960 . S
H77 C71 0.959 . S
C78 N79 1.317 . S
C78 N80 1.348 . S
C78 C81 1.485 . S
N79 C78 1.317 . S
N79 N83 1.370 . S
N80 C78 1.348 . S
N80 C82 1.346 . S
C81 C78 1.485 . S
C81 H85 0.960 . S
C81 H86 0.961 . S
C81 H87 0.960 . S
C82 N80 1.346 . S
C82 N83 1.307 . S
C82 C84 1.486 . S
N83 N79 1.370 . S
N83 C82 1.307 . S
C84 C82 1.486 . S
C84 H88 0.960 . S
C84 H89 0.960 . S
C84 H90 0.959 . S
H85 C81 0.960 . S
H86 C81 0.961 . S
H87 C81 0.960 . S
H88 C84 0.960 . S
H89 C84 0.960 . S
H90 C84 0.959 . S
C91 N92 1.317 . S
C91 N93 1.348 . S
C91 C94 1.485 . S
N92 C91 1.317 . S
N92 N96 1.370 . S
N93 C91 1.348 . S
N93 C95 1.346 . S
C94 C91 1.485 . S
C94 H98 0.960 . S
C94 H99 0.961 . S
C94 H100 0.960 . S
C95 N93 1.346 . S
C95 N96 1.307 . S
C95 C97 1.486 . S
N96 N92 1.370 . S
N96 C95 1.307 . S
C97 C95 1.486 . S
C97 H101 0.960 . S
C97 H102 0.960 . S
C97 H103 0.959 . S
H98 C94 0.960 . S
H99 C94 0.961 . S
H100 C94 0.960 . S
H101 C97 0.960 . S
H102 C97 0.960 . S
H103 C97 0.959 . S
Nd104 C106 2.836 . S
Nd104 O124 2.500 . S
Nd104 O125 2.492 . S
Nd104 O126 2.487 1_565 S
Nd104 O127 2.682 1_565 S
Nd104 O128 2.410 . S
Nd104 O133 2.414 . S
Nd104 O135 2.424 1_565 S
Nd105 C115 2.836 . S
Nd105 O127 2.414 1_655 S
Nd105 O129 2.424 1_545 S
Nd105 O130 2.500 . S
Nd105 O131 2.492 . S
Nd105 O132 2.487 1_545 S
Nd105 O133 2.682 1_645 S
Nd105 O134 2.410 1_655 S
C106 Nd104 2.836 . S
C106 C107 1.498 . S
C106 O124 1.258 . S
C106 O125 1.239 . S
C107 C106 1.498 . S
C107 C108 1.366 . S
C107 C112 1.407 . S
C108 C107 1.366 . S
C108 C109 1.392 . S
C108 H136 0.930 . S
C109 C108 1.392 . S
C109 C110 1.398 . S
C109 H137 0.929 . S
C110 C109 1.398 . S
C110 C111 1.352 . S
C111 C110 1.352 . S
C111 C112 1.384 . S
C111 H138 0.930 . S
C112 C107 1.407 . S
C112 C111 1.384 . S
C112 H139 0.929 . S
C113 O126 1.241 . S
C113 O127 1.273 . S
C114 O128 1.251 . S
C114 O129 1.268 1_455 S
C115 Nd105 2.836 . S
C115 C116 1.498 . S
C115 O130 1.258 . S
C115 O131 1.239 . S
C116 C115 1.498 . S
C116 C117 1.366 . S
C116 C121 1.407 . S
C117 C116 1.366 . S
C117 C118 1.392 . S
C117 H140 0.930 . S
C118 C117 1.392 . S
C118 C119 1.398 . S
C118 H141 0.929 . S
C119 C118 1.398 . S
C119 C120 1.352 . S
C120 C119 1.352 . S
C120 C121 1.384 . S
C120 H142 0.930 . S
C121 C116 1.407 . S
C121 C120 1.384 . S
C121 H143 0.929 . S
C122 O132 1.241 . S
C122 O133 1.273 1_655 S
C123 O134 1.251 . S
C123 O135 1.268 . S
O124 Nd104 2.500 . S
O124 C106 1.258 . S
O125 Nd104 2.492 . S
O125 C106 1.239 . S
O126 Nd104 2.487 1_545 S
O126 C113 1.241 . S
O127 Nd104 2.682 1_545 S
O127 Nd105 2.414 1_455 S
O127 C113 1.273 . S
O128 Nd104 2.410 . S
O128 C114 1.251 . S
O129 Nd105 2.424 1_565 S
O129 C114 1.268 1_655 S
O130 Nd105 2.500 . S
O130 C115 1.258 . S
O131 Nd105 2.492 . S
O131 C115 1.239 . S
O132 Nd105 2.487 1_565 S
O132 C122 1.241 . S
O133 Nd104 2.414 . S
O133 Nd105 2.682 1_465 S
O133 C122 1.273 1_455 S
O134 Nd105 2.410 1_455 S
O134 C123 1.251 . S
O135 Nd104 2.424 1_545 S
O135 C123 1.268 . S
H136 C108 0.930 . S
H137 C109 0.929 . S
H138 C111 0.930 . S
H139 C112 0.929 . S
H140 C117 0.930 . S
H141 C118 0.929 . S
H142 C120 0.930 . S
H143 C121 0.929 . S
Nd144 C146 2.836 . S
Nd144 O164 2.500 . S
Nd144 O165 2.492 . S
Nd144 O166 2.487 1_565 S
Nd144 O167 2.682 1_565 S
Nd144 O168 2.410 . S
Nd144 O173 2.414 . S
Nd144 O175 2.424 1_565 S
Nd145 C155 2.836 . S
Nd145 O167 2.414 1_556 S
Nd145 O169 2.424 1_545 S
Nd145 O170 2.500 . S
Nd145 O171 2.492 . S
Nd145 O172 2.487 . S
Nd145 O173 2.682 1_546 S
Nd145 O174 2.410 1_556 S
C146 Nd144 2.836 . S
C146 C147 1.498 . S
C146 O164 1.258 . S
C146 O165 1.239 . S
C147 C146 1.498 . S
C147 C148 1.366 . S
C147 C152 1.407 . S
C148 C147 1.366 . S
C148 C149 1.392 . S
C148 H176 0.930 . S
C149 C148 1.392 . S
C149 C150 1.398 . S
C149 H177 0.929 . S
C150 C149 1.398 . S
C150 C151 1.352 . S
C151 C150 1.352 . S
C151 C152 1.384 . S
C151 H178 0.930 . S
C152 C147 1.407 . S
C152 C151 1.384 . S
C152 H179 0.929 . S
C153 O166 1.241 . S
C153 O167 1.273 . S
C154 O168 1.251 1_556 S
C154 O169 1.268 . S
C155 Nd145 2.836 . S
C155 C156 1.498 . S
C155 O170 1.258 . S
C155 O171 1.239 . S
C156 C155 1.498 . S
C156 C157 1.366 . S
C156 C161 1.407 . S
C157 C156 1.366 . S
C157 C158 1.392 . S
C157 H180 0.930 . S
C158 C157 1.392 . S
C158 C159 1.398 . S
C158 H181 0.929 . S
C159 C158 1.398 . S
C159 C160 1.352 . S
C160 C159 1.352 . S
C160 C161 1.384 . S
C160 H182 0.930 . S
C161 C156 1.407 . S
C161 C160 1.384 . S
C161 H183 0.929 . S
C162 O172 1.241 1_564 S
C162 O173 1.273 . S
C163 O174 1.251 . S
C163 O175 1.268 . S
O164 Nd144 2.500 . S
O164 C146 1.258 . S
O165 Nd144 2.492 . S
O165 C146 1.239 . S
O166 Nd144 2.487 1_545 S
O166 C153 1.241 . S
O167 Nd144 2.682 1_545 S
O167 Nd145 2.414 1_554 S
O167 C153 1.273 . S
O168 Nd144 2.410 . S
O168 C154 1.251 1_554 S
O169 Nd145 2.424 1_565 S
O169 C154 1.268 . S
O170 Nd145 2.500 . S
O170 C155 1.258 . S
O171 Nd145 2.492 . S
O171 C155 1.239 . S
O172 Nd145 2.487 . S
O172 C162 1.241 1_546 S
O173 Nd144 2.414 . S
O173 Nd145 2.682 1_564 S
O173 C162 1.273 . S
O174 Nd145 2.410 1_554 S
O174 C163 1.251 . S
O175 Nd144 2.424 1_545 S
O175 C163 1.268 . S
H176 C148 0.930 . S
H177 C149 0.929 . S
H178 C151 0.930 . S
H179 C152 0.929 . S
H180 C157 0.930 . S
H181 C158 0.929 . S
H182 C160 0.930 . S
H183 C161 0.929 . S
Nd184 C186 2.836 . S
Nd184 O204 2.500 . S
Nd184 O205 2.492 . S
Nd184 O206 2.487 . S
Nd184 O207 2.682 . S
Nd184 O208 2.410 . S
Nd184 O213 2.414 . S
Nd184 O215 2.424 . S
Nd185 C195 2.836 . S
Nd185 O207 2.414 . S
Nd185 O209 2.424 . S
Nd185 O210 2.500 . S
Nd185 O211 2.492 . S
Nd185 O212 2.487 . S
Nd185 O213 2.682 . S
Nd185 O214 2.410 . S
C186 Nd184 2.836 . S
C186 C187 1.498 . S
C186 O204 1.258 . S
C186 O205 1.239 . S
C187 C186 1.498 . S
C187 C188 1.366 . S
C187 C192 1.407 . S
C188 C187 1.366 . S
C188 C189 1.392 . S
C188 H216 0.930 . S
C189 C188 1.392 . S
C189 C190 1.398 . S
C189 H217 0.929 . S
C190 C189 1.398 . S
C190 C191 1.352 . S
C191 C190 1.352 . S
C191 C192 1.384 . S
C191 H218 0.930 . S
C192 C187 1.407 . S
C192 C191 1.384 . S
C192 H219 0.929 . S
C193 O206 1.241 . S
C193 O207 1.273 . S
C194 O208 1.251 . S
C194 O209 1.268 . S
C195 Nd185 2.836 . S
C195 C196 1.498 . S
C195 O210 1.258 . S
C195 O211 1.239 . S
C196 C195 1.498 . S
C196 C197 1.366 . S
C196 C201 1.407 . S
C197 C196 1.366 . S
C197 C198 1.392 . S
C197 H220 0.930 . S
C198 C197 1.392 . S
C198 C199 1.398 . S
C198 H221 0.929 . S
C199 C198 1.398 . S
C199 C200 1.352 . S
C200 C199 1.352 . S
C200 C201 1.384 . S
C200 H222 0.930 . S
C201 C196 1.407 . S
C201 C200 1.384 . S
C201 H223 0.929 . S
C202 O212 1.241 . S
C202 O213 1.273 . S
C203 O214 1.251 . S
C203 O215 1.268 . S
O204 Nd184 2.500 . S
O204 C186 1.258 . S
O205 Nd184 2.492 . S
O205 C186 1.239 . S
O206 Nd184 2.487 . S
O206 C193 1.241 . S
O207 Nd184 2.682 . S
O207 Nd185 2.414 . S
O207 C193 1.273 . S
O208 Nd184 2.410 . S
O208 C194 1.251 . S
O209 Nd185 2.424 . S
O209 C194 1.268 . S
O210 Nd185 2.500 . S
O210 C195 1.258 . S
O211 Nd185 2.492 . S
O211 C195 1.239 . S
O212 Nd185 2.487 . S
O212 C202 1.241 . S
O213 Nd184 2.414 . S
O213 Nd185 2.682 . S
O213 C202 1.273 . S
O214 Nd185 2.410 . S
O214 C203 1.251 . S
O215 Nd184 2.424 . S
O215 C203 1.268 . S
H216 C188 0.930 . S
H217 C189 0.929 . S
H218 C191 0.930 . S
H219 C192 0.929 . S
H220 C197 0.930 . S
H221 C198 0.929 . S
H222 C200 0.930 . S
H223 C201 0.929 . S
Nd224 C226 2.836 . S
Nd224 O244 2.500 . S
Nd224 O245 2.492 . S
Nd224 O246 2.487 1_655 S
Nd224 O247 2.682 1_655 S
Nd224 O248 2.410 . S
Nd224 O253 2.414 1_554 S
Nd224 O255 2.424 1_655 S
Nd225 C235 2.836 . S
Nd225 O247 2.414 1_556 S
Nd225 O249 2.424 1_455 S
Nd225 O250 2.500 . S
Nd225 O251 2.492 . S
Nd225 O252 2.487 1_455 S
Nd225 O253 2.682 1_455 S
Nd225 O254 2.410 . S
C226 Nd224 2.836 . S
C226 C227 1.498 . S
C226 O244 1.258 . S
C226 O245 1.239 . S
C227 C226 1.498 . S
C227 C228 1.366 . S
C227 C232 1.407 . S
C228 C227 1.366 . S
C228 C229 1.392 . S
C228 H256 0.930 . S
C229 C228 1.392 . S
C229 C230 1.398 . S
C229 H257 0.929 . S
C230 C229 1.398 . S
C230 C231 1.352 . S
C231 C230 1.352 . S
C231 C232 1.384 . S
C231 H258 0.930 . S
C232 C227 1.407 . S
C232 C231 1.384 . S
C232 H259 0.929 . S
C233 O246 1.241 . S
C233 O247 1.273 . S
C234 O248 1.251 1_556 S
C234 O249 1.268 . S
C235 Nd225 2.836 . S
C235 C236 1.498 . S
C235 O250 1.258 . S
C235 O251 1.239 . S
C236 C235 1.498 . S
C236 C237 1.366 . S
C236 C241 1.407 . S
C237 C236 1.366 . S
C237 C238 1.392 . S
C237 H260 0.930 . S
C238 C237 1.392 . S
C238 C239 1.398 . S
C238 H261 0.929 . S
C239 C238 1.398 . S
C239 C240 1.352 . S
C240 C239 1.352 . S
C240 C241 1.384 . S
C240 H262 0.930 . S
C241 C236 1.407 . S
C241 C240 1.384 . S
C241 H263 0.929 . S
C242 O252 1.241 . S
C242 O253 1.273 . S
C243 O254 1.251 1_554 S
C243 O255 1.268 . S
O244 Nd224 2.500 . S
O244 C226 1.258 . S
O245 Nd224 2.492 . S
O245 C226 1.239 . S
O246 Nd224 2.487 1_455 S
O246 C233 1.241 . S
O247 Nd224 2.682 1_455 S
O247 Nd225 2.414 1_554 S
O247 C233 1.273 . S
O248 Nd224 2.410 . S
O248 C234 1.251 1_554 S
O249 Nd225 2.424 1_655 S
O249 C234 1.268 . S
O250 Nd225 2.500 . S
O250 C235 1.258 . S
O251 Nd225 2.492 . S
O251 C235 1.239 . S
O252 Nd225 2.487 1_655 S
O252 C242 1.241 . S
O253 Nd224 2.414 1_556 S
O253 Nd225 2.682 1_655 S
O253 C242 1.273 . S
O254 Nd225 2.410 . S
O254 C243 1.251 1_556 S
O255 Nd224 2.424 1_455 S
O255 C243 1.268 . S
H256 C228 0.930 . S
H257 C229 0.929 . S
H258 C231 0.930 . S
H259 C232 0.929 . S
H260 C237 0.930 . S
H261 C238 0.929 . S
H262 C240 0.930 . S
H263 C241 0.929 . S
C264 C265 1.363 . S
C264 C270 1.379 . S
C264 N272 1.356 . S
C265 C264 1.363 . S
C265 C271 1.363 . S
C266 C267 1.363 . S
C266 C271 1.379 . S
C266 N273 1.356 . S
C267 C266 1.363 . S
C267 C270 1.363 . S
N268 C270 1.356 . S
N268 H280 0.984 . S
N268 H281 0.985 . S
N269 C271 1.356 . S
N269 H274 0.984 . S
N269 H275 0.985 . S
C270 C264 1.379 . S
C270 C267 1.363 . S
C270 N268 1.356 . S
C271 C265 1.363 . S
C271 C266 1.379 . S
C271 N269 1.356 . S
N272 C264 1.356 . S
N272 H278 0.984 . S
N272 H279 0.984 . S
N273 C266 1.356 . S
N273 H276 0.984 . S
N273 H277 0.985 . S
H274 N269 0.984 . S
H275 N269 0.985 . S
H276 N273 0.984 . S
H277 N273 0.985 . S
H278 N272 0.984 . S
H279 N272 0.984 . S
H280 N268 0.984 . S
H281 N268 0.985 . S
C282 C283 1.363 . S
C282 C288 1.379 . S
C282 N290 1.356 . S
C283 C282 1.363 . S
C283 C289 1.363 . S
C284 C285 1.363 . S
C284 C289 1.379 . S
C284 N291 1.356 . S
C285 C284 1.363 . S
C285 C288 1.363 . S
N286 C288 1.356 . S
N286 H298 0.984 . S
N286 H299 0.985 . S
N287 C289 1.356 . S
N287 H292 0.984 . S
N287 H293 0.985 . S
C288 C282 1.379 . S
C288 C285 1.363 . S
C288 N286 1.356 . S
C289 C283 1.363 . S
C289 C284 1.379 . S
C289 N287 1.356 . S
N290 C282 1.356 . S
N290 H296 0.984 . S
N290 H297 0.984 . S
N291 C284 1.356 . S
N291 H294 0.984 1_556 S
N291 H295 0.985 1_556 S
H292 N287 0.984 . S
H293 N287 0.985 . S
H294 N291 0.984 1_554 S
H295 N291 0.985 1_554 S
H296 N290 0.984 . S
H297 N290 0.984 . S
H298 N286 0.984 . S
H299 N286 0.985 . S
C300 C301 1.363 . S
C300 C306 1.379 . S
C300 N308 1.356 . S
C301 C300 1.363 . S
C301 C307 1.363 . S
C302 C303 1.363 . S
C302 C307 1.379 . S
C302 N309 1.356 . S
C303 C302 1.363 . S
C303 C306 1.363 . S
N304 C306 1.356 . S
N304 H316 0.984 . S
N304 H317 0.985 . S
N305 C307 1.356 . S
N305 H310 0.984 . S
N305 H311 0.985 . S
C306 C300 1.379 . S
C306 C303 1.363 . S
C306 N304 1.356 . S
C307 C301 1.363 . S
C307 C302 1.379 . S
C307 N305 1.356 . S
N308 C300 1.356 . S
N308 H314 0.984 . S
N308 H315 0.984 . S
N309 C302 1.356 . S
N309 H312 0.984 . S
N309 H313 0.985 . S
H310 N305 0.984 . S
H311 N305 0.985 . S
H312 N309 0.984 . S
H313 N309 0.985 . S
H314 N308 0.984 . S
H315 N308 0.984 . S
H316 N304 0.984 . S
H317 N304 0.985 . S
C318 C319 1.363 . S
C318 C324 1.379 . S
C318 N326 1.356 . S
C319 C318 1.363 . S
C319 C325 1.363 . S
C320 C321 1.363 . S
C320 C325 1.379 . S
C320 N327 1.356 . S
C321 C320 1.363 . S
C321 C324 1.363 . S
N322 C324 1.356 . S
N322 H334 0.984 . S
N322 H335 0.985 . S
N323 C325 1.356 . S
N323 H328 0.984 . S
N323 H329 0.985 . S
C324 C318 1.379 . S
C324 C321 1.363 . S
C324 N322 1.356 . S
C325 C319 1.363 . S
C325 C320 1.379 . S
C325 N323 1.356 . S
N326 C318 1.356 . S
N326 H332 0.984 . S
N326 H333 0.984 . S
N327 C320 1.356 . S
N327 H330 0.984 . S
N327 H331 0.985 . S
H328 N323 0.984 . S
H329 N323 0.985 . S
H330 N327 0.984 . S
H331 N327 0.985 . S
H332 N326 0.984 . S
H333 N326 0.984 . S
H334 N322 0.984 . S
H335 N322 0.985 . S
C336 C337 1.363 . S
C336 C342 1.379 . S
C336 N344 1.356 . S
C337 C336 1.363 . S
C337 C343 1.363 . S
C338 C339 1.363 . S
C338 C343 1.379 . S
C338 N345 1.356 . S
C339 C338 1.363 . S
C339 C342 1.363 . S
N340 C342 1.356 1_556 S
N340 H352 0.984 . S
N340 H353 0.985 . S
N341 C343 1.356 . S
N341 H346 0.984 . S
N341 H347 0.985 . S
C342 C336 1.379 . S
C342 C339 1.363 . S
C342 N340 1.356 1_554 S
C343 C337 1.363 . S
C343 C338 1.379 . S
C343 N341 1.356 . S
N344 C336 1.356 . S
N344 H350 0.984 1_554 S
N344 H351 0.984 . S
N345 C338 1.356 . S
N345 H348 0.984 . S
N345 H349 0.985 . S
H346 N341 0.984 . S
H347 N341 0.985 . S
H348 N345 0.984 . S
H349 N345 0.985 . S
H350 N344 0.984 1_556 S
H351 N344 0.984 . S
H352 N340 0.984 . S
H353 N340 0.985 . S
C354 C355 1.363 . S
C354 C360 1.379 . S
C354 N362 1.356 . S
C355 C354 1.363 . S
C355 C361 1.363 . S
C356 C357 1.363 . S
C356 C361 1.379 . S
C356 N363 1.356 . S
C357 C356 1.363 . S
C357 C360 1.363 . S
N358 C360 1.356 . S
N358 H370 0.984 . S
N358 H371 0.985 . S
N359 C361 1.356 . S
N359 H364 0.984 . S
N359 H365 0.985 . S
C360 C354 1.379 . S
C360 C357 1.363 . S
C360 N358 1.356 . S
C361 C355 1.363 . S
C361 C356 1.379 . S
C361 N359 1.356 . S
N362 C354 1.356 . S
N362 H368 0.984 . S
N362 H369 0.984 . S
N363 C356 1.356 . S
N363 H366 0.984 . S
N363 H367 0.985 . S
H364 N359 0.984 . S
H365 N359 0.985 . S
H366 N363 0.984 . S
H367 N363 0.985 . S
H368 N362 0.984 . S
H369 N362 0.984 . S
H370 N358 0.984 . S
H371 N358 0.985 . S
C372 C373 1.363 . S
C372 C378 1.379 . S
C372 N380 1.356 . S
C373 C372 1.363 . S
C373 C379 1.363 . S
C374 C375 1.363 . S
C374 C379 1.379 . S
C374 N381 1.356 . S
C375 C374 1.363 . S
C375 C378 1.363 . S
N376 C378 1.356 . S
N376 H388 0.984 . S
N376 H389 0.985 . S
N377 C379 1.356 . S
N377 H382 0.984 . S
N377 H383 0.985 . S
C378 C372 1.379 . S
C378 C375 1.363 . S
C378 N376 1.356 . S
C379 C373 1.363 . S
C379 C374 1.379 . S
C379 N377 1.356 . S
N380 C372 1.356 . S
N380 H386 0.984 . S
N380 H387 0.984 . S
N381 C374 1.356 . S
N381 H384 0.984 . S
N381 H385 0.985 . S
H382 N377 0.984 . S
H383 N377 0.985 . S
H384 N381 0.984 . S
H385 N381 0.985 . S
H386 N380 0.984 . S
H387 N380 0.984 . S
H388 N376 0.984 . S
H389 N376 0.985 . S
C390 C391 1.363 . S
C390 C396 1.379 . S
C390 N398 1.356 . S
C391 C390 1.363 . S
C391 C397 1.363 . S
C392 C393 1.363 . S
C392 C397 1.379 . S
C392 N399 1.356 . S
C393 C392 1.363 . S
C393 C396 1.363 . S
N394 C396 1.356 . S
N394 H406 0.984 . S
N394 H407 0.985 . S
N395 C397 1.356 . S
N395 H400 0.984 . S
N395 H401 0.985 . S
C396 C390 1.379 . S
C396 C393 1.363 . S
C396 N394 1.356 . S
C397 C391 1.363 . S
C397 C392 1.379 . S
C397 N395 1.356 . S
N398 C390 1.356 . S
N398 H404 0.984 . S
N398 H405 0.984 . S
N399 C392 1.356 . S
N399 H402 0.984 . S
N399 H403 0.985 . S
H400 N395 0.984 . S
H401 N395 0.985 . S
H402 N399 0.984 . S
H403 N399 0.985 . S
H404 N398 0.984 . S
H405 N398 0.984 . S
H406 N394 0.984 . S
H407 N394 0.985 . S
C408 C409 1.363 . S
C408 C414 1.379 . S
C408 N416 1.356 . S
C409 C408 1.363 . S
C409 C415 1.363 . S
C410 C411 1.363 . S
C410 C415 1.379 . S
C410 N417 1.356 1_554 S
C411 C410 1.363 . S
C411 C414 1.363 . S
N412 C414 1.356 . S
N412 H424 0.984 . S
N412 H425 0.985 . S
N413 C415 1.356 1_556 S
N413 H418 0.984 1_556 S
N413 H419 0.985 . S
C414 C408 1.379 . S
C414 C411 1.363 . S
C414 N412 1.356 . S
C415 C409 1.363 . S
C415 C410 1.379 . S
C415 N413 1.356 1_554 S
N416 C408 1.356 . S
N416 H422 0.984 . S
N416 H423 0.984 . S
N417 C410 1.356 1_556 S
N417 H420 0.984 . S
N417 H421 0.985 . S
H418 N413 0.984 1_554 S
H419 N413 0.985 . S
H420 N417 0.984 . S
H421 N417 0.985 . S
H422 N416 0.984 . S
H423 N416 0.984 . S
H424 N412 0.984 . S
H425 N412 0.985 . S
C426 C427 1.363 . S
C426 C432 1.379 . S
C426 N434 1.356 . S
C427 C426 1.363 . S
C427 C433 1.363 . S
C428 C429 1.363 . S
C428 C433 1.379 . S
C428 N435 1.356 . S
C429 C428 1.363 . S
C429 C432 1.363 . S
N430 C432 1.356 . S
N430 H442 0.984 1_556 S
N430 H443 0.985 . S
N431 C433 1.356 . S
N431 H436 0.984 . S
N431 H437 0.985 . S
C432 C426 1.379 . S
C432 C429 1.363 . S
C432 N430 1.356 . S
C433 C427 1.363 . S
C433 C428 1.379 . S
C433 N431 1.356 . S
N434 C426 1.356 . S
N434 H440 0.984 . S
N434 H441 0.984 . S
N435 C428 1.356 . S
N435 H438 0.984 . S
N435 H439 0.985 . S
H436 N431 0.984 . S
H437 N431 0.985 . S
H438 N435 0.984 . S
H439 N435 0.985 . S
H440 N434 0.984 . S
H441 N434 0.984 . S
H442 N430 0.984 1_554 S
H443 N430 0.985 . S
C444 C445 1.363 . S
C444 C450 1.379 . S
C444 N452 1.356 . S
C445 C444 1.363 . S
C445 C451 1.363 . S
C446 C447 1.363 . S
C446 C451 1.379 . S
C446 N453 1.356 . S
C447 C446 1.363 . S
C447 C450 1.363 . S
N448 C450 1.356 1_455 S
N448 H460 0.984 . S
N448 H461 0.985 . S
N449 C451 1.356 . S
N449 H454 0.984 . S
N449 H455 0.985 . S
C450 C444 1.379 . S
C450 C447 1.363 . S
C450 N448 1.356 1_655 S
C451 C445 1.363 . S
C451 C446 1.379 . S
C451 N449 1.356 . S
N452 C444 1.356 . S
N452 H458 0.984 . S
N452 H459 0.984 . S
N453 C446 1.356 . S
N453 H456 0.984 1_655 S
N453 H457 0.985 . S
H454 N449 0.984 . S
H455 N449 0.985 . S
H456 N453 0.984 1_455 S
H457 N453 0.985 . S
H458 N452 0.984 . S
H459 N452 0.984 . S
H460 N448 0.984 . S
H461 N448 0.985 . S
C462 C463 1.363 . S
C462 C468 1.379 . S
C462 N470 1.356 . S
C463 C462 1.363 . S
C463 C469 1.363 . S
C464 C465 1.363 . S
C464 C469 1.379 . S
C464 N471 1.356 . S
C465 C464 1.363 . S
C465 C468 1.363 . S
N466 C468 1.356 . S
N466 H478 0.984 . S
N466 H479 0.985 . S
N467 C469 1.356 . S
N467 H472 0.984 . S
N467 H473 0.985 . S
C468 C462 1.379 . S
C468 C465 1.363 . S
C468 N466 1.356 . S
C469 C463 1.363 . S
C469 C464 1.379 . S
C469 N467 1.356 . S
N470 C462 1.356 . S
N470 H476 0.984 . S
N470 H477 0.984 . S
N471 C464 1.356 . S
N471 H474 0.984 . S
N471 H475 0.985 . S
H472 N467 0.984 . S
H473 N467 0.985 . S
H474 N471 0.984 . S
H475 N471 0.985 . S
H476 N470 0.984 . S
H477 N470 0.984 . S
H478 N466 0.984 . S
H479 N466 0.985 . S
C480 C481 1.363 . S
C480 C486 1.379 . S
C480 N488 1.356 . S
C481 C480 1.363 . S
C481 C487 1.363 . S
C482 C483 1.363 . S
C482 C487 1.379 . S
C482 N489 1.356 1_655 S
C483 C482 1.363 . S
C483 C486 1.363 . S
N484 C486 1.356 . S
N484 H496 0.984 1_565 S
N484 H497 0.985 . S
N485 C487 1.356 . S
N485 H490 0.984 . S
N485 H491 0.985 . S
C486 C480 1.379 . S
C486 C483 1.363 . S
C486 N484 1.356 . S
C487 C481 1.363 . S
C487 C482 1.379 . S
C487 N485 1.356 . S
N488 C480 1.356 . S
N488 H494 0.984 . S
N488 H495 0.984 . S
N489 C482 1.356 1_455 S
N489 H492 0.984 . S
N489 H493 0.985 . S
H490 N485 0.984 . S
H491 N485 0.985 . S
H492 N489 0.984 . S
H493 N489 0.985 . S
H494 N488 0.984 . S
H495 N488 0.984 . S
H496 N484 0.984 1_545 S
H497 N484 0.985 . S
C498 C499 1.363 . S
C498 C504 1.379 . S
C498 N506 1.356 . S
C499 C498 1.363 . S
C499 C505 1.363 . S
C500 C501 1.363 . S
C500 C505 1.379 . S
C500 N507 1.356 . S
C501 C500 1.363 . S
C501 C504 1.363 . S
N502 C504 1.356 . S
N502 H514 0.984 . S
N502 H515 0.985 . S
N503 C505 1.356 . S
N503 H508 0.984 . S
N503 H509 0.985 . S
C504 C498 1.379 . S
C504 C501 1.363 . S
C504 N502 1.356 . S
C505 C499 1.363 . S
C505 C500 1.379 . S
C505 N503 1.356 . S
N506 C498 1.356 . S
N506 H512 0.984 . S
N506 H513 0.984 . S
N507 C500 1.356 . S
N507 H510 0.984 . S
N507 H511 0.985 . S
H508 N503 0.984 . S
H509 N503 0.985 . S
H510 N507 0.984 . S
H511 N507 0.985 . S
H512 N506 0.984 . S
H513 N506 0.984 . S
H514 N502 0.984 . S
H515 N502 0.985 . S
C516 C517 1.363 . S
C516 C522 1.379 . S
C516 N524 1.356 . S
C517 C516 1.363 . S
C517 C523 1.363 . S
C518 C519 1.363 . S
C518 C523 1.379 . S
C518 N525 1.356 . S
C519 C518 1.363 . S
C519 C522 1.363 . S
N520 C522 1.356 . S
N520 H532 0.984 . S
N520 H533 0.985 . S
N521 C523 1.356 . S
N521 H526 0.984 . S
N521 H527 0.985 . S
C522 C516 1.379 . S
C522 C519 1.363 . S
C522 N520 1.356 . S
C523 C517 1.363 . S
C523 C518 1.379 . S
C523 N521 1.356 . S
N524 C516 1.356 . S
N524 H530 0.984 . S
N524 H531 0.984 . S
N525 C518 1.356 . S
N525 H528 0.984 . S
N525 H529 0.985 . S
H526 N521 0.984 . S
H527 N521 0.985 . S
H528 N525 0.984 . S
H529 N525 0.985 . S
H530 N524 0.984 . S
H531 N524 0.984 . S
H532 N520 0.984 . S
H533 N520 0.985 . S
C534 C535 1.363 . S
C534 C540 1.379 . S
C534 N542 1.356 . S
C535 C534 1.363 . S
C535 C541 1.363 . S
C536 C537 1.363 . S
C536 C541 1.379 . S
C536 N543 1.356 . S
C537 C536 1.363 . S
C537 C540 1.363 . S
N538 C540 1.356 . S
N538 H550 0.984 . S
N538 H551 0.985 . S
N539 C541 1.356 . S
N539 H544 0.984 . S
N539 H545 0.985 . S
C540 C534 1.379 . S
C540 C537 1.363 . S
C540 N538 1.356 . S
C541 C535 1.363 . S
C541 C536 1.379 . S
C541 N539 1.356 . S
N542 C534 1.356 . S
N542 H548 0.984 . S
N542 H549 0.984 . S
N543 C536 1.356 . S
N543 H546 0.984 . S
N543 H547 0.985 . S
H544 N539 0.984 . S
H545 N539 0.985 . S
H546 N543 0.984 . S
H547 N543 0.985 . S
H548 N542 0.984 . S
H549 N542 0.984 . S
H550 N538 0.984 . S
H551 N538 0.985 . S
C552 C553 1.363 . S
C552 C558 1.379 1_556 S
C552 N560 1.356 1_556 S
C553 C552 1.363 . S
C553 C559 1.363 . S
C554 C555 1.363 . S
C554 C559 1.379 . S
C554 N561 1.356 . S
C555 C554 1.363 . S
C555 C558 1.363 1_556 S
N556 C558 1.356 . S
N556 H568 0.984 . S
N556 H569 0.985 . S
N557 C559 1.356 . S
N557 H562 0.984 . S
N557 H563 0.985 . S
C558 C552 1.379 1_554 S
C558 C555 1.363 1_554 S
C558 N556 1.356 . S
C559 C553 1.363 . S
C559 C554 1.379 . S
C559 N557 1.356 . S
N560 C552 1.356 1_554 S
N560 H566 0.984 . S
N560 H567 0.984 1_554 S
N561 C554 1.356 . S
N561 H564 0.984 . S
N561 H565 0.985 . S
H562 N557 0.984 . S
H563 N557 0.985 . S
H564 N561 0.984 . S
H565 N561 0.985 . S
H566 N560 0.984 . S
H567 N560 0.984 1_556 S
H568 N556 0.984 . S
H569 N556 0.985 . S
C570 C571 1.363 . S
C570 C576 1.379 . S
C570 N578 1.356 . S
C571 C570 1.363 . S
C571 C577 1.363 . S
C572 C573 1.363 . S
C572 C577 1.379 . S
C572 N579 1.356 . S
C573 C572 1.363 . S
C573 C576 1.363 . S
N574 C576 1.356 . S
N574 H586 0.984 . S
N574 H587 0.985 . S
N575 C577 1.356 . S
N575 H580 0.984 . S
N575 H581 0.985 . S
C576 C570 1.379 . S
C576 C573 1.363 . S
C576 N574 1.356 . S
C577 C571 1.363 . S
C577 C572 1.379 . S
C577 N575 1.356 . S
N578 C570 1.356 . S
N578 H584 0.984 . S
N578 H585 0.984 . S
N579 C572 1.356 . S
N579 H582 0.984 . S
N579 H583 0.985 . S
H580 N575 0.984 . S
H581 N575 0.985 . S
H582 N579 0.984 . S
H583 N579 0.985 . S
H584 N578 0.984 . S
H585 N578 0.984 . S
H586 N574 0.984 . S
H587 N574 0.985 . S
C588 C589 1.363 . S
C588 C594 1.379 . S
C588 N596 1.356 . S
C589 C588 1.363 . S
C589 C595 1.363 . S
C590 C591 1.363 . S
C590 C595 1.379 . S
C590 N597 1.356 . S
C591 C590 1.363 . S
C591 C594 1.363 . S
N592 C594 1.356 . S
N592 H604 0.984 1_554 S
N592 H605 0.984 . S
N593 C595 1.356 . S
N593 H598 0.984 . S
N593 H599 0.985 . S
C594 C588 1.379 . S
C594 C591 1.363 . S
C594 N592 1.356 . S
C595 C589 1.363 . S
C595 C590 1.379 . S
C595 N593 1.356 . S
N596 C588 1.356 . S
N596 H602 0.984 . S
N596 H603 0.984 . S
N597 C590 1.356 . S
N597 H600 0.984 . S
N597 H601 0.985 . S
H598 N593 0.984 . S
H599 N593 0.985 . S
H600 N597 0.984 . S
H601 N597 0.985 . S
H602 N596 0.984 . S
H603 N596 0.984 . S
H604 N592 0.984 1_556 S
H605 N592 0.984 . S
C606 C607 1.363 . S
C606 C612 1.379 . S
C606 N614 1.356 . S
C607 C606 1.363 . S
C607 C613 1.363 . S
C608 C609 1.363 . S
C608 C613 1.379 . S
C608 N615 1.356 . S
C609 C608 1.363 . S
C609 C612 1.363 . S
N610 C612 1.356 . S
N610 H622 0.984 . S
N610 H623 0.985 . S
N611 C613 1.356 . S
N611 H616 0.984 . S
N611 H617 0.985 . S
C612 C606 1.379 . S
C612 C609 1.363 . S
C612 N610 1.356 . S
C613 C607 1.363 . S
C613 C608 1.379 . S
C613 N611 1.356 . S
N614 C606 1.356 . S
N614 H620 0.984 . S
N614 H621 0.984 . S
N615 C608 1.356 . S
N615 H618 0.984 . S
N615 H619 0.985 . S
H616 N611 0.984 . S
H617 N611 0.985 . S
H618 N615 0.984 . S
H619 N615 0.985 . S
H620 N614 0.984 . S
H621 N614 0.984 . S
H622 N610 0.984 . S
H623 N610 0.985 . S
C624 C625 1.363 . S
C624 C630 1.379 . S
C624 N632 1.356 . S
C625 C624 1.363 . S
C625 C631 1.363 . S
C626 C627 1.363 . S
C626 C631 1.379 . S
C626 N633 1.356 1_656 S
C627 C626 1.363 . S
C627 C630 1.363 . S
N628 C630 1.356 . S
N628 H640 0.984 . S
N628 H641 0.985 . S
N629 C631 1.356 . S
N629 H634 0.984 . S
N629 H635 0.985 1_556 S
C630 C624 1.379 . S
C630 C627 1.363 . S
C630 N628 1.356 . S
C631 C625 1.363 . S
C631 C626 1.379 . S
C631 N629 1.356 . S
N632 C624 1.356 . S
N632 H638 0.984 . S
N632 H639 0.984 . S
N633 C626 1.356 1_454 S
N633 H636 0.984 . S
N633 H637 0.985 . S
H634 N629 0.984 . S
H635 N629 0.985 1_554 S
H636 N633 0.984 . S
H637 N633 0.985 . S
H638 N632 0.984 . S
H639 N632 0.984 . S
H640 N628 0.984 . S
H641 N628 0.985 . S
C642 C643 1.363 . S
C642 C648 1.379 . S
C642 N650 1.356 . S
C643 C642 1.363 . S
C643 C649 1.363 . S
C644 C645 1.363 . S
C644 C649 1.379 . S
C644 N651 1.356 . S
C645 C644 1.363 . S
C645 C648 1.363 . S
N646 C648 1.356 . S
N646 H658 0.984 . S
N646 H659 0.985 . S
N647 C649 1.356 . S
N647 H652 0.984 . S
N647 H653 0.985 . S
C648 C642 1.379 . S
C648 C645 1.363 . S
C648 N646 1.356 . S
C649 C643 1.363 . S
C649 C644 1.379 . S
C649 N647 1.356 . S
N650 C642 1.356 . S
N650 H656 0.984 . S
N650 H657 0.984 . S
N651 C644 1.356 . S
N651 H654 0.984 . S
N651 H655 0.985 . S
H652 N647 0.984 . S
H653 N647 0.985 . S
H654 N651 0.984 . S
H655 N651 0.985 . S
H656 N650 0.984 . S
H657 N650 0.984 . S
H658 N646 0.984 . S
H659 N646 0.985 . S
C660 C661 1.363 . S
C660 C666 1.379 . S
C660 N668 1.356 . S
C661 C660 1.363 . S
C661 C667 1.363 . S
C662 C663 1.363 . S
C662 C667 1.379 . S
C662 N669 1.356 . S
C663 C662 1.363 . S
C663 C666 1.363 . S
N664 C666 1.356 . S
N664 H676 0.984 . S
N664 H677 0.985 . S
N665 C667 1.356 . S
N665 H670 0.984 . S
N665 H671 0.985 . S
C666 C660 1.379 . S
C666 C663 1.363 . S
C666 N664 1.356 . S
C667 C661 1.363 . S
C667 C662 1.379 . S
C667 N665 1.356 . S
N668 C660 1.356 . S
N668 H674 0.984 . S
N668 H675 0.984 . S
N669 C662 1.356 . S
N669 H672 0.984 . S
N669 H673 0.985 . S
H670 N665 0.984 . S
H671 N665 0.985 . S
H672 N669 0.984 . S
H673 N669 0.985 . S
H674 N668 0.984 . S
H675 N668 0.984 . S
H676 N664 0.984 . S
H677 N664 0.985 . S
C678 C679 1.363 . S
C678 C684 1.379 . S
C678 N686 1.356 . S
C679 C678 1.363 . S
C679 C685 1.363 . S
C680 C681 1.363 . S
C680 C685 1.379 . S
C680 N687 1.356 . S
C681 C680 1.363 . S
C681 C684 1.363 . S
N682 C684 1.356 . S
N682 H694 0.984 . S
N682 H695 0.985 . S
N683 C685 1.356 . S
N683 H688 0.984 . S
N683 H689 0.985 . S
C684 C678 1.379 . S
C684 C681 1.363 . S
C684 N682 1.356 . S
C685 C679 1.363 . S
C685 C680 1.379 . S
C685 N683 1.356 . S
N686 C678 1.356 . S
N686 H692 0.984 . S
N686 H693 0.984 . S
N687 C680 1.356 . S
N687 H690 0.984 . S
N687 H691 0.985 . S
H688 N683 0.984 . S
H689 N683 0.985 . S
H690 N687 0.984 . S
H691 N687 0.985 . S
H692 N686 0.984 . S
H693 N686 0.984 . S
H694 N682 0.984 . S
H695 N682 0.985 . S
C265 N1 2.741 . S
C267 C123 2.793 . S
C283 N18 2.301 . S
C285 C154 2.372 . S
C303 C193 1.054 . S
C301 N28 1.066 . S
C319 N40 0.841 . S
C321 C230 0.879 . S
C339 C153 3.044 . S
C337 N5 3.113 . S
C357 C110 1.284 . S
C355 N14 1.291 . S
C375 C242 1.511 . S
C373 N31 1.596 . S
C393 C199 0.996 . S
C391 N41 0.985 . S
C409 N2 2.265 . S
C411 C243 2.283 . S
C429 C159 1.426 . S
C427 N27 1.397 . S
C445 N44 0.632 . S
C447 C122 0.689 . S
C463 N15 2.016 . S
C465 C194 2.041 . S
C483 C114 3.158 1_655 S
C481 N57 3.187 . S
C499 N70 1.929 . S
C501 C163 2.011 . S
C517 N79 1.318 . S
C519 C202 1.283 . S
C535 N93 0.619 . S
C537 C239 0.610 . S
C553 N54 2.861 . S
C555 C162 2.711 1_556 S
C573 C119 1.589 . S
C571 N66 1.673 . S
C591 C233 1.055 . S
C589 N80 1.074 . S
C609 C190 1.268 . S
C607 N96 1.180 . S
C625 N53 2.297 . S
C627 C234 2.322 . S
C645 C150 1.507 . S
C643 N83 1.578 . S
C663 C113 0.530 . S
C661 N92 0.496 . S
C679 N67 2.063 . S
C681 C203 2.098 . S
