# Generated by pormake.
# Topology sqc, (4,8)-cn, num edge types: 1
# Building blocks:
#     Node 0, Type 0, BuildingBlock: GIZVER_clean_linker_0, # of connection points: 4
#     Node 1, Type 0, BuildingBlock: GIZVER_clean_linker_0, # of connection points: 4
#     Node 2, Type 0, BuildingBlock: GIZVER_clean_linker_0, # of connection points: 4
#     Node 3, Type 0, BuildingBlock: GIZVER_clean_linker_0, # of connection points: 4
#     Node 4, Type 0, BuildingBlock: GIZVER_clean_linker_0, # of connection points: 4
#     Node 5, Type 0, BuildingBlock: GIZVER_clean_linker_0, # of connection points: 4
#     Node 6, Type 0, BuildingBlock: GIZVER_clean_linker_0, # of connection points: 4
#     Node 7, Type 0, BuildingBlock: GIZVER_clean_linker_0, # of connection points: 4
#     Node 8, Type 1, BuildingBlock: TAGTUT_clean_sbu_3, # of connection points: 8
#     Node 9, Type 1, BuildingBlock: TAGTUT_clean_sbu_3, # of connection points: 8
#     Node 10, Type 1, BuildingBlock: TAGTUT_clean_sbu_3, # of connection points: 8
#     Node 11, Type 1, BuildingBlock: TAGTUT_clean_sbu_3, # of connection points: 8
#     Edge 12, Type (0, 1), BuildingBlock: CIFDUS_clean_linker_0, # of connection points: 2
#     Edge 13, Type (0, 1), BuildingBlock: CIFDUS_clean_linker_0, # of connection points: 2
#     Edge 14, Type (0, 1), BuildingBlock: CIFDUS_clean_linker_0, # of connection points: 2
#     Edge 15, Type (0, 1), BuildingBlock: CIFDUS_clean_linker_0, # of connection points: 2
#     Edge 16, Type (0, 1), BuildingBlock: CIFDUS_clean_linker_0, # of connection points: 2
#     Edge 17, Type (0, 1), BuildingBlock: CIFDUS_clean_linker_0, # of connection points: 2
#     Edge 18, Type (0, 1), BuildingBlock: CIFDUS_clean_linker_0, # of connection points: 2
#     Edge 19, Type (0, 1), BuildingBlock: CIFDUS_clean_linker_0, # of connection points: 2
#     Edge 20, Type (0, 1), BuildingBlock: CIFDUS_clean_linker_0, # of connection points: 2
#     Edge 21, Type (0, 1), BuildingBlock: CIFDUS_clean_linker_0, # of connection points: 2
#     Edge 22, Type (0, 1), BuildingBlock: CIFDUS_clean_linker_0, # of connection points: 2
#     Edge 23, Type (0, 1), BuildingBlock: CIFDUS_clean_linker_0, # of connection points: 2
#     Edge 24, Type (0, 1), BuildingBlock: CIFDUS_clean_linker_0, # of connection points: 2
#     Edge 25, Type (0, 1), BuildingBlock: CIFDUS_clean_linker_0, # of connection points: 2
#     Edge 26, Type (0, 1), BuildingBlock: CIFDUS_clean_linker_0, # of connection points: 2
#     Edge 27, Type (0, 1), BuildingBlock: CIFDUS_clean_linker_0, # of connection points: 2
#     Edge 28, Type (0, 1), BuildingBlock: CIFDUS_clean_linker_0, # of connection points: 2
#     Edge 29, Type (0, 1), BuildingBlock: CIFDUS_clean_linker_0, # of connection points: 2
#     Edge 30, Type (0, 1), BuildingBlock: CIFDUS_clean_linker_0, # of connection points: 2
#     Edge 31, Type (0, 1), BuildingBlock: CIFDUS_clean_linker_0, # of connection points: 2
#     Edge 32, Type (0, 1), BuildingBlock: CIFDUS_clean_linker_0, # of connection points: 2
#     Edge 33, Type (0, 1), BuildingBlock: CIFDUS_clean_linker_0, # of connection points: 2
#     Edge 34, Type (0, 1), BuildingBlock: CIFDUS_clean_linker_0, # of connection points: 2
#     Edge 35, Type (0, 1), BuildingBlock: CIFDUS_clean_linker_0, # of connection points: 2
#     Edge 36, Type (0, 1), BuildingBlock: CIFDUS_clean_linker_0, # of connection points: 2
#     Edge 37, Type (0, 1), BuildingBlock: CIFDUS_clean_linker_0, # of connection points: 2
#     Edge 38, Type (0, 1), BuildingBlock: CIFDUS_clean_linker_0, # of connection points: 2
#     Edge 39, Type (0, 1), BuildingBlock: CIFDUS_clean_linker_0, # of connection points: 2
#     Edge 40, Type (0, 1), BuildingBlock: CIFDUS_clean_linker_0, # of connection points: 2
#     Edge 41, Type (0, 1), BuildingBlock: CIFDUS_clean_linker_0, # of connection points: 2
#     Edge 42, Type (0, 1), BuildingBlock: CIFDUS_clean_linker_0, # of connection points: 2
#     Edge 43, Type (0, 1), BuildingBlock: CIFDUS_clean_linker_0, # of connection points: 2
# Relax obj value: 0.178
# Max RMSD: 0.271
# Mean RMSD: 0.223
data_MOF--net-sqc--node1-TAGTUT_clean_sbu_3--node2-GIZVER_clean_linker_0--edge1-CIFDUS_clean_linker_0
_symmetry_space_group_name_H-M    P1
_symmetry_Int_Tables_number       1
_symmetry_cell_setting            triclinic
loop_
_symmetry_equiv_pos_as_xyz
'x, y, z'
_cell_length_a     21.640087
_cell_length_b     21.776362
_cell_length_c     64.503586
_cell_angle_alpha  89.831537
_cell_angle_beta   89.895274
_cell_angle_gamma 89.862273
loop_
_atom_site_label
_atom_site_type_symbol
_atom_site_fract_x
_atom_site_fract_y
_atom_site_fract_z
_atom_type_partial_charge
H0 H 1.00515 0.00982 0.4311 0.0
H1 H 1.0085 0.12309 0.48547 0.0
H2 H 0.85499 1.00169 0.47462 0.0
H3 H 0.0788 0.09128 0.4333 0.0
H4 H 0.07255 0.14676 0.45346 0.0
H5 H 0.14022 0.99558 0.43853 0.0
H6 H 0.27658 1.00172 0.48699 0.0
H7 H 0.13668 0.1408 0.48367 0.0
C8 C 0.98424 0.02426 0.44558 0.0
C9 C 0.92613 1.0013 0.45137 0.0
C10 C 0.01441 0.06783 0.45789 0.0
C11 C 0.98605 0.08804 0.4763 0.0
C12 C 0.92793 0.06495 0.48238 0.0
C13 C 0.89889 0.02109 0.46988 0.0
C14 C 0.07388 0.09651 0.45039 0.0
C15 C 0.12959 0.06847 0.46089 0.0
C16 C 0.15857 0.01582 0.45254 0.0
C17 C 0.21337 0.99243 0.46142 0.0
C18 C 0.23616 0.02052 0.47934 0.0
C19 C 0.21104 0.07552 0.48672 0.0
C20 C 0.15639 0.09825 0.47798 0.0
H21 H 0.53427 0.76095 0.71315 0.0
H22 H 0.45192 0.79639 0.77273 0.0
H23 H 0.41134 0.9147 0.72121 0.0
H24 H 0.58148 0.72354 0.74745 0.0
H25 H 0.53575 0.7253 0.7704 0.0
H26 H 0.56207 0.64852 0.71998 0.0
H27 H 0.44889 0.49423 0.73602 0.0
H28 H 0.44639 0.6551 0.77438 0.0
C29 C 0.50292 0.78735 0.72277 0.0
C30 C 0.47164 0.83827 0.71435 0.0
C31 C 0.49535 0.77152 0.74379 0.0
C32 C 0.4565 0.80737 0.75639 0.0
C33 C 0.42565 0.85889 0.74826 0.0
C34 C 0.4327 0.87323 0.72721 0.0
C35 C 0.53329 0.72044 0.75325 0.0
C36 C 0.50751 0.65818 0.74794 0.0
C37 C 0.52844 0.62709 0.73014 0.0
C38 C 0.50721 0.56776 0.72581 0.0
C39 C 0.46453 0.54027 0.7393 0.0
C40 C 0.44164 0.57065 0.75681 0.0
C41 C 0.46333 0.63027 0.76099 0.0
H42 H 0.7154 0.02029 0.00942 0.0
H43 H 0.75667 0.13021 0.95562 0.0
H44 H 0.87224 0.97634 0.97196 0.0
H45 H 0.67505 0.13479 0.00236 0.0
H46 H 0.66832 0.15616 -0.02428 0.0
H47 H 0.61465 0.0483 0.01701 0.0
H48 H 0.46539 0.97695 -0.01882 0.0
H49 H 0.59015 0.10946 0.95415 0.0
C50 C 0.74196 0.02804 -0.00456 0.0
C51 C 0.7943 0.9918 -0.00823 0.0
C52 C 0.72603 0.07607 -0.0182 0.0
C53 C 0.76591 0.09021 0.96516 0.0
C54 C 0.81997 0.05544 0.96186 0.0
C55 C 0.83107 1.00387 0.97443 0.0
C56 C 0.67047 0.11604 -0.01358 0.0
C57 C 0.61141 0.07941 -0.01489 0.0
C58 C 0.5906 0.04545 0.00232 0.0
C59 C 0.53835 0.00819 0.00073 0.0
C60 C 0.50572 1.00619 -0.01794 0.0
C61 C 0.52146 0.04499 0.96538 0.0
C62 C 0.57616 0.07975 0.96679 0.0
H63 H 0.21062 0.23141 0.22024 0.0
H64 H 0.2979 0.24838 0.27988 0.0
H65 H 0.28674 0.07227 0.25082 0.0
H66 H 0.18222 0.315 0.24444 0.0
H67 H 0.22205 0.32445 0.26831 0.0
H68 H 0.21031 0.37867 0.21679 0.0
H69 H 0.35916 0.50651 0.22541 0.0
H70 H 0.33996 0.35096 0.26611 0.0
C71 C 0.2351 0.21044 0.23308 0.0
C72 C 0.24783 0.14698 0.233 0.0
C73 C 0.2524 0.24714 0.25004 0.0
C74 C 0.28508 0.22068 0.26664 0.0
C75 C 0.29759 0.15765 0.26677 0.0
C76 C 0.27845 0.12132 0.25012 0.0
C77 C 0.22872 0.31201 0.25173 0.0
C78 C 0.27172 0.35849 0.24203 0.0
C79 C 0.25226 0.39224 0.22469 0.0
C80 C 0.28317 0.44615 0.21859 0.0
C81 C 0.33712 0.46324 0.22917 0.0
C82 C 0.3584 0.42892 0.24625 0.0
C83 C 0.32585 0.37597 0.25236 0.0
H84 H 0.70282 0.26472 0.23246 0.0
H85 H 0.78821 0.24178 0.17259 0.0
H86 H 0.76542 0.42215 0.19789 0.0
H87 H 0.68276 0.17245 0.21182 0.0
H88 H 0.71864 0.16182 0.18719 0.0
H89 H 0.72519 0.1196 0.2406 0.0
H90 H 0.88867 0.01108 0.23165 0.0
H91 H 0.83799 0.14883 0.18668 0.0
C92 C 0.72421 0.28468 0.21882 0.0
C93 C 0.73251 0.34857 0.21742 0.0
C94 C 0.74327 0.24597 0.2026 0.0
C95 C 0.77318 0.27122 0.18515 0.0
C96 C 0.78146 0.33484 0.18357 0.0
C97 C 0.75998 0.37292 0.19949 0.0
C98 C 0.7269 0.17881 0.20321 0.0
C99 C 0.77723 0.14011 0.21289 0.0
C100 C 0.76701 0.11012 0.23188 0.0
C101 C 0.80772 0.06409 0.2388 0.0
C102 C 0.85957 0.04907 0.22681 0.0
C103 C 0.87107 0.07929 0.20792 0.0
C104 C 0.83064 0.12629 0.20147 0.0
H105 H 0.66522 0.75057 0.71833 0.0
H106 H 0.76715 0.77072 0.77516 0.0
H107 H 0.78166 0.60388 0.74066 0.0
H108 H 0.64657 0.83839 0.73934 0.0
H109 H 0.67313 0.83807 0.76554 0.0
H110 H 0.70444 0.89291 0.7125 0.0
H111 H 0.85039 0.0132 0.73185 0.0
H112 H 0.77603 0.88031 0.77451 0.0
C113 C 0.6977 0.73217 0.7295 0.0
C114 C 0.72036 0.67182 0.72734 0.0
C115 C 0.71511 0.76857 0.74652 0.0
C116 C 0.75521 0.74413 0.76159 0.0
C117 C 0.77816 0.68442 0.7595 0.0
C118 C 0.76162 0.64926 0.74229 0.0
C119 C 0.68834 0.83206 0.74918 0.0
C120 C 0.7357 0.88056 0.74398 0.0
C121 C 0.73718 0.90759 0.72417 0.0
C122 C 0.77838 0.9558 0.71979 0.0
C123 C 0.81962 0.97516 0.73513 0.0
C124 C 0.81951 0.94797 0.75487 0.0
C125 C 0.77742 0.90059 0.75917 0.0
H126 H 0.49314 0.48107 0.0161 0.0
H127 H 0.4993 0.41088 0.95408 0.0
H128 H 0.3406 0.51217 0.97451 0.0
H129 H 0.55918 0.39517 0.008 0.0
H130 H 0.55542 0.36002 -0.01678 0.0
H131 H 0.61359 0.50414 0.00945 0.0
H132 H 0.79201 0.48128 -0.01849 0.0
H133 H 0.63969 0.37315 0.9603 0.0
C134 C 0.47182 0.47684 0.00101 0.0
C135 C 0.41242 0.50145 -0.00259 0.0
C136 C 0.50316 0.44376 -0.0145 0.0
C137 C 0.47617 0.43815 0.9658 0.0
C138 C 0.4175 0.46338 0.96176 0.0
C139 C 0.38647 0.49479 -0.0224 0.0
C140 C 0.55904 0.4053 -0.00892 0.0
C141 C 0.62008 0.43503 -0.01438 0.0
C142 C 0.64314 0.48343 -0.00216 0.0
C143 C 0.70497 0.50262 -0.00428 0.0
C144 C 0.74293 0.47186 -0.01848 0.0
C145 C 0.71987 0.42749 0.96792 0.0
C146 C 0.658 0.40898 0.97013 0.0
H147 H 0.20699 0.57268 0.522 0.0
H148 H 0.24087 0.66028 0.46328 0.0
H149 H 0.3648 0.52058 0.48525 0.0
H150 H 0.16059 0.67452 0.513 0.0
H151 H 0.17112 0.70692 0.48776 0.0
H152 H 0.07418 0.61091 0.51987 0.0
H153 H 0.94683 0.56818 0.47107 0.0
H154 H 0.12057 0.65391 0.45652 0.0
C155 C 0.23366 0.57607 0.5078 0.0
C156 C 0.28675 0.53945 0.50514 0.0
C157 C 0.21673 0.61944 0.49263 0.0
C158 C 0.25278 0.62562 0.47471 0.0
C159 C 0.30592 0.58976 0.47194 0.0
C160 C 0.3218 0.54579 0.48692 0.0
C161 C 0.16369 0.66295 0.49623 0.0
C162 C 0.10414 0.63483 0.48898 0.0
C163 C 0.06288 0.60987 0.50351 0.0
C164 C 1.00581 0.58655 0.49712 0.0
C165 C 0.99129 0.58582 0.47596 0.0
C166 C 0.03246 0.60948 0.46113 0.0
C167 C 0.08886 0.63443 0.46777 0.0
C168 C 0.16629 0.66218 0.12752 0.0
C169 C 0.93507 0.59099 0.11492 0.0
C170 C 0.94937 0.6898 0.05939 0.0
Mg171 Mg 0.23642 0.78516 0.11088 0.0
Mg172 Mg 0.15891 0.909 0.09716 0.0
O173 O 0.16992 0.82446 0.09349 0.0
Mg174 Mg 0.10061 0.76833 0.10065 0.0
O175 O 0.03565 0.70704 0.10777 0.0
Mg176 Mg 0.06551 0.63636 0.09045 0.0
Mg177 Mg 0.95321 0.72877 0.104 0.0
C178 C 0.03332 0.87838 0.07411 0.0
O179 O 0.05641 0.83532 0.12411 0.0
O180 O 0.30353 0.85294 0.09393 0.0
O181 O 0.95484 0.81639 0.11926 0.0
O182 O 0.2264 0.85567 0.13797 0.0
O183 O 0.24713 0.93591 0.0847 0.0
O184 O 0.15931 0.92911 0.12931 0.0
O185 O 0.14026 0.70156 0.07668 0.0
O186 O 0.24034 0.71604 0.08463 0.0
C187 C 0.19793 0.68885 0.0743 0.0
C188 C 0.29836 0.90617 0.08534 0.0
O189 O 0.03981 0.82035 0.0771 0.0
O190 O 0.98784 0.57839 0.10666 0.0
O191 O 0.07103 0.9184 0.08134 0.0
O192 O 0.99457 0.65372 0.06357 0.0
O193 O 0.91391 0.64595 0.11608 0.0
O194 O 0.9304 0.72971 0.07223 0.0
O195 O 0.16198 0.7205 0.12468 0.0
O196 O 0.13306 0.62396 0.11734 0.0
C197 C 0.19507 0.90389 0.14245 0.0
C198 C 0.99905 0.84887 0.12659 0.0
C199 C 0.71388 0.80961 0.37494 0.0
C200 C 0.81661 0.60141 0.36456 0.0
C201 C 0.6995 0.59068 0.30893 0.0
Mg202 Mg 0.57736 0.86191 0.36158 0.0
Mg203 Mg 0.4621 0.76819 0.35212 0.0
O204 O 0.54393 0.78931 0.34622 0.0
Mg205 Mg 0.61177 0.72933 0.35122 0.0
O206 O 0.68315 0.67426 0.35638 0.0
Mg207 Mg 0.74469 0.71374 0.33737 0.0
Mg208 Mg 0.67596 0.58843 0.35559 0.0
C209 C 0.50427 0.64696 0.32867 0.0
O210 O 0.56104 0.67755 0.37704 0.0
O211 O 0.49685 0.91739 0.34626 0.0
O212 O 0.59484 0.57949 0.37548 0.0
O213 O 0.51283 0.84843 0.39004 0.0
O214 O 0.42216 0.849 0.33872 0.0
O215 O 0.44249 0.77594 0.38436 0.0
O216 O 0.66671 0.77707 0.32494 0.0
O217 O 0.63916 0.8728 0.33367 0.0
C218 C 0.67054 0.83566 0.32245 0.0
C219 C 0.44348 0.90392 0.33875 0.0
O220 O 0.56189 0.66122 0.32937 0.0
O221 O 0.81721 0.65108 0.35373 0.0
O222 O 0.4617 0.67883 0.33749 0.0
O223 O 0.72904 0.64092 0.31171 0.0
O224 O 0.76735 0.5697 0.36727 0.0
O225 O 0.67048 0.56412 0.32364 0.0
O226 O 0.65568 0.79788 0.37399 0.0
O227 O 0.75284 0.78292 0.36299 0.0
C228 C 0.46632 0.81661 0.39598 0.0
C229 C 0.55877 0.62107 0.38283 0.0
C230 C 0.7002 0.16854 0.62481 0.0
C231 C 0.49132 0.0632 0.62026 0.0
C232 C 0.46433 0.1807 0.56602 0.0
Mg233 Mg 0.74509 0.30367 0.60937 0.0
Mg234 Mg 0.65154 0.41447 0.59344 0.0
O235 O 0.6729 0.33162 0.59236 0.0
Mg236 Mg 0.61479 0.26637 0.60061 0.0
O237 O 0.5622 0.1966 0.60915 0.0
Mg238 Mg 0.59736 0.13431 0.58978 0.0
Mg239 Mg 0.47658 0.20335 0.61259 0.0
C240 C 0.52857 0.36514 0.57349 0.0
O241 O 0.57107 0.32227 0.62635 0.0
O242 O 0.80053 0.38003 0.59197 0.0
O243 O 0.47753 0.2821 0.63354 0.0
O244 O 0.72254 0.37273 0.63666 0.0
O245 O 0.73323 0.44889 0.57895 0.0
O246 O 0.65298 0.44026 0.62473 0.0
O247 O 0.65933 0.20916 0.57496 0.0
O248 O 0.75678 0.23696 0.5826 0.0
C249 C 0.71821 0.20515 0.57199 0.0
C250 C 0.78833 0.42821 0.58112 0.0
O251 O 0.54195 0.30938 0.57833 0.0
O252 O 0.53854 0.06264 0.60815 0.0
O253 O 0.56227 0.41092 0.57867 0.0
O254 O 0.51618 0.15178 0.56662 0.0
O255 O 0.46089 0.11227 0.6243 0.0
O256 O 0.44201 0.20826 0.58179 0.0
O257 O 0.68546 0.22589 0.6235 0.0
O258 O 0.67329 0.12801 0.61362 0.0
C259 C 0.68675 0.4193 0.63923 0.0
C260 C 0.52031 0.32192 0.63649 0.0
C261 C 0.21839 0.34663 0.86804 0.0
C262 C 0.31516 0.13183 0.86694 0.0
C263 C 0.22731 0.11119 0.80777 0.0
Mg264 Mg 0.08829 0.39647 0.84967 0.0
Mg265 Mg 0.97706 0.30079 0.84019 0.0
O266 O 0.05815 0.32345 0.83352 0.0
Mg267 Mg 0.12203 0.26302 0.84234 0.0
O268 O 0.18953 0.20758 0.85145 0.0
Mg269 Mg 0.26016 0.24167 0.8348 0.0
Mg270 Mg 0.17866 0.12251 0.85185 0.0
C271 C 0.02051 0.17864 0.81821 0.0
O272 O 0.05863 0.21796 0.86652 0.0
O273 O 1.00982 0.4512 0.83249 0.0
O274 O 0.09095 0.11945 0.86847 0.0
O275 O 0.01982 0.38473 0.87702 0.0
O276 O 0.93515 0.38088 0.82721 0.0
O277 O 0.95841 0.30442 0.87256 0.0
O278 O 0.18773 0.30468 0.8181 0.0
O279 O 0.15859 0.40298 0.82339 0.0
C280 C 0.19319 0.36275 0.81456 0.0
C281 C 0.95569 0.43596 0.82596 0.0
O282 O 0.07805 0.1923 0.82007 0.0
O283 O 0.32393 0.17932 0.85537 0.0
O284 O 0.97695 0.2118 0.8258 0.0
O285 O 0.25594 0.16172 0.81096 0.0
O286 O 0.26306 0.10408 0.86804 0.0
O287 O 0.18841 0.08966 0.82073 0.0
O288 O 0.16113 0.33357 0.86518 0.0
O289 O 0.26139 0.31706 0.85873 0.0
C290 C 0.97742 0.34874 0.88357 0.0
C291 C 0.05284 0.16262 0.87308 0.0
H292 H 0.33902 0.98695 0.45986 0.0
H293 H 0.17626 0.89178 0.43843 0.0
H294 H 0.24203 0.82131 0.41865 0.0
H295 H 0.34505 0.79441 0.40485 0.0
H296 H 0.506 0.89034 0.42731 0.0
H297 H 0.44098 0.95041 0.45058 0.0
C298 C 0.31727 0.9496 0.45157 0.0
C299 C 0.25221 0.94499 0.45081 0.0
C300 C 0.35516 0.90896 0.44057 0.0
C301 C 0.22592 0.89728 0.43914 0.0
C302 C 0.26359 0.85662 0.42795 0.0
C303 C 0.36622 0.82722 0.41525 0.0
C304 C 0.43041 0.83847 0.4141 0.0
C305 C 0.32825 0.86299 0.42819 0.0
C306 C 0.45684 0.88108 0.42774 0.0
C307 C 0.41959 0.91584 0.44092 0.0
H308 H 0.38859 0.88019 0.68623 0.0
H309 H 0.58368 0.84793 0.69476 0.0
H310 H 0.60627 0.90634 0.66324 0.0
H311 H 0.57158 0.98145 0.63701 0.0
H312 H 0.37735 0.02289 0.6314 0.0
H313 H 0.35322 0.94601 0.65786 0.0
C314 C 0.43599 0.88515 0.68099 0.0
C315 C 0.48434 0.8605 0.69296 0.0
C316 C 0.44875 0.92112 0.66345 0.0
C317 C 0.54549 0.8662 0.68579 0.0
C318 C 0.5585 0.9002 0.66787 0.0
C319 C 0.52388 0.97217 0.64116 0.0
C320 C 0.4762 1.00765 0.63235 0.0
C321 C 0.51067 0.92998 0.65709 0.0
C322 C 0.41468 0.99612 0.63806 0.0
C323 C 0.40095 0.95242 0.65323 0.0
H324 H 0.54528 0.0755 0.92433 0.0
H325 H 0.39524 0.03849 0.96709 0.0
H326 H 0.32116 0.05444 0.93982 0.0
H327 H 0.29671 0.08525 0.9048 0.0
H328 H 0.44182 0.13844 0.86261 0.0
H329 H 0.51974 0.11152 0.88885 0.0
C330 C 0.49649 0.07125 0.9278 0.0
C331 C 0.4769 0.05392 0.9479 0.0
C332 C 0.45286 0.08407 0.91216 0.0
C333 C 0.41294 0.04875 0.95178 0.0
C334 C 0.3699 0.05893 0.9362 0.0
C335 C 0.34545 0.09021 0.90118 0.0
C336 C 0.36362 0.11295 0.88174 0.0
C337 C 0.38925 0.07703 0.91645 0.0
C338 C 0.42683 0.12068 0.87749 0.0
C339 C 0.47124 0.10536 0.89248 0.0
H340 H 0.30719 0.0459 0.21777 0.0
H341 H 0.14235 0.15553 0.20922 0.0
H342 H 0.10943 0.08752 0.18137 0.0
H343 H 0.12891 0.99847 0.15894 0.0
H344 H 0.28969 0.88488 0.16969 0.0
H345 H 0.3207 0.95137 0.19816 0.0
C346 C 0.2633 0.05456 0.21022 0.0
C347 C 0.22763 0.10633 0.21569 0.0
C348 C 0.24335 0.01397 0.19483 0.0
C349 C 0.17175 0.11712 0.20514 0.0
C350 C 0.15237 0.07771 0.18936 0.0
C351 C 0.17021 0.98757 0.16772 0.0
C352 C 0.20713 0.93689 0.16205 0.0
C353 C 0.18798 0.02615 0.18403 0.0
C354 C 0.2603 0.92341 0.17369 0.0
C355 C 0.27842 0.96178 0.18986 0.0
H356 H 0.33215 0.10151 0.48438 0.0
H357 H 0.17109 0.13093 0.52257 0.0
H358 H 0.23617 0.17673 0.54954 0.0
H359 H 0.3399 0.19389 0.56387 0.0
H360 H 0.50097 0.15456 0.52652 0.0
H361 H 0.43461 0.12721 0.49739 0.0
C362 C 0.31126 0.11819 0.49861 0.0
C363 C 0.24729 0.11152 0.50182 0.0
C364 C 0.34898 0.14217 0.51414 0.0
C365 C 0.22035 0.13508 0.51992 0.0
C366 C 0.25757 0.16089 0.53532 0.0
C367 C 0.36055 0.18053 0.54922 0.0
C368 C 0.42527 0.17541 0.5474 0.0
C369 C 0.32214 0.1626 0.53286 0.0
C370 C 0.45131 0.15807 0.52835 0.0
C371 C 0.41342 0.14235 0.51174 0.0
H372 H 0.31199 0.91171 0.74265 0.0
H373 H 0.46743 0.90594 0.78445 0.0
H374 H 0.42062 0.98631 0.80556 0.0
H375 H 0.33717 0.05959 0.81183 0.0
H376 H 0.17743 0.06244 0.77217 0.0
H377 H 0.22453 0.98265 0.75014 0.0
C378 C 0.33522 0.92791 0.75647 0.0
C379 C 0.39299 0.90274 0.76205 0.0
C380 C 0.30783 0.97421 0.76862 0.0
C381 C 0.42259 0.92384 0.78002 0.0
C382 C 0.39618 0.97025 0.79196 0.0
C383 C 0.31316 0.04317 0.79817 0.0
C384 C 0.25504 0.06757 0.79314 0.0
C385 C 0.3393 0.9961 0.78629 0.0
C386 C 0.22294 0.04491 0.77594 0.0
C387 C 0.24968 0.99914 0.76352 0.0
H388 H 0.48279 0.06429 0.03259 0.0
H389 H 0.5298 0.88566 0.00886 0.0
H390 H 0.46556 0.83682 0.0356 0.0
H391 H 0.38525 0.84641 0.06262 0.0
H392 H 0.32984 0.02648 0.08329 0.0
H393 H 0.40835 0.07358 0.06115 0.0
C394 C 0.4802 0.01463 0.03376 0.0
C395 C 0.51126 0.9783 0.01914 0.0
C396 C 0.44098 0.98739 0.04845 0.0
C397 C 0.50665 0.91413 0.02023 0.0
C398 C 0.46964 0.88641 0.03538 0.0
C399 C 0.39149 0.89582 0.06259 0.0
C400 C 0.35199 0.93305 0.07451 0.0
C401 C 0.435 0.9227 0.04915 0.0
C402 C 0.35965 0.99706 0.07414 0.0
C403 C 0.40442 0.02397 0.06147 0.0
H404 H 0.25298 0.06445 0.28943 0.0
H405 H 0.41118 0.18263 0.28313 0.0
H406 H 0.46984 0.11706 0.30715 0.0
H407 H 0.47951 0.01832 0.32596 0.0
H408 H 0.32071 0.89898 0.33035 0.0
H409 H 0.25888 0.97275 0.31106 0.0
C410 C 0.29998 0.0763 0.29367 0.0
C411 C 0.32826 0.12746 0.28449 0.0
C412 C 0.33351 0.03765 0.30684 0.0
C413 C 0.38875 0.14325 0.29013 0.0
C414 C 0.42231 0.10549 0.30366 0.0
C415 C 0.43117 0.00893 0.32295 0.0
C416 C 0.40517 0.95265 0.32924 0.0
C417 C 0.39581 0.05131 0.3115 0.0
C418 C 0.34231 0.94135 0.32533 0.0
C419 C 0.30673 0.98358 0.31436 0.0
H420 H 0.80491 0.08866 0.48777 0.0
H421 H 0.97989 0.09107 0.51994 0.0
H422 H 0.92855 0.12917 0.55106 0.0
H423 H 0.83558 0.16519 0.56856 0.0
H424 H 0.65999 0.16301 0.53693 0.0
H425 H 0.70985 0.11803 0.50633 0.0
C426 C 0.8318 0.09648 0.50168 0.0
C427 C 0.8964 0.08723 0.50144 0.0
C428 C 0.80185 0.11757 0.51962 0.0
C429 C 0.93044 0.09881 0.51952 0.0
C430 C 0.90103 0.12002 0.53739 0.0
C431 C 0.8079 0.15442 0.55505 0.0
C432 C 0.74425 0.16805 0.55491 0.0
C433 C 0.83697 0.13005 0.53752 0.0
C434 C 0.709 0.15287 0.53742 0.0
C435 C 0.73763 0.12775 0.51988 0.0
H436 H 0.79733 0.93976 0.24165 0.0
H437 H 0.78216 0.10642 0.27731 0.0
H438 H 0.74689 0.04754 0.30737 0.0
H439 H 0.7121 0.95156 0.32226 0.0
H440 H 0.71801 0.78436 0.28655 0.0
H441 H 0.76749 0.84029 0.2578 0.0
C442 C 0.78721 0.96281 0.25615 0.0
C443 C 0.79211 0.02728 0.25738 0.0
C444 C 0.76548 0.9287 0.27321 0.0
C445 C 0.77829 0.05696 0.27607 0.0
C446 C 0.75828 0.02333 0.2932 0.0
C447 C 0.72444 0.9269 0.30825 0.0
C448 C 0.71036 0.86403 0.30638 0.0
C449 C 0.75039 0.95957 0.29176 0.0
C450 C 0.72814 0.83274 0.28833 0.0
C451 C 0.75591 0.86486 0.27187 0.0
H452 H 0.8226 0.02646 0.03021 0.0
H453 H 0.82851 0.87081 -0.01077 0.0
H454 H 0.89903 0.81724 0.01298 0.0
H455 H 0.97165 0.82283 0.04247 0.0
H456 H 0.97202 0.98455 0.08099 0.0
H457 H 0.88666 0.02787 0.06117 0.0
C458 C 0.83758 0.9799 0.02689 0.0
C459 C 0.82028 0.95222 0.00821 0.0
C460 C 0.88068 0.95137 0.0399 0.0
C461 C 0.84106 0.89254 0.0037 0.0
C462 C 0.88187 0.86238 0.01713 0.0
C463 C 0.95229 0.86709 0.04665 0.0
C464 C 0.97862 0.90101 0.06288 0.0
C465 C 0.90415 0.89258 0.0348 0.0
C466 C 0.95333 0.9583 0.06822 0.0
C467 C 0.90428 0.98293 0.057 0.0
H468 H 0.93997 0.98431 0.75244 0.0
H469 H 0.78498 0.97307 0.79455 0.0
H470 H 0.8397 0.0361 0.81956 0.0
H471 H 0.92301 0.10769 0.82687 0.0
H472 H 0.07619 0.12539 0.78446 0.0
H473 H 0.03111 0.04608 0.76216 0.0
C474 C 0.91862 0.99506 0.76722 0.0
C475 C 0.85811 0.9748 0.77149 0.0
C476 C 0.94961 0.03309 0.78129 0.0
C477 C 0.83151 0.98778 0.79088 0.0
C478 C 0.86252 0.0244 0.80512 0.0
C479 C 0.94692 0.09359 0.81285 0.0
C480 C 1.00179 0.12315 0.80693 0.0
C481 C 0.92024 0.04934 0.80008 0.0
C482 C 0.03347 0.10349 0.78914 0.0
C483 C 1.00751 0.05853 0.77638 0.0
H484 H 0.80485 1.00497 0.44017 0.0
H485 H 0.97302 0.90026 0.43236 0.0
H486 H 0.91998 0.83035 0.40894 0.0
H487 H 0.82846 0.80151 0.39005 0.0
H488 H 0.65878 0.90428 0.39678 0.0
H489 H 0.7097 0.9722 0.42194 0.0
C490 C 0.82957 0.96641 0.43349 0.0
C491 C 0.89288 0.95788 0.43783 0.0
C492 C 0.79872 0.92644 0.42 0.0
C493 C 0.92463 0.9082 0.42898 0.0
C494 C 0.89428 0.86814 0.4157 0.0
C495 C 0.80229 0.83892 0.3969 0.0
C496 C 0.74021 0.84872 0.3913 0.0
C497 C 0.83176 0.87739 0.41095 0.0
C498 C 0.70671 0.89619 0.40079 0.0
C499 C 0.7359 0.93498 0.41506 0.0
H500 H 0.85478 0.0626 0.16692 0.0
H501 H 0.9877 0.03302 0.21577 0.0
H502 H 0.04635 0.96367 0.19325 0.0
H503 H 0.04839 0.89813 0.16175 0.0
H504 H 0.91071 0.92735 0.11442 0.0
H505 H 0.86654 0.01197 0.13404 0.0
C506 C 0.89789 0.04327 0.17251 0.0
C507 C 0.9162 0.05234 0.19313 0.0
C508 C 0.93014 1.00261 0.15976 0.0
C509 C 0.97187 0.02576 0.20005 0.0
C510 C 1.00534 0.98602 0.1872 0.0
C511 C 1.00963 0.92412 0.15565 0.0
C512 C 0.98168 0.90604 0.13703 0.0
C513 C 0.98313 0.9718 0.16737 0.0
C514 C 0.93184 0.9399 0.12903 0.0
C515 C 0.90667 0.98828 0.14019 0.0
H516 H 0.80815 0.10702 0.92298 0.0
H517 H 0.94391 0.05417 0.96881 0.0
H518 H 0.0268 0.08032 0.94516 0.0
H519 H 0.062 0.11587 0.91126 0.0
H520 H 0.92962 0.17859 0.86617 0.0
H521 H 0.84432 0.15197 0.88972 0.0
C522 C 0.85582 0.1017 0.92783 0.0
C523 C 0.8694 0.07634 0.94741 0.0
C524 C 0.90402 0.11866 0.91428 0.0
C525 C 0.93169 0.07078 0.95351 0.0
C526 C 0.97943 0.08638 0.94008 0.0
C527 C 0.01437 0.12357 0.90667 0.0
C528 C 1.00154 0.14841 0.88714 0.0
C529 C 0.9662 0.10949 0.92037 0.0
C530 C 0.94006 0.15937 0.88128 0.0
C531 C 0.89149 0.14405 0.89469 0.0
H532 H 0.77327 0.07924 0.71357 0.0
H533 H 0.77728 0.90626 0.68112 0.0
H534 H 0.76685 0.96017 0.64801 0.0
H535 H 0.74652 0.05431 0.62894 0.0
H536 H 0.7305 0.22689 0.66131 0.0
H537 H 0.75968 0.17574 0.69377 0.0
C538 C 0.77289 0.05354 0.69919 0.0
C539 C 0.77579 0.98885 0.69971 0.0
C540 C 0.7656 0.08482 0.68027 0.0
C541 C 0.77443 0.95594 0.68106 0.0
C542 C 0.76888 0.98676 0.66217 0.0
C543 C 0.75034 0.0812 0.64301 0.0
C544 C 0.73531 0.14422 0.64274 0.0
C545 C 0.76308 0.05096 0.66167 0.0
C546 C 0.74174 0.17839 0.66105 0.0
C547 C 0.75753 0.14893 0.67966 0.0
H548 H 0.8126 0.486 0.94766 0.0
H549 H 0.72367 0.30896 0.95207 0.0
H550 H 0.79835 0.267 0.92724 0.0
H551 H 0.88887 0.28197 0.90405 0.0
H552 H 0.98288 0.45697 0.90422 0.0
H553 H 0.90847 0.49684 0.92895 0.0
C554 C 0.81006 0.43764 0.94381 0.0
C555 C 0.7625 0.40082 0.95205 0.0
C556 C 0.85497 0.41304 0.93067 0.0
C557 C 0.759 0.33896 0.94586 0.0
C558 C 0.8023 0.31464 0.93187 0.0
C559 C 0.89374 0.32842 0.90982 0.0
C560 C 0.94111 0.36659 0.90204 0.0
C561 C 0.85065 0.35136 0.92422 0.0
C562 C 0.94704 0.42648 0.90983 0.0
C563 C 0.90404 0.44968 0.92383 0.0
H564 H 0.73825 0.42549 0.15922 0.0
H565 H 0.89744 0.31001 0.1689 0.0
H566 H 0.95925 0.37647 0.14614 0.0
H567 H 0.97101 0.47634 0.12795 0.0
H568 H 0.81108 0.59345 0.12062 0.0
H569 H 0.74675 0.5178 0.13801 0.0
C570 C 0.78615 0.41422 0.15592 0.0
C571 C 0.81362 0.3636 0.16578 0.0
C572 C 0.82158 0.45375 0.14361 0.0
C573 C 0.87543 0.3488 0.16136 0.0
C574 C 0.91086 0.38721 0.14857 0.0
C575 C 0.92194 0.48477 0.12991 0.0
C576 C 0.89621 0.54105 0.1234 0.0
C577 C 0.88502 0.44127 0.14032 0.0
C578 C 0.83242 0.55117 0.12591 0.0
C579 C 0.79541 0.50781 0.13577 0.0
H580 H 0.9823 0.51791 0.43836 0.0
H581 H 0.03755 0.70774 0.43475 0.0
H582 H 0.98432 0.71863 0.40151 0.0
H583 H 0.90736 0.67909 0.37701 0.0
H584 H 0.84605 0.49116 0.38227 0.0
H585 H 0.9171 0.47429 0.41108 0.0
C586 C 0.98359 0.56132 0.43006 0.0
C587 C 0.01296 0.61217 0.4391 0.0
C588 C 0.95134 0.56767 0.41133 0.0
C589 C 0.0153 0.6679 0.42809 0.0
C590 C 0.98441 0.67426 0.40917 0.0
C591 C 0.9109 0.63386 0.38401 0.0
C592 C 0.87085 0.58663 0.37764 0.0
C593 C 0.95017 0.62515 0.4011 0.0
C594 C 0.87591 0.52843 0.38699 0.0
C595 C 0.9163 0.51884 0.40355 0.0
H596 H 0.70594 0.54648 0.72662 0.0
H597 H 0.69487 0.70767 0.6874 0.0
H598 H 0.67782 0.64273 0.65741 0.0
H599 H 0.67699 0.54135 0.64172 0.0
H600 H 0.70102 0.37941 0.67951 0.0
H601 H 0.70498 0.44391 0.71074 0.0
C602 C 0.70089 0.56772 0.71151 0.0
C603 C 0.70304 0.63234 0.7094 0.0
C604 C 0.69476 0.52997 0.69404 0.0
C605 C 0.69317 0.65847 0.68972 0.0
C606 C 0.68422 0.62126 0.67244 0.0
C607 C 0.68284 0.51999 0.65681 0.0
C608 C 0.68893 0.45583 0.65841 0.0
C609 C 0.68668 0.55718 0.67437 0.0
C610 C 0.69693 0.42879 0.67797 0.0
C611 C 0.69887 0.46563 0.69574 0.0
H612 H 0.79513 0.58497 -0.01467 0.0
H613 H 0.68006 0.52804 0.03675 0.0
H614 H 0.74167 0.59056 0.06015 0.0
H615 H 0.83718 0.64714 0.06695 0.0
H616 H 0.96318 0.68743 0.01697 0.0
H617 H 0.88967 0.64356 -0.008 0.0
C618 C 0.7835 0.58576 0.00169 0.0
C619 C 0.7336 0.55025 0.00925 0.0
C620 C 0.82201 0.61782 0.01532 0.0
C621 C 0.7178 0.55457 0.03034 0.0
C622 C 0.75365 0.58972 0.04383 0.0
C623 C 0.84789 0.64721 0.05049 0.0
C624 C 0.90485 0.6706 0.04359 0.0
C625 C 0.80712 0.61933 0.03661 0.0
C626 C 0.91937 0.66966 0.02245 0.0
C627 C 0.87741 0.64465 0.00829 0.0
H628 H 0.79142 0.452 0.2301 0.0
H629 H 0.63172 0.33987 0.24353 0.0
H630 H 0.60429 0.40792 0.2722 0.0
H631 H 0.62914 0.49645 0.29442 0.0
H632 H 0.78498 0.61138 0.27875 0.0
H633 H 0.80826 0.54641 0.2491 0.0
C634 C 0.74962 0.44289 0.23885 0.0
C635 C 0.71397 0.39043 0.23459 0.0
C636 C 0.73305 0.48305 0.2548 0.0
C637 C 0.66097 0.379 0.24667 0.0
C638 C 0.64483 0.41828 0.26294 0.0
C639 C 0.66768 0.50774 0.28434 0.0
C640 C 0.70581 0.55819 0.28898 0.0
C641 C 0.68106 0.47002 0.2673 0.0
C642 C 0.75498 0.57278 0.2756 0.0
C643 C 0.76868 0.53535 0.25873 0.0
H644 H 0.02323 0.50903 0.52977 0.0
H645 H 0.88499 0.61941 0.49904 0.0
H646 H 0.80667 0.58377 0.52348 0.0
H647 H 0.77653 0.5179 0.55223 0.0
H648 H 0.91287 0.40399 0.58262 0.0
H649 H 0.99323 0.44534 0.55988 0.0
C650 C 0.97603 0.52555 0.52861 0.0
C651 C 0.95959 0.56618 0.51256 0.0
C652 C 0.93107 0.50444 0.54262 0.0
C653 C 0.89836 0.58724 0.51108 0.0
C654 C 0.8537 0.56719 0.5251 0.0
C655 C 0.82388 0.50243 0.55411 0.0
C656 C 0.83849 0.45768 0.56908 0.0
C657 C 0.86939 0.52525 0.54074 0.0
C658 C 0.90022 0.43827 0.57118 0.0
C659 C 0.94619 0.46174 0.55814 0.0
H660 H 0.746 0.5881 0.78252 0.0
H661 H 0.89544 0.71429 0.77178 0.0
H662 H 0.96441 0.65035 0.79319 0.0
H663 H 0.98407 0.55158 0.81151 0.0
H664 H 0.83214 0.42564 0.82053 0.0
H665 H 0.76243 0.4963 0.80329 0.0
C666 C 0.79339 0.60209 0.78529 0.0
C667 C 0.81608 0.6552 0.77571 0.0
C668 C 0.83253 0.56457 0.797 0.0
C669 C 0.87729 0.67347 0.77923 0.0
C670 C 0.91667 0.63665 0.79125 0.0
C671 C 0.93561 0.54003 0.80987 0.0
C672 C 0.91385 0.48275 0.81694 0.0
C673 C 0.89524 0.58096 0.79967 0.0
C674 C 0.8507 0.46871 0.81486 0.0
C675 C 0.81048 0.50923 0.80508 0.0
H676 H 0.32187 0.59031 -0.0055 0.0
H677 H 0.41628 0.47534 0.03933 0.0
H678 H 0.35402 0.5194 0.06688 0.0
H679 H 0.27491 0.59309 0.07849 0.0
H680 H 0.17184 0.69712 0.03333 0.0
H681 H 0.23229 0.65049 0.0053 0.0
C682 C 0.32812 0.57292 0.0101 0.0
C683 C 0.37487 0.52941 0.01451 0.0
C684 C 0.28931 0.59526 0.02579 0.0
C685 C 0.38264 0.51008 0.03522 0.0
C686 C 0.34608 0.5344 0.05107 0.0
C687 C 0.2645 0.60382 0.06242 0.0
C688 C 0.21902 0.64782 0.0578 0.0
C689 C 0.29948 0.57709 0.04652 0.0
C690 C 0.20597 0.66234 0.03709 0.0
C691 C 0.24122 0.63653 0.02116 0.0
H692 H 0.35218 0.48768 0.74592 0.0
H693 H 0.42984 0.579 0.7993 0.0
H694 H 0.36215 0.51947 0.82197 0.0
H695 H 0.28125 0.44098 0.82658 0.0
H696 H 0.21366 0.34172 0.77362 0.0
H697 H 0.2813 0.40191 0.75076 0.0
C698 C 0.35613 0.49377 0.76252 0.0
C699 C 0.39714 0.53786 0.77074 0.0
C700 C 0.3201 0.45672 0.77555 0.0
C701 C 0.39841 0.54646 0.79235 0.0
C702 C 0.36038 0.51164 0.80539 0.0
C703 C 0.28268 0.4317 0.81006 0.0
C704 C 0.24336 0.38692 0.80165 0.0
C705 C 0.32147 0.4664 0.79716 0.0
C706 C 0.24458 0.37526 0.78033 0.0
C707 C 0.28246 0.41027 0.76731 0.0
H708 H 0.3345 0.42321 0.50427 0.0
H709 H 0.30003 0.57637 0.54503 0.0
H710 H 0.36668 0.53062 0.57126 0.0
H711 H 0.44803 0.45681 0.58004 0.0
H712 H 0.48448 0.30344 0.53976 0.0
H713 H 0.40338 0.3389 0.51597 0.0
C714 C 0.34051 0.44567 0.51911 0.0
C715 C 0.31297 0.50343 0.52261 0.0
C716 C 0.38002 0.4196 0.53403 0.0
C717 C 0.32039 0.53181 0.54197 0.0
C718 C 0.35912 0.50601 0.55691 0.0
C719 C 0.43736 0.43066 0.56621 0.0
C720 C 0.47259 0.37846 0.56134 0.0
C721 C 0.39123 0.4515 0.5527 0.0
C722 C 0.45788 0.34398 0.54368 0.0
C723 C 0.41188 0.3645 0.53006 0.0
H724 H 0.3511 0.43954 0.28776 0.0
H725 H 0.46972 0.48184 0.2359 0.0
H726 H 0.53373 0.54677 0.25822 0.0
H727 H 0.54448 0.6046 0.29116 0.0
H728 H 0.41926 0.56561 0.34159 0.0
H729 H 0.37019 0.48517 0.32133 0.0
C730 C 0.39213 0.46117 0.28143 0.0
C731 C 0.40544 0.45615 0.26019 0.0
C732 C 0.42701 0.49986 0.29409 0.0
C733 C 0.45822 0.48555 0.2522 0.0
C734 C 0.49462 0.52282 0.26492 0.0
C735 C 0.5074 0.57737 0.29777 0.0
C736 C 0.48458 0.59142 0.31762 0.0
C737 C 0.47777 0.53246 0.2857 0.0
C738 C 0.43667 0.55607 0.32616 0.0
C739 C 0.40862 0.51015 0.3146 0.0
H740 H 0.29587 0.43644 0.95534 0.0
H741 H 0.4679 0.46664 0.92281 0.0
H742 H 0.41705 0.44383 0.88994 0.0
H743 H 0.32679 0.40608 0.87118 0.0
H744 H 0.15547 0.37411 0.90375 0.0
H745 H 0.20216 0.41155 0.93585 0.0
C746 C 0.32212 0.43975 0.94105 0.0
C747 C 0.38591 0.45302 0.9416 0.0
C748 C 0.29248 0.42726 0.92224 0.0
C749 C 0.41915 0.45547 0.9229 0.0
C750 C 0.38996 0.44305 0.90409 0.0
C751 C 0.29921 0.40862 0.88522 0.0
C752 C 0.23812 0.38649 0.88522 0.0
C753 C 0.32704 0.42767 0.90367 0.0
C754 C 0.20254 0.39091 0.90337 0.0
C755 C 0.22955 0.41141 0.92177 0.0
H756 H 0.53515 0.44704 0.72317 0.0
H757 H 0.52171 0.61144 0.68597 0.0
H758 H 0.52683 0.54932 0.65435 0.0
H759 H 0.52274 0.44659 0.63753 0.0
H760 H 0.51666 0.28437 0.67592 0.0
H761 H 0.52777 0.34709 0.70702 0.0
C762 C 0.53281 0.46946 0.70815 0.0
C763 C 0.52608 0.53356 0.70694 0.0
C764 C 0.5299 0.43356 0.69031 0.0
C765 C 0.5264 0.56207 0.68736 0.0
C766 C 0.52814 0.52652 0.6693 0.0
C767 C 0.52273 0.42553 0.6528 0.0
C768 C 0.51737 0.36148 0.65471 0.0
C769 C 0.52734 0.4621 0.67063 0.0
C770 C 0.51885 0.33388 0.67433 0.0
C771 C 0.52613 0.36955 0.69201 0.0
H772 H 0.36146 0.51109 0.44493 0.0
H773 H 0.35073 0.70204 0.46228 0.0
H774 H 0.42996 0.72759 0.43688 0.0
H775 H 0.50192 0.69641 0.40989 0.0
H776 H 0.5127 0.50652 0.3914 0.0
H777 H 0.43389 0.47969 0.41715 0.0
C778 C 0.37612 0.55832 0.44288 0.0
C779 C 0.34993 0.60475 0.4552 0.0
C780 C 0.42133 0.57294 0.42804 0.0
C781 C 0.36932 0.66579 0.45262 0.0
C782 C 0.41469 0.68045 0.43815 0.0
C783 C 0.48633 0.64933 0.41121 0.0
C784 C 0.51241 0.60377 0.39857 0.0
C785 C 0.44079 0.63453 0.42576 0.0
C786 C 0.49327 0.54251 0.40098 0.0
C787 C 0.44805 0.5272 0.41561 0.0
H788 H 0.33914 0.51814 0.18884 0.0
H789 H 0.16071 0.47322 0.21498 0.0
H790 H 0.1104 0.54068 0.19025 0.0
H791 H 0.11551 0.60798 0.16012 0.0
H792 H 0.29147 0.65722 0.13381 0.0
H793 H 0.3447 0.59445 0.16017 0.0
C794 C 0.28933 0.52352 0.18923 0.0
C795 C 0.25383 0.48892 0.20343 0.0
C796 C 0.26032 0.56387 0.17515 0.0
C797 C 0.18926 0.497 0.20375 0.0
C798 C 0.1603 0.53638 0.18979 0.0
C799 C 0.16564 0.60596 0.16051 0.0
C800 C 0.19987 0.63717 0.14536 0.0
C801 C 0.19522 0.56932 0.17531 0.0
C802 C 0.26458 0.63413 0.14566 0.0
C803 C 0.29474 0.59773 0.16054 0.0
loop_
_geom_bond_atom_site_label_1
_geom_bond_atom_site_label_2
_geom_bond_distance
_geom_bond_site_symmetry_2
_ccdc_geom_bond_type
H0 C8 0.930 . S
H1 C11 0.930 . S
H2 C13 0.930 1_565 S
H3 C14 0.970 . S
H4 C14 0.970 . S
H5 C16 0.930 1_565 S
H6 C18 0.930 . S
H7 C20 0.930 . S
C8 H0 0.930 . S
C8 C9 1.382 1_545 S
C8 C10 1.426 . S
C9 C8 1.382 1_565 S
C9 C13 1.389 1_565 S
C10 C8 1.426 . S
C10 C11 1.375 . S
C10 C14 1.532 1_655 S
C11 H1 0.930 . S
C11 C10 1.375 . S
C11 C12 1.416 . S
C12 C11 1.416 . S
C12 C13 1.371 . S
C13 H2 0.930 1_545 S
C13 C9 1.389 1_545 S
C13 C12 1.371 . S
C14 H3 0.970 . S
C14 H4 0.970 . S
C14 C10 1.532 1_455 S
C14 C15 1.499 . S
C15 C14 1.499 . S
C15 C16 1.370 . S
C15 C20 1.415 . S
C16 H5 0.930 1_545 S
C16 C15 1.370 . S
C16 C17 1.407 1_545 S
C17 C16 1.407 1_565 S
C17 C18 1.364 . S
C18 H6 0.930 . S
C18 C17 1.364 . S
C18 C19 1.393 1_565 S
C19 C18 1.393 1_545 S
C19 C20 1.387 . S
C20 H7 0.930 . S
C20 C15 1.415 . S
C20 C19 1.387 . S
H21 C29 0.930 . S
H22 C32 0.930 . S
H23 C34 0.930 . S
H24 C35 0.970 . S
H25 C35 0.970 . S
H26 C37 0.930 . S
H27 C39 0.930 . S
H28 C41 0.930 . S
C29 H21 0.930 . S
C29 C30 1.382 . S
C29 C31 1.426 . S
C30 C29 1.382 . S
C30 C34 1.389 . S
C31 C29 1.426 . S
C31 C32 1.375 . S
C31 C35 1.532 . S
C32 H22 0.930 . S
C32 C31 1.375 . S
C32 C33 1.416 . S
C33 C32 1.416 . S
C33 C34 1.371 . S
C34 H23 0.930 . S
C34 C30 1.389 . S
C34 C33 1.371 . S
C35 H24 0.970 . S
C35 H25 0.970 . S
C35 C31 1.532 . S
C35 C36 1.499 . S
C36 C35 1.499 . S
C36 C37 1.370 . S
C36 C41 1.415 . S
C37 H26 0.930 . S
C37 C36 1.370 . S
C37 C38 1.407 . S
C38 C37 1.407 . S
C38 C39 1.365 . S
C39 H27 0.930 . S
C39 C38 1.365 . S
C39 C40 1.393 . S
C40 C39 1.393 . S
C40 C41 1.387 . S
C41 H28 0.930 . S
C41 C36 1.415 . S
C41 C40 1.387 . S
H42 C50 0.930 1_565 S
H43 C53 0.930 . S
H44 C55 0.930 1_556 S
H45 C56 0.970 . S
H46 C56 0.970 . S
H47 C58 0.930 1_565 S
H48 C60 0.931 . S
H49 C62 0.930 . S
C50 H42 0.930 1_545 S
C50 C51 1.382 1_545 S
C50 C52 1.426 . S
C51 C50 1.382 1_565 S
C51 C55 1.389 . S
C52 C50 1.426 . S
C52 C53 1.375 1_554 S
C52 C56 1.532 . S
C53 H43 0.930 . S
C53 C52 1.375 1_556 S
C53 C54 1.416 . S
C54 C53 1.416 . S
C54 C55 1.371 1_546 S
C55 H44 0.930 1_554 S
C55 C51 1.389 . S
C55 C54 1.371 1_564 S
C56 H45 0.970 . S
C56 H46 0.970 . S
C56 C52 1.532 . S
C56 C57 1.499 . S
C57 C56 1.499 . S
C57 C58 1.370 . S
C57 C62 1.415 1_554 S
C58 H47 0.930 1_545 S
C58 C57 1.370 . S
C58 C59 1.407 1_545 S
C59 C58 1.407 1_565 S
C59 C60 1.362 1_554 S
C60 H48 0.931 . S
C60 C59 1.362 1_556 S
C60 C61 1.395 1_565 S
C61 C60 1.395 1_545 S
C61 C62 1.387 . S
C62 H49 0.930 . S
C62 C57 1.415 1_556 S
C62 C61 1.387 . S
H63 C71 0.930 . S
H64 C74 0.930 . S
H65 C76 0.930 . S
H66 C77 0.970 . S
H67 C77 0.970 . S
H68 C79 0.930 . S
H69 C81 0.930 . S
H70 C83 0.930 . S
C71 H63 0.930 . S
C71 C72 1.382 . S
C71 C73 1.426 . S
C72 C71 1.382 . S
C72 C76 1.389 . S
C73 C71 1.426 . S
C73 C74 1.375 . S
C73 C77 1.532 . S
C74 H64 0.930 . S
C74 C73 1.375 . S
C74 C75 1.416 . S
C75 C74 1.416 . S
C75 C76 1.371 . S
C76 H65 0.930 . S
C76 C72 1.389 . S
C76 C75 1.371 . S
C77 H66 0.970 . S
C77 H67 0.970 . S
C77 C73 1.532 . S
C77 C78 1.499 . S
C78 C77 1.499 . S
C78 C79 1.370 . S
C78 C83 1.415 . S
C79 H68 0.930 . S
C79 C78 1.370 . S
C79 C80 1.407 . S
C80 C79 1.407 . S
C80 C81 1.365 . S
C81 H69 0.930 . S
C81 C80 1.365 . S
C81 C82 1.393 . S
C82 C81 1.393 . S
C82 C83 1.387 . S
C83 H70 0.930 . S
C83 C78 1.415 . S
C83 C82 1.387 . S
H84 C92 0.930 . S
H85 C95 0.930 . S
H86 C97 0.930 . S
H87 C98 0.970 . S
H88 C98 0.970 . S
H89 C100 0.930 . S
H90 C102 0.930 1_565 S
H91 C104 0.930 . S
C92 H84 0.930 . S
C92 C93 1.382 . S
C92 C94 1.426 . S
C93 C92 1.382 . S
C93 C97 1.389 . S
C94 C92 1.426 . S
C94 C95 1.375 . S
C94 C98 1.532 . S
C95 H85 0.930 . S
C95 C94 1.375 . S
C95 C96 1.416 . S
C96 C95 1.416 . S
C96 C97 1.371 . S
C97 H86 0.930 . S
C97 C93 1.389 . S
C97 C96 1.371 . S
C98 H87 0.970 . S
C98 H88 0.970 . S
C98 C94 1.532 . S
C98 C99 1.499 . S
C99 C98 1.499 . S
C99 C100 1.370 . S
C99 C104 1.415 . S
C100 H89 0.930 . S
C100 C99 1.370 . S
C100 C101 1.407 . S
C101 C100 1.407 . S
C101 C102 1.365 . S
C102 H90 0.930 1_545 S
C102 C101 1.365 . S
C102 C103 1.393 . S
C103 C102 1.393 . S
C103 C104 1.387 . S
C104 H91 0.930 . S
C104 C99 1.415 . S
C104 C103 1.387 . S
H105 C113 0.930 . S
H106 C116 0.930 . S
H107 C118 0.930 . S
H108 C119 0.970 . S
H109 C119 0.970 . S
H110 C121 0.930 . S
H111 C123 0.930 1_545 S
H112 C125 0.930 . S
C113 H105 0.930 . S
C113 C114 1.382 . S
C113 C115 1.426 . S
C114 C113 1.382 . S
C114 C118 1.389 . S
C115 C113 1.426 . S
C115 C116 1.375 . S
C115 C119 1.532 . S
C116 H106 0.930 . S
C116 C115 1.375 . S
C116 C117 1.416 . S
C117 C116 1.416 . S
C117 C118 1.371 . S
C118 H107 0.930 . S
C118 C114 1.389 . S
C118 C117 1.371 . S
C119 H108 0.970 . S
C119 H109 0.970 . S
C119 C115 1.532 . S
C119 C120 1.499 . S
C120 C119 1.499 . S
C120 C121 1.370 . S
C120 C125 1.415 . S
C121 H110 0.930 . S
C121 C120 1.370 . S
C121 C122 1.407 . S
C122 C121 1.407 . S
C122 C123 1.365 . S
C123 H111 0.930 1_565 S
C123 C122 1.365 . S
C123 C124 1.393 . S
C124 C123 1.393 . S
C124 C125 1.387 . S
C125 H112 0.930 . S
C125 C120 1.415 . S
C125 C124 1.387 . S
H126 C134 0.930 . S
H127 C137 0.930 . S
H128 C139 0.930 1_556 S
H129 C140 0.970 . S
H130 C140 0.970 . S
H131 C142 0.930 . S
H132 C144 0.923 1_556 S
H133 C146 0.930 . S
C134 H126 0.930 . S
C134 C135 1.382 . S
C134 C136 1.426 . S
C135 C134 1.382 . S
C135 C139 1.389 . S
C136 C134 1.426 . S
C136 C137 1.375 1_554 S
C136 C140 1.532 . S
C137 H127 0.930 . S
C137 C136 1.375 1_556 S
C137 C138 1.416 . S
C138 C137 1.416 . S
C138 C139 1.371 1_556 S
C139 H128 0.930 1_554 S
C139 C135 1.389 . S
C139 C138 1.371 1_554 S
C140 H129 0.970 . S
C140 H130 0.970 . S
C140 C136 1.532 . S
C140 C141 1.499 . S
C141 C140 1.499 . S
C141 C142 1.370 . S
C141 C146 1.415 1_554 S
C142 H131 0.930 . S
C142 C141 1.370 . S
C142 C143 1.407 . S
C143 C142 1.407 . S
C143 C144 1.382 . S
C144 H132 0.923 1_554 S
C144 C143 1.382 . S
C144 C145 1.383 1_554 S
C145 C144 1.383 1_556 S
C145 C146 1.387 . S
C146 H133 0.930 . S
C146 C141 1.415 1_556 S
C146 C145 1.387 . S
H147 C155 0.930 . S
H148 C158 0.930 . S
H149 C160 0.930 . S
H150 C161 0.970 . S
H151 C161 0.970 . S
H152 C163 0.930 . S
H153 C165 0.930 1_655 S
H154 C167 0.930 . S
C155 H147 0.930 . S
C155 C156 1.382 . S
C155 C157 1.426 . S
C156 C155 1.382 . S
C156 C160 1.389 . S
C157 C155 1.426 . S
C157 C158 1.375 . S
C157 C161 1.532 . S
C158 H148 0.930 . S
C158 C157 1.375 . S
C158 C159 1.416 . S
C159 C158 1.416 . S
C159 C160 1.371 . S
C160 H149 0.930 . S
C160 C156 1.389 . S
C160 C159 1.371 . S
C161 H150 0.970 . S
C161 H151 0.970 . S
C161 C157 1.532 . S
C161 C162 1.499 . S
C162 C161 1.499 . S
C162 C163 1.370 . S
C162 C167 1.415 . S
C163 H152 0.930 . S
C163 C162 1.370 . S
C163 C164 1.407 . S
C164 C163 1.407 . S
C164 C165 1.365 . S
C165 H153 0.930 1_455 S
C165 C164 1.365 . S
C165 C166 1.393 . S
C166 C165 1.393 . S
C166 C167 1.387 . S
C167 H154 0.930 . S
C167 C162 1.415 . S
C167 C166 1.387 . S
C168 O195 1.312 . S
C168 O196 1.208 . S
C169 O190 1.331 1_655 S
C169 O193 1.244 . S
C170 O192 1.264 1_655 S
C170 O194 1.273 . S
Mg171 O173 1.936 . S
Mg171 O180 2.081 . S
Mg171 O182 2.023 . S
Mg171 O186 2.031 . S
Mg171 O195 2.291 . S
Mg172 O173 1.963 . S
Mg172 O183 1.942 . S
Mg172 O184 1.955 . S
Mg172 O191 1.986 . S
O173 Mg171 1.936 . S
O173 Mg172 1.963 . S
O173 Mg174 1.915 . S
Mg174 O173 1.915 . S
Mg174 O175 1.915 . S
Mg174 O179 2.013 . S
Mg174 O185 2.114 . S
Mg174 O189 2.013 . S
Mg174 O195 2.114 . S
O175 Mg174 1.915 . S
O175 Mg176 1.936 . S
O175 Mg177 1.963 1_455 S
Mg176 O175 1.936 . S
Mg176 O185 2.291 . S
Mg176 O190 2.081 . S
Mg176 O192 2.023 . S
Mg176 O196 2.031 . S
Mg177 O175 1.963 1_655 S
Mg177 O181 1.986 . S
Mg177 O193 1.942 . S
Mg177 O194 1.955 . S
C178 O189 1.191 . S
C178 O191 1.307 . S
O179 Mg174 2.013 . S
O179 C198 1.191 . S
O180 Mg171 2.081 . S
O180 C188 1.331 . S
O181 Mg177 1.986 . S
O181 C198 1.307 1_655 S
O182 Mg171 2.023 . S
O182 C197 1.264 . S
O183 Mg172 1.942 . S
O183 C188 1.244 . S
O184 Mg172 1.955 . S
O184 C197 1.273 . S
O185 Mg174 2.114 . S
O185 Mg176 2.291 . S
O185 C187 1.312 . S
O186 Mg171 2.031 . S
O186 C187 1.208 . S
C187 O185 1.312 . S
C187 O186 1.208 . S
C188 O180 1.331 . S
C188 O183 1.244 . S
O189 Mg174 2.013 . S
O189 C178 1.191 . S
O190 C169 1.331 1_455 S
O190 Mg176 2.081 . S
O191 Mg172 1.986 . S
O191 C178 1.307 . S
O192 C170 1.264 1_455 S
O192 Mg176 2.023 . S
O193 C169 1.244 . S
O193 Mg177 1.942 . S
O194 C170 1.273 . S
O194 Mg177 1.955 . S
O195 C168 1.312 . S
O195 Mg171 2.291 . S
O195 Mg174 2.114 . S
O196 C168 1.208 . S
O196 Mg176 2.031 . S
C197 O182 1.264 . S
C197 O184 1.273 . S
C198 O179 1.191 . S
C198 O181 1.307 1_455 S
C199 O226 1.312 . S
C199 O227 1.208 . S
C200 O221 1.331 . S
C200 O224 1.244 . S
C201 O223 1.264 . S
C201 O225 1.273 . S
Mg202 O204 1.936 . S
Mg202 O211 2.081 . S
Mg202 O213 2.023 . S
Mg202 O217 2.031 . S
Mg202 O226 2.291 . S
Mg203 O204 1.963 . S
Mg203 O214 1.942 . S
Mg203 O215 1.955 . S
Mg203 O222 1.986 . S
O204 Mg202 1.936 . S
O204 Mg203 1.963 . S
O204 Mg205 1.915 . S
Mg205 O204 1.915 . S
Mg205 O206 1.915 . S
Mg205 O210 2.013 . S
Mg205 O216 2.114 . S
Mg205 O220 2.013 . S
Mg205 O226 2.114 . S
O206 Mg205 1.915 . S
O206 Mg207 1.936 . S
O206 Mg208 1.963 . S
Mg207 O206 1.936 . S
Mg207 O216 2.291 . S
Mg207 O221 2.081 . S
Mg207 O223 2.023 . S
Mg207 O227 2.031 . S
Mg208 O206 1.963 . S
Mg208 O212 1.986 . S
Mg208 O224 1.942 . S
Mg208 O225 1.955 . S
C209 O220 1.191 . S
C209 O222 1.307 . S
O210 Mg205 2.013 . S
O210 C229 1.191 . S
O211 Mg202 2.081 . S
O211 C219 1.331 . S
O212 Mg208 1.986 . S
O212 C229 1.307 . S
O213 Mg202 2.023 . S
O213 C228 1.264 . S
O214 Mg203 1.942 . S
O214 C219 1.244 . S
O215 Mg203 1.955 . S
O215 C228 1.273 . S
O216 Mg205 2.114 . S
O216 Mg207 2.291 . S
O216 C218 1.312 . S
O217 Mg202 2.031 . S
O217 C218 1.208 . S
C218 O216 1.312 . S
C218 O217 1.208 . S
C219 O211 1.331 . S
C219 O214 1.244 . S
O220 Mg205 2.013 . S
O220 C209 1.191 . S
O221 C200 1.331 . S
O221 Mg207 2.081 . S
O222 Mg203 1.986 . S
O222 C209 1.307 . S
O223 C201 1.264 . S
O223 Mg207 2.023 . S
O224 C200 1.244 . S
O224 Mg208 1.942 . S
O225 C201 1.273 . S
O225 Mg208 1.955 . S
O226 C199 1.312 . S
O226 Mg202 2.291 . S
O226 Mg205 2.114 . S
O227 C199 1.208 . S
O227 Mg207 2.031 . S
C228 O213 1.264 . S
C228 O215 1.273 . S
C229 O210 1.191 . S
C229 O212 1.307 . S
C230 O257 1.312 . S
C230 O258 1.208 . S
C231 O252 1.331 . S
C231 O255 1.244 . S
C232 O254 1.264 . S
C232 O256 1.273 . S
Mg233 O235 1.936 . S
Mg233 O242 2.081 . S
Mg233 O244 2.023 . S
Mg233 O248 2.031 . S
Mg233 O257 2.291 . S
Mg234 O235 1.963 . S
Mg234 O245 1.942 . S
Mg234 O246 1.955 . S
Mg234 O253 1.986 . S
O235 Mg233 1.936 . S
O235 Mg234 1.963 . S
O235 Mg236 1.915 . S
Mg236 O235 1.915 . S
Mg236 O237 1.915 . S
Mg236 O241 2.013 . S
Mg236 O247 2.114 . S
Mg236 O251 2.013 . S
Mg236 O257 2.114 . S
O237 Mg236 1.915 . S
O237 Mg238 1.936 . S
O237 Mg239 1.963 . S
Mg238 O237 1.936 . S
Mg238 O247 2.291 . S
Mg238 O252 2.081 . S
Mg238 O254 2.023 . S
Mg238 O258 2.031 . S
Mg239 O237 1.963 . S
Mg239 O243 1.986 . S
Mg239 O255 1.942 . S
Mg239 O256 1.955 . S
C240 O251 1.191 . S
C240 O253 1.307 . S
O241 Mg236 2.013 . S
O241 C260 1.191 . S
O242 Mg233 2.081 . S
O242 C250 1.331 . S
O243 Mg239 1.986 . S
O243 C260 1.307 . S
O244 Mg233 2.023 . S
O244 C259 1.264 . S
O245 Mg234 1.942 . S
O245 C250 1.244 . S
O246 Mg234 1.955 . S
O246 C259 1.273 . S
O247 Mg236 2.114 . S
O247 Mg238 2.291 . S
O247 C249 1.312 . S
O248 Mg233 2.031 . S
O248 C249 1.208 . S
C249 O247 1.312 . S
C249 O248 1.208 . S
C250 O242 1.331 . S
C250 O245 1.244 . S
O251 Mg236 2.013 . S
O251 C240 1.191 . S
O252 C231 1.331 . S
O252 Mg238 2.081 . S
O253 Mg234 1.986 . S
O253 C240 1.307 . S
O254 C232 1.264 . S
O254 Mg238 2.023 . S
O255 C231 1.244 . S
O255 Mg239 1.942 . S
O256 C232 1.273 . S
O256 Mg239 1.955 . S
O257 C230 1.312 . S
O257 Mg233 2.291 . S
O257 Mg236 2.114 . S
O258 C230 1.208 . S
O258 Mg238 2.031 . S
C259 O244 1.264 . S
C259 O246 1.273 . S
C260 O241 1.191 . S
C260 O243 1.307 . S
C261 O288 1.312 . S
C261 O289 1.208 . S
C262 O283 1.331 . S
C262 O286 1.244 . S
C263 O285 1.264 . S
C263 O287 1.273 . S
Mg264 O266 1.936 . S
Mg264 O273 2.081 . S
Mg264 O275 2.023 . S
Mg264 O279 2.031 . S
Mg264 O288 2.291 . S
Mg265 O266 1.963 1_655 S
Mg265 O276 1.942 . S
Mg265 O277 1.955 . S
Mg265 O284 1.986 . S
O266 Mg264 1.936 . S
O266 Mg265 1.963 1_455 S
O266 Mg267 1.915 . S
Mg267 O266 1.915 . S
Mg267 O268 1.915 . S
Mg267 O272 2.013 . S
Mg267 O278 2.114 . S
Mg267 O282 2.013 . S
Mg267 O288 2.114 . S
O268 Mg267 1.915 . S
O268 Mg269 1.936 . S
O268 Mg270 1.963 . S
Mg269 O268 1.936 . S
Mg269 O278 2.291 . S
Mg269 O283 2.081 . S
Mg269 O285 2.023 . S
Mg269 O289 2.031 . S
Mg270 O268 1.963 . S
Mg270 O274 1.986 . S
Mg270 O286 1.942 . S
Mg270 O287 1.955 . S
C271 O282 1.191 . S
C271 O284 1.307 1_455 S
O272 Mg267 2.013 . S
O272 C291 1.191 . S
O273 Mg264 2.081 . S
O273 C281 1.331 1_455 S
O274 Mg270 1.986 . S
O274 C291 1.307 . S
O275 Mg264 2.023 . S
O275 C290 1.264 1_455 S
O276 Mg265 1.942 . S
O276 C281 1.244 . S
O277 Mg265 1.955 . S
O277 C290 1.273 . S
O278 Mg267 2.114 . S
O278 Mg269 2.291 . S
O278 C280 1.312 . S
O279 Mg264 2.031 . S
O279 C280 1.208 . S
C280 O278 1.312 . S
C280 O279 1.208 . S
C281 O273 1.331 1_655 S
C281 O276 1.244 . S
O282 Mg267 2.013 . S
O282 C271 1.191 . S
O283 C262 1.331 . S
O283 Mg269 2.081 . S
O284 Mg265 1.986 . S
O284 C271 1.307 1_655 S
O285 C263 1.264 . S
O285 Mg269 2.023 . S
O286 C262 1.244 . S
O286 Mg270 1.942 . S
O287 C263 1.273 . S
O287 Mg270 1.955 . S
O288 C261 1.312 . S
O288 Mg264 2.291 . S
O288 Mg267 2.114 . S
O289 C261 1.208 . S
O289 Mg269 2.031 . S
C290 O275 1.264 1_655 S
C290 O277 1.273 . S
C291 O272 1.191 . S
C291 O274 1.307 . S
H292 C298 0.930 . S
H293 C301 0.930 . S
H294 C302 0.930 . S
H295 C303 0.930 . S
H296 C306 0.930 . S
H297 C307 0.930 . S
C298 H292 0.930 . S
C298 C299 1.355 . S
C298 C300 1.415 . S
C299 C298 1.355 . S
C299 C301 1.419 . S
C300 C298 1.415 . S
C300 C305 1.425 . S
C300 C307 1.409 . S
C301 H293 0.930 . S
C301 C299 1.419 . S
C301 C302 1.362 . S
C302 H294 0.930 . S
C302 C301 1.362 . S
C302 C305 1.409 . S
C303 H295 0.930 . S
C303 C304 1.355 . S
C303 C305 1.415 . S
C304 C303 1.355 . S
C304 C306 1.419 . S
C305 C300 1.425 . S
C305 C302 1.409 . S
C305 C303 1.415 . S
C306 H296 0.930 . S
C306 C304 1.419 . S
C306 C307 1.362 . S
C307 H297 0.930 . S
C307 C300 1.409 . S
C307 C306 1.362 . S
H308 C314 0.930 . S
H309 C317 0.930 . S
H310 C318 0.930 . S
H311 C319 0.930 . S
H312 C322 0.930 . S
H313 C323 0.930 . S
C314 H308 0.930 . S
C314 C315 1.355 . S
C314 C316 1.415 . S
C315 C314 1.355 . S
C315 C317 1.419 . S
C316 C314 1.415 . S
C316 C321 1.425 . S
C316 C323 1.409 . S
C317 H309 0.930 . S
C317 C315 1.419 . S
C317 C318 1.362 . S
C318 H310 0.930 . S
C318 C317 1.362 . S
C318 C321 1.409 . S
C319 H311 0.930 . S
C319 C320 1.355 . S
C319 C321 1.415 1_545 S
C320 C319 1.355 . S
C320 C322 1.419 . S
C321 C316 1.425 . S
C321 C318 1.409 . S
C321 C319 1.415 1_565 S
C322 H312 0.930 . S
C322 C320 1.419 . S
C322 C323 1.362 1_545 S
C323 H313 0.930 . S
C323 C316 1.409 . S
C323 C322 1.362 1_565 S
H324 C330 0.930 . S
H325 C333 0.930 1_565 S
H326 C334 0.930 1_565 S
H327 C335 0.930 . S
H328 C338 0.930 . S
H329 C339 0.930 . S
C330 H324 0.930 . S
C330 C331 1.355 . S
C330 C332 1.415 . S
C331 C330 1.355 . S
C331 C333 1.419 . S
C332 C330 1.415 . S
C332 C337 1.425 . S
C332 C339 1.409 . S
C333 H325 0.930 1_545 S
C333 C331 1.419 . S
C333 C334 1.362 . S
C334 H326 0.930 1_545 S
C334 C333 1.362 . S
C334 C337 1.409 . S
C335 H327 0.930 . S
C335 C336 1.355 . S
C335 C337 1.415 . S
C336 C335 1.355 . S
C336 C338 1.419 . S
C337 C332 1.425 . S
C337 C334 1.409 . S
C337 C335 1.415 . S
C338 H328 0.930 . S
C338 C336 1.419 . S
C338 C339 1.362 . S
C339 H329 0.930 . S
C339 C332 1.409 . S
C339 C338 1.362 . S
H340 C346 0.930 . S
H341 C349 0.930 . S
H342 C350 0.930 . S
H343 C351 0.930 . S
H344 C354 0.930 . S
H345 C355 0.930 . S
C346 H340 0.930 . S
C346 C347 1.355 . S
C346 C348 1.415 . S
C347 C346 1.355 . S
C347 C349 1.419 . S
C348 C346 1.415 . S
C348 C353 1.425 . S
C348 C355 1.409 . S
C349 H341 0.930 . S
C349 C347 1.419 . S
C349 C350 1.362 . S
C350 H342 0.930 . S
C350 C349 1.362 . S
C350 C353 1.409 . S
C351 H343 0.930 . S
C351 C352 1.355 . S
C351 C353 1.415 1_565 S
C352 C351 1.355 . S
C352 C354 1.419 . S
C353 C348 1.425 . S
C353 C350 1.409 . S
C353 C351 1.415 1_545 S
C354 H344 0.930 . S
C354 C352 1.419 . S
C354 C355 1.362 1_565 S
C355 H345 0.930 . S
C355 C348 1.409 . S
C355 C354 1.362 1_545 S
H356 C362 0.930 . S
H357 C365 0.930 1_565 S
H358 C366 0.930 1_565 S
H359 C367 0.930 . S
H360 C370 0.930 . S
H361 C371 0.930 . S
C362 H356 0.930 . S
C362 C363 1.355 . S
C362 C364 1.415 . S
C363 C362 1.355 . S
C363 C365 1.419 . S
C364 C362 1.415 . S
C364 C369 1.425 . S
C364 C371 1.409 . S
C365 H357 0.930 1_545 S
C365 C363 1.419 . S
C365 C366 1.362 . S
C366 H358 0.930 1_545 S
C366 C365 1.362 . S
C366 C369 1.409 . S
C367 H359 0.930 . S
C367 C368 1.355 . S
C367 C369 1.415 . S
C368 C367 1.355 . S
C368 C370 1.419 . S
C369 C364 1.425 . S
C369 C366 1.409 . S
C369 C367 1.415 . S
C370 H360 0.930 . S
C370 C368 1.419 . S
C370 C371 1.362 . S
C371 H361 0.930 . S
C371 C364 1.409 . S
C371 C370 1.362 . S
H372 C378 0.930 . S
H373 C381 0.930 . S
H374 C382 0.930 . S
H375 C383 0.930 . S
H376 C386 0.930 . S
H377 C387 0.930 . S
C378 H372 0.930 . S
C378 C379 1.355 . S
C378 C380 1.415 . S
C379 C378 1.355 . S
C379 C381 1.419 . S
C380 C378 1.415 . S
C380 C385 1.425 . S
C380 C387 1.409 1_565 S
C381 H373 0.930 . S
C381 C379 1.419 . S
C381 C382 1.362 . S
C382 H374 0.930 . S
C382 C381 1.362 . S
C382 C385 1.409 . S
C383 H375 0.930 . S
C383 C384 1.355 . S
C383 C385 1.415 1_545 S
C384 C383 1.355 . S
C384 C386 1.419 . S
C385 C380 1.425 . S
C385 C382 1.409 . S
C385 C383 1.415 1_565 S
C386 H376 0.930 . S
C386 C384 1.419 . S
C386 C387 1.362 . S
C387 H377 0.930 . S
C387 C380 1.409 1_545 S
C387 C386 1.362 . S
H388 C394 0.930 . S
H389 C397 0.930 . S
H390 C398 0.930 . S
H391 C399 0.930 . S
H392 C402 0.930 . S
H393 C403 0.930 . S
C394 H388 0.930 . S
C394 C395 1.355 . S
C394 C396 1.415 . S
C395 C394 1.355 . S
C395 C397 1.419 . S
C396 C394 1.415 . S
C396 C401 1.425 . S
C396 C403 1.409 . S
C397 H389 0.930 . S
C397 C395 1.419 . S
C397 C398 1.362 . S
C398 H390 0.930 . S
C398 C397 1.362 . S
C398 C401 1.409 . S
C399 H391 0.930 . S
C399 C400 1.355 . S
C399 C401 1.415 . S
C400 C399 1.355 . S
C400 C402 1.419 . S
C401 C396 1.425 . S
C401 C398 1.409 . S
C401 C399 1.415 . S
C402 H392 0.930 . S
C402 C400 1.419 . S
C402 C403 1.362 . S
C403 H393 0.930 . S
C403 C396 1.409 . S
C403 C402 1.362 . S
H404 C410 0.930 . S
H405 C413 0.930 . S
H406 C414 0.930 . S
H407 C415 0.930 . S
H408 C418 0.930 . S
H409 C419 0.930 . S
C410 H404 0.930 . S
C410 C411 1.355 . S
C410 C412 1.415 . S
C411 C410 1.355 . S
C411 C413 1.419 . S
C412 C410 1.415 . S
C412 C417 1.425 . S
C412 C419 1.409 . S
C413 H405 0.930 . S
C413 C411 1.419 . S
C413 C414 1.362 . S
C414 H406 0.930 . S
C414 C413 1.362 . S
C414 C417 1.409 . S
C415 H407 0.930 . S
C415 C416 1.355 . S
C415 C417 1.415 1_565 S
C416 C415 1.355 . S
C416 C418 1.419 . S
C417 C412 1.425 . S
C417 C414 1.409 . S
C417 C415 1.415 1_545 S
C418 H408 0.930 . S
C418 C416 1.419 . S
C418 C419 1.362 1_565 S
C419 H409 0.930 . S
C419 C412 1.409 . S
C419 C418 1.362 1_545 S
H420 C426 0.930 . S
H421 C429 0.930 . S
H422 C430 0.930 . S
H423 C431 0.930 . S
H424 C434 0.930 . S
H425 C435 0.930 . S
C426 H420 0.930 . S
C426 C427 1.355 . S
C426 C428 1.415 . S
C427 C426 1.355 . S
C427 C429 1.419 . S
C428 C426 1.415 . S
C428 C433 1.425 . S
C428 C435 1.409 . S
C429 H421 0.930 . S
C429 C427 1.419 . S
C429 C430 1.362 . S
C430 H422 0.930 . S
C430 C429 1.362 . S
C430 C433 1.409 . S
C431 H423 0.930 . S
C431 C432 1.355 . S
C431 C433 1.415 . S
C432 C431 1.355 . S
C432 C434 1.419 . S
C433 C428 1.425 . S
C433 C430 1.409 . S
C433 C431 1.415 . S
C434 H424 0.930 . S
C434 C432 1.419 . S
C434 C435 1.362 . S
C435 H425 0.930 . S
C435 C428 1.409 . S
C435 C434 1.362 . S
H436 C442 0.930 . S
H437 C445 0.930 . S
H438 C446 0.930 . S
H439 C447 0.930 . S
H440 C450 0.930 . S
H441 C451 0.930 . S
C442 H436 0.930 . S
C442 C443 1.355 1_565 S
C442 C444 1.415 . S
C443 C442 1.355 1_545 S
C443 C445 1.419 . S
C444 C442 1.415 . S
C444 C449 1.425 . S
C444 C451 1.409 . S
C445 H437 0.930 . S
C445 C443 1.419 . S
C445 C446 1.362 . S
C446 H438 0.930 . S
C446 C445 1.362 . S
C446 C449 1.409 1_545 S
C447 H439 0.930 . S
C447 C448 1.355 . S
C447 C449 1.415 . S
C448 C447 1.355 . S
C448 C450 1.419 . S
C449 C444 1.425 . S
C449 C446 1.409 1_565 S
C449 C447 1.415 . S
C450 H440 0.930 . S
C450 C448 1.419 . S
C450 C451 1.362 . S
C451 H441 0.930 . S
C451 C444 1.409 . S
C451 C450 1.362 . S
H452 C458 0.930 1_545 S
H453 C461 0.930 . S
H454 C462 0.930 . S
H455 C463 0.930 . S
H456 C466 0.930 . S
H457 C467 0.930 . S
C458 H452 0.930 1_565 S
C458 C459 1.355 . S
C458 C460 1.415 . S
C459 C458 1.355 . S
C459 C461 1.419 . S
C460 C458 1.415 . S
C460 C465 1.425 . S
C460 C467 1.409 . S
C461 H453 0.930 . S
C461 C459 1.419 . S
C461 C462 1.362 . S
C462 H454 0.930 . S
C462 C461 1.362 . S
C462 C465 1.409 . S
C463 H455 0.930 . S
C463 C464 1.355 . S
C463 C465 1.415 . S
C464 C463 1.355 . S
C464 C466 1.419 1_655 S
C465 C460 1.425 . S
C465 C462 1.409 . S
C465 C463 1.415 . S
C466 H456 0.930 . S
C466 C464 1.419 1_455 S
C466 C467 1.362 1_455 S
C467 H457 0.930 . S
C467 C460 1.409 . S
C467 C466 1.362 1_655 S
H468 C474 0.930 . S
H469 C477 0.930 . S
H470 C478 0.930 . S
H471 C479 0.930 . S
H472 C482 0.930 . S
H473 C483 0.930 . S
C474 H468 0.930 . S
C474 C475 1.355 . S
C474 C476 1.415 1_565 S
C475 C474 1.355 . S
C475 C477 1.419 1_565 S
C476 C474 1.415 1_545 S
C476 C481 1.425 . S
C476 C483 1.409 1_655 S
C477 H469 0.930 . S
C477 C475 1.419 1_545 S
C477 C478 1.362 . S
C478 H470 0.930 . S
C478 C477 1.362 . S
C478 C481 1.409 . S
C479 H471 0.930 . S
C479 C480 1.355 1_655 S
C479 C481 1.415 . S
C480 C479 1.355 1_455 S
C480 C482 1.419 . S
C481 C476 1.425 . S
C481 C478 1.409 . S
C481 C479 1.415 . S
C482 H472 0.930 . S
C482 C480 1.419 . S
C482 C483 1.362 . S
C483 H473 0.930 . S
C483 C476 1.409 1_455 S
C483 C482 1.362 . S
H484 C490 0.930 . S
H485 C493 0.930 . S
H486 C494 0.930 . S
H487 C495 0.930 . S
H488 C498 0.930 . S
H489 C499 0.930 . S
C490 H484 0.930 . S
C490 C491 1.355 . S
C490 C492 1.415 . S
C491 C490 1.355 . S
C491 C493 1.419 . S
C492 C490 1.415 . S
C492 C497 1.425 . S
C492 C499 1.409 . S
C493 H485 0.930 . S
C493 C491 1.419 . S
C493 C494 1.362 . S
C494 H486 0.930 . S
C494 C493 1.362 . S
C494 C497 1.409 . S
C495 H487 0.930 . S
C495 C496 1.355 . S
C495 C497 1.415 . S
C496 C495 1.355 . S
C496 C498 1.419 . S
C497 C492 1.425 . S
C497 C494 1.409 . S
C497 C495 1.415 . S
C498 H488 0.930 . S
C498 C496 1.419 . S
C498 C499 1.362 . S
C499 H489 0.930 . S
C499 C492 1.409 . S
C499 C498 1.362 . S
H500 C506 0.930 1_545 S
H501 C509 0.930 1_545 S
H502 C510 0.930 1_455 S
H503 C511 0.930 . S
H504 C514 0.930 . S
H505 C515 0.930 . S
C506 H500 0.930 1_565 S
C506 C507 1.355 1_565 S
C506 C508 1.415 . S
C507 C506 1.355 1_545 S
C507 C509 1.419 1_545 S
C508 C506 1.415 . S
C508 C513 1.425 . S
C508 C515 1.409 . S
C509 H501 0.930 1_565 S
C509 C507 1.419 1_565 S
C509 C510 1.362 . S
C510 H502 0.930 1_655 S
C510 C509 1.362 . S
C510 C513 1.409 . S
C511 H503 0.930 . S
C511 C512 1.355 1_455 S
C511 C513 1.415 1_455 S
C512 C511 1.355 1_655 S
C512 C514 1.419 . S
C513 C508 1.425 . S
C513 C510 1.409 . S
C513 C511 1.415 1_655 S
C514 H504 0.930 . S
C514 C512 1.419 . S
C514 C515 1.362 . S
C515 H505 0.930 . S
C515 C508 1.409 . S
C515 C514 1.362 . S
H516 C522 0.930 . S
H517 C525 0.930 . S
H518 C526 0.930 . S
H519 C527 0.930 1_455 S
H520 C530 0.930 . S
H521 C531 0.930 . S
C522 H516 0.930 . S
C522 C523 1.355 . S
C522 C524 1.415 . S
C523 C522 1.355 . S
C523 C525 1.419 . S
C524 C522 1.415 . S
C524 C529 1.425 . S
C524 C531 1.409 . S
C525 H517 0.930 . S
C525 C523 1.419 . S
C525 C526 1.362 . S
C526 H518 0.930 . S
C526 C525 1.362 . S
C526 C529 1.409 . S
C527 H519 0.930 1_655 S
C527 C528 1.355 . S
C527 C529 1.415 . S
C528 C527 1.355 . S
C528 C530 1.419 . S
C529 C524 1.425 . S
C529 C526 1.409 . S
C529 C527 1.415 . S
C530 H520 0.930 . S
C530 C528 1.419 . S
C530 C531 1.362 . S
C531 H521 0.930 . S
C531 C524 1.409 . S
C531 C530 1.362 . S
H532 C538 0.925 1_565 S
H533 C541 0.930 . S
H534 C542 0.930 . S
H535 C543 0.930 . S
H536 C546 0.930 . S
H537 C547 0.930 . S
C538 H532 0.925 1_545 S
C538 C539 1.354 1_545 S
C538 C540 1.419 . S
C539 C538 1.354 1_565 S
C539 C541 1.419 1_565 S
C540 C538 1.419 . S
C540 C545 1.425 . S
C540 C547 1.409 . S
C541 H533 0.930 . S
C541 C539 1.419 1_545 S
C541 C542 1.362 . S
C542 H534 0.930 . S
C542 C541 1.362 . S
C542 C545 1.409 . S
C543 H535 0.930 . S
C543 C544 1.355 . S
C543 C545 1.415 . S
C544 C543 1.355 . S
C544 C546 1.419 . S
C545 C540 1.425 . S
C545 C542 1.409 . S
C545 C543 1.415 . S
C546 H536 0.930 . S
C546 C544 1.419 . S
C546 C547 1.362 . S
C547 H537 0.930 . S
C547 C540 1.409 . S
C547 C546 1.362 . S
H548 C554 0.930 . S
H549 C557 0.930 . S
H550 C558 0.930 . S
H551 C559 0.930 . S
H552 C562 0.930 . S
H553 C563 0.930 . S
C554 H548 0.930 . S
C554 C555 1.355 . S
C554 C556 1.415 . S
C555 C554 1.355 . S
C555 C557 1.419 . S
C556 C554 1.415 . S
C556 C561 1.425 . S
C556 C563 1.409 . S
C557 H549 0.930 . S
C557 C555 1.419 . S
C557 C558 1.362 . S
C558 H550 0.930 . S
C558 C557 1.362 . S
C558 C561 1.409 . S
C559 H551 0.930 . S
C559 C560 1.355 . S
C559 C561 1.415 . S
C560 C559 1.355 . S
C560 C562 1.419 . S
C561 C556 1.425 . S
C561 C558 1.409 . S
C561 C559 1.415 . S
C562 H552 0.930 . S
C562 C560 1.419 . S
C562 C563 1.362 . S
C563 H553 0.930 . S
C563 C556 1.409 . S
C563 C562 1.362 . S
H564 C570 0.930 . S
H565 C573 0.930 . S
H566 C574 0.930 1_455 S
H567 C575 0.930 1_455 S
H568 C578 0.930 . S
H569 C579 0.930 . S
C570 H564 0.930 . S
C570 C571 1.355 . S
C570 C572 1.415 . S
C571 C570 1.355 . S
C571 C573 1.419 . S
C572 C570 1.415 . S
C572 C577 1.425 . S
C572 C579 1.409 . S
C573 H565 0.930 . S
C573 C571 1.419 . S
C573 C574 1.362 . S
C574 H566 0.930 1_655 S
C574 C573 1.362 . S
C574 C577 1.409 . S
C575 H567 0.930 1_655 S
C575 C576 1.355 . S
C575 C577 1.415 . S
C576 C575 1.355 . S
C576 C578 1.419 . S
C577 C572 1.425 . S
C577 C574 1.409 . S
C577 C575 1.415 . S
C578 H568 0.930 . S
C578 C576 1.419 . S
C578 C579 1.362 . S
C579 H569 0.930 . S
C579 C572 1.409 . S
C579 C578 1.362 . S
H580 C586 0.930 . S
H581 C589 0.930 . S
H582 C590 0.930 . S
H583 C591 0.930 . S
H584 C594 0.930 . S
H585 C595 0.930 . S
C586 H580 0.930 . S
C586 C587 1.355 . S
C586 C588 1.415 . S
C587 C586 1.355 . S
C587 C589 1.419 . S
C588 C586 1.415 . S
C588 C593 1.425 . S
C588 C595 1.409 . S
C589 H581 0.930 . S
C589 C587 1.419 . S
C589 C590 1.362 . S
C590 H582 0.930 . S
C590 C589 1.362 . S
C590 C593 1.409 . S
C591 H583 0.930 . S
C591 C592 1.355 . S
C591 C593 1.415 . S
C592 C591 1.355 . S
C592 C594 1.419 . S
C593 C588 1.425 . S
C593 C590 1.409 . S
C593 C591 1.415 . S
C594 H584 0.930 . S
C594 C592 1.419 . S
C594 C595 1.362 . S
C595 H585 0.930 . S
C595 C588 1.409 . S
C595 C594 1.362 . S
H596 C602 0.930 . S
H597 C605 0.930 . S
H598 C606 0.930 . S
H599 C607 0.930 . S
H600 C610 0.930 . S
H601 C611 0.930 . S
C602 H596 0.930 . S
C602 C603 1.355 . S
C602 C604 1.415 . S
C603 C602 1.355 . S
C603 C605 1.419 . S
C604 C602 1.415 . S
C604 C609 1.425 . S
C604 C611 1.409 . S
C605 H597 0.930 . S
C605 C603 1.419 . S
C605 C606 1.362 . S
C606 H598 0.930 . S
C606 C605 1.362 . S
C606 C609 1.409 . S
C607 H599 0.930 . S
C607 C608 1.355 . S
C607 C609 1.415 . S
C608 C607 1.355 . S
C608 C610 1.419 . S
C609 C604 1.425 . S
C609 C606 1.409 . S
C609 C607 1.415 . S
C610 H600 0.930 . S
C610 C608 1.419 . S
C610 C611 1.362 . S
C611 H601 0.930 . S
C611 C604 1.409 . S
C611 C610 1.362 . S
H612 C618 0.930 . S
H613 C621 0.930 . S
H614 C622 0.930 . S
H615 C623 0.930 . S
H616 C626 0.930 . S
H617 C627 0.930 . S
C618 H612 0.930 . S
C618 C619 1.355 . S
C618 C620 1.415 . S
C619 C618 1.355 . S
C619 C621 1.419 . S
C620 C618 1.415 . S
C620 C625 1.425 . S
C620 C627 1.409 . S
C621 H613 0.930 . S
C621 C619 1.419 . S
C621 C622 1.362 . S
C622 H614 0.930 . S
C622 C621 1.362 . S
C622 C625 1.409 . S
C623 H615 0.930 . S
C623 C624 1.355 . S
C623 C625 1.415 . S
C624 C623 1.355 . S
C624 C626 1.419 . S
C625 C620 1.425 . S
C625 C622 1.409 . S
C625 C623 1.415 . S
C626 H616 0.930 . S
C626 C624 1.419 . S
C626 C627 1.362 . S
C627 H617 0.930 . S
C627 C620 1.409 . S
C627 C626 1.362 . S
H628 C634 0.930 . S
H629 C637 0.930 . S
H630 C638 0.930 . S
H631 C639 0.930 . S
H632 C642 0.930 . S
H633 C643 0.930 . S
C634 H628 0.930 . S
C634 C635 1.355 . S
C634 C636 1.415 . S
C635 C634 1.355 . S
C635 C637 1.419 . S
C636 C634 1.415 . S
C636 C641 1.425 . S
C636 C643 1.409 . S
C637 H629 0.930 . S
C637 C635 1.419 . S
C637 C638 1.362 . S
C638 H630 0.930 . S
C638 C637 1.362 . S
C638 C641 1.409 . S
C639 H631 0.930 . S
C639 C640 1.355 . S
C639 C641 1.415 . S
C640 C639 1.355 . S
C640 C642 1.419 . S
C641 C636 1.425 . S
C641 C638 1.409 . S
C641 C639 1.415 . S
C642 H632 0.930 . S
C642 C640 1.419 . S
C642 C643 1.362 . S
C643 H633 0.930 . S
C643 C636 1.409 . S
C643 C642 1.362 . S
H644 C650 0.930 1_455 S
H645 C653 0.930 . S
H646 C654 0.930 . S
H647 C655 0.930 . S
H648 C658 0.930 . S
H649 C659 0.930 . S
C650 H644 0.930 1_655 S
C650 C651 1.355 . S
C650 C652 1.415 . S
C651 C650 1.355 . S
C651 C653 1.419 . S
C652 C650 1.415 . S
C652 C657 1.425 . S
C652 C659 1.409 . S
C653 H645 0.930 . S
C653 C651 1.419 . S
C653 C654 1.362 . S
C654 H646 0.930 . S
C654 C653 1.362 . S
C654 C657 1.409 . S
C655 H647 0.930 . S
C655 C656 1.355 . S
C655 C657 1.415 . S
C656 C655 1.355 . S
C656 C658 1.419 . S
C657 C652 1.425 . S
C657 C654 1.409 . S
C657 C655 1.415 . S
C658 H648 0.930 . S
C658 C656 1.419 . S
C658 C659 1.362 . S
C659 H649 0.930 . S
C659 C652 1.409 . S
C659 C658 1.362 . S
H660 C666 0.930 . S
H661 C669 0.930 . S
H662 C670 0.930 1_455 S
H663 C671 0.930 1_455 S
H664 C674 0.930 . S
H665 C675 0.930 . S
C666 H660 0.930 . S
C666 C667 1.355 . S
C666 C668 1.415 . S
C667 C666 1.355 . S
C667 C669 1.419 . S
C668 C666 1.415 . S
C668 C673 1.425 . S
C668 C675 1.409 . S
C669 H661 0.930 . S
C669 C667 1.419 . S
C669 C670 1.362 . S
C670 H662 0.930 1_655 S
C670 C669 1.362 . S
C670 C673 1.409 . S
C671 H663 0.930 1_655 S
C671 C672 1.355 . S
C671 C673 1.415 . S
C672 C671 1.355 . S
C672 C674 1.419 . S
C673 C668 1.425 . S
C673 C670 1.409 . S
C673 C671 1.415 . S
C674 H664 0.930 . S
C674 C672 1.419 . S
C674 C675 1.362 . S
C675 H665 0.930 . S
C675 C668 1.409 . S
C675 C674 1.362 . S
H676 C682 0.930 . S
H677 C685 0.930 . S
H678 C686 0.930 . S
H679 C687 0.930 . S
H680 C690 0.930 . S
H681 C691 0.930 . S
C682 H676 0.930 . S
C682 C683 1.355 . S
C682 C684 1.415 . S
C683 C682 1.355 . S
C683 C685 1.419 . S
C684 C682 1.415 . S
C684 C689 1.425 . S
C684 C691 1.409 . S
C685 H677 0.930 . S
C685 C683 1.419 . S
C685 C686 1.362 . S
C686 H678 0.930 . S
C686 C685 1.362 . S
C686 C689 1.409 . S
C687 H679 0.930 . S
C687 C688 1.355 . S
C687 C689 1.415 . S
C688 C687 1.355 . S
C688 C690 1.419 . S
C689 C684 1.425 . S
C689 C686 1.409 . S
C689 C687 1.415 . S
C690 H680 0.930 . S
C690 C688 1.419 . S
C690 C691 1.362 . S
C691 H681 0.930 . S
C691 C684 1.409 . S
C691 C690 1.362 . S
H692 C698 0.930 . S
H693 C701 0.930 . S
H694 C702 0.930 . S
H695 C703 0.930 . S
H696 C706 0.930 . S
H697 C707 0.930 . S
C698 H692 0.930 . S
C698 C699 1.355 . S
C698 C700 1.415 . S
C699 C698 1.355 . S
C699 C701 1.419 . S
C700 C698 1.415 . S
C700 C705 1.425 . S
C700 C707 1.409 . S
C701 H693 0.930 . S
C701 C699 1.419 . S
C701 C702 1.362 . S
C702 H694 0.930 . S
C702 C701 1.362 . S
C702 C705 1.409 . S
C703 H695 0.930 . S
C703 C704 1.355 . S
C703 C705 1.415 . S
C704 C703 1.355 . S
C704 C706 1.419 . S
C705 C700 1.425 . S
C705 C702 1.409 . S
C705 C703 1.415 . S
C706 H696 0.930 . S
C706 C704 1.419 . S
C706 C707 1.362 . S
C707 H697 0.930 . S
C707 C700 1.409 . S
C707 C706 1.362 . S
H708 C714 0.930 . S
H709 C717 0.930 . S
H710 C718 0.930 . S
H711 C719 0.930 . S
H712 C722 0.930 . S
H713 C723 0.930 . S
C714 H708 0.930 . S
C714 C715 1.355 . S
C714 C716 1.415 . S
C715 C714 1.355 . S
C715 C717 1.419 . S
C716 C714 1.415 . S
C716 C721 1.425 . S
C716 C723 1.409 . S
C717 H709 0.930 . S
C717 C715 1.419 . S
C717 C718 1.362 . S
C718 H710 0.930 . S
C718 C717 1.362 . S
C718 C721 1.409 . S
C719 H711 0.930 . S
C719 C720 1.355 . S
C719 C721 1.415 . S
C720 C719 1.355 . S
C720 C722 1.419 . S
C721 C716 1.425 . S
C721 C718 1.409 . S
C721 C719 1.415 . S
C722 H712 0.930 . S
C722 C720 1.419 . S
C722 C723 1.362 . S
C723 H713 0.930 . S
C723 C716 1.409 . S
C723 C722 1.362 . S
H724 C730 0.930 . S
H725 C733 0.930 . S
H726 C734 0.930 . S
H727 C735 0.930 . S
H728 C738 0.930 . S
H729 C739 0.930 . S
C730 H724 0.930 . S
C730 C731 1.355 . S
C730 C732 1.415 . S
C731 C730 1.355 . S
C731 C733 1.419 . S
C732 C730 1.415 . S
C732 C737 1.425 . S
C732 C739 1.409 . S
C733 H725 0.930 . S
C733 C731 1.419 . S
C733 C734 1.362 . S
C734 H726 0.930 . S
C734 C733 1.362 . S
C734 C737 1.409 . S
C735 H727 0.930 . S
C735 C736 1.355 . S
C735 C737 1.415 . S
C736 C735 1.355 . S
C736 C738 1.419 . S
C737 C732 1.425 . S
C737 C734 1.409 . S
C737 C735 1.415 . S
C738 H728 0.930 . S
C738 C736 1.419 . S
C738 C739 1.362 . S
C739 H729 0.930 . S
C739 C732 1.409 . S
C739 C738 1.362 . S
H740 C746 0.930 . S
H741 C749 0.930 . S
H742 C750 0.930 . S
H743 C751 0.930 . S
H744 C754 0.930 . S
H745 C755 0.930 . S
C746 H740 0.930 . S
C746 C747 1.355 . S
C746 C748 1.415 . S
C747 C746 1.355 . S
C747 C749 1.419 . S
C748 C746 1.415 . S
C748 C753 1.425 . S
C748 C755 1.409 . S
C749 H741 0.930 . S
C749 C747 1.419 . S
C749 C750 1.362 . S
C750 H742 0.930 . S
C750 C749 1.362 . S
C750 C753 1.409 . S
C751 H743 0.930 . S
C751 C752 1.355 . S
C751 C753 1.415 . S
C752 C751 1.355 . S
C752 C754 1.419 . S
C753 C748 1.425 . S
C753 C750 1.409 . S
C753 C751 1.415 . S
C754 H744 0.930 . S
C754 C752 1.419 . S
C754 C755 1.362 . S
C755 H745 0.930 . S
C755 C748 1.409 . S
C755 C754 1.362 . S
H756 C762 0.930 . S
H757 C765 0.930 . S
H758 C766 0.930 . S
H759 C767 0.930 . S
H760 C770 0.930 . S
H761 C771 0.930 . S
C762 H756 0.930 . S
C762 C763 1.355 . S
C762 C764 1.415 . S
C763 C762 1.355 . S
C763 C765 1.419 . S
C764 C762 1.415 . S
C764 C769 1.425 . S
C764 C771 1.409 . S
C765 H757 0.930 . S
C765 C763 1.419 . S
C765 C766 1.362 . S
C766 H758 0.930 . S
C766 C765 1.362 . S
C766 C769 1.409 . S
C767 H759 0.930 . S
C767 C768 1.355 . S
C767 C769 1.415 . S
C768 C767 1.355 . S
C768 C770 1.419 . S
C769 C764 1.425 . S
C769 C766 1.409 . S
C769 C767 1.415 . S
C770 H760 0.930 . S
C770 C768 1.419 . S
C770 C771 1.362 . S
C771 H761 0.930 . S
C771 C764 1.409 . S
C771 C770 1.362 . S
H772 C778 0.930 . S
H773 C781 0.930 . S
H774 C782 0.930 . S
H775 C783 0.930 . S
H776 C786 0.930 . S
H777 C787 0.930 . S
C778 H772 0.930 . S
C778 C779 1.355 . S
C778 C780 1.415 . S
C779 C778 1.355 . S
C779 C781 1.419 . S
C780 C778 1.415 . S
C780 C785 1.425 . S
C780 C787 1.409 . S
C781 H773 0.930 . S
C781 C779 1.419 . S
C781 C782 1.362 . S
C782 H774 0.930 . S
C782 C781 1.362 . S
C782 C785 1.409 . S
C783 H775 0.930 . S
C783 C784 1.355 . S
C783 C785 1.415 . S
C784 C783 1.355 . S
C784 C786 1.419 . S
C785 C780 1.425 . S
C785 C782 1.409 . S
C785 C783 1.415 . S
C786 H776 0.930 . S
C786 C784 1.419 . S
C786 C787 1.362 . S
C787 H777 0.930 . S
C787 C780 1.409 . S
C787 C786 1.362 . S
H788 C794 0.930 . S
H789 C797 0.930 . S
H790 C798 0.930 . S
H791 C799 0.930 . S
H792 C802 0.930 . S
H793 C803 0.930 . S
C794 H788 0.930 . S
C794 C795 1.355 . S
C794 C796 1.415 . S
C795 C794 1.355 . S
C795 C797 1.419 . S
C796 C794 1.415 . S
C796 C801 1.425 . S
C796 C803 1.409 . S
C797 H789 0.930 . S
C797 C795 1.419 . S
C797 C798 1.362 . S
C798 H790 0.930 . S
C798 C797 1.362 . S
C798 C801 1.409 . S
C799 H791 0.930 . S
C799 C800 1.355 . S
C799 C801 1.415 . S
C800 C799 1.355 . S
C800 C802 1.419 . S
C801 C796 1.425 . S
C801 C798 1.409 . S
C801 C799 1.415 . S
C802 H792 0.930 . S
C802 C800 1.419 . S
C802 C803 1.362 . S
C803 H793 0.930 . S
C803 C796 1.409 . S
C803 C802 1.362 . S
C304 C228 1.784 . S
C299 C17 1.720 . S
C315 C30 1.632 . S
C320 C231 1.650 . S
C331 C61 1.590 . S
C336 C262 1.600 . S
C352 C197 1.734 . S
C347 C72 1.732 . S
C368 C232 1.716 . S
C363 C19 1.729 . S
C384 C263 1.771 . S
C379 C33 1.669 . S
C400 C188 1.684 . S
C395 C59 1.641 . S
C416 C219 1.708 . S
C411 C75 1.653 . S
C427 C12 1.424 . S
C432 C249 1.379 . S
C443 C101 1.392 . S
C448 C218 1.362 . S
C459 C51 1.312 . S
C464 C178 1.260 1_655 S
C480 C271 1.321 . S
C475 C124 1.278 . S
C496 C199 1.286 . S
C491 C9 1.390 . S
C507 C103 1.339 . S
C512 C198 1.302 1_655 S
C523 C54 1.298 . S
C528 C291 1.340 1_655 S
C544 C230 1.337 . S
C539 C122 1.419 . S
C555 C145 1.719 . S
C560 C290 1.708 . S
C571 C96 1.644 . S
C576 C169 1.686 . S
C587 C166 1.668 1_655 S
C592 C200 1.673 . S
C603 C114 1.731 . S
C608 C259 1.730 . S
C624 C170 1.790 . S
C619 C143 1.707 . S
C635 C93 1.705 . S
C640 C201 1.707 . S
C651 C164 1.599 1_655 S
C656 C250 1.647 . S
C672 C281 1.722 . S
C667 C117 1.677 . S
C683 C135 1.396 . S
C688 C187 1.365 . S
C699 C40 1.350 . S
C704 C280 1.316 . S
C715 C156 1.290 . S
C720 C240 1.345 . S
C736 C209 1.307 . S
C731 C82 1.360 . S
C752 C261 1.409 . S
C747 C138 1.429 . S
C768 C260 1.360 . S
C763 C38 1.363 . S
C784 C229 1.297 . S
C779 C159 1.257 . S
C800 C168 1.325 . S
C795 C80 1.362 . S
