# Generated by pormake.
# Topology pth, (4,4)-cn, num edge types: 1
# Building blocks:
#     Node 0, Type 0, BuildingBlock: AZAVOO_clean_sbu_0, # of connection points: 4
#     Node 1, Type 0, BuildingBlock: AZAVOO_clean_sbu_0, # of connection points: 4
#     Node 2, Type 0, BuildingBlock: AZAVOO_clean_sbu_0, # of connection points: 4
#     Node 3, Type 1, BuildingBlock: MUDLON_clean_linker_0, # of connection points: 4
#     Node 4, Type 1, BuildingBlock: MUDLON_clean_linker_0, # of connection points: 4
#     Node 5, Type 1, BuildingBlock: MUDLON_clean_linker_0, # of connection points: 4
#     Edge 6, Type (0, 1), BuildingBlock: AJUNOK_clean_linker_0, # of connection points: 2
#     Edge 7, Type (0, 1), BuildingBlock: AJUNOK_clean_linker_0, # of connection points: 2
#     Edge 8, Type (0, 1), BuildingBlock: AJUNOK_clean_linker_0, # of connection points: 2
#     Edge 9, Type (0, 1), BuildingBlock: AJUNOK_clean_linker_0, # of connection points: 2
#     Edge 10, Type (0, 1), BuildingBlock: AJUNOK_clean_linker_0, # of connection points: 2
#     Edge 11, Type (0, 1), BuildingBlock: AJUNOK_clean_linker_0, # of connection points: 2
#     Edge 12, Type (0, 1), BuildingBlock: AJUNOK_clean_linker_0, # of connection points: 2
#     Edge 13, Type (0, 1), BuildingBlock: AJUNOK_clean_linker_0, # of connection points: 2
#     Edge 14, Type (0, 1), BuildingBlock: AJUNOK_clean_linker_0, # of connection points: 2
#     Edge 15, Type (0, 1), BuildingBlock: AJUNOK_clean_linker_0, # of connection points: 2
#     Edge 16, Type (0, 1), BuildingBlock: AJUNOK_clean_linker_0, # of connection points: 2
#     Edge 17, Type (0, 1), BuildingBlock: AJUNOK_clean_linker_0, # of connection points: 2
# Relax obj value: 0.079
# Max RMSD: 0.217
# Mean RMSD: 0.135
data_MOF--net-pth--node1-AZAVOO_clean_sbu_0--node2-MUDLON_clean_linker_0--edge1-AJUNOK_clean_linker_0
_symmetry_space_group_name_H-M    P1
_symmetry_Int_Tables_number       1
_symmetry_cell_setting            triclinic
loop_
_symmetry_equiv_pos_as_xyz
'x, y, z'
_cell_length_a     26.744451
_cell_length_b     27.236748
_cell_length_c     54.3128
_cell_angle_alpha  90.889844
_cell_angle_beta   92.993499
_cell_angle_gamma 122.20263
loop_
_atom_site_label
_atom_site_type_symbol
_atom_site_fract_x
_atom_site_fract_y
_atom_site_fract_z
_atom_type_partial_charge
Mg0 Mg 0.11223 0.07229 0.02853 0.0
O1 O 0.03641 0.01182 0.00016 0.0
O2 O 0.01965 0.06553 0.97461 0.0
Mg3 Mg 0.08508 0.16131 0.98681 0.0
C4 C 0.00811 0.01619 0.98156 0.0
C5 C 0.11521 0.97209 0.05778 0.0
O6 O 0.16641 0.99188 0.0483 0.0
O7 O 0.05259 0.09276 0.04878 0.0
O8 O 0.04149 0.15047 0.02332 0.0
O9 O 0.17817 0.07946 0.00211 0.0
O10 O 0.14572 0.13869 0.00445 0.0
C11 C 0.03243 0.12493 0.04363 0.0
C12 C 0.17753 0.12354 -0.00614 0.0
O13 O 0.08575 0.99521 0.05241 0.0
Mg14 Mg 0.95052 0.99447 0.35812 0.0
O15 O 0.0339 0.03396 0.38471 0.0
O16 O 0.04401 0.11168 0.40421 0.0
Mg17 Mg 0.96608 0.12029 0.39148 0.0
C18 C 0.06206 0.07752 0.40016 0.0
C19 C 0.94181 0.88714 0.3325 0.0
O20 O 0.88977 0.86287 0.34171 0.0
O21 O 0.99719 0.06871 0.33219 0.0
O22 O 0.99851 0.14133 0.35256 0.0
O23 O 0.89227 0.94007 0.38812 0.0
O24 O 0.9134 0.02788 0.37966 0.0
C25 C 0.00831 0.12055 0.33346 0.0
C26 C 0.8863 0.98341 0.3927 0.0
O27 O 0.97887 0.94103 0.33724 0.0
Mg28 Mg 0.98871 0.94912 0.67838 0.0
O29 O 0.04417 0.02488 0.7064 0.0
O30 O 0.98433 0.02686 0.7329 0.0
Mg31 Mg 0.88981 0.94934 0.72231 0.0
C32 C 0.03586 0.04775 0.72513 0.0
C33 C 0.11488 0.99401 0.65886 0.0
O34 O 0.1236 0.97614 0.68005 0.0
O35 O 0.95197 0.99919 0.66017 0.0
O36 O 0.886 0.99104 0.6863 0.0
O37 O 1.00091 0.89087 0.70336 0.0
O38 O 0.92627 0.90417 0.70363 0.0
C39 C 0.91159 0.00773 0.66617 0.0
C40 C 0.95347 0.8811 0.71316 0.0
O41 O 0.06521 0.98838 0.65348 0.0
H42 H 0.87806 0.67728 0.20216 0.0
N43 N 0.96863 0.67393 0.18673 0.0
H44 H 0.87594 0.72681 0.23979 0.0
H45 H 0.05829 0.73033 0.22289 0.0
H46 H 0.05641 0.77931 0.26078 0.0
H47 H 0.08369 0.75855 0.18113 0.0
H48 H 0.11932 0.8281 0.14833 0.0
H49 H 0.90663 0.67168 0.14654 0.0
H50 H 0.94205 0.73966 0.11324 0.0
H51 H 0.87479 0.56786 0.17745 0.0
H52 H 0.06269 0.66209 0.1963 0.0
H53 H 0.87075 0.47615 0.17777 0.0
H54 H 0.05916 0.57036 0.19777 0.0
H55 H 0.87999 0.19169 0.2065 0.0
H56 H 0.91207 0.15465 0.24055 0.0
H57 H 0.07977 0.31849 0.24917 0.0
H58 H 0.0476 0.35529 0.21479 0.0
H59 H 0.04738 0.31412 0.17174 0.0
H60 H 0.06053 0.26817 0.13586 0.0
H61 H 0.87359 0.18071 0.11445 0.0
H62 H 0.86057 0.22722 0.15062 0.0
H63 H 0.86809 0.31942 0.2042 0.0
H64 H 0.87721 0.41356 0.20571 0.0
H65 H 0.04481 0.49014 0.17248 0.0
N66 N 0.94201 0.29343 0.18659 0.0
H67 H 0.03644 0.39647 0.17212 0.0
C68 C 0.96815 0.7003 0.20975 0.0
C69 C 0.91691 0.69918 0.21501 0.0
C70 C 0.91579 0.72727 0.23649 0.0
C71 C 0.96617 0.75727 0.25312 0.0
C72 C 0.01727 0.75731 0.2481 0.0
C73 C 0.01829 0.72907 0.22654 0.0
C74 C 0.9923 0.71064 0.16633 0.0
C75 C 0.05271 0.75401 0.16629 0.0
C76 C 0.07301 0.79348 0.1475 0.0
C77 C 0.03318 0.78995 0.12854 0.0
C78 C 0.97344 0.74432 0.12796 0.0
C79 C 0.95323 0.70528 0.14679 0.0
C80 C 0.9687 0.62132 0.18703 0.0
C81 C 0.91508 0.56845 0.18186 0.0
C82 C 0.91292 0.51617 0.18227 0.0
C83 C 0.96453 0.51566 0.1881 0.0
C84 C 0.01862 0.56909 0.19306 0.0
C85 C 0.02072 0.62157 0.19246 0.0
C86 C 0.96088 0.27616 0.2083 0.0
C87 C 0.92346 0.2197 0.21586 0.0
C88 C 0.94216 0.19844 0.235 0.0
C89 C 0.99884 0.23342 0.24703 0.0
C90 C 0.03611 0.29062 0.23994 0.0
C91 C 0.01753 0.31175 0.2205 0.0
C92 C 0.95279 0.27413 0.16378 0.0
C93 C 0.00935 0.28603 0.15914 0.0
C94 C 0.01676 0.25937 0.13876 0.0
C95 C 0.96797 0.22071 0.12257 0.0
C96 C 0.9119 0.21065 0.12661 0.0
C97 C 0.90446 0.23718 0.14713 0.0
C98 C 0.9508 0.35047 0.18774 0.0
C99 C 0.90687 0.35669 0.19737 0.0
C100 C 0.91205 0.41046 0.19803 0.0
C101 C 0.96136 0.45941 0.18885 0.0
C102 C 0.00638 0.45352 0.17981 0.0
C103 C 1.00135 0.39963 0.17937 0.0
H104 H 0.86384 0.15639 0.53479 0.0
N105 N 0.75308 0.12829 0.52499 0.0
H106 H 0.90426 0.13339 0.57062 0.0
H107 H 0.69796 0.087 0.56869 0.0
H108 H 0.74014 0.06921 0.60545 0.0
H109 H 0.71776 0.01348 0.52295 0.0
H110 H 0.73712 0.96369 0.49013 0.0
H111 H 0.79573 0.16872 0.48191 0.0
H112 H 0.8146 0.11933 0.4491 0.0
H113 H 0.74743 0.22223 0.52189 0.0
H114 H 0.63863 0.03648 0.52621 0.0
H115 H 0.65903 0.22764 0.51944 0.0
H116 H 0.5498 0.04129 0.52493 0.0
H117 H 0.35841 0.20879 0.55014 0.0
H118 H 0.29728 0.17424 0.58564 0.0
H119 H 0.29009 0.01235 0.57929 0.0
H120 H 0.35129 0.04717 0.54394 0.0
H121 H 0.29908 0.04415 0.50357 0.0
H122 H 0.22482 0.0269 0.47075 0.0
H123 H 0.32067 0.21046 0.45836 0.0
H124 H 0.39443 0.22761 0.49177 0.0
H125 H 0.4978 0.22618 0.54267 0.0
H126 H 0.5854 0.2197 0.54372 0.0
H127 H 0.48613 0.05815 0.4996 0.0
N128 N 0.39057 0.15069 0.52232 0.0
H129 H 0.39816 0.06375 0.49976 0.0
C130 C 0.77749 0.12265 0.54847 0.0
C131 C 0.83669 0.13785 0.55025 0.0
C132 C 0.86012 0.12541 0.57101 0.0
C133 C 0.82574 0.09983 0.59116 0.0
C134 C 0.76762 0.0881 0.59011 0.0
C135 C 0.74341 0.09865 0.56893 0.0
C136 C 0.75551 0.09497 0.50473 0.0
C137 C 0.73783 0.03637 0.50664 0.0
C138 C 0.74917 0.00812 0.48804 0.0
C139 C 0.77697 0.03763 0.46711 0.0
C140 C 0.79225 0.0953 0.46488 0.0
C141 C 0.78158 0.12359 0.48353 0.0
C142 C 0.69968 0.12931 0.52446 0.0
C143 C 0.70431 0.18271 0.5226 0.0
C144 C 0.65367 0.18561 0.52133 0.0
C145 C 0.597 0.13493 0.52216 0.0
C146 C 0.59247 0.08115 0.5239 0.0
C147 C 0.64326 0.07829 0.52484 0.0
C148 C 0.3596 0.13088 0.54451 0.0
C149 C 0.3444 0.16628 0.55671 0.0
C150 C 0.30948 0.14647 0.57685 0.0
C151 C 0.28937 0.09083 0.58524 0.0
C152 C 0.3059 0.05582 0.57345 0.0
C153 C 0.34064 0.07559 0.55319 0.0
C154 C 0.35251 0.13746 0.50016 0.0
C155 C 0.30508 0.08057 0.49344 0.0
C156 C 0.26266 0.07067 0.47455 0.0
C157 C 0.26696 0.11734 0.46194 0.0
C158 C 0.31609 0.17371 0.46783 0.0
C159 C 0.3584 0.18355 0.48675 0.0
C160 C 0.44168 0.14614 0.52095 0.0
C161 C 0.49522 0.1896 0.53312 0.0
C162 C 0.54532 0.18587 0.53356 0.0
C163 C 0.54322 0.13856 0.52158 0.0
C164 C 0.48936 0.09491 0.50926 0.0
C165 C 0.43896 0.0984 0.50908 0.0
H166 H 0.73459 0.73397 0.87903 0.0
N167 N 0.77741 0.66578 0.86573 0.0
H168 H 0.78213 0.81579 0.90952 0.0
H169 H 0.86662 0.69365 0.89866 0.0
H170 H 0.91498 0.77613 0.929 0.0
H171 H 0.86617 0.66875 0.84405 0.0
H172 H 0.91185 0.71826 0.80666 0.0
H173 H 0.74697 0.72965 0.83764 0.0
H174 H 0.7949 0.78257 0.80169 0.0
H175 H 0.69179 0.62903 0.89954 0.0
H176 H 0.71868 0.59492 0.82482 0.0
H177 H 0.5875 0.55411 0.89285 0.0
H178 H 0.61436 0.52013 0.81844 0.0
H179 H 0.25624 0.3351 0.86975 0.0
H180 H 0.21845 0.2765 0.90579 0.0
H181 H 0.35418 0.23631 0.90359 0.0
H182 H 0.39069 0.29382 0.86707 0.0
H183 H 0.34484 0.25907 0.82436 0.0
H184 H 0.27522 0.19149 0.79143 0.0
H185 H 0.20513 0.30092 0.78067 0.0
H186 H 0.27521 0.36866 0.81385 0.0
H187 H 0.3927 0.45966 0.86281 0.0
H188 H 0.49781 0.53682 0.86799 0.0
H189 H 0.54264 0.42312 0.83295 0.0
N190 N 0.34536 0.35239 0.84422 0.0
H191 H 0.43772 0.34656 0.82776 0.0
C192 C 0.79729 0.70757 0.88646 0.0
C193 C 0.77348 0.74231 0.89003 0.0
C194 C 0.80084 0.78928 0.90741 0.0
C195 C 0.85292 0.80301 0.92129 0.0
C196 C 0.87481 0.76654 0.91861 0.0
C197 C 0.84727 0.71941 0.90133 0.0
C198 C 0.80377 0.69596 0.84381 0.0
C199 C 0.85059 0.69356 0.83478 0.0
C200 C 0.87702 0.72242 0.81363 0.0
C201 C 0.85762 0.75512 0.80139 0.0
C202 C 0.81079 0.75761 0.8106 0.0
C203 C 0.78376 0.72795 0.8314 0.0
C204 C 0.71399 0.62218 0.86209 0.0
C205 C 0.67572 0.60741 0.88141 0.0
C206 C 0.61563 0.56383 0.87769 0.0
C207 C 0.5924 0.5321 0.85493 0.0
C208 C 0.63073 0.54422 0.83611 0.0
C209 C 0.69061 0.58797 0.83973 0.0
C210 C 0.32641 0.31934 0.86595 0.0
C211 C 0.2778 0.31371 0.87712 0.0
C212 C 0.25638 0.28026 0.89762 0.0
C213 C 0.28335 0.25176 0.90744 0.0
C214 C 0.33204 0.2571 0.89619 0.0
C215 C 0.35333 0.29049 0.87551 0.0
C216 C 0.31556 0.31939 0.82143 0.0
C217 C 0.31627 0.26988 0.81433 0.0
C218 C 0.27627 0.2311 0.79549 0.0
C219 C 0.23481 0.24103 0.78352 0.0
C220 C 0.23658 0.29224 0.78966 0.0
C221 C 0.27678 0.33111 0.8084 0.0
C222 C 0.40717 0.39765 0.84473 0.0
C223 C 0.4253 0.45179 0.856 0.0
C224 C 0.48528 0.49551 0.85915 0.0
C225 C 0.52853 0.48597 0.85098 0.0
C226 C 0.5103 0.43196 0.83923 0.0
C227 C 0.45017 0.38804 0.83624 0.0
C228 C 0.01828 0.13462 0.0881 0.0
C229 C 0.00576 0.14037 0.06319 0.0
C230 C 0.00405 0.15916 0.10719 0.0
C231 C 0.97605 0.18965 0.10213 0.0
H232 H 0.0421 0.11372 0.09298 0.0
H233 H 0.01649 0.1556 0.12608 0.0
S234 S 0.92695 0.21103 0.04039 0.0
N235 N 0.95859 0.17438 0.03465 0.0
N236 N 0.9318 0.22033 0.07074 0.0
C237 C 0.95975 0.19257 0.07748 0.0
C238 C 0.97463 0.16798 0.05796 0.0
C239 C 0.85846 0.97702 0.4364 0.0
C240 C 0.8483 0.98316 0.41134 0.0
C241 C 0.83155 0.99069 0.45459 0.0
C242 C 0.79385 0.01062 0.44809 0.0
H243 H 0.8903 0.9656 0.44204 0.0
H244 H 0.84337 0.98939 0.47385 0.0
S245 S 0.74572 0.02392 0.38468 0.0
N246 N 0.79292 1.0034 0.38077 0.0
N247 N 0.74179 0.028 0.41481 0.0
C248 C 0.77981 0.01207 0.42298 0.0
C249 C 0.80729 0.99865 0.40463 0.0
C250 C 0.87005 0.81298 0.73746 0.0
C251 C 0.93142 0.8467 0.73515 0.0
C252 C 0.84688 0.78237 0.75861 0.0
C253 C 0.88419 0.7852 0.77858 0.0
H254 H 0.83952 0.81022 0.72276 0.0
H255 H 0.79918 0.75654 0.75935 0.0
S256 S 0.04869 0.86961 0.78195 0.0
N257 N 0.02944 0.88152 0.75436 0.0
N258 N 0.98611 0.82583 0.79478 0.0
C259 C 0.94589 0.81861 0.77643 0.0
C260 C 0.96946 0.84899 0.75456 0.0
C261 C 0.12328 0.89642 0.08036 0.0
C262 C 0.09283 0.9248 0.07546 0.0
C263 C 0.1038 0.85275 0.09747 0.0
C264 C 0.05298 0.83561 0.11023 0.0
H265 H 0.16262 0.90802 0.07098 0.0
H266 H 0.12847 0.83198 0.10061 0.0
S267 S 0.9589 0.89786 0.10529 0.0
N268 N 0.00979 0.93319 0.08551 0.0
N269 N 0.97403 0.85191 0.11769 0.0
C270 C 0.02233 0.86377 0.10566 0.0
C271 C 0.042 0.9081 0.08829 0.0
C272 C 0.14453 0.13346 0.43298 0.0
C273 C 0.11632 0.08815 0.41452 0.0
C274 C 0.1939 0.14326 0.44768 0.0
C275 C 0.21739 0.10823 0.44465 0.0
H276 H 0.12786 0.16127 0.43649 0.0
H277 H 0.21284 0.17767 0.46205 0.0
S278 S 0.16371 0.98669 0.39793 0.0
N279 N 0.11807 0.00959 0.3933 0.0
N280 N 0.21117 0.02854 0.42099 0.0
C281 C 0.19085 0.06369 0.42595 0.0
C282 C 0.14041 0.05361 0.41087 0.0
C283 C 0.07882 0.12827 0.75795 0.0
C284 C 0.08773 0.09926 0.73863 0.0
C285 C 0.12669 0.17521 0.77177 0.0
C286 C 0.1855 0.19494 0.76696 0.0
H287 H 0.03448 0.11428 0.76274 0.0
H288 H 0.11754 0.19511 0.78686 0.0
S289 S 0.23389 0.13718 0.7176 0.0
N290 N 0.16085 0.09605 0.71474 0.0
N291 N 0.25046 0.18422 0.74091 0.0
C292 C 0.19537 0.16751 0.74741 0.0
C293 C 0.14663 0.11982 0.73318 0.0
C294 C 0.83079 1.00339 0.63976 0.0
C295 C 0.89062 0.0342 0.64847 0.0
C296 C 0.81009 0.02564 0.62167 0.0
C297 C 0.84822 0.08026 0.61205 0.0
H298 H 0.80019 0.9608 0.64634 0.0
H299 H 0.76421 0.99879 0.61464 0.0
S300 S 0.00763 0.18112 0.63179 0.0
N301 N 0.98716 0.12299 0.64776 0.0
N302 N 0.94787 0.16711 0.61488 0.0
C303 C 0.9078 0.11271 0.62169 0.0
C304 C 0.9291 0.08913 0.63963 0.0
C305 C 0.94606 0.90747 0.9757 0.0
C306 C 0.9634 0.96232 0.96677 0.0
C307 C 0.90876 0.85609 0.96124 0.0
C308 C 0.88702 0.85729 0.93728 0.0
H309 H 0.96236 0.90405 -0.00613 0.0
H310 H 0.89758 0.81509 0.96875 0.0
S311 S 0.91795 0.98886 0.90506 0.0
N312 N 0.95438 0.0141 0.93236 0.0
N313 N 0.88501 0.91759 0.90521 0.0
C314 C 0.90254 0.91149 0.9283 0.0
C315 C 0.94048 0.96391 0.94302 0.0
C316 C 0.91142 0.79414 0.30931 0.0
C317 C 0.95354 0.85377 0.31428 0.0
C318 C 0.91706 0.76283 0.29012 0.0
C319 C 0.96516 0.78972 0.27514 0.0
H320 H 0.87271 0.7716 0.31987 0.0
H321 H 0.88278 0.71737 0.28664 0.0
S322 S 0.08922 0.94405 0.28091 0.0
N323 N 0.04672 0.93786 0.30315 0.0
N324 N 0.05672 0.87891 0.26693 0.0
C325 C 0.00887 0.84866 0.28044 0.0
C326 C 1.00322 0.88068 0.30002 0.0
C327 C 0.15369 0.046 0.62023 0.0
C328 C 0.16164 0.02004 0.64105 0.0
C329 C 0.19574 0.06955 0.60259 0.0
C330 C 0.24732 0.0678 0.60492 0.0
H331 H 0.11445 0.04801 0.61736 0.0
H332 H 0.18719 0.08827 0.5867 0.0
S333 S 0.29123 0.00735 0.6563 0.0
N334 N 0.22657 0.99583 0.66331 0.0
N335 N 0.30549 0.04011 0.62993 0.0
C336 C 0.25649 0.04279 0.62572 0.0
C337 C 0.21379 0.01906 0.64386 0.0
C338 C 0.22514 0.21328 0.97073 0.0
C339 C 0.20963 0.1554 0.97248 0.0
C340 C 0.25069 0.24434 0.94999 0.0
C341 C 0.26141 0.21873 0.92998 0.0
H342 H 0.21683 0.2348 0.98544 0.0
H343 H 0.26138 0.28867 0.94948 0.0
S344 S 0.22981 0.06855 0.92544 0.0
N345 N 0.20822 0.07392 0.95277 0.0
N346 N 0.25556 0.13226 0.91328 0.0
C347 C 0.24774 0.16135 0.93169 0.0
C348 C 0.22197 0.12967 0.95306 0.0
C349 C 0.03426 0.21146 0.31247 0.0
C350 C 0.02257 0.15444 0.31088 0.0
C351 C 0.03129 0.23896 0.29137 0.0
C352 C 0.01659 0.21048 0.26794 0.0
H353 H 0.04181 0.2337 0.33027 0.0
H354 H 0.03621 0.28096 0.29362 0.0
S355 S 0.9956 0.0672 0.25284 0.0
N356 N 0.00588 0.07488 0.28324 0.0
N357 N 1.00025 0.12694 0.24367 0.0
C358 C 0.01106 0.15631 0.26574 0.0
C359 C 0.01432 0.12828 0.28719 0.0
loop_
_geom_bond_atom_site_label_1
_geom_bond_atom_site_label_2
_geom_bond_distance
_geom_bond_site_symmetry_2
_ccdc_geom_bond_type
Mg0 O1 2.022 1_445 S
Mg0 O7 1.986 . S
Mg0 O9 2.114 . S
Mg0 O10 2.251 . S
Mg0 O13 2.010 1_545 S
O1 Mg0 2.022 1_665 S
O1 C4 1.260 . S
O2 Mg3 2.028 1_655 S
O2 C4 1.248 1_546 S
Mg3 O2 2.028 1_455 S
Mg3 O8 2.032 1_556 S
Mg3 O10 2.079 1_556 S
C4 O1 1.260 . S
C4 O2 1.248 1_564 S
C5 O6 1.264 . S
C5 O13 1.249 . S
O6 C5 1.264 . S
O7 Mg0 1.986 . S
O7 C11 1.246 . S
O8 Mg3 2.032 1_554 S
O8 C11 1.259 . S
O9 Mg0 2.114 . S
O9 C12 1.252 . S
O10 Mg0 2.251 . S
O10 Mg3 2.079 1_554 S
O10 C12 1.273 . S
C11 O7 1.246 . S
C11 O8 1.259 . S
C12 O9 1.252 . S
C12 O10 1.273 . S
O13 Mg0 2.010 1_565 S
O13 C5 1.249 . S
Mg14 O15 2.028 1_665 S
Mg14 O21 1.986 1_665 S
Mg14 O23 2.114 . S
Mg14 O24 2.251 1_565 S
Mg14 O27 2.010 . S
O15 Mg14 2.028 1_445 S
O15 C18 1.250 . S
O16 Mg17 2.028 . S
O16 C18 1.248 . S
Mg17 O16 2.028 . S
Mg17 O22 2.032 . S
Mg17 O24 2.079 1_455 S
C18 O15 1.250 . S
C18 O16 1.248 . S
C19 O20 1.264 . S
C19 O27 1.249 . S
O20 C19 1.264 . S
O21 Mg14 1.986 1_445 S
O21 C25 1.246 . S
O22 Mg17 2.032 . S
O22 C25 1.259 . S
O23 Mg14 2.114 . S
O23 C26 1.252 . S
O24 Mg14 2.251 1_545 S
O24 Mg17 2.079 1_655 S
O24 C26 1.273 1_545 S
C25 O21 1.246 . S
C25 O22 1.259 . S
C26 O23 1.252 . S
C26 O24 1.273 1_565 S
O27 Mg14 2.010 . S
O27 C19 1.249 . S
Mg28 O29 2.028 1_565 S
Mg28 O35 1.986 1_465 S
Mg28 O37 2.114 1_455 S
Mg28 O38 2.251 1_455 S
Mg28 O41 2.010 . S
O29 Mg28 2.028 1_545 S
O29 C32 1.250 . S
O30 Mg31 2.028 1_455 S
O30 C32 1.248 . S
Mg31 O30 2.028 1_655 S
Mg31 O36 2.032 . S
Mg31 O38 2.079 1_545 S
C32 O29 1.250 . S
C32 O30 1.248 . S
C33 O34 1.264 . S
C33 O41 1.249 . S
O34 C33 1.264 . S
O35 Mg28 1.986 1_645 S
O35 C39 1.246 . S
O36 Mg31 2.032 . S
O36 C39 1.259 . S
O37 Mg28 2.114 1_655 S
O37 C40 1.252 . S
O38 Mg28 2.251 1_655 S
O38 Mg31 2.079 1_565 S
O38 C40 1.273 . S
C39 O35 1.246 . S
C39 O36 1.259 . S
C40 O37 1.252 . S
C40 O38 1.273 . S
O41 Mg28 2.010 . S
O41 C33 1.249 . S
H42 C69 0.929 . S
N43 C68 1.437 1_655 S
N43 C74 1.438 1_655 S
N43 C80 1.415 . S
H44 C70 0.930 . S
H45 C73 0.931 . S
H46 C72 0.929 . S
H47 C75 0.930 . S
H48 C76 0.932 . S
H49 C79 0.929 . S
H50 C78 0.931 . S
H51 C81 0.929 . S
H52 C85 0.932 . S
H53 C82 0.931 . S
H54 C84 0.929 . S
H55 C87 0.929 . S
H56 C88 0.930 . S
H57 C90 0.929 . S
H58 C91 0.931 . S
H59 C93 0.930 . S
H60 C94 0.932 . S
H61 C96 0.931 . S
H62 C97 0.929 . S
H63 C99 0.929 . S
H64 C100 0.931 . S
H65 C102 0.929 . S
N66 C86 1.429 1_655 S
N66 C92 1.424 1_655 S
N66 C98 1.437 . S
H67 C103 0.932 . S
C68 N43 1.437 1_455 S
C68 C69 1.363 1_455 S
C68 C73 1.370 . S
C69 H42 0.929 . S
C69 C68 1.363 1_655 S
C69 C70 1.385 . S
C70 H44 0.930 . S
C70 C69 1.385 . S
C70 C71 1.357 1_655 S
C71 C70 1.357 1_455 S
C71 C72 1.406 . S
C72 H46 0.929 . S
C72 C71 1.406 . S
C72 C73 1.391 . S
C73 H45 0.931 . S
C73 C68 1.370 . S
C73 C72 1.391 . S
C74 N43 1.438 1_455 S
C74 C75 1.358 . S
C74 C79 1.371 1_455 S
C75 H47 0.930 . S
C75 C74 1.358 . S
C75 C76 1.405 . S
C76 H48 0.932 . S
C76 C75 1.405 . S
C76 C77 1.383 . S
C77 C76 1.383 . S
C77 C78 1.393 1_455 S
C78 H50 0.931 . S
C78 C77 1.393 1_655 S
C78 C79 1.382 . S
C79 H49 0.929 . S
C79 C74 1.371 1_655 S
C79 C78 1.382 . S
C80 N43 1.415 . S
C80 C81 1.362 . S
C80 C85 1.388 1_655 S
C81 H51 0.929 . S
C81 C80 1.362 . S
C81 C82 1.376 . S
C82 H53 0.931 . S
C82 C81 1.376 . S
C82 C83 1.396 . S
C83 C82 1.396 . S
C83 C84 1.348 1_655 S
C83 C101 1.472 . S
C84 H54 0.929 . S
C84 C83 1.348 1_455 S
C84 C85 1.443 . S
C85 H52 0.932 . S
C85 C80 1.388 1_455 S
C85 C84 1.443 . S
C86 N66 1.429 1_455 S
C86 C87 1.363 1_455 S
C86 C91 1.370 . S
C87 H55 0.929 . S
C87 C86 1.363 1_655 S
C87 C88 1.385 . S
C88 H56 0.930 . S
C88 C87 1.385 . S
C88 C89 1.357 1_655 S
C89 C88 1.357 1_455 S
C89 C90 1.406 . S
C90 H57 0.929 . S
C90 C89 1.406 . S
C90 C91 1.391 . S
C91 H58 0.931 . S
C91 C86 1.370 . S
C91 C90 1.391 . S
C92 N66 1.424 1_455 S
C92 C93 1.358 . S
C92 C97 1.371 1_455 S
C93 H59 0.930 . S
C93 C92 1.358 . S
C93 C94 1.405 . S
C94 H60 0.932 . S
C94 C93 1.405 . S
C94 C95 1.383 . S
C95 C94 1.383 . S
C95 C96 1.393 1_455 S
C96 H61 0.931 . S
C96 C95 1.393 1_655 S
C96 C97 1.382 . S
C97 H62 0.929 . S
C97 C92 1.371 1_655 S
C97 C96 1.382 . S
C98 N66 1.437 . S
C98 C99 1.362 . S
C98 C103 1.388 1_655 S
C99 H63 0.929 . S
C99 C98 1.362 . S
C99 C100 1.376 . S
C100 H64 0.931 . S
C100 C99 1.376 . S
C100 C101 1.396 . S
C101 C83 1.472 . S
C101 C100 1.396 . S
C101 C102 1.348 1_655 S
C102 H65 0.929 . S
C102 C101 1.348 1_455 S
C102 C103 1.443 . S
C103 H67 0.932 . S
C103 C98 1.388 1_455 S
C103 C102 1.443 . S
H104 C131 0.929 . S
N105 C130 1.433 . S
N105 C136 1.435 . S
N105 C142 1.423 . S
H106 C132 0.930 . S
H107 C135 0.931 . S
H108 C134 0.927 1_565 S
H109 C137 0.930 1_565 S
H110 C138 0.932 1_565 S
H111 C141 0.929 . S
H112 C140 0.931 . S
H113 C143 0.929 . S
H114 C147 0.932 . S
H115 C144 0.931 . S
H116 C146 0.929 . S
H117 C149 0.929 . S
H118 C150 0.930 . S
H119 C152 0.920 1_565 S
H120 C153 0.931 . S
H121 C155 0.930 1_565 S
H122 C156 0.932 1_565 S
H123 C158 0.931 . S
H124 C159 0.929 . S
H125 C161 0.929 . S
H126 C162 0.931 . S
H127 C164 0.929 . S
N128 C148 1.433 . S
N128 C154 1.435 . S
N128 C160 1.423 . S
H129 C165 0.932 . S
C130 N105 1.433 . S
C130 C131 1.363 . S
C130 C135 1.370 . S
C131 H104 0.929 . S
C131 C130 1.363 . S
C131 C132 1.385 . S
C132 H106 0.930 . S
C132 C131 1.385 . S
C132 C133 1.357 . S
C133 C132 1.357 . S
C133 C134 1.406 . S
C134 H108 0.927 1_545 S
C134 C133 1.406 . S
C134 C135 1.391 . S
C135 H107 0.931 . S
C135 C130 1.370 . S
C135 C134 1.391 . S
C136 N105 1.435 . S
C136 C137 1.358 . S
C136 C141 1.371 . S
C137 H109 0.930 1_545 S
C137 C136 1.358 . S
C137 C138 1.405 . S
C138 H110 0.932 1_545 S
C138 C137 1.405 . S
C138 C139 1.383 . S
C139 C138 1.383 . S
C139 C140 1.393 . S
C140 H112 0.931 . S
C140 C139 1.393 . S
C140 C141 1.382 . S
C141 H111 0.929 . S
C141 C136 1.371 . S
C141 C140 1.382 . S
C142 N105 1.423 . S
C142 C143 1.362 . S
C142 C147 1.388 . S
C143 H113 0.929 . S
C143 C142 1.362 . S
C143 C144 1.376 . S
C144 H115 0.931 . S
C144 C143 1.376 . S
C144 C145 1.396 . S
C145 C144 1.396 . S
C145 C146 1.348 . S
C145 C163 1.472 . S
C146 H116 0.929 . S
C146 C145 1.348 . S
C146 C147 1.443 . S
C147 H114 0.932 . S
C147 C142 1.388 . S
C147 C146 1.443 . S
C148 N128 1.433 . S
C148 C149 1.363 . S
C148 C153 1.370 . S
C149 H117 0.929 . S
C149 C148 1.363 . S
C149 C150 1.385 . S
C150 H118 0.930 . S
C150 C149 1.385 . S
C150 C151 1.357 . S
C151 C150 1.357 . S
C151 C152 1.406 . S
C152 H119 0.920 1_545 S
C152 C151 1.406 . S
C152 C153 1.391 . S
C153 H120 0.931 . S
C153 C148 1.370 . S
C153 C152 1.391 . S
C154 N128 1.435 . S
C154 C155 1.358 . S
C154 C159 1.371 . S
C155 H121 0.930 1_545 S
C155 C154 1.358 . S
C155 C156 1.405 . S
C156 H122 0.932 1_545 S
C156 C155 1.405 . S
C156 C157 1.383 . S
C157 C156 1.383 . S
C157 C158 1.393 . S
C158 H123 0.931 . S
C158 C157 1.393 . S
C158 C159 1.382 . S
C159 H124 0.929 . S
C159 C154 1.371 . S
C159 C158 1.382 . S
C160 N128 1.423 . S
C160 C161 1.362 . S
C160 C165 1.388 . S
C161 H125 0.929 . S
C161 C160 1.362 . S
C161 C162 1.376 . S
C162 H126 0.931 . S
C162 C161 1.376 . S
C162 C163 1.396 . S
C163 C145 1.472 . S
C163 C162 1.396 . S
C163 C164 1.348 . S
C164 H127 0.929 . S
C164 C163 1.348 . S
C164 C165 1.443 . S
C165 H129 0.932 . S
C165 C160 1.388 . S
C165 C164 1.443 . S
H166 C193 0.929 . S
N167 C192 1.433 . S
N167 C198 1.435 . S
N167 C204 1.423 . S
H168 C194 0.930 . S
H169 C197 0.931 . S
H170 C196 0.929 . S
H171 C199 0.930 . S
H172 C200 0.932 . S
H173 C203 0.929 . S
H174 C202 0.931 . S
H175 C205 0.929 . S
H176 C209 0.932 . S
H177 C206 0.931 . S
H178 C208 0.929 . S
H179 C211 0.929 . S
H180 C212 0.930 . S
H181 C214 0.929 . S
H182 C215 0.931 . S
H183 C217 0.930 . S
H184 C218 0.932 . S
H185 C220 0.931 . S
H186 C221 0.929 . S
H187 C223 0.929 . S
H188 C224 0.931 . S
H189 C226 0.929 . S
N190 C210 1.433 . S
N190 C216 1.435 . S
N190 C222 1.423 . S
H191 C227 0.932 . S
C192 N167 1.433 . S
C192 C193 1.363 . S
C192 C197 1.370 . S
C193 H166 0.929 . S
C193 C192 1.363 . S
C193 C194 1.385 . S
C194 H168 0.930 . S
C194 C193 1.385 . S
C194 C195 1.357 . S
C195 C194 1.357 . S
C195 C196 1.406 . S
C196 H170 0.929 . S
C196 C195 1.406 . S
C196 C197 1.391 . S
C197 H169 0.931 . S
C197 C192 1.370 . S
C197 C196 1.391 . S
C198 N167 1.435 . S
C198 C199 1.358 . S
C198 C203 1.371 . S
C199 H171 0.930 . S
C199 C198 1.358 . S
C199 C200 1.405 . S
C200 H172 0.932 . S
C200 C199 1.405 . S
C200 C201 1.383 . S
C201 C200 1.383 . S
C201 C202 1.393 . S
C202 H174 0.931 . S
C202 C201 1.393 . S
C202 C203 1.382 . S
C203 H173 0.929 . S
C203 C198 1.371 . S
C203 C202 1.382 . S
C204 N167 1.423 . S
C204 C205 1.362 . S
C204 C209 1.388 . S
C205 H175 0.929 . S
C205 C204 1.362 . S
C205 C206 1.376 . S
C206 H177 0.931 . S
C206 C205 1.376 . S
C206 C207 1.396 . S
C207 C206 1.396 . S
C207 C208 1.348 . S
C207 C225 1.472 . S
C208 H178 0.929 . S
C208 C207 1.348 . S
C208 C209 1.443 . S
C209 H176 0.932 . S
C209 C204 1.388 . S
C209 C208 1.443 . S
C210 N190 1.433 . S
C210 C211 1.363 . S
C210 C215 1.370 . S
C211 H179 0.929 . S
C211 C210 1.363 . S
C211 C212 1.385 . S
C212 H180 0.930 . S
C212 C211 1.385 . S
C212 C213 1.357 . S
C213 C212 1.357 . S
C213 C214 1.406 . S
C214 H181 0.929 . S
C214 C213 1.406 . S
C214 C215 1.391 . S
C215 H182 0.931 . S
C215 C210 1.370 . S
C215 C214 1.391 . S
C216 N190 1.435 . S
C216 C217 1.358 . S
C216 C221 1.371 . S
C217 H183 0.930 . S
C217 C216 1.358 . S
C217 C218 1.405 . S
C218 H184 0.932 . S
C218 C217 1.405 . S
C218 C219 1.383 . S
C219 C218 1.383 . S
C219 C220 1.393 . S
C220 H185 0.931 . S
C220 C219 1.393 . S
C220 C221 1.382 . S
C221 H186 0.929 . S
C221 C216 1.371 . S
C221 C220 1.382 . S
C222 N190 1.423 . S
C222 C223 1.362 . S
C222 C227 1.388 . S
C223 H187 0.929 . S
C223 C222 1.362 . S
C223 C224 1.376 . S
C224 H188 0.931 . S
C224 C223 1.376 . S
C224 C225 1.396 . S
C225 C207 1.472 . S
C225 C224 1.396 . S
C225 C226 1.348 . S
C226 H189 0.929 . S
C226 C225 1.348 . S
C226 C227 1.443 . S
C227 H191 0.932 . S
C227 C222 1.388 . S
C227 C226 1.443 . S
C228 C229 1.369 1_655 S
C228 C230 1.419 . S
C228 H232 0.930 . S
C229 C228 1.369 1_455 S
C229 C238 1.429 . S
C230 C228 1.419 . S
C230 C231 1.363 1_655 S
C230 H233 0.929 . S
C231 C230 1.363 1_455 S
C231 C237 1.428 . S
H232 C228 0.930 . S
H233 C230 0.929 . S
S234 N235 1.613 . S
S234 N236 1.610 . S
N235 S234 1.613 . S
N235 C238 1.350 . S
N236 S234 1.610 . S
N236 C237 1.351 . S
C237 C231 1.428 . S
C237 N236 1.351 . S
C237 C238 1.434 . S
C238 C229 1.429 . S
C238 N235 1.350 . S
C238 C237 1.434 . S
C239 C240 1.369 . S
C239 C241 1.419 . S
C239 H243 0.930 . S
C240 C239 1.369 . S
C240 C249 1.429 1_565 S
C241 C239 1.419 . S
C241 C242 1.363 1_565 S
C241 H244 0.929 . S
C242 C241 1.363 1_545 S
C242 C248 1.428 . S
H243 C239 0.930 . S
H244 C241 0.929 . S
S245 N246 1.613 . S
S245 N247 1.610 . S
N246 S245 1.613 . S
N246 C249 1.350 . S
N247 S245 1.610 . S
N247 C248 1.351 . S
C248 C242 1.428 . S
C248 N247 1.351 . S
C248 C249 1.434 . S
C249 C240 1.429 1_545 S
C249 N246 1.350 . S
C249 C248 1.434 . S
C250 C251 1.369 . S
C250 C252 1.419 . S
C250 H254 0.930 . S
C251 C250 1.369 . S
C251 C260 1.429 . S
C252 C250 1.419 . S
C252 C253 1.363 . S
C252 H255 0.929 . S
C253 C252 1.363 . S
C253 C259 1.428 . S
H254 C250 0.930 . S
H255 C252 0.929 . S
S256 N257 1.613 1_455 S
S256 N258 1.607 1_455 S
N257 S256 1.613 1_655 S
N257 C260 1.350 . S
N258 S256 1.607 1_655 S
N258 C259 1.351 . S
C259 C253 1.428 . S
C259 N258 1.351 . S
C259 C260 1.434 . S
C260 C251 1.429 . S
C260 N257 1.350 . S
C260 C259 1.434 . S
C261 C262 1.369 . S
C261 C263 1.419 . S
C261 H265 0.930 . S
C262 C261 1.369 . S
C262 C271 1.429 . S
C263 C261 1.419 . S
C263 C264 1.363 . S
C263 H266 0.929 . S
C264 C263 1.363 . S
C264 C270 1.428 1_455 S
H265 C261 0.930 . S
H266 C263 0.929 . S
S267 N268 1.613 . S
S267 N269 1.610 . S
N268 S267 1.613 . S
N268 C271 1.350 1_655 S
N269 S267 1.610 . S
N269 C270 1.351 . S
C270 C264 1.428 1_655 S
C270 N269 1.351 . S
C270 C271 1.434 1_655 S
C271 C262 1.429 . S
C271 N268 1.350 1_455 S
C271 C270 1.434 1_455 S
C272 C273 1.369 . S
C272 C274 1.419 . S
C272 H276 0.930 . S
C273 C272 1.369 . S
C273 C282 1.429 . S
C274 C272 1.419 . S
C274 C275 1.363 . S
C274 H277 0.929 . S
C275 C274 1.363 . S
C275 C281 1.428 . S
H276 C272 0.930 . S
H277 C274 0.929 . S
S278 N279 1.613 . S
S278 N280 1.610 . S
N279 S278 1.613 . S
N279 C282 1.350 . S
N280 S278 1.610 . S
N280 C281 1.351 . S
C281 C275 1.428 . S
C281 N280 1.351 . S
C281 C282 1.434 . S
C282 C273 1.429 . S
C282 N279 1.350 . S
C282 C281 1.434 . S
C283 C284 1.369 . S
C283 C285 1.419 . S
C283 H287 0.930 . S
C284 C283 1.369 . S
C284 C293 1.429 . S
C285 C283 1.419 . S
C285 C286 1.363 . S
C285 H288 0.929 . S
C286 C285 1.363 . S
C286 C292 1.428 . S
H287 C283 0.930 . S
H288 C285 0.929 . S
S289 N290 1.613 . S
S289 N291 1.610 . S
N290 S289 1.613 . S
N290 C293 1.350 . S
N291 S289 1.610 . S
N291 C292 1.351 . S
C292 C286 1.428 . S
C292 N291 1.351 . S
C292 C293 1.434 . S
C293 C284 1.429 . S
C293 N290 1.350 . S
C293 C292 1.434 . S
C294 C295 1.369 . S
C294 C296 1.419 . S
C294 H298 0.930 1_545 S
C295 C294 1.369 . S
C295 C304 1.429 . S
C296 C294 1.419 . S
C296 C297 1.363 . S
C296 H299 0.929 1_545 S
C297 C296 1.363 . S
C297 C303 1.428 . S
H298 C294 0.930 1_565 S
H299 C296 0.929 1_565 S
S300 N301 1.613 . S
S300 N302 1.610 . S
N301 S300 1.613 . S
N301 C304 1.350 . S
N302 S300 1.610 . S
N302 C303 1.351 . S
C303 C297 1.428 . S
C303 N302 1.351 . S
C303 C304 1.434 . S
C304 C295 1.429 . S
C304 N301 1.350 . S
C304 C303 1.434 . S
C305 C306 1.369 . S
C305 C307 1.419 . S
C305 H309 0.930 1_556 S
C306 C305 1.369 . S
C306 C315 1.429 . S
C307 C305 1.419 . S
C307 C308 1.363 . S
C307 H310 0.929 . S
C308 C307 1.363 . S
C308 C314 1.428 . S
H309 C305 0.930 1_554 S
H310 C307 0.929 . S
S311 N312 1.613 . S
S311 N313 1.610 . S
N312 S311 1.613 . S
N312 C315 1.350 . S
N313 S311 1.610 . S
N313 C314 1.351 . S
C314 C308 1.428 . S
C314 N313 1.351 . S
C314 C315 1.434 . S
C315 C306 1.429 . S
C315 N312 1.350 . S
C315 C314 1.434 . S
C316 C317 1.369 . S
C316 C318 1.419 . S
C316 H320 0.930 . S
C317 C316 1.369 . S
C317 C326 1.429 1_655 S
C318 C316 1.419 . S
C318 C319 1.363 1_655 S
C318 H321 0.929 . S
C319 C318 1.363 1_455 S
C319 C325 1.428 . S
H320 C316 0.930 . S
H321 C318 0.929 . S
S322 N323 1.613 . S
S322 N324 1.610 . S
N323 S322 1.613 . S
N323 C326 1.350 . S
N324 S322 1.610 . S
N324 C325 1.351 . S
C325 C319 1.428 . S
C325 N324 1.351 . S
C325 C326 1.434 . S
C326 C317 1.429 1_455 S
C326 N323 1.350 . S
C326 C325 1.434 . S
C327 C328 1.369 1_545 S
C327 C329 1.419 . S
C327 H331 0.930 . S
C328 C327 1.369 1_565 S
C328 C337 1.429 . S
C329 C327 1.419 . S
C329 C330 1.363 . S
C329 H332 0.929 . S
C330 C329 1.363 . S
C330 C336 1.428 1_545 S
H331 C327 0.930 . S
H332 C329 0.929 . S
S333 N334 1.613 . S
S333 N335 1.610 . S
N334 S333 1.613 . S
N334 C337 1.350 . S
N335 S333 1.610 . S
N335 C336 1.351 . S
C336 C330 1.428 1_565 S
C336 N335 1.351 . S
C336 C337 1.434 . S
C337 C328 1.429 . S
C337 N334 1.350 . S
C337 C336 1.434 . S
C338 C339 1.369 . S
C338 C340 1.419 . S
C338 H342 0.930 . S
C339 C338 1.369 . S
C339 C348 1.429 . S
C340 C338 1.419 . S
C340 C341 1.363 . S
C340 H343 0.929 . S
C341 C340 1.363 . S
C341 C347 1.428 . S
H342 C338 0.930 . S
H343 C340 0.929 . S
S344 N345 1.613 . S
S344 N346 1.610 . S
N345 S344 1.613 . S
N345 C348 1.350 . S
N346 S344 1.610 . S
N346 C347 1.351 . S
C347 C341 1.428 . S
C347 N346 1.351 . S
C347 C348 1.434 . S
C348 C339 1.429 . S
C348 N345 1.350 . S
C348 C347 1.434 . S
C349 C350 1.369 1_655 S
C349 C351 1.419 . S
C349 H353 0.930 . S
C350 C349 1.369 1_455 S
C350 C359 1.429 . S
C351 C349 1.419 . S
C351 C352 1.363 1_655 S
C351 H354 0.929 . S
C352 C351 1.363 1_455 S
C352 C358 1.428 . S
H353 C349 0.930 . S
H354 C351 0.929 . S
S355 N356 1.613 . S
S355 N357 1.610 . S
N356 S355 1.613 . S
N356 C359 1.350 . S
N357 S355 1.610 . S
N357 C358 1.351 . S
C358 C352 1.428 . S
C358 N357 1.351 . S
C358 C359 1.434 . S
C359 C350 1.429 . S
C359 N356 1.350 . S
C359 C358 1.434 . S
C231 C95 1.329 . S
C229 C11 1.322 . S
C240 C26 1.478 . S
C242 C139 1.508 . S
C251 C40 1.390 . S
C253 C201 1.411 . S
C262 C5 1.180 . S
C264 C77 1.343 . S
C275 C157 1.463 . S
C273 C18 1.434 . S
C284 C32 1.342 . S
C286 C219 1.373 . S
C297 C133 1.387 . S
C295 C39 1.459 . S
C306 C4 1.633 1_556 S
C308 C195 1.515 . S
C319 C71 1.502 . S
C317 C19 1.511 . S
C330 C151 1.471 . S
C328 C33 1.436 . S
C341 C213 1.567 . S
C339 C12 1.645 1_556 S
C350 C25 1.578 . S
C352 C89 1.518 . S
