# Generated by pormake.
# Topology nom, (4,4)-cn, num edge types: 1
# Building blocks:
#     Node 0, Type 0, BuildingBlock: MUDLON_clean_linker_0, # of connection points: 4
#     Node 1, Type 0, BuildingBlock: MUDLON_clean_linker_0, # of connection points: 4
#     Node 2, Type 0, BuildingBlock: MUDLON_clean_linker_0, # of connection points: 4
#     Node 3, Type 0, BuildingBlock: MUDLON_clean_linker_0, # of connection points: 4
#     Node 4, Type 0, BuildingBlock: MUDLON_clean_linker_0, # of connection points: 4
#     Node 5, Type 0, BuildingBlock: MUDLON_clean_linker_0, # of connection points: 4
#     Node 6, Type 1, BuildingBlock: QUQFOY_clean_sbu_1, # of connection points: 4
#     Node 7, Type 1, BuildingBlock: QUQFOY_clean_sbu_1, # of connection points: 4
#     Node 8, Type 1, BuildingBlock: QUQFOY_clean_sbu_1, # of connection points: 4
#     Node 9, Type 1, BuildingBlock: QUQFOY_clean_sbu_1, # of connection points: 4
#     Node 10, Type 1, BuildingBlock: QUQFOY_clean_sbu_1, # of connection points: 4
#     Node 11, Type 1, BuildingBlock: QUQFOY_clean_sbu_1, # of connection points: 4
#     Edge 12, Type (0, 1), BuildingBlock: ZUJKAS_clean_linker_0, # of connection points: 2
#     Edge 13, Type (0, 1), BuildingBlock: ZUJKAS_clean_linker_0, # of connection points: 2
#     Edge 14, Type (0, 1), BuildingBlock: ZUJKAS_clean_linker_0, # of connection points: 2
#     Edge 15, Type (0, 1), BuildingBlock: ZUJKAS_clean_linker_0, # of connection points: 2
#     Edge 16, Type (0, 1), BuildingBlock: ZUJKAS_clean_linker_0, # of connection points: 2
#     Edge 17, Type (0, 1), BuildingBlock: ZUJKAS_clean_linker_0, # of connection points: 2
#     Edge 18, Type (0, 1), BuildingBlock: ZUJKAS_clean_linker_0, # of connection points: 2
#     Edge 19, Type (0, 1), BuildingBlock: ZUJKAS_clean_linker_0, # of connection points: 2
#     Edge 20, Type (0, 1), BuildingBlock: ZUJKAS_clean_linker_0, # of connection points: 2
#     Edge 21, Type (0, 1), BuildingBlock: ZUJKAS_clean_linker_0, # of connection points: 2
#     Edge 22, Type (0, 1), BuildingBlock: ZUJKAS_clean_linker_0, # of connection points: 2
#     Edge 23, Type (0, 1), BuildingBlock: ZUJKAS_clean_linker_0, # of connection points: 2
#     Edge 24, Type (0, 1), BuildingBlock: ZUJKAS_clean_linker_0, # of connection points: 2
#     Edge 25, Type (0, 1), BuildingBlock: ZUJKAS_clean_linker_0, # of connection points: 2
#     Edge 26, Type (0, 1), BuildingBlock: ZUJKAS_clean_linker_0, # of connection points: 2
#     Edge 27, Type (0, 1), BuildingBlock: ZUJKAS_clean_linker_0, # of connection points: 2
#     Edge 28, Type (0, 1), BuildingBlock: ZUJKAS_clean_linker_0, # of connection points: 2
#     Edge 29, Type (0, 1), BuildingBlock: ZUJKAS_clean_linker_0, # of connection points: 2
#     Edge 30, Type (0, 1), BuildingBlock: ZUJKAS_clean_linker_0, # of connection points: 2
#     Edge 31, Type (0, 1), BuildingBlock: ZUJKAS_clean_linker_0, # of connection points: 2
#     Edge 32, Type (0, 1), BuildingBlock: ZUJKAS_clean_linker_0, # of connection points: 2
#     Edge 33, Type (0, 1), BuildingBlock: ZUJKAS_clean_linker_0, # of connection points: 2
#     Edge 34, Type (0, 1), BuildingBlock: ZUJKAS_clean_linker_0, # of connection points: 2
#     Edge 35, Type (0, 1), BuildingBlock: ZUJKAS_clean_linker_0, # of connection points: 2
# Relax obj value: 0.009
# Max RMSD: 0.104
# Mean RMSD: 0.097
data_MOF--net-nom--node1-QUQFOY_clean_sbu_1--node2-MUDLON_clean_linker_0--edge1-ZUJKAS_clean_linker_0
_symmetry_space_group_name_H-M    P1
_symmetry_Int_Tables_number       1
_symmetry_cell_setting            triclinic
loop_
_symmetry_equiv_pos_as_xyz
'x, y, z'
_cell_length_a     76.751892
_cell_length_b     77.661963
_cell_length_c     70.014477
_cell_angle_alpha  90.358863
_cell_angle_beta   89.815178
_cell_angle_gamma 120.39417
loop_
_atom_site_label
_atom_site_type_symbol
_atom_site_fract_x
_atom_site_fract_y
_atom_site_fract_z
_atom_type_partial_charge
H0 H 0.09044 0.57089 0.29799 0.0
N1 N 0.08393 0.59776 0.31739 0.0
H2 H 0.11718 0.57915 0.27425 0.0
H3 H 0.10699 0.63273 0.30098 0.0
H4 H 0.13341 0.64112 0.27717 0.0
H5 H 0.09347 0.62534 0.34429 0.0
H6 H 0.11195 0.62926 0.37403 0.0
H7 H 0.09397 0.57123 0.33165 0.0
H8 H 0.11255 0.57509 0.36107 0.0
H9 H 0.05953 0.55767 0.32405 0.0
H10 H 0.06011 0.61025 0.30396 0.0
H11 H 0.02278 0.53852 0.32109 0.0
H12 H 0.02356 0.59107 0.29977 0.0
H13 H 0.92329 0.48426 0.29076 0.0
H14 H 0.90547 0.46628 0.26195 0.0
H15 H 0.90791 0.51963 0.24084 0.0
H16 H 0.92612 0.53764 0.26972 0.0
H17 H 0.90953 0.53523 0.31216 0.0
H18 H 0.88186 0.51903 0.33508 0.0
H19 H 0.89925 0.47519 0.34667 0.0
H20 H 0.92729 0.4919 0.32384 0.0
H21 H 0.95819 0.5062 0.29651 0.0
H22 H 0.99482 0.52382 0.30021 0.0
H23 H 0.99399 0.57691 0.31775 0.0
N24 N 0.93388 0.52257 0.30029 0.0
H25 H 0.95754 0.55945 0.3128 0.0
C26 C 0.09699 0.60133 0.30131 0.0
C27 C 0.09964 0.58618 0.29331 0.0
C28 C 0.11489 0.59091 0.27978 0.0
C29 C 0.12743 0.61079 0.27387 0.0
C30 C 0.12388 0.62564 0.28121 0.0
C31 C 0.10886 0.62092 0.29483 0.0
C32 C 0.09228 0.59803 0.33583 0.0
C33 C 0.09727 0.61415 0.34813 0.0
C34 C 0.10796 0.61643 0.36497 0.0
C35 C 0.11384 0.60256 0.36982 0.0
C36 C 0.10807 0.58593 0.35784 0.0
C37 C 0.09744 0.58371 0.34096 0.0
C38 C 0.06249 0.58553 0.31454 0.0
C39 C 0.05178 0.56507 0.31888 0.0
C40 C 0.0307 0.55408 0.317 0.0
C41 C 0.02003 0.56326 0.31046 0.0
C42 C 0.03107 0.58357 0.30542 0.0
C43 C 0.052 0.59455 0.30758 0.0
C44 C 0.92607 0.51238 0.28236 0.0
C45 C 0.9204 0.49224 0.27981 0.0
C46 C 0.91003 0.4819 0.26337 0.0
C47 C 0.9051 0.49147 0.24919 0.0
C48 C 0.91163 0.51187 0.2514 0.0
C49 C 0.922 0.52218 0.26787 0.0
C50 C 0.92024 0.51466 0.31621 0.0
C51 C 0.90767 0.52245 0.32005 0.0
C52 C 0.89192 0.51318 0.33316 0.0
C53 C 0.88832 0.49576 0.34261 0.0
C54 C 0.90157 0.48849 0.33945 0.0
C55 C 0.91756 0.49799 0.32645 0.0
C56 C 0.95518 0.53171 0.30401 0.0
C57 C 0.96588 0.52163 0.30106 0.0
C58 C 0.9869 0.53173 0.30336 0.0
C59 C 0.99754 0.55196 0.30898 0.0
C60 C 0.98651 0.56157 0.31281 0.0
C61 C 0.96563 0.55158 0.31021 0.0
H62 H 0.43985 0.92023 0.47069 0.0
N63 N 0.41446 0.93414 0.46195 0.0
H64 H 0.43182 0.89229 0.49187 0.0
H65 H 0.38492 0.91845 0.48743 0.0
H66 H 0.37708 0.89098 0.50927 0.0
H67 H 0.38048 0.91412 0.44217 0.0
H68 H 0.37534 0.89557 0.41232 0.0
H69 H 0.44428 0.93531 0.4394 0.0
H70 H 0.43941 0.91721 0.40949 0.0
H71 H 0.45565 0.95634 0.46567 0.0
H72 H 0.40127 0.95953 0.46476 0.0
H73 H 0.47592 0.99267 0.46834 0.0
H74 H 0.42111 0.99565 0.46883 0.0
H75 H 0.52824 0.09089 0.49572 0.0
H76 H 0.54257 0.10755 0.52606 0.0
H77 H 0.48789 0.10874 0.53816 0.0
H78 H 0.4734 0.09122 0.50804 0.0
H79 H 0.47905 0.10514 0.46616 0.0
H80 H 0.49737 0.1332 0.44445 0.0
H81 H 0.54532 0.11957 0.44029 0.0
H82 H 0.52649 0.09113 0.46191 0.0
H83 H 0.5039 0.05618 0.49317 0.0
H84 H 0.48574 0.02024 0.48844 0.0
H85 H 0.44238 0.02496 0.45286 0.0
N86 N 0.49182 0.08224 0.48092 0.0
H87 H 0.4599 0.0608 0.45887 0.0
C88 C 0.41276 0.9212 0.47733 0.0
C89 C 0.42636 0.91423 0.47936 0.0
C90 C 0.42178 0.89827 0.49156 0.0
C91 C 0.4036 0.88914 0.50199 0.0
C92 C 0.39097 0.89736 0.5011 0.0
C93 C 0.39549 0.91317 0.48882 0.0
C94 C 0.41267 0.92609 0.44302 0.0
C95 C 0.39343 0.91514 0.43485 0.0
C96 C 0.39055 0.9046 0.4178 0.0
C97 C 0.40696 0.9048 0.4086 0.0
C98 C 0.42642 0.91652 0.41638 0.0
C99 C 0.42926 0.92705 0.43345 0.0
C100 C 0.42694 0.95533 0.46464 0.0
C101 C 0.44807 0.96487 0.46604 0.0
C102 C 0.45964 0.98569 0.46782 0.0
C103 C 0.45025 0.99729 0.46857 0.0
C104 C 0.42902 0.98744 0.46771 0.0
C105 C 0.41757 0.96675 0.46561 0.0
C106 C 0.49962 0.08964 0.49974 0.0
C107 C 0.51916 0.09431 0.5051 0.0
C108 C 0.52743 0.10407 0.52239 0.0
C109 C 0.51648 0.1097 0.53453 0.0
C110 C 0.49668 0.10442 0.52935 0.0
C111 C 0.48836 0.09445 0.51213 0.0
C112 C 0.5015 0.09629 0.46572 0.0
C113 C 0.49326 0.10793 0.46015 0.0
C114 C 0.50375 0.1239 0.44772 0.0
C115 C 0.52285 0.12865 0.4407 0.0
C116 C 0.53072 0.11636 0.44561 0.0
C117 C 0.52001 0.10015 0.45792 0.0
C118 C 0.48305 0.06128 0.47662 0.0
C119 C 0.49052 0.0496 0.48436 0.0
C120 C 0.48014 0.02889 0.48149 0.0
C121 C 0.46232 0.01948 0.47051 0.0
C122 C 0.45563 0.03146 0.46191 0.0
C123 C 0.46577 0.05203 0.46511 0.0
H124 H 0.4486 0.54411 0.64811 0.0
N125 N 0.42896 0.50392 0.65541 0.0
H126 H 0.43704 0.56076 0.6266 0.0
H127 H 0.4007 0.48679 0.62871 0.0
H128 H 0.38919 0.5034 0.60672 0.0
H129 H 0.39466 0.48995 0.67463 0.0
H130 H 0.38872 0.5038 0.70373 0.0
H131 H 0.45829 0.53311 0.67822 0.0
H132 H 0.45264 0.54662 0.70748 0.0
H133 H 0.46896 0.52956 0.64683 0.0
H134 H 0.42486 0.46806 0.65809 0.0
H135 H 0.49527 0.52096 0.64423 0.0
H136 H 0.45095 0.45902 0.65457 0.0
H137 H 0.57297 0.48401 0.6232 0.0
H138 H 0.57916 0.47286 0.59245 0.0
H139 H 0.51519 0.43128 0.58645 0.0
H140 H 0.50914 0.44257 0.61716 0.0
H141 H 0.51248 0.42893 0.64645 0.0
H142 H 0.51975 0.40654 0.66453 0.0
H143 H 0.57482 0.45717 0.68556 0.0
H144 H 0.5675 0.47959 0.66719 0.0
H145 H 0.53424 0.49649 0.62236 0.0
H146 H 0.50773 0.50484 0.62476 0.0
H147 H 0.47963 0.46172 0.66998 0.0
N148 N 0.53807 0.46917 0.64178 0.0
H149 H 0.50547 0.45282 0.66709 0.0
C150 C 0.42541 0.51409 0.64008 0.0
C151 C 0.436 0.53506 0.63876 0.0
C152 C 0.42936 0.54461 0.62639 0.0
C153 C 0.41202 0.53342 0.61511 0.0
C154 C 0.40238 0.51245 0.61547 0.0
C155 C 0.40903 0.50293 0.62786 0.0
C156 C 0.42683 0.51034 0.67421 0.0
C157 C 0.40741 0.50205 0.682 0.0
C158 C 0.40408 0.50998 0.69864 0.0
C159 C 0.4202 0.52645 0.70787 0.0
C160 C 0.43984 0.53416 0.70055 0.0
C161 C 0.44313 0.52626 0.68385 0.0
C162 C 0.44486 0.49939 0.65278 0.0
C163 C 0.46486 0.51415 0.6486 0.0
C164 C 0.47993 0.50914 0.64695 0.0
C165 C 0.47532 0.48926 0.6492 0.0
C166 C 0.45521 0.47453 0.6531 0.0
C167 C 0.44022 0.47961 0.65494 0.0
C168 C 0.5407 0.46412 0.6225 0.0
C169 C 0.56029 0.47277 0.61504 0.0
C170 C 0.56376 0.4664 0.59749 0.0
C171 C 0.54766 0.45111 0.58711 0.0
C172 C 0.52791 0.44292 0.59426 0.0
C173 C 0.52443 0.4494 0.61177 0.0
C174 C 0.53957 0.45604 0.65538 0.0
C175 C 0.52595 0.43529 0.65516 0.0
C176 C 0.53015 0.42248 0.66547 0.0
C177 C 0.54798 0.4301 0.67625 0.0
C178 C 0.56091 0.45088 0.67745 0.0
C179 C 0.55675 0.4637 0.66702 0.0
C180 C 0.52186 0.47357 0.64399 0.0
C181 C 0.52222 0.48862 0.63265 0.0
C182 C 0.50713 0.49356 0.63419 0.0
C183 C 0.49139 0.48389 0.64749 0.0
C184 C 0.49121 0.46915 0.65922 0.0
C185 C 0.50621 0.46404 0.65754 0.0
H186 H 0.09659 0.54134 0.80569 0.0
N187 N 0.07583 0.50147 0.79644 0.0
H188 H 0.1245 0.55746 0.82815 0.0
H189 H 0.08658 0.48365 0.82223 0.0
H190 H 0.1144 0.49973 0.8452 0.0
H191 H 0.09671 0.48943 0.77574 0.0
H192 H 0.11604 0.50462 0.74666 0.0
H193 H 0.07553 0.53131 0.77592 0.0
H194 H 0.09435 0.54627 0.74663 0.0
H195 H 0.0611 0.52492 0.81028 0.0
H196 H 0.04372 0.46664 0.7877 0.0
H197 H 0.02571 0.51527 0.81335 0.0
H198 H 0.00811 0.457 0.79012 0.0
H199 H 0.92685 0.48723 0.83571 0.0
H200 H 0.9082 0.47683 0.86588 0.0
H201 H 0.89674 0.4169 0.8565 0.0
H202 H 0.91446 0.42716 0.82623 0.0
H203 H 0.92017 0.42836 0.79277 0.0
H204 H 0.89106 0.4094 0.77204 0.0
H205 H 0.88087 0.45928 0.77106 0.0
H206 H 0.90951 0.47774 0.79266 0.0
H207 H 0.96134 0.49869 0.79797 0.0
H208 H 0.99681 0.50809 0.79433 0.0
H209 H 0.98204 0.44931 0.81312 0.0
N210 N 0.93087 0.46426 0.80993 0.0
H211 H 0.94679 0.43994 0.81608 0.0
C212 C 0.0895 0.51118 0.81219 0.0
C213 C 0.09996 0.53206 0.81457 0.0
C214 C 0.11597 0.54131 0.82752 0.0
C215 C 0.12186 0.52991 0.83833 0.0
C216 C 0.11046 0.50896 0.83686 0.0
C217 C 0.09446 0.49973 0.82389 0.0
C218 C 0.08464 0.50911 0.77797 0.0
C219 C 0.09588 0.50161 0.76922 0.0
C220 C 0.10686 0.51029 0.75259 0.0
C221 C 0.10681 0.52673 0.74434 0.0
C222 C 0.09494 0.53381 0.75277 0.0
C223 C 0.08399 0.52513 0.76944 0.0
C224 C 0.0551 0.49635 0.79892 0.0
C225 C 0.04972 0.51002 0.80601 0.0
C226 C 0.02938 0.50452 0.80758 0.0
C227 C 0.014 0.48534 0.80198 0.0
C228 C 0.0195 0.47177 0.79486 0.0
C229 C 0.03981 0.47726 0.79337 0.0
C230 C 0.92224 0.45814 0.82872 0.0
C231 C 0.92057 0.47194 0.84038 0.0
C232 C 0.90996 0.46596 0.85763 0.0
C233 C 0.90084 0.44597 0.86357 0.0
C234 C 0.90327 0.43233 0.85222 0.0
C235 C 0.91372 0.43829 0.83493 0.0
C236 C 0.91685 0.45443 0.79449 0.0
C237 C 0.9119 0.43535 0.7879 0.0
C238 C 0.89525 0.42454 0.77589 0.0
C239 C 0.88336 0.43266 0.77011 0.0
C240 C 0.88936 0.45235 0.77559 0.0
C241 C 0.90586 0.46304 0.78773 0.0
C242 C 0.95137 0.46872 0.80733 0.0
C243 C 0.96582 0.48784 0.80116 0.0
C244 C 0.98608 0.49321 0.79926 0.0
C245 C 0.99234 0.4795 0.80356 0.0
C246 C 0.97775 0.46019 0.80949 0.0
C247 C 0.95747 0.45482 0.81131 0.0
H248 H 0.53846 0.10587 0.98062 0.0
N249 N 0.55131 0.08187 0.96835 0.0
H250 H 0.55645 0.13504 0.00147 0.0
H251 H 0.58414 0.0903 0.99087 0.0
H252 H 0.60201 0.11918 0.01181 0.0
H253 H 0.59083 0.10132 0.95656 0.0
H254 H 0.60379 0.11972 0.92681 0.0
H255 H 0.52989 0.0818 0.93859 0.0
H256 H 0.54282 0.10007 0.90856 0.0
H257 H 0.51528 0.05081 0.97594 0.0
H258 H 0.57728 0.0673 0.96645 0.0
H259 H 0.50599 0.01589 0.97907 0.0
H260 H 0.56856 0.0328 0.97086 0.0
H261 H 0.47999 0.92367 0.00166 0.0
H262 H 0.46943 0.90558 0.0318 0.0
H263 H 0.52951 0.91554 0.04006 0.0
H264 H 0.54038 0.93454 0.01006 0.0
H265 H 0.53108 0.91842 0.96833 0.0
H266 H 0.51274 0.89014 0.94666 0.0
H267 H 0.46275 0.90095 0.94605 0.0
H268 H 0.48143 0.92939 0.96786 0.0
H269 H 0.49874 0.95859 0.00254 0.0
H270 H 0.50762 0.9929 -0.00123 0.0
H271 H 0.55264 0.00123 0.95676 0.0
N272 N 0.51743 0.93986 0.98516 0.0
H273 H 0.54445 0.96681 0.96156 0.0
C274 C 0.55986 0.09588 0.98402 0.0
C275 C 0.552 0.10837 0.98786 0.0
C276 C 0.56232 0.12503 -0.00021 0.0
C277 C 0.58081 0.12957 0.00812 0.0
C278 C 0.58796 0.11625 0.00535 0.0
C279 C 0.57761 0.09957 0.99344 0.0
C280 C 0.5593 0.09031 0.94988 0.0
C281 C 0.58018 0.10067 0.9461 0.0
C282 C 0.58761 0.11127 0.92911 0.0
C283 C 0.57431 0.11145 0.91548 0.0
C284 C 0.5534 0.1001 0.91878 0.0
C285 C 0.546 0.0897 0.93588 0.0
C286 C 0.54694 0.06172 0.97129 0.0
C287 C 0.52695 0.0469 0.97492 0.0
C288 C 0.52172 0.02695 0.9768 0.0
C289 C 0.53651 0.02137 0.97533 0.0
C290 C 0.55665 0.03637 0.97181 0.0
C291 C 0.56178 0.05628 0.9696 0.0
C292 C 0.51121 0.93094 0.0038 0.0
C293 C 0.4911 0.92253 0.01014 0.0
C294 C 0.48503 0.91212 0.02733 0.0
C295 C 0.49873 0.90934 0.03818 0.0
C296 C 0.51877 0.91766 0.03192 0.0
C297 C 0.52498 0.92853 0.01493 0.0
C298 C 0.50761 0.92588 0.96975 0.0
C299 C 0.5164 0.91498 0.96309 0.0
C300 C 0.50587 0.89885 0.95068 0.0
C301 C 0.4862 0.8932 0.94468 0.0
C302 C 0.47778 0.90479 0.9506 0.0
C303 C 0.48844 0.92107 0.96298 0.0
C304 C 0.52108 0.95988 0.98241 0.0
C305 C 0.51054 0.96754 0.9925 0.0
C306 C 0.51557 0.9874 0.9902 0.0
C307 C 0.53095 1.00006 0.9775 0.0
C308 C 0.54103 0.99218 0.96702 0.0
C309 C 0.53622 0.97241 0.96957 0.0
H310 H 0.56552 0.48256 0.14041 0.0
N311 N 0.59155 0.52046 0.15312 0.0
H312 H 0.57382 0.46345 0.11802 0.0
H313 H 0.62403 0.53451 0.13122 0.0
H314 H 0.63267 0.51557 0.10907 0.0
H315 H 0.62331 0.53193 0.17554 0.0
H316 H 0.62484 0.51655 0.20536 0.0
H317 H 0.55915 0.49109 0.1724 0.0
H318 H 0.56035 0.47591 0.20243 0.0
H319 H 0.55118 0.50351 0.14523 0.0
H320 H 0.60637 0.55943 0.15386 0.0
H321 H 0.53268 0.52126 0.14119 0.0
H322 H 0.58836 0.57745 0.14895 0.0
H323 H 0.4853 0.57199 0.11887 0.0
H324 H 0.4672 0.57209 0.09025 0.0
H325 H 0.52231 0.62175 0.06818 0.0
H326 H 0.54029 0.62144 0.09688 0.0
H327 H 0.53655 0.63742 0.13602 0.0
H328 H 0.5196 0.65021 0.15632 0.0
H329 H 0.47586 0.58994 0.17288 0.0
H330 H 0.4933 0.5773 0.15273 0.0
H331 H 0.51304 0.56233 0.11262 0.0
H332 H 0.52828 0.54239 0.11962 0.0
H333 H 0.56502 0.58467 0.16337 0.0
N334 N 0.52432 0.59964 0.12803 0.0
H335 H 0.55046 0.60527 0.15564 0.0
C336 C 0.59425 0.50999 0.13745 0.0
C337 C 0.57996 0.49 0.13322 0.0
C338 C 0.5848 0.47905 0.12052 0.0
C339 C 0.60397 0.48792 0.11185 0.0
C340 C 0.61768 0.50829 0.11526 0.0
C341 C 0.61283 0.51917 0.12794 0.0
C342 C 0.5912 0.51275 0.17181 0.0
C343 C 0.60949 0.51993 0.18157 0.0
C344 C 0.61029 0.51115 0.19862 0.0
C345 C 0.59271 0.49494 0.20628 0.0
C346 C 0.57421 0.48819 0.19679 0.0
C347 C 0.57346 0.49698 0.17967 0.0
C348 C 0.58016 0.53024 0.15003 0.0
C349 C 0.55932 0.51961 0.14625 0.0
C350 C 0.54879 0.52983 0.14379 0.0
C351 C 0.55895 0.55083 0.14491 0.0
C352 C 0.57988 0.56129 0.14846 0.0
C353 C 0.59028 0.55107 0.15107 0.0
C354 C 0.51418 0.59682 0.10998 0.0
C355 C 0.49355 0.58267 0.10773 0.0
C356 C 0.48321 0.5828 0.0914 0.0
C357 C 0.49328 0.59707 0.07705 0.0
C358 C 0.51415 0.61045 0.07889 0.0
C359 C 0.52446 0.61032 0.09524 0.0
C360 C 0.51613 0.60652 0.14279 0.0
C361 C 0.5236 0.62705 0.1444 0.0
C362 C 0.51377 0.63427 0.15583 0.0
C363 C 0.49617 0.62103 0.16589 0.0
C364 C 0.48938 0.60047 0.16527 0.0
C365 C 0.49927 0.59324 0.15375 0.0
C366 C 0.5305 0.58558 0.13366 0.0
C367 C 0.52413 0.56738 0.12392 0.0
C368 C 0.53287 0.55578 0.128 0.0
C369 C 0.54808 0.56197 0.14192 0.0
C370 C 0.55369 0.57962 0.15224 0.0
C371 C 0.54516 0.59131 0.14802 0.0
O372 O 0.60541 0.37239 0.41574 0.0
Cd373 Cd 0.61434 0.36423 0.39111 0.0
Cd374 Cd 0.64969 0.39844 0.39832 0.0
O375 O 0.63538 0.39759 0.42356 0.0
O376 O 0.59359 0.33574 0.38681 0.0
O377 O 0.6256 0.3458 0.39298 0.0
C378 C 0.60746 0.33134 0.38965 0.0
C379 C 0.68356 0.4069 0.39929 0.0
C380 C 0.61675 0.38624 0.4273 0.0
C381 C 0.62687 0.39695 0.36278 0.0
O382 O 0.64127 0.40759 0.37418 0.0
O383 O 0.61486 0.3786 0.36629 0.0
O384 O 0.67818 0.41988 0.40257 0.0
O385 O 0.66954 0.38872 0.39584 0.0
O386 O 0.24974 0.61344 0.5788 0.0
Cd387 Cd 0.26777 0.62294 0.55475 0.0
Cd388 Cd 0.26901 0.65732 0.56301 0.0
O389 O 0.25469 0.64281 0.58784 0.0
O390 O 0.27639 0.60297 0.55061 0.0
O391 O 0.29774 0.63461 0.55785 0.0
C392 C 0.2946 0.61689 0.55441 0.0
C393 C 0.29623 0.69003 0.56411 0.0
C394 C 0.247 0.62422 0.59076 0.0
C395 C 0.24811 0.63621 0.52658 0.0
O396 O 0.25162 0.64993 0.5386 0.0
O397 O 0.2545 0.62424 0.52963 0.0
O398 O 0.27801 0.68594 0.56747 0.0
O399 O 0.29918 0.67532 0.56073 0.0
O400 O 0.64118 0.24639 0.74363 0.0
Cd401 Cd 0.64832 0.26359 0.71934 0.0
Cd402 Cd 0.61518 0.26488 0.729 0.0
O403 O 0.61793 0.25276 0.75417 0.0
O404 O 0.67706 0.27242 0.71364 0.0
O405 O 0.66659 0.29329 0.72175 0.0
C406 C 0.6813 0.29042 0.71736 0.0
C407 C 0.61014 0.29209 0.72974 0.0
C408 C 0.62877 0.24485 0.7565 0.0
C409 C 0.61322 0.24276 0.69301 0.0
O410 O 0.60329 0.24601 0.70566 0.0
O411 O 0.63212 0.24993 0.69496 0.0
O412 O 0.59606 0.27449 0.73463 0.0
O413 O 0.62743 0.2944 0.7248 0.0
O414 O 0.40214 0.64938 0.91423 0.0
Cd415 Cd 0.39227 0.65715 0.89014 0.0
Cd416 Cd 0.35762 0.62315 0.89848 0.0
O417 O 0.37279 0.62392 0.92298 0.0
O418 O 0.4131 0.68551 0.88539 0.0
O419 O 0.38153 0.67597 0.89307 0.0
C420 C 0.39959 0.69023 0.8892 0.0
C421 C 0.32448 0.61672 0.90007 0.0
C422 C 0.39154 0.63554 0.92598 0.0
C423 C 0.37863 0.6237 0.86199 0.0
O424 O 0.36482 0.6133 0.87396 0.0
O425 O 0.39067 0.64217 0.86512 0.0
O426 O 0.3288 0.60297 0.90323 0.0
O427 O 0.33921 0.63452 0.89659 0.0
O428 O 0.76622 0.37108 0.03722 0.0
Cd429 Cd 0.74959 0.36186 0.06211 0.0
Cd430 Cd 0.748 0.39571 0.05778 0.0
O431 O 0.76268 0.39719 0.03257 0.0
O432 O 0.73965 0.33282 0.06449 0.0
O433 O 0.71934 0.345 0.06046 0.0
C434 C 0.72157 0.32968 0.06235 0.0
C435 C 0.72204 0.4031 0.05698 0.0
C436 C 0.76943 0.386 0.02721 0.0
C437 C 0.76961 0.39297 0.09251 0.0
O438 O 0.76482 0.4036 0.08258 0.0
O439 O 0.76433 0.37531 0.08722 0.0
O440 O 0.74067 0.41672 0.05476 0.0
O441 O 0.71795 0.38496 0.05941 0.0
O442 O 0.40847 0.77149 0.20662 0.0
Cd443 Cd 0.39507 0.75221 0.22916 0.0
Cd444 Cd 0.36209 0.75061 0.21559 0.0
O445 O 0.38003 0.76353 0.19185 0.0
O446 O 0.41438 0.74363 0.23705 0.0
O447 O 0.38438 0.72296 0.2245 0.0
C448 C 0.40142 0.72596 0.23107 0.0
C449 C 0.32926 0.72361 0.21254 0.0
C450 C 0.39922 0.77273 0.19215 0.0
C451 C 0.3777 0.77111 0.25338 0.0
O452 O 0.36658 0.76877 0.23903 0.0
O453 O 0.38918 0.76375 0.25321 0.0
O454 O 0.33392 0.74133 0.20732 0.0
O455 O 0.34356 0.72099 0.21884 0.0
H456 H 0.14045 0.63642 0.24361 0.0
H457 H 0.17323 0.6509 0.22761 0.0
H458 H 0.18803 0.61346 0.26082 0.0
H459 H 0.15526 0.59888 0.27684 0.0
H460 H 0.2081 0.67179 0.24873 0.0
H461 H 0.20968 0.61112 0.20789 0.0
H462 H 0.18644 0.60947 0.21577 0.0
H463 H 0.20162 0.60504 0.23227 0.0
C464 C 0.15052 0.63097 0.2472 0.0
C465 C 0.14534 0.61661 0.26156 0.0
C466 C 0.1692 0.6392 0.238 0.0
C467 C 0.18303 0.63318 0.24293 0.0
C468 C 0.17745 0.61803 0.25649 0.0
H469 H 0.31273 0.68773 0.23106 0.0
H470 H 0.2767 0.6642 0.23645 0.0
C471 C 0.1587 0.60973 0.26566 0.0
C472 C 0.20417 0.64474 0.23599 0.0
H473 H 0.24133 0.64119 0.21245 0.0
C474 C 0.21528 0.66513 0.24061 0.0
C475 C 0.21359 0.63595 0.22566 0.0
C476 C 0.2022 0.61422 0.21994 0.0
C477 C 0.23562 0.67694 0.23543 0.0
C478 C 0.24505 0.66824 0.22498 0.0
C479 C 0.23401 0.64782 0.22037 0.0
C480 C 0.26648 0.68031 0.21907 0.0
C481 C 0.24699 0.69856 0.24168 0.0
C482 C 0.27258 0.69663 0.20685 0.0
C483 C 0.29308 0.71014 0.2039 0.0
C484 C 0.30786 0.70744 0.21292 0.0
C485 C 0.3017 0.69023 0.22395 0.0
C486 C 0.28113 0.67677 0.22704 0.0
H487 H 0.23911 0.70156 0.25344 0.0
H488 H 0.26247 0.70299 0.24654 0.0
H489 H 0.24831 0.70814 0.22942 0.0
H490 H 0.26148 0.69942 0.2003 0.0
H491 H 0.29732 0.72312 0.19513 0.0
H492 H 0.56263 0.15681 0.44588 0.0
H493 H 0.58052 0.19069 0.43285 0.0
H494 H 0.52841 0.17718 0.39877 0.0
H495 H 0.51046 0.14328 0.41162 0.0
H496 H 0.58816 0.20819 0.39292 0.0
H497 H 0.53695 0.22203 0.43849 0.0
H498 H 0.54039 0.20093 0.44196 0.0
H499 H 0.5247 0.2007 0.42288 0.0
C500 C 0.55521 0.16085 0.43516 0.0
C501 C 0.53505 0.14747 0.42994 0.0
C502 C 0.56544 0.18023 0.42778 0.0
C503 C 0.55565 0.18645 0.41508 0.0
C504 C 0.53611 0.17267 0.40872 0.0
H505 H 0.57237 0.29888 0.37795 0.0
H506 H 0.56173 0.26379 0.38227 0.0
C507 C 0.52588 0.15335 0.41611 0.0
C508 C 0.56477 0.20783 0.41025 0.0
H509 H 0.5587 0.24791 0.41781 0.0
C510 C 0.58181 0.21696 0.39835 0.0
C511 C 0.55651 0.21918 0.41754 0.0
C512 C 0.53873 0.21033 0.43106 0.0
C513 C 0.59044 0.23711 0.39305 0.0
C514 C 0.58193 0.24835 0.40012 0.0
C515 C 0.56511 0.23922 0.41228 0.0
C516 C 0.58982 0.26955 0.39504 0.0
C517 C 0.60821 0.24606 0.37958 0.0
C518 C 0.60935 0.28449 0.40045 0.0
C519 C 0.61555 0.30468 0.39789 0.0
C520 C 0.60221 0.31019 0.39012 0.0
C521 C 0.58297 0.29515 0.38408 0.0
C522 C 0.57686 0.27506 0.38652 0.0
H523 H 0.60984 0.23438 0.37192 0.0
H524 H 0.60671 0.25575 0.36891 0.0
H525 H 0.62225 0.25541 0.38786 0.0
H526 H 0.61947 0.2806 0.40739 0.0
H527 H 0.63043 0.31593 0.40276 0.0
H528 H 0.37211 0.52191 0.61344 0.0
H529 H 0.35685 0.53981 0.59938 0.0
H530 H 0.41539 0.58614 0.58032 0.0
H531 H 0.43089 0.56806 0.59411 0.0
H532 H 0.36927 0.58099 0.6106 0.0
H533 H 0.37624 0.57097 0.53262 0.0
H534 H 0.37659 0.55417 0.55015 0.0
H535 H 0.3981 0.57872 0.54752 0.0
C536 C 0.38174 0.53564 0.60585 0.0
C537 C 0.40273 0.54348 0.6048 0.0
C538 C 0.37299 0.54593 0.59797 0.0
C539 C 0.38499 0.56422 0.58877 0.0
C540 C 0.40588 0.57194 0.58723 0.0
H541 H 0.33327 0.641 0.56756 0.0
H542 H 0.35841 0.63119 0.57427 0.0
C543 C 0.4147 0.56166 0.59521 0.0
C544 C 0.37554 0.57559 0.58193 0.0
H545 H 0.35971 0.58835 0.54171 0.0
C546 C 0.36739 0.58287 0.59555 0.0
C547 C 0.3731 0.57788 0.56229 0.0
C548 C 0.38134 0.56998 0.54719 0.0
C549 C 0.35631 0.59187 0.59006 0.0
C550 C 0.35349 0.59382 0.57041 0.0
C551 C 0.36209 0.587 0.55675 0.0
C552 C 0.33983 0.60089 0.56394 0.0
C553 C 0.34686 0.59834 0.60534 0.0
C554 C 0.32144 0.58735 0.55523 0.0
C555 C 0.30711 0.59288 0.55139 0.0
C556 C 0.31093 0.61212 0.5561 0.0
C557 C 0.32984 0.62604 0.56384 0.0
C558 C 0.34418 0.62045 0.56774 0.0
H559 H 0.34774 0.59281 0.6197 0.0
H560 H 0.35488 0.61489 0.60596 0.0
H561 H 0.33076 0.59288 0.60197 0.0
H562 H 0.31781 0.5722 0.55217 0.0
H563 H 0.29276 0.58184 0.54531 0.0
H564 H 0.84771 0.43191 0.77581 0.0
H565 H 0.81487 0.40928 0.76162 0.0
H566 H 0.84125 0.38155 0.72806 0.0
H567 H 0.87447 0.40453 0.74187 0.0
H568 H 0.80173 0.40051 0.72141 0.0
H569 H 0.79603 0.33604 0.76134 0.0
H570 H 0.81391 0.3616 0.76775 0.0
H571 H 0.81844 0.3504 0.74727 0.0
C572 C 0.84673 0.42137 0.76507 0.0
C573 C 0.86381 0.42007 0.76002 0.0
C574 C 0.82788 0.40836 0.75705 0.0
C575 C 0.82563 0.39366 0.74396 0.0
C576 C 0.84268 0.39268 0.73834 0.0
H577 H 0.71452 0.28955 0.70481 0.0
H578 H 0.74991 0.31549 0.70842 0.0
C579 C 0.86161 0.40577 0.7463 0.0
C580 C 0.8052 0.3787 0.73714 0.0
H581 H 0.76858 0.32983 0.74191 0.0
C582 C 0.79448 0.38501 0.72574 0.0
C583 C 0.79584 0.35854 0.74287 0.0
C584 C 0.80651 0.35115 0.75559 0.0
C585 C 0.77456 0.37161 0.71992 0.0
C586 C 0.765 0.35154 0.72606 0.0
C587 C 0.77591 0.34521 0.73718 0.0
C588 C 0.74351 0.33688 0.7218 0.0
C589 C 0.76402 0.37906 0.70713 0.0
C590 C 0.72808 0.34035 0.7279 0.0
C591 C 0.70778 0.32556 0.72573 0.0
C592 C 0.70256 0.30694 0.71767 0.0
C593 C 0.71803 0.30371 0.71112 0.0
C594 C 0.73828 0.31853 0.71317 0.0
H595 H 0.77503 0.39243 0.69897 0.0
H596 H 0.7538 0.36733 0.69687 0.0
H597 H 0.75485 0.38339 0.71603 0.0
H598 H 0.73173 0.35419 0.73502 0.0
H599 H 0.69623 0.32845 0.73104 0.0
H600 H 0.49859 0.87865 0.91511 0.0
H601 H 0.48067 0.84491 0.90161 0.0
H602 H 0.42872 0.83088 0.93637 0.0
H603 H 0.44662 0.86449 0.95017 0.0
H604 H 0.4673 0.8115 0.92659 0.0
H605 H 0.4042 0.80619 0.88319 0.0
H606 H 0.42646 0.82977 0.88899 0.0
H607 H 0.40729 0.81683 0.9067 0.0
C608 C 0.48323 0.86849 0.91967 0.0
C609 C 0.4741 0.87423 0.93384 0.0
C610 C 0.47298 0.84926 0.91187 0.0
C611 C 0.45334 0.83544 0.91791 0.0
C612 C 0.44374 0.84143 0.93125 0.0
H613 H 0.37851 0.70626 0.9058 0.0
H614 H 0.39066 0.74177 0.91165 0.0
C615 C 0.454 0.86067 0.93912 0.0
C616 C 0.44407 0.81419 0.91219 0.0
H617 H 0.40426 0.77604 0.88849 0.0
C618 C 0.45359 0.80378 0.91814 0.0
C619 C 0.42602 0.80412 0.90146 0.0
C620 C 0.4154 0.81477 0.89456 0.0
C621 C 0.44552 0.78351 0.91377 0.0
C622 C 0.42769 0.77347 0.90267 0.0
C623 C 0.418 0.78381 0.89687 0.0
C624 C 0.41912 0.75225 0.89701 0.0
C625 C 0.45596 0.77294 0.92148 0.0
C626 C 0.43074 0.74646 0.8862 0.0
C627 C 0.42396 0.72628 0.88302 0.0
C628 C 0.40526 0.71147 0.89033 0.0
C629 C 0.39301 0.71733 0.90004 0.0
C630 C 0.39992 0.73759 0.90339 0.0
H631 H 0.46579 0.78103 0.93388 0.0
H632 H 0.44482 0.7575 0.92598 0.0
H633 H 0.46564 0.77209 0.91015 0.0
H634 H 0.4454 0.75755 0.88076 0.0
H635 H 0.43365 0.72227 0.87527 0.0
H636 H 0.5967 0.45052 0.12046 0.0
H637 H 0.61268 0.43309 0.10629 0.0
H638 H 0.6431 0.48041 0.06538 0.0
H639 H 0.62686 0.49783 0.07918 0.0
H640 H 0.61713 0.42209 0.06442 0.0
H641 H 0.6872 0.47868 0.10157 0.0
H642 H 0.66246 0.47388 0.10846 0.0
H643 H 0.67424 0.48788 0.08727 0.0
C644 C 0.60625 0.45694 0.10805 0.0
C645 C 0.61066 0.47569 0.10107 0.0
C646 C 0.61542 0.44697 0.10002 0.0
C647 C 0.62916 0.45558 0.08494 0.0
C648 C 0.6326 0.47362 0.07711 0.0
H649 H 0.7248 0.43737 0.04422 0.0
H650 H 0.7005 0.44851 0.04865 0.0
C651 C 0.62341 0.48358 0.08509 0.0
C652 C 0.64169 0.447 0.07896 0.0
H653 H 0.68938 0.45469 0.08283 0.0
C654 C 0.63295 0.42918 0.06835 0.0
C655 C 0.66225 0.45629 0.08424 0.0
C656 C 0.67217 0.47517 0.09612 0.0
C657 C 0.64444 0.42057 0.06256 0.0
C658 C 0.66503 0.42985 0.06793 0.0
C659 C 0.67364 0.44764 0.07862 0.0
C660 C 0.67816 0.42158 0.06282 0.0
C661 C 0.63456 0.40189 0.05044 0.0
C662 C 0.67353 0.40252 0.06894 0.0
C663 C 0.68737 0.39599 0.06621 0.0
C664 C 0.70619 0.40859 0.05765 0.0
C665 C 0.71047 0.42737 0.05098 0.0
C666 C 0.69658 0.43375 0.05348 0.0
H667 H 0.62093 0.40005 0.04304 0.0
H668 H 0.64521 0.40205 0.03958 0.0
H669 H 0.62975 0.38871 0.05974 0.0
H670 H 0.65962 0.39303 0.07656 0.0
H671 H 0.68372 0.3815 0.07161 0.0
H672 H 0.36572 0.85658 0.50192 0.0
H673 H 0.35427 0.8241 0.51623 0.0
H674 H 0.41419 0.84466 0.53791 0.0
H675 H 0.42582 0.87769 0.52389 0.0
H676 H 0.37175 0.79933 0.50736 0.0
H677 H 0.37468 0.81809 0.5847 0.0
H678 H 0.37349 0.83371 0.56635 0.0
H679 H 0.39641 0.83337 0.57001 0.0
C680 C 0.37643 0.85444 0.51008 0.0
C681 C 0.39667 0.86985 0.51192 0.0
C682 C 0.36988 0.83577 0.5181 0.0
C683 C 0.38335 0.83203 0.52818 0.0
C684 C 0.40353 0.84734 0.53031 0.0
H685 H 0.33542 0.70433 0.55255 0.0
H686 H 0.36091 0.73921 0.54596 0.0
C687 C 0.41016 0.86613 0.52221 0.0
C688 C 0.37605 0.81172 0.53568 0.0
H689 H 0.36017 0.78416 0.57651 0.0
C690 C 0.36955 0.79597 0.5225 0.0
C691 C 0.37318 0.80751 0.55541 0.0
C692 C 0.37969 0.82397 0.57005 0.0
C693 C 0.35931 0.77601 0.52845 0.0
C694 C 0.35574 0.77172 0.54817 0.0
C695 C 0.36308 0.78752 0.56143 0.0
C696 C 0.34203 0.75109 0.55493 0.0
C697 C 0.35124 0.75969 0.51349 0.0
C698 C 0.32339 0.74636 0.56298 0.0
C699 C 0.3089 0.72656 0.56682 0.0
C700 C 0.31278 0.71106 0.56272 0.0
C701 C 0.33194 0.71593 0.55575 0.0
C702 C 0.34648 0.73582 0.55191 0.0
H703 H 0.35252 0.76561 0.49883 0.0
H704 H 0.35993 0.75183 0.51399 0.0
H705 H 0.33514 0.74857 0.51631 0.0
H706 H 0.31966 0.75791 0.56546 0.0
H707 H 0.29437 0.72337 0.57233 0.0
H708 H 0.5469 0.39799 0.6593 0.0
H709 H 0.5578 0.37595 0.67242 0.0
H710 H 0.57363 0.40904 0.72544 0.0
H711 H 0.5631 0.43155 0.71213 0.0
H712 H 0.60252 0.40132 0.71456 0.0
H713 H 0.52869 0.33154 0.70987 0.0
H714 H 0.53612 0.34358 0.68711 0.0
H715 H 0.53129 0.35577 0.7067 0.0
C716 C 0.55241 0.4004 0.67386 0.0
C717 C 0.55388 0.41633 0.68479 0.0
C718 C 0.55861 0.38776 0.68136 0.0
C719 C 0.56609 0.39052 0.70008 0.0
C720 C 0.56776 0.40653 0.71101 0.0
H721 H 0.58019 0.29484 0.74785 0.0
H722 H 0.57089 0.32037 0.74368 0.0
C723 C 0.56174 0.41936 0.70341 0.0
C724 C 0.57272 0.377 0.70786 0.0
H725 H 0.55773 0.32777 0.71292 0.0
C726 C 0.59266 0.38524 0.71445 0.0
C727 C 0.55976 0.35604 0.70811 0.0
C728 C 0.53772 0.34624 0.70277 0.0
C729 C 0.60022 0.37303 0.72051 0.0
C730 C 0.58766 0.35201 0.71942 0.0
C731 C 0.5675 0.34385 0.71355 0.0
C732 C 0.59504 0.33806 0.72381 0.0
C733 C 0.62151 0.38284 0.72812 0.0
C734 C 0.61196 0.33963 0.71432 0.0
C735 C 0.61753 0.32521 0.71698 0.0
C736 C 0.60598 0.30869 0.7288 0.0
C737 C 0.58934 0.30737 0.7386 0.0
C738 C 0.584 0.32195 0.73621 0.0
H739 H 0.62627 0.39782 0.73425 0.0
H740 H 0.62304 0.37362 0.7393 0.0
H741 H 0.63198 0.38492 0.71624 0.0
H742 H 0.6204 0.35155 0.70426 0.0
H743 H 0.6303 0.3265 0.70909 0.0
H744 H 0.15058 0.51919 0.83992 0.0
H745 H 0.18383 0.53734 0.85481 0.0
H746 H 0.17072 0.58195 0.87556 0.0
H747 H 0.13704 0.56358 0.86097 0.0
H748 H 0.21257 0.57885 0.84481 0.0
H749 H 0.19517 0.56717 0.92258 0.0
H750 H 0.17795 0.55041 0.90466 0.0
H751 H 0.18079 0.5746 0.90803 0.0
C752 C 0.15448 0.53256 0.84808 0.0
C753 C 0.14108 0.53988 0.84932 0.0
C754 C 0.17357 0.543 0.85645 0.0
C755 C 0.17967 0.56092 0.86632 0.0
C756 C 0.1662 0.56804 0.86813 0.0
H757 H 0.30955 0.64034 0.88808 0.0
H758 H 0.27407 0.62981 0.88188 0.0
C759 C 0.14704 0.5576 0.85969 0.0
C760 C 0.20068 0.57269 0.87339 0.0
H761 H 0.2295 0.58577 0.9138 0.0
C762 C 0.21632 0.58061 0.85989 0.0
C763 C 0.2054 0.57485 0.89307 0.0
C764 C 0.18903 0.56627 0.90803 0.0
C765 C 0.23664 0.59013 0.86551 0.0
C766 C 0.24141 0.59197 0.88519 0.0
C767 C 0.22576 0.5845 0.89874 0.0
C768 C 0.26241 0.59956 0.89172 0.0
C769 C 0.25278 0.59724 0.85031 0.0
C770 C 0.26746 0.58631 0.90007 0.0
C771 C 0.28762 0.59225 0.90364 0.0
C772 C 0.30313 0.61162 0.89899 0.0
C773 C 0.29795 0.62529 0.89173 0.0
C774 C 0.27772 0.61929 0.88812 0.0
H775 H 0.24636 0.59167 0.83587 0.0
H776 H 0.26119 0.6138 0.84998 0.0
H777 H 0.26373 0.59229 0.85353 0.0
H778 H 0.25586 0.57103 0.90299 0.0
H779 H 0.29107 0.5814 0.90939 0.0
H780 H 0.56912 0.14899 0.03352 0.0
H781 H 0.5899 0.18303 0.04623 0.0
H782 H 0.64192 0.18842 0.01699 0.0
H783 H 0.62136 0.15473 0.00405 0.0
H784 H 0.62946 0.20136 0.06806 0.0
H785 H 0.63348 0.23526 0.99733 0.0
H786 H 0.61426 0.21003 0.0032 0.0
H787 H 0.63935 0.21558 0.99724 0.0
C788 C 0.58502 0.1574 0.02991 0.0
C789 C 0.59358 0.14915 0.01776 0.0
C790 C 0.59685 0.17678 0.03723 0.0
C791 C 0.61735 0.18824 0.03235 0.0
C792 C 0.62608 0.17982 0.02079 0.0
H793 H 0.72152 0.2951 0.06903 0.0
H794 H 0.69388 0.26098 0.06401 0.0
C795 C 0.61433 0.16048 0.01356 0.0
C796 C 0.62962 0.2093 0.03863 0.0
H797 H 0.65597 0.25675 0.0213 0.0
C798 C 0.63509 0.21353 0.05792 0.0
C799 C 0.63667 0.22511 0.0254 0.0
C800 C 0.63054 0.22138 0.00464 0.0
C801 C 0.64826 0.23319 0.06416 0.0
C802 C 0.65621 0.24888 0.0507 0.0
C803 C 0.64994 0.2447 0.03159 0.0
C804 C 0.67215 0.2695 0.05575 0.0
C805 C 0.65373 0.23698 0.08504 0.0
C806 C 0.66916 0.28568 0.05268 0.0
C807 C 0.685 0.30529 0.0555 0.0
C808 C 0.70418 0.30903 0.06119 0.0
C809 C 0.70695 0.29275 0.06466 0.0
C810 C 0.6911 0.2732 0.06194 0.0
H811 H 0.64211 0.22491 0.09411 0.0
H812 H 0.66827 0.23748 0.08737 0.0
H813 H 0.65555 0.25148 0.08977 0.0
H814 H 0.65468 0.28313 0.04774 0.0
H815 H 0.6824 0.3175 0.05266 0.0
H816 H 0.48629 0.64759 0.15212 0.0
H817 H 0.46808 0.66164 0.16829 0.0
H818 H 0.4605 0.62583 0.21787 0.0
H819 H 0.4788 0.61151 0.20161 0.0
H820 H 0.42528 0.62725 0.20768 0.0
H821 H 0.49295 0.7028 0.21159 0.0
H822 H 0.48806 0.69278 0.18778 0.0
H823 H 0.49445 0.68083 0.20618 0.0
C824 C 0.4809 0.64279 0.16652 0.0
C825 C 0.48432 0.62874 0.17575 0.0
C826 C 0.47045 0.6508 0.17572 0.0
C827 C 0.46333 0.6451 0.19441 0.0
C828 C 0.46603 0.63053 0.20348 0.0
H829 H 0.43025 0.72402 0.25191 0.0
H830 H 0.44325 0.7014 0.24698 0.0
C831 C 0.47645 0.62238 0.1942 0.0
C832 C 0.45348 0.65483 0.20436 0.0
H833 H 0.46106 0.70081 0.21587 0.0
C834 C 0.43313 0.6433 0.20977 0.0
C835 C 0.46386 0.6757 0.20742 0.0
C836 C 0.4861 0.68873 0.20312 0.0
C837 C 0.42259 0.65229 0.21726 0.0
C838 C 0.43262 0.67335 0.21899 0.0
C839 C 0.45325 0.68469 0.21443 0.0
C840 C 0.42208 0.68427 0.22451 0.0
C841 C 0.40086 0.63912 0.22318 0.0
C842 C 0.4054 0.68181 0.21396 0.0
C843 C 0.39771 0.69454 0.21701 0.0
C844 C 0.40688 0.71024 0.23033 0.0
C845 C 0.42294 0.71211 0.24147 0.0
C846 C 0.43039 0.69919 0.23866 0.0
H847 H 0.39782 0.62409 0.22746 0.0
H848 H 0.39682 0.64579 0.23525 0.0
H849 H 0.3909 0.63712 0.21089 0.0
H850 H 0.39903 0.67079 0.20262 0.0
H851 H 0.38543 0.69287 0.2081 0.0
H852 H 0.86138 0.45564 0.34156 0.0
H853 H 0.82751 0.4381 0.35566 0.0
H854 H 0.83894 0.49262 0.38328 0.0
H855 H 0.87278 0.51026 0.36922 0.0
H856 H 0.81074 0.43329 0.39414 0.0
H857 H 0.79137 0.47773 0.34595 0.0
H858 H 0.81397 0.47631 0.34299 0.0
H859 H 0.81288 0.49232 0.36102 0.0
C860 C 0.85689 0.46376 0.35107 0.0
C861 C 0.86964 0.48438 0.35411 0.0
C862 C 0.83752 0.45373 0.35906 0.0
C863 C 0.83064 0.46416 0.3702 0.0
C864 C 0.84388 0.48439 0.37444 0.0
H865 H 0.71543 0.44281 0.40994 0.0
H866 H 0.75124 0.45505 0.40481 0.0
C867 C 0.86318 0.49444 0.36641 0.0
C868 C 0.80909 0.45454 0.37576 0.0
H869 H 0.76659 0.45717 0.36836 0.0
C870 C 0.80103 0.43844 0.38852 0.0
C871 C 0.79645 0.46118 0.3682 0.0
C872 C 0.804 0.47771 0.35364 0.0
C873 C 0.78071 0.4292 0.39438 0.0
C874 C 0.76821 0.43612 0.38704 0.0
C875 C 0.77626 0.45201 0.37408 0.0
C876 C 0.74674 0.42742 0.39262 0.0
C877 C 0.77289 0.41245 0.40865 0.0
C878 C 0.7323 0.40766 0.38779 0.0
C879 C 0.7117 0.40056 0.39075 0.0
C880 C 0.70526 0.4132 0.39841 0.0
C881 C 0.71985 0.43271 0.40391 0.0
C882 C 0.74035 0.43974 0.40102 0.0
H883 H 0.78537 0.41192 0.41609 0.0
H884 H 0.76317 0.41402 0.41947 0.0
H885 H 0.7636 0.39801 0.40109 0.0
H886 H 0.73687 0.39802 0.38097 0.0
H887 H 0.70081 0.38548 0.3863 0.0
H888 H 0.11102 0.57534 0.39625 0.0
H889 H 0.13404 0.58108 0.42288 0.0
H890 H 0.16941 0.6433 0.40789 0.0
H891 H 0.14676 0.63765 0.38107 0.0
H892 H 0.19217 0.62378 0.41383 0.0
H893 H 0.13918 0.61162 0.47348 0.0
H894 H 0.13001 0.59222 0.45565 0.0
H895 H 0.13475 0.6166 0.44935 0.0
C896 C 0.12369 0.59024 0.39866 0.0
C897 C 0.127 0.60606 0.38663 0.0
C898 C 0.13672 0.59352 0.41393 0.0
C899 C 0.15328 0.61265 0.41742 0.0
C900 C 0.15663 0.62846 0.40547 0.0
H901 H 0.23024 0.65772 0.51686 0.0
H902 H 0.20795 0.65212 0.48979 0.0
C903 C 0.14358 0.62522 0.39027 0.0
C904 C 0.16749 0.61615 0.43321 0.0
H905 H 0.17106 0.61604 0.48178 0.0
C906 C 0.18759 0.62209 0.4287 0.0
C907 C 0.16146 0.61409 0.45255 0.0
C908 C 0.14023 0.60844 0.45816 0.0
C909 C 0.20182 0.62589 0.44307 0.0
C910 C 0.1957 0.6235 0.4624 0.0
C911 C 0.17565 0.61772 0.46691 0.0
C912 C 0.20996 0.6273 0.47823 0.0
C913 C 0.22337 0.63276 0.43751 0.0
C914 C 0.21851 0.6152 0.48064 0.0
C915 C 0.23127 0.61833 0.49612 0.0
C916 C 0.23566 0.63361 0.50949 0.0
C917 C 0.22724 0.64585 0.50684 0.0
C918 C 0.21445 0.64266 0.49141 0.0
H919 H 0.22658 0.63801 0.42249 0.0
H920 H 0.2341 0.64502 0.44705 0.0
H921 H 0.22615 0.62013 0.43896 0.0
H922 H 0.21499 0.60308 0.47075 0.0
H923 H 0.23743 0.60858 0.49776 0.0
H924 H 0.55557 0.14016 0.53865 0.0
H925 H 0.5711 0.16153 0.56652 0.0
H926 H 0.51482 0.1298 0.59715 0.0
H927 H 0.4992 0.10774 0.56954 0.0
H928 H 0.53662 0.17562 0.59488 0.0
H929 H 0.58329 0.14416 0.62052 0.0
H930 H 0.58357 0.14852 0.59526 0.0
H931 H 0.56073 0.1298 0.60636 0.0
C932 C 0.54655 0.13736 0.55142 0.0
C933 C 0.52612 0.1221 0.55184 0.0
C934 C 0.55545 0.1497 0.56728 0.0
C935 C 0.54411 0.14712 0.58384 0.0
C936 C 0.52378 0.13195 0.58444 0.0
H937 H 0.57247 0.21907 0.68765 0.0
H938 H 0.55513 0.19593 0.66126 0.0
C939 C 0.51488 0.11945 0.56862 0.0
C940 C 0.5534 0.16082 0.60023 0.0
H941 H 0.58871 0.17391 0.63528 0.0
C942 C 0.54791 0.17522 0.60385 0.0
C943 C 0.5682 0.16026 0.61168 0.0
C944 C 0.5743 0.1448 0.60844 0.0
C945 C 0.55725 0.18949 0.61843 0.0
C946 C 0.57208 0.18894 0.62997 0.0
C947 C 0.57737 0.17434 0.62642 0.0
C948 C 0.58247 0.20343 0.64571 0.0
C949 C 0.55162 0.20539 0.6209 0.0
C950 C 0.60364 0.21506 0.64594 0.0
C951 C 0.61362 0.2281 0.66114 0.0
C952 C 0.60261 0.22979 0.6764 0.0
C953 C 0.58139 0.21828 0.67603 0.0
C954 C 0.57143 0.20511 0.6609 0.0
H955 H 0.54467 0.20722 0.60775 0.0
H956 H 0.54042 0.20103 0.63262 0.0
H957 H 0.56503 0.22002 0.62465 0.0
H958 H 0.61246 0.21397 0.63438 0.0
H959 H 0.62997 0.23674 0.66098 0.0
H960 H 0.39384 0.50885 0.73774 0.0
H961 H 0.38589 0.52541 0.76332 0.0
H962 H 0.4302 0.58284 0.74104 0.0
H963 H 0.43765 0.56649 0.71503 0.0
H964 H 0.41037 0.5517 0.79133 0.0
H965 H 0.37995 0.58773 0.74455 0.0
H966 H 0.38428 0.56818 0.73617 0.0
H967 H 0.40499 0.59342 0.73821 0.0
C968 C 0.40179 0.525 0.73819 0.0
C969 C 0.41632 0.53633 0.72426 0.0
C970 C 0.3973 0.53444 0.75287 0.0
C971 C 0.40718 0.55535 0.75385 0.0
C972 C 0.42208 0.56669 0.74031 0.0
H973 H 0.40653 0.64099 0.8333 0.0
H974 H 0.41289 0.62414 0.80683 0.0
C975 C 0.42654 0.55729 0.72561 0.0
C976 C 0.4021 0.56532 0.76917 0.0
H977 H 0.38536 0.59799 0.77714 0.0
C978 C 0.40478 0.56172 0.78824 0.0
C979 C 0.39479 0.57837 0.76508 0.0
C980 C 0.39063 0.58204 0.7449 0.0
C981 C 0.40076 0.57116 0.80335 0.0
C982 C 0.39364 0.58434 0.79924 0.0
C983 C 0.39088 0.5879 0.78019 0.0
C984 C 0.389 0.59458 0.8146 0.0
C985 C 0.40453 0.56729 0.82358 0.0
C986 C 0.37313 0.58355 0.82737 0.0
C987 C 0.36939 0.59311 0.84244 0.0
C988 C 0.38148 0.6139 0.84502 0.0
C989 C 0.39698 0.62497 0.83178 0.0
C990 C 0.40065 0.61538 0.81666 0.0
H991 H 0.41404 0.56027 0.82411 0.0
H992 H 0.41204 0.58139 0.83199 0.0
H993 H 0.38987 0.55704 0.83053 0.0
H994 H 0.36377 0.56751 0.8258 0.0
H995 H 0.35728 0.58411 0.8523 0.0
H996 H 0.86508 0.41096 0.86833 0.0
H997 H 0.84304 0.40009 0.89623 0.0
H998 H 0.88427 0.45474 0.9256 0.0
H999 H 0.90697 0.4654 0.898 0.0
H1000 H 0.87016 0.42157 0.94857 0.0
H1001 H 0.80672 0.42198 0.91126 0.0
H1002 H 0.81502 0.40669 0.89971 0.0
H1003 H 0.8318 0.43325 0.90126 0.0
C1004 C 0.86968 0.42057 0.88081 0.0
C1005 C 0.88782 0.43909 0.88088 0.0
C1006 C 0.85689 0.41443 0.89666 0.0
C1007 C 0.86182 0.42679 0.91282 0.0
C1008 C 0.8801 0.44506 0.91317 0.0
H1009 H 0.78102 0.41794 0.00363 0.0
H1010 H 0.80352 0.42746 0.97605 0.0
C1011 C 0.89298 0.45119 0.89734 0.0
C1012 C 0.84786 0.42063 0.92934 0.0
H1013 H 0.79982 0.40768 0.94224 0.0
C1014 C 0.85479 0.41857 0.94722 0.0
C1015 C 0.8279 0.41698 0.92756 0.0
C1016 C 0.81994 0.42001 0.90896 0.0
C1017 C 0.84221 0.41271 0.96335 0.0
C1018 C 0.82205 0.40843 0.96143 0.0
C1019 C 0.81521 0.41073 0.9436 0.0
C1020 C 0.808 0.40217 0.97788 0.0
C1021 C 0.85074 0.41155 0.98238 0.0
C1022 C 0.80272 0.38455 0.98781 0.0
C1023 C 0.78988 0.37906 0.00364 0.0
C1024 C 0.78197 0.39104 0.00973 0.0
C1025 C 0.78686 0.40838 -0.00062 0.0
C1026 C 0.79973 0.41387 0.9836 0.0
H1027 H 0.86752 0.4201 0.98238 0.0
H1028 H 0.84526 0.41737 0.99405 0.0
H1029 H 0.84575 0.39573 0.98552 0.0
H1030 H 0.80858 0.37507 0.98335 0.0
H1031 H 0.78633 0.36554 0.0112 0.0
H1032 H 0.48255 0.91538 0.07034 0.0
H1033 H 0.46832 0.89304 0.0978 0.0
H1034 H 0.48295 0.8517 0.07099 0.0
H1035 H 0.49822 0.87462 0.04414 0.0
H1036 H 0.43742 0.85803 0.0992 0.0
H1037 H 0.5023 0.85141 0.1231 0.0
H1038 H 0.50499 0.86973 0.10584 0.0
H1039 H 0.49667 0.84444 0.09848 0.0
C1040 C 0.48307 0.9017 0.07061 0.0
C1041 C 0.49162 0.89673 0.05536 0.0
C1042 C 0.4749 0.88891 0.08621 0.0
C1043 C 0.47482 0.87078 0.08668 0.0
C1044 C 0.48341 0.86586 0.07135 0.0
H1045 H 0.38717 0.77066 0.1551 0.0
H1046 H 0.40585 0.79381 0.12922 0.0
C1047 C 0.492 0.87887 0.05595 0.0
C1048 C 0.46448 0.85644 0.10249 0.0
H1049 H 0.46976 0.82652 0.13464 0.0
C1050 C 0.4446 0.85131 0.10707 0.0
C1051 C 0.47387 0.84781 0.11298 0.0
C1052 C 0.4957 0.85381 0.10999 0.0
C1053 C 0.43379 0.83771 0.12165 0.0
C1054 C 0.44276 0.82821 0.13138 0.0
C1055 C 0.46274 0.83352 0.12698 0.0
C1056 C 0.43193 0.81322 0.14658 0.0
C1057 C 0.4131 0.83417 0.12675 0.0
C1058 C 0.44082 0.81571 0.16465 0.0
C1059 C 0.43043 0.80214 0.17927 0.0
C1060 C 0.41083 0.78596 0.17617 0.0
C1061 C 0.40215 0.78315 0.15795 0.0
C1062 C 0.41275 0.79648 0.14321 0.0
H1063 H 0.41134 0.84698 0.12253 0.0
H1064 H 0.40147 0.82078 0.11897 0.0
H1065 H 0.41015 0.83169 0.14231 0.0
H1066 H 0.45564 0.82842 0.1676 0.0
H1067 H 0.4375 0.80471 0.19317 0.0
H1068 H 0.57311 0.45469 0.21271 0.0
H1069 H 0.57703 0.43735 0.23989 0.0
H1070 H 0.62005 0.4939 0.2652 0.0
H1071 H 0.61557 0.5114 0.2385 0.0
H1072 H 0.6117 0.43855 0.25081 0.0
H1073 H 0.58329 0.46545 0.30997 0.0
H1074 H 0.57892 0.46831 0.28518 0.0
H1075 H 0.60274 0.48534 0.29621 0.0
C1076 C 0.58302 0.46347 0.22428 0.0
C1077 C 0.59397 0.48445 0.22345 0.0
C1078 C 0.58537 0.45352 0.23973 0.0
C1079 C 0.59865 0.46433 0.25467 0.0
C1080 C 0.60942 0.48526 0.25401 0.0
H1081 H 0.64716 0.43641 0.35296 0.0
H1082 H 0.64016 0.45204 0.32617 0.0
C1083 C 0.60702 0.49523 0.23862 0.0
C1084 C 0.60215 0.4537 0.27035 0.0
H1085 H 0.6014 0.44921 0.31887 0.0
C1086 C 0.60927 0.44073 0.26568 0.0
C1087 C 0.59898 0.4566 0.28974 0.0
C1088 C 0.59037 0.46953 0.2956 0.0
C1089 C 0.61379 0.43095 0.27992 0.0
C1090 C 0.61094 0.43412 0.29929 0.0
C1091 C 0.60365 0.44693 0.30398 0.0
C1092 C 0.61558 0.42439 0.31496 0.0
C1093 C 0.62204 0.41768 0.27421 0.0
C1094 C 0.60406 0.40366 0.31745 0.0
C1095 C 0.60797 0.39465 0.33277 0.0
C1096 C 0.62348 0.40625 0.34587 0.0
C1097 C 0.63515 0.42701 0.34313 0.0
C1098 C 0.63115 0.436 0.32787 0.0
H1099 H 0.62712 0.41993 0.25909 0.0
H1100 H 0.63494 0.42051 0.2835 0.0
H1101 H 0.61007 0.40183 0.27597 0.0
H1102 H 0.59181 0.3945 0.30775 0.0
H1103 H 0.59866 0.37864 0.33449 0.0
H1104 H 0.38191 0.89773 0.37798 0.0
H1105 H 0.37467 0.8742 0.35154 0.0
H1106 H 0.41723 0.85909 0.3746 0.0
H1107 H 0.42412 0.88205 0.40129 0.0
H1108 H 0.40138 0.87296 0.32417 0.0
H1109 H 0.36504 0.8047 0.36868 0.0
H1110 H 0.3693 0.82853 0.37717 0.0
H1111 H 0.38964 0.82337 0.37688 0.0
C1112 C 0.38965 0.88932 0.37745 0.0
C1113 C 0.40355 0.89172 0.39177 0.0
C1114 C 0.38556 0.87597 0.36231 0.0
C1115 C 0.39516 0.86468 0.36133 0.0
C1116 C 0.40939 0.8674 0.3753 0.0
H1117 H 0.40024 0.77982 0.28597 0.0
H1118 H 0.40305 0.80225 0.31192 0.0
C1119 C 0.41351 0.88074 0.39041 0.0
C1120 C 0.39046 0.85012 0.34564 0.0
H1121 H 0.37311 0.80079 0.33667 0.0
C1122 C 0.39502 0.85715 0.32683 0.0
C1123 C 0.38211 0.82951 0.34923 0.0
C1124 C 0.37605 0.821 0.36906 0.0
C1125 C 0.39214 0.84419 0.31154 0.0
C1126 C 0.38417 0.82364 0.31518 0.0
C1127 C 0.37925 0.81656 0.33395 0.0
C1128 C 0.38158 0.80937 0.2998 0.0
C1129 C 0.3983 0.8527 0.29171 0.0
C1130 C 0.3682 0.80559 0.28462 0.0
C1131 C 0.36655 0.79276 0.26974 0.0
C1132 C 0.3782 0.78343 0.26983 0.0
C1133 C 0.3911 0.78679 0.2854 0.0
C1134 C 0.39273 0.79961 0.30025 0.0
H1135 H 0.40818 0.8692 0.29198 0.0
H1136 H 0.40638 0.84614 0.28421 0.0
H1137 H 0.38458 0.84899 0.28333 0.0
H1138 H 0.35916 0.81269 0.28422 0.0
H1139 H 0.35638 0.79043 0.25802 0.0
H1140 H 0.57294 0.4718 0.55755 0.0
H1141 H 0.58168 0.4581 0.52996 0.0
H1142 H 0.54045 0.39837 0.54945 0.0
H1143 H 0.53183 0.41193 0.57721 0.0
H1144 H 0.58068 0.40678 0.5408 0.0
H1145 H 0.54712 0.42837 0.4821 0.0
H1146 H 0.56268 0.44816 0.49848 0.0
H1147 H 0.53955 0.42713 0.50675 0.0
C1148 C 0.56564 0.45575 0.55588 0.0
C1149 C 0.55168 0.44294 0.56952 0.0
C1150 C 0.57053 0.44795 0.54006 0.0
C1151 C 0.56155 0.42724 0.53762 0.0
C1152 C 0.54741 0.4144 0.55105 0.0
H1153 H 0.57681 0.36909 0.43703 0.0
H1154 H 0.56243 0.37728 0.46446 0.0
C1155 C 0.54242 0.42217 0.56681 0.0
C1156 C 0.56785 0.41903 0.52167 0.0
H1157 H 0.56952 0.41696 0.47304 0.0
C1158 C 0.57811 0.40885 0.52598 0.0
C1159 C 0.56429 0.42161 0.5024 0.0
C1160 C 0.55265 0.43176 0.49707 0.0
C1161 C 0.58549 0.40173 0.51144 0.0
C1162 C 0.58262 0.405 0.49217 0.0
C1163 C 0.57179 0.4146 0.48786 0.0
C1164 C 0.59133 0.39919 0.47627 0.0
C1165 C 0.59636 0.39082 0.51678 0.0
C1166 C 0.61234 0.40879 0.47392 0.0
C1167 C 0.62062 0.40423 0.45825 0.0
C1168 C 0.60802 0.38996 0.44465 0.0
C1169 C 0.58695 0.38009 0.44727 0.0
C1170 C 0.57869 0.38477 0.46289 0.0
H1171 H 0.59316 0.38542 0.53175 0.0
H1172 H 0.59199 0.37788 0.5071 0.0
H1173 H 0.61289 0.4011 0.51536 0.0
H1174 H 0.62233 0.42015 0.48398 0.0
H1175 H 0.63689 0.41213 0.45666 0.0
H1176 H 0.1296 0.56695 0.73812 0.0
H1177 H 0.15274 0.58402 0.71165 0.0
H1178 H 0.13802 0.52717 0.68707 0.0
H1179 H 0.11424 0.50996 0.71307 0.0
H1180 H 0.18638 0.58203 0.70199 0.0
H1181 H 0.13232 0.55607 0.64151 0.0
H1182 H 0.12429 0.55351 0.66611 0.0
H1183 H 0.13055 0.53608 0.65571 0.0
C1184 C 0.13091 0.55805 0.72686 0.0
C1185 C 0.11997 0.53707 0.72767 0.0
C1186 C 0.14428 0.56784 0.71183 0.0
C1187 C 0.14692 0.55687 0.69728 0.0
C1188 C 0.13594 0.53594 0.69795 0.0
H1189 H 0.22593 0.5846 0.59991 0.0
H1190 H 0.20242 0.56888 0.62643 0.0
C1191 C 0.12252 0.52613 0.71294 0.0
C1192 C 0.16189 0.56732 0.68191 0.0
H1193 H 0.16726 0.57216 0.63349 0.0
C1194 C 0.1822 0.58001 0.68702 0.0
C1195 C 0.15637 0.56463 0.66239 0.0
C1196 C 0.13467 0.55199 0.65607 0.0
C1197 C 0.19721 0.58973 0.67309 0.0
C1198 C 0.19171 0.58681 0.65359 0.0
C1199 C 0.17141 0.57426 0.64848 0.0
C1200 C 0.20678 0.5966 0.63821 0.0
C1201 C 0.2189 0.60266 0.67929 0.0
C1202 C 0.21706 0.61741 0.63613 0.0
C1203 C 0.23052 0.62647 0.62097 0.0
C1204 C 0.23388 0.61485 0.6076 0.0
C1205 C 0.22375 0.59401 0.60995 0.0
C1206 C 0.21027 0.58498 0.62506 0.0
H1207 H 0.22118 0.59992 0.69439 0.0
H1208 H 0.2291 0.59999 0.67006 0.0
H1209 H 0.22334 0.61859 0.67795 0.0
H1210 H 0.21435 0.6266 0.64599 0.0
H1211 H 0.238 0.64254 0.61955 0.0
H1212 H 0.60367 0.15063 0.915 0.0
H1213 H 0.61455 0.17354 0.88795 0.0
H1214 H 0.57396 0.12516 0.85095 0.0
H1215 H 0.56259 0.10227 0.87815 0.0
H1216 H 0.63214 0.17546 0.85451 0.0
H1217 H 0.55606 0.16487 0.84181 0.0
H1218 H 0.56191 0.15523 0.86266 0.0
H1219 H 0.55646 0.14201 0.84024 0.0
C1220 C 0.59723 0.14485 0.90104 0.0
C1221 C 0.5822 0.12471 0.89866 0.0
C1222 C 0.60341 0.15795 0.88562 0.0
C1223 C 0.59476 0.15116 0.8675 0.0
C1224 C 0.58041 0.13085 0.86491 0.0
H1225 H 0.64107 0.21781 0.76196 0.0
H1226 H 0.63381 0.19575 0.78923 0.0
C1227 C 0.57402 0.11778 0.8804 0.0
C1228 C 0.6005 0.16549 0.85152 0.0
H1229 H 0.58116 0.18359 0.81867 0.0
C1230 C 0.62101 0.17729 0.84669 0.0
C1231 C 0.58601 0.16816 0.84158 0.0
C1232 C 0.56391 0.15706 0.84694 0.0
C1233 C 0.6274 0.19153 0.83207 0.0
C1234 C 0.61281 0.19359 0.82162 0.0
C1235 C 0.59233 0.18191 0.82658 0.0
C1236 C 0.61831 0.20777 0.80552 0.0
C1237 C 0.64975 0.20451 0.82833 0.0
C1238 C 0.61168 0.22163 0.80538 0.0
C1239 C 0.61545 0.234 0.78963 0.0
C1240 C 0.62605 0.23283 0.77374 0.0
C1241 C 0.63306 0.21924 0.77407 0.0
C1242 C 0.62903 0.20668 0.78972 0.0
H1243 H 0.65881 0.20554 0.84109 0.0
H1244 H 0.65415 0.19787 0.81654 0.0
H1245 H 0.65369 0.21983 0.82415 0.0
H1246 H 0.60334 0.22271 0.8174 0.0
H1247 H 0.60988 0.24432 0.78984 0.0
H1248 H 0.50377 0.60363 0.03918 0.0
H1249 H 0.48605 0.60999 0.01356 0.0
H1250 H 0.4393 0.60156 0.0532 0.0
H1251 H 0.45703 0.59558 0.07891 0.0
H1252 H 0.44472 0.58516 1e-05 0.0
H1253 H 0.46042 0.6581 0.02999 0.0
H1254 H 0.47424 0.64608 0.0372 0.0
H1255 H 0.44929 0.6375 0.04634 0.0
C1256 C 0.4897 0.60311 0.04242 0.0
C1257 C 0.48182 0.59914 0.06107 0.0
C1258 C 0.47958 0.60667 0.02778 0.0
C1259 C 0.46155 0.6065 0.03161 0.0
C1260 C 0.45334 0.60199 0.05005 0.0
H1261 H 0.37446 0.60513 0.95192 0.0
H1262 H 0.39142 0.5982 0.97772 0.0
C1263 C 0.46339 0.59836 0.06466 0.0
C1264 C 0.45143 0.61134 0.01639 0.0
H1265 H 0.4383 0.64558 0.00341 0.0
C1266 C 0.44331 0.59836 0.0007 0.0
C1267 C 0.44986 0.6287 0.01731 0.0
C1268 C 0.45904 0.64353 0.03352 0.0
C1269 C 0.43333 0.60214 0.98599 0.0
C1270 C 0.43131 0.61924 0.98716 0.0
C1271 C 0.43973 0.63239 0.00269 0.0
C1272 C 0.42083 0.62392 0.97217 0.0
C1273 C 0.42527 0.58798 0.96918 0.0
C1274 C 0.43166 0.64103 0.96094 0.0
C1275 C 0.42203 0.64509 0.94622 0.0
C1276 C 0.40135 0.63216 0.94257 0.0
C1277 C 0.39042 0.61537 0.9543 0.0
C1278 C 0.40009 0.6113 0.96897 0.0
H1279 H 0.43185 0.57813 0.96842 0.0
H1280 H 0.40864 0.57839 0.97057 0.0
H1281 H 0.42849 0.59634 0.95558 0.0
H1282 H 0.44767 0.65101 0.96331 0.0
H1283 H 0.43089 0.65818 0.93752 0.0
H1284 H 0.87136 0.45441 0.25 0.0
H1285 H 0.84855 0.43606 0.22362 0.0
H1286 H 0.88555 0.48429 0.18534 0.0
H1287 H 0.90879 0.50258 0.21159 0.0
H1288 H 0.82693 0.44924 0.2018 0.0
H1289 H 0.8774 0.43422 0.15656 0.0
H1290 H 0.88273 0.44152 0.18136 0.0
H1291 H 0.88775 0.45991 0.16342 0.0
C1292 C 0.87491 0.46095 0.23589 0.0
C1293 C 0.89198 0.47991 0.23286 0.0
C1294 C 0.86176 0.45051 0.22088 0.0
C1295 C 0.86548 0.45873 0.20252 0.0
C1296 C 0.88259 0.47755 0.19935 0.0
H1297 H 0.78253 0.42971 0.1085 0.0
H1298 H 0.80504 0.44479 0.13583 0.0
C1299 C 0.89574 0.48805 0.21439 0.0
C1300 C 0.85089 0.44802 0.18693 0.0
H1301 H 0.84613 0.42709 0.14283 0.0
C1302 C 0.83108 0.44431 0.18893 0.0
C1303 C 0.85632 0.44143 0.17028 0.0
C1304 C 0.87715 0.44428 0.16777 0.0
C1305 C 0.81664 0.43453 0.17453 0.0
C1306 C 0.82225 0.42852 0.15762 0.0
C1307 C 0.84194 0.43185 0.15578 0.0
C1308 C 0.808 0.41904 0.14153 0.0
C1309 C 0.79545 0.43058 0.17758 0.0
C1310 C 0.80238 0.39963 0.13557 0.0
C1311 C 0.78951 0.39094 0.11991 0.0
C1312 C 0.7822 0.40161 0.10983 0.0
C1313 C 0.7878 0.42103 0.11596 0.0
C1314 C 0.8006 0.42966 0.13164 0.0
H1315 H 0.79226 0.43146 0.19293 0.0
H1316 H 0.79358 0.44195 0.1698 0.0
H1317 H 0.78412 0.41563 0.17197 0.0
H1318 H 0.80801 0.39124 0.143 0.0
H1319 H 0.78558 0.376 0.11554 0.0
loop_
_geom_bond_atom_site_label_1
_geom_bond_atom_site_label_2
_geom_bond_distance
_geom_bond_site_symmetry_2
_ccdc_geom_bond_type
H0 C27 0.929 . S
N1 C26 1.433 . S
N1 C32 1.435 . S
N1 C38 1.423 . S
H2 C28 0.930 . S
H3 C31 0.931 . S
H4 C30 0.929 . S
H5 C33 0.930 . S
H6 C34 0.932 . S
H7 C37 0.929 . S
H8 C36 0.931 . S
H9 C39 0.929 . S
H10 C43 0.932 . S
H11 C40 0.931 . S
H12 C42 0.929 . S
H13 C45 0.929 . S
H14 C46 0.930 . S
H15 C48 0.929 . S
H16 C49 0.931 . S
H17 C51 0.930 . S
H18 C52 0.932 . S
H19 C54 0.931 . S
H20 C55 0.929 . S
H21 C57 0.929 . S
H22 C58 0.931 . S
H23 C60 0.929 . S
N24 C44 1.433 . S
N24 C50 1.435 . S
N24 C56 1.423 . S
H25 C61 0.932 . S
C26 N1 1.433 . S
C26 C27 1.363 . S
C26 C31 1.370 . S
C27 H0 0.929 . S
C27 C26 1.363 . S
C27 C28 1.385 . S
C28 H2 0.930 . S
C28 C27 1.385 . S
C28 C29 1.357 . S
C29 C28 1.357 . S
C29 C30 1.406 . S
C30 H4 0.929 . S
C30 C29 1.406 . S
C30 C31 1.391 . S
C31 H3 0.931 . S
C31 C26 1.370 . S
C31 C30 1.391 . S
C32 N1 1.435 . S
C32 C33 1.358 . S
C32 C37 1.371 . S
C33 H5 0.930 . S
C33 C32 1.358 . S
C33 C34 1.405 . S
C34 H6 0.932 . S
C34 C33 1.405 . S
C34 C35 1.383 . S
C35 C34 1.383 . S
C35 C36 1.393 . S
C36 H8 0.931 . S
C36 C35 1.393 . S
C36 C37 1.382 . S
C37 H7 0.929 . S
C37 C32 1.371 . S
C37 C36 1.382 . S
C38 N1 1.423 . S
C38 C39 1.362 . S
C38 C43 1.388 . S
C39 H9 0.929 . S
C39 C38 1.362 . S
C39 C40 1.376 . S
C40 H11 0.931 . S
C40 C39 1.376 . S
C40 C41 1.396 . S
C41 C40 1.396 . S
C41 C42 1.348 . S
C41 C59 1.472 1_455 S
C42 H12 0.929 . S
C42 C41 1.348 . S
C42 C43 1.443 . S
C43 H10 0.932 . S
C43 C38 1.388 . S
C43 C42 1.443 . S
C44 N24 1.433 . S
C44 C45 1.363 . S
C44 C49 1.370 . S
C45 H13 0.929 . S
C45 C44 1.363 . S
C45 C46 1.385 . S
C46 H14 0.930 . S
C46 C45 1.385 . S
C46 C47 1.357 . S
C47 C46 1.357 . S
C47 C48 1.406 . S
C48 H15 0.929 . S
C48 C47 1.406 . S
C48 C49 1.391 . S
C49 H16 0.931 . S
C49 C44 1.370 . S
C49 C48 1.391 . S
C50 N24 1.435 . S
C50 C51 1.358 . S
C50 C55 1.371 . S
C51 H17 0.930 . S
C51 C50 1.358 . S
C51 C52 1.405 . S
C52 H18 0.932 . S
C52 C51 1.405 . S
C52 C53 1.383 . S
C53 C52 1.383 . S
C53 C54 1.393 . S
C54 H19 0.931 . S
C54 C53 1.393 . S
C54 C55 1.382 . S
C55 H20 0.929 . S
C55 C50 1.371 . S
C55 C54 1.382 . S
C56 N24 1.423 . S
C56 C57 1.362 . S
C56 C61 1.388 . S
C57 H21 0.929 . S
C57 C56 1.362 . S
C57 C58 1.376 . S
C58 H22 0.931 . S
C58 C57 1.376 . S
C58 C59 1.396 . S
C59 C41 1.472 1_655 S
C59 C58 1.396 . S
C59 C60 1.348 . S
C60 H23 0.929 . S
C60 C59 1.348 . S
C60 C61 1.443 . S
C61 H25 0.932 . S
C61 C56 1.388 . S
C61 C60 1.443 . S
H62 C89 0.929 . S
N63 C88 1.433 . S
N63 C94 1.435 . S
N63 C100 1.423 . S
H64 C90 0.930 . S
H65 C93 0.931 . S
H66 C92 0.929 . S
H67 C95 0.930 . S
H68 C96 0.932 . S
H69 C99 0.929 . S
H70 C98 0.931 . S
H71 C101 0.929 . S
H72 C105 0.932 . S
H73 C102 0.931 . S
H74 C104 0.929 1_545 S
H75 C107 0.929 . S
H76 C108 0.930 . S
H77 C110 0.929 . S
H78 C111 0.931 . S
H79 C113 0.930 . S
H80 C114 0.932 . S
H81 C116 0.931 . S
H82 C117 0.929 . S
H83 C119 0.929 . S
H84 C120 0.931 . S
H85 C122 0.929 . S
N86 C106 1.433 . S
N86 C112 1.435 . S
N86 C118 1.423 . S
H87 C123 0.932 . S
C88 N63 1.433 . S
C88 C89 1.363 . S
C88 C93 1.370 . S
C89 H62 0.929 . S
C89 C88 1.363 . S
C89 C90 1.385 . S
C90 H64 0.930 . S
C90 C89 1.385 . S
C90 C91 1.357 . S
C91 C90 1.357 . S
C91 C92 1.406 . S
C92 H66 0.929 . S
C92 C91 1.406 . S
C92 C93 1.391 . S
C93 H65 0.931 . S
C93 C88 1.370 . S
C93 C92 1.391 . S
C94 N63 1.435 . S
C94 C95 1.358 . S
C94 C99 1.371 . S
C95 H67 0.930 . S
C95 C94 1.358 . S
C95 C96 1.405 . S
C96 H68 0.932 . S
C96 C95 1.405 . S
C96 C97 1.383 . S
C97 C96 1.383 . S
C97 C98 1.393 . S
C98 H70 0.931 . S
C98 C97 1.393 . S
C98 C99 1.382 . S
C99 H69 0.929 . S
C99 C94 1.371 . S
C99 C98 1.382 . S
C100 N63 1.423 . S
C100 C101 1.362 . S
C100 C105 1.388 . S
C101 H71 0.929 . S
C101 C100 1.362 . S
C101 C102 1.376 . S
C102 H73 0.931 . S
C102 C101 1.376 . S
C102 C103 1.396 1_565 S
C103 C102 1.396 1_545 S
C103 C104 1.348 1_545 S
C103 C121 1.472 . S
C104 H74 0.929 1_565 S
C104 C103 1.348 1_565 S
C104 C105 1.443 . S
C105 H72 0.932 . S
C105 C100 1.388 . S
C105 C104 1.443 . S
C106 N86 1.433 . S
C106 C107 1.363 . S
C106 C111 1.370 . S
C107 H75 0.929 . S
C107 C106 1.363 . S
C107 C108 1.385 . S
C108 H76 0.930 . S
C108 C107 1.385 . S
C108 C109 1.357 . S
C109 C108 1.357 . S
C109 C110 1.406 . S
C110 H77 0.929 . S
C110 C109 1.406 . S
C110 C111 1.391 . S
C111 H78 0.931 . S
C111 C106 1.370 . S
C111 C110 1.391 . S
C112 N86 1.435 . S
C112 C113 1.358 . S
C112 C117 1.371 . S
C113 H79 0.930 . S
C113 C112 1.358 . S
C113 C114 1.405 . S
C114 H80 0.932 . S
C114 C113 1.405 . S
C114 C115 1.383 . S
C115 C114 1.383 . S
C115 C116 1.393 . S
C116 H81 0.931 . S
C116 C115 1.393 . S
C116 C117 1.382 . S
C117 H82 0.929 . S
C117 C112 1.371 . S
C117 C116 1.382 . S
C118 N86 1.423 . S
C118 C119 1.362 . S
C118 C123 1.388 . S
C119 H83 0.929 . S
C119 C118 1.362 . S
C119 C120 1.376 . S
C120 H84 0.931 . S
C120 C119 1.376 . S
C120 C121 1.396 . S
C121 C103 1.472 . S
C121 C120 1.396 . S
C121 C122 1.348 . S
C122 H85 0.929 . S
C122 C121 1.348 . S
C122 C123 1.443 . S
C123 H87 0.932 . S
C123 C118 1.388 . S
C123 C122 1.443 . S
H124 C151 0.929 . S
N125 C150 1.433 . S
N125 C156 1.435 . S
N125 C162 1.423 . S
H126 C152 0.930 . S
H127 C155 0.931 . S
H128 C154 0.929 . S
H129 C157 0.930 . S
H130 C158 0.932 . S
H131 C161 0.929 . S
H132 C160 0.931 . S
H133 C163 0.929 . S
H134 C167 0.932 . S
H135 C164 0.931 . S
H136 C166 0.929 . S
H137 C169 0.929 . S
H138 C170 0.930 . S
H139 C172 0.929 . S
H140 C173 0.931 . S
H141 C175 0.930 . S
H142 C176 0.932 . S
H143 C178 0.931 . S
H144 C179 0.929 . S
H145 C181 0.929 . S
H146 C182 0.931 . S
H147 C184 0.929 . S
N148 C168 1.433 . S
N148 C174 1.435 . S
N148 C180 1.423 . S
H149 C185 0.932 . S
C150 N125 1.433 . S
C150 C151 1.363 . S
C150 C155 1.370 . S
C151 H124 0.929 . S
C151 C150 1.363 . S
C151 C152 1.385 . S
C152 H126 0.930 . S
C152 C151 1.385 . S
C152 C153 1.357 . S
C153 C152 1.357 . S
C153 C154 1.406 . S
C154 H128 0.929 . S
C154 C153 1.406 . S
C154 C155 1.391 . S
C155 H127 0.931 . S
C155 C150 1.370 . S
C155 C154 1.391 . S
C156 N125 1.435 . S
C156 C157 1.358 . S
C156 C161 1.371 . S
C157 H129 0.930 . S
C157 C156 1.358 . S
C157 C158 1.405 . S
C158 H130 0.932 . S
C158 C157 1.405 . S
C158 C159 1.383 . S
C159 C158 1.383 . S
C159 C160 1.393 . S
C160 H132 0.931 . S
C160 C159 1.393 . S
C160 C161 1.382 . S
C161 H131 0.929 . S
C161 C156 1.371 . S
C161 C160 1.382 . S
C162 N125 1.423 . S
C162 C163 1.362 . S
C162 C167 1.388 . S
C163 H133 0.929 . S
C163 C162 1.362 . S
C163 C164 1.376 . S
C164 H135 0.931 . S
C164 C163 1.376 . S
C164 C165 1.396 . S
C165 C164 1.396 . S
C165 C166 1.348 . S
C165 C183 1.472 . S
C166 H136 0.929 . S
C166 C165 1.348 . S
C166 C167 1.443 . S
C167 H134 0.932 . S
C167 C162 1.388 . S
C167 C166 1.443 . S
C168 N148 1.433 . S
C168 C169 1.363 . S
C168 C173 1.370 . S
C169 H137 0.929 . S
C169 C168 1.363 . S
C169 C170 1.385 . S
C170 H138 0.930 . S
C170 C169 1.385 . S
C170 C171 1.357 . S
C171 C170 1.357 . S
C171 C172 1.406 . S
C172 H139 0.929 . S
C172 C171 1.406 . S
C172 C173 1.391 . S
C173 H140 0.931 . S
C173 C168 1.370 . S
C173 C172 1.391 . S
C174 N148 1.435 . S
C174 C175 1.358 . S
C174 C179 1.371 . S
C175 H141 0.930 . S
C175 C174 1.358 . S
C175 C176 1.405 . S
C176 H142 0.932 . S
C176 C175 1.405 . S
C176 C177 1.383 . S
C177 C176 1.383 . S
C177 C178 1.393 . S
C178 H143 0.931 . S
C178 C177 1.393 . S
C178 C179 1.382 . S
C179 H144 0.929 . S
C179 C174 1.371 . S
C179 C178 1.382 . S
C180 N148 1.423 . S
C180 C181 1.362 . S
C180 C185 1.388 . S
C181 H145 0.929 . S
C181 C180 1.362 . S
C181 C182 1.376 . S
C182 H146 0.931 . S
C182 C181 1.376 . S
C182 C183 1.396 . S
C183 C165 1.472 . S
C183 C182 1.396 . S
C183 C184 1.348 . S
C184 H147 0.929 . S
C184 C183 1.348 . S
C184 C185 1.443 . S
C185 H149 0.932 . S
C185 C180 1.388 . S
C185 C184 1.443 . S
H186 C213 0.929 . S
N187 C212 1.433 . S
N187 C218 1.435 . S
N187 C224 1.423 . S
H188 C214 0.930 . S
H189 C217 0.931 . S
H190 C216 0.929 . S
H191 C219 0.930 . S
H192 C220 0.932 . S
H193 C223 0.929 . S
H194 C222 0.931 . S
H195 C225 0.929 . S
H196 C229 0.932 . S
H197 C226 0.931 . S
H198 C228 0.929 . S
H199 C231 0.929 . S
H200 C232 0.930 . S
H201 C234 0.929 . S
H202 C235 0.931 . S
H203 C237 0.930 . S
H204 C238 0.932 . S
H205 C240 0.931 . S
H206 C241 0.929 . S
H207 C243 0.929 . S
H208 C244 0.931 . S
H209 C246 0.929 . S
N210 C230 1.433 . S
N210 C236 1.435 . S
N210 C242 1.423 . S
H211 C247 0.932 . S
C212 N187 1.433 . S
C212 C213 1.363 . S
C212 C217 1.370 . S
C213 H186 0.929 . S
C213 C212 1.363 . S
C213 C214 1.385 . S
C214 H188 0.930 . S
C214 C213 1.385 . S
C214 C215 1.357 . S
C215 C214 1.357 . S
C215 C216 1.406 . S
C216 H190 0.929 . S
C216 C215 1.406 . S
C216 C217 1.391 . S
C217 H189 0.931 . S
C217 C212 1.370 . S
C217 C216 1.391 . S
C218 N187 1.435 . S
C218 C219 1.358 . S
C218 C223 1.371 . S
C219 H191 0.930 . S
C219 C218 1.358 . S
C219 C220 1.405 . S
C220 H192 0.932 . S
C220 C219 1.405 . S
C220 C221 1.383 . S
C221 C220 1.383 . S
C221 C222 1.393 . S
C222 H194 0.931 . S
C222 C221 1.393 . S
C222 C223 1.382 . S
C223 H193 0.929 . S
C223 C218 1.371 . S
C223 C222 1.382 . S
C224 N187 1.423 . S
C224 C225 1.362 . S
C224 C229 1.388 . S
C225 H195 0.929 . S
C225 C224 1.362 . S
C225 C226 1.376 . S
C226 H197 0.931 . S
C226 C225 1.376 . S
C226 C227 1.396 . S
C227 C226 1.396 . S
C227 C228 1.348 . S
C227 C245 1.472 1_455 S
C228 H198 0.929 . S
C228 C227 1.348 . S
C228 C229 1.443 . S
C229 H196 0.932 . S
C229 C224 1.388 . S
C229 C228 1.443 . S
C230 N210 1.433 . S
C230 C231 1.363 . S
C230 C235 1.370 . S
C231 H199 0.929 . S
C231 C230 1.363 . S
C231 C232 1.385 . S
C232 H200 0.930 . S
C232 C231 1.385 . S
C232 C233 1.357 . S
C233 C232 1.357 . S
C233 C234 1.406 . S
C234 H201 0.929 . S
C234 C233 1.406 . S
C234 C235 1.391 . S
C235 H202 0.931 . S
C235 C230 1.370 . S
C235 C234 1.391 . S
C236 N210 1.435 . S
C236 C237 1.358 . S
C236 C241 1.371 . S
C237 H203 0.930 . S
C237 C236 1.358 . S
C237 C238 1.405 . S
C238 H204 0.932 . S
C238 C237 1.405 . S
C238 C239 1.383 . S
C239 C238 1.383 . S
C239 C240 1.393 . S
C240 H205 0.931 . S
C240 C239 1.393 . S
C240 C241 1.382 . S
C241 H206 0.929 . S
C241 C236 1.371 . S
C241 C240 1.382 . S
C242 N210 1.423 . S
C242 C243 1.362 . S
C242 C247 1.388 . S
C243 H207 0.929 . S
C243 C242 1.362 . S
C243 C244 1.376 . S
C244 H208 0.931 . S
C244 C243 1.376 . S
C244 C245 1.396 . S
C245 C227 1.472 1_655 S
C245 C244 1.396 . S
C245 C246 1.348 . S
C246 H209 0.929 . S
C246 C245 1.348 . S
C246 C247 1.443 . S
C247 H211 0.932 . S
C247 C242 1.388 . S
C247 C246 1.443 . S
H248 C275 0.929 . S
N249 C274 1.433 . S
N249 C280 1.435 . S
N249 C286 1.423 . S
H250 C276 0.930 . S
H251 C279 0.931 . S
H252 C278 0.929 . S
H253 C281 0.930 . S
H254 C282 0.932 . S
H255 C285 0.929 . S
H256 C284 0.931 . S
H257 C287 0.929 . S
H258 C291 0.932 . S
H259 C288 0.931 . S
H260 C290 0.929 . S
H261 C293 0.929 . S
H262 C294 0.930 . S
H263 C296 0.929 . S
H264 C297 0.931 . S
H265 C299 0.943 . S
H266 C300 0.932 . S
H267 C302 0.931 . S
H268 C303 0.929 . S
H269 C305 0.929 1_554 S
H270 C306 0.915 1_545 S
H271 C308 0.929 . S
N272 C292 1.433 1_556 S
N272 C298 1.435 . S
N272 C304 1.423 . S
H273 C309 0.932 . S
C274 N249 1.433 . S
C274 C275 1.363 . S
C274 C279 1.370 . S
C275 H248 0.929 . S
C275 C274 1.363 . S
C275 C276 1.385 . S
C276 H250 0.930 . S
C276 C275 1.385 . S
C276 C277 1.357 1_556 S
C277 C276 1.357 1_554 S
C277 C278 1.406 . S
C278 H252 0.929 . S
C278 C277 1.406 . S
C278 C279 1.391 1_554 S
C279 H251 0.931 . S
C279 C274 1.370 . S
C279 C278 1.391 1_556 S
C280 N249 1.435 . S
C280 C281 1.358 . S
C280 C285 1.371 . S
C281 H253 0.930 . S
C281 C280 1.358 . S
C281 C282 1.405 . S
C282 H254 0.932 . S
C282 C281 1.405 . S
C282 C283 1.383 . S
C283 C282 1.383 . S
C283 C284 1.393 . S
C284 H256 0.931 . S
C284 C283 1.393 . S
C284 C285 1.382 . S
C285 H255 0.929 . S
C285 C280 1.371 . S
C285 C284 1.382 . S
C286 N249 1.423 . S
C286 C287 1.362 . S
C286 C291 1.388 . S
C287 H257 0.929 . S
C287 C286 1.362 . S
C287 C288 1.376 . S
C288 H259 0.931 . S
C288 C287 1.376 . S
C288 C289 1.396 . S
C289 C288 1.396 . S
C289 C290 1.348 . S
C289 C307 1.472 1_545 S
C290 H260 0.929 . S
C290 C289 1.348 . S
C290 C291 1.443 . S
C291 H258 0.932 . S
C291 C286 1.388 . S
C291 C290 1.443 . S
C292 N272 1.433 1_554 S
C292 C293 1.363 . S
C292 C297 1.370 . S
C293 H261 0.929 . S
C293 C292 1.363 . S
C293 C294 1.385 . S
C294 H262 0.930 . S
C294 C293 1.385 . S
C294 C295 1.357 . S
C295 C294 1.357 . S
C295 C296 1.406 . S
C296 H263 0.929 . S
C296 C295 1.406 . S
C296 C297 1.391 . S
C297 H264 0.931 . S
C297 C292 1.370 . S
C297 C296 1.391 . S
C298 N272 1.435 . S
C298 C299 1.358 . S
C298 C303 1.371 . S
C299 H265 0.943 . S
C299 C298 1.358 . S
C299 C300 1.405 . S
C300 H266 0.932 . S
C300 C299 1.405 . S
C300 C301 1.383 . S
C301 C300 1.383 . S
C301 C302 1.393 . S
C302 H267 0.931 . S
C302 C301 1.393 . S
C302 C303 1.382 . S
C303 H268 0.929 . S
C303 C298 1.371 . S
C303 C302 1.382 . S
C304 N272 1.423 . S
C304 C305 1.362 . S
C304 C309 1.388 . S
C305 H269 0.929 1_556 S
C305 C304 1.362 . S
C305 C306 1.376 . S
C306 H270 0.915 1_565 S
C306 C305 1.376 . S
C306 C307 1.396 . S
C307 C289 1.472 1_565 S
C307 C306 1.396 . S
C307 C308 1.348 . S
C308 H271 0.929 . S
C308 C307 1.348 . S
C308 C309 1.443 . S
C309 H273 0.932 . S
C309 C304 1.388 . S
C309 C308 1.443 . S
H310 C337 0.929 . S
N311 C336 1.433 . S
N311 C342 1.435 . S
N311 C348 1.423 . S
H312 C338 0.930 . S
H313 C341 0.931 . S
H314 C340 0.929 . S
H315 C343 0.930 . S
H316 C344 0.932 . S
H317 C347 0.929 . S
H318 C346 0.931 . S
H319 C349 0.929 . S
H320 C353 0.932 . S
H321 C350 0.931 . S
H322 C352 0.929 . S
H323 C355 0.929 . S
H324 C356 0.930 . S
H325 C358 0.929 . S
H326 C359 0.931 . S
H327 C361 0.930 . S
H328 C362 0.932 . S
H329 C364 0.931 . S
H330 C365 0.929 . S
H331 C367 0.929 . S
H332 C368 0.931 . S
H333 C370 0.929 . S
N334 C354 1.433 . S
N334 C360 1.435 . S
N334 C366 1.423 . S
H335 C371 0.932 . S
C336 N311 1.433 . S
C336 C337 1.363 . S
C336 C341 1.370 . S
C337 H310 0.929 . S
C337 C336 1.363 . S
C337 C338 1.385 . S
C338 H312 0.930 . S
C338 C337 1.385 . S
C338 C339 1.357 . S
C339 C338 1.357 . S
C339 C340 1.406 . S
C340 H314 0.929 . S
C340 C339 1.406 . S
C340 C341 1.391 . S
C341 H313 0.931 . S
C341 C336 1.370 . S
C341 C340 1.391 . S
C342 N311 1.435 . S
C342 C343 1.358 . S
C342 C347 1.371 . S
C343 H315 0.930 . S
C343 C342 1.358 . S
C343 C344 1.405 . S
C344 H316 0.932 . S
C344 C343 1.405 . S
C344 C345 1.383 . S
C345 C344 1.383 . S
C345 C346 1.393 . S
C346 H318 0.931 . S
C346 C345 1.393 . S
C346 C347 1.382 . S
C347 H317 0.929 . S
C347 C342 1.371 . S
C347 C346 1.382 . S
C348 N311 1.423 . S
C348 C349 1.362 . S
C348 C353 1.388 . S
C349 H319 0.929 . S
C349 C348 1.362 . S
C349 C350 1.376 . S
C350 H321 0.931 . S
C350 C349 1.376 . S
C350 C351 1.396 . S
C351 C350 1.396 . S
C351 C352 1.348 . S
C351 C369 1.472 . S
C352 H322 0.929 . S
C352 C351 1.348 . S
C352 C353 1.443 . S
C353 H320 0.932 . S
C353 C348 1.388 . S
C353 C352 1.443 . S
C354 N334 1.433 . S
C354 C355 1.363 . S
C354 C359 1.370 . S
C355 H323 0.929 . S
C355 C354 1.363 . S
C355 C356 1.385 . S
C356 H324 0.930 . S
C356 C355 1.385 . S
C356 C357 1.357 . S
C357 C356 1.357 . S
C357 C358 1.406 . S
C358 H325 0.929 . S
C358 C357 1.406 . S
C358 C359 1.391 . S
C359 H326 0.931 . S
C359 C354 1.370 . S
C359 C358 1.391 . S
C360 N334 1.435 . S
C360 C361 1.358 . S
C360 C365 1.371 . S
C361 H327 0.930 . S
C361 C360 1.358 . S
C361 C362 1.405 . S
C362 H328 0.932 . S
C362 C361 1.405 . S
C362 C363 1.383 . S
C363 C362 1.383 . S
C363 C364 1.393 . S
C364 H329 0.931 . S
C364 C363 1.393 . S
C364 C365 1.382 . S
C365 H330 0.929 . S
C365 C360 1.371 . S
C365 C364 1.382 . S
C366 N334 1.423 . S
C366 C367 1.362 . S
C366 C371 1.388 . S
C367 H331 0.929 . S
C367 C366 1.362 . S
C367 C368 1.376 . S
C368 H332 0.931 . S
C368 C367 1.376 . S
C368 C369 1.396 . S
C369 C351 1.472 . S
C369 C368 1.396 . S
C369 C370 1.348 . S
C370 H333 0.929 . S
C370 C369 1.348 . S
C370 C371 1.443 . S
C371 H335 0.932 . S
C371 C366 1.388 . S
C371 C370 1.443 . S
O372 Cd373 2.223 . S
O372 C380 1.315 . S
Cd373 O372 2.223 . S
Cd373 O376 2.297 . S
Cd373 O377 2.439 . S
Cd373 O383 2.240 . S
Cd374 O375 2.240 . S
Cd374 O382 2.223 . S
Cd374 O384 2.297 . S
Cd374 O385 2.439 . S
O375 Cd374 2.240 . S
O375 C380 1.279 . S
O376 Cd373 2.297 . S
O376 C378 1.247 . S
O377 Cd373 2.439 . S
O377 C378 1.208 . S
C378 O376 1.247 . S
C378 O377 1.208 . S
C379 O384 1.247 . S
C379 O385 1.208 . S
C380 O372 1.315 . S
C380 O375 1.279 . S
C381 O382 1.315 . S
C381 O383 1.279 . S
O382 Cd374 2.223 . S
O382 C381 1.315 . S
O383 Cd373 2.240 . S
O383 C381 1.279 . S
O384 Cd374 2.297 . S
O384 C379 1.247 . S
O385 Cd374 2.439 . S
O385 C379 1.208 . S
O386 Cd387 2.223 . S
O386 C394 1.315 . S
Cd387 O386 2.223 . S
Cd387 O390 2.297 . S
Cd387 O391 2.439 . S
Cd387 O397 2.240 . S
Cd388 O389 2.240 . S
Cd388 O396 2.223 . S
Cd388 O398 2.297 . S
Cd388 O399 2.439 . S
O389 Cd388 2.240 . S
O389 C394 1.279 . S
O390 Cd387 2.297 . S
O390 C392 1.247 . S
O391 Cd387 2.439 . S
O391 C392 1.208 . S
C392 O390 1.247 . S
C392 O391 1.208 . S
C393 O398 1.247 . S
C393 O399 1.208 . S
C394 O386 1.315 . S
C394 O389 1.279 . S
C395 O396 1.315 . S
C395 O397 1.279 . S
O396 Cd388 2.223 . S
O396 C395 1.315 . S
O397 Cd387 2.240 . S
O397 C395 1.279 . S
O398 Cd388 2.297 . S
O398 C393 1.247 . S
O399 Cd388 2.439 . S
O399 C393 1.208 . S
O400 Cd401 2.223 . S
O400 C408 1.315 . S
Cd401 O400 2.223 . S
Cd401 O404 2.297 . S
Cd401 O405 2.439 . S
Cd401 O411 2.240 . S
Cd402 O403 2.240 . S
Cd402 O410 2.223 . S
Cd402 O412 2.297 . S
Cd402 O413 2.439 . S
O403 Cd402 2.240 . S
O403 C408 1.279 . S
O404 Cd401 2.297 . S
O404 C406 1.247 . S
O405 Cd401 2.439 . S
O405 C406 1.208 . S
C406 O404 1.247 . S
C406 O405 1.208 . S
C407 O412 1.247 . S
C407 O413 1.208 . S
C408 O400 1.315 . S
C408 O403 1.279 . S
C409 O410 1.315 . S
C409 O411 1.279 . S
O410 Cd402 2.223 . S
O410 C409 1.315 . S
O411 Cd401 2.240 . S
O411 C409 1.279 . S
O412 Cd402 2.297 . S
O412 C407 1.247 . S
O413 Cd402 2.439 . S
O413 C407 1.208 . S
O414 Cd415 2.223 . S
O414 C422 1.315 . S
Cd415 O414 2.223 . S
Cd415 O418 2.297 . S
Cd415 O419 2.439 . S
Cd415 O425 2.240 . S
Cd416 O417 2.240 . S
Cd416 O424 2.223 . S
Cd416 O426 2.297 . S
Cd416 O427 2.439 . S
O417 Cd416 2.240 . S
O417 C422 1.279 . S
O418 Cd415 2.297 . S
O418 C420 1.247 . S
O419 Cd415 2.439 . S
O419 C420 1.208 . S
C420 O418 1.247 . S
C420 O419 1.208 . S
C421 O426 1.247 . S
C421 O427 1.208 . S
C422 O414 1.315 . S
C422 O417 1.279 . S
C423 O424 1.315 . S
C423 O425 1.279 . S
O424 Cd416 2.223 . S
O424 C423 1.315 . S
O425 Cd415 2.240 . S
O425 C423 1.279 . S
O426 Cd416 2.297 . S
O426 C421 1.247 . S
O427 Cd416 2.439 . S
O427 C421 1.208 . S
O428 Cd429 2.223 . S
O428 C436 1.315 . S
Cd429 O428 2.223 . S
Cd429 O432 2.297 . S
Cd429 O433 2.439 . S
Cd429 O439 2.240 . S
Cd430 O431 2.240 . S
Cd430 O438 2.223 . S
Cd430 O440 2.297 . S
Cd430 O441 2.439 . S
O431 Cd430 2.240 . S
O431 C436 1.279 . S
O432 Cd429 2.297 . S
O432 C434 1.247 . S
O433 Cd429 2.439 . S
O433 C434 1.208 . S
C434 O432 1.247 . S
C434 O433 1.208 . S
C435 O440 1.247 . S
C435 O441 1.208 . S
C436 O428 1.315 . S
C436 O431 1.279 . S
C437 O438 1.315 . S
C437 O439 1.279 . S
O438 Cd430 2.223 . S
O438 C437 1.315 . S
O439 Cd429 2.240 . S
O439 C437 1.279 . S
O440 Cd430 2.297 . S
O440 C435 1.247 . S
O441 Cd430 2.439 . S
O441 C435 1.208 . S
O442 Cd443 2.223 . S
O442 C450 1.315 . S
Cd443 O442 2.223 . S
Cd443 O446 2.297 . S
Cd443 O447 2.439 . S
Cd443 O453 2.240 . S
Cd444 O445 2.240 . S
Cd444 O452 2.223 . S
Cd444 O454 2.297 . S
Cd444 O455 2.439 . S
O445 Cd444 2.240 . S
O445 C450 1.279 . S
O446 Cd443 2.297 . S
O446 C448 1.247 . S
O447 Cd443 2.439 . S
O447 C448 1.208 . S
C448 O446 1.247 . S
C448 O447 1.208 . S
C449 O454 1.247 . S
C449 O455 1.208 . S
C450 O442 1.315 . S
C450 O445 1.279 . S
C451 O452 1.315 . S
C451 O453 1.279 . S
O452 Cd444 2.223 . S
O452 C451 1.315 . S
O453 Cd443 2.240 . S
O453 C451 1.279 . S
O454 Cd444 2.297 . S
O454 C449 1.247 . S
O455 Cd444 2.439 . S
O455 C449 1.208 . S
H456 C464 0.929 . S
H457 C466 0.930 . S
H458 C468 0.930 . S
H459 C471 0.929 . S
H460 C474 0.930 . S
H461 C476 0.960 . S
H462 C476 0.960 . S
H463 C476 0.960 . S
C464 H456 0.929 . S
C464 C465 1.377 . S
C464 C466 1.384 . S
C465 C464 1.377 . S
C465 C471 1.390 . S
C466 H457 0.930 . S
C466 C464 1.384 . S
C466 C467 1.372 . S
C467 C466 1.372 . S
C467 C468 1.400 . S
C467 C472 1.490 . S
C468 H458 0.930 . S
C468 C467 1.400 . S
C468 C471 1.386 . S
H469 C485 0.930 . S
H470 C486 0.931 . S
C471 H459 0.929 . S
C471 C465 1.390 . S
C471 C468 1.386 . S
C472 C467 1.490 . S
C472 C474 1.395 . S
C472 C475 1.403 . S
H473 C479 0.930 . S
C474 H460 0.930 . S
C474 C472 1.395 . S
C474 C477 1.403 . S
C475 C472 1.403 . S
C475 C476 1.524 . S
C475 C479 1.400 . S
C476 H461 0.960 . S
C476 H462 0.960 . S
C476 H463 0.960 . S
C476 C475 1.524 . S
C477 C474 1.403 . S
C477 C478 1.392 . S
C477 C481 1.495 . S
C478 C477 1.392 . S
C478 C479 1.385 . S
C478 C480 1.478 . S
C479 H473 0.930 . S
C479 C475 1.400 . S
C479 C478 1.385 . S
C480 C478 1.478 . S
C480 C482 1.381 . S
C480 C486 1.383 . S
C481 C477 1.495 . S
C481 H487 0.959 . S
C481 H488 0.961 . S
C481 H489 0.960 . S
C482 C480 1.381 . S
C482 C483 1.394 . S
C482 H490 0.930 . S
C483 C482 1.394 . S
C483 C484 1.383 . S
C483 H491 0.929 . S
C484 C483 1.383 . S
C484 C485 1.377 . S
C485 H469 0.930 . S
C485 C484 1.377 . S
C485 C486 1.379 . S
C486 H470 0.931 . S
C486 C480 1.383 . S
C486 C485 1.379 . S
H487 C481 0.959 . S
H488 C481 0.961 . S
H489 C481 0.960 . S
H490 C482 0.930 . S
H491 C483 0.929 . S
H492 C500 0.929 . S
H493 C502 0.930 . S
H494 C504 0.930 . S
H495 C507 0.929 . S
H496 C510 0.930 . S
H497 C512 0.960 . S
H498 C512 0.960 . S
H499 C512 0.960 . S
C500 H492 0.929 . S
C500 C501 1.377 . S
C500 C502 1.384 . S
C501 C500 1.377 . S
C501 C507 1.390 . S
C502 H493 0.930 . S
C502 C500 1.384 . S
C502 C503 1.372 . S
C503 C502 1.372 . S
C503 C504 1.400 . S
C503 C508 1.490 . S
C504 H494 0.930 . S
C504 C503 1.400 . S
C504 C507 1.386 . S
H505 C521 0.930 . S
H506 C522 0.931 . S
C507 H495 0.929 . S
C507 C501 1.390 . S
C507 C504 1.386 . S
C508 C503 1.490 . S
C508 C510 1.395 . S
C508 C511 1.403 . S
H509 C515 0.930 . S
C510 H496 0.930 . S
C510 C508 1.395 . S
C510 C513 1.403 . S
C511 C508 1.403 . S
C511 C512 1.524 . S
C511 C515 1.400 . S
C512 H497 0.960 . S
C512 H498 0.960 . S
C512 H499 0.960 . S
C512 C511 1.524 . S
C513 C510 1.403 . S
C513 C514 1.392 . S
C513 C517 1.495 . S
C514 C513 1.392 . S
C514 C515 1.385 . S
C514 C516 1.478 . S
C515 H509 0.930 . S
C515 C511 1.400 . S
C515 C514 1.385 . S
C516 C514 1.478 . S
C516 C518 1.381 . S
C516 C522 1.383 . S
C517 C513 1.495 . S
C517 H523 0.959 . S
C517 H524 0.961 . S
C517 H525 0.960 . S
C518 C516 1.381 . S
C518 C519 1.394 . S
C518 H526 0.930 . S
C519 C518 1.394 . S
C519 C520 1.383 . S
C519 H527 0.929 . S
C520 C519 1.383 . S
C520 C521 1.377 . S
C521 H505 0.930 . S
C521 C520 1.377 . S
C521 C522 1.379 . S
C522 H506 0.931 . S
C522 C516 1.383 . S
C522 C521 1.379 . S
H523 C517 0.959 . S
H524 C517 0.961 . S
H525 C517 0.960 . S
H526 C518 0.930 . S
H527 C519 0.929 . S
H528 C536 0.929 . S
H529 C538 0.930 . S
H530 C540 0.930 . S
H531 C543 0.929 . S
H532 C546 0.930 . S
H533 C548 0.960 . S
H534 C548 0.960 . S
H535 C548 0.960 . S
C536 H528 0.929 . S
C536 C537 1.377 . S
C536 C538 1.384 . S
C537 C536 1.377 . S
C537 C543 1.390 . S
C538 H529 0.930 . S
C538 C536 1.384 . S
C538 C539 1.372 . S
C539 C538 1.372 . S
C539 C540 1.400 . S
C539 C544 1.490 . S
C540 H530 0.930 . S
C540 C539 1.400 . S
C540 C543 1.386 . S
H541 C557 0.930 . S
H542 C558 0.931 . S
C543 H531 0.929 . S
C543 C537 1.390 . S
C543 C540 1.386 . S
C544 C539 1.490 . S
C544 C546 1.395 . S
C544 C547 1.403 . S
H545 C551 0.930 . S
C546 H532 0.930 . S
C546 C544 1.395 . S
C546 C549 1.403 . S
C547 C544 1.403 . S
C547 C548 1.524 . S
C547 C551 1.400 . S
C548 H533 0.960 . S
C548 H534 0.960 . S
C548 H535 0.960 . S
C548 C547 1.524 . S
C549 C546 1.403 . S
C549 C550 1.392 . S
C549 C553 1.495 . S
C550 C549 1.392 . S
C550 C551 1.385 . S
C550 C552 1.478 . S
C551 H545 0.930 . S
C551 C547 1.400 . S
C551 C550 1.385 . S
C552 C550 1.478 . S
C552 C554 1.381 . S
C552 C558 1.383 . S
C553 C549 1.495 . S
C553 H559 0.959 . S
C553 H560 0.961 . S
C553 H561 0.960 . S
C554 C552 1.381 . S
C554 C555 1.394 . S
C554 H562 0.930 . S
C555 C554 1.394 . S
C555 C556 1.383 . S
C555 H563 0.929 . S
C556 C555 1.383 . S
C556 C557 1.377 . S
C557 H541 0.930 . S
C557 C556 1.377 . S
C557 C558 1.379 . S
C558 H542 0.931 . S
C558 C552 1.383 . S
C558 C557 1.379 . S
H559 C553 0.959 . S
H560 C553 0.961 . S
H561 C553 0.960 . S
H562 C554 0.930 . S
H563 C555 0.929 . S
H564 C572 0.929 . S
H565 C574 0.930 . S
H566 C576 0.930 . S
H567 C579 0.929 . S
H568 C582 0.930 . S
H569 C584 0.960 . S
H570 C584 0.960 . S
H571 C584 0.960 . S
C572 H564 0.929 . S
C572 C573 1.377 . S
C572 C574 1.384 . S
C573 C572 1.377 . S
C573 C579 1.390 . S
C574 H565 0.930 . S
C574 C572 1.384 . S
C574 C575 1.372 . S
C575 C574 1.372 . S
C575 C576 1.400 . S
C575 C580 1.490 . S
C576 H566 0.930 . S
C576 C575 1.400 . S
C576 C579 1.386 . S
H577 C593 0.930 . S
H578 C594 0.931 . S
C579 H567 0.929 . S
C579 C573 1.390 . S
C579 C576 1.386 . S
C580 C575 1.490 . S
C580 C582 1.395 . S
C580 C583 1.403 . S
H581 C587 0.930 . S
C582 H568 0.930 . S
C582 C580 1.395 . S
C582 C585 1.403 . S
C583 C580 1.403 . S
C583 C584 1.524 . S
C583 C587 1.400 . S
C584 H569 0.960 . S
C584 H570 0.960 . S
C584 H571 0.960 . S
C584 C583 1.524 . S
C585 C582 1.403 . S
C585 C586 1.392 . S
C585 C589 1.495 . S
C586 C585 1.392 . S
C586 C587 1.385 . S
C586 C588 1.478 . S
C587 H581 0.930 . S
C587 C583 1.400 . S
C587 C586 1.385 . S
C588 C586 1.478 . S
C588 C590 1.381 . S
C588 C594 1.383 . S
C589 C585 1.495 . S
C589 H595 0.959 . S
C589 H596 0.961 . S
C589 H597 0.960 . S
C590 C588 1.381 . S
C590 C591 1.394 . S
C590 H598 0.930 . S
C591 C590 1.394 . S
C591 C592 1.383 . S
C591 H599 0.929 . S
C592 C591 1.383 . S
C592 C593 1.377 . S
C593 H577 0.930 . S
C593 C592 1.377 . S
C593 C594 1.379 . S
C594 H578 0.931 . S
C594 C588 1.383 . S
C594 C593 1.379 . S
H595 C589 0.959 . S
H596 C589 0.961 . S
H597 C589 0.960 . S
H598 C590 0.930 . S
H599 C591 0.929 . S
H600 C608 0.929 . S
H601 C610 0.930 . S
H602 C612 0.930 . S
H603 C615 0.929 . S
H604 C618 0.930 . S
H605 C620 0.960 . S
H606 C620 0.960 . S
H607 C620 0.960 . S
C608 H600 0.929 . S
C608 C609 1.377 . S
C608 C610 1.384 . S
C609 C608 1.377 . S
C609 C615 1.390 . S
C610 H601 0.930 . S
C610 C608 1.384 . S
C610 C611 1.372 . S
C611 C610 1.372 . S
C611 C612 1.400 . S
C611 C616 1.490 . S
C612 H602 0.930 . S
C612 C611 1.400 . S
C612 C615 1.386 . S
H613 C629 0.930 . S
H614 C630 0.931 . S
C615 H603 0.929 . S
C615 C609 1.390 . S
C615 C612 1.386 . S
C616 C611 1.490 . S
C616 C618 1.395 . S
C616 C619 1.403 . S
H617 C623 0.930 . S
C618 H604 0.930 . S
C618 C616 1.395 . S
C618 C621 1.403 . S
C619 C616 1.403 . S
C619 C620 1.524 . S
C619 C623 1.400 . S
C620 H605 0.960 . S
C620 H606 0.960 . S
C620 H607 0.960 . S
C620 C619 1.524 . S
C621 C618 1.403 . S
C621 C622 1.392 . S
C621 C625 1.495 . S
C622 C621 1.392 . S
C622 C623 1.385 . S
C622 C624 1.478 . S
C623 H617 0.930 . S
C623 C619 1.400 . S
C623 C622 1.385 . S
C624 C622 1.478 . S
C624 C626 1.381 . S
C624 C630 1.383 . S
C625 C621 1.495 . S
C625 H631 0.959 . S
C625 H632 0.961 . S
C625 H633 0.960 . S
C626 C624 1.381 . S
C626 C627 1.394 . S
C626 H634 0.930 . S
C627 C626 1.394 . S
C627 C628 1.383 . S
C627 H635 0.929 . S
C628 C627 1.383 . S
C628 C629 1.377 . S
C629 H613 0.930 . S
C629 C628 1.377 . S
C629 C630 1.379 . S
C630 H614 0.931 . S
C630 C624 1.383 . S
C630 C629 1.379 . S
H631 C625 0.959 . S
H632 C625 0.961 . S
H633 C625 0.960 . S
H634 C626 0.930 . S
H635 C627 0.929 . S
H636 C644 0.929 . S
H637 C646 0.930 . S
H638 C648 0.930 . S
H639 C651 0.929 . S
H640 C654 0.930 . S
H641 C656 0.960 . S
H642 C656 0.960 . S
H643 C656 0.960 . S
C644 H636 0.929 . S
C644 C645 1.377 . S
C644 C646 1.384 . S
C645 C644 1.377 . S
C645 C651 1.390 . S
C646 H637 0.930 . S
C646 C644 1.384 . S
C646 C647 1.372 . S
C647 C646 1.372 . S
C647 C648 1.400 . S
C647 C652 1.490 . S
C648 H638 0.930 . S
C648 C647 1.400 . S
C648 C651 1.386 . S
H649 C665 0.930 . S
H650 C666 0.931 . S
C651 H639 0.929 . S
C651 C645 1.390 . S
C651 C648 1.386 . S
C652 C647 1.490 . S
C652 C654 1.395 . S
C652 C655 1.403 . S
H653 C659 0.930 . S
C654 H640 0.930 . S
C654 C652 1.395 . S
C654 C657 1.403 . S
C655 C652 1.403 . S
C655 C656 1.524 . S
C655 C659 1.400 . S
C656 H641 0.960 . S
C656 H642 0.960 . S
C656 H643 0.960 . S
C656 C655 1.524 . S
C657 C654 1.403 . S
C657 C658 1.392 . S
C657 C661 1.495 . S
C658 C657 1.392 . S
C658 C659 1.385 . S
C658 C660 1.478 . S
C659 H653 0.930 . S
C659 C655 1.400 . S
C659 C658 1.385 . S
C660 C658 1.478 . S
C660 C662 1.381 . S
C660 C666 1.383 . S
C661 C657 1.495 . S
C661 H667 0.959 . S
C661 H668 0.961 . S
C661 H669 0.960 . S
C662 C660 1.381 . S
C662 C663 1.394 . S
C662 H670 0.930 . S
C663 C662 1.394 . S
C663 C664 1.383 . S
C663 H671 0.929 . S
C664 C663 1.383 . S
C664 C665 1.377 . S
C665 H649 0.930 . S
C665 C664 1.377 . S
C665 C666 1.379 . S
C666 H650 0.931 . S
C666 C660 1.383 . S
C666 C665 1.379 . S
H667 C661 0.959 . S
H668 C661 0.961 . S
H669 C661 0.960 . S
H670 C662 0.930 . S
H671 C663 0.929 . S
H672 C680 0.929 . S
H673 C682 0.930 . S
H674 C684 0.930 . S
H675 C687 0.929 . S
H676 C690 0.930 . S
H677 C692 0.960 . S
H678 C692 0.960 . S
H679 C692 0.960 . S
C680 H672 0.929 . S
C680 C681 1.377 . S
C680 C682 1.384 . S
C681 C680 1.377 . S
C681 C687 1.390 . S
C682 H673 0.930 . S
C682 C680 1.384 . S
C682 C683 1.372 . S
C683 C682 1.372 . S
C683 C684 1.400 . S
C683 C688 1.490 . S
C684 H674 0.930 . S
C684 C683 1.400 . S
C684 C687 1.386 . S
H685 C701 0.930 . S
H686 C702 0.931 . S
C687 H675 0.929 . S
C687 C681 1.390 . S
C687 C684 1.386 . S
C688 C683 1.490 . S
C688 C690 1.395 . S
C688 C691 1.403 . S
H689 C695 0.930 . S
C690 H676 0.930 . S
C690 C688 1.395 . S
C690 C693 1.403 . S
C691 C688 1.403 . S
C691 C692 1.524 . S
C691 C695 1.400 . S
C692 H677 0.960 . S
C692 H678 0.960 . S
C692 H679 0.960 . S
C692 C691 1.524 . S
C693 C690 1.403 . S
C693 C694 1.392 . S
C693 C697 1.495 . S
C694 C693 1.392 . S
C694 C695 1.385 . S
C694 C696 1.478 . S
C695 H689 0.930 . S
C695 C691 1.400 . S
C695 C694 1.385 . S
C696 C694 1.478 . S
C696 C698 1.381 . S
C696 C702 1.383 . S
C697 C693 1.495 . S
C697 H703 0.959 . S
C697 H704 0.961 . S
C697 H705 0.960 . S
C698 C696 1.381 . S
C698 C699 1.394 . S
C698 H706 0.930 . S
C699 C698 1.394 . S
C699 C700 1.383 . S
C699 H707 0.929 . S
C700 C699 1.383 . S
C700 C701 1.377 . S
C701 H685 0.930 . S
C701 C700 1.377 . S
C701 C702 1.379 . S
C702 H686 0.931 . S
C702 C696 1.383 . S
C702 C701 1.379 . S
H703 C697 0.959 . S
H704 C697 0.961 . S
H705 C697 0.960 . S
H706 C698 0.930 . S
H707 C699 0.929 . S
H708 C716 0.929 . S
H709 C718 0.930 . S
H710 C720 0.930 . S
H711 C723 0.929 . S
H712 C726 0.930 . S
H713 C728 0.960 . S
H714 C728 0.960 . S
H715 C728 0.960 . S
C716 H708 0.929 . S
C716 C717 1.377 . S
C716 C718 1.384 . S
C717 C716 1.377 . S
C717 C723 1.390 . S
C718 H709 0.930 . S
C718 C716 1.384 . S
C718 C719 1.372 . S
C719 C718 1.372 . S
C719 C720 1.400 . S
C719 C724 1.490 . S
C720 H710 0.930 . S
C720 C719 1.400 . S
C720 C723 1.386 . S
H721 C737 0.930 . S
H722 C738 0.931 . S
C723 H711 0.929 . S
C723 C717 1.390 . S
C723 C720 1.386 . S
C724 C719 1.490 . S
C724 C726 1.395 . S
C724 C727 1.403 . S
H725 C731 0.930 . S
C726 H712 0.930 . S
C726 C724 1.395 . S
C726 C729 1.403 . S
C727 C724 1.403 . S
C727 C728 1.524 . S
C727 C731 1.400 . S
C728 H713 0.960 . S
C728 H714 0.960 . S
C728 H715 0.960 . S
C728 C727 1.524 . S
C729 C726 1.403 . S
C729 C730 1.392 . S
C729 C733 1.495 . S
C730 C729 1.392 . S
C730 C731 1.385 . S
C730 C732 1.478 . S
C731 H725 0.930 . S
C731 C727 1.400 . S
C731 C730 1.385 . S
C732 C730 1.478 . S
C732 C734 1.381 . S
C732 C738 1.383 . S
C733 C729 1.495 . S
C733 H739 0.959 . S
C733 H740 0.961 . S
C733 H741 0.960 . S
C734 C732 1.381 . S
C734 C735 1.394 . S
C734 H742 0.930 . S
C735 C734 1.394 . S
C735 C736 1.383 . S
C735 H743 0.929 . S
C736 C735 1.383 . S
C736 C737 1.377 . S
C737 H721 0.930 . S
C737 C736 1.377 . S
C737 C738 1.379 . S
C738 H722 0.931 . S
C738 C732 1.383 . S
C738 C737 1.379 . S
H739 C733 0.959 . S
H740 C733 0.961 . S
H741 C733 0.960 . S
H742 C734 0.930 . S
H743 C735 0.929 . S
H744 C752 0.929 . S
H745 C754 0.930 . S
H746 C756 0.930 . S
H747 C759 0.929 . S
H748 C762 0.930 . S
H749 C764 0.960 . S
H750 C764 0.960 . S
H751 C764 0.960 . S
C752 H744 0.929 . S
C752 C753 1.377 . S
C752 C754 1.384 . S
C753 C752 1.377 . S
C753 C759 1.390 . S
C754 H745 0.930 . S
C754 C752 1.384 . S
C754 C755 1.372 . S
C755 C754 1.372 . S
C755 C756 1.400 . S
C755 C760 1.490 . S
C756 H746 0.930 . S
C756 C755 1.400 . S
C756 C759 1.386 . S
H757 C773 0.930 . S
H758 C774 0.931 . S
C759 H747 0.929 . S
C759 C753 1.390 . S
C759 C756 1.386 . S
C760 C755 1.490 . S
C760 C762 1.395 . S
C760 C763 1.403 . S
H761 C767 0.930 . S
C762 H748 0.930 . S
C762 C760 1.395 . S
C762 C765 1.403 . S
C763 C760 1.403 . S
C763 C764 1.524 . S
C763 C767 1.400 . S
C764 H749 0.960 . S
C764 H750 0.960 . S
C764 H751 0.960 . S
C764 C763 1.524 . S
C765 C762 1.403 . S
C765 C766 1.392 . S
C765 C769 1.495 . S
C766 C765 1.392 . S
C766 C767 1.385 . S
C766 C768 1.478 . S
C767 H761 0.930 . S
C767 C763 1.400 . S
C767 C766 1.385 . S
C768 C766 1.478 . S
C768 C770 1.381 . S
C768 C774 1.383 . S
C769 C765 1.495 . S
C769 H775 0.959 . S
C769 H776 0.961 . S
C769 H777 0.960 . S
C770 C768 1.381 . S
C770 C771 1.394 . S
C770 H778 0.930 . S
C771 C770 1.394 . S
C771 C772 1.383 . S
C771 H779 0.929 . S
C772 C771 1.383 . S
C772 C773 1.377 . S
C773 H757 0.930 . S
C773 C772 1.377 . S
C773 C774 1.379 . S
C774 H758 0.931 . S
C774 C768 1.383 . S
C774 C773 1.379 . S
H775 C769 0.959 . S
H776 C769 0.961 . S
H777 C769 0.960 . S
H778 C770 0.930 . S
H779 C771 0.929 . S
H780 C788 0.929 . S
H781 C790 0.930 . S
H782 C792 0.930 1_556 S
H783 C795 0.929 1_556 S
H784 C798 0.930 . S
H785 C800 0.960 . S
H786 C800 0.960 . S
H787 C800 0.960 . S
C788 H780 0.929 . S
C788 C789 1.377 . S
C788 C790 1.384 . S
C789 C788 1.377 . S
C789 C795 1.390 . S
C790 H781 0.930 . S
C790 C788 1.384 . S
C790 C791 1.372 . S
C791 C790 1.372 . S
C791 C792 1.400 . S
C791 C796 1.490 . S
C792 H782 0.930 1_554 S
C792 C791 1.400 . S
C792 C795 1.386 . S
H793 C809 0.930 . S
H794 C810 0.931 . S
C795 H783 0.929 1_554 S
C795 C789 1.390 . S
C795 C792 1.386 . S
C796 C791 1.490 . S
C796 C798 1.395 . S
C796 C799 1.403 . S
H797 C803 0.930 . S
C798 H784 0.930 . S
C798 C796 1.395 . S
C798 C801 1.403 . S
C799 C796 1.403 . S
C799 C800 1.524 1_554 S
C799 C803 1.400 . S
C800 H785 0.960 . S
C800 H786 0.960 . S
C800 H787 0.960 . S
C800 C799 1.524 1_556 S
C801 C798 1.403 . S
C801 C802 1.392 . S
C801 C805 1.495 . S
C802 C801 1.392 . S
C802 C803 1.385 . S
C802 C804 1.478 . S
C803 H797 0.930 . S
C803 C799 1.400 . S
C803 C802 1.385 . S
C804 C802 1.478 . S
C804 C806 1.381 . S
C804 C810 1.383 . S
C805 C801 1.495 . S
C805 H811 0.959 . S
C805 H812 0.961 . S
C805 H813 0.960 . S
C806 C804 1.381 . S
C806 C807 1.394 . S
C806 H814 0.930 . S
C807 C806 1.394 . S
C807 C808 1.383 . S
C807 H815 0.929 . S
C808 C807 1.383 . S
C808 C809 1.377 . S
C809 H793 0.930 . S
C809 C808 1.377 . S
C809 C810 1.379 . S
C810 H794 0.931 . S
C810 C804 1.383 . S
C810 C809 1.379 . S
H811 C805 0.959 . S
H812 C805 0.961 . S
H813 C805 0.960 . S
H814 C806 0.930 . S
H815 C807 0.929 . S
H816 C824 0.929 . S
H817 C826 0.930 . S
H818 C828 0.930 . S
H819 C831 0.929 . S
H820 C834 0.930 . S
H821 C836 0.960 . S
H822 C836 0.960 . S
H823 C836 0.960 . S
C824 H816 0.929 . S
C824 C825 1.377 . S
C824 C826 1.384 . S
C825 C824 1.377 . S
C825 C831 1.390 . S
C826 H817 0.930 . S
C826 C824 1.384 . S
C826 C827 1.372 . S
C827 C826 1.372 . S
C827 C828 1.400 . S
C827 C832 1.490 . S
C828 H818 0.930 . S
C828 C827 1.400 . S
C828 C831 1.386 . S
H829 C845 0.930 . S
H830 C846 0.931 . S
C831 H819 0.929 . S
C831 C825 1.390 . S
C831 C828 1.386 . S
C832 C827 1.490 . S
C832 C834 1.395 . S
C832 C835 1.403 . S
H833 C839 0.930 . S
C834 H820 0.930 . S
C834 C832 1.395 . S
C834 C837 1.403 . S
C835 C832 1.403 . S
C835 C836 1.524 . S
C835 C839 1.400 . S
C836 H821 0.960 . S
C836 H822 0.960 . S
C836 H823 0.960 . S
C836 C835 1.524 . S
C837 C834 1.403 . S
C837 C838 1.392 . S
C837 C841 1.495 . S
C838 C837 1.392 . S
C838 C839 1.385 . S
C838 C840 1.478 . S
C839 H833 0.930 . S
C839 C835 1.400 . S
C839 C838 1.385 . S
C840 C838 1.478 . S
C840 C842 1.381 . S
C840 C846 1.383 . S
C841 C837 1.495 . S
C841 H847 0.959 . S
C841 H848 0.961 . S
C841 H849 0.960 . S
C842 C840 1.381 . S
C842 C843 1.394 . S
C842 H850 0.930 . S
C843 C842 1.394 . S
C843 C844 1.383 . S
C843 H851 0.929 . S
C844 C843 1.383 . S
C844 C845 1.377 . S
C845 H829 0.930 . S
C845 C844 1.377 . S
C845 C846 1.379 . S
C846 H830 0.931 . S
C846 C840 1.383 . S
C846 C845 1.379 . S
H847 C841 0.959 . S
H848 C841 0.961 . S
H849 C841 0.960 . S
H850 C842 0.930 . S
H851 C843 0.929 . S
H852 C860 0.929 . S
H853 C862 0.930 . S
H854 C864 0.930 . S
H855 C867 0.929 . S
H856 C870 0.930 . S
H857 C872 0.960 . S
H858 C872 0.960 . S
H859 C872 0.960 . S
C860 H852 0.929 . S
C860 C861 1.377 . S
C860 C862 1.384 . S
C861 C860 1.377 . S
C861 C867 1.390 . S
C862 H853 0.930 . S
C862 C860 1.384 . S
C862 C863 1.372 . S
C863 C862 1.372 . S
C863 C864 1.400 . S
C863 C868 1.490 . S
C864 H854 0.930 . S
C864 C863 1.400 . S
C864 C867 1.386 . S
H865 C881 0.930 . S
H866 C882 0.931 . S
C867 H855 0.929 . S
C867 C861 1.390 . S
C867 C864 1.386 . S
C868 C863 1.490 . S
C868 C870 1.395 . S
C868 C871 1.403 . S
H869 C875 0.930 . S
C870 H856 0.930 . S
C870 C868 1.395 . S
C870 C873 1.403 . S
C871 C868 1.403 . S
C871 C872 1.524 . S
C871 C875 1.400 . S
C872 H857 0.960 . S
C872 H858 0.960 . S
C872 H859 0.960 . S
C872 C871 1.524 . S
C873 C870 1.403 . S
C873 C874 1.392 . S
C873 C877 1.495 . S
C874 C873 1.392 . S
C874 C875 1.385 . S
C874 C876 1.478 . S
C875 H869 0.930 . S
C875 C871 1.400 . S
C875 C874 1.385 . S
C876 C874 1.478 . S
C876 C878 1.381 . S
C876 C882 1.383 . S
C877 C873 1.495 . S
C877 H883 0.959 . S
C877 H884 0.961 . S
C877 H885 0.960 . S
C878 C876 1.381 . S
C878 C879 1.394 . S
C878 H886 0.930 . S
C879 C878 1.394 . S
C879 C880 1.383 . S
C879 H887 0.929 . S
C880 C879 1.383 . S
C880 C881 1.377 . S
C881 H865 0.930 . S
C881 C880 1.377 . S
C881 C882 1.379 . S
C882 H866 0.931 . S
C882 C876 1.383 . S
C882 C881 1.379 . S
H883 C877 0.959 . S
H884 C877 0.961 . S
H885 C877 0.960 . S
H886 C878 0.930 . S
H887 C879 0.929 . S
H888 C896 0.929 . S
H889 C898 0.930 . S
H890 C900 0.930 . S
H891 C903 0.929 . S
H892 C906 0.930 . S
H893 C908 0.960 . S
H894 C908 0.960 . S
H895 C908 0.960 . S
C896 H888 0.929 . S
C896 C897 1.377 . S
C896 C898 1.384 . S
C897 C896 1.377 . S
C897 C903 1.390 . S
C898 H889 0.930 . S
C898 C896 1.384 . S
C898 C899 1.372 . S
C899 C898 1.372 . S
C899 C900 1.400 . S
C899 C904 1.490 . S
C900 H890 0.930 . S
C900 C899 1.400 . S
C900 C903 1.386 . S
H901 C917 0.930 . S
H902 C918 0.931 . S
C903 H891 0.929 . S
C903 C897 1.390 . S
C903 C900 1.386 . S
C904 C899 1.490 . S
C904 C906 1.395 . S
C904 C907 1.403 . S
H905 C911 0.930 . S
C906 H892 0.930 . S
C906 C904 1.395 . S
C906 C909 1.403 . S
C907 C904 1.403 . S
C907 C908 1.524 . S
C907 C911 1.400 . S
C908 H893 0.960 . S
C908 H894 0.960 . S
C908 H895 0.960 . S
C908 C907 1.524 . S
C909 C906 1.403 . S
C909 C910 1.392 . S
C909 C913 1.495 . S
C910 C909 1.392 . S
C910 C911 1.385 . S
C910 C912 1.478 . S
C911 H905 0.930 . S
C911 C907 1.400 . S
C911 C910 1.385 . S
C912 C910 1.478 . S
C912 C914 1.381 . S
C912 C918 1.383 . S
C913 C909 1.495 . S
C913 H919 0.959 . S
C913 H920 0.961 . S
C913 H921 0.960 . S
C914 C912 1.381 . S
C914 C915 1.394 . S
C914 H922 0.930 . S
C915 C914 1.394 . S
C915 C916 1.383 . S
C915 H923 0.929 . S
C916 C915 1.383 . S
C916 C917 1.377 . S
C917 H901 0.930 . S
C917 C916 1.377 . S
C917 C918 1.379 . S
C918 H902 0.931 . S
C918 C912 1.383 . S
C918 C917 1.379 . S
H919 C913 0.959 . S
H920 C913 0.961 . S
H921 C913 0.960 . S
H922 C914 0.930 . S
H923 C915 0.929 . S
H924 C932 0.929 . S
H925 C934 0.930 . S
H926 C936 0.930 . S
H927 C939 0.929 . S
H928 C942 0.930 . S
H929 C944 0.960 . S
H930 C944 0.960 . S
H931 C944 0.960 . S
C932 H924 0.929 . S
C932 C933 1.377 . S
C932 C934 1.384 . S
C933 C932 1.377 . S
C933 C939 1.390 . S
C934 H925 0.930 . S
C934 C932 1.384 . S
C934 C935 1.372 . S
C935 C934 1.372 . S
C935 C936 1.400 . S
C935 C940 1.490 . S
C936 H926 0.930 . S
C936 C935 1.400 . S
C936 C939 1.386 . S
H937 C953 0.930 . S
H938 C954 0.931 . S
C939 H927 0.929 . S
C939 C933 1.390 . S
C939 C936 1.386 . S
C940 C935 1.490 . S
C940 C942 1.395 . S
C940 C943 1.403 . S
H941 C947 0.930 . S
C942 H928 0.930 . S
C942 C940 1.395 . S
C942 C945 1.403 . S
C943 C940 1.403 . S
C943 C944 1.524 . S
C943 C947 1.400 . S
C944 H929 0.960 . S
C944 H930 0.960 . S
C944 H931 0.960 . S
C944 C943 1.524 . S
C945 C942 1.403 . S
C945 C946 1.392 . S
C945 C949 1.495 . S
C946 C945 1.392 . S
C946 C947 1.385 . S
C946 C948 1.478 . S
C947 H941 0.930 . S
C947 C943 1.400 . S
C947 C946 1.385 . S
C948 C946 1.478 . S
C948 C950 1.381 . S
C948 C954 1.383 . S
C949 C945 1.495 . S
C949 H955 0.959 . S
C949 H956 0.961 . S
C949 H957 0.960 . S
C950 C948 1.381 . S
C950 C951 1.394 . S
C950 H958 0.930 . S
C951 C950 1.394 . S
C951 C952 1.383 . S
C951 H959 0.929 . S
C952 C951 1.383 . S
C952 C953 1.377 . S
C953 H937 0.930 . S
C953 C952 1.377 . S
C953 C954 1.379 . S
C954 H938 0.931 . S
C954 C948 1.383 . S
C954 C953 1.379 . S
H955 C949 0.959 . S
H956 C949 0.961 . S
H957 C949 0.960 . S
H958 C950 0.930 . S
H959 C951 0.929 . S
H960 C968 0.929 . S
H961 C970 0.930 . S
H962 C972 0.930 . S
H963 C975 0.929 . S
H964 C978 0.930 . S
H965 C980 0.960 . S
H966 C980 0.960 . S
H967 C980 0.960 . S
C968 H960 0.929 . S
C968 C969 1.377 . S
C968 C970 1.384 . S
C969 C968 1.377 . S
C969 C975 1.390 . S
C970 H961 0.930 . S
C970 C968 1.384 . S
C970 C971 1.372 . S
C971 C970 1.372 . S
C971 C972 1.400 . S
C971 C976 1.490 . S
C972 H962 0.930 . S
C972 C971 1.400 . S
C972 C975 1.386 . S
H973 C989 0.930 . S
H974 C990 0.931 . S
C975 H963 0.929 . S
C975 C969 1.390 . S
C975 C972 1.386 . S
C976 C971 1.490 . S
C976 C978 1.395 . S
C976 C979 1.403 . S
H977 C983 0.930 . S
C978 H964 0.930 . S
C978 C976 1.395 . S
C978 C981 1.403 . S
C979 C976 1.403 . S
C979 C980 1.524 . S
C979 C983 1.400 . S
C980 H965 0.960 . S
C980 H966 0.960 . S
C980 H967 0.960 . S
C980 C979 1.524 . S
C981 C978 1.403 . S
C981 C982 1.392 . S
C981 C985 1.495 . S
C982 C981 1.392 . S
C982 C983 1.385 . S
C982 C984 1.478 . S
C983 H977 0.930 . S
C983 C979 1.400 . S
C983 C982 1.385 . S
C984 C982 1.478 . S
C984 C986 1.381 . S
C984 C990 1.383 . S
C985 C981 1.495 . S
C985 H991 0.959 . S
C985 H992 0.961 . S
C985 H993 0.960 . S
C986 C984 1.381 . S
C986 C987 1.394 . S
C986 H994 0.930 . S
C987 C986 1.394 . S
C987 C988 1.383 . S
C987 H995 0.929 . S
C988 C987 1.383 . S
C988 C989 1.377 . S
C989 H973 0.930 . S
C989 C988 1.377 . S
C989 C990 1.379 . S
C990 H974 0.931 . S
C990 C984 1.383 . S
C990 C989 1.379 . S
H991 C985 0.959 . S
H992 C985 0.961 . S
H993 C985 0.960 . S
H994 C986 0.930 . S
H995 C987 0.929 . S
H996 C1004 0.929 . S
H997 C1006 0.930 . S
H998 C1008 0.930 . S
H999 C1011 0.929 . S
H1000 C1014 0.930 . S
H1001 C1016 0.960 . S
H1002 C1016 0.960 . S
H1003 C1016 0.960 . S
C1004 H996 0.929 . S
C1004 C1005 1.377 . S
C1004 C1006 1.384 . S
C1005 C1004 1.377 . S
C1005 C1011 1.390 . S
C1006 H997 0.930 . S
C1006 C1004 1.384 . S
C1006 C1007 1.372 . S
C1007 C1006 1.372 . S
C1007 C1008 1.400 . S
C1007 C1012 1.490 . S
C1008 H998 0.930 . S
C1008 C1007 1.400 . S
C1008 C1011 1.386 . S
H1009 C1025 0.930 . S
H1010 C1026 0.931 . S
C1011 H999 0.929 . S
C1011 C1005 1.390 . S
C1011 C1008 1.386 . S
C1012 C1007 1.490 . S
C1012 C1014 1.395 . S
C1012 C1015 1.403 . S
H1013 C1019 0.930 . S
C1014 H1000 0.930 . S
C1014 C1012 1.395 . S
C1014 C1017 1.403 . S
C1015 C1012 1.403 . S
C1015 C1016 1.524 . S
C1015 C1019 1.400 . S
C1016 H1001 0.960 . S
C1016 H1002 0.960 . S
C1016 H1003 0.960 . S
C1016 C1015 1.524 . S
C1017 C1014 1.403 . S
C1017 C1018 1.392 . S
C1017 C1021 1.495 1_556 S
C1018 C1017 1.392 . S
C1018 C1019 1.385 . S
C1018 C1020 1.478 . S
C1019 H1013 0.930 . S
C1019 C1015 1.400 . S
C1019 C1018 1.385 . S
C1020 C1018 1.478 . S
C1020 C1022 1.381 1_556 S
C1020 C1026 1.383 . S
C1021 C1017 1.495 1_554 S
C1021 H1027 0.959 . S
C1021 H1028 0.961 . S
C1021 H1029 0.960 . S
C1022 C1020 1.381 1_554 S
C1022 C1023 1.394 . S
C1022 H1030 0.930 . S
C1023 C1022 1.394 . S
C1023 C1024 1.383 . S
C1023 H1031 0.929 . S
C1024 C1023 1.383 . S
C1024 C1025 1.377 . S
C1025 H1009 0.930 . S
C1025 C1024 1.377 . S
C1025 C1026 1.379 1_554 S
C1026 H1010 0.931 . S
C1026 C1020 1.383 . S
C1026 C1025 1.379 1_556 S
H1027 C1021 0.959 . S
H1028 C1021 0.961 . S
H1029 C1021 0.960 . S
H1030 C1022 0.930 . S
H1031 C1023 0.929 . S
H1032 C1040 0.929 . S
H1033 C1042 0.930 . S
H1034 C1044 0.930 . S
H1035 C1047 0.929 . S
H1036 C1050 0.930 . S
H1037 C1052 0.960 . S
H1038 C1052 0.960 . S
H1039 C1052 0.960 . S
C1040 H1032 0.929 . S
C1040 C1041 1.377 . S
C1040 C1042 1.384 . S
C1041 C1040 1.377 . S
C1041 C1047 1.390 . S
C1042 H1033 0.930 . S
C1042 C1040 1.384 . S
C1042 C1043 1.372 . S
C1043 C1042 1.372 . S
C1043 C1044 1.400 . S
C1043 C1048 1.490 . S
C1044 H1034 0.930 . S
C1044 C1043 1.400 . S
C1044 C1047 1.386 . S
H1045 C1061 0.930 . S
H1046 C1062 0.931 . S
C1047 H1035 0.929 . S
C1047 C1041 1.390 . S
C1047 C1044 1.386 . S
C1048 C1043 1.490 . S
C1048 C1050 1.395 . S
C1048 C1051 1.403 . S
H1049 C1055 0.930 . S
C1050 H1036 0.930 . S
C1050 C1048 1.395 . S
C1050 C1053 1.403 . S
C1051 C1048 1.403 . S
C1051 C1052 1.524 . S
C1051 C1055 1.400 . S
C1052 H1037 0.960 . S
C1052 H1038 0.960 . S
C1052 H1039 0.960 . S
C1052 C1051 1.524 . S
C1053 C1050 1.403 . S
C1053 C1054 1.392 . S
C1053 C1057 1.495 . S
C1054 C1053 1.392 . S
C1054 C1055 1.385 . S
C1054 C1056 1.478 . S
C1055 H1049 0.930 . S
C1055 C1051 1.400 . S
C1055 C1054 1.385 . S
C1056 C1054 1.478 . S
C1056 C1058 1.381 . S
C1056 C1062 1.383 . S
C1057 C1053 1.495 . S
C1057 H1063 0.959 . S
C1057 H1064 0.961 . S
C1057 H1065 0.960 . S
C1058 C1056 1.381 . S
C1058 C1059 1.394 . S
C1058 H1066 0.930 . S
C1059 C1058 1.394 . S
C1059 C1060 1.383 . S
C1059 H1067 0.929 . S
C1060 C1059 1.383 . S
C1060 C1061 1.377 . S
C1061 H1045 0.930 . S
C1061 C1060 1.377 . S
C1061 C1062 1.379 . S
C1062 H1046 0.931 . S
C1062 C1056 1.383 . S
C1062 C1061 1.379 . S
H1063 C1057 0.959 . S
H1064 C1057 0.961 . S
H1065 C1057 0.960 . S
H1066 C1058 0.930 . S
H1067 C1059 0.929 . S
H1068 C1076 0.929 . S
H1069 C1078 0.930 . S
H1070 C1080 0.930 . S
H1071 C1083 0.929 . S
H1072 C1086 0.930 . S
H1073 C1088 0.960 . S
H1074 C1088 0.960 . S
H1075 C1088 0.960 . S
C1076 H1068 0.929 . S
C1076 C1077 1.377 . S
C1076 C1078 1.384 . S
C1077 C1076 1.377 . S
C1077 C1083 1.390 . S
C1078 H1069 0.930 . S
C1078 C1076 1.384 . S
C1078 C1079 1.372 . S
C1079 C1078 1.372 . S
C1079 C1080 1.400 . S
C1079 C1084 1.490 . S
C1080 H1070 0.930 . S
C1080 C1079 1.400 . S
C1080 C1083 1.386 . S
H1081 C1097 0.930 . S
H1082 C1098 0.931 . S
C1083 H1071 0.929 . S
C1083 C1077 1.390 . S
C1083 C1080 1.386 . S
C1084 C1079 1.490 . S
C1084 C1086 1.395 . S
C1084 C1087 1.403 . S
H1085 C1091 0.930 . S
C1086 H1072 0.930 . S
C1086 C1084 1.395 . S
C1086 C1089 1.403 . S
C1087 C1084 1.403 . S
C1087 C1088 1.524 . S
C1087 C1091 1.400 . S
C1088 H1073 0.960 . S
C1088 H1074 0.960 . S
C1088 H1075 0.960 . S
C1088 C1087 1.524 . S
C1089 C1086 1.403 . S
C1089 C1090 1.392 . S
C1089 C1093 1.495 . S
C1090 C1089 1.392 . S
C1090 C1091 1.385 . S
C1090 C1092 1.478 . S
C1091 H1085 0.930 . S
C1091 C1087 1.400 . S
C1091 C1090 1.385 . S
C1092 C1090 1.478 . S
C1092 C1094 1.381 . S
C1092 C1098 1.383 . S
C1093 C1089 1.495 . S
C1093 H1099 0.959 . S
C1093 H1100 0.961 . S
C1093 H1101 0.960 . S
C1094 C1092 1.381 . S
C1094 C1095 1.394 . S
C1094 H1102 0.930 . S
C1095 C1094 1.394 . S
C1095 C1096 1.383 . S
C1095 H1103 0.929 . S
C1096 C1095 1.383 . S
C1096 C1097 1.377 . S
C1097 H1081 0.930 . S
C1097 C1096 1.377 . S
C1097 C1098 1.379 . S
C1098 H1082 0.931 . S
C1098 C1092 1.383 . S
C1098 C1097 1.379 . S
H1099 C1093 0.959 . S
H1100 C1093 0.961 . S
H1101 C1093 0.960 . S
H1102 C1094 0.930 . S
H1103 C1095 0.929 . S
H1104 C1112 0.929 . S
H1105 C1114 0.930 . S
H1106 C1116 0.930 . S
H1107 C1119 0.929 . S
H1108 C1122 0.930 . S
H1109 C1124 0.960 . S
H1110 C1124 0.960 . S
H1111 C1124 0.960 . S
C1112 H1104 0.929 . S
C1112 C1113 1.377 . S
C1112 C1114 1.384 . S
C1113 C1112 1.377 . S
C1113 C1119 1.390 . S
C1114 H1105 0.930 . S
C1114 C1112 1.384 . S
C1114 C1115 1.372 . S
C1115 C1114 1.372 . S
C1115 C1116 1.400 . S
C1115 C1120 1.490 . S
C1116 H1106 0.930 . S
C1116 C1115 1.400 . S
C1116 C1119 1.386 . S
H1117 C1133 0.930 . S
H1118 C1134 0.931 . S
C1119 H1107 0.929 . S
C1119 C1113 1.390 . S
C1119 C1116 1.386 . S
C1120 C1115 1.490 . S
C1120 C1122 1.395 . S
C1120 C1123 1.403 . S
H1121 C1127 0.930 . S
C1122 H1108 0.930 . S
C1122 C1120 1.395 . S
C1122 C1125 1.403 . S
C1123 C1120 1.403 . S
C1123 C1124 1.524 . S
C1123 C1127 1.400 . S
C1124 H1109 0.960 . S
C1124 H1110 0.960 . S
C1124 H1111 0.960 . S
C1124 C1123 1.524 . S
C1125 C1122 1.403 . S
C1125 C1126 1.392 . S
C1125 C1129 1.495 . S
C1126 C1125 1.392 . S
C1126 C1127 1.385 . S
C1126 C1128 1.478 . S
C1127 H1121 0.930 . S
C1127 C1123 1.400 . S
C1127 C1126 1.385 . S
C1128 C1126 1.478 . S
C1128 C1130 1.381 . S
C1128 C1134 1.383 . S
C1129 C1125 1.495 . S
C1129 H1135 0.959 . S
C1129 H1136 0.961 . S
C1129 H1137 0.960 . S
C1130 C1128 1.381 . S
C1130 C1131 1.394 . S
C1130 H1138 0.930 . S
C1131 C1130 1.394 . S
C1131 C1132 1.383 . S
C1131 H1139 0.929 . S
C1132 C1131 1.383 . S
C1132 C1133 1.377 . S
C1133 H1117 0.930 . S
C1133 C1132 1.377 . S
C1133 C1134 1.379 . S
C1134 H1118 0.931 . S
C1134 C1128 1.383 . S
C1134 C1133 1.379 . S
H1135 C1129 0.959 . S
H1136 C1129 0.961 . S
H1137 C1129 0.960 . S
H1138 C1130 0.930 . S
H1139 C1131 0.929 . S
H1140 C1148 0.929 . S
H1141 C1150 0.930 . S
H1142 C1152 0.930 . S
H1143 C1155 0.929 . S
H1144 C1158 0.930 . S
H1145 C1160 0.960 . S
H1146 C1160 0.960 . S
H1147 C1160 0.960 . S
C1148 H1140 0.929 . S
C1148 C1149 1.377 . S
C1148 C1150 1.384 . S
C1149 C1148 1.377 . S
C1149 C1155 1.390 . S
C1150 H1141 0.930 . S
C1150 C1148 1.384 . S
C1150 C1151 1.372 . S
C1151 C1150 1.372 . S
C1151 C1152 1.400 . S
C1151 C1156 1.490 . S
C1152 H1142 0.930 . S
C1152 C1151 1.400 . S
C1152 C1155 1.386 . S
H1153 C1169 0.930 . S
H1154 C1170 0.931 . S
C1155 H1143 0.929 . S
C1155 C1149 1.390 . S
C1155 C1152 1.386 . S
C1156 C1151 1.490 . S
C1156 C1158 1.395 . S
C1156 C1159 1.403 . S
H1157 C1163 0.930 . S
C1158 H1144 0.930 . S
C1158 C1156 1.395 . S
C1158 C1161 1.403 . S
C1159 C1156 1.403 . S
C1159 C1160 1.524 . S
C1159 C1163 1.400 . S
C1160 H1145 0.960 . S
C1160 H1146 0.960 . S
C1160 H1147 0.960 . S
C1160 C1159 1.524 . S
C1161 C1158 1.403 . S
C1161 C1162 1.392 . S
C1161 C1165 1.495 . S
C1162 C1161 1.392 . S
C1162 C1163 1.385 . S
C1162 C1164 1.478 . S
C1163 H1157 0.930 . S
C1163 C1159 1.400 . S
C1163 C1162 1.385 . S
C1164 C1162 1.478 . S
C1164 C1166 1.381 . S
C1164 C1170 1.383 . S
C1165 C1161 1.495 . S
C1165 H1171 0.959 . S
C1165 H1172 0.961 . S
C1165 H1173 0.960 . S
C1166 C1164 1.381 . S
C1166 C1167 1.394 . S
C1166 H1174 0.930 . S
C1167 C1166 1.394 . S
C1167 C1168 1.383 . S
C1167 H1175 0.929 . S
C1168 C1167 1.383 . S
C1168 C1169 1.377 . S
C1169 H1153 0.930 . S
C1169 C1168 1.377 . S
C1169 C1170 1.379 . S
C1170 H1154 0.931 . S
C1170 C1164 1.383 . S
C1170 C1169 1.379 . S
H1171 C1165 0.959 . S
H1172 C1165 0.961 . S
H1173 C1165 0.960 . S
H1174 C1166 0.930 . S
H1175 C1167 0.929 . S
H1176 C1184 0.929 . S
H1177 C1186 0.930 . S
H1178 C1188 0.930 . S
H1179 C1191 0.929 . S
H1180 C1194 0.930 . S
H1181 C1196 0.960 . S
H1182 C1196 0.960 . S
H1183 C1196 0.960 . S
C1184 H1176 0.929 . S
C1184 C1185 1.377 . S
C1184 C1186 1.384 . S
C1185 C1184 1.377 . S
C1185 C1191 1.390 . S
C1186 H1177 0.930 . S
C1186 C1184 1.384 . S
C1186 C1187 1.372 . S
C1187 C1186 1.372 . S
C1187 C1188 1.400 . S
C1187 C1192 1.490 . S
C1188 H1178 0.930 . S
C1188 C1187 1.400 . S
C1188 C1191 1.386 . S
H1189 C1205 0.930 . S
H1190 C1206 0.931 . S
C1191 H1179 0.929 . S
C1191 C1185 1.390 . S
C1191 C1188 1.386 . S
C1192 C1187 1.490 . S
C1192 C1194 1.395 . S
C1192 C1195 1.403 . S
H1193 C1199 0.930 . S
C1194 H1180 0.930 . S
C1194 C1192 1.395 . S
C1194 C1197 1.403 . S
C1195 C1192 1.403 . S
C1195 C1196 1.524 . S
C1195 C1199 1.400 . S
C1196 H1181 0.960 . S
C1196 H1182 0.960 . S
C1196 H1183 0.960 . S
C1196 C1195 1.524 . S
C1197 C1194 1.403 . S
C1197 C1198 1.392 . S
C1197 C1201 1.495 . S
C1198 C1197 1.392 . S
C1198 C1199 1.385 . S
C1198 C1200 1.478 . S
C1199 H1193 0.930 . S
C1199 C1195 1.400 . S
C1199 C1198 1.385 . S
C1200 C1198 1.478 . S
C1200 C1202 1.381 . S
C1200 C1206 1.383 . S
C1201 C1197 1.495 . S
C1201 H1207 0.959 . S
C1201 H1208 0.961 . S
C1201 H1209 0.960 . S
C1202 C1200 1.381 . S
C1202 C1203 1.394 . S
C1202 H1210 0.930 . S
C1203 C1202 1.394 . S
C1203 C1204 1.383 . S
C1203 H1211 0.929 . S
C1204 C1203 1.383 . S
C1204 C1205 1.377 . S
C1205 H1189 0.930 . S
C1205 C1204 1.377 . S
C1205 C1206 1.379 . S
C1206 H1190 0.931 . S
C1206 C1200 1.383 . S
C1206 C1205 1.379 . S
H1207 C1201 0.959 . S
H1208 C1201 0.961 . S
H1209 C1201 0.960 . S
H1210 C1202 0.930 . S
H1211 C1203 0.929 . S
H1212 C1220 0.929 . S
H1213 C1222 0.930 . S
H1214 C1224 0.930 . S
H1215 C1227 0.929 . S
H1216 C1230 0.930 . S
H1217 C1232 0.960 . S
H1218 C1232 0.960 . S
H1219 C1232 0.960 . S
C1220 H1212 0.929 . S
C1220 C1221 1.377 . S
C1220 C1222 1.384 . S
C1221 C1220 1.377 . S
C1221 C1227 1.390 . S
C1222 H1213 0.930 . S
C1222 C1220 1.384 . S
C1222 C1223 1.372 . S
C1223 C1222 1.372 . S
C1223 C1224 1.400 . S
C1223 C1228 1.490 . S
C1224 H1214 0.930 . S
C1224 C1223 1.400 . S
C1224 C1227 1.386 . S
H1225 C1241 0.930 . S
H1226 C1242 0.931 . S
C1227 H1215 0.929 . S
C1227 C1221 1.390 . S
C1227 C1224 1.386 . S
C1228 C1223 1.490 . S
C1228 C1230 1.395 . S
C1228 C1231 1.403 . S
H1229 C1235 0.930 . S
C1230 H1216 0.930 . S
C1230 C1228 1.395 . S
C1230 C1233 1.403 . S
C1231 C1228 1.403 . S
C1231 C1232 1.524 . S
C1231 C1235 1.400 . S
C1232 H1217 0.960 . S
C1232 H1218 0.960 . S
C1232 H1219 0.960 . S
C1232 C1231 1.524 . S
C1233 C1230 1.403 . S
C1233 C1234 1.392 . S
C1233 C1237 1.495 . S
C1234 C1233 1.392 . S
C1234 C1235 1.385 . S
C1234 C1236 1.478 . S
C1235 H1229 0.930 . S
C1235 C1231 1.400 . S
C1235 C1234 1.385 . S
C1236 C1234 1.478 . S
C1236 C1238 1.381 . S
C1236 C1242 1.383 . S
C1237 C1233 1.495 . S
C1237 H1243 0.959 . S
C1237 H1244 0.961 . S
C1237 H1245 0.960 . S
C1238 C1236 1.381 . S
C1238 C1239 1.394 . S
C1238 H1246 0.930 . S
C1239 C1238 1.394 . S
C1239 C1240 1.383 . S
C1239 H1247 0.929 . S
C1240 C1239 1.383 . S
C1240 C1241 1.377 . S
C1241 H1225 0.930 . S
C1241 C1240 1.377 . S
C1241 C1242 1.379 . S
C1242 H1226 0.931 . S
C1242 C1236 1.383 . S
C1242 C1241 1.379 . S
H1243 C1237 0.959 . S
H1244 C1237 0.961 . S
H1245 C1237 0.960 . S
H1246 C1238 0.930 . S
H1247 C1239 0.929 . S
H1248 C1256 0.929 . S
H1249 C1258 0.930 . S
H1250 C1260 0.930 . S
H1251 C1263 0.929 . S
H1252 C1266 0.930 . S
H1253 C1268 0.960 . S
H1254 C1268 0.960 . S
H1255 C1268 0.960 . S
C1256 H1248 0.929 . S
C1256 C1257 1.377 . S
C1256 C1258 1.384 . S
C1257 C1256 1.377 . S
C1257 C1263 1.390 . S
C1258 H1249 0.930 . S
C1258 C1256 1.384 . S
C1258 C1259 1.372 . S
C1259 C1258 1.372 . S
C1259 C1260 1.400 . S
C1259 C1264 1.490 . S
C1260 H1250 0.930 . S
C1260 C1259 1.400 . S
C1260 C1263 1.386 . S
H1261 C1277 0.930 . S
H1262 C1278 0.931 . S
C1263 H1251 0.929 . S
C1263 C1257 1.390 . S
C1263 C1260 1.386 . S
C1264 C1259 1.490 . S
C1264 C1266 1.395 1_554 S
C1264 C1267 1.403 . S
H1265 C1271 0.930 . S
C1266 H1252 0.930 . S
C1266 C1264 1.395 1_556 S
C1266 C1269 1.403 . S
C1267 C1264 1.403 . S
C1267 C1268 1.524 . S
C1267 C1271 1.400 1_554 S
C1268 H1253 0.960 . S
C1268 H1254 0.960 . S
C1268 H1255 0.960 . S
C1268 C1267 1.524 . S
C1269 C1266 1.403 . S
C1269 C1270 1.392 . S
C1269 C1273 1.495 . S
C1270 C1269 1.392 . S
C1270 C1271 1.385 . S
C1270 C1272 1.478 . S
C1271 H1265 0.930 . S
C1271 C1267 1.400 1_556 S
C1271 C1270 1.385 . S
C1272 C1270 1.478 . S
C1272 C1274 1.381 . S
C1272 C1278 1.383 . S
C1273 C1269 1.495 . S
C1273 H1279 0.959 . S
C1273 H1280 0.961 . S
C1273 H1281 0.960 . S
C1274 C1272 1.381 . S
C1274 C1275 1.394 . S
C1274 H1282 0.930 . S
C1275 C1274 1.394 . S
C1275 C1276 1.383 . S
C1275 H1283 0.929 . S
C1276 C1275 1.383 . S
C1276 C1277 1.377 . S
C1277 H1261 0.930 . S
C1277 C1276 1.377 . S
C1277 C1278 1.379 . S
C1278 H1262 0.931 . S
C1278 C1272 1.383 . S
C1278 C1277 1.379 . S
H1279 C1273 0.959 . S
H1280 C1273 0.961 . S
H1281 C1273 0.960 . S
H1282 C1274 0.930 . S
H1283 C1275 0.929 . S
H1284 C1292 0.929 . S
H1285 C1294 0.930 . S
H1286 C1296 0.930 . S
H1287 C1299 0.929 . S
H1288 C1302 0.930 . S
H1289 C1304 0.960 . S
H1290 C1304 0.960 . S
H1291 C1304 0.960 . S
C1292 H1284 0.929 . S
C1292 C1293 1.377 . S
C1292 C1294 1.384 . S
C1293 C1292 1.377 . S
C1293 C1299 1.390 . S
C1294 H1285 0.930 . S
C1294 C1292 1.384 . S
C1294 C1295 1.372 . S
C1295 C1294 1.372 . S
C1295 C1296 1.400 . S
C1295 C1300 1.490 . S
C1296 H1286 0.930 . S
C1296 C1295 1.400 . S
C1296 C1299 1.386 . S
H1297 C1313 0.930 . S
H1298 C1314 0.931 . S
C1299 H1287 0.929 . S
C1299 C1293 1.390 . S
C1299 C1296 1.386 . S
C1300 C1295 1.490 . S
C1300 C1302 1.395 . S
C1300 C1303 1.403 . S
H1301 C1307 0.930 . S
C1302 H1288 0.930 . S
C1302 C1300 1.395 . S
C1302 C1305 1.403 . S
C1303 C1300 1.403 . S
C1303 C1304 1.524 . S
C1303 C1307 1.400 . S
C1304 H1289 0.960 . S
C1304 H1290 0.960 . S
C1304 H1291 0.960 . S
C1304 C1303 1.524 . S
C1305 C1302 1.403 . S
C1305 C1306 1.392 . S
C1305 C1309 1.495 . S
C1306 C1305 1.392 . S
C1306 C1307 1.385 . S
C1306 C1308 1.478 . S
C1307 H1301 0.930 . S
C1307 C1303 1.400 . S
C1307 C1306 1.385 . S
C1308 C1306 1.478 . S
C1308 C1310 1.381 . S
C1308 C1314 1.383 . S
C1309 C1305 1.495 . S
C1309 H1315 0.959 . S
C1309 H1316 0.961 . S
C1309 H1317 0.960 . S
C1310 C1308 1.381 . S
C1310 C1311 1.394 . S
C1310 H1318 0.930 . S
C1311 C1310 1.394 . S
C1311 C1312 1.383 . S
C1311 H1319 0.929 . S
C1312 C1311 1.383 . S
C1312 C1313 1.377 . S
C1313 H1297 0.930 . S
C1313 C1312 1.377 . S
C1313 C1314 1.379 . S
C1314 H1298 0.931 . S
C1314 C1308 1.383 . S
C1314 C1313 1.379 . S
H1315 C1309 0.959 . S
H1316 C1309 0.961 . S
H1317 C1309 0.960 . S
H1318 C1310 0.930 . S
H1319 C1311 0.929 . S
C484 C449 1.494 . S
C465 C29 1.438 . S
C501 C115 1.397 . S
C520 C378 1.406 . S
C537 C153 1.461 . S
C556 C392 1.549 . S
C573 C239 1.370 . S
C592 C406 1.392 . S
C628 C420 1.446 . S
C609 C301 1.464 . S
C645 C339 1.697 . S
C664 C435 1.809 . S
C681 C91 1.466 . S
C700 C393 1.526 . S
C717 C177 1.400 . S
C736 C407 1.423 . S
C753 C215 1.442 . S
C772 C421 1.502 . S
C808 C434 1.782 . S
C789 C277 1.702 . S
C844 C448 1.481 . S
C825 C363 1.457 . S
C880 C379 1.374 . S
C861 C53 1.371 . S
C897 C35 1.615 . S
C916 C395 1.644 . S
C933 C109 1.433 . S
C952 C409 1.538 . S
C988 C423 1.492 . S
C969 C159 1.473 . S
C1005 C233 1.667 . S
C1024 C436 1.786 . S
C1060 C450 1.614 . S
C1041 C295 1.475 . S
C1096 C381 1.447 . S
C1077 C345 1.438 . S
C1132 C451 1.477 . S
C1113 C97 1.469 . S
C1149 C171 1.445 . S
C1168 C380 1.561 . S
C1204 C394 1.638 . S
C1185 C221 1.613 . S
C1221 C283 1.434 . S
C1240 C408 1.429 . S
C1257 C357 1.472 . S
C1276 C422 1.606 . S
C1293 C47 1.663 . S
C1312 C437 1.778 . S
