# Generated by pormake.
# Topology zzz, (3,6)-cn, num edge types: 1
# Building blocks:
#     Node 0, Type 0, BuildingBlock: BETDIP_clean_linker_0, # of connection points: 3
#     Node 1, Type 0, BuildingBlock: BETDIP_clean_linker_0, # of connection points: 3
#     Node 2, Type 0, BuildingBlock: BETDIP_clean_linker_0, # of connection points: 3
#     Node 3, Type 0, BuildingBlock: BETDIP_clean_linker_0, # of connection points: 3
#     Node 4, Type 0, BuildingBlock: BETDIP_clean_linker_0, # of connection points: 3
#     Node 5, Type 0, BuildingBlock: BETDIP_clean_linker_0, # of connection points: 3
#     Node 6, Type 0, BuildingBlock: BETDIP_clean_linker_0, # of connection points: 3
#     Node 7, Type 0, BuildingBlock: BETDIP_clean_linker_0, # of connection points: 3
#     Node 8, Type 1, BuildingBlock: PAMTOO_clean_sbu_0, # of connection points: 6
#     Node 9, Type 1, BuildingBlock: PAMTOO_clean_sbu_0, # of connection points: 6
#     Node 10, Type 1, BuildingBlock: PAMTOO_clean_sbu_0, # of connection points: 6
#     Node 11, Type 1, BuildingBlock: PAMTOO_clean_sbu_0, # of connection points: 6
#     Edge 12, Type (0, 1), BuildingBlock: EZIPEK_clean_linker_0, # of connection points: 2
#     Edge 13, Type (0, 1), BuildingBlock: EZIPEK_clean_linker_0, # of connection points: 2
#     Edge 14, Type (0, 1), BuildingBlock: EZIPEK_clean_linker_0, # of connection points: 2
#     Edge 15, Type (0, 1), BuildingBlock: EZIPEK_clean_linker_0, # of connection points: 2
#     Edge 16, Type (0, 1), BuildingBlock: EZIPEK_clean_linker_0, # of connection points: 2
#     Edge 17, Type (0, 1), BuildingBlock: EZIPEK_clean_linker_0, # of connection points: 2
#     Edge 18, Type (0, 1), BuildingBlock: EZIPEK_clean_linker_0, # of connection points: 2
#     Edge 19, Type (0, 1), BuildingBlock: EZIPEK_clean_linker_0, # of connection points: 2
#     Edge 20, Type (0, 1), BuildingBlock: EZIPEK_clean_linker_0, # of connection points: 2
#     Edge 21, Type (0, 1), BuildingBlock: EZIPEK_clean_linker_0, # of connection points: 2
#     Edge 22, Type (0, 1), BuildingBlock: EZIPEK_clean_linker_0, # of connection points: 2
#     Edge 23, Type (0, 1), BuildingBlock: EZIPEK_clean_linker_0, # of connection points: 2
#     Edge 24, Type (0, 1), BuildingBlock: EZIPEK_clean_linker_0, # of connection points: 2
#     Edge 25, Type (0, 1), BuildingBlock: EZIPEK_clean_linker_0, # of connection points: 2
#     Edge 26, Type (0, 1), BuildingBlock: EZIPEK_clean_linker_0, # of connection points: 2
#     Edge 27, Type (0, 1), BuildingBlock: EZIPEK_clean_linker_0, # of connection points: 2
#     Edge 28, Type (0, 1), BuildingBlock: EZIPEK_clean_linker_0, # of connection points: 2
#     Edge 29, Type (0, 1), BuildingBlock: EZIPEK_clean_linker_0, # of connection points: 2
#     Edge 30, Type (0, 1), BuildingBlock: EZIPEK_clean_linker_0, # of connection points: 2
#     Edge 31, Type (0, 1), BuildingBlock: EZIPEK_clean_linker_0, # of connection points: 2
#     Edge 32, Type (0, 1), BuildingBlock: EZIPEK_clean_linker_0, # of connection points: 2
#     Edge 33, Type (0, 1), BuildingBlock: EZIPEK_clean_linker_0, # of connection points: 2
#     Edge 34, Type (0, 1), BuildingBlock: EZIPEK_clean_linker_0, # of connection points: 2
#     Edge 35, Type (0, 1), BuildingBlock: EZIPEK_clean_linker_0, # of connection points: 2
# Relax obj value: 0.289
# Max RMSD: 0.248
# Mean RMSD: 0.131
data_MOF--net-zzz--node1-PAMTOO_clean_sbu_0--node2-BETDIP_clean_linker_0--edge1-EZIPEK_clean_linker_0
_symmetry_space_group_name_H-M    P1
_symmetry_Int_Tables_number       1
_symmetry_cell_setting            triclinic
loop_
_symmetry_equiv_pos_as_xyz
'x, y, z'
_cell_length_a     43.618364
_cell_length_b     35.545969
_cell_length_c     11.549059
_cell_angle_alpha  92.677489
_cell_angle_beta   75.517738
_cell_angle_gamma 85.56012
loop_
_atom_site_label
_atom_site_type_symbol
_atom_site_fract_x
_atom_site_fract_y
_atom_site_fract_z
_atom_type_partial_charge
H0 H 0.81658 0.55888 0.73854 0.0
H1 H 0.80003 0.4713 0.49573 0.0
H2 H 0.88844 0.46694 0.59465 0.0
H3 H 0.79188 0.53952 0.40595 0.0
C4 C 0.7716 0.54167 0.48383 0.0
C5 C 0.82457 0.53282 0.68309 0.0
C6 C 0.85462 0.51374 0.67842 0.0
C7 C 0.80547 0.51845 0.61175 0.0
C8 C 0.81525 0.4835 0.54574 0.0
C9 C 0.84539 0.46547 0.53671 0.0
C10 C 0.86495 0.48097 0.60195 0.0
N11 N 0.7774 0.53953 0.59981 0.0
H12 H 0.97104 0.7611 0.69604 0.0
H13 H 0.04291 0.71808 0.37705 0.0
H14 H 0.04772 0.82712 0.54144 0.0
H15 H 1.02231 0.65939 0.5023 0.0
C16 C 1.00205 0.66891 0.47017 0.0
C17 C 0.99237 0.76461 0.62704 0.0
C18 C 1.00901 0.79705 0.63298 0.0
C19 C 1.00407 0.73626 0.53225 0.0
C20 C 0.033 0.74003 0.44771 0.0
C21 C 0.0481 0.77326 0.4486 0.0
C22 C 0.03566 0.80158 0.53996 0.0
N23 N 0.98626 0.7051 0.51711 0.0
H24 H 0.74472 1.00525 0.65146 0.0
H25 H 0.77663 1.00972 0.26555 0.0
H26 H 0.67737 0.01468 0.43602 0.0
H27 H 0.8169 0.96236 0.31771 0.0
C28 C 0.82257 0.98676 0.36604 0.0
C29 C 0.73965 1.0071 0.56472 0.0
C30 C 0.7075 1.00909 0.55587 0.0
C31 C 0.76518 1.00701 0.45886 0.0
C32 C 0.75792 1.00943 0.34727 0.0
C33 C 0.72652 1.01236 0.34022 0.0
C34 C 0.70178 1.01239 0.44357 0.0
N35 N 0.79792 1.00559 0.46247 0.0
H36 H 0.52836 0.7642 0.53117 0.0
H37 H 0.48936 0.73018 0.2379 0.0
H38 H 0.48097 0.66262 0.54106 0.0
H39 H 0.52577 0.77231 0.14709 0.0
C40 C 0.51899 0.79675 0.21103 0.0
C41 C 0.51485 0.74524 0.49199 0.0
C42 C 0.50696 0.711 0.5451 0.0
C43 C 0.50658 0.75388 0.38414 0.0
C44 C 0.49303 0.72602 0.32586 0.0
C45 C 0.48437 0.69245 0.38147 0.0
C46 C 0.48803 0.68809 0.49719 0.0
N47 N 0.51224 0.79009 0.33612 0.0
H48 H 0.23665 0.49982 0.99392 0.0
H49 H 0.25743 0.57309 0.2675 0.0
H50 H 0.16648 0.58755 0.19157 0.0
H51 H 0.30942 0.5598 0.10826 0.0
C52 C 0.30684 0.53151 0.13932 0.0
C53 C 0.22944 0.52302 0.06201 0.0
C54 C 0.19885 0.54281 0.08267 0.0
C55 C 0.2508 0.53371 0.12905 0.0
C56 C 0.24155 0.56452 0.21447 0.0
C57 C 0.21134 0.58352 0.23756 0.0
C58 C 0.18996 0.57247 0.173 0.0
N59 N 0.28099 0.51296 0.11553 0.0
H60 H 0.02803 0.28231 0.07181 0.0
H61 H 0.06794 0.31675 0.36343 0.0
H62 H 0.0523 0.20089 0.30526 0.0
H63 H 0.08615 0.36598 0.19237 0.0
C64 C 0.06053 0.37127 0.22744 0.0
C65 C 0.03734 0.27546 0.14758 0.0
C66 C 0.04023 0.23739 0.17817 0.0
C67 C 0.04705 0.30457 0.21549 0.0
C68 C 0.06012 0.29513 0.31112 0.0
C69 C 0.06179 0.25807 0.3438 0.0
C70 C 0.0513 0.22975 0.2787 0.0
N71 N 0.04195 0.34342 0.19344 0.0
H72 H 0.27458 0.01939 0.25008 0.0
H73 H 0.2572 0.95304 0.56175 0.0
H74 H 0.3523 0.96095 0.35711 0.0
H75 H 0.21194 0.9435 0.49825 0.0
C76 C 0.20457 0.97343 0.49852 0.0
C77 C 0.28319 1.00128 0.31017 0.0
C78 C 0.31655 0.99146 0.29044 0.0
C79 C 0.26107 0.98691 0.40772 0.0
C80 C 0.27302 0.96341 0.4844 0.0
C81 C 0.30564 0.95443 0.46597 0.0
C82 C 0.32698 0.96824 0.3698 0.0
N83 N 0.2273 0.99687 0.43204 0.0
H84 H 0.4925 0.27684 0.29174 0.0
H85 H 0.52845 0.30148 0.60221 0.0
H86 H 0.53856 0.37785 0.32215 0.0
H87 H 0.50228 0.25324 0.67739 0.0
C88 C 0.50416 0.23255 0.60329 0.0
C89 C 0.50492 0.29451 0.34019 0.0
C90 C 0.514 0.32973 0.29645 0.0
C91 C 0.51153 0.28256 0.44838 0.0
C92 C 0.52517 0.30798 0.5154 0.0
C93 C 0.53436 0.34266 0.47036 0.0
C94 C 0.53117 0.35117 0.35686 0.0
N95 N 0.5043 0.24548 0.48697 0.0
Dy96 Dy 1.00011 0.02469 0.853 0.0
Dy97 Dy 0.02883 1.00091 0.07336 0.0
C98 C 0.07448 1.00061 0.80296 0.0
O99 O 0.99293 0.96358 0.8501 0.0
O100 O 1.02268 0.94537 0.98052 0.0
O101 O 0.99876 0.02269 0.66676 0.0
O102 O 0.97143 0.06784 0.7913 0.0
O103 O 0.97642 1.00587 0.15958 0.0
O104 O 0.95558 0.01981 0.99981 0.0
O105 O 1.0147 0.06324 0.11089 0.0
O106 O 1.02392 0.0732 0.91406 0.0
O107 O 0.0281 0.9717 0.23321 0.0
O108 O 0.06726 1.00454 0.15999 0.0
C109 C 1.00654 0.93707 0.90118 0.0
O110 O 0.04924 0.99895 0.7617 0.0
O111 O 0.07153 1.00739 0.91845 0.0
C112 C 1.00683 0.08505 0.62118 0.0
C113 C 0.04329 0.14661 0.57053 0.0
C114 C 0.05475 0.11565 0.62204 0.0
C115 C 0.03713 0.08472 0.64346 0.0
C116 C 0.99547 0.11569 0.56733 0.0
C117 C 1.01392 0.14615 0.54025 0.0
C118 C 0.98583 0.05751 0.67968 0.0
C119 C 0.95205 1.01207 0.11287 0.0
C120 C 1.01954 0.08647 0.02497 0.0
C121 C 0.0783 0.94724 0.24514 0.0
C122 C 0.1082 0.87427 0.24514 0.0
C123 C 0.08587 0.89103 0.34824 0.0
C124 C 0.0713 0.92726 0.34851 0.0
C125 C 0.10268 0.93221 0.14563 0.0
C126 C 0.11793 0.89611 0.14648 0.0
C127 C 0.05643 0.97996 0.23673 0.0
H128 H 0.07694 0.11577 0.64823 0.0
H129 H 0.04643 0.0616 0.68532 0.0
H130 H 0.97197 0.11686 0.55153 0.0
H131 H 1.00467 0.17016 0.50078 0.0
H132 H 0.07788 0.87507 0.42603 0.0
H133 H 0.05269 0.93842 0.42629 0.0
H134 H 0.10863 0.94731 0.06482 0.0
H135 H 0.13591 0.88461 0.06765 0.0
Dy136 Dy 0.50437 0.98942 0.77341 0.0
Dy137 Dy 0.511 0.03414 0.01058 0.0
C138 C 0.50256 0.0808 0.78681 0.0
O139 O 0.55799 0.98673 0.75085 0.0
O140 O 0.55864 0.03605 0.88255 0.0
O141 O 0.48874 0.98744 0.61072 0.0
O142 O 0.51389 0.9379 0.658 0.0
O143 O 0.52885 0.97231 0.01194 0.0
O144 O 0.49422 0.949 0.91998 0.0
O145 O 0.45908 0.02461 0.06222 0.0
O146 O 0.453 1.00446 0.87766 0.0
O147 O 0.50956 0.03357 0.19937 0.0
O148 O 0.52547 0.08163 0.10179 0.0
C149 C 0.57386 1.01135 0.79596 0.0
O150 O 0.51075 0.04897 0.71925 0.0
O151 O 0.49507 0.08043 0.90485 0.0
C152 C 0.46961 0.92953 0.57861 0.0
C153 C 0.40842 0.90793 0.59372 0.0
C154 C 0.42374 0.92787 0.49717 0.0
C155 C 0.45409 0.93866 0.48978 0.0
C156 C 0.45555 0.90623 0.6688 0.0
C157 C 0.4251 0.89515 0.67565 0.0
C158 C 0.49621 0.95107 0.59045 0.0
C159 C 0.51243 0.94424 0.99355 0.0
C160 C 0.44096 0.01412 0.99305 0.0
C161 C 0.55932 0.05235 0.20292 0.0
C162 C 0.62413 0.0367 0.18899 0.0
C163 C 0.61084 0.01979 0.10432 0.0
C164 C 0.57856 0.02592 0.11579 0.0
C165 C 0.57257 0.07064 0.28602 0.0
C166 C 0.6049 0.06221 0.28064 0.0
C167 C 0.52683 0.06208 0.19332 0.0
H168 H 0.41113 0.93782 0.43293 0.0
H169 H 0.46411 0.95711 0.42099 0.0
H170 H 0.4669 0.89907 0.73924 0.0
H171 H 0.41354 0.87964 0.75041 0.0
H172 H 0.62523 1.00047 0.03231 0.0
H173 H 0.56878 1.01009 0.05477 0.0
H174 H 0.5581 0.09118 0.35362 0.0
H175 H 0.61503 0.07585 0.34639 0.0
Dy176 Dy 0.55137 0.5218 0.95915 0.0
Dy177 Dy 0.48778 0.51699 0.84294 0.0
C178 C 0.50763 0.45052 1.00182 0.0
O179 O 0.56444 0.47421 0.81791 0.0
O180 O 0.5358 0.50653 0.71482 0.0
O181 O 0.56582 0.52582 0.12337 0.0
O182 O 0.60178 0.52582 0.95155 0.0
O183 O 0.4995 0.57734 0.83112 0.0
O184 O 0.55244 0.56992 0.83479 0.0
O185 O 0.46663 0.54584 0.02567 0.0
O186 O 0.51351 0.56535 0.05565 0.0
O187 O 0.47578 0.51856 0.67405 0.0
O188 O 0.43875 0.50895 0.83406 0.0
C189 C 0.55565 0.47739 0.71858 0.0
O190 O 0.52515 0.47361 0.04418 0.0
O191 O 0.49482 0.45919 0.91296 0.0
C192 C 0.61979 0.53138 0.13859 0.0
C193 C 0.66513 0.53841 0.27427 0.0
C194 C 0.63262 0.54011 0.33167 0.0
C195 C 0.61019 0.53658 0.26465 0.0
C196 C 0.65237 0.52998 0.08119 0.0
C197 C 0.67483 0.53345 0.14849 0.0
C198 C 0.59566 0.52769 0.06887 0.0
C199 C 0.52794 0.58982 0.81117 0.0
C200 C 0.48236 0.56648 0.08424 0.0
C201 C 0.42435 0.50934 0.63913 0.0
C202 C 0.38457 0.5085 0.47875 0.0
C203 C 0.41736 0.49826 0.43773 0.0
C204 C 0.43697 0.49942 0.51625 0.0
C205 C 0.39131 0.51805 0.68192 0.0
C206 C 0.37162 0.51809 0.60213 0.0
C207 C 0.44621 0.51272 0.7186 0.0
H208 H 0.62466 0.54391 0.42847 0.0
H209 H 0.58528 0.53796 0.31191 0.0
H210 H 0.6605 0.5261 0.98444 0.0
H211 H 0.69983 0.53215 0.1025 0.0
H212 H 0.42807 0.49117 0.34337 0.0
H213 H 0.46222 0.49333 0.4796 0.0
H214 H 0.38088 0.52614 0.77599 0.0
H215 H 0.34641 0.52636 0.63618 0.0
Dy216 Dy 0.03725 0.55982 0.76906 0.0
Dy217 Dy 0.02631 0.48499 0.92214 0.0
C218 C 0.04112 0.4797 0.63624 0.0
O219 O 0.98654 0.54977 0.77715 0.0
O220 O 0.97684 0.5051 0.91562 0.0
O221 O 0.0581 0.58434 0.60478 0.0
O222 O 0.03082 0.62062 0.7582 0.0
O223 O 1.00179 0.53169 0.05826 0.0
O224 O 0.02774 0.57999 0.96341 0.0
O225 O 0.07043 0.50603 0.95423 0.0
O226 O 0.08583 0.53621 0.78167 0.0
O227 O 0.03367 0.44932 0.06057 0.0
O228 O 1.0135 0.4276 0.92041 0.0
C229 C 0.96709 0.52791 0.8432 0.0
O230 O 0.03018 0.51502 0.63934 0.0
O231 O 0.04947 0.46627 0.72885 0.0
C232 C 0.07437 0.64483 0.62143 0.0
C233 C 0.13415 0.67329 0.54874 0.0
C234 C 0.11899 0.67245 0.67161 0.0
C235 C 0.08934 0.65798 0.70776 0.0
C236 C 0.08714 0.65102 0.5009 0.0
C237 C 0.11644 0.66553 0.46495 0.0
C238 C 0.04919 0.61898 0.64934 0.0
C239 C 1.01037 0.56635 0.05989 0.0
C240 C 0.092 0.52225 0.87795 0.0
C241 C 0.99506 0.40543 0.11053 0.0
C242 C 0.93879 0.38264 0.25424 0.0
C243 C 0.95234 0.41421 0.29129 0.0
C244 C 0.98016 0.42567 0.21975 0.0
C245 C 0.98343 0.37157 0.07972 0.0
C246 C 0.95536 0.36012 0.1516 0.0
C247 C 1.02014 0.42146 0.02229 0.0
H248 H 0.13092 0.67996 0.73958 0.0
H249 H 0.07942 0.65445 0.80194 0.0
H250 H 0.07609 0.6411 0.4324 0.0
H251 H 0.12663 0.66608 0.36948 0.0
H252 H 0.93987 0.43195 0.37057 0.0
H253 H 0.98877 0.45165 0.24648 0.0
H254 H 0.99494 0.35533 0.99633 0.0
H255 H 0.9454 0.33549 0.12248 0.0
C256 C 0.16095 0.01717 0.64633 0.0
C257 C 0.17014 0.9856 0.56075 0.0
C258 C 0.11662 0.96367 0.63364 0.0
C259 C 0.10701 0.99606 0.71578 0.0
N260 N 0.11733 0.05925 0.76967 0.0
N261 N 0.15358 0.93477 0.45229 0.0
C262 C 0.12841 0.02449 0.713 0.0
C263 C 0.1469 0.96079 0.54818 0.0
N264 N 0.18333 0.03913 0.66952 0.0
N265 N 0.09757 0.93467 0.64022 0.0
H266 H 0.175 0.93261 0.38609 0.0
H267 H 0.13676 0.91826 0.43147 0.0
H268 H 0.07537 0.93534 0.70087 0.0
H269 H 0.10492 0.90853 0.59274 0.0
H270 H 0.17842 0.05978 0.74037 0.0
H271 H 0.20733 0.03469 0.62489 0.0
H272 H 0.13101 0.08222 0.76202 0.0
H273 H 0.09337 0.06626 0.81206 0.0
C274 C 0.47544 0.18235 0.72627 0.0
C275 C 0.50164 0.19176 0.63444 0.0
C276 C 0.5283 0.12781 0.6373 0.0
C277 C 0.5017 0.11813 0.728 0.0
N278 N 0.44669 0.1332 0.83282 0.0
N279 N 0.55098 0.17155 0.48967 0.0
C280 C 0.47438 0.14465 0.76519 0.0
C281 C 0.52724 0.1637 0.58522 0.0
N282 N 0.45145 0.20967 0.77758 0.0
N283 N 0.55548 0.10371 0.6053 0.0
H284 H 0.552 0.19785 0.45346 0.0
H285 H 0.56863 0.15148 0.44065 0.0
H286 H 0.5575 0.07702 0.6372 0.0
H287 H 0.57705 0.11101 0.55336 0.0
H288 H 0.43396 0.20634 0.85539 0.0
H289 H 0.44991 0.23658 0.74588 0.0
H290 H 0.42503 0.14976 0.8533 0.0
H291 H 0.4445 0.10552 0.85774 0.0
C292 C 0.35759 0.53336 0.19959 0.0
C293 C 0.3274 0.51886 0.21991 0.0
C294 C 0.33769 0.49085 0.39957 0.0
C295 C 0.36463 0.51164 0.39021 0.0
N296 N 0.39475 0.5609 0.29371 0.0
N297 N 0.28615 0.48921 0.35935 0.0
C298 C 0.37314 0.53512 0.29346 0.0
C299 C 0.31666 0.49876 0.32483 0.0
N300 N 0.37181 0.54526 0.08982 0.0
N301 N 0.33237 0.46303 0.47792 0.0
H302 H 0.269 0.49536 0.3134 0.0
H303 H 0.27684 0.47839 0.4419 0.0
H304 H 0.34757 0.45585 0.53186 0.0
H305 H 0.31481 0.44461 0.47984 0.0
H306 H 0.39501 0.55312 0.06851 0.0
H307 H 0.36197 0.54297 0.01647 0.0
H308 H 0.39878 0.58129 0.2311 0.0
H309 H 0.40548 0.56505 0.3639 0.0
C310 C 0.02438 0.40042 0.43037 0.0
C311 C 0.04895 0.40321 0.32359 0.0
C312 C 0.06663 0.45816 0.41992 0.0
C313 C 0.04319 0.4543 0.52728 0.0
N314 N 0.99459 0.42895 0.62553 0.0
N315 N 0.08576 0.44261 0.20604 0.0
C316 C 1.0206 0.42748 0.52974 0.0
C317 C 0.0676 0.43464 0.31539 0.0
N318 N 1.00497 0.37179 0.43975 0.0
N319 N 0.08887 0.48331 0.41894 0.0
H320 H 0.08664 0.42654 0.12714 0.0
H321 H 0.0971 0.46731 0.19125 0.0
H322 H 0.08869 0.50134 0.49308 0.0
H323 H 0.10886 0.4844 0.34792 0.0
H324 H 0.9915 0.36394 0.52135 0.0
H325 H 1.00151 0.35617 0.36686 0.0
H326 H 0.9751 0.41361 0.62754 0.0
H327 H 0.99119 0.44813 0.69967 0.0
C328 C 0.88141 0.96906 0.31717 0.0
C329 C 0.85616 0.99757 0.32558 0.0
C330 C 0.89496 0.03835 0.21264 0.0
C331 C 0.91922 1.00777 0.18995 0.0
N332 N 0.93411 0.94193 0.20936 0.0
N333 N 0.83843 0.0587 0.27165 0.0
C334 C 0.91214 0.97268 0.24037 0.0
C335 C 0.86285 0.03226 0.2719 0.0
N336 N 0.87601 0.93846 0.38441 0.0
N337 N 0.90276 0.07354 0.18031 0.0
H338 H 0.81491 0.05595 0.31646 0.0
H339 H 0.84117 0.08226 0.221 0.0
H340 H 0.92589 0.07895 0.13787 0.0
H341 H 0.88706 0.09784 0.20503 0.0
H342 H 0.89399 0.91848 0.39245 0.0
H343 H 0.85391 0.93522 0.44215 0.0
H344 H 0.92909 0.91463 0.23164 0.0
H345 H 0.9566 0.94282 0.1518 0.0
C346 C 0.52561 0.86852 0.21442 0.0
C347 C 0.51662 0.83548 0.16152 0.0
C348 C 0.51181 0.87219 0.98961 0.0
C349 C 0.51506 0.90671 0.05142 0.0
N350 N 0.51874 0.93687 0.23941 0.0
N351 N 0.4936 0.80974 1.00825 0.0
C352 C 0.52021 0.90464 0.16866 0.0
C353 C 0.50735 0.83857 0.05229 0.0
N354 N 0.54074 0.86563 0.30423 0.0
N355 N 0.51523 0.87042 0.86869 0.0
H356 H 0.48842 0.78525 0.05282 0.0
H357 H 0.48401 0.81218 0.9345 0.0
H358 H 0.52266 0.89269 0.81642 0.0
H359 H 0.5154 0.8452 0.81853 0.0
H360 H 0.55044 0.88833 0.33778 0.0
H361 H 0.5472 0.83987 0.33482 0.0
H362 H 0.52079 0.93676 0.32729 0.0
H363 H 0.51138 0.96335 0.21657 0.0
C364 C 0.73182 0.57584 0.39362 0.0
C365 C 0.73943 0.54542 0.46005 0.0
C366 C 0.69667 0.51139 0.41237 0.0
C367 C 0.68913 0.54183 0.34576 0.0
N368 N 0.69401 0.60663 0.29744 0.0
N369 N 0.7244 0.48849 0.55671 0.0
C370 C 0.70501 0.57524 0.34419 0.0
C371 C 0.72012 0.51473 0.47811 0.0
N372 N 0.75085 0.60494 0.37515 0.0
N373 N 0.68274 0.47838 0.40714 0.0
H374 H 0.74154 0.48953 0.60496 0.0
H375 H 0.70903 0.46769 0.58297 0.0
H376 H 0.66558 0.4747 0.35995 0.0
H377 H 0.68987 0.45359 0.44157 0.0
H378 H 0.74932 0.62543 0.31479 0.0
H379 H 0.76927 0.60767 0.41694 0.0
H380 H 0.70248 0.63303 0.30394 0.0
H381 H 0.67437 0.60715 0.26105 0.0
C382 C 0.98987 0.65656 0.26585 0.0
C383 C 0.99429 0.64348 0.37577 0.0
C384 C 1.0062 0.57851 0.2829 0.0
C385 C 1.00113 0.59135 0.17374 0.0
N386 N 0.97755 0.64037 0.07721 0.0
N387 N 0.99508 0.59064 0.49827 0.0
C388 C 0.98952 0.62969 0.17052 0.0
C389 C 0.99848 0.60394 0.38713 0.0
N390 N 0.98793 0.69427 0.2481 0.0
N391 N 1.02055 0.54314 0.28634 0.0
H392 H 0.9886 0.60857 0.57638 0.0
H393 H 0.99502 0.56196 0.51324 0.0
H394 H 0.02838 0.52402 0.21172 0.0
H395 H 0.02765 0.53417 0.36106 0.0
H396 H 0.98916 0.70459 0.16421 0.0
H397 H 0.98716 0.71538 0.31416 0.0
H398 H 0.96609 0.66709 0.07545 0.0
H399 H 0.97581 0.62121 1.00837 0.0
C400 C 0.04959 0.24926 0.55804 0.0
C401 C 0.07317 0.24747 0.44893 0.0
C402 C 0.08924 0.18195 0.46669 0.0
C403 C 0.06031 0.18108 0.5563 0.0
N404 N 1.02212 0.21448 0.72361 0.0
N405 N 0.12539 0.22204 0.34427 0.0
C406 C 0.04387 0.21529 0.61602 0.0
C407 C 0.09729 0.21746 0.4236 0.0
N408 N 0.03078 0.28212 0.59666 0.0
N409 N 0.10673 0.14933 0.41385 0.0
H410 H 0.12954 0.24806 0.30746 0.0
H411 H 0.14474 0.2016 0.32383 0.0
H412 H 0.1011 0.12264 0.44075 0.0
H413 H 0.12608 0.14868 0.3394 0.0
H414 H 1.01076 0.28465 0.66891 0.0
H415 H 0.03562 0.30702 0.554 0.0
H416 H 1.01012 0.23859 0.77446 0.0
H417 H 1.01816 0.1893 0.76589 0.0
C418 C 0.32646 0.95136 0.64651 0.0
C419 C 0.31899 0.93185 0.54907 0.0
C420 C 0.36227 0.88294 0.53713 0.0
C421 C 0.37366 0.90671 0.6154 0.0
N422 N 0.36275 0.95584 0.77443 0.0
N423 N 0.32144 0.87417 0.43024 0.0
C424 C 0.35391 0.93792 0.68243 0.0
C425 C 0.33382 0.89535 0.50604 0.0
N426 N 0.30892 0.98434 0.69619 0.0
N427 N 0.38014 0.85028 0.48682 0.0
H428 H 0.30053 0.88369 0.40786 0.0
H429 H 0.33042 0.84685 0.39583 0.0
H430 H 0.40066 0.841 0.51223 0.0
H431 H 0.37487 0.83255 0.42164 0.0
H432 H 0.31452 1.00237 0.75982 0.0
H433 H 0.28822 0.99387 0.67268 0.0
H434 H 0.34913 0.97793 0.83086 0.0
H435 H 0.38324 0.94673 0.79956 0.0
C436 C 0.57026 0.37502 0.58149 0.0
C437 C 0.54137 0.37468 0.54531 0.0
C438 C 0.53532 0.44307 0.5662 0.0
C439 C 0.55828 0.44375 0.6322 0.0
N440 N 0.6034 0.41072 0.6801 0.0
N441 N 0.49201 0.40949 0.53841 0.0
C442 C 0.57764 0.40965 0.63355 0.0
C443 C 0.52227 0.40908 0.55116 0.0
N444 N 0.59087 0.34312 0.56211 0.0
N445 N 0.52799 0.47369 0.50837 0.0
H446 H 0.48088 0.38475 0.533 0.0
H447 H 0.47739 0.43461 0.54662 0.0
H448 H 0.5402 0.49791 0.50559 0.0
H449 H 0.51364 0.4721 0.44873 0.0
H450 H 0.6135 0.34226 0.57678 0.0
H451 H 0.58583 0.31774 0.52504 0.0
H452 H 0.61648 0.38666 0.69616 0.0
H453 H 0.6115 0.4362 0.70298 0.0
C454 C 0.19806 0.65302 0.2972 0.0
C455 C 0.20206 0.61523 0.33062 0.0
C456 C 0.18517 0.63863 0.53976 0.0
C457 C 0.16964 0.67062 0.50511 0.0
N458 N 0.17598 0.71808 0.36479 0.0
N459 N 0.20181 0.57246 0.48889 0.0
C460 C 0.18219 0.68151 0.38803 0.0
C461 C 0.19709 0.60812 0.45365 0.0
N462 N 0.20846 0.66095 0.18004 0.0
N463 N 0.18867 0.63779 0.65326 0.0
H464 H 0.20974 0.54886 0.42877 0.0
H465 H 0.1955 0.56618 0.57862 0.0
H466 H 0.18176 0.66152 0.71365 0.0
H467 H 0.20202 0.61581 0.68 0.0
H468 H 0.20561 0.68763 0.14882 0.0
H469 H 0.22084 0.64051 0.11352 0.0
H470 H 0.18298 0.72887 0.28102 0.0
H471 H 0.16458 0.73791 0.43468 0.0
C472 C 0.104 0.78977 0.39766 0.0
C473 C 0.07732 0.78007 0.3565 0.0
C474 C 0.09746 0.81192 0.17439 0.0
C475 C 0.11537 0.83248 0.23667 0.0
N476 N 0.14745 0.8306 0.37575 0.0
N477 N 0.05075 0.77805 0.1955 0.0
C478 C 0.12338 0.81672 0.33608 0.0
C479 C 0.07533 0.78859 0.23947 0.0
N480 N 0.10815 0.77635 0.50207 0.0
N481 N 0.10072 0.81609 0.0555 0.0
H482 H 0.03397 0.76083 0.23942 0.0
H483 H 0.04621 0.78797 0.11737 0.0
H484 H 0.11745 0.83266 1.00706 0.0
H485 H 0.0899 0.79951 1.00346 0.0
H486 H 0.12494 0.785 0.54515 0.0
H487 H 0.09444 0.75578 0.54504 0.0
H488 H 0.15503 0.82117 0.44876 0.0
H489 H 0.16065 0.85108 0.32963 0.0
C490 C 0.70207 0.98344 0.19791 0.0
C491 C 0.71769 0.01442 0.22579 0.0
C492 C 0.67879 0.05718 0.16702 0.0
C493 C 0.65824 0.02765 0.18103 0.0
N494 N 0.65293 0.95979 0.20188 0.0
N495 N 0.72647 0.07967 0.20894 0.0
C496 C 0.67072 0.9899 0.18976 0.0
C497 C 0.70842 0.05086 0.19632 0.0
N498 N 0.71449 0.9474 0.202 0.0
N499 N 0.66986 0.09077 0.12678 0.0
H500 H 0.74848 0.07455 0.22853 0.0
H501 H 0.71946 0.10804 0.20314 0.0
H502 H 0.64847 0.09553 0.10237 0.0
H503 H 0.68469 0.11246 0.10762 0.0
H504 H 0.73722 0.94115 0.21433 0.0
H505 H 0.73722 0.94115 0.21433 0.0
H506 H 0.6286 0.96141 0.20825 0.0
H507 H 0.6286 0.96141 0.20825 0.0
C508 C 0.45334 0.6604 0.24822 0.0
C509 C 0.47668 0.65845 0.31542 0.0
C510 C 0.48105 0.58974 0.28393 0.0
C511 C 0.46657 0.5927 0.18882 0.0
N512 N 0.43606 0.63094 0.08364 0.0
N513 N 0.52022 0.61929 0.35855 0.0
C514 C 0.45113 0.628 0.17336 0.0
C515 C 0.49233 0.62241 0.32486 0.0
N516 N 0.43338 0.69244 0.2565 0.0
N517 N 0.48846 0.55505 0.32038 0.0
H518 H 0.53274 0.64257 0.36737 0.0
H519 H 0.53306 0.59334 0.35951 0.0
H520 H 0.4816 0.53051 0.2843 0.0
H521 H 0.49859 0.55167 0.39255 0.0
H522 H 0.41466 0.69421 0.21533 0.0
H523 H 0.43367 0.71582 0.31409 0.0
H524 H 0.42741 0.65674 0.0593 0.0
H525 H 0.43351 0.60733 0.03093 0.0
C526 C 0.87015 0.39896 0.50716 0.0
C527 C 0.85785 0.43074 0.45709 0.0
C528 C 0.88401 0.40182 0.25805 0.0
C529 C 0.90472 0.37992 0.30959 0.0
N530 N 0.91416 0.35019 0.48013 0.0
N531 N 0.85328 0.46204 0.27828 0.0
C532 C 0.89582 0.37496 0.43341 0.0
C533 C 0.86373 0.43153 0.33033 0.0
N534 N 0.85834 0.39327 0.62541 0.0
N535 N 0.88614 0.3965 0.13862 0.0
H536 H 0.83982 0.48577 0.32619 0.0
H537 H 0.86028 0.46511 0.18635 0.0
H538 H 0.90159 0.37502 0.08502 0.0
H539 H 0.8702 0.41036 0.09745 0.0
H540 H 0.86531 0.36962 0.66577 0.0
H541 H 0.83945 0.41089 0.67992 0.0
H542 H 0.91148 0.34806 0.57168 0.0
H543 H 0.9329 0.3326 0.42445 0.0
C544 C 0.06061 0.17633 0.05747 0.0
C545 C 0.0343 0.20342 0.10664 0.0
C546 C 0.99846 0.15541 0.07793 0.0
C547 C 0.02452 0.12699 0.0505 0.0
N548 N 0.08032 0.11005 0.02869 0.0
N549 N 0.97758 0.21833 0.16898 0.0
C550 C 0.05565 0.13742 0.04309 0.0
C551 C 1.003 0.193 0.11677 0.0
N552 N 0.09051 0.18801 0.02647 0.0
N553 N 0.96944 0.14652 0.0662 0.0
H554 H 0.98012 0.24619 0.19477 0.0
H555 H 0.95422 0.21119 0.19225 0.0
H556 H 0.96543 0.11938 0.03866 0.0
H557 H 0.95022 0.1666 0.07383 0.0
H558 H 0.1105 0.17038 0.98092 0.0
H559 H 0.09465 0.21641 0.0356 0.0
H560 H 0.10297 0.11568 0.03467 0.0
H561 H 0.07741 0.08125 0.02187 0.0
C562 C 0.35632 0.03748 0.19823 0.0
C563 C 0.34241 1.00303 0.18785 0.0
C564 C 0.39186 0.97682 0.04094 0.0
C565 C 0.40588 1.01146 0.04984 0.0
N566 N 0.39802 0.07766 0.11523 0.0
N567 N 0.34368 0.9441 0.07614 0.0
C568 C 0.38694 0.04272 0.12165 0.0
C569 C 0.35913 0.97436 0.10019 0.0
N570 N 0.34097 0.06452 0.28567 0.0
N571 N 0.41027 0.94518 0.98419 0.0
H572 H 0.31982 0.94185 0.11846 0.0
H573 H 0.35336 0.92347 1.00688 0.0
H574 H 0.43427 0.94499 0.94143 0.0
H575 H 0.40237 0.91824 0.98748 0.0
H576 H 0.35138 0.08818 0.30893 0.0
H577 H 0.31817 0.06218 0.33924 0.0
H578 H 0.38434 0.10227 0.15618 0.0
H579 H 0.41994 0.08255 0.05943 0.0
C580 C 0.47778 0.37661 0.22427 0.0
C581 C 0.50422 0.34868 0.1956 0.0
C582 C 0.52863 0.38267 0.02011 0.0
C583 C 0.50373 0.41255 0.05497 0.0
N584 N 0.45035 0.43257 0.16826 0.0
N585 N 0.54945 0.31903 0.04936 0.0
C586 C 0.47677 0.40756 0.14955 0.0
C587 C 0.52766 0.34963 0.08662 0.0
N588 N 0.45473 0.37477 0.32793 0.0
N589 N 0.55387 0.38667 0.92602 0.0
H590 H 0.54873 0.29497 0.09823 0.0
H591 H 0.56617 0.31598 0.96684 0.0
H592 H 0.55418 0.40946 0.87305 0.0
H593 H 0.57463 0.36845 0.90282 0.0
H594 H 0.43699 0.39647 0.36402 0.0
H595 H 0.45422 0.35155 0.38024 0.0
H596 H 0.42875 0.42879 0.22788 0.0
H597 H 0.44931 0.4557 0.11647 0.0
C598 C 0.16388 0.56485 0.95068 0.0
C599 C 0.17582 0.53472 0.00881 0.0
C600 C 0.13901 0.4941 0.94521 0.0
C601 C 0.12331 0.526 0.90723 0.0
N602 N 0.11825 0.5938 0.89362 0.0
N603 N 0.17089 0.47166 0.07655 0.0
C604 C 0.13524 0.56194 0.91391 0.0
C605 C 0.16261 0.4994 0.00912 0.0
N606 N 0.17988 0.59647 0.9316 0.0
N607 N 0.13161 0.45858 0.91904 0.0
H608 H 0.18721 0.47464 0.12781 0.0
H609 H 0.15936 0.44704 0.09035 0.0
H610 H 0.11513 0.45362 0.8696 0.0
H611 H 0.14417 0.43409 0.93525 0.0
H612 H 0.173 0.619 0.88662 0.0
H613 H 0.20177 0.59866 0.95133 0.0
H614 H 0.12401 0.62106 0.9105 0.0
H615 H 0.09654 0.59349 0.87166 0.0
C616 C 0.02652 0.83123 0.79515 0.0
C617 C 1.00191 0.82609 0.73723 0.0
C618 C 0.97527 0.88696 0.8341 0.0
C619 C 1.00378 0.89645 0.86337 0.0
N620 N 0.0587 0.876 0.85947 0.0
N621 N 0.95249 0.85032 0.69952 0.0
C622 C 0.02985 0.86792 0.84325 0.0
C623 C 0.97586 0.85404 0.75762 0.0
N624 N 0.04755 0.80109 0.79905 0.0
N625 N 0.94744 0.90896 0.88134 0.0
H626 H 0.95189 0.82642 0.64462 0.0
H627 H 0.93491 0.872 0.70031 0.0
H628 H 0.9457 0.93187 0.94321 0.0
H629 H 0.92558 0.90173 0.8704 0.0
H630 H 0.06479 0.80214 0.84688 0.0
H631 H 0.04545 0.77402 0.76429 0.0
H632 H 0.07905 0.85712 0.83234 0.0
H633 H 0.06369 0.90239 0.88821 0.0
C634 C 0.66289 0.97453 0.67613 0.0
C635 C 0.67789 1.00864 0.65723 0.0
C636 C 0.62557 0.04487 0.7397 0.0
C637 C 0.61 1.01065 0.75348 0.0
N638 N 0.61671 0.94349 0.7757 0.0
N639 N 0.6733 0.07648 0.69222 0.0
C640 C 0.62954 0.97561 0.7336 0.0
C641 C 0.65933 0.04343 0.69834 0.0
N642 N 0.68036 0.94095 0.63363 0.0
N643 N 0.60856 0.07953 0.76207 0.0
H644 H 0.69784 0.07795 0.66403 0.0
H645 H 0.69784 0.07795 0.66403 0.0
H646 H 0.61938 0.10479 0.75261 0.0
H647 H 0.58392 0.08373 0.78583 0.0
H648 H 0.67033 0.91545 0.62891 0.0
H649 H 0.70493 0.93916 0.59754 0.0
H650 H 0.63023 0.91792 0.77406 0.0
H651 H 0.59319 0.94333 0.82505 0.0
C652 C 0.54893 0.66597 0.58657 0.0
C653 C 0.52245 0.69293 0.63374 0.0
C654 C 0.51141 0.65976 0.81952 0.0
C655 C 0.53162 0.62776 0.75913 0.0
N656 N 0.57053 0.60081 0.58152 0.0
N657 N 0.47991 0.71766 0.80094 0.0
C658 C 0.55134 0.63127 0.64266 0.0
C659 C 0.50452 0.69087 0.75328 0.0
N660 N 0.57096 0.67308 0.48524 0.0
N661 N 0.49939 0.66056 0.94051 0.0
H662 H 0.47556 0.74133 0.75509 0.0
H663 H 0.46349 0.71564 0.88268 0.0
H664 H 0.50564 0.63887 0.99036 0.0
H665 H 0.48655 0.68423 0.99165 0.0
H666 H 0.5921 0.65598 0.45063 0.0
H667 H 0.56923 0.69818 0.44292 0.0
H668 H 0.5823 0.60048 0.49107 0.0
H669 H 0.57302 0.57496 0.61874 0.0
C670 C 0.89398 0.55671 0.73137 0.0
C671 C 0.87607 0.52511 0.7545 0.0
C672 C 0.91517 0.49609 0.85098 0.0
C673 C 0.93332 0.52828 0.83035 0.0
N674 N 0.93011 0.59534 0.79955 0.0
N675 N 0.86295 0.4734 0.87845 0.0
C676 C 0.9196 0.56062 0.786 0.0
C677 C 0.88427 0.49821 0.83061 0.0
N678 N 0.88767 0.58219 0.65376 0.0
N679 N 0.92761 0.46221 0.87892 0.0
H680 H 0.84027 0.47435 0.86343 0.0
H681 H 0.86656 0.45509 0.94266 0.0
H682 H 0.95071 0.45617 0.88516 0.0
H683 H 0.91573 0.43778 0.88202 0.0
H684 H 0.90245 0.60336 0.62409 0.0
H685 H 0.86894 0.58054 0.6132 0.0
H686 H 0.91949 0.61995 0.77489 0.0
H687 H 0.94629 0.60022 0.85026 0.0
loop_
_geom_bond_atom_site_label_1
_geom_bond_atom_site_label_2
_geom_bond_distance
_geom_bond_site_symmetry_2
_ccdc_geom_bond_type
H0 C5 0.930 . S
H1 C8 0.930 . S
H2 C10 0.930 . S
H3 C4 1.016 . S
C4 H3 1.016 . S
C4 N11 1.286 . S
C5 H0 0.930 . S
C5 C6 1.397 . S
C5 C7 1.361 . S
C6 C5 1.397 . S
C6 C10 1.390 . S
C7 C5 1.361 . S
C7 C8 1.393 . S
C7 N11 1.413 . S
C8 H1 0.930 . S
C8 C7 1.393 . S
C8 C9 1.399 . S
C9 C8 1.399 . S
C9 C10 1.381 . S
C10 H2 0.930 . S
C10 C6 1.390 . S
C10 C9 1.381 . S
N11 C4 1.286 . S
N11 C7 1.413 . S
H12 C17 0.930 . S
H13 C20 0.930 . S
H14 C22 0.930 . S
H15 C16 1.016 . S
C16 H15 1.016 . S
C16 N23 1.286 1_655 S
C17 H12 0.930 . S
C17 C18 1.397 . S
C17 C19 1.361 . S
C18 C17 1.397 . S
C18 C22 1.390 1_455 S
C19 C17 1.361 . S
C19 C20 1.393 . S
C19 N23 1.413 . S
C20 H13 0.930 . S
C20 C19 1.393 . S
C20 C21 1.400 . S
C21 C20 1.400 . S
C21 C22 1.384 1_455 S
C22 H14 0.930 . S
C22 C18 1.390 1_655 S
C22 C21 1.384 1_655 S
N23 C16 1.286 1_455 S
N23 C19 1.413 . S
H24 C29 0.930 . S
H25 C32 0.930 . S
H26 C34 0.930 . S
H27 C28 1.016 . S
C28 H27 1.016 . S
C28 N35 1.286 1_565 S
C29 H24 0.930 . S
C29 C30 1.397 . S
C29 C31 1.361 . S
C30 C29 1.397 . S
C30 C34 1.390 1_545 S
C31 C29 1.361 . S
C31 C32 1.393 . S
C31 N35 1.413 . S
C32 H25 0.930 . S
C32 C31 1.393 . S
C32 C33 1.405 . S
C33 C32 1.405 . S
C33 C34 1.376 1_545 S
C34 H26 0.930 . S
C34 C30 1.390 1_565 S
C34 C33 1.376 1_565 S
N35 C28 1.286 1_545 S
N35 C31 1.413 . S
H36 C41 0.930 . S
H37 C44 0.930 . S
H38 C46 0.930 . S
H39 C40 1.016 . S
C40 H39 1.016 . S
C40 N47 1.286 . S
C41 H36 0.930 . S
C41 C42 1.397 . S
C41 C43 1.361 . S
C42 C41 1.397 . S
C42 C46 1.390 . S
C43 C41 1.361 . S
C43 C44 1.393 . S
C43 N47 1.413 . S
C44 H37 0.930 . S
C44 C43 1.393 . S
C44 C45 1.399 . S
C45 C44 1.399 . S
C45 C46 1.381 . S
C46 H38 0.930 . S
C46 C42 1.390 . S
C46 C45 1.381 . S
N47 C40 1.286 . S
N47 C43 1.413 . S
H48 C53 0.930 . S
H49 C56 0.930 . S
H50 C58 0.930 . S
H51 C52 1.016 . S
C52 H51 1.016 . S
C52 N59 1.286 1_554 S
C53 H48 0.930 . S
C53 C54 1.397 . S
C53 C55 1.361 . S
C54 C53 1.397 . S
C54 C58 1.390 . S
C55 C53 1.361 . S
C55 C56 1.393 1_556 S
C55 N59 1.413 . S
C56 H49 0.930 . S
C56 C55 1.393 1_554 S
C56 C57 1.399 . S
C57 C56 1.399 . S
C57 C58 1.381 1_554 S
C58 H50 0.930 . S
C58 C54 1.390 . S
C58 C57 1.381 1_556 S
N59 C52 1.286 1_556 S
N59 C55 1.413 . S
H60 C65 0.930 1_556 S
H61 C68 0.930 . S
H62 C70 0.930 . S
H63 C64 1.021 . S
C64 H63 1.021 . S
C64 N71 1.279 1_655 S
C65 H60 0.930 1_554 S
C65 C66 1.397 . S
C65 C67 1.361 . S
C66 C65 1.397 . S
C66 C70 1.390 1_455 S
C67 C65 1.361 . S
C67 C68 1.393 . S
C67 N71 1.413 . S
C68 H61 0.930 . S
C68 C67 1.393 . S
C68 C69 1.408 . S
C69 C68 1.408 . S
C69 C70 1.370 1_455 S
C70 H62 0.930 . S
C70 C66 1.390 1_655 S
C70 C69 1.370 1_655 S
N71 C64 1.279 1_455 S
N71 C67 1.413 . S
H72 C77 0.930 . S
H73 C80 0.930 . S
H74 C82 0.930 . S
H75 C76 1.016 . S
C76 H75 1.016 . S
C76 N83 1.286 1_565 S
C77 H72 0.930 . S
C77 C78 1.397 . S
C77 C79 1.361 . S
C78 C77 1.397 . S
C78 C82 1.390 1_545 S
C79 C77 1.361 . S
C79 C80 1.393 . S
C79 N83 1.413 . S
C80 H73 0.930 . S
C80 C79 1.393 . S
C80 C81 1.401 . S
C81 C80 1.401 . S
C81 C82 1.382 1_545 S
C82 H74 0.930 . S
C82 C78 1.390 1_565 S
C82 C81 1.382 1_565 S
N83 C76 1.286 1_545 S
N83 C79 1.413 . S
H84 C89 0.930 . S
H85 C92 0.930 . S
H86 C94 0.930 . S
H87 C88 1.016 . S
C88 H87 1.016 . S
C88 N95 1.286 . S
C89 H84 0.930 . S
C89 C90 1.397 . S
C89 C91 1.361 . S
C90 C89 1.397 . S
C90 C94 1.390 . S
C91 C89 1.361 . S
C91 C92 1.393 . S
C91 N95 1.413 . S
C92 H85 0.930 . S
C92 C91 1.393 . S
C92 C93 1.399 . S
C93 C92 1.399 . S
C93 C94 1.381 . S
C94 H86 0.930 . S
C94 C90 1.390 . S
C94 C93 1.381 . S
N95 C88 1.286 . S
N95 C91 1.413 . S
Dy96 O99 2.307 1_545 S
Dy96 O101 2.395 1_655 S
Dy96 O102 2.379 . S
Dy96 O104 2.339 . S
Dy96 O106 2.298 . S
Dy96 O110 2.275 1_655 S
Dy96 C118 2.738 . S
Dy97 O100 2.298 1_554 S
Dy97 O103 2.275 1_454 S
Dy97 O105 2.307 1_565 S
Dy97 O107 2.395 1_455 S
Dy97 O108 2.379 . S
Dy97 O111 2.339 1_554 S
Dy97 C127 2.738 . S
C98 O110 1.254 1_565 S
C98 O111 1.257 . S
O99 Dy96 2.307 1_565 S
O99 C109 1.266 . S
O100 Dy97 2.298 1_556 S
O100 C109 1.236 1_455 S
O101 Dy96 2.395 1_455 S
O101 C118 1.255 1_455 S
O102 Dy96 2.379 . S
O102 C118 1.249 . S
O103 Dy97 2.275 1_656 S
O103 C119 1.254 1_565 S
O104 Dy96 2.339 . S
O104 C119 1.257 . S
O105 Dy97 2.307 1_545 S
O105 C120 1.266 1_554 S
O106 Dy96 2.298 . S
O106 C120 1.236 1_655 S
O107 Dy97 2.395 1_655 S
O107 C127 1.255 1_655 S
O108 Dy97 2.379 . S
O108 C127 1.249 . S
C109 O99 1.266 . S
C109 O100 1.236 1_655 S
O110 Dy96 2.275 1_455 S
O110 C98 1.254 1_545 S
O111 Dy97 2.339 1_556 S
O111 C98 1.257 . S
C112 C115 1.344 1_655 S
C112 C116 1.328 . S
C112 C118 1.516 . S
C113 C114 1.304 1_655 S
C113 C117 1.323 . S
C114 C113 1.304 1_455 S
C114 C115 1.371 . S
C114 H128 0.930 . S
C115 C112 1.344 1_455 S
C115 C114 1.371 . S
C115 H129 0.931 . S
C116 C112 1.328 . S
C116 C117 1.433 . S
C116 H130 0.931 . S
C117 C113 1.323 . S
C117 C116 1.433 . S
C117 H131 0.933 . S
C118 Dy96 2.738 . S
C118 O101 1.255 1_655 S
C118 O102 1.249 . S
C118 C112 1.516 . S
C119 O103 1.254 1_545 S
C119 O104 1.257 . S
C120 O105 1.266 1_556 S
C120 O106 1.236 1_455 S
C121 C124 1.344 1_455 S
C121 C125 1.328 . S
C121 C127 1.516 . S
C122 C123 1.304 1_455 S
C122 C126 1.323 . S
C123 C122 1.304 1_655 S
C123 C124 1.371 . S
C123 H132 0.930 . S
C124 C121 1.344 1_655 S
C124 C123 1.371 . S
C124 H133 0.931 . S
C125 C121 1.328 . S
C125 C126 1.433 . S
C125 H134 0.931 . S
C126 C122 1.323 . S
C126 C125 1.433 . S
C126 H135 0.933 . S
C127 Dy97 2.738 . S
C127 O107 1.255 1_455 S
C127 O108 1.249 . S
C127 C121 1.516 . S
H128 C114 0.930 . S
H129 C115 0.931 . S
H130 C116 0.931 . S
H131 C117 0.933 . S
H132 C123 0.930 . S
H133 C124 0.931 . S
H134 C125 0.931 . S
H135 C126 0.933 . S
Dy136 O139 2.307 . S
Dy136 O141 2.395 1_565 S
Dy136 O142 2.379 . S
Dy136 O144 2.339 . S
Dy136 O146 2.298 . S
Dy136 O150 2.275 1_565 S
Dy136 C158 2.738 . S
Dy137 O140 2.298 1_554 S
Dy137 O143 2.275 1_544 S
Dy137 O145 2.307 . S
Dy137 O147 2.395 1_545 S
Dy137 O148 2.379 . S
Dy137 O151 2.339 1_554 S
Dy137 C167 2.738 . S
C138 O150 1.254 . S
C138 O151 1.257 . S
O139 Dy136 2.307 . S
O139 C149 1.266 . S
O140 Dy137 2.298 1_556 S
O140 C149 1.236 1_545 S
O141 Dy136 2.395 1_545 S
O141 C158 1.255 1_545 S
O142 Dy136 2.379 . S
O142 C158 1.249 . S
O143 Dy137 2.275 1_566 S
O143 C159 1.254 . S
O144 Dy136 2.339 . S
O144 C159 1.257 . S
O145 Dy137 2.307 . S
O145 C160 1.266 1_554 S
O146 Dy136 2.298 . S
O146 C160 1.236 1_565 S
O147 Dy137 2.395 1_565 S
O147 C167 1.255 1_565 S
O148 Dy137 2.379 . S
O148 C167 1.249 . S
C149 O139 1.266 . S
C149 O140 1.236 1_565 S
O150 Dy136 2.275 1_545 S
O150 C138 1.254 . S
O151 Dy137 2.339 1_556 S
O151 C138 1.257 . S
C152 C155 1.338 1_565 S
C152 C156 1.328 . S
C152 C158 1.516 . S
C153 C154 1.304 . S
C153 C157 1.323 . S
C154 C153 1.304 . S
C154 C155 1.370 1_565 S
C154 H168 0.930 1_565 S
C155 C152 1.338 1_545 S
C155 C154 1.370 1_545 S
C155 H169 0.938 . S
C156 C152 1.328 . S
C156 C157 1.433 . S
C156 H170 0.931 . S
C157 C153 1.323 . S
C157 C156 1.433 . S
C157 H171 0.933 . S
C158 Dy136 2.738 . S
C158 O141 1.255 1_565 S
C158 O142 1.249 . S
C158 C152 1.516 . S
C159 O143 1.254 . S
C159 O144 1.257 . S
C160 O145 1.266 1_556 S
C160 O146 1.236 1_545 S
C161 C164 1.344 1_545 S
C161 C165 1.328 . S
C161 C167 1.516 . S
C162 C163 1.304 . S
C162 C166 1.323 . S
C163 C162 1.304 . S
C163 C164 1.371 1_545 S
C163 H172 0.930 1_545 S
C164 C161 1.344 1_565 S
C164 C163 1.371 1_565 S
C164 H173 0.931 . S
C165 C161 1.328 . S
C165 C166 1.433 . S
C165 H174 0.931 . S
C166 C162 1.323 . S
C166 C165 1.433 . S
C166 H175 0.933 . S
C167 Dy137 2.738 . S
C167 O147 1.255 1_545 S
C167 O148 1.249 . S
C167 C161 1.516 . S
H168 C154 0.930 1_545 S
H169 C155 0.938 . S
H170 C156 0.931 . S
H171 C157 0.933 . S
H172 C163 0.930 1_565 S
H173 C164 0.931 . S
H174 C165 0.931 . S
H175 C166 0.933 . S
Dy176 O179 2.307 . S
Dy176 O181 2.395 1_556 S
Dy176 O182 2.379 . S
Dy176 O184 2.339 . S
Dy176 O186 2.298 . S
Dy176 O190 2.275 . S
Dy176 C198 2.738 1_556 S
Dy177 O180 2.298 . S
Dy177 O183 2.275 . S
Dy177 O185 2.307 1_556 S
Dy177 O187 2.395 . S
Dy177 O188 2.379 . S
Dy177 O191 2.339 1_556 S
Dy177 C207 2.738 . S
C178 O190 1.254 1_554 S
C178 O191 1.257 . S
O179 Dy176 2.307 . S
O179 C189 1.266 . S
O180 Dy177 2.298 . S
O180 C189 1.236 . S
O181 Dy176 2.395 1_554 S
O181 C198 1.255 . S
O182 Dy176 2.379 . S
O182 C198 1.249 1_556 S
O183 Dy177 2.275 . S
O183 C199 1.254 . S
O184 Dy176 2.339 . S
O184 C199 1.257 . S
O185 Dy177 2.307 1_554 S
O185 C200 1.266 . S
O186 Dy176 2.298 . S
O186 C200 1.236 1_556 S
O187 Dy177 2.395 . S
O187 C207 1.255 . S
O188 Dy177 2.379 . S
O188 C207 1.249 . S
C189 O179 1.266 . S
C189 O180 1.236 . S
O190 Dy176 2.275 . S
O190 C178 1.254 1_556 S
O191 Dy177 2.339 1_554 S
O191 C178 1.257 . S
C192 C195 1.344 . S
C192 C196 1.328 . S
C192 C198 1.516 . S
C193 C194 1.304 . S
C193 C197 1.323 . S
C194 C193 1.304 . S
C194 C195 1.371 . S
C194 H208 0.930 . S
C195 C192 1.344 . S
C195 C194 1.371 . S
C195 H209 0.931 . S
C196 C192 1.328 . S
C196 C197 1.433 . S
C196 H210 0.931 1_554 S
C197 C193 1.323 . S
C197 C196 1.433 . S
C197 H211 0.933 . S
C198 Dy176 2.738 1_554 S
C198 O181 1.255 . S
C198 O182 1.249 1_554 S
C198 C192 1.516 . S
C199 O183 1.254 . S
C199 O184 1.257 . S
C200 O185 1.266 . S
C200 O186 1.236 1_554 S
C201 C204 1.344 . S
C201 C205 1.328 . S
C201 C207 1.516 . S
C202 C203 1.304 . S
C202 C206 1.323 . S
C203 C202 1.304 . S
C203 C204 1.371 . S
C203 H212 0.930 . S
C204 C201 1.344 . S
C204 C203 1.371 . S
C204 H213 0.931 . S
C205 C201 1.328 . S
C205 C206 1.433 . S
C205 H214 0.931 . S
C206 C202 1.323 . S
C206 C205 1.433 . S
C206 H215 0.933 . S
C207 Dy177 2.738 . S
C207 O187 1.255 . S
C207 O188 1.249 . S
C207 C201 1.516 . S
H208 C194 0.930 . S
H209 C195 0.931 . S
H210 C196 0.931 1_556 S
H211 C197 0.933 . S
H212 C203 0.930 . S
H213 C204 0.931 . S
H214 C205 0.931 . S
H215 C206 0.933 . S
Dy216 O219 2.307 1_455 S
Dy216 O221 2.395 . S
Dy216 O222 2.379 . S
Dy216 O224 2.339 . S
Dy216 O226 2.298 . S
Dy216 O230 2.275 . S
Dy216 C238 2.738 . S
Dy217 O220 2.298 1_554 S
Dy217 O223 2.275 . S
Dy217 O225 2.307 1_654 S
Dy217 O227 2.395 . S
Dy217 O228 2.379 . S
Dy217 O231 2.339 1_554 S
Dy217 C247 2.738 . S
C218 O230 1.254 1_655 S
C218 O231 1.257 . S
O219 Dy216 2.307 1_655 S
O219 C229 1.266 . S
O220 Dy217 2.298 1_556 S
O220 C229 1.236 . S
O221 Dy216 2.395 . S
O221 C238 1.255 . S
O222 Dy216 2.379 . S
O222 C238 1.249 . S
O223 Dy217 2.275 . S
O223 C239 1.254 1_655 S
O224 Dy216 2.339 . S
O224 C239 1.257 1_556 S
O225 Dy217 2.307 1_456 S
O225 C240 1.266 . S
O226 Dy216 2.298 . S
O226 C240 1.236 . S
O227 Dy217 2.395 . S
O227 C247 1.255 . S
O228 Dy217 2.379 . S
O228 C247 1.249 . S
C229 O219 1.266 . S
C229 O220 1.236 . S
O230 Dy216 2.275 . S
O230 C218 1.254 1_455 S
O231 Dy217 2.339 1_556 S
O231 C218 1.257 . S
C232 C235 1.344 . S
C232 C236 1.328 . S
C232 C238 1.516 . S
C233 C234 1.304 . S
C233 C237 1.323 . S
C234 C233 1.304 . S
C234 C235 1.371 . S
C234 H248 0.930 . S
C235 C232 1.344 . S
C235 C234 1.371 . S
C235 H249 0.931 . S
C236 C232 1.328 . S
C236 C237 1.433 . S
C236 H250 0.931 . S
C237 C233 1.323 . S
C237 C236 1.433 . S
C237 H251 0.933 . S
C238 Dy216 2.738 . S
C238 O221 1.255 . S
C238 O222 1.249 . S
C238 C232 1.516 . S
C239 O223 1.254 1_455 S
C239 O224 1.257 1_554 S
C240 O225 1.266 . S
C240 O226 1.236 . S
C241 C244 1.344 . S
C241 C245 1.328 . S
C241 C247 1.516 . S
C242 C243 1.304 . S
C242 C246 1.323 . S
C243 C242 1.304 . S
C243 C244 1.371 . S
C243 H252 0.930 . S
C244 C241 1.344 . S
C244 C243 1.371 . S
C244 H253 0.931 . S
C245 C241 1.328 . S
C245 C246 1.433 . S
C245 H254 0.931 . S
C246 C242 1.323 . S
C246 C245 1.433 . S
C246 H255 0.933 . S
C247 Dy217 2.738 . S
C247 O227 1.255 . S
C247 O228 1.249 . S
C247 C241 1.516 . S
H248 C234 0.930 . S
H249 C235 0.931 . S
H250 C236 0.931 . S
H251 C237 0.933 . S
H252 C243 0.930 . S
H253 C244 0.931 . S
H254 C245 0.931 . S
H255 C246 0.933 . S
C256 C257 1.370 . S
C256 C262 1.379 . S
C256 N264 1.356 . S
C257 C256 1.370 . S
C257 C263 1.355 1_545 S
C258 C259 1.363 1_565 S
C258 C263 1.379 . S
C258 N265 1.356 . S
C259 C258 1.363 1_545 S
C259 C262 1.363 . S
N260 C262 1.356 . S
N260 H272 0.984 . S
N260 H273 0.985 . S
N261 C263 1.356 . S
N261 H266 0.984 . S
N261 H267 0.985 . S
C262 C256 1.379 . S
C262 C259 1.363 . S
C262 N260 1.356 . S
C263 C257 1.355 1_565 S
C263 C258 1.379 . S
C263 N261 1.356 . S
N264 C256 1.356 . S
N264 H270 0.984 . S
N264 H271 0.984 . S
N265 C258 1.356 . S
N265 H268 0.984 . S
N265 H269 0.985 . S
H266 N261 0.984 . S
H267 N261 0.985 . S
H268 N265 0.984 . S
H269 N265 0.985 . S
H270 N264 0.984 . S
H271 N264 0.984 . S
H272 N260 0.984 . S
H273 N260 0.985 . S
C274 C275 1.363 . S
C274 C280 1.379 . S
C274 N282 1.356 . S
C275 C274 1.363 . S
C275 C281 1.363 . S
C276 C277 1.363 . S
C276 C281 1.379 . S
C276 N283 1.356 . S
C277 C276 1.363 . S
C277 C280 1.363 . S
N278 C280 1.356 . S
N278 H290 0.984 . S
N278 H291 0.985 . S
N279 C281 1.356 . S
N279 H284 0.984 . S
N279 H285 0.985 . S
C280 C274 1.379 . S
C280 C277 1.363 . S
C280 N278 1.356 . S
C281 C275 1.363 . S
C281 C276 1.379 . S
C281 N279 1.356 . S
N282 C274 1.356 . S
N282 H288 0.984 . S
N282 H289 0.984 . S
N283 C276 1.356 . S
N283 H286 0.984 . S
N283 H287 0.985 . S
H284 N279 0.984 . S
H285 N279 0.985 . S
H286 N283 0.984 . S
H287 N283 0.985 . S
H288 N282 0.984 . S
H289 N282 0.984 . S
H290 N278 0.984 . S
H291 N278 0.985 . S
C292 C293 1.363 . S
C292 C298 1.379 . S
C292 N300 1.356 . S
C293 C292 1.363 . S
C293 C299 1.363 . S
C294 C295 1.363 . S
C294 C299 1.379 . S
C294 N301 1.356 . S
C295 C294 1.363 . S
C295 C298 1.363 . S
N296 C298 1.356 . S
N296 H308 0.984 . S
N296 H309 0.985 . S
N297 C299 1.356 . S
N297 H302 0.984 . S
N297 H303 0.985 . S
C298 C292 1.379 . S
C298 C295 1.363 . S
C298 N296 1.356 . S
C299 C293 1.363 . S
C299 C294 1.379 . S
C299 N297 1.356 . S
N300 C292 1.356 . S
N300 H306 0.984 . S
N300 H307 0.984 . S
N301 C294 1.356 . S
N301 H304 0.984 . S
N301 H305 0.985 . S
H302 N297 0.984 . S
H303 N297 0.985 . S
H304 N301 0.984 . S
H305 N301 0.985 . S
H306 N300 0.984 . S
H307 N300 0.984 . S
H308 N296 0.984 . S
H309 N296 0.985 . S
C310 C311 1.351 1_655 S
C310 C316 1.379 . S
C310 N318 1.356 . S
C311 C310 1.351 1_455 S
C311 C317 1.386 . S
C312 C313 1.363 . S
C312 C317 1.379 . S
C312 N319 1.356 . S
C313 C312 1.363 . S
C313 C316 1.363 1_455 S
N314 C316 1.356 . S
N314 H326 0.984 . S
N314 H327 0.985 . S
N315 C317 1.356 . S
N315 H320 0.984 . S
N315 H321 0.985 . S
C316 C310 1.379 . S
C316 C313 1.363 1_655 S
C316 N314 1.356 . S
C317 C311 1.386 . S
C317 C312 1.379 . S
C317 N315 1.356 . S
N318 C310 1.356 . S
N318 H324 0.984 . S
N318 H325 0.984 . S
N319 C312 1.356 . S
N319 H322 0.984 . S
N319 H323 0.985 . S
H320 N315 0.984 . S
H321 N315 0.985 . S
H322 N319 0.984 . S
H323 N319 0.985 . S
H324 N318 0.984 . S
H325 N318 0.984 . S
H326 N314 0.984 . S
H327 N314 0.985 . S
C328 C329 1.366 . S
C328 C334 1.379 . S
C328 N336 1.356 . S
C329 C328 1.366 . S
C329 C335 1.360 1_565 S
C330 C331 1.347 1_545 S
C330 C335 1.379 . S
C330 N337 1.356 . S
C331 C330 1.347 1_565 S
C331 C334 1.382 . S
N332 C334 1.356 . S
N332 H344 0.984 . S
N332 H345 0.985 . S
N333 C335 1.356 . S
N333 H338 0.984 . S
N333 H339 0.985 . S
C334 C328 1.379 . S
C334 C331 1.382 . S
C334 N332 1.356 . S
C335 C329 1.360 1_545 S
C335 C330 1.379 . S
C335 N333 1.356 . S
N336 C328 1.356 . S
N336 H342 0.984 . S
N336 H343 0.984 . S
N337 C330 1.356 . S
N337 H340 0.984 1_554 S
N337 H341 0.985 . S
H338 N333 0.984 . S
H339 N333 0.985 . S
H340 N337 0.984 1_556 S
H341 N337 0.985 . S
H342 N336 0.984 . S
H343 N336 0.984 . S
H344 N332 0.984 . S
H345 N332 0.985 . S
C346 C347 1.363 . S
C346 C352 1.379 . S
C346 N354 1.356 . S
C347 C346 1.363 . S
C347 C353 1.363 . S
C348 C349 1.363 1_556 S
C348 C353 1.379 1_556 S
C348 N355 1.356 . S
C349 C348 1.363 1_554 S
C349 C352 1.363 . S
N350 C352 1.356 . S
N350 H362 0.984 . S
N350 H363 0.985 . S
N351 C353 1.356 . S
N351 H356 0.984 . S
N351 H357 0.985 1_554 S
C352 C346 1.379 . S
C352 C349 1.363 . S
C352 N350 1.356 . S
C353 C347 1.363 . S
C353 C348 1.379 1_554 S
C353 N351 1.356 . S
N354 C346 1.356 . S
N354 H360 0.984 . S
N354 H361 0.984 . S
N355 C348 1.356 . S
N355 H358 0.984 . S
N355 H359 0.985 . S
H356 N351 0.984 . S
H357 N351 0.985 1_556 S
H358 N355 0.984 . S
H359 N355 0.985 . S
H360 N354 0.984 . S
H361 N354 0.984 . S
H362 N350 0.984 . S
H363 N350 0.985 . S
C364 C365 1.363 . S
C364 C370 1.379 . S
C364 N372 1.356 . S
C365 C364 1.363 . S
C365 C371 1.363 . S
C366 C367 1.363 . S
C366 C371 1.379 . S
C366 N373 1.356 . S
C367 C366 1.363 . S
C367 C370 1.363 . S
N368 C370 1.356 . S
N368 H380 0.984 . S
N368 H381 0.985 . S
N369 C371 1.356 . S
N369 H374 0.984 . S
N369 H375 0.985 . S
C370 C364 1.379 . S
C370 C367 1.363 . S
C370 N368 1.356 . S
C371 C365 1.363 . S
C371 C366 1.379 . S
C371 N369 1.356 . S
N372 C364 1.356 . S
N372 H378 0.984 . S
N372 H379 0.984 . S
N373 C366 1.356 . S
N373 H376 0.984 . S
N373 H377 0.985 . S
H374 N369 0.984 . S
H375 N369 0.985 . S
H376 N373 0.984 . S
H377 N373 0.985 . S
H378 N372 0.984 . S
H379 N372 0.984 . S
H380 N368 0.984 . S
H381 N368 0.985 . S
C382 C383 1.384 . S
C382 C388 1.379 . S
C382 N390 1.356 . S
C383 C382 1.384 . S
C383 C389 1.353 1_655 S
C384 C385 1.363 1_455 S
C384 C389 1.379 . S
C384 N391 1.356 . S
C385 C384 1.363 1_655 S
C385 C388 1.363 . S
N386 C388 1.356 . S
N386 H398 0.984 . S
N386 H399 0.985 . S
N387 C389 1.356 . S
N387 H392 0.984 . S
N387 H393 0.985 . S
C388 C382 1.379 . S
C388 C385 1.363 . S
C388 N386 1.356 . S
C389 C383 1.353 1_455 S
C389 C384 1.379 . S
C389 N387 1.356 . S
N390 C382 1.356 . S
N390 H396 0.984 . S
N390 H397 0.984 . S
N391 C384 1.356 . S
N391 H394 0.984 . S
N391 H395 0.985 . S
H392 N387 0.984 . S
H393 N387 0.985 . S
H394 N391 0.984 . S
H395 N391 0.985 . S
H396 N390 0.984 . S
H397 N390 0.984 . S
H398 N386 0.984 . S
H399 N386 0.985 . S
C400 C401 1.363 1_655 S
C400 C406 1.379 . S
C400 N408 1.356 . S
C401 C400 1.363 1_455 S
C401 C407 1.363 . S
C402 C403 1.363 1_455 S
C402 C407 1.379 . S
C402 N409 1.356 . S
C403 C402 1.363 1_655 S
C403 C406 1.363 . S
N404 C406 1.356 . S
N404 H416 0.984 . S
N404 H417 0.985 . S
N405 C407 1.356 . S
N405 H410 0.984 . S
N405 H411 0.985 . S
C406 C400 1.379 . S
C406 C403 1.363 . S
C406 N404 1.356 . S
C407 C401 1.363 . S
C407 C402 1.379 . S
C407 N405 1.356 . S
N408 C400 1.356 . S
N408 H414 0.984 . S
N408 H415 0.984 . S
N409 C402 1.356 . S
N409 H412 0.984 1_455 S
N409 H413 0.985 . S
H410 N405 0.984 . S
H411 N405 0.985 . S
H412 N409 0.984 1_655 S
H413 N409 0.985 . S
H414 N408 0.984 . S
H415 N408 0.984 . S
H416 N404 0.984 . S
H417 N404 0.985 . S
C418 C419 1.363 1_545 S
C418 C424 1.379 1_545 S
C418 N426 1.356 . S
C419 C418 1.363 1_565 S
C419 C425 1.363 . S
C420 C421 1.363 . S
C420 C425 1.379 . S
C420 N427 1.356 . S
C421 C420 1.363 . S
C421 C424 1.363 . S
N422 C424 1.356 1_545 S
N422 H434 0.984 . S
N422 H435 0.985 1_545 S
N423 C425 1.356 . S
N423 H428 0.984 . S
N423 H429 0.985 . S
C424 C418 1.379 1_565 S
C424 C421 1.363 . S
C424 N422 1.356 1_565 S
C425 C419 1.363 . S
C425 C420 1.379 . S
C425 N423 1.356 . S
N426 C418 1.356 . S
N426 H432 0.984 . S
N426 H433 0.984 . S
N427 C420 1.356 . S
N427 H430 0.984 . S
N427 H431 0.985 . S
H428 N423 0.984 . S
H429 N423 0.985 . S
H430 N427 0.984 . S
H431 N427 0.985 . S
H432 N426 0.984 . S
H433 N426 0.984 . S
H434 N422 0.984 . S
H435 N422 0.985 1_565 S
C436 C437 1.363 . S
C436 C442 1.379 . S
C436 N444 1.356 . S
C437 C436 1.363 . S
C437 C443 1.363 . S
C438 C439 1.363 . S
C438 C443 1.379 . S
C438 N445 1.356 . S
C439 C438 1.363 . S
C439 C442 1.363 . S
N440 C442 1.356 . S
N440 H452 0.984 . S
N440 H453 0.985 . S
N441 C443 1.356 . S
N441 H446 0.984 . S
N441 H447 0.985 . S
C442 C436 1.379 . S
C442 C439 1.363 . S
C442 N440 1.356 . S
C443 C437 1.363 . S
C443 C438 1.379 . S
C443 N441 1.356 . S
N444 C436 1.356 . S
N444 H450 0.984 . S
N444 H451 0.984 . S
N445 C438 1.356 . S
N445 H448 0.984 . S
N445 H449 0.985 . S
H446 N441 0.984 . S
H447 N441 0.985 . S
H448 N445 0.984 . S
H449 N445 0.985 . S
H450 N444 0.984 . S
H451 N444 0.984 . S
H452 N440 0.984 . S
H453 N440 0.985 . S
C454 C455 1.363 . S
C454 C460 1.379 . S
C454 N462 1.356 . S
C455 C454 1.363 . S
C455 C461 1.363 . S
C456 C457 1.363 . S
C456 C461 1.379 . S
C456 N463 1.356 . S
C457 C456 1.363 . S
C457 C460 1.363 . S
N458 C460 1.356 . S
N458 H470 0.984 . S
N458 H471 0.985 . S
N459 C461 1.356 . S
N459 H464 0.984 . S
N459 H465 0.985 . S
C460 C454 1.379 . S
C460 C457 1.363 . S
C460 N458 1.356 . S
C461 C455 1.363 . S
C461 C456 1.379 . S
C461 N459 1.356 . S
N462 C454 1.356 . S
N462 H468 0.984 . S
N462 H469 0.984 . S
N463 C456 1.356 . S
N463 H466 0.984 . S
N463 H467 0.985 . S
H464 N459 0.984 . S
H465 N459 0.985 . S
H466 N463 0.984 . S
H467 N463 0.985 . S
H468 N462 0.984 . S
H469 N462 0.984 . S
H470 N458 0.984 . S
H471 N458 0.985 . S
C472 C473 1.363 1_455 S
C472 C478 1.379 . S
C472 N480 1.356 . S
C473 C472 1.363 1_655 S
C473 C479 1.363 . S
C474 C475 1.363 . S
C474 C479 1.379 1_455 S
C474 N481 1.356 . S
C475 C474 1.363 . S
C475 C478 1.363 . S
N476 C478 1.356 . S
N476 H488 0.984 . S
N476 H489 0.985 . S
N477 C479 1.356 . S
N477 H482 0.984 . S
N477 H483 0.985 . S
C478 C472 1.379 . S
C478 C475 1.363 . S
C478 N476 1.356 . S
C479 C473 1.363 . S
C479 C474 1.379 1_655 S
C479 N477 1.356 . S
N480 C472 1.356 . S
N480 H486 0.984 . S
N480 H487 0.984 . S
N481 C474 1.356 . S
N481 H484 0.984 . S
N481 H485 0.985 1_455 S
H482 N477 0.984 . S
H483 N477 0.985 . S
H484 N481 0.984 . S
H485 N481 0.985 1_655 S
H486 N480 0.984 . S
H487 N480 0.984 . S
H488 N476 0.984 . S
H489 N476 0.985 . S
C490 C491 1.363 . S
C490 C496 1.379 . S
C490 N498 1.356 1_545 S
C491 C490 1.363 . S
C491 C497 1.363 . S
C492 C493 1.363 . S
C492 C497 1.379 . S
C492 N499 1.356 . S
C493 C492 1.363 . S
C493 C496 1.363 . S
N494 C496 1.356 . S
N494 H506 0.984 . S
N494 H507 0.985 . S
N495 C497 1.356 . S
N495 H500 0.984 1_545 S
N495 H501 0.985 . S
C496 C490 1.379 . S
C496 C493 1.363 . S
C496 N494 1.356 . S
C497 C491 1.363 . S
C497 C492 1.379 . S
C497 N495 1.356 . S
N498 C490 1.356 1_565 S
N498 H504 0.984 . S
N498 H505 0.984 . S
N499 C492 1.356 . S
N499 H502 0.984 . S
N499 H503 0.985 . S
H500 N495 0.984 1_565 S
H501 N495 0.985 . S
H502 N499 0.984 . S
H503 N499 0.985 . S
H504 N498 0.984 . S
H505 N498 0.984 . S
H506 N494 0.984 . S
H507 N494 0.985 . S
C508 C509 1.363 . S
C508 C514 1.379 . S
C508 N516 1.356 . S
C509 C508 1.363 . S
C509 C515 1.363 . S
C510 C511 1.363 . S
C510 C515 1.379 . S
C510 N517 1.356 . S
C511 C510 1.363 . S
C511 C514 1.363 . S
N512 C514 1.356 1_556 S
N512 H524 0.984 . S
N512 H525 0.985 . S
N513 C515 1.356 . S
N513 H518 0.984 . S
N513 H519 0.985 . S
C514 C508 1.379 . S
C514 C511 1.363 . S
C514 N512 1.356 1_554 S
C515 C509 1.363 . S
C515 C510 1.379 . S
C515 N513 1.356 . S
N516 C508 1.356 . S
N516 H522 0.984 1_554 S
N516 H523 0.984 . S
N517 C510 1.356 . S
N517 H520 0.984 . S
N517 H521 0.985 . S
H518 N513 0.984 . S
H519 N513 0.985 . S
H520 N517 0.984 . S
H521 N517 0.985 . S
H522 N516 0.984 1_556 S
H523 N516 0.984 . S
H524 N512 0.984 . S
H525 N512 0.985 . S
C526 C527 1.363 . S
C526 C532 1.379 . S
C526 N534 1.356 . S
C527 C526 1.363 . S
C527 C533 1.363 . S
C528 C529 1.363 . S
C528 C533 1.379 . S
C528 N535 1.356 . S
C529 C528 1.363 . S
C529 C532 1.363 . S
N530 C532 1.356 . S
N530 H542 0.984 . S
N530 H543 0.985 . S
N531 C533 1.356 . S
N531 H536 0.984 . S
N531 H537 0.985 . S
C532 C526 1.379 . S
C532 C529 1.363 . S
C532 N530 1.356 . S
C533 C527 1.363 . S
C533 C528 1.379 . S
C533 N531 1.356 . S
N534 C526 1.356 . S
N534 H540 0.984 . S
N534 H541 0.984 . S
N535 C528 1.356 . S
N535 H538 0.984 . S
N535 H539 0.985 . S
H536 N531 0.984 . S
H537 N531 0.985 . S
H538 N535 0.984 . S
H539 N535 0.985 . S
H540 N534 0.984 . S
H541 N534 0.984 . S
H542 N530 0.984 . S
H543 N530 0.985 . S
C544 C545 1.363 1_554 S
C544 C550 1.379 . S
C544 N552 1.356 . S
C545 C544 1.363 1_556 S
C545 C551 1.363 1_455 S
C546 C547 1.363 1_655 S
C546 C551 1.379 . S
C546 N553 1.356 . S
C547 C546 1.363 1_455 S
C547 C550 1.363 1_556 S
N548 C550 1.356 . S
N548 H560 0.984 . S
N548 H561 0.985 . S
N549 C551 1.356 . S
N549 H554 0.984 . S
N549 H555 0.985 . S
C550 C544 1.379 . S
C550 C547 1.363 1_554 S
C550 N548 1.356 . S
C551 C545 1.363 1_655 S
C551 C546 1.379 . S
C551 N549 1.356 . S
N552 C544 1.356 . S
N552 H558 0.984 . S
N552 H559 0.984 . S
N553 C546 1.356 . S
N553 H556 0.984 . S
N553 H557 0.985 . S
H554 N549 0.984 . S
H555 N549 0.985 . S
H556 N553 0.984 . S
H557 N553 0.985 . S
H558 N552 0.984 . S
H559 N552 0.984 . S
H560 N548 0.984 . S
H561 N548 0.985 . S
C562 C563 1.363 . S
C562 C568 1.379 . S
C562 N570 1.356 . S
C563 C562 1.363 . S
C563 C569 1.363 1_545 S
C564 C565 1.363 1_565 S
C564 C569 1.379 . S
C564 N571 1.356 1_554 S
C565 C564 1.363 1_545 S
C565 C568 1.363 . S
N566 C568 1.356 . S
N566 H578 0.984 . S
N566 H579 0.985 . S
N567 C569 1.356 1_556 S
N567 H572 0.984 1_556 S
N567 H573 0.985 . S
C568 C562 1.379 . S
C568 C565 1.363 . S
C568 N566 1.356 . S
C569 C563 1.363 1_565 S
C569 C564 1.379 . S
C569 N567 1.356 1_554 S
N570 C562 1.356 . S
N570 H576 0.984 . S
N570 H577 0.984 . S
N571 C564 1.356 1_556 S
N571 H574 0.984 . S
N571 H575 0.985 . S
H572 N567 0.984 1_554 S
H573 N567 0.985 . S
H574 N571 0.984 . S
H575 N571 0.985 . S
H576 N570 0.984 . S
H577 N570 0.984 . S
H578 N566 0.984 . S
H579 N566 0.985 . S
C580 C581 1.363 . S
C580 C586 1.379 . S
C580 N588 1.356 . S
C581 C580 1.363 . S
C581 C587 1.363 . S
C582 C583 1.363 . S
C582 C587 1.379 . S
C582 N589 1.356 1_554 S
C583 C582 1.363 . S
C583 C586 1.363 . S
N584 C586 1.356 . S
N584 H596 0.984 . S
N584 H597 0.985 . S
N585 C587 1.356 . S
N585 H590 0.984 . S
N585 H591 0.985 . S
C586 C580 1.379 . S
C586 C583 1.363 . S
C586 N584 1.356 . S
C587 C581 1.363 . S
C587 C582 1.379 . S
C587 N585 1.356 . S
N588 C580 1.356 . S
N588 H594 0.984 . S
N588 H595 0.984 . S
N589 C582 1.356 1_556 S
N589 H592 0.984 . S
N589 H593 0.985 . S
H590 N585 0.984 . S
H591 N585 0.985 . S
H592 N589 0.984 . S
H593 N589 0.985 . S
H594 N588 0.984 . S
H595 N588 0.984 . S
H596 N584 0.984 . S
H597 N584 0.985 . S
C598 C599 1.363 . S
C598 C604 1.379 . S
C598 N606 1.356 . S
C599 C598 1.363 . S
C599 C605 1.363 . S
C600 C601 1.363 . S
C600 C605 1.379 . S
C600 N607 1.356 . S
C601 C600 1.363 . S
C601 C604 1.363 . S
N602 C604 1.356 . S
N602 H614 0.984 1_556 S
N602 H615 0.985 . S
N603 C605 1.356 . S
N603 H608 0.984 . S
N603 H609 0.985 . S
C604 C598 1.379 . S
C604 C601 1.363 . S
C604 N602 1.356 . S
C605 C599 1.363 . S
C605 C600 1.379 . S
C605 N603 1.356 . S
N606 C598 1.356 . S
N606 H612 0.984 . S
N606 H613 0.984 . S
N607 C600 1.356 . S
N607 H610 0.984 . S
N607 H611 0.985 . S
H608 N603 0.984 . S
H609 N603 0.985 . S
H610 N607 0.984 . S
H611 N607 0.985 . S
H612 N606 0.984 . S
H613 N606 0.984 . S
H614 N602 0.984 1_554 S
H615 N602 0.985 . S
C616 C617 1.363 1_455 S
C616 C622 1.379 . S
C616 N624 1.356 . S
C617 C616 1.363 1_655 S
C617 C623 1.363 . S
C618 C619 1.363 . S
C618 C623 1.379 . S
C618 N625 1.356 . S
C619 C618 1.363 . S
C619 C622 1.363 1_655 S
N620 C622 1.356 . S
N620 H632 0.984 . S
N620 H633 0.985 . S
N621 C623 1.356 . S
N621 H626 0.984 . S
N621 H627 0.985 1_556 S
C622 C616 1.379 . S
C622 C619 1.363 1_455 S
C622 N620 1.356 . S
C623 C617 1.363 . S
C623 C618 1.379 . S
C623 N621 1.356 . S
N624 C616 1.356 . S
N624 H630 0.984 . S
N624 H631 0.984 . S
N625 C618 1.356 . S
N625 H628 0.984 . S
N625 H629 0.985 1_556 S
H626 N621 0.984 . S
H627 N621 0.985 1_554 S
H628 N625 0.984 . S
H629 N625 0.985 1_554 S
H630 N624 0.984 . S
H631 N624 0.984 . S
H632 N620 0.984 . S
H633 N620 0.985 . S
C634 C635 1.363 . S
C634 C640 1.379 . S
C634 N642 1.356 . S
C635 C634 1.363 . S
C635 C641 1.363 1_565 S
C636 C637 1.370 . S
C636 C641 1.375 1_565 S
C636 N643 1.355 1_565 S
C637 C636 1.370 . S
C637 C640 1.363 . S
N638 C640 1.356 . S
N638 H650 0.984 . S
N638 H651 0.985 . S
N639 C641 1.356 . S
N639 H644 0.984 . S
N639 H645 0.985 . S
C640 C634 1.379 . S
C640 C637 1.363 . S
C640 N638 1.356 . S
C641 C635 1.363 1_545 S
C641 C636 1.375 1_545 S
C641 N639 1.356 . S
N642 C634 1.356 . S
N642 H648 0.984 . S
N642 H649 0.984 . S
N643 C636 1.355 1_545 S
N643 H646 0.977 1_545 S
N643 H647 0.985 . S
H644 N639 0.984 . S
H645 N639 0.985 . S
H646 N643 0.977 1_565 S
H647 N643 0.985 . S
H648 N642 0.984 . S
H649 N642 0.984 . S
H650 N638 0.984 . S
H651 N638 0.985 . S
C652 C653 1.363 . S
C652 C658 1.379 . S
C652 N660 1.356 . S
C653 C652 1.363 . S
C653 C659 1.363 . S
C654 C655 1.363 . S
C654 C659 1.379 . S
C654 N661 1.356 . S
C655 C654 1.363 . S
C655 C658 1.363 . S
N656 C658 1.356 . S
N656 H668 0.984 . S
N656 H669 0.985 . S
N657 C659 1.356 . S
N657 H662 0.984 . S
N657 H663 0.985 . S
C658 C652 1.379 . S
C658 C655 1.363 . S
C658 N656 1.356 . S
C659 C653 1.363 . S
C659 C654 1.379 . S
C659 N657 1.356 . S
N660 C652 1.356 . S
N660 H666 0.984 . S
N660 H667 0.984 . S
N661 C654 1.356 . S
N661 H664 0.984 . S
N661 H665 0.985 . S
H662 N657 0.984 . S
H663 N657 0.985 . S
H664 N661 0.984 . S
H665 N661 0.985 . S
H666 N660 0.984 . S
H667 N660 0.984 . S
H668 N656 0.984 . S
H669 N656 0.985 . S
C670 C671 1.363 . S
C670 C676 1.379 . S
C670 N678 1.356 . S
C671 C670 1.363 . S
C671 C677 1.363 . S
C672 C673 1.363 . S
C672 C677 1.379 . S
C672 N679 1.360 . S
C673 C672 1.363 . S
C673 C676 1.363 . S
N674 C676 1.356 . S
N674 H686 0.984 . S
N674 H687 0.985 . S
N675 C677 1.356 1_554 S
N675 H680 0.984 . S
N675 H681 0.985 . S
C676 C670 1.379 . S
C676 C673 1.363 . S
C676 N674 1.356 . S
C677 C671 1.363 . S
C677 C672 1.379 . S
C677 N675 1.356 1_556 S
N678 C670 1.356 . S
N678 H684 0.984 . S
N678 H685 0.984 . S
N679 C672 1.360 . S
N679 H682 0.986 . S
N679 H683 0.980 1_556 S
H680 N675 0.984 . S
H681 N675 0.985 . S
H682 N679 0.986 . S
H683 N679 0.980 1_554 S
H684 N678 0.984 . S
H685 N678 0.984 . S
H686 N674 0.984 . S
H687 N674 0.985 . S
C257 C76 2.086 1_545 S
C259 C98 2.211 1_545 S
C277 C138 2.069 . S
C275 C88 1.982 . S
C295 C202 2.069 . S
C293 C52 1.877 . S
C313 C218 1.982 1_455 S
C311 C64 1.635 1_455 S
C331 C119 2.208 1_564 S
C329 C28 2.089 . S
C347 C40 1.994 . S
C349 C159 2.072 1_554 S
C365 C4 1.889 . S
C367 C193 2.069 . S
C383 C16 1.642 . S
C385 C239 1.980 1_655 S
C403 C113 0.645 . S
C401 C69 0.637 . S
C421 C153 0.923 . S
C419 C81 0.921 1_565 S
C439 C189 1.054 . S
C437 C93 1.063 . S
C455 C57 0.951 . S
C457 C233 0.884 . S
C473 C21 0.632 1_655 S
C475 C122 0.643 . S
C493 C162 0.923 . S
C491 C33 0.921 . S
C511 C200 1.054 . S
C509 C45 1.053 . S
C527 C9 0.933 . S
C529 C242 0.890 . S
C545 C66 1.898 1_556 S
C547 C120 2.208 . S
C563 C78 2.043 . S
C565 C160 2.283 1_554 S
C583 C178 1.785 . S
C581 C90 1.756 . S
C601 C240 2.649 . S
C599 C54 2.304 . S
C617 C18 1.904 1_655 S
C619 C109 2.213 . S
C637 C149 2.282 . S
C635 C30 2.050 1_565 S
C655 C199 1.785 . S
C653 C42 1.747 . S
C671 C6 2.304 . S
C673 C229 2.653 . S
