# Generated by pormake.
# Topology ctn, (3,4)-cn, num edge types: 1
# Building blocks:
#     Node 0, Type 0, BuildingBlock: QEWDON_clean_linker_0, # of connection points: 3
#     Node 1, Type 0, BuildingBlock: QEWDON_clean_linker_0, # of connection points: 3
#     Node 2, Type 0, BuildingBlock: QEWDON_clean_linker_0, # of connection points: 3
#     Node 3, Type 0, BuildingBlock: QEWDON_clean_linker_0, # of connection points: 3
#     Node 4, Type 0, BuildingBlock: QEWDON_clean_linker_0, # of connection points: 3
#     Node 5, Type 0, BuildingBlock: QEWDON_clean_linker_0, # of connection points: 3
#     Node 6, Type 0, BuildingBlock: QEWDON_clean_linker_0, # of connection points: 3
#     Node 7, Type 0, BuildingBlock: QEWDON_clean_linker_0, # of connection points: 3
#     Node 8, Type 0, BuildingBlock: QEWDON_clean_linker_0, # of connection points: 3
#     Node 9, Type 0, BuildingBlock: QEWDON_clean_linker_0, # of connection points: 3
#     Node 10, Type 0, BuildingBlock: QEWDON_clean_linker_0, # of connection points: 3
#     Node 11, Type 0, BuildingBlock: QEWDON_clean_linker_0, # of connection points: 3
#     Node 12, Type 0, BuildingBlock: QEWDON_clean_linker_0, # of connection points: 3
#     Node 13, Type 0, BuildingBlock: QEWDON_clean_linker_0, # of connection points: 3
#     Node 14, Type 0, BuildingBlock: QEWDON_clean_linker_0, # of connection points: 3
#     Node 15, Type 0, BuildingBlock: QEWDON_clean_linker_0, # of connection points: 3
#     Node 16, Type 1, BuildingBlock: UXUYUI_clean_sbu_0, # of connection points: 4
#     Node 17, Type 1, BuildingBlock: UXUYUI_clean_sbu_0, # of connection points: 4
#     Node 18, Type 1, BuildingBlock: UXUYUI_clean_sbu_0, # of connection points: 4
#     Node 19, Type 1, BuildingBlock: UXUYUI_clean_sbu_0, # of connection points: 4
#     Node 20, Type 1, BuildingBlock: UXUYUI_clean_sbu_0, # of connection points: 4
#     Node 21, Type 1, BuildingBlock: UXUYUI_clean_sbu_0, # of connection points: 4
#     Node 22, Type 1, BuildingBlock: UXUYUI_clean_sbu_0, # of connection points: 4
#     Node 23, Type 1, BuildingBlock: UXUYUI_clean_sbu_0, # of connection points: 4
#     Node 24, Type 1, BuildingBlock: UXUYUI_clean_sbu_0, # of connection points: 4
#     Node 25, Type 1, BuildingBlock: UXUYUI_clean_sbu_0, # of connection points: 4
#     Node 26, Type 1, BuildingBlock: UXUYUI_clean_sbu_0, # of connection points: 4
#     Node 27, Type 1, BuildingBlock: UXUYUI_clean_sbu_0, # of connection points: 4
#     Edge 28, Type (0, 1), BuildingBlock: OJICUG_clean_linker_0, # of connection points: 2
#     Edge 29, Type (0, 1), BuildingBlock: OJICUG_clean_linker_0, # of connection points: 2
#     Edge 30, Type (0, 1), BuildingBlock: OJICUG_clean_linker_0, # of connection points: 2
#     Edge 31, Type (0, 1), BuildingBlock: OJICUG_clean_linker_0, # of connection points: 2
#     Edge 32, Type (0, 1), BuildingBlock: OJICUG_clean_linker_0, # of connection points: 2
#     Edge 33, Type (0, 1), BuildingBlock: OJICUG_clean_linker_0, # of connection points: 2
#     Edge 34, Type (0, 1), BuildingBlock: OJICUG_clean_linker_0, # of connection points: 2
#     Edge 35, Type (0, 1), BuildingBlock: OJICUG_clean_linker_0, # of connection points: 2
#     Edge 36, Type (0, 1), BuildingBlock: OJICUG_clean_linker_0, # of connection points: 2
#     Edge 37, Type (0, 1), BuildingBlock: OJICUG_clean_linker_0, # of connection points: 2
#     Edge 38, Type (0, 1), BuildingBlock: OJICUG_clean_linker_0, # of connection points: 2
#     Edge 39, Type (0, 1), BuildingBlock: OJICUG_clean_linker_0, # of connection points: 2
#     Edge 40, Type (0, 1), BuildingBlock: OJICUG_clean_linker_0, # of connection points: 2
#     Edge 41, Type (0, 1), BuildingBlock: OJICUG_clean_linker_0, # of connection points: 2
#     Edge 42, Type (0, 1), BuildingBlock: OJICUG_clean_linker_0, # of connection points: 2
#     Edge 43, Type (0, 1), BuildingBlock: OJICUG_clean_linker_0, # of connection points: 2
#     Edge 44, Type (0, 1), BuildingBlock: OJICUG_clean_linker_0, # of connection points: 2
#     Edge 45, Type (0, 1), BuildingBlock: OJICUG_clean_linker_0, # of connection points: 2
#     Edge 46, Type (0, 1), BuildingBlock: OJICUG_clean_linker_0, # of connection points: 2
#     Edge 47, Type (0, 1), BuildingBlock: OJICUG_clean_linker_0, # of connection points: 2
#     Edge 48, Type (0, 1), BuildingBlock: OJICUG_clean_linker_0, # of connection points: 2
#     Edge 49, Type (0, 1), BuildingBlock: OJICUG_clean_linker_0, # of connection points: 2
#     Edge 50, Type (0, 1), BuildingBlock: OJICUG_clean_linker_0, # of connection points: 2
#     Edge 51, Type (0, 1), BuildingBlock: OJICUG_clean_linker_0, # of connection points: 2
#     Edge 52, Type (0, 1), BuildingBlock: OJICUG_clean_linker_0, # of connection points: 2
#     Edge 53, Type (0, 1), BuildingBlock: OJICUG_clean_linker_0, # of connection points: 2
#     Edge 54, Type (0, 1), BuildingBlock: OJICUG_clean_linker_0, # of connection points: 2
#     Edge 55, Type (0, 1), BuildingBlock: OJICUG_clean_linker_0, # of connection points: 2
#     Edge 56, Type (0, 1), BuildingBlock: OJICUG_clean_linker_0, # of connection points: 2
#     Edge 57, Type (0, 1), BuildingBlock: OJICUG_clean_linker_0, # of connection points: 2
#     Edge 58, Type (0, 1), BuildingBlock: OJICUG_clean_linker_0, # of connection points: 2
#     Edge 59, Type (0, 1), BuildingBlock: OJICUG_clean_linker_0, # of connection points: 2
#     Edge 60, Type (0, 1), BuildingBlock: OJICUG_clean_linker_0, # of connection points: 2
#     Edge 61, Type (0, 1), BuildingBlock: OJICUG_clean_linker_0, # of connection points: 2
#     Edge 62, Type (0, 1), BuildingBlock: OJICUG_clean_linker_0, # of connection points: 2
#     Edge 63, Type (0, 1), BuildingBlock: OJICUG_clean_linker_0, # of connection points: 2
#     Edge 64, Type (0, 1), BuildingBlock: OJICUG_clean_linker_0, # of connection points: 2
#     Edge 65, Type (0, 1), BuildingBlock: OJICUG_clean_linker_0, # of connection points: 2
#     Edge 66, Type (0, 1), BuildingBlock: OJICUG_clean_linker_0, # of connection points: 2
#     Edge 67, Type (0, 1), BuildingBlock: OJICUG_clean_linker_0, # of connection points: 2
#     Edge 68, Type (0, 1), BuildingBlock: OJICUG_clean_linker_0, # of connection points: 2
#     Edge 69, Type (0, 1), BuildingBlock: OJICUG_clean_linker_0, # of connection points: 2
#     Edge 70, Type (0, 1), BuildingBlock: OJICUG_clean_linker_0, # of connection points: 2
#     Edge 71, Type (0, 1), BuildingBlock: OJICUG_clean_linker_0, # of connection points: 2
#     Edge 72, Type (0, 1), BuildingBlock: OJICUG_clean_linker_0, # of connection points: 2
#     Edge 73, Type (0, 1), BuildingBlock: OJICUG_clean_linker_0, # of connection points: 2
#     Edge 74, Type (0, 1), BuildingBlock: OJICUG_clean_linker_0, # of connection points: 2
#     Edge 75, Type (0, 1), BuildingBlock: OJICUG_clean_linker_0, # of connection points: 2
# Relax obj value: 0.119
# Max RMSD: 0.279
# Mean RMSD: 0.160
data_MOF--net-ctn--node1-UXUYUI_clean_sbu_0--node2-QEWDON_clean_linker_0--edge1-OJICUG_clean_linker_0
_symmetry_space_group_name_H-M    P1
_symmetry_Int_Tables_number       1
_symmetry_cell_setting            triclinic
loop_
_symmetry_equiv_pos_as_xyz
'x, y, z'
_cell_length_a     50.569313
_cell_length_b     52.786287
_cell_length_c     56.200783
_cell_angle_alpha  98.051596
_cell_angle_beta   91.767482
_cell_angle_gamma 95.17597
loop_
_atom_site_label
_atom_site_type_symbol
_atom_site_fract_x
_atom_site_fract_y
_atom_site_fract_z
_atom_type_partial_charge
H0 H 0.11357 0.04724 0.06523 0.0
C1 C 0.10017 0.04452 0.07955 0.0
C2 C 0.09839 0.02124 0.08919 0.0
C3 C 0.08671 0.06518 0.08983 0.0
H4 H 0.08109 1.00086 0.11655 0.0
C5 C 0.0821 0.01857 0.10878 0.0
C6 C 0.06804 0.03898 0.11896 0.0
C7 C 0.07048 0.06215 0.10923 0.0
C8 C 0.09277 0.09111 0.08307 0.0
H9 H 0.06011 0.07821 0.11701 0.0
C10 C 0.08761 0.09637 0.05954 0.0
C11 C 0.09409 0.12129 0.0538 0.0
C12 C 0.1043 0.11088 0.10067 0.0
H13 H 0.10851 0.1072 0.11883 0.0
C14 C 0.11086 0.13544 0.09499 0.0
H15 H 0.07861 0.08124 0.04588 0.0
C16 C 0.10585 0.14065 0.07174 0.0
H17 H 0.11078 0.16001 0.06786 0.0
H18 H 0.1198 0.15053 0.10867 0.0
H19 H 0.34863 0.75928 0.26164 0.0
C20 C 0.33496 0.742 0.25952 0.0
C21 C 0.34205 0.71999 0.26877 0.0
C22 C 0.30984 0.74227 0.24831 0.0
H23 H 0.32856 0.6812 0.27375 0.0
C24 C 0.3236 0.69808 0.26625 0.0
C25 C 0.29827 0.69812 0.25518 0.0
C26 C 0.29167 0.72029 0.246 0.0
C27 C 0.30092 0.76683 0.24306 0.0
H28 H 0.27184 0.72106 0.23839 0.0
C29 C 0.3017 0.77387 0.21981 0.0
C30 C 0.29329 0.79771 0.21555 0.0
C31 C 0.29151 0.78344 0.26192 0.0
H32 H 0.29079 0.77823 0.27988 0.0
C33 C 0.28283 0.80678 0.25775 0.0
H34 H 0.30925 0.76111 0.20533 0.0
C35 C 0.28365 0.81389 0.2348 0.0
H36 H 0.27643 0.83202 0.23208 0.0
H37 H 0.27539 0.81942 0.27237 0.0
H38 H 0.04116 0.49035 0.05508 0.0
C39 C 0.02422 0.50119 0.05309 0.0
C40 C 0.01268 0.51347 0.07356 0.0
C41 C 0.01521 0.50422 0.02992 0.0
H42 H 0.98238 0.53809 0.08592 0.0
C43 C 0.9914 0.52843 0.07037 0.0
C44 C 0.98219 0.5316 0.04716 0.0
C45 C 0.99419 0.51924 0.02711 0.0
C46 C 0.02883 0.49327 1.00848 0.0
H47 H 0.98717 0.52126 1.00911 0.0
C48 C 0.03143 0.46675 1.00363 0.0
C49 C 0.04347 0.45645 0.98259 0.0
C50 C 0.03877 0.50953 0.99242 0.0
H51 H 0.03704 0.53001 0.99588 0.0
C52 C 0.05108 0.49953 0.9718 0.0
H53 H 0.02374 0.4542 0.01602 0.0
C54 C 0.05333 0.4732 0.96682 0.0
H55 H 0.06227 0.46591 0.95029 0.0
H56 H 0.05862 0.51219 0.95948 0.0
H57 H 0.79979 0.8131 0.26667 0.0
C58 C 0.7975 0.80398 0.24811 0.0
C59 C 0.80759 0.81693 0.22963 0.0
C60 C 0.78449 0.77918 0.24301 0.0
H61 H 0.81313 0.81388 0.19147 0.0
C62 C 0.80437 0.80452 0.2057 0.0
C63 C 0.79125 0.77952 0.20024 0.0
C64 C 0.78095 0.76722 0.21913 0.0
C65 C 0.77703 0.76502 0.26301 0.0
H66 H 0.77081 0.74801 0.21544 0.0
C67 C 0.75024 0.75925 0.26794 0.0
C68 C 0.74355 0.74706 0.28804 0.0
C69 C 0.79714 0.75813 0.27789 0.0
H70 H 0.81788 0.76251 0.27435 0.0
C71 C 0.79069 0.74563 0.29748 0.0
H72 H 0.73479 0.76464 0.25637 0.0
C73 C 0.76415 0.74025 0.30264 0.0
H74 H 0.75985 0.73138 0.3185 0.0
H75 H 0.80633 0.74046 0.30894 0.0
H76 H 0.12902 0.98138 0.49786 0.0
C77 C 0.11193 0.98539 0.48738 0.0
C78 C 0.11269 1.00815 0.47693 0.0
C79 C 0.08987 0.96691 0.48326 0.0
H80 H 0.09142 0.02939 0.45378 0.0
C81 C 0.09084 1.01216 0.46226 0.0
C82 C 0.0688 0.99362 0.45746 0.0
C83 C 0.06834 0.97116 0.4684 0.0
C84 C 0.09151 0.94138 0.49096 0.0
H85 H 0.05179 0.95644 0.46457 0.0
C86 C 0.07576 0.93294 0.50916 0.0
C87 C 0.07776 0.90824 0.51555 0.0
C88 C 0.10915 0.9251 0.47946 0.0
H89 H 0.12138 0.93127 0.46544 0.0
C90 C 0.11095 0.90065 0.48568 0.0
H91 H 0.06218 0.94541 0.51824 0.0
C92 C 0.09532 0.89222 0.50355 0.0
H93 H 0.09711 0.87319 0.50821 0.0
H94 H 0.12452 0.88819 0.47662 0.0
H95 H 0.28837 0.70953 0.78189 0.0
C96 C 0.28448 0.71822 0.79992 0.0
C97 C 0.29479 0.70857 0.82004 0.0
C98 C 0.2694 0.73935 0.80266 0.0
H99 H 0.2972 0.71343 0.8589 0.0
C100 C 0.28915 0.72037 0.84322 0.0
C101 C 0.2738 0.74157 0.8463 0.0
C102 C 0.26387 0.75075 0.82576 0.0
C103 C 0.26265 0.75157 0.78143 0.0
H104 H 0.25313 0.76774 0.82766 0.0
C105 C 0.2361 0.75226 0.77336 0.0
C106 C 0.23035 0.76365 0.75272 0.0
C107 C 0.28336 0.76263 0.76908 0.0
H108 H 0.30388 0.76233 0.77509 0.0
C109 C 0.2778 0.77449 0.74913 0.0
H110 H 0.22017 0.74328 0.78267 0.0
C111 C 0.25157 0.77507 0.74101 0.0
H112 H 0.24793 0.78464 0.72556 0.0
H113 H 0.29389 0.78325 0.73988 0.0
H114 H 0.97278 0.60844 0.48579 0.0
C115 C 0.96211 0.59109 0.49026 0.0
C116 C 0.95747 0.58867 0.5144 0.0
C117 C 0.95118 0.57211 0.47172 0.0
H118 H 0.93995 0.56441 0.5385 0.0
C119 C 0.94276 0.56645 0.51982 0.0
C120 C 0.93139 0.54729 0.50144 0.0
C121 C 0.93573 0.55049 0.47736 0.0
C122 C 0.95228 0.57663 0.44643 0.0
H123 H 0.92618 0.5368 0.46278 0.0
C124 C 0.97469 0.57177 0.43286 0.0
C125 C 0.97482 0.57547 0.40844 0.0
C126 C 0.9301 0.58533 0.43565 0.0
H127 H 0.91269 0.58907 0.44586 0.0
C128 C 0.93015 0.58916 0.41163 0.0
H129 H 0.99181 0.56511 0.44129 0.0
C130 C 0.95222 0.58419 0.39808 0.0
H131 H 0.95133 0.58672 0.37929 0.0
H132 H 0.91289 0.59575 0.4034 0.0
H133 H 0.83789 0.83668 0.80262 0.0
C134 C 0.83606 0.82286 0.81516 0.0
C135 C 0.851 0.80136 0.81252 0.0
C136 C 0.8196 0.82744 0.83463 0.0
H137 H 0.86023 0.76784 0.8283 0.0
C138 C 0.8482 0.78389 0.82943 0.0
C139 C 0.8311 0.78783 0.84869 0.0
C140 C 0.8168 0.80961 0.85088 0.0
C141 C 0.80814 0.85243 0.8401 0.0
H142 H 0.80361 0.81307 0.86559 0.0
C143 C 0.79225 0.86217 0.82305 0.0
C144 C 0.7824 0.88636 0.82888 0.0
C145 C 0.8139 0.86703 0.86287 0.0
H146 H 0.82625 0.86008 0.87619 0.0
C147 C 0.80426 0.89091 0.86859 0.0
H148 H 0.78762 0.85107 0.80546 0.0
C149 C 0.78867 0.90056 0.85175 0.0
H150 H 0.78114 0.91906 0.85675 0.0
H151 H 0.80888 0.902 0.88617 0.0
H152 H 0.3413 0.33645 0.29829 0.0
C153 C 0.3394 0.3225 0.3107 0.0
C154 C 0.35433 0.30102 0.30792 0.0
C155 C 0.32294 0.32689 0.33019 0.0
H156 H 0.36395 0.26755 0.32351 0.0
C157 C 0.35176 0.28349 0.32477 0.0
C158 C 0.33479 0.28732 0.34415 0.0
C159 C 0.32025 0.30895 0.34634 0.0
C160 C 0.31169 0.35192 0.336 0.0
H161 H 0.30708 0.31234 0.36106 0.0
C162 C 0.29511 0.36163 0.31947 0.0
C163 C 0.28538 0.38583 0.32569 0.0
C164 C 0.3183 0.36654 0.35862 0.0
H165 H 0.33117 0.35957 0.37154 0.0
C166 C 0.3088 0.39043 0.36472 0.0
H167 H 0.28983 0.3505 0.302 0.0
C168 C 0.29249 0.40005 0.3484 0.0
H169 H 0.28508 0.41855 0.35371 0.0
H170 H 0.31407 0.40153 0.38218 0.0
H171 H 0.54466 0.9883 0.55051 0.0
C172 C 0.5278 0.99917 0.54827 0.0
C173 C 0.51569 1.01113 0.56858 0.0
C174 C 0.51951 1.00264 0.52501 0.0
H175 H 0.48467 0.03515 0.58046 0.0
C176 C 0.49433 0.02589 0.5651 0.0
C177 C 0.48598 0.02954 0.54181 0.0
C178 C 0.49874 0.0179 0.52195 0.0
C179 C 0.53349 0.9917 0.5038 0.0
H180 H 0.49241 0.02065 0.50394 0.0
C181 C 0.53559 0.96511 0.49879 0.0
C182 C 0.54784 0.95474 0.4779 0.0
C183 C 0.54416 1.00797 0.48806 0.0
H184 H 0.5428 0.02852 0.49164 0.0
C185 C 0.55672 0.99791 0.46761 0.0
H186 H 0.52732 0.95255 0.51094 0.0
C187 C 0.55847 0.9715 0.46246 0.0
H188 H 0.56761 0.96418 0.44604 0.0
H189 H 0.56484 1.01058 0.45553 0.0
H190 H 0.29179 0.31479 0.76362 0.0
C191 C 0.29187 0.30561 0.74512 0.0
C192 C 0.30215 0.31945 0.72726 0.0
C193 C 0.28246 0.27964 0.73951 0.0
H194 H 0.31067 0.31707 0.68959 0.0
C195 C 0.30201 0.30693 0.70338 0.0
C196 C 0.29233 0.28085 0.69747 0.0
C197 C 0.28256 0.2674 0.71578 0.0
C198 C 0.27552 0.26459 0.75899 0.0
H199 H 0.2753 0.24724 0.71171 0.0
C200 C 0.25026 0.26452 0.76872 0.0
C201 C 0.24459 0.25116 0.78822 0.0
C202 C 0.29488 0.25094 0.76851 0.0
H203 H 0.31445 0.25087 0.76117 0.0
C204 C 0.28926 0.23762 0.78779 0.0
H205 H 0.23529 0.27514 0.76145 0.0
C206 C 0.26432 0.23784 0.79773 0.0
H207 H 0.26031 0.22742 0.81273 0.0
H208 H 0.30432 0.22723 0.79515 0.0
H209 H 0.85631 0.25568 0.7639 0.0
C210 C 0.84177 0.23902 0.76093 0.0
C211 C 0.8466 0.21682 0.77085 0.0
C212 C 0.81767 0.24041 0.74826 0.0
H213 H 0.8308 0.17866 0.77542 0.0
C214 C 0.82707 0.19585 0.76784 0.0
C215 C 0.80271 0.19694 0.75541 0.0
C216 C 0.79836 0.2192 0.74525 0.0
C217 C 0.8113 0.26526 0.7413 0.0
H218 H 0.77935 0.22072 0.73637 0.0
C219 C 0.80537 0.26798 0.71718 0.0
C220 C 0.7988 0.29181 0.71126 0.0
C221 C 0.81076 0.2865 0.75933 0.0
H222 H 0.81518 0.28477 0.77799 0.0
C223 C 0.80407 0.31 0.75353 0.0
H224 H 0.80586 0.25171 0.70315 0.0
C225 C 0.79806 0.31267 0.72969 0.0
H226 H 0.79324 0.33121 0.72557 0.0
H227 H 0.80358 0.32622 0.76756 0.0
H228 H 0.61414 0.54306 0.56204 0.0
C229 C 0.59957 0.54063 0.57548 0.0
C230 C 0.59549 0.51707 0.58456 0.0
C231 C 0.5866 0.56188 0.58507 0.0
H232 H 0.5744 0.49718 0.61046 0.0
C233 C 0.57755 0.51507 0.60314 0.0
C234 C 0.56448 0.53635 0.61302 0.0
C235 C 0.56906 0.55959 0.60362 0.0
C236 C 0.59435 0.58755 0.57844 0.0
H237 H 0.55935 0.57625 0.61101 0.0
C238 C 0.58786 0.59373 0.55551 0.0
C239 C 0.59566 0.61845 0.54984 0.0
C240 C 0.60854 0.60612 0.59557 0.0
H241 H 0.61367 0.60167 0.61329 0.0
C242 C 0.61643 0.63047 0.58996 0.0
H243 H 0.57681 0.57946 0.54227 0.0
C244 C 0.61009 0.63663 0.56729 0.0
H245 H 0.61606 0.65585 0.56354 0.0
H246 H 0.6274 0.64467 0.60327 0.0
H247 H 0.61847 0.47859 0.99337 0.0
C248 C 0.60217 0.4835 0.98245 0.0
C249 C 0.60411 0.50707 0.97322 0.0
C250 C 0.58035 0.46516 0.97576 0.0
H251 H 0.58491 0.5302 0.95038 0.0
C252 C 0.58341 0.51229 0.95782 0.0
C253 C 0.56161 0.49404 0.95072 0.0
C254 C 0.56017 0.47062 0.96005 0.0
C255 C 0.58126 0.43839 0.98058 0.0
H256 H 0.54384 0.45606 0.95434 0.0
C257 C 0.57597 0.43091 1.00326 0.0
C258 C 0.57648 0.40487 1.00665 0.0
C259 C 0.58702 0.41988 0.96149 0.0
H260 H 0.59105 0.42529 0.94395 0.0
C261 C 0.58754 0.39429 0.96473 0.0
H262 H 0.57148 0.44516 0.01803 0.0
C263 C 0.58224 0.38679 0.98702 0.0
H264 H 0.58219 0.36661 0.98875 0.0
H265 H 0.59185 0.38014 0.94984 0.0
H266 H 0.78995 0.2 0.2811 0.0
C267 C 0.78653 0.21056 0.29852 0.0
C268 C 0.79771 0.20352 0.31961 0.0
C269 C 0.77129 0.23154 0.2994 0.0
H270 H 0.80188 0.21323 0.35832 0.0
C271 C 0.79263 0.21768 0.34196 0.0
C272 C 0.77704 0.23868 0.34317 0.0
C273 C 0.76616 0.24517 0.3217 0.0
C274 C 0.76411 0.24125 0.27682 0.0
H275 H 0.75457 0.26153 0.32223 0.0
C276 C 0.73748 0.24329 0.26975 0.0
C277 C 0.73142 0.25226 0.24786 0.0
C278 C 0.78458 0.24869 0.2622 0.0
H279 H 0.80518 0.24742 0.26742 0.0
C280 C 0.77877 0.2582 0.24097 0.0
H281 H 0.72166 0.23717 0.28085 0.0
C282 C 0.75247 0.26004 0.23384 0.0
H283 H 0.74865 0.26772 0.21732 0.0
H284 H 0.79472 0.26417 0.22996 0.0
H285 H 0.47239 0.11217 0.98114 0.0
C286 C 0.46146 0.09476 0.98516 0.0
C287 C 0.45663 0.09165 1.00918 0.0
C288 C 0.45059 0.07632 0.96614 0.0
H289 H 0.43747 0.06672 0.03226 0.0
C290 C 0.44145 0.06933 0.01387 0.0
C291 C 0.43029 0.05089 0.99492 0.0
C292 C 0.4349 0.05457 0.97109 0.0
C293 C 0.45231 0.08144 0.94107 0.0
H294 H 0.42582 0.04076 0.95634 0.0
C295 C 0.47445 0.07558 0.92747 0.0
C296 C 0.47524 0.07997 0.90327 0.0
C297 C 0.43103 0.09177 0.93052 0.0
H298 H 0.41382 0.09627 0.94076 0.0
C299 C 0.43171 0.09623 0.90669 0.0
H300 H 0.4909 0.06768 0.93574 0.0
C301 C 0.45353 0.09033 0.89312 0.0
H302 H 0.45314 0.09345 0.87448 0.0
H303 H 0.41513 0.10408 0.89863 0.0
Li304 Li 0.292 0.90119 0.02817 0.0
Li305 Li 0.27375 0.87119 0.05291 0.0
Li306 Li 0.26497 0.86275 1.00912 0.0
Li307 Li 0.24456 0.89936 0.03633 0.0
C308 C 0.32212 0.85701 0.01809 0.0
N309 N 0.36876 0.84135 0.99915 0.0
C310 C 0.34224 0.85063 0.03316 0.0
C311 C 0.32568 0.85527 0.99337 0.0
C312 C 0.3657 0.84283 0.02325 0.0
C313 C 0.3494 0.84733 0.98414 0.0
C314 C 0.29402 0.91819 0.07755 0.0
C315 C 0.30688 0.9438 0.11586 0.0
N316 N 0.33161 0.93567 0.11435 0.0
C317 C 0.31955 0.91003 0.07646 0.0
C318 C 0.2876 0.93517 0.09747 0.0
C319 C 0.33828 0.91911 0.09519 0.0
C320 C 0.31405 0.95133 0.02759 0.0
N321 N 0.32065 0.92672 0.02379 0.0
C322 C 0.36438 0.94129 0.0132 0.0
C323 C 0.34547 0.92145 0.01715 0.0
C324 C 0.35754 0.96667 0.01584 0.0
C325 C 0.33209 0.97163 0.02333 0.0
H326 H 0.29449 0.95514 0.03355 0.0
H327 H 0.35074 0.90198 0.01473 0.0
C328 C 0.29115 0.83316 0.08041 0.0
N329 N 0.27906 0.85526 0.0811 0.0
C330 C 0.29488 0.82226 0.10147 0.0
C331 C 0.27356 0.85698 0.12335 0.0
C332 C 0.27 0.867 0.10193 0.0
C333 C 0.28632 0.83443 0.12337 0.0
H334 H 0.29787 0.82403 0.06353 0.0
H335 H 0.25988 0.88418 0.10189 0.0
C336 C 0.26767 0.91794 0.99063 0.0
N337 N 0.28185 0.95636 0.96344 0.0
C338 C 0.25657 0.94139 0.99477 0.0
C339 C 0.28563 0.91387 0.97239 0.0
C340 C 0.26408 0.96061 0.98089 0.0
C341 C 0.29266 0.93358 0.95892 0.0
C342 C 0.22719 0.8451 0.04967 0.0
C343 C 0.23185 0.81917 0.04646 0.0
C344 C 0.21186 0.85472 0.06852 0.0
C345 C 0.22124 0.80328 0.0624 0.0
C346 C 0.20159 0.83819 0.08406 0.0
N347 N 0.20648 0.81305 0.08071 0.0
C348 C 0.27034 0.81439 0.98176 0.0
C349 C 0.25013 0.84361 0.96025 0.0
C350 C 0.27088 0.79681 0.96075 0.0
N351 N 0.26048 0.83742 0.98105 0.0
C352 C 0.25004 0.8265 0.93884 0.0
C353 C 0.26099 0.80293 0.93881 0.0
H354 H 0.27874 0.81009 0.99851 0.0
H355 H 0.24277 0.86221 0.96013 0.0
C356 C 0.22089 0.94153 0.05833 0.0
N357 N 0.21521 0.91943 0.04278 0.0
C358 C 0.20086 0.95705 0.06558 0.0
C359 C 0.16943 0.92752 0.03975 0.0
C360 C 0.19012 0.91224 0.03329 0.0
C361 C 0.1747 0.95005 0.05641 0.0
H362 H 0.24106 0.94708 0.06519 0.0
H363 H 0.18613 0.89455 0.02093 0.0
O364 O 0.29894 0.86441 0.02756 0.0
O365 O 0.27518 0.90928 0.05954 0.0
O366 O 0.26094 0.8991 1.00438 0.0
O367 O 0.23812 0.86114 0.03478 0.0
H368 H 0.33979 0.85176 0.05233 0.0
H369 H 0.31038 0.86004 0.98141 0.0
H370 H 0.38146 0.83791 0.03472 0.0
H371 H 0.35241 0.84594 0.96505 0.0
H372 H 0.30214 0.9569 0.13138 0.0
H373 H 0.32492 0.89684 0.06135 0.0
H374 H 0.26786 0.94143 0.09889 0.0
H375 H 0.35811 0.91295 0.09451 0.0
H376 H 0.3839 0.93677 1.00751 0.0
H377 H 0.32624 0.99104 0.02591 0.0
H378 H 0.30477 0.80482 0.10074 0.0
H379 H 0.26617 0.86668 0.13973 0.0
H380 H 0.24255 0.94483 1.00874 0.0
H381 H 0.29419 0.89578 0.96874 0.0
H382 H 0.25582 0.97892 0.98404 0.0
H383 H 0.30671 0.93078 0.94489 0.0
H384 H 0.24379 0.81151 0.03201 0.0
H385 H 0.20823 0.8748 0.07129 0.0
H386 H 0.22482 0.78321 0.06025 0.0
H387 H 0.18983 0.84539 0.09883 0.0
H388 H 0.27931 0.7788 0.96159 0.0
H389 H 0.24252 0.83215 0.92231 0.0
H390 H 0.2058 0.97449 0.07814 0.0
H391 H 0.14948 0.92152 0.03229 0.0
Li392 Li 0.1166 0.52512 0.28208 0.0
Li393 Li 0.14766 0.49574 0.26292 0.0
Li394 Li 0.15404 0.54332 0.2596 0.0
Li395 Li 0.11777 0.51506 0.23782 0.0
C396 C 0.16538 0.52645 0.31157 0.0
N397 N 0.18621 0.52726 0.35774 0.0
C398 C 0.1618 0.50459 0.32298 0.0
C399 C 0.17952 0.54875 0.32367 0.0
C400 C 0.1725 0.50536 0.34631 0.0
C401 C 0.18989 0.54878 0.34701 0.0
C402 C 0.10057 0.46715 0.26593 0.0
C403 C 0.09449 0.42138 0.25321 0.0
N404 N 0.08594 0.41798 0.27536 0.0
C405 C 0.09166 0.46324 0.28855 0.0
C406 C 0.10191 0.4461 0.24807 0.0
C407 C 0.08437 0.43821 0.29297 0.0
C408 C 0.06961 0.54126 0.30098 0.0
N409 N 0.09318 0.53342 0.3079 0.0
C410 C 0.08123 0.53919 0.34913 0.0
C411 C 0.09921 0.53221 0.33147 0.0
C412 C 0.05697 0.54782 0.34249 0.0
C413 C 0.05125 0.54873 0.31802 0.0
H414 H 0.06516 0.54189 0.28214 0.0
H415 H 0.11792 0.52597 0.33675 0.0
C416 C 0.19363 0.4707 0.25744 0.0
N417 N 0.16913 0.46793 0.26661 0.0
C418 C 0.21293 0.45452 0.26222 0.0
C419 C 0.18118 0.43199 0.2849 0.0
C420 C 0.16246 0.44862 0.27966 0.0
C421 C 0.2071 0.43531 0.27676 0.0
H422 H 0.1986 0.48628 0.24727 0.0
H423 H 0.14319 0.44691 0.28728 0.0
C424 C 0.11214 0.57365 0.26754 0.0
N425 N 0.10434 0.62294 0.28807 0.0
C426 C 0.09597 0.58841 0.25563 0.0
C427 C 0.12434 0.58392 0.28989 0.0
C428 C 0.09228 0.61331 0.26631 0.0
C429 C 0.12014 0.60888 0.29998 0.0
C430 C 0.15795 0.50716 0.21049 0.0
C431 C 0.16393 0.52651 0.19636 0.0
C432 C 0.1526 0.48167 0.19959 0.0
C433 C 0.16413 0.52004 0.1714 0.0
C434 C 0.15299 0.47599 0.17457 0.0
N435 N 0.15867 0.49513 0.16112 0.0
C436 C 0.20452 0.57065 0.26812 0.0
C437 C 0.1738 0.59148 0.24682 0.0
C438 C 0.2242 0.59082 0.26738 0.0
N439 N 0.17985 0.57149 0.25816 0.0
C440 C 0.19289 0.61208 0.24564 0.0
C441 C 0.21848 0.612 0.25613 0.0
H442 H 0.2089 0.55423 0.27658 0.0
H443 H 0.15415 0.59143 0.23865 0.0
C444 C 0.08048 0.49052 0.19967 0.0
N445 N 0.09676 0.51191 0.20849 0.0
C446 C 0.06527 0.48977 0.17828 0.0
C447 C 0.08395 0.53298 0.17557 0.0
C448 C 0.09862 0.53294 0.19699 0.0
C449 C 0.06682 0.51125 0.16592 0.0
H450 H 0.07913 0.47415 0.20931 0.0
H451 H 0.11169 0.54972 0.20447 0.0
O452 O 0.15549 0.52597 0.28856 0.0
O453 O 0.10749 0.49151 0.26119 0.0
O454 O 0.11598 0.54928 0.25723 0.0
O455 O 0.15695 0.51318 0.23487 0.0
H456 H 0.15032 0.48744 0.31415 0.0
H457 H 0.18245 0.5659 0.31517 0.0
H458 H 0.16976 0.4886 0.35538 0.0
H459 H 0.20087 0.56592 0.35658 0.0
H460 H 0.09553 0.40489 0.23959 0.0
H461 H 0.09045 0.47933 0.30256 0.0
H462 H 0.10877 0.44881 0.23047 0.0
H463 H 0.0775 0.43488 0.3104 0.0
H464 H 0.08646 0.5383 0.3678 0.0
H465 H 0.03262 0.55492 0.31207 0.0
H466 H 0.23254 0.45764 0.25532 0.0
H467 H 0.17585 0.41774 0.29647 0.0
H468 H 0.0864 0.58071 0.23831 0.0
H469 H 0.13686 0.57275 0.29936 0.0
H470 H 0.07984 0.62498 0.25728 0.0
H471 H 0.12944 0.61706 0.31727 0.0
H472 H 0.16808 0.54634 0.20458 0.0
H473 H 0.14805 0.4665 0.21035 0.0
H474 H 0.16855 0.53483 0.1602 0.0
H475 H 0.14875 0.45637 0.16586 0.0
H476 H 0.24377 0.58969 0.27531 0.0
H477 H 0.18754 0.62805 0.23693 0.0
H478 H 0.05215 0.47269 0.17172 0.0
H479 H 0.08628 0.54982 0.16654 0.0
Li480 Li 0.77707 0.63643 1.00051 0.0
Li481 Li 0.79681 0.67334 0.02906 0.0
Li482 Li 0.80553 0.66892 0.98405 0.0
Li483 Li 0.82609 0.64133 1.01035 0.0
C484 C 0.74504 0.67186 0.99583 0.0
N485 N 0.69093 0.66652 0.98545 0.0
C486 C 0.72741 0.67616 0.01431 0.0
C487 C 0.73522 0.66513 0.97206 0.0
C488 C 0.7001 0.6733 1.00869 0.0
C489 C 0.70777 0.66244 0.96719 0.0
C490 C 0.802 0.63112 0.05441 0.0
C491 C 0.83145 0.63685 0.08971 0.0
N492 N 0.81414 0.62102 0.10021 0.0
C493 C 0.78456 0.61481 0.06548 0.0
C494 C 0.82566 0.64215 0.06656 0.0
C495 C 0.79103 0.60998 0.08867 0.0
C496 C 0.74203 0.59553 0.97463 0.0
N497 N 0.74604 0.61223 0.99541 0.0
C498 C 0.70546 0.59489 1.01035 0.0
C499 C 0.72846 0.61204 0.01324 0.0
C500 C 0.70054 0.57756 0.98895 0.0
C501 C 0.71934 0.57799 0.97101 0.0
H502 H 0.75648 0.59573 0.9609 0.0
H503 H 0.73223 0.62541 0.02968 0.0
C504 C 0.80402 0.71981 0.06243 0.0
N505 N 0.79147 0.69562 0.05801 0.0
C506 C 0.80246 0.73478 0.08488 0.0
C507 C 0.77411 0.7001 0.0973 0.0
C508 C 0.77605 0.68593 0.07462 0.0
C509 C 0.78788 0.72466 0.10285 0.0
H510 H 0.81593 0.72717 0.04881 0.0
H511 H 0.76574 0.6669 0.07046 0.0
C512 C 0.81448 0.62417 0.95569 0.0
N513 N 0.83032 0.61126 0.90931 0.0
C514 C 0.8402 0.61731 0.95168 0.0
C515 C 0.79675 0.62431 0.93613 0.0
C516 C 0.84783 0.61087 0.92808 0.0
C517 C 0.80517 0.61778 0.91281 0.0
C518 C 0.85565 0.69185 0.01713 0.0
C519 C 0.87166 0.69641 0.99805 0.0
C520 C 0.86528 0.70028 0.04077 0.0
C521 C 0.89713 0.70906 1.00292 0.0
C522 C 0.89086 0.71286 0.04491 0.0
N523 N 0.90613 0.71695 0.02606 0.0
C524 C 0.79538 0.70828 0.95667 0.0
C525 C 0.82918 0.68354 0.94073 0.0
C526 C 0.79849 0.72409 0.93874 0.0
N527 N 0.81069 0.68848 0.95747 0.0
C528 C 0.83276 0.6987 0.92232 0.0
C529 C 0.81748 0.71948 0.92128 0.0
H530 H 0.78091 0.71201 0.97018 0.0
H531 H 0.84166 0.66818 0.94188 0.0
C532 C 0.84996 0.59866 0.02291 0.0
N533 N 0.85579 0.62265 0.01711 0.0
C534 C 0.87029 0.58403 0.02882 0.0
C535 C 0.90234 0.61895 0.02254 0.0
C536 C 0.88142 0.63285 0.0167 0.0
C537 C 0.89696 0.59414 0.02869 0.0
H538 H 0.82943 0.59088 0.02298 0.0
H539 H 0.88582 0.65173 1.01184 0.0
O540 O 0.77179 0.6739 1.00101 0.0
O541 O 0.79581 0.63623 0.03181 0.0
O542 O 0.80664 0.63042 0.97866 0.0
O543 O 0.83057 0.67963 0.01264 0.0
H544 H 0.73475 0.68137 0.0328 0.0
H545 H 0.74865 0.66185 0.95757 0.0
H546 H 0.6862 0.67639 0.02282 0.0
H547 H 0.69986 0.65707 0.94889 0.0
H548 H 0.84971 0.64528 0.09932 0.0
H549 H 0.76618 0.60604 0.05628 0.0
H550 H 0.83948 0.65453 0.05813 0.0
H551 H 0.77768 0.59746 0.09749 0.0
H552 H 0.69148 0.59552 0.02458 0.0
H553 H 0.71673 0.56472 0.9544 0.0
H554 H 0.81341 0.75361 0.08844 0.0
H555 H 0.76223 0.69178 0.11048 0.0
H556 H 0.85414 0.61705 0.96661 0.0
H557 H 0.7768 0.62961 0.93892 0.0
H558 H 0.8677 0.60559 0.9247 0.0
H559 H 0.79171 0.61794 0.8975 0.0
H560 H 0.86467 0.68997 0.97968 0.0
H561 H 0.85318 0.69725 0.05582 0.0
H562 H 0.90975 0.71257 0.98831 0.0
H563 H 0.89855 0.71943 0.06312 0.0
H564 H 0.78611 0.73977 0.93853 0.0
H565 H 0.84788 0.69464 0.90946 0.0
H566 H 0.86514 0.56486 0.03305 0.0
H567 H 0.92253 0.6277 0.0224 0.0
Li568 Li 0.91351 0.04648 0.29351 0.0
Li569 Li 0.94469 0.02014 0.31119 0.0
Li570 Li 0.94697 0.02642 0.26689 0.0
Li571 Li 0.91126 0.99835 0.28119 0.0
C572 C 0.96173 0.07767 0.30337 0.0
N573 N 0.97917 0.12895 0.31709 0.0
C574 C 0.96462 0.08787 0.32773 0.0
C575 C 0.96827 0.09345 0.286 0.0
C576 C 0.97329 0.11387 0.33431 0.0
C577 C 0.97691 0.11935 0.29329 0.0
C578 C 0.89965 0.01461 0.33616 0.0
C579 C 0.90028 0.98896 0.36848 0.0
N580 N 0.88928 1.00767 0.38297 0.0
C581 C 0.88811 0.03346 0.35132 0.0
C582 C 0.90555 0.99207 0.34476 0.0
C583 C 0.8831 0.02964 0.37493 0.0
C584 C 0.87398 0.07934 0.28337 0.0
N585 N 0.89294 0.07582 0.3 0.0
C586 C 0.88191 0.11323 0.32585 0.0
C587 C 0.8969 0.09216 0.3211 0.0
C588 C 0.86294 0.11771 0.30856 0.0
C589 C 0.85903 0.10043 0.28713 0.0
H590 H 0.87023 0.0657 0.26718 0.0
H591 H 0.91142 0.08867 0.33445 0.0
C592 C 0.98552 1.00054 0.33645 0.0
N593 N 0.96579 0.01641 0.33945 0.0
C594 C 1.00107 0.99618 0.3562 0.0
C595 C 0.97611 0.02496 0.38189 0.0
C596 C 0.96105 0.02878 0.36161 0.0
C597 C 0.99641 1.00836 0.37939 0.0
H598 H 0.98923 0.99121 0.31865 0.0
H599 H 0.94538 0.04144 0.36364 0.0
C600 C 0.90244 0.03545 0.23987 0.0
N601 N 0.89201 0.05494 0.19777 0.0
C602 C 0.88653 0.02064 0.2213 0.0
C603 C 0.91281 0.06026 0.2371 0.0
C604 C 0.88155 0.0308 0.20013 0.0
C605 C 0.90737 0.06975 0.21568 0.0
C606 C 0.95133 0.96921 0.27501 0.0
C607 C 0.95513 0.96008 0.25092 0.0
C608 C 0.94832 0.95185 0.29159 0.0
C609 C 0.95531 0.93367 0.24371 0.0
C610 C 0.94858 0.92558 0.28368 0.0
N611 N 0.952 0.9171 0.26009 0.0
C612 C 0.99447 0.04172 0.2442 0.0
C613 C 0.96047 0.01847 0.21788 0.0
C614 C 1.0113 0.04326 0.22502 0.0
N615 N 0.96953 0.02956 0.24031 0.0
C616 C 0.97656 0.01958 0.19822 0.0
C617 C 1.00243 0.03205 0.20159 0.0
H618 H 1.0014 0.05002 0.26226 0.0
H619 H 0.94082 1.00837 0.21525 0.0
C620 C 0.87537 0.9551 0.28726 0.0
N621 N 0.88918 0.9671 0.271 0.0
C622 C 0.86148 0.93098 0.28027 0.0
C623 C 0.87526 0.93247 0.23965 0.0
C624 C 0.8891 0.95647 0.2475 0.0
C625 C 0.86158 0.91924 0.25624 0.0
H626 H 0.87548 0.96401 0.30575 0.0
H627 H 0.90049 0.96629 0.23498 0.0
O628 O 0.9534 0.0522 0.29662 0.0
O629 O 0.9049 0.01817 0.31303 0.0
O630 O 0.90793 0.02566 0.26058 0.0
O631 O 0.95038 0.99498 0.28229 0.0
H632 H 0.95994 0.07591 0.34142 0.0
H633 H 0.96697 0.08579 0.26709 0.0
H634 H 0.97535 0.12205 0.3531 0.0
H635 H 0.98192 0.13179 0.28002 0.0
H636 H 0.90496 0.97169 0.37538 0.0
H637 H 0.8829 0.05079 0.34491 0.0
H638 H 0.91434 0.97723 0.33331 0.0
H639 H 0.87426 0.04412 0.38685 0.0
H640 H 0.88539 0.1261 0.34266 0.0
H641 H 0.84426 0.10304 0.27353 0.0
H642 H 0.01684 0.98367 0.35325 0.0
H643 H 0.97164 0.03465 0.39938 0.0
H644 H 0.87807 1.00151 0.22321 0.0
H645 H 0.9247 0.0721 0.25145 0.0
H646 H 0.86934 0.01952 0.18559 0.0
H647 H 0.91531 0.08892 0.21331 0.0
H648 H 0.95761 0.97317 0.23785 0.0
H649 H 0.94581 0.95854 0.31036 0.0
H650 H 0.958 0.92634 0.22507 0.0
H651 H 0.9461 0.91193 0.2963 0.0
H652 H 0.03119 0.05275 0.2286 0.0
H653 H 0.96868 1.01089 0.18053 0.0
H654 H 0.85087 0.92155 0.29354 0.0
H655 H 0.87602 0.92398 0.22102 0.0
Li656 Li 0.30529 0.17535 0.52689 0.0
Li657 Li 0.28527 0.13803 0.49836 0.0
Li658 Li 0.33237 0.14281 0.50717 0.0
Li659 Li 0.31298 0.17074 0.48158 0.0
C660 C 0.30985 0.1205 0.54341 0.0
N661 N 0.3239 0.08361 0.57054 0.0
C662 C 0.29954 0.09487 0.5371 0.0
C663 C 0.32703 0.12741 0.5637 0.0
C664 C 0.30695 0.0765 0.55101 0.0
C665 C 0.33399 0.10847 0.57712 0.0
C666 C 0.25295 0.17362 0.49445 0.0
C667 C 0.21497 0.16338 0.46667 0.0
N668 N 0.19863 0.16788 0.48527 0.0
C669 C 0.23583 0.17828 0.51328 0.0
C670 C 0.24252 0.16625 0.47093 0.0
C671 C 0.2084 0.17524 0.50826 0.0
C672 C 0.30873 0.2228 0.55928 0.0
N673 N 0.30006 0.19735 0.55583 0.0
C674 C 0.2863 0.19982 0.59628 0.0
C675 C 0.2886 0.18585 0.5736 0.0
C676 C 0.29589 0.22594 0.60076 0.0
C677 C 0.30679 0.23758 0.58177 0.0
H678 H 0.31789 0.2314 0.54482 0.0
H679 H 0.28174 0.16561 0.57028 0.0
C680 C 0.2484 0.09881 0.47233 0.0
N681 N 0.25381 0.11455 0.49353 0.0
C682 C 0.22554 0.08145 0.46926 0.0
C683 C 0.21418 0.09702 0.5098 0.0
C684 C 0.23733 0.11391 0.51213 0.0
C685 C 0.208 0.08034 0.48816 0.0
H686 H 0.26192 0.09965 0.45786 0.0
H687 H 0.24219 0.12661 0.52883 0.0
C688 C 0.36164 0.19316 0.52125 0.0
N689 N 0.40787 0.21779 0.54445 0.0
C690 C 0.38148 0.20431 0.50813 0.0
C691 C 0.36538 0.19453 0.54616 0.0
C692 C 0.4047 0.21666 0.52019 0.0
C693 C 0.38886 0.20708 0.55756 0.0
C694 C 0.33163 0.12711 0.45778 0.0
C695 C 0.35618 0.14181 0.45899 0.0
C696 C 0.32574 0.10687 0.43899 0.0
C697 C 0.37443 0.13603 0.44135 0.0
C698 C 0.34451 0.10169 0.42168 0.0
N699 N 0.36827 0.11626 0.4232 0.0
C700 C 0.35712 0.09718 0.50925 0.0
C701 C 0.38692 0.13456 0.51978 0.0
C702 C 0.37683 0.08159 0.51453 0.0
N703 N 0.36219 0.12323 0.51252 0.0
C704 C 0.40732 0.11972 0.52485 0.0
C705 C 0.40231 0.0929 0.52256 0.0
H706 H 0.33761 0.08847 0.50271 0.0
H707 H 0.39109 0.15506 0.52175 0.0
C708 C 0.33116 0.21402 0.46042 0.0
N709 N 0.3181 0.19014 0.45532 0.0
C710 C 0.33543 0.22934 0.44229 0.0
C711 C 0.3122 0.19549 0.41389 0.0
C712 C 0.30874 0.18061 0.43257 0.0
C713 C 0.3256 0.22038 0.41859 0.0
H714 H 0.33813 0.22129 0.47868 0.0
H715 H 0.29828 0.16158 0.42899 0.0
O716 O 0.30304 0.13873 0.52986 0.0
O717 O 0.2798 0.17577 0.49907 0.0
O718 O 0.33871 0.18109 0.50973 0.0
O719 O 0.31335 0.13235 0.47479 0.0
H720 H 0.28629 0.08913 0.52142 0.0
H721 H 0.33498 0.14716 0.56901 0.0
H722 H 0.29929 0.05657 0.54622 0.0
H723 H 0.34739 0.11353 0.59278 0.0
H724 H 0.20658 0.1575 0.44859 0.0
H725 H 0.24366 0.18392 0.53159 0.0
H726 H 0.25556 0.16246 0.4562 0.0
H727 H 0.19488 0.17863 0.52266 0.0
H728 H 0.27733 0.19019 0.61025 0.0
H729 H 0.31457 0.25761 0.5845 0.0
H730 H 0.22191 0.06877 0.45237 0.0
H731 H 0.20116 0.09724 0.52474 0.0
H732 H 0.37911 0.20326 0.48881 0.0
H733 H 0.35043 0.18589 0.5566 0.0
H734 H 0.42022 0.22531 0.51025 0.0
H735 H 0.39198 0.20826 0.57683 0.0
H736 H 0.36116 0.15748 0.47337 0.0
H737 H 0.30683 0.09528 0.43779 0.0
H738 H 0.3935 0.14726 0.44209 0.0
H739 H 0.3402 0.08609 0.40703 0.0
H740 H 0.37232 0.06092 0.51206 0.0
H741 H 0.42676 0.12918 0.53088 0.0
H742 H 0.34636 0.24807 0.44693 0.0
H743 H 0.30388 0.18774 0.39611 0.0
Li744 Li 0.4392 0.52394 0.80441 0.0
Li745 Li 0.40817 0.55025 0.78666 0.0
Li746 Li 0.40458 0.50188 0.7753 0.0
Li747 Li 0.44041 0.52896 0.7598 0.0
C748 C 0.39401 0.51771 0.82972 0.0
N749 N 0.38318 0.50791 0.87567 0.0
C750 C 0.38133 0.53527 0.84533 0.0
C751 C 0.40081 0.495 0.83741 0.0
C752 C 0.37611 0.53001 0.8685 0.0
C753 C 0.39528 0.49043 0.86071 0.0
C754 C 0.45547 0.58098 0.79579 0.0
C755 C 0.46901 0.62309 0.78586 0.0
N756 N 0.47056 0.63271 0.80967 0.0
C757 C 0.45757 0.5912 0.82015 0.0
C758 C 0.46155 0.59697 0.77849 0.0
C759 C 0.46507 0.61743 0.82681 0.0
C760 C 0.48134 0.50566 0.82886 0.0
N761 N 0.46088 0.5206 0.83235 0.0
C762 C 0.47124 0.52827 0.87479 0.0
C763 C 0.45585 0.53218 0.85473 0.0
C764 C 0.49214 0.51241 0.8718 0.0
C765 C 0.49722 0.50125 0.84837 0.0
H766 H 0.48525 0.497 0.81088 0.0
H767 H 0.43965 0.54419 0.85712 0.0
C768 C 0.37184 0.58626 0.77608 0.0
N769 N 0.38851 0.58013 0.79343 0.0
C770 C 0.35728 0.60757 0.78065 0.0
C771 C 0.37616 0.61541 0.82127 0.0
C772 C 0.39082 0.59423 0.81576 0.0
C773 C 0.35928 0.6224 0.8035 0.0
H774 H 0.36947 0.57447 0.75874 0.0
H775 H 0.40376 0.58883 0.82946 0.0
C776 C 0.44502 0.47213 0.769 0.0
N777 N 0.44722 0.42003 0.75509 0.0
C778 C 0.44728 0.46242 0.74478 0.0
C779 C 0.44436 0.45536 0.78619 0.0
C780 C 0.44824 0.43602 0.73809 0.0
C781 C 0.44537 0.42908 0.77879 0.0
C782 C 0.39579 0.53666 0.73256 0.0
C783 C 0.37871 0.52107 0.71537 0.0
C784 C 0.40744 0.56018 0.72738 0.0
C785 C 0.37381 0.52918 0.69316 0.0
C786 C 0.40205 0.56761 0.70497 0.0
N787 N 0.3855 0.55207 0.68845 0.0
C788 C 0.36709 0.46017 0.7828 0.0
C789 C 0.38171 0.45911 0.74307 0.0
C790 C 0.35257 0.43623 0.77659 0.0
N791 N 0.38171 0.47085 0.76622 0.0
C792 C 0.36732 0.43523 0.73601 0.0
C793 C 0.35288 0.42328 0.753 0.0
H794 H 0.36695 0.46999 0.80095 0.0
H795 H 0.39352 0.46799 0.73022 0.0
C796 C 0.48786 0.5429 0.73683 0.0
N797 N 0.4628 0.53104 0.7329 0.0
C798 C 0.50495 0.54379 0.71777 0.0
C799 C 0.47015 0.52027 0.69094 0.0
C800 C 0.45382 0.51972 0.71051 0.0
C801 C 0.4962 0.53235 0.69437 0.0
H802 H 0.4947 0.55142 0.75485 0.0
H803 H 0.43405 0.5099 0.70783 0.0
O804 O 0.39964 0.52273 0.80705 0.0
O805 O 0.44811 0.55534 0.78895 0.0
O806 O 0.44355 0.4979 0.77582 0.0
O807 O 0.40125 0.52882 0.75424 0.0
H808 H 0.37537 0.55267 0.83959 0.0
H809 H 0.41035 0.4811 0.82553 0.0
H810 H 0.36638 0.54349 0.88077 0.0
H811 H 0.40063 0.47299 0.86691 0.0
H812 H 0.47368 0.6357 0.77266 0.0
H813 H 0.45319 0.57908 0.83378 0.0
H814 H 0.46076 0.5893 0.75959 0.0
H815 H 0.46653 0.62563 0.84561 0.0
H816 H 0.46646 0.53717 0.89248 0.0
H817 H 0.51346 0.48936 0.84506 0.0
H818 H 0.34416 0.61213 0.76657 0.0
H819 H 0.37823 0.62638 0.83913 0.0
H820 H 0.44794 0.47504 0.73124 0.0
H821 H 0.44325 0.46249 0.80505 0.0
H822 H 0.44973 0.42825 0.71937 0.0
H823 H 0.44474 0.41589 0.79191 0.0
H824 H 0.36927 0.50295 0.71914 0.0
H825 H 0.42043 0.57256 0.74057 0.0
H826 H 0.36068 0.51728 0.67967 0.0
H827 H 0.411 0.58574 0.70072 0.0
H828 H 0.34136 0.42784 0.79014 0.0
H829 H 0.36826 0.42583 0.71769 0.0
H830 H 0.52496 0.55296 0.72146 0.0
H831 H 0.46232 0.51144 0.67329 0.0
Li832 Li 0.78909 0.39805 0.52993 0.0
Li833 Li 0.76982 0.36404 0.55061 0.0
Li834 Li 0.7624 0.35989 0.50665 0.0
Li835 Li 0.74107 0.39193 0.53575 0.0
C836 C 0.81019 0.34123 0.52758 0.0
N837 N 0.83696 0.29899 0.5333 0.0
C838 C 0.83709 0.34446 0.53492 0.0
C839 C 0.79688 0.31655 0.5232 0.0
C840 C 0.85028 0.32285 0.5377 0.0
C841 C 0.81077 0.29543 0.52617 0.0
C842 C 0.77998 0.40439 0.58345 0.0
C843 C 0.77374 0.39972 0.62506 0.0
N844 N 0.79972 0.40826 0.63036 0.0
C845 C 0.8066 0.41318 0.58932 0.0
C846 C 0.76336 0.3977 0.60148 0.0
C847 C 0.8162 0.41501 0.61314 0.0
C848 C 0.81361 0.44842 0.53495 0.0
N849 N 0.81772 0.42356 0.52742 0.0
C850 C 0.8607 0.4365 0.51417 0.0
C851 C 0.84072 0.41725 0.51728 0.0
C852 C 0.85677 0.46255 0.5211 0.0
C853 C 0.83271 0.46826 0.53168 0.0
H854 H 0.7951 0.45287 0.54296 0.0
H855 H 0.8434 0.3973 0.51132 0.0
C856 C 0.75584 0.32887 0.58318 0.0
N857 N 0.77632 0.34428 0.57624 0.0
C858 C 0.75884 0.3167 0.6035 0.0
C859 C 0.80458 0.3349 0.6082 0.0
C860 C 0.8006 0.34694 0.58793 0.0
C861 C 0.78332 0.32006 0.61657 0.0
H862 H 0.73693 0.32648 0.5733 0.0
H863 H 0.81664 0.35922 0.58207 0.0
C864 C 0.76459 0.41911 0.49558 0.0
N865 N 0.77796 0.46413 0.47696 0.0
C866 C 0.75401 0.44181 0.50494 0.0
C867 C 0.78189 0.41933 0.47666 0.0
C868 C 0.761 0.46435 0.49528 0.0
C869 C 0.78845 0.44228 0.46754 0.0
C870 C 0.70902 0.35102 0.53242 0.0
C871 C 0.69316 0.34587 0.51117 0.0
C872 C 0.69702 0.35513 0.55454 0.0
C873 C 0.66552 0.34458 0.51243 0.0
C874 C 0.66933 0.35377 0.55504 0.0
N875 N 0.65428 0.34853 0.53415 0.0
C876 C 0.74491 0.31517 0.47178 0.0
C877 C 0.78138 0.34245 0.46175 0.0
C878 C 0.74655 0.29851 0.45025 0.0
N879 N 0.76195 0.33689 0.4769 0.0
C880 C 0.78368 0.32645 0.44007 0.0
C881 C 0.76604 0.30418 0.43395 0.0
H882 H 0.73033 0.31051 0.48454 0.0
H883 H 0.79551 0.35907 0.46677 0.0
C884 C 0.71122 0.42532 0.56478 0.0
N885 N 0.7106 0.41102 0.54266 0.0
C886 C 0.69086 0.44067 0.57139 0.0
C887 C 0.66927 0.42657 0.53227 0.0
C888 C 0.69025 0.41149 0.52635 0.0
C889 C 0.6694 0.44151 0.55511 0.0
H890 H 0.72788 0.42531 0.57722 0.0
H891 H 0.69042 0.40041 0.50866 0.0
O892 O 0.79682 0.36218 0.52523 0.0
O893 O 0.7703 0.40214 0.56016 0.0
O894 O 0.75847 0.39694 0.50517 0.0
O895 O 0.73614 0.35271 0.53156 0.0
H896 H 0.84759 0.36348 0.53863 0.0
H897 H 0.77596 0.31377 0.51788 0.0
H898 H 0.87108 0.32505 0.54342 0.0
H899 H 0.80071 0.27622 0.52291 0.0
H900 H 0.76117 0.39439 0.63914 0.0
H901 H 0.81981 0.4183 0.57563 0.0
H902 H 0.74277 0.39061 0.59723 0.0
H903 H 0.83679 0.42168 0.61792 0.0
H904 H 0.87897 0.43091 0.50636 0.0
H905 H 0.82822 0.48787 0.53686 0.0
H906 H 0.74206 0.30512 0.60917 0.0
H907 H 0.82373 0.33815 0.61786 0.0
H908 H 0.74089 0.44221 0.51975 0.0
H909 H 0.79044 0.40209 0.46925 0.0
H910 H 0.75305 0.48206 0.50246 0.0
H911 H 0.80195 0.44273 0.45301 0.0
H912 H 0.70204 0.34338 0.49385 0.0
H913 H 0.70894 0.35979 0.57115 0.0
H914 H 0.65302 0.34066 0.49612 0.0
H915 H 0.65981 0.35701 0.57203 0.0
H916 H 0.73261 0.2815 0.44634 0.0
H917 H 0.79949 0.33124 0.42843 0.0
H918 H 0.69238 0.45233 0.58892 0.0
H919 H 0.65318 0.42651 0.5191 0.0
Li920 Li 0.64861 0.99645 0.76014 0.0
Li921 Li 0.61723 0.0263 0.7781 0.0
Li922 Li 0.61939 0.01526 0.73391 0.0
Li923 Li 0.65532 0.0439 0.75596 0.0
C924 C 0.60113 0.96802 0.76223 0.0
N925 N 0.58578 0.91886 0.7713 0.0
C926 C 0.59097 0.96414 0.78442 0.0
C927 C 0.60336 0.94695 0.7446 0.0
C928 C 0.58334 0.93912 0.78866 0.0
C929 C 0.59554 0.92222 0.74956 0.0
C930 C 0.66541 0.02917 0.80868 0.0
C931 C 0.68792 0.05413 0.84396 0.0
N932 N 0.68542 0.03312 0.85552 0.0
C933 C 0.6631 1.00783 0.82092 0.0
C934 C 0.67796 0.05252 0.82028 0.0
C935 C 0.67333 1.01021 0.84458 0.0
C936 C 0.69451 0.97098 0.75644 0.0
N937 N 0.66968 0.96869 0.765 0.0
C938 C 0.68054 0.93315 0.78448 0.0
C939 C 0.66228 0.94982 0.77836 0.0
C940 C 0.70677 0.93599 0.77696 0.0
C941 C 0.7134 0.95477 0.76216 0.0
H942 H 0.70005 0.98623 0.74604 0.0
H943 H 0.64278 0.94858 0.78557 0.0
C944 C 0.57065 0.0444 0.7965 0.0
N945 N 0.59335 0.03496 0.80346 0.0
C946 C 0.55226 0.05221 0.81339 0.0
C947 C 0.58029 0.03957 0.84437 0.0
C948 C 0.59833 0.03227 0.82687 0.0
C949 C 0.55702 0.04996 0.83773 0.0
H950 H 0.56688 0.04601 0.77775 0.0
H951 H 0.61622 0.02448 0.83211 0.0
C952 C 0.66025 1.00696 0.70754 0.0
N953 N 0.6621 0.99437 0.6583 0.0
C954 C 0.66632 0.02615 0.69326 0.0
C955 C 0.6554 0.98135 0.69687 0.0
C956 C 0.66709 0.0194 0.66837 0.0
C957 C 0.65635 0.97538 0.67191 0.0
C958 C 0.61342 0.07451 0.76188 0.0
C959 C 0.59861 0.08909 0.74847 0.0
C960 C 0.62421 0.08532 0.78461 0.0
C961 C 0.59488 0.11434 0.75806 0.0
C962 C 0.62002 0.11061 0.79358 0.0
N963 N 0.60558 0.12449 0.78022 0.0
C964 C 0.58265 0.98993 0.69563 0.0
C965 C 0.60091 0.03215 0.69229 0.0
C966 C 0.56761 0.98875 0.67408 0.0
N967 N 0.59889 1.01143 0.70422 0.0
C968 C 0.58636 0.03179 0.67073 0.0
C969 C 0.56925 1.00995 0.66135 0.0
H970 H 0.58114 0.97382 0.7056 0.0
H971 H 0.61393 0.04903 0.69958 0.0
C972 C 0.70561 0.0712 0.76556 0.0
N973 N 0.68139 0.07198 0.7547 0.0
C974 C 0.72547 0.09132 0.76537 0.0
C975 C 0.69536 0.11239 0.74219 0.0
C976 C 0.67603 0.09184 0.74287 0.0
C977 C 0.72043 0.11241 0.75372 0.0
H978 H 0.70947 0.0549 0.77442 0.0
H979 H 0.65675 0.09175 0.73398 0.0
O980 O 0.60846 0.99238 0.75768 0.0
O981 O 0.656 0.0271 0.78532 0.0
O982 O 0.65869 0.01325 0.73184 0.0
O983 O 0.61734 0.04982 0.75265 0.0
H984 H 0.58905 0.98025 0.79823 0.0
H985 H 0.6112 0.94963 0.72735 0.0
H986 H 0.5755 0.93581 0.80577 0.0
H987 H 0.59726 0.90572 0.73612 0.0
H988 H 0.69765 0.07209 0.85315 0.0
H989 H 0.65297 0.98981 0.81245 0.0
H990 H 0.68003 0.06924 0.81111 0.0
H991 H 0.67153 0.99387 0.85429 0.0
H992 H 0.67462 0.91926 0.79624 0.0
H993 H 0.73329 0.95752 0.75575 0.0
H994 H 0.53435 0.0597 0.8074 0.0
H995 H 0.58474 0.03753 0.86294 0.0
H996 H 0.6701 0.04607 0.7013 0.0
H997 H 0.65082 0.96629 0.70774 0.0
H998 H 0.67158 0.03406 0.65705 0.0
H999 H 0.65249 0.95566 0.66337 0.0
H1000 H 0.59011 0.08099 0.73084 0.0
H1001 H 0.63557 0.07426 0.79525 0.0
H1002 H 0.58349 0.12587 0.74788 0.0
H1003 H 0.62824 0.1192 0.81116 0.0
H1004 H 0.55451 0.97162 0.6677 0.0
H1005 H 0.58874 0.04841 0.6614 0.0
H1006 H 0.74465 0.09026 0.77409 0.0
H1007 H 0.69056 0.12828 0.73309 0.0
Li1008 Li 0.06806 0.23683 0.87803 0.0
Li1009 Li 0.0435 0.26383 0.90897 0.0
Li1010 Li 0.04861 0.21725 0.91038 0.0
Li1011 Li 0.01957 0.22894 0.88021 0.0
C1012 C 0.10302 0.25311 0.91583 0.0
N1013 N 0.15729 0.2663 0.91971 0.0
C1014 C 0.11311 0.27896 0.91963 0.0
C1015 C 0.12053 0.23399 0.91445 0.0
C1016 C 0.14061 0.28523 0.92143 0.0
C1017 C 0.14789 0.24103 0.91633 0.0
C1018 C 0.0267 0.26887 0.85592 0.0
C1019 C 0.99019 0.29083 0.8431 0.0
N1020 N 0.99549 0.28306 0.81977 0.0
C1021 C 0.03192 0.26122 0.83185 0.0
C1022 C 1.0058 0.28391 0.86166 0.0
C1023 C 0.01587 0.26857 0.81382 0.0
C1024 C 0.10535 0.21889 0.84383 0.0
N1025 N 0.09748 0.2397 0.85796 0.0
C1026 C 0.1341 0.26657 0.84655 0.0
C1027 C 0.11086 0.26338 0.85896 0.0
C1028 C 0.14316 0.24532 0.8324 0.0
C1029 C 0.12823 0.22133 0.83067 0.0
H1030 H 0.09413 0.20036 0.84309 0.0
H1031 H 0.10375 0.27969 0.86989 0.0
C1032 C 0.03451 0.30255 0.94817 0.0
N1033 N 0.04308 0.29765 0.92544 0.0
C1034 C 0.03485 0.32792 0.95958 0.0
C1035 C 0.0531 0.34246 0.92403 0.0
C1036 C 0.05215 0.31693 0.91327 0.0
C1037 C 0.04442 0.34823 0.9475 0.0
H1038 H 0.02756 0.28679 0.95746 0.0
H1039 H 0.05885 0.31241 0.89521 0.0
C1040 C 0.04867 0.17791 0.87323 0.0
N1041 N 0.05402 0.12588 0.86957 0.0
C1042 C 0.02698 0.15999 0.86548 0.0
C1043 C 0.07319 0.16934 0.87865 0.0
C1044 C 0.03006 0.13378 0.86386 0.0
C1045 C 0.07547 0.14297 0.87683 0.0
C1046 C 0.99736 0.22158 0.92587 0.0
C1047 C 0.98736 0.19746 0.91395 0.0
C1048 C 0.98824 0.23044 0.94846 0.0
C1049 C 0.96839 0.18253 0.92483 0.0
C1050 C 0.96921 0.21496 0.95875 0.0
N1051 N 0.95977 0.19152 0.94682 0.0
C1052 C 0.07206 0.20491 0.95187 0.0
C1053 C 0.04325 0.16988 0.93219 0.0
C1054 C 0.07891 0.19061 0.96976 0.0
N1055 N 0.05482 0.19438 0.93337 0.0
C1056 C 0.04955 0.15479 0.94984 0.0
C1057 C 0.06785 0.16509 0.96885 0.0
H1058 H 0.08047 0.2246 0.95284 0.0
H1059 H 0.02921 0.16196 0.91759 0.0
C1060 C 0.98791 0.21085 0.83768 0.0
N1061 N 0.98729 0.22201 0.86095 0.0
C1062 C 0.96519 0.20857 0.82242 0.0
C1063 C 0.94144 0.22846 0.85563 0.0
C1064 C 0.96468 0.23068 0.87013 0.0
C1065 C 0.94161 0.2176 0.83135 0.0
H1066 H 1.00629 0.20446 0.83079 0.0
H1067 H 0.96491 0.24004 0.88854 0.0
O1068 O 0.07615 0.24658 0.91358 0.0
O1069 O 0.04158 0.26113 0.8738 0.0
O1070 O 0.04603 0.20366 0.87487 0.0
O1071 O 0.01604 0.23647 0.91556 0.0
H1072 H 0.09989 0.29403 0.92094 0.0
H1073 H 0.11309 0.21392 0.91203 0.0
H1074 H 0.14869 0.30516 0.92416 0.0
H1075 H 0.16166 0.22641 0.91514 0.0
H1076 H 0.97381 0.30229 0.84725 0.0
H1077 H 0.048 0.24948 0.82717 0.0
H1078 H 1.00147 0.28986 0.88025 0.0
H1079 H 0.01954 0.26265 0.79509 0.0
H1080 H 0.145 0.28541 0.84809 0.0
H1081 H 0.13471 0.20451 0.81993 0.0
H1082 H 0.02811 0.3316 0.97774 0.0
H1083 H 0.06025 0.35755 0.91395 0.0
H1084 H 1.00798 0.16624 0.86067 0.0
H1085 H 0.09027 0.1829 0.88422 0.0
H1086 H 0.0134 0.11971 0.85802 0.0
H1087 H 0.0943 0.13609 0.88115 0.0
H1088 H 0.99419 0.19035 0.8965 0.0
H1089 H 0.99575 0.24908 0.95796 0.0
H1090 H 0.96052 0.16379 0.91578 0.0
H1091 H 0.96195 0.22159 0.97622 0.0
H1092 H 0.09249 0.19967 0.9844 0.0
H1093 H 0.04045 0.13524 0.94848 0.0
H1094 H 0.96608 0.19999 0.80383 0.0
H1095 H 0.92376 0.23597 0.86311 0.0
Li1096 Li 0.56429 0.73206 0.37331 0.0
Li1097 Li 0.54238 0.76149 0.4044 0.0
Li1098 Li 0.54497 0.71406 0.40683 0.0
Li1099 Li 0.5162 0.72724 0.37696 0.0
C1100 C 0.601 0.74689 0.40903 0.0
N1101 N 0.65565 0.75614 0.40895 0.0
C1102 C 0.61294 0.77209 0.41133 0.0
C1103 C 0.61686 0.72641 0.40706 0.0
C1104 C 0.6406 0.77637 0.41117 0.0
C1105 C 0.64445 0.73148 0.40694 0.0
C1106 C 0.52474 0.76599 0.35147 0.0
C1107 C 0.4902 0.79047 0.33887 0.0
N1108 N 0.49369 0.78082 0.31556 0.0
C1109 C 0.52814 0.75644 0.32741 0.0
C1110 C 0.50578 0.78326 0.3573 0.0
C1111 C 0.51219 0.76414 0.3095 0.0
C1112 C 0.60089 0.71091 0.3399 0.0
N1113 N 0.59307 0.73275 0.35231 0.0
C1114 C 0.62907 0.75805 0.33793 0.0
C1115 C 0.60619 0.7561 0.35105 0.0
C1116 C 0.63832 0.73575 0.32555 0.0
C1117 C 0.62354 0.71198 0.32628 0.0
H1118 H 0.58981 0.69263 0.34083 0.0
H1119 H 0.5993 0.77318 0.36091 0.0
C1120 C 0.53516 0.80078 0.44336 0.0
N1121 N 0.5439 0.79552 0.42073 0.0
C1122 C 0.53627 0.82622 0.45473 0.0
C1123 C 0.55573 0.8401 0.41938 0.0
C1124 C 0.55401 0.8145 0.40866 0.0
C1125 C 0.54675 0.84624 0.44271 0.0
H1126 H 0.52735 0.78523 0.45256 0.0
H1127 H 0.56073 0.80969 0.39064 0.0
C1128 C 0.54048 0.67391 0.37042 0.0
N1129 N 0.54019 0.62123 0.36794 0.0
C1130 C 0.51687 0.65803 0.36453 0.0
C1131 C 0.564 0.66296 0.37475 0.0
C1132 C 0.51712 0.63145 0.36344 0.0
C1133 C 0.56343 0.6363 0.3735 0.0
C1134 C 0.49133 0.72555 0.42108 0.0
C1135 C 0.48268 0.69954 0.41475 0.0
C1136 C 0.47601 0.74142 0.43586 0.0
C1137 C 0.45887 0.68972 0.42343 0.0
C1138 C 0.45229 0.73089 0.44417 0.0
N1139 N 0.44429 0.70547 0.43784 0.0
C1140 C 0.56913 0.70245 0.44825 0.0
C1141 C 0.53936 0.66739 0.43012 0.0
C1142 C 0.57655 0.68857 0.4663 0.0
N1143 N 0.55113 0.69171 0.43041 0.0
C1144 C 0.54621 0.65274 0.44796 0.0
C1145 C 0.5653 0.66324 0.46624 0.0
H1146 H 0.57781 0.72196 0.44851 0.0
H1147 H 0.52483 0.65919 0.41604 0.0
C1148 C 0.48244 0.70832 0.33592 0.0
N1149 N 0.48327 0.72176 0.35845 0.0
C1150 C 0.45984 0.70718 0.32069 0.0
C1151 C 0.43913 0.73315 0.35238 0.0
C1152 C 0.46218 0.73396 0.36689 0.0
C1153 C 0.43785 0.72 0.32874 0.0
H1154 H 0.49976 0.69935 0.32945 0.0
H1155 H 0.46357 0.74515 0.38459 0.0
O1156 O 0.57392 0.74228 0.40856 0.0
O1157 O 0.53952 0.75801 0.36928 0.0
O1158 O 0.54063 0.69998 0.37146 0.0
O1159 O 0.51434 0.73566 0.41245 0.0
H1160 H 0.60097 0.78817 0.41299 0.0
H1161 H 0.60797 0.70683 0.40559 0.0
H1162 H 0.6501 0.79576 0.41275 0.0
H1163 H 0.65696 0.7158 0.40525 0.0
H1164 H 0.47527 0.80365 0.34311 0.0
H1165 H 0.54271 0.74298 0.32266 0.0
H1166 H 0.50287 0.7907 0.37589 0.0
H1167 H 0.51445 0.75677 0.2908 0.0
H1168 H 0.63986 0.77677 0.33825 0.0
H1169 H 0.62952 0.69433 0.31666 0.0
H1170 H 0.52928 0.83016 0.47278 0.0
H1171 H 0.56358 0.85497 0.40935 0.0
H1172 H 0.49852 0.66614 0.36093 0.0
H1173 H 0.58246 0.67491 0.37915 0.0
H1174 H 0.49897 0.61895 0.35903 0.0
H1175 H 0.58146 0.62759 0.37696 0.0
H1176 H 0.4941 0.68716 0.40308 0.0
H1177 H 0.48227 0.76168 0.44071 0.0
H1178 H 0.45194 0.6696 0.41863 0.0
H1179 H 0.44021 0.74295 0.45559 0.0
H1180 H 0.59079 0.69777 0.48036 0.0
H1181 H 0.53698 0.63331 0.44724 0.0
H1182 H 0.46 0.69714 0.30253 0.0
H1183 H 0.42262 0.74301 0.35956 0.0
Li1184 Li 0.01849 0.79641 0.64502 0.0
Li1185 Li 0.99361 0.77818 0.68034 0.0
Li1186 Li 0.04116 0.77353 0.67364 0.0
Li1187 Li 1.0084 0.74977 0.646 0.0
C1188 C 0.04145 0.81971 0.69777 0.0
N1189 N 0.07875 0.84488 0.73195 0.0
C1190 C 0.04029 0.81514 0.72163 0.0
C1191 C 0.06144 0.83716 0.69128 0.0
C1192 C 0.05938 0.82803 0.73865 0.0
C1193 C 0.08014 0.84969 0.70884 0.0
C1194 C 0.96204 0.76204 0.6321 0.0
C1195 C 0.92263 0.73226 0.6291 0.0
N1196 N 0.92209 0.73106 0.60475 0.0
C1197 C 0.96104 0.76065 0.60707 0.0
C1198 C 0.94267 0.74782 0.64325 0.0
C1199 C 0.94071 0.74482 0.59355 0.0
C1200 C 0.02476 0.81137 0.60009 0.0
N1201 N 0.02234 0.82147 0.62342 0.0
C1202 C 0.0299 0.86417 0.61348 0.0
C1203 C 0.02452 0.84735 0.63038 0.0
C1204 C 0.03308 0.85422 0.58924 0.0
C1205 C 0.03018 0.82736 0.58271 0.0
H1206 H 0.02338 0.79072 0.59512 0.0
H1207 H 0.02265 0.85494 0.64909 0.0
C1208 C 0.96854 0.7708 0.7235 0.0
N1209 N 0.9673 0.78341 0.70403 0.0
C1210 C 0.9493 0.77313 0.74083 0.0
C1211 C 0.92844 0.80235 0.71841 0.0
C1212 C 0.94781 0.79905 0.70123 0.0
C1213 C 0.92891 0.78909 0.73842 0.0
H1214 H 0.98451 0.75887 0.72557 0.0
H1215 H 0.94728 0.80889 0.68561 0.0
C1216 C 0.06575 0.76449 0.62988 0.0
N1217 N 0.11543 0.75617 0.613 0.0
C1218 C 0.07473 0.74007 0.62836 0.0
C1219 C 0.08185 0.78458 0.62239 0.0
C1220 C 0.09996 0.73628 0.6199 0.0
C1221 C 0.10696 0.78002 0.61404 0.0
C1222 C 1.01193 0.72225 0.6836 0.0
C1223 C 0.03369 0.70826 0.6782 0.0
C1224 C 0.98899 0.71013 0.69191 0.0
C1225 C 0.03203 0.68227 0.68089 0.0
C1226 C 0.98812 0.68409 0.69437 0.0
N1227 N 1.00947 0.67081 0.68884 0.0
C1228 C 0.07647 0.75905 0.70908 0.0
C1229 C 0.09695 0.78609 0.68335 0.0
C1230 C 0.10102 0.75723 0.72063 0.0
N1231 N 0.07496 0.77284 0.69042 0.0
C1232 C 0.12185 0.7846 0.69418 0.0
C1233 C 0.1242 0.76969 0.71282 0.0
H1234 H 0.05864 0.74921 0.71485 0.0
H1235 H 0.09521 0.79789 0.66931 0.0
C1236 C 1.01046 0.71771 0.6018 0.0
N1237 N 0.99949 0.71863 0.62367 0.0
C1238 C 1.00452 0.69636 0.58414 0.0
C1239 C 0.97597 0.67715 0.61168 0.0
C1240 C 0.98221 0.69902 0.6287 0.0
C1241 C 0.98707 0.67557 0.58892 0.0
H1242 H 0.02349 0.73384 0.59787 0.0
H1243 H 0.97279 0.70046 0.6457 0.0
O1244 O 0.02341 0.80672 0.68076 0.0
O1245 O 0.98228 0.7767 0.64561 0.0
O1246 O 0.04105 0.76858 0.63802 0.0
O1247 O 0.0132 0.74776 0.68117 0.0
H1248 H 0.025 0.80156 0.72686 0.0
H1249 H 0.06271 0.8407 0.67282 0.0
H1250 H 0.05885 0.82458 0.75716 0.0
H1251 H 0.09583 0.86313 0.70407 0.0
H1252 H 0.90758 0.72102 0.63746 0.0
H1253 H 0.97597 0.77145 0.59818 0.0
H1254 H 0.94332 0.74853 0.6626 0.0
H1255 H 0.93977 0.7434 0.57415 0.0
H1256 H 0.03178 0.8847 0.61939 0.0
H1257 H 0.03306 0.81861 0.56449 0.0
H1258 H 0.95059 0.76288 0.75616 0.0
H1259 H 0.91301 0.81481 0.7159 0.0
H1260 H 0.06226 0.72414 0.63344 0.0
H1261 H 0.07521 0.80361 0.6234 0.0
H1262 H 0.10719 0.71749 0.61872 0.0
H1263 H 0.11973 0.79545 0.60841 0.0
H1264 H 0.05173 0.71743 0.67218 0.0
H1265 H 0.97184 0.72055 0.69595 0.0
H1266 H 0.04872 0.67122 0.67673 0.0
H1267 H 0.97042 0.67442 0.70059 0.0
H1268 H 0.10196 0.74564 0.73503 0.0
H1269 H 0.13913 0.79506 0.68803 0.0
H1270 H 0.01307 0.69649 0.56673 0.0
H1271 H 0.96252 0.66167 0.6164 0.0
Li1272 Li 0.52327 0.29716 0.14191 0.0
Li1273 Li 0.49779 0.27885 0.17648 0.0
Li1274 Li 0.5444 0.27306 0.17058 0.0
Li1275 Li 0.51158 0.25053 0.14156 0.0
C1276 C 0.54666 0.31896 0.19466 0.0
N1277 N 0.58523 0.34224 0.22853 0.0
C1278 C 0.54478 0.31523 0.2187 0.0
C1279 C 0.56803 0.33463 0.18783 0.0
C1280 C 0.56452 0.32714 0.23556 0.0
C1281 C 0.58736 0.34622 0.20524 0.0
C1282 C 0.4661 0.26464 0.12801 0.0
C1283 C 0.42713 0.23422 0.12402 0.0
N1284 N 0.42571 0.23513 0.09995 0.0
C1285 C 0.4642 0.26539 0.10327 0.0
C1286 C 0.4474 0.24902 0.13853 0.0
C1287 C 0.44364 0.25028 0.08938 0.0
C1288 C 0.53081 0.31211 0.09729 0.0
N1289 N 0.52839 0.32243 0.12058 0.0
C1290 C 0.53924 0.36486 0.11084 0.0
C1291 C 0.53202 0.34832 0.1276 0.0
C1292 C 0.54316 0.35445 0.08694 0.0
C1293 C 0.53839 0.32778 0.08019 0.0
H1294 H 0.528 0.29148 0.09224 0.0
H1295 H 0.53018 0.35605 0.14628 0.0
C1296 C 0.47016 0.26874 0.21746 0.0
N1297 N 0.47111 0.2839 0.19978 0.0
C1298 C 0.45077 0.27097 0.23464 0.0
C1299 C 0.43401 0.3049 0.21555 0.0
C1300 C 0.45356 0.30178 0.19851 0.0
C1301 C 0.43235 0.28926 0.23387 0.0
H1302 H 0.48457 0.25493 0.21826 0.0
H1303 H 0.4547 0.31358 0.18424 0.0
C1304 C 0.56842 0.26697 0.12335 0.0
N1305 N 0.61455 0.2636 0.09839 0.0
C1306 C 0.57623 0.24295 0.11401 0.0
C1307 C 0.58395 0.28928 0.11968 0.0
C1308 C 0.59966 0.24165 0.10155 0.0
C1309 C 0.60724 0.28717 0.10712 0.0
C1310 C 0.52278 0.22286 0.17824 0.0
C1311 C 0.54572 0.21477 0.16752 0.0
C1312 C 0.50728 0.20618 0.19061 0.0
C1313 C 0.55288 0.19017 0.16943 0.0
C1314 C 0.51507 0.1817 0.19211 0.0
N1315 N 0.53753 0.17427 0.18158 0.0
C1316 C 0.57788 0.25912 0.20806 0.0
C1317 C 0.60065 0.28109 0.17971 0.0
C1318 C 0.602 0.25583 0.21968 0.0
N1319 N 0.57767 0.27097 0.18803 0.0
C1320 C 0.6251 0.27803 0.19054 0.0
C1321 C 0.62603 0.2648 0.21049 0.0
H1322 H 0.55935 0.25176 0.21478 0.0
H1323 H 0.60012 0.29155 0.16464 0.0
C1324 C 0.50944 0.22055 0.09601 0.0
N1325 N 0.50187 0.22011 0.11896 0.0
C1326 C 0.50291 0.19929 0.07839 0.0
C1327 C 0.48061 0.17749 0.10825 0.0
C1328 C 0.48753 0.19923 0.12529 0.0
C1329 C 0.48833 0.17728 0.08438 0.0
H1330 H 0.52035 0.2376 0.09133 0.0
H1331 H 0.48123 0.19951 0.14351 0.0
O1332 O 0.52799 0.30682 0.1778 0.0
O1333 O 0.48662 0.27849 0.1418 0.0
O1334 O 0.54514 0.26867 0.13507 0.0
O1335 O 0.51514 0.24674 0.17627 0.0
H1336 H 0.52839 0.30302 0.22419 0.0
H1337 H 0.56984 0.33752 0.16924 0.0
H1338 H 0.56344 0.32432 0.25421 0.0
H1339 H 0.60411 0.35827 0.20021 0.0
H1340 H 0.41261 0.22192 0.13188 0.0
H1341 H 0.47859 0.2773 0.09487 0.0
H1342 H 0.44876 0.24809 0.15765 0.0
H1343 H 0.442 0.25053 0.07018 0.0
H1344 H 0.54283 0.38536 0.11669 0.0
H1345 H 0.54106 0.31906 0.06189 0.0
H1346 H 0.45049 0.25879 0.24864 0.0
H1347 H 0.42012 0.31915 0.21422 0.0
H1348 H 0.56427 0.22545 0.1162 0.0
H1349 H 0.57836 0.30805 0.12684 0.0
H1350 H 0.60594 0.22318 0.09429 0.0
H1351 H 0.61951 0.30429 0.10433 0.0
H1352 H 0.55799 0.22741 0.15799 0.0
H1353 H 0.48925 0.21194 0.19876 0.0
H1354 H 0.57064 0.18373 0.16127 0.0
H1355 H 0.50322 0.16858 0.20158 0.0
H1356 H 0.60189 0.24567 0.23513 0.0
H1357 H 0.64318 0.28586 0.1833 0.0
H1358 H 0.5088 0.20031 0.06017 0.0
H1359 H 0.46946 0.16097 0.11377 0.0
C1360 C 0.24558 0.76604 0.87604 0.0
C1361 C 0.26967 0.75544 0.87078 0.0
H1362 H 0.22385 0.7891 0.90159 0.0
C1363 C 0.29033 0.75954 0.88866 0.0
H1364 H 0.22906 0.76296 0.86291 0.0
C1365 C 0.28721 0.77432 0.91092 0.0
C1366 C 0.26343 0.78556 0.91585 0.0
H1367 H 0.30934 0.75213 0.88519 0.0
H1368 H 0.30383 0.77774 0.92395 0.0
C1369 C 0.24255 0.78101 0.89824 0.0
C1370 C 1.00546 0.58518 0.37581 0.0
C1371 C 0.99783 0.56962 0.39329 0.0
H1372 H 0.03008 0.59058 0.34627 0.0
C1373 C 1.01122 0.54764 0.39498 0.0
H1374 H 0.99608 0.60258 0.37433 0.0
C1375 C 0.03098 0.5409 0.37895 0.0
C1376 C 0.03763 0.55589 0.36081 0.0
H1377 H 1.00573 0.53509 0.40806 0.0
H1378 H 0.04033 0.52343 0.38018 0.0
C1379 C 0.02498 0.57834 0.35972 0.0
C1380 C 0.82838 0.74327 0.86092 0.0
C1381 C 0.82883 0.77008 0.86727 0.0
H1382 H 0.82425 0.70626 0.87288 0.0
C1383 C 0.82642 0.77995 0.89165 0.0
H1384 H 0.83 0.73494 0.84235 0.0
C1385 C 0.8228 0.76354 0.90901 0.0
C1386 C 0.82182 0.73677 0.90262 0.0
H1387 H 0.82744 0.80047 0.89745 0.0
H1388 H 0.82103 0.77189 0.92756 0.0
C1389 C 0.82501 0.72682 0.87841 0.0
C1390 C 0.03875 0.02099 0.43779 0.0
C1391 C 0.04786 0.99679 0.4391 0.0
H1392 H 0.01573 0.04372 0.41795 0.0
C1393 C 0.03852 0.97608 0.42143 0.0
H1394 H 0.04533 0.03731 0.45122 0.0
C1395 C 0.02134 0.9797 0.40245 0.0
C1396 C 0.01304 1.00412 0.40062 0.0
H1397 H 0.0453 0.95723 0.42169 0.0
H1398 H 0.01482 0.96336 0.38902 0.0
C1399 C 0.02157 0.02461 0.4188 0.0
C1400 C 0.30139 0.24208 0.66873 0.0
C1401 C 0.29368 0.26721 0.67255 0.0
H1402 H 0.30845 0.20964 0.64325 0.0
C1403 C 0.28728 0.27901 0.65244 0.0
H1404 H 0.30711 0.23263 0.68373 0.0
C1405 C 0.28817 0.26579 0.62909 0.0
C1406 C 0.2954 0.24047 0.62538 0.0
H1407 H 0.2811 0.29829 0.65477 0.0
H1408 H 0.28268 0.27519 0.61398 0.0
C1409 C 0.3022 0.22889 0.64548 0.0
C1410 C 0.54805 0.55579 0.65271 0.0
C1411 C 0.54722 0.53494 0.634 0.0
H1412 H 0.53251 0.57157 0.68593 0.0
C1413 C 0.5298 0.51298 0.63556 0.0
H1414 H 0.56156 0.57286 0.65242 0.0
C1415 C 0.51343 0.51204 0.65515 0.0
C1416 C 0.51401 0.53306 0.67369 0.0
H1417 H 0.52852 0.49661 0.62147 0.0
H1418 H 0.50044 0.49471 0.65581 0.0
C1419 C 0.53163 0.5549 0.67219 0.0
C1420 C 0.77041 0.30697 0.67994 0.0
C1421 C 0.79332 0.29565 0.68601 0.0
H1422 H 0.74928 0.32335 0.6532 0.0
C1423 C 0.8121 0.29058 0.66848 0.0
H1424 H 0.75565 0.31108 0.69315 0.0
C1425 C 0.80862 0.29788 0.64563 0.0
C1426 C 0.78606 0.30995 0.63982 0.0
H1427 H 0.83002 0.28207 0.67281 0.0
H1428 H 0.82376 0.29449 0.63265 0.0
C1429 C 0.76673 0.31388 0.65705 0.0
C1430 C 0.53688 0.98734 0.59899 0.0
C1431 C 0.52695 1.00991 0.59322 0.0
H1432 H 0.55817 0.96966 0.62474 0.0
C1433 C 0.52963 0.03196 0.61067 0.0
H1434 H 0.53489 0.9699 0.58613 0.0
C1435 C 0.54265 0.03171 0.63294 0.0
C1436 C 0.5535 1.00945 0.63836 0.0
H1437 H 0.52253 0.04978 0.60686 0.0
H1438 H 0.54449 0.04914 0.64581 0.0
C1439 C 0.55001 0.98712 0.62127 0.0
C1440 C 0.86961 0.20762 0.8084 0.0
C1441 C 0.87117 0.21619 0.78586 0.0
H1442 H 0.89065 0.20133 0.84041 0.0
C1443 C 0.89617 0.22469 0.77812 0.0
H1444 H 0.85058 0.20121 0.81496 0.0
C1445 C 0.91914 0.22464 0.79267 0.0
C1446 C 0.91748 0.21643 0.81537 0.0
H1447 H 0.89795 0.23132 0.7608 0.0
H1448 H 0.93812 0.23157 0.7864 0.0
C1449 C 0.89249 0.20786 0.82305 0.0
C1450 C 0.57096 0.91655 0.46075 0.0
C1451 C 0.54855 0.92649 0.47137 0.0
H1452 H 0.58805 0.88343 0.44363 0.0
C1453 C 0.52623 0.9094 0.47419 0.0
H1454 H 0.58869 0.92908 0.45876 0.0
C1455 C 0.52596 0.88315 0.46565 0.0
C1456 C 0.54794 0.8735 0.45402 0.0
H1457 H 0.50853 0.91642 0.48206 0.0
H1458 H 0.50813 0.87061 0.46725 0.0
C1459 C 0.57062 0.8904 0.4521 0.0
C1460 C 0.21649 0.25979 0.82361 0.0
C1461 C 0.2183 0.25114 0.79899 0.0
H1462 H 0.19105 0.265 0.85336 0.0
C1463 C 0.19513 0.24126 0.78513 0.0
H1464 H 0.23414 0.26746 0.83462 0.0
C1465 C 0.17058 0.23938 0.79592 0.0
C1466 C 0.16881 0.24793 0.82059 0.0
H1467 H 0.19617 0.23434 0.76613 0.0
H1468 H 0.15298 0.23127 0.78503 0.0
C1469 C 0.19191 0.25845 0.83427 0.0
C1470 C 0.56194 0.62235 0.51697 0.0
C1471 C 0.58838 0.62609 0.52622 0.0
H1472 H 0.53375 0.6314 0.49085 0.0
C1473 C 0.60748 0.6397 0.51402 0.0
H1474 H 0.54678 0.61205 0.5261 0.0
C1475 C 0.60012 0.65065 0.4939 0.0
C1476 C 0.5734 0.64843 0.48552 0.0
H1477 H 0.62809 0.64253 0.5205 0.0
H1478 H 0.61531 0.66145 0.48526 0.0
C1479 C 0.5545 0.63345 0.49681 0.0
C1480 C 0.88444 0.81965 0.78528 0.0
C1481 C 0.87058 0.79808 0.79304 0.0
H1482 H 0.91335 0.83369 0.76192 0.0
C1483 C 0.87606 0.77345 0.78229 0.0
H1484 H 0.88153 0.83896 0.79341 0.0
C1485 C 0.89497 0.77053 0.76462 0.0
C1486 C 0.90855 0.79213 0.7569 0.0
H1487 H 0.86562 0.75633 0.78735 0.0
H1488 H 0.89878 0.75133 0.75677 0.0
C1489 C 0.90292 0.8167 0.76729 0.0
C1490 C 0.04251 0.87791 0.5289 0.0
C1491 C 0.06218 0.89852 0.53482 0.0
H1492 H 0.01708 0.84846 0.54145 0.0
C1493 C 0.07007 0.90644 0.55908 0.0
H1494 H 0.03628 0.87137 0.51026 0.0
C1495 C 0.05959 0.89295 0.57701 0.0
C1496 C 0.04096 0.87127 0.57098 0.0
H1497 H 0.08557 0.92203 0.56398 0.0
H1498 H 0.06732 0.89857 0.59535 0.0
C1499 C 0.03182 0.86461 0.54677 0.0
C1500 C 0.19732 0.75999 0.71784 0.0
C1501 C 0.20258 0.76351 0.74289 0.0
H1502 H 0.16865 0.75912 0.68889 0.0
C1503 C 0.18133 0.76775 0.75811 0.0
H1504 H 0.21296 0.75596 0.70552 0.0
C1505 C 0.15569 0.76925 0.74846 0.0
C1506 C 0.15085 0.76673 0.72341 0.0
H1507 H 0.18466 0.77067 0.77747 0.0
H1508 H 0.13983 0.77315 0.76057 0.0
C1509 C 0.17188 0.76173 0.70826 0.0
C1510 C 0.94714 0.61899 0.55053 0.0
C1511 C 0.96563 0.61035 0.53383 0.0
H1512 H 0.93898 0.64655 0.5803 0.0
C1513 C 0.99136 0.62308 0.53543 0.0
H1514 H 0.92698 0.60987 0.54946 0.0
C1515 C 0.99848 0.64395 0.55346 0.0
C1516 C 0.97988 0.65283 0.57009 0.0
H1517 H 1.00604 0.61674 0.52285 0.0
H1518 H 0.01865 0.65298 0.55443 0.0
C1519 C 0.9541 0.64002 0.5683 0.0
C1520 C 0.81906 0.86227 0.2212 0.0
C1521 C 0.82224 0.84296 0.23568 0.0
H1522 H 0.82888 0.9016 0.2164 0.0
C1523 C 0.83914 0.84887 0.25647 0.0
H1524 H 0.80605 0.85847 0.20517 0.0
C1525 C 0.85184 0.87357 0.26303 0.0
C1526 C 0.84827 0.89295 0.24882 0.0
H1527 H 0.84268 0.83436 0.26773 0.0
H1528 H 0.8647 0.87744 0.27915 0.0
C1529 C 0.83204 0.88699 0.22766 0.0
C1530 C 0.81614 0.16557 0.33533 0.0
C1531 C 0.8156 0.18224 0.31783 0.0
H1532 H 0.83176 0.13217 0.34622 0.0
C1533 C 0.83201 0.17809 0.29809 0.0
H1534 H 0.80375 0.16796 0.3507 0.0
C1535 C 0.84742 0.15729 0.29531 0.0
C1536 C 0.84747 0.14042 0.31246 0.0
H1537 H 0.83303 0.1909 0.28464 0.0
H1538 H 0.85944 0.15442 0.27969 0.0
C1539 C 0.83209 0.14499 0.33276 0.0
C1540 C 0.4199 1.01247 0.01599 0.0
C1541 C 0.41207 0.02885 0.99996 0.0
H1542 H 0.40878 0.97953 0.0333 0.0
C1543 C 0.38638 0.02448 0.98906 0.0
H1544 H 0.43962 0.01546 0.02458 0.0
C1545 C 0.3687 1.00433 0.99433 0.0
C1546 C 0.37652 0.98786 1.01027 0.0
H1547 H 0.37981 0.03698 0.97679 0.0
H1548 H 0.34893 1.00148 0.98582 0.0
C1549 C 0.40235 0.99194 0.02089 0.0
C1550 C 0.24311 0.3828 0.30026 0.0
C1551 C 0.26726 0.39658 0.30924 0.0
H1552 H 0.20502 0.38419 0.28277 0.0
C1553 C 0.27249 0.42214 0.30511 0.0
H1554 H 0.23853 0.36311 0.30335 0.0
C1555 C 0.25345 0.43419 0.29346 0.0
C1556 C 0.22858 0.42101 0.28573 0.0
H1557 H 0.29098 0.43318 0.31182 0.0
H1558 H 0.25773 0.45431 0.29175 0.0
C1559 C 0.22387 0.39496 0.28872 0.0
C1560 C 0.15148 0.03253 0.50212 0.0
C1561 C 0.13695 0.02688 0.47998 0.0
H1562 H 0.18533 0.05328 0.522 0.0
C1563 C 0.14605 0.03897 0.46057 0.0
H1564 H 0.14503 0.02374 0.51752 0.0
C1565 C 0.1689 0.05632 0.46325 0.0
C1566 C 0.18349 0.06193 0.48537 0.0
H1567 H 0.13573 0.03481 0.44309 0.0
H1568 H 0.17497 0.06549 0.44797 0.0
C1569 C 0.17447 0.04976 0.50477 0.0
C1570 C 0.77664 0.16378 0.77539 0.0
C1571 C 0.78129 0.17553 0.75474 0.0
H1572 H 0.75371 0.1351 0.79134 0.0
C1573 C 0.76531 0.16673 0.73378 0.0
H1574 H 0.7881 0.17049 0.79204 0.0
C1575 C 0.74545 0.14635 0.7334 0.0
C1576 C 0.74114 0.13437 0.75399 0.0
H1577 H 0.76848 0.17529 0.71755 0.0
H1578 H 0.73381 0.13966 0.71685 0.0
C1579 C 0.75687 0.14348 0.77501 0.0
C1580 C 0.43971 0.04248 0.54773 0.0
C1581 C 0.46473 0.04635 0.53794 0.0
H1582 H 0.4001 0.05402 0.55022 0.0
C1583 C 0.46916 0.06583 0.52345 0.0
H1584 H 0.43577 0.02749 0.55885 0.0
C1585 C 0.44897 0.08105 0.5187 0.0
C1586 C 0.42376 0.07689 0.52804 0.0
H1587 H 0.48832 0.06928 0.51577 0.0
H1588 H 0.45294 0.09579 0.50732 0.0
C1589 C 0.4193 0.05747 0.54263 0.0
C1590 C 0.61927 0.49088 0.55216 0.0
C1591 C 0.61196 0.49562 0.57626 0.0
H1592 H 0.64312 0.47045 0.52661 0.0
C1593 C 0.62213 0.48085 0.59278 0.0
H1594 H 0.61156 0.50157 0.53882 0.0
C1595 C 0.63981 0.46261 0.58565 0.0
C1596 C 0.64812 0.45875 0.56185 0.0
H1597 H 0.61731 0.48402 0.61153 0.0
H1598 H 0.64738 0.45187 0.59901 0.0
C1599 C 0.63715 0.47275 0.54507 0.0
C1600 C 0.76843 0.24437 0.38757 0.0
C1601 C 0.77378 0.25517 0.36651 0.0
H1602 H 0.76171 0.25128 0.42535 0.0
C1603 C 0.77627 0.2821 0.36787 0.0
H1604 H 0.76629 0.22371 0.38712 0.0
C1605 C 0.77352 0.29783 0.38963 0.0
C1606 C 0.76821 0.28711 0.41071 0.0
H1607 H 0.78077 0.29112 0.35212 0.0
H1608 H 0.77543 0.31847 0.38989 0.0
C1609 C 0.76555 0.26017 0.40941 0.0
C1610 C 0.50699 0.08912 0.87131 0.0
C1611 C 0.49804 0.07328 0.88816 0.0
H1612 H 0.53261 0.09427 0.8424 0.0
C1613 C 0.50998 0.05038 0.88933 0.0
H1614 H 0.49874 0.10718 0.87025 0.0
C1615 C 0.52966 0.04309 0.87341 0.0
C1616 C 0.53768 0.05845 0.85591 0.0
H1617 H 0.50345 0.03761 0.90192 0.0
H1618 H 0.53788 0.02496 0.87422 0.0
C1619 C 0.52644 0.08174 0.85533 0.0
C1620 C 0.33066 0.28007 0.3873 0.0
C1621 C 0.33326 0.2699 0.36305 0.0
H1622 H 0.32526 0.27281 0.42327 0.0
C1623 C 0.33396 0.24315 0.35722 0.0
H1624 H 0.33067 0.30057 0.39275 0.0
C1625 C 0.33171 0.22706 0.37512 0.0
C1626 C 0.32857 0.23728 0.39932 0.0
H1627 H 0.33583 0.23455 0.33877 0.0
H1628 H 0.33258 0.20663 0.36994 0.0
C1629 C 0.32807 0.26405 0.40504 0.0
C1630 C 0.53302 0.52274 0.93104 0.0
C1631 C 0.54208 0.49839 0.9316 0.0
H1632 H 0.51044 0.54637 0.91177 0.0
C1633 C 0.53367 0.4785 0.91282 0.0
H1634 H 0.53895 0.53845 0.94529 0.0
C1635 C 0.51714 0.48296 0.89374 0.0
C1636 C 0.50862 0.50746 0.89284 0.0
H1637 H 0.5405 0.45959 0.91242 0.0
H1638 H 0.51116 0.46717 0.87959 0.0
C1639 C 0.51648 0.52722 0.91192 0.0
C1640 C 0.78579 0.77852 0.15523 0.0
C1641 C 0.7898 0.76559 0.17514 0.0
H1642 H 0.7819 0.77575 0.11677 0.0
C1643 C 0.79303 0.73916 0.1709 0.0
H1644 H 0.78296 0.79879 0.15778 0.0
C1645 C 0.79208 0.72598 0.14751 0.0
C1646 C 0.78816 0.73889 0.12765 0.0
H1647 H 0.79686 0.72863 0.18566 0.0
H1648 H 0.79504 0.70572 0.14495 0.0
C1649 C 0.78511 0.76533 0.13173 0.0
C1650 C 0.03556 0.01414 0.14232 0.0
C1651 C 0.05185 0.03675 0.14047 0.0
H1652 H 1.00753 0.99476 0.16304 0.0
C1653 C 0.05231 0.05749 0.15924 0.0
H1654 H 0.03464 0.99783 0.12819 0.0
C1655 C 0.03652 0.05587 0.17908 0.0
C1656 C 0.01988 0.03343 0.18077 0.0
H1657 H 0.06496 0.07505 0.15867 0.0
H1658 H 0.03702 0.07245 0.19288 0.0
C1659 C 0.01977 1.0125 0.1622 0.0
C1660 C 0.28614 0.78899 0.17032 0.0
C1661 C 0.29426 0.8061 0.19132 0.0
H1662 H 0.27715 0.78456 0.13225 0.0
C1663 C 0.30183 0.83198 0.18927 0.0
H1664 H 0.28007 0.76897 0.17128 0.0
C1665 C 0.29995 0.84087 0.1671 0.0
C1666 C 0.29067 0.8241 0.14631 0.0
H1667 H 0.30885 0.84555 0.20494 0.0
H1668 H 0.30547 0.86103 0.16628 0.0
C1669 C 0.28442 0.79791 0.14799 0.0
C1670 C 0.03402 0.48939 0.10362 0.0
C1671 C 0.0243 0.51213 0.09805 0.0
H1672 H 0.05526 0.4713 0.12906 0.0
C1673 C 0.02733 0.5341 0.11559 0.0
H1674 H 0.03174 0.472 0.0907 0.0
C1675 C 0.04042 0.53356 0.13777 0.0
C1676 C 0.05104 0.51112 0.143 0.0
H1677 H 0.02038 0.55204 0.11194 0.0
H1678 H 0.04247 0.55092 0.15074 0.0
C1679 C 0.04727 0.48891 0.12578 0.0
C1680 C 0.37737 0.74245 0.29891 0.0
C1681 C 0.36762 0.72046 0.28288 0.0
H1682 H 0.40723 0.75975 0.32542 0.0
C1683 C 0.38174 0.69854 0.28147 0.0
H1684 H 0.36691 0.75959 0.30078 0.0
C1685 C 0.40458 0.69841 0.29615 0.0
C1686 C 0.414 0.72024 0.31252 0.0
H1687 H 0.37503 0.68135 0.26914 0.0
H1688 H 0.4145 0.68096 0.29501 0.0
C1689 C 0.4003 0.74238 0.31342 0.0
C1690 C 0.0229 0.41078 0.97934 0.0
C1691 C 0.04479 0.42828 0.97626 0.0
H1692 H 1.00558 0.3717 0.97257 0.0
C1693 C 0.06732 0.4188 0.96547 0.0
H1694 H 1.00513 0.41746 0.98737 0.0
C1695 C 0.06746 0.39271 0.95684 0.0
C1696 C 0.04515 0.37541 0.95894 0.0
H1697 H 0.08474 0.43165 0.9633 0.0
H1698 H 0.08494 0.3861 0.9482 0.0
C1699 C 0.02311 0.38458 0.97081 0.0
C1700 C 0.69761 0.76136 0.29293 0.0
C1701 C 0.71542 0.74269 0.29481 0.0
H1702 H 0.65916 0.77356 0.3005 0.0
C1703 C 0.70672 0.72066 0.30495 0.0
H1704 H 0.70362 0.77865 0.28537 0.0
C1705 C 0.68144 0.71804 0.31418 0.0
C1706 C 0.66403 0.73724 0.31328 0.0
H1707 H 0.7197 0.70564 0.30629 0.0
H1708 H 0.67605 0.70139 0.3229 0.0
C1709 C 0.6722 0.75861 0.30196 0.0
C1710 C 0.10788 0.14175 0.01813 0.0
C1711 C 0.08818 0.128 0.02955 0.0
H1712 H 0.11706 0.16355 0.98966 0.0
C1713 C 0.06226 0.12375 0.01913 0.0
H1714 H 0.1281 0.14503 0.02563 0.0
C1715 C 0.05577 0.13469 0.9986 0.0
C1716 C 0.07516 0.14997 0.98814 0.0
H1717 H 0.04668 0.11332 0.02768 0.0
H1718 H 0.03531 0.13239 0.99178 0.0
C1719 C 0.10149 0.15249 0.99763 0.0
C1720 C 0.38842 0.31953 0.28148 0.0
C1721 C 0.37387 0.29791 0.28844 0.0
H1722 H 0.41805 0.33377 0.25894 0.0
C1723 C 0.3786 0.27337 0.27694 0.0
H1724 H 0.38596 0.33873 0.29023 0.0
C1725 C 0.39745 0.27056 0.25922 0.0
C1726 C 0.41187 0.29221 0.25232 0.0
H1727 H 0.3676 0.25627 0.28148 0.0
H1728 H 0.40057 0.25141 0.25071 0.0
C1729 C 0.40699 0.31672 0.26357 0.0
C1730 C 0.58496 0.37672 0.03794 0.0
C1731 C 0.57037 0.39567 0.03 0.0
H1732 H 0.58767 0.34898 0.06206 0.0
C1733 C 0.54837 0.40327 0.04305 0.0
H1734 H 0.60236 0.37081 0.02871 0.0
C1735 C 0.54016 0.39089 0.06254 0.0
C1736 C 0.55371 0.37063 0.06912 0.0
H1737 H 0.53666 0.41773 0.03739 0.0
H1738 H 0.52244 0.39617 0.0716 0.0
C1739 C 0.57662 0.36424 0.05708 0.0
C1740 C 0.69658 0.24689 0.21438 0.0
C1741 C 0.70348 0.25335 0.23907 0.0
H1742 H 0.66686 0.24542 0.18619 0.0
C1743 C 0.68388 0.26191 0.25472 0.0
H1744 H 0.71085 0.23951 0.20186 0.0
C1745 C 0.65835 0.26498 0.24565 0.0
C1746 C 0.65209 0.25972 0.22079 0.0
H1747 H 0.68853 0.26712 0.27381 0.0
H1748 H 0.64385 0.27233 0.25794 0.0
C1749 C 0.67132 0.25019 0.20536 0.0
C1750 C 0.49075 0.12619 0.02965 0.0
C1751 C 0.46544 0.11268 0.02913 0.0
H1752 H 0.51806 0.1567 0.04769 0.0
C1753 C 0.44801 0.12015 0.04729 0.0
H1754 H 0.50473 0.12076 0.01607 0.0
C1755 C 0.45555 0.14083 0.06531 0.0
C1756 C 0.48074 0.15459 0.0657 0.0
H1757 H 0.42817 0.11049 0.04718 0.0
H1758 H 0.44129 0.14648 0.07856 0.0
C1759 C 0.49834 0.14684 0.04775 0.0
C1760 C 0.32983 0.35344 0.75557 0.0
C1761 C 0.31457 0.34634 0.7339 0.0
H1762 H 0.35382 0.38312 0.77846 0.0
C1763 C 0.31182 0.36496 0.71857 0.0
H1764 H 0.33301 0.33953 0.76756 0.0
C1765 C 0.32412 0.38998 0.72476 0.0
C1766 C 0.33924 0.39699 0.74648 0.0
H1767 H 0.30001 0.36027 0.70188 0.0
H1768 H 0.3216 0.40393 0.71265 0.0
C1769 C 0.34187 0.37845 0.76183 0.0
C1770 C 0.32932 0.68454 0.79729 0.0
C1771 C 0.31216 0.6869 0.81662 0.0
H1772 H 0.35735 0.66235 0.77799 0.0
C1773 C 0.3116 0.6682 0.83226 0.0
H1774 H 0.3311 0.69885 0.78524 0.0
C1775 C 0.32737 0.64759 0.8284 0.0
C1776 C 0.34371 0.64496 0.8086 0.0
H1777 H 0.29852 0.6691 0.84718 0.0
H1778 H 0.32621 0.63328 0.84048 0.0
C1779 C 0.34462 0.66371 0.79319 0.0
C1780 C 0.91152 0.50104 0.49239 0.0
C1781 C 0.9135 0.52499 0.50727 0.0
H1782 H 0.89185 0.46312 0.48444 0.0
C1783 C 0.89744 0.52773 0.52732 0.0
H1784 H 0.92381 0.49786 0.47703 0.0
C1785 C 0.87983 0.50732 0.5322 0.0
C1786 C 0.87711 0.48368 0.51684 0.0
H1787 H 0.89785 0.54585 0.53908 0.0
H1788 H 0.86822 0.5103 0.54803 0.0
C1789 C 0.89341 0.4808 0.49694 0.0
C1790 C 0.74109 0.88348 0.80221 0.0
C1791 C 0.76505 0.89714 0.81182 0.0
H1792 H 0.70372 0.88501 0.7835 0.0
C1793 C 0.77079 0.92263 0.80763 0.0
H1794 H 0.73612 0.86386 0.80534 0.0
C1795 C 0.75239 0.9347 0.79522 0.0
C1796 C 0.72767 0.92164 0.78681 0.0
H1797 H 0.78914 0.93358 0.81483 0.0
H1798 H 0.757 0.95476 0.79341 0.0
C1799 C 0.72248 0.89567 0.78994 0.0
C1800 C 0.6421 0.53039 1.00033 0.0
C1801 C 0.62878 0.52518 0.97759 0.0
H1802 H 0.6752 0.55076 0.02177 0.0
C1803 C 0.63944 0.53718 0.95869 0.0
H1804 H 0.63445 0.52153 0.01529 0.0
C1805 C 0.66254 0.5541 0.96244 0.0
C1806 C 0.67586 0.55943 0.98516 0.0
H1807 H 0.63009 0.53328 0.94079 0.0
H1808 H 0.66981 0.56322 0.94749 0.0
C1809 C 0.66533 0.54735 1.00409 0.0
C1810 C 0.27514 0.66363 0.27569 0.0
C1811 C 0.27804 0.67581 0.25509 0.0
H1812 H 0.25397 0.63437 0.29229 0.0
C1813 C 0.26111 0.66688 0.23476 0.0
H1814 H 0.28742 0.67039 0.29186 0.0
C1815 C 0.24182 0.64615 0.23502 0.0
C1816 C 0.23902 0.63394 0.25563 0.0
H1817 H 0.26296 0.67574 0.21856 0.0
H1818 H 0.22934 0.63949 0.21896 0.0
C1819 C 0.25591 0.64297 0.27596 0.0
C1820 C 0.93779 0.54786 0.05696 0.0
C1821 C 0.96074 0.54844 0.04348 0.0
H1822 H 0.89973 0.5619 0.06304 0.0
C1823 C 0.96283 0.56473 0.02571 0.0
H1824 H 0.93551 0.53545 0.0707 0.0
C1825 C 0.94227 0.57957 0.02109 0.0
C1826 C 0.91907 0.57871 0.03422 0.0
H1827 H 0.9804 0.56598 0.01523 0.0
H1828 H 0.9444 0.59135 1.00684 0.0
C1829 C 0.91716 0.56279 0.05235 0.0
C1830 C 0.11828 0.99293 0.05586 0.0
C1831 C 0.11592 1.00101 0.08059 0.0
H1832 H 0.13845 0.97 0.02879 0.0
C1833 C 0.13192 0.99097 0.09719 0.0
H1834 H 0.10617 1.00035 0.04268 0.0
C1835 C 0.15052 0.97397 0.08926 0.0
C1836 C 0.15329 0.96631 0.06457 0.0
H1837 H 0.13079 0.99703 0.11633 0.0
H1838 H 0.16305 0.96707 0.10247 0.0
C1839 C 0.13661 0.97551 0.04793 0.0
loop_
_geom_bond_atom_site_label_1
_geom_bond_atom_site_label_2
_geom_bond_distance
_geom_bond_site_symmetry_2
_ccdc_geom_bond_type
H0 C1 0.949 . S
C1 H0 0.949 . S
C1 C2 1.395 . S
C1 C3 1.391 . S
C2 C1 1.395 . S
C2 C5 1.390 . S
C3 C1 1.391 . S
C3 C7 1.387 . S
C3 C8 1.491 . S
H4 C5 0.950 1_565 S
C5 C2 1.390 . S
C5 H4 0.950 1_545 S
C5 C6 1.378 . S
C6 C5 1.378 . S
C6 C7 1.409 . S
C7 C3 1.387 . S
C7 C6 1.409 . S
C7 H9 0.951 . S
C8 C3 1.491 . S
C8 C10 1.382 . S
C8 C12 1.404 . S
H9 C7 0.951 . S
C10 C8 1.382 . S
C10 C11 1.390 1_554 S
C10 H15 0.949 . S
C11 C10 1.390 1_556 S
C11 C16 1.399 1_556 S
C12 C8 1.404 . S
C12 H13 0.950 . S
C12 C14 1.375 . S
H13 C12 0.950 . S
C14 C12 1.375 . S
C14 C16 1.382 . S
C14 H18 0.950 . S
H15 C10 0.949 . S
C16 C11 1.399 1_554 S
C16 C14 1.382 . S
C16 H17 0.952 . S
H17 C16 0.952 . S
H18 C14 0.950 . S
H19 C20 0.949 . S
C20 H19 0.949 . S
C20 C21 1.395 . S
C20 C22 1.391 . S
C21 C20 1.395 . S
C21 C24 1.390 . S
C22 C20 1.391 . S
C22 C26 1.387 . S
C22 C27 1.491 . S
H23 C24 0.950 . S
C24 C21 1.390 . S
C24 H23 0.950 . S
C24 C25 1.378 . S
C25 C24 1.378 . S
C25 C26 1.409 . S
C26 C22 1.387 . S
C26 C25 1.409 . S
C26 H28 0.951 . S
C27 C22 1.491 . S
C27 C29 1.382 . S
C27 C31 1.404 . S
H28 C26 0.951 . S
C29 C27 1.382 . S
C29 C30 1.390 . S
C29 H34 0.949 . S
C30 C29 1.390 . S
C30 C35 1.399 . S
C31 C27 1.404 . S
C31 H32 0.950 . S
C31 C33 1.375 . S
H32 C31 0.950 . S
C33 C31 1.375 . S
C33 C35 1.382 . S
C33 H37 0.950 . S
H34 C29 0.949 . S
C35 C30 1.399 . S
C35 C33 1.382 . S
C35 H36 0.952 . S
H36 C35 0.952 . S
H37 C33 0.950 . S
H38 C39 0.949 . S
C39 H38 0.949 . S
C39 C40 1.395 . S
C39 C41 1.391 1_455 S
C40 C39 1.395 . S
C40 C43 1.390 1_455 S
C41 C39 1.391 1_655 S
C41 C45 1.387 . S
C41 C46 1.487 1_654 S
H42 C43 0.950 . S
C43 C40 1.390 1_655 S
C43 H42 0.950 . S
C43 C44 1.378 . S
C44 C43 1.378 . S
C44 C45 1.409 . S
C45 C41 1.387 . S
C45 C44 1.409 . S
C45 H47 0.951 1_554 S
C46 C41 1.487 1_456 S
C46 C48 1.387 . S
C46 C50 1.404 . S
H47 C45 0.951 1_556 S
C48 C46 1.387 . S
C48 C49 1.390 . S
C48 H53 0.949 1_556 S
C49 C48 1.390 . S
C49 C54 1.399 . S
C50 C46 1.404 . S
C50 H51 0.947 1_455 S
C50 C52 1.378 . S
H51 C50 0.947 1_655 S
C52 C50 1.378 . S
C52 C54 1.382 . S
C52 H56 0.950 . S
H53 C48 0.949 1_554 S
C54 C49 1.399 . S
C54 C52 1.382 . S
C54 H55 0.952 . S
H55 C54 0.952 . S
H56 C52 0.950 . S
H57 C58 0.949 . S
C58 H57 0.949 . S
C58 C59 1.395 . S
C58 C60 1.391 . S
C59 C58 1.395 . S
C59 C62 1.390 . S
C60 C58 1.391 . S
C60 C64 1.387 . S
C60 C65 1.491 . S
H61 C62 0.950 . S
C62 C59 1.390 . S
C62 H61 0.950 . S
C62 C63 1.378 . S
C63 C62 1.378 . S
C63 C64 1.409 . S
C64 C60 1.387 . S
C64 C63 1.409 . S
C64 H66 0.951 . S
C65 C60 1.491 . S
C65 C67 1.382 . S
C65 C69 1.404 . S
H66 C64 0.951 . S
C67 C65 1.382 . S
C67 C68 1.390 . S
C67 H72 0.949 . S
C68 C67 1.390 . S
C68 C73 1.399 . S
C69 C65 1.404 . S
C69 H70 0.950 . S
C69 C71 1.375 . S
H70 C69 0.950 . S
C71 C69 1.375 . S
C71 C73 1.382 . S
C71 H75 0.950 . S
H72 C67 0.949 . S
C73 C68 1.399 . S
C73 C71 1.382 . S
C73 H74 0.952 . S
H74 C73 0.952 . S
H75 C71 0.950 . S
H76 C77 0.949 . S
C77 H76 0.949 . S
C77 C78 1.395 . S
C77 C79 1.391 . S
C78 C77 1.395 . S
C78 C81 1.380 1_565 S
C79 C77 1.391 . S
C79 C83 1.387 . S
C79 C84 1.491 . S
H80 C81 0.972 . S
C81 C78 1.380 1_545 S
C81 H80 0.972 . S
C81 C82 1.367 1_545 S
C82 C81 1.367 1_565 S
C82 C83 1.409 . S
C83 C79 1.387 . S
C83 C82 1.409 . S
C83 H85 0.951 . S
C84 C79 1.491 . S
C84 C86 1.382 . S
C84 C88 1.404 . S
H85 C83 0.951 . S
C86 C84 1.382 . S
C86 C87 1.390 . S
C86 H91 0.949 . S
C87 C86 1.390 . S
C87 C92 1.399 . S
C88 C84 1.404 . S
C88 H89 0.950 . S
C88 C90 1.375 . S
H89 C88 0.950 . S
C90 C88 1.375 . S
C90 C92 1.382 . S
C90 H94 0.950 . S
H91 C86 0.949 . S
C92 C87 1.399 . S
C92 C90 1.382 . S
C92 H93 0.952 . S
H93 C92 0.952 . S
H94 C90 0.950 . S
H95 C96 0.949 . S
C96 H95 0.949 . S
C96 C97 1.395 . S
C96 C98 1.391 . S
C97 C96 1.395 . S
C97 C100 1.390 . S
C98 C96 1.391 . S
C98 C102 1.387 . S
C98 C103 1.491 . S
H99 C100 0.950 . S
C100 C97 1.390 . S
C100 H99 0.950 . S
C100 C101 1.378 . S
C101 C100 1.378 . S
C101 C102 1.409 . S
C102 C98 1.387 . S
C102 C101 1.409 . S
C102 H104 0.951 . S
C103 C98 1.491 . S
C103 C105 1.382 . S
C103 C107 1.404 . S
H104 C102 0.951 . S
C105 C103 1.382 . S
C105 C106 1.390 . S
C105 H110 0.949 . S
C106 C105 1.390 . S
C106 C111 1.399 . S
C107 C103 1.404 . S
C107 H108 0.950 . S
C107 C109 1.375 . S
H108 C107 0.950 . S
C109 C107 1.375 . S
C109 C111 1.382 . S
C109 H113 0.950 . S
H110 C105 0.949 . S
C111 C106 1.399 . S
C111 C109 1.382 . S
C111 H112 0.952 . S
H112 C111 0.952 . S
H113 C109 0.950 . S
H114 C115 0.949 . S
C115 H114 0.949 . S
C115 C116 1.395 . S
C115 C117 1.391 . S
C116 C115 1.395 . S
C116 C119 1.390 . S
C117 C115 1.391 . S
C117 C121 1.387 . S
C117 C122 1.491 . S
H118 C119 0.950 . S
C119 C116 1.390 . S
C119 H118 0.950 . S
C119 C120 1.378 . S
C120 C119 1.378 . S
C120 C121 1.409 . S
C121 C117 1.387 . S
C121 C120 1.409 . S
C121 H123 0.951 . S
C122 C117 1.491 . S
C122 C124 1.359 1_655 S
C122 C126 1.404 . S
H123 C121 0.951 . S
C124 C122 1.359 1_455 S
C124 C125 1.398 . S
C124 H129 0.964 . S
C125 C124 1.398 . S
C125 C130 1.399 1_455 S
C126 C122 1.404 . S
C126 H127 0.950 . S
C126 C128 1.375 . S
H127 C126 0.950 . S
C128 C126 1.375 . S
C128 C130 1.382 . S
C128 H132 0.950 . S
H129 C124 0.964 . S
C130 C125 1.399 1_655 S
C130 C128 1.382 . S
C130 H131 0.952 . S
H131 C130 0.952 . S
H132 C128 0.950 . S
H133 C134 0.949 . S
C134 H133 0.949 . S
C134 C135 1.395 . S
C134 C136 1.391 . S
C135 C134 1.395 . S
C135 C138 1.390 . S
C136 C134 1.391 . S
C136 C140 1.387 . S
C136 C141 1.491 . S
H137 C138 0.950 . S
C138 C135 1.390 . S
C138 H137 0.950 . S
C138 C139 1.378 . S
C139 C138 1.378 . S
C139 C140 1.409 . S
C140 C136 1.387 . S
C140 C139 1.409 . S
C140 H142 0.951 . S
C141 C136 1.491 . S
C141 C143 1.382 . S
C141 C145 1.404 . S
H142 C140 0.951 . S
C143 C141 1.382 . S
C143 C144 1.390 . S
C143 H148 0.949 . S
C144 C143 1.390 . S
C144 C149 1.399 . S
C145 C141 1.404 . S
C145 H146 0.950 . S
C145 C147 1.375 . S
H146 C145 0.950 . S
C147 C145 1.375 . S
C147 C149 1.382 . S
C147 H151 0.950 . S
H148 C143 0.949 . S
C149 C144 1.399 . S
C149 C147 1.382 . S
C149 H150 0.952 . S
H150 C149 0.952 . S
H151 C147 0.950 . S
H152 C153 0.949 . S
C153 H152 0.949 . S
C153 C154 1.395 . S
C153 C155 1.391 . S
C154 C153 1.395 . S
C154 C157 1.390 . S
C155 C153 1.391 . S
C155 C159 1.387 . S
C155 C160 1.491 . S
H156 C157 0.950 . S
C157 C154 1.390 . S
C157 H156 0.950 . S
C157 C158 1.378 . S
C158 C157 1.378 . S
C158 C159 1.409 . S
C159 C155 1.387 . S
C159 C158 1.409 . S
C159 H161 0.951 . S
C160 C155 1.491 . S
C160 C162 1.382 . S
C160 C164 1.404 . S
H161 C159 0.951 . S
C162 C160 1.382 . S
C162 C163 1.390 . S
C162 H167 0.949 . S
C163 C162 1.390 . S
C163 C168 1.399 . S
C164 C160 1.404 . S
C164 H165 0.950 . S
C164 C166 1.375 . S
H165 C164 0.950 . S
C166 C164 1.375 . S
C166 C168 1.382 . S
C166 H170 0.950 . S
H167 C162 0.949 . S
C168 C163 1.399 . S
C168 C166 1.382 . S
C168 H169 0.952 . S
H169 C168 0.952 . S
H170 C166 0.950 . S
H171 C172 0.949 . S
C172 H171 0.949 . S
C172 C173 1.395 . S
C172 C174 1.391 . S
C173 C172 1.395 . S
C173 C176 1.390 1_565 S
C174 C172 1.391 . S
C174 C178 1.387 . S
C174 C179 1.491 . S
H175 C176 0.950 . S
C176 C173 1.390 1_545 S
C176 H175 0.950 . S
C176 C177 1.378 . S
C177 C176 1.378 . S
C177 C178 1.409 1_545 S
C178 C174 1.387 . S
C178 C177 1.409 1_565 S
C178 H180 0.951 . S
C179 C174 1.491 . S
C179 C181 1.382 . S
C179 C183 1.404 . S
H180 C178 0.951 . S
C181 C179 1.382 . S
C181 C182 1.390 . S
C181 H186 0.949 . S
C182 C181 1.390 . S
C182 C187 1.399 . S
C183 C179 1.404 . S
C183 H184 0.950 . S
C183 C185 1.375 . S
H184 C183 0.950 . S
C185 C183 1.375 . S
C185 C187 1.382 . S
C185 H189 0.950 . S
H186 C181 0.949 . S
C187 C182 1.399 . S
C187 C185 1.382 . S
C187 H188 0.952 . S
H188 C187 0.952 . S
H189 C185 0.950 . S
H190 C191 0.949 . S
C191 H190 0.949 . S
C191 C192 1.395 . S
C191 C193 1.391 . S
C192 C191 1.395 . S
C192 C195 1.390 . S
C193 C191 1.391 . S
C193 C197 1.387 . S
C193 C198 1.491 . S
H194 C195 0.950 . S
C195 C192 1.390 . S
C195 H194 0.950 . S
C195 C196 1.378 . S
C196 C195 1.378 . S
C196 C197 1.409 . S
C197 C193 1.387 . S
C197 C196 1.409 . S
C197 H199 0.951 . S
C198 C193 1.491 . S
C198 C200 1.382 . S
C198 C202 1.404 . S
H199 C197 0.951 . S
C200 C198 1.382 . S
C200 C201 1.390 . S
C200 H205 0.949 . S
C201 C200 1.390 . S
C201 C206 1.399 . S
C202 C198 1.404 . S
C202 H203 0.950 . S
C202 C204 1.375 . S
H203 C202 0.950 . S
C204 C202 1.375 . S
C204 C206 1.382 . S
C204 H208 0.950 . S
H205 C200 0.949 . S
C206 C201 1.399 . S
C206 C204 1.382 . S
C206 H207 0.952 . S
H207 C206 0.952 . S
H208 C204 0.950 . S
H209 C210 0.949 . S
C210 H209 0.949 . S
C210 C211 1.395 . S
C210 C212 1.391 . S
C211 C210 1.395 . S
C211 C214 1.390 . S
C212 C210 1.391 . S
C212 C216 1.387 . S
C212 C217 1.491 . S
H213 C214 0.950 . S
C214 C211 1.390 . S
C214 H213 0.950 . S
C214 C215 1.378 . S
C215 C214 1.378 . S
C215 C216 1.409 . S
C216 C212 1.387 . S
C216 C215 1.409 . S
C216 H218 0.951 . S
C217 C212 1.491 . S
C217 C219 1.382 . S
C217 C221 1.404 . S
H218 C216 0.951 . S
C219 C217 1.382 . S
C219 C220 1.390 . S
C219 H224 0.949 . S
C220 C219 1.390 . S
C220 C225 1.399 . S
C221 C217 1.404 . S
C221 H222 0.950 . S
C221 C223 1.375 . S
H222 C221 0.950 . S
C223 C221 1.375 . S
C223 C225 1.382 . S
C223 H227 0.950 . S
H224 C219 0.949 . S
C225 C220 1.399 . S
C225 C223 1.382 . S
C225 H226 0.952 . S
H226 C225 0.952 . S
H227 C223 0.950 . S
H228 C229 0.949 . S
C229 H228 0.949 . S
C229 C230 1.395 . S
C229 C231 1.391 . S
C230 C229 1.395 . S
C230 C233 1.390 . S
C231 C229 1.391 . S
C231 C235 1.387 . S
C231 C236 1.491 . S
H232 C233 0.950 . S
C233 C230 1.390 . S
C233 H232 0.950 . S
C233 C234 1.378 . S
C234 C233 1.378 . S
C234 C235 1.409 . S
C235 C231 1.387 . S
C235 C234 1.409 . S
C235 H237 0.951 . S
C236 C231 1.491 . S
C236 C238 1.382 . S
C236 C240 1.404 . S
H237 C235 0.951 . S
C238 C236 1.382 . S
C238 C239 1.390 . S
C238 H243 0.949 . S
C239 C238 1.390 . S
C239 C244 1.399 . S
C240 C236 1.404 . S
C240 H241 0.950 . S
C240 C242 1.375 . S
H241 C240 0.950 . S
C242 C240 1.375 . S
C242 C244 1.382 . S
C242 H246 0.950 . S
H243 C238 0.949 . S
C244 C239 1.399 . S
C244 C242 1.382 . S
C244 H245 0.952 . S
H245 C244 0.952 . S
H246 C242 0.950 . S
H247 C248 0.923 1_554 S
C248 H247 0.923 1_556 S
C248 C249 1.412 . S
C248 C250 1.400 . S
C249 C248 1.412 . S
C249 C252 1.390 . S
C250 C248 1.400 . S
C250 C254 1.387 . S
C250 C255 1.491 . S
H251 C252 0.950 . S
C252 C249 1.390 . S
C252 H251 0.950 . S
C252 C253 1.378 . S
C253 C252 1.378 . S
C253 C254 1.409 . S
C254 C250 1.387 . S
C254 C253 1.409 . S
C254 H256 0.951 . S
C255 C250 1.491 . S
C255 C257 1.382 1_556 S
C255 C259 1.404 . S
H256 C254 0.951 . S
C257 C255 1.382 1_554 S
C257 C258 1.390 . S
C257 H262 0.949 . S
C258 C257 1.390 . S
C258 C263 1.399 . S
C259 C255 1.404 . S
C259 H260 0.950 . S
C259 C261 1.375 . S
H260 C259 0.950 . S
C261 C259 1.375 . S
C261 C263 1.382 1_556 S
C261 H265 0.950 . S
H262 C257 0.949 . S
C263 C258 1.399 . S
C263 C261 1.382 1_554 S
C263 H264 0.952 . S
H264 C263 0.952 . S
H265 C261 0.950 . S
H266 C267 0.949 . S
C267 H266 0.949 . S
C267 C268 1.395 . S
C267 C269 1.391 . S
C268 C267 1.395 . S
C268 C271 1.390 . S
C269 C267 1.391 . S
C269 C273 1.387 . S
C269 C274 1.491 . S
H270 C271 0.950 . S
C271 C268 1.390 . S
C271 H270 0.950 . S
C271 C272 1.378 . S
C272 C271 1.378 . S
C272 C273 1.409 . S
C273 C269 1.387 . S
C273 C272 1.409 . S
C273 H275 0.951 . S
C274 C269 1.491 . S
C274 C276 1.382 . S
C274 C278 1.404 . S
H275 C273 0.951 . S
C276 C274 1.382 . S
C276 C277 1.390 . S
C276 H281 0.949 . S
C277 C276 1.390 . S
C277 C282 1.399 . S
C278 C274 1.404 . S
C278 H279 0.950 . S
C278 C280 1.375 . S
H279 C278 0.950 . S
C280 C278 1.375 . S
C280 C282 1.382 . S
C280 H284 0.950 . S
H281 C276 0.949 . S
C282 C277 1.399 . S
C282 C280 1.382 . S
C282 H283 0.952 . S
H283 C282 0.952 . S
H284 C280 0.950 . S
H285 C286 0.949 . S
C286 H285 0.949 . S
C286 C287 1.395 . S
C286 C288 1.391 . S
C287 C286 1.395 . S
C287 C290 1.390 . S
C288 C286 1.391 . S
C288 C292 1.387 . S
C288 C293 1.491 . S
H289 C290 0.950 1_554 S
C290 C287 1.390 . S
C290 H289 0.950 1_556 S
C290 C291 1.378 . S
C291 C290 1.378 . S
C291 C292 1.409 . S
C292 C288 1.387 . S
C292 C291 1.409 . S
C292 H294 0.951 . S
C293 C288 1.491 . S
C293 C295 1.382 . S
C293 C297 1.404 . S
H294 C292 0.951 . S
C295 C293 1.382 . S
C295 C296 1.390 . S
C295 H300 0.949 . S
C296 C295 1.390 . S
C296 C301 1.399 . S
C297 C293 1.404 . S
C297 H298 0.950 . S
C297 C299 1.375 . S
H298 C297 0.950 . S
C299 C297 1.375 . S
C299 C301 1.382 . S
C299 H303 0.950 . S
H300 C295 0.949 . S
C301 C296 1.399 . S
C301 C299 1.382 . S
C301 H302 0.952 . S
H302 C301 0.952 . S
H303 C299 0.950 . S
Li304 N321 1.990 . S
Li304 O364 1.956 . S
Li304 O365 1.970 . S
Li304 O366 1.961 . S
Li305 N329 1.990 . S
Li305 O364 1.970 . S
Li305 O365 1.956 . S
Li305 O367 1.961 . S
Li306 N351 1.990 1_554 S
Li306 O364 1.961 . S
Li306 O366 1.956 . S
Li306 O367 1.970 . S
Li307 N357 1.990 . S
Li307 O365 1.961 . S
Li307 O366 1.970 . S
Li307 O367 1.956 . S
C308 C310 1.348 . S
C308 C311 1.356 . S
C308 O364 1.325 . S
N309 C312 1.314 . S
N309 C313 1.279 . S
C310 C308 1.348 . S
C310 C312 1.353 . S
C310 H368 0.929 . S
C311 C308 1.356 . S
C311 C313 1.358 . S
C311 H369 0.930 1_554 S
C312 N309 1.314 . S
C312 C310 1.353 . S
C312 H370 0.930 . S
C313 N309 1.279 . S
C313 C311 1.358 . S
C313 H371 0.930 1_554 S
C314 C317 1.348 . S
C314 C318 1.356 . S
C314 O365 1.325 . S
C315 N316 1.279 . S
C315 C318 1.358 . S
C315 H372 0.930 . S
N316 C315 1.279 . S
N316 C319 1.314 . S
C317 C314 1.348 . S
C317 C319 1.353 . S
C317 H373 0.929 . S
C318 C314 1.356 . S
C318 C315 1.358 . S
C318 H374 0.930 . S
C319 N316 1.314 . S
C319 C317 1.353 . S
C319 H375 0.930 . S
C320 N321 1.314 . S
C320 C325 1.353 . S
C320 H326 0.930 . S
N321 Li304 1.990 . S
N321 C320 1.314 . S
N321 C323 1.279 . S
C322 C323 1.358 . S
C322 C324 1.356 . S
C322 H376 0.930 . S
C323 N321 1.279 . S
C323 C322 1.358 . S
C323 H327 0.930 . S
C324 C322 1.356 . S
C324 C325 1.348 . S
C325 C320 1.353 . S
C325 C324 1.348 . S
C325 H377 0.929 . S
H326 C320 0.930 . S
H327 C323 0.930 . S
C328 N329 1.314 . S
C328 C330 1.353 . S
C328 H334 0.930 . S
N329 Li305 1.990 . S
N329 C328 1.314 . S
N329 C332 1.279 . S
C330 C328 1.353 . S
C330 C333 1.348 . S
C330 H378 0.929 . S
C331 C332 1.358 . S
C331 C333 1.356 . S
C331 H379 0.930 . S
C332 N329 1.279 . S
C332 C331 1.358 . S
C332 H335 0.930 . S
C333 C330 1.348 . S
C333 C331 1.356 . S
H334 C328 0.930 . S
H335 C332 0.930 . S
C336 C338 1.348 . S
C336 C339 1.356 . S
C336 O366 1.325 1_556 S
N337 C340 1.314 . S
N337 C341 1.279 . S
C338 C336 1.348 . S
C338 C340 1.353 . S
C338 H380 0.929 . S
C339 C336 1.356 . S
C339 C341 1.358 . S
C339 H381 0.930 . S
C340 N337 1.314 . S
C340 C338 1.353 . S
C340 H382 0.930 . S
C341 N337 1.279 . S
C341 C339 1.358 . S
C341 H383 0.930 . S
C342 C343 1.348 . S
C342 C344 1.356 . S
C342 O367 1.325 . S
C343 C342 1.348 . S
C343 C345 1.353 . S
C343 H384 0.929 . S
C344 C342 1.356 . S
C344 C346 1.358 . S
C344 H385 0.930 . S
C345 C343 1.353 . S
C345 N347 1.314 . S
C345 H386 0.930 . S
C346 C344 1.358 . S
C346 N347 1.279 . S
C346 H387 0.930 . S
N347 C345 1.314 . S
N347 C346 1.279 . S
C348 C350 1.353 . S
C348 N351 1.314 . S
C348 H354 0.930 . S
C349 N351 1.279 . S
C349 C352 1.358 . S
C349 H355 0.930 . S
C350 C348 1.353 . S
C350 C353 1.348 . S
C350 H388 0.929 . S
N351 Li306 1.990 1_556 S
N351 C348 1.314 . S
N351 C349 1.279 . S
C352 C349 1.358 . S
C352 C353 1.356 . S
C352 H389 0.930 . S
C353 C350 1.348 . S
C353 C352 1.356 . S
H354 C348 0.930 . S
H355 C349 0.930 . S
C356 N357 1.314 . S
C356 C358 1.353 . S
C356 H362 0.930 . S
N357 Li307 1.990 . S
N357 C356 1.314 . S
N357 C360 1.279 . S
C358 C356 1.353 . S
C358 C361 1.348 . S
C358 H390 0.929 . S
C359 C360 1.358 . S
C359 C361 1.356 . S
C359 H391 0.930 . S
C360 N357 1.279 . S
C360 C359 1.358 . S
C360 H363 0.930 . S
C361 C358 1.348 . S
C361 C359 1.356 . S
H362 C356 0.930 . S
H363 C360 0.930 . S
O364 Li304 1.956 . S
O364 Li305 1.970 . S
O364 Li306 1.961 . S
O364 C308 1.325 . S
O365 Li304 1.970 . S
O365 Li305 1.956 . S
O365 Li307 1.961 . S
O365 C314 1.325 . S
O366 Li304 1.961 . S
O366 Li306 1.956 . S
O366 Li307 1.970 . S
O366 C336 1.325 1_554 S
O367 Li305 1.961 . S
O367 Li306 1.970 . S
O367 Li307 1.956 . S
O367 C342 1.325 . S
H368 C310 0.929 . S
H369 C311 0.930 1_556 S
H370 C312 0.930 . S
H371 C313 0.930 1_556 S
H372 C315 0.930 . S
H373 C317 0.929 . S
H374 C318 0.930 . S
H375 C319 0.930 . S
H376 C322 0.930 . S
H377 C325 0.929 . S
H378 C330 0.929 . S
H379 C331 0.930 . S
H380 C338 0.929 . S
H381 C339 0.930 . S
H382 C340 0.930 . S
H383 C341 0.930 . S
H384 C343 0.929 . S
H385 C344 0.930 . S
H386 C345 0.930 . S
H387 C346 0.930 . S
H388 C350 0.929 . S
H389 C352 0.930 . S
H390 C358 0.929 . S
H391 C359 0.930 . S
Li392 N409 1.990 . S
Li392 O452 1.956 . S
Li392 O453 1.970 . S
Li392 O454 1.961 . S
Li393 N417 1.990 . S
Li393 O452 1.970 . S
Li393 O453 1.956 . S
Li393 O455 1.961 . S
Li394 N439 1.990 . S
Li394 O452 1.961 . S
Li394 O454 1.956 . S
Li394 O455 1.970 . S
Li395 N445 1.990 . S
Li395 O453 1.961 . S
Li395 O454 1.970 . S
Li395 O455 1.956 . S
C396 C398 1.348 . S
C396 C399 1.356 . S
C396 O452 1.325 . S
N397 C400 1.314 . S
N397 C401 1.279 . S
C398 C396 1.348 . S
C398 C400 1.353 . S
C398 H456 0.929 . S
C399 C396 1.356 . S
C399 C401 1.358 . S
C399 H457 0.930 . S
C400 N397 1.314 . S
C400 C398 1.353 . S
C400 H458 0.930 . S
C401 N397 1.279 . S
C401 C399 1.358 . S
C401 H459 0.930 . S
C402 C405 1.348 . S
C402 C406 1.356 . S
C402 O453 1.325 . S
C403 N404 1.279 . S
C403 C406 1.358 . S
C403 H460 0.930 . S
N404 C403 1.279 . S
N404 C407 1.314 . S
C405 C402 1.348 . S
C405 C407 1.353 . S
C405 H461 0.929 . S
C406 C402 1.356 . S
C406 C403 1.358 . S
C406 H462 0.930 . S
C407 N404 1.314 . S
C407 C405 1.353 . S
C407 H463 0.930 . S
C408 N409 1.314 . S
C408 C413 1.353 . S
C408 H414 0.930 . S
N409 Li392 1.990 . S
N409 C408 1.314 . S
N409 C411 1.279 . S
C410 C411 1.358 . S
C410 C412 1.356 . S
C410 H464 0.930 . S
C411 N409 1.279 . S
C411 C410 1.358 . S
C411 H415 0.930 . S
C412 C410 1.356 . S
C412 C413 1.348 . S
C413 C408 1.353 . S
C413 C412 1.348 . S
C413 H465 0.929 . S
H414 C408 0.930 . S
H415 C411 0.930 . S
C416 N417 1.314 . S
C416 C418 1.353 . S
C416 H422 0.930 . S
N417 Li393 1.990 . S
N417 C416 1.314 . S
N417 C420 1.279 . S
C418 C416 1.353 . S
C418 C421 1.348 . S
C418 H466 0.929 . S
C419 C420 1.358 . S
C419 C421 1.356 . S
C419 H467 0.930 . S
C420 N417 1.279 . S
C420 C419 1.358 . S
C420 H423 0.930 . S
C421 C418 1.348 . S
C421 C419 1.356 . S
H422 C416 0.930 . S
H423 C420 0.930 . S
C424 C426 1.348 . S
C424 C427 1.356 . S
C424 O454 1.325 . S
N425 C428 1.314 . S
N425 C429 1.279 . S
C426 C424 1.348 . S
C426 C428 1.353 . S
C426 H468 0.929 . S
C427 C424 1.356 . S
C427 C429 1.358 . S
C427 H469 0.930 . S
C428 N425 1.314 . S
C428 C426 1.353 . S
C428 H470 0.930 . S
C429 N425 1.279 . S
C429 C427 1.358 . S
C429 H471 0.930 . S
C430 C431 1.348 . S
C430 C432 1.356 . S
C430 O455 1.325 . S
C431 C430 1.348 . S
C431 C433 1.353 . S
C431 H472 0.929 . S
C432 C430 1.356 . S
C432 C434 1.358 . S
C432 H473 0.930 . S
C433 C431 1.353 . S
C433 N435 1.314 . S
C433 H474 0.930 . S
C434 C432 1.358 . S
C434 N435 1.279 . S
C434 H475 0.930 . S
N435 C433 1.314 . S
N435 C434 1.279 . S
C436 C438 1.353 . S
C436 N439 1.314 . S
C436 H442 0.930 . S
C437 N439 1.279 . S
C437 C440 1.358 . S
C437 H443 0.930 . S
C438 C436 1.353 . S
C438 C441 1.348 . S
C438 H476 0.929 . S
N439 Li394 1.990 . S
N439 C436 1.314 . S
N439 C437 1.279 . S
C440 C437 1.358 . S
C440 C441 1.356 . S
C440 H477 0.930 . S
C441 C438 1.348 . S
C441 C440 1.356 . S
H442 C436 0.930 . S
H443 C437 0.930 . S
C444 N445 1.314 . S
C444 C446 1.353 . S
C444 H450 0.930 . S
N445 Li395 1.990 . S
N445 C444 1.314 . S
N445 C448 1.279 . S
C446 C444 1.353 . S
C446 C449 1.348 . S
C446 H478 0.929 . S
C447 C448 1.358 . S
C447 C449 1.356 . S
C447 H479 0.930 . S
C448 N445 1.279 . S
C448 C447 1.358 . S
C448 H451 0.930 . S
C449 C446 1.348 . S
C449 C447 1.356 . S
H450 C444 0.930 . S
H451 C448 0.930 . S
O452 Li392 1.956 . S
O452 Li393 1.970 . S
O452 Li394 1.961 . S
O452 C396 1.325 . S
O453 Li392 1.970 . S
O453 Li393 1.956 . S
O453 Li395 1.961 . S
O453 C402 1.325 . S
O454 Li392 1.961 . S
O454 Li394 1.956 . S
O454 Li395 1.970 . S
O454 C424 1.325 . S
O455 Li393 1.961 . S
O455 Li394 1.970 . S
O455 Li395 1.956 . S
O455 C430 1.325 . S
H456 C398 0.929 . S
H457 C399 0.930 . S
H458 C400 0.930 . S
H459 C401 0.930 . S
H460 C403 0.930 . S
H461 C405 0.929 . S
H462 C406 0.930 . S
H463 C407 0.930 . S
H464 C410 0.930 . S
H465 C413 0.929 . S
H466 C418 0.929 . S
H467 C419 0.930 . S
H468 C426 0.929 . S
H469 C427 0.930 . S
H470 C428 0.930 . S
H471 C429 0.930 . S
H472 C431 0.929 . S
H473 C432 0.930 . S
H474 C433 0.930 . S
H475 C434 0.930 . S
H476 C438 0.929 . S
H477 C440 0.930 . S
H478 C446 0.929 . S
H479 C447 0.930 . S
Li480 N497 1.990 . S
Li480 O540 1.956 1_556 S
Li480 O541 1.970 1_556 S
Li480 O542 1.961 . S
Li481 N505 1.990 . S
Li481 O540 1.970 . S
Li481 O541 1.956 . S
Li481 O543 1.961 . S
Li482 N527 1.990 . S
Li482 O540 1.961 1_556 S
Li482 O542 1.956 . S
Li482 O543 1.970 1_556 S
Li483 N533 1.990 . S
Li483 O541 1.961 . S
Li483 O542 1.970 1_554 S
Li483 O543 1.956 . S
C484 C486 1.381 . S
C484 C487 1.320 1_554 S
C484 O540 1.329 . S
N485 C488 1.314 1_556 S
N485 C489 1.279 . S
C486 C484 1.381 . S
C486 C488 1.353 . S
C486 H544 0.929 . S
C487 C484 1.320 1_556 S
C487 C489 1.358 . S
C487 H545 0.930 . S
C488 N485 1.314 1_554 S
C488 C486 1.353 . S
C488 H546 0.930 . S
C489 N485 1.279 . S
C489 C487 1.358 . S
C489 H547 0.930 . S
C490 C493 1.348 . S
C490 C494 1.356 . S
C490 O541 1.325 . S
C491 N492 1.279 . S
C491 C494 1.358 . S
C491 H548 0.930 . S
N492 C491 1.279 . S
N492 C495 1.314 . S
C493 C490 1.348 . S
C493 C495 1.353 . S
C493 H549 0.929 . S
C494 C490 1.356 . S
C494 C491 1.358 . S
C494 H550 0.930 . S
C495 N492 1.314 . S
C495 C493 1.353 . S
C495 H551 0.930 . S
C496 N497 1.314 . S
C496 C501 1.353 . S
C496 H502 0.930 . S
N497 Li480 1.990 . S
N497 C496 1.314 . S
N497 C499 1.279 . S
C498 C499 1.358 . S
C498 C500 1.356 . S
C498 H552 0.930 . S
C499 N497 1.279 . S
C499 C498 1.358 . S
C499 H503 0.930 1_556 S
C500 C498 1.356 . S
C500 C501 1.348 . S
C501 C496 1.353 . S
C501 C500 1.348 . S
C501 H553 0.929 . S
H502 C496 0.930 . S
H503 C499 0.930 1_554 S
C504 N505 1.314 . S
C504 C506 1.353 . S
C504 H510 0.930 . S
N505 Li481 1.990 . S
N505 C504 1.314 . S
N505 C508 1.279 . S
C506 C504 1.353 . S
C506 C509 1.348 . S
C506 H554 0.929 . S
C507 C508 1.358 . S
C507 C509 1.356 . S
C507 H555 0.930 . S
C508 N505 1.279 . S
C508 C507 1.358 . S
C508 H511 0.930 . S
C509 C506 1.348 . S
C509 C507 1.356 . S
H510 C504 0.930 . S
H511 C508 0.930 . S
C512 C514 1.348 . S
C512 C515 1.356 . S
C512 O542 1.325 . S
N513 C516 1.314 . S
N513 C517 1.279 . S
C514 C512 1.348 . S
C514 C516 1.353 . S
C514 H556 0.929 . S
C515 C512 1.356 . S
C515 C517 1.358 . S
C515 H557 0.930 . S
C516 N513 1.314 . S
C516 C514 1.353 . S
C516 H558 0.930 . S
C517 N513 1.279 . S
C517 C515 1.358 . S
C517 H559 0.930 . S
C518 C519 1.348 1_554 S
C518 C520 1.356 . S
C518 O543 1.325 . S
C519 C518 1.348 1_556 S
C519 C521 1.353 . S
C519 H560 0.929 . S
C520 C518 1.356 . S
C520 C522 1.358 . S
C520 H561 0.930 . S
C521 C519 1.353 . S
C521 N523 1.314 1_556 S
C521 H562 0.930 . S
C522 C520 1.358 . S
C522 N523 1.279 . S
C522 H563 0.930 . S
N523 C521 1.314 1_554 S
N523 C522 1.279 . S
C524 C526 1.353 . S
C524 N527 1.314 . S
C524 H530 0.930 . S
C525 N527 1.279 . S
C525 C528 1.358 . S
C525 H531 0.930 . S
C526 C524 1.353 . S
C526 C529 1.348 . S
C526 H564 0.929 . S
N527 Li482 1.990 . S
N527 C524 1.314 . S
N527 C525 1.279 . S
C528 C525 1.358 . S
C528 C529 1.356 . S
C528 H565 0.930 . S
C529 C526 1.348 . S
C529 C528 1.356 . S
H530 C524 0.930 . S
H531 C525 0.930 . S
C532 N533 1.314 . S
C532 C534 1.353 . S
C532 H538 0.930 . S
N533 Li483 1.990 . S
N533 C532 1.314 . S
N533 C536 1.279 . S
C534 C532 1.353 . S
C534 C537 1.348 . S
C534 H566 0.929 . S
C535 C536 1.358 . S
C535 C537 1.356 . S
C535 H567 0.928 . S
C536 N533 1.279 . S
C536 C535 1.358 . S
C536 H539 0.925 1_554 S
C537 C534 1.348 . S
C537 C535 1.356 . S
H538 C532 0.930 . S
H539 C536 0.925 1_556 S
O540 Li480 1.956 1_554 S
O540 Li481 1.970 . S
O540 Li482 1.961 1_554 S
O540 C484 1.329 . S
O541 Li480 1.970 1_554 S
O541 Li481 1.956 . S
O541 Li483 1.961 . S
O541 C490 1.325 . S
O542 Li480 1.961 . S
O542 Li482 1.956 . S
O542 Li483 1.970 1_556 S
O542 C512 1.325 . S
O543 Li481 1.961 . S
O543 Li482 1.970 1_554 S
O543 Li483 1.956 . S
O543 C518 1.325 . S
H544 C486 0.929 . S
H545 C487 0.930 . S
H546 C488 0.930 . S
H547 C489 0.930 . S
H548 C491 0.930 . S
H549 C493 0.929 . S
H550 C494 0.930 . S
H551 C495 0.930 . S
H552 C498 0.930 . S
H553 C501 0.929 . S
H554 C506 0.929 . S
H555 C507 0.930 . S
H556 C514 0.929 . S
H557 C515 0.930 . S
H558 C516 0.930 . S
H559 C517 0.930 . S
H560 C519 0.929 . S
H561 C520 0.930 . S
H562 C521 0.930 . S
H563 C522 0.930 . S
H564 C526 0.929 . S
H565 C528 0.930 . S
H566 C534 0.929 . S
H567 C535 0.928 . S
Li568 N585 1.990 . S
Li568 O628 1.956 . S
Li568 O629 1.970 . S
Li568 O630 1.961 . S
Li569 N593 1.990 . S
Li569 O628 1.970 . S
Li569 O629 1.956 . S
Li569 O631 1.961 1_545 S
Li570 N615 1.990 . S
Li570 O628 1.961 . S
Li570 O630 1.956 . S
Li570 O631 1.970 1_545 S
Li571 N621 1.990 . S
Li571 O629 1.961 1_565 S
Li571 O630 1.970 1_565 S
Li571 O631 1.956 . S
C572 C574 1.348 . S
C572 C575 1.356 . S
C572 O628 1.325 . S
N573 C576 1.314 1_455 S
N573 C577 1.279 1_455 S
C574 C572 1.348 . S
C574 C576 1.351 . S
C574 H632 0.929 . S
C575 C572 1.356 . S
C575 C577 1.358 . S
C575 H633 0.930 . S
C576 N573 1.314 1_655 S
C576 C574 1.351 . S
C576 H634 0.931 1_655 S
C577 N573 1.279 1_655 S
C577 C575 1.358 . S
C577 H635 0.930 . S
C578 C581 1.348 . S
C578 C582 1.356 1_545 S
C578 O629 1.325 . S
C579 N580 1.279 1_565 S
C579 C582 1.358 . S
C579 H636 0.930 . S
N580 C579 1.279 1_545 S
N580 C583 1.314 . S
C581 C578 1.348 . S
C581 C583 1.353 . S
C581 H637 0.929 . S
C582 C578 1.356 1_565 S
C582 C579 1.358 . S
C582 H638 0.930 . S
C583 N580 1.314 . S
C583 C581 1.353 . S
C583 H639 0.930 . S
C584 N585 1.314 . S
C584 C589 1.353 . S
C584 H590 0.930 . S
N585 Li568 1.990 . S
N585 C584 1.314 . S
N585 C587 1.279 . S
C586 C587 1.358 . S
C586 C588 1.356 . S
C586 H640 0.930 . S
C587 N585 1.279 . S
C587 C586 1.358 . S
C587 H591 0.930 . S
C588 C586 1.356 . S
C588 C589 1.348 . S
C589 C584 1.353 . S
C589 C588 1.348 . S
C589 H641 0.929 . S
H590 C584 0.930 . S
H591 C587 0.930 . S
C592 N593 1.314 1_455 S
C592 C594 1.353 . S
C592 H598 0.930 . S
N593 Li569 1.990 . S
N593 C592 1.314 1_655 S
N593 C596 1.279 . S
C594 C592 1.353 . S
C594 C597 1.348 . S
C594 H642 0.929 . S
C595 C596 1.358 . S
C595 C597 1.356 1_655 S
C595 H643 0.930 . S
C596 N593 1.279 . S
C596 C595 1.358 . S
C596 H599 0.930 . S
C597 C594 1.348 . S
C597 C595 1.356 1_455 S
H598 C592 0.930 . S
H599 C596 0.930 . S
C600 C602 1.348 1_545 S
C600 C603 1.356 . S
C600 O630 1.325 . S
N601 C604 1.300 1_545 S
N601 C605 1.279 . S
C602 C600 1.348 1_565 S
C602 C604 1.357 . S
C602 H644 0.929 . S
C603 C600 1.356 . S
C603 C605 1.358 . S
C603 H645 0.930 . S
C604 N601 1.300 1_565 S
C604 C602 1.357 . S
C604 H646 0.941 . S
C605 N601 1.279 . S
C605 C603 1.358 . S
C605 H647 0.930 . S
C606 C607 1.348 . S
C606 C608 1.356 . S
C606 O631 1.325 . S
C607 C606 1.348 . S
C607 C609 1.353 . S
C607 H648 0.929 . S
C608 C606 1.356 . S
C608 C610 1.358 . S
C608 H649 0.930 . S
C609 C607 1.353 . S
C609 N611 1.314 1_655 S
C609 H650 0.930 1_655 S
C610 C608 1.358 . S
C610 N611 1.279 1_655 S
C610 H651 0.930 . S
N611 C609 1.314 1_455 S
N611 C610 1.279 1_455 S
C612 C614 1.353 1_655 S
C612 N615 1.314 . S
C612 H618 0.930 1_655 S
C613 N615 1.279 . S
C613 C616 1.358 . S
C613 H619 0.930 . S
C614 C612 1.353 1_455 S
C614 C617 1.348 . S
C614 H652 0.929 . S
N615 Li570 1.990 . S
N615 C612 1.314 . S
N615 C613 1.279 . S
C616 C613 1.358 . S
C616 C617 1.356 1_655 S
C616 H653 0.930 . S
C617 C614 1.348 . S
C617 C616 1.356 1_455 S
H618 C612 0.930 1_455 S
H619 C613 0.930 . S
C620 N621 1.314 . S
C620 C622 1.353 . S
C620 H626 0.930 . S
N621 Li571 1.990 . S
N621 C620 1.314 . S
N621 C624 1.279 . S
C622 C620 1.353 . S
C622 C625 1.348 . S
C622 H654 0.929 . S
C623 C624 1.358 . S
C623 C625 1.356 . S
C623 H655 0.930 . S
C624 N621 1.279 . S
C624 C623 1.358 . S
C624 H627 0.930 . S
C625 C622 1.348 . S
C625 C623 1.356 . S
H626 C620 0.930 . S
H627 C624 0.930 . S
O628 Li568 1.956 . S
O628 Li569 1.970 . S
O628 Li570 1.961 . S
O628 C572 1.325 . S
O629 Li568 1.970 . S
O629 Li569 1.956 . S
O629 Li571 1.961 1_545 S
O629 C578 1.325 . S
O630 Li568 1.961 . S
O630 Li570 1.956 . S
O630 Li571 1.970 1_545 S
O630 C600 1.325 . S
O631 Li569 1.961 1_565 S
O631 Li570 1.970 1_565 S
O631 Li571 1.956 . S
O631 C606 1.325 . S
H632 C574 0.929 . S
H633 C575 0.930 . S
H634 C576 0.931 1_455 S
H635 C577 0.930 . S
H636 C579 0.930 . S
H637 C581 0.929 . S
H638 C582 0.930 . S
H639 C583 0.930 . S
H640 C586 0.930 . S
H641 C589 0.929 . S
H642 C594 0.929 . S
H643 C595 0.930 . S
H644 C602 0.929 . S
H645 C603 0.930 . S
H646 C604 0.941 . S
H647 C605 0.930 . S
H648 C607 0.929 . S
H649 C608 0.930 . S
H650 C609 0.930 1_455 S
H651 C610 0.930 . S
H652 C614 0.929 . S
H653 C616 0.930 . S
H654 C622 0.929 . S
H655 C623 0.930 . S
Li656 N673 1.990 . S
Li656 O716 1.956 . S
Li656 O717 1.970 . S
Li656 O718 1.961 . S
Li657 N681 1.990 . S
Li657 O716 1.970 . S
Li657 O717 1.956 . S
Li657 O719 1.961 . S
Li658 N703 1.990 . S
Li658 O716 1.961 . S
Li658 O718 1.956 . S
Li658 O719 1.970 . S
Li659 N709 1.990 . S
Li659 O717 1.961 . S
Li659 O718 1.970 . S
Li659 O719 1.956 . S
C660 C662 1.348 . S
C660 C663 1.356 . S
C660 O716 1.325 . S
N661 C664 1.314 . S
N661 C665 1.279 . S
C662 C660 1.348 . S
C662 C664 1.353 . S
C662 H720 0.929 . S
C663 C660 1.356 . S
C663 C665 1.358 . S
C663 H721 0.930 . S
C664 N661 1.314 . S
C664 C662 1.353 . S
C664 H722 0.930 . S
C665 N661 1.279 . S
C665 C663 1.358 . S
C665 H723 0.930 . S
C666 C669 1.348 . S
C666 C670 1.356 . S
C666 O717 1.325 . S
C667 N668 1.279 . S
C667 C670 1.358 . S
C667 H724 0.930 . S
N668 C667 1.279 . S
N668 C671 1.314 . S
C669 C666 1.348 . S
C669 C671 1.353 . S
C669 H725 0.929 . S
C670 C666 1.356 . S
C670 C667 1.358 . S
C670 H726 0.930 . S
C671 N668 1.314 . S
C671 C669 1.353 . S
C671 H727 0.930 . S
C672 N673 1.314 . S
C672 C677 1.353 . S
C672 H678 0.930 . S
N673 Li656 1.990 . S
N673 C672 1.314 . S
N673 C675 1.279 . S
C674 C675 1.358 . S
C674 C676 1.356 . S
C674 H728 0.930 . S
C675 N673 1.279 . S
C675 C674 1.358 . S
C675 H679 0.930 . S
C676 C674 1.356 . S
C676 C677 1.348 . S
C677 C672 1.353 . S
C677 C676 1.348 . S
C677 H729 0.929 . S
H678 C672 0.930 . S
H679 C675 0.930 . S
C680 N681 1.314 . S
C680 C682 1.353 . S
C680 H686 0.930 . S
N681 Li657 1.990 . S
N681 C680 1.314 . S
N681 C684 1.279 . S
C682 C680 1.353 . S
C682 C685 1.348 . S
C682 H730 0.929 . S
C683 C684 1.358 . S
C683 C685 1.356 . S
C683 H731 0.930 . S
C684 N681 1.279 . S
C684 C683 1.358 . S
C684 H687 0.930 . S
C685 C682 1.348 . S
C685 C683 1.356 . S
H686 C680 0.930 . S
H687 C684 0.930 . S
C688 C690 1.348 . S
C688 C691 1.356 . S
C688 O718 1.325 . S
N689 C692 1.314 . S
N689 C693 1.279 . S
C690 C688 1.348 . S
C690 C692 1.353 . S
C690 H732 0.929 . S
C691 C688 1.356 . S
C691 C693 1.358 . S
C691 H733 0.930 . S
C692 N689 1.314 . S
C692 C690 1.353 . S
C692 H734 0.930 . S
C693 N689 1.279 . S
C693 C691 1.358 . S
C693 H735 0.930 . S
C694 C695 1.348 . S
C694 C696 1.356 . S
C694 O719 1.325 . S
C695 C694 1.348 . S
C695 C697 1.353 . S
C695 H736 0.929 . S
C696 C694 1.356 . S
C696 C698 1.358 . S
C696 H737 0.930 . S
C697 C695 1.353 . S
C697 N699 1.314 . S
C697 H738 0.930 . S
C698 C696 1.358 . S
C698 N699 1.279 . S
C698 H739 0.930 . S
N699 C697 1.314 . S
N699 C698 1.279 . S
C700 C702 1.353 . S
C700 N703 1.314 . S
C700 H706 0.930 . S
C701 N703 1.279 . S
C701 C704 1.358 . S
C701 H707 0.930 . S
C702 C700 1.353 . S
C702 C705 1.348 . S
C702 H740 0.929 . S
N703 Li658 1.990 . S
N703 C700 1.314 . S
N703 C701 1.279 . S
C704 C701 1.358 . S
C704 C705 1.356 . S
C704 H741 0.930 . S
C705 C702 1.348 . S
C705 C704 1.356 . S
H706 C700 0.930 . S
H707 C701 0.930 . S
C708 N709 1.314 . S
C708 C710 1.353 . S
C708 H714 0.930 . S
N709 Li659 1.990 . S
N709 C708 1.314 . S
N709 C712 1.279 . S
C710 C708 1.353 . S
C710 C713 1.348 . S
C710 H742 0.929 . S
C711 C712 1.358 . S
C711 C713 1.356 . S
C711 H743 0.930 . S
C712 N709 1.279 . S
C712 C711 1.358 . S
C712 H715 0.930 . S
C713 C710 1.348 . S
C713 C711 1.356 . S
H714 C708 0.930 . S
H715 C712 0.930 . S
O716 Li656 1.956 . S
O716 Li657 1.970 . S
O716 Li658 1.961 . S
O716 C660 1.325 . S
O717 Li656 1.970 . S
O717 Li657 1.956 . S
O717 Li659 1.961 . S
O717 C666 1.325 . S
O718 Li656 1.961 . S
O718 Li658 1.956 . S
O718 Li659 1.970 . S
O718 C688 1.325 . S
O719 Li657 1.961 . S
O719 Li658 1.970 . S
O719 Li659 1.956 . S
O719 C694 1.325 . S
H720 C662 0.929 . S
H721 C663 0.930 . S
H722 C664 0.930 . S
H723 C665 0.930 . S
H724 C667 0.930 . S
H725 C669 0.929 . S
H726 C670 0.930 . S
H727 C671 0.930 . S
H728 C674 0.930 . S
H729 C677 0.929 . S
H730 C682 0.929 . S
H731 C683 0.930 . S
H732 C690 0.929 . S
H733 C691 0.930 . S
H734 C692 0.930 . S
H735 C693 0.930 . S
H736 C695 0.929 . S
H737 C696 0.930 . S
H738 C697 0.930 . S
H739 C698 0.930 . S
H740 C702 0.929 . S
H741 C704 0.930 . S
H742 C710 0.929 . S
H743 C711 0.930 . S
Li744 N761 1.990 . S
Li744 O804 1.956 . S
Li744 O805 1.970 . S
Li744 O806 1.961 . S
Li745 N769 1.990 . S
Li745 O804 1.970 . S
Li745 O805 1.956 . S
Li745 O807 1.961 . S
Li746 N791 1.990 . S
Li746 O804 1.961 . S
Li746 O806 1.956 . S
Li746 O807 1.970 . S
Li747 N797 1.990 . S
Li747 O805 1.961 . S
Li747 O806 1.970 . S
Li747 O807 1.956 . S
C748 C750 1.348 . S
C748 C751 1.356 . S
C748 O804 1.325 . S
N749 C752 1.314 . S
N749 C753 1.279 . S
C750 C748 1.348 . S
C750 C752 1.353 . S
C750 H808 0.929 . S
C751 C748 1.356 . S
C751 C753 1.358 . S
C751 H809 0.930 . S
C752 N749 1.314 . S
C752 C750 1.353 . S
C752 H810 0.930 . S
C753 N749 1.279 . S
C753 C751 1.358 . S
C753 H811 0.930 . S
C754 C757 1.348 . S
C754 C758 1.356 . S
C754 O805 1.325 . S
C755 N756 1.279 . S
C755 C758 1.358 . S
C755 H812 0.930 . S
N756 C755 1.279 . S
N756 C759 1.314 . S
C757 C754 1.348 . S
C757 C759 1.353 . S
C757 H813 0.929 . S
C758 C754 1.356 . S
C758 C755 1.358 . S
C758 H814 0.930 . S
C759 N756 1.314 . S
C759 C757 1.353 . S
C759 H815 0.930 . S
C760 N761 1.314 . S
C760 C765 1.353 . S
C760 H766 0.930 . S
N761 Li744 1.990 . S
N761 C760 1.314 . S
N761 C763 1.279 . S
C762 C763 1.358 . S
C762 C764 1.356 . S
C762 H816 0.930 . S
C763 N761 1.279 . S
C763 C762 1.358 . S
C763 H767 0.930 . S
C764 C762 1.356 . S
C764 C765 1.348 . S
C765 C760 1.353 . S
C765 C764 1.348 . S
C765 H817 0.929 . S
H766 C760 0.930 . S
H767 C763 0.930 . S
C768 N769 1.314 . S
C768 C770 1.353 . S
C768 H774 0.930 . S
N769 Li745 1.990 . S
N769 C768 1.314 . S
N769 C772 1.279 . S
C770 C768 1.353 . S
C770 C773 1.348 . S
C770 H818 0.929 . S
C771 C772 1.358 . S
C771 C773 1.356 . S
C771 H819 0.930 . S
C772 N769 1.279 . S
C772 C771 1.358 . S
C772 H775 0.930 . S
C773 C770 1.348 . S
C773 C771 1.356 . S
H774 C768 0.930 . S
H775 C772 0.930 . S
C776 C778 1.348 . S
C776 C779 1.356 . S
C776 O806 1.325 . S
N777 C780 1.314 . S
N777 C781 1.279 . S
C778 C776 1.348 . S
C778 C780 1.353 . S
C778 H820 0.929 . S
C779 C776 1.356 . S
C779 C781 1.358 . S
C779 H821 0.930 . S
C780 N777 1.314 . S
C780 C778 1.353 . S
C780 H822 0.930 . S
C781 N777 1.279 . S
C781 C779 1.358 . S
C781 H823 0.930 . S
C782 C783 1.348 . S
C782 C784 1.356 . S
C782 O807 1.325 . S
C783 C782 1.348 . S
C783 C785 1.353 . S
C783 H824 0.929 . S
C784 C782 1.356 . S
C784 C786 1.358 . S
C784 H825 0.930 . S
C785 C783 1.353 . S
C785 N787 1.314 . S
C785 H826 0.930 . S
C786 C784 1.358 . S
C786 N787 1.279 . S
C786 H827 0.930 . S
N787 C785 1.314 . S
N787 C786 1.279 . S
C788 C790 1.353 . S
C788 N791 1.314 . S
C788 H794 0.930 . S
C789 N791 1.279 . S
C789 C792 1.358 . S
C789 H795 0.930 . S
C790 C788 1.353 . S
C790 C793 1.348 . S
C790 H828 0.929 . S
N791 Li746 1.990 . S
N791 C788 1.314 . S
N791 C789 1.279 . S
C792 C789 1.358 . S
C792 C793 1.356 . S
C792 H829 0.930 . S
C793 C790 1.348 . S
C793 C792 1.356 . S
H794 C788 0.930 . S
H795 C789 0.930 . S
C796 N797 1.314 . S
C796 C798 1.353 . S
C796 H802 0.930 . S
N797 Li747 1.990 . S
N797 C796 1.314 . S
N797 C800 1.279 . S
C798 C796 1.353 . S
C798 C801 1.348 . S
C798 H830 0.929 . S
C799 C800 1.358 . S
C799 C801 1.356 . S
C799 H831 0.930 . S
C800 N797 1.279 . S
C800 C799 1.358 . S
C800 H803 0.930 . S
C801 C798 1.348 . S
C801 C799 1.356 . S
H802 C796 0.930 . S
H803 C800 0.930 . S
O804 Li744 1.956 . S
O804 Li745 1.970 . S
O804 Li746 1.961 . S
O804 C748 1.325 . S
O805 Li744 1.970 . S
O805 Li745 1.956 . S
O805 Li747 1.961 . S
O805 C754 1.325 . S
O806 Li744 1.961 . S
O806 Li746 1.956 . S
O806 Li747 1.970 . S
O806 C776 1.325 . S
O807 Li745 1.961 . S
O807 Li746 1.970 . S
O807 Li747 1.956 . S
O807 C782 1.325 . S
H808 C750 0.929 . S
H809 C751 0.930 . S
H810 C752 0.930 . S
H811 C753 0.930 . S
H812 C755 0.930 . S
H813 C757 0.929 . S
H814 C758 0.930 . S
H815 C759 0.930 . S
H816 C762 0.930 . S
H817 C765 0.929 . S
H818 C770 0.929 . S
H819 C771 0.930 . S
H820 C778 0.929 . S
H821 C779 0.930 . S
H822 C780 0.930 . S
H823 C781 0.930 . S
H824 C783 0.929 . S
H825 C784 0.930 . S
H826 C785 0.930 . S
H827 C786 0.930 . S
H828 C790 0.929 . S
H829 C792 0.930 . S
H830 C798 0.929 . S
H831 C799 0.930 . S
Li832 N849 1.990 . S
Li832 O892 1.956 . S
Li832 O893 1.970 . S
Li832 O894 1.961 . S
Li833 N857 1.990 . S
Li833 O892 1.970 . S
Li833 O893 1.956 . S
Li833 O895 1.961 . S
Li834 N879 1.990 . S
Li834 O892 1.961 . S
Li834 O894 1.956 . S
Li834 O895 1.970 . S
Li835 N885 1.990 . S
Li835 O893 1.961 . S
Li835 O894 1.970 . S
Li835 O895 1.956 . S
C836 C838 1.348 . S
C836 C839 1.356 . S
C836 O892 1.325 . S
N837 C840 1.314 . S
N837 C841 1.279 . S
C838 C836 1.348 . S
C838 C840 1.353 . S
C838 H896 0.929 . S
C839 C836 1.356 . S
C839 C841 1.358 . S
C839 H897 0.930 . S
C840 N837 1.314 . S
C840 C838 1.353 . S
C840 H898 0.930 . S
C841 N837 1.279 . S
C841 C839 1.358 . S
C841 H899 0.930 . S
C842 C845 1.348 . S
C842 C846 1.356 . S
C842 O893 1.325 . S
C843 N844 1.279 . S
C843 C846 1.358 . S
C843 H900 0.930 . S
N844 C843 1.279 . S
N844 C847 1.314 . S
C845 C842 1.348 . S
C845 C847 1.353 . S
C845 H901 0.929 . S
C846 C842 1.356 . S
C846 C843 1.358 . S
C846 H902 0.930 . S
C847 N844 1.314 . S
C847 C845 1.353 . S
C847 H903 0.930 . S
C848 N849 1.314 . S
C848 C853 1.353 . S
C848 H854 0.930 . S
N849 Li832 1.990 . S
N849 C848 1.314 . S
N849 C851 1.279 . S
C850 C851 1.358 . S
C850 C852 1.356 . S
C850 H904 0.930 . S
C851 N849 1.279 . S
C851 C850 1.358 . S
C851 H855 0.930 . S
C852 C850 1.356 . S
C852 C853 1.348 . S
C853 C848 1.353 . S
C853 C852 1.348 . S
C853 H905 0.929 . S
H854 C848 0.930 . S
H855 C851 0.930 . S
C856 N857 1.314 . S
C856 C858 1.353 . S
C856 H862 0.930 . S
N857 Li833 1.990 . S
N857 C856 1.314 . S
N857 C860 1.279 . S
C858 C856 1.353 . S
C858 C861 1.348 . S
C858 H906 0.929 . S
C859 C860 1.358 . S
C859 C861 1.356 . S
C859 H907 0.930 . S
C860 N857 1.279 . S
C860 C859 1.358 . S
C860 H863 0.930 . S
C861 C858 1.348 . S
C861 C859 1.356 . S
H862 C856 0.930 . S
H863 C860 0.930 . S
C864 C866 1.348 . S
C864 C867 1.356 . S
C864 O894 1.325 . S
N865 C868 1.314 . S
N865 C869 1.279 . S
C866 C864 1.348 . S
C866 C868 1.353 . S
C866 H908 0.929 . S
C867 C864 1.356 . S
C867 C869 1.358 . S
C867 H909 0.930 . S
C868 N865 1.314 . S
C868 C866 1.353 . S
C868 H910 0.930 . S
C869 N865 1.279 . S
C869 C867 1.358 . S
C869 H911 0.930 . S
C870 C871 1.348 . S
C870 C872 1.356 . S
C870 O895 1.325 . S
C871 C870 1.348 . S
C871 C873 1.353 . S
C871 H912 0.929 . S
C872 C870 1.356 . S
C872 C874 1.358 . S
C872 H913 0.930 . S
C873 C871 1.353 . S
C873 N875 1.314 . S
C873 H914 0.930 . S
C874 C872 1.358 . S
C874 N875 1.279 . S
C874 H915 0.930 . S
N875 C873 1.314 . S
N875 C874 1.279 . S
C876 C878 1.353 . S
C876 N879 1.314 . S
C876 H882 0.930 . S
C877 N879 1.279 . S
C877 C880 1.358 . S
C877 H883 0.930 . S
C878 C876 1.353 . S
C878 C881 1.348 . S
C878 H916 0.929 . S
N879 Li834 1.990 . S
N879 C876 1.314 . S
N879 C877 1.279 . S
C880 C877 1.358 . S
C880 C881 1.356 . S
C880 H917 0.930 . S
C881 C878 1.348 . S
C881 C880 1.356 . S
H882 C876 0.930 . S
H883 C877 0.930 . S
C884 N885 1.314 . S
C884 C886 1.353 . S
C884 H890 0.930 . S
N885 Li835 1.990 . S
N885 C884 1.314 . S
N885 C888 1.279 . S
C886 C884 1.353 . S
C886 C889 1.348 . S
C886 H918 0.929 . S
C887 C888 1.358 . S
C887 C889 1.356 . S
C887 H919 0.930 . S
C888 N885 1.279 . S
C888 C887 1.358 . S
C888 H891 0.930 . S
C889 C886 1.348 . S
C889 C887 1.356 . S
H890 C884 0.930 . S
H891 C888 0.930 . S
O892 Li832 1.956 . S
O892 Li833 1.970 . S
O892 Li834 1.961 . S
O892 C836 1.325 . S
O893 Li832 1.970 . S
O893 Li833 1.956 . S
O893 Li835 1.961 . S
O893 C842 1.325 . S
O894 Li832 1.961 . S
O894 Li834 1.956 . S
O894 Li835 1.970 . S
O894 C864 1.325 . S
O895 Li833 1.961 . S
O895 Li834 1.970 . S
O895 Li835 1.956 . S
O895 C870 1.325 . S
H896 C838 0.929 . S
H897 C839 0.930 . S
H898 C840 0.930 . S
H899 C841 0.930 . S
H900 C843 0.930 . S
H901 C845 0.929 . S
H902 C846 0.930 . S
H903 C847 0.930 . S
H904 C850 0.930 . S
H905 C853 0.929 . S
H906 C858 0.929 . S
H907 C859 0.930 . S
H908 C866 0.929 . S
H909 C867 0.930 . S
H910 C868 0.930 . S
H911 C869 0.930 . S
H912 C871 0.929 . S
H913 C872 0.930 . S
H914 C873 0.930 . S
H915 C874 0.930 . S
H916 C878 0.929 . S
H917 C880 0.930 . S
H918 C886 0.929 . S
H919 C887 0.930 . S
Li920 N937 1.988 1_545 S
Li920 O980 1.956 1_545 S
Li920 O981 1.972 . S
Li920 O982 1.962 . S
Li921 N945 1.990 . S
Li921 O980 1.970 1_545 S
Li921 O981 1.956 . S
Li921 O983 1.961 . S
Li922 N967 1.990 . S
Li922 O980 1.961 1_545 S
Li922 O982 1.956 . S
Li922 O983 1.970 . S
Li923 N973 1.990 . S
Li923 O981 1.961 . S
Li923 O982 1.970 . S
Li923 O983 1.956 . S
C924 C926 1.348 . S
C924 C927 1.356 . S
C924 O980 1.325 . S
N925 C928 1.314 . S
N925 C929 1.279 . S
C926 C924 1.348 . S
C926 C928 1.353 . S
C926 H984 0.929 . S
C927 C924 1.356 . S
C927 C929 1.358 . S
C927 H985 0.930 . S
C928 N925 1.314 . S
C928 C926 1.353 . S
C928 H986 0.930 . S
C929 N925 1.279 . S
C929 C927 1.358 . S
C929 H987 0.930 . S
C930 C933 1.348 . S
C930 C934 1.356 . S
C930 O981 1.325 . S
C931 N932 1.279 . S
C931 C934 1.358 . S
C931 H988 0.930 . S
N932 C931 1.279 . S
N932 C935 1.314 . S
C933 C930 1.348 . S
C933 C935 1.353 . S
C933 H989 0.929 . S
C934 C930 1.356 . S
C934 C931 1.358 . S
C934 H990 0.930 . S
C935 N932 1.314 . S
C935 C933 1.353 . S
C935 H991 0.930 . S
C936 N937 1.314 . S
C936 C941 1.353 . S
C936 H942 0.930 . S
N937 Li920 1.988 1_565 S
N937 C936 1.314 . S
N937 C939 1.279 . S
C938 C939 1.358 . S
C938 C940 1.356 . S
C938 H992 0.930 . S
C939 N937 1.279 . S
C939 C938 1.358 . S
C939 H943 0.930 . S
C940 C938 1.356 . S
C940 C941 1.348 . S
C941 C936 1.353 . S
C941 C940 1.348 . S
C941 H993 0.929 . S
H942 C936 0.930 . S
H943 C939 0.930 . S
C944 N945 1.314 . S
C944 C946 1.353 . S
C944 H950 0.930 . S
N945 Li921 1.990 . S
N945 C944 1.314 . S
N945 C948 1.279 . S
C946 C944 1.353 . S
C946 C949 1.348 . S
C946 H994 0.929 . S
C947 C948 1.358 . S
C947 C949 1.356 . S
C947 H995 0.930 . S
C948 N945 1.279 . S
C948 C947 1.358 . S
C948 H951 0.930 . S
C949 C946 1.348 . S
C949 C947 1.356 . S
H950 C944 0.930 . S
H951 C948 0.930 . S
C952 C954 1.348 . S
C952 C955 1.356 1_545 S
C952 O982 1.325 . S
N953 C956 1.314 . S
N953 C957 1.279 1_545 S
C954 C952 1.348 . S
C954 C956 1.353 . S
C954 H996 0.929 . S
C955 C952 1.356 1_565 S
C955 C957 1.358 . S
C955 H997 0.930 . S
C956 N953 1.314 . S
C956 C954 1.353 . S
C956 H998 0.930 . S
C957 N953 1.279 1_565 S
C957 C955 1.358 . S
C957 H999 0.930 . S
C958 C959 1.348 . S
C958 C960 1.356 . S
C958 O983 1.325 . S
C959 C958 1.348 . S
C959 C961 1.353 . S
C959 H1000 0.929 . S
C960 C958 1.356 . S
C960 C962 1.358 . S
C960 H1001 0.930 . S
C961 C959 1.353 . S
C961 N963 1.314 . S
C961 H1002 0.930 . S
C962 C960 1.358 . S
C962 N963 1.279 . S
C962 H1003 0.930 . S
N963 C961 1.314 . S
N963 C962 1.279 . S
C964 C966 1.353 1_545 S
C964 N967 1.315 . S
C964 H970 0.929 1_545 S
C965 N967 1.279 . S
C965 C968 1.358 . S
C965 H971 0.930 . S
C966 C964 1.353 1_565 S
C966 C969 1.348 . S
C966 H1004 0.929 . S
N967 Li922 1.990 . S
N967 C964 1.315 . S
N967 C965 1.279 . S
C968 C965 1.358 . S
C968 C969 1.356 1_545 S
C968 H1005 0.930 . S
C969 C966 1.348 . S
C969 C968 1.356 1_565 S
H970 C964 0.929 1_565 S
H971 C965 0.930 . S
C972 N973 1.314 . S
C972 C974 1.353 . S
C972 H978 0.930 . S
N973 Li923 1.990 . S
N973 C972 1.314 . S
N973 C976 1.279 . S
C974 C972 1.353 . S
C974 C977 1.348 . S
C974 H1006 0.929 . S
C975 C976 1.358 . S
C975 C977 1.356 . S
C975 H1007 0.930 . S
C976 N973 1.279 . S
C976 C975 1.358 . S
C976 H979 0.930 . S
C977 C974 1.348 . S
C977 C975 1.356 . S
H978 C972 0.930 . S
H979 C976 0.930 . S
O980 Li920 1.956 1_565 S
O980 Li921 1.970 1_565 S
O980 Li922 1.961 1_565 S
O980 C924 1.325 . S
O981 Li920 1.972 . S
O981 Li921 1.956 . S
O981 Li923 1.961 . S
O981 C930 1.325 . S
O982 Li920 1.962 . S
O982 Li922 1.956 . S
O982 Li923 1.970 . S
O982 C952 1.325 . S
O983 Li921 1.961 . S
O983 Li922 1.970 . S
O983 Li923 1.956 . S
O983 C958 1.325 . S
H984 C926 0.929 . S
H985 C927 0.930 . S
H986 C928 0.930 . S
H987 C929 0.930 . S
H988 C931 0.930 . S
H989 C933 0.929 . S
H990 C934 0.930 . S
H991 C935 0.930 . S
H992 C938 0.930 . S
H993 C941 0.929 . S
H994 C946 0.929 . S
H995 C947 0.930 . S
H996 C954 0.929 . S
H997 C955 0.930 . S
H998 C956 0.930 . S
H999 C957 0.930 . S
H1000 C959 0.929 . S
H1001 C960 0.930 . S
H1002 C961 0.930 . S
H1003 C962 0.930 . S
H1004 C966 0.929 . S
H1005 C968 0.930 . S
H1006 C974 0.929 . S
H1007 C975 0.930 . S
Li1008 N1025 1.990 . S
Li1008 O1068 1.956 . S
Li1008 O1069 1.970 . S
Li1008 O1070 1.961 . S
Li1009 N1033 1.995 . S
Li1009 O1068 1.970 . S
Li1009 O1069 1.956 . S
Li1009 O1071 1.961 1_455 S
Li1010 N1055 1.990 . S
Li1010 O1068 1.961 . S
Li1010 O1070 1.956 . S
Li1010 O1071 1.970 1_455 S
Li1011 N1061 1.990 . S
Li1011 O1069 1.961 1_655 S
Li1011 O1070 1.970 1_655 S
Li1011 O1071 1.956 . S
C1012 C1014 1.348 . S
C1012 C1015 1.356 . S
C1012 O1068 1.325 . S
N1013 C1016 1.314 . S
N1013 C1017 1.279 . S
C1014 C1012 1.348 . S
C1014 C1016 1.353 . S
C1014 H1072 0.929 . S
C1015 C1012 1.356 . S
C1015 C1017 1.358 . S
C1015 H1073 0.930 . S
C1016 N1013 1.314 . S
C1016 C1014 1.353 . S
C1016 H1074 0.930 . S
C1017 N1013 1.279 . S
C1017 C1015 1.358 . S
C1017 H1075 0.930 . S
C1018 C1021 1.348 . S
C1018 C1022 1.356 1_455 S
C1018 O1069 1.325 . S
C1019 N1020 1.279 . S
C1019 C1022 1.358 . S
C1019 H1076 0.930 . S
N1020 C1019 1.279 . S
N1020 C1023 1.314 1_655 S
C1021 C1018 1.348 . S
C1021 C1023 1.353 . S
C1021 H1077 0.929 . S
C1022 C1018 1.356 1_655 S
C1022 C1019 1.358 . S
C1022 H1078 0.930 . S
C1023 N1020 1.314 1_455 S
C1023 C1021 1.353 . S
C1023 H1079 0.930 . S
C1024 N1025 1.314 . S
C1024 C1029 1.353 . S
C1024 H1030 0.930 . S
N1025 Li1008 1.990 . S
N1025 C1024 1.314 . S
N1025 C1027 1.279 . S
C1026 C1027 1.358 . S
C1026 C1028 1.356 . S
C1026 H1080 0.930 . S
C1027 N1025 1.279 . S
C1027 C1026 1.358 . S
C1027 H1031 0.930 . S
C1028 C1026 1.356 . S
C1028 C1029 1.348 . S
C1029 C1024 1.353 . S
C1029 C1028 1.348 . S
C1029 H1081 0.929 . S
H1030 C1024 0.930 . S
H1031 C1027 0.930 . S
C1032 N1033 1.308 1_655 S
C1032 C1034 1.353 . S
C1032 H1038 0.930 . S
N1033 Li1009 1.995 . S
N1033 C1032 1.308 1_455 S
N1033 C1036 1.282 . S
C1034 C1032 1.353 . S
C1034 C1037 1.341 1_655 S
C1034 H1082 0.929 . S
C1035 C1036 1.358 . S
C1035 C1037 1.366 . S
C1035 H1083 0.930 . S
C1036 N1033 1.282 . S
C1036 C1035 1.358 . S
C1036 H1039 0.930 . S
C1037 C1034 1.341 1_455 S
C1037 C1035 1.366 . S
H1038 C1032 0.930 . S
H1039 C1036 0.930 . S
C1040 C1042 1.348 1_455 S
C1040 C1043 1.356 . S
C1040 O1070 1.325 . S
N1041 C1044 1.314 1_455 S
N1041 C1045 1.279 . S
C1042 C1040 1.348 1_655 S
C1042 C1044 1.353 . S
C1042 H1084 0.929 . S
C1043 C1040 1.356 . S
C1043 C1045 1.358 . S
C1043 H1085 0.930 . S
C1044 N1041 1.314 1_655 S
C1044 C1042 1.353 . S
C1044 H1086 0.930 . S
C1045 N1041 1.279 . S
C1045 C1043 1.358 . S
C1045 H1087 0.930 . S
C1046 C1047 1.348 . S
C1046 C1048 1.356 . S
C1046 O1071 1.325 . S
C1047 C1046 1.348 . S
C1047 C1049 1.353 . S
C1047 H1088 0.929 . S
C1048 C1046 1.356 . S
C1048 C1050 1.358 . S
C1048 H1089 0.930 . S
C1049 C1047 1.353 . S
C1049 N1051 1.314 . S
C1049 H1090 0.930 . S
C1050 C1048 1.358 . S
C1050 N1051 1.279 . S
C1050 H1091 0.930 . S
N1051 C1049 1.314 . S
N1051 C1050 1.279 . S
C1052 C1054 1.353 . S
C1052 N1055 1.314 . S
C1052 H1058 0.930 . S
C1053 N1055 1.279 . S
C1053 C1056 1.358 . S
C1053 H1059 0.932 . S
C1054 C1052 1.353 . S
C1054 C1057 1.348 . S
C1054 H1092 0.929 . S
N1055 Li1010 1.990 . S
N1055 C1052 1.314 . S
N1055 C1053 1.279 . S
C1056 C1053 1.358 . S
C1056 C1057 1.356 . S
C1056 H1093 0.930 . S
C1057 C1054 1.348 . S
C1057 C1056 1.356 . S
H1058 C1052 0.930 . S
H1059 C1053 0.932 . S
C1060 N1061 1.314 . S
C1060 C1062 1.353 . S
C1060 H1066 0.930 . S
N1061 Li1011 1.990 . S
N1061 C1060 1.314 . S
N1061 C1064 1.279 . S
C1062 C1060 1.353 . S
C1062 C1065 1.348 . S
C1062 H1094 0.929 . S
C1063 C1064 1.358 . S
C1063 C1065 1.356 . S
C1063 H1095 0.930 . S
C1064 N1061 1.279 . S
C1064 C1063 1.358 . S
C1064 H1067 0.930 . S
C1065 C1062 1.348 . S
C1065 C1063 1.356 . S
H1066 C1060 0.930 . S
H1067 C1064 0.930 . S
O1068 Li1008 1.956 . S
O1068 Li1009 1.970 . S
O1068 Li1010 1.961 . S
O1068 C1012 1.325 . S
O1069 Li1008 1.970 . S
O1069 Li1009 1.956 . S
O1069 Li1011 1.961 1_455 S
O1069 C1018 1.325 . S
O1070 Li1008 1.961 . S
O1070 Li1010 1.956 . S
O1070 Li1011 1.970 1_455 S
O1070 C1040 1.325 . S
O1071 Li1009 1.961 1_655 S
O1071 Li1010 1.970 1_655 S
O1071 Li1011 1.956 . S
O1071 C1046 1.325 . S
H1072 C1014 0.929 . S
H1073 C1015 0.930 . S
H1074 C1016 0.930 . S
H1075 C1017 0.930 . S
H1076 C1019 0.930 . S
H1077 C1021 0.929 . S
H1078 C1022 0.930 . S
H1079 C1023 0.930 . S
H1080 C1026 0.930 . S
H1081 C1029 0.929 . S
H1082 C1034 0.929 . S
H1083 C1035 0.930 . S
H1084 C1042 0.929 . S
H1085 C1043 0.930 . S
H1086 C1044 0.930 . S
H1087 C1045 0.930 . S
H1088 C1047 0.929 . S
H1089 C1048 0.930 . S
H1090 C1049 0.930 . S
H1091 C1050 0.930 . S
H1092 C1054 0.929 . S
H1093 C1056 0.930 . S
H1094 C1062 0.929 . S
H1095 C1063 0.930 . S
Li1096 N1113 1.990 . S
Li1096 O1156 1.956 . S
Li1096 O1157 1.970 . S
Li1096 O1158 1.961 . S
Li1097 N1121 1.990 . S
Li1097 O1156 1.970 . S
Li1097 O1157 1.956 . S
Li1097 O1159 1.961 . S
Li1098 N1143 1.990 . S
Li1098 O1156 1.961 . S
Li1098 O1158 1.956 . S
Li1098 O1159 1.970 . S
Li1099 N1149 1.990 . S
Li1099 O1157 1.961 . S
Li1099 O1158 1.970 . S
Li1099 O1159 1.956 . S
C1100 C1102 1.348 . S
C1100 C1103 1.356 . S
C1100 O1156 1.325 . S
N1101 C1104 1.314 . S
N1101 C1105 1.279 . S
C1102 C1100 1.348 . S
C1102 C1104 1.353 . S
C1102 H1160 0.929 . S
C1103 C1100 1.356 . S
C1103 C1105 1.358 . S
C1103 H1161 0.930 . S
C1104 N1101 1.314 . S
C1104 C1102 1.353 . S
C1104 H1162 0.930 . S
C1105 N1101 1.279 . S
C1105 C1103 1.358 . S
C1105 H1163 0.930 . S
C1106 C1109 1.348 . S
C1106 C1110 1.356 . S
C1106 O1157 1.325 . S
C1107 N1108 1.279 . S
C1107 C1110 1.358 . S
C1107 H1164 0.930 . S
N1108 C1107 1.279 . S
N1108 C1111 1.314 . S
C1109 C1106 1.348 . S
C1109 C1111 1.353 . S
C1109 H1165 0.929 . S
C1110 C1106 1.356 . S
C1110 C1107 1.358 . S
C1110 H1166 0.930 . S
C1111 N1108 1.314 . S
C1111 C1109 1.353 . S
C1111 H1167 0.930 . S
C1112 N1113 1.314 . S
C1112 C1117 1.353 . S
C1112 H1118 0.930 . S
N1113 Li1096 1.990 . S
N1113 C1112 1.314 . S
N1113 C1115 1.279 . S
C1114 C1115 1.358 . S
C1114 C1116 1.356 . S
C1114 H1168 0.930 . S
C1115 N1113 1.279 . S
C1115 C1114 1.358 . S
C1115 H1119 0.930 . S
C1116 C1114 1.356 . S
C1116 C1117 1.348 . S
C1117 C1112 1.353 . S
C1117 C1116 1.348 . S
C1117 H1169 0.929 . S
H1118 C1112 0.930 . S
H1119 C1115 0.930 . S
C1120 N1121 1.314 . S
C1120 C1122 1.353 . S
C1120 H1126 0.930 . S
N1121 Li1097 1.990 . S
N1121 C1120 1.314 . S
N1121 C1124 1.279 . S
C1122 C1120 1.353 . S
C1122 C1125 1.348 . S
C1122 H1170 0.929 . S
C1123 C1124 1.358 . S
C1123 C1125 1.356 . S
C1123 H1171 0.930 . S
C1124 N1121 1.279 . S
C1124 C1123 1.358 . S
C1124 H1127 0.930 . S
C1125 C1122 1.348 . S
C1125 C1123 1.356 . S
H1126 C1120 0.930 . S
H1127 C1124 0.930 . S
C1128 C1130 1.348 . S
C1128 C1131 1.356 . S
C1128 O1158 1.325 . S
N1129 C1132 1.314 . S
N1129 C1133 1.279 . S
C1130 C1128 1.348 . S
C1130 C1132 1.353 . S
C1130 H1172 0.929 . S
C1131 C1128 1.356 . S
C1131 C1133 1.358 . S
C1131 H1173 0.930 . S
C1132 N1129 1.314 . S
C1132 C1130 1.353 . S
C1132 H1174 0.930 . S
C1133 N1129 1.279 . S
C1133 C1131 1.358 . S
C1133 H1175 0.930 . S
C1134 C1135 1.348 . S
C1134 C1136 1.356 . S
C1134 O1159 1.325 . S
C1135 C1134 1.348 . S
C1135 C1137 1.353 . S
C1135 H1176 0.929 . S
C1136 C1134 1.356 . S
C1136 C1138 1.358 . S
C1136 H1177 0.930 . S
C1137 C1135 1.353 . S
C1137 N1139 1.314 . S
C1137 H1178 0.930 . S
C1138 C1136 1.358 . S
C1138 N1139 1.279 . S
C1138 H1179 0.930 . S
N1139 C1137 1.314 . S
N1139 C1138 1.279 . S
C1140 C1142 1.353 . S
C1140 N1143 1.314 . S
C1140 H1146 0.930 . S
C1141 N1143 1.279 . S
C1141 C1144 1.358 . S
C1141 H1147 0.930 . S
C1142 C1140 1.353 . S
C1142 C1145 1.348 . S
C1142 H1180 0.929 . S
N1143 Li1098 1.990 . S
N1143 C1140 1.314 . S
N1143 C1141 1.279 . S
C1144 C1141 1.358 . S
C1144 C1145 1.356 . S
C1144 H1181 0.930 . S
C1145 C1142 1.348 . S
C1145 C1144 1.356 . S
H1146 C1140 0.930 . S
H1147 C1141 0.930 . S
C1148 N1149 1.314 . S
C1148 C1150 1.353 . S
C1148 H1154 0.930 . S
N1149 Li1099 1.990 . S
N1149 C1148 1.314 . S
N1149 C1152 1.279 . S
C1150 C1148 1.353 . S
C1150 C1153 1.348 . S
C1150 H1182 0.929 . S
C1151 C1152 1.358 . S
C1151 C1153 1.356 . S
C1151 H1183 0.930 . S
C1152 N1149 1.279 . S
C1152 C1151 1.358 . S
C1152 H1155 0.930 . S
C1153 C1150 1.348 . S
C1153 C1151 1.356 . S
H1154 C1148 0.930 . S
H1155 C1152 0.930 . S
O1156 Li1096 1.956 . S
O1156 Li1097 1.970 . S
O1156 Li1098 1.961 . S
O1156 C1100 1.325 . S
O1157 Li1096 1.970 . S
O1157 Li1097 1.956 . S
O1157 Li1099 1.961 . S
O1157 C1106 1.325 . S
O1158 Li1096 1.961 . S
O1158 Li1098 1.956 . S
O1158 Li1099 1.970 . S
O1158 C1128 1.325 . S
O1159 Li1097 1.961 . S
O1159 Li1098 1.970 . S
O1159 Li1099 1.956 . S
O1159 C1134 1.325 . S
H1160 C1102 0.929 . S
H1161 C1103 0.930 . S
H1162 C1104 0.930 . S
H1163 C1105 0.930 . S
H1164 C1107 0.930 . S
H1165 C1109 0.929 . S
H1166 C1110 0.930 . S
H1167 C1111 0.930 . S
H1168 C1114 0.930 . S
H1169 C1117 0.929 . S
H1170 C1122 0.929 . S
H1171 C1123 0.930 . S
H1172 C1130 0.929 . S
H1173 C1131 0.930 . S
H1174 C1132 0.930 . S
H1175 C1133 0.930 . S
H1176 C1135 0.929 . S
H1177 C1136 0.930 . S
H1178 C1137 0.930 . S
H1179 C1138 0.930 . S
H1180 C1142 0.929 . S
H1181 C1144 0.930 . S
H1182 C1150 0.929 . S
H1183 C1151 0.930 . S
Li1184 N1201 1.990 . S
Li1184 O1244 1.956 . S
Li1184 O1245 1.970 1_455 S
Li1184 O1246 1.961 . S
Li1185 N1209 1.990 . S
Li1185 O1244 1.970 1_655 S
Li1185 O1245 1.956 . S
Li1185 O1247 1.961 . S
Li1186 N1231 1.990 . S
Li1186 O1244 1.961 . S
Li1186 O1246 1.956 . S
Li1186 O1247 1.970 1_455 S
Li1187 N1237 1.990 . S
Li1187 O1245 1.961 . S
Li1187 O1246 1.970 1_655 S
Li1187 O1247 1.956 . S
C1188 C1190 1.348 1_455 S
C1188 C1191 1.356 . S
C1188 O1244 1.325 . S
N1189 C1192 1.351 . S
N1189 C1193 1.279 . S
C1190 C1188 1.348 1_655 S
C1190 C1192 1.347 1_655 S
C1190 H1248 0.929 . S
C1191 C1188 1.356 . S
C1191 C1193 1.358 . S
C1191 H1249 0.930 . S
C1192 N1189 1.351 . S
C1192 C1190 1.347 1_455 S
C1192 H1250 0.896 1_455 S
C1193 N1189 1.279 . S
C1193 C1191 1.358 . S
C1193 H1251 0.930 . S
C1194 C1197 1.348 . S
C1194 C1198 1.356 . S
C1194 O1245 1.325 . S
C1195 N1196 1.279 . S
C1195 C1198 1.358 . S
C1195 H1252 0.930 . S
N1196 C1195 1.279 . S
N1196 C1199 1.314 . S
C1197 C1194 1.348 . S
C1197 C1199 1.353 . S
C1197 H1253 0.929 . S
C1198 C1194 1.356 . S
C1198 C1195 1.358 . S
C1198 H1254 0.930 . S
C1199 N1196 1.314 . S
C1199 C1197 1.353 . S
C1199 H1255 0.930 . S
C1200 N1201 1.314 . S
C1200 C1205 1.353 . S
C1200 H1206 0.930 . S
N1201 Li1184 1.990 . S
N1201 C1200 1.314 . S
N1201 C1203 1.279 . S
C1202 C1203 1.358 . S
C1202 C1204 1.356 . S
C1202 H1256 0.930 . S
C1203 N1201 1.279 . S
C1203 C1202 1.358 . S
C1203 H1207 0.930 . S
C1204 C1202 1.356 . S
C1204 C1205 1.348 . S
C1205 C1200 1.353 . S
C1205 C1204 1.348 . S
C1205 H1257 0.929 . S
H1206 C1200 0.930 . S
H1207 C1203 0.930 . S
C1208 N1209 1.314 . S
C1208 C1210 1.353 . S
C1208 H1214 0.930 . S
N1209 Li1185 1.990 . S
N1209 C1208 1.314 . S
N1209 C1212 1.279 . S
C1210 C1208 1.353 . S
C1210 C1213 1.348 . S
C1210 H1258 0.929 . S
C1211 C1212 1.358 . S
C1211 C1213 1.356 . S
C1211 H1259 0.930 . S
C1212 N1209 1.279 . S
C1212 C1211 1.358 . S
C1212 H1215 0.930 . S
C1213 C1210 1.348 . S
C1213 C1211 1.356 . S
H1214 C1208 0.930 . S
H1215 C1212 0.930 . S
C1216 C1218 1.348 . S
C1216 C1219 1.356 . S
C1216 O1246 1.325 . S
N1217 C1220 1.314 . S
N1217 C1221 1.279 . S
C1218 C1216 1.348 . S
C1218 C1220 1.353 . S
C1218 H1260 0.929 . S
C1219 C1216 1.356 . S
C1219 C1221 1.358 . S
C1219 H1261 0.930 . S
C1220 N1217 1.314 . S
C1220 C1218 1.353 . S
C1220 H1262 0.930 . S
C1221 N1217 1.279 . S
C1221 C1219 1.358 . S
C1221 H1263 0.930 . S
C1222 C1223 1.348 1_655 S
C1222 C1224 1.356 . S
C1222 O1247 1.325 . S
C1223 C1222 1.348 1_455 S
C1223 C1225 1.353 1_455 S
C1223 H1264 0.929 . S
C1224 C1222 1.356 . S
C1224 C1226 1.358 . S
C1224 H1265 0.930 . S
C1225 C1223 1.353 1_655 S
C1225 N1227 1.314 . S
C1225 H1266 0.930 1_655 S
C1226 C1224 1.358 . S
C1226 N1227 1.279 . S
C1226 H1267 0.930 . S
N1227 C1225 1.314 . S
N1227 C1226 1.279 . S
C1228 C1230 1.353 . S
C1228 N1231 1.314 . S
C1228 H1234 0.930 . S
C1229 N1231 1.279 . S
C1229 C1232 1.358 . S
C1229 H1235 0.930 . S
C1230 C1228 1.353 . S
C1230 C1233 1.348 . S
C1230 H1268 0.929 . S
N1231 Li1186 1.990 . S
N1231 C1228 1.314 . S
N1231 C1229 1.279 . S
C1232 C1229 1.358 . S
C1232 C1233 1.356 . S
C1232 H1269 0.930 . S
C1233 C1230 1.348 . S
C1233 C1232 1.356 . S
H1234 C1228 0.930 . S
H1235 C1229 0.930 . S
C1236 N1237 1.314 . S
C1236 C1238 1.353 . S
C1236 H1242 0.930 . S
N1237 Li1187 1.990 . S
N1237 C1236 1.314 . S
N1237 C1240 1.279 . S
C1238 C1236 1.353 . S
C1238 C1241 1.348 . S
C1238 H1270 0.929 . S
C1239 C1240 1.358 . S
C1239 C1241 1.356 . S
C1239 H1271 0.930 . S
C1240 N1237 1.279 . S
C1240 C1239 1.358 . S
C1240 H1243 0.930 . S
C1241 C1238 1.348 . S
C1241 C1239 1.356 . S
H1242 C1236 0.930 . S
H1243 C1240 0.930 . S
O1244 Li1184 1.956 . S
O1244 Li1185 1.970 1_455 S
O1244 Li1186 1.961 . S
O1244 C1188 1.325 . S
O1245 Li1184 1.970 1_655 S
O1245 Li1185 1.956 . S
O1245 Li1187 1.961 . S
O1245 C1194 1.325 . S
O1246 Li1184 1.961 . S
O1246 Li1186 1.956 . S
O1246 Li1187 1.970 1_455 S
O1246 C1216 1.325 . S
O1247 Li1185 1.961 . S
O1247 Li1186 1.970 1_655 S
O1247 Li1187 1.956 . S
O1247 C1222 1.325 . S
H1248 C1190 0.929 . S
H1249 C1191 0.930 . S
H1250 C1192 0.896 1_655 S
H1251 C1193 0.930 . S
H1252 C1195 0.930 . S
H1253 C1197 0.929 . S
H1254 C1198 0.930 . S
H1255 C1199 0.930 . S
H1256 C1202 0.930 . S
H1257 C1205 0.929 . S
H1258 C1210 0.929 . S
H1259 C1211 0.930 . S
H1260 C1218 0.929 . S
H1261 C1219 0.930 . S
H1262 C1220 0.930 . S
H1263 C1221 0.930 . S
H1264 C1223 0.929 . S
H1265 C1224 0.930 . S
H1266 C1225 0.930 1_455 S
H1267 C1226 0.930 . S
H1268 C1230 0.929 . S
H1269 C1232 0.930 . S
H1270 C1238 0.929 . S
H1271 C1239 0.930 . S
Li1272 N1289 1.990 . S
Li1272 O1332 1.956 . S
Li1272 O1333 1.970 . S
Li1272 O1334 1.961 . S
Li1273 N1297 1.990 . S
Li1273 O1332 1.970 . S
Li1273 O1333 1.956 . S
Li1273 O1335 1.961 . S
Li1274 N1319 1.990 . S
Li1274 O1332 1.961 . S
Li1274 O1334 1.956 . S
Li1274 O1335 1.970 . S
Li1275 N1325 1.990 . S
Li1275 O1333 1.961 . S
Li1275 O1334 1.970 . S
Li1275 O1335 1.956 . S
C1276 C1278 1.348 . S
C1276 C1279 1.356 . S
C1276 O1332 1.325 . S
N1277 C1280 1.314 . S
N1277 C1281 1.279 . S
C1278 C1276 1.348 . S
C1278 C1280 1.353 . S
C1278 H1336 0.929 . S
C1279 C1276 1.356 . S
C1279 C1281 1.358 . S
C1279 H1337 0.930 . S
C1280 N1277 1.314 . S
C1280 C1278 1.353 . S
C1280 H1338 0.930 . S
C1281 N1277 1.279 . S
C1281 C1279 1.358 . S
C1281 H1339 0.930 . S
C1282 C1285 1.348 . S
C1282 C1286 1.356 . S
C1282 O1333 1.325 . S
C1283 N1284 1.279 . S
C1283 C1286 1.358 . S
C1283 H1340 0.930 . S
N1284 C1283 1.279 . S
N1284 C1287 1.314 . S
C1285 C1282 1.348 . S
C1285 C1287 1.353 . S
C1285 H1341 0.929 . S
C1286 C1282 1.356 . S
C1286 C1283 1.358 . S
C1286 H1342 0.930 . S
C1287 N1284 1.314 . S
C1287 C1285 1.353 . S
C1287 H1343 0.930 . S
C1288 N1289 1.314 . S
C1288 C1293 1.353 . S
C1288 H1294 0.930 . S
N1289 Li1272 1.990 . S
N1289 C1288 1.314 . S
N1289 C1291 1.279 . S
C1290 C1291 1.358 . S
C1290 C1292 1.356 . S
C1290 H1344 0.930 . S
C1291 N1289 1.279 . S
C1291 C1290 1.358 . S
C1291 H1295 0.930 . S
C1292 C1290 1.356 . S
C1292 C1293 1.348 . S
C1293 C1288 1.353 . S
C1293 C1292 1.348 . S
C1293 H1345 0.929 . S
H1294 C1288 0.930 . S
H1295 C1291 0.930 . S
C1296 N1297 1.314 . S
C1296 C1298 1.353 . S
C1296 H1302 0.930 . S
N1297 Li1273 1.990 . S
N1297 C1296 1.314 . S
N1297 C1300 1.279 . S
C1298 C1296 1.353 . S
C1298 C1301 1.348 . S
C1298 H1346 0.929 . S
C1299 C1300 1.358 . S
C1299 C1301 1.356 . S
C1299 H1347 0.930 . S
C1300 N1297 1.279 . S
C1300 C1299 1.358 . S
C1300 H1303 0.930 . S
C1301 C1298 1.348 . S
C1301 C1299 1.356 . S
H1302 C1296 0.930 . S
H1303 C1300 0.930 . S
C1304 C1306 1.348 . S
C1304 C1307 1.356 . S
C1304 O1334 1.325 . S
N1305 C1308 1.314 . S
N1305 C1309 1.279 . S
C1306 C1304 1.348 . S
C1306 C1308 1.353 . S
C1306 H1348 0.929 . S
C1307 C1304 1.356 . S
C1307 C1309 1.358 . S
C1307 H1349 0.930 . S
C1308 N1305 1.314 . S
C1308 C1306 1.353 . S
C1308 H1350 0.930 . S
C1309 N1305 1.279 . S
C1309 C1307 1.358 . S
C1309 H1351 0.930 . S
C1310 C1311 1.348 . S
C1310 C1312 1.356 . S
C1310 O1335 1.325 . S
C1311 C1310 1.348 . S
C1311 C1313 1.353 . S
C1311 H1352 0.929 . S
C1312 C1310 1.356 . S
C1312 C1314 1.358 . S
C1312 H1353 0.930 . S
C1313 C1311 1.353 . S
C1313 N1315 1.314 . S
C1313 H1354 0.930 . S
C1314 C1312 1.358 . S
C1314 N1315 1.279 . S
C1314 H1355 0.930 . S
N1315 C1313 1.314 . S
N1315 C1314 1.279 . S
C1316 C1318 1.353 . S
C1316 N1319 1.314 . S
C1316 H1322 0.930 . S
C1317 N1319 1.279 . S
C1317 C1320 1.358 . S
C1317 H1323 0.930 . S
C1318 C1316 1.353 . S
C1318 C1321 1.348 . S
C1318 H1356 0.929 . S
N1319 Li1274 1.990 . S
N1319 C1316 1.314 . S
N1319 C1317 1.279 . S
C1320 C1317 1.358 . S
C1320 C1321 1.356 . S
C1320 H1357 0.930 . S
C1321 C1318 1.348 . S
C1321 C1320 1.356 . S
H1322 C1316 0.930 . S
H1323 C1317 0.930 . S
C1324 N1325 1.314 . S
C1324 C1326 1.353 . S
C1324 H1330 0.930 . S
N1325 Li1275 1.990 . S
N1325 C1324 1.314 . S
N1325 C1328 1.279 . S
C1326 C1324 1.353 . S
C1326 C1329 1.348 . S
C1326 H1358 0.929 . S
C1327 C1328 1.358 . S
C1327 C1329 1.356 . S
C1327 H1359 0.930 . S
C1328 N1325 1.279 . S
C1328 C1327 1.358 . S
C1328 H1331 0.930 . S
C1329 C1326 1.348 . S
C1329 C1327 1.356 . S
H1330 C1324 0.930 . S
H1331 C1328 0.930 . S
O1332 Li1272 1.956 . S
O1332 Li1273 1.970 . S
O1332 Li1274 1.961 . S
O1332 C1276 1.325 . S
O1333 Li1272 1.970 . S
O1333 Li1273 1.956 . S
O1333 Li1275 1.961 . S
O1333 C1282 1.325 . S
O1334 Li1272 1.961 . S
O1334 Li1274 1.956 . S
O1334 Li1275 1.970 . S
O1334 C1304 1.325 . S
O1335 Li1273 1.961 . S
O1335 Li1274 1.970 . S
O1335 Li1275 1.956 . S
O1335 C1310 1.325 . S
H1336 C1278 0.929 . S
H1337 C1279 0.930 . S
H1338 C1280 0.930 . S
H1339 C1281 0.930 . S
H1340 C1283 0.930 . S
H1341 C1285 0.929 . S
H1342 C1286 0.930 . S
H1343 C1287 0.930 . S
H1344 C1290 0.930 . S
H1345 C1293 0.929 . S
H1346 C1298 0.929 . S
H1347 C1299 0.930 . S
H1348 C1306 0.929 . S
H1349 C1307 0.930 . S
H1350 C1308 0.930 . S
H1351 C1309 0.930 . S
H1352 C1311 0.929 . S
H1353 C1312 0.930 . S
H1354 C1313 0.930 . S
H1355 C1314 0.930 . S
H1356 C1318 0.929 . S
H1357 C1320 0.930 . S
H1358 C1326 0.929 . S
H1359 C1327 0.930 . S
C1360 C1361 1.387 . S
C1360 H1364 0.950 . S
C1360 C1369 1.390 . S
C1361 C1360 1.387 . S
C1361 C1363 1.387 . S
H1362 C1369 0.950 . S
C1363 C1361 1.387 . S
C1363 C1365 1.390 . S
C1363 H1367 0.950 . S
H1364 C1360 0.950 . S
C1365 C1363 1.390 . S
C1365 C1366 1.387 . S
C1365 H1368 0.950 . S
C1366 C1365 1.387 . S
C1366 C1369 1.387 . S
H1367 C1363 0.950 . S
H1368 C1365 0.950 . S
C1369 C1360 1.390 . S
C1369 H1362 0.950 . S
C1369 C1366 1.387 . S
C1370 C1371 1.387 . S
C1370 H1374 0.950 . S
C1370 C1379 1.390 . S
C1371 C1370 1.387 . S
C1371 C1373 1.387 . S
H1372 C1379 0.950 . S
C1373 C1371 1.387 . S
C1373 C1375 1.390 . S
C1373 H1377 0.950 . S
H1374 C1370 0.950 . S
C1375 C1373 1.390 . S
C1375 C1376 1.387 . S
C1375 H1378 0.950 . S
C1376 C1375 1.387 . S
C1376 C1379 1.387 . S
H1377 C1373 0.950 . S
H1378 C1375 0.950 . S
C1379 C1370 1.390 . S
C1379 H1372 0.950 . S
C1379 C1376 1.387 . S
C1380 C1381 1.387 . S
C1380 H1384 0.950 . S
C1380 C1389 1.390 . S
C1381 C1380 1.387 . S
C1381 C1383 1.387 . S
H1382 C1389 0.950 . S
C1383 C1381 1.387 . S
C1383 C1385 1.390 . S
C1383 H1387 0.950 . S
H1384 C1380 0.950 . S
C1385 C1383 1.390 . S
C1385 C1386 1.387 . S
C1385 H1388 0.950 . S
C1386 C1385 1.387 . S
C1386 C1389 1.387 . S
H1387 C1383 0.950 . S
H1388 C1385 0.950 . S
C1389 C1380 1.390 . S
C1389 H1382 0.950 . S
C1389 C1386 1.387 . S
C1390 C1391 1.387 1_545 S
C1390 H1394 0.950 . S
C1390 C1399 1.390 . S
C1391 C1390 1.387 1_565 S
C1391 C1393 1.387 . S
H1392 C1399 0.950 . S
C1393 C1391 1.387 . S
C1393 C1395 1.390 . S
C1393 H1397 0.950 . S
H1394 C1390 0.950 . S
C1395 C1393 1.390 . S
C1395 C1396 1.387 1_565 S
C1395 H1398 0.950 . S
C1396 C1395 1.387 1_545 S
C1396 C1399 1.387 . S
H1397 C1393 0.950 . S
H1398 C1395 0.950 . S
C1399 C1390 1.390 . S
C1399 H1392 0.950 . S
C1399 C1396 1.387 . S
C1400 C1401 1.387 . S
C1400 H1404 0.950 . S
C1400 C1409 1.390 . S
C1401 C1400 1.387 . S
C1401 C1403 1.387 . S
H1402 C1409 0.950 . S
C1403 C1401 1.387 . S
C1403 C1405 1.390 . S
C1403 H1407 0.950 . S
H1404 C1400 0.950 . S
C1405 C1403 1.390 . S
C1405 C1406 1.387 . S
C1405 H1408 0.950 . S
C1406 C1405 1.387 . S
C1406 C1409 1.387 . S
H1407 C1403 0.950 . S
H1408 C1405 0.950 . S
C1409 C1400 1.390 . S
C1409 H1402 0.950 . S
C1409 C1406 1.387 . S
C1410 C1411 1.387 . S
C1410 H1414 0.950 . S
C1410 C1419 1.390 . S
C1411 C1410 1.387 . S
C1411 C1413 1.387 . S
H1412 C1419 0.950 . S
C1413 C1411 1.387 . S
C1413 C1415 1.390 . S
C1413 H1417 0.950 . S
H1414 C1410 0.950 . S
C1415 C1413 1.390 . S
C1415 C1416 1.387 . S
C1415 H1418 0.950 . S
C1416 C1415 1.387 . S
C1416 C1419 1.387 . S
H1417 C1413 0.950 . S
H1418 C1415 0.950 . S
C1419 C1410 1.390 . S
C1419 H1412 0.950 . S
C1419 C1416 1.387 . S
C1420 C1421 1.387 . S
C1420 H1424 0.950 . S
C1420 C1429 1.390 . S
C1421 C1420 1.387 . S
C1421 C1423 1.387 . S
H1422 C1429 0.950 . S
C1423 C1421 1.387 . S
C1423 C1425 1.390 . S
C1423 H1427 0.950 . S
H1424 C1420 0.950 . S
C1425 C1423 1.390 . S
C1425 C1426 1.387 . S
C1425 H1428 0.950 . S
C1426 C1425 1.387 . S
C1426 C1429 1.387 . S
H1427 C1423 0.950 . S
H1428 C1425 0.950 . S
C1429 C1420 1.390 . S
C1429 H1422 0.950 . S
C1429 C1426 1.387 . S
C1430 C1431 1.387 . S
C1430 H1434 0.950 . S
C1430 C1439 1.390 . S
C1431 C1430 1.387 . S
C1431 C1433 1.387 1_565 S
H1432 C1439 0.950 . S
C1433 C1431 1.387 1_545 S
C1433 C1435 1.390 . S
C1433 H1437 0.950 . S
H1434 C1430 0.950 . S
C1435 C1433 1.390 . S
C1435 C1436 1.387 1_545 S
C1435 H1438 0.950 . S
C1436 C1435 1.387 1_565 S
C1436 C1439 1.387 . S
H1437 C1433 0.950 . S
H1438 C1435 0.950 . S
C1439 C1430 1.390 . S
C1439 H1432 0.950 . S
C1439 C1436 1.387 . S
C1440 C1441 1.387 . S
C1440 H1444 0.950 . S
C1440 C1449 1.390 . S
C1441 C1440 1.387 . S
C1441 C1443 1.387 . S
H1442 C1449 0.950 . S
C1443 C1441 1.387 . S
C1443 C1445 1.390 . S
C1443 H1447 0.950 . S
H1444 C1440 0.950 . S
C1445 C1443 1.390 . S
C1445 C1446 1.387 . S
C1445 H1448 0.950 . S
C1446 C1445 1.387 . S
C1446 C1449 1.387 . S
H1447 C1443 0.950 . S
H1448 C1445 0.950 . S
C1449 C1440 1.390 . S
C1449 H1442 0.950 . S
C1449 C1446 1.387 . S
C1450 C1451 1.387 . S
C1450 H1454 0.950 . S
C1450 C1459 1.390 . S
C1451 C1450 1.387 . S
C1451 C1453 1.387 . S
H1452 C1459 0.950 . S
C1453 C1451 1.387 . S
C1453 C1455 1.390 . S
C1453 H1457 0.950 . S
H1454 C1450 0.950 . S
C1455 C1453 1.390 . S
C1455 C1456 1.387 . S
C1455 H1458 0.950 . S
C1456 C1455 1.387 . S
C1456 C1459 1.387 . S
H1457 C1453 0.950 . S
H1458 C1455 0.950 . S
C1459 C1450 1.390 . S
C1459 H1452 0.950 . S
C1459 C1456 1.387 . S
C1460 C1461 1.387 . S
C1460 H1464 0.950 . S
C1460 C1469 1.390 . S
C1461 C1460 1.387 . S
C1461 C1463 1.387 . S
H1462 C1469 0.950 . S
C1463 C1461 1.387 . S
C1463 C1465 1.390 . S
C1463 H1467 0.950 . S
H1464 C1460 0.950 . S
C1465 C1463 1.390 . S
C1465 C1466 1.387 . S
C1465 H1468 0.950 . S
C1466 C1465 1.387 . S
C1466 C1469 1.387 . S
H1467 C1463 0.950 . S
H1468 C1465 0.950 . S
C1469 C1460 1.390 . S
C1469 H1462 0.950 . S
C1469 C1466 1.387 . S
C1470 C1471 1.387 . S
C1470 H1474 0.950 . S
C1470 C1479 1.390 . S
C1471 C1470 1.387 . S
C1471 C1473 1.387 . S
H1472 C1479 0.950 . S
C1473 C1471 1.387 . S
C1473 C1475 1.390 . S
C1473 H1477 0.950 . S
H1474 C1470 0.950 . S
C1475 C1473 1.390 . S
C1475 C1476 1.387 . S
C1475 H1478 0.950 . S
C1476 C1475 1.387 . S
C1476 C1479 1.387 . S
H1477 C1473 0.950 . S
H1478 C1475 0.950 . S
C1479 C1470 1.390 . S
C1479 H1472 0.950 . S
C1479 C1476 1.387 . S
C1480 C1481 1.387 . S
C1480 H1484 0.950 . S
C1480 C1489 1.390 . S
C1481 C1480 1.387 . S
C1481 C1483 1.387 . S
H1482 C1489 0.950 . S
C1483 C1481 1.387 . S
C1483 C1485 1.390 . S
C1483 H1487 0.950 . S
H1484 C1480 0.950 . S
C1485 C1483 1.390 . S
C1485 C1486 1.387 . S
C1485 H1488 0.950 . S
C1486 C1485 1.387 . S
C1486 C1489 1.387 . S
H1487 C1483 0.950 . S
H1488 C1485 0.950 . S
C1489 C1480 1.390 . S
C1489 H1482 0.950 . S
C1489 C1486 1.387 . S
C1490 C1491 1.387 . S
C1490 H1494 0.950 . S
C1490 C1499 1.390 . S
C1491 C1490 1.387 . S
C1491 C1493 1.387 . S
H1492 C1499 0.950 . S
C1493 C1491 1.387 . S
C1493 C1495 1.390 . S
C1493 H1497 0.950 . S
H1494 C1490 0.950 . S
C1495 C1493 1.390 . S
C1495 C1496 1.387 . S
C1495 H1498 0.950 . S
C1496 C1495 1.387 . S
C1496 C1499 1.387 . S
H1497 C1493 0.950 . S
H1498 C1495 0.950 . S
C1499 C1490 1.390 . S
C1499 H1492 0.950 . S
C1499 C1496 1.387 . S
C1500 C1501 1.387 . S
C1500 H1504 0.950 . S
C1500 C1509 1.390 . S
C1501 C1500 1.387 . S
C1501 C1503 1.387 . S
H1502 C1509 0.950 . S
C1503 C1501 1.387 . S
C1503 C1505 1.390 . S
C1503 H1507 0.950 . S
H1504 C1500 0.950 . S
C1505 C1503 1.390 . S
C1505 C1506 1.387 . S
C1505 H1508 0.950 . S
C1506 C1505 1.387 . S
C1506 C1509 1.387 . S
H1507 C1503 0.950 . S
H1508 C1505 0.950 . S
C1509 C1500 1.390 . S
C1509 H1502 0.950 . S
C1509 C1506 1.387 . S
C1510 C1511 1.387 . S
C1510 H1514 0.950 . S
C1510 C1519 1.390 . S
C1511 C1510 1.387 . S
C1511 C1513 1.387 . S
H1512 C1519 0.950 . S
C1513 C1511 1.387 . S
C1513 C1515 1.390 . S
C1513 H1517 0.950 1_655 S
H1514 C1510 0.950 . S
C1515 C1513 1.390 . S
C1515 C1516 1.387 . S
C1515 H1518 0.950 1_655 S
C1516 C1515 1.387 . S
C1516 C1519 1.387 . S
H1517 C1513 0.950 1_455 S
H1518 C1515 0.950 1_455 S
C1519 C1510 1.390 . S
C1519 H1512 0.950 . S
C1519 C1516 1.387 . S
C1520 C1521 1.387 . S
C1520 H1524 0.950 . S
C1520 C1529 1.390 . S
C1521 C1520 1.387 . S
C1521 C1523 1.387 . S
H1522 C1529 0.950 . S
C1523 C1521 1.387 . S
C1523 C1525 1.390 . S
C1523 H1527 0.950 . S
H1524 C1520 0.950 . S
C1525 C1523 1.390 . S
C1525 C1526 1.387 . S
C1525 H1528 0.950 . S
C1526 C1525 1.387 . S
C1526 C1529 1.387 . S
H1527 C1523 0.950 . S
H1528 C1525 0.950 . S
C1529 C1520 1.390 . S
C1529 H1522 0.950 . S
C1529 C1526 1.387 . S
C1530 C1531 1.387 . S
C1530 H1534 0.950 . S
C1530 C1539 1.390 . S
C1531 C1530 1.387 . S
C1531 C1533 1.387 . S
H1532 C1539 0.950 . S
C1533 C1531 1.387 . S
C1533 C1535 1.390 . S
C1533 H1537 0.950 . S
H1534 C1530 0.950 . S
C1535 C1533 1.390 . S
C1535 C1536 1.387 . S
C1535 H1538 0.950 . S
C1536 C1535 1.387 . S
C1536 C1539 1.387 . S
H1537 C1533 0.950 . S
H1538 C1535 0.950 . S
C1539 C1530 1.390 . S
C1539 H1532 0.950 . S
C1539 C1536 1.387 . S
C1540 C1541 1.391 1_554 S
C1540 H1544 0.950 . S
C1540 C1549 1.386 1_545 S
C1541 C1540 1.391 1_556 S
C1541 C1543 1.387 . S
H1542 C1549 0.950 . S
C1543 C1541 1.387 . S
C1543 C1545 1.390 1_545 S
C1543 H1547 0.950 . S
H1544 C1540 0.950 . S
C1545 C1543 1.390 1_565 S
C1545 C1546 1.387 1_556 S
C1545 H1548 0.950 . S
C1546 C1545 1.387 1_554 S
C1546 C1549 1.387 . S
H1547 C1543 0.950 . S
H1548 C1545 0.950 . S
C1549 C1540 1.386 1_565 S
C1549 H1542 0.950 . S
C1549 C1546 1.387 . S
C1550 C1551 1.387 . S
C1550 H1554 0.950 . S
C1550 C1559 1.390 . S
C1551 C1550 1.387 . S
C1551 C1553 1.387 . S
H1552 C1559 0.950 . S
C1553 C1551 1.387 . S
C1553 C1555 1.390 . S
C1553 H1557 0.950 . S
H1554 C1550 0.950 . S
C1555 C1553 1.390 . S
C1555 C1556 1.387 . S
C1555 H1558 0.950 . S
C1556 C1555 1.387 . S
C1556 C1559 1.387 . S
H1557 C1553 0.950 . S
H1558 C1555 0.950 . S
C1559 C1550 1.390 . S
C1559 H1552 0.950 . S
C1559 C1556 1.387 . S
C1560 C1561 1.387 . S
C1560 H1564 0.950 . S
C1560 C1569 1.390 . S
C1561 C1560 1.387 . S
C1561 C1563 1.387 . S
H1562 C1569 0.950 . S
C1563 C1561 1.387 . S
C1563 C1565 1.390 . S
C1563 H1567 0.950 . S
H1564 C1560 0.950 . S
C1565 C1563 1.390 . S
C1565 C1566 1.387 . S
C1565 H1568 0.950 . S
C1566 C1565 1.387 . S
C1566 C1569 1.387 . S
H1567 C1563 0.950 . S
H1568 C1565 0.950 . S
C1569 C1560 1.390 . S
C1569 H1562 0.950 . S
C1569 C1566 1.387 . S
C1570 C1571 1.387 . S
C1570 H1574 0.950 . S
C1570 C1579 1.390 . S
C1571 C1570 1.387 . S
C1571 C1573 1.387 . S
H1572 C1579 0.950 . S
C1573 C1571 1.387 . S
C1573 C1575 1.390 . S
C1573 H1577 0.950 . S
H1574 C1570 0.950 . S
C1575 C1573 1.390 . S
C1575 C1576 1.387 . S
C1575 H1578 0.950 . S
C1576 C1575 1.387 . S
C1576 C1579 1.387 . S
H1577 C1573 0.950 . S
H1578 C1575 0.950 . S
C1579 C1570 1.390 . S
C1579 H1572 0.950 . S
C1579 C1576 1.387 . S
C1580 C1581 1.387 . S
C1580 H1584 0.950 . S
C1580 C1589 1.390 . S
C1581 C1580 1.387 . S
C1581 C1583 1.387 . S
H1582 C1589 0.950 . S
C1583 C1581 1.387 . S
C1583 C1585 1.390 . S
C1583 H1587 0.950 . S
H1584 C1580 0.950 . S
C1585 C1583 1.390 . S
C1585 C1586 1.387 . S
C1585 H1588 0.950 . S
C1586 C1585 1.387 . S
C1586 C1589 1.387 . S
H1587 C1583 0.950 . S
H1588 C1585 0.950 . S
C1589 C1580 1.390 . S
C1589 H1582 0.950 . S
C1589 C1586 1.387 . S
C1590 C1591 1.387 . S
C1590 H1594 0.950 . S
C1590 C1599 1.390 . S
C1591 C1590 1.387 . S
C1591 C1593 1.387 . S
H1592 C1599 0.950 . S
C1593 C1591 1.387 . S
C1593 C1595 1.390 . S
C1593 H1597 0.950 . S
H1594 C1590 0.950 . S
C1595 C1593 1.390 . S
C1595 C1596 1.387 . S
C1595 H1598 0.950 . S
C1596 C1595 1.387 . S
C1596 C1599 1.387 . S
H1597 C1593 0.950 . S
H1598 C1595 0.950 . S
C1599 C1590 1.390 . S
C1599 H1592 0.950 . S
C1599 C1596 1.387 . S
C1600 C1601 1.387 . S
C1600 H1604 0.950 . S
C1600 C1609 1.390 . S
C1601 C1600 1.387 . S
C1601 C1603 1.387 . S
H1602 C1609 0.950 . S
C1603 C1601 1.387 . S
C1603 C1605 1.390 . S
C1603 H1607 0.950 . S
H1604 C1600 0.950 . S
C1605 C1603 1.390 . S
C1605 C1606 1.387 . S
C1605 H1608 0.950 . S
C1606 C1605 1.387 . S
C1606 C1609 1.387 . S
H1607 C1603 0.950 . S
H1608 C1605 0.950 . S
C1609 C1600 1.390 . S
C1609 H1602 0.950 . S
C1609 C1606 1.387 . S
C1610 C1611 1.387 . S
C1610 H1614 0.950 . S
C1610 C1619 1.390 . S
C1611 C1610 1.387 . S
C1611 C1613 1.387 . S
H1612 C1619 0.950 . S
C1613 C1611 1.387 . S
C1613 C1615 1.390 . S
C1613 H1617 0.950 . S
H1614 C1610 0.950 . S
C1615 C1613 1.390 . S
C1615 C1616 1.387 . S
C1615 H1618 0.950 . S
C1616 C1615 1.387 . S
C1616 C1619 1.387 . S
H1617 C1613 0.950 . S
H1618 C1615 0.950 . S
C1619 C1610 1.390 . S
C1619 H1612 0.950 . S
C1619 C1616 1.387 . S
C1620 C1621 1.387 . S
C1620 H1624 0.950 . S
C1620 C1629 1.390 . S
C1621 C1620 1.387 . S
C1621 C1623 1.387 . S
H1622 C1629 0.950 . S
C1623 C1621 1.387 . S
C1623 C1625 1.390 . S
C1623 H1627 0.950 . S
H1624 C1620 0.950 . S
C1625 C1623 1.390 . S
C1625 C1626 1.387 . S
C1625 H1628 0.950 . S
C1626 C1625 1.387 . S
C1626 C1629 1.387 . S
H1627 C1623 0.950 . S
H1628 C1625 0.950 . S
C1629 C1620 1.390 . S
C1629 H1622 0.950 . S
C1629 C1626 1.387 . S
C1630 C1631 1.387 . S
C1630 H1634 0.950 . S
C1630 C1639 1.390 . S
C1631 C1630 1.387 . S
C1631 C1633 1.387 . S
H1632 C1639 0.950 . S
C1633 C1631 1.387 . S
C1633 C1635 1.390 . S
C1633 H1637 0.950 . S
H1634 C1630 0.950 . S
C1635 C1633 1.390 . S
C1635 C1636 1.387 . S
C1635 H1638 0.950 . S
C1636 C1635 1.387 . S
C1636 C1639 1.387 . S
H1637 C1633 0.950 . S
H1638 C1635 0.950 . S
C1639 C1630 1.390 . S
C1639 H1632 0.950 . S
C1639 C1636 1.387 . S
C1640 C1641 1.387 . S
C1640 H1644 0.950 . S
C1640 C1649 1.390 . S
C1641 C1640 1.387 . S
C1641 C1643 1.387 . S
H1642 C1649 0.950 . S
C1643 C1641 1.387 . S
C1643 C1645 1.390 . S
C1643 H1647 0.950 . S
H1644 C1640 0.950 . S
C1645 C1643 1.390 . S
C1645 C1646 1.387 . S
C1645 H1648 0.950 . S
C1646 C1645 1.387 . S
C1646 C1649 1.387 . S
H1647 C1643 0.950 . S
H1648 C1645 0.950 . S
C1649 C1640 1.390 . S
C1649 H1642 0.950 . S
C1649 C1646 1.387 . S
C1650 C1651 1.387 . S
C1650 H1654 0.950 1_545 S
C1650 C1659 1.390 . S
C1651 C1650 1.387 . S
C1651 C1653 1.387 . S
H1652 C1659 0.950 1_565 S
C1653 C1651 1.387 . S
C1653 C1655 1.390 . S
C1653 H1657 0.950 . S
H1654 C1650 0.950 1_565 S
C1655 C1653 1.390 . S
C1655 C1656 1.387 . S
C1655 H1658 0.950 . S
C1656 C1655 1.387 . S
C1656 C1659 1.387 . S
H1657 C1653 0.950 . S
H1658 C1655 0.950 . S
C1659 C1650 1.390 . S
C1659 H1652 0.950 1_545 S
C1659 C1656 1.387 . S
C1660 C1661 1.387 . S
C1660 H1664 0.950 . S
C1660 C1669 1.390 . S
C1661 C1660 1.387 . S
C1661 C1663 1.387 . S
H1662 C1669 0.950 . S
C1663 C1661 1.387 . S
C1663 C1665 1.390 . S
C1663 H1667 0.950 . S
H1664 C1660 0.950 . S
C1665 C1663 1.390 . S
C1665 C1666 1.387 . S
C1665 H1668 0.950 . S
C1666 C1665 1.387 . S
C1666 C1669 1.387 . S
H1667 C1663 0.950 . S
H1668 C1665 0.950 . S
C1669 C1660 1.390 . S
C1669 H1662 0.950 . S
C1669 C1666 1.387 . S
C1670 C1671 1.387 . S
C1670 H1674 0.950 . S
C1670 C1679 1.390 . S
C1671 C1670 1.387 . S
C1671 C1673 1.387 . S
H1672 C1679 0.950 . S
C1673 C1671 1.387 . S
C1673 C1675 1.390 . S
C1673 H1677 0.950 . S
H1674 C1670 0.950 . S
C1675 C1673 1.390 . S
C1675 C1676 1.387 . S
C1675 H1678 0.950 . S
C1676 C1675 1.387 . S
C1676 C1679 1.387 . S
H1677 C1673 0.950 . S
H1678 C1675 0.950 . S
C1679 C1670 1.390 . S
C1679 H1672 0.950 . S
C1679 C1676 1.387 . S
C1680 C1681 1.387 . S
C1680 H1684 0.950 . S
C1680 C1689 1.390 . S
C1681 C1680 1.387 . S
C1681 C1683 1.387 . S
H1682 C1689 0.950 . S
C1683 C1681 1.387 . S
C1683 C1685 1.390 . S
C1683 H1687 0.950 . S
H1684 C1680 0.950 . S
C1685 C1683 1.390 . S
C1685 C1686 1.387 . S
C1685 H1688 0.950 . S
C1686 C1685 1.387 . S
C1686 C1689 1.387 . S
H1687 C1683 0.950 . S
H1688 C1685 0.950 . S
C1689 C1680 1.390 . S
C1689 H1682 0.950 . S
C1689 C1686 1.387 . S
C1690 C1691 1.387 1_655 S
C1690 H1694 0.950 . S
C1690 C1699 1.390 . S
C1691 C1690 1.387 1_455 S
C1691 C1693 1.387 . S
H1692 C1699 0.950 . S
C1693 C1691 1.387 . S
C1693 C1695 1.390 . S
C1693 H1697 0.950 . S
H1694 C1690 0.950 . S
C1695 C1693 1.390 . S
C1695 C1696 1.387 . S
C1695 H1698 0.950 . S
C1696 C1695 1.387 . S
C1696 C1699 1.387 1_455 S
H1697 C1693 0.950 . S
H1698 C1695 0.950 . S
C1699 C1690 1.390 . S
C1699 H1692 0.950 . S
C1699 C1696 1.387 1_655 S
C1700 C1701 1.387 . S
C1700 H1704 0.950 . S
C1700 C1709 1.390 . S
C1701 C1700 1.387 . S
C1701 C1703 1.387 . S
H1702 C1709 0.950 . S
C1703 C1701 1.387 . S
C1703 C1705 1.390 . S
C1703 H1707 0.950 . S
H1704 C1700 0.950 . S
C1705 C1703 1.390 . S
C1705 C1706 1.387 . S
C1705 H1708 0.950 . S
C1706 C1705 1.387 . S
C1706 C1709 1.387 . S
H1707 C1703 0.950 . S
H1708 C1705 0.950 . S
C1709 C1700 1.390 . S
C1709 H1702 0.950 . S
C1709 C1706 1.387 . S
C1710 C1711 1.387 . S
C1710 H1714 0.950 . S
C1710 C1719 1.390 . S
C1711 C1710 1.387 . S
C1711 C1713 1.387 . S
H1712 C1719 0.950 . S
C1713 C1711 1.387 . S
C1713 C1715 1.390 1_455 S
C1713 H1717 0.950 1_455 S
H1714 C1710 0.950 . S
C1715 C1713 1.390 1_655 S
C1715 C1716 1.387 1_655 S
C1715 H1718 0.950 . S
C1716 C1715 1.387 1_455 S
C1716 C1719 1.387 . S
H1717 C1713 0.950 1_655 S
H1718 C1715 0.950 . S
C1719 C1710 1.390 . S
C1719 H1712 0.950 . S
C1719 C1716 1.387 . S
C1720 C1721 1.387 . S
C1720 H1724 0.950 . S
C1720 C1729 1.390 . S
C1721 C1720 1.387 . S
C1721 C1723 1.387 . S
H1722 C1729 0.950 . S
C1723 C1721 1.387 . S
C1723 C1725 1.390 . S
C1723 H1727 0.950 . S
H1724 C1720 0.950 . S
C1725 C1723 1.390 . S
C1725 C1726 1.387 . S
C1725 H1728 0.950 . S
C1726 C1725 1.387 . S
C1726 C1729 1.387 . S
H1727 C1723 0.950 . S
H1728 C1725 0.950 . S
C1729 C1720 1.390 . S
C1729 H1722 0.950 . S
C1729 C1726 1.387 . S
C1730 C1731 1.387 . S
C1730 H1734 0.950 . S
C1730 C1739 1.390 . S
C1731 C1730 1.387 . S
C1731 C1733 1.387 . S
H1732 C1739 0.950 . S
C1733 C1731 1.387 . S
C1733 C1735 1.390 . S
C1733 H1737 0.950 . S
H1734 C1730 0.950 . S
C1735 C1733 1.390 . S
C1735 C1736 1.387 . S
C1735 H1738 0.950 . S
C1736 C1735 1.387 . S
C1736 C1739 1.387 . S
H1737 C1733 0.950 . S
H1738 C1735 0.950 . S
C1739 C1730 1.390 . S
C1739 H1732 0.950 . S
C1739 C1736 1.387 . S
C1740 C1741 1.387 . S
C1740 H1744 0.950 . S
C1740 C1749 1.390 . S
C1741 C1740 1.387 . S
C1741 C1743 1.387 . S
H1742 C1749 0.950 . S
C1743 C1741 1.387 . S
C1743 C1745 1.390 . S
C1743 H1747 0.950 . S
H1744 C1740 0.950 . S
C1745 C1743 1.390 . S
C1745 C1746 1.387 . S
C1745 H1748 0.950 . S
C1746 C1745 1.387 . S
C1746 C1749 1.387 . S
H1747 C1743 0.950 . S
H1748 C1745 0.950 . S
C1749 C1740 1.390 . S
C1749 H1742 0.950 . S
C1749 C1746 1.387 . S
C1750 C1751 1.387 . S
C1750 H1754 0.950 . S
C1750 C1759 1.390 . S
C1751 C1750 1.387 . S
C1751 C1753 1.387 . S
H1752 C1759 0.950 . S
C1753 C1751 1.387 . S
C1753 C1755 1.390 . S
C1753 H1757 0.950 . S
H1754 C1750 0.950 . S
C1755 C1753 1.390 . S
C1755 C1756 1.387 . S
C1755 H1758 0.950 . S
C1756 C1755 1.387 . S
C1756 C1759 1.387 . S
H1757 C1753 0.950 . S
H1758 C1755 0.950 . S
C1759 C1750 1.390 . S
C1759 H1752 0.950 . S
C1759 C1756 1.387 . S
C1760 C1761 1.387 . S
C1760 H1764 0.950 . S
C1760 C1769 1.390 . S
C1761 C1760 1.387 . S
C1761 C1763 1.387 . S
H1762 C1769 0.950 . S
C1763 C1761 1.387 . S
C1763 C1765 1.390 . S
C1763 H1767 0.950 . S
H1764 C1760 0.950 . S
C1765 C1763 1.390 . S
C1765 C1766 1.387 . S
C1765 H1768 0.950 . S
C1766 C1765 1.387 . S
C1766 C1769 1.387 . S
H1767 C1763 0.950 . S
H1768 C1765 0.950 . S
C1769 C1760 1.390 . S
C1769 H1762 0.950 . S
C1769 C1766 1.387 . S
C1770 C1771 1.387 . S
C1770 H1774 0.950 . S
C1770 C1779 1.390 . S
C1771 C1770 1.387 . S
C1771 C1773 1.387 . S
H1772 C1779 0.950 . S
C1773 C1771 1.387 . S
C1773 C1775 1.390 . S
C1773 H1777 0.950 . S
H1774 C1770 0.950 . S
C1775 C1773 1.390 . S
C1775 C1776 1.387 . S
C1775 H1778 0.950 . S
C1776 C1775 1.387 . S
C1776 C1779 1.387 . S
H1777 C1773 0.950 . S
H1778 C1775 0.950 . S
C1779 C1770 1.390 . S
C1779 H1772 0.950 . S
C1779 C1776 1.387 . S
C1780 C1781 1.387 . S
C1780 H1784 0.950 . S
C1780 C1789 1.390 . S
C1781 C1780 1.387 . S
C1781 C1783 1.387 . S
H1782 C1789 0.950 . S
C1783 C1781 1.387 . S
C1783 C1785 1.390 . S
C1783 H1787 0.950 . S
H1784 C1780 0.950 . S
C1785 C1783 1.390 . S
C1785 C1786 1.387 . S
C1785 H1788 0.950 . S
C1786 C1785 1.387 . S
C1786 C1789 1.387 . S
H1787 C1783 0.950 . S
H1788 C1785 0.950 . S
C1789 C1780 1.390 . S
C1789 H1782 0.950 . S
C1789 C1786 1.387 . S
C1790 C1791 1.387 . S
C1790 H1794 0.950 . S
C1790 C1799 1.390 . S
C1791 C1790 1.387 . S
C1791 C1793 1.387 . S
H1792 C1799 0.950 . S
C1793 C1791 1.387 . S
C1793 C1795 1.390 . S
C1793 H1797 0.950 . S
H1794 C1790 0.950 . S
C1795 C1793 1.390 . S
C1795 C1796 1.387 . S
C1795 H1798 0.950 . S
C1796 C1795 1.387 . S
C1796 C1799 1.387 . S
H1797 C1793 0.950 . S
H1798 C1795 0.950 . S
C1799 C1790 1.390 . S
C1799 H1792 0.950 . S
C1799 C1796 1.387 . S
C1800 C1801 1.387 1_554 S
C1800 H1804 0.950 . S
C1800 C1809 1.390 . S
C1801 C1800 1.387 1_556 S
C1801 C1803 1.387 . S
H1802 C1809 0.950 . S
C1803 C1801 1.387 . S
C1803 C1805 1.390 . S
C1803 H1807 0.950 . S
H1804 C1800 0.950 . S
C1805 C1803 1.390 . S
C1805 C1806 1.387 . S
C1805 H1808 0.950 . S
C1806 C1805 1.387 . S
C1806 C1809 1.387 1_556 S
H1807 C1803 0.950 . S
H1808 C1805 0.950 . S
C1809 C1800 1.390 . S
C1809 H1802 0.950 . S
C1809 C1806 1.387 1_554 S
C1810 C1811 1.387 . S
C1810 H1814 0.950 . S
C1810 C1819 1.390 . S
C1811 C1810 1.387 . S
C1811 C1813 1.387 . S
H1812 C1819 0.950 . S
C1813 C1811 1.387 . S
C1813 C1815 1.390 . S
C1813 H1817 0.950 . S
H1814 C1810 0.950 . S
C1815 C1813 1.390 . S
C1815 C1816 1.387 . S
C1815 H1818 0.950 . S
C1816 C1815 1.387 . S
C1816 C1819 1.387 . S
H1817 C1813 0.950 . S
H1818 C1815 0.950 . S
C1819 C1810 1.390 . S
C1819 H1812 0.950 . S
C1819 C1816 1.387 . S
C1820 C1821 1.387 . S
C1820 H1824 0.950 . S
C1820 C1829 1.390 . S
C1821 C1820 1.387 . S
C1821 C1823 1.387 1_554 S
H1822 C1829 0.950 . S
C1823 C1821 1.387 1_556 S
C1823 C1825 1.390 . S
C1823 H1827 0.950 . S
H1824 C1820 0.950 . S
C1825 C1823 1.390 . S
C1825 C1826 1.387 1_556 S
C1825 H1828 0.950 . S
C1826 C1825 1.387 1_554 S
C1826 C1829 1.387 . S
H1827 C1823 0.950 . S
H1828 C1825 0.950 . S
C1829 C1820 1.390 . S
C1829 H1822 0.950 . S
C1829 C1826 1.387 . S
C1830 C1831 1.387 . S
C1830 H1834 0.950 . S
C1830 C1839 1.390 . S
C1831 C1830 1.387 . S
C1831 C1833 1.387 . S
H1832 C1839 0.950 . S
C1833 C1831 1.387 . S
C1833 C1835 1.390 . S
C1833 H1837 0.950 . S
H1834 C1830 0.950 . S
C1835 C1833 1.390 . S
C1835 C1836 1.387 . S
C1835 H1838 0.950 . S
C1836 C1835 1.387 . S
C1836 C1839 1.387 . S
H1837 C1833 0.950 . S
H1838 C1835 0.950 . S
C1839 C1830 1.390 . S
C1839 H1832 0.950 . S
C1839 C1836 1.387 . S
C1366 C353 1.880 . S
C1361 C101 1.864 . S
C1376 C412 1.145 . S
C1371 C125 1.044 . S
C1381 C139 2.051 . S
C1386 C529 2.043 . S
C1396 C597 1.828 . S
C1391 C82 1.860 . S
C1406 C676 1.635 . S
C1401 C196 1.665 . S
C1416 C801 1.888 . S
C1411 C234 1.902 . S
C1421 C220 0.913 . S
C1426 C861 0.944 . S
C1436 C969 1.710 . S
C1431 C173 1.706 . S
C1441 C211 1.399 . S
C1446 C1065 1.403 . S
C1456 C1125 1.168 . S
C1451 C182 1.136 . S
C1461 C201 1.361 . S
C1466 C1028 1.528 . S
C1476 C1145 1.412 . S
C1471 C239 1.368 . S
C1481 C135 1.686 . S
C1486 C1213 1.690 . S
C1491 C87 1.773 . S
C1496 C1204 1.938 . S
C1501 C106 1.130 . S
C1506 C1233 1.271 . S
C1511 C116 1.287 . S
C1516 C1241 1.314 . S
C1521 C59 1.905 . S
C1526 C625 1.919 . S
C1531 C268 2.211 . S
C1536 C588 2.221 . S
C1546 C324 1.263 . S
C1541 C291 1.286 . S
C1556 C421 1.485 . S
C1551 C163 1.372 . S
C1561 C78 2.032 1_545 S
C1566 C685 2.071 . S
C1576 C977 1.208 . S
C1571 C215 1.203 . S
C1586 C705 1.699 . S
C1581 C177 1.734 . S
C1596 C889 1.847 . S
C1591 C230 1.830 . S
C1606 C881 1.893 . S
C1601 C272 1.878 . S
C1611 C296 1.052 . S
C1616 C949 1.152 . S
C1621 C158 2.050 . S
C1626 C713 2.041 . S
C1636 C764 1.809 . S
C1631 C253 1.841 . S
C1641 C63 1.655 . S
C1646 C509 1.626 . S
C1656 C617 1.896 . S
C1651 C6 1.909 . S
C1666 C333 0.944 . S
C1661 C30 0.914 . S
C1676 C449 1.714 . S
C1671 C40 1.713 . S
C1681 C21 1.409 . S
C1686 C1153 1.413 . S
C1691 C49 1.108 . S
C1696 C1037 1.135 . S
C1701 C68 1.354 . S
C1706 C1116 1.519 . S
C1711 C11 1.366 . S
C1716 C1057 1.413 . S
C1726 C1301 1.658 . S
C1721 C154 1.660 . S
C1736 C1292 1.947 . S
C1731 C258 1.775 . S
C1746 C1321 1.314 . S
C1741 C277 1.165 . S
C1751 C287 1.290 1_554 S
C1756 C1329 1.319 . S
C1761 C192 1.902 . S
C1766 C793 1.916 . S
C1776 C773 2.200 . S
C1771 C97 2.190 . S
C1786 C852 1.262 . S
C1781 C120 1.283 . S
C1796 C940 1.490 . S
C1791 C144 1.375 . S
C1801 C249 2.031 . S
C1806 C500 2.071 . S
C1816 C441 1.230 . S
C1811 C25 1.225 . S
C1821 C44 1.706 . S
C1826 C537 1.665 . S
C1836 C361 1.847 . S
C1831 C2 1.830 1_565 S
