# Generated by pormake.
# Topology pto, (3,4)-cn, num edge types: 1
# Building blocks:
#     Node 0, Type 0, BuildingBlock: MIDCAF_clean_linker_0, # of connection points: 3
#     Node 1, Type 0, BuildingBlock: MIDCAF_clean_linker_0, # of connection points: 3
#     Node 2, Type 0, BuildingBlock: MIDCAF_clean_linker_0, # of connection points: 3
#     Node 3, Type 0, BuildingBlock: MIDCAF_clean_linker_0, # of connection points: 3
#     Node 4, Type 0, BuildingBlock: MIDCAF_clean_linker_0, # of connection points: 3
#     Node 5, Type 0, BuildingBlock: MIDCAF_clean_linker_0, # of connection points: 3
#     Node 6, Type 0, BuildingBlock: MIDCAF_clean_linker_0, # of connection points: 3
#     Node 7, Type 0, BuildingBlock: MIDCAF_clean_linker_0, # of connection points: 3
#     Node 8, Type 1, BuildingBlock: NAWXER_clean_sbu_0, # of connection points: 4
#     Node 9, Type 1, BuildingBlock: NAWXER_clean_sbu_0, # of connection points: 4
#     Node 10, Type 1, BuildingBlock: NAWXER_clean_sbu_0, # of connection points: 4
#     Node 11, Type 1, BuildingBlock: NAWXER_clean_sbu_0, # of connection points: 4
#     Node 12, Type 1, BuildingBlock: NAWXER_clean_sbu_0, # of connection points: 4
#     Node 13, Type 1, BuildingBlock: NAWXER_clean_sbu_0, # of connection points: 4
#     Edge 14, Type (0, 1), BuildingBlock: EZIPEK_clean_linker_0, # of connection points: 2
#     Edge 15, Type (0, 1), BuildingBlock: EZIPEK_clean_linker_0, # of connection points: 2
#     Edge 16, Type (0, 1), BuildingBlock: EZIPEK_clean_linker_0, # of connection points: 2
#     Edge 17, Type (0, 1), BuildingBlock: EZIPEK_clean_linker_0, # of connection points: 2
#     Edge 18, Type (0, 1), BuildingBlock: EZIPEK_clean_linker_0, # of connection points: 2
#     Edge 19, Type (0, 1), BuildingBlock: EZIPEK_clean_linker_0, # of connection points: 2
#     Edge 20, Type (0, 1), BuildingBlock: EZIPEK_clean_linker_0, # of connection points: 2
#     Edge 21, Type (0, 1), BuildingBlock: EZIPEK_clean_linker_0, # of connection points: 2
#     Edge 22, Type (0, 1), BuildingBlock: EZIPEK_clean_linker_0, # of connection points: 2
#     Edge 23, Type (0, 1), BuildingBlock: EZIPEK_clean_linker_0, # of connection points: 2
#     Edge 24, Type (0, 1), BuildingBlock: EZIPEK_clean_linker_0, # of connection points: 2
#     Edge 25, Type (0, 1), BuildingBlock: EZIPEK_clean_linker_0, # of connection points: 2
#     Edge 26, Type (0, 1), BuildingBlock: EZIPEK_clean_linker_0, # of connection points: 2
#     Edge 27, Type (0, 1), BuildingBlock: EZIPEK_clean_linker_0, # of connection points: 2
#     Edge 28, Type (0, 1), BuildingBlock: EZIPEK_clean_linker_0, # of connection points: 2
#     Edge 29, Type (0, 1), BuildingBlock: EZIPEK_clean_linker_0, # of connection points: 2
#     Edge 30, Type (0, 1), BuildingBlock: EZIPEK_clean_linker_0, # of connection points: 2
#     Edge 31, Type (0, 1), BuildingBlock: EZIPEK_clean_linker_0, # of connection points: 2
#     Edge 32, Type (0, 1), BuildingBlock: EZIPEK_clean_linker_0, # of connection points: 2
#     Edge 33, Type (0, 1), BuildingBlock: EZIPEK_clean_linker_0, # of connection points: 2
#     Edge 34, Type (0, 1), BuildingBlock: EZIPEK_clean_linker_0, # of connection points: 2
#     Edge 35, Type (0, 1), BuildingBlock: EZIPEK_clean_linker_0, # of connection points: 2
#     Edge 36, Type (0, 1), BuildingBlock: EZIPEK_clean_linker_0, # of connection points: 2
#     Edge 37, Type (0, 1), BuildingBlock: EZIPEK_clean_linker_0, # of connection points: 2
# Relax obj value: 0.000
# Max RMSD: 0.002
# Mean RMSD: 0.001
data_MOF--net-pto--node1-NAWXER_clean_sbu_0--node2-MIDCAF_clean_linker_0--edge1-EZIPEK_clean_linker_0
_symmetry_space_group_name_H-M    P1
_symmetry_Int_Tables_number       1
_symmetry_cell_setting            triclinic
loop_
_symmetry_equiv_pos_as_xyz
'x, y, z'
_cell_length_a     41.638095
_cell_length_b     39.043174
_cell_length_c     36.327493
_cell_angle_alpha  89.759583
_cell_angle_beta   90.071919
_cell_angle_gamma 90.17073
loop_
_atom_site_label
_atom_site_type_symbol
_atom_site_fract_x
_atom_site_fract_y
_atom_site_fract_z
_atom_type_partial_charge
C0 C 0.36051 0.27527 0.17268 0.0
C1 C 0.36579 0.30932 0.1615 0.0
C2 C 0.34568 0.33519 0.17484 0.0
C3 C 0.31996 0.32694 0.19799 0.0
H4 H 0.2312 0.36348 0.23615 0.0
H5 H 0.1841 0.39961 0.2266 0.0
H6 H 0.12233 0.31191 0.24221 0.0
H7 H 0.16964 0.27562 0.25319 0.0
H8 H 0.21674 0.22726 0.32772 0.0
H9 H 0.22149 0.17959 0.37164 0.0
H10 H 0.31319 0.15282 0.32542 0.0
H11 H 0.30892 0.20019 0.28156 0.0
H12 H 0.33157 0.2406 0.20435 0.0
H13 H 0.37592 0.25497 0.16281 0.0
H14 H 0.34961 0.36164 0.16686 0.0
H15 H 0.30442 0.34731 0.20739 0.0
N16 N 0.25962 0.30338 0.23009 0.0
N17 N 0.23357 0.26706 0.27233 0.0
N18 N 0.28679 0.25602 0.25443 0.0
C19 C 0.23304 0.29509 0.24976 0.0
C20 C 0.26065 0.24753 0.27507 0.0
C21 C 0.28642 0.28394 0.23201 0.0
C22 C 0.20408 0.31674 0.24574 0.0
C23 C 0.20759 0.35184 0.2377 0.0
C24 C 0.18072 0.37252 0.23198 0.0
C25 C 0.14971 0.35846 0.23339 0.0
C26 C 0.14607 0.32325 0.24089 0.0
C27 C 0.17303 0.30264 0.24751 0.0
C28 C 0.26243 0.21777 0.30095 0.0
C29 C 0.23787 0.2112 0.3267 0.0
C30 C 0.24057 0.18403 0.35193 0.0
C31 C 0.26775 0.1628 0.35181 0.0
C32 C 0.29209 0.16897 0.326 0.0
C33 C 0.28951 0.19614 0.30091 0.0
C34 C 0.3145 0.2928 0.20898 0.0
C35 C 0.3353 0.26712 0.19651 0.0
C36 C 0.18135 0.635 0.77713 0.0
C37 C 0.15102 0.65035 0.77961 0.0
C38 C 0.14828 0.68587 0.77378 0.0
C39 C 0.17539 0.70554 0.76478 0.0
H40 H 0.21352 0.78095 0.68388 0.0
H41 H 0.21531 0.82861 0.63993 0.0
H42 H 0.31467 0.84676 0.66683 0.0
H43 H 0.31335 0.7992 0.71088 0.0
H44 H 0.33382 0.76604 0.7982 0.0
H45 H 0.37697 0.75321 0.84197 0.0
H46 H 0.352 0.64598 0.83881 0.0
H47 H 0.30795 0.65881 0.79608 0.0
H48 H 0.23165 0.64224 0.76782 0.0
H49 H 0.18399 0.60765 0.78126 0.0
H50 H 0.12506 0.6982 0.77557 0.0
H51 H 0.17274 0.73285 0.76039 0.0
N52 N 0.23514 0.73813 0.73286 0.0
N53 N 0.28925 0.74882 0.74759 0.0
N54 N 0.26215 0.7026 0.77489 0.0
C55 C 0.26244 0.75704 0.72795 0.0
C56 C 0.2892 0.72156 0.771 0.0
C57 C 0.23501 0.7108 0.75629 0.0
C58 C 0.26326 0.78611 0.70118 0.0
C59 C 0.23583 0.79493 0.68051 0.0
C60 C 0.2368 0.82211 0.65523 0.0
C61 C 0.26518 0.84101 0.64998 0.0
C62 C 0.29262 0.83231 0.67032 0.0
C63 C 0.2917 0.80515 0.69563 0.0
C64 C 0.31751 0.71345 0.79389 0.0
C65 C 0.33772 0.73971 0.80657 0.0
C66 C 0.36221 0.73244 0.8317 0.0
C67 C 0.36734 0.69871 0.84397 0.0
C68 C 0.34812 0.67219 0.83003 0.0
C69 C 0.3231 0.67957 0.8056 0.0
C70 C 0.20576 0.69013 0.76265 0.0
C71 C 0.20848 0.65475 0.76919 0.0
C72 C 0.6694 0.68252 0.17296 0.0
C73 C 0.64855 0.70809 0.16019 0.0
C74 C 0.65347 0.74216 0.17124 0.0
C75 C 0.67905 0.75062 0.19447 0.0
H76 H 0.70266 0.81116 0.28669 0.0
H77 H 0.69841 0.85756 0.33119 0.0
H78 H 0.79494 0.83791 0.36818 0.0
H79 H 0.79964 0.79107 0.32365 0.0
H80 H 0.83677 0.72043 0.29002 0.0
H81 H 0.88067 0.68078 0.28553 0.0
H82 H 0.83836 0.63717 0.18797 0.0
H83 H 0.79502 0.67719 0.19204 0.0
H84 H 0.71149 0.67094 0.20444 0.0
H85 H 0.66576 0.65607 0.16507 0.0
H86 H 0.63749 0.76222 0.1618 0.0
H87 H 0.68247 0.77711 0.20236 0.0
N88 N 0.72782 0.76079 0.25301 0.0
N89 N 0.78092 0.74912 0.27134 0.0
N90 N 0.75579 0.71538 0.22635 0.0
C91 C 0.7537 0.76842 0.27445 0.0
C92 C 0.7821 0.72265 0.24691 0.0
C93 C 0.7287 0.73418 0.22912 0.0
C94 C 0.75158 0.79714 0.30137 0.0
C95 C 0.72314 0.81653 0.30415 0.0
C96 C 0.72056 0.84316 0.32963 0.0
C97 C 0.74632 0.85117 0.35294 0.0
C98 C 0.77478 0.83209 0.35038 0.0
C99 C 0.77741 0.80534 0.32485 0.0
C100 C 0.81087 0.70045 0.24312 0.0
C101 C 0.83623 0.70138 0.26844 0.0
C102 C 0.86103 0.67721 0.2666 0.0
C103 C 0.8602 0.64986 0.24089 0.0
C104 C 0.83754 0.65316 0.21213 0.0
C105 C 0.81282 0.67718 0.2138 0.0
C106 C 0.70053 0.72523 0.20635 0.0
C107 C 0.69544 0.6911 0.19542 0.0
C108 C 0.77526 0.1928 0.6527 0.0
C109 C 0.74805 0.17166 0.65001 0.0
C110 C 0.72184 0.1776 0.67332 0.0
C111 C 0.7228 0.20434 0.69892 0.0
H112 H 0.67928 0.24508 0.79938 0.0
H113 H 0.63592 0.25844 0.84252 0.0
H114 H 0.66277 0.36518 0.83968 0.0
H115 H 0.70695 0.35182 0.79761 0.0
H116 H 0.78309 0.36713 0.77454 0.0
H117 H 0.83137 0.40097 0.7869 0.0
H118 H 0.88993 0.31132 0.77095 0.0
H119 H 0.84155 0.27746 0.75702 0.0
H120 H 0.79776 0.23517 0.67973 0.0
H121 H 0.79585 0.18839 0.63517 0.0
H122 H 0.70077 0.16131 0.67192 0.0
H123 H 0.70217 0.20815 0.71653 0.0
N124 N 0.72448 0.26215 0.74892 0.0
N125 N 0.7521 0.30759 0.77676 0.0
N126 N 0.77862 0.27266 0.7342 0.0
C127 C 0.72484 0.289 0.77264 0.0
C128 C 0.77911 0.29948 0.75802 0.0
C129 C 0.75117 0.25406 0.72914 0.0
C130 C 0.69652 0.29738 0.7953 0.0
C131 C 0.67576 0.27141 0.8077 0.0
C132 C 0.65114 0.27899 0.83247 0.0
C133 C 0.64646 0.31274 0.84463 0.0
C134 C 0.66627 0.33895 0.83098 0.0
C135 C 0.69139 0.33126 0.80693 0.0
C136 C 0.80864 0.31974 0.76445 0.0
C137 C 0.80627 0.35462 0.77354 0.0
C138 C 0.83378 0.37395 0.78084 0.0
C139 C 0.86421 0.35865 0.78002 0.0
C140 C 0.86664 0.32359 0.77174 0.0
C141 C 0.83909 0.30439 0.76347 0.0
C142 C 0.75015 0.22554 0.70195 0.0
C143 C 0.77634 0.21942 0.67839 0.0
C144 C 0.66045 0.76775 0.83403 0.0
C145 C 0.66081 0.74615 0.8649 0.0
C146 C 0.68677 0.72375 0.87016 0.0
C147 C 0.71173 0.72246 0.84438 0.0
H148 H 0.78214 0.6534 0.79507 0.0
H149 H 0.82234 0.60757 0.78972 0.0
H150 H 0.87234 0.66581 0.70657 0.0
H151 H 0.83283 0.71106 0.71109 0.0
H152 H 0.82273 0.79014 0.70658 0.0
H153 H 0.83166 0.83702 0.6629 0.0
H154 H 0.73122 0.86316 0.66823 0.0
H155 H 0.72215 0.81679 0.71283 0.0
H156 H 0.68442 0.78376 0.78489 0.0
H157 H 0.64047 0.78496 0.82939 0.0
H158 H 0.68726 0.70669 0.89375 0.0
H159 H 0.7313 0.70473 0.84892 0.0
N160 N 0.75778 0.71557 0.78324 0.0
N161 N 0.78589 0.74304 0.73567 0.0
N162 N 0.74202 0.77029 0.76266 0.0
C163 C 0.78187 0.71541 0.75784 0.0
C164 C 0.76628 0.77043 0.7378 0.0
C165 C 0.73771 0.7431 0.78571 0.0
C166 C 0.80433 0.68618 0.75389 0.0
C167 C 0.80145 0.65624 0.77535 0.0
C168 C 0.82419 0.62996 0.77214 0.0
C169 C 0.8501 0.63347 0.74763 0.0
C170 C 0.85238 0.66265 0.72542 0.0
C171 C 0.82974 0.68863 0.72836 0.0
C172 C 0.77168 0.7998 0.71296 0.0
C173 C 0.80253 0.80595 0.69856 0.0
C174 C 0.80773 0.83264 0.67365 0.0
C175 C 0.78204 0.85313 0.66216 0.0
C176 C 0.75127 0.84736 0.67675 0.0
C177 C 0.74616 0.82105 0.70226 0.0
C178 C 0.71136 0.74396 0.8132 0.0
C179 C 0.68557 0.76688 0.80859 0.0
C180 C 0.81781 0.1696 0.33292 0.0
C181 C 0.79406 0.14483 0.33909 0.0
C182 C 0.76501 0.14649 0.31954 0.0
C183 C 0.75921 0.17365 0.29519 0.0
H184 H 0.69311 0.21742 0.22111 0.0
H185 H 0.64832 0.21848 0.1775 0.0
H186 H 0.69122 0.30459 0.12139 0.0
H187 H 0.73596 0.30433 0.16548 0.0
H188 H 0.78893 0.35131 0.21958 0.0
H189 H 0.82808 0.39776 0.22929 0.0
H190 H 0.87123 0.3406 0.31806 0.0
H191 H 0.83253 0.29477 0.30933 0.0
H192 H 0.83052 0.21608 0.30552 0.0
H193 H 0.84035 0.16859 0.34782 0.0
H194 H 0.74643 0.12748 0.32419 0.0
H195 H 0.73618 0.17508 0.28138 0.0
N196 N 0.75093 0.23158 0.24372 0.0
N197 N 0.76312 0.28924 0.23002 0.0
N198 N 0.79299 0.25925 0.27421 0.0
C199 C 0.7448 0.26067 0.22411 0.0
C200 C 0.78719 0.28864 0.2555 0.0
C201 C 0.77528 0.23069 0.26857 0.0
C202 C 0.7181 0.26094 0.19693 0.0
C203 C 0.69322 0.23651 0.19939 0.0
C204 C 0.6676 0.23696 0.17446 0.0
C205 C 0.66661 0.26143 0.14615 0.0
C206 C 0.69173 0.28536 0.14297 0.0
C207 C 0.71711 0.28533 0.16833 0.0
C208 C 0.80784 0.31894 0.26314 0.0
C209 C 0.80633 0.34894 0.24161 0.0
C210 C 0.8285 0.37557 0.24728 0.0
C211 C 0.85243 0.37245 0.27444 0.0
C212 C 0.85286 0.34348 0.29713 0.0
C213 C 0.83077 0.31713 0.29171 0.0
C214 C 0.78234 0.1996 0.29045 0.0
C215 C 0.812 0.19679 0.30889 0.0
C216 C 0.26102 0.16396 0.67627 0.0
C217 C 0.23012 0.15902 0.6616 0.0
C218 C 0.20495 0.18028 0.67277 0.0
C219 C 0.21087 0.20707 0.69714 0.0
H220 H 0.19148 0.30823 0.69655 0.0
H221 H 0.15118 0.35275 0.69125 0.0
H222 H 0.19071 0.40361 0.78615 0.0
H223 H 0.23137 0.35837 0.79244 0.0
H224 H 0.29628 0.32051 0.83019 0.0
H225 H 0.34009 0.31834 0.87522 0.0
H226 H 0.36043 0.21423 0.84438 0.0
H227 H 0.31684 0.21589 0.79939 0.0
H228 H 0.29094 0.19405 0.71177 0.0
H229 H 0.28067 0.14757 0.66803 0.0
H230 H 0.18092 0.17654 0.66201 0.0
H231 H 0.19115 0.22364 0.70474 0.0
N232 N 0.23035 0.27086 0.73058 0.0
N233 N 0.25894 0.29843 0.77754 0.0
N234 N 0.27185 0.24195 0.76075 0.0
C235 C 0.23549 0.29908 0.75131 0.0
C236 C 0.27728 0.26978 0.78238 0.0
C237 C 0.24825 0.24236 0.735 0.0
C238 C 0.21439 0.32924 0.74551 0.0
C239 C 0.19212 0.32898 0.71622 0.0
C240 C 0.16912 0.3546 0.7128 0.0
C241 C 0.16803 0.38129 0.73825 0.0
C242 C 0.19145 0.38317 0.7661 0.0
C243 C 0.21449 0.35723 0.76978 0.0
C244 C 0.30301 0.26848 0.81086 0.0
C245 C 0.30985 0.29704 0.83308 0.0
C246 C 0.33479 0.29582 0.85896 0.0
C247 C 0.35329 0.26605 0.86321 0.0
C248 C 0.34624 0.23732 0.84167 0.0
C249 C 0.32135 0.23848 0.81581 0.0
C250 C 0.2419 0.2125 0.7114 0.0
C251 C 0.26682 0.19033 0.7013 0.0
C252 C 0.1851 0.63883 0.24253 0.0
C253 C 0.16038 0.64141 0.26868 0.0
C254 C 0.15843 0.67058 0.29069 0.0
C255 C 0.18001 0.69753 0.28575 0.0
H256 H 0.18459 0.79515 0.30961 0.0
H257 H 0.1759 0.84191 0.35262 0.0
H258 H 0.26524 0.88845 0.3192 0.0
H259 H 0.27446 0.84151 0.27574 0.0
H260 H 0.31856 0.79882 0.21822 0.0
H261 H 0.3636 0.79806 0.17506 0.0
H262 H 0.32074 0.71271 0.11822 0.0
H263 H 0.27576 0.71269 0.16179 0.0
H264 H 0.22496 0.66395 0.21622 0.0
H265 H 0.18668 0.61648 0.22507 0.0
H266 H 0.1394 0.67304 0.31082 0.0
H267 H 0.17714 0.71995 0.30286 0.0
N268 N 0.2192 0.7553 0.27136 0.0
N269 N 0.26117 0.78375 0.24139 0.0
N270 N 0.24855 0.7267 0.22603 0.0
C271 C 0.23707 0.78393 0.26651 0.0
C272 C 0.26698 0.75532 0.22086 0.0
C273 C 0.22465 0.72657 0.25163 0.0
C274 C 0.23049 0.81433 0.28951 0.0
C275 C 0.20236 0.81542 0.31098 0.0
C276 C 0.19716 0.8422 0.33545 0.0
C277 C 0.21994 0.86838 0.33894 0.0
C278 C 0.24739 0.86836 0.31659 0.0
C279 C 0.25261 0.84153 0.2919 0.0
C280 C 0.29358 0.75564 0.19363 0.0
C281 C 0.31849 0.78001 0.19639 0.0
C282 C 0.34424 0.77973 0.17171 0.0
C283 C 0.34534 0.75551 0.14339 0.0
C284 C 0.32014 0.73176 0.1398 0.0
C285 C 0.29461 0.73163 0.16489 0.0
C286 C 0.20396 0.69608 0.25837 0.0
C287 C 0.20675 0.66604 0.23734 0.0
C288 C 0.9624 0.46399 0.27852 0.0
C289 C 0.05259 0.54697 0.27512 0.0
O290 O 0.97746 0.47446 0.307 0.0
Zn291 Zn 0.00768 0.50545 0.2815 0.0
O292 O 0.97103 0.47444 0.24668 0.0
Zn293 Zn 0.00595 0.5055 0.22121 0.0
O294 O 0.03152 0.46954 0.1966 0.0
O295 O 0.03867 0.46992 0.25658 0.0
O296 O 0.04243 0.53648 0.24392 0.0
O297 O 0.03898 0.53647 0.30457 0.0
O298 O 0.975 0.54055 0.25858 0.0
O299 O 0.97806 0.54076 0.19813 0.0
C300 C 0.04558 0.45751 0.22511 0.0
C301 C 0.96555 0.55239 0.22761 0.0
C302 C 0.97037 0.45461 0.79298 0.0
C303 C 0.04634 0.55303 0.79446 0.0
O304 O 0.98405 0.46619 0.82184 0.0
Zn305 Zn 0.00859 0.50354 0.79819 0.0
O306 O 0.97734 0.46788 0.76177 0.0
Zn307 Zn 0.00755 0.50547 0.73819 0.0
O308 O 0.03897 0.47734 0.7119 0.0
O309 O 0.0452 0.47526 0.77226 0.0
O310 O 0.03825 0.54171 0.76283 0.0
O311 O 0.03395 0.53945 0.82316 0.0
O312 O 0.97116 0.53341 0.77564 0.0
O313 O 0.97561 0.53547 0.7151 0.0
C314 C 0.05437 0.46665 0.74006 0.0
C315 C 0.96113 0.54434 0.74449 0.0
C316 C 0.2617 0.95788 0.54947 0.0
C317 C 0.26946 0.05235 0.45863 0.0
O318 O 0.23462 0.9691 0.538 0.0
Zn319 Zn 0.2165 0.00941 0.50388 0.0
O320 O 0.28741 0.97214 0.53805 0.0
Zn321 Zn 0.26802 0.0061 0.50493 0.0
O322 O 0.24871 0.04152 0.54266 0.0
O323 O 0.19579 0.03967 0.53885 0.0
O324 O 0.29313 0.03667 0.47316 0.0
O325 O 0.24073 0.0444 0.46784 0.0
O326 O 0.19165 0.98346 0.46871 0.0
O327 O 0.24418 0.97467 0.46532 0.0
C328 C 0.22118 0.05183 0.55332 0.0
C329 C 0.21557 0.96855 0.45409 0.0
C330 C 0.54278 0.69448 0.05857 0.0
C331 C 0.4658 0.69209 0.95576 0.0
O332 O 0.52941 0.6677 0.04562 0.0
Zn333 Zn 0.50369 0.69049 0.00783 0.0
O334 O 0.53528 0.72398 0.04586 0.0
Zn335 Zn 0.5041 0.7457 0.00584 0.0
O336 O 0.47316 0.76998 0.03689 0.0
O337 O 0.46677 0.71397 0.03933 0.0
O338 O 0.47323 0.72211 0.96687 0.0
O339 O 0.47841 0.66593 0.97104 0.0
O340 O 0.54067 0.71193 0.97455 0.0
O341 O 0.53516 0.768 0.9728 0.0
C342 C 0.45783 0.74394 0.04898 0.0
C343 C 0.54997 0.74112 0.96252 0.0
C344 C 0.79117 0.96145 0.55423 0.0
C345 C 0.79916 0.0444 0.45439 0.0
O346 O 0.76393 0.97218 0.54291 0.0
Zn347 Zn 0.74559 0.00798 0.50454 0.0
O348 O 0.81693 0.97331 0.54029 0.0
Zn349 Zn 0.79709 0.00382 0.50474 0.0
O350 O 0.77906 0.04421 0.53836 0.0
O351 O 0.72623 0.04224 0.53696 0.0
O352 O 0.8227 0.02923 0.4697 0.0
O353 O 0.77034 0.03882 0.46511 0.0
O354 O 0.72057 0.97777 0.47249 0.0
O355 O 0.77291 0.96884 0.46896 0.0
C356 C 0.75197 0.05577 0.54925 0.0
C357 C 0.74424 0.96144 0.45904 0.0
C358 C 0.55504 0.27141 0.0496 0.0
C359 C 0.46341 0.27227 0.96206 0.0
O360 O 0.54003 0.2451 0.03786 0.0
Zn361 Zn 0.50904 0.26874 0.00595 0.0
O362 O 0.54594 0.30118 0.03916 0.0
Zn363 Zn 0.50906 0.32393 0.00667 0.0
O364 O 0.48318 0.34704 0.04378 0.0
O365 O 0.47752 0.29075 0.04528 0.0
O366 O 0.47226 0.3017 0.97364 0.0
O367 O 0.4785 0.24572 0.97301 0.0
O368 O 0.5399 0.29203 0.96668 0.0
O369 O 0.53452 0.34823 0.96961 0.0
C370 C 0.46992 0.32037 0.05733 0.0
C371 C 0.54731 0.32197 0.95505 0.0
C372 C 0.11635 0.40015 0.1961 0.0
C373 C 0.12121 0.38128 0.22913 0.0
C374 C 0.07183 0.40566 0.25397 0.0
C375 C 0.06993 0.4292 0.22377 0.0
N376 N 0.09602 0.45253 0.1694 0.0
N377 N 0.10707 0.37255 0.29294 0.0
C378 C 0.09353 0.42732 0.19544 0.0
C379 C 0.09989 0.38574 0.25899 0.0
N380 N 0.13336 0.39204 0.16525 0.0
N381 N 0.04671 0.40147 0.27775 0.0
H382 H 0.12799 0.35888 0.29853 0.0
H383 H 0.09393 0.37843 0.31648 0.0
H384 H 0.02515 0.41457 0.2755 0.0
H385 H 0.04602 0.38205 0.29752 0.0
H386 H 0.12859 0.40284 0.13953 0.0
H387 H 0.14991 0.37203 0.16463 0.0
H388 H 0.11488 0.45377 0.15061 0.0
H389 H 0.08168 0.47429 0.16893 0.0
C390 C 0.09787 0.62611 0.75925 0.0
C391 C 0.12209 0.62862 0.78646 0.0
C392 C 0.0963 0.58203 0.82132 0.0
C393 C 0.0704 0.58164 0.79562 0.0
N394 N 0.0428 0.61195 0.74642 0.0
N395 N 0.13957 0.61534 0.84817 0.0
C396 C 0.06996 0.60652 0.76672 0.0
C397 C 0.11967 0.60871 0.81913 0.0
N398 N 0.10212 0.64065 0.72528 0.0
N399 N 0.10031 0.55592 0.84603 0.0
H400 H 0.15659 0.635 0.84767 0.0
H401 H 0.13683 0.60371 0.87386 0.0
H402 H 0.08524 0.53469 0.84769 0.0
H403 H 0.12073 0.55356 0.86246 0.0
H404 H 0.08654 0.63623 0.70331 0.0
H405 H 0.12281 0.654 0.71771 0.0
H406 H 0.04059 0.63214 0.72771 0.0
H407 H 0.02141 0.59888 0.75093 0.0
C408 C 0.88193 0.59194 0.21702 0.0
C409 C 0.88422 0.62021 0.24154 0.0
C410 C 0.93868 0.60261 0.25737 0.0
C411 C 0.93882 0.57806 0.22836 0.0
N412 N 0.90885 0.54967 0.1798 0.0
N413 N 0.90433 0.62667 0.30318 0.0
C414 C 0.91005 0.57299 0.20769 0.0
C415 C 0.90973 0.61896 0.26715 0.0
N416 N 0.85232 0.57902 0.20857 0.0
N417 N 0.96606 0.61049 0.27622 0.0
H418 H 0.88114 0.63076 0.31313 0.0
H419 H 0.92159 0.62321 0.32369 0.0
H420 H 0.98823 0.59971 0.27038 0.0
H421 H 0.96695 0.63024 0.29548 0.0
H422 H 0.84879 0.55641 0.19398 0.0
H423 H 0.83152 0.58807 0.2212 0.0
H424 H 0.88971 0.54842 0.16133 0.0
H425 H 0.92747 0.53312 0.17332 0.0
C426 C 0.91575 0.38451 0.75676 0.0
C427 C 0.89346 0.3801 0.78577 0.0
C428 C 0.9216 0.42442 0.82129 0.0
C429 C 0.94586 0.42639 0.79368 0.0
N430 N 0.96988 0.39934 0.74024 0.0
N431 N 0.88013 0.38941 0.8495 0.0
C432 C 0.9442 0.40353 0.76314 0.0
C433 C 0.89808 0.39789 0.81936 0.0
N434 N 0.90913 0.3723 0.72234 0.0
N435 N 0.91912 0.44905 0.84773 0.0
H436 H 0.86303 0.36981 0.84915 0.0
H437 H 0.8846 0.39939 0.87558 0.0
H438 H 0.93403 0.47039 0.84922 0.0
H439 H 0.89981 0.45028 0.86591 0.0
H440 H 0.92317 0.37824 0.69943 0.0
H441 H 0.88794 0.35944 0.71572 0.0
H442 H 0.97065 0.38044 0.72007 0.0
H443 H 0.99165 0.41193 0.74376 0.0
C444 C 0.26216 0.10021 0.36796 0.0
C445 C 0.27075 0.13395 0.3787 0.0
C446 C 0.28156 0.11356 0.44167 0.0
C447 C 0.27406 0.07967 0.43054 0.0
N448 N 0.26282 0.03934 0.38228 0.0
N449 N 0.29403 0.17205 0.4235 0.0
C450 C 0.26611 0.0726 0.39335 0.0
C451 C 0.28216 0.14039 0.4149 0.0
N452 N 0.24913 0.09477 0.33389 0.0
N453 N 0.28667 0.12036 0.4781 0.0
H454 H 0.29429 0.19243 0.40483 0.0
H455 H 0.30585 0.17748 0.44807 0.0
H456 H 0.28731 0.10126 0.49826 0.0
H457 H 0.28829 0.14502 0.48876 0.0
H458 H 0.23895 0.07162 0.32577 0.0
H459 H 0.24638 0.11421 0.31437 0.0
H460 H 0.26004 0.03202 0.35494 0.0
H461 H 0.26561 0.01862 0.40024 0.0
C462 C 0.42522 0.69964 0.86205 0.0
C463 C 0.3931 0.69163 0.87136 0.0
C464 C 0.41062 0.67559 0.93368 0.0
C465 C 0.44167 0.68893 0.92583 0.0
N466 N 0.47582 0.72119 0.88412 0.0
N467 N 0.35407 0.67654 0.91788 0.0
C468 C 0.44831 0.70298 0.89043 0.0
C469 C 0.38545 0.68037 0.90757 0.0
N470 N 0.43372 0.70394 0.82599 0.0
N471 N 0.40479 0.65946 0.96648 0.0
H472 H 0.33484 0.68069 0.90004 0.0
H473 H 0.34691 0.67224 0.94497 0.0
H474 H 0.42184 0.6574 0.98738 0.0
H475 H 0.38369 0.64597 0.97191 0.0
H476 H 0.45749 0.70665 0.81748 0.0
H477 H 0.41741 0.70107 0.80437 0.0
H478 H 0.48009 0.73463 0.85976 0.0
H479 H 0.49269 0.72629 0.90445 0.0
C480 C 0.74543 0.91424 0.36798 0.0
C481 C 0.74337 0.87963 0.3801 0.0
C482 C 0.73908 0.89894 0.44424 0.0
C483 C 0.7397 0.93349 0.43194 0.0
N484 N 0.73855 0.97455 0.38239 0.0
N485 N 0.73237 0.83896 0.42861 0.0
C486 C 0.7412 0.94126 0.39381 0.0
C487 C 0.73844 0.87197 0.41794 0.0
N488 N 0.75285 0.92122 0.33205 0.0
N489 N 0.7402 0.89192 0.48114 0.0
H490 H 0.73192 0.81853 0.41018 0.0
H491 H 0.72524 0.83211 0.4551 0.0
H492 H 0.73925 0.91094 0.5012 0.0
H493 H 0.74401 0.86751 0.4919 0.0
H494 H 0.75823 0.94564 0.3222 0.0
H495 H 0.75606 0.90218 0.31236 0.0
H496 H 0.73635 0.98189 0.35493 0.0
H497 H 0.73597 0.99489 0.4007 0.0
C498 C 0.58833 0.31326 0.8619 0.0
C499 C 0.62059 0.32023 0.87165 0.0
C500 C 0.60291 0.33709 0.93349 0.0
C501 C 0.57157 0.32484 0.92528 0.0
N502 N 0.53661 0.29416 0.88338 0.0
N503 N 0.65956 0.33413 0.91865 0.0
C504 C 0.5648 0.31103 0.88992 0.0
C505 C 0.62819 0.33135 0.90786 0.0
N506 N 0.5801 0.309 0.82577 0.0
N507 N 0.60884 0.35316 0.96615 0.0
H508 H 0.67883 0.3292 0.90121 0.0
H509 H 0.66656 0.33832 0.94579 0.0
H510 H 0.59152 0.35613 0.98656 0.0
H511 H 0.63031 0.36584 0.97186 0.0
H512 H 0.55636 0.30707 0.81686 0.0
H513 H 0.59672 0.31109 0.80439 0.0
H514 H 0.53203 0.28074 0.85919 0.0
H515 H 0.51923 0.2903 0.90346 0.0
C516 C 0.27962 0.86847 0.589 0.0
C517 C 0.26551 0.87104 0.62443 0.0
C518 C 0.24561 0.9284 0.60914 0.0
C519 C 0.26259 0.92765 0.57503 0.0
N520 N 0.2962 0.8967 0.53242 0.0
N521 N 0.24089 0.90577 0.67108 0.0
C522 C 0.27999 0.89767 0.56512 0.0
C523 C 0.25025 0.9017 0.63529 0.0
N524 N 0.29139 0.83762 0.57761 0.0
N525 N 0.22409 0.95383 0.61647 0.0
H526 H 0.24373 0.8868 0.69112 0.0
H527 H 0.23323 0.92909 0.68176 0.0
H528 H 0.21896 0.97384 0.59856 0.0
H529 H 0.20858 0.95321 0.63894 0.0
H530 H 0.29871 0.83265 0.55079 0.0
H531 H 0.29178 0.81592 0.59446 0.0
H532 H 0.31275 0.8778 0.52576 0.0
H533 H 0.29401 0.91548 0.51211 0.0
C534 C 0.58949 0.70602 0.14787 0.0
C535 C 0.62111 0.69947 0.13562 0.0
C536 C 0.59966 0.68071 0.07597 0.0
C537 C 0.56877 0.69256 0.08646 0.0
N538 N 0.53635 0.72376 0.13017 0.0
N539 N 0.65708 0.68514 0.08592 0.0
C540 C 0.56418 0.70713 0.12185 0.0
C541 C 0.62647 0.68759 0.09921 0.0
N542 N 0.58357 0.71098 0.18446 0.0
N543 N 0.60366 0.66394 0.04336 0.0
H544 H 0.67737 0.69087 0.10157 0.0
H545 H 0.66234 0.68042 0.0584 0.0
H546 H 0.5851 0.6601 0.02453 0.0
H547 H 0.62486 0.65156 0.03622 0.0
H548 H 0.56045 0.7127 0.19524 0.0
H549 H 0.60155 0.70969 0.20445 0.0
H550 H 0.53317 0.73766 0.15431 0.0
H551 H 0.51785 0.72697 0.11131 0.0
C552 C 0.73184 0.14373 0.59007 0.0
C553 C 0.74812 0.14187 0.62439 0.0
C554 C 0.76832 0.08465 0.60901 0.0
C555 C 0.75104 0.08564 0.57503 0.0
N556 N 0.72247 0.11906 0.52964 0.0
N557 N 0.77627 0.1085 0.66989 0.0
C558 C 0.73408 0.11587 0.56476 0.0
C559 C 0.76487 0.1118 0.63469 0.0
N560 N 0.71378 0.172 0.58204 0.0
N561 N 0.7893 0.05862 0.6164 0.0
H562 H 0.77458 0.12785 0.6895 0.0
H563 H 0.78474 0.08557 0.6809 0.0
H564 H 0.79301 0.03786 0.59925 0.0
H565 H 0.80558 0.05902 0.63816 0.0
H566 H 0.69812 0.17372 0.55979 0.0
H567 H 0.7129 0.19343 0.59906 0.0
H568 H 0.71272 0.14143 0.51885 0.0
H569 H 0.7251 0.10016 0.50969 0.0
C570 C 0.38702 0.32928 0.09976 0.0
C571 C 0.39288 0.31746 0.13621 0.0
C572 C 0.44929 0.3081 0.12112 0.0
C573 C 0.4443 0.32258 0.0856 0.0
N574 N 0.40915 0.35176 0.04284 0.0
N575 N 0.43115 0.30519 0.18426 0.0
C576 C 0.41348 0.33518 0.07569 0.0
C577 C 0.42458 0.3101 0.14775 0.0
N578 N 0.35619 0.3326 0.08727 0.0
N579 N 0.47688 0.29076 0.12906 0.0
H580 H 0.41363 0.3071 0.20466 0.0
H581 H 0.45444 0.30291 0.19452 0.0
H582 H 0.49492 0.28683 0.10986 0.0
H583 H 0.48021 0.27694 0.15337 0.0
H584 H 0.35042 0.33727 0.05981 0.0
H585 H 0.33612 0.32772 0.1036 0.0
H586 H 0.38813 0.36473 0.03605 0.0
H587 H 0.42731 0.35476 0.02337 0.0
C588 C 0.87902 0.58268 0.72113 0.0
C589 C 0.87722 0.60894 0.74788 0.0
C590 C 0.93154 0.59541 0.76907 0.0
C591 C 0.93267 0.56735 0.74408 0.0
N592 N 0.90438 0.52982 0.70228 0.0
N593 N 0.89919 0.63706 0.80128 0.0
C594 C 0.90562 0.55982 0.72153 0.0
C595 C 0.90267 0.61421 0.77309 0.0
N596 N 0.85543 0.57978 0.69513 0.0
N597 N 0.95842 0.60521 0.78801 0.0
H598 H 0.87904 0.65256 0.80441 0.0
H599 H 0.91508 0.63874 0.82335 0.0
H600 H 0.98003 0.59206 0.78721 0.0
H601 H 0.96023 0.62814 0.8024 0.0
H602 H 0.85724 0.5639 0.67227 0.0
H603 H 0.83487 0.59501 0.69512 0.0
H604 H 0.88391 0.52131 0.68855 0.0
H605 H 0.92265 0.51166 0.70288 0.0
C606 C 0.90647 0.39086 0.25214 0.0
C607 C 0.88005 0.39658 0.27582 0.0
C608 C 0.90739 0.44673 0.30211 0.0
C609 C 0.93495 0.43944 0.28042 0.0
N610 N 0.96236 0.40113 0.23866 0.0
N611 N 0.85659 0.42647 0.32695 0.0
C612 C 0.93489 0.41056 0.2565 0.0
C613 C 0.88095 0.4234 0.30203 0.0
N614 N 0.90427 0.36684 0.22489 0.0
N615 N 0.90549 0.47694 0.32087 0.0
H616 H 0.83622 0.41084 0.32655 0.0
H617 H 0.85756 0.44287 0.34946 0.0
H618 H 0.92379 0.49518 0.32096 0.0
H619 H 0.88464 0.48538 0.33372 0.0
H620 H 0.92079 0.36479 0.20352 0.0
H621 H 0.88468 0.35041 0.22178 0.0
H622 H 0.96509 0.37781 0.22525 0.0
H623 H 0.98351 0.41522 0.23942 0.0
C624 C 0.11327 0.39502 0.76167 0.0
C625 C 0.13946 0.40393 0.73865 0.0
C626 C 0.11018 0.45438 0.71616 0.0
C627 C 0.08296 0.44404 0.73711 0.0
N628 N 0.05709 0.40169 0.77599 0.0
N629 N 0.16185 0.43887 0.69025 0.0
C630 C 0.08415 0.41361 0.75887 0.0
C631 C 0.13756 0.43259 0.71465 0.0
N632 N 0.11635 0.36895 0.78675 0.0
N633 N 0.11078 0.48593 0.69969 0.0
H634 H 0.18289 0.42443 0.68963 0.0
H635 H 0.16027 0.45684 0.66907 0.0
H636 H 0.09171 0.5031 0.70088 0.0
H637 H 0.13122 0.49644 0.68757 0.0
H638 H 0.09994 0.36434 0.80782 0.0
H639 H 0.13645 0.35317 0.7884 0.0
H640 H 0.05518 0.37738 0.7877 0.0
H641 H 0.03549 0.41488 0.77631 0.0
C642 C 0.1337 0.58928 0.29642 0.0
C643 C 0.13373 0.61608 0.26995 0.0
C644 C 0.0792 0.60042 0.25103 0.0
C645 C 0.07997 0.57168 0.2754 0.0
N646 N 0.11085 0.53493 0.31568 0.0
N647 N 0.1088 0.64438 0.21822 0.0
C648 C 0.10794 0.56514 0.29682 0.0
C649 C 0.10718 0.62073 0.24609 0.0
N650 N 0.15822 0.58705 0.32136 0.0
N651 N 0.05133 0.60931 0.23352 0.0
H652 H 0.12817 0.66101 0.2145 0.0
H653 H 0.09209 0.64576 0.19691 0.0
H654 H 0.0303 0.59506 0.23509 0.0
H655 H 0.04815 0.63247 0.21969 0.0
H656 H 0.15776 0.57064 0.34404 0.0
H657 H 0.17813 0.60333 0.32077 0.0
H658 H 0.13202 0.52717 0.32848 0.0
H659 H 0.09319 0.51598 0.31573 0.0
C660 C 0.78268 0.91534 0.64595 0.0
C661 C 0.78728 0.88098 0.63498 0.0
C662 C 0.80036 0.90033 0.57244 0.0
C663 C 0.7918 0.93418 0.58252 0.0
N664 N 0.76729 0.97211 0.62684 0.0
N665 N 0.79545 0.83981 0.58649 0.0
C666 C 0.78083 0.94124 0.6187 0.0
C667 C 0.79505 0.87314 0.5979 0.0
N668 N 0.78063 0.92334 0.68247 0.0
N669 N 0.81277 0.89399 0.53832 0.0
H670 H 0.79098 0.81916 0.60406 0.0
H671 H 0.79737 0.83265 0.559 0.0
H672 H 0.81508 0.91276 0.51799 0.0
H673 H 0.82275 0.87058 0.53095 0.0
H674 H 0.7805 0.94845 0.69208 0.0
H675 H 0.78241 0.90502 0.70336 0.0
H676 H 0.75611 0.9772 0.65186 0.0
H677 H 0.764 0.99134 0.60736 0.0
C678 C 0.61407 0.28833 0.12877 0.0
C679 C 0.63803 0.26357 0.12152 0.0
C680 C 0.60915 0.24587 0.06563 0.0
C681 C 0.58355 0.26843 0.07459 0.0
N682 N 0.56052 0.30921 0.11724 0.0
N683 N 0.65691 0.21571 0.08604 0.0
C684 C 0.5858 0.28927 0.10674 0.0
C685 C 0.63501 0.2413 0.09094 0.0
N686 N 0.61855 0.31148 0.15653 0.0
N687 N 0.61003 0.23067 0.0318 0.0
H688 H 0.67704 0.21264 0.10284 0.0
H689 H 0.65392 0.19608 0.06701 0.0
H690 H 0.59267 0.23474 0.01157 0.0
H691 H 0.62966 0.21691 0.02217 0.0
H692 H 0.60452 0.33327 0.15988 0.0
H693 H 0.63766 0.3103 0.17506 0.0
H694 H 0.55867 0.32046 0.14308 0.0
H695 H 0.54019 0.31315 0.10129 0.0
C696 C 0.21657 0.13957 0.59735 0.0
C697 C 0.22432 0.13141 0.63446 0.0
C698 C 0.2305 0.07123 0.61817 0.0
C699 C 0.21983 0.07867 0.58185 0.0
N700 N 0.19864 0.11924 0.53778 0.0
N701 N 0.23045 0.0886 0.68197 0.0
C702 C 0.21118 0.1126 0.57186 0.0
C703 C 0.22863 0.09692 0.64543 0.0
N704 N 0.21637 0.17298 0.58588 0.0
N705 N 0.2438 0.0402 0.62642 0.0
H706 H 0.22862 0.10677 0.70283 0.0
H707 H 0.23043 0.06341 0.69156 0.0
H708 H 0.24696 0.02107 0.60699 0.0
H709 H 0.25483 0.03483 0.65154 0.0
H710 H 0.21446 0.1803 0.55838 0.0
H711 H 0.22101 0.19349 0.6034 0.0
H712 H 0.18863 0.14272 0.53049 0.0
H713 H 0.19612 0.10061 0.51749 0.0
C714 C 0.39793 0.72824 0.12751 0.0
C715 C 0.37424 0.75314 0.11942 0.0
C716 C 0.40383 0.77021 0.06375 0.0
C717 C 0.42914 0.74747 0.0735 0.0
N718 N 0.45145 0.70688 0.11729 0.0
N719 N 0.35615 0.80099 0.08293 0.0
C720 C 0.42642 0.72692 0.10599 0.0
C721 C 0.37776 0.7752 0.08856 0.0
N722 N 0.39297 0.70529 0.15554 0.0
N723 N 0.4034 0.78518 0.02964 0.0
H724 H 0.33594 0.80441 0.09943 0.0
H725 H 0.35948 0.82045 0.06361 0.0
H726 H 0.4209 0.78079 0.00975 0.0
H727 H 0.38398 0.79907 0.01949 0.0
H728 H 0.40681 0.68341 0.15948 0.0
H729 H 0.37366 0.70672 0.17371 0.0
H730 H 0.45295 0.69583 0.14336 0.0
H731 H 0.47192 0.70268 0.10176 0.0
C732 C 0.80653 0.08486 0.35974 0.0
C733 C 0.79852 0.11912 0.3687 0.0
C734 C 0.80015 0.10505 0.4344 0.0
C735 C 0.80416 0.07013 0.42527 0.0
N736 N 0.80863 0.02556 0.37992 0.0
N737 N 0.78399 0.16151 0.41393 0.0
C738 C 0.80698 0.05966 0.3881 0.0
C739 C 0.79456 0.12924 0.40591 0.0
N740 N 0.81411 0.07664 0.32427 0.0
N741 N 0.80184 0.11498 0.47043 0.0
H742 H 0.77953 0.18008 0.39386 0.0
H743 H 0.77711 0.16915 0.44017 0.0
H744 H 0.80594 0.09772 0.49193 0.0
H745 H 0.80215 0.14046 0.47877 0.0
H746 H 0.82324 0.05294 0.31657 0.0
H747 H 0.81361 0.09448 0.30281 0.0
H748 H 0.80669 0.01595 0.35331 0.0
H749 H 0.81006 0.00654 0.40012 0.0
C750 C 0.3805 0.24904 0.92275 0.0
C751 C 0.3817 0.26599 0.88816 0.0
C752 C 0.43458 0.28958 0.90332 0.0
C753 C 0.43521 0.26991 0.93657 0.0
N754 N 0.40868 0.22986 0.97756 0.0
N755 N 0.41261 0.29565 0.84195 0.0
C756 C 0.40825 0.24901 0.94597 0.0
C757 C 0.40956 0.28419 0.87743 0.0
N758 N 0.35234 0.23432 0.9341 0.0
N759 N 0.45702 0.31445 0.89656 0.0
H760 H 0.39481 0.2923 0.82203 0.0
H761 H 0.43401 0.30536 0.83129 0.0
H762 H 0.4759 0.32037 0.91406 0.0
H763 H 0.45507 0.33195 0.87495 0.0
H764 H 0.34848 0.22492 0.96058 0.0
H765 H 0.33177 0.23365 0.9177 0.0
H766 H 0.39194 0.21076 0.98342 0.0
H767 H 0.42646 0.23205 0.99761 0.0
C768 C 0.20409 0.92695 0.36063 0.0
C769 C 0.2164 0.89391 0.36865 0.0
C770 C 0.21978 0.90815 0.43407 0.0
C771 C 0.21126 0.94236 0.42543 0.0
N772 N 0.19789 0.98579 0.38068 0.0
N773 N 0.23955 0.8538 0.41187 0.0
C774 C 0.20377 0.95217 0.38879 0.0
C775 C 0.22509 0.88462 0.40512 0.0
N776 N 0.19233 0.93399 0.32628 0.0
N777 N 0.22224 0.89812 0.47009 0.0
H778 H 0.24369 0.83564 0.39145 0.0
H779 H 0.24981 0.84724 0.43707 0.0
H780 H 0.218 0.91472 0.49197 0.0
H781 H 0.22542 0.8728 0.47839 0.0
H782 H 0.18002 0.95636 0.3197 0.0
H783 H 0.19279 0.91625 0.30489 0.0
H784 H 0.19615 0.99531 0.35394 0.0
H785 H 0.19673 0.00477 0.40076 0.0
C786 C 0.62949 0.76946 0.91859 0.0
C787 C 0.63263 0.74504 0.89005 0.0
C788 C 0.58076 0.71959 0.90705 0.0
C789 C 0.57838 0.74272 0.93734 0.0
N790 N 0.60487 0.78369 0.97689 0.0
N791 N 0.61385 0.69396 0.85978 0.0
C792 C 0.60385 0.76623 0.94435 0.0
C793 C 0.60903 0.71927 0.88513 0.0
N794 N 0.65103 0.79584 0.9211 0.0
N795 N 0.55562 0.69861 0.89805 0.0
H796 H 0.63307 0.69386 0.84142 0.0
H797 H 0.60006 0.6717 0.85853 0.0
H798 H 0.53521 0.69546 0.91402 0.0
H799 H 0.55395 0.6856 0.87316 0.0
H800 H 0.64788 0.81673 0.93844 0.0
H801 H 0.67096 0.79813 0.90387 0.0
H802 H 0.62445 0.7984 0.9852 0.0
H803 H 0.58779 0.78062 0.99759 0.0
loop_
_geom_bond_atom_site_label_1
_geom_bond_atom_site_label_2
_geom_bond_distance
_geom_bond_site_symmetry_2
_ccdc_geom_bond_type
C0 C1 1.384 . S
C0 H13 0.947 . S
C0 C35 1.382 . S
C1 C0 1.384 . S
C1 C2 1.378 . S
C2 C1 1.378 . S
C2 C3 1.378 . S
C2 H14 0.952 . S
C3 C2 1.378 . S
C3 H15 0.950 . S
C3 C34 1.383 . S
H4 C23 0.947 . S
H5 C24 0.946 . S
H6 C26 0.953 . S
H7 C27 0.945 . S
H8 C29 0.952 . S
H9 C30 0.949 . S
H10 C32 0.950 . S
H11 C33 0.948 . S
H12 C35 0.951 . S
H13 C0 0.947 . S
H14 C2 0.952 . S
H15 C3 0.950 . S
N16 C19 1.382 . S
N16 C21 1.363 . S
N17 C19 1.371 . S
N17 C20 1.372 . S
N18 C20 1.361 . S
N18 C21 1.377 . S
C19 N16 1.382 . S
C19 N17 1.371 . S
C19 C22 1.480 . S
C20 N17 1.372 . S
C20 N18 1.361 . S
C20 C28 1.457 . S
C21 N16 1.363 . S
C21 N18 1.377 . S
C21 C34 1.479 . S
C22 C19 1.480 . S
C22 C23 1.383 . S
C22 C27 1.385 . S
C23 H4 0.947 . S
C23 C22 1.383 . S
C23 C24 1.388 . S
C24 H5 0.946 . S
C24 C23 1.388 . S
C24 C25 1.384 . S
C25 C24 1.384 . S
C25 C26 1.377 . S
C26 H6 0.953 . S
C26 C25 1.377 . S
C26 C27 1.369 . S
C27 H7 0.945 . S
C27 C22 1.385 . S
C27 C26 1.369 . S
C28 C20 1.457 . S
C28 C29 1.372 . S
C28 C33 1.364 . S
C29 H8 0.952 . S
C29 C28 1.372 . S
C29 C30 1.389 . S
C30 H9 0.949 . S
C30 C29 1.389 . S
C30 C31 1.387 . S
C31 C30 1.387 . S
C31 C32 1.372 . S
C32 H10 0.950 . S
C32 C31 1.372 . S
C32 C33 1.379 . S
C33 H11 0.948 . S
C33 C28 1.364 . S
C33 C32 1.379 . S
C34 C3 1.383 . S
C34 C21 1.479 . S
C34 C35 1.398 . S
C35 C0 1.382 . S
C35 H12 0.951 . S
C35 C34 1.398 . S
C36 C37 1.384 . S
C36 H49 0.947 . S
C36 C71 1.382 . S
C37 C36 1.384 . S
C37 C38 1.378 . S
C38 C37 1.378 . S
C38 C39 1.378 . S
C38 H50 0.952 . S
C39 C38 1.378 . S
C39 H51 0.950 . S
C39 C70 1.383 . S
H40 C59 0.947 . S
H41 C60 0.946 . S
H42 C62 0.953 . S
H43 C63 0.945 . S
H44 C65 0.952 . S
H45 C66 0.949 . S
H46 C68 0.950 . S
H47 C69 0.948 . S
H48 C71 0.951 . S
H49 C36 0.947 . S
H50 C38 0.952 . S
H51 C39 0.950 . S
N52 C55 1.382 . S
N52 C57 1.363 . S
N53 C55 1.371 . S
N53 C56 1.372 . S
N54 C56 1.361 . S
N54 C57 1.377 . S
C55 N52 1.382 . S
C55 N53 1.371 . S
C55 C58 1.480 . S
C56 N53 1.372 . S
C56 N54 1.361 . S
C56 C64 1.457 . S
C57 N52 1.363 . S
C57 N54 1.377 . S
C57 C70 1.479 . S
C58 C55 1.480 . S
C58 C59 1.383 . S
C58 C63 1.385 . S
C59 H40 0.947 . S
C59 C58 1.383 . S
C59 C60 1.388 . S
C60 H41 0.946 . S
C60 C59 1.388 . S
C60 C61 1.384 . S
C61 C60 1.384 . S
C61 C62 1.377 . S
C62 H42 0.953 . S
C62 C61 1.377 . S
C62 C63 1.369 . S
C63 H43 0.945 . S
C63 C58 1.385 . S
C63 C62 1.369 . S
C64 C56 1.457 . S
C64 C65 1.372 . S
C64 C69 1.364 . S
C65 H44 0.952 . S
C65 C64 1.372 . S
C65 C66 1.389 . S
C66 H45 0.949 . S
C66 C65 1.389 . S
C66 C67 1.387 . S
C67 C66 1.387 . S
C67 C68 1.372 . S
C68 H46 0.950 . S
C68 C67 1.372 . S
C68 C69 1.379 . S
C69 H47 0.948 . S
C69 C64 1.364 . S
C69 C68 1.379 . S
C70 C39 1.383 . S
C70 C57 1.479 . S
C70 C71 1.398 . S
C71 C36 1.382 . S
C71 H48 0.951 . S
C71 C70 1.398 . S
C72 C73 1.384 . S
C72 H85 0.947 . S
C72 C107 1.382 . S
C73 C72 1.384 . S
C73 C74 1.378 . S
C74 C73 1.378 . S
C74 C75 1.378 . S
C74 H86 0.952 . S
C75 C74 1.378 . S
C75 H87 0.950 . S
C75 C106 1.383 . S
H76 C95 0.947 . S
H77 C96 0.946 . S
H78 C98 0.953 . S
H79 C99 0.945 . S
H80 C101 0.952 . S
H81 C102 0.949 . S
H82 C104 0.950 . S
H83 C105 0.948 . S
H84 C107 0.951 . S
H85 C72 0.947 . S
H86 C74 0.952 . S
H87 C75 0.950 . S
N88 C91 1.382 . S
N88 C93 1.363 . S
N89 C91 1.371 . S
N89 C92 1.372 . S
N90 C92 1.361 . S
N90 C93 1.377 . S
C91 N88 1.382 . S
C91 N89 1.371 . S
C91 C94 1.480 . S
C92 N89 1.372 . S
C92 N90 1.361 . S
C92 C100 1.457 . S
C93 N88 1.363 . S
C93 N90 1.377 . S
C93 C106 1.479 . S
C94 C91 1.480 . S
C94 C95 1.383 . S
C94 C99 1.385 . S
C95 H76 0.947 . S
C95 C94 1.383 . S
C95 C96 1.388 . S
C96 H77 0.946 . S
C96 C95 1.388 . S
C96 C97 1.384 . S
C97 C96 1.384 . S
C97 C98 1.377 . S
C98 H78 0.953 . S
C98 C97 1.377 . S
C98 C99 1.369 . S
C99 H79 0.945 . S
C99 C94 1.385 . S
C99 C98 1.369 . S
C100 C92 1.457 . S
C100 C101 1.372 . S
C100 C105 1.364 . S
C101 H80 0.952 . S
C101 C100 1.372 . S
C101 C102 1.389 . S
C102 H81 0.949 . S
C102 C101 1.389 . S
C102 C103 1.387 . S
C103 C102 1.387 . S
C103 C104 1.372 . S
C104 H82 0.950 . S
C104 C103 1.372 . S
C104 C105 1.379 . S
C105 H83 0.948 . S
C105 C100 1.364 . S
C105 C104 1.379 . S
C106 C75 1.383 . S
C106 C93 1.479 . S
C106 C107 1.398 . S
C107 C72 1.382 . S
C107 H84 0.951 . S
C107 C106 1.398 . S
C108 C109 1.384 . S
C108 H121 0.947 . S
C108 C143 1.382 . S
C109 C108 1.384 . S
C109 C110 1.378 . S
C110 C109 1.378 . S
C110 C111 1.378 . S
C110 H122 0.952 . S
C111 C110 1.378 . S
C111 H123 0.950 . S
C111 C142 1.383 . S
H112 C131 0.947 . S
H113 C132 0.946 . S
H114 C134 0.953 . S
H115 C135 0.945 . S
H116 C137 0.952 . S
H117 C138 0.949 . S
H118 C140 0.950 . S
H119 C141 0.948 . S
H120 C143 0.951 . S
H121 C108 0.947 . S
H122 C110 0.952 . S
H123 C111 0.950 . S
N124 C127 1.382 . S
N124 C129 1.363 . S
N125 C127 1.371 . S
N125 C128 1.372 . S
N126 C128 1.361 . S
N126 C129 1.377 . S
C127 N124 1.382 . S
C127 N125 1.371 . S
C127 C130 1.480 . S
C128 N125 1.372 . S
C128 N126 1.361 . S
C128 C136 1.457 . S
C129 N124 1.363 . S
C129 N126 1.377 . S
C129 C142 1.479 . S
C130 C127 1.480 . S
C130 C131 1.383 . S
C130 C135 1.385 . S
C131 H112 0.947 . S
C131 C130 1.383 . S
C131 C132 1.388 . S
C132 H113 0.946 . S
C132 C131 1.388 . S
C132 C133 1.384 . S
C133 C132 1.384 . S
C133 C134 1.377 . S
C134 H114 0.953 . S
C134 C133 1.377 . S
C134 C135 1.369 . S
C135 H115 0.945 . S
C135 C130 1.385 . S
C135 C134 1.369 . S
C136 C128 1.457 . S
C136 C137 1.372 . S
C136 C141 1.364 . S
C137 H116 0.952 . S
C137 C136 1.372 . S
C137 C138 1.389 . S
C138 H117 0.949 . S
C138 C137 1.389 . S
C138 C139 1.387 . S
C139 C138 1.387 . S
C139 C140 1.372 . S
C140 H118 0.950 . S
C140 C139 1.372 . S
C140 C141 1.379 . S
C141 H119 0.948 . S
C141 C136 1.364 . S
C141 C140 1.379 . S
C142 C111 1.383 . S
C142 C129 1.479 . S
C142 C143 1.398 . S
C143 C108 1.382 . S
C143 H120 0.951 . S
C143 C142 1.398 . S
C144 C145 1.384 . S
C144 H157 0.947 . S
C144 C179 1.382 . S
C145 C144 1.384 . S
C145 C146 1.378 . S
C146 C145 1.378 . S
C146 C147 1.378 . S
C146 H158 0.952 . S
C147 C146 1.378 . S
C147 H159 0.950 . S
C147 C178 1.383 . S
H148 C167 0.947 . S
H149 C168 0.946 . S
H150 C170 0.953 . S
H151 C171 0.945 . S
H152 C173 0.952 . S
H153 C174 0.949 . S
H154 C176 0.950 . S
H155 C177 0.948 . S
H156 C179 0.951 . S
H157 C144 0.947 . S
H158 C146 0.952 . S
H159 C147 0.950 . S
N160 C163 1.382 . S
N160 C165 1.363 . S
N161 C163 1.371 . S
N161 C164 1.372 . S
N162 C164 1.361 . S
N162 C165 1.377 . S
C163 N160 1.382 . S
C163 N161 1.371 . S
C163 C166 1.480 . S
C164 N161 1.372 . S
C164 N162 1.361 . S
C164 C172 1.457 . S
C165 N160 1.363 . S
C165 N162 1.377 . S
C165 C178 1.479 . S
C166 C163 1.480 . S
C166 C167 1.383 . S
C166 C171 1.385 . S
C167 H148 0.947 . S
C167 C166 1.383 . S
C167 C168 1.388 . S
C168 H149 0.946 . S
C168 C167 1.388 . S
C168 C169 1.384 . S
C169 C168 1.384 . S
C169 C170 1.377 . S
C170 H150 0.953 . S
C170 C169 1.377 . S
C170 C171 1.369 . S
C171 H151 0.945 . S
C171 C166 1.385 . S
C171 C170 1.369 . S
C172 C164 1.457 . S
C172 C173 1.372 . S
C172 C177 1.364 . S
C173 H152 0.952 . S
C173 C172 1.372 . S
C173 C174 1.389 . S
C174 H153 0.949 . S
C174 C173 1.389 . S
C174 C175 1.387 . S
C175 C174 1.387 . S
C175 C176 1.372 . S
C176 H154 0.950 . S
C176 C175 1.372 . S
C176 C177 1.379 . S
C177 H155 0.948 . S
C177 C172 1.364 . S
C177 C176 1.379 . S
C178 C147 1.383 . S
C178 C165 1.479 . S
C178 C179 1.398 . S
C179 C144 1.382 . S
C179 H156 0.951 . S
C179 C178 1.398 . S
C180 C181 1.384 . S
C180 H193 0.947 . S
C180 C215 1.382 . S
C181 C180 1.384 . S
C181 C182 1.378 . S
C182 C181 1.378 . S
C182 C183 1.378 . S
C182 H194 0.952 . S
C183 C182 1.378 . S
C183 H195 0.950 . S
C183 C214 1.383 . S
H184 C203 0.947 . S
H185 C204 0.946 . S
H186 C206 0.953 . S
H187 C207 0.945 . S
H188 C209 0.952 . S
H189 C210 0.949 . S
H190 C212 0.950 . S
H191 C213 0.948 . S
H192 C215 0.951 . S
H193 C180 0.947 . S
H194 C182 0.952 . S
H195 C183 0.950 . S
N196 C199 1.382 . S
N196 C201 1.363 . S
N197 C199 1.371 . S
N197 C200 1.372 . S
N198 C200 1.361 . S
N198 C201 1.377 . S
C199 N196 1.382 . S
C199 N197 1.371 . S
C199 C202 1.480 . S
C200 N197 1.372 . S
C200 N198 1.361 . S
C200 C208 1.457 . S
C201 N196 1.363 . S
C201 N198 1.377 . S
C201 C214 1.479 . S
C202 C199 1.480 . S
C202 C203 1.383 . S
C202 C207 1.385 . S
C203 H184 0.947 . S
C203 C202 1.383 . S
C203 C204 1.388 . S
C204 H185 0.946 . S
C204 C203 1.388 . S
C204 C205 1.384 . S
C205 C204 1.384 . S
C205 C206 1.377 . S
C206 H186 0.953 . S
C206 C205 1.377 . S
C206 C207 1.369 . S
C207 H187 0.945 . S
C207 C202 1.385 . S
C207 C206 1.369 . S
C208 C200 1.457 . S
C208 C209 1.372 . S
C208 C213 1.364 . S
C209 H188 0.952 . S
C209 C208 1.372 . S
C209 C210 1.389 . S
C210 H189 0.949 . S
C210 C209 1.389 . S
C210 C211 1.387 . S
C211 C210 1.387 . S
C211 C212 1.372 . S
C212 H190 0.950 . S
C212 C211 1.372 . S
C212 C213 1.379 . S
C213 H191 0.948 . S
C213 C208 1.364 . S
C213 C212 1.379 . S
C214 C183 1.383 . S
C214 C201 1.479 . S
C214 C215 1.398 . S
C215 C180 1.382 . S
C215 H192 0.951 . S
C215 C214 1.398 . S
C216 C217 1.384 . S
C216 H229 0.947 . S
C216 C251 1.382 . S
C217 C216 1.384 . S
C217 C218 1.378 . S
C218 C217 1.378 . S
C218 C219 1.378 . S
C218 H230 0.952 . S
C219 C218 1.378 . S
C219 H231 0.950 . S
C219 C250 1.383 . S
H220 C239 0.947 . S
H221 C240 0.946 . S
H222 C242 0.953 . S
H223 C243 0.945 . S
H224 C245 0.952 . S
H225 C246 0.949 . S
H226 C248 0.950 . S
H227 C249 0.948 . S
H228 C251 0.951 . S
H229 C216 0.947 . S
H230 C218 0.952 . S
H231 C219 0.950 . S
N232 C235 1.382 . S
N232 C237 1.363 . S
N233 C235 1.371 . S
N233 C236 1.372 . S
N234 C236 1.361 . S
N234 C237 1.377 . S
C235 N232 1.382 . S
C235 N233 1.371 . S
C235 C238 1.480 . S
C236 N233 1.372 . S
C236 N234 1.361 . S
C236 C244 1.457 . S
C237 N232 1.363 . S
C237 N234 1.377 . S
C237 C250 1.479 . S
C238 C235 1.480 . S
C238 C239 1.383 . S
C238 C243 1.385 . S
C239 H220 0.947 . S
C239 C238 1.383 . S
C239 C240 1.388 . S
C240 H221 0.946 . S
C240 C239 1.388 . S
C240 C241 1.384 . S
C241 C240 1.384 . S
C241 C242 1.377 . S
C242 H222 0.953 . S
C242 C241 1.377 . S
C242 C243 1.369 . S
C243 H223 0.945 . S
C243 C238 1.385 . S
C243 C242 1.369 . S
C244 C236 1.457 . S
C244 C245 1.372 . S
C244 C249 1.364 . S
C245 H224 0.952 . S
C245 C244 1.372 . S
C245 C246 1.389 . S
C246 H225 0.949 . S
C246 C245 1.389 . S
C246 C247 1.387 . S
C247 C246 1.387 . S
C247 C248 1.372 . S
C248 H226 0.950 . S
C248 C247 1.372 . S
C248 C249 1.379 . S
C249 H227 0.948 . S
C249 C244 1.364 . S
C249 C248 1.379 . S
C250 C219 1.383 . S
C250 C237 1.479 . S
C250 C251 1.398 . S
C251 C216 1.382 . S
C251 H228 0.951 . S
C251 C250 1.398 . S
C252 C253 1.384 . S
C252 H265 0.947 . S
C252 C287 1.382 . S
C253 C252 1.384 . S
C253 C254 1.378 . S
C254 C253 1.378 . S
C254 C255 1.378 . S
C254 H266 0.952 . S
C255 C254 1.378 . S
C255 H267 0.950 . S
C255 C286 1.383 . S
H256 C275 0.947 . S
H257 C276 0.946 . S
H258 C278 0.953 . S
H259 C279 0.945 . S
H260 C281 0.952 . S
H261 C282 0.949 . S
H262 C284 0.950 . S
H263 C285 0.948 . S
H264 C287 0.951 . S
H265 C252 0.947 . S
H266 C254 0.952 . S
H267 C255 0.950 . S
N268 C271 1.382 . S
N268 C273 1.363 . S
N269 C271 1.371 . S
N269 C272 1.372 . S
N270 C272 1.361 . S
N270 C273 1.377 . S
C271 N268 1.382 . S
C271 N269 1.371 . S
C271 C274 1.480 . S
C272 N269 1.372 . S
C272 N270 1.361 . S
C272 C280 1.457 . S
C273 N268 1.363 . S
C273 N270 1.377 . S
C273 C286 1.479 . S
C274 C271 1.480 . S
C274 C275 1.383 . S
C274 C279 1.385 . S
C275 H256 0.947 . S
C275 C274 1.383 . S
C275 C276 1.388 . S
C276 H257 0.946 . S
C276 C275 1.388 . S
C276 C277 1.384 . S
C277 C276 1.384 . S
C277 C278 1.377 . S
C278 H258 0.953 . S
C278 C277 1.377 . S
C278 C279 1.369 . S
C279 H259 0.945 . S
C279 C274 1.385 . S
C279 C278 1.369 . S
C280 C272 1.457 . S
C280 C281 1.372 . S
C280 C285 1.364 . S
C281 H260 0.952 . S
C281 C280 1.372 . S
C281 C282 1.389 . S
C282 H261 0.949 . S
C282 C281 1.389 . S
C282 C283 1.387 . S
C283 C282 1.387 . S
C283 C284 1.372 . S
C284 H262 0.950 . S
C284 C283 1.372 . S
C284 C285 1.379 . S
C285 H263 0.948 . S
C285 C280 1.364 . S
C285 C284 1.379 . S
C286 C255 1.383 . S
C286 C273 1.479 . S
C286 C287 1.398 . S
C287 C252 1.382 . S
C287 H264 0.951 . S
C287 C286 1.398 . S
C288 O290 1.247 . S
C288 O292 1.258 . S
C289 O296 1.247 . S
C289 O297 1.258 . S
O290 C288 1.247 . S
O290 Zn291 2.028 1_655 S
Zn291 O290 2.028 1_455 S
Zn291 O295 2.035 . S
Zn291 O297 2.035 . S
Zn291 O298 2.028 1_455 S
O292 C288 1.258 . S
O292 Zn293 2.035 1_655 S
Zn293 O292 2.035 1_455 S
Zn293 O294 2.028 . S
Zn293 O296 2.028 . S
Zn293 O299 2.035 1_455 S
O294 Zn293 2.028 . S
O294 C300 1.247 . S
O295 Zn291 2.035 . S
O295 C300 1.258 . S
O296 C289 1.247 . S
O296 Zn293 2.028 . S
O297 C289 1.258 . S
O297 Zn291 2.035 . S
O298 Zn291 2.028 1_655 S
O298 C301 1.247 . S
O299 Zn293 2.035 1_655 S
O299 C301 1.258 . S
C300 O294 1.247 . S
C300 O295 1.258 . S
C301 O298 1.247 . S
C301 O299 1.258 . S
C302 O304 1.247 . S
C302 O306 1.258 . S
C303 O310 1.247 . S
C303 O311 1.258 . S
O304 C302 1.247 . S
O304 Zn305 2.028 1_655 S
Zn305 O304 2.028 1_455 S
Zn305 O309 2.035 . S
Zn305 O311 2.035 . S
Zn305 O312 2.028 1_455 S
O306 C302 1.258 . S
O306 Zn307 2.035 1_655 S
Zn307 O306 2.035 1_455 S
Zn307 O308 2.028 . S
Zn307 O310 2.028 . S
Zn307 O313 2.035 1_455 S
O308 Zn307 2.028 . S
O308 C314 1.247 . S
O309 Zn305 2.035 . S
O309 C314 1.258 . S
O310 C303 1.247 . S
O310 Zn307 2.028 . S
O311 C303 1.258 . S
O311 Zn305 2.035 . S
O312 Zn305 2.028 1_655 S
O312 C315 1.247 . S
O313 Zn307 2.035 1_655 S
O313 C315 1.258 . S
C314 O308 1.247 . S
C314 O309 1.258 . S
C315 O312 1.247 . S
C315 O313 1.258 . S
C316 O318 1.247 . S
C316 O320 1.258 . S
C317 O324 1.247 . S
C317 O325 1.258 . S
O318 C316 1.247 . S
O318 Zn319 2.028 1_565 S
Zn319 O318 2.028 1_545 S
Zn319 O323 2.035 . S
Zn319 O325 2.035 . S
Zn319 O326 2.028 1_545 S
O320 C316 1.258 . S
O320 Zn321 2.035 1_565 S
Zn321 O320 2.035 1_545 S
Zn321 O322 2.028 . S
Zn321 O324 2.028 . S
Zn321 O327 2.035 1_545 S
O322 Zn321 2.028 . S
O322 C328 1.247 . S
O323 Zn319 2.035 . S
O323 C328 1.258 . S
O324 C317 1.247 . S
O324 Zn321 2.028 . S
O325 C317 1.258 . S
O325 Zn319 2.035 . S
O326 Zn319 2.028 1_565 S
O326 C329 1.247 . S
O327 Zn321 2.035 1_565 S
O327 C329 1.258 . S
C328 O322 1.247 . S
C328 O323 1.258 . S
C329 O326 1.247 . S
C329 O327 1.258 . S
C330 O332 1.247 . S
C330 O334 1.258 . S
C331 O338 1.247 . S
C331 O339 1.258 . S
O332 C330 1.247 . S
O332 Zn333 2.028 . S
Zn333 O332 2.028 . S
Zn333 O337 2.035 . S
Zn333 O339 2.035 1_554 S
Zn333 O340 2.028 1_554 S
O334 C330 1.258 . S
O334 Zn335 2.035 . S
Zn335 O334 2.035 . S
Zn335 O336 2.028 . S
Zn335 O338 2.028 1_554 S
Zn335 O341 2.035 1_554 S
O336 Zn335 2.028 . S
O336 C342 1.247 . S
O337 Zn333 2.035 . S
O337 C342 1.258 . S
O338 C331 1.247 . S
O338 Zn335 2.028 1_556 S
O339 C331 1.258 . S
O339 Zn333 2.035 1_556 S
O340 Zn333 2.028 1_556 S
O340 C343 1.247 . S
O341 Zn335 2.035 1_556 S
O341 C343 1.258 . S
C342 O336 1.247 . S
C342 O337 1.258 . S
C343 O340 1.247 . S
C343 O341 1.258 . S
C344 O346 1.247 . S
C344 O348 1.258 . S
C345 O352 1.247 . S
C345 O353 1.258 . S
O346 C344 1.247 . S
O346 Zn347 2.028 1_565 S
Zn347 O346 2.028 1_545 S
Zn347 O351 2.035 . S
Zn347 O353 2.035 . S
Zn347 O354 2.028 1_545 S
O348 C344 1.258 . S
O348 Zn349 2.035 1_565 S
Zn349 O348 2.035 1_545 S
Zn349 O350 2.028 . S
Zn349 O352 2.028 . S
Zn349 O355 2.035 1_545 S
O350 Zn349 2.028 . S
O350 C356 1.247 . S
O351 Zn347 2.035 . S
O351 C356 1.258 . S
O352 C345 1.247 . S
O352 Zn349 2.028 . S
O353 C345 1.258 . S
O353 Zn347 2.035 . S
O354 Zn347 2.028 1_565 S
O354 C357 1.247 . S
O355 Zn349 2.035 1_565 S
O355 C357 1.258 . S
C356 O350 1.247 . S
C356 O351 1.258 . S
C357 O354 1.247 . S
C357 O355 1.258 . S
C358 O360 1.247 . S
C358 O362 1.258 . S
C359 O366 1.247 . S
C359 O367 1.258 . S
O360 C358 1.247 . S
O360 Zn361 2.036 . S
Zn361 O360 2.036 . S
Zn361 O365 2.043 . S
Zn361 O367 2.028 1_554 S
Zn361 O368 2.020 1_554 S
O362 C358 1.258 . S
O362 Zn363 2.034 1_554 S
Zn363 O362 2.034 1_556 S
Zn363 O364 2.027 1_556 S
Zn363 O366 2.029 . S
Zn363 O369 2.036 . S
O364 Zn363 2.027 1_554 S
O364 C370 1.247 . S
O365 Zn361 2.043 . S
O365 C370 1.258 . S
O366 C359 1.247 . S
O366 Zn363 2.029 . S
O367 C359 1.258 . S
O367 Zn361 2.028 1_556 S
O368 Zn361 2.020 1_556 S
O368 C371 1.247 . S
O369 Zn363 2.036 . S
O369 C371 1.258 . S
C370 O364 1.247 . S
C370 O365 1.258 . S
C371 O368 1.247 . S
C371 O369 1.258 . S
C372 C373 1.363 . S
C372 C378 1.379 . S
C372 N380 1.356 . S
C373 C372 1.363 . S
C373 C379 1.363 . S
C374 C375 1.363 . S
C374 C379 1.379 . S
C374 N381 1.356 . S
C375 C374 1.363 . S
C375 C378 1.363 . S
N376 C378 1.356 . S
N376 H388 0.984 . S
N376 H389 0.985 . S
N377 C379 1.356 . S
N377 H382 0.984 . S
N377 H383 0.985 . S
C378 C372 1.379 . S
C378 C375 1.363 . S
C378 N376 1.356 . S
C379 C373 1.363 . S
C379 C374 1.379 . S
C379 N377 1.356 . S
N380 C372 1.356 . S
N380 H386 0.984 . S
N380 H387 0.984 . S
N381 C374 1.356 . S
N381 H384 0.984 . S
N381 H385 0.985 . S
H382 N377 0.984 . S
H383 N377 0.985 . S
H384 N381 0.984 . S
H385 N381 0.985 . S
H386 N380 0.984 . S
H387 N380 0.984 . S
H388 N376 0.984 . S
H389 N376 0.985 . S
C390 C391 1.363 . S
C390 C396 1.379 . S
C390 N398 1.356 . S
C391 C390 1.363 . S
C391 C397 1.363 . S
C392 C393 1.363 . S
C392 C397 1.379 . S
C392 N399 1.356 . S
C393 C392 1.363 . S
C393 C396 1.363 . S
N394 C396 1.356 . S
N394 H406 0.984 . S
N394 H407 0.985 . S
N395 C397 1.356 . S
N395 H400 0.984 . S
N395 H401 0.985 . S
C396 C390 1.379 . S
C396 C393 1.363 . S
C396 N394 1.356 . S
C397 C391 1.363 . S
C397 C392 1.379 . S
C397 N395 1.356 . S
N398 C390 1.356 . S
N398 H404 0.984 . S
N398 H405 0.984 . S
N399 C392 1.356 . S
N399 H402 0.984 . S
N399 H403 0.985 . S
H400 N395 0.984 . S
H401 N395 0.985 . S
H402 N399 0.984 . S
H403 N399 0.985 . S
H404 N398 0.984 . S
H405 N398 0.984 . S
H406 N394 0.984 . S
H407 N394 0.985 . S
C408 C409 1.363 . S
C408 C414 1.379 . S
C408 N416 1.356 . S
C409 C408 1.363 . S
C409 C415 1.363 . S
C410 C411 1.363 . S
C410 C415 1.379 . S
C410 N417 1.356 . S
C411 C410 1.363 . S
C411 C414 1.363 . S
N412 C414 1.356 . S
N412 H424 0.984 . S
N412 H425 0.985 . S
N413 C415 1.356 . S
N413 H418 0.984 . S
N413 H419 0.985 . S
C414 C408 1.379 . S
C414 C411 1.363 . S
C414 N412 1.356 . S
C415 C409 1.363 . S
C415 C410 1.379 . S
C415 N413 1.356 . S
N416 C408 1.356 . S
N416 H422 0.984 . S
N416 H423 0.984 . S
N417 C410 1.356 . S
N417 H420 0.984 . S
N417 H421 0.985 . S
H418 N413 0.984 . S
H419 N413 0.985 . S
H420 N417 0.984 . S
H421 N417 0.985 . S
H422 N416 0.984 . S
H423 N416 0.984 . S
H424 N412 0.984 . S
H425 N412 0.985 . S
C426 C427 1.363 . S
C426 C432 1.379 . S
C426 N434 1.356 . S
C427 C426 1.363 . S
C427 C433 1.363 . S
C428 C429 1.363 . S
C428 C433 1.379 . S
C428 N435 1.356 . S
C429 C428 1.363 . S
C429 C432 1.363 . S
N430 C432 1.356 . S
N430 H442 0.984 . S
N430 H443 0.985 . S
N431 C433 1.356 . S
N431 H436 0.984 . S
N431 H437 0.985 . S
C432 C426 1.379 . S
C432 C429 1.363 . S
C432 N430 1.356 . S
C433 C427 1.363 . S
C433 C428 1.379 . S
C433 N431 1.356 . S
N434 C426 1.356 . S
N434 H440 0.984 . S
N434 H441 0.984 . S
N435 C428 1.356 . S
N435 H438 0.984 . S
N435 H439 0.985 . S
H436 N431 0.984 . S
H437 N431 0.985 . S
H438 N435 0.984 . S
H439 N435 0.985 . S
H440 N434 0.984 . S
H441 N434 0.984 . S
H442 N430 0.984 . S
H443 N430 0.985 . S
C444 C445 1.363 . S
C444 C450 1.379 . S
C444 N452 1.356 . S
C445 C444 1.363 . S
C445 C451 1.363 . S
C446 C447 1.363 . S
C446 C451 1.379 . S
C446 N453 1.356 . S
C447 C446 1.363 . S
C447 C450 1.363 . S
N448 C450 1.356 . S
N448 H460 0.984 . S
N448 H461 0.985 . S
N449 C451 1.356 . S
N449 H454 0.984 . S
N449 H455 0.985 . S
C450 C444 1.379 . S
C450 C447 1.363 . S
C450 N448 1.356 . S
C451 C445 1.363 . S
C451 C446 1.379 . S
C451 N449 1.356 . S
N452 C444 1.356 . S
N452 H458 0.984 . S
N452 H459 0.984 . S
N453 C446 1.356 . S
N453 H456 0.984 . S
N453 H457 0.985 . S
H454 N449 0.984 . S
H455 N449 0.985 . S
H456 N453 0.984 . S
H457 N453 0.985 . S
H458 N452 0.984 . S
H459 N452 0.984 . S
H460 N448 0.984 . S
H461 N448 0.985 . S
C462 C463 1.363 . S
C462 C468 1.379 . S
C462 N470 1.356 . S
C463 C462 1.363 . S
C463 C469 1.363 . S
C464 C465 1.363 . S
C464 C469 1.379 . S
C464 N471 1.356 . S
C465 C464 1.363 . S
C465 C468 1.363 . S
N466 C468 1.356 . S
N466 H478 0.984 . S
N466 H479 0.985 . S
N467 C469 1.356 . S
N467 H472 0.984 . S
N467 H473 0.985 . S
C468 C462 1.379 . S
C468 C465 1.363 . S
C468 N466 1.356 . S
C469 C463 1.363 . S
C469 C464 1.379 . S
C469 N467 1.356 . S
N470 C462 1.356 . S
N470 H476 0.984 . S
N470 H477 0.984 . S
N471 C464 1.356 . S
N471 H474 0.984 . S
N471 H475 0.985 . S
H472 N467 0.984 . S
H473 N467 0.985 . S
H474 N471 0.984 . S
H475 N471 0.985 . S
H476 N470 0.984 . S
H477 N470 0.984 . S
H478 N466 0.984 . S
H479 N466 0.985 . S
C480 C481 1.363 . S
C480 C486 1.379 . S
C480 N488 1.356 . S
C481 C480 1.363 . S
C481 C487 1.363 . S
C482 C483 1.363 . S
C482 C487 1.379 . S
C482 N489 1.356 . S
C483 C482 1.363 . S
C483 C486 1.363 . S
N484 C486 1.356 . S
N484 H496 0.984 . S
N484 H497 0.985 . S
N485 C487 1.356 . S
N485 H490 0.984 . S
N485 H491 0.985 . S
C486 C480 1.379 . S
C486 C483 1.363 . S
C486 N484 1.356 . S
C487 C481 1.363 . S
C487 C482 1.379 . S
C487 N485 1.356 . S
N488 C480 1.356 . S
N488 H494 0.984 . S
N488 H495 0.984 . S
N489 C482 1.356 . S
N489 H492 0.984 . S
N489 H493 0.985 . S
H490 N485 0.984 . S
H491 N485 0.985 . S
H492 N489 0.984 . S
H493 N489 0.985 . S
H494 N488 0.984 . S
H495 N488 0.984 . S
H496 N484 0.984 . S
H497 N484 0.985 . S
C498 C499 1.363 . S
C498 C504 1.379 . S
C498 N506 1.356 . S
C499 C498 1.363 . S
C499 C505 1.363 . S
C500 C501 1.363 . S
C500 C505 1.379 . S
C500 N507 1.356 . S
C501 C500 1.363 . S
C501 C504 1.363 . S
N502 C504 1.356 . S
N502 H514 0.984 . S
N502 H515 0.985 . S
N503 C505 1.356 . S
N503 H508 0.984 . S
N503 H509 0.985 . S
C504 C498 1.379 . S
C504 C501 1.363 . S
C504 N502 1.356 . S
C505 C499 1.363 . S
C505 C500 1.379 . S
C505 N503 1.356 . S
N506 C498 1.356 . S
N506 H512 0.984 . S
N506 H513 0.984 . S
N507 C500 1.356 . S
N507 H510 0.984 . S
N507 H511 0.985 . S
H508 N503 0.984 . S
H509 N503 0.985 . S
H510 N507 0.984 . S
H511 N507 0.985 . S
H512 N506 0.984 . S
H513 N506 0.984 . S
H514 N502 0.984 . S
H515 N502 0.985 . S
C516 C517 1.363 . S
C516 C522 1.379 . S
C516 N524 1.356 . S
C517 C516 1.363 . S
C517 C523 1.363 . S
C518 C519 1.363 . S
C518 C523 1.379 . S
C518 N525 1.356 . S
C519 C518 1.363 . S
C519 C522 1.363 . S
N520 C522 1.356 . S
N520 H532 0.984 . S
N520 H533 0.985 . S
N521 C523 1.356 . S
N521 H526 0.984 . S
N521 H527 0.985 . S
C522 C516 1.379 . S
C522 C519 1.363 . S
C522 N520 1.356 . S
C523 C517 1.363 . S
C523 C518 1.379 . S
C523 N521 1.356 . S
N524 C516 1.356 . S
N524 H530 0.984 . S
N524 H531 0.984 . S
N525 C518 1.356 . S
N525 H528 0.984 . S
N525 H529 0.985 . S
H526 N521 0.984 . S
H527 N521 0.985 . S
H528 N525 0.984 . S
H529 N525 0.985 . S
H530 N524 0.984 . S
H531 N524 0.984 . S
H532 N520 0.984 . S
H533 N520 0.985 . S
C534 C535 1.363 . S
C534 C540 1.379 . S
C534 N542 1.356 . S
C535 C534 1.363 . S
C535 C541 1.363 . S
C536 C537 1.363 . S
C536 C541 1.379 . S
C536 N543 1.356 . S
C537 C536 1.363 . S
C537 C540 1.363 . S
N538 C540 1.356 . S
N538 H550 0.984 . S
N538 H551 0.985 . S
N539 C541 1.356 . S
N539 H544 0.984 . S
N539 H545 0.985 . S
C540 C534 1.379 . S
C540 C537 1.363 . S
C540 N538 1.356 . S
C541 C535 1.363 . S
C541 C536 1.379 . S
C541 N539 1.356 . S
N542 C534 1.356 . S
N542 H548 0.984 . S
N542 H549 0.984 . S
N543 C536 1.356 . S
N543 H546 0.984 . S
N543 H547 0.985 . S
H544 N539 0.984 . S
H545 N539 0.985 . S
H546 N543 0.984 . S
H547 N543 0.985 . S
H548 N542 0.984 . S
H549 N542 0.984 . S
H550 N538 0.984 . S
H551 N538 0.985 . S
C552 C553 1.363 . S
C552 C558 1.379 . S
C552 N560 1.356 . S
C553 C552 1.363 . S
C553 C559 1.363 . S
C554 C555 1.363 . S
C554 C559 1.379 . S
C554 N561 1.356 . S
C555 C554 1.363 . S
C555 C558 1.363 . S
N556 C558 1.356 . S
N556 H568 0.984 . S
N556 H569 0.985 . S
N557 C559 1.356 . S
N557 H562 0.984 . S
N557 H563 0.985 . S
C558 C552 1.379 . S
C558 C555 1.363 . S
C558 N556 1.356 . S
C559 C553 1.363 . S
C559 C554 1.379 . S
C559 N557 1.356 . S
N560 C552 1.356 . S
N560 H566 0.984 . S
N560 H567 0.984 . S
N561 C554 1.356 . S
N561 H564 0.984 . S
N561 H565 0.985 . S
H562 N557 0.984 . S
H563 N557 0.985 . S
H564 N561 0.984 . S
H565 N561 0.985 . S
H566 N560 0.984 . S
H567 N560 0.984 . S
H568 N556 0.984 . S
H569 N556 0.985 . S
C570 C571 1.363 . S
C570 C576 1.379 . S
C570 N578 1.356 . S
C571 C570 1.363 . S
C571 C577 1.363 . S
C572 C573 1.363 . S
C572 C577 1.379 . S
C572 N579 1.356 . S
C573 C572 1.363 . S
C573 C576 1.363 . S
N574 C576 1.356 . S
N574 H586 0.984 . S
N574 H587 0.985 . S
N575 C577 1.356 . S
N575 H580 0.984 . S
N575 H581 0.985 . S
C576 C570 1.379 . S
C576 C573 1.363 . S
C576 N574 1.356 . S
C577 C571 1.363 . S
C577 C572 1.379 . S
C577 N575 1.356 . S
N578 C570 1.356 . S
N578 H584 0.984 . S
N578 H585 0.984 . S
N579 C572 1.356 . S
N579 H582 0.984 . S
N579 H583 0.985 . S
H580 N575 0.984 . S
H581 N575 0.985 . S
H582 N579 0.984 . S
H583 N579 0.985 . S
H584 N578 0.984 . S
H585 N578 0.984 . S
H586 N574 0.984 . S
H587 N574 0.985 . S
C588 C589 1.363 . S
C588 C594 1.379 . S
C588 N596 1.356 . S
C589 C588 1.363 . S
C589 C595 1.363 . S
C590 C591 1.363 . S
C590 C595 1.379 . S
C590 N597 1.356 . S
C591 C590 1.363 . S
C591 C594 1.363 . S
N592 C594 1.356 . S
N592 H604 0.984 . S
N592 H605 0.985 . S
N593 C595 1.356 . S
N593 H598 0.984 . S
N593 H599 0.985 . S
C594 C588 1.379 . S
C594 C591 1.363 . S
C594 N592 1.356 . S
C595 C589 1.363 . S
C595 C590 1.379 . S
C595 N593 1.356 . S
N596 C588 1.356 . S
N596 H602 0.984 . S
N596 H603 0.984 . S
N597 C590 1.356 . S
N597 H600 0.984 . S
N597 H601 0.985 . S
H598 N593 0.984 . S
H599 N593 0.985 . S
H600 N597 0.984 . S
H601 N597 0.985 . S
H602 N596 0.984 . S
H603 N596 0.984 . S
H604 N592 0.984 . S
H605 N592 0.985 . S
C606 C607 1.363 . S
C606 C612 1.379 . S
C606 N614 1.356 . S
C607 C606 1.363 . S
C607 C613 1.363 . S
C608 C609 1.363 . S
C608 C613 1.379 . S
C608 N615 1.356 . S
C609 C608 1.363 . S
C609 C612 1.363 . S
N610 C612 1.356 . S
N610 H622 0.984 . S
N610 H623 0.985 . S
N611 C613 1.356 . S
N611 H616 0.984 . S
N611 H617 0.985 . S
C612 C606 1.379 . S
C612 C609 1.363 . S
C612 N610 1.356 . S
C613 C607 1.363 . S
C613 C608 1.379 . S
C613 N611 1.356 . S
N614 C606 1.356 . S
N614 H620 0.984 . S
N614 H621 0.984 . S
N615 C608 1.356 . S
N615 H618 0.984 . S
N615 H619 0.985 . S
H616 N611 0.984 . S
H617 N611 0.985 . S
H618 N615 0.984 . S
H619 N615 0.985 . S
H620 N614 0.984 . S
H621 N614 0.984 . S
H622 N610 0.984 . S
H623 N610 0.985 . S
C624 C625 1.363 . S
C624 C630 1.379 . S
C624 N632 1.356 . S
C625 C624 1.363 . S
C625 C631 1.363 . S
C626 C627 1.363 . S
C626 C631 1.379 . S
C626 N633 1.356 . S
C627 C626 1.363 . S
C627 C630 1.363 . S
N628 C630 1.356 . S
N628 H640 0.984 . S
N628 H641 0.985 . S
N629 C631 1.356 . S
N629 H634 0.984 . S
N629 H635 0.985 . S
C630 C624 1.379 . S
C630 C627 1.363 . S
C630 N628 1.356 . S
C631 C625 1.363 . S
C631 C626 1.379 . S
C631 N629 1.356 . S
N632 C624 1.356 . S
N632 H638 0.984 . S
N632 H639 0.984 . S
N633 C626 1.356 . S
N633 H636 0.984 . S
N633 H637 0.985 . S
H634 N629 0.984 . S
H635 N629 0.985 . S
H636 N633 0.984 . S
H637 N633 0.985 . S
H638 N632 0.984 . S
H639 N632 0.984 . S
H640 N628 0.984 . S
H641 N628 0.985 . S
C642 C643 1.363 . S
C642 C648 1.379 . S
C642 N650 1.356 . S
C643 C642 1.363 . S
C643 C649 1.363 . S
C644 C645 1.363 . S
C644 C649 1.379 . S
C644 N651 1.356 . S
C645 C644 1.363 . S
C645 C648 1.363 . S
N646 C648 1.356 . S
N646 H658 0.984 . S
N646 H659 0.985 . S
N647 C649 1.356 . S
N647 H652 0.984 . S
N647 H653 0.985 . S
C648 C642 1.379 . S
C648 C645 1.363 . S
C648 N646 1.356 . S
C649 C643 1.363 . S
C649 C644 1.379 . S
C649 N647 1.356 . S
N650 C642 1.356 . S
N650 H656 0.984 . S
N650 H657 0.984 . S
N651 C644 1.356 . S
N651 H654 0.984 . S
N651 H655 0.985 . S
H652 N647 0.984 . S
H653 N647 0.985 . S
H654 N651 0.984 . S
H655 N651 0.985 . S
H656 N650 0.984 . S
H657 N650 0.984 . S
H658 N646 0.984 . S
H659 N646 0.985 . S
C660 C661 1.363 . S
C660 C666 1.379 . S
C660 N668 1.356 . S
C661 C660 1.363 . S
C661 C667 1.363 . S
C662 C663 1.363 . S
C662 C667 1.379 . S
C662 N669 1.356 . S
C663 C662 1.363 . S
C663 C666 1.363 . S
N664 C666 1.356 . S
N664 H676 0.984 . S
N664 H677 0.985 . S
N665 C667 1.356 . S
N665 H670 0.984 . S
N665 H671 0.985 . S
C666 C660 1.379 . S
C666 C663 1.363 . S
C666 N664 1.356 . S
C667 C661 1.363 . S
C667 C662 1.379 . S
C667 N665 1.356 . S
N668 C660 1.356 . S
N668 H674 0.984 . S
N668 H675 0.984 . S
N669 C662 1.356 . S
N669 H672 0.984 . S
N669 H673 0.985 . S
H670 N665 0.984 . S
H671 N665 0.985 . S
H672 N669 0.984 . S
H673 N669 0.985 . S
H674 N668 0.984 . S
H675 N668 0.984 . S
H676 N664 0.984 . S
H677 N664 0.985 . S
C678 C679 1.363 . S
C678 C684 1.379 . S
C678 N686 1.356 . S
C679 C678 1.363 . S
C679 C685 1.363 . S
C680 C681 1.363 . S
C680 C685 1.379 . S
C680 N687 1.356 . S
C681 C680 1.363 . S
C681 C684 1.363 . S
N682 C684 1.356 . S
N682 H694 0.984 . S
N682 H695 0.985 . S
N683 C685 1.356 . S
N683 H688 0.984 . S
N683 H689 0.985 . S
C684 C678 1.379 . S
C684 C681 1.363 . S
C684 N682 1.356 . S
C685 C679 1.363 . S
C685 C680 1.379 . S
C685 N683 1.356 . S
N686 C678 1.356 . S
N686 H692 0.984 . S
N686 H693 0.984 . S
N687 C680 1.356 . S
N687 H690 0.984 . S
N687 H691 0.985 . S
H688 N683 0.984 . S
H689 N683 0.985 . S
H690 N687 0.984 . S
H691 N687 0.985 . S
H692 N686 0.984 . S
H693 N686 0.984 . S
H694 N682 0.984 . S
H695 N682 0.985 . S
C696 C697 1.363 . S
C696 C702 1.379 . S
C696 N704 1.356 . S
C697 C696 1.363 . S
C697 C703 1.363 . S
C698 C699 1.363 . S
C698 C703 1.379 . S
C698 N705 1.356 . S
C699 C698 1.363 . S
C699 C702 1.363 . S
N700 C702 1.356 . S
N700 H712 0.984 . S
N700 H713 0.985 . S
N701 C703 1.356 . S
N701 H706 0.984 . S
N701 H707 0.985 . S
C702 C696 1.379 . S
C702 C699 1.363 . S
C702 N700 1.356 . S
C703 C697 1.363 . S
C703 C698 1.379 . S
C703 N701 1.356 . S
N704 C696 1.356 . S
N704 H710 0.984 . S
N704 H711 0.984 . S
N705 C698 1.356 . S
N705 H708 0.984 . S
N705 H709 0.985 . S
H706 N701 0.984 . S
H707 N701 0.985 . S
H708 N705 0.984 . S
H709 N705 0.985 . S
H710 N704 0.984 . S
H711 N704 0.984 . S
H712 N700 0.984 . S
H713 N700 0.985 . S
C714 C715 1.363 . S
C714 C720 1.379 . S
C714 N722 1.356 . S
C715 C714 1.363 . S
C715 C721 1.363 . S
C716 C717 1.363 . S
C716 C721 1.379 . S
C716 N723 1.356 . S
C717 C716 1.363 . S
C717 C720 1.363 . S
N718 C720 1.356 . S
N718 H730 0.984 . S
N718 H731 0.985 . S
N719 C721 1.356 . S
N719 H724 0.984 . S
N719 H725 0.985 . S
C720 C714 1.379 . S
C720 C717 1.363 . S
C720 N718 1.356 . S
C721 C715 1.363 . S
C721 C716 1.379 . S
C721 N719 1.356 . S
N722 C714 1.356 . S
N722 H728 0.984 . S
N722 H729 0.984 . S
N723 C716 1.356 . S
N723 H726 0.984 . S
N723 H727 0.985 . S
H724 N719 0.984 . S
H725 N719 0.985 . S
H726 N723 0.984 . S
H727 N723 0.985 . S
H728 N722 0.984 . S
H729 N722 0.984 . S
H730 N718 0.984 . S
H731 N718 0.985 . S
C732 C733 1.363 . S
C732 C738 1.379 . S
C732 N740 1.356 . S
C733 C732 1.363 . S
C733 C739 1.363 . S
C734 C735 1.363 . S
C734 C739 1.379 . S
C734 N741 1.356 . S
C735 C734 1.363 . S
C735 C738 1.363 . S
N736 C738 1.356 . S
N736 H748 0.984 . S
N736 H749 0.985 . S
N737 C739 1.356 . S
N737 H742 0.984 . S
N737 H743 0.985 . S
C738 C732 1.379 . S
C738 C735 1.363 . S
C738 N736 1.356 . S
C739 C733 1.363 . S
C739 C734 1.379 . S
C739 N737 1.356 . S
N740 C732 1.356 . S
N740 H746 0.984 . S
N740 H747 0.984 . S
N741 C734 1.356 . S
N741 H744 0.984 . S
N741 H745 0.985 . S
H742 N737 0.984 . S
H743 N737 0.985 . S
H744 N741 0.984 . S
H745 N741 0.985 . S
H746 N740 0.984 . S
H747 N740 0.984 . S
H748 N736 0.984 . S
H749 N736 0.985 . S
C750 C751 1.363 . S
C750 C756 1.379 . S
C750 N758 1.356 . S
C751 C750 1.363 . S
C751 C757 1.363 . S
C752 C753 1.363 . S
C752 C757 1.379 . S
C752 N759 1.356 . S
C753 C752 1.363 . S
C753 C756 1.363 . S
N754 C756 1.356 . S
N754 H766 0.984 . S
N754 H767 0.985 . S
N755 C757 1.356 . S
N755 H760 0.984 . S
N755 H761 0.985 . S
C756 C750 1.379 . S
C756 C753 1.363 . S
C756 N754 1.356 . S
C757 C751 1.363 . S
C757 C752 1.379 . S
C757 N755 1.356 . S
N758 C750 1.356 . S
N758 H764 0.984 . S
N758 H765 0.984 . S
N759 C752 1.356 . S
N759 H762 0.984 . S
N759 H763 0.985 . S
H760 N755 0.984 . S
H761 N755 0.985 . S
H762 N759 0.984 . S
H763 N759 0.985 . S
H764 N758 0.984 . S
H765 N758 0.984 . S
H766 N754 0.984 . S
H767 N754 0.985 . S
C768 C769 1.363 . S
C768 C774 1.379 . S
C768 N776 1.356 . S
C769 C768 1.363 . S
C769 C775 1.363 . S
C770 C771 1.363 . S
C770 C775 1.379 . S
C770 N777 1.356 . S
C771 C770 1.363 . S
C771 C774 1.363 . S
N772 C774 1.356 . S
N772 H784 0.984 . S
N772 H785 0.985 . S
N773 C775 1.356 . S
N773 H778 0.984 . S
N773 H779 0.985 . S
C774 C768 1.379 . S
C774 C771 1.363 . S
C774 N772 1.356 . S
C775 C769 1.363 . S
C775 C770 1.379 . S
C775 N773 1.356 . S
N776 C768 1.356 . S
N776 H782 0.984 . S
N776 H783 0.984 . S
N777 C770 1.356 . S
N777 H780 0.984 . S
N777 H781 0.985 . S
H778 N773 0.984 . S
H779 N773 0.985 . S
H780 N777 0.984 . S
H781 N777 0.985 . S
H782 N776 0.984 . S
H783 N776 0.984 . S
H784 N772 0.984 . S
H785 N772 0.985 . S
C786 C787 1.363 . S
C786 C792 1.379 . S
C786 N794 1.356 . S
C787 C786 1.363 . S
C787 C793 1.363 . S
C788 C789 1.363 . S
C788 C793 1.379 . S
C788 N795 1.356 . S
C789 C788 1.363 . S
C789 C792 1.363 . S
N790 C792 1.356 . S
N790 H802 0.984 . S
N790 H803 0.985 . S
N791 C793 1.356 . S
N791 H796 0.984 . S
N791 H797 0.985 . S
C792 C786 1.379 . S
C792 C789 1.363 . S
C792 N790 1.356 . S
C793 C787 1.363 . S
C793 C788 1.379 . S
C793 N791 1.356 . S
N794 C786 1.356 . S
N794 H800 0.984 . S
N794 H801 0.984 . S
N795 C788 1.356 . S
N795 H798 0.984 . S
N795 H799 0.985 . S
H796 N791 0.984 . S
H797 N791 0.985 . S
H798 N795 0.984 . S
H799 N795 0.985 . S
H800 N794 0.984 . S
H801 N794 0.984 . S
H802 N790 0.984 . S
H803 N790 0.985 . S
C375 C300 1.507 . S
C373 C25 1.509 . S
C393 C303 1.506 . S
C391 C37 1.508 . S
C411 C301 1.516 . S
C409 C103 1.509 . S
C429 C302 1.508 . S
C427 C139 1.510 . S
C447 C317 1.502 . S
C445 C31 1.503 . S
C465 C331 1.505 . S
C463 C67 1.506 . S
C481 C97 1.501 . S
C483 C357 1.510 . S
C501 C371 1.499 . S
C499 C133 1.499 . S
C519 C316 1.502 . S
C517 C61 1.502 . S
C535 C73 1.508 . S
C537 C330 1.509 . S
C555 C356 1.505 . S
C553 C109 1.506 . S
C573 C370 1.502 . S
C571 C1 1.502 . S
C589 C169 1.500 . S
C591 C315 1.507 . S
C609 C288 1.507 . S
C607 C211 1.501 . S
C625 C241 1.502 . S
C627 C314 1.501 . S
C643 C253 1.504 . S
C645 C289 1.508 . S
C663 C344 1.509 . S
C661 C175 1.503 . S
C681 C358 1.502 . S
C679 C205 1.498 . S
C699 C328 1.501 . S
C697 C217 1.501 . S
C715 C283 1.509 . S
C717 C342 1.511 . S
C735 C345 1.508 . S
C733 C181 1.503 . S
C753 C359 1.504 . S
C751 C247 1.506 . S
C771 C329 1.504 . S
C769 C277 1.498 . S
C787 C145 1.506 . S
C789 C343 1.508 . S
