# Generated by pormake.
# Topology zzz, (3,6)-cn, num edge types: 1
# Building blocks:
#     Node 0, Type 0, BuildingBlock: KAKCAD_clean_linker_0, # of connection points: 3
#     Node 1, Type 0, BuildingBlock: KAKCAD_clean_linker_0, # of connection points: 3
#     Node 2, Type 0, BuildingBlock: KAKCAD_clean_linker_0, # of connection points: 3
#     Node 3, Type 0, BuildingBlock: KAKCAD_clean_linker_0, # of connection points: 3
#     Node 4, Type 0, BuildingBlock: KAKCAD_clean_linker_0, # of connection points: 3
#     Node 5, Type 0, BuildingBlock: KAKCAD_clean_linker_0, # of connection points: 3
#     Node 6, Type 0, BuildingBlock: KAKCAD_clean_linker_0, # of connection points: 3
#     Node 7, Type 0, BuildingBlock: KAKCAD_clean_linker_0, # of connection points: 3
#     Node 8, Type 1, BuildingBlock: NUHQIS_clean_sbu_0, # of connection points: 6
#     Node 9, Type 1, BuildingBlock: NUHQIS_clean_sbu_0, # of connection points: 6
#     Node 10, Type 1, BuildingBlock: NUHQIS_clean_sbu_0, # of connection points: 6
#     Node 11, Type 1, BuildingBlock: NUHQIS_clean_sbu_0, # of connection points: 6
#     Edge 12, Type (0, 1), BuildingBlock: UVAHIK_clean_linker_0, # of connection points: 2
#     Edge 13, Type (0, 1), BuildingBlock: UVAHIK_clean_linker_0, # of connection points: 2
#     Edge 14, Type (0, 1), BuildingBlock: UVAHIK_clean_linker_0, # of connection points: 2
#     Edge 15, Type (0, 1), BuildingBlock: UVAHIK_clean_linker_0, # of connection points: 2
#     Edge 16, Type (0, 1), BuildingBlock: UVAHIK_clean_linker_0, # of connection points: 2
#     Edge 17, Type (0, 1), BuildingBlock: UVAHIK_clean_linker_0, # of connection points: 2
#     Edge 18, Type (0, 1), BuildingBlock: UVAHIK_clean_linker_0, # of connection points: 2
#     Edge 19, Type (0, 1), BuildingBlock: UVAHIK_clean_linker_0, # of connection points: 2
#     Edge 20, Type (0, 1), BuildingBlock: UVAHIK_clean_linker_0, # of connection points: 2
#     Edge 21, Type (0, 1), BuildingBlock: UVAHIK_clean_linker_0, # of connection points: 2
#     Edge 22, Type (0, 1), BuildingBlock: UVAHIK_clean_linker_0, # of connection points: 2
#     Edge 23, Type (0, 1), BuildingBlock: UVAHIK_clean_linker_0, # of connection points: 2
#     Edge 24, Type (0, 1), BuildingBlock: UVAHIK_clean_linker_0, # of connection points: 2
#     Edge 25, Type (0, 1), BuildingBlock: UVAHIK_clean_linker_0, # of connection points: 2
#     Edge 26, Type (0, 1), BuildingBlock: UVAHIK_clean_linker_0, # of connection points: 2
#     Edge 27, Type (0, 1), BuildingBlock: UVAHIK_clean_linker_0, # of connection points: 2
#     Edge 28, Type (0, 1), BuildingBlock: UVAHIK_clean_linker_0, # of connection points: 2
#     Edge 29, Type (0, 1), BuildingBlock: UVAHIK_clean_linker_0, # of connection points: 2
#     Edge 30, Type (0, 1), BuildingBlock: UVAHIK_clean_linker_0, # of connection points: 2
#     Edge 31, Type (0, 1), BuildingBlock: UVAHIK_clean_linker_0, # of connection points: 2
#     Edge 32, Type (0, 1), BuildingBlock: UVAHIK_clean_linker_0, # of connection points: 2
#     Edge 33, Type (0, 1), BuildingBlock: UVAHIK_clean_linker_0, # of connection points: 2
#     Edge 34, Type (0, 1), BuildingBlock: UVAHIK_clean_linker_0, # of connection points: 2
#     Edge 35, Type (0, 1), BuildingBlock: UVAHIK_clean_linker_0, # of connection points: 2
# Relax obj value: 0.386
# Max RMSD: 0.257
# Mean RMSD: 0.230
data_MOF--net-zzz--node1-NUHQIS_clean_sbu_0--node2-KAKCAD_clean_linker_0--edge1-UVAHIK_clean_linker_0
_symmetry_space_group_name_H-M    P1
_symmetry_Int_Tables_number       1
_symmetry_cell_setting            triclinic
loop_
_symmetry_equiv_pos_as_xyz
'x, y, z'
_cell_length_a     74.40953
_cell_length_b     74.461595
_cell_length_c     23.517198
_cell_angle_alpha  90.028237
_cell_angle_beta   89.995728
_cell_angle_gamma 90.007089
loop_
_atom_site_label
_atom_site_type_symbol
_atom_site_fract_x
_atom_site_fract_y
_atom_site_fract_z
_atom_type_partial_charge
C0 C 0.76324 0.45777 0.05651 0.0
C1 C 0.7752 0.44433 0.07471 0.0
C2 C 0.75352 0.46788 0.09596 0.0
C3 C 0.75525 0.46455 0.15458 0.0
C4 C 0.76599 0.45007 0.17238 0.0
C5 C 0.77596 0.44018 0.13302 0.0
C6 C 0.74723 0.47709 0.19689 0.0
C7 C 0.73073 0.48547 0.18638 0.0
C8 C 0.72405 0.49879 0.22297 0.0
C9 C 0.7338 0.50341 0.27236 0.0
C10 C 0.75027 0.49474 0.28428 0.0
C11 C 0.75682 0.48181 0.24597 0.0
C12 C 0.76173 0.49939 0.33412 0.0
C13 C 0.76742 0.51712 0.34381 0.0
C14 C 0.76955 0.48552 0.3662 0.0
C15 C 0.7837 0.48902 0.40362 0.0
C16 C 0.79038 0.50657 0.41062 0.0
C17 C 0.70717 0.50792 0.206 0.0
C18 C 0.70642 0.51637 0.15272 0.0
C19 C 0.69115 0.5052 0.23629 0.0
C20 C 0.67454 0.50976 0.21178 0.0
C21 C 0.6737 0.51711 0.15652 0.0
C22 C 0.68994 0.5209 0.12828 0.0
C23 C 0.7816 0.52067 0.3817 0.0
H24 H 0.76196 0.46107 0.01185 0.0
H25 H 0.74544 0.47893 0.08043 0.0
H26 H 0.76728 0.4468 0.21707 0.0
H27 H 0.78505 0.43 0.14891 0.0
H28 H 0.72304 0.48178 0.149 0.0
H29 H 0.76997 0.47599 0.2533 0.0
H30 H 0.72877 0.51373 0.30064 0.0
H31 H 0.76171 0.52808 0.31952 0.0
H32 H 0.76541 0.47171 0.35976 0.0
H33 H 0.79007 0.47771 0.42431 0.0
H34 H 0.7186 0.51843 0.12828 0.0
H35 H 0.69139 0.49851 0.27717 0.0
H36 H 0.78607 0.53442 0.38678 0.0
H37 H 0.68999 0.52627 0.08553 0.0
H38 H 0.66236 0.50691 0.23524 0.0
C39 C 0.03533 0.75955 0.05543 0.0
C40 C 0.04947 0.77126 0.06941 0.0
C41 C 0.0268 0.74948 0.09757 0.0
C42 C 0.03233 0.75078 0.15461 0.0
C43 C 0.0474 0.76138 0.16779 0.0
C44 C 0.05586 0.77155 0.12567 0.0
C45 C 0.02133 0.74255 0.2005 0.0
C46 C 0.01317 0.72579 0.19273 0.0
C47 C 1.00113 0.71885 0.23312 0.0
C48 C 0.9974 0.72879 0.28284 0.0
C49 C 0.00576 0.74558 0.29159 0.0
C50 C 0.01767 0.75223 0.25031 0.0
C51 C 1.00147 0.75737 0.34074 0.0
C52 C 0.98393 0.76385 0.34881 0.0
C53 C 0.01553 0.76494 0.37263 0.0
C54 C 0.01238 0.77951 0.4088 0.0
C55 C 0.99509 0.78697 0.41373 0.0
C56 C 0.99253 0.70133 0.22059 0.0
C57 C 0.98335 0.69911 0.1689 0.0
C58 C 0.99622 0.68615 0.25395 0.0
C59 C 0.99201 0.66891 0.23371 0.0
C60 C 0.98399 0.66659 0.17985 0.0
C61 C 0.9791 0.68198 0.1488 0.0
C62 C 0.98077 0.77855 0.38484 0.0
H63 H 0.03028 0.75882 0.01229 0.0
H64 H 0.01521 0.74151 0.08582 0.0
H65 H 0.05221 0.7624 0.21114 0.0
H66 H 0.06666 0.78049 0.13804 0.0
H67 H 0.01612 0.71808 0.15472 0.0
H68 H 0.02336 0.76553 0.25576 0.0
H69 H 0.98794 0.72365 0.31385 0.0
H70 H 0.97288 0.75838 0.3243 0.0
H71 H 0.0292 0.76026 0.36689 0.0
H72 H 0.02377 0.78566 0.42989 0.0
H73 H 0.98045 0.71062 0.14227 0.0
H74 H 0.00342 0.68753 0.29373 0.0
H75 H 0.96724 0.78379 0.38827 0.0
H76 H 0.97312 0.68083 0.10699 0.0
H77 H 0.99572 0.65738 0.25915 0.0
C78 C 0.74782 0.05007 0.05984 0.0
C79 C 0.73498 0.06294 0.07609 0.0
C80 C 0.75736 0.04044 0.10076 0.0
C81 C 0.75463 0.04374 0.15904 0.0
C82 C 0.74311 0.05785 0.17503 0.0
C83 C 0.73328 0.06724 0.13407 0.0
C84 C 0.7623 0.03135 0.20245 0.0
C85 C 0.77895 0.02304 0.19373 0.0
C86 C 0.7851 0.00944 0.23012 0.0
C87 C 0.77471 0.00453 0.27789 0.0
C88 C 0.75817 0.01324 0.28843 0.0
C89 C 0.75212 0.02641 0.25013 0.0
C90 C 0.74613 0.00841 0.3367 0.0
C91 C 0.74009 0.9907 0.34455 0.0
C92 C 0.73821 0.02217 0.36901 0.0
C93 C 0.72373 0.01862 0.40505 0.0
C94 C 0.71677 1.00112 0.41037 0.0
C95 C 0.80193 1.00012 0.21386 0.0
C96 C 0.8025 0.99102 0.16164 0.0
C97 C 0.81808 0.00356 0.24266 0.0
C98 C 0.83462 0.99898 0.21767 0.0
C99 C 0.83527 0.99097 0.16329 0.0
C100 C 0.81892 0.9865 0.13666 0.0
C101 C 0.72555 0.98709 0.38102 0.0
H102 H 0.74983 0.04673 0.01547 0.0
H103 H 0.76604 0.02969 0.08645 0.0
H104 H 0.74105 0.06113 0.21941 0.0
H105 H 0.72353 0.07705 0.14834 0.0
H106 H 0.78712 0.02686 0.15753 0.0
H107 H 0.73889 0.03218 0.25619 0.0
H108 H 0.77933 0.99396 0.30595 0.0
H109 H 0.74585 0.97983 0.31996 0.0
H110 H 0.74259 0.03596 0.3639 0.0
H111 H 0.71736 0.02988 0.42608 0.0
H112 H 0.79022 0.98849 0.13821 0.0
H113 H 0.81797 0.01082 0.28259 0.0
H114 H 0.72084 0.97339 0.38475 0.0
H115 H 0.8187 0.98061 0.09459 0.0
H116 H 0.84688 1.00237 0.23997 0.0
C117 C 0.49663 0.7255 0.4016 0.0
C118 C 0.51376 0.71755 0.40382 0.0
C119 C 0.49305 0.73941 0.36338 0.0
C120 C 0.50653 0.7458 0.32673 0.0
C121 C 0.524 0.73889 0.3319 0.0
C122 C 0.52758 0.72484 0.36995 0.0
C123 C 0.50147 0.75681 0.27661 0.0
C124 C 0.51039 0.7729 0.26242 0.0
C125 C 0.506 0.78203 0.21172 0.0
C126 C 0.49279 0.77484 0.1755 0.0
C127 C 0.48387 0.75888 0.18926 0.0
C128 C 0.48816 0.75008 0.24004 0.0
C129 C 0.47098 0.75061 0.14896 0.0
C130 C 0.45475 0.74325 0.16862 0.0
C131 C 0.47554 0.74869 0.09133 0.0
C132 C 0.46462 0.7387 0.05482 0.0
C133 C 0.44884 0.7305 0.07513 0.0
C134 C 0.51478 0.79915 0.19514 0.0
C135 C 0.51427 0.81418 0.23119 0.0
C136 C 0.5214 0.80122 0.13959 0.0
C137 C 0.52622 0.81813 0.1191 0.0
C138 C 0.52452 0.83347 0.15363 0.0
C139 C 0.51904 0.83121 0.21056 0.0
C140 C 0.44375 0.73338 0.13203 0.0
H141 H 0.48563 0.72019 0.42663 0.0
H142 H 0.47944 0.74447 0.36004 0.0
H143 H 0.53458 0.74346 0.30377 0.0
H144 H 0.54098 0.71918 0.37119 0.0
H145 H 0.52077 0.77815 0.29017 0.0
H146 H 0.48173 0.73737 0.24982 0.0
H147 H 0.48929 0.78181 0.13656 0.0
H148 H 0.4508 0.74477 0.2127 0.0
H149 H 0.48806 0.75409 0.07514 0.0
H150 H 0.4691 0.73658 0.01153 0.0
H151 H 0.50915 0.81296 0.27414 0.0
H152 H 0.52199 0.78982 0.11097 0.0
H153 H 0.43151 0.72754 0.14877 0.0
H154 H 0.5178 0.8427 0.23855 0.0
H155 H 0.53021 0.81929 0.07497 0.0
C156 C 0.25319 0.50226 0.28992 0.0
C157 C 0.23693 0.49316 0.29902 0.0
C158 C 0.26328 0.49898 0.24105 0.0
C159 C 0.25739 0.48638 0.2005 0.0
C160 C 0.24189 0.47626 0.21189 0.0
C161 C 0.23172 0.47964 0.26061 0.0
C162 C 0.26646 0.48521 0.14444 0.0
C163 C 0.28511 0.48688 0.14063 0.0
C164 C 0.29369 0.48862 0.08789 0.0
C165 C 0.2834 0.48811 0.03741 0.0
C166 C 0.26456 0.48569 0.04068 0.0
C167 C 0.25634 0.48432 0.09427 0.0
C168 C 0.25258 0.48563 0.99005 0.0
C169 C 0.24992 0.50134 0.95816 0.0
C170 C 0.24087 0.47107 0.98163 0.0
C171 C 0.22619 0.47251 0.94476 0.0
C172 C 0.22271 0.48863 0.9155 0.0
C173 C 0.3133 0.49197 0.08946 0.0
C174 C 0.31935 0.50799 0.11446 0.0
C175 C 0.32537 0.47762 0.08376 0.0
C176 C 0.34272 0.47876 0.10702 0.0
C177 C 0.34821 0.49418 0.13742 0.0
C178 C 0.33652 0.50907 0.13834 0.0
C179 C 0.23511 0.50285 0.92133 0.0
H180 H 0.25766 0.51259 0.31913 0.0
H181 H 0.2751 0.50712 0.23356 0.0
H182 H 0.23719 0.46624 0.18196 0.0
H183 H 0.21919 0.47245 0.26613 0.0
H184 H 0.29308 0.4873 0.17924 0.0
H185 H 0.24181 0.48349 0.09676 0.0
H186 H 0.28988 0.48969 0.99648 0.0
H187 H 0.25857 0.51287 0.96456 0.0
H188 H 0.24245 0.4589 0.00638 0.0
H189 H 0.21692 0.46132 0.94208 0.0
H190 H 0.31014 0.5191 0.12053 0.0
H191 H 0.32091 0.46501 0.0656 0.0
H192 H 0.23303 0.51538 0.89895 0.0
H193 H 0.33991 0.52115 0.16159 0.0
H194 H 0.35143 0.46716 0.10387 0.0
C195 C 0.95678 0.25252 0.27871 0.0
C196 C 0.96351 0.23679 0.3038 0.0
C197 C 0.9663 0.26093 0.23484 0.0
C198 C 0.98242 0.25346 0.21477 0.0
C199 C 0.98928 0.23793 0.2405 0.0
C200 C 0.97998 0.22974 0.28488 0.0
C201 C 0.99188 0.26134 0.16566 0.0
C202 C 0.99744 0.27923 0.16665 0.0
C203 C 0.0073 0.2865 0.12129 0.0
C204 C 0.01134 0.27568 0.07352 0.0
C205 C 0.00507 0.25777 0.07137 0.0
C206 C 0.99565 0.25075 0.11809 0.0
C207 C 0.0076 0.24581 0.02142 0.0
C208 C 0.99241 0.23764 0.99709 0.0
C209 C 0.02475 0.23964 0.00572 0.0
C210 C 0.02656 0.22465 0.96971 0.0
C211 C 0.01123 0.21558 0.94937 0.0
C212 C 0.01324 0.30537 0.12701 0.0
C213 C 1.00025 0.31904 0.12764 0.0
C214 C 0.03058 0.30913 0.14724 0.0
C215 C 0.03443 0.32587 0.17178 0.0
C216 C 0.02099 0.33912 0.17664 0.0
C217 C 0.0041 0.33577 0.15188 0.0
C218 C 0.99419 0.22271 0.96164 0.0
H219 H 0.94408 0.25814 0.29254 0.0
H220 H 0.96079 0.27291 0.21534 0.0
H221 H 1.00174 0.23201 0.22577 0.0
H222 H 0.98533 0.21747 0.30295 0.0
H223 H 0.99454 0.28742 0.20372 0.0
H224 H 0.99112 0.2369 0.11729 0.0
H225 H 0.01883 0.28123 0.03815 0.0
H226 H 0.97904 0.24213 0.00855 0.0
H227 H 0.03666 0.24555 0.02449 0.0
H228 H 0.03986 0.21943 0.96096 0.0
H229 H 0.98668 0.31629 0.11343 0.0
H230 H 0.04069 0.29868 0.14825 0.0
H231 H 0.98216 0.2162 0.94591 0.0
H232 H 0.99336 0.34553 0.15522 0.0
H233 H 0.04766 0.32808 0.1897 0.0
C234 C 0.25166 0.00456 0.29028 0.0
C235 C 0.26783 0.01375 0.30027 0.0
C236 C 0.24185 0.00777 0.24084 0.0
C237 C 0.24791 0.02036 0.20058 0.0
C238 C 0.2633 0.03057 0.2128 0.0
C239 C 0.27319 0.02727 0.26212 0.0
C240 C 0.23915 0.02147 0.14404 0.0
C241 C 0.22053 0.01981 0.13927 0.0
C242 C 0.21222 0.01805 0.0861 0.0
C243 C 0.22278 0.01853 0.03615 0.0
C244 C 0.2416 0.02094 0.04038 0.0
C245 C 0.24953 0.02233 0.09441 0.0
C246 C 0.25383 0.021 0.99035 0.0
C247 C 0.25645 0.00537 0.95794 0.0
C248 C 0.26574 0.03546 0.98293 0.0
C249 C 0.28055 0.03399 0.94655 0.0
C250 C 0.28395 0.01795 0.91676 0.0
C251 C 0.1926 0.01475 0.0867 0.0
C252 C 0.18639 0.99872 0.11117 0.0
C253 C 0.18061 0.02917 0.08094 0.0
C254 C 0.16319 0.02807 0.10371 0.0
C255 C 0.15755 0.01263 0.13368 0.0
C256 C 0.16916 0.99768 0.13458 0.0
C257 C 0.27138 0.00384 0.92159 0.0
H258 H 0.24708 0.99422 0.31926 0.0
H259 H 0.2301 0.99958 0.2327 0.0
H260 H 0.26813 0.04058 0.1831 0.0
H261 H 0.28566 0.03451 0.26832 0.0
H262 H 0.21236 0.01941 0.17747 0.0
H263 H 0.26405 0.02316 0.09769 0.0
H264 H 0.2165 0.01694 0.9949 0.0
H265 H 0.24764 0.99392 0.96355 0.0
H266 H 0.26419 0.04757 0.00804 0.0
H267 H 0.28993 0.04509 0.94464 0.0
H268 H 0.19553 0.98756 0.11732 0.0
H269 H 0.18518 0.04179 0.0632 0.0
H270 H 0.2734 0.99137 0.89877 0.0
H271 H 0.16565 0.98558 0.15752 0.0
H272 H 0.15455 0.03971 0.10056 0.0
C273 C 0.47942 0.28407 0.98347 0.0
C274 C 0.49407 0.29084 0.95215 0.0
C275 C 0.4815 0.26882 0.01809 0.0
C276 C 0.49821 0.26008 0.02149 0.0
C277 C 0.51232 0.266 0.98657 0.0
C278 C 0.51028 0.28116 0.95229 0.0
C279 C 0.5024 0.24783 0.06941 0.0
C280 C 0.49425 0.23085 0.07627 0.0
C281 C 0.49948 0.21973 0.12198 0.0
C282 C 0.51228 0.2259 0.16122 0.0
C283 C 0.51997 0.24296 0.15583 0.0
C284 C 0.51507 0.25371 0.10951 0.0
C285 C 0.53225 0.2501 0.20015 0.0
C286 C 0.52828 0.24768 0.25808 0.0
C287 C 0.54716 0.26064 0.18499 0.0
C288 C 0.5571 0.2696 0.22658 0.0
C289 C 0.55238 0.26816 0.28429 0.0
C290 C 0.49186 0.20163 0.13158 0.0
C291 C 0.47495 0.19976 0.15729 0.0
C292 C 0.50326 0.18665 0.12845 0.0
C293 C 0.49842 0.17042 0.15413 0.0
C294 C 0.48212 0.16888 0.18405 0.0
C295 C 0.47011 0.18352 0.18329 0.0
C296 C 0.53827 0.25659 0.29972 0.0
H297 H 0.46677 0.29126 0.98427 0.0
H298 H 0.4705 0.26468 0.04527 0.0
H299 H 0.52536 0.25954 0.98865 0.0
H300 H 0.52171 0.28582 0.92787 0.0
H301 H 0.48434 0.22621 0.04591 0.0
H302 H 0.52072 0.26708 0.10538 0.0
H303 H 0.51613 0.21737 0.19656 0.0
H304 H 0.51685 0.23969 0.27123 0.0
H305 H 0.55076 0.26249 0.14075 0.0
H306 H 0.5678 0.2785 0.2131 0.0
H307 H 0.46608 0.21124 0.16106 0.0
H308 H 0.51651 0.18791 0.10976 0.0
H309 H 0.53446 0.25499 0.34388 0.0
H310 H 0.45734 0.18271 0.20526 0.0
H311 H 0.5081 0.15957 0.15421 0.0
Tb312 Tb 0.01834 0.99753 0.70944 0.0
Eu313 Eu 0.98502 0.00924 0.62723 0.0
C314 C 0.02483 0.00705 0.58174 0.0
C315 C 0.00681 0.03837 0.70186 0.0
C316 C 0.05481 0.97151 0.77867 0.0
C317 C 0.07705 0.95466 0.83171 0.0
C318 C 0.06872 0.97096 0.81865 0.0
C319 C 0.05008 0.95587 0.74904 0.0
C320 C 0.05828 0.93954 0.76236 0.0
C321 C 0.07141 0.93863 0.80539 0.0
C322 C 0.04402 0.98785 0.77267 0.0
O323 O 0.99523 0.0038 0.76346 0.0
O324 O 0.97412 0.99377 0.7017 0.0
O325 O 0.99089 0.98062 0.60285 0.0
O326 O 0.00669 0.97187 0.68245 0.0
C327 C 0.97911 0.99735 0.7538 0.0
O328 O 0.957 0.01745 0.62131 0.0
O329 O 0.97286 0.01467 0.54451 0.0
O330 O 0.01073 0.0176 0.58367 0.0
O331 O 0.02755 0.99503 0.62167 0.0
O332 O 0.02004 0.02678 0.70745 0.0
O333 O 0.99124 0.03371 0.68013 0.0
C334 C 0.99806 0.96805 0.63493 0.0
O335 O 0.04615 0.99696 0.72585 0.0
O336 O 0.0271 0.98605 0.78575 0.0
C337 C 0.95217 0.03867 0.55017 0.0
C338 C 0.9409 0.07436 0.53259 0.0
C339 C 0.92821 0.06043 0.53745 0.0
C340 C 0.93382 0.04272 0.54623 0.0
C341 C 0.96488 0.05245 0.54439 0.0
C342 C 0.95931 0.07009 0.53523 0.0
C343 C 0.95791 0.02058 0.56688 0.0
H344 H 0.08733 0.95447 0.86431 0.0
H345 H 0.07258 0.98297 0.84163 0.0
H346 H 0.0394 0.95613 0.71781 0.0
H347 H 0.05344 0.92749 0.7416 0.0
H348 H 0.91394 0.06327 0.53612 0.0
H349 H 0.92383 0.03227 0.55158 0.0
H350 H 0.97912 0.04965 0.54817 0.0
H351 H 0.96947 0.0804 0.5305 0.0
Tb352 Tb 0.50628 0.017 0.71478 0.0
Eu353 Eu 0.49654 0.98382 0.62909 0.0
C354 C 0.49273 0.02487 0.59126 0.0
C355 C 0.46607 0.00332 0.70299 0.0
C356 C 0.53335 0.0483 0.79877 0.0
C357 C 0.55233 0.06812 0.85449 0.0
C358 C 0.5352 0.06237 0.83785 0.0
C359 C 0.54871 0.03996 0.77675 0.0
C360 C 0.56575 0.04586 0.79238 0.0
C361 C 0.56784 0.05998 0.83167 0.0
C362 C 0.51559 0.04265 0.77869 0.0
O363 O 0.51724 0.99305 0.75572 0.0
O364 O 0.49758 0.97285 0.7178 0.0
O365 O 0.52664 0.98354 0.63693 0.0
O366 O 0.52997 0.01319 0.66072 0.0
C367 C 0.50907 0.97742 0.75736 0.0
O368 O 0.48458 0.95742 0.61653 0.0
O369 O 0.49778 0.97063 0.54618 0.0
O370 O 0.49802 0.00884 0.57532 0.0
O371 O 0.49098 0.0289 0.64534 0.0
O372 O 0.4788 0.00922 0.73726 0.0
O373 O 0.46993 0.99619 0.65327 0.0
C374 C 0.53664 0.99798 0.64142 0.0
O375 O 0.51326 0.0441 0.72402 0.0
O376 O 0.50994 0.02719 0.79748 0.0
C377 C 0.47071 0.95488 0.5278 0.0
C378 C 0.43548 0.95393 0.48482 0.0
C379 C 0.44181 0.93994 0.51946 0.0
C380 C 0.45935 0.94037 0.54056 0.0
C381 C 0.46481 0.96814 0.48968 0.0
C382 C 0.44737 0.96762 0.46822 0.0
C383 C 0.48709 0.95763 0.56173 0.0
H384 H 0.5534 0.07882 0.88549 0.0
H385 H 0.52342 0.06892 0.85531 0.0
H386 H 0.54748 0.02901 0.74679 0.0
H387 H 0.57728 0.03947 0.77287 0.0
H388 H 0.43295 0.92915 0.53239 0.0
H389 H 0.46364 0.93 0.56988 0.0
H390 H 0.4732 0.97956 0.47923 0.0
H391 H 0.44282 0.97868 0.44203 0.0
Tb392 Tb 0.48879 0.50969 0.71183 0.0
Eu393 Eu 0.52142 0.49757 0.62677 0.0
C394 C 0.48123 0.49982 0.58488 0.0
C395 C 0.50029 0.46875 0.70459 0.0
C396 C 0.45299 0.53673 0.77995 0.0
C397 C 0.42926 0.55371 0.82585 0.0
C398 C 0.43814 0.53743 0.81641 0.0
C399 C 0.45835 0.55225 0.75078 0.0
C400 C 0.44962 0.56856 0.76057 0.0
C401 C 0.43525 0.56959 0.7994 0.0
C402 C 0.46366 0.52022 0.77588 0.0
O403 O 0.51209 0.5032 0.76455 0.0
O404 O 0.53297 0.51273 0.70107 0.0
O405 O 0.51507 0.526 0.60183 0.0
O406 O 0.50096 0.535 0.68415 0.0
C407 C 0.52826 0.50931 0.75357 0.0
O408 O 0.54976 0.49119 0.61661 0.0
O409 O 0.53225 0.49055 0.54317 0.0
O410 O 0.49529 0.48921 0.58597 0.0
O411 O 0.47889 0.51197 0.62471 0.0
O412 O 0.48718 0.4804 0.71185 0.0
O413 O 0.51561 0.47327 0.68074 0.0
C414 C 0.50878 0.5387 0.63522 0.0
O415 O 0.46114 0.51042 0.73065 0.0
O416 O 0.48068 0.52207 0.78752 0.0
C417 C 0.55532 0.469 0.54843 0.0
C418 C 0.56912 0.4349 0.52086 0.0
C419 C 0.57411 0.45011 0.48901 0.0
C420 C 0.56727 0.46706 0.50284 0.0
C421 C 0.55035 0.4539 0.58033 0.0
C422 C 0.5572 0.437 0.56677 0.0
C423 C 0.54814 0.48673 0.56326 0.0
H424 H 0.41804 0.55394 0.85514 0.0
H425 H 0.43377 0.52552 0.83893 0.0
H426 H 0.46974 0.55189 0.72218 0.0
H427 H 0.45477 0.58049 0.73989 0.0
H428 H 0.58332 0.4489 0.45356 0.0
H429 H 0.57127 0.47863 0.47793 0.0
H430 H 0.54111 0.45519 0.61563 0.0
H431 H 0.55283 0.42552 0.59145 0.0
Tb432 Tb 1.00048 0.48811 0.71624 0.0
Eu433 Eu 0.00943 0.52235 0.63398 0.0
C434 C 0.01256 0.48198 0.59047 0.0
C435 C 0.04047 0.50233 0.70354 0.0
C436 C 0.97631 0.45369 0.80148 0.0
C437 C 0.956 0.42853 0.81531 0.0
C438 C 0.9722 0.43543 0.79477 0.0
C439 C 0.96414 0.46495 0.82995 0.0
C440 C 0.94804 0.45802 0.85107 0.0
C441 C 0.94374 0.43979 0.84341 0.0
C442 C 0.99273 0.46086 0.77523 0.0
O443 O 0.99006 0.51118 0.76329 0.0
O444 O 0.00834 0.53248 0.72384 0.0
O445 O 0.97949 0.52275 0.64464 0.0
O446 O 0.97583 0.49302 0.66753 0.0
C447 C 0.99764 0.52712 0.76471 0.0
O448 O 0.02147 0.54881 0.62344 0.0
O449 O 0.00753 0.53649 0.55283 0.0
O450 O 0.00678 0.49807 0.57722 0.0
O451 O 0.01539 0.47758 0.64373 0.0
O452 O 0.02797 0.49604 0.73789 0.0
O453 O 0.03627 0.50984 0.65473 0.0
C454 C 0.9693 0.50845 0.64952 0.0
O455 O 0.9927 0.46106 0.71988 0.0
O456 O 0.99932 0.47567 0.79635 0.0
C457 C 0.03454 0.55227 0.53386 0.0
C458 C 0.06947 0.55354 0.48857 0.0
C459 C 0.06333 0.56734 0.52439 0.0
C460 C 0.04594 0.56674 0.54666 0.0
C461 C 0.04021 0.53923 0.49458 0.0
C462 C 0.0575 0.53992 0.47197 0.0
C463 C 0.01845 0.54925 0.5689 0.0
H464 H 0.95303 0.41442 0.80912 0.0
H465 H 0.98139 0.42657 0.7726 0.0
H466 H 0.9669 0.47915 0.83494 0.0
H467 H 0.93869 0.46703 0.87192 0.0
H468 H 0.07226 0.57807 0.53737 0.0
H469 H 0.04183 0.57693 0.5769 0.0
H470 H 0.03178 0.52784 0.48411 0.0
H471 H 0.0619 0.529 0.44488 0.0
C472 C 0.13149 0.99666 0.18142 0.0
C473 C 0.14082 0.01272 0.16953 0.0
C474 C 0.11775 0.99624 0.22213 0.0
C475 C 0.0841 0.02234 0.29838 0.0
H476 H 0.09299 0.99019 0.42483 0.0
C477 C 0.0394 0.02379 0.50103 0.0
C478 C 0.03731 0.00791 0.53254 0.0
C479 C 0.05146 0.02454 0.45522 0.0
C480 C 0.08995 0.99899 0.38952 0.0
H481 H 0.14201 0.04117 0.19035 0.0
H482 H 0.11743 0.04047 0.25875 0.0
H483 H 0.11378 0.99086 0.34513 0.0
H484 H 0.04577 0.98017 0.53949 0.0
H485 H 0.06589 0.98107 0.45832 0.0
H486 H 0.05995 0.03007 0.34115 0.0
C487 C 0.12108 0.02818 0.2369 0.0
C488 C 0.10202 0.99943 0.34391 0.0
C489 C 0.13511 0.02856 0.19714 0.0
C490 C 0.04726 0.9927 0.51656 0.0
C491 C 0.05897 0.9933 0.47002 0.0
C492 C 0.07175 0.02162 0.34342 0.0
C493 C 0.11261 0.01194 0.25095 0.0
C494 C 0.09929 0.01115 0.29803 0.0
C495 C 0.06146 0.00928 0.43882 0.0
C496 C 0.0745 0.00998 0.39 0.0
H497 H 0.13503 0.98424 0.16029 0.0
H498 H 0.11126 0.98357 0.23167 0.0
H499 H 0.08166 0.03147 0.26337 0.0
H500 H 0.03198 0.03577 0.51252 0.0
H501 H 0.05312 0.03722 0.43342 0.0
C502 C 0.47215 0.1554 0.27684 0.0
C503 C 0.47885 0.15299 0.22141 0.0
C504 C 0.47144 0.14103 0.31508 0.0
C505 C 0.47363 0.0913 0.32724 0.0
H506 H 0.49133 0.10183 0.47869 0.0
C507 C 0.49231 0.03556 0.4897 0.0
C508 C 0.48886 0.0388 0.54763 0.0
C509 C 0.4896 0.04907 0.4491 0.0
C510 C 0.48607 0.09864 0.43695 0.0
H511 H 0.48916 0.13323 0.16202 0.0
H512 H 0.48807 0.10817 0.22896 0.0
H513 H 0.48871 0.12588 0.40938 0.0
H514 H 0.47928 0.0587 0.60784 0.0
H515 H 0.47427 0.08205 0.53723 0.0
H516 H 0.47108 0.06399 0.35492 0.0
C517 C 0.48332 0.12121 0.24278 0.0
C518 C 0.48458 0.11249 0.39708 0.0
C519 C 0.48408 0.13562 0.20451 0.0
C520 C 0.48222 0.05574 0.56372 0.0
C521 C 0.47945 0.0692 0.52315 0.0
C522 C 0.47507 0.07743 0.36729 0.0
C523 C 0.4774 0.12383 0.299 0.0
C524 C 0.47837 0.10902 0.34165 0.0
C525 C 0.48332 0.06615 0.46535 0.0
C526 C 0.48135 0.0809 0.4227 0.0
H527 H 0.46819 0.16858 0.29171 0.0
H528 H 0.46654 0.14348 0.35775 0.0
H529 H 0.46865 0.08818 0.28511 0.0
H530 H 0.49746 0.02269 0.47571 0.0
H531 H 0.49292 0.04625 0.40517 0.0
C532 C 0.3706 0.4783 0.20106 0.0
C533 C 0.36486 0.49414 0.17358 0.0
C534 C 0.38458 0.47869 0.24102 0.0
C535 C 0.40353 0.50747 0.34845 0.0
H536 H 0.44559 0.47681 0.34554 0.0
C537 C 0.45847 0.51415 0.52078 0.0
C538 C 0.46847 0.49894 0.53643 0.0
C539 C 0.44665 0.51356 0.47452 0.0
C540 C 0.43379 0.48526 0.34787 0.0
H541 H 0.37052 0.52265 0.16484 0.0
H542 H 0.3942 0.52336 0.23653 0.0
H543 H 0.42389 0.47543 0.26778 0.0
H544 H 0.47369 0.47106 0.51628 0.0
H545 H 0.45236 0.46961 0.43775 0.0
H546 H 0.41257 0.5167 0.42941 0.0
C547 C 0.38778 0.51066 0.22675 0.0
C548 C 0.42144 0.48455 0.30284 0.0
C549 C 0.3741 0.51023 0.18585 0.0
C550 C 0.46625 0.48304 0.50503 0.0
C551 C 0.45408 0.4823 0.45952 0.0
C552 C 0.4156 0.50789 0.39407 0.0
C553 C 0.39295 0.49496 0.2554 0.0
C554 C 0.40626 0.49574 0.30253 0.0
C555 C 0.44409 0.49758 0.44329 0.0
C556 C 0.43104 0.49689 0.39451 0.0
H557 H 0.36377 0.46566 0.19397 0.0
H558 H 0.38825 0.4664 0.26272 0.0
H559 H 0.39177 0.51604 0.3497 0.0
H560 H 0.46005 0.52669 0.54364 0.0
H561 H 0.43971 0.52579 0.46298 0.0
C562 C 0.01627 0.37204 0.19864 0.0
C563 C 0.02368 0.35528 0.21339 0.0
C564 C 0.01684 0.38651 0.23683 0.0
C565 C 0.0196 0.39536 0.39082 0.0
H566 H 0.02837 0.44468 0.34612 0.0
C567 C 0.02365 0.45179 0.5582 0.0
C568 C 0.01578 0.46844 0.54504 0.0
C569 C 0.02583 0.43861 0.51632 0.0
C570 C 0.02569 0.43101 0.35927 0.0
H571 H 0.0379 0.34086 0.27974 0.0
H572 H 0.03913 0.36606 0.34557 0.0
H573 H 0.0302 0.42075 0.27513 0.0
H574 H 0.00429 0.48434 0.4769 0.0
H575 H 0.00776 0.46124 0.4041 0.0
H576 H 0.01471 0.40547 0.47445 0.0
C577 C 0.03272 0.36799 0.30467 0.0
C578 C 0.02678 0.41728 0.31852 0.0
C579 C 0.03223 0.35358 0.26648 0.0
C580 C 0.01045 0.47169 0.48858 0.0
C581 C 0.01253 0.45844 0.44668 0.0
C582 C 0.0184 0.40905 0.43138 0.0
C583 C 0.02472 0.38453 0.29086 0.0
C584 C 0.02381 0.39926 0.33386 0.0
C585 C 0.02007 0.44162 0.4601 0.0
C586 C 0.02148 0.42708 0.41634 0.0
H587 H 0.00968 0.37387 0.15799 0.0
H588 H 0.01049 0.39903 0.22484 0.0
H589 H 0.01684 0.38169 0.40396 0.0
H590 H 0.02806 0.44883 0.60108 0.0
H591 H 0.03205 0.42601 0.52818 0.0
C592 C 0.85504 0.97464 0.09281 0.0
C593 C 0.85261 0.98887 0.13155 0.0
C594 C 0.86994 0.97422 0.05649 0.0
C595 C 0.91564 0.99149 0.03182 0.0
H596 H 0.9035 0.98641 0.87237 0.0
C597 C 0.96782 0.00449 0.85217 0.0
C598 C 0.96608 0.9949 0.80098 0.0
C599 C 0.95477 1.00294 0.89497 0.0
C600 C 0.90731 0.98748 0.91665 0.0
H601 H 0.86473 0.01338 0.16388 0.0
H602 H 0.891 0.01223 0.10184 0.0
H603 H 0.88001 0.98434 0.94377 0.0
H604 H 0.94973 0.97555 0.75563 0.0
H605 H 0.92756 0.97216 0.83069 0.0
H606 H 0.94301 0.99424 0.00504 0.0
C607 C 0.8812 1.00149 0.09946 0.0
C608 C 0.89375 0.98638 0.95766 0.0
C609 C 0.86615 1.00207 0.13529 0.0
C610 C 0.95135 0.98331 0.79428 0.0
C611 C 0.93851 0.98149 0.83736 0.0
C612 C 0.92932 0.99229 0.9908 0.0
C613 C 0.88299 0.98785 0.05855 0.0
C614 C 0.89772 0.98843 0.01567 0.0
C615 C 0.9398 0.99152 0.88805 0.0
C616 C 0.92536 0.99036 0.93245 0.0
H617 H 0.8452 0.96399 0.08946 0.0
H618 H 0.87112 0.96336 0.02605 0.0
H619 H 0.91911 0.99304 0.07629 0.0
H620 H 0.97898 0.01362 0.85849 0.0
H621 H 0.95622 0.01109 0.9328 0.0
C622 C 0.53965 0.85502 0.08613 0.0
C623 C 0.52655 0.8517 0.12801 0.0
C624 C 0.53951 0.87104 0.05498 0.0
C625 C 0.5394 0.90874 0.00339 0.0
H626 H 0.49162 0.92219 0.95333 0.0
C627 C 0.52501 0.96838 0.84788 0.0
C628 C 0.51249 0.96463 0.80463 0.0
C629 C 0.5277 0.95619 0.89264 0.0
C630 C 0.50507 0.91863 0.96687 0.0
H631 H 0.50369 0.86323 0.17215 0.0
H632 H 0.50376 0.89129 0.11908 0.0
H633 H 0.49517 0.89853 0.02349 0.0
H634 H 0.49316 0.94494 0.77446 0.0
H635 H 0.49788 0.92392 0.85164 0.0
H636 H 0.54923 0.92851 0.94465 0.0
C637 C 0.51394 0.88134 0.10947 0.0
C638 C 0.50711 0.90519 0.00775 0.0
C639 C 0.51405 0.86531 0.1405 0.0
C640 C 0.50286 0.94839 0.80702 0.0
C641 C 0.50547 0.93633 0.85162 0.0
C642 C 0.53734 0.92228 0.96243 0.0
C643 C 0.52628 0.88417 0.06502 0.0
C644 C 0.5243 0.89983 0.02592 0.0
C645 C 0.51781 0.9401 0.89524 0.0
C646 C 0.52015 0.92709 0.94282 0.0
H647 H 0.54965 0.84496 0.07595 0.0
H648 H 0.54919 0.8727 0.02103 0.0
H649 H 0.55283 0.90508 0.01681 0.0
H650 H 0.53267 0.98076 0.84734 0.0
H651 H 0.53727 0.95951 0.92571 0.0
C652 C 0.65381 0.53312 0.08581 0.0
C653 C 0.65621 0.51922 0.12569 0.0
C654 C 0.63876 0.53342 0.05017 0.0
C655 C 0.59276 0.51653 0.02871 0.0
H656 H 0.60447 0.51993 0.86849 0.0
C657 C 0.53988 0.50265 0.85183 0.0
C658 C 0.54155 0.51184 0.79993 0.0
C659 C 0.5531 0.50435 0.89404 0.0
C660 C 0.60079 0.51933 0.91297 0.0
H661 H 0.64389 0.49524 0.16094 0.0
H662 H 0.61736 0.49617 0.09996 0.0
H663 H 0.62821 0.52234 0.93895 0.0
H664 H 0.55798 0.53065 0.75263 0.0
H665 H 0.58047 0.53429 0.82661 0.0
H666 H 0.56528 0.5139 1.003 0.0
C667 C 0.62729 0.50674 0.09616 0.0
C668 C 0.61449 0.52063 0.95343 0.0
C669 C 0.6425 0.50628 0.13136 0.0
C670 C 0.55641 0.52319 0.79186 0.0
C671 C 0.56942 0.52515 0.83432 0.0
C672 C 0.57895 0.51553 0.98819 0.0
C673 C 0.62553 0.52001 0.05405 0.0
C674 C 0.61067 0.5192 0.01173 0.0
C675 C 0.56817 0.51553 0.88576 0.0
C676 C 0.58276 0.51686 0.92958 0.0
H677 H 0.66381 0.54357 0.081 0.0
H678 H 0.63761 0.544 0.01877 0.0
H679 H 0.58941 0.51546 0.0734 0.0
H680 H 0.52862 0.49373 0.85922 0.0
H681 H 0.55168 0.49651 0.93252 0.0
C682 C 0.96824 0.64423 0.11622 0.0
C683 C 0.98263 0.64848 0.15271 0.0
C684 C 0.96862 0.62864 0.08288 0.0
C685 C 1.00191 0.59822 0.01826 0.0
H686 H 0.95991 0.57155 0.96913 0.0
C687 C 1.00277 0.55647 0.81391 0.0
C688 C 0.99454 0.53946 0.8135 0.0
C689 C 1.00061 0.5681 0.85993 0.0
C690 C 0.9718 0.57873 0.98289 0.0
H691 H 0.00821 0.6389 0.18499 0.0
H692 H 0.00857 0.61154 0.12849 0.0
H693 H 0.95708 0.59399 0.04474 0.0
H694 H 0.97724 0.52153 0.86131 0.0
H695 H 0.97346 0.542 0.94226 0.0
H696 H 0.01664 0.58309 0.95664 0.0
C697 C 0.99716 0.62049 0.12461 0.0
C698 C 0.97015 0.59172 0.02585 0.0
C699 C 0.99682 0.6361 0.15775 0.0
C700 C 0.98379 0.53452 0.86021 0.0
C701 C 0.98158 0.54626 0.90649 0.0
C702 C 0.00354 0.58531 0.97546 0.0
C703 C 0.98337 0.61685 0.08529 0.0
C704 C 0.98516 0.60182 0.04354 0.0
C705 C 0.99015 0.56312 0.90711 0.0
C706 C 0.98847 0.57563 0.95639 0.0
H707 H 0.95694 0.65329 0.11186 0.0
H708 H 0.95776 0.62635 0.05309 0.0
H709 H 0.01374 0.60583 0.03004 0.0
H710 H 0.01104 0.56087 0.77867 0.0
H711 H 0.00709 0.58111 0.85831 0.0
C712 C 0.96123 0.21984 0.39503 0.0
C713 C 0.95289 0.22662 0.346 0.0
C714 C 0.95262 0.20691 0.42817 0.0
C715 C 0.92386 0.16927 0.402 0.0
H716 H 0.93012 0.16084 0.56341 0.0
C717 C 0.92069 0.09769 0.48905 0.0
C718 C 0.93515 0.09331 0.52493 0.0
C719 C 0.91653 0.11564 0.47767 0.0
C720 C 0.92823 0.16298 0.51826 0.0
H721 H 0.92853 0.2264 0.2956 0.0
H722 H 0.91347 0.2036 0.35344 0.0
H723 H 0.93409 0.1911 0.52524 0.0
H724 H 0.95558 0.10437 0.58069 0.0
H725 H 0.94902 0.13545 0.5587 0.0
H726 H 0.91947 0.14112 0.39371 0.0
C727 C 0.92664 0.20831 0.3662 0.0
C728 C 0.93039 0.18032 0.49656 0.0
C729 C 0.93521 0.2214 0.33333 0.0
C730 C 0.94466 0.10726 0.55166 0.0
C731 C 0.94064 0.12516 0.53987 0.0
C732 C 0.9219 0.15194 0.42351 0.0
C733 C 0.93559 0.20041 0.4125 0.0
C734 C 0.92892 0.18348 0.43788 0.0
C735 C 0.92683 0.12959 0.50154 0.0
C736 C 0.92483 0.14844 0.48153 0.0
H737 H 0.97483 0.22378 0.40582 0.0
H738 H 0.95992 0.20099 0.46332 0.0
H739 H 0.92285 0.17123 0.35646 0.0
H740 H 0.91306 0.08728 0.46782 0.0
H741 H 0.90561 0.11857 0.44867 0.0
C742 C 0.29127 0.0196 0.37478 0.0
C743 C 0.28045 0.00741 0.34466 0.0
C744 C 0.30593 0.01345 0.4063 0.0
C745 C 0.32969 0.97244 0.45742 0.0
H746 H 0.37197 0.99836 0.40685 0.0
C747 C 0.40344 0.95404 0.51631 0.0
C748 C 0.41611 0.9558 0.47229 0.0
C749 C 0.38562 0.95927 0.50784 0.0
C750 C 0.36028 0.99095 0.42117 0.0
H751 H 0.27563 0.97913 0.32784 0.0
H752 H 0.30106 0.9685 0.38247 0.0
H753 H 0.34236 0.01062 0.38777 0.0
H754 H 0.41987 0.96303 0.38386 0.0
H755 H 0.3887 0.97203 0.36885 0.0
H756 H 0.34785 0.9524 0.48884 0.0
C757 C 0.29821 0.98277 0.38237 0.0
C758 C 0.34332 0.99813 0.4112 0.0
C759 C 0.28358 0.9889 0.35094 0.0
C760 C 0.41041 0.96176 0.41866 0.0
C761 C 0.39263 0.96699 0.41022 0.0
C762 C 0.34675 0.96526 0.46761 0.0
C763 C 0.31002 0.99502 0.40809 0.0
C764 C 0.32781 0.98878 0.42806 0.0
C765 C 0.38024 0.96637 0.45528 0.0
C766 C 0.36216 0.97425 0.44819 0.0
H767 H 0.28897 0.03393 0.37156 0.0
H768 H 0.31464 0.02317 0.42668 0.0
H769 H 0.31796 0.96499 0.47112 0.0
H770 H 0.40752 0.9497 0.55833 0.0
H771 H 0.37634 0.95869 0.54327 0.0
C772 C 0.57882 0.28514 0.32398 0.0
C773 C 0.56053 0.28046 0.32677 0.0
C774 C 0.58557 0.29919 0.35718 0.0
C775 C 0.57369 0.33094 0.47439 0.0
H776 H 0.59908 0.36564 0.38138 0.0
C777 C 0.58048 0.40423 0.5466 0.0
C778 C 0.57545 0.41673 0.50473 0.0
C779 C 0.58433 0.38647 0.53185 0.0
C780 C 0.59209 0.35606 0.40807 0.0
H781 H 0.53524 0.28628 0.36893 0.0
H782 H 0.5469 0.31059 0.42631 0.0
H783 H 0.59496 0.33514 0.34658 0.0
H784 H 0.57117 0.42058 0.41439 0.0
H785 H 0.57764 0.38965 0.38867 0.0
H786 H 0.56957 0.35223 0.53385 0.0
C787 C 0.55618 0.30331 0.39931 0.0
C788 C 0.58993 0.33849 0.38848 0.0
C789 C 0.54945 0.28931 0.36623 0.0
C790 C 0.5752 0.41133 0.44754 0.0
C791 C 0.57898 0.39357 0.43281 0.0
C792 C 0.57576 0.34854 0.49383 0.0
C793 C 0.57416 0.30883 0.39379 0.0
C794 C 0.58005 0.32594 0.42038 0.0
C795 C 0.58317 0.38082 0.47493 0.0
C796 C 0.58433 0.36149 0.4598 0.0
H797 H 0.58776 0.27837 0.29462 0.0
H798 H 0.59956 0.30295 0.35263 0.0
H799 H 0.56628 0.32149 0.50041 0.0
H800 H 0.58108 0.40811 0.59097 0.0
H801 H 0.58778 0.37705 0.56519 0.0
C802 C 0.2211 0.5181 0.34914 0.0
C803 C 0.22411 0.49956 0.34277 0.0
C804 C 0.20643 0.52432 0.38023 0.0
C805 C 0.16111 0.5094 0.40855 0.0
H806 H 0.15712 0.55482 0.48844 0.0
C807 C 0.09418 0.54603 0.42064 0.0
C808 C 0.08877 0.55175 0.47486 0.0
C809 C 0.11191 0.54081 0.41101 0.0
C810 C 0.15808 0.54206 0.46654 0.0
H811 H 0.21527 0.47309 0.36899 0.0
H812 H 0.18951 0.484 0.42344 0.0
H813 H 0.18687 0.54206 0.46951 0.0
H814 H 0.09782 0.55742 0.56074 0.0
H815 H 0.12889 0.54844 0.54362 0.0
H816 H 0.13245 0.50942 0.40484 0.0
C817 C 0.19836 0.49367 0.40344 0.0
C818 C 0.17505 0.53478 0.45566 0.0
C819 C 0.21307 0.48743 0.37229 0.0
C820 C 0.10167 0.55328 0.51829 0.0
C821 C 0.11943 0.54806 0.50862 0.0
C822 C 0.14422 0.51668 0.4192 0.0
C823 C 0.19445 0.51214 0.40548 0.0
C824 C 0.17673 0.51853 0.42561 0.0
C825 C 0.12453 0.54119 0.45545 0.0
C826 C 0.14255 0.53326 0.44712 0.0
H827 H 0.22921 0.52782 0.32647 0.0
H828 H 0.2037 0.53861 0.38053 0.0
H829 H 0.16193 0.497 0.38459 0.0
H830 H 0.08454 0.54494 0.38629 0.0
H831 H 0.11562 0.53595 0.3692 0.0
C832 C 0.07382 0.79039 0.02591 0.0
C833 C 0.05571 0.78496 0.02799 0.0
C834 C 0.07886 0.80553 0.99442 0.0
C835 C 0.05946 0.84811 0.95764 0.0
H836 H 0.09903 0.85508 0.8525 0.0
C837 C 0.07787 0.91833 0.88743 0.0
C838 C 0.07705 0.92091 0.82826 0.0
C839 C 0.07935 0.90111 0.91006 0.0
C840 C 0.088 0.85325 0.88198 0.0
H841 H 0.02892 0.79062 0.99602 0.0
H842 H 0.03776 0.81676 0.94112 0.0
H843 H 0.09296 0.82493 0.89127 0.0
H844 H 0.07892 0.90752 0.74649 0.0
H845 H 0.08121 0.87726 0.78645 0.0
H846 H 0.05435 0.87615 0.94892 0.0
C847 C 0.04802 0.80936 0.96391 0.0
C848 C 0.08457 0.8361 0.90411 0.0
C849 C 0.04301 0.79426 0.99501 0.0
C850 C 0.07923 0.90595 0.79226 0.0
C851 C 0.08072 0.88865 0.81505 0.0
C852 C 0.06302 0.86515 0.93635 0.0
C853 C 0.06584 0.8155 0.965 0.0
C854 C 0.0701 0.83341 0.94158 0.0
C855 C 0.08 0.88607 0.87414 0.0
C856 C 0.07726 0.86792 0.8982 0.0
H857 H 0.08395 0.78337 0.05039 0.0
H858 H 0.09269 0.81005 0.99587 0.0
H859 H 0.04836 0.84643 0.98701 0.0
H860 H 0.07608 0.92945 0.91656 0.0
H861 H 0.07897 0.89946 0.95583 0.0
C862 C 0.71442 0.0872 0.03862 0.0
C863 C 0.72173 0.06982 0.03407 0.0
C864 C 0.69978 0.09231 0.00488 0.0
C865 C 0.67179 0.07756 0.88165 0.0
H866 H 0.63181 0.0945 0.97295 0.0
C867 C 0.60017 0.05333 0.85296 0.0
C868 C 0.58617 0.06594 0.84861 0.0
C869 C 0.61755 0.05879 0.86642 0.0
C870 C 0.64293 0.09017 0.94652 0.0
H871 H 0.71967 0.04448 0.98863 0.0
H872 H 0.69464 0.05336 0.93016 0.0
H873 H 0.6623 0.09588 0.01126 0.0
H874 H 0.57959 0.09428 0.85608 0.0
H875 H 0.61004 0.10364 0.88267 0.0
H876 H 0.65216 0.07045 0.81897 0.0
C877 C 0.70028 0.06322 0.95896 0.0
C878 C 0.6604 0.09101 0.96828 0.0
C879 C 0.71475 0.0581 0.9927 0.0
C880 C 0.58997 0.08416 0.85961 0.0
C881 C 0.60739 0.08958 0.87427 0.0
C882 C 0.65435 0.07653 0.86027 0.0
C883 C 0.69227 0.08016 0.96572 0.0
C884 C 0.67489 0.08389 0.93712 0.0
C885 C 0.62132 0.07693 0.87702 0.0
C886 C 0.63973 0.0821 0.89358 0.0
H887 H 0.71964 0.09666 0.06946 0.0
H888 H 0.69398 0.10552 0.01067 0.0
H889 H 0.68273 0.07233 0.85615 0.0
H890 H 0.59774 0.03914 0.84656 0.0
H891 H 0.62802 0.04873 0.86971 0.0
C892 C 0.43286 0.70118 0.06243 0.0
C893 C 0.43892 0.71745 0.03895 0.0
C894 C 0.42597 0.68767 0.02765 0.0
C895 C 0.43143 0.67075 0.88361 0.0
H896 H 0.39641 0.63571 0.93459 0.0
C897 C 0.42639 0.60151 0.7771 0.0
C898 C 0.4279 0.58738 0.81654 0.0
C899 C 0.42216 0.6189 0.79532 0.0
C900 C 0.40612 0.64544 0.91953 0.0
H901 H 0.44127 0.73273 0.96077 0.0
H902 H 0.42933 0.70895 0.89978 0.0
H903 H 0.39882 0.66454 0.98357 0.0
H904 H 0.42533 0.58042 0.90585 0.0
H905 H 0.41779 0.61048 0.93718 0.0
H906 H 0.43935 0.65136 0.82142 0.0
C907 C 0.43013 0.70665 0.94518 0.0
C908 C 0.40752 0.66193 0.94757 0.0
C909 C 0.437 0.72024 0.98009 0.0
C910 C 0.42401 0.59084 0.87403 0.0
C911 C 0.41968 0.60814 0.8921 0.0
C912 C 0.43001 0.65428 0.85551 0.0
C913 C 0.42499 0.69004 0.96845 0.0
C914 C 0.4207 0.67445 0.9314 0.0
C915 C 0.41922 0.62247 0.85326 0.0
C916 C 0.41785 0.64117 0.87466 0.0
H917 H 0.43441 0.69841 0.10736 0.0
H918 H 0.42244 0.67494 0.04696 0.0
H919 H 0.44184 0.68001 0.87034 0.0
H920 H 0.42897 0.59926 0.73235 0.0
H921 H 0.4217 0.62964 0.76433 0.0
C922 C 0.7965 0.4473 0.99281 0.0
C923 C 0.7885 0.43641 0.03461 0.0
C924 C 0.81127 0.4412 0.96194 0.0
C925 C 0.85005 0.41342 0.98529 0.0
H926 H 0.86169 0.42804 0.83137 0.0
C927 C 0.91534 0.42258 0.82612 0.0
C928 C 0.92618 0.43278 0.86288 0.0
C929 C 0.89804 0.41743 0.84267 0.0
C930 C 0.8586 0.42351 0.87403 0.0
H931 H 0.78886 0.40988 0.07285 0.0
H932 H 0.81512 0.39943 0.01985 0.0
H933 H 0.83046 0.42853 0.86324 0.0
H934 H 0.92791 0.44482 0.94656 0.0
H935 H 0.89774 0.43587 0.97553 0.0
H936 H 0.87829 0.40931 0.99699 0.0
C937 C 0.80989 0.41274 0.0114 0.0
C938 C 0.84075 0.42389 0.89234 0.0
C939 C 0.79492 0.41878 0.04192 0.0
C940 C 0.91975 0.43708 0.9173 0.0
C941 C 0.90257 0.43178 0.93404 0.0
C942 C 0.86791 0.41315 0.96709 0.0
C943 C 0.81853 0.42412 0.97242 0.0
C944 C 0.8364 0.41953 0.94881 0.0
C945 C 0.89141 0.42221 0.89652 0.0
C946 C 0.87242 0.41886 0.91201 0.0
H947 H 0.79222 0.46105 0.98643 0.0
H948 H 0.81779 0.45039 0.93281 0.0
H949 H 0.84714 0.4101 0.02917 0.0
H950 H 0.91995 0.41918 0.78378 0.0
H951 H 0.88972 0.41003 0.813 0.0
C952 C 0.02429 0.19488 0.87459 0.0
C953 C 0.01266 0.19776 0.92082 0.0
C954 C 0.02514 0.17797 0.84807 0.0
C955 C 0.01708 0.12996 0.87472 0.0
H956 H 0.0115 0.12521 0.71145 0.0
C957 C 0.0234 0.06142 0.75986 0.0
C958 C 0.00937 0.05713 0.72212 0.0
C959 C 0.0252 0.07886 0.78155 0.0
C960 C 0.0131 0.12634 0.75709 0.0
H961 H 0.99323 0.18506 0.9765 0.0
H962 H 0.99494 0.15566 0.9311 0.0
H963 H 0.01235 0.15518 0.75481 0.0
H964 H 0.98658 0.06807 0.67618 0.0
H965 H 0.98991 0.09855 0.71346 0.0
H966 H 0.01774 0.1012 0.8773 0.0
C967 C 1.00326 0.16644 0.91486 0.0
C968 C 0.01373 0.14348 0.78181 0.0
C969 C 1.00218 0.18333 0.94056 0.0
C970 C 0.99749 0.07086 0.70538 0.0
C971 C 0.99946 0.08837 0.72644 0.0
C972 C 0.01674 0.11286 0.84997 0.0
C973 C 0.01468 0.16355 0.8682 0.0
C974 C 0.01547 0.14547 0.84103 0.0
C975 C 0.01319 0.09252 0.7654 0.0
C976 C 0.01452 0.11082 0.79094 0.0
H977 H 0.03252 0.20575 0.8585 0.0
H978 H 0.03413 0.1761 0.81233 0.0
H979 H 0.01853 0.13105 0.92043 0.0
H980 H 0.03278 0.0512 0.77374 0.0
H981 H 0.036 0.08165 0.81114 0.0
C982 C 0.31093 0.99936 0.88834 0.0
C983 C 0.30127 0.01559 0.88503 0.0
C984 C 0.32808 0.99777 0.864 0.0
C985 C 0.3669 0.0257 0.81978 0.0
H986 H 0.38366 0.98174 0.74912 0.0
C987 C 0.44227 0.01322 0.77253 0.0
C988 C 0.44689 0.0047 0.72116 0.0
C989 C 0.42429 0.01451 0.78983 0.0
C990 C 0.37918 0.99418 0.76833 0.0
H991 H 0.30193 0.0426 0.85059 0.0
H992 H 0.33173 0.03984 0.80829 0.0
H993 H 0.35254 0.98397 0.78145 0.0
H994 H 0.43598 0.99076 0.6478 0.0
H995 H 0.40466 0.99306 0.6779 0.0
H996 H 0.39346 0.03597 0.8064 0.0
C997 C 0.32619 0.02841 0.83073 0.0
C998 C 0.36135 0.9954 0.78743 0.0
C999 C 0.30904 0.02998 0.85495 0.0
C1000 C 0.43299 0.99744 0.68763 0.0
C1001 C 0.41499 0.99865 0.70508 0.0
C1002 C 0.38473 0.02446 0.80095 0.0
C1003 C 0.3361 0.01238 0.83572 0.0
C1004 C 0.35495 0.01117 0.8136 0.0
C1005 C 0.41037 0.00725 0.7564 0.0
C1006 C 0.39117 0.00865 0.77519 0.0
H1007 H 0.30558 0.98805 0.91182 0.0
H1008 H 0.33533 0.98528 0.8693 0.0
H1009 H 0.36258 0.038 0.84026 0.0
H1010 H 0.45256 0.01894 0.79963 0.0
H1011 H 0.42133 0.02099 0.82997 0.0
C1012 C 0.50735 0.32112 0.93282 0.0
C1013 C 0.49329 0.3088 0.92423 0.0
C1014 C 0.50704 0.33802 0.90714 0.0
C1015 C 0.47709 0.37109 0.83504 0.0
H1016 H 0.52278 0.3912 0.788 0.0
C1017 C 0.50919 0.43622 0.70484 0.0
C1018 C 0.49794 0.44999 0.72495 0.0
C1019 C 0.50757 0.41868 0.72557 0.0
C1020 C 0.50982 0.38578 0.8 0.0
H1021 H 0.46768 0.30476 0.88247 0.0
H1022 H 0.46731 0.33423 0.836 0.0
H1023 H 0.52179 0.36133 0.82838 0.0
H1024 H 0.47595 0.45598 0.78236 0.0
H1025 H 0.4735 0.42556 0.82001 0.0
H1026 H 0.46508 0.39542 0.8046 0.0
C1027 C 0.4785 0.33088 0.86346 0.0
C1028 C 0.50929 0.36865 0.82425 0.0
C1029 C 0.47872 0.31395 0.88985 0.0
C1030 C 0.4848 0.44569 0.76574 0.0
C1031 C 0.48333 0.42816 0.78712 0.0
C1032 C 0.4776 0.38822 0.81016 0.0
C1033 C 0.49275 0.34312 0.87144 0.0
C1034 C 0.49297 0.36111 0.84286 0.0
C1035 C 0.49482 0.41441 0.76776 0.0
C1036 C 0.49401 0.39589 0.79264 0.0
H1037 H 0.51856 0.31777 0.96023 0.0
H1038 H 0.51801 0.34716 0.91593 0.0
H1039 H 0.46427 0.36586 0.84912 0.0
H1040 H 0.51928 0.43895 0.67287 0.0
H1041 H 0.51638 0.40847 0.70835 0.0
C1042 C 0.19795 0.4766 0.85236 0.0
C1043 C 0.20546 0.49093 0.88339 0.0
C1044 C 0.18085 0.47808 0.8278 0.0
C1045 C 0.14528 0.51087 0.78592 0.0
H1046 H 0.11373 0.46976 0.80232 0.0
C1047 C 0.07344 0.50863 0.68731 0.0
C1048 C 0.05973 0.50099 0.72076 0.0
C1049 C 0.09151 0.50749 0.70413 0.0
C1050 C 0.1223 0.48141 0.79757 0.0
H1051 H 0.20075 0.51828 0.91152 0.0
H1052 H 0.17107 0.5209 0.86848 0.0
H1053 H 0.14461 0.46794 0.83603 0.0
H1054 H 0.05447 0.48614 0.79835 0.0
H1055 H 0.08579 0.48423 0.82757 0.0
H1056 H 0.12277 0.52446 0.74858 0.0
C1057 C 0.17849 0.50852 0.86265 0.0
C1058 C 0.14014 0.48029 0.81631 0.0
C1059 C 0.1956 0.50703 0.8873 0.0
C1060 C 0.0646 0.49215 0.77133 0.0
C1061 C 0.08264 0.49095 0.78798 0.0
C1062 C 0.12743 0.51196 0.76693 0.0
C1063 C 0.17072 0.49396 0.83343 0.0
C1064 C 0.15188 0.49503 0.81112 0.0
C1065 C 0.09638 0.49859 0.75468 0.0
C1066 C 0.11563 0.49729 0.77293 0.0
H1067 H 0.20522 0.46409 0.84754 0.0
H1068 H 0.1755 0.4667 0.80464 0.0
H1069 H 0.15393 0.52244 0.7807 0.0
H1070 H 0.07024 0.51555 0.6481 0.0
H1071 H 0.1017 0.51339 0.67707 0.0
C1072 C 1.00192 0.80837 0.49433 0.0
C1073 C 0.99252 0.80446 0.44386 0.0
C1074 C 1.00124 0.82558 0.51846 0.0
C1075 C 0.99307 0.87275 0.47752 0.0
H1076 H 0.99139 0.88144 0.63998 0.0
C1077 C 0.98651 0.94452 0.56756 0.0
C1078 C 0.99645 0.94898 0.61645 0.0
C1079 C 0.98533 0.92671 0.54888 0.0
C1080 C 0.99207 0.87926 0.5945 0.0
H1081 H 0.97463 0.81563 0.38023 0.0
H1082 H 0.97317 0.84542 0.42275 0.0
H1083 H 0.99014 0.85067 0.60403 0.0
H1084 H 0.01277 0.93795 0.68444 0.0
H1085 H 0.011 0.90695 0.65126 0.0
H1086 H 0.99526 0.90121 0.46771 0.0
C1087 C 0.98126 0.83524 0.44336 0.0
C1088 C 0.99131 0.86159 0.57389 0.0
C1089 C 0.9819 0.81804 0.41938 0.0
C1090 C 0.005 0.93507 0.64659 0.0
C1091 C 0.00389 0.91723 0.62773 0.0
C1092 C 0.99389 0.89037 0.49807 0.0
C1093 C 0.9912 0.83935 0.49258 0.0
C1094 C 0.99174 0.85811 0.51507 0.0
C1095 C 0.99413 0.91281 0.57834 0.0
C1096 C 0.99334 0.89391 0.55684 0.0
H1097 H 0.01012 0.79821 0.51464 0.0
H1098 H 0.00911 0.82826 0.55625 0.0
H1099 H 0.99383 0.87059 0.43204 0.0
H1100 H 0.97961 0.95479 0.54338 0.0
H1101 H 0.9774 0.92385 0.51135 0.0
C1102 C 0.68668 0.98572 0.42264 0.0
C1103 C 0.69963 0.99804 0.44252 0.0
C1104 C 0.66974 0.98447 0.44856 0.0
C1105 C 0.6375 0.01197 0.52695 0.0
H1106 H 0.61411 0.96704 0.56467 0.0
C1107 C 0.56774 0.01125 0.63553 0.0
C1108 C 0.55573 0.99728 0.62233 0.0
C1109 C 0.58562 0.01068 0.6169 0.0
C1110 C 0.62026 0.97974 0.55363 0.0
H1111 H 0.705 0.01785 0.50819 0.0
H1112 H 0.67535 0.01604 0.55186 0.0
H1113 H 0.64459 0.96681 0.52624 0.0
H1114 H 0.55319 0.97182 0.57829 0.0
H1115 H 0.58398 0.97117 0.54377 0.0
H1116 H 0.61316 0.02498 0.55177 0.0
C1117 C 0.67832 0.00747 0.51584 0.0
C1118 C 0.63782 0.97956 0.53189 0.0
C1119 C 0.69533 0.00853 0.49055 0.0
C1120 C 0.56207 0.98276 0.58976 0.0
C1121 C 0.57987 0.98233 0.57024 0.0
C1122 C 0.61987 0.01215 0.54773 0.0
C1123 C 0.66522 0.99566 0.49455 0.0
C1124 C 0.64666 0.99569 0.51848 0.0
C1125 C 0.59196 0.9963 0.58343 0.0
C1126 C 0.61093 0.99604 0.56159 0.0
H1127 H 0.68928 0.97756 0.38543 0.0
H1128 H 0.6599 0.9753 0.43101 0.0
H1129 H 0.64385 0.02462 0.51618 0.0
H1130 H 0.56339 0.02266 0.66047 0.0
H1131 H 0.59447 0.02155 0.62918 0.0
C1132 C 0.50841 0.69812 0.49007 0.0
C1133 C 0.51651 0.70062 0.43659 0.0
C1134 C 0.50911 0.68141 0.51732 0.0
C1135 C 0.53218 0.63688 0.51482 0.0
H1136 H 0.48802 0.62015 0.58448 0.0
C1137 C 0.51946 0.56207 0.56597 0.0
C1138 C 0.51066 0.55775 0.61714 0.0
C1139 C 0.52109 0.57994 0.54834 0.0
C1140 C 0.50054 0.62469 0.56592 0.0
H1141 H 0.53199 0.68746 0.37048 0.0
H1142 H 0.53319 0.65844 0.41768 0.0
H1143 H 0.48967 0.6506 0.54695 0.0
H1144 H 0.49684 0.56904 0.69013 0.0
H1145 H 0.49963 0.6002 0.65917 0.0
H1146 H 0.5429 0.6108 0.53279 0.0
C1147 C 0.52652 0.66944 0.43917 0.0
C1148 C 0.50151 0.6422 0.54445 0.0
C1149 C 0.52587 0.68615 0.41205 0.0
C1150 C 0.50361 0.57181 0.65034 0.0
C1151 C 0.50515 0.5897 0.63251 0.0
C1152 C 0.53118 0.61936 0.5361 0.0
C1153 C 0.51788 0.66674 0.49171 0.0
C1154 C 0.51729 0.64849 0.51805 0.0
C1155 C 0.51391 0.59399 0.58124 0.0
C1156 C 0.51529 0.61296 0.56138 0.0
H1157 H 0.50128 0.70904 0.51052 0.0
H1158 H 0.5026 0.67995 0.55824 0.0
H1159 H 0.54466 0.64133 0.49573 0.0
H1160 H 0.52505 0.55164 0.53917 0.0
H1161 H 0.52769 0.58271 0.50825 0.0
C1162 C 0.81164 0.49892 0.49113 0.0
C1163 C 0.80734 0.50966 0.44373 0.0
C1164 C 0.82853 0.50008 0.51721 0.0
C1165 C 0.87525 0.51589 0.48745 0.0
H1166 H 0.88247 0.50527 0.64723 0.0
C1167 C 0.94427 0.52409 0.59771 0.0
C1168 C 0.95019 0.50957 0.6311 0.0
C1169 C 0.92658 0.52481 0.57762 0.0
C1170 C 0.88066 0.50817 0.60246 0.0
H1171 H 0.81753 0.53073 0.38871 0.0
H1172 H 0.84642 0.53346 0.43591 0.0
H1173 H 0.85202 0.50623 0.60861 0.0
H1174 H 0.94188 0.48462 0.6707 0.0
H1175 H 0.91084 0.48605 0.63629 0.0
H1176 H 0.90391 0.51815 0.48181 0.0
C1177 C 0.83696 0.52362 0.4518 0.0
C1178 C 0.86318 0.50867 0.58013 0.0
C1179 C 0.82015 0.52229 0.42524 0.0
C1180 C 0.9378 0.49597 0.64498 0.0
C1181 C 0.91999 0.49683 0.62551 0.0
C1182 C 0.89267 0.51563 0.50997 0.0
C1183 C 0.84161 0.51222 0.49729 0.0
C1184 C 0.86019 0.51244 0.52212 0.0
C1185 C 0.91424 0.51115 0.59099 0.0
C1186 C 0.89561 0.51168 0.56765 0.0
H1187 H 0.80208 0.48927 0.50756 0.0
H1188 H 0.83148 0.49097 0.5518 0.0
H1189 H 0.8737 0.51841 0.4424 0.0
H1190 H 0.95341 0.5348 0.58604 0.0
H1191 H 0.92253 0.5361 0.55158 0.0
loop_
_geom_bond_atom_site_label_1
_geom_bond_atom_site_label_2
_geom_bond_distance
_geom_bond_site_symmetry_2
_ccdc_geom_bond_type
C0 C1 1.386 . S
C0 C2 1.397 . S
C0 H24 0.931 . S
C1 C0 1.386 . S
C1 C5 1.397 . S
C2 C0 1.397 . S
C2 C3 1.384 . S
C2 H25 0.930 . S
C3 C2 1.384 . S
C3 C4 1.377 . S
C3 C6 1.481 . S
C4 C3 1.377 . S
C4 C5 1.389 . S
C4 H26 0.929 . S
C5 C1 1.397 . S
C5 C4 1.389 . S
C5 H27 0.931 . S
C6 C3 1.481 . S
C6 C7 1.387 . S
C6 C11 1.390 . S
C7 C6 1.387 . S
C7 C8 1.401 . S
C7 H28 0.930 . S
C8 C7 1.401 . S
C8 C9 1.376 . S
C8 C17 1.511 . S
C9 C8 1.376 . S
C9 C10 1.392 . S
C9 H30 0.931 . S
C10 C9 1.392 . S
C10 C11 1.361 . S
C10 C12 1.500 . S
C11 C6 1.390 . S
C11 C10 1.361 . S
C11 H29 0.931 . S
C12 C10 1.500 . S
C12 C13 1.371 . S
C12 C14 1.365 . S
C13 C12 1.371 . S
C13 C23 1.386 . S
C13 H31 0.931 . S
C14 C12 1.365 . S
C14 C15 1.409 . S
C14 H32 0.929 . S
C15 C14 1.409 . S
C15 C16 1.380 . S
C15 H33 0.930 . S
C16 C15 1.380 . S
C16 C23 1.357 . S
C17 C8 1.511 . S
C17 C18 1.341 . S
C17 C19 1.371 . S
C18 C17 1.341 . S
C18 C22 1.394 . S
C18 H34 0.930 . S
C19 C17 1.371 . S
C19 C20 1.392 . S
C19 H35 0.931 . S
C20 C19 1.392 . S
C20 C21 1.331 . S
C20 H38 0.932 . S
C21 C20 1.331 . S
C21 C22 1.336 . S
C22 C18 1.394 . S
C22 C21 1.336 . S
C22 H37 0.929 . S
C23 C13 1.386 . S
C23 C16 1.357 . S
C23 H36 0.928 . S
H24 C0 0.931 . S
H25 C2 0.930 . S
H26 C4 0.929 . S
H27 C5 0.931 . S
H28 C7 0.930 . S
H29 C11 0.931 . S
H30 C9 0.931 . S
H31 C13 0.931 . S
H32 C14 0.929 . S
H33 C15 0.930 . S
H34 C18 0.930 . S
H35 C19 0.931 . S
H36 C23 0.928 . S
H37 C22 0.929 . S
H38 C20 0.932 . S
C39 C40 1.394 . S
C39 C41 1.397 . S
C39 H63 0.931 . S
C40 C39 1.394 . S
C40 C44 1.389 1_655 S
C41 C39 1.397 . S
C41 C42 1.389 . S
C41 H64 0.930 . S
C42 C41 1.389 . S
C42 C43 1.373 1_655 S
C42 C45 1.480 . S
C43 C42 1.373 1_455 S
C43 C44 1.389 . S
C43 H65 0.929 . S
C44 C40 1.389 1_455 S
C44 C43 1.389 . S
C44 H66 0.931 . S
C45 C42 1.480 . S
C45 C46 1.388 . S
C45 C50 1.390 . S
C46 C45 1.388 . S
C46 C47 1.402 . S
C46 H67 0.930 . S
C47 C46 1.402 . S
C47 C48 1.376 . S
C47 C56 1.513 . S
C48 C47 1.376 . S
C48 C49 1.392 . S
C48 H69 0.934 . S
C49 C48 1.392 . S
C49 C50 1.361 . S
C49 C51 1.499 1_655 S
C50 C45 1.390 . S
C50 C49 1.361 . S
C50 H68 0.931 . S
C51 C49 1.499 1_455 S
C51 C52 1.364 1_455 S
C51 C53 1.373 . S
C52 C51 1.364 1_655 S
C52 C62 1.386 . S
C52 H70 0.931 . S
C53 C51 1.373 . S
C53 C54 1.409 . S
C53 H71 0.929 . S
C54 C53 1.409 . S
C54 C55 1.378 . S
C54 H72 0.930 . S
C55 C54 1.378 . S
C55 C62 1.360 1_455 S
C56 C47 1.513 . S
C56 C57 1.341 . S
C56 C58 1.371 1_655 S
C57 C56 1.341 . S
C57 C61 1.394 . S
C57 H73 0.930 . S
C58 C56 1.371 1_455 S
C58 C59 1.392 . S
C58 H74 0.931 . S
C59 C58 1.392 . S
C59 C60 1.322 1_455 S
C59 H77 0.932 . S
C60 C59 1.322 1_655 S
C60 C61 1.345 . S
C61 C57 1.394 . S
C61 C60 1.345 . S
C61 H76 0.929 . S
C62 C52 1.386 . S
C62 C55 1.360 1_655 S
C62 H75 0.928 . S
H63 C39 0.931 . S
H64 C41 0.930 . S
H65 C43 0.929 . S
H66 C44 0.931 . S
H67 C46 0.930 . S
H68 C50 0.931 . S
H69 C48 0.934 . S
H70 C52 0.931 . S
H71 C53 0.929 . S
H72 C54 0.930 . S
H73 C57 0.930 . S
H74 C58 0.931 . S
H75 C62 0.928 . S
H76 C61 0.929 . S
H77 C59 0.932 . S
C78 C79 1.394 . S
C78 C80 1.397 . S
C78 H102 0.931 . S
C79 C78 1.394 . S
C79 C83 1.389 1_565 S
C80 C78 1.397 . S
C80 C81 1.389 . S
C80 H103 0.930 . S
C81 C80 1.389 . S
C81 C82 1.373 1_565 S
C81 C84 1.480 . S
C82 C81 1.373 1_545 S
C82 C83 1.389 . S
C82 H104 0.929 . S
C83 C79 1.389 1_545 S
C83 C82 1.389 . S
C83 H105 0.931 . S
C84 C81 1.480 . S
C84 C85 1.388 . S
C84 C89 1.390 . S
C85 C84 1.388 . S
C85 C86 1.402 . S
C85 H106 0.930 . S
C86 C85 1.402 . S
C86 C87 1.376 . S
C86 C95 1.513 . S
C87 C86 1.376 . S
C87 C88 1.392 . S
C87 H108 0.934 . S
C88 C87 1.392 . S
C88 C89 1.361 . S
C88 C90 1.499 1_565 S
C89 C84 1.390 . S
C89 C88 1.361 . S
C89 H107 0.931 . S
C90 C88 1.499 1_545 S
C90 C91 1.364 1_545 S
C90 C92 1.373 . S
C91 C90 1.364 1_565 S
C91 C101 1.386 . S
C91 H109 0.931 . S
C92 C90 1.373 . S
C92 C93 1.409 . S
C92 H110 0.929 . S
C93 C92 1.409 . S
C93 C94 1.378 . S
C93 H111 0.930 . S
C94 C93 1.378 . S
C94 C101 1.360 1_545 S
C95 C86 1.513 . S
C95 C96 1.341 . S
C95 C97 1.371 1_565 S
C96 C95 1.341 . S
C96 C100 1.394 . S
C96 H112 0.930 . S
C97 C95 1.371 1_545 S
C97 C98 1.392 . S
C97 H113 0.931 . S
C98 C97 1.392 . S
C98 C99 1.322 1_545 S
C98 H116 0.932 . S
C99 C98 1.322 1_565 S
C99 C100 1.345 . S
C100 C96 1.394 . S
C100 C99 1.345 . S
C100 H115 0.929 . S
C101 C91 1.386 . S
C101 C94 1.360 1_565 S
C101 H114 0.928 . S
H102 C78 0.931 . S
H103 C80 0.930 . S
H104 C82 0.929 . S
H105 C83 0.931 . S
H106 C85 0.930 . S
H107 C89 0.931 . S
H108 C87 0.934 . S
H109 C91 0.931 . S
H110 C92 0.929 . S
H111 C93 0.930 . S
H112 C96 0.930 . S
H113 C97 0.931 . S
H114 C101 0.928 . S
H115 C100 0.929 . S
H116 C98 0.932 . S
C117 C118 1.386 . S
C117 C119 1.397 . S
C117 H141 0.931 . S
C118 C117 1.386 . S
C118 C122 1.397 . S
C119 C117 1.397 . S
C119 C120 1.384 . S
C119 H142 0.930 . S
C120 C119 1.384 . S
C120 C121 1.377 . S
C120 C123 1.481 . S
C121 C120 1.377 . S
C121 C122 1.389 . S
C121 H143 0.929 . S
C122 C118 1.397 . S
C122 C121 1.389 . S
C122 H144 0.931 . S
C123 C120 1.481 . S
C123 C124 1.387 . S
C123 C128 1.390 . S
C124 C123 1.387 . S
C124 C125 1.401 . S
C124 H145 0.930 . S
C125 C124 1.401 . S
C125 C126 1.376 . S
C125 C134 1.511 . S
C126 C125 1.376 . S
C126 C127 1.392 . S
C126 H147 0.931 . S
C127 C126 1.392 . S
C127 C128 1.361 . S
C127 C129 1.500 . S
C128 C123 1.390 . S
C128 C127 1.361 . S
C128 H146 0.931 . S
C129 C127 1.500 . S
C129 C130 1.371 . S
C129 C131 1.365 . S
C130 C129 1.371 . S
C130 C140 1.386 . S
C130 H148 0.931 . S
C131 C129 1.365 . S
C131 C132 1.409 . S
C131 H149 0.929 . S
C132 C131 1.409 . S
C132 C133 1.380 . S
C132 H150 0.930 . S
C133 C132 1.380 . S
C133 C140 1.357 . S
C134 C125 1.511 . S
C134 C135 1.341 . S
C134 C136 1.371 . S
C135 C134 1.341 . S
C135 C139 1.394 . S
C135 H151 0.930 . S
C136 C134 1.371 . S
C136 C137 1.392 . S
C136 H152 0.931 . S
C137 C136 1.392 . S
C137 C138 1.331 . S
C137 H155 0.932 . S
C138 C137 1.331 . S
C138 C139 1.336 . S
C139 C135 1.394 . S
C139 C138 1.336 . S
C139 H154 0.929 . S
C140 C130 1.386 . S
C140 C133 1.357 . S
C140 H153 0.928 . S
H141 C117 0.931 . S
H142 C119 0.930 . S
H143 C121 0.929 . S
H144 C122 0.931 . S
H145 C124 0.930 . S
H146 C128 0.931 . S
H147 C126 0.931 . S
H148 C130 0.931 . S
H149 C131 0.929 . S
H150 C132 0.930 . S
H151 C135 0.930 . S
H152 C136 0.931 . S
H153 C140 0.928 . S
H154 C139 0.929 . S
H155 C137 0.932 . S
C156 C157 1.386 . S
C156 C158 1.397 . S
C156 H180 0.931 . S
C157 C156 1.386 . S
C157 C161 1.397 . S
C158 C156 1.397 . S
C158 C159 1.384 . S
C158 H181 0.930 . S
C159 C158 1.384 . S
C159 C160 1.377 . S
C159 C162 1.481 . S
C160 C159 1.377 . S
C160 C161 1.389 . S
C160 H182 0.929 . S
C161 C157 1.397 . S
C161 C160 1.389 . S
C161 H183 0.931 . S
C162 C159 1.481 . S
C162 C163 1.387 . S
C162 C167 1.390 . S
C163 C162 1.387 . S
C163 C164 1.401 . S
C163 H184 0.930 . S
C164 C163 1.401 . S
C164 C165 1.376 . S
C164 C173 1.511 . S
C165 C164 1.376 . S
C165 C166 1.392 1_554 S
C165 H186 0.931 1_554 S
C166 C165 1.392 1_556 S
C166 C167 1.361 1_556 S
C166 C168 1.500 . S
C167 C162 1.390 . S
C167 C166 1.361 1_554 S
C167 H185 0.931 . S
C168 C166 1.500 . S
C168 C169 1.371 . S
C168 C170 1.365 . S
C169 C168 1.371 . S
C169 C179 1.386 . S
C169 H187 0.931 . S
C170 C168 1.365 . S
C170 C171 1.409 . S
C170 H188 0.929 . S
C171 C170 1.409 . S
C171 C172 1.380 . S
C171 H189 0.930 . S
C172 C171 1.380 . S
C172 C179 1.357 . S
C173 C164 1.511 . S
C173 C174 1.341 . S
C173 C175 1.371 . S
C174 C173 1.341 . S
C174 C178 1.394 . S
C174 H190 0.930 . S
C175 C173 1.371 . S
C175 C176 1.392 . S
C175 H191 0.921 1_554 S
C176 C175 1.392 . S
C176 C177 1.331 . S
C176 H194 0.932 . S
C177 C176 1.331 . S
C177 C178 1.336 . S
C178 C174 1.394 . S
C178 C177 1.336 . S
C178 H193 0.929 . S
C179 C169 1.386 . S
C179 C172 1.357 . S
C179 H192 0.928 . S
H180 C156 0.931 . S
H181 C158 0.930 . S
H182 C160 0.929 . S
H183 C161 0.931 . S
H184 C163 0.930 . S
H185 C167 0.931 . S
H186 C165 0.931 1_556 S
H187 C169 0.931 . S
H188 C170 0.929 . S
H189 C171 0.930 . S
H190 C174 0.930 . S
H191 C175 0.921 1_556 S
H192 C179 0.928 . S
H193 C178 0.929 . S
H194 C176 0.932 . S
C195 C196 1.386 . S
C195 C197 1.397 . S
C195 H219 0.931 . S
C196 C195 1.386 . S
C196 C200 1.398 1_655 S
C197 C195 1.397 . S
C197 C198 1.389 1_655 S
C197 H220 0.930 . S
C198 C197 1.389 1_455 S
C198 C199 1.373 . S
C198 C201 1.480 1_455 S
C199 C198 1.373 . S
C199 C200 1.389 . S
C199 H221 0.929 . S
C200 C196 1.398 1_455 S
C200 C199 1.389 . S
C200 H222 0.931 . S
C201 C198 1.480 1_655 S
C201 C202 1.386 . S
C201 C206 1.390 . S
C202 C201 1.386 . S
C202 C203 1.400 . S
C202 H223 0.935 . S
C203 C202 1.400 . S
C203 C204 1.376 . S
C203 C212 1.512 . S
C204 C203 1.376 . S
C204 C205 1.392 1_654 S
C204 H225 0.933 1_554 S
C205 C204 1.392 1_456 S
C205 C206 1.361 1_456 S
C205 C207 1.499 . S
C206 C201 1.390 . S
C206 C205 1.361 1_654 S
C206 H224 0.931 1_655 S
C207 C205 1.499 . S
C207 C208 1.357 1_455 S
C207 C209 1.380 . S
C208 C207 1.357 1_655 S
C208 C218 1.386 . S
C208 H226 0.931 . S
C209 C207 1.380 . S
C209 C210 1.409 . S
C209 H227 0.929 . S
C210 C209 1.409 . S
C210 C211 1.384 . S
C210 H228 0.930 . S
C211 C210 1.384 . S
C211 C218 1.353 1_455 S
C212 C203 1.512 . S
C212 C213 1.341 . S
C212 C214 1.371 1_655 S
C213 C212 1.341 . S
C213 C217 1.394 . S
C213 H229 0.930 . S
C214 C212 1.371 1_455 S
C214 C215 1.392 . S
C214 H230 0.921 1_554 S
C215 C214 1.392 . S
C215 C216 1.326 1_455 S
C215 H233 0.932 . S
C216 C215 1.326 1_655 S
C216 C217 1.341 . S
C217 C213 1.394 . S
C217 C216 1.341 . S
C217 H232 0.929 . S
C218 C208 1.386 . S
C218 C211 1.353 1_655 S
C218 H231 0.928 . S
H219 C195 0.931 . S
H220 C197 0.930 . S
H221 C199 0.929 . S
H222 C200 0.931 . S
H223 C202 0.935 . S
H224 C206 0.931 1_455 S
H225 C204 0.933 1_556 S
H226 C208 0.931 . S
H227 C209 0.929 . S
H228 C210 0.930 . S
H229 C213 0.930 . S
H230 C214 0.921 1_556 S
H231 C218 0.928 . S
H232 C217 0.929 . S
H233 C215 0.932 . S
C234 C235 1.386 . S
C234 C236 1.397 . S
C234 H258 0.931 . S
C235 C234 1.386 . S
C235 C239 1.398 1_565 S
C236 C234 1.397 . S
C236 C237 1.389 1_565 S
C236 H259 0.930 . S
C237 C236 1.389 1_545 S
C237 C238 1.373 . S
C237 C240 1.480 1_545 S
C238 C237 1.373 . S
C238 C239 1.389 . S
C238 H260 0.929 . S
C239 C235 1.398 1_545 S
C239 C238 1.389 . S
C239 H261 0.931 . S
C240 C237 1.480 1_565 S
C240 C241 1.386 . S
C240 C245 1.390 . S
C241 C240 1.386 . S
C241 C242 1.400 . S
C241 H262 0.935 . S
C242 C241 1.400 . S
C242 C243 1.376 . S
C242 C251 1.512 . S
C243 C242 1.376 . S
C243 C244 1.392 1_564 S
C243 H264 0.933 1_554 S
C244 C243 1.392 1_546 S
C244 C245 1.361 1_546 S
C244 C246 1.499 . S
C245 C240 1.390 . S
C245 C244 1.361 1_564 S
C245 H263 0.931 1_565 S
C246 C244 1.499 . S
C246 C247 1.357 1_545 S
C246 C248 1.380 . S
C247 C246 1.357 1_565 S
C247 C257 1.386 . S
C247 H265 0.931 . S
C248 C246 1.380 . S
C248 C249 1.409 . S
C248 H266 0.929 . S
C249 C248 1.409 . S
C249 C250 1.384 . S
C249 H267 0.930 . S
C250 C249 1.384 . S
C250 C257 1.353 1_545 S
C251 C242 1.512 . S
C251 C252 1.341 . S
C251 C253 1.371 1_565 S
C252 C251 1.341 . S
C252 C256 1.394 . S
C252 H268 0.930 . S
C253 C251 1.371 1_545 S
C253 C254 1.392 . S
C253 H269 0.923 1_554 S
C254 C253 1.392 . S
C254 C255 1.326 1_545 S
C254 H272 0.932 . S
C255 C254 1.326 1_565 S
C255 C256 1.341 . S
C256 C252 1.394 . S
C256 C255 1.341 . S
C256 H271 0.929 . S
C257 C247 1.386 . S
C257 C250 1.353 1_565 S
C257 H270 0.928 . S
H258 C234 0.931 . S
H259 C236 0.930 . S
H260 C238 0.929 . S
H261 C239 0.931 . S
H262 C241 0.935 . S
H263 C245 0.931 1_545 S
H264 C243 0.933 1_556 S
H265 C247 0.931 . S
H266 C248 0.929 . S
H267 C249 0.930 . S
H268 C252 0.930 . S
H269 C253 0.923 1_556 S
H270 C257 0.928 . S
H271 C256 0.929 . S
H272 C254 0.932 . S
C273 C274 1.386 . S
C273 C275 1.397 . S
C273 H297 0.931 . S
C274 C273 1.386 . S
C274 C278 1.397 . S
C275 C273 1.397 . S
C275 C276 1.384 . S
C275 H298 0.930 . S
C276 C275 1.384 . S
C276 C277 1.377 . S
C276 C279 1.481 . S
C277 C276 1.377 . S
C277 C278 1.389 . S
C277 H299 0.929 . S
C278 C274 1.397 . S
C278 C277 1.389 . S
C278 H300 0.931 . S
C279 C276 1.481 . S
C279 C280 1.387 1_556 S
C279 C284 1.390 1_556 S
C280 C279 1.387 1_554 S
C280 C281 1.401 . S
C280 H301 0.930 1_554 S
C281 C280 1.401 . S
C281 C282 1.376 . S
C281 C290 1.511 . S
C282 C281 1.376 . S
C282 C283 1.392 . S
C282 H303 0.931 . S
C283 C282 1.392 . S
C283 C284 1.361 . S
C283 C285 1.500 . S
C284 C279 1.390 1_554 S
C284 C283 1.361 . S
C284 H302 0.931 . S
C285 C283 1.500 . S
C285 C286 1.371 . S
C285 C287 1.365 . S
C286 C285 1.371 . S
C286 C296 1.386 . S
C286 H304 0.931 . S
C287 C285 1.365 . S
C287 C288 1.409 . S
C287 H305 0.929 . S
C288 C287 1.409 . S
C288 C289 1.380 . S
C288 H306 0.930 . S
C289 C288 1.380 . S
C289 C296 1.357 . S
C290 C281 1.511 . S
C290 C291 1.341 . S
C290 C292 1.371 . S
C291 C290 1.341 . S
C291 C295 1.394 . S
C291 H307 0.930 . S
C292 C290 1.371 . S
C292 C293 1.392 . S
C292 H308 0.931 . S
C293 C292 1.392 . S
C293 C294 1.331 . S
C293 H311 0.932 . S
C294 C293 1.331 . S
C294 C295 1.336 . S
C295 C291 1.394 . S
C295 C294 1.336 . S
C295 H310 0.929 . S
C296 C286 1.386 . S
C296 C289 1.357 . S
C296 H309 0.928 . S
H297 C273 0.931 . S
H298 C275 0.930 . S
H299 C277 0.929 . S
H300 C278 0.931 . S
H301 C280 0.930 1_556 S
H302 C284 0.931 . S
H303 C282 0.931 . S
H304 C286 0.931 . S
H305 C287 0.929 . S
H306 C288 0.930 . S
H307 C291 0.930 . S
H308 C292 0.931 . S
H309 C296 0.928 . S
H310 C295 0.929 . S
H311 C293 0.932 . S
Tb312 C322 2.825 . S
Tb312 O323 2.347 1_455 S
Tb312 O326 2.366 . S
Tb312 O331 2.418 . S
Tb312 O332 2.384 1_565 S
Tb312 O335 2.479 . S
Tb312 O336 2.471 . S
Eu313 O324 2.418 . S
Eu313 O325 2.384 1_545 S
Eu313 O328 2.479 . S
Eu313 O329 2.471 . S
Eu313 O330 2.347 1_655 S
Eu313 O333 2.366 . S
Eu313 C343 2.825 . S
C314 O330 1.259 1_565 S
C314 O331 1.265 . S
C315 O332 1.255 . S
C315 O333 1.265 1_455 S
C316 C318 1.380 . S
C316 C319 1.374 . S
C316 C322 1.507 . S
C317 C318 1.384 . S
C317 C321 1.387 . S
C317 H344 0.930 . S
C318 C316 1.380 . S
C318 C317 1.384 . S
C318 H345 0.931 . S
C319 C316 1.374 . S
C319 C320 1.390 . S
C319 H346 0.930 1_455 S
C320 C319 1.390 . S
C320 C321 1.391 . S
C320 H347 0.930 1_455 S
C321 C317 1.387 . S
C321 C320 1.391 . S
C322 Tb312 2.825 . S
C322 C316 1.507 . S
C322 O335 1.238 . S
C322 O336 1.247 . S
O323 Tb312 2.347 1_655 S
O323 C327 1.259 1_565 S
O324 Eu313 2.418 . S
O324 C327 1.265 . S
O325 Eu313 2.384 1_565 S
O325 C334 1.255 . S
O326 Tb312 2.366 . S
O326 C334 1.265 1_455 S
C327 O323 1.259 1_545 S
C327 O324 1.265 . S
O328 Eu313 2.479 . S
O328 C343 1.238 . S
O329 Eu313 2.471 . S
O329 C343 1.247 . S
O330 Eu313 2.347 1_455 S
O330 C314 1.259 1_545 S
O331 Tb312 2.418 . S
O331 C314 1.265 . S
O332 Tb312 2.384 1_545 S
O332 C315 1.255 . S
O333 Eu313 2.366 . S
O333 C315 1.265 1_655 S
C334 O325 1.255 . S
C334 O326 1.265 1_655 S
O335 Tb312 2.479 . S
O335 C322 1.238 . S
O336 Tb312 2.471 . S
O336 C322 1.247 . S
C337 C340 1.380 . S
C337 C341 1.374 . S
C337 C343 1.507 . S
C338 C339 1.387 . S
C338 C342 1.391 . S
C339 C338 1.387 . S
C339 C340 1.384 . S
C339 H348 0.930 . S
C340 C337 1.380 . S
C340 C339 1.384 . S
C340 H349 0.931 . S
C341 C337 1.374 . S
C341 C342 1.390 . S
C341 H350 0.930 1_655 S
C342 C338 1.391 . S
C342 C341 1.390 . S
C342 H351 0.930 1_655 S
C343 Eu313 2.825 . S
C343 O328 1.238 . S
C343 O329 1.247 . S
C343 C337 1.507 . S
H344 C317 0.930 . S
H345 C318 0.931 . S
H346 C319 0.930 1_655 S
H347 C320 0.930 1_655 S
H348 C339 0.930 . S
H349 C340 0.931 . S
H350 C341 0.930 1_455 S
H351 C342 0.930 1_455 S
Tb352 C362 2.825 . S
Tb352 O363 2.347 1_545 S
Tb352 O366 2.366 . S
Tb352 O371 2.418 . S
Tb352 O372 2.384 . S
Tb352 O375 2.479 . S
Tb352 O376 2.471 . S
Eu353 O364 2.418 . S
Eu353 O365 2.384 . S
Eu353 O368 2.479 . S
Eu353 O369 2.471 . S
Eu353 O370 2.347 1_565 S
Eu353 O373 2.366 . S
Eu353 C383 2.825 . S
C354 O370 1.259 . S
C354 O371 1.265 . S
C355 O372 1.255 . S
C355 O373 1.265 1_545 S
C356 C358 1.380 . S
C356 C359 1.374 . S
C356 C362 1.507 . S
C357 C358 1.384 . S
C357 C361 1.387 . S
C357 H384 0.930 . S
C358 C356 1.380 . S
C358 C357 1.384 . S
C358 H385 0.931 . S
C359 C356 1.374 . S
C359 C360 1.390 . S
C359 H386 0.930 1_545 S
C360 C359 1.390 . S
C360 C361 1.391 . S
C360 H387 0.930 1_545 S
C361 C357 1.387 . S
C361 C360 1.391 . S
C362 Tb352 2.825 . S
C362 C356 1.507 . S
C362 O375 1.238 . S
C362 O376 1.247 . S
O363 Tb352 2.347 1_565 S
O363 C367 1.259 . S
O364 Eu353 2.418 . S
O364 C367 1.265 . S
O365 Eu353 2.384 . S
O365 C374 1.255 . S
O366 Tb352 2.366 . S
O366 C374 1.265 1_545 S
C367 O363 1.259 . S
C367 O364 1.265 . S
O368 Eu353 2.479 . S
O368 C383 1.238 . S
O369 Eu353 2.471 . S
O369 C383 1.247 . S
O370 Eu353 2.347 1_545 S
O370 C354 1.259 . S
O371 Tb352 2.418 . S
O371 C354 1.265 . S
O372 Tb352 2.384 . S
O372 C355 1.255 . S
O373 Eu353 2.366 . S
O373 C355 1.265 1_565 S
C374 O365 1.255 . S
C374 O366 1.265 1_565 S
O375 Tb352 2.479 . S
O375 C362 1.238 . S
O376 Tb352 2.471 . S
O376 C362 1.247 . S
C377 C380 1.380 . S
C377 C381 1.374 . S
C377 C383 1.507 . S
C378 C379 1.387 . S
C378 C382 1.391 . S
C379 C378 1.387 . S
C379 C380 1.384 . S
C379 H388 0.930 . S
C380 C377 1.380 . S
C380 C379 1.384 . S
C380 H389 0.931 . S
C381 C377 1.374 . S
C381 C382 1.390 . S
C381 H390 0.930 1_565 S
C382 C378 1.391 . S
C382 C381 1.390 . S
C382 H391 0.930 1_565 S
C383 Eu353 2.825 . S
C383 O368 1.238 . S
C383 O369 1.247 . S
C383 C377 1.507 . S
H384 C357 0.930 . S
H385 C358 0.931 . S
H386 C359 0.930 1_565 S
H387 C360 0.930 1_565 S
H388 C379 0.930 . S
H389 C380 0.931 . S
H390 C381 0.930 1_545 S
H391 C382 0.930 1_545 S
Tb392 C402 2.825 . S
Tb392 O403 2.347 . S
Tb392 O406 2.366 . S
Tb392 O411 2.418 . S
Tb392 O412 2.384 . S
Tb392 O415 2.479 . S
Tb392 O416 2.471 . S
Eu393 O404 2.418 . S
Eu393 O405 2.384 . S
Eu393 O408 2.479 . S
Eu393 O409 2.471 . S
Eu393 O410 2.347 . S
Eu393 O413 2.366 . S
Eu393 C423 2.825 . S
C394 O410 1.259 . S
C394 O411 1.265 . S
C395 O412 1.255 . S
C395 O413 1.265 . S
C396 C398 1.380 . S
C396 C399 1.374 . S
C396 C402 1.507 . S
C397 C398 1.384 . S
C397 C401 1.387 . S
C397 H424 0.930 . S
C398 C396 1.380 . S
C398 C397 1.384 . S
C398 H425 0.931 . S
C399 C396 1.374 . S
C399 C400 1.390 . S
C399 H426 0.930 . S
C400 C399 1.390 . S
C400 C401 1.391 . S
C400 H427 0.930 . S
C401 C397 1.387 . S
C401 C400 1.391 . S
C402 Tb392 2.825 . S
C402 C396 1.507 . S
C402 O415 1.238 . S
C402 O416 1.247 . S
O403 Tb392 2.347 . S
O403 C407 1.259 . S
O404 Eu393 2.418 . S
O404 C407 1.265 . S
O405 Eu393 2.384 . S
O405 C414 1.255 . S
O406 Tb392 2.366 . S
O406 C414 1.265 . S
C407 O403 1.259 . S
C407 O404 1.265 . S
O408 Eu393 2.479 . S
O408 C423 1.238 . S
O409 Eu393 2.471 . S
O409 C423 1.247 . S
O410 Eu393 2.347 . S
O410 C394 1.259 . S
O411 Tb392 2.418 . S
O411 C394 1.265 . S
O412 Tb392 2.384 . S
O412 C395 1.255 . S
O413 Eu393 2.366 . S
O413 C395 1.265 . S
C414 O405 1.255 . S
C414 O406 1.265 . S
O415 Tb392 2.479 . S
O415 C402 1.238 . S
O416 Tb392 2.471 . S
O416 C402 1.247 . S
C417 C420 1.380 . S
C417 C421 1.374 . S
C417 C423 1.507 . S
C418 C419 1.387 . S
C418 C422 1.391 . S
C419 C418 1.387 . S
C419 C420 1.384 . S
C419 H428 0.930 . S
C420 C417 1.380 . S
C420 C419 1.384 . S
C420 H429 0.931 . S
C421 C417 1.374 . S
C421 C422 1.390 . S
C421 H430 0.930 . S
C422 C418 1.391 . S
C422 C421 1.390 . S
C422 H431 0.930 . S
C423 Eu393 2.825 . S
C423 O408 1.238 . S
C423 O409 1.247 . S
C423 C417 1.507 . S
H424 C397 0.930 . S
H425 C398 0.931 . S
H426 C399 0.930 . S
H427 C400 0.930 . S
H428 C419 0.930 . S
H429 C420 0.931 . S
H430 C421 0.930 . S
H431 C422 0.930 . S
Tb432 C442 2.825 . S
Tb432 O443 2.347 . S
Tb432 O446 2.366 . S
Tb432 O451 2.418 . S
Tb432 O452 2.384 1_655 S
Tb432 O455 2.479 . S
Tb432 O456 2.471 . S
Eu433 O444 2.418 . S
Eu433 O445 2.384 1_455 S
Eu433 O448 2.479 . S
Eu433 O449 2.471 . S
Eu433 O450 2.347 . S
Eu433 O453 2.366 . S
Eu433 C463 2.825 . S
C434 O450 1.259 1_655 S
C434 O451 1.265 . S
C435 O452 1.255 . S
C435 O453 1.265 . S
C436 C438 1.380 . S
C436 C439 1.374 . S
C436 C442 1.507 . S
C437 C438 1.384 . S
C437 C441 1.387 . S
C437 H464 0.930 . S
C438 C436 1.380 . S
C438 C437 1.384 . S
C438 H465 0.931 . S
C439 C436 1.374 . S
C439 C440 1.390 . S
C439 H466 0.930 . S
C440 C439 1.390 . S
C440 C441 1.391 . S
C440 H467 0.930 . S
C441 C437 1.387 . S
C441 C440 1.391 . S
C442 Tb432 2.825 . S
C442 C436 1.507 . S
C442 O455 1.238 . S
C442 O456 1.247 . S
O443 Tb432 2.347 . S
O443 C447 1.259 1_655 S
O444 Eu433 2.418 . S
O444 C447 1.265 . S
O445 Eu433 2.384 1_655 S
O445 C454 1.255 . S
O446 Tb432 2.366 . S
O446 C454 1.265 . S
C447 O443 1.259 1_455 S
C447 O444 1.265 . S
O448 Eu433 2.479 . S
O448 C463 1.238 . S
O449 Eu433 2.471 . S
O449 C463 1.247 . S
O450 Eu433 2.347 . S
O450 C434 1.259 1_455 S
O451 Tb432 2.418 . S
O451 C434 1.265 . S
O452 Tb432 2.384 1_455 S
O452 C435 1.255 . S
O453 Eu433 2.366 . S
O453 C435 1.265 . S
C454 O445 1.255 . S
C454 O446 1.265 . S
O455 Tb432 2.479 . S
O455 C442 1.238 . S
O456 Tb432 2.471 . S
O456 C442 1.247 . S
C457 C460 1.380 . S
C457 C461 1.374 . S
C457 C463 1.507 . S
C458 C459 1.387 . S
C458 C462 1.391 . S
C459 C458 1.387 . S
C459 C460 1.384 . S
C459 H468 0.930 . S
C460 C457 1.380 . S
C460 C459 1.384 . S
C460 H469 0.931 . S
C461 C457 1.374 . S
C461 C462 1.390 . S
C461 H470 0.930 . S
C462 C458 1.391 . S
C462 C461 1.390 . S
C462 H471 0.930 . S
C463 Eu433 2.825 . S
C463 O448 1.238 . S
C463 O449 1.247 . S
C463 C457 1.507 . S
H464 C437 0.930 . S
H465 C438 0.931 . S
H466 C439 0.930 . S
H467 C440 0.930 . S
H468 C459 0.930 . S
H469 C460 0.931 . S
H470 C461 0.930 . S
H471 C462 0.930 . S
C472 C473 1.346 1_565 S
C472 C474 1.327 . S
C472 H497 0.950 . S
C473 C472 1.346 1_545 S
C473 C489 1.352 . S
C474 C472 1.327 . S
C474 C493 1.418 1_565 S
C474 H498 0.950 . S
C475 C492 1.574 . S
C475 C494 1.384 . S
C475 H499 0.949 . S
H476 C480 0.949 . S
C477 C478 1.381 . S
C477 C479 1.327 . S
C477 H500 0.950 . S
C478 C477 1.381 . S
C478 C490 1.317 1_545 S
C479 C477 1.327 . S
C479 C495 1.453 . S
C479 H501 0.950 . S
C480 H476 0.949 . S
C480 C488 1.574 . S
C480 C496 1.346 1_565 S
H481 C489 0.950 . S
H482 C487 0.950 . S
H483 C488 0.949 . S
H484 C490 0.950 . S
H485 C491 0.950 . S
H486 C492 0.949 . S
C487 H482 0.950 . S
C487 C489 1.327 . S
C487 C493 1.439 . S
C488 C480 1.574 . S
C488 H483 0.949 . S
C488 C494 1.353 1_565 S
C489 C473 1.352 . S
C489 H481 0.950 . S
C489 C487 1.327 . S
C490 C478 1.317 1_565 S
C490 H484 0.950 . S
C490 C491 1.327 . S
C491 H485 0.950 . S
C491 C490 1.327 . S
C491 C495 1.405 1_565 S
C492 C475 1.574 . S
C492 H486 0.949 . S
C492 C496 1.391 . S
C493 C474 1.418 1_545 S
C493 C487 1.439 . S
C493 C494 1.523 . S
C494 C475 1.384 . S
C494 C488 1.353 1_545 S
C494 C493 1.523 . S
C495 C479 1.453 . S
C495 C491 1.405 1_545 S
C495 C496 1.523 . S
C496 C480 1.346 1_545 S
C496 C492 1.391 . S
C496 C495 1.523 . S
H497 C472 0.950 . S
H498 C474 0.950 . S
H499 C475 0.949 . S
H500 C477 0.950 . S
H501 C479 0.950 . S
C502 C503 1.349 . S
C502 C504 1.327 . S
C502 H527 0.950 . S
C503 C502 1.349 . S
C503 C519 1.349 . S
C504 C502 1.327 . S
C504 C523 1.429 . S
C504 H528 0.950 . S
C505 C522 1.574 . S
C505 C524 1.368 . S
C505 H529 0.949 . S
H506 C510 0.949 . S
C507 C508 1.349 . S
C507 C509 1.327 . S
C507 H530 0.950 . S
C508 C507 1.349 . S
C508 C520 1.349 . S
C509 C507 1.327 . S
C509 C525 1.429 . S
C509 H531 0.950 . S
C510 H506 0.949 . S
C510 C518 1.574 . S
C510 C526 1.368 . S
H511 C519 0.950 . S
H512 C517 0.950 . S
H513 C518 0.949 . S
H514 C520 0.950 . S
H515 C521 0.950 . S
H516 C522 0.949 . S
C517 H512 0.950 . S
C517 C519 1.327 . S
C517 C523 1.429 . S
C518 C510 1.574 . S
C518 H513 0.949 . S
C518 C524 1.368 . S
C519 C503 1.349 . S
C519 H511 0.950 . S
C519 C517 1.327 . S
C520 C508 1.349 . S
C520 H514 0.950 . S
C520 C521 1.327 . S
C521 H515 0.950 . S
C521 C520 1.327 . S
C521 C525 1.429 . S
C522 C505 1.574 . S
C522 H516 0.949 . S
C522 C526 1.368 . S
C523 C504 1.429 . S
C523 C517 1.429 . S
C523 C524 1.523 . S
C524 C505 1.368 . S
C524 C518 1.368 . S
C524 C523 1.523 . S
C525 C509 1.429 . S
C525 C521 1.429 . S
C525 C526 1.523 . S
C526 C510 1.368 . S
C526 C522 1.368 . S
C526 C525 1.523 . S
H527 C502 0.950 . S
H528 C504 0.950 . S
H529 C505 0.949 . S
H530 C507 0.950 . S
H531 C509 0.950 . S
C532 C533 1.349 . S
C532 C534 1.327 . S
C532 H557 0.950 . S
C533 C532 1.349 . S
C533 C549 1.349 . S
C534 C532 1.327 . S
C534 C553 1.429 . S
C534 H558 0.950 . S
C535 C552 1.574 . S
C535 C554 1.368 . S
C535 H559 0.949 . S
H536 C540 0.949 . S
C537 C538 1.349 . S
C537 C539 1.327 . S
C537 H560 0.950 . S
C538 C537 1.349 . S
C538 C550 1.349 . S
C539 C537 1.327 . S
C539 C555 1.429 . S
C539 H561 0.950 . S
C540 H536 0.949 . S
C540 C548 1.574 . S
C540 C556 1.368 . S
H541 C549 0.950 . S
H542 C547 0.950 . S
H543 C548 0.949 . S
H544 C550 0.950 . S
H545 C551 0.950 . S
H546 C552 0.949 . S
C547 H542 0.950 . S
C547 C549 1.327 . S
C547 C553 1.429 . S
C548 C540 1.574 . S
C548 H543 0.949 . S
C548 C554 1.368 . S
C549 C533 1.349 . S
C549 H541 0.950 . S
C549 C547 1.327 . S
C550 C538 1.349 . S
C550 H544 0.950 . S
C550 C551 1.327 . S
C551 H545 0.950 . S
C551 C550 1.327 . S
C551 C555 1.429 . S
C552 C535 1.574 . S
C552 H546 0.949 . S
C552 C556 1.368 . S
C553 C534 1.429 . S
C553 C547 1.429 . S
C553 C554 1.523 . S
C554 C535 1.368 . S
C554 C548 1.368 . S
C554 C553 1.523 . S
C555 C539 1.429 . S
C555 C551 1.429 . S
C555 C556 1.523 . S
C556 C540 1.368 . S
C556 C552 1.368 . S
C556 C555 1.523 . S
H557 C532 0.950 . S
H558 C534 0.950 . S
H559 C535 0.949 . S
H560 C537 0.950 . S
H561 C539 0.950 . S
C562 C563 1.346 1_655 S
C562 C564 1.327 . S
C562 H587 0.950 . S
C563 C562 1.346 1_455 S
C563 C579 1.352 . S
C564 C562 1.327 . S
C564 C583 1.420 1_655 S
C564 H588 0.950 . S
C565 C582 1.574 . S
C565 C584 1.382 . S
C565 H589 0.949 . S
H566 C570 0.949 . S
C567 C568 1.378 . S
C567 C569 1.327 . S
C567 H590 0.950 . S
C568 C567 1.378 . S
C568 C580 1.321 1_455 S
C569 C567 1.327 . S
C569 C585 1.451 . S
C569 H591 0.950 . S
C570 H566 0.949 . S
C570 C578 1.574 . S
C570 C586 1.349 1_655 S
H571 C579 0.950 . S
H572 C577 0.950 . S
H573 C578 0.949 . S
H574 C580 0.950 . S
H575 C581 0.950 . S
H576 C582 0.949 . S
C577 H572 0.950 . S
C577 C579 1.327 . S
C577 C583 1.438 . S
C578 C570 1.574 . S
C578 H573 0.949 . S
C578 C584 1.355 1_655 S
C579 C563 1.352 . S
C579 H571 0.950 . S
C579 C577 1.327 . S
C580 C568 1.321 1_655 S
C580 H574 0.950 . S
C580 C581 1.327 . S
C581 H575 0.950 . S
C581 C580 1.327 . S
C581 C585 1.408 1_655 S
C582 C565 1.574 . S
C582 H576 0.949 . S
C582 C586 1.388 . S
C583 C564 1.420 1_455 S
C583 C577 1.438 . S
C583 C584 1.523 . S
C584 C565 1.382 . S
C584 C578 1.355 1_455 S
C584 C583 1.523 . S
C585 C569 1.451 . S
C585 C581 1.408 1_455 S
C585 C586 1.523 . S
C586 C570 1.349 1_455 S
C586 C582 1.388 . S
C586 C585 1.523 . S
H587 C562 0.950 . S
H588 C564 0.950 . S
H589 C565 0.949 . S
H590 C567 0.950 . S
H591 C569 0.950 . S
C592 C593 1.352 1_565 S
C592 C594 1.327 . S
C592 H617 0.950 . S
C593 C592 1.352 1_545 S
C593 C609 1.345 . S
C594 C592 1.327 . S
C594 C613 1.428 . S
C594 H618 0.950 . S
C595 C612 1.574 1_554 S
C595 C614 1.364 1_545 S
C595 H619 0.949 . S
H596 C600 0.949 . S
C597 C598 1.328 1_545 S
C597 C599 1.327 . S
C597 H620 0.950 . S
C598 C597 1.328 1_565 S
C598 C610 1.370 . S
C599 C597 1.327 . S
C599 C615 1.415 1_545 S
C599 H621 0.950 . S
C600 H596 0.949 . S
C600 C608 1.574 . S
C600 C616 1.379 . S
H601 C609 0.950 . S
H602 C607 0.950 . S
H603 C608 0.949 1_554 S
H604 C610 0.950 . S
H605 C611 0.950 . S
H606 C612 0.949 . S
C607 H602 0.950 . S
C607 C609 1.327 . S
C607 C613 1.429 1_545 S
C608 C600 1.574 . S
C608 H603 0.949 1_556 S
C608 C614 1.372 1_556 S
C609 C593 1.345 . S
C609 H601 0.950 . S
C609 C607 1.327 . S
C610 C598 1.370 . S
C610 H604 0.950 . S
C610 C611 1.327 . S
C611 H605 0.950 . S
C611 C610 1.327 . S
C611 C615 1.443 . S
C612 C595 1.574 1_556 S
C612 H606 0.949 . S
C612 C616 1.357 1_545 S
C613 C594 1.428 . S
C613 C607 1.429 1_565 S
C613 C614 1.523 . S
C614 C595 1.364 1_565 S
C614 C608 1.372 1_554 S
C614 C613 1.523 . S
C615 C599 1.415 1_565 S
C615 C611 1.443 . S
C615 C616 1.523 . S
C616 C600 1.379 . S
C616 C612 1.357 1_565 S
C616 C615 1.523 . S
H617 C592 0.950 . S
H618 C594 0.950 . S
H619 C595 0.949 . S
H620 C597 0.950 . S
H621 C599 0.950 . S
C622 C623 1.349 . S
C622 C624 1.327 . S
C622 H647 0.950 . S
C623 C622 1.349 . S
C623 C639 1.349 . S
C624 C622 1.327 . S
C624 C643 1.429 . S
C624 H648 0.950 . S
C625 C642 1.574 1_554 S
C625 C644 1.368 . S
C625 H649 0.949 . S
H626 C630 0.949 . S
C627 C628 1.349 . S
C627 C629 1.327 . S
C627 H650 0.950 . S
C628 C627 1.349 . S
C628 C640 1.349 . S
C629 C627 1.327 . S
C629 C645 1.429 . S
C629 H651 0.950 . S
C630 H626 0.949 . S
C630 C638 1.574 . S
C630 C646 1.368 . S
H631 C639 0.950 . S
H632 C637 0.950 . S
H633 C638 0.949 . S
H634 C640 0.950 . S
H635 C641 0.950 . S
H636 C642 0.949 . S
C637 H632 0.950 . S
C637 C639 1.327 . S
C637 C643 1.429 . S
C638 C630 1.574 . S
C638 H633 0.949 . S
C638 C644 1.368 1_556 S
C639 C623 1.349 . S
C639 H631 0.950 . S
C639 C637 1.327 . S
C640 C628 1.349 . S
C640 H634 0.950 . S
C640 C641 1.327 . S
C641 H635 0.950 . S
C641 C640 1.327 . S
C641 C645 1.429 . S
C642 C625 1.574 1_556 S
C642 H636 0.949 . S
C642 C646 1.368 . S
C643 C624 1.429 . S
C643 C637 1.429 . S
C643 C644 1.523 . S
C644 C625 1.368 . S
C644 C638 1.368 1_554 S
C644 C643 1.523 . S
C645 C629 1.429 . S
C645 C641 1.429 . S
C645 C646 1.523 . S
C646 C630 1.368 . S
C646 C642 1.368 . S
C646 C645 1.523 . S
H647 C622 0.950 . S
H648 C624 0.950 . S
H649 C625 0.949 . S
H650 C627 0.950 . S
H651 C629 0.950 . S
C652 C653 1.349 . S
C652 C654 1.327 . S
C652 H677 0.950 . S
C653 C652 1.349 . S
C653 C669 1.349 . S
C654 C652 1.327 . S
C654 C673 1.429 . S
C654 H678 0.950 . S
C655 C672 1.574 1_554 S
C655 C674 1.368 . S
C655 H679 0.949 . S
H656 C660 0.949 . S
C657 C658 1.349 . S
C657 C659 1.327 . S
C657 H680 0.950 . S
C658 C657 1.349 . S
C658 C670 1.349 . S
C659 C657 1.327 . S
C659 C675 1.429 . S
C659 H681 0.950 . S
C660 H656 0.949 . S
C660 C668 1.574 . S
C660 C676 1.368 . S
H661 C669 0.950 . S
H662 C667 0.950 . S
H663 C668 0.949 1_554 S
H664 C670 0.950 . S
H665 C671 0.950 . S
H666 C672 0.949 . S
C667 H662 0.950 . S
C667 C669 1.327 . S
C667 C673 1.429 . S
C668 C660 1.574 . S
C668 H663 0.949 1_556 S
C668 C674 1.368 1_556 S
C669 C653 1.349 . S
C669 H661 0.950 . S
C669 C667 1.327 . S
C670 C658 1.349 . S
C670 H664 0.950 . S
C670 C671 1.327 . S
C671 H665 0.950 . S
C671 C670 1.327 . S
C671 C675 1.429 . S
C672 C655 1.574 1_556 S
C672 H666 0.949 . S
C672 C676 1.368 . S
C673 C654 1.429 . S
C673 C667 1.429 . S
C673 C674 1.523 . S
C674 C655 1.368 . S
C674 C668 1.368 1_554 S
C674 C673 1.523 . S
C675 C659 1.429 . S
C675 C671 1.429 . S
C675 C676 1.523 . S
C676 C660 1.368 . S
C676 C672 1.368 . S
C676 C675 1.523 . S
H677 C652 0.950 . S
H678 C654 0.950 . S
H679 C655 0.949 . S
H680 C657 0.950 . S
H681 C659 0.950 . S
C682 C683 1.353 . S
C682 C684 1.327 . S
C682 H707 0.950 . S
C683 C682 1.353 . S
C683 C699 1.345 1_655 S
C684 C682 1.327 . S
C684 C703 1.442 . S
C684 H708 0.950 . S
C685 C702 1.574 1_554 S
C685 C704 1.349 1_455 S
C685 H709 0.949 . S
H686 C690 0.949 . S
C687 C688 1.308 1_455 S
C687 C689 1.327 . S
C687 H710 0.950 . S
C688 C687 1.308 1_655 S
C688 C700 1.390 . S
C689 C687 1.327 . S
C689 C705 1.398 1_455 S
C689 H711 0.950 . S
C690 H686 0.949 . S
C690 C698 1.574 1_556 S
C690 C706 1.397 . S
H691 C699 0.950 . S
H692 C697 0.950 . S
H693 C698 0.949 . S
H694 C700 0.950 . S
H695 C701 0.950 . S
H696 C702 0.949 . S
C697 H692 0.950 . S
C697 C699 1.327 . S
C697 C703 1.416 1_455 S
C698 C690 1.574 1_554 S
C698 H693 0.949 . S
C698 C704 1.388 . S
C699 C683 1.345 1_455 S
C699 H691 0.950 . S
C699 C697 1.327 . S
C700 C688 1.390 . S
C700 H694 0.950 . S
C700 C701 1.327 . S
C701 H695 0.950 . S
C701 C700 1.327 . S
C701 C705 1.460 . S
C702 C685 1.574 1_556 S
C702 H696 0.949 . S
C702 C706 1.340 1_455 S
C703 C684 1.442 . S
C703 C697 1.416 1_655 S
C703 C704 1.523 . S
C704 C685 1.349 1_655 S
C704 C698 1.388 . S
C704 C703 1.523 . S
C705 C689 1.398 1_655 S
C705 C701 1.460 . S
C705 C706 1.523 . S
C706 C690 1.397 . S
C706 C702 1.340 1_655 S
C706 C705 1.523 . S
H707 C682 0.950 . S
H708 C684 0.950 . S
H709 C685 0.949 . S
H710 C687 0.950 . S
H711 C689 0.950 . S
C712 C713 1.349 . S
C712 C714 1.327 . S
C712 H737 0.950 . S
C713 C712 1.349 . S
C713 C729 1.349 1_455 S
C714 C712 1.327 . S
C714 C733 1.429 1_455 S
C714 H738 0.950 . S
C715 C732 1.574 . S
C715 C734 1.368 . S
C715 H739 0.949 . S
H716 C720 0.949 . S
C717 C718 1.349 . S
C717 C719 1.327 . S
C717 H740 0.950 . S
C718 C717 1.349 . S
C718 C730 1.349 . S
C719 C717 1.327 . S
C719 C735 1.429 . S
C719 H741 0.950 . S
C720 H716 0.949 . S
C720 C728 1.574 . S
C720 C736 1.368 . S
H721 C729 0.950 . S
H722 C727 0.950 . S
H723 C728 0.958 . S
H724 C730 0.950 . S
H725 C731 0.950 . S
H726 C732 0.949 . S
C727 H722 0.950 . S
C727 C729 1.327 . S
C727 C733 1.429 . S
C728 C720 1.574 . S
C728 H723 0.958 . S
C728 C734 1.368 . S
C729 C713 1.349 1_655 S
C729 H721 0.950 . S
C729 C727 1.327 . S
C730 C718 1.349 . S
C730 H724 0.950 . S
C730 C731 1.327 . S
C731 H725 0.950 . S
C731 C730 1.327 . S
C731 C735 1.429 . S
C732 C715 1.574 . S
C732 H726 0.949 . S
C732 C736 1.368 . S
C733 C714 1.429 1_655 S
C733 C727 1.429 . S
C733 C734 1.523 . S
C734 C715 1.368 . S
C734 C728 1.368 . S
C734 C733 1.523 . S
C735 C719 1.429 . S
C735 C731 1.429 . S
C735 C736 1.523 . S
C736 C720 1.368 . S
C736 C732 1.368 . S
C736 C735 1.523 . S
H737 C712 0.950 . S
H738 C714 0.950 . S
H739 C715 0.949 . S
H740 C717 0.950 . S
H741 C719 0.950 . S
C742 C743 1.349 . S
C742 C744 1.327 . S
C742 H767 0.950 . S
C743 C742 1.349 . S
C743 C759 1.349 1_545 S
C744 C742 1.327 . S
C744 C763 1.429 1_545 S
C744 H768 0.950 . S
C745 C762 1.574 . S
C745 C764 1.368 . S
C745 H769 0.949 . S
H746 C750 0.949 . S
C747 C748 1.349 . S
C747 C749 1.327 . S
C747 H770 0.950 . S
C748 C747 1.349 . S
C748 C760 1.349 . S
C749 C747 1.327 . S
C749 C765 1.429 . S
C749 H771 0.950 . S
C750 H746 0.949 . S
C750 C758 1.574 . S
C750 C766 1.368 1_545 S
H751 C759 0.950 . S
H752 C757 0.950 . S
H753 C758 0.949 . S
H754 C760 0.950 1_545 S
H755 C761 0.950 1_545 S
H756 C762 0.949 . S
C757 H752 0.950 . S
C757 C759 1.327 . S
C757 C763 1.429 . S
C758 C750 1.574 . S
C758 H753 0.949 . S
C758 C764 1.368 1_545 S
C759 C743 1.349 1_565 S
C759 H751 0.950 . S
C759 C757 1.327 . S
C760 C748 1.349 . S
C760 H754 0.950 1_565 S
C760 C761 1.327 . S
C761 H755 0.950 1_565 S
C761 C760 1.327 . S
C761 C765 1.429 . S
C762 C745 1.574 . S
C762 H756 0.949 . S
C762 C766 1.368 . S
C763 C744 1.429 1_565 S
C763 C757 1.429 . S
C763 C764 1.523 . S
C764 C745 1.368 . S
C764 C758 1.368 1_565 S
C764 C763 1.523 . S
C765 C749 1.429 . S
C765 C761 1.429 . S
C765 C766 1.523 . S
C766 C750 1.368 1_565 S
C766 C762 1.368 . S
C766 C765 1.523 . S
H767 C742 0.950 . S
H768 C744 0.950 . S
H769 C745 0.949 . S
H770 C747 0.950 . S
H771 C749 0.950 . S
C772 C773 1.349 . S
C772 C774 1.327 . S
C772 H797 0.950 . S
C773 C772 1.349 . S
C773 C789 1.349 . S
C774 C772 1.327 . S
C774 C793 1.429 . S
C774 H798 0.950 . S
C775 C792 1.574 . S
C775 C794 1.368 . S
C775 H799 0.949 . S
H776 C780 0.949 . S
C777 C778 1.349 . S
C777 C779 1.327 . S
C777 H800 0.950 . S
C778 C777 1.349 . S
C778 C790 1.349 . S
C779 C777 1.327 . S
C779 C795 1.429 . S
C779 H801 0.950 . S
C780 H776 0.949 . S
C780 C788 1.574 . S
C780 C796 1.368 . S
H781 C789 0.950 . S
H782 C787 0.950 . S
H783 C788 0.949 . S
H784 C790 0.950 . S
H785 C791 0.950 . S
H786 C792 0.949 . S
C787 H782 0.950 . S
C787 C789 1.327 . S
C787 C793 1.429 . S
C788 C780 1.574 . S
C788 H783 0.949 . S
C788 C794 1.368 . S
C789 C773 1.349 . S
C789 H781 0.950 . S
C789 C787 1.327 . S
C790 C778 1.349 . S
C790 H784 0.950 . S
C790 C791 1.327 . S
C791 H785 0.950 . S
C791 C790 1.327 . S
C791 C795 1.429 . S
C792 C775 1.574 . S
C792 H786 0.949 . S
C792 C796 1.368 . S
C793 C774 1.429 . S
C793 C787 1.429 . S
C793 C794 1.523 . S
C794 C775 1.368 . S
C794 C788 1.368 . S
C794 C793 1.523 . S
C795 C779 1.429 . S
C795 C791 1.429 . S
C795 C796 1.523 . S
C796 C780 1.368 . S
C796 C792 1.368 . S
C796 C795 1.523 . S
H797 C772 0.950 . S
H798 C774 0.950 . S
H799 C775 0.949 . S
H800 C777 0.950 . S
H801 C779 0.950 . S
C802 C803 1.349 . S
C802 C804 1.327 . S
C802 H827 0.950 . S
C803 C802 1.349 . S
C803 C819 1.349 . S
C804 C802 1.327 . S
C804 C823 1.429 . S
C804 H828 0.950 . S
C805 C822 1.574 . S
C805 C824 1.368 . S
C805 H829 0.949 . S
H806 C810 0.949 . S
C807 C808 1.349 . S
C807 C809 1.327 . S
C807 H830 0.950 . S
C808 C807 1.349 . S
C808 C820 1.349 . S
C809 C807 1.327 . S
C809 C825 1.429 . S
C809 H831 0.950 . S
C810 H806 0.949 . S
C810 C818 1.574 . S
C810 C826 1.368 . S
H811 C819 0.950 . S
H812 C817 0.950 . S
H813 C818 0.949 . S
H814 C820 0.950 . S
H815 C821 0.950 . S
H816 C822 0.949 . S
C817 H812 0.950 . S
C817 C819 1.327 . S
C817 C823 1.429 . S
C818 C810 1.574 . S
C818 H813 0.949 . S
C818 C824 1.368 . S
C819 C803 1.349 . S
C819 H811 0.950 . S
C819 C817 1.327 . S
C820 C808 1.349 . S
C820 H814 0.950 . S
C820 C821 1.327 . S
C821 H815 0.950 . S
C821 C820 1.327 . S
C821 C825 1.429 . S
C822 C805 1.574 . S
C822 H816 0.949 . S
C822 C826 1.368 . S
C823 C804 1.429 . S
C823 C817 1.429 . S
C823 C824 1.523 . S
C824 C805 1.368 . S
C824 C818 1.368 . S
C824 C823 1.523 . S
C825 C809 1.429 . S
C825 C821 1.429 . S
C825 C826 1.523 . S
C826 C810 1.368 . S
C826 C822 1.368 . S
C826 C825 1.523 . S
H827 C802 0.950 . S
H828 C804 0.950 . S
H829 C805 0.949 . S
H830 C807 0.950 . S
H831 C809 0.950 . S
C832 C833 1.349 1_455 S
C832 C834 1.327 . S
C832 H857 0.950 . S
C833 C832 1.349 1_655 S
C833 C849 1.349 . S
C834 C832 1.327 . S
C834 C853 1.429 . S
C834 H858 0.950 1_554 S
C835 C852 1.574 . S
C835 C854 1.368 . S
C835 H859 0.971 . S
H836 C840 0.949 . S
C837 C838 1.349 . S
C837 C839 1.327 . S
C837 H860 0.950 . S
C838 C837 1.349 . S
C838 C850 1.349 . S
C839 C837 1.327 . S
C839 C855 1.429 . S
C839 H861 0.950 . S
C840 H836 0.949 . S
C840 C848 1.574 . S
C840 C856 1.368 . S
H841 C849 0.950 . S
H842 C847 0.950 . S
H843 C848 0.949 . S
H844 C850 0.950 . S
H845 C851 0.950 . S
H846 C852 0.949 . S
C847 H842 0.950 . S
C847 C849 1.327 . S
C847 C853 1.429 1_655 S
C848 C840 1.574 . S
C848 H843 0.949 . S
C848 C854 1.368 1_556 S
C849 C833 1.349 . S
C849 H841 0.950 . S
C849 C847 1.327 . S
C850 C838 1.349 . S
C850 H844 0.950 . S
C850 C851 1.327 . S
C851 H845 0.950 . S
C851 C850 1.327 . S
C851 C855 1.429 . S
C852 C835 1.574 . S
C852 H846 0.949 . S
C852 C856 1.368 1_554 S
C853 C834 1.429 . S
C853 C847 1.429 1_455 S
C853 C854 1.523 . S
C854 C835 1.368 . S
C854 C848 1.368 1_554 S
C854 C853 1.523 . S
C855 C839 1.429 . S
C855 C851 1.429 . S
C855 C856 1.523 . S
C856 C840 1.368 . S
C856 C852 1.368 1_556 S
C856 C855 1.523 . S
H857 C832 0.950 . S
H858 C834 0.950 1_556 S
H859 C835 0.971 . S
H860 C837 0.950 . S
H861 C839 0.950 . S
C862 C863 1.349 1_545 S
C862 C864 1.327 . S
C862 H887 0.950 . S
C863 C862 1.349 1_565 S
C863 C879 1.349 . S
C864 C862 1.327 . S
C864 C883 1.429 . S
C864 H888 0.950 . S
C865 C882 1.574 1_554 S
C865 C884 1.368 1_565 S
C865 H889 0.949 . S
H866 C870 0.949 . S
C867 C868 1.349 . S
C867 C869 1.327 . S
C867 H890 0.950 1_545 S
C868 C867 1.349 . S
C868 C880 1.349 . S
C869 C867 1.327 . S
C869 C885 1.429 . S
C869 H891 0.950 1_545 S
C870 H866 0.949 . S
C870 C878 1.574 . S
C870 C886 1.368 . S
H871 C879 0.950 . S
H872 C877 0.950 . S
H873 C878 0.949 . S
H874 C880 0.950 . S
H875 C881 0.950 . S
H876 C882 0.949 . S
C877 H872 0.950 . S
C877 C879 1.327 . S
C877 C883 1.429 1_565 S
C878 C870 1.574 . S
C878 H873 0.949 . S
C878 C884 1.368 1_556 S
C879 C863 1.349 . S
C879 H871 0.950 . S
C879 C877 1.327 . S
C880 C868 1.349 . S
C880 H874 0.950 . S
C880 C881 1.327 . S
C881 H875 0.950 . S
C881 C880 1.327 . S
C881 C885 1.429 . S
C882 C865 1.574 1_556 S
C882 H876 0.949 . S
C882 C886 1.368 1_565 S
C883 C864 1.429 . S
C883 C877 1.429 1_545 S
C883 C884 1.523 . S
C884 C865 1.368 1_545 S
C884 C878 1.368 1_554 S
C884 C883 1.523 . S
C885 C869 1.429 . S
C885 C881 1.429 . S
C885 C886 1.523 . S
C886 C870 1.368 . S
C886 C882 1.368 1_545 S
C886 C885 1.523 . S
H887 C862 0.950 . S
H888 C864 0.950 . S
H889 C865 0.949 . S
H890 C867 0.950 1_565 S
H891 C869 0.950 1_565 S
C892 C893 1.349 . S
C892 C894 1.327 . S
C892 H917 0.950 . S
C893 C892 1.349 . S
C893 C909 1.349 . S
C894 C892 1.327 . S
C894 C913 1.429 . S
C894 H918 0.950 . S
C895 C912 1.574 . S
C895 C914 1.368 1_556 S
C895 H919 0.949 . S
H896 C900 0.949 . S
C897 C898 1.349 . S
C897 C899 1.327 . S
C897 H920 0.950 . S
C898 C897 1.349 . S
C898 C910 1.349 . S
C899 C897 1.327 . S
C899 C915 1.429 . S
C899 H921 0.950 . S
C900 H896 0.949 . S
C900 C908 1.574 . S
C900 C916 1.368 1_554 S
H901 C909 0.950 . S
H902 C907 0.950 1_556 S
H903 C908 0.949 . S
H904 C910 0.950 . S
H905 C911 0.950 . S
H906 C912 0.949 . S
C907 H902 0.950 1_554 S
C907 C909 1.327 . S
C907 C913 1.429 . S
C908 C900 1.574 . S
C908 H903 0.949 . S
C908 C914 1.368 . S
C909 C893 1.349 . S
C909 H901 0.950 . S
C909 C907 1.327 . S
C910 C898 1.349 . S
C910 H904 0.950 . S
C910 C911 1.327 . S
C911 H905 0.950 . S
C911 C910 1.327 . S
C911 C915 1.429 . S
C912 C895 1.574 . S
C912 H906 0.949 . S
C912 C916 1.368 . S
C913 C894 1.429 . S
C913 C907 1.429 . S
C913 C914 1.523 . S
C914 C895 1.368 1_554 S
C914 C908 1.368 . S
C914 C913 1.523 . S
C915 C899 1.429 . S
C915 C911 1.429 . S
C915 C916 1.523 . S
C916 C900 1.368 1_556 S
C916 C912 1.368 . S
C916 C915 1.523 . S
H917 C892 0.950 . S
H918 C894 0.950 . S
H919 C895 0.949 . S
H920 C897 0.950 . S
H921 C899 0.950 . S
C922 C923 1.349 . S
C922 C924 1.327 . S
C922 H947 0.950 . S
C923 C922 1.349 . S
C923 C939 1.349 . S
C924 C922 1.327 . S
C924 C943 1.429 . S
C924 H948 0.950 . S
C925 C942 1.574 . S
C925 C944 1.368 1_556 S
C925 H949 0.949 . S
H926 C930 0.949 . S
C927 C928 1.349 . S
C927 C929 1.327 . S
C927 H950 0.950 . S
C928 C927 1.349 . S
C928 C940 1.349 . S
C929 C927 1.327 . S
C929 C945 1.429 . S
C929 H951 0.950 . S
C930 H926 0.949 . S
C930 C938 1.574 1_556 S
C930 C946 1.368 . S
H931 C939 0.950 . S
H932 C937 0.950 . S
H933 C938 0.949 . S
H934 C940 0.950 . S
H935 C941 0.950 . S
H936 C942 0.949 . S
C937 H932 0.950 . S
C937 C939 1.327 . S
C937 C943 1.429 . S
C938 C930 1.574 1_554 S
C938 H933 0.949 . S
C938 C944 1.368 . S
C939 C923 1.349 . S
C939 H931 0.950 . S
C939 C937 1.327 . S
C940 C928 1.349 . S
C940 H934 0.950 . S
C940 C941 1.327 . S
C941 H935 0.950 . S
C941 C940 1.327 . S
C941 C945 1.429 . S
C942 C925 1.574 . S
C942 H936 0.949 . S
C942 C946 1.368 . S
C943 C924 1.429 . S
C943 C937 1.429 . S
C943 C944 1.523 . S
C944 C925 1.368 1_554 S
C944 C938 1.368 . S
C944 C943 1.523 . S
C945 C929 1.429 . S
C945 C941 1.429 . S
C945 C946 1.523 . S
C946 C930 1.368 . S
C946 C942 1.368 . S
C946 C945 1.523 . S
H947 C922 0.950 . S
H948 C924 0.950 . S
H949 C925 0.949 . S
H950 C927 0.950 . S
H951 C929 0.950 . S
C952 C953 1.349 1_655 S
C952 C954 1.326 1_655 S
C952 H977 0.950 . S
C953 C952 1.349 1_455 S
C953 C969 1.349 . S
C954 C952 1.326 1_455 S
C954 C973 1.432 . S
C954 H978 0.947 1_455 S
C955 C972 1.574 . S
C955 C974 1.368 . S
C955 H979 0.949 . S
H956 C960 0.949 . S
C957 C958 1.349 . S
C957 C959 1.327 . S
C957 H980 0.950 . S
C958 C957 1.349 . S
C958 C970 1.349 . S
C959 C957 1.327 . S
C959 C975 1.429 . S
C959 H981 0.950 . S
C960 H956 0.949 . S
C960 C968 1.574 . S
C960 C976 1.368 . S
H961 C969 0.950 . S
H962 C967 0.950 . S
H963 C968 0.952 . S
H964 C970 0.950 . S
H965 C971 0.950 . S
H966 C972 0.949 . S
C967 H962 0.950 . S
C967 C969 1.327 . S
C967 C973 1.429 . S
C968 C960 1.574 . S
C968 H963 0.952 . S
C968 C974 1.368 . S
C969 C953 1.349 . S
C969 H961 0.950 . S
C969 C967 1.327 . S
C970 C958 1.349 . S
C970 H964 0.950 . S
C970 C971 1.327 . S
C971 H965 0.950 . S
C971 C970 1.327 . S
C971 C975 1.429 . S
C972 C955 1.574 . S
C972 H966 0.949 . S
C972 C976 1.368 . S
C973 C954 1.432 . S
C973 C967 1.429 . S
C973 C974 1.523 . S
C974 C955 1.368 . S
C974 C968 1.368 . S
C974 C973 1.523 . S
C975 C959 1.429 . S
C975 C971 1.429 . S
C975 C976 1.523 . S
C976 C960 1.368 . S
C976 C972 1.368 . S
C976 C975 1.523 . S
H977 C952 0.950 . S
H978 C954 0.947 1_655 S
H979 C955 0.949 . S
H980 C957 0.950 . S
H981 C959 0.950 . S
C982 C983 1.349 1_565 S
C982 C984 1.327 . S
C982 H1007 0.950 . S
C983 C982 1.349 1_545 S
C983 C999 1.349 . S
C984 C982 1.327 . S
C984 C1003 1.429 1_565 S
C984 H1008 0.950 . S
C985 C1002 1.574 . S
C985 C1004 1.368 . S
C985 H1009 0.949 . S
H986 C990 0.949 . S
C987 C988 1.349 . S
C987 C989 1.327 . S
C987 H1010 0.950 . S
C988 C987 1.349 . S
C988 C1000 1.349 1_545 S
C989 C987 1.327 . S
C989 C1005 1.429 . S
C989 H1011 0.950 . S
C990 H986 0.949 . S
C990 C998 1.574 . S
C990 C1006 1.368 1_565 S
H991 C999 0.950 . S
H992 C997 0.950 . S
H993 C998 0.949 . S
H994 C1000 0.950 . S
H995 C1001 0.950 . S
H996 C1002 0.949 . S
C997 H992 0.950 . S
C997 C999 1.327 . S
C997 C1003 1.429 . S
C998 C990 1.574 . S
C998 H993 0.949 . S
C998 C1004 1.368 1_565 S
C999 C983 1.349 . S
C999 H991 0.950 . S
C999 C997 1.327 . S
C1000 C988 1.349 1_565 S
C1000 H994 0.950 . S
C1000 C1001 1.327 . S
C1001 H995 0.950 . S
C1001 C1000 1.327 . S
C1001 C1005 1.429 1_565 S
C1002 C985 1.574 . S
C1002 H996 0.949 . S
C1002 C1006 1.368 . S
C1003 C984 1.429 1_545 S
C1003 C997 1.429 . S
C1003 C1004 1.523 . S
C1004 C985 1.368 . S
C1004 C998 1.368 1_545 S
C1004 C1003 1.523 . S
C1005 C989 1.429 . S
C1005 C1001 1.429 1_545 S
C1005 C1006 1.523 . S
C1006 C990 1.368 1_545 S
C1006 C1002 1.368 . S
C1006 C1005 1.523 . S
H1007 C982 0.950 . S
H1008 C984 0.950 . S
H1009 C985 0.949 . S
H1010 C987 0.950 . S
H1011 C989 0.950 . S
C1012 C1013 1.349 . S
C1012 C1014 1.327 . S
C1012 H1037 0.950 . S
C1013 C1012 1.349 . S
C1013 C1029 1.349 . S
C1014 C1012 1.327 . S
C1014 C1033 1.429 . S
C1014 H1038 0.950 . S
C1015 C1032 1.574 . S
C1015 C1034 1.368 . S
C1015 H1039 0.949 . S
H1016 C1020 0.949 . S
C1017 C1018 1.349 . S
C1017 C1019 1.327 . S
C1017 H1040 0.950 . S
C1018 C1017 1.349 . S
C1018 C1030 1.349 . S
C1019 C1017 1.327 . S
C1019 C1035 1.429 . S
C1019 H1041 0.950 . S
C1020 H1016 0.949 . S
C1020 C1028 1.574 . S
C1020 C1036 1.368 . S
H1021 C1029 0.950 . S
H1022 C1027 0.950 . S
H1023 C1028 0.949 . S
H1024 C1030 0.950 . S
H1025 C1031 0.950 . S
H1026 C1032 0.949 . S
C1027 H1022 0.950 . S
C1027 C1029 1.327 . S
C1027 C1033 1.429 . S
C1028 C1020 1.574 . S
C1028 H1023 0.949 . S
C1028 C1034 1.368 . S
C1029 C1013 1.349 . S
C1029 H1021 0.950 . S
C1029 C1027 1.327 . S
C1030 C1018 1.349 . S
C1030 H1024 0.950 . S
C1030 C1031 1.327 . S
C1031 H1025 0.950 . S
C1031 C1030 1.327 . S
C1031 C1035 1.429 . S
C1032 C1015 1.574 . S
C1032 H1026 0.949 . S
C1032 C1036 1.368 . S
C1033 C1014 1.429 . S
C1033 C1027 1.429 . S
C1033 C1034 1.523 . S
C1034 C1015 1.368 . S
C1034 C1028 1.368 . S
C1034 C1033 1.523 . S
C1035 C1019 1.429 . S
C1035 C1031 1.429 . S
C1035 C1036 1.523 . S
C1036 C1020 1.368 . S
C1036 C1032 1.368 . S
C1036 C1035 1.523 . S
H1037 C1012 0.950 . S
H1038 C1014 0.950 . S
H1039 C1015 0.949 . S
H1040 C1017 0.950 . S
H1041 C1019 0.950 . S
C1042 C1043 1.349 . S
C1042 C1044 1.327 . S
C1042 H1067 0.950 . S
C1043 C1042 1.349 . S
C1043 C1059 1.349 . S
C1044 C1042 1.327 . S
C1044 C1063 1.429 . S
C1044 H1068 0.950 . S
C1045 C1062 1.574 . S
C1045 C1064 1.368 . S
C1045 H1069 0.949 . S
H1046 C1050 0.949 . S
C1047 C1048 1.349 . S
C1047 C1049 1.327 . S
C1047 H1070 0.950 . S
C1048 C1047 1.349 . S
C1048 C1060 1.349 . S
C1049 C1047 1.327 . S
C1049 C1065 1.429 . S
C1049 H1071 0.950 . S
C1050 H1046 0.949 . S
C1050 C1058 1.574 . S
C1050 C1066 1.368 . S
H1051 C1059 0.950 . S
H1052 C1057 0.950 . S
H1053 C1058 0.949 . S
H1054 C1060 0.950 . S
H1055 C1061 0.950 . S
H1056 C1062 0.949 . S
C1057 H1052 0.950 . S
C1057 C1059 1.327 . S
C1057 C1063 1.429 . S
C1058 C1050 1.574 . S
C1058 H1053 0.949 . S
C1058 C1064 1.368 . S
C1059 C1043 1.349 . S
C1059 H1051 0.950 . S
C1059 C1057 1.327 . S
C1060 C1048 1.349 . S
C1060 H1054 0.950 . S
C1060 C1061 1.327 . S
C1061 H1055 0.950 . S
C1061 C1060 1.327 . S
C1061 C1065 1.429 . S
C1062 C1045 1.574 . S
C1062 H1056 0.949 . S
C1062 C1066 1.368 . S
C1063 C1044 1.429 . S
C1063 C1057 1.429 . S
C1063 C1064 1.523 . S
C1064 C1045 1.368 . S
C1064 C1058 1.368 . S
C1064 C1063 1.523 . S
C1065 C1049 1.429 . S
C1065 C1061 1.429 . S
C1065 C1066 1.523 . S
C1066 C1050 1.368 . S
C1066 C1062 1.368 . S
C1066 C1065 1.523 . S
H1067 C1042 0.950 . S
H1068 C1044 0.950 . S
H1069 C1045 0.949 . S
H1070 C1047 0.950 . S
H1071 C1049 0.950 . S
C1072 C1073 1.349 1_455 S
C1072 C1074 1.327 . S
C1072 H1097 0.950 . S
C1073 C1072 1.349 1_655 S
C1073 C1089 1.349 . S
C1074 C1072 1.327 . S
C1074 C1093 1.429 1_455 S
C1074 H1098 0.950 . S
C1075 C1092 1.574 . S
C1075 C1094 1.368 . S
C1075 H1099 0.949 . S
H1076 C1080 0.949 . S
C1077 C1078 1.349 . S
C1077 C1079 1.327 . S
C1077 H1100 0.950 . S
C1078 C1077 1.349 . S
C1078 C1090 1.349 1_655 S
C1079 C1077 1.327 . S
C1079 C1095 1.429 . S
C1079 H1101 0.950 . S
C1080 H1076 0.949 . S
C1080 C1088 1.574 . S
C1080 C1096 1.368 1_455 S
H1081 C1089 0.950 . S
H1082 C1087 0.950 . S
H1083 C1088 0.949 . S
H1084 C1090 0.950 . S
H1085 C1091 0.950 . S
H1086 C1092 0.949 . S
C1087 H1082 0.950 . S
C1087 C1089 1.327 . S
C1087 C1093 1.429 . S
C1088 C1080 1.574 . S
C1088 H1083 0.949 . S
C1088 C1094 1.368 1_455 S
C1089 C1073 1.349 . S
C1089 H1081 0.950 . S
C1089 C1087 1.327 . S
C1090 C1078 1.349 1_455 S
C1090 H1084 0.950 . S
C1090 C1091 1.327 . S
C1091 H1085 0.950 . S
C1091 C1090 1.327 . S
C1091 C1095 1.429 1_455 S
C1092 C1075 1.574 . S
C1092 H1086 0.949 . S
C1092 C1096 1.368 . S
C1093 C1074 1.429 1_655 S
C1093 C1087 1.429 . S
C1093 C1094 1.523 . S
C1094 C1075 1.368 . S
C1094 C1088 1.368 1_655 S
C1094 C1093 1.523 . S
C1095 C1079 1.429 . S
C1095 C1091 1.429 1_655 S
C1095 C1096 1.523 . S
C1096 C1080 1.368 1_655 S
C1096 C1092 1.368 . S
C1096 C1095 1.523 . S
H1097 C1072 0.950 . S
H1098 C1074 0.950 . S
H1099 C1075 0.949 . S
H1100 C1077 0.950 . S
H1101 C1079 0.950 . S
C1102 C1103 1.406 . S
C1102 C1104 1.327 . S
C1102 H1127 0.950 . S
C1103 C1102 1.406 . S
C1103 C1119 1.295 1_565 S
C1104 C1102 1.327 . S
C1104 C1123 1.429 . S
C1104 H1128 0.950 . S
C1105 C1122 1.574 . S
C1105 C1124 1.368 1_545 S
C1105 H1129 0.949 . S
H1106 C1110 0.949 . S
C1107 C1108 1.349 1_545 S
C1107 C1109 1.327 . S
C1107 H1130 0.950 . S
C1108 C1107 1.349 1_565 S
C1108 C1120 1.349 . S
C1109 C1107 1.327 . S
C1109 C1125 1.429 1_545 S
C1109 H1131 0.950 . S
C1110 H1106 0.949 . S
C1110 C1118 1.574 . S
C1110 C1126 1.368 . S
H1111 C1119 0.950 . S
H1112 C1117 0.950 . S
H1113 C1118 0.949 . S
H1114 C1120 0.950 . S
H1115 C1121 0.950 . S
H1116 C1122 0.949 . S
C1117 H1112 0.950 . S
C1117 C1119 1.327 . S
C1117 C1123 1.429 1_545 S
C1118 C1110 1.574 . S
C1118 H1113 0.949 . S
C1118 C1124 1.368 . S
C1119 C1103 1.295 1_545 S
C1119 H1111 0.950 . S
C1119 C1117 1.327 . S
C1120 C1108 1.349 . S
C1120 H1114 0.950 . S
C1120 C1121 1.327 . S
C1121 H1115 0.950 . S
C1121 C1120 1.327 . S
C1121 C1125 1.429 . S
C1122 C1105 1.574 . S
C1122 H1116 0.949 . S
C1122 C1126 1.368 1_545 S
C1123 C1104 1.429 . S
C1123 C1117 1.429 1_565 S
C1123 C1124 1.523 . S
C1124 C1105 1.368 1_565 S
C1124 C1118 1.368 . S
C1124 C1123 1.523 . S
C1125 C1109 1.429 1_565 S
C1125 C1121 1.429 . S
C1125 C1126 1.523 . S
C1126 C1110 1.368 . S
C1126 C1122 1.368 1_565 S
C1126 C1125 1.523 . S
H1127 C1102 0.950 . S
H1128 C1104 0.950 . S
H1129 C1105 0.949 . S
H1130 C1107 0.950 . S
H1131 C1109 0.950 . S
C1132 C1133 1.349 . S
C1132 C1134 1.327 . S
C1132 H1157 0.950 . S
C1133 C1132 1.349 . S
C1133 C1149 1.349 . S
C1134 C1132 1.327 . S
C1134 C1153 1.429 . S
C1134 H1158 0.950 . S
C1135 C1152 1.574 . S
C1135 C1154 1.368 . S
C1135 H1159 0.949 . S
H1136 C1140 0.949 . S
C1137 C1138 1.349 . S
C1137 C1139 1.327 . S
C1137 H1160 0.950 . S
C1138 C1137 1.349 . S
C1138 C1150 1.349 . S
C1139 C1137 1.327 . S
C1139 C1155 1.429 . S
C1139 H1161 0.950 . S
C1140 H1136 0.949 . S
C1140 C1148 1.574 . S
C1140 C1156 1.368 . S
H1141 C1149 0.950 . S
H1142 C1147 0.950 . S
H1143 C1148 0.949 . S
H1144 C1150 0.950 . S
H1145 C1151 0.950 . S
H1146 C1152 0.949 . S
C1147 H1142 0.950 . S
C1147 C1149 1.327 . S
C1147 C1153 1.429 . S
C1148 C1140 1.574 . S
C1148 H1143 0.949 . S
C1148 C1154 1.368 . S
C1149 C1133 1.349 . S
C1149 H1141 0.950 . S
C1149 C1147 1.327 . S
C1150 C1138 1.349 . S
C1150 H1144 0.950 . S
C1150 C1151 1.327 . S
C1151 H1145 0.950 . S
C1151 C1150 1.327 . S
C1151 C1155 1.429 . S
C1152 C1135 1.574 . S
C1152 H1146 0.949 . S
C1152 C1156 1.368 . S
C1153 C1134 1.429 . S
C1153 C1147 1.429 . S
C1153 C1154 1.523 . S
C1154 C1135 1.368 . S
C1154 C1148 1.368 . S
C1154 C1153 1.523 . S
C1155 C1139 1.429 . S
C1155 C1151 1.429 . S
C1155 C1156 1.523 . S
C1156 C1140 1.368 . S
C1156 C1152 1.368 . S
C1156 C1155 1.523 . S
H1157 C1132 0.950 . S
H1158 C1134 0.950 . S
H1159 C1135 0.949 . S
H1160 C1137 0.950 . S
H1161 C1139 0.950 . S
C1162 C1163 1.349 . S
C1162 C1164 1.327 . S
C1162 H1187 0.950 . S
C1163 C1162 1.349 . S
C1163 C1179 1.349 . S
C1164 C1162 1.327 . S
C1164 C1183 1.429 . S
C1164 H1188 0.950 . S
C1165 C1182 1.574 . S
C1165 C1184 1.368 . S
C1165 H1189 0.949 . S
H1166 C1170 0.949 . S
C1167 C1168 1.349 . S
C1167 C1169 1.327 . S
C1167 H1190 0.950 . S
C1168 C1167 1.349 . S
C1168 C1180 1.349 . S
C1169 C1167 1.327 . S
C1169 C1185 1.429 . S
C1169 H1191 0.950 . S
C1170 H1166 0.949 . S
C1170 C1178 1.574 . S
C1170 C1186 1.368 . S
H1171 C1179 0.950 . S
H1172 C1177 0.950 . S
H1173 C1178 0.949 . S
H1174 C1180 0.950 . S
H1175 C1181 0.950 . S
H1176 C1182 0.949 . S
C1177 H1172 0.950 . S
C1177 C1179 1.327 . S
C1177 C1183 1.429 . S
C1178 C1170 1.574 . S
C1178 H1173 0.949 . S
C1178 C1184 1.368 . S
C1179 C1163 1.349 . S
C1179 H1171 0.950 . S
C1179 C1177 1.327 . S
C1180 C1168 1.349 . S
C1180 H1174 0.950 . S
C1180 C1181 1.327 . S
C1181 H1175 0.950 . S
C1181 C1180 1.327 . S
C1181 C1185 1.429 . S
C1182 C1165 1.574 . S
C1182 H1176 0.949 . S
C1182 C1186 1.368 . S
C1183 C1164 1.429 . S
C1183 C1177 1.429 . S
C1183 C1184 1.523 . S
C1184 C1165 1.368 . S
C1184 C1178 1.368 . S
C1184 C1183 1.523 . S
C1185 C1169 1.429 . S
C1185 C1181 1.429 . S
C1185 C1186 1.523 . S
C1186 C1170 1.368 . S
C1186 C1182 1.368 . S
C1186 C1185 1.523 . S
H1187 C1162 0.950 . S
H1188 C1164 0.950 . S
H1189 C1165 0.949 . S
H1190 C1167 0.950 . S
H1191 C1169 0.950 . S
C473 C255 1.958 1_545 S
C478 C314 2.070 1_545 S
C508 C354 2.086 . S
C503 C294 1.940 . S
C538 C394 2.079 . S
C533 C177 1.961 . S
C568 C434 2.081 1_455 S
C563 C216 1.966 1_455 S
C598 C327 2.075 1_565 S
C593 C99 1.964 1_545 S
C623 C138 1.946 . S
C628 C367 2.091 . S
C653 C21 1.961 . S
C658 C407 2.079 . S
C683 C60 1.965 . S
C688 C447 2.081 1_655 S
C718 C338 0.196 . S
C713 C196 0.242 1_455 S
C748 C378 0.197 . S
C743 C235 0.243 1_545 S
C778 C418 0.194 . S
C773 C289 0.241 . S
C803 C157 0.241 . S
C808 C458 0.191 . S
C833 C40 0.235 . S
C838 C321 0.191 . S
C868 C361 0.197 . S
C863 C79 0.230 . S
C898 C401 0.194 . S
C893 C133 0.234 . S
C923 C1 0.229 . S
C928 C441 0.202 . S
C953 C211 2.527 . S
C958 C315 2.839 . S
C983 C250 2.517 . S
C988 C355 2.835 . S
C1018 C395 2.839 . S
C1013 C274 2.526 . S
C1048 C435 2.837 . S
C1043 C172 2.511 . S
C1073 C55 2.528 1_655 S
C1078 C334 2.854 . S
C1108 C374 2.835 . S
C1103 C94 2.516 1_565 S
C1138 C414 2.839 . S
C1133 C118 2.527 . S
C1163 C16 2.519 . S
C1168 C454 2.844 . S
