# Generated by pormake.
# Topology pyr, (3,6)-cn, num edge types: 1
# Building blocks:
#     Node 0, Type 0, BuildingBlock: VETTIZ_charged_linker_0, # of connection points: 3
#     Node 1, Type 0, BuildingBlock: VETTIZ_charged_linker_0, # of connection points: 3
#     Node 2, Type 0, BuildingBlock: VETTIZ_charged_linker_0, # of connection points: 3
#     Node 3, Type 0, BuildingBlock: VETTIZ_charged_linker_0, # of connection points: 3
#     Node 4, Type 0, BuildingBlock: VETTIZ_charged_linker_0, # of connection points: 3
#     Node 5, Type 0, BuildingBlock: VETTIZ_charged_linker_0, # of connection points: 3
#     Node 6, Type 0, BuildingBlock: VETTIZ_charged_linker_0, # of connection points: 3
#     Node 7, Type 0, BuildingBlock: VETTIZ_charged_linker_0, # of connection points: 3
#     Node 8, Type 1, BuildingBlock: FUNLAD_clean_sbu_0, # of connection points: 6
#     Node 9, Type 1, BuildingBlock: FUNLAD_clean_sbu_0, # of connection points: 6
#     Node 10, Type 1, BuildingBlock: FUNLAD_clean_sbu_0, # of connection points: 6
#     Node 11, Type 1, BuildingBlock: FUNLAD_clean_sbu_0, # of connection points: 6
#     Edge 12, Type (0, 1), BuildingBlock: KIFKEQ_clean_linker_1, # of connection points: 2
#     Edge 13, Type (0, 1), BuildingBlock: KIFKEQ_clean_linker_1, # of connection points: 2
#     Edge 14, Type (0, 1), BuildingBlock: KIFKEQ_clean_linker_1, # of connection points: 2
#     Edge 15, Type (0, 1), BuildingBlock: KIFKEQ_clean_linker_1, # of connection points: 2
#     Edge 16, Type (0, 1), BuildingBlock: KIFKEQ_clean_linker_1, # of connection points: 2
#     Edge 17, Type (0, 1), BuildingBlock: KIFKEQ_clean_linker_1, # of connection points: 2
#     Edge 18, Type (0, 1), BuildingBlock: KIFKEQ_clean_linker_1, # of connection points: 2
#     Edge 19, Type (0, 1), BuildingBlock: KIFKEQ_clean_linker_1, # of connection points: 2
#     Edge 20, Type (0, 1), BuildingBlock: KIFKEQ_clean_linker_1, # of connection points: 2
#     Edge 21, Type (0, 1), BuildingBlock: KIFKEQ_clean_linker_1, # of connection points: 2
#     Edge 22, Type (0, 1), BuildingBlock: KIFKEQ_clean_linker_1, # of connection points: 2
#     Edge 23, Type (0, 1), BuildingBlock: KIFKEQ_clean_linker_1, # of connection points: 2
#     Edge 24, Type (0, 1), BuildingBlock: KIFKEQ_clean_linker_1, # of connection points: 2
#     Edge 25, Type (0, 1), BuildingBlock: KIFKEQ_clean_linker_1, # of connection points: 2
#     Edge 26, Type (0, 1), BuildingBlock: KIFKEQ_clean_linker_1, # of connection points: 2
#     Edge 27, Type (0, 1), BuildingBlock: KIFKEQ_clean_linker_1, # of connection points: 2
#     Edge 28, Type (0, 1), BuildingBlock: KIFKEQ_clean_linker_1, # of connection points: 2
#     Edge 29, Type (0, 1), BuildingBlock: KIFKEQ_clean_linker_1, # of connection points: 2
#     Edge 30, Type (0, 1), BuildingBlock: KIFKEQ_clean_linker_1, # of connection points: 2
#     Edge 31, Type (0, 1), BuildingBlock: KIFKEQ_clean_linker_1, # of connection points: 2
#     Edge 32, Type (0, 1), BuildingBlock: KIFKEQ_clean_linker_1, # of connection points: 2
#     Edge 33, Type (0, 1), BuildingBlock: KIFKEQ_clean_linker_1, # of connection points: 2
#     Edge 34, Type (0, 1), BuildingBlock: KIFKEQ_clean_linker_1, # of connection points: 2
#     Edge 35, Type (0, 1), BuildingBlock: KIFKEQ_clean_linker_1, # of connection points: 2
# Relax obj value: 0.054
# Max RMSD: 0.063
# Mean RMSD: 0.027
data_MOF--net-pry--node1-FUNLAD_clean_sbu_0--node2-VETTIZ_charged_linker_0--edge1-KIFKEQ_clean_linker_1
_symmetry_space_group_name_H-M    P1
_symmetry_Int_Tables_number       1
_symmetry_cell_setting            triclinic
loop_
_symmetry_equiv_pos_as_xyz
'x, y, z'
_cell_length_a     44.63383
_cell_length_b     47.224746
_cell_length_c     47.44245
_cell_angle_alpha  90.261194
_cell_angle_beta   90.100842
_cell_angle_gamma 86.300267
loop_
_atom_site_label
_atom_site_type_symbol
_atom_site_fract_x
_atom_site_fract_y
_atom_site_fract_z
_atom_type_partial_charge
C0 C 0.12877 0.11767 0.26586 0.0
C1 C 0.1036 0.12824 0.28171 0.0
C2 C 0.08825 0.15362 0.27205 0.0
C3 C 0.12269 0.15696 0.23228 0.0
C4 C 0.13775 0.13214 0.24153 0.0
C5 C 0.16389 0.12327 0.22265 0.0
H6 H 0.25125 0.14704 0.10886 0.0
C7 C 0.13789 0.16661 0.20608 0.0
C8 C 0.16212 0.14659 0.20051 0.0
H9 H 0.26015 0.07682 0.1672 0.0
H10 H 0.21699 0.09606 0.19292 0.0
H11 H 0.23439 0.19606 0.15537 0.0
H12 H 0.1821 0.14539 0.10121 0.0
H13 H 0.16151 0.17815 0.10416 0.0
H14 H 0.19854 0.17658 0.08864 0.0
H15 H 0.23268 0.19998 0.11776 0.0
H16 H 0.20581 0.21869 0.14053 0.0
C17 C 0.19304 0.12366 0.24035 0.0
C18 C 0.15816 0.09395 0.20969 0.0
C19 C 0.10192 0.25864 0.15328 0.0
C20 C 0.11209 0.27161 0.1283 0.0
C21 C 0.13609 0.25722 0.11359 0.0
C22 C 0.15027 0.23186 0.12358 0.0
C23 C 0.14052 0.21971 0.14863 0.0
C24 C 0.1164 0.23271 0.16296 0.0
C25 C 0.1087 0.21543 0.18867 0.0
C26 C 0.13249 0.19047 0.18752 0.0
C27 C 0.15117 0.19344 0.16391 0.0
C28 C 0.11224 0.23392 0.21522 0.0
C29 C 0.07668 0.20547 0.18466 0.0
C30 C 0.24392 0.13552 0.12699 0.0
C31 C 0.25988 0.11026 0.13582 0.0
C32 C 0.24914 0.09655 0.15994 0.0
C33 C 0.22371 0.10769 0.17486 0.0
C34 C 0.20825 0.13295 0.1658 0.0
C35 C 0.2184 0.14629 0.1421 0.0
C36 C 0.19897 0.17264 0.13511 0.0
C37 C 0.17568 0.17317 0.15863 0.0
C38 C 0.18118 0.14989 0.17669 0.0
C39 C 0.21883 0.19831 0.13704 0.0
C40 C 0.18461 0.16826 0.10572 0.0
H41 H 0.08484 0.18699 0.24181 0.0
H42 H 0.14169 0.09863 0.27237 0.0
H43 H 0.13389 0.09238 0.20497 0.0
H44 H 0.16961 0.09011 0.18929 0.0
H45 H 0.16513 0.07651 0.2244 0.0
H46 H 0.19194 0.14206 0.25514 0.0
H47 H 0.19655 0.10405 0.25309 0.0
H48 H 0.2132 0.12623 0.22742 0.0
H49 H 0.08345 0.26856 0.16525 0.0
H50 H 0.144 0.26536 0.09386 0.0
H51 H 0.16844 0.22263 0.11117 0.0
H52 H 0.13357 0.24484 0.21428 0.0
H53 H 0.09344 0.25044 0.21698 0.0
H54 H 0.11334 0.2214 0.2348 0.0
H55 H 0.07348 0.19794 0.16267 0.0
H56 H 0.07209 0.18738 0.19825 0.0
H57 H 0.05953 0.2231 0.18881 0.0
H58 H 0.06854 0.16241 0.28306 0.0
C59 C 0.0976 0.16791 0.24774 0.0
C60 C 0.26463 0.87971 0.62508 0.0
C61 C 0.2487 0.90496 0.63402 0.0
C62 C 0.25896 0.91863 0.65845 0.0
C63 C 0.29988 0.88233 0.66432 0.0
C64 C 0.29001 0.86897 0.64035 0.0
C65 C 0.30973 0.84284 0.63315 0.0
H66 H 0.42833 0.74984 0.66178 0.0
C67 C 0.327 0.8656 0.6752 0.0
C68 C 0.33286 0.84245 0.65685 0.0
H69 H 0.36706 0.75048 0.59107 0.0
H70 H 0.34071 0.79263 0.60904 0.0
H71 H 0.43562 0.8195 0.66098 0.0
H72 H 0.37677 0.77067 0.71122 0.0
H73 H 0.39545 0.79476 0.73254 0.0
H74 H 0.41694 0.76664 0.71457 0.0
H75 H 0.44997 0.79513 0.68747 0.0
H76 H 0.43617 0.83072 0.69645 0.0
C77 C 0.3242 0.84747 0.60395 0.0
C78 C 0.29019 0.81693 0.63456 0.0
C79 C 0.3787 0.89787 0.76512 0.0
C80 C 0.404 0.88743 0.78084 0.0
C81 C 0.41973 0.86234 0.77083 0.0
C82 C 0.41061 0.84817 0.74626 0.0
C83 C 0.38538 0.85896 0.73092 0.0
C84 C 0.36996 0.88351 0.74052 0.0
C85 C 0.34377 0.89223 0.72164 0.0
C86 C 0.3459 0.86906 0.69916 0.0
C87 C 0.37038 0.84935 0.70455 0.0
C88 C 0.34917 0.92173 0.70919 0.0
C89 C 0.31461 0.89139 0.73916 0.0
C90 C 0.40911 0.75905 0.65034 0.0
C91 C 0.39994 0.74655 0.62474 0.0
C92 C 0.37496 0.75957 0.61051 0.0
C93 C 0.35951 0.78416 0.6211 0.0
C94 C 0.36895 0.79655 0.64635 0.0
C95 C 0.39349 0.78419 0.66056 0.0
C96 C 0.40065 0.80138 0.6866 0.0
C97 C 0.37622 0.8257 0.68571 0.0
C98 C 0.35763 0.82248 0.66201 0.0
C99 C 0.43234 0.81221 0.68297 0.0
C100 C 0.39751 0.78246 0.71276 0.0
H101 H 0.29059 0.91899 0.69198 0.0
H102 H 0.25784 0.86874 0.60626 0.0
H103 H 0.27433 0.81905 0.65263 0.0
H104 H 0.30342 0.79671 0.63815 0.0
H105 H 0.27667 0.81505 0.61504 0.0
H106 H 0.32717 0.87036 0.60014 0.0
H107 H 0.31004 0.83977 0.58661 0.0
H108 H 0.34709 0.8372 0.60216 0.0
H109 H 0.36555 0.91671 0.77192 0.0
H110 H 0.43955 0.85372 0.78176 0.0
H111 H 0.42366 0.8293 0.74003 0.0
H112 H 0.37343 0.92366 0.70477 0.0
H113 H 0.34182 0.93901 0.72408 0.0
H114 H 0.33787 0.92554 0.68871 0.0
H115 H 0.31589 0.87288 0.75364 0.0
H116 H 0.29452 0.88872 0.72606 0.0
H117 H 0.31084 0.91088 0.75222 0.0
H118 H 0.24715 0.93787 0.66616 0.0
C119 C 0.28422 0.90751 0.67357 0.0
C120 C 0.58513 0.33972 0.97821 0.0
C121 C 0.55949 0.32899 0.96574 0.0
C122 C 0.54348 0.3455 0.94533 0.0
C123 C 0.58106 0.38017 0.94691 0.0
C124 C 0.59563 0.36514 0.96833 0.0
C125 C 0.62449 0.37771 0.97678 0.0
H126 H 0.7298 0.47056 0.94893 0.0
C127 C 0.59982 0.40333 0.93868 0.0
C128 C 0.62516 0.40228 0.9563 0.0
H129 H 0.73189 0.40643 0.01366 0.0
H130 H 0.68182 0.39429 1.00055 0.0
H131 H 0.6575 0.49373 0.95691 0.0
H132 H 0.70769 0.43446 0.90357 0.0
H133 H 0.67703 0.44686 0.88305 0.0
H134 H 0.70359 0.47146 0.89522 0.0
H135 H 0.68346 0.5035 0.93033 0.0
H136 H 0.64464 0.49889 0.92202 0.0
C137 C 0.62139 0.38812 1.00768 0.0
C138 C 0.65066 0.35504 0.97165 0.0
C139 C 0.57635 0.45573 0.84772 0.0
C140 C 0.59296 0.47396 0.83158 0.0
C141 C 0.61834 0.4856 0.84355 0.0
C142 C 0.6281 0.47778 0.87066 0.0
C143 C 0.61264 0.45768 0.88566 0.0
C144 C 0.58673 0.44764 0.87449 0.0
C145 C 0.57434 0.42504 0.89245 0.0
C146 C 0.59749 0.4227 0.91591 0.0
C147 C 0.61986 0.44179 0.91179 0.0
C148 C 0.54315 0.43635 0.90347 0.0
C149 C 0.57409 0.39744 0.87451 0.0
C150 C 0.7192 0.45428 0.96063 0.0
C151 C 0.73457 0.43949 0.98241 0.0
C152 C 0.7204 0.41797 0.99671 0.0
C153 C 0.69139 0.41101 0.98907 0.0
C154 C 0.67669 0.42535 0.96653 0.0
C155 C 0.69053 0.44678 0.95293 0.0
C156 C 0.67248 0.45867 0.92848 0.0
C157 C 0.64521 0.44119 0.9299 0.0
C158 C 0.64779 0.42166 0.95215 0.0
C159 C 0.66412 0.49044 0.93447 0.0
C160 C 0.69101 0.45283 0.90111 0.0
H161 H 0.54136 0.38215 0.9198 0.0
H162 H 0.59763 0.32793 0.99439 0.0
H163 H 0.64635 0.34205 0.95262 0.0
H164 H 0.67227 0.36425 0.96737 0.0
H165 H 0.65352 0.34037 0.98983 0.0
H166 H 0.59827 0.39741 0.01186 0.0
H167 H 0.62594 0.37033 0.02264 0.0
H168 H 0.63627 0.40524 0.01273 0.0
H169 H 0.55702 0.44614 0.83885 0.0
H170 H 0.63127 0.49994 0.83148 0.0
H171 H 0.64805 0.48671 0.87835 0.0
H172 H 0.54242 0.45969 0.90706 0.0
H173 H 0.52514 0.43207 0.88814 0.0
H174 H 0.53763 0.42739 0.92418 0.0
H175 H 0.59347 0.39566 0.85974 0.0
H176 H 0.57656 0.37787 0.8871 0.0
H177 H 0.55326 0.39706 0.86171 0.0
H178 H 0.52378 0.33787 0.93519 0.0
C179 C 0.55396 0.37114 0.9361 0.0
C180 C 0.94792 0.66958 0.455 0.0
C181 C 0.93394 0.69036 0.47257 0.0
C182 C 0.90811 0.68402 0.48772 0.0
C183 C 0.90796 0.63841 0.46395 0.0
C184 C 0.93452 0.64401 0.4508 0.0
C185 C 0.9445 0.62164 0.42971 0.0
H186 H 0.90399 0.52302 0.33985 0.0
C187 C 0.89781 0.61171 0.45189 0.0
C188 C 0.91944 0.60157 0.43217 0.0
H189 H 0.987 0.56522 0.34321 0.0
H190 H 0.97495 0.58237 0.38998 0.0
H191 H 0.90772 0.50112 0.40425 0.0
H192 H 0.86027 0.57205 0.36448 0.0
H193 H 0.83559 0.55383 0.38605 0.0
H194 H 0.85463 0.53524 0.35783 0.0
H195 H 0.87012 0.4987 0.39171 0.0
H196 H 0.87767 0.51062 0.42713 0.0
C197 C 0.97516 0.60759 0.43936 0.0
C198 C 0.94504 0.63617 0.40041 0.0
C199 C 0.79293 0.58112 0.47324 0.0
C200 C 0.77708 0.5581 0.46375 0.0
C201 C 0.7915 0.5377 0.44576 0.0
C202 C 0.82088 0.54065 0.43657 0.0
C203 C 0.83595 0.56437 0.4452 0.0
C204 C 0.82245 0.58362 0.46398 0.0
C205 C 0.8428 0.60659 0.47196 0.0
C206 C 0.87063 0.59788 0.45475 0.0
C207 C 0.86599 0.57362 0.4385 0.0
C208 C 0.84901 0.60484 0.50404 0.0
C209 C 0.82759 0.63528 0.46214 0.0
C210 C 0.91962 0.53573 0.35092 0.0
C211 C 0.94591 0.54364 0.33758 0.0
C212 C 0.96644 0.55913 0.3529 0.0
C213 C 0.95921 0.56941 0.37989 0.0
C214 C 0.93098 0.56465 0.39129 0.0
C215 C 0.9126 0.54645 0.37784 0.0
C216 C 0.88417 0.54275 0.39406 0.0
C217 C 0.88744 0.5639 0.41802 0.0
C218 C 0.91455 0.57713 0.41573 0.0
C219 C 0.88472 0.51172 0.40478 0.0
C220 C 0.8571 0.5513 0.37471 0.0
H221 H 0.87486 0.65468 0.49494 0.0
H222 H 0.96805 0.67383 0.44344 0.0
H223 H 0.92493 0.6511 0.39764 0.0
H224 H 0.94443 0.62143 0.38247 0.0
H225 H 0.96525 0.64851 0.39814 0.0
H226 H 0.97834 0.60966 0.46253 0.0
H227 H 0.99414 0.61747 0.42896 0.0
H228 H 0.97699 0.58442 0.43529 0.0
H229 H 0.78258 0.59679 0.48754 0.0
H230 H 0.77972 0.51979 0.4382 0.0
H231 H 0.83051 0.52474 0.42255 0.0
H232 H 0.84957 0.58249 0.51145 0.0
H233 H 0.8313 0.61717 0.51617 0.0
H234 H 0.8712 0.61225 0.50982 0.0
H235 H 0.81748 0.6331 0.44084 0.0
H236 H 0.84332 0.65217 0.46003 0.0
H237 H 0.80935 0.64273 0.47682 0.0
H238 H 0.89705 0.69977 0.5015 0.0
C239 C 0.89511 0.65801 0.48361 0.0
C240 C 0.88459 0.75953 0.89004 0.0
C241 C 0.91133 0.74406 0.88174 0.0
C242 C 0.92679 0.7545 0.8582 0.0
C243 C 0.88929 0.79425 0.85232 0.0
C244 C 0.87431 0.78426 0.87541 0.0
C245 C 0.84683 0.80301 0.88265 0.0
H246 H 0.75341 0.91969 0.85953 0.0
C247 C 0.87228 0.82075 0.84201 0.0
C248 C 0.84743 0.8258 0.86014 0.0
H249 H 0.74839 0.85649 0.92474 0.0
H250 H 0.79252 0.83107 0.90642 0.0
H251 H 0.76887 0.87567 0.81 0.0
H252 H 0.82726 0.92315 0.86174 0.0
H253 H 0.83906 0.92532 0.82647 0.0
H254 H 0.80199 0.93934 0.83613 0.0
H255 H 0.77341 0.91265 0.80413 0.0
H256 H 0.79826 0.88538 0.78829 0.0
C257 C 0.81903 0.78519 0.87948 0.0
C258 C 0.8513 0.8153 0.91263 0.0
C259 C 0.90568 0.87552 0.75435 0.0
C260 C 0.8936 0.90037 0.74047 0.0
C261 C 0.86683 0.91367 0.75157 0.0
C262 C 0.8529 0.90333 0.77565 0.0
C263 C 0.86535 0.87901 0.78937 0.0
C264 C 0.89124 0.86529 0.77866 0.0
C265 C 0.90081 0.83942 0.79627 0.0
C266 C 0.87638 0.83986 0.81897 0.0
C267 C 0.85569 0.86341 0.81479 0.0
C268 C 0.90026 0.81283 0.77728 0.0
C269 C 0.93199 0.84391 0.80907 0.0
C270 C 0.76198 0.90051 0.87001 0.0
C271 C 0.74693 0.89021 0.89374 0.0
C272 C 0.75893 0.86487 0.90629 0.0
C273 C 0.78487 0.85013 0.89567 0.0
C274 C 0.79951 0.86051 0.87198 0.0
C275 C 0.78799 0.88527 0.85946 0.0
C276 C 0.80629 0.8926 0.83399 0.0
C277 C 0.83089 0.8685 0.83365 0.0
C278 C 0.82679 0.8498 0.85606 0.0
C279 C 0.78579 0.8918 0.80763 0.0
C280 C 0.81929 0.9217 0.83957 0.0
H281 H 0.92893 0.78577 0.826 0.0
H282 H 0.87145 0.75251 0.9075 0.0
H283 H 0.87534 0.81887 0.91663 0.0
H284 H 0.83948 0.83635 0.91576 0.0
H285 H 0.84397 0.80059 0.92908 0.0
H286 H 0.82193 0.77004 0.86151 0.0
H287 H 0.81542 0.77264 0.89878 0.0
H288 H 0.79824 0.79821 0.87457 0.0
H289 H 0.92614 0.86452 0.74679 0.0
H290 H 0.85614 0.93215 0.74138 0.0
H291 H 0.83274 0.91479 0.78265 0.0
H292 H 0.87923 0.81344 0.76461 0.0
H293 H 0.91953 0.81165 0.76243 0.0
H294 H 0.90073 0.79296 0.78942 0.0
H295 H 0.93291 0.86598 0.81716 0.0
H296 H 0.93728 0.83001 0.82726 0.0
H297 H 0.94992 0.8403 0.793 0.0
H298 H 0.94767 0.74387 0.8512 0.0
C299 C 0.91597 0.77919 0.84355 0.0
C300 C 0.74586 0.13667 0.39215 0.0
C301 C 0.76149 0.11104 0.38376 0.0
C302 C 0.7505 0.09672 0.35998 0.0
C303 C 0.70973 0.13311 0.35376 0.0
C304 C 0.72025 0.1471 0.37707 0.0
C305 C 0.70108 0.17373 0.3837 0.0
H306 H 0.57795 0.26233 0.35997 0.0
C307 C 0.68239 0.14964 0.34303 0.0
C308 C 0.67721 0.17341 0.36071 0.0
H309 H 0.64809 0.26885 0.42246 0.0
H310 H 0.67368 0.22678 0.40445 0.0
H311 H 0.5748 0.19199 0.36104 0.0
H312 H 0.62725 0.24398 0.30755 0.0
H313 H 0.60947 0.21843 0.28739 0.0
H314 H 0.58695 0.24556 0.30581 0.0
H315 H 0.55744 0.21682 0.33641 0.0
H316 H 0.5716 0.18202 0.32527 0.0
C317 C 0.68752 0.17029 0.41346 0.0
C318 C 0.72085 0.19939 0.38068 0.0
C319 C 0.62857 0.1154 0.25508 0.0
C320 C 0.60273 0.12532 0.23984 0.0
C321 C 0.5866 0.15005 0.2502 0.0
C322 C 0.59594 0.16447 0.27455 0.0
C323 C 0.62188 0.15435 0.28924 0.0
C324 C 0.63758 0.13004 0.27942 0.0
C325 C 0.66434 0.12184 0.2978 0.0
C326 C 0.6626 0.14539 0.31989 0.0
C327 C 0.63757 0.16463 0.31498 0.0
C328 C 0.65955 0.0925 0.31092 0.0
C329 C 0.69301 0.1226 0.27958 0.0
C330 C 0.59885 0.25476 0.36976 0.0
C331 C 0.61014 0.26906 0.39361 0.0
C332 C 0.63777 0.25818 0.40507 0.0
C333 C 0.65302 0.23362 0.3943 0.0
C334 C 0.64115 0.21924 0.37128 0.0
C335 C 0.61478 0.23001 0.35893 0.0
C336 C 0.60673 0.21213 0.33361 0.0
C337 C 0.63215 0.18867 0.33344 0.0
C338 C 0.65209 0.19305 0.35587 0.0
C339 C 0.57591 0.20013 0.33912 0.0
C340 C 0.60739 0.23089 0.30707 0.0
H341 H 0.71804 0.09551 0.3272 0.0
H342 H 0.75352 0.14869 0.40995 0.0
H343 H 0.73884 0.19507 0.36473 0.0
H344 H 0.7081 0.21866 0.37291 0.0
H345 H 0.73192 0.20434 0.40094 0.0
H346 H 0.68119 0.14814 0.41672 0.0
H347 H 0.7039 0.17517 0.43016 0.0
H348 H 0.66656 0.18355 0.41685 0.0
H349 H 0.64195 0.09679 0.24806 0.0
H350 H 0.56631 0.1582 0.23969 0.0
H351 H 0.58248 0.18295 0.28115 0.0
H352 H 0.63536 0.0901 0.31528 0.0
H353 H 0.66744 0.07499 0.29649 0.0
H354 H 0.67075 0.08947 0.33156 0.0
H355 H 0.6915 0.14132 0.26537 0.0
H356 H 0.71352 0.12478 0.2922 0.0
H357 H 0.69614 0.10327 0.2662 0.0
H358 H 0.76135 0.07674 0.35304 0.0
C359 C 0.72499 0.10756 0.34502 0.0
C360 C 0.44266 0.55498 0.16495 0.0
C361 C 0.42518 0.53989 0.1835 0.0
C362 C 0.39802 0.52974 0.17364 0.0
C363 C 0.40356 0.5545 0.1295 0.0
C364 C 0.43118 0.56265 0.13848 0.0
C365 C 0.44415 0.58361 0.11898 0.0
H366 H 0.4171 0.68714 0.02585 0.0
C367 C 0.39568 0.57021 0.10338 0.0
C368 C 0.41935 0.58727 0.0971 0.0
H369 H 0.49863 0.66536 0.07237 0.0
H370 H 0.47959 0.62074 0.08581 0.0
H371 H 0.37109 0.6691 0.06952 0.0
H372 H 0.41155 0.61972 1.00131 0.0
H373 H 0.37436 0.6101 1.00453 0.0
H374 H 0.38154 0.64617 0.99543 0.0
H375 H 0.36343 0.67668 0.03303 0.0
H376 H 0.34293 0.65137 0.05193 0.0
C377 C 0.44809 0.61123 0.13614 0.0
C378 C 0.4736 0.56985 0.10624 0.0
C379 C 0.29235 0.56299 0.06052 0.0
C380 C 0.27659 0.57806 0.03914 0.0
C381 C 0.29071 0.59938 0.0245 0.0
C382 C 0.32027 0.60555 0.03107 0.0
C383 C 0.3356 0.59058 0.05287 0.0
C384 C 0.32159 0.56966 0.06711 0.0
C385 C 0.34052 0.55696 0.09064 0.0
C386 C 0.36884 0.5727 0.08728 0.0
C387 C 0.36577 0.59254 0.06532 0.0
C388 C 0.32421 0.56408 0.11899 0.0
C389 C 0.34645 0.52483 0.0848 0.0
C390 C 0.43102 0.67241 0.03843 0.0
C391 C 0.45897 0.67995 0.04882 0.0
C392 C 0.47673 0.66019 0.06476 0.0
C393 C 0.46559 0.63444 0.07267 0.0
C394 C 0.43614 0.62879 0.06518 0.0
C395 C 0.42003 0.64661 0.04686 0.0
C396 C 0.38958 0.63611 0.04031 0.0
C397 C 0.38945 0.61033 0.05942 0.0
C398 C 0.41654 0.60673 0.07442 0.0
C399 C 0.36531 0.65946 0.04893 0.0
C400 C 0.38892 0.62772 1.00874 0.0
H401 H 0.36601 0.52923 0.14058 0.0
H402 H 0.46395 0.56251 0.17167 0.0
H403 H 0.47378 0.54627 0.10627 0.0
H404 H 0.47639 0.57551 0.0838 0.0
H405 H 0.49355 0.57588 0.11835 0.0
H406 H 0.4283 0.61621 0.14995 0.0
H407 H 0.4683 0.60898 0.14984 0.0
H408 H 0.44982 0.63026 0.12316 0.0
H409 H 0.28177 0.54691 0.07251 0.0
H410 H 0.27889 0.61119 1.0079 0.0
H411 H 0.32986 0.62205 0.0193 0.0
H412 H 0.30714 0.58219 0.11692 0.0
H413 H 0.3124 0.5457 0.12686 0.0
H414 H 0.33968 0.57099 0.13555 0.0
H415 H 0.35241 0.52102 0.06227 0.0
H416 H 0.3655 0.51526 0.09712 0.0
H417 H 0.32619 0.51318 0.0894 0.0
H418 H 0.3841 0.51793 0.1874 0.0
C419 C 0.38729 0.53672 0.14658 0.0
C420 C 0.06001 0.34527 0.55316 0.0
C421 C 0.07331 0.32711 0.53256 0.0
C422 C 0.09846 0.33581 0.5177 0.0
C423 C 0.09927 0.37788 0.54708 0.0
C424 C 0.07334 0.37033 0.56012 0.0
C425 C 0.06403 0.38989 0.584 0.0
H426 H 0.10475 0.48285 0.68101 0.0
C427 C 0.10969 0.40299 0.56199 0.0
C428 C 0.08881 0.41039 0.58333 0.0
H429 H 0.02376 0.43752 0.67728 0.0
H430 H 0.03542 0.42273 0.62966 0.0
H431 H 0.09935 0.50777 0.61832 0.0
H432 H 0.149 0.4352 0.65314 0.0
H433 H 0.17298 0.45487 0.63234 0.0
H434 H 0.15454 0.47156 0.662 0.0
H435 H 0.13644 0.51046 0.63213 0.0
H436 H 0.1302 0.50113 0.59568 0.0
C437 C 0.033 0.40476 0.57677 0.0
C438 C 0.06465 0.372 0.61142 0.0
C439 C 0.2138 0.43612 0.54242 0.0
C440 C 0.22993 0.45792 0.55413 0.0
C441 C 0.21588 0.47649 0.5741 0.0
C442 C 0.18662 0.47268 0.5832 0.0
C443 C 0.17133 0.44995 0.57239 0.0
C444 C 0.18443 0.43276 0.5516 0.0
C445 C 0.16391 0.41076 0.54147 0.0
C446 C 0.13658 0.41737 0.56002 0.0
C447 C 0.14153 0.43982 0.57862 0.0
C448 C 0.15683 0.41614 0.5099 0.0
C449 C 0.1794 0.38116 0.54777 0.0
C450 C 0.08948 0.46991 0.66973 0.0
C451 C 0.06378 0.46067 0.68305 0.0
C452 C 0.04381 0.44474 0.66753 0.0
C453 C 0.05079 0.43591 0.63999 0.0
C454 C 0.07822 0.44269 0.6281 0.0
C455 C 0.09628 0.46068 0.64228 0.0
C456 C 0.12414 0.46622 0.62592 0.0
C457 C 0.12069 0.44697 0.60048 0.0
C458 C 0.09406 0.43287 0.60226 0.0
C459 C 0.12271 0.49802 0.61765 0.0
C460 C 0.15176 0.45661 0.64418 0.0
H461 H 0.13105 0.36628 0.51331 0.0
H462 H 0.04093 0.33917 0.56524 0.0
H463 H 0.08413 0.35605 0.61139 0.0
H464 H 0.06742 0.38447 0.63077 0.0
H465 H 0.04394 0.36034 0.61346 0.0
H466 H 0.0298 0.40679 0.55358 0.0
H467 H 0.0144 0.39267 0.58503 0.0
H468 H 0.03054 0.42682 0.58483 0.0
H469 H 0.22388 0.42196 0.52656 0.0
H470 H 0.22789 0.49348 0.58331 0.0
H471 H 0.17729 0.48712 0.59882 0.0
H472 H 0.15727 0.43906 0.5047 0.0
H473 H 0.17347 0.40433 0.49614 0.0
H474 H 0.13397 0.41047 0.50402 0.0
H475 H 0.18953 0.38078 0.56923 0.0
H476 H 0.16387 0.36397 0.54762 0.0
H477 H 0.19766 0.37574 0.53241 0.0
H478 H 0.1088 0.32245 0.50133 0.0
C479 C 0.11139 0.36121 0.52474 0.0
C480 C 0.03148 0.02857 0.46059 0.0
N481 N 0.0123 0.0677 0.53874 0.0
C482 C 0.04028 0.07731 0.53649 0.0
C483 C 0.04495 0.1057 0.54163 0.0
C484 C 0.02054 0.12454 0.54866 0.0
C485 C 0.99216 0.11389 0.55231 0.0
C486 C 0.98855 0.08509 0.5474 0.0
Zn487 Zn 0.00632 0.02884 0.52169 0.0
C488 C 0.94867 0.02938 0.48793 0.0
N489 N 0.99637 0.94946 0.48188 0.0
C490 C 0.02012 0.93225 0.4729 0.0
C491 C 0.96833 0.93989 0.4836 0.0
C492 C 0.96348 0.91179 0.47716 0.0
C493 C 0.98783 0.89319 0.46948 0.0
C494 C 0.01637 0.90371 0.46681 0.0
Zn495 Zn 1.00236 0.98825 0.49908 0.0
O496 O 0.02757 0.04315 0.48313 0.0
C497 C 0.06007 0.98766 0.53269 0.0
O498 O 0.02351 1.00307 0.46061 0.0
H499 H 0.94989 0.95361 0.4915 0.0
H500 H 0.05871 0.06342 0.52886 0.0
H501 H 0.04224 0.94026 0.47177 0.0
O502 O 0.04917 0.01254 0.53862 0.0
O503 O 0.04549 0.97256 0.51589 0.0
H504 H 0.96648 0.07704 0.54892 0.0
O505 O 0.98115 0.97386 0.5379 0.0
O506 O 0.98516 0.01423 0.55995 0.0
O507 O 0.95956 1.00445 0.48224 0.0
O508 O 0.9632 0.04459 0.50467 0.0
C509 C 0.97725 0.98873 0.56029 0.0
H510 H 0.06709 0.11318 0.53815 0.0
H511 H 0.97284 0.12785 0.55783 0.0
H512 H 0.94124 0.90428 0.47984 0.0
H513 H 0.03563 0.88984 0.46087 0.0
C514 C 0.55915 0.985 0.98762 0.0
N515 N 0.51129 0.06514 0.98254 0.0
C516 C 0.53916 0.07493 0.98505 0.0
C517 C 0.5435 0.10349 0.98089 0.0
C518 C 0.51885 0.12239 0.97465 0.0
C519 C 0.49068 0.11143 0.97019 0.0
C520 C 0.48739 0.08248 0.97423 0.0
Zn521 Zn 0.50567 0.02613 0.99905 0.0
C522 C 0.47597 0.98622 0.96074 0.0
N523 N 0.49598 0.94687 0.03839 0.0
C524 C 0.52031 0.92999 0.04643 0.0
C525 C 0.46831 0.93656 0.0364 0.0
C526 C 0.46461 0.90789 0.0409 0.0
C527 C 0.48976 0.8894 0.04676 0.0
C528 C 0.51774 0.90098 0.05054 0.0
Zn529 Zn 0.50133 0.9859 0.0218 0.0
O530 O 0.54862 0.00995 0.98162 0.0
C531 C 0.531 0.02586 0.06016 0.0
O532 O 0.54431 0.97037 1.00446 0.0
H533 H 0.4493 0.95019 0.02964 0.0
H534 H 0.55779 0.06099 0.9921 0.0
H535 H 0.54213 0.93861 0.04791 0.0
O536 O 0.52718 0.04034 0.03767 0.0
O537 O 0.52277 1.00048 0.06011 0.0
H538 H 0.4654 0.07427 0.97248 0.0
O539 O 0.45863 1.00187 0.03906 0.0
O540 O 0.46245 0.04173 0.0165 0.0
O541 O 0.4798 0.97168 0.9832 0.0
O542 O 0.48423 0.01159 0.96079 0.0
C543 C 0.44785 0.02679 0.03329 0.0
H544 H 0.56576 0.11091 0.98385 0.0
H545 H 0.47106 0.12526 0.96537 0.0
H546 H 0.44242 0.90015 0.0386 0.0
H547 H 0.53783 0.88765 0.05494 0.0
C548 C 0.52371 0.45395 0.48675 0.0
N549 N 0.52358 0.48864 0.56945 0.0
C550 C 0.51762 0.46397 0.58237 0.0
C551 C 0.52677 0.45908 0.61027 0.0
C552 C 0.54214 0.47981 0.62476 0.0
C553 C 0.54809 0.50485 0.61067 0.0
C554 C 0.53871 0.50878 0.58299 0.0
Zn555 Zn 0.5095 0.49904 0.52983 0.0
C556 C 0.5599 0.52632 0.49934 0.0
N557 N 0.48376 0.52665 0.44808 0.0
C558 C 0.46895 0.5065 0.4342 0.0
C559 C 0.49036 0.55116 0.43522 0.0
C560 C 0.48248 0.55578 0.40697 0.0
C561 C 0.4677 0.53494 0.39206 0.0
C562 C 0.46071 0.51021 0.40617 0.0
Zn563 Zn 0.4975 0.51635 0.48781 0.0
O564 O 0.52418 0.45727 0.51344 0.0
C565 C 0.44713 0.48915 0.51836 0.0
O566 O 0.51408 0.47487 0.47167 0.0
H567 H 0.50224 0.56683 0.44669 0.0
H568 H 0.5055 0.44829 0.57117 0.0
H569 H 0.46419 0.48701 0.44466 0.0
O570 O 0.46639 0.48483 0.53787 0.0
O571 O 0.4547 0.50129 0.49588 0.0
H572 H 0.54311 0.52834 0.57249 0.0
O573 O 0.48133 0.55768 0.5043 0.0
O574 O 0.49433 0.54099 0.54579 0.0
O575 O 0.54032 0.53162 0.4803 0.0
O576 O 0.55264 0.51314 0.5213 0.0
C577 C 0.48331 0.56148 0.53086 0.0
H578 H 0.52188 0.43938 0.62036 0.0
H579 H 0.55922 0.5217 0.62112 0.0
H580 H 0.4881 0.57525 0.39687 0.0
H581 H 0.44991 0.49334 0.3954 0.0
C582 C 0.98482 0.56108 0.98662 0.0
N583 N 0.98859 0.52995 0.07081 0.0
C584 C 0.99687 0.55428 0.08323 0.0
C585 C 0.99035 0.55961 0.11171 0.0
C586 C 0.97514 0.53969 0.12725 0.0
C587 C 0.96649 0.51514 0.1136 0.0
C588 C 0.97343 0.5107 0.08539 0.0
Zn589 Zn 1.00046 0.51784 0.03096 0.0
C590 C 0.94907 0.48916 1.00382 0.0
N591 N 0.02266 0.48607 0.9496 0.0
C592 C 0.03664 0.50537 0.93399 0.0
C593 C 0.01526 0.46092 0.93833 0.0
C594 C 0.02145 0.45469 0.90999 0.0
C595 C 0.0354 0.47457 0.89333 0.0
C596 C 0.0432 0.50006 0.9058 0.0
Zn597 Zn 0.01116 0.4985 0.98939 0.0
O598 O 0.98524 0.55913 0.01345 0.0
C599 C 0.06249 0.52736 0.01654 0.0
O600 O 0.99382 0.5393 0.97225 0.0
H601 H 1.00404 0.44596 0.95115 0.0
H602 H 0.00909 0.56919 0.07126 0.0
H603 H 0.04204 0.52538 0.94321 0.0
O604 O 0.04397 0.53223 0.03655 0.0
O605 O 0.0543 0.51406 0.99482 0.0
H606 H 0.96745 0.49125 0.07538 0.0
O607 O 0.02818 0.45799 1.00685 0.0
O608 O 0.01605 0.47622 0.04803 0.0
O609 O 0.96803 0.48277 0.98452 0.0
O610 O 0.95693 0.50375 0.02477 0.0
C611 C 0.02675 0.45515 0.03353 0.0
H612 H 0.99733 0.57888 0.12149 0.0
H613 H 0.95537 0.49889 0.12486 0.0
H614 H 0.01524 0.4347 0.90118 0.0
H615 H 0.0534 0.51625 0.89366 0.0
H616 H 0.07646 0.15108 0.33013 0.0
H617 H 0.10741 0.07046 0.29388 0.0
H618 H 0.05943 0.12698 0.37168 0.0
H619 H 0.09198 0.04646 0.33625 0.0
H620 H 0.03605 1.00712 0.40611 0.0
H621 H 0.053 0.03045 0.36363 0.0
H622 H 0.07241 0.10391 0.41334 0.0
H623 H 0.05456 0.08094 0.45536 0.0
C624 C 0.07971 0.12819 0.3308 0.0
C625 C 0.09347 0.11307 0.30801 0.0
C626 C 0.07026 0.11421 0.35515 0.0
C627 C 0.07424 0.08443 0.35799 0.0
C628 C 0.08801 0.06927 0.3352 0.0
C629 C 0.09737 0.08326 0.31078 0.0
C630 C 0.04406 0.02821 0.40802 0.0
C631 C 0.04377 0.04197 0.43448 0.0
C632 C 0.05399 0.0417 0.38349 0.0
C633 C 0.06415 0.06947 0.38444 0.0
C634 C 0.06429 0.08291 0.41111 0.0
C635 C 0.05423 0.06951 0.43553 0.0
H636 H 0.43085 0.86431 0.82904 0.0
H637 H 0.39993 0.94507 0.79367 0.0
H638 H 0.44774 0.88826 0.87101 0.0
H639 H 0.41519 0.96891 0.83646 0.0
H640 H 0.47177 0.00763 0.90655 0.0
H641 H 0.45469 0.98445 0.86382 0.0
H642 H 0.43419 0.91133 0.91284 0.0
H643 H 0.45221 0.93415 0.95516 0.0
C644 C 0.42758 0.8872 0.83002 0.0
C645 C 0.41391 0.90245 0.80737 0.0
C646 C 0.43694 0.90106 0.85458 0.0
C647 C 0.43291 0.93082 0.85773 0.0
C648 C 0.41918 0.9461 0.83511 0.0
C649 C 0.40993 0.93223 0.81047 0.0
C650 C 0.46348 0.98666 0.90826 0.0
C651 C 0.46352 0.97292 0.93458 0.0
C652 C 0.45348 0.97327 0.8836 0.0
C653 C 0.44299 0.94566 0.88432 0.0
C654 C 0.44258 0.93223 0.91085 0.0
C655 C 0.45273 0.94553 0.93541 0.0
H656 H 0.63196 0.46698 0.78804 0.0
H657 H 0.5385 0.48742 0.80701 0.0
H658 H 0.62035 0.46631 0.73796 0.0
H659 H 0.5268 0.48782 0.75668 0.0
H660 H 0.51035 0.45742 0.66774 0.0
H661 H 0.52325 0.45612 0.7177 0.0
H662 H 0.606 0.49521 0.69948 0.0
H663 H 0.59409 0.49468 0.6496 0.0
C664 C 0.60902 0.47207 0.78137 0.0
C665 C 0.58614 0.47747 0.80129 0.0
C666 C 0.60232 0.47161 0.75268 0.0
C667 C 0.5726 0.47689 0.74324 0.0
C668 C 0.54982 0.48308 0.76323 0.0
C669 C 0.55651 0.48318 0.792 0.0
C670 C 0.5316 0.46512 0.67438 0.0
C671 C 0.55108 0.47633 0.65472 0.0
C672 C 0.53877 0.46485 0.70306 0.0
C673 C 0.56548 0.47593 0.71269 0.0
C674 C 0.58533 0.48634 0.69287 0.0
C675 C 0.57833 0.48633 0.66425 0.0
H676 H 0.99657 0.52582 0.30812 0.0
H677 H 0.9036 0.55518 0.2976 0.0
H678 H 1.00321 0.52605 0.25696 0.0
H679 H 0.91027 0.55621 0.24689 0.0
H680 H 0.92463 0.52817 0.15612 0.0
H681 H 0.91791 0.52695 0.20683 0.0
H682 H 0.00568 0.559 0.21859 0.0
H683 H 0.01311 0.55855 0.16762 0.0
C684 C 0.97755 0.5321 0.29483 0.0
C685 C 0.94951 0.54014 0.30677 0.0
C686 C 0.98138 0.53254 0.2656 0.0
C687 C 0.9573 0.54132 0.24782 0.0
C688 C 0.92917 0.54888 0.25986 0.0
C689 C 0.92529 0.54818 0.28896 0.0
C690 C 0.94253 0.53492 0.16953 0.0
C691 C 0.96952 0.5432 0.15787 0.0
C692 C 0.93858 0.53447 0.19863 0.0
C693 C 0.96136 0.54265 0.21682 0.0
C694 C 0.98792 0.55202 0.20516 0.0
C695 C 0.99198 0.55226 0.17596 0.0
H696 H 0.27248 0.11211 0.0786 0.0
H697 H 0.31056 0.08091 0.15719 0.0
H698 H 0.31688 0.09245 0.05362 0.0
H699 H 0.35443 0.06074 0.13205 0.0
H700 H 0.41514 1.00299 0.07503 0.0
H701 H 0.37018 0.02297 0.09895 0.0
H702 H 0.37091 0.0978 0.04715 0.0
H703 H 0.41595 0.07774 0.02311 0.0
C704 C 0.29028 0.1013 0.09072 0.0
C705 C 0.28742 0.09822 0.12017 0.0
C706 C 0.31587 0.08989 0.07626 0.0
C707 C 0.33943 0.07476 0.09064 0.0
C708 C 0.33664 0.07174 0.12004 0.0
C709 C 0.31123 0.08334 0.13453 0.0
C710 C 0.4057 0.02366 0.06858 0.0
C711 C 0.41939 0.03865 0.04702 0.0
C712 C 0.37992 0.03526 0.08251 0.0
C713 C 0.36673 0.06217 0.07522 0.0
C714 C 0.38012 0.07696 0.0533 0.0
C715 C 0.40612 0.06546 0.03953 0.0
H716 H 0.20276 0.87666 0.61012 0.0
H717 H 0.23304 0.96086 0.62159 0.0
H718 H 0.15827 0.89645 0.58548 0.0
H719 H 0.18905 0.9807 0.59636 0.0
H720 H 0.09263 0.01145 0.57483 0.0
H721 H 0.1375 0.99157 0.59864 0.0
H722 H 0.13799 0.91762 0.54463 0.0
H723 H 0.09234 0.93715 0.5216 0.0
C724 C 0.20015 0.89941 0.60711 0.0
C725 C 0.22164 0.91707 0.61808 0.0
C726 C 0.17452 0.91085 0.59281 0.0
C727 C 0.16959 0.94038 0.58874 0.0
C728 C 0.19138 0.95797 0.59944 0.0
C729 C 0.21684 0.94653 0.61393 0.0
C730 C 0.10234 0.99098 0.56793 0.0
C731 C 0.08866 0.976 0.5462 0.0
C732 C 0.12836 0.97954 0.58154 0.0
C733 C 0.14183 0.95279 0.57378 0.0
C734 C 0.12827 0.93799 0.55174 0.0
C735 C 0.10209 0.94935 0.53827 0.0
H736 H 0.75642 0.49116 0.99187 0.0
H737 H 0.78322 0.40179 0.98682 0.0
H738 H 0.80884 0.50191 0.99821 0.0
H739 H 0.83581 0.41255 0.99319 0.0
H740 H 0.92575 0.45193 0.96642 0.0
H741 H 0.87373 0.43856 0.96347 0.0
H742 H 0.85034 0.4931 0.03441 0.0
H743 H 0.90204 0.5064 0.03752 0.0
C744 C 0.77356 0.47384 0.99237 0.0
C745 C 0.76588 0.44567 0.98893 0.0
C746 C 0.80348 0.47996 0.99609 0.0
C747 C 0.82631 0.45805 0.99609 0.0
C748 C 0.81861 0.42982 0.99306 0.0
C749 C 0.78859 0.42366 0.98972 0.0
C750 C 0.90951 0.46097 0.98142 0.0
C751 C 0.91797 0.48031 1.0021 0.0
C752 C 0.87984 0.45318 0.97984 0.0
C753 C 0.85809 0.46487 0.99869 0.0
C754 C 0.86662 0.48397 0.01949 0.0
C755 C 0.89626 0.4915 0.02128 0.0
H756 H 0.75154 0.51118 0.48323 0.0
H757 H 0.73114 0.5991 0.46185 0.0
H758 H 0.69855 0.50578 0.49304 0.0
H759 H 0.67795 0.59375 0.47187 0.0
H760 H 0.58371 0.55636 0.45632 0.0
H761 H 0.63642 0.56618 0.44964 0.0
H762 H 0.65937 0.52368 0.52787 0.0
H763 H 0.60705 0.51384 0.53461 0.0
C764 C 0.73569 0.52937 0.4808 0.0
C765 C 0.74536 0.55553 0.47178 0.0
C766 C 0.70543 0.52635 0.48657 0.0
C767 C 0.68417 0.54936 0.48318 0.0
C768 C 0.69387 0.57565 0.47447 0.0
C769 C 0.72426 0.57876 0.46901 0.0
C770 C 0.59999 0.54933 0.47218 0.0
C771 C 0.59123 0.53414 0.49586 0.0
C772 C 0.63009 0.55507 0.46843 0.0
C773 C 0.65195 0.54551 0.48817 0.0
C774 C 0.64304 0.53098 0.51216 0.0
C775 C 0.61302 0.52545 0.51603 0.0
H776 H 0.14027 0.31313 0.09943 0.0
H777 H 0.05294 0.29504 0.13121 0.0
H778 H 0.11858 0.35555 0.07669 0.0
H779 H 0.03147 0.33884 0.1093 0.0
H780 H 0.01473 0.43712 0.08734 0.0
H781 H 0.03362 0.39346 0.11103 0.0
H782 H 0.08314 0.36783 0.03623 0.0
H783 H 0.06385 0.41115 0.01236 0.0
C784 C 0.11633 0.31786 0.10151 0.0
C785 C 0.09847 0.29966 0.11686 0.0
C786 C 0.10388 0.34256 0.08843 0.0
C787 C 0.0731 0.35066 0.09064 0.0
C788 C 0.05527 0.33336 0.10701 0.0
C789 C 0.0677 0.30818 0.11977 0.0
C790 C 0.02954 0.42213 0.07583 0.0
C791 C 0.03772 0.42792 0.0478 0.0
C792 C 0.04027 0.39694 0.08944 0.0
C793 C 0.06009 0.37694 0.07572 0.0
C794 C 0.06816 0.38272 0.04766 0.0
C795 C 0.05696 0.4076 0.03387 0.0
H796 H 0.59789 0.28243 0.97401 0.0
H797 H 0.50327 0.30832 0.96905 0.0
H798 H 0.58571 0.23332 0.97827 0.0
H799 H 0.49126 0.25863 0.97234 0.0
H800 H 0.49326 0.16335 0.93946 0.0
H801 H 0.50067 0.2143 0.94042 0.0
H802 H 0.55943 0.2022 0.01233 0.0
H803 H 0.55165 0.15173 0.01187 0.0
C804 C 0.57445 0.2778 0.97444 0.0
C805 C 0.55156 0.29947 0.97133 0.0
C806 C 0.56752 0.24957 0.97666 0.0
C807 C 0.53757 0.24224 0.97553 0.0
C808 C 0.51456 0.26377 0.97295 0.0
C809 C 0.52147 0.29216 0.97107 0.0
C810 C 0.50747 0.17165 0.95564 0.0
C811 C 0.52232 0.15341 0.97523 0.0
C812 C 0.51164 0.20076 0.95623 0.0
C813 C 0.5308 0.21204 0.97633 0.0
C814 C 0.54492 0.19395 0.99635 0.0
C815 C 0.54062 0.16502 0.9959 0.0
H816 H 0.94521 0.72506 0.51736 0.0
H817 H 0.94527 0.72127 0.42638 0.0
H818 H 0.96109 0.77388 0.51534 0.0
H819 H 0.96103 0.76969 0.42441 0.0
H820 H 0.94621 0.86778 0.43791 0.0
H821 H 0.93492 0.81778 0.43862 0.0
H822 H 0.0076 0.79997 0.49741 0.0
H823 H 0.01903 0.85004 0.49652 0.0
C824 C 0.94874 0.73465 0.49704 0.0
C825 C 0.94424 0.71945 0.47206 0.0
C826 C 0.95799 0.76237 0.49586 0.0
C827 C 0.96229 0.77538 0.4697 0.0
C828 C 0.95778 0.76014 0.44481 0.0
C829 C 0.94897 0.73242 0.44597 0.0
C830 C 0.96 0.85304 0.45062 0.0
C831 C 0.98355 0.86257 0.46702 0.0
C832 C 0.95359 0.82453 0.45104 0.0
C833 C 0.97032 0.80518 0.46821 0.0
C834 C 0.99427 0.81459 0.48419 0.0
C835 C 1.00099 0.84306 0.48342 0.0
H836 H 0.41811 0.73763 0.5701 0.0
H837 H 0.41722 0.6956 0.65047 0.0
H838 H 0.43937 0.69433 0.54805 0.0
H839 H 0.43739 0.65155 0.62831 0.0
H840 H 0.49341 0.57945 0.58509 0.0
H841 H 0.47604 0.62384 0.60786 0.0
H842 H 0.43006 0.65022 0.53119 0.0
H843 H 0.44874 0.60634 0.50819 0.0
C844 C 0.42241 0.71902 0.58312 0.0
C845 C 0.41578 0.72028 0.61215 0.0
C846 C 0.43442 0.69387 0.57035 0.0
C847 C 0.43995 0.66871 0.58598 0.0
C848 C 0.43396 0.67022 0.61528 0.0
C849 C 0.42228 0.69561 0.62815 0.0
C850 C 0.47969 0.59479 0.57301 0.0
C851 C 0.47266 0.58911 0.54463 0.0
C852 C 0.46943 0.62037 0.58623 0.0
C853 C 0.4514 0.64122 0.5717 0.0
C854 C 0.44432 0.63536 0.54326 0.0
C855 C 0.45492 0.60991 0.52995 0.0
H856 H 0.89586 0.95677 0.72567 0.0
H857 H 0.92472 0.87289 0.69612 0.0
H858 H 0.91476 0.97717 0.68304 0.0
H859 H 0.94545 0.89358 0.6538 0.0
H860 H 0.95446 0.93616 0.56717 0.0
H861 H 0.93577 0.9149 0.60996 0.0
H862 H 0.95498 0.99019 0.65691 0.0
H863 H 0.97258 0.01169 0.6139 0.0
C864 C 0.90627 0.94247 0.71013 0.0
C865 C 0.90811 0.91286 0.71468 0.0
C866 C 0.9177 0.95439 0.68554 0.0
C867 C 0.93187 0.93735 0.66431 0.0
C868 C 0.93437 0.90771 0.6691 0.0
C869 C 0.92276 0.89572 0.69378 0.0
C870 C 0.95455 0.94831 0.58659 0.0
C871 C 0.96497 0.9759 0.58671 0.0
C872 C 0.94401 0.9359 0.61142 0.0
C873 C 0.9436 0.95051 0.63751 0.0
C874 C 0.95417 0.97812 0.63752 0.0
C875 C 0.96451 0.99057 0.61265 0.0
H876 H 0.60781 0.06773 0.2268 0.0
H877 H 0.57466 0.14811 0.19208 0.0
H878 H 0.59251 0.04373 0.18409 0.0
H879 H 0.55785 0.12398 0.15017 0.0
H880 H 0.55392 0.0783 0.0658 0.0
H881 H 0.57176 0.10127 0.10811 0.0
H882 H 0.55289 0.0276 0.157 0.0
H883 H 0.5359 1.00429 0.11428 0.0
C884 C 0.59731 0.08045 0.21016 0.0
C885 C 0.59272 0.11017 0.21341 0.0
C886 C 0.58805 0.06649 0.18556 0.0
C887 C 0.57375 0.08161 0.16314 0.0
C888 C 0.5691 0.1113 0.16645 0.0
C889 C 0.57842 0.12526 0.19098 0.0
C890 C 0.55372 0.06683 0.08552 0.0
C891 C 0.54339 0.03925 0.08631 0.0
C892 C 0.56377 0.08022 0.11007 0.0
C893 C 0.56375 0.06668 0.13656 0.0
C894 C 0.55376 0.03888 0.13725 0.0
C895 C 0.54382 0.02541 0.1126 0.0
H896 H 0.44796 0.58126 0.21578 0.0
H897 H 0.41968 0.4955 0.22014 0.0
H898 H 0.45865 0.58046 0.26594 0.0
H899 H 0.42989 0.49506 0.27084 0.0
H900 H 0.41707 0.52068 0.36431 0.0
H901 H 0.40811 0.52077 0.3136 0.0
H902 H 0.49392 0.55581 0.30015 0.0
H903 H 0.5032 0.55529 0.35087 0.0
C904 C 0.44458 0.56198 0.2273 0.0
C905 C 0.43329 0.53827 0.21382 0.0
C906 C 0.45056 0.56165 0.25611 0.0
C907 C 0.4451 0.53774 0.27223 0.0
C908 C 0.43399 0.51391 0.25888 0.0
C909 C 0.42819 0.51414 0.22991 0.0
C910 C 0.43407 0.52833 0.35053 0.0
C911 C 0.46091 0.53786 0.36159 0.0
C912 C 0.42896 0.52828 0.32152 0.0
C913 C 0.45046 0.538 0.30299 0.0
C914 C 0.47691 0.54831 0.31403 0.0
C915 C 0.48212 0.54819 0.34305 0.0
H916 H 0.10624 0.45115 0.7234 0.0
H917 H 0.01243 0.47702 0.71206 0.0
H918 H 0.09972 0.45246 0.77421 0.0
H919 H 0.00592 0.47904 0.76322 0.0
H920 H 0.99797 0.45198 0.85466 0.0
H921 H 0.00506 0.44836 0.80374 0.0
H922 H 0.09108 0.48474 0.81219 0.0
H923 H 0.08474 0.48682 0.86298 0.0
C924 C 0.08433 0.45774 0.73184 0.0
C925 C 0.05989 0.46427 0.71382 0.0
C926 C 0.08057 0.45841 0.76098 0.0
C927 C 0.0523 0.46584 0.77281 0.0
C928 C 0.02788 0.47277 0.75476 0.0
C929 C 0.03162 0.47185 0.72552 0.0
C930 C 0.01865 0.45861 0.84565 0.0
C931 C 0.04074 0.46979 0.86282 0.0
C932 C 0.02251 0.45698 0.81645 0.0
C933 C 0.04849 0.46654 0.80386 0.0
C934 C 0.07089 0.47699 0.82117 0.0
C935 C 0.06713 0.47845 0.85029 0.0
H936 H 0.69607 0.86678 0.91288 0.0
H937 H 0.73376 0.9478 0.90178 0.0
H938 H 0.6519 0.89008 0.93486 0.0
H939 H 0.68957 0.97135 0.92442 0.0
H940 H 0.59331 0.00746 0.94578 0.0
H941 H 0.63772 0.98558 0.92225 0.0
H942 H 0.6343 0.91238 0.97615 0.0
H943 H 0.58952 0.93385 0.99886 0.0
C944 C 0.69509 0.88963 0.91531 0.0
C945 C 0.71887 0.90525 0.90567 0.0
C946 C 0.66962 0.90311 0.92814 0.0
C947 C 0.66692 0.93279 0.93203 0.0
C948 C 0.69042 0.94854 0.92175 0.0
C949 C 0.71592 0.935 0.9087 0.0
C950 C 0.60209 0.98673 0.95268 0.0
C951 C 0.58755 0.97249 0.97427 0.0
C952 C 0.62779 0.97414 0.93921 0.0
C953 C 0.63988 0.9469 0.94691 0.0
C954 C 0.62557 0.93301 0.96894 0.0
C955 C 0.59985 0.94551 0.98227 0.0
H956 H 0.77383 0.11404 0.44094 0.0
H957 H 0.81202 0.08106 0.3629 0.0
H958 H 0.81805 0.09476 0.46637 0.0
H959 H 0.85577 0.0613 0.3885 0.0
H960 H 0.91592 1.00463 0.44655 0.0
H961 H 0.87109 0.02418 0.42219 0.0
H962 H 0.87204 0.10023 0.47289 0.0
H963 H 0.91694 0.08059 0.49739 0.0
C964 C 0.79164 0.10292 0.42904 0.0
C965 C 0.7889 0.09924 0.39962 0.0
C966 C 0.8171 0.09174 0.44376 0.0
C967 C 0.84064 0.07626 0.42965 0.0
C968 C 0.83798 0.07261 0.40028 0.0
C969 C 0.81266 0.08397 0.38553 0.0
C970 C 0.90655 0.02548 0.45267 0.0
C971 C 0.92025 0.04094 0.47405 0.0
C972 C 0.88086 0.03682 0.43849 0.0
C973 C 0.8678 0.06394 0.44535 0.0
C974 C 0.88118 0.07922 0.4671 0.0
C975 C 0.90708 0.06796 0.48113 0.0
H976 H 0.25492 0.52648 0.02912 0.0
H977 H 0.22766 0.61564 0.03575 0.0
H978 H 0.20259 0.51558 0.02238 0.0
H979 H 0.17511 0.60472 0.0291 0.0
H980 H 0.08552 0.56362 0.055 0.0
H981 H 0.13736 0.5774 0.05838 0.0
H982 H 0.16115 0.52535 0.98577 0.0
H983 H 0.10954 0.5117 0.98217 0.0
C984 C 0.23769 0.54373 0.02895 0.0
C985 C 0.24521 0.57188 0.03291 0.0
C986 C 0.20783 0.53753 0.02498 0.0
C987 C 0.18488 0.55933 0.02529 0.0
C988 C 0.19241 0.58754 0.02896 0.0
C989 C 0.2224 0.59379 0.0325 0.0
C990 C 0.1018 0.55523 0.03971 0.0
C991 C 0.09348 0.53648 0.01841 0.0
C992 C 0.13137 0.56325 0.04154 0.0
C993 C 0.15318 0.55237 0.02236 0.0
C994 C 0.14479 0.53387 1.00094 0.0
C995 C 0.11523 0.52614 0.99887 0.0
H996 H 0.27541 0.41657 0.55313 0.0
H997 H 0.25584 0.506 0.53831 0.0
H998 H 0.32862 0.4221 0.54334 0.0
H999 H 0.30889 0.51151 0.52847 0.0
H1000 H 0.39966 0.50339 0.48404 0.0
H1001 H 0.34719 0.49416 0.49118 0.0
H1002 H 0.37067 0.44887 0.56774 0.0
H1003 H 0.4235 0.45823 0.56079 0.0
C1004 C 0.28249 0.4373 0.54746 0.0
C1005 C 0.26163 0.46087 0.54641 0.0
C1006 C 0.31287 0.44049 0.54211 0.0
C1007 C 0.32277 0.46722 0.53519 0.0
C1008 C 0.30178 0.49064 0.53358 0.0
C1009 C 0.27152 0.48754 0.53932 0.0
C1010 C 0.39377 0.49128 0.50233 0.0
C1011 C 0.41573 0.48167 0.52197 0.0
C1012 C 0.36369 0.48613 0.50643 0.0
C1013 C 0.35494 0.47096 0.53005 0.0
C1014 C 0.37693 0.46051 0.54926 0.0
C1015 C 0.40708 0.46597 0.54534 0.0
H1016 H 0.94518 0.6966 0.86169 0.0
H1017 H 0.90412 0.73017 0.93822 0.0
H1018 H 0.96366 0.65444 0.88688 0.0
H1019 H 0.92044 0.68702 0.9628 0.0
H1020 H 0.9735 0.61507 1.00889 0.0
H1021 H 0.95732 0.65874 0.98429 0.0
H1022 H 0.95402 0.61179 0.90605 0.0
H1023 H 0.9716 0.56875 0.93048 0.0
C1024 C 0.93994 0.69522 0.88388 0.0
C1025 C 0.92283 0.71745 0.89749 0.0
C1026 C 0.95023 0.67045 0.89843 0.0
C1027 C 0.94362 0.66654 0.92724 0.0
C1028 C 0.92659 0.68882 0.94087 0.0
C1029 C 0.91662 0.71372 0.9264 0.0
C1030 C 0.96937 0.61409 0.98642 0.0
C1031 C 0.97404 0.58812 0.97185 0.0
C1032 C 0.9598 0.63929 0.97215 0.0
C1033 C 0.95414 0.63947 0.94276 0.0
C1034 C 0.9586 0.61327 0.92839 0.0
C1035 C 0.96853 0.58823 0.94257 0.0
H1036 H 0.47598 0.71315 0.09171 0.0
H1037 H 0.46029 0.71356 1.00193 0.0
H1038 H 0.48518 0.76317 0.09056 0.0
H1039 H 0.47096 0.76368 1.00031 0.0
H1040 H 0.45372 0.8587 0.01321 0.0
H1041 H 0.44862 0.80802 0.01307 0.0
H1042 H 0.51717 0.79787 0.07741 0.0
H1043 H 0.52035 0.84902 0.07937 0.0
C1044 C 0.4753 0.72388 0.07156 0.0
C1045 C 0.46759 0.70954 0.04687 0.0
C1046 C 0.48067 0.75259 0.07086 0.0
C1047 C 0.47884 0.76762 0.04535 0.0
C1048 C 0.47202 0.75295 0.02043 0.0
C1049 C 0.46613 0.72424 0.02124 0.0
C1050 C 0.46728 0.84581 0.02783 0.0
C1051 C 0.48711 0.85816 0.04666 0.0
C1052 C 0.46482 0.81654 0.02727 0.0
C1053 C 0.48253 0.79869 0.04515 0.0
C1054 C 0.50282 0.81095 0.06361 0.0
C1055 C 0.50492 0.84033 0.0645 0.0
H1056 H 0.01581 0.30958 0.53313 0.0
H1057 H 0.1087 0.2782 0.52676 0.0
H1058 H 1.00094 0.26108 0.53844 0.0
H1059 H 0.09371 0.22985 0.53053 0.0
H1060 H 0.06458 0.15235 0.57468 0.0
H1061 H 0.07574 0.20181 0.56861 0.0
H1062 H 0.99735 0.21539 0.51554 0.0
H1063 H 0.98595 0.16597 0.52213 0.0
C1064 C 0.03299 0.29231 0.53235 0.0
C1065 C 0.06347 0.2978 0.52978 0.0
C1066 C 0.02445 0.26452 0.53523 0.0
C1067 C 0.04622 0.24167 0.53548 0.0
C1068 C 0.07647 0.24706 0.53115 0.0
C1069 C 0.08501 0.27479 0.52842 0.0
C1070 C 0.04956 0.16606 0.56204 0.0
C1071 C 0.02447 0.15538 0.54884 0.0
C1072 C 0.05607 0.19427 0.55832 0.0
C1073 C 0.03776 0.21236 0.54111 0.0
C1074 C 0.01185 0.20202 0.52898 0.0
C1075 C 0.00524 0.17378 0.53286 0.0
H1076 H 0.57449 0.31274 0.36855 0.0
H1077 H 0.60866 0.28498 0.44969 0.0
H1078 H 0.55158 0.35567 0.3905 0.0
H1079 H 0.58838 0.32847 0.47099 0.0
H1080 H 0.53291 0.40104 0.51085 0.0
H1081 H 0.54992 0.3564 0.48843 0.0
H1082 H 0.55767 0.39983 0.40898 0.0
H1083 H 0.53888 0.44396 0.43128 0.0
C1084 C 0.57723 0.31563 0.39103 0.0
C1085 C 0.59409 0.2951 0.40697 0.0
C1086 C 0.5644 0.34071 0.40372 0.0
C1087 C 0.56808 0.34635 0.43283 0.0
C1088 C 0.58438 0.3254 0.44873 0.0
C1089 C 0.59674 0.30031 0.43619 0.0
C1090 C 0.53816 0.40104 0.48857 0.0
C1091 C 0.53449 0.42633 0.47304 0.0
C1092 C 0.54825 0.37528 0.47555 0.0
C1093 C 0.55569 0.37387 0.44655 0.0
C1094 C 0.55188 0.39935 0.4311 0.0
C1095 C 0.54126 0.42498 0.44403 0.0
loop_
_geom_bond_atom_site_label_1
_geom_bond_atom_site_label_2
_geom_bond_distance
_geom_bond_site_symmetry_2
_ccdc_geom_bond_type
C0 C1 1.391 . S
C0 C4 1.391 . S
C0 H42 0.948 . S
C1 C0 1.391 . S
C1 C2 1.391 . S
C2 C1 1.391 . S
C2 H58 0.947 . S
C2 C59 1.392 . S
C3 C4 1.391 . S
C3 C7 1.397 . S
C3 C59 1.419 . S
C4 C0 1.391 . S
C4 C3 1.391 . S
C4 C5 1.399 . S
C5 C4 1.399 . S
C5 C8 1.396 . S
C5 C17 1.453 . S
C5 C18 1.684 . S
H6 C30 0.948 . S
C7 C3 1.397 . S
C7 C8 1.394 . S
C7 C26 1.723 . S
C8 C5 1.396 . S
C8 C7 1.394 . S
C8 C38 1.723 . S
H9 C32 0.947 . S
H10 C33 0.948 . S
H11 C39 0.982 . S
H12 C40 0.979 . S
H13 C40 0.980 . S
H14 C40 0.983 . S
H15 C39 0.979 . S
H16 C39 0.977 . S
C17 C5 1.453 . S
C17 H46 0.982 . S
C17 H47 0.979 . S
C17 H48 0.977 . S
C18 C5 1.684 . S
C18 H43 0.979 . S
C18 H44 0.980 . S
C18 H45 0.983 . S
C19 C20 1.391 . S
C19 C24 1.391 . S
C19 H49 0.948 . S
C20 C19 1.391 . S
C20 C21 1.391 . S
C21 C20 1.391 . S
C21 C22 1.392 . S
C21 H50 0.947 . S
C22 C21 1.392 . S
C22 C23 1.419 . S
C22 H51 0.948 . S
C23 C22 1.419 . S
C23 C24 1.391 . S
C23 C27 1.397 . S
C24 C19 1.391 . S
C24 C23 1.391 . S
C24 C25 1.399 . S
C25 C24 1.399 . S
C25 C26 1.396 . S
C25 C28 1.453 . S
C25 C29 1.684 . S
C26 C7 1.723 . S
C26 C25 1.396 . S
C26 C27 1.394 . S
C27 C23 1.397 . S
C27 C26 1.394 . S
C27 C37 1.723 . S
C28 C25 1.453 . S
C28 H52 0.982 . S
C28 H53 0.979 . S
C28 H54 0.977 . S
C29 C25 1.684 . S
C29 H55 0.979 . S
C29 H56 0.980 . S
C29 H57 0.983 . S
C30 H6 0.948 . S
C30 C31 1.391 . S
C30 C35 1.391 . S
C31 C30 1.391 . S
C31 C32 1.391 . S
C32 H9 0.947 . S
C32 C31 1.391 . S
C32 C33 1.392 . S
C33 H10 0.948 . S
C33 C32 1.392 . S
C33 C34 1.419 . S
C34 C33 1.419 . S
C34 C35 1.391 . S
C34 C38 1.397 . S
C35 C30 1.391 . S
C35 C34 1.391 . S
C35 C36 1.399 . S
C36 C35 1.399 . S
C36 C37 1.396 . S
C36 C39 1.453 . S
C36 C40 1.684 . S
C37 C27 1.723 . S
C37 C36 1.396 . S
C37 C38 1.394 . S
C38 C8 1.723 . S
C38 C34 1.397 . S
C38 C37 1.394 . S
C39 H11 0.982 . S
C39 H15 0.979 . S
C39 H16 0.977 . S
C39 C36 1.453 . S
C40 H12 0.979 . S
C40 H13 0.980 . S
C40 H14 0.983 . S
C40 C36 1.684 . S
H41 C59 0.948 . S
H42 C0 0.948 . S
H43 C18 0.979 . S
H44 C18 0.980 . S
H45 C18 0.983 . S
H46 C17 0.982 . S
H47 C17 0.979 . S
H48 C17 0.977 . S
H49 C19 0.948 . S
H50 C21 0.947 . S
H51 C22 0.948 . S
H52 C28 0.982 . S
H53 C28 0.979 . S
H54 C28 0.977 . S
H55 C29 0.979 . S
H56 C29 0.980 . S
H57 C29 0.983 . S
H58 C2 0.947 . S
C59 C2 1.392 . S
C59 C3 1.419 . S
C59 H41 0.948 . S
C60 C61 1.391 . S
C60 C64 1.391 . S
C60 H102 0.948 . S
C61 C60 1.391 . S
C61 C62 1.391 . S
C62 C61 1.391 . S
C62 H118 0.947 . S
C62 C119 1.392 . S
C63 C64 1.391 . S
C63 C67 1.397 . S
C63 C119 1.419 . S
C64 C60 1.391 . S
C64 C63 1.391 . S
C64 C65 1.399 . S
C65 C64 1.399 . S
C65 C68 1.396 . S
C65 C77 1.453 . S
C65 C78 1.684 . S
H66 C90 0.948 . S
C67 C63 1.397 . S
C67 C68 1.394 . S
C67 C86 1.723 . S
C68 C65 1.396 . S
C68 C67 1.394 . S
C68 C98 1.723 . S
H69 C92 0.947 . S
H70 C93 0.948 . S
H71 C99 0.982 . S
H72 C100 0.979 . S
H73 C100 0.980 . S
H74 C100 0.983 . S
H75 C99 0.979 . S
H76 C99 0.977 . S
C77 C65 1.453 . S
C77 H106 0.982 . S
C77 H107 0.979 . S
C77 H108 0.977 . S
C78 C65 1.684 . S
C78 H103 0.979 . S
C78 H104 0.980 . S
C78 H105 0.983 . S
C79 C80 1.391 . S
C79 C84 1.391 . S
C79 H109 0.948 . S
C80 C79 1.391 . S
C80 C81 1.391 . S
C81 C80 1.391 . S
C81 C82 1.392 . S
C81 H110 0.947 . S
C82 C81 1.392 . S
C82 C83 1.419 . S
C82 H111 0.948 . S
C83 C82 1.419 . S
C83 C84 1.391 . S
C83 C87 1.397 . S
C84 C79 1.391 . S
C84 C83 1.391 . S
C84 C85 1.399 . S
C85 C84 1.399 . S
C85 C86 1.396 . S
C85 C88 1.453 . S
C85 C89 1.684 . S
C86 C67 1.723 . S
C86 C85 1.396 . S
C86 C87 1.394 . S
C87 C83 1.397 . S
C87 C86 1.394 . S
C87 C97 1.723 . S
C88 C85 1.453 . S
C88 H112 0.982 . S
C88 H113 0.979 . S
C88 H114 0.977 . S
C89 C85 1.684 . S
C89 H115 0.979 . S
C89 H116 0.980 . S
C89 H117 0.983 . S
C90 H66 0.948 . S
C90 C91 1.391 . S
C90 C95 1.391 . S
C91 C90 1.391 . S
C91 C92 1.391 . S
C92 H69 0.947 . S
C92 C91 1.391 . S
C92 C93 1.392 . S
C93 H70 0.948 . S
C93 C92 1.392 . S
C93 C94 1.419 . S
C94 C93 1.419 . S
C94 C95 1.391 . S
C94 C98 1.397 . S
C95 C90 1.391 . S
C95 C94 1.391 . S
C95 C96 1.399 . S
C96 C95 1.399 . S
C96 C97 1.396 . S
C96 C99 1.453 . S
C96 C100 1.684 . S
C97 C87 1.723 . S
C97 C96 1.396 . S
C97 C98 1.394 . S
C98 C68 1.723 . S
C98 C94 1.397 . S
C98 C97 1.394 . S
C99 H71 0.982 . S
C99 H75 0.979 . S
C99 H76 0.977 . S
C99 C96 1.453 . S
C100 H72 0.979 . S
C100 H73 0.980 . S
C100 H74 0.983 . S
C100 C96 1.684 . S
H101 C119 0.948 . S
H102 C60 0.948 . S
H103 C78 0.979 . S
H104 C78 0.980 . S
H105 C78 0.983 . S
H106 C77 0.982 . S
H107 C77 0.979 . S
H108 C77 0.977 . S
H109 C79 0.948 . S
H110 C81 0.947 . S
H111 C82 0.948 . S
H112 C88 0.982 . S
H113 C88 0.979 . S
H114 C88 0.977 . S
H115 C89 0.979 . S
H116 C89 0.980 . S
H117 C89 0.983 . S
H118 C62 0.947 . S
C119 C62 1.392 . S
C119 C63 1.419 . S
C119 H101 0.948 . S
C120 C121 1.391 . S
C120 C124 1.391 . S
C120 H162 0.948 . S
C121 C120 1.391 . S
C121 C122 1.391 . S
C122 C121 1.391 . S
C122 H178 0.947 . S
C122 C179 1.392 . S
C123 C124 1.391 . S
C123 C127 1.397 . S
C123 C179 1.419 . S
C124 C120 1.391 . S
C124 C123 1.391 . S
C124 C125 1.399 . S
C125 C124 1.399 . S
C125 C128 1.396 . S
C125 C137 1.453 . S
C125 C138 1.684 . S
H126 C150 0.948 . S
C127 C123 1.397 . S
C127 C128 1.394 . S
C127 C146 1.723 . S
C128 C125 1.396 . S
C128 C127 1.394 . S
C128 C158 1.723 . S
H129 C152 0.947 . S
H130 C153 0.948 . S
H131 C159 0.982 . S
H132 C160 0.979 . S
H133 C160 0.980 . S
H134 C160 0.983 . S
H135 C159 0.979 . S
H136 C159 0.977 . S
C137 C125 1.453 . S
C137 H166 0.982 . S
C137 H167 0.979 . S
C137 H168 0.977 . S
C138 C125 1.684 . S
C138 H163 0.979 . S
C138 H164 0.980 . S
C138 H165 0.983 . S
C139 C140 1.391 . S
C139 C144 1.391 . S
C139 H169 0.948 . S
C140 C139 1.391 . S
C140 C141 1.391 . S
C141 C140 1.391 . S
C141 C142 1.392 . S
C141 H170 0.947 . S
C142 C141 1.392 . S
C142 C143 1.419 . S
C142 H171 0.948 . S
C143 C142 1.419 . S
C143 C144 1.391 . S
C143 C147 1.397 . S
C144 C139 1.391 . S
C144 C143 1.391 . S
C144 C145 1.399 . S
C145 C144 1.399 . S
C145 C146 1.396 . S
C145 C148 1.453 . S
C145 C149 1.684 . S
C146 C127 1.723 . S
C146 C145 1.396 . S
C146 C147 1.394 . S
C147 C143 1.397 . S
C147 C146 1.394 . S
C147 C157 1.723 . S
C148 C145 1.453 . S
C148 H172 0.982 . S
C148 H173 0.979 . S
C148 H174 0.977 . S
C149 C145 1.684 . S
C149 H175 0.979 . S
C149 H176 0.980 . S
C149 H177 0.983 . S
C150 H126 0.948 . S
C150 C151 1.391 . S
C150 C155 1.391 . S
C151 C150 1.391 . S
C151 C152 1.391 . S
C152 H129 0.947 . S
C152 C151 1.391 . S
C152 C153 1.392 . S
C153 H130 0.948 . S
C153 C152 1.392 . S
C153 C154 1.419 . S
C154 C153 1.419 . S
C154 C155 1.391 . S
C154 C158 1.397 . S
C155 C150 1.391 . S
C155 C154 1.391 . S
C155 C156 1.399 . S
C156 C155 1.399 . S
C156 C157 1.396 . S
C156 C159 1.453 . S
C156 C160 1.684 . S
C157 C147 1.723 . S
C157 C156 1.396 . S
C157 C158 1.394 . S
C158 C128 1.723 . S
C158 C154 1.397 . S
C158 C157 1.394 . S
C159 H131 0.982 . S
C159 H135 0.979 . S
C159 H136 0.977 . S
C159 C156 1.453 . S
C160 H132 0.979 . S
C160 H133 0.980 . S
C160 H134 0.983 . S
C160 C156 1.684 . S
H161 C179 0.948 . S
H162 C120 0.948 . S
H163 C138 0.979 . S
H164 C138 0.980 . S
H165 C138 0.983 . S
H166 C137 0.982 . S
H167 C137 0.979 . S
H168 C137 0.977 . S
H169 C139 0.948 . S
H170 C141 0.947 . S
H171 C142 0.948 . S
H172 C148 0.982 . S
H173 C148 0.979 . S
H174 C148 0.977 . S
H175 C149 0.979 . S
H176 C149 0.980 . S
H177 C149 0.983 . S
H178 C122 0.947 . S
C179 C122 1.392 . S
C179 C123 1.419 . S
C179 H161 0.948 . S
C180 C181 1.391 . S
C180 C184 1.391 . S
C180 H222 0.948 . S
C181 C180 1.391 . S
C181 C182 1.391 . S
C182 C181 1.391 . S
C182 H238 0.947 . S
C182 C239 1.392 . S
C183 C184 1.391 . S
C183 C187 1.397 . S
C183 C239 1.419 . S
C184 C180 1.391 . S
C184 C183 1.391 . S
C184 C185 1.399 . S
C185 C184 1.399 . S
C185 C188 1.396 . S
C185 C197 1.453 . S
C185 C198 1.684 . S
H186 C210 0.948 . S
C187 C183 1.397 . S
C187 C188 1.394 . S
C187 C206 1.723 . S
C188 C185 1.396 . S
C188 C187 1.394 . S
C188 C218 1.723 . S
H189 C212 0.947 . S
H190 C213 0.948 . S
H191 C219 0.982 . S
H192 C220 0.979 . S
H193 C220 0.980 . S
H194 C220 0.983 . S
H195 C219 0.979 . S
H196 C219 0.977 . S
C197 C185 1.453 . S
C197 H226 0.982 . S
C197 H227 0.979 . S
C197 H228 0.977 . S
C198 C185 1.684 . S
C198 H223 0.979 . S
C198 H224 0.980 . S
C198 H225 0.983 . S
C199 C200 1.391 . S
C199 C204 1.391 . S
C199 H229 0.948 . S
C200 C199 1.391 . S
C200 C201 1.391 . S
C201 C200 1.391 . S
C201 C202 1.392 . S
C201 H230 0.947 . S
C202 C201 1.392 . S
C202 C203 1.419 . S
C202 H231 0.948 . S
C203 C202 1.419 . S
C203 C204 1.391 . S
C203 C207 1.397 . S
C204 C199 1.391 . S
C204 C203 1.391 . S
C204 C205 1.399 . S
C205 C204 1.399 . S
C205 C206 1.396 . S
C205 C208 1.453 . S
C205 C209 1.684 . S
C206 C187 1.723 . S
C206 C205 1.396 . S
C206 C207 1.394 . S
C207 C203 1.397 . S
C207 C206 1.394 . S
C207 C217 1.723 . S
C208 C205 1.453 . S
C208 H232 0.982 . S
C208 H233 0.979 . S
C208 H234 0.977 . S
C209 C205 1.684 . S
C209 H235 0.979 . S
C209 H236 0.980 . S
C209 H237 0.983 . S
C210 H186 0.948 . S
C210 C211 1.391 . S
C210 C215 1.391 . S
C211 C210 1.391 . S
C211 C212 1.391 . S
C212 H189 0.947 . S
C212 C211 1.391 . S
C212 C213 1.392 . S
C213 H190 0.948 . S
C213 C212 1.392 . S
C213 C214 1.419 . S
C214 C213 1.419 . S
C214 C215 1.391 . S
C214 C218 1.397 . S
C215 C210 1.391 . S
C215 C214 1.391 . S
C215 C216 1.399 . S
C216 C215 1.399 . S
C216 C217 1.396 . S
C216 C219 1.453 . S
C216 C220 1.684 . S
C217 C207 1.723 . S
C217 C216 1.396 . S
C217 C218 1.394 . S
C218 C188 1.723 . S
C218 C214 1.397 . S
C218 C217 1.394 . S
C219 H191 0.982 . S
C219 H195 0.979 . S
C219 H196 0.977 . S
C219 C216 1.453 . S
C220 H192 0.979 . S
C220 H193 0.980 . S
C220 H194 0.983 . S
C220 C216 1.684 . S
H221 C239 0.948 . S
H222 C180 0.948 . S
H223 C198 0.979 . S
H224 C198 0.980 . S
H225 C198 0.983 . S
H226 C197 0.982 . S
H227 C197 0.979 . S
H228 C197 0.977 . S
H229 C199 0.948 . S
H230 C201 0.947 . S
H231 C202 0.948 . S
H232 C208 0.982 . S
H233 C208 0.979 . S
H234 C208 0.977 . S
H235 C209 0.979 . S
H236 C209 0.980 . S
H237 C209 0.983 . S
H238 C182 0.947 . S
C239 C182 1.392 . S
C239 C183 1.419 . S
C239 H221 0.948 . S
C240 C241 1.391 . S
C240 C244 1.391 . S
C240 H282 0.948 . S
C241 C240 1.391 . S
C241 C242 1.391 . S
C242 C241 1.391 . S
C242 H298 0.947 . S
C242 C299 1.392 . S
C243 C244 1.391 . S
C243 C247 1.397 . S
C243 C299 1.419 . S
C244 C240 1.391 . S
C244 C243 1.391 . S
C244 C245 1.399 . S
C245 C244 1.399 . S
C245 C248 1.396 . S
C245 C257 1.453 . S
C245 C258 1.684 . S
H246 C270 0.948 . S
C247 C243 1.397 . S
C247 C248 1.394 . S
C247 C266 1.723 . S
C248 C245 1.396 . S
C248 C247 1.394 . S
C248 C278 1.723 . S
H249 C272 0.947 . S
H250 C273 0.948 . S
H251 C279 0.982 . S
H252 C280 0.979 . S
H253 C280 0.980 . S
H254 C280 0.983 . S
H255 C279 0.979 . S
H256 C279 0.977 . S
C257 C245 1.453 . S
C257 H286 0.982 . S
C257 H287 0.979 . S
C257 H288 0.977 . S
C258 C245 1.684 . S
C258 H283 0.979 . S
C258 H284 0.980 . S
C258 H285 0.983 . S
C259 C260 1.391 . S
C259 C264 1.391 . S
C259 H289 0.948 . S
C260 C259 1.391 . S
C260 C261 1.391 . S
C261 C260 1.391 . S
C261 C262 1.392 . S
C261 H290 0.947 . S
C262 C261 1.392 . S
C262 C263 1.419 . S
C262 H291 0.948 . S
C263 C262 1.419 . S
C263 C264 1.391 . S
C263 C267 1.397 . S
C264 C259 1.391 . S
C264 C263 1.391 . S
C264 C265 1.399 . S
C265 C264 1.399 . S
C265 C266 1.396 . S
C265 C268 1.453 . S
C265 C269 1.684 . S
C266 C247 1.723 . S
C266 C265 1.396 . S
C266 C267 1.394 . S
C267 C263 1.397 . S
C267 C266 1.394 . S
C267 C277 1.723 . S
C268 C265 1.453 . S
C268 H292 0.982 . S
C268 H293 0.979 . S
C268 H294 0.977 . S
C269 C265 1.684 . S
C269 H295 0.979 . S
C269 H296 0.980 . S
C269 H297 0.983 . S
C270 H246 0.948 . S
C270 C271 1.391 . S
C270 C275 1.391 . S
C271 C270 1.391 . S
C271 C272 1.391 . S
C272 H249 0.947 . S
C272 C271 1.391 . S
C272 C273 1.392 . S
C273 H250 0.948 . S
C273 C272 1.392 . S
C273 C274 1.419 . S
C274 C273 1.419 . S
C274 C275 1.391 . S
C274 C278 1.397 . S
C275 C270 1.391 . S
C275 C274 1.391 . S
C275 C276 1.399 . S
C276 C275 1.399 . S
C276 C277 1.396 . S
C276 C279 1.453 . S
C276 C280 1.684 . S
C277 C267 1.723 . S
C277 C276 1.396 . S
C277 C278 1.394 . S
C278 C248 1.723 . S
C278 C274 1.397 . S
C278 C277 1.394 . S
C279 H251 0.982 . S
C279 H255 0.979 . S
C279 H256 0.977 . S
C279 C276 1.453 . S
C280 H252 0.979 . S
C280 H253 0.980 . S
C280 H254 0.983 . S
C280 C276 1.684 . S
H281 C299 0.948 . S
H282 C240 0.948 . S
H283 C258 0.979 . S
H284 C258 0.980 . S
H285 C258 0.983 . S
H286 C257 0.982 . S
H287 C257 0.979 . S
H288 C257 0.977 . S
H289 C259 0.948 . S
H290 C261 0.947 . S
H291 C262 0.948 . S
H292 C268 0.982 . S
H293 C268 0.979 . S
H294 C268 0.977 . S
H295 C269 0.979 . S
H296 C269 0.980 . S
H297 C269 0.983 . S
H298 C242 0.947 . S
C299 C242 1.392 . S
C299 C243 1.419 . S
C299 H281 0.948 . S
C300 C301 1.391 . S
C300 C304 1.391 . S
C300 H342 0.948 . S
C301 C300 1.391 . S
C301 C302 1.391 . S
C302 C301 1.391 . S
C302 H358 0.947 . S
C302 C359 1.392 . S
C303 C304 1.391 . S
C303 C307 1.397 . S
C303 C359 1.419 . S
C304 C300 1.391 . S
C304 C303 1.391 . S
C304 C305 1.399 . S
C305 C304 1.399 . S
C305 C308 1.396 . S
C305 C317 1.453 . S
C305 C318 1.684 . S
H306 C330 0.948 . S
C307 C303 1.397 . S
C307 C308 1.394 . S
C307 C326 1.723 . S
C308 C305 1.396 . S
C308 C307 1.394 . S
C308 C338 1.723 . S
H309 C332 0.947 . S
H310 C333 0.948 . S
H311 C339 0.982 . S
H312 C340 0.979 . S
H313 C340 0.980 . S
H314 C340 0.983 . S
H315 C339 0.979 . S
H316 C339 0.977 . S
C317 C305 1.453 . S
C317 H346 0.982 . S
C317 H347 0.979 . S
C317 H348 0.977 . S
C318 C305 1.684 . S
C318 H343 0.979 . S
C318 H344 0.980 . S
C318 H345 0.983 . S
C319 C320 1.391 . S
C319 C324 1.391 . S
C319 H349 0.948 . S
C320 C319 1.391 . S
C320 C321 1.391 . S
C321 C320 1.391 . S
C321 C322 1.392 . S
C321 H350 0.947 . S
C322 C321 1.392 . S
C322 C323 1.419 . S
C322 H351 0.948 . S
C323 C322 1.419 . S
C323 C324 1.391 . S
C323 C327 1.397 . S
C324 C319 1.391 . S
C324 C323 1.391 . S
C324 C325 1.399 . S
C325 C324 1.399 . S
C325 C326 1.396 . S
C325 C328 1.453 . S
C325 C329 1.684 . S
C326 C307 1.723 . S
C326 C325 1.396 . S
C326 C327 1.394 . S
C327 C323 1.397 . S
C327 C326 1.394 . S
C327 C337 1.723 . S
C328 C325 1.453 . S
C328 H352 0.982 . S
C328 H353 0.979 . S
C328 H354 0.977 . S
C329 C325 1.684 . S
C329 H355 0.979 . S
C329 H356 0.980 . S
C329 H357 0.983 . S
C330 H306 0.948 . S
C330 C331 1.391 . S
C330 C335 1.391 . S
C331 C330 1.391 . S
C331 C332 1.391 . S
C332 H309 0.947 . S
C332 C331 1.391 . S
C332 C333 1.392 . S
C333 H310 0.948 . S
C333 C332 1.392 . S
C333 C334 1.419 . S
C334 C333 1.419 . S
C334 C335 1.391 . S
C334 C338 1.397 . S
C335 C330 1.391 . S
C335 C334 1.391 . S
C335 C336 1.399 . S
C336 C335 1.399 . S
C336 C337 1.396 . S
C336 C339 1.453 . S
C336 C340 1.684 . S
C337 C327 1.723 . S
C337 C336 1.396 . S
C337 C338 1.394 . S
C338 C308 1.723 . S
C338 C334 1.397 . S
C338 C337 1.394 . S
C339 H311 0.982 . S
C339 H315 0.979 . S
C339 H316 0.977 . S
C339 C336 1.453 . S
C340 H312 0.979 . S
C340 H313 0.980 . S
C340 H314 0.983 . S
C340 C336 1.684 . S
H341 C359 0.948 . S
H342 C300 0.948 . S
H343 C318 0.979 . S
H344 C318 0.980 . S
H345 C318 0.983 . S
H346 C317 0.982 . S
H347 C317 0.979 . S
H348 C317 0.977 . S
H349 C319 0.948 . S
H350 C321 0.947 . S
H351 C322 0.948 . S
H352 C328 0.982 . S
H353 C328 0.979 . S
H354 C328 0.977 . S
H355 C329 0.979 . S
H356 C329 0.980 . S
H357 C329 0.983 . S
H358 C302 0.947 . S
C359 C302 1.392 . S
C359 C303 1.419 . S
C359 H341 0.948 . S
C360 C361 1.391 . S
C360 C364 1.391 . S
C360 H402 0.948 . S
C361 C360 1.391 . S
C361 C362 1.391 . S
C362 C361 1.391 . S
C362 H418 0.947 . S
C362 C419 1.392 . S
C363 C364 1.391 . S
C363 C367 1.397 . S
C363 C419 1.419 . S
C364 C360 1.391 . S
C364 C363 1.391 . S
C364 C365 1.399 . S
C365 C364 1.399 . S
C365 C368 1.396 . S
C365 C377 1.453 . S
C365 C378 1.684 . S
H366 C390 0.948 . S
C367 C363 1.397 . S
C367 C368 1.394 . S
C367 C386 1.723 . S
C368 C365 1.396 . S
C368 C367 1.394 . S
C368 C398 1.723 . S
H369 C392 0.947 . S
H370 C393 0.948 . S
H371 C399 0.982 . S
H372 C400 0.979 . S
H373 C400 0.980 . S
H374 C400 0.983 . S
H375 C399 0.979 . S
H376 C399 0.977 . S
C377 C365 1.453 . S
C377 H406 0.982 . S
C377 H407 0.979 . S
C377 H408 0.977 . S
C378 C365 1.684 . S
C378 H403 0.979 . S
C378 H404 0.980 . S
C378 H405 0.983 . S
C379 C380 1.391 . S
C379 C384 1.391 . S
C379 H409 0.948 . S
C380 C379 1.391 . S
C380 C381 1.391 . S
C381 C380 1.391 . S
C381 C382 1.392 . S
C381 H410 0.947 . S
C382 C381 1.392 . S
C382 C383 1.419 . S
C382 H411 0.948 . S
C383 C382 1.419 . S
C383 C384 1.391 . S
C383 C387 1.397 . S
C384 C379 1.391 . S
C384 C383 1.391 . S
C384 C385 1.399 . S
C385 C384 1.399 . S
C385 C386 1.396 . S
C385 C388 1.453 . S
C385 C389 1.684 . S
C386 C367 1.723 . S
C386 C385 1.396 . S
C386 C387 1.394 . S
C387 C383 1.397 . S
C387 C386 1.394 . S
C387 C397 1.723 . S
C388 C385 1.453 . S
C388 H412 0.982 . S
C388 H413 0.979 . S
C388 H414 0.977 . S
C389 C385 1.684 . S
C389 H415 0.979 . S
C389 H416 0.980 . S
C389 H417 0.983 . S
C390 H366 0.948 . S
C390 C391 1.391 . S
C390 C395 1.391 . S
C391 C390 1.391 . S
C391 C392 1.391 . S
C392 H369 0.947 . S
C392 C391 1.391 . S
C392 C393 1.392 . S
C393 H370 0.948 . S
C393 C392 1.392 . S
C393 C394 1.419 . S
C394 C393 1.419 . S
C394 C395 1.391 . S
C394 C398 1.397 . S
C395 C390 1.391 . S
C395 C394 1.391 . S
C395 C396 1.399 . S
C396 C395 1.399 . S
C396 C397 1.396 . S
C396 C399 1.453 . S
C396 C400 1.684 . S
C397 C387 1.723 . S
C397 C396 1.396 . S
C397 C398 1.394 . S
C398 C368 1.723 . S
C398 C394 1.397 . S
C398 C397 1.394 . S
C399 H371 0.982 . S
C399 H375 0.979 . S
C399 H376 0.977 . S
C399 C396 1.453 . S
C400 H372 0.979 . S
C400 H373 0.980 . S
C400 H374 0.983 . S
C400 C396 1.684 . S
H401 C419 0.948 . S
H402 C360 0.948 . S
H403 C378 0.979 . S
H404 C378 0.980 . S
H405 C378 0.983 . S
H406 C377 0.982 . S
H407 C377 0.979 . S
H408 C377 0.977 . S
H409 C379 0.948 . S
H410 C381 0.947 . S
H411 C382 0.948 . S
H412 C388 0.982 . S
H413 C388 0.979 . S
H414 C388 0.977 . S
H415 C389 0.979 . S
H416 C389 0.980 . S
H417 C389 0.983 . S
H418 C362 0.947 . S
C419 C362 1.392 . S
C419 C363 1.419 . S
C419 H401 0.948 . S
C420 C421 1.391 . S
C420 C424 1.391 . S
C420 H462 0.948 . S
C421 C420 1.391 . S
C421 C422 1.391 . S
C422 C421 1.391 . S
C422 H478 0.947 . S
C422 C479 1.392 . S
C423 C424 1.391 . S
C423 C427 1.397 . S
C423 C479 1.419 . S
C424 C420 1.391 . S
C424 C423 1.391 . S
C424 C425 1.399 . S
C425 C424 1.399 . S
C425 C428 1.396 . S
C425 C437 1.453 . S
C425 C438 1.684 . S
H426 C450 0.948 . S
C427 C423 1.397 . S
C427 C428 1.394 . S
C427 C446 1.723 . S
C428 C425 1.396 . S
C428 C427 1.394 . S
C428 C458 1.723 . S
H429 C452 0.947 . S
H430 C453 0.948 . S
H431 C459 0.982 . S
H432 C460 0.979 . S
H433 C460 0.980 . S
H434 C460 0.983 . S
H435 C459 0.979 . S
H436 C459 0.977 . S
C437 C425 1.453 . S
C437 H466 0.982 . S
C437 H467 0.979 . S
C437 H468 0.977 . S
C438 C425 1.684 . S
C438 H463 0.979 . S
C438 H464 0.980 . S
C438 H465 0.983 . S
C439 C440 1.391 . S
C439 C444 1.391 . S
C439 H469 0.948 . S
C440 C439 1.391 . S
C440 C441 1.391 . S
C441 C440 1.391 . S
C441 C442 1.392 . S
C441 H470 0.947 . S
C442 C441 1.392 . S
C442 C443 1.419 . S
C442 H471 0.948 . S
C443 C442 1.419 . S
C443 C444 1.391 . S
C443 C447 1.397 . S
C444 C439 1.391 . S
C444 C443 1.391 . S
C444 C445 1.399 . S
C445 C444 1.399 . S
C445 C446 1.396 . S
C445 C448 1.453 . S
C445 C449 1.684 . S
C446 C427 1.723 . S
C446 C445 1.396 . S
C446 C447 1.394 . S
C447 C443 1.397 . S
C447 C446 1.394 . S
C447 C457 1.723 . S
C448 C445 1.453 . S
C448 H472 0.982 . S
C448 H473 0.979 . S
C448 H474 0.977 . S
C449 C445 1.684 . S
C449 H475 0.979 . S
C449 H476 0.980 . S
C449 H477 0.983 . S
C450 H426 0.948 . S
C450 C451 1.391 . S
C450 C455 1.391 . S
C451 C450 1.391 . S
C451 C452 1.391 . S
C452 H429 0.947 . S
C452 C451 1.391 . S
C452 C453 1.392 . S
C453 H430 0.948 . S
C453 C452 1.392 . S
C453 C454 1.419 . S
C454 C453 1.419 . S
C454 C455 1.391 . S
C454 C458 1.397 . S
C455 C450 1.391 . S
C455 C454 1.391 . S
C455 C456 1.399 . S
C456 C455 1.399 . S
C456 C457 1.396 . S
C456 C459 1.453 . S
C456 C460 1.684 . S
C457 C447 1.723 . S
C457 C456 1.396 . S
C457 C458 1.394 . S
C458 C428 1.723 . S
C458 C454 1.397 . S
C458 C457 1.394 . S
C459 H431 0.982 . S
C459 H435 0.979 . S
C459 H436 0.977 . S
C459 C456 1.453 . S
C460 H432 0.979 . S
C460 H433 0.980 . S
C460 H434 0.983 . S
C460 C456 1.684 . S
H461 C479 0.948 . S
H462 C420 0.948 . S
H463 C438 0.979 . S
H464 C438 0.980 . S
H465 C438 0.983 . S
H466 C437 0.982 . S
H467 C437 0.979 . S
H468 C437 0.977 . S
H469 C439 0.948 . S
H470 C441 0.947 . S
H471 C442 0.948 . S
H472 C448 0.982 . S
H473 C448 0.979 . S
H474 C448 0.977 . S
H475 C449 0.979 . S
H476 C449 0.980 . S
H477 C449 0.983 . S
H478 C422 0.947 . S
C479 C422 1.392 . S
C479 C423 1.419 . S
C479 H461 0.948 . S
C480 O496 1.251 . S
C480 O498 1.254 1_545 S
N481 C482 1.333 . S
N481 C486 1.307 . S
N481 Zn487 2.020 . S
C482 N481 1.333 . S
C482 C483 1.379 . S
C482 H500 0.952 . S
C483 C482 1.379 . S
C483 C484 1.390 . S
C483 H510 0.949 . S
C484 C483 1.390 . S
C484 C485 1.357 . S
C485 C484 1.357 . S
C485 C486 1.370 . S
C485 H511 0.950 . S
C486 N481 1.307 . S
C486 C485 1.370 . S
C486 H504 0.948 1_455 S
Zn487 N481 2.020 . S
Zn487 O496 2.039 . S
Zn487 O502 2.034 . S
Zn487 O506 2.025 1_455 S
Zn487 O508 2.024 1_455 S
C488 O507 1.246 1_545 S
C488 O508 1.249 . S
N489 C490 1.307 . S
N489 C491 1.333 . S
N489 Zn495 2.020 . S
C490 N489 1.307 . S
C490 C494 1.370 . S
C490 H501 0.948 1_655 S
C491 N489 1.333 . S
C491 C492 1.379 . S
C491 H499 0.952 . S
C492 C491 1.379 . S
C492 C493 1.390 . S
C492 H512 0.949 . S
C493 C492 1.390 . S
C493 C494 1.357 . S
C494 C490 1.370 . S
C494 C493 1.357 . S
C494 H513 0.950 . S
Zn495 N489 2.020 . S
Zn495 O498 2.025 1_655 S
Zn495 O503 2.024 1_655 S
Zn495 O505 2.039 . S
Zn495 O507 2.034 . S
O496 C480 1.251 . S
O496 Zn487 2.039 . S
C497 O502 1.246 1_565 S
C497 O503 1.249 . S
O498 C480 1.254 1_565 S
O498 Zn495 2.025 1_455 S
H499 C491 0.952 . S
H500 C482 0.952 . S
H501 C490 0.948 1_455 S
O502 Zn487 2.034 . S
O502 C497 1.246 1_545 S
O503 Zn495 2.024 1_455 S
O503 C497 1.249 . S
H504 C486 0.948 1_655 S
O505 Zn495 2.039 . S
O505 C509 1.251 . S
O506 Zn487 2.025 1_655 S
O506 C509 1.254 1_545 S
O507 C488 1.246 1_565 S
O507 Zn495 2.034 . S
O508 Zn487 2.024 1_655 S
O508 C488 1.249 . S
C509 O505 1.251 . S
C509 O506 1.254 1_565 S
H510 C483 0.949 . S
H511 C485 0.950 . S
H512 C492 0.949 . S
H513 C494 0.950 . S
C514 O530 1.251 1_565 S
C514 O532 1.254 . S
N515 C516 1.333 . S
N515 C520 1.307 . S
N515 Zn521 2.020 . S
C516 N515 1.333 . S
C516 C517 1.379 . S
C516 H534 0.952 . S
C517 C516 1.379 . S
C517 C518 1.390 . S
C517 H544 0.949 . S
C518 C517 1.390 . S
C518 C519 1.357 . S
C519 C518 1.357 . S
C519 C520 1.370 . S
C519 H545 0.950 . S
C520 N515 1.307 . S
C520 C519 1.370 . S
C520 H538 0.948 . S
Zn521 N515 2.020 . S
Zn521 O530 2.039 . S
Zn521 O536 2.034 1_556 S
Zn521 O540 2.025 1_556 S
Zn521 O542 2.024 . S
C522 O541 1.246 . S
C522 O542 1.249 1_565 S
N523 C524 1.307 . S
N523 C525 1.333 . S
N523 Zn529 2.020 . S
C524 N523 1.307 . S
C524 C528 1.370 . S
C524 H535 0.948 . S
C525 N523 1.333 . S
C525 C526 1.379 . S
C525 H533 0.952 . S
C526 C525 1.379 . S
C526 C527 1.390 . S
C526 H546 0.949 . S
C527 C526 1.390 . S
C527 C528 1.357 . S
C528 C524 1.370 . S
C528 C527 1.357 . S
C528 H547 0.950 . S
Zn529 N523 2.020 . S
Zn529 O532 2.025 1_554 S
Zn529 O537 2.024 . S
Zn529 O539 2.039 . S
Zn529 O541 2.034 1_554 S
O530 C514 1.251 1_545 S
O530 Zn521 2.039 . S
C531 O536 1.246 . S
C531 O537 1.249 1_545 S
O532 C514 1.254 . S
O532 Zn529 2.025 1_556 S
H533 C525 0.952 . S
H534 C516 0.952 . S
H535 C524 0.948 . S
O536 Zn521 2.034 1_554 S
O536 C531 1.246 . S
O537 Zn529 2.024 . S
O537 C531 1.249 1_565 S
H538 C520 0.948 . S
O539 Zn529 2.039 . S
O539 C543 1.251 1_565 S
O540 Zn521 2.025 1_554 S
O540 C543 1.254 . S
O541 C522 1.246 . S
O541 Zn529 2.034 1_556 S
O542 Zn521 2.024 . S
O542 C522 1.249 1_545 S
C543 O539 1.251 1_545 S
C543 O540 1.254 . S
H544 C517 0.949 . S
H545 C519 0.950 . S
H546 C526 0.949 . S
H547 C528 0.950 . S
C548 O564 1.251 . S
C548 O566 1.254 . S
N549 C550 1.333 . S
N549 C554 1.307 . S
N549 Zn555 2.020 . S
C550 N549 1.333 . S
C550 C551 1.379 . S
C550 H568 0.952 . S
C551 C550 1.379 . S
C551 C552 1.390 . S
C551 H578 0.949 . S
C552 C551 1.390 . S
C552 C553 1.357 . S
C553 C552 1.357 . S
C553 C554 1.370 . S
C553 H579 0.950 . S
C554 N549 1.307 . S
C554 C553 1.370 . S
C554 H572 0.948 . S
Zn555 N549 2.020 . S
Zn555 O564 2.039 . S
Zn555 O570 2.034 . S
Zn555 O574 2.025 . S
Zn555 O576 2.024 . S
C556 O575 1.246 . S
C556 O576 1.249 . S
N557 C558 1.307 . S
N557 C559 1.333 . S
N557 Zn563 2.020 . S
C558 N557 1.307 . S
C558 C562 1.370 . S
C558 H569 0.948 . S
C559 N557 1.333 . S
C559 C560 1.379 . S
C559 H567 0.952 . S
C560 C559 1.379 . S
C560 C561 1.390 . S
C560 H580 0.949 . S
C561 C560 1.390 . S
C561 C562 1.357 . S
C562 C558 1.370 . S
C562 C561 1.357 . S
C562 H581 0.950 . S
Zn563 N557 2.020 . S
Zn563 O566 2.025 . S
Zn563 O571 2.024 . S
Zn563 O573 2.039 . S
Zn563 O575 2.034 . S
O564 C548 1.251 . S
O564 Zn555 2.039 . S
C565 O570 1.246 . S
C565 O571 1.249 . S
O566 C548 1.254 . S
O566 Zn563 2.025 . S
H567 C559 0.952 . S
H568 C550 0.952 . S
H569 C558 0.948 . S
O570 Zn555 2.034 . S
O570 C565 1.246 . S
O571 Zn563 2.024 . S
O571 C565 1.249 . S
H572 C554 0.948 . S
O573 Zn563 2.039 . S
O573 C577 1.251 . S
O574 Zn555 2.025 . S
O574 C577 1.254 . S
O575 C556 1.246 . S
O575 Zn563 2.034 . S
O576 Zn555 2.024 . S
O576 C556 1.249 . S
C577 O573 1.251 . S
C577 O574 1.254 . S
H578 C551 0.949 . S
H579 C553 0.950 . S
H580 C560 0.949 . S
H581 C562 0.950 . S
C582 O598 1.251 1_556 S
C582 O600 1.254 . S
N583 C584 1.333 . S
N583 C588 1.307 . S
N583 Zn589 2.020 . S
C584 N583 1.333 . S
C584 C585 1.379 . S
C584 H602 0.952 . S
C585 C584 1.379 . S
C585 C586 1.390 . S
C585 H612 0.949 . S
C586 C585 1.390 . S
C586 C587 1.357 . S
C587 C586 1.357 . S
C587 C588 1.370 . S
C587 H613 0.950 . S
C588 N583 1.307 . S
C588 C587 1.370 . S
C588 H606 0.948 . S
Zn589 N583 2.020 . S
Zn589 O598 2.039 . S
Zn589 O604 2.034 1_655 S
Zn589 O608 2.025 1_655 S
Zn589 O610 2.024 . S
C590 O609 1.246 . S
C590 O610 1.249 1_556 S
N591 C592 1.307 . S
N591 C593 1.333 . S
N591 Zn597 2.020 . S
C592 N591 1.307 . S
C592 C596 1.370 . S
C592 H603 0.948 . S
C593 N591 1.333 . S
C593 C594 1.379 . S
C593 H601 0.952 . S
C594 C593 1.379 . S
C594 C595 1.390 . S
C594 H614 0.949 . S
C595 C594 1.390 . S
C595 C596 1.357 . S
C596 C592 1.370 . S
C596 C595 1.357 . S
C596 H615 0.950 . S
Zn597 N591 2.020 . S
Zn597 O600 2.025 1_455 S
Zn597 O605 2.024 . S
Zn597 O607 2.039 . S
Zn597 O609 2.034 1_455 S
O598 C582 1.251 1_554 S
O598 Zn589 2.039 . S
C599 O604 1.246 . S
C599 O605 1.249 1_554 S
O600 C582 1.254 . S
O600 Zn597 2.025 1_655 S
H601 C593 0.952 . S
H602 C584 0.952 . S
H603 C592 0.948 . S
O604 Zn589 2.034 1_455 S
O604 C599 1.246 . S
O605 Zn597 2.024 . S
O605 C599 1.249 1_556 S
H606 C588 0.948 . S
O607 Zn597 2.039 . S
O607 C611 1.251 1_556 S
O608 Zn589 2.025 1_455 S
O608 C611 1.254 . S
O609 C590 1.246 . S
O609 Zn597 2.034 1_655 S
O610 Zn589 2.024 . S
O610 C590 1.249 1_554 S
C611 O607 1.251 1_554 S
C611 O608 1.254 . S
H612 C585 0.949 . S
H613 C587 0.950 . S
H614 C594 0.949 . S
H615 C596 0.950 . S
H616 C624 0.950 . S
H617 C629 0.950 . S
H618 C626 0.950 . S
H619 C628 0.950 . S
H620 C630 0.950 1_565 S
H621 C632 0.950 . S
H622 C634 0.950 . S
H623 C635 0.950 . S
C624 H616 0.950 . S
C624 C625 1.386 . S
C624 C626 1.391 . S
C625 C624 1.386 . S
C625 C629 1.393 . S
C626 H618 0.950 . S
C626 C624 1.391 . S
C626 C627 1.400 . S
C627 C626 1.400 . S
C627 C628 1.398 . S
C627 C633 1.491 . S
C628 H619 0.950 . S
C628 C627 1.398 . S
C628 C629 1.391 . S
C629 H617 0.950 . S
C629 C625 1.393 . S
C629 C628 1.391 . S
C630 H620 0.950 1_545 S
C630 C631 1.386 . S
C630 C632 1.391 . S
C631 C630 1.386 . S
C631 C635 1.393 . S
C632 H621 0.950 . S
C632 C630 1.391 . S
C632 C633 1.400 . S
C633 C627 1.491 . S
C633 C632 1.400 . S
C633 C634 1.398 . S
C634 H622 0.950 . S
C634 C633 1.398 . S
C634 C635 1.391 . S
C635 H623 0.950 . S
C635 C631 1.393 . S
C635 C634 1.391 . S
H636 C644 0.950 . S
H637 C649 0.950 . S
H638 C646 0.950 . S
H639 C648 0.950 . S
H640 C650 0.950 1_545 S
H641 C652 0.950 . S
H642 C654 0.950 . S
H643 C655 0.950 . S
C644 H636 0.950 . S
C644 C645 1.386 . S
C644 C646 1.391 . S
C645 C644 1.386 . S
C645 C649 1.393 . S
C646 H638 0.950 . S
C646 C644 1.391 . S
C646 C647 1.400 . S
C647 C646 1.400 . S
C647 C648 1.398 . S
C647 C653 1.491 . S
C648 H639 0.950 . S
C648 C647 1.398 . S
C648 C649 1.391 . S
C649 H637 0.950 . S
C649 C645 1.393 . S
C649 C648 1.391 . S
C650 H640 0.950 1_565 S
C650 C651 1.386 . S
C650 C652 1.391 . S
C651 C650 1.386 . S
C651 C655 1.393 . S
C652 H641 0.950 . S
C652 C650 1.391 . S
C652 C653 1.400 . S
C653 C647 1.491 . S
C653 C652 1.400 . S
C653 C654 1.398 . S
C654 H642 0.950 . S
C654 C653 1.398 . S
C654 C655 1.391 . S
C655 H643 0.950 . S
C655 C651 1.393 . S
C655 C654 1.391 . S
H656 C664 0.950 . S
H657 C669 0.950 . S
H658 C666 0.950 . S
H659 C668 0.950 . S
H660 C670 0.950 . S
H661 C672 0.950 . S
H662 C674 0.950 . S
H663 C675 0.950 . S
C664 H656 0.950 . S
C664 C665 1.386 . S
C664 C666 1.391 . S
C665 C664 1.386 . S
C665 C669 1.393 . S
C666 H658 0.950 . S
C666 C664 1.391 . S
C666 C667 1.400 . S
C667 C666 1.400 . S
C667 C668 1.398 . S
C667 C673 1.491 . S
C668 H659 0.950 . S
C668 C667 1.398 . S
C668 C669 1.391 . S
C669 H657 0.950 . S
C669 C665 1.393 . S
C669 C668 1.391 . S
C670 H660 0.950 . S
C670 C671 1.386 . S
C670 C672 1.391 . S
C671 C670 1.386 . S
C671 C675 1.393 . S
C672 H661 0.950 . S
C672 C670 1.391 . S
C672 C673 1.400 . S
C673 C667 1.491 . S
C673 C672 1.400 . S
C673 C674 1.398 . S
C674 H662 0.950 . S
C674 C673 1.398 . S
C674 C675 1.391 . S
C675 H663 0.950 . S
C675 C671 1.393 . S
C675 C674 1.391 . S
H676 C684 0.950 . S
H677 C689 0.950 . S
H678 C686 0.950 . S
H679 C688 0.950 . S
H680 C690 0.950 . S
H681 C692 0.950 . S
H682 C694 0.950 . S
H683 C695 0.950 . S
C684 H676 0.950 . S
C684 C685 1.386 . S
C684 C686 1.391 . S
C685 C684 1.386 . S
C685 C689 1.393 . S
C686 H678 0.950 . S
C686 C684 1.391 . S
C686 C687 1.400 . S
C687 C686 1.400 . S
C687 C688 1.398 . S
C687 C693 1.491 . S
C688 H679 0.950 . S
C688 C687 1.398 . S
C688 C689 1.391 . S
C689 H677 0.950 . S
C689 C685 1.393 . S
C689 C688 1.391 . S
C690 H680 0.950 . S
C690 C691 1.386 . S
C690 C692 1.391 . S
C691 C690 1.386 . S
C691 C695 1.393 . S
C692 H681 0.950 . S
C692 C690 1.391 . S
C692 C693 1.400 . S
C693 C687 1.491 . S
C693 C692 1.400 . S
C693 C694 1.398 . S
C694 H682 0.950 . S
C694 C693 1.398 . S
C694 C695 1.391 . S
C695 H683 0.950 . S
C695 C691 1.393 . S
C695 C694 1.391 . S
H696 C704 0.950 . S
H697 C709 0.950 . S
H698 C706 0.950 . S
H699 C708 0.950 . S
H700 C710 0.950 . S
H701 C712 0.950 . S
H702 C714 0.950 . S
H703 C715 0.950 1_556 S
C704 H696 0.950 . S
C704 C705 1.386 . S
C704 C706 1.391 . S
C705 C704 1.386 . S
C705 C709 1.393 . S
C706 H698 0.950 . S
C706 C704 1.391 . S
C706 C707 1.400 . S
C707 C706 1.400 . S
C707 C708 1.398 . S
C707 C713 1.491 . S
C708 H699 0.950 . S
C708 C707 1.398 . S
C708 C709 1.391 . S
C709 H697 0.950 . S
C709 C705 1.393 . S
C709 C708 1.391 . S
C710 H700 0.950 . S
C710 C711 1.386 . S
C710 C712 1.391 . S
C711 C710 1.386 . S
C711 C715 1.393 . S
C712 H701 0.950 . S
C712 C710 1.391 . S
C712 C713 1.400 . S
C713 C707 1.491 . S
C713 C712 1.400 . S
C713 C714 1.398 . S
C714 H702 0.950 . S
C714 C713 1.398 . S
C714 C715 1.391 . S
C715 H703 0.950 1_554 S
C715 C711 1.393 . S
C715 C714 1.391 . S
H716 C724 0.950 . S
H717 C729 0.950 . S
H718 C726 0.950 . S
H719 C728 0.950 . S
H720 C730 0.950 1_545 S
H721 C732 0.950 . S
H722 C734 0.950 . S
H723 C735 0.950 . S
C724 H716 0.950 . S
C724 C725 1.386 . S
C724 C726 1.391 . S
C725 C724 1.386 . S
C725 C729 1.393 . S
C726 H718 0.950 . S
C726 C724 1.391 . S
C726 C727 1.400 . S
C727 C726 1.400 . S
C727 C728 1.398 . S
C727 C733 1.491 . S
C728 H719 0.950 . S
C728 C727 1.398 . S
C728 C729 1.391 . S
C729 H717 0.950 . S
C729 C725 1.393 . S
C729 C728 1.391 . S
C730 H720 0.950 1_565 S
C730 C731 1.386 . S
C730 C732 1.391 . S
C731 C730 1.386 . S
C731 C735 1.393 . S
C732 H721 0.950 . S
C732 C730 1.391 . S
C732 C733 1.400 . S
C733 C727 1.491 . S
C733 C732 1.400 . S
C733 C734 1.398 . S
C734 H722 0.950 . S
C734 C733 1.398 . S
C734 C735 1.391 . S
C735 H723 0.950 . S
C735 C731 1.393 . S
C735 C734 1.391 . S
H736 C744 0.950 . S
H737 C749 0.950 . S
H738 C746 0.950 . S
H739 C748 0.950 . S
H740 C750 0.950 . S
H741 C752 0.950 . S
H742 C754 0.950 . S
H743 C755 0.950 . S
C744 H736 0.950 . S
C744 C745 1.386 . S
C744 C746 1.391 . S
C745 C744 1.386 . S
C745 C749 1.393 . S
C746 H738 0.950 . S
C746 C744 1.391 . S
C746 C747 1.400 . S
C747 C746 1.400 . S
C747 C748 1.398 . S
C747 C753 1.491 . S
C748 H739 0.950 . S
C748 C747 1.398 . S
C748 C749 1.391 . S
C749 H737 0.950 . S
C749 C745 1.393 . S
C749 C748 1.391 . S
C750 H740 0.950 . S
C750 C751 1.386 . S
C750 C752 1.391 . S
C751 C750 1.386 . S
C751 C755 1.393 . S
C752 H741 0.950 . S
C752 C750 1.391 . S
C752 C753 1.400 . S
C753 C747 1.491 . S
C753 C752 1.400 . S
C753 C754 1.398 . S
C754 H742 0.950 . S
C754 C753 1.398 . S
C754 C755 1.391 . S
C755 H743 0.950 . S
C755 C751 1.393 . S
C755 C754 1.391 . S
H756 C764 0.950 . S
H757 C769 0.950 . S
H758 C766 0.950 . S
H759 C768 0.950 . S
H760 C770 0.950 . S
H761 C772 0.950 . S
H762 C774 0.950 . S
H763 C775 0.950 . S
C764 H756 0.950 . S
C764 C765 1.386 . S
C764 C766 1.391 . S
C765 C764 1.386 . S
C765 C769 1.393 . S
C766 H758 0.950 . S
C766 C764 1.391 . S
C766 C767 1.400 . S
C767 C766 1.400 . S
C767 C768 1.398 . S
C767 C773 1.491 . S
C768 H759 0.950 . S
C768 C767 1.398 . S
C768 C769 1.391 . S
C769 H757 0.950 . S
C769 C765 1.393 . S
C769 C768 1.391 . S
C770 H760 0.950 . S
C770 C771 1.386 . S
C770 C772 1.391 . S
C771 C770 1.386 . S
C771 C775 1.393 . S
C772 H761 0.950 . S
C772 C770 1.391 . S
C772 C773 1.400 . S
C773 C767 1.491 . S
C773 C772 1.400 . S
C773 C774 1.398 . S
C774 H762 0.950 . S
C774 C773 1.398 . S
C774 C775 1.391 . S
C775 H763 0.950 . S
C775 C771 1.393 . S
C775 C774 1.391 . S
H776 C784 0.950 . S
H777 C789 0.950 . S
H778 C786 0.950 . S
H779 C788 0.950 . S
H780 C790 0.950 1_655 S
H781 C792 0.950 . S
H782 C794 0.950 . S
H783 C795 0.950 . S
C784 H776 0.950 . S
C784 C785 1.386 . S
C784 C786 1.391 . S
C785 C784 1.386 . S
C785 C789 1.393 . S
C786 H778 0.950 . S
C786 C784 1.391 . S
C786 C787 1.400 . S
C787 C786 1.400 . S
C787 C788 1.398 . S
C787 C793 1.491 . S
C788 H779 0.950 . S
C788 C787 1.398 . S
C788 C789 1.391 . S
C789 H777 0.950 . S
C789 C785 1.393 . S
C789 C788 1.391 . S
C790 H780 0.950 1_455 S
C790 C791 1.386 . S
C790 C792 1.391 . S
C791 C790 1.386 . S
C791 C795 1.393 . S
C792 H781 0.950 . S
C792 C790 1.391 . S
C792 C793 1.400 . S
C793 C787 1.491 . S
C793 C792 1.400 . S
C793 C794 1.398 . S
C794 H782 0.950 . S
C794 C793 1.398 . S
C794 C795 1.391 . S
C795 H783 0.950 . S
C795 C791 1.393 . S
C795 C794 1.391 . S
H796 C804 0.950 . S
H797 C809 0.950 . S
H798 C806 0.950 . S
H799 C808 0.950 . S
H800 C810 0.950 . S
H801 C812 0.950 . S
H802 C814 0.950 . S
H803 C815 0.950 . S
C804 H796 0.950 . S
C804 C805 1.386 . S
C804 C806 1.391 . S
C805 C804 1.386 . S
C805 C809 1.393 . S
C806 H798 0.950 . S
C806 C804 1.391 . S
C806 C807 1.400 . S
C807 C806 1.400 . S
C807 C808 1.398 . S
C807 C813 1.491 . S
C808 H799 0.950 . S
C808 C807 1.398 . S
C808 C809 1.391 . S
C809 H797 0.950 . S
C809 C805 1.393 . S
C809 C808 1.391 . S
C810 H800 0.950 . S
C810 C811 1.386 . S
C810 C812 1.391 . S
C811 C810 1.386 . S
C811 C815 1.393 . S
C812 H801 0.950 . S
C812 C810 1.391 . S
C812 C813 1.400 . S
C813 C807 1.491 . S
C813 C812 1.400 . S
C813 C814 1.398 . S
C814 H802 0.950 . S
C814 C813 1.398 . S
C814 C815 1.391 . S
C815 H803 0.950 . S
C815 C811 1.393 . S
C815 C814 1.391 . S
H816 C824 0.950 . S
H817 C829 0.950 . S
H818 C826 0.950 . S
H819 C828 0.950 . S
H820 C830 0.950 . S
H821 C832 0.950 . S
H822 C834 0.950 . S
H823 C835 0.950 . S
C824 H816 0.950 . S
C824 C825 1.386 . S
C824 C826 1.391 . S
C825 C824 1.386 . S
C825 C829 1.393 . S
C826 H818 0.950 . S
C826 C824 1.391 . S
C826 C827 1.400 . S
C827 C826 1.400 . S
C827 C828 1.398 . S
C827 C833 1.491 . S
C828 H819 0.950 . S
C828 C827 1.398 . S
C828 C829 1.391 . S
C829 H817 0.950 . S
C829 C825 1.393 . S
C829 C828 1.391 . S
C830 H820 0.950 . S
C830 C831 1.386 . S
C830 C832 1.391 . S
C831 C830 1.386 . S
C831 C835 1.393 . S
C832 H821 0.950 . S
C832 C830 1.391 . S
C832 C833 1.400 . S
C833 C827 1.491 . S
C833 C832 1.400 . S
C833 C834 1.398 . S
C834 H822 0.950 . S
C834 C833 1.398 . S
C834 C835 1.391 . S
C835 H823 0.950 . S
C835 C831 1.393 . S
C835 C834 1.391 . S
H836 C844 0.950 . S
H837 C849 0.950 . S
H838 C846 0.950 . S
H839 C848 0.950 . S
H840 C850 0.950 . S
H841 C852 0.950 . S
H842 C854 0.950 . S
H843 C855 0.950 . S
C844 H836 0.950 . S
C844 C845 1.386 . S
C844 C846 1.391 . S
C845 C844 1.386 . S
C845 C849 1.393 . S
C846 H838 0.950 . S
C846 C844 1.391 . S
C846 C847 1.400 . S
C847 C846 1.400 . S
C847 C848 1.398 . S
C847 C853 1.491 . S
C848 H839 0.950 . S
C848 C847 1.398 . S
C848 C849 1.391 . S
C849 H837 0.950 . S
C849 C845 1.393 . S
C849 C848 1.391 . S
C850 H840 0.950 . S
C850 C851 1.386 . S
C850 C852 1.391 . S
C851 C850 1.386 . S
C851 C855 1.393 . S
C852 H841 0.950 . S
C852 C850 1.391 . S
C852 C853 1.400 . S
C853 C847 1.491 . S
C853 C852 1.400 . S
C853 C854 1.398 . S
C854 H842 0.950 . S
C854 C853 1.398 . S
C854 C855 1.391 . S
C855 H843 0.950 . S
C855 C851 1.393 . S
C855 C854 1.391 . S
H856 C864 0.950 . S
H857 C869 0.950 . S
H858 C866 0.950 . S
H859 C868 0.950 . S
H860 C870 0.950 1_455 S
H861 C872 0.970 . S
H862 C874 0.950 . S
H863 C875 0.950 . S
C864 H856 0.950 . S
C864 C865 1.386 . S
C864 C866 1.391 . S
C865 C864 1.386 . S
C865 C869 1.393 . S
C866 H858 0.950 . S
C866 C864 1.391 . S
C866 C867 1.400 . S
C867 C866 1.400 . S
C867 C868 1.398 . S
C867 C873 1.491 . S
C868 H859 0.950 . S
C868 C867 1.398 . S
C868 C869 1.391 . S
C869 H857 0.950 . S
C869 C865 1.393 . S
C869 C868 1.391 . S
C870 H860 0.950 1_655 S
C870 C871 1.386 . S
C870 C872 1.391 . S
C871 C870 1.386 . S
C871 C875 1.393 . S
C872 H861 0.970 . S
C872 C870 1.391 . S
C872 C873 1.400 . S
C873 C867 1.491 . S
C873 C872 1.400 . S
C873 C874 1.398 . S
C874 H862 0.950 . S
C874 C873 1.398 . S
C874 C875 1.391 . S
C875 H863 0.950 . S
C875 C871 1.393 . S
C875 C874 1.391 . S
H876 C884 0.950 . S
H877 C889 0.950 . S
H878 C886 0.950 . S
H879 C888 0.950 . S
H880 C890 0.950 . S
H881 C892 0.950 . S
H882 C894 0.950 . S
H883 C895 0.950 . S
C884 H876 0.950 . S
C884 C885 1.386 . S
C884 C886 1.391 . S
C885 C884 1.386 . S
C885 C889 1.393 . S
C886 H878 0.950 . S
C886 C884 1.391 . S
C886 C887 1.400 . S
C887 C886 1.400 . S
C887 C888 1.398 . S
C887 C893 1.491 . S
C888 H879 0.950 . S
C888 C887 1.398 . S
C888 C889 1.391 . S
C889 H877 0.950 . S
C889 C885 1.393 . S
C889 C888 1.391 . S
C890 H880 0.950 . S
C890 C891 1.386 . S
C890 C892 1.391 . S
C891 C890 1.386 . S
C891 C895 1.393 . S
C892 H881 0.950 . S
C892 C890 1.391 . S
C892 C893 1.400 . S
C893 C887 1.491 . S
C893 C892 1.400 . S
C893 C894 1.398 . S
C894 H882 0.950 . S
C894 C893 1.398 . S
C894 C895 1.391 . S
C895 H883 0.950 . S
C895 C891 1.393 . S
C895 C894 1.391 . S
H896 C904 0.950 . S
H897 C909 0.950 . S
H898 C906 0.950 . S
H899 C908 0.950 . S
H900 C910 0.950 . S
H901 C912 0.950 . S
H902 C914 0.950 . S
H903 C915 0.950 . S
C904 H896 0.950 . S
C904 C905 1.386 . S
C904 C906 1.391 . S
C905 C904 1.386 . S
C905 C909 1.393 . S
C906 H898 0.950 . S
C906 C904 1.391 . S
C906 C907 1.400 . S
C907 C906 1.400 . S
C907 C908 1.398 . S
C907 C913 1.491 . S
C908 H899 0.950 . S
C908 C907 1.398 . S
C908 C909 1.391 . S
C909 H897 0.950 . S
C909 C905 1.393 . S
C909 C908 1.391 . S
C910 H900 0.950 . S
C910 C911 1.386 . S
C910 C912 1.391 . S
C911 C910 1.386 . S
C911 C915 1.393 . S
C912 H901 0.950 . S
C912 C910 1.391 . S
C912 C913 1.400 . S
C913 C907 1.491 . S
C913 C912 1.400 . S
C913 C914 1.398 . S
C914 H902 0.950 . S
C914 C913 1.398 . S
C914 C915 1.391 . S
C915 H903 0.950 . S
C915 C911 1.393 . S
C915 C914 1.391 . S
H916 C924 0.950 . S
H917 C929 0.950 . S
H918 C926 0.950 . S
H919 C928 0.950 . S
H920 C930 0.950 . S
H921 C932 0.950 . S
H922 C934 0.950 . S
H923 C935 0.950 . S
C924 H916 0.950 . S
C924 C925 1.386 . S
C924 C926 1.391 . S
C925 C924 1.386 . S
C925 C929 1.393 . S
C926 H918 0.950 . S
C926 C924 1.391 . S
C926 C927 1.400 . S
C927 C926 1.400 . S
C927 C928 1.398 . S
C927 C933 1.491 . S
C928 H919 0.950 . S
C928 C927 1.398 . S
C928 C929 1.391 . S
C929 H917 0.950 . S
C929 C925 1.393 . S
C929 C928 1.391 . S
C930 H920 0.950 . S
C930 C931 1.386 . S
C930 C932 1.391 . S
C931 C930 1.386 . S
C931 C935 1.393 . S
C932 H921 0.950 . S
C932 C930 1.391 . S
C932 C933 1.400 . S
C933 C927 1.491 . S
C933 C932 1.400 . S
C933 C934 1.398 . S
C934 H922 0.950 . S
C934 C933 1.398 . S
C934 C935 1.391 . S
C935 H923 0.950 . S
C935 C931 1.393 . S
C935 C934 1.391 . S
H936 C944 0.950 . S
H937 C949 0.950 . S
H938 C946 0.950 . S
H939 C948 0.950 . S
H940 C950 0.950 1_545 S
H941 C952 0.950 . S
H942 C954 0.950 . S
H943 C955 0.950 . S
C944 H936 0.950 . S
C944 C945 1.386 . S
C944 C946 1.391 . S
C945 C944 1.386 . S
C945 C949 1.393 . S
C946 H938 0.950 . S
C946 C944 1.391 . S
C946 C947 1.400 . S
C947 C946 1.400 . S
C947 C948 1.398 . S
C947 C953 1.491 . S
C948 H939 0.950 . S
C948 C947 1.398 . S
C948 C949 1.391 . S
C949 H937 0.950 . S
C949 C945 1.393 . S
C949 C948 1.391 . S
C950 H940 0.950 1_565 S
C950 C951 1.386 . S
C950 C952 1.391 . S
C951 C950 1.386 . S
C951 C955 1.393 . S
C952 H941 0.950 . S
C952 C950 1.391 . S
C952 C953 1.400 . S
C953 C947 1.491 . S
C953 C952 1.400 . S
C953 C954 1.398 . S
C954 H942 0.950 . S
C954 C953 1.398 . S
C954 C955 1.391 . S
C955 H943 0.950 . S
C955 C951 1.393 . S
C955 C954 1.391 . S
H956 C964 0.950 . S
H957 C969 0.950 . S
H958 C966 0.950 . S
H959 C968 0.950 . S
H960 C970 0.950 . S
H961 C972 0.950 . S
H962 C974 0.950 . S
H963 C975 0.950 . S
C964 H956 0.950 . S
C964 C965 1.386 . S
C964 C966 1.391 . S
C965 C964 1.386 . S
C965 C969 1.393 . S
C966 H958 0.950 . S
C966 C964 1.391 . S
C966 C967 1.400 . S
C967 C966 1.400 . S
C967 C968 1.398 . S
C967 C973 1.491 . S
C968 H959 0.950 . S
C968 C967 1.398 . S
C968 C969 1.391 . S
C969 H957 0.950 . S
C969 C965 1.393 . S
C969 C968 1.391 . S
C970 H960 0.950 . S
C970 C971 1.386 . S
C970 C972 1.391 . S
C971 C970 1.386 . S
C971 C975 1.393 . S
C972 H961 0.950 . S
C972 C970 1.391 . S
C972 C973 1.400 . S
C973 C967 1.491 . S
C973 C972 1.400 . S
C973 C974 1.398 . S
C974 H962 0.950 . S
C974 C973 1.398 . S
C974 C975 1.391 . S
C975 H963 0.950 . S
C975 C971 1.393 . S
C975 C974 1.391 . S
H976 C984 0.950 . S
H977 C989 0.950 . S
H978 C986 0.950 . S
H979 C988 0.950 . S
H980 C990 0.950 . S
H981 C992 0.950 . S
H982 C994 0.950 . S
H983 C995 0.950 . S
C984 H976 0.950 . S
C984 C985 1.386 . S
C984 C986 1.391 . S
C985 C984 1.386 . S
C985 C989 1.393 . S
C986 H978 0.950 . S
C986 C984 1.391 . S
C986 C987 1.400 . S
C987 C986 1.400 . S
C987 C988 1.398 . S
C987 C993 1.491 . S
C988 H979 0.950 . S
C988 C987 1.398 . S
C988 C989 1.391 . S
C989 H977 0.950 . S
C989 C985 1.393 . S
C989 C988 1.391 . S
C990 H980 0.950 . S
C990 C991 1.386 . S
C990 C992 1.391 . S
C991 C990 1.386 . S
C991 C995 1.393 . S
C992 H981 0.950 . S
C992 C990 1.391 . S
C992 C993 1.400 . S
C993 C987 1.491 . S
C993 C992 1.400 . S
C993 C994 1.398 . S
C994 H982 0.950 . S
C994 C993 1.398 . S
C994 C995 1.391 . S
C995 H983 0.950 . S
C995 C991 1.393 . S
C995 C994 1.391 . S
H996 C1004 0.950 . S
H997 C1009 0.950 . S
H998 C1006 0.950 . S
H999 C1008 0.950 . S
H1000 C1010 0.950 . S
H1001 C1012 0.950 . S
H1002 C1014 0.950 . S
H1003 C1015 0.950 . S
C1004 H996 0.950 . S
C1004 C1005 1.386 . S
C1004 C1006 1.391 . S
C1005 C1004 1.386 . S
C1005 C1009 1.393 . S
C1006 H998 0.950 . S
C1006 C1004 1.391 . S
C1006 C1007 1.400 . S
C1007 C1006 1.400 . S
C1007 C1008 1.398 . S
C1007 C1013 1.491 . S
C1008 H999 0.950 . S
C1008 C1007 1.398 . S
C1008 C1009 1.391 . S
C1009 H997 0.950 . S
C1009 C1005 1.393 . S
C1009 C1008 1.391 . S
C1010 H1000 0.950 . S
C1010 C1011 1.386 . S
C1010 C1012 1.391 . S
C1011 C1010 1.386 . S
C1011 C1015 1.393 . S
C1012 H1001 0.950 . S
C1012 C1010 1.391 . S
C1012 C1013 1.400 . S
C1013 C1007 1.491 . S
C1013 C1012 1.400 . S
C1013 C1014 1.398 . S
C1014 H1002 0.950 . S
C1014 C1013 1.398 . S
C1014 C1015 1.391 . S
C1015 H1003 0.950 . S
C1015 C1011 1.393 . S
C1015 C1014 1.391 . S
H1016 C1024 0.950 . S
H1017 C1029 0.950 . S
H1018 C1026 0.950 . S
H1019 C1028 0.950 . S
H1020 C1030 0.950 1_554 S
H1021 C1032 0.950 . S
H1022 C1034 0.950 . S
H1023 C1035 0.950 . S
C1024 H1016 0.950 . S
C1024 C1025 1.386 . S
C1024 C1026 1.391 . S
C1025 C1024 1.386 . S
C1025 C1029 1.393 . S
C1026 H1018 0.950 . S
C1026 C1024 1.391 . S
C1026 C1027 1.400 . S
C1027 C1026 1.400 . S
C1027 C1028 1.398 . S
C1027 C1033 1.491 . S
C1028 H1019 0.950 . S
C1028 C1027 1.398 . S
C1028 C1029 1.391 . S
C1029 H1017 0.950 . S
C1029 C1025 1.393 . S
C1029 C1028 1.391 . S
C1030 H1020 0.950 1_556 S
C1030 C1031 1.386 . S
C1030 C1032 1.391 . S
C1031 C1030 1.386 . S
C1031 C1035 1.393 . S
C1032 H1021 0.950 . S
C1032 C1030 1.391 . S
C1032 C1033 1.400 . S
C1033 C1027 1.491 . S
C1033 C1032 1.400 . S
C1033 C1034 1.398 . S
C1034 H1022 0.950 . S
C1034 C1033 1.398 . S
C1034 C1035 1.391 . S
C1035 H1023 0.950 . S
C1035 C1031 1.393 . S
C1035 C1034 1.391 . S
H1036 C1044 0.950 . S
H1037 C1049 0.950 . S
H1038 C1046 0.950 . S
H1039 C1048 0.950 . S
H1040 C1050 0.950 . S
H1041 C1052 0.950 . S
H1042 C1054 0.950 . S
H1043 C1055 0.950 . S
C1044 H1036 0.950 . S
C1044 C1045 1.386 . S
C1044 C1046 1.391 . S
C1045 C1044 1.386 . S
C1045 C1049 1.393 . S
C1046 H1038 0.950 . S
C1046 C1044 1.391 . S
C1046 C1047 1.400 . S
C1047 C1046 1.400 . S
C1047 C1048 1.398 . S
C1047 C1053 1.491 . S
C1048 H1039 0.950 . S
C1048 C1047 1.398 . S
C1048 C1049 1.391 . S
C1049 H1037 0.950 . S
C1049 C1045 1.393 . S
C1049 C1048 1.391 . S
C1050 H1040 0.950 . S
C1050 C1051 1.386 . S
C1050 C1052 1.391 . S
C1051 C1050 1.386 . S
C1051 C1055 1.393 . S
C1052 H1041 0.950 . S
C1052 C1050 1.391 . S
C1052 C1053 1.400 . S
C1053 C1047 1.491 . S
C1053 C1052 1.400 . S
C1053 C1054 1.398 . S
C1054 H1042 0.950 . S
C1054 C1053 1.398 . S
C1054 C1055 1.391 . S
C1055 H1043 0.950 . S
C1055 C1051 1.393 . S
C1055 C1054 1.391 . S
H1056 C1064 0.950 . S
H1057 C1069 0.950 . S
H1058 C1066 0.950 . S
H1059 C1068 0.950 . S
H1060 C1070 0.950 . S
H1061 C1072 0.950 . S
H1062 C1074 0.950 . S
H1063 C1075 0.950 . S
C1064 H1056 0.950 . S
C1064 C1065 1.386 . S
C1064 C1066 1.391 . S
C1065 C1064 1.386 . S
C1065 C1069 1.393 . S
C1066 H1058 0.950 . S
C1066 C1064 1.391 . S
C1066 C1067 1.400 . S
C1067 C1066 1.400 . S
C1067 C1068 1.398 . S
C1067 C1073 1.491 . S
C1068 H1059 0.950 . S
C1068 C1067 1.398 . S
C1068 C1069 1.391 . S
C1069 H1057 0.950 . S
C1069 C1065 1.393 . S
C1069 C1068 1.391 . S
C1070 H1060 0.950 . S
C1070 C1071 1.386 . S
C1070 C1072 1.391 . S
C1071 C1070 1.386 . S
C1071 C1075 1.393 . S
C1072 H1061 0.950 . S
C1072 C1070 1.391 . S
C1072 C1073 1.400 . S
C1073 C1067 1.491 . S
C1073 C1072 1.400 . S
C1073 C1074 1.398 . S
C1074 H1062 0.950 . S
C1074 C1073 1.398 . S
C1074 C1075 1.391 . S
C1075 H1063 0.950 . S
C1075 C1071 1.393 . S
C1075 C1074 1.391 . S
H1076 C1084 0.950 . S
H1077 C1089 0.950 . S
H1078 C1086 0.950 . S
H1079 C1088 0.950 . S
H1080 C1090 0.950 . S
H1081 C1092 0.950 . S
H1082 C1094 0.950 . S
H1083 C1095 0.950 . S
C1084 H1076 0.950 . S
C1084 C1085 1.386 . S
C1084 C1086 1.391 . S
C1085 C1084 1.386 . S
C1085 C1089 1.393 . S
C1086 H1078 0.950 . S
C1086 C1084 1.391 . S
C1086 C1087 1.400 . S
C1087 C1086 1.400 . S
C1087 C1088 1.398 . S
C1087 C1093 1.491 . S
C1088 H1079 0.950 . S
C1088 C1087 1.398 . S
C1088 C1089 1.391 . S
C1089 H1077 0.950 . S
C1089 C1085 1.393 . S
C1089 C1088 1.391 . S
C1090 H1080 0.950 . S
C1090 C1091 1.386 . S
C1090 C1092 1.391 . S
C1091 C1090 1.386 . S
C1091 C1095 1.393 . S
C1092 H1081 0.950 . S
C1092 C1090 1.391 . S
C1092 C1093 1.400 . S
C1093 C1087 1.491 . S
C1093 C1092 1.400 . S
C1093 C1094 1.398 . S
C1094 H1082 0.950 . S
C1094 C1093 1.398 . S
C1094 C1095 1.391 . S
C1095 H1083 0.950 . S
C1095 C1091 1.393 . S
C1095 C1094 1.391 . S
C625 C1 2.310 . S
C631 C480 2.330 . S
C645 C80 2.230 . S
C651 C522 2.302 . S
C671 C552 1.001 . S
C665 C140 0.974 . S
C685 C211 1.051 . S
C691 C586 1.084 . S
C711 C543 1.870 . S
C705 C31 1.860 . S
C731 C497 1.869 . S
C725 C61 1.805 . S
C751 C590 1.384 . S
C745 C151 1.321 . S
C771 C556 1.443 . S
C765 C200 1.378 . S
C785 C20 2.194 . S
C791 C611 2.224 . S
C811 C518 1.162 . S
C805 C121 1.112 . S
C825 C181 1.127 . S
C831 C493 1.165 . S
C845 C91 2.124 . S
C851 C577 2.200 . S
C871 C509 2.332 . S
C865 C260 2.304 . S
C885 C320 2.241 . S
C891 C531 2.296 . S
C905 C361 1.007 . S
C911 C561 1.006 . S
C925 C451 1.049 . S
C931 C595 1.087 . S
C945 C271 1.839 . S
C951 C514 1.873 . S
C971 C488 1.873 . S
C965 C301 1.821 . S
C991 C599 1.374 . S
C985 C380 1.364 . S
C1011 C565 1.439 . S
C1005 C440 1.362 . S
C1025 C241 2.215 . S
C1031 C582 2.227 . S
C1051 C527 1.154 . S
C1045 C391 1.125 . S
C1071 C484 1.167 . S
C1065 C421 1.119 . S
C1085 C331 2.127 . S
C1091 C548 2.201 . S
