# Generated by pormake.
# Topology pyr, (3,6)-cn, num edge types: 1
# Building blocks:
#     Node 0, Type 0, BuildingBlock: VETTIZ_charged_linker_0, # of connection points: 3
#     Node 1, Type 0, BuildingBlock: VETTIZ_charged_linker_0, # of connection points: 3
#     Node 2, Type 0, BuildingBlock: VETTIZ_charged_linker_0, # of connection points: 3
#     Node 3, Type 0, BuildingBlock: VETTIZ_charged_linker_0, # of connection points: 3
#     Node 4, Type 0, BuildingBlock: VETTIZ_charged_linker_0, # of connection points: 3
#     Node 5, Type 0, BuildingBlock: VETTIZ_charged_linker_0, # of connection points: 3
#     Node 6, Type 0, BuildingBlock: VETTIZ_charged_linker_0, # of connection points: 3
#     Node 7, Type 0, BuildingBlock: VETTIZ_charged_linker_0, # of connection points: 3
#     Node 8, Type 1, BuildingBlock: JUFBIX_clean_sbu_0, # of connection points: 6
#     Node 9, Type 1, BuildingBlock: JUFBIX_clean_sbu_0, # of connection points: 6
#     Node 10, Type 1, BuildingBlock: JUFBIX_clean_sbu_0, # of connection points: 6
#     Node 11, Type 1, BuildingBlock: JUFBIX_clean_sbu_0, # of connection points: 6
#     Edge 12, Type (0, 1), BuildingBlock: AJUNOK_clean_linker_0, # of connection points: 2
#     Edge 13, Type (0, 1), BuildingBlock: AJUNOK_clean_linker_0, # of connection points: 2
#     Edge 14, Type (0, 1), BuildingBlock: AJUNOK_clean_linker_0, # of connection points: 2
#     Edge 15, Type (0, 1), BuildingBlock: AJUNOK_clean_linker_0, # of connection points: 2
#     Edge 16, Type (0, 1), BuildingBlock: AJUNOK_clean_linker_0, # of connection points: 2
#     Edge 17, Type (0, 1), BuildingBlock: AJUNOK_clean_linker_0, # of connection points: 2
#     Edge 18, Type (0, 1), BuildingBlock: AJUNOK_clean_linker_0, # of connection points: 2
#     Edge 19, Type (0, 1), BuildingBlock: AJUNOK_clean_linker_0, # of connection points: 2
#     Edge 20, Type (0, 1), BuildingBlock: AJUNOK_clean_linker_0, # of connection points: 2
#     Edge 21, Type (0, 1), BuildingBlock: AJUNOK_clean_linker_0, # of connection points: 2
#     Edge 22, Type (0, 1), BuildingBlock: AJUNOK_clean_linker_0, # of connection points: 2
#     Edge 23, Type (0, 1), BuildingBlock: AJUNOK_clean_linker_0, # of connection points: 2
#     Edge 24, Type (0, 1), BuildingBlock: AJUNOK_clean_linker_0, # of connection points: 2
#     Edge 25, Type (0, 1), BuildingBlock: AJUNOK_clean_linker_0, # of connection points: 2
#     Edge 26, Type (0, 1), BuildingBlock: AJUNOK_clean_linker_0, # of connection points: 2
#     Edge 27, Type (0, 1), BuildingBlock: AJUNOK_clean_linker_0, # of connection points: 2
#     Edge 28, Type (0, 1), BuildingBlock: AJUNOK_clean_linker_0, # of connection points: 2
#     Edge 29, Type (0, 1), BuildingBlock: AJUNOK_clean_linker_0, # of connection points: 2
#     Edge 30, Type (0, 1), BuildingBlock: AJUNOK_clean_linker_0, # of connection points: 2
#     Edge 31, Type (0, 1), BuildingBlock: AJUNOK_clean_linker_0, # of connection points: 2
#     Edge 32, Type (0, 1), BuildingBlock: AJUNOK_clean_linker_0, # of connection points: 2
#     Edge 33, Type (0, 1), BuildingBlock: AJUNOK_clean_linker_0, # of connection points: 2
#     Edge 34, Type (0, 1), BuildingBlock: AJUNOK_clean_linker_0, # of connection points: 2
#     Edge 35, Type (0, 1), BuildingBlock: AJUNOK_clean_linker_0, # of connection points: 2
# Relax obj value: 0.065
# Max RMSD: 0.101
# Mean RMSD: 0.035
data_MOF--net-pyr--node1-JUFBIX_clean_sbu_0--node2-VETTIZ_charged_linker_0--edge1-AJUNOK_clean_linker_0
_symmetry_space_group_name_H-M    P1
_symmetry_Int_Tables_number       1
_symmetry_cell_setting            triclinic
loop_
_symmetry_equiv_pos_as_xyz
'x, y, z'
_cell_length_a     35.600489
_cell_length_b     33.8331
_cell_length_c     35.70746
_cell_angle_alpha  83.703293
_cell_angle_beta   89.990585
_cell_angle_gamma 91.433991
loop_
_atom_site_label
_atom_site_type_symbol
_atom_site_fract_x
_atom_site_fract_y
_atom_site_fract_z
_atom_type_partial_charge
C0 C 0.16611 0.08818 0.30024 0.0
C1 C 0.13358 0.10072 0.31811 0.0
C2 C 0.11525 0.13447 0.3011 0.0
C3 C 0.15997 0.1419 0.24919 0.0
C4 C 0.17861 0.10907 0.26563 0.0
C5 C 0.21179 0.09978 0.24156 0.0
H6 H 0.31485 0.14243 0.07855 0.0
C7 C 0.17872 0.15636 0.21284 0.0
C8 C 0.20912 0.13167 0.20774 0.0
H9 H 0.33586 0.05201 0.17065 0.0
H10 H 0.28119 0.0716 0.20375 0.0
H11 H 0.29283 0.21229 0.13214 0.0
H12 H 0.22364 0.12891 0.07761 0.0
H13 H 0.20215 0.17542 0.07256 0.0
H14 H 0.24755 0.17037 0.05132 0.0
H15 H 0.28988 0.21349 0.08179 0.0
H16 H 0.25565 0.2374 0.10803 0.0
C17 C 0.24809 0.10503 0.26442 0.0
C18 C 0.20565 0.05745 0.22992 0.0
C19 C 0.1263 0.27761 0.13467 0.0
C20 C 0.13336 0.29654 0.09804 0.0
C21 C 0.16233 0.28135 0.07692 0.0
C22 C 0.18345 0.24851 0.0918 0.0
C23 C 0.17557 0.22985 0.12828 0.0
C24 C 0.1469 0.24423 0.14866 0.0
C25 C 0.14017 0.21929 0.18567 0.0
C26 C 0.17029 0.18826 0.18491 0.0
C27 C 0.1915 0.1947 0.15146 0.0
C28 C 0.14713 0.24606 0.21766 0.0
C29 C 0.09989 0.20058 0.18499 0.0
C30 C 0.30756 0.12673 0.10575 0.0
C31 C 0.33025 0.09573 0.12196 0.0
C32 C 0.31951 0.07634 0.15761 0.0
C33 C 0.28757 0.08771 0.17684 0.0
C34 C 0.26563 0.11914 0.16063 0.0
C35 C 0.27586 0.13812 0.12559 0.0
C36 C 0.24972 0.17146 0.11295 0.0
C37 C 0.22247 0.16972 0.14609 0.0
C38 C 0.23159 0.13864 0.17411 0.0
C39 C 0.27304 0.21088 0.10818 0.0
C40 C 0.22976 0.16143 0.07654 0.0
H41 H 0.11276 0.1805 0.25629 0.0
H42 H 0.18087 0.06229 0.31243 0.0
H43 H 0.17608 0.05297 0.22091 0.0
H44 H 0.22321 0.05179 0.20573 0.0
H45 H 0.2114 0.03457 0.25385 0.0
H46 H 0.24644 0.13153 0.2802 0.0
H47 H 0.25253 0.07866 0.28523 0.0
H48 H 0.2733 0.1104 0.24644 0.0
H49 H 0.10532 0.28853 0.15258 0.0
H50 H 0.16854 0.2946 0.04855 0.0
H51 H 0.20498 0.23868 0.07418 0.0
H52 H 0.17203 0.26618 0.21113 0.0
H53 H 0.12259 0.26492 0.2213 0.0
H54 H 0.15352 0.22902 0.24498 0.0
H55 H 0.09003 0.19838 0.1557 0.0
H56 H 0.09834 0.16957 0.19857 0.0
H57 H 0.07929 0.21858 0.19865 0.0
H58 H 0.09057 0.14512 0.31425 0.0
C59 C 0.12823 0.15505 0.26721 0.0
C60 C 0.32402 0.92786 0.56355 0.0
C61 C 0.31165 0.96389 0.57467 0.0
C62 C 0.33666 0.98834 0.59278 0.0
C63 C 0.38304 0.93729 0.59554 0.0
C64 C 0.35992 0.91505 0.57438 0.0
C65 C 0.37617 0.87527 0.56944 0.0
H66 H 0.50171 0.73446 0.62537 0.0
C67 C 0.4146 0.91248 0.60933 0.0
C68 C 0.41123 0.87635 0.59367 0.0
H69 H 0.41792 0.73234 0.53801 0.0
H70 H 0.39965 0.79874 0.54794 0.0
H71 H 0.53213 0.8267 0.60135 0.0
H72 H 0.4524 0.77142 0.68225 0.0
H73 H 0.47065 0.81295 0.70205 0.0
H74 H 0.5016 0.77373 0.69263 0.0
H75 H 0.54433 0.7935 0.64202 0.0
H76 H 0.53983 0.84601 0.64478 0.0
C77 C 0.38587 0.8745 0.5272 0.0
C78 C 0.34768 0.84227 0.58542 0.0
C79 C 0.48545 0.95096 0.72254 0.0
C80 C 0.50677 0.92842 0.74964 0.0
C81 C 0.52188 0.89243 0.74091 0.0
C82 C 0.51257 0.87724 0.70699 0.0
C83 C 0.48745 0.89801 0.68209 0.0
C84 C 0.47542 0.93492 0.68947 0.0
C85 C 0.44594 0.95103 0.6623 0.0
C86 C 0.44132 0.91716 0.63805 0.0
C87 C 0.46578 0.8863 0.64959 0.0
C88 C 0.46254 0.98896 0.63934 0.0
C89 C 0.40969 0.9577 0.68505 0.0
C90 C 0.47957 0.7485 0.6083 0.0
C91 C 0.46124 0.72849 0.5808 0.0
C92 C 0.43216 0.74727 0.55951 0.0
C93 C 0.42184 0.78584 0.56511 0.0
C94 C 0.44048 0.80557 0.59262 0.0
C95 C 0.46895 0.78702 0.61354 0.0
C96 C 0.48557 0.81261 0.64151 0.0
C97 C 0.46334 0.85019 0.63281 0.0
C98 C 0.43656 0.84555 0.60464 0.0
C99 C 0.52779 0.82008 0.63228 0.0
C100 C 0.4775 0.79176 0.68175 0.0
H101 H 0.38971 0.99441 0.61831 0.0
H102 H 0.30509 0.9087 0.54956 0.0
H103 H 0.33599 0.84927 0.61276 0.0
H104 H 0.36022 0.81281 0.5914 0.0
H105 H 0.32385 0.83952 0.56573 0.0
H106 H 0.391 0.90502 0.51278 0.0
H107 H 0.36266 0.86057 0.51206 0.0
H108 H 0.4122 0.85876 0.52309 0.0
H109 H 0.47304 0.97842 0.72885 0.0
H110 H 0.53884 0.87489 0.76138 0.0
H111 H 0.52345 0.84884 0.70252 0.0
H112 H 0.49284 0.98547 0.63311 0.0
H113 H 0.46022 0.01528 0.65517 0.0
H114 H 0.44916 0.99528 0.61145 0.0
H115 H 0.40892 0.93914 0.71278 0.0
H116 H 0.38364 0.94863 0.67122 0.0
H117 H 0.40762 0.98922 0.69065 0.0
H118 H 0.32755 0.01643 0.60112 0.0
C119 C 0.37255 0.97542 0.60287 0.0
C120 C 0.65253 0.23881 0.92748 0.0
C121 C 0.61877 0.22205 0.91486 0.0
C122 C 0.60029 0.24205 0.8837 0.0
C123 C 0.64987 0.29275 0.87662 0.0
C124 C 0.66746 0.27416 0.90799 0.0
C125 C 0.70284 0.29649 0.91743 0.0
H126 H 0.82386 0.45472 0.88013 0.0
C127 C 0.67273 0.32838 0.86234 0.0
C128 C 0.70369 0.3311 0.88622 0.0
H129 H 0.82729 0.35944 0.97112 0.0
H130 H 0.77186 0.3289 0.94722 0.0
H131 H 0.73226 0.46574 0.88086 0.0
H132 H 0.79901 0.39486 0.81331 0.0
H133 H 0.76661 0.42313 0.78494 0.0
H134 H 0.80316 0.44823 0.80874 0.0
H135 H 0.7651 0.48815 0.8461 0.0
H136 H 0.71845 0.47303 0.83319 0.0
C137 C 0.69752 0.31069 0.95687 0.0
C138 C 0.73645 0.26878 0.91447 0.0
C139 C 0.63112 0.40907 0.74237 0.0
C140 C 0.64485 0.44362 0.72083 0.0
C141 C 0.67753 0.46275 0.73351 0.0
C142 C 0.69621 0.44732 0.76664 0.0
C143 C 0.68206 0.41244 0.78765 0.0
C144 C 0.64981 0.39429 0.77528 0.0
C145 C 0.63775 0.35816 0.80089 0.0
C146 C 0.66831 0.35686 0.8305 0.0
C147 C 0.6945 0.38861 0.82295 0.0
C148 C 0.59863 0.36599 0.81749 0.0
C149 C 0.63879 0.32179 0.77798 0.0
C150 C 0.81263 0.4272 0.8947 0.0
C151 C 0.82968 0.40995 0.92813 0.0
C152 C 0.81428 0.37394 0.94601 0.0
C153 C 0.78208 0.3561 0.93195 0.0
C154 C 0.76469 0.37413 0.89935 0.0
C155 C 0.7801 0.40888 0.88092 0.0
C156 C 0.75747 0.42332 0.8464 0.0
C157 C 0.72581 0.39192 0.84766 0.0
C158 C 0.73037 0.36316 0.87892 0.0
C159 C 0.74258 0.46489 0.85156 0.0
C160 C 0.78276 0.42267 0.81132 0.0
H161 H 0.60029 0.29012 0.84072 0.0
H162 H 0.66724 0.22447 0.95159 0.0
H163 H 0.73247 0.25046 0.89065 0.0
H164 H 0.76334 0.28519 0.9084 0.0
H165 H 0.73943 0.24809 0.94063 0.0
H166 H 0.66776 0.31833 0.96144 0.0
H167 H 0.70509 0.28716 0.97958 0.0
H168 H 0.71378 0.33821 0.96052 0.0
H169 H 0.60631 0.39335 0.73361 0.0
H170 H 0.68844 0.48995 0.71808 0.0
H171 H 0.72084 0.4632 0.77476 0.0
H172 H 0.59424 0.39834 0.81833 0.0
H173 H 0.57557 0.35448 0.80042 0.0
H174 H 0.59532 0.35299 0.84716 0.0
H175 H 0.66337 0.3242 0.75854 0.0
H176 H 0.64213 0.29329 0.79574 0.0
H177 H 0.61305 0.31973 0.76065 0.0
H178 H 0.57364 0.23075 0.87416 0.0
C179 C 0.61569 0.27694 0.86447 0.0
C180 C 1.02128 0.75336 0.45271 0.0
C181 C 1.01087 0.77171 0.48452 0.0
C182 C 0.9867 0.7511 0.51159 0.0
C183 C 0.97887 0.69771 0.47222 0.0
C184 C 1.00516 0.71619 0.44729 0.0
C185 C 1.01151 0.69299 0.41427 0.0
H186 H 0.95637 0.54029 0.31752 0.0
C187 C 0.96427 0.6618 0.45672 0.0
C188 C 0.98417 0.65801 0.42333 0.0
H189 H 0.04159 0.63056 0.28502 0.0
H190 H 0.03376 0.65781 0.34468 0.0
H191 H 0.9799 0.52349 0.4088 0.0
H192 H 0.90187 0.58824 0.3381 0.0
H193 H 0.88047 0.58873 0.38215 0.0
H194 H 0.88786 0.54195 0.36368 0.0
H195 H 0.94018 0.50344 0.38556 0.0
H196 H 0.93618 0.51865 0.43228 0.0
C197 C 0.05279 0.67973 0.41514 0.0
C198 C 1.00053 0.71937 0.37788 0.0
C199 C 0.83789 0.60149 0.50041 0.0
C200 C 0.81455 0.57326 0.48491 0.0
C201 C 0.83061 0.54771 0.46109 0.0
C202 C 0.868 0.5531 0.44953 0.0
C203 C 0.88927 0.58508 0.46093 0.0
C204 C 0.87507 0.60737 0.48755 0.0
C205 C 0.90221 0.64012 0.49612 0.0
C206 C 0.93323 0.63583 0.46749 0.0
C207 C 0.92504 0.60381 0.44682 0.0
C208 C 0.91611 0.63104 0.53725 0.0
C209 C 0.88218 0.68033 0.48834 0.0
C210 C 0.97405 0.56535 0.32361 0.0
C211 C 0.99962 0.58329 0.29679 0.0
C212 C 1.02145 0.61648 0.30531 0.0
C213 C 1.01682 0.63217 0.33987 0.0
C214 C 0.98965 0.61484 0.36574 0.0
C215 C 0.96919 0.58172 0.35737 0.0
C216 C 0.93969 0.56854 0.38625 0.0
C217 C 0.94597 0.59892 0.41395 0.0
C218 C 0.97527 0.62595 0.40201 0.0
C219 C 0.94912 0.52617 0.40417 0.0
C220 C 0.90048 0.57176 0.36682 0.0
H221 H 0.95169 0.70016 0.5266 0.0
H222 H 0.0404 0.76831 0.43185 0.0
H223 H 0.97516 0.7367 0.38274 0.0
H224 H 0.99292 0.70208 0.35445 0.0
H225 H 1.0236 0.74089 0.36846 0.0
H226 H 0.06205 0.6711 0.4446 0.0
H227 H 0.07189 0.70417 0.40271 0.0
H228 H 0.05694 0.65314 0.40039 0.0
H229 H 0.82677 0.62027 0.52022 0.0
H230 H 0.8136 0.52527 0.44914 0.0
H231 H 0.87815 0.53364 0.43032 0.0
H232 H 0.91103 0.5993 0.5483 0.0
H233 H 0.90159 0.64938 0.5565 0.0
H234 H 0.94689 0.63599 0.53957 0.0
H235 H 0.8689 0.68291 0.46001 0.0
H236 H 0.90126 0.70637 0.48875 0.0
H237 H 0.85982 0.6829 0.50957 0.0
H238 H 0.97852 0.76464 0.53638 0.0
C239 C 0.97083 0.71402 0.50569 0.0
C240 C 0.89551 0.74181 0.9439 0.0
C241 C 0.92673 0.72237 0.93033 0.0
C242 C 0.94014 0.73559 0.89375 0.0
C243 C 0.89452 0.78807 0.88642 0.0
C244 C 0.87979 0.77435 0.92139 0.0
C245 C 0.84608 0.79803 0.93056 0.0
H246 H 0.72395 0.94726 0.87995 0.0
C247 C 0.87245 0.82255 0.87015 0.0
C248 C 0.84354 0.82837 0.89562 0.0
H249 H 0.72396 0.86577 0.98201 0.0
H250 H 0.77918 0.83478 0.96074 0.0
H251 H 0.74674 0.88138 0.82122 0.0
H252 H 0.81719 0.9626 0.87758 0.0
H253 H 0.82929 0.96502 0.82946 0.0
H254 H 0.7834 0.98002 0.84258 0.0
H255 H 0.74391 0.93442 0.81084 0.0
H256 H 0.77915 0.90698 0.78927 0.0
C257 C 0.81138 0.76936 0.9345 0.0
C258 C 0.85517 0.8183 0.96639 0.0
C259 C 0.91576 0.89749 0.74543 0.0
C260 C 0.90199 0.92978 0.72164 0.0
C261 C 0.86865 0.94742 0.73254 0.0
C262 C 0.8498 0.93342 0.7665 0.0
C263 C 0.8641 0.90108 0.79006 0.0
C264 C 0.89642 0.88357 0.77892 0.0
C265 C 0.90702 0.84847 0.80601 0.0
C266 C 0.87671 0.84841 0.83606 0.0
C267 C 0.85137 0.87932 0.82694 0.0
C268 C 0.90424 0.81067 0.78499 0.0
C269 C 0.94658 0.85731 0.82166 0.0
C270 C 0.7356 0.92245 0.89751 0.0
C271 C 0.71896 0.90891 0.93282 0.0
C272 C 0.73592 0.87707 0.95492 0.0
C273 C 0.76805 0.85888 0.94238 0.0
C274 C 0.78416 0.87249 0.90718 0.0
C275 C 0.76813 0.90403 0.8854 0.0
C276 C 0.78999 0.91509 0.84916 0.0
C277 C 0.82122 0.8847 0.85247 0.0
C278 C 0.81752 0.8596 0.88669 0.0
C279 C 0.76369 0.90949 0.81564 0.0
C280 C 0.80575 0.95804 0.84933 0.0
H281 H 0.9369 0.77671 0.84495 0.0
H282 H 0.88377 0.73219 0.97146 0.0
H283 H 0.88492 0.82923 0.96596 0.0
H284 H 0.83833 0.84486 0.96876 0.0
H285 H 0.85101 0.79714 0.9922 0.0
H286 H 0.81245 0.74756 0.91337 0.0
H287 H 0.81021 0.75231 0.9629 0.0
H288 H 0.78462 0.78469 0.92903 0.0
H289 H 0.94086 0.88277 0.73775 0.0
H290 H 0.85738 0.97243 0.71494 0.0
H291 H 0.82473 0.94824 0.77312 0.0
H292 H 0.88453 0.81454 0.76074 0.0
H293 H 0.93201 0.80333 0.77376 0.0
H294 H 0.89266 0.78447 0.80301 0.0
H295 H 0.949 0.88865 0.8283 0.0
H296 H 0.95291 0.83898 0.84826 0.0
H297 H 0.96876 0.85295 0.80073 0.0
H298 H 0.96258 0.72032 0.88136 0.0
C299 C 0.92466 0.76824 0.87215 0.0
C300 C 0.72084 0.08816 0.47944 0.0
C301 C 0.73297 0.05206 0.46829 0.0
C302 C 0.70763 0.02761 0.45055 0.0
C303 C 0.66147 0.07888 0.44805 0.0
C304 C 0.68491 0.1011 0.46892 0.0
C305 C 0.669 0.14101 0.47383 0.0
H306 H 0.54674 0.28429 0.41608 0.0
C307 C 0.63011 0.10394 0.43419 0.0
C308 C 0.63391 0.14017 0.44961 0.0
H309 H 0.62935 0.28419 0.50476 0.0
H310 H 0.64561 0.21702 0.49582 0.0
H311 H 0.51394 0.19119 0.43895 0.0
H312 H 0.59547 0.24709 0.3604 0.0
H313 H 0.57929 0.20472 0.34049 0.0
H314 H 0.54687 0.24333 0.34799 0.0
H315 H 0.50344 0.22629 0.39907 0.0
H316 H 0.50668 0.17408 0.39436 0.0
C317 C 0.65937 0.14192 0.51609 0.0
C318 C 0.69772 0.17376 0.4578 0.0
C319 C 0.55947 0.06543 0.3208 0.0
C320 C 0.5395 0.08828 0.29279 0.0
C321 C 0.52638 0.12565 0.30001 0.0
C322 C 0.53549 0.14121 0.33381 0.0
C323 C 0.55893 0.11965 0.35991 0.0
C324 C 0.56978 0.08201 0.35353 0.0
C325 C 0.59834 0.06531 0.38147 0.0
C326 C 0.60362 0.09957 0.40518 0.0
C327 C 0.58017 0.1311 0.39278 0.0
C328 C 0.58023 0.02844 0.40476 0.0
C329 C 0.63477 0.05659 0.35981 0.0
C330 C 0.5683 0.2696 0.43349 0.0
C331 C 0.58724 0.28942 0.46076 0.0
C332 C 0.61504 0.2696 0.48307 0.0
C333 C 0.62419 0.23058 0.47806 0.0
C334 C 0.60568 0.21138 0.45014 0.0
C335 C 0.57798 0.23064 0.42865 0.0
C336 C 0.56158 0.20542 0.40021 0.0
C337 C 0.5829 0.16726 0.40947 0.0
C338 C 0.60916 0.17136 0.4382 0.0
C339 C 0.51906 0.19891 0.40825 0.0
C340 C 0.57095 0.22607 0.36016 0.0
H341 H 0.65407 0.02153 0.42597 0.0
H342 H 0.73997 0.10734 0.49318 0.0
H343 H 0.70901 0.16684 0.43027 0.0
H344 H 0.68555 0.20344 0.45224 0.0
H345 H 0.7218 0.17604 0.4773 0.0
H346 H 0.65532 0.11144 0.53095 0.0
H347 H 0.68211 0.15698 0.53091 0.0
H348 H 0.63249 0.15673 0.52013 0.0
H349 H 0.57084 0.03716 0.31543 0.0
H350 H 0.51101 0.14372 0.27856 0.0
H351 H 0.52582 0.17035 0.33733 0.0
H352 H 0.55058 0.03406 0.41201 0.0
H353 H 0.58014 1.00219 0.38859 0.0
H354 H 0.59441 0.02085 0.43204 0.0
H355 H 0.63482 0.07032 0.33004 0.0
H356 H 0.6604 0.06942 0.37173 0.0
H357 H 0.63835 0.02415 0.35919 0.0
H358 H 0.71649 0.99939 0.4423 0.0
C359 C 0.67167 0.04065 0.44081 0.0
C360 C 0.42123 0.60767 0.29643 0.0
C361 C 0.40428 0.57845 0.32245 0.0
C362 C 0.36887 0.56226 0.31316 0.0
C363 C 0.36738 0.60659 0.25442 0.0
C364 C 0.40212 0.62191 0.26369 0.0
C365 C 0.41513 0.65634 0.23647 0.0
H366 H 0.38303 0.79098 0.08758 0.0
C367 C 0.35501 0.6296 0.21862 0.0
C368 C 0.38288 0.65918 0.20877 0.0
H369 H 0.47925 0.78289 0.1618 0.0
H370 H 0.45299 0.72326 0.19534 0.0
H371 H 0.31806 0.76334 0.15043 0.0
H372 H 0.38206 0.70035 0.07519 0.0
H373 H 0.33879 0.67444 0.08106 0.0
H374 H 0.34013 0.72552 0.05996 0.0
H375 H 0.31374 0.76991 0.10002 0.0
H376 H 0.2873 0.73153 0.12822 0.0
C377 C 0.4187 0.69359 0.25828 0.0
C378 C 0.45203 0.64474 0.21784 0.0
C379 C 0.23541 0.59148 0.14906 0.0
C380 C 0.21894 0.60738 0.11478 0.0
C381 C 0.23597 0.64143 0.09481 0.0
C382 C 0.26856 0.65919 0.10823 0.0
C383 C 0.28484 0.64289 0.14211 0.0
C384 C 0.26835 0.60962 0.16212 0.0
C385 C 0.29005 0.59677 0.1977 0.0
C386 C 0.32299 0.62672 0.19473 0.0
C387 C 0.31932 0.654 0.16219 0.0
C388 C 0.26463 0.60157 0.23191 0.0
C389 C 0.30309 0.55381 0.19606 0.0
C390 C 0.39863 0.77611 0.1108 0.0
C391 C 0.43329 0.79209 0.12216 0.0
C392 C 0.45229 0.7718 0.15282 0.0
C393 C 0.437 0.73694 0.17224 0.0
C394 C 0.40213 0.72177 0.1611 0.0
C395 C 0.38381 0.74083 0.13045 0.0
C396 C 0.34788 0.719 0.1218 0.0
C397 C 0.34698 0.6848 0.15341 0.0
C398 C 0.37872 0.68692 0.17634 0.0
C399 C 0.31481 0.74729 0.125 0.0
C400 C 0.35206 0.70417 0.08243 0.0
H401 H 0.32353 0.56281 0.27394 0.0
H402 H 0.44887 0.61998 0.30155 0.0
H403 H 0.4513 0.61266 0.21347 0.0
H404 H 0.45667 0.66063 0.18942 0.0
H405 H 0.47676 0.65008 0.23574 0.0
H406 H 0.39888 0.69151 0.28257 0.0
H407 H 0.44751 0.69707 0.2696 0.0
H408 H 0.41118 0.7214 0.24106 0.0
H409 H 0.22333 0.56515 0.165 0.0
H410 H 0.22381 0.65462 0.06871 0.0
H411 H 0.27984 0.68508 0.09161 0.0
H412 H 0.24828 0.62925 0.22694 0.0
H413 H 0.24429 0.57611 0.23713 0.0
H414 H 0.28077 0.60452 0.25786 0.0
H415 H 0.31597 0.55077 0.16817 0.0
H416 H 0.32463 0.54498 0.21731 0.0
H417 H 0.27898 0.53228 0.20021 0.0
H418 H 0.35503 0.53955 0.33244 0.0
C419 C 0.35046 0.57602 0.27927 0.0
C420 C 0.03171 0.2633 0.5905 0.0
C421 C 0.04127 0.24579 0.55796 0.0
C422 C 0.06624 0.2662 0.53152 0.0
C423 C 0.07475 0.31866 0.57183 0.0
C424 C 0.0483 0.30008 0.59652 0.0
C425 C 0.04158 0.3233 0.62947 0.0
H426 H 0.09282 0.47881 0.72437 0.0
C427 C 0.08865 0.35493 0.58713 0.0
C428 C 0.06831 0.35878 0.62022 0.0
H429 H 1.01121 0.38534 0.75879 0.0
H430 H 1.01927 0.35801 0.69924 0.0
H431 H 0.06676 0.49312 0.6332 0.0
H432 H 0.14885 0.43703 0.70394 0.0
H433 H 0.16917 0.43195 0.6601 0.0
H434 H 0.16157 0.48086 0.674 0.0
H435 H 0.10584 0.51583 0.65526 0.0
H436 H 0.10987 0.5 0.60876 0.0
C437 C 1.00005 0.33574 0.62872 0.0
C438 C 0.05307 0.29727 0.66587 0.0
C439 C 0.2155 0.41635 0.54689 0.0
C440 C 0.23649 0.44713 0.56111 0.0
C441 C 0.21836 0.47398 0.58194 0.0
C442 C 0.18062 0.4679 0.59195 0.0
C443 C 0.16131 0.434 0.58198 0.0
C444 C 0.17765 0.41032 0.55769 0.0
C445 C 0.15147 0.37671 0.54906 0.0
C446 C 0.1191 0.38158 0.57612 0.0
C447 C 0.12567 0.41477 0.59569 0.0
C448 C 0.13927 0.38416 0.50721 0.0
C449 C 0.17147 0.33682 0.55885 0.0
C450 C 0.07602 0.45295 0.71878 0.0
C451 C 0.05147 0.43413 0.74616 0.0
C452 C 0.03067 0.40005 0.73816 0.0
C453 C 0.03543 0.3843 0.70364 0.0
C454 C 0.06168 0.40251 0.67725 0.0
C455 C 0.08109 0.43649 0.68508 0.0
C456 C 0.10957 0.45083 0.65548 0.0
C457 C 0.10435 0.41966 0.62834 0.0
C458 C 0.0761 0.39158 0.64093 0.0
C459 C 0.09774 0.49228 0.63721 0.0
C460 C 0.14927 0.45037 0.67405 0.0
H461 H 0.10229 0.31662 0.51764 0.0
H462 H 1.01236 0.24828 0.61109 0.0
H463 H 0.07847 0.28004 0.66088 0.0
H464 H 0.06089 0.31483 0.68906 0.0
H465 H 0.0302 0.27566 0.6757 0.0
H466 H 0.99076 0.34454 0.59929 0.0
H467 H 0.98134 0.31082 0.64086 0.0
H468 H 0.99536 0.36198 0.6438 0.0
H469 H 0.22902 0.39581 0.53032 0.0
H470 H 0.23407 0.49832 0.5924 0.0
H471 H 0.16853 0.48856 0.60882 0.0
H472 H 0.14697 0.41474 0.49436 0.0
H473 H 0.15271 0.36315 0.4898 0.0
H474 H 0.10832 0.38148 0.5041 0.0
H475 H 0.18261 0.3347 0.58808 0.0
H476 H 0.15271 0.31068 0.55712 0.0
H477 H 0.19535 0.33416 0.53934 0.0
H478 H 0.07411 0.25306 0.5064 0.0
C479 C 0.08288 0.30269 0.53822 0.0
Co480 Co 0.99653 0.01265 0.50465 0.0
C481 C 0.02869 0.93753 0.50715 0.0
Co482 Co 0.0489 1.00594 0.53664 0.0
C483 C 0.91923 0.02853 0.48838 0.0
C484 C 0.94515 0.99797 0.44617 0.0
N485 N 0.95234 0.01453 0.47809 0.0
N486 N 0.89121 0.02045 0.46464 0.0
C487 C 0.90767 1.00138 0.43794 0.0
H488 H 0.91614 0.04413 0.51297 0.0
H489 H 0.96561 0.98321 0.43058 0.0
C490 C 1.01711 0.08122 0.53378 0.0
N491 N 0.09305 1.00414 0.5632 0.0
C492 C 0.12608 0.98981 0.55312 0.0
C493 C 0.10024 0.02092 0.59502 0.0
N494 N 0.15399 0.9977 0.577 0.0
C495 C 0.13765 0.0171 0.60352 0.0
C496 C 0.05967 0.03295 0.45928 0.0
O497 O 0.99174 0.06669 0.51398 0.0
O498 O 0.04391 0.05955 0.54614 0.0
O499 O 0.07667 0.02382 0.49035 0.0
O500 O 1.02396 0.03006 0.45922 0.0
O501 O 0.05381 0.95199 0.52727 0.0
H502 H 0.07986 0.03614 0.61032 0.0
H503 H 0.12927 0.97406 0.52862 0.0
O504 O 1.00161 0.959 0.49509 0.0
O505 O 0.9689 0.99491 0.55053 0.0
O506 O 1.02114 0.98836 0.58241 0.0
C507 C 0.98538 0.98554 0.5818 0.0
H508 H 0.89349 0.98946 0.41468 0.0
H509 H 0.15191 0.02889 0.62681 0.0
Co510 Co 0.50834 1.00539 0.99536 0.0
C511 C 0.49987 0.94147 0.05111 0.0
Co512 Co 0.54037 0.01282 0.04653 0.0
C513 C 0.49913 0.99524 0.91779 0.0
C514 C 0.44811 0.98168 0.9489 0.0
N515 N 0.48333 0.9966 0.95191 0.0
N516 N 0.47581 0.9785 0.89415 0.0
C517 C 0.44345 0.97035 0.91331 0.0
H518 H 0.52821 1.00322 0.91135 0.0
H519 H 0.42822 0.97648 0.97193 0.0
C520 C 0.54927 0.07615 0.98984 0.0
N521 N 0.56523 0.02153 0.09012 0.0
C522 C 0.54933 0.02117 0.1244 0.0
C523 C 0.59986 0.03779 0.09345 0.0
N524 N 0.57203 0.03788 0.14866 0.0
C525 C 0.60401 0.04818 0.12945 0.0
C526 C 0.58334 0.97663 0.99527 0.0
O527 O 0.52621 0.05551 0.97246 0.0
O528 O 0.55858 0.06351 0.0233 0.0
O529 O 0.58434 0.98815 0.02806 0.0
O530 O 0.55281 0.98087 0.97683 0.0
O531 O 0.52204 0.96214 0.06954 0.0
H532 H 0.61957 0.04454 0.07043 0.0
H533 H 0.52042 0.01209 0.13047 0.0
O534 O 0.4907 0.95502 1.01794 0.0
O535 O 0.46392 0.02989 1.0144 0.0
O536 O 0.49644 0.03748 0.06488 0.0
C537 C 0.46555 0.04153 0.04717 0.0
H538 H 0.41903 0.95518 0.90306 0.0
H539 H 0.62771 0.06428 0.13998 0.0
Co540 Co 0.5505 0.52408 0.507 0.0
C541 C 0.48862 0.52679 0.4591 0.0
Co542 Co 0.49997 0.49456 0.53353 0.0
C543 C 0.62874 0.54267 0.49437 0.0
C544 C 0.59413 0.58415 0.4618 0.0
N545 N 0.59264 0.55053 0.48584 0.0
N546 N 0.65277 0.57048 0.47748 0.0
C547 C 0.63107 0.59632 0.45635 0.0
H548 H 0.63721 0.51759 0.51355 0.0
H549 H 0.5699 0.59944 0.44976 0.0
C550 C 0.56197 0.49211 0.58176 0.0
N551 N 0.45788 0.46822 0.55471 0.0
C552 C 0.42171 0.47627 0.54654 0.0
C553 C 0.4565 0.43502 0.57938 0.0
N554 N 0.39789 0.44923 0.56479 0.0
C555 C 0.41952 0.42344 0.58588 0.0
C556 C 0.54544 0.44499 0.49726 0.0
O557 O 0.57773 0.51019 0.55267 0.0
O558 O 0.52721 0.48279 0.58001 0.0
O559 O 0.51585 0.44656 0.51686 0.0
O560 O 0.5653 0.47642 0.48885 0.0
O561 O 0.47314 0.50637 0.4871 0.0
H562 H 0.48081 0.41974 0.59124 0.0
H563 H 0.41296 0.50152 0.52757 0.0
O564 O 0.52276 0.53809 0.46162 0.0
O565 O 0.53583 0.57127 0.52517 0.0
O566 O 0.48419 0.54317 0.55004 0.0
C567 C 0.50555 0.57383 0.54332 0.0
H568 H 0.64094 0.62213 0.43812 0.0
H569 H 0.40931 0.39765 0.60399 0.0
Co570 Co 0.03877 0.51032 0.99435 0.0
C571 C 0.96438 0.47709 0.99547 0.0
Co572 Co 1.0092 0.50796 0.04851 0.0
C573 C 0.05375 0.48597 0.92184 0.0
C574 C 0.08008 0.54241 0.92832 0.0
N575 N 0.06017 0.51213 0.94717 0.0
N576 N 0.06823 0.49897 0.88774 0.0
C577 C 0.08492 0.53447 0.89164 0.0
H578 H 0.0365 0.4592 0.92757 0.0
H579 H 0.08861 0.56948 0.93989 0.0
C580 C 0.08332 0.54118 0.04798 0.0
N581 N 0.9878 0.50616 0.09568 0.0
C582 C 0.9941 0.53251 0.12084 0.0
C583 C 0.9686 0.47556 0.11486 0.0
N584 N 0.98047 0.51924 0.15523 0.0
C585 C 0.9642 0.48347 0.1516 0.0
C586 C 0.05242 0.44057 0.04064 0.0
O587 O 0.08332 0.53452 1.01357 0.0
O588 O 0.05372 0.53241 0.06728 0.0
O589 O 0.03031 0.45628 0.06248 0.0
O590 O 0.05972 0.45898 1.00835 0.0
O591 O 0.96523 0.48361 0.02983 0.0
H592 H 0.96045 0.44827 0.1035 0.0
H593 H 1.01084 0.55957 0.11474 0.0
O594 O 0.99355 0.48604 0.9754 0.0
O595 O 1.01836 0.56183 0.98061 0.0
O596 O 0.98786 0.55958 0.03412 0.0
C597 C 0.99608 0.57787 1.00196 0.0
H598 H 0.09836 0.55394 0.86921 0.0
H599 H 0.9515 0.46371 0.17426 0.0
C600 C 0.07873 0.0681 0.35513 0.0
C601 C 0.11719 0.0792 0.35376 0.0
C602 C 0.06094 0.05252 0.38898 0.0
C603 C 0.08058 0.04737 0.42344 0.0
H604 H 0.06195 0.0722 0.32976 0.0
H605 H 0.03122 0.04504 0.3881 0.0
S606 S 0.18184 0.07238 0.43547 0.0
N607 N 0.17443 0.08394 0.38997 0.0
N608 N 0.14128 0.0548 0.45361 0.0
C609 C 0.11933 0.05766 0.42237 0.0
C610 C 0.13751 0.07344 0.38765 0.0
C611 C 0.5144 0.97773 0.79657 0.0
C612 C 0.50564 0.93867 0.78879 0.0
C613 C 0.50539 0.99037 0.83151 0.0
C614 C 0.48655 0.96463 0.85927 0.0
H615 H 0.52701 0.99898 0.775 0.0
H616 H 0.51182 0.02084 0.8364 0.0
S617 S 0.46049 0.85866 0.85426 0.0
N618 N 0.47936 0.87371 0.81273 0.0
N619 N 0.46267 0.89761 0.87833 0.0
C620 C 0.47927 0.9251 0.85255 0.0
C621 C 0.48882 0.91206 0.8173 0.0
C622 C 0.58508 0.45906 0.68475 0.0
C623 C 0.62472 0.45886 0.68544 0.0
C624 C 0.56517 0.47003 0.65136 0.0
C625 C 0.58393 0.4817 0.61706 0.0
H626 H 0.56914 0.4504 0.71031 0.0
H627 H 0.53475 0.46929 0.65252 0.0
S628 S 0.68754 0.48582 0.60309 0.0
N629 N 0.68193 0.47075 0.64835 0.0
N630 N 0.64479 0.49227 0.58602 0.0
C631 C 0.6236 0.48227 0.61742 0.0
C632 C 0.64388 0.47075 0.65141 0.0
C633 C 1.00266 0.5275 0.25682 0.0
C634 C 1.00045 0.56859 0.25926 0.0
C635 C 0.99643 0.51168 0.2227 0.0
C636 C 0.9878 0.53636 0.18973 0.0
H637 H 1.00819 0.50729 0.28179 0.0
H638 H 0.99814 0.47985 0.22218 0.0
S639 S 0.97914 0.64597 0.18094 0.0
N640 N 0.98958 0.63374 0.22571 0.0
N641 N 0.97804 0.60393 0.16137 0.0
C642 C 0.98673 0.57763 0.19145 0.0
C643 C 0.99305 0.59377 0.22626 0.0
C644 C 0.36451 0.07481 0.06477 0.0
C645 C 0.36531 0.08389 0.10244 0.0
C646 C 0.39682 0.06171 0.04694 0.0
C647 C 0.43171 0.05763 0.06571 0.0
H648 H 0.33842 0.0769 0.04918 0.0
H649 H 0.39425 0.05432 1.01829 0.0
S650 S 0.4497 0.08112 0.16376 0.0
N651 N 0.40466 0.08992 0.15712 0.0
N652 N 0.46488 0.06633 0.12404 0.0
C653 C 0.43299 0.06793 0.10307 0.0
C654 C 0.40007 0.08072 0.12125 0.0
C655 C 0.25269 0.97592 0.60774 0.0
C656 C 0.27139 0.97274 0.57365 0.0
C657 C 0.21436 0.98337 0.60845 0.0
C658 C 0.19322 0.98842 0.57506 0.0
H659 H 0.26777 0.97205 0.6342 0.0
H660 H 0.20116 0.98484 0.63554 0.0
S661 S 0.23001 0.98336 0.47822 0.0
N662 N 0.26677 0.97463 0.50579 0.0
N663 N 0.19464 0.9903 0.50652 0.0
C664 C 0.21179 0.98522 0.54059 0.0
C665 C 0.25092 0.97699 0.54006 0.0
C666 C 0.89559 0.43999 0.92351 0.0
C667 C 0.86313 0.42899 0.94509 0.0
C668 C 0.92815 0.45523 0.93997 0.0
C669 C 0.92957 0.46043 0.97868 0.0
H670 H 0.89613 0.43595 0.89384 0.0
H671 H 0.95244 0.46286 0.92213 0.0
S672 S 0.85088 0.43875 0.04691 0.0
N673 N 0.83378 0.42631 1.00676 0.0
N674 N 0.89446 0.45458 0.03763 0.0
C675 C 0.89689 0.45027 1.00031 0.0
C676 C 0.86389 0.4347 0.98357 0.0
C677 C 0.75213 0.53747 0.49303 0.0
C678 C 0.773 0.57356 0.48873 0.0
C679 C 0.71294 0.53679 0.48982 0.0
C680 C 0.69297 0.57217 0.48243 0.0
H681 H 0.76629 0.5094 0.49776 0.0
H682 H 0.69834 0.50818 0.49193 0.0
S683 S 0.73391 0.67481 0.47286 0.0
N684 N 0.77051 0.64581 0.47851 0.0
N685 N 0.69675 0.64451 0.47487 0.0
C686 C 0.71328 0.60857 0.48016 0.0
C687 C 0.75327 0.60927 0.48289 0.0
C688 C 0.12917 0.36391 0.05925 0.0
C689 C 0.11129 0.33221 0.08218 0.0
C690 C 0.10969 0.39812 0.04507 0.0
C691 C 0.07159 0.40276 0.05376 0.0
H692 H 0.15881 0.36286 0.05279 0.0
H693 H 0.12499 0.42174 0.02811 0.0
S694 S 1.01002 0.32783 0.10893 0.0
N695 N 0.05143 0.30684 0.10941 0.0
N696 N 1.01599 0.37205 0.08484 0.0
C697 C 0.05308 0.37136 0.07603 0.0
C698 C 0.07257 0.336 0.08969 0.0
C699 C 0.5991 0.17768 0.97331 0.0
C700 C 0.60239 0.18398 0.93378 0.0
C701 C 0.58185 0.1428 0.99132 0.0
C702 C 0.56691 0.11311 0.97046 0.0
H703 H 0.6093 0.20017 0.99043 0.0
H704 H 0.57976 0.13934 0.02177 0.0
S705 S 0.57229 0.113 0.86662 0.0
N706 N 0.59232 0.15576 0.87468 0.0
N707 N 0.55913 0.09107 0.90828 0.0
C708 C 0.57081 0.11866 0.931 0.0
C709 C 0.58873 0.15382 0.91275 0.0
C710 C 0.03701 0.82544 0.52094 0.0
C711 C 1.0211 0.81392 0.4876 0.0
C712 C 0.04156 0.86579 0.52631 0.0
C713 C 0.02949 0.89576 0.49886 0.0
H714 H 0.04496 0.80307 0.5434 0.0
H715 H 0.05274 0.87345 0.55287 0.0
S716 S 0.98833 0.88121 0.40579 0.0
N717 N 0.9952 0.83572 0.42602 0.0
N718 N 1.00342 0.91133 0.43623 0.0
C719 C 1.01498 0.88461 0.46485 0.0
C720 C 1.01087 0.84371 0.45918 0.0
C721 C 0.44681 0.65719 0.57283 0.0
C722 C 0.47328 0.68869 0.57319 0.0
C723 C 0.4576 0.61965 0.56422 0.0
C724 C 0.49513 0.6126 0.55518 0.0
H725 H 0.41755 0.66166 0.57915 0.0
H726 H 0.43623 0.59635 0.56376 0.0
S727 S 0.57515 0.68557 0.55263 0.0
N728 N 0.53846 0.71058 0.56414 0.0
N729 N 0.55898 0.64021 0.54808 0.0
C730 C 0.52193 0.64386 0.55597 0.0
C731 C 0.51095 0.68187 0.56496 0.0
C732 C 0.96125 0.95394 0.68597 0.0
C733 C 0.92241 0.94464 0.68568 0.0
C734 C 0.98117 0.96719 0.65253 0.0
C735 C 0.96332 0.97153 0.61705 0.0
H736 H 0.9764 0.9512 0.71239 0.0
H737 H 1.01091 0.97415 0.65462 0.0
S738 S 0.86268 0.9471 0.60041 0.0
N739 N 0.86738 0.93844 0.64656 0.0
N740 N 0.9044 0.9629 0.58397 0.0
C741 C 0.92452 0.96166 0.61638 0.0
C742 C 0.90425 0.94839 0.6505 0.0
C743 C 0.56002 0.10253 0.22631 0.0
C744 C 0.54081 0.07701 0.25404 0.0
C745 C 0.57 0.08954 0.19191 0.0
C746 C 0.56083 0.05072 0.18391 0.0
H747 H 0.56921 0.13204 0.23202 0.0
H748 H 0.58535 0.10987 0.17154 0.0
S749 S 0.50807 0.97353 0.24582 0.0
N750 N 0.51112 0.01201 0.27054 0.0
N751 N 0.52952 0.9877 0.20536 0.0
C752 C 0.54002 0.02556 0.21059 0.0
C753 C 0.53015 0.03866 0.24582 0.0
C754 C 0.42452 0.52521 0.37358 0.0
C755 C 0.42375 0.56569 0.35898 0.0
C756 C 0.4451 0.51267 0.40633 0.0
C757 C 0.46634 0.54 0.42516 0.0
H758 H 0.40987 0.5029 0.35916 0.0
H759 H 0.44517 0.48129 0.41641 0.0
S760 S 0.46939 0.64951 0.40268 0.0
N761 N 0.44231 0.6334 0.36973 0.0
N762 N 0.48261 0.60932 0.42933 0.0
C763 C 0.46491 0.58045 0.41176 0.0
C764 C 0.44324 0.5934 0.37921 0.0
C765 C 0.04759 0.49009 0.78596 0.0
C766 C 0.05056 0.44903 0.78364 0.0
C767 C 0.05318 0.50612 0.82007 0.0
C768 C 0.06176 0.48169 0.8532 0.0
H769 H 0.04186 0.51012 0.76092 0.0
H770 H 0.05091 0.53791 0.82054 0.0
S771 S 0.07269 0.3724 0.86239 0.0
N772 N 0.06254 0.38425 0.81749 0.0
N773 N 0.07259 0.41449 0.88185 0.0
C774 C 0.06374 0.44048 0.8516 0.0
C775 C 0.05819 0.42412 0.81677 0.0
C776 C 0.68298 0.93723 0.98482 0.0
C777 C 0.68438 0.92752 0.94737 0.0
C778 C 0.65056 0.953 0.99984 0.0
C779 C 0.61752 0.95949 0.97841 0.0
H780 H 0.70736 0.93279 1.00278 0.0
H781 H 0.65145 0.95999 0.02872 0.0
S782 S 0.60568 0.93795 0.87899 0.0
N783 N 0.64923 0.92513 0.88935 0.0
N784 N 0.58859 0.95419 0.91731 0.0
C785 C 0.6185 0.94976 0.94087 0.0
C786 C 0.65172 0.93406 0.92547 0.0
C787 C 0.79151 0.03884 0.43498 0.0
C788 C 0.77326 0.04317 0.46904 0.0
C789 C 0.82998 0.03217 0.43391 0.0
C790 C 0.85178 0.02901 0.46694 0.0
H791 H 0.77601 0.04139 0.40873 0.0
H792 H 0.84272 0.02993 0.40675 0.0
S793 S 0.81629 0.03798 0.56365 0.0
N794 N 0.77896 0.04453 0.53649 0.0
N795 N 0.85134 0.03037 0.53521 0.0
C796 C 0.83362 0.03336 0.50141 0.0
C797 C 0.79433 0.0408 0.50226 0.0
C798 C 0.18295 0.58285 0.06061 0.0
C799 C 0.1844 0.589 0.09904 0.0
C800 C 0.15039 0.56753 0.04444 0.0
C801 C 0.11756 0.55776 0.06587 0.0
H802 H 0.20736 0.58989 0.04276 0.0
H803 H 0.15102 0.5634 1.01479 0.0
S804 S 0.10616 0.56909 0.16777 0.0
N805 N 0.14974 0.58472 0.15797 0.0
N806 N 0.08882 0.55569 0.12806 0.0
C807 C 0.11867 0.56369 0.10446 0.0
C808 C 0.15193 0.57923 0.1209 0.0
C809 C 0.29714 0.44068 0.59484 0.0
C810 C 0.27786 0.44737 0.56045 0.0
C811 C 0.33637 0.44084 0.59593 0.0
C812 C 0.35764 0.44832 0.56274 0.0
H813 H 0.28168 0.43513 0.62112 0.0
H814 H 0.35024 0.43577 0.62296 0.0
S815 S 0.32054 0.46629 0.46547 0.0
N816 N 0.2826 0.46047 0.4924 0.0
N817 N 0.35678 0.46139 0.49439 0.0
C818 C 0.33874 0.45481 0.52809 0.0
C819 C 0.29867 0.45406 0.52695 0.0
C820 C 0.92346 0.65706 0.97326 0.0
C821 C 0.94512 0.68784 0.95301 0.0
C822 C 0.94021 0.62233 0.99077 0.0
C823 C 0.97919 0.61674 0.98829 0.0
H824 H 0.89317 0.65902 0.97433 0.0
H825 H 0.92229 0.59891 1.0048 0.0
S826 S 0.04935 0.6903 0.9443 0.0
N827 N 1.00867 0.7121 0.93657 0.0
N828 N 0.03931 0.64632 0.96737 0.0
C829 C 1.00128 0.64786 0.96978 0.0
C830 C 0.98451 0.68347 0.95276 0.0
C831 C 0.46556 0.85866 0.12473 0.0
C832 C 0.4498 0.83004 0.10304 0.0
C833 C 0.48224 0.89419 0.10776 0.0
C834 C 0.48355 0.90285 0.06835 0.0
H835 H 0.46472 0.85377 0.15521 0.0
H836 H 0.49361 0.91533 0.12575 0.0
S837 S 0.44822 0.83716 0.99857 0.0
N838 N 0.43828 0.81214 0.03986 0.0
N839 N 0.46862 0.87929 1.00795 0.0
C840 C 0.46803 0.8745 0.04625 0.0
C841 C 0.45136 0.8381 0.06356 0.0
C842 C 0.0392 0.17371 0.5809 0.0
C843 C 0.029 0.2045 0.55345 0.0
C844 C 0.03373 0.1338 0.57484 0.0
C845 C 1.0172 0.12324 0.54143 0.0
H846 H 0.0533 0.18051 0.6064 0.0
H847 H 0.04348 0.11102 0.59607 0.0
S848 S 0.98261 0.19288 0.46227 0.0
N849 N 0.99973 0.22207 0.49267 0.0
N850 N 0.98855 0.14681 0.48158 0.0
C851 C 1.00493 0.15374 0.51467 0.0
C852 C 1.01115 0.19447 0.52057 0.0
C853 C 0.53965 0.33802 0.47565 0.0
C854 C 0.57704 0.33013 0.4672 0.0
C855 C 0.52967 0.37552 0.4848 0.0
C856 C 0.55666 0.40659 0.48529 0.0
H857 H 0.51816 0.31471 0.47627 0.0
H858 H 0.5006 0.38005 0.49183 0.0
S859 S 0.65813 0.4014 0.46299 0.0
N860 N 0.64094 0.35642 0.45829 0.0
N861 N 0.62222 0.42724 0.47519 0.0
C862 C 0.594 0.39937 0.47572 0.0
C863 C 0.6042 0.361 0.46681 0.0
loop_
_geom_bond_atom_site_label_1
_geom_bond_atom_site_label_2
_geom_bond_distance
_geom_bond_site_symmetry_2
_ccdc_geom_bond_type
C0 C1 1.391 . S
C0 C4 1.391 . S
C0 H42 0.948 . S
C1 C0 1.391 . S
C1 C2 1.391 . S
C2 C1 1.391 . S
C2 H58 0.947 . S
C2 C59 1.392 . S
C3 C4 1.391 . S
C3 C7 1.397 . S
C3 C59 1.419 . S
C4 C0 1.391 . S
C4 C3 1.391 . S
C4 C5 1.399 . S
C5 C4 1.399 . S
C5 C8 1.396 . S
C5 C17 1.453 . S
C5 C18 1.684 . S
H6 C30 0.948 . S
C7 C3 1.397 . S
C7 C8 1.394 . S
C7 C26 1.723 . S
C8 C5 1.396 . S
C8 C7 1.394 . S
C8 C38 1.723 . S
H9 C32 0.947 . S
H10 C33 0.948 . S
H11 C39 0.982 . S
H12 C40 0.979 . S
H13 C40 0.980 . S
H14 C40 0.968 1_556 S
H15 C39 0.979 . S
H16 C39 0.977 . S
C17 C5 1.453 . S
C17 H46 0.982 . S
C17 H47 0.979 . S
C17 H48 0.977 . S
C18 C5 1.684 . S
C18 H43 0.979 1_545 S
C18 H44 0.980 . S
C18 H45 0.983 1_545 S
C19 C20 1.391 . S
C19 C24 1.391 . S
C19 H49 0.948 . S
C20 C19 1.391 . S
C20 C21 1.391 . S
C21 C20 1.391 . S
C21 C22 1.392 . S
C21 H50 0.947 . S
C22 C21 1.392 . S
C22 C23 1.419 . S
C22 H51 0.948 . S
C23 C22 1.419 . S
C23 C24 1.391 . S
C23 C27 1.397 . S
C24 C19 1.391 . S
C24 C23 1.391 . S
C24 C25 1.399 . S
C25 C24 1.399 . S
C25 C26 1.396 . S
C25 C28 1.453 . S
C25 C29 1.684 . S
C26 C7 1.723 . S
C26 C25 1.396 . S
C26 C27 1.394 . S
C27 C23 1.397 . S
C27 C26 1.394 . S
C27 C37 1.723 . S
C28 C25 1.453 . S
C28 H52 0.982 . S
C28 H53 0.979 . S
C28 H54 0.977 . S
C29 C25 1.684 . S
C29 H55 0.979 . S
C29 H56 0.980 . S
C29 H57 0.983 . S
C30 H6 0.948 . S
C30 C31 1.391 . S
C30 C35 1.391 . S
C31 C30 1.391 . S
C31 C32 1.391 . S
C32 H9 0.947 . S
C32 C31 1.391 . S
C32 C33 1.392 . S
C33 H10 0.948 . S
C33 C32 1.392 . S
C33 C34 1.419 . S
C34 C33 1.419 . S
C34 C35 1.391 . S
C34 C38 1.397 . S
C35 C30 1.391 . S
C35 C34 1.391 . S
C35 C36 1.399 . S
C36 C35 1.399 . S
C36 C37 1.396 . S
C36 C39 1.453 . S
C36 C40 1.684 . S
C37 C27 1.723 . S
C37 C36 1.396 . S
C37 C38 1.394 . S
C38 C8 1.723 . S
C38 C34 1.397 . S
C38 C37 1.394 . S
C39 H11 0.982 . S
C39 H15 0.979 . S
C39 H16 0.977 . S
C39 C36 1.453 . S
C40 H12 0.979 . S
C40 H13 0.980 . S
C40 H14 0.968 1_554 S
C40 C36 1.684 . S
H41 C59 0.948 . S
H42 C0 0.948 . S
H43 C18 0.979 1_565 S
H44 C18 0.980 . S
H45 C18 0.983 1_565 S
H46 C17 0.982 . S
H47 C17 0.979 . S
H48 C17 0.977 . S
H49 C19 0.948 . S
H50 C21 0.947 . S
H51 C22 0.948 . S
H52 C28 0.982 . S
H53 C28 0.979 . S
H54 C28 0.977 . S
H55 C29 0.979 . S
H56 C29 0.980 . S
H57 C29 0.983 . S
H58 C2 0.947 . S
C59 C2 1.392 . S
C59 C3 1.419 . S
C59 H41 0.948 . S
C60 C61 1.391 . S
C60 C64 1.391 . S
C60 H102 0.948 . S
C61 C60 1.391 . S
C61 C62 1.391 . S
C62 C61 1.391 . S
C62 H118 0.947 . S
C62 C119 1.392 . S
C63 C64 1.391 . S
C63 C67 1.397 . S
C63 C119 1.419 . S
C64 C60 1.391 . S
C64 C63 1.391 . S
C64 C65 1.399 . S
C65 C64 1.399 . S
C65 C68 1.396 . S
C65 C77 1.453 . S
C65 C78 1.684 . S
H66 C90 0.948 . S
C67 C63 1.397 . S
C67 C68 1.394 . S
C67 C86 1.723 . S
C68 C65 1.396 . S
C68 C67 1.394 . S
C68 C98 1.723 . S
H69 C92 0.947 . S
H70 C93 0.948 . S
H71 C99 0.982 . S
H72 C100 0.979 . S
H73 C100 0.980 . S
H74 C100 0.983 . S
H75 C99 0.979 . S
H76 C99 0.977 . S
C77 C65 1.453 . S
C77 H106 0.982 . S
C77 H107 0.979 . S
C77 H108 0.977 . S
C78 C65 1.684 . S
C78 H103 0.979 . S
C78 H104 0.980 . S
C78 H105 0.983 . S
C79 C80 1.391 . S
C79 C84 1.391 . S
C79 H109 0.948 . S
C80 C79 1.391 . S
C80 C81 1.391 . S
C81 C80 1.391 . S
C81 C82 1.392 . S
C81 H110 0.947 . S
C82 C81 1.392 . S
C82 C83 1.419 . S
C82 H111 0.948 . S
C83 C82 1.419 . S
C83 C84 1.391 . S
C83 C87 1.397 . S
C84 C79 1.391 . S
C84 C83 1.391 . S
C84 C85 1.399 . S
C85 C84 1.399 . S
C85 C86 1.396 . S
C85 C88 1.453 . S
C85 C89 1.684 . S
C86 C67 1.723 . S
C86 C85 1.396 . S
C86 C87 1.394 . S
C87 C83 1.397 . S
C87 C86 1.394 . S
C87 C97 1.723 . S
C88 C85 1.453 . S
C88 H112 0.982 . S
C88 H113 0.979 . S
C88 H114 0.977 . S
C89 C85 1.684 . S
C89 H115 0.979 . S
C89 H116 0.980 . S
C89 H117 0.983 . S
C90 H66 0.948 . S
C90 C91 1.391 . S
C90 C95 1.391 . S
C91 C90 1.391 . S
C91 C92 1.391 . S
C92 H69 0.947 . S
C92 C91 1.391 . S
C92 C93 1.392 . S
C93 H70 0.948 . S
C93 C92 1.392 . S
C93 C94 1.419 . S
C94 C93 1.419 . S
C94 C95 1.391 . S
C94 C98 1.397 . S
C95 C90 1.391 . S
C95 C94 1.391 . S
C95 C96 1.399 . S
C96 C95 1.399 . S
C96 C97 1.396 . S
C96 C99 1.453 . S
C96 C100 1.684 . S
C97 C87 1.723 . S
C97 C96 1.396 . S
C97 C98 1.394 . S
C98 C68 1.723 . S
C98 C94 1.397 . S
C98 C97 1.394 . S
C99 H71 0.982 . S
C99 H75 0.979 . S
C99 H76 0.977 . S
C99 C96 1.453 . S
C100 H72 0.979 . S
C100 H73 0.980 . S
C100 H74 0.983 . S
C100 C96 1.684 . S
H101 C119 0.948 . S
H102 C60 0.948 . S
H103 C78 0.979 . S
H104 C78 0.980 . S
H105 C78 0.983 . S
H106 C77 0.982 . S
H107 C77 0.979 . S
H108 C77 0.977 . S
H109 C79 0.948 . S
H110 C81 0.947 . S
H111 C82 0.948 . S
H112 C88 0.982 . S
H113 C88 0.979 . S
H114 C88 0.977 . S
H115 C89 0.979 . S
H116 C89 0.980 . S
H117 C89 0.983 . S
H118 C62 0.947 . S
C119 C62 1.392 . S
C119 C63 1.419 . S
C119 H101 0.948 . S
C120 C121 1.391 . S
C120 C124 1.391 . S
C120 H162 0.948 . S
C121 C120 1.391 . S
C121 C122 1.391 . S
C122 C121 1.391 . S
C122 H178 0.947 . S
C122 C179 1.392 . S
C123 C124 1.391 . S
C123 C127 1.397 . S
C123 C179 1.419 . S
C124 C120 1.391 . S
C124 C123 1.391 . S
C124 C125 1.399 . S
C125 C124 1.399 . S
C125 C128 1.396 . S
C125 C137 1.453 . S
C125 C138 1.684 . S
H126 C150 0.948 . S
C127 C123 1.397 . S
C127 C128 1.394 . S
C127 C146 1.723 . S
C128 C125 1.396 . S
C128 C127 1.394 . S
C128 C158 1.723 . S
H129 C152 0.947 . S
H130 C153 0.948 . S
H131 C159 0.982 . S
H132 C160 0.979 . S
H133 C160 0.980 . S
H134 C160 0.983 . S
H135 C159 0.979 . S
H136 C159 0.977 . S
C137 C125 1.453 . S
C137 H166 0.982 . S
C137 H167 0.979 . S
C137 H168 0.977 . S
C138 C125 1.684 . S
C138 H163 0.979 . S
C138 H164 0.980 . S
C138 H165 0.983 . S
C139 C140 1.391 . S
C139 C144 1.391 . S
C139 H169 0.948 . S
C140 C139 1.391 . S
C140 C141 1.391 . S
C141 C140 1.391 . S
C141 C142 1.392 . S
C141 H170 0.947 . S
C142 C141 1.392 . S
C142 C143 1.419 . S
C142 H171 0.948 . S
C143 C142 1.419 . S
C143 C144 1.391 . S
C143 C147 1.397 . S
C144 C139 1.391 . S
C144 C143 1.391 . S
C144 C145 1.399 . S
C145 C144 1.399 . S
C145 C146 1.396 . S
C145 C148 1.453 . S
C145 C149 1.684 . S
C146 C127 1.723 . S
C146 C145 1.396 . S
C146 C147 1.394 . S
C147 C143 1.397 . S
C147 C146 1.394 . S
C147 C157 1.723 . S
C148 C145 1.453 . S
C148 H172 0.982 . S
C148 H173 0.979 . S
C148 H174 0.977 . S
C149 C145 1.684 . S
C149 H175 0.979 . S
C149 H176 0.980 . S
C149 H177 0.983 . S
C150 H126 0.948 . S
C150 C151 1.391 . S
C150 C155 1.391 . S
C151 C150 1.391 . S
C151 C152 1.391 . S
C152 H129 0.947 . S
C152 C151 1.391 . S
C152 C153 1.392 . S
C153 H130 0.948 . S
C153 C152 1.392 . S
C153 C154 1.419 . S
C154 C153 1.419 . S
C154 C155 1.391 . S
C154 C158 1.397 . S
C155 C150 1.391 . S
C155 C154 1.391 . S
C155 C156 1.399 . S
C156 C155 1.399 . S
C156 C157 1.396 . S
C156 C159 1.453 . S
C156 C160 1.684 . S
C157 C147 1.723 . S
C157 C156 1.396 . S
C157 C158 1.394 . S
C158 C128 1.723 . S
C158 C154 1.397 . S
C158 C157 1.394 . S
C159 H131 0.982 . S
C159 H135 0.979 . S
C159 H136 0.977 . S
C159 C156 1.453 . S
C160 H132 0.979 . S
C160 H133 0.980 . S
C160 H134 0.983 . S
C160 C156 1.684 . S
H161 C179 0.948 . S
H162 C120 0.948 . S
H163 C138 0.979 . S
H164 C138 0.980 . S
H165 C138 0.983 . S
H166 C137 0.982 . S
H167 C137 0.979 . S
H168 C137 0.977 . S
H169 C139 0.948 . S
H170 C141 0.947 . S
H171 C142 0.948 . S
H172 C148 0.982 . S
H173 C148 0.979 . S
H174 C148 0.977 . S
H175 C149 0.979 . S
H176 C149 0.980 . S
H177 C149 0.983 . S
H178 C122 0.947 . S
C179 C122 1.392 . S
C179 C123 1.419 . S
C179 H161 0.948 . S
C180 C181 1.391 . S
C180 C184 1.391 . S
C180 H222 0.948 . S
C181 C180 1.391 . S
C181 C182 1.391 . S
C182 C181 1.391 . S
C182 H238 0.947 . S
C182 C239 1.392 . S
C183 C184 1.391 . S
C183 C187 1.397 . S
C183 C239 1.419 . S
C184 C180 1.391 . S
C184 C183 1.391 . S
C184 C185 1.399 . S
C185 C184 1.399 . S
C185 C188 1.396 . S
C185 C197 1.453 . S
C185 C198 1.684 . S
H186 C210 0.948 . S
C187 C183 1.397 . S
C187 C188 1.394 . S
C187 C206 1.723 . S
C188 C185 1.396 . S
C188 C187 1.394 . S
C188 C218 1.723 . S
H189 C212 0.947 1_455 S
H190 C213 0.948 . S
H191 C219 0.982 . S
H192 C220 0.979 . S
H193 C220 0.980 . S
H194 C220 0.983 . S
H195 C219 0.979 . S
H196 C219 0.977 . S
C197 C185 1.453 . S
C197 H226 0.984 . S
C197 H227 0.979 1_655 S
C197 H228 0.977 . S
C198 C185 1.684 . S
C198 H223 0.979 . S
C198 H224 0.980 . S
C198 H225 0.983 . S
C199 C200 1.391 . S
C199 C204 1.391 . S
C199 H229 0.948 . S
C200 C199 1.391 . S
C200 C201 1.391 . S
C201 C200 1.391 . S
C201 C202 1.392 . S
C201 H230 0.947 . S
C202 C201 1.392 . S
C202 C203 1.419 . S
C202 H231 0.948 . S
C203 C202 1.419 . S
C203 C204 1.391 . S
C203 C207 1.397 . S
C204 C199 1.391 . S
C204 C203 1.391 . S
C204 C205 1.399 . S
C205 C204 1.399 . S
C205 C206 1.396 . S
C205 C208 1.453 . S
C205 C209 1.684 . S
C206 C187 1.723 . S
C206 C205 1.396 . S
C206 C207 1.394 . S
C207 C203 1.397 . S
C207 C206 1.394 . S
C207 C217 1.723 . S
C208 C205 1.453 . S
C208 H232 0.982 . S
C208 H233 0.979 . S
C208 H234 0.977 . S
C209 C205 1.684 . S
C209 H235 0.979 . S
C209 H236 0.980 . S
C209 H237 0.983 . S
C210 H186 0.948 . S
C210 C211 1.391 . S
C210 C215 1.391 . S
C211 C210 1.391 . S
C211 C212 1.391 . S
C212 H189 0.947 1_655 S
C212 C211 1.391 . S
C212 C213 1.392 . S
C213 H190 0.948 . S
C213 C212 1.392 . S
C213 C214 1.419 . S
C214 C213 1.419 . S
C214 C215 1.391 . S
C214 C218 1.397 . S
C215 C210 1.391 . S
C215 C214 1.391 . S
C215 C216 1.399 . S
C216 C215 1.399 . S
C216 C217 1.396 . S
C216 C219 1.453 . S
C216 C220 1.684 . S
C217 C207 1.723 . S
C217 C216 1.396 . S
C217 C218 1.394 . S
C218 C188 1.723 . S
C218 C214 1.397 . S
C218 C217 1.394 . S
C219 H191 0.982 . S
C219 H195 0.979 . S
C219 H196 0.977 . S
C219 C216 1.453 . S
C220 H192 0.979 . S
C220 H193 0.980 . S
C220 H194 0.983 . S
C220 C216 1.684 . S
H221 C239 0.948 . S
H222 C180 0.948 . S
H223 C198 0.979 . S
H224 C198 0.980 . S
H225 C198 0.983 . S
H226 C197 0.984 . S
H227 C197 0.979 1_455 S
H228 C197 0.977 . S
H229 C199 0.948 . S
H230 C201 0.947 . S
H231 C202 0.948 . S
H232 C208 0.982 . S
H233 C208 0.979 . S
H234 C208 0.977 . S
H235 C209 0.979 . S
H236 C209 0.980 . S
H237 C209 0.983 . S
H238 C182 0.947 . S
C239 C182 1.392 . S
C239 C183 1.419 . S
C239 H221 0.948 . S
C240 C241 1.391 . S
C240 C244 1.391 . S
C240 H282 0.948 . S
C241 C240 1.391 . S
C241 C242 1.391 . S
C242 C241 1.391 . S
C242 H298 0.947 . S
C242 C299 1.392 . S
C243 C244 1.391 . S
C243 C247 1.397 . S
C243 C299 1.419 . S
C244 C240 1.391 . S
C244 C243 1.391 . S
C244 C245 1.399 . S
C245 C244 1.399 . S
C245 C248 1.396 . S
C245 C257 1.453 . S
C245 C258 1.684 . S
H246 C270 0.948 . S
C247 C243 1.397 . S
C247 C248 1.394 . S
C247 C266 1.723 . S
C248 C245 1.396 . S
C248 C247 1.394 . S
C248 C278 1.723 . S
H249 C272 0.947 . S
H250 C273 0.948 . S
H251 C279 0.982 . S
H252 C280 0.978 1_545 S
H253 C280 0.980 . S
H254 C280 0.983 1_545 S
H255 C279 0.979 . S
H256 C279 0.977 . S
C257 C245 1.453 . S
C257 H286 0.982 . S
C257 H287 0.979 . S
C257 H288 0.977 . S
C258 C245 1.684 . S
C258 H283 0.979 . S
C258 H284 0.980 . S
C258 H285 0.983 1_556 S
C259 C260 1.391 . S
C259 C264 1.391 . S
C259 H289 0.948 . S
C260 C259 1.391 . S
C260 C261 1.391 . S
C261 C260 1.391 . S
C261 C262 1.392 . S
C261 H290 0.947 . S
C262 C261 1.392 . S
C262 C263 1.419 . S
C262 H291 0.948 . S
C263 C262 1.419 . S
C263 C264 1.391 . S
C263 C267 1.397 . S
C264 C259 1.391 . S
C264 C263 1.391 . S
C264 C265 1.399 . S
C265 C264 1.399 . S
C265 C266 1.396 . S
C265 C268 1.453 . S
C265 C269 1.684 . S
C266 C247 1.723 . S
C266 C265 1.396 . S
C266 C267 1.394 . S
C267 C263 1.397 . S
C267 C266 1.394 . S
C267 C277 1.723 . S
C268 C265 1.453 . S
C268 H292 0.982 . S
C268 H293 0.979 . S
C268 H294 0.977 . S
C269 C265 1.684 . S
C269 H295 0.979 . S
C269 H296 0.980 . S
C269 H297 0.983 . S
C270 H246 0.948 . S
C270 C271 1.391 . S
C270 C275 1.391 . S
C271 C270 1.391 . S
C271 C272 1.391 . S
C272 H249 0.947 . S
C272 C271 1.391 . S
C272 C273 1.392 . S
C273 H250 0.948 . S
C273 C272 1.392 . S
C273 C274 1.419 . S
C274 C273 1.419 . S
C274 C275 1.391 . S
C274 C278 1.397 . S
C275 C270 1.391 . S
C275 C274 1.391 . S
C275 C276 1.399 . S
C276 C275 1.399 . S
C276 C277 1.396 . S
C276 C279 1.453 . S
C276 C280 1.684 . S
C277 C267 1.723 . S
C277 C276 1.396 . S
C277 C278 1.394 . S
C278 C248 1.723 . S
C278 C274 1.397 . S
C278 C277 1.394 . S
C279 H251 0.982 . S
C279 H255 0.979 . S
C279 H256 0.977 . S
C279 C276 1.453 . S
C280 H252 0.978 1_565 S
C280 H253 0.980 . S
C280 H254 0.983 1_565 S
C280 C276 1.684 . S
H281 C299 0.948 . S
H282 C240 0.948 . S
H283 C258 0.979 . S
H284 C258 0.980 . S
H285 C258 0.983 1_554 S
H286 C257 0.982 . S
H287 C257 0.979 . S
H288 C257 0.977 . S
H289 C259 0.948 . S
H290 C261 0.947 . S
H291 C262 0.948 . S
H292 C268 0.982 . S
H293 C268 0.979 . S
H294 C268 0.977 . S
H295 C269 0.979 . S
H296 C269 0.980 . S
H297 C269 0.983 . S
H298 C242 0.947 . S
C299 C242 1.392 . S
C299 C243 1.419 . S
C299 H281 0.948 . S
C300 C301 1.391 . S
C300 C304 1.391 . S
C300 H342 0.948 . S
C301 C300 1.391 . S
C301 C302 1.391 . S
C302 C301 1.391 . S
C302 H358 0.947 . S
C302 C359 1.392 . S
C303 C304 1.391 . S
C303 C307 1.397 . S
C303 C359 1.419 . S
C304 C300 1.391 . S
C304 C303 1.391 . S
C304 C305 1.399 . S
C305 C304 1.399 . S
C305 C308 1.396 . S
C305 C317 1.453 . S
C305 C318 1.684 . S
H306 C330 0.948 . S
C307 C303 1.397 . S
C307 C308 1.394 . S
C307 C326 1.723 . S
C308 C305 1.396 . S
C308 C307 1.394 . S
C308 C338 1.723 . S
H309 C332 0.947 . S
H310 C333 0.948 . S
H311 C339 0.982 . S
H312 C340 0.979 . S
H313 C340 0.980 . S
H314 C340 0.983 . S
H315 C339 0.979 . S
H316 C339 0.977 . S
C317 C305 1.453 . S
C317 H346 0.982 . S
C317 H347 0.979 . S
C317 H348 0.977 . S
C318 C305 1.684 . S
C318 H343 0.979 . S
C318 H344 0.980 . S
C318 H345 0.983 . S
C319 C320 1.391 . S
C319 C324 1.391 . S
C319 H349 0.948 . S
C320 C319 1.391 . S
C320 C321 1.391 . S
C321 C320 1.391 . S
C321 C322 1.392 . S
C321 H350 0.947 . S
C322 C321 1.392 . S
C322 C323 1.419 . S
C322 H351 0.948 . S
C323 C322 1.419 . S
C323 C324 1.391 . S
C323 C327 1.397 . S
C324 C319 1.391 . S
C324 C323 1.391 . S
C324 C325 1.399 . S
C325 C324 1.399 . S
C325 C326 1.396 . S
C325 C328 1.453 . S
C325 C329 1.684 . S
C326 C307 1.723 . S
C326 C325 1.396 . S
C326 C327 1.394 . S
C327 C323 1.397 . S
C327 C326 1.394 . S
C327 C337 1.723 . S
C328 C325 1.453 . S
C328 H352 0.982 . S
C328 H353 0.979 . S
C328 H354 0.977 . S
C329 C325 1.684 . S
C329 H355 0.979 . S
C329 H356 0.980 . S
C329 H357 0.983 . S
C330 H306 0.948 . S
C330 C331 1.391 . S
C330 C335 1.391 . S
C331 C330 1.391 . S
C331 C332 1.391 . S
C332 H309 0.947 . S
C332 C331 1.391 . S
C332 C333 1.392 . S
C333 H310 0.948 . S
C333 C332 1.392 . S
C333 C334 1.419 . S
C334 C333 1.419 . S
C334 C335 1.391 . S
C334 C338 1.397 . S
C335 C330 1.391 . S
C335 C334 1.391 . S
C335 C336 1.399 . S
C336 C335 1.399 . S
C336 C337 1.396 . S
C336 C339 1.453 . S
C336 C340 1.684 . S
C337 C327 1.723 . S
C337 C336 1.396 . S
C337 C338 1.394 . S
C338 C308 1.723 . S
C338 C334 1.397 . S
C338 C337 1.394 . S
C339 H311 0.982 . S
C339 H315 0.979 . S
C339 H316 0.977 . S
C339 C336 1.453 . S
C340 H312 0.979 . S
C340 H313 0.980 . S
C340 H314 0.983 . S
C340 C336 1.684 . S
H341 C359 0.948 . S
H342 C300 0.948 . S
H343 C318 0.979 . S
H344 C318 0.980 . S
H345 C318 0.983 . S
H346 C317 0.982 . S
H347 C317 0.979 . S
H348 C317 0.977 . S
H349 C319 0.948 . S
H350 C321 0.947 . S
H351 C322 0.948 . S
H352 C328 0.982 . S
H353 C328 0.979 . S
H354 C328 0.977 . S
H355 C329 0.979 . S
H356 C329 0.980 . S
H357 C329 0.983 . S
H358 C302 0.947 . S
C359 C302 1.392 . S
C359 C303 1.419 . S
C359 H341 0.948 . S
C360 C361 1.391 . S
C360 C364 1.391 . S
C360 H402 0.948 . S
C361 C360 1.391 . S
C361 C362 1.391 . S
C362 C361 1.391 . S
C362 H418 0.947 . S
C362 C419 1.392 . S
C363 C364 1.391 . S
C363 C367 1.397 . S
C363 C419 1.419 . S
C364 C360 1.391 . S
C364 C363 1.391 . S
C364 C365 1.399 . S
C365 C364 1.399 . S
C365 C368 1.396 . S
C365 C377 1.453 . S
C365 C378 1.684 . S
H366 C390 0.948 . S
C367 C363 1.397 . S
C367 C368 1.394 . S
C367 C386 1.723 . S
C368 C365 1.396 . S
C368 C367 1.394 . S
C368 C398 1.723 . S
H369 C392 0.947 . S
H370 C393 0.948 . S
H371 C399 0.982 . S
H372 C400 0.979 . S
H373 C400 0.980 . S
H374 C400 0.983 . S
H375 C399 0.979 . S
H376 C399 0.977 . S
C377 C365 1.453 . S
C377 H406 0.982 . S
C377 H407 0.979 . S
C377 H408 0.977 . S
C378 C365 1.684 . S
C378 H403 0.979 . S
C378 H404 0.980 . S
C378 H405 0.983 . S
C379 C380 1.391 . S
C379 C384 1.391 . S
C379 H409 0.948 . S
C380 C379 1.391 . S
C380 C381 1.391 . S
C381 C380 1.391 . S
C381 C382 1.392 . S
C381 H410 0.947 . S
C382 C381 1.392 . S
C382 C383 1.419 . S
C382 H411 0.948 . S
C383 C382 1.419 . S
C383 C384 1.391 . S
C383 C387 1.397 . S
C384 C379 1.391 . S
C384 C383 1.391 . S
C384 C385 1.399 . S
C385 C384 1.399 . S
C385 C386 1.396 . S
C385 C388 1.453 . S
C385 C389 1.684 . S
C386 C367 1.723 . S
C386 C385 1.396 . S
C386 C387 1.394 . S
C387 C383 1.397 . S
C387 C386 1.394 . S
C387 C397 1.723 . S
C388 C385 1.453 . S
C388 H412 0.982 . S
C388 H413 0.979 . S
C388 H414 0.977 . S
C389 C385 1.684 . S
C389 H415 0.979 . S
C389 H416 0.980 . S
C389 H417 0.983 . S
C390 H366 0.948 . S
C390 C391 1.391 . S
C390 C395 1.391 . S
C391 C390 1.391 . S
C391 C392 1.391 . S
C392 H369 0.947 . S
C392 C391 1.391 . S
C392 C393 1.392 . S
C393 H370 0.948 . S
C393 C392 1.392 . S
C393 C394 1.419 . S
C394 C393 1.419 . S
C394 C395 1.391 . S
C394 C398 1.397 . S
C395 C390 1.391 . S
C395 C394 1.391 . S
C395 C396 1.399 . S
C396 C395 1.399 . S
C396 C397 1.396 . S
C396 C399 1.453 . S
C396 C400 1.684 . S
C397 C387 1.723 . S
C397 C396 1.396 . S
C397 C398 1.394 . S
C398 C368 1.723 . S
C398 C394 1.397 . S
C398 C397 1.394 . S
C399 H371 0.982 . S
C399 H375 0.979 . S
C399 H376 0.977 . S
C399 C396 1.453 . S
C400 H372 0.979 . S
C400 H373 0.980 . S
C400 H374 0.983 . S
C400 C396 1.684 . S
H401 C419 0.948 . S
H402 C360 0.948 . S
H403 C378 0.979 . S
H404 C378 0.980 . S
H405 C378 0.983 . S
H406 C377 0.982 . S
H407 C377 0.979 . S
H408 C377 0.977 . S
H409 C379 0.948 . S
H410 C381 0.947 . S
H411 C382 0.948 . S
H412 C388 0.982 . S
H413 C388 0.979 . S
H414 C388 0.977 . S
H415 C389 0.979 . S
H416 C389 0.980 . S
H417 C389 0.983 . S
H418 C362 0.947 . S
C419 C362 1.392 . S
C419 C363 1.419 . S
C419 H401 0.948 . S
C420 C421 1.391 . S
C420 C424 1.391 . S
C420 H462 0.948 . S
C421 C420 1.391 . S
C421 C422 1.391 . S
C422 C421 1.391 . S
C422 H478 0.947 . S
C422 C479 1.392 . S
C423 C424 1.391 . S
C423 C427 1.397 . S
C423 C479 1.419 . S
C424 C420 1.391 . S
C424 C423 1.391 . S
C424 C425 1.399 . S
C425 C424 1.399 . S
C425 C428 1.396 . S
C425 C437 1.453 . S
C425 C438 1.684 . S
H426 C450 0.948 . S
C427 C423 1.397 . S
C427 C428 1.394 . S
C427 C446 1.723 . S
C428 C425 1.396 . S
C428 C427 1.394 . S
C428 C458 1.723 . S
H429 C452 0.947 1_655 S
H430 C453 0.948 . S
H431 C459 0.982 . S
H432 C460 0.979 . S
H433 C460 0.980 . S
H434 C460 0.983 . S
H435 C459 0.979 . S
H436 C459 0.977 . S
C437 C425 1.453 . S
C437 H466 0.985 . S
C437 H467 0.979 1_455 S
C437 H468 0.977 . S
C438 C425 1.684 . S
C438 H463 0.979 . S
C438 H464 0.980 . S
C438 H465 0.983 . S
C439 C440 1.391 . S
C439 C444 1.391 . S
C439 H469 0.948 . S
C440 C439 1.391 . S
C440 C441 1.391 . S
C441 C440 1.391 . S
C441 C442 1.392 . S
C441 H470 0.947 . S
C442 C441 1.392 . S
C442 C443 1.419 . S
C442 H471 0.948 . S
C443 C442 1.419 . S
C443 C444 1.391 . S
C443 C447 1.397 . S
C444 C439 1.391 . S
C444 C443 1.391 . S
C444 C445 1.399 . S
C445 C444 1.399 . S
C445 C446 1.396 . S
C445 C448 1.453 . S
C445 C449 1.684 . S
C446 C427 1.723 . S
C446 C445 1.396 . S
C446 C447 1.394 . S
C447 C443 1.397 . S
C447 C446 1.394 . S
C447 C457 1.723 . S
C448 C445 1.453 . S
C448 H472 0.982 . S
C448 H473 0.979 . S
C448 H474 0.977 . S
C449 C445 1.684 . S
C449 H475 0.979 . S
C449 H476 0.980 . S
C449 H477 0.983 . S
C450 H426 0.948 . S
C450 C451 1.391 . S
C450 C455 1.391 . S
C451 C450 1.391 . S
C451 C452 1.391 . S
C452 H429 0.947 1_455 S
C452 C451 1.391 . S
C452 C453 1.392 . S
C453 H430 0.948 . S
C453 C452 1.392 . S
C453 C454 1.419 . S
C454 C453 1.419 . S
C454 C455 1.391 . S
C454 C458 1.397 . S
C455 C450 1.391 . S
C455 C454 1.391 . S
C455 C456 1.399 . S
C456 C455 1.399 . S
C456 C457 1.396 . S
C456 C459 1.453 . S
C456 C460 1.684 . S
C457 C447 1.723 . S
C457 C456 1.396 . S
C457 C458 1.394 . S
C458 C428 1.723 . S
C458 C454 1.397 . S
C458 C457 1.394 . S
C459 H431 0.982 . S
C459 H435 0.979 . S
C459 H436 0.977 . S
C459 C456 1.453 . S
C460 H432 0.979 . S
C460 H433 0.980 . S
C460 H434 0.983 . S
C460 C456 1.684 . S
H461 C479 0.948 . S
H462 C420 0.948 . S
H463 C438 0.979 . S
H464 C438 0.980 . S
H465 C438 0.983 . S
H466 C437 0.985 . S
H467 C437 0.979 1_655 S
H468 C437 0.977 . S
H469 C439 0.948 . S
H470 C441 0.947 . S
H471 C442 0.948 . S
H472 C448 0.982 . S
H473 C448 0.979 . S
H474 C448 0.977 . S
H475 C449 0.979 . S
H476 C449 0.980 . S
H477 C449 0.983 . S
H478 C422 0.947 . S
C479 C422 1.392 . S
C479 C423 1.419 . S
C479 H461 0.948 . S
Co480 N485 2.057 . S
Co480 O497 2.021 . S
Co480 O500 2.062 . S
Co480 O504 2.117 1_545 S
Co480 O505 2.020 1_545 S
C481 O501 1.259 1_655 S
C481 O504 1.258 . S
Co482 N491 2.057 . S
Co482 O498 2.117 1_565 S
Co482 O499 2.020 1_565 S
Co482 O501 2.021 . S
Co482 O506 2.062 . S
C483 N485 1.316 . S
C483 N486 1.347 . S
C483 H488 0.931 . S
C484 N485 1.375 1_565 S
C484 C487 1.350 1_565 S
C484 H489 0.930 . S
N485 Co480 2.057 . S
N485 C483 1.316 . S
N485 C484 1.375 1_545 S
N486 C483 1.347 . S
N486 C487 1.373 . S
C487 C484 1.350 1_545 S
C487 N486 1.373 . S
C487 H508 0.931 1_545 S
H488 C483 0.931 . S
H489 C484 0.930 . S
C490 O497 1.259 1_455 S
C490 O498 1.258 . S
N491 Co482 2.057 . S
N491 C492 1.316 . S
N491 C493 1.375 1_565 S
C492 N491 1.316 . S
C492 N494 1.347 . S
C492 H503 0.931 . S
C493 N491 1.375 1_545 S
C493 C495 1.350 1_545 S
C493 H502 0.930 . S
N494 C492 1.347 . S
N494 C495 1.373 . S
C495 C493 1.350 1_565 S
C495 N494 1.373 . S
C495 H509 0.931 1_565 S
C496 O499 1.256 . S
C496 O500 1.255 1_455 S
O497 Co480 2.021 . S
O497 C490 1.259 1_655 S
O498 Co482 2.117 1_545 S
O498 C490 1.258 . S
O499 Co482 2.020 1_545 S
O499 C496 1.256 . S
O500 Co480 2.062 . S
O500 C496 1.255 1_655 S
O501 C481 1.259 1_455 S
O501 Co482 2.021 . S
H502 C493 0.930 . S
H503 C492 0.931 . S
O504 Co480 2.117 1_565 S
O504 C481 1.258 . S
O505 Co480 2.020 1_565 S
O505 C507 1.256 . S
O506 Co482 2.062 . S
O506 C507 1.255 1_455 S
C507 O505 1.256 . S
C507 O506 1.255 1_655 S
H508 C487 0.931 1_565 S
H509 C495 0.931 1_545 S
Co510 N515 2.057 . S
Co510 O527 2.021 1_565 S
Co510 O530 2.062 . S
Co510 O534 2.117 . S
Co510 O535 2.020 1_565 S
C511 O531 1.259 . S
C511 O534 1.258 1_554 S
Co512 N521 2.057 . S
Co512 O528 2.117 . S
Co512 O529 2.020 1_545 S
Co512 O531 2.021 1_545 S
Co512 O536 2.062 . S
C513 N515 1.316 . S
C513 N516 1.347 . S
C513 H518 0.931 1_565 S
C514 N515 1.375 . S
C514 C517 1.350 . S
C514 H519 0.930 . S
N515 Co510 2.057 . S
N515 C513 1.316 . S
N515 C514 1.375 . S
N516 C513 1.347 . S
N516 C517 1.373 . S
C517 C514 1.350 . S
C517 N516 1.373 . S
C517 H538 0.931 . S
H518 C513 0.931 1_545 S
H519 C514 0.930 . S
C520 O527 1.259 . S
C520 O528 1.258 1_556 S
N521 Co512 2.057 . S
N521 C522 1.316 . S
N521 C523 1.375 . S
C522 N521 1.316 . S
C522 N524 1.347 . S
C522 H533 0.931 1_545 S
C523 N521 1.375 . S
C523 C525 1.350 . S
C523 H532 0.930 . S
N524 C522 1.347 . S
N524 C525 1.373 . S
C525 C523 1.350 . S
C525 N524 1.373 . S
C525 H539 0.931 . S
C526 O529 1.256 1_556 S
C526 O530 1.255 . S
O527 Co510 2.021 1_545 S
O527 C520 1.259 . S
O528 Co512 2.117 . S
O528 C520 1.258 1_554 S
O529 Co512 2.020 1_565 S
O529 C526 1.256 1_554 S
O530 Co510 2.062 . S
O530 C526 1.255 . S
O531 C511 1.259 . S
O531 Co512 2.021 1_565 S
H532 C523 0.930 . S
H533 C522 0.931 1_565 S
O534 Co510 2.117 . S
O534 C511 1.258 1_556 S
O535 Co510 2.020 1_545 S
O535 C537 1.256 1_556 S
O536 Co512 2.062 . S
O536 C537 1.255 . S
C537 O535 1.256 1_554 S
C537 O536 1.255 . S
H538 C517 0.931 . S
H539 C525 0.931 . S
Co540 N545 2.057 . S
Co540 O557 2.021 . S
Co540 O560 2.062 . S
Co540 O564 2.117 . S
Co540 O565 2.020 . S
C541 O561 1.259 . S
C541 O564 1.258 . S
Co542 N551 2.057 . S
Co542 O558 2.117 . S
Co542 O559 2.020 . S
Co542 O561 2.021 . S
Co542 O566 2.062 . S
C543 N545 1.316 . S
C543 N546 1.347 . S
C543 H548 0.931 . S
C544 N545 1.375 . S
C544 C547 1.350 . S
C544 H549 0.930 . S
N545 Co540 2.057 . S
N545 C543 1.316 . S
N545 C544 1.375 . S
N546 C543 1.347 . S
N546 C547 1.373 . S
C547 C544 1.350 . S
C547 N546 1.373 . S
C547 H568 0.931 . S
H548 C543 0.931 . S
H549 C544 0.930 . S
C550 O557 1.259 . S
C550 O558 1.258 . S
N551 Co542 2.057 . S
N551 C552 1.316 . S
N551 C553 1.375 . S
C552 N551 1.316 . S
C552 N554 1.347 . S
C552 H563 0.931 . S
C553 N551 1.375 . S
C553 C555 1.350 . S
C553 H562 0.930 . S
N554 C552 1.347 . S
N554 C555 1.373 . S
C555 C553 1.350 . S
C555 N554 1.373 . S
C555 H569 0.931 . S
C556 O559 1.256 . S
C556 O560 1.255 . S
O557 Co540 2.021 . S
O557 C550 1.259 . S
O558 Co542 2.117 . S
O558 C550 1.258 . S
O559 Co542 2.020 . S
O559 C556 1.256 . S
O560 Co540 2.062 . S
O560 C556 1.255 . S
O561 C541 1.259 . S
O561 Co542 2.021 . S
H562 C553 0.930 . S
H563 C552 0.931 . S
O564 Co540 2.117 . S
O564 C541 1.258 . S
O565 Co540 2.020 . S
O565 C567 1.256 . S
O566 Co542 2.062 . S
O566 C567 1.255 . S
C567 O565 1.256 . S
C567 O566 1.255 . S
H568 C547 0.931 . S
H569 C555 0.931 . S
Co570 N575 2.057 . S
Co570 O587 2.021 . S
Co570 O590 2.062 . S
Co570 O594 2.117 1_455 S
Co570 O595 2.020 1_455 S
C571 O591 1.259 1_556 S
C571 O594 1.258 . S
Co572 N581 2.057 . S
Co572 O588 2.117 1_655 S
Co572 O589 2.020 1_655 S
Co572 O591 2.021 . S
Co572 O596 2.062 . S
C573 N575 1.316 . S
C573 N576 1.347 . S
C573 H578 0.931 . S
C574 N575 1.375 1_655 S
C574 C577 1.350 1_655 S
C574 H579 0.930 . S
N575 Co570 2.057 . S
N575 C573 1.316 . S
N575 C574 1.375 1_455 S
N576 C573 1.347 . S
N576 C577 1.373 . S
C577 C574 1.350 1_455 S
C577 N576 1.373 . S
C577 H598 0.931 1_455 S
H578 C573 0.931 . S
H579 C574 0.930 . S
C580 O587 1.259 1_554 S
C580 O588 1.258 . S
N581 Co572 2.057 . S
N581 C582 1.316 . S
N581 C583 1.375 1_655 S
C582 N581 1.316 . S
C582 N584 1.347 . S
C582 H593 0.931 . S
C583 N581 1.375 1_455 S
C583 C585 1.350 1_455 S
C583 H592 0.930 . S
N584 C582 1.347 . S
N584 C585 1.373 . S
C585 C583 1.350 1_655 S
C585 N584 1.373 . S
C585 H599 0.931 1_655 S
C586 O589 1.256 . S
C586 O590 1.255 1_554 S
O587 Co570 2.021 . S
O587 C580 1.259 1_556 S
O588 Co572 2.117 1_455 S
O588 C580 1.258 . S
O589 Co572 2.020 1_455 S
O589 C586 1.256 . S
O590 Co570 2.062 . S
O590 C586 1.255 1_556 S
O591 C571 1.259 1_554 S
O591 Co572 2.021 . S
H592 C583 0.930 . S
H593 C582 0.931 . S
O594 Co570 2.117 1_655 S
O594 C571 1.258 . S
O595 Co570 2.020 1_655 S
O595 C597 1.256 . S
O596 Co572 2.062 . S
O596 C597 1.255 1_554 S
C597 O595 1.256 . S
C597 O596 1.255 1_556 S
H598 C577 0.931 1_655 S
H599 C585 0.931 1_455 S
C600 C601 1.369 . S
C600 C602 1.419 . S
C600 H604 0.930 . S
C601 C600 1.369 . S
C601 C610 1.429 . S
C602 C600 1.419 . S
C602 C603 1.363 . S
C602 H605 0.929 1_455 S
C603 C602 1.363 . S
C603 C609 1.428 . S
H604 C600 0.930 . S
H605 C602 0.929 1_655 S
S606 N607 1.613 1_565 S
S606 N608 1.610 1_565 S
N607 S606 1.613 1_545 S
N607 C610 1.350 . S
N608 S606 1.610 1_545 S
N608 C609 1.351 . S
C609 C603 1.428 . S
C609 N608 1.351 . S
C609 C610 1.434 . S
C610 C601 1.429 . S
C610 N607 1.350 . S
C610 C609 1.434 . S
C611 C612 1.369 . S
C611 C613 1.419 . S
C611 H615 0.930 . S
C612 C611 1.369 . S
C612 C621 1.429 . S
C613 C611 1.419 . S
C613 C614 1.363 . S
C613 H616 0.902 1_565 S
C614 C613 1.363 . S
C614 C620 1.428 . S
H615 C611 0.930 . S
H616 C613 0.902 1_545 S
S617 N618 1.613 . S
S617 N619 1.610 . S
N618 S617 1.613 . S
N618 C621 1.350 . S
N619 S617 1.610 . S
N619 C620 1.351 . S
C620 C614 1.428 . S
C620 N619 1.351 . S
C620 C621 1.434 . S
C621 C612 1.429 . S
C621 N618 1.350 . S
C621 C620 1.434 . S
C622 C623 1.369 . S
C622 C624 1.419 . S
C622 H626 0.930 . S
C623 C622 1.369 . S
C623 C632 1.429 . S
C624 C622 1.419 . S
C624 C625 1.363 . S
C624 H627 0.929 . S
C625 C624 1.363 . S
C625 C631 1.428 . S
H626 C622 0.930 . S
H627 C624 0.929 . S
S628 N629 1.613 . S
S628 N630 1.610 . S
N629 S628 1.613 . S
N629 C632 1.350 . S
N630 S628 1.610 . S
N630 C631 1.351 . S
C631 C625 1.428 . S
C631 N630 1.351 . S
C631 C632 1.434 . S
C632 C623 1.429 . S
C632 N629 1.350 . S
C632 C631 1.434 . S
C633 C634 1.369 . S
C633 C635 1.419 . S
C633 H637 0.930 . S
C634 C633 1.369 . S
C634 C643 1.429 . S
C635 C633 1.419 . S
C635 C636 1.363 . S
C635 H638 0.929 . S
C636 C635 1.363 . S
C636 C642 1.428 . S
H637 C633 0.930 . S
H638 C635 0.929 . S
S639 N640 1.613 . S
S639 N641 1.610 1_455 S
N640 S639 1.613 . S
N640 C643 1.350 1_455 S
N641 S639 1.610 1_655 S
N641 C642 1.351 . S
C642 C636 1.428 . S
C642 N641 1.351 . S
C642 C643 1.434 . S
C643 C634 1.429 . S
C643 N640 1.350 1_655 S
C643 C642 1.434 . S
C644 C645 1.369 . S
C644 C646 1.419 . S
C644 H648 0.930 1_545 S
C645 C644 1.369 . S
C645 C654 1.429 . S
C646 C644 1.419 . S
C646 C647 1.363 . S
C646 H649 0.929 1_545 S
C647 C646 1.363 . S
C647 C653 1.428 . S
H648 C644 0.930 1_565 S
H649 C646 0.929 1_565 S
S650 N651 1.613 . S
S650 N652 1.610 . S
N651 S650 1.613 . S
N651 C654 1.350 . S
N652 S650 1.610 . S
N652 C653 1.351 . S
C653 C647 1.428 . S
C653 N652 1.351 . S
C653 C654 1.434 . S
C654 C645 1.429 . S
C654 N651 1.350 . S
C654 C653 1.434 . S
C655 C656 1.369 . S
C655 C657 1.419 . S
C655 H659 0.930 . S
C656 C655 1.369 . S
C656 C665 1.429 . S
C657 C655 1.419 . S
C657 C658 1.363 . S
C657 H660 0.929 . S
C658 C657 1.363 . S
C658 C664 1.428 . S
H659 C655 0.930 . S
H660 C657 0.929 . S
S661 N662 1.613 . S
S661 N663 1.610 . S
N662 S661 1.613 . S
N662 C665 1.350 . S
N663 S661 1.610 . S
N663 C664 1.351 . S
C664 C658 1.428 . S
C664 N663 1.351 . S
C664 C665 1.434 . S
C665 C656 1.429 . S
C665 N662 1.350 . S
C665 C664 1.434 . S
C666 C667 1.369 . S
C666 C668 1.419 . S
C666 H670 0.930 . S
C667 C666 1.369 . S
C667 C676 1.429 . S
C668 C666 1.419 . S
C668 C669 1.363 . S
C668 H671 0.929 . S
C669 C668 1.363 . S
C669 C675 1.428 . S
H670 C666 0.930 . S
H671 C668 0.929 . S
S672 N673 1.613 . S
S672 N674 1.610 . S
N673 S672 1.613 . S
N673 C676 1.350 1_554 S
N674 S672 1.610 . S
N674 C675 1.351 1_554 S
C675 C669 1.428 . S
C675 N674 1.351 1_556 S
C675 C676 1.434 . S
C676 C667 1.429 . S
C676 N673 1.350 1_556 S
C676 C675 1.434 . S
C677 C678 1.369 . S
C677 C679 1.419 . S
C677 H681 0.930 . S
C678 C677 1.369 . S
C678 C687 1.429 . S
C679 C677 1.419 . S
C679 C680 1.363 . S
C679 H682 0.929 . S
C680 C679 1.363 . S
C680 C686 1.428 . S
H681 C677 0.930 . S
H682 C679 0.929 . S
S683 N684 1.613 . S
S683 N685 1.610 . S
N684 S683 1.613 . S
N684 C687 1.350 . S
N685 S683 1.610 . S
N685 C686 1.351 . S
C686 C680 1.428 . S
C686 N685 1.351 . S
C686 C687 1.434 . S
C687 C678 1.429 . S
C687 N684 1.350 . S
C687 C686 1.434 . S
C688 C689 1.369 . S
C688 C690 1.419 . S
C688 H692 0.930 . S
C689 C688 1.369 . S
C689 C698 1.429 . S
C690 C688 1.419 . S
C690 C691 1.363 . S
C690 H693 0.929 . S
C691 C690 1.363 . S
C691 C697 1.428 . S
H692 C688 0.930 . S
H693 C690 0.929 . S
S694 N695 1.613 . S
S694 N696 1.610 . S
N695 S694 1.613 . S
N695 C698 1.350 1_655 S
N696 S694 1.610 . S
N696 C697 1.351 1_655 S
C697 C691 1.428 . S
C697 N696 1.351 1_455 S
C697 C698 1.434 . S
C698 C689 1.429 . S
C698 N695 1.350 1_455 S
C698 C697 1.434 . S
C699 C700 1.369 . S
C699 C701 1.419 . S
C699 H703 0.930 . S
C700 C699 1.369 . S
C700 C709 1.429 . S
C701 C699 1.419 . S
C701 C702 1.363 . S
C701 H704 0.929 1_556 S
C702 C701 1.363 . S
C702 C708 1.428 . S
H703 C699 0.930 . S
H704 C701 0.929 1_554 S
S705 N706 1.613 . S
S705 N707 1.610 . S
N706 S705 1.613 . S
N706 C709 1.350 . S
N707 S705 1.610 . S
N707 C708 1.351 . S
C708 C702 1.428 . S
C708 N707 1.351 . S
C708 C709 1.434 . S
C709 C700 1.429 . S
C709 N706 1.350 . S
C709 C708 1.434 . S
C710 C711 1.369 . S
C710 C712 1.419 . S
C710 H714 0.930 1_655 S
C711 C710 1.369 . S
C711 C720 1.429 . S
C712 C710 1.419 . S
C712 C713 1.363 . S
C712 H715 0.929 1_655 S
C713 C712 1.363 . S
C713 C719 1.428 . S
H714 C710 0.930 1_455 S
H715 C712 0.929 1_455 S
S716 N717 1.613 . S
S716 N718 1.610 . S
N717 S716 1.613 . S
N717 C720 1.350 . S
N718 S716 1.610 . S
N718 C719 1.351 . S
C719 C713 1.428 . S
C719 N718 1.351 . S
C719 C720 1.434 . S
C720 C711 1.429 . S
C720 N717 1.350 . S
C720 C719 1.434 . S
C721 C722 1.369 . S
C721 C723 1.419 . S
C721 H725 0.930 . S
C722 C721 1.369 . S
C722 C731 1.429 . S
C723 C721 1.419 . S
C723 C724 1.363 . S
C723 H726 0.929 . S
C724 C723 1.363 . S
C724 C730 1.428 . S
H725 C721 0.930 . S
H726 C723 0.929 . S
S727 N728 1.613 . S
S727 N729 1.610 . S
N728 S727 1.613 . S
N728 C731 1.350 . S
N729 S727 1.610 . S
N729 C730 1.351 . S
C730 C724 1.428 . S
C730 N729 1.351 . S
C730 C731 1.434 . S
C731 C722 1.429 . S
C731 N728 1.350 . S
C731 C730 1.434 . S
C732 C733 1.369 . S
C732 C734 1.419 . S
C732 H736 0.930 1_565 S
C733 C732 1.369 . S
C733 C742 1.429 . S
C734 C732 1.419 . S
C734 C735 1.363 . S
C734 H737 0.929 1_565 S
C735 C734 1.363 . S
C735 C741 1.428 . S
H736 C732 0.930 1_545 S
H737 C734 0.929 1_545 S
S738 N739 1.613 . S
S738 N740 1.610 . S
N739 S738 1.613 . S
N739 C742 1.350 . S
N740 S738 1.610 . S
N740 C741 1.351 . S
C741 C735 1.428 . S
C741 N740 1.351 . S
C741 C742 1.434 . S
C742 C733 1.429 . S
C742 N739 1.350 . S
C742 C741 1.434 . S
C743 C744 1.369 . S
C743 C745 1.419 . S
C743 H747 0.930 . S
C744 C743 1.369 . S
C744 C753 1.429 . S
C745 C743 1.419 . S
C745 C746 1.363 . S
C745 H748 0.929 . S
C746 C745 1.363 . S
C746 C752 1.428 . S
H747 C743 0.930 . S
H748 C745 0.929 . S
S749 N750 1.613 1_565 S
S749 N751 1.610 . S
N750 S749 1.613 1_545 S
N750 C753 1.350 . S
N751 S749 1.610 . S
N751 C752 1.351 1_565 S
C752 C746 1.428 . S
C752 N751 1.351 1_545 S
C752 C753 1.434 . S
C753 C744 1.429 . S
C753 N750 1.350 . S
C753 C752 1.434 . S
C754 C755 1.369 . S
C754 C756 1.419 . S
C754 H758 0.930 . S
C755 C754 1.369 . S
C755 C764 1.429 . S
C756 C754 1.419 . S
C756 C757 1.363 . S
C756 H759 0.929 . S
C757 C756 1.363 . S
C757 C763 1.428 . S
H758 C754 0.930 . S
H759 C756 0.929 . S
S760 N761 1.613 . S
S760 N762 1.610 . S
N761 S760 1.613 . S
N761 C764 1.350 . S
N762 S760 1.610 . S
N762 C763 1.351 . S
C763 C757 1.428 . S
C763 N762 1.351 . S
C763 C764 1.434 . S
C764 C755 1.429 . S
C764 N761 1.350 . S
C764 C763 1.434 . S
C765 C766 1.369 . S
C765 C767 1.419 . S
C765 H769 0.930 . S
C766 C765 1.369 . S
C766 C775 1.429 . S
C767 C765 1.419 . S
C767 C768 1.363 . S
C767 H770 0.929 . S
C768 C767 1.363 . S
C768 C774 1.428 . S
H769 C765 0.930 . S
H770 C767 0.929 . S
S771 N772 1.613 . S
S771 N773 1.610 . S
N772 S771 1.613 . S
N772 C775 1.350 . S
N773 S771 1.610 . S
N773 C774 1.351 . S
C774 C768 1.428 . S
C774 N773 1.351 . S
C774 C775 1.434 . S
C775 C766 1.429 . S
C775 N772 1.350 . S
C775 C774 1.434 . S
C776 C777 1.369 . S
C776 C778 1.419 . S
C776 H780 0.915 1_565 S
C777 C776 1.369 . S
C777 C786 1.429 . S
C778 C776 1.419 . S
C778 C779 1.363 . S
C778 H781 0.929 1_565 S
C779 C778 1.363 . S
C779 C785 1.428 . S
H780 C776 0.915 1_545 S
H781 C778 0.929 1_545 S
S782 N783 1.613 1_554 S
S782 N784 1.610 . S
N783 S782 1.613 1_556 S
N783 C786 1.350 . S
N784 S782 1.610 . S
N784 C785 1.351 1_554 S
C785 C779 1.428 . S
C785 N784 1.351 1_556 S
C785 C786 1.434 . S
C786 C777 1.429 . S
C786 N783 1.350 . S
C786 C785 1.434 . S
C787 C788 1.369 . S
C787 C789 1.419 . S
C787 H791 0.930 . S
C788 C787 1.369 . S
C788 C797 1.429 . S
C789 C787 1.419 . S
C789 C790 1.363 . S
C789 H792 0.929 . S
C790 C789 1.363 . S
C790 C796 1.428 . S
H791 C787 0.930 . S
H792 C789 0.929 . S
S793 N794 1.613 . S
S793 N795 1.610 . S
N794 S793 1.613 . S
N794 C797 1.350 . S
N795 S793 1.610 . S
N795 C796 1.351 . S
C796 C790 1.428 . S
C796 N795 1.351 . S
C796 C797 1.434 . S
C797 C788 1.429 . S
C797 N794 1.350 . S
C797 C796 1.434 . S
C798 C799 1.369 . S
C798 C800 1.419 . S
C798 H802 0.930 . S
C799 C798 1.369 . S
C799 C808 1.429 . S
C800 C798 1.419 . S
C800 C801 1.363 . S
C800 H803 0.929 1_554 S
C801 C800 1.363 . S
C801 C807 1.428 . S
H802 C798 0.930 . S
H803 C800 0.929 1_556 S
S804 N805 1.613 . S
S804 N806 1.610 . S
N805 S804 1.613 . S
N805 C808 1.350 . S
N806 S804 1.610 . S
N806 C807 1.351 . S
C807 C801 1.428 . S
C807 N806 1.351 . S
C807 C808 1.434 . S
C808 C799 1.429 . S
C808 N805 1.350 . S
C808 C807 1.434 . S
C809 C810 1.369 . S
C809 C811 1.419 . S
C809 H813 0.930 . S
C810 C809 1.369 . S
C810 C819 1.429 . S
C811 C809 1.419 . S
C811 C812 1.363 . S
C811 H814 0.929 . S
C812 C811 1.363 . S
C812 C818 1.428 . S
H813 C809 0.930 . S
H814 C811 0.929 . S
S815 N816 1.613 . S
S815 N817 1.610 . S
N816 S815 1.613 . S
N816 C819 1.350 . S
N817 S815 1.610 . S
N817 C818 1.351 . S
C818 C812 1.428 . S
C818 N817 1.351 . S
C818 C819 1.434 . S
C819 C810 1.429 . S
C819 N816 1.350 . S
C819 C818 1.434 . S
C820 C821 1.369 . S
C820 C822 1.419 . S
C820 H824 0.930 . S
C821 C820 1.369 . S
C821 C830 1.429 . S
C822 C820 1.419 . S
C822 C823 1.363 . S
C822 H825 0.929 . S
C823 C822 1.363 . S
C823 C829 1.428 . S
H824 C820 0.930 . S
H825 C822 0.929 . S
S826 N827 1.613 . S
S826 N828 1.610 . S
N827 S826 1.613 . S
N827 C830 1.350 1_455 S
N828 S826 1.610 . S
N828 C829 1.351 1_455 S
C829 C823 1.428 . S
C829 N828 1.351 1_655 S
C829 C830 1.434 . S
C830 C821 1.429 . S
C830 N827 1.350 1_655 S
C830 C829 1.434 . S
C831 C832 1.369 . S
C831 C833 1.419 . S
C831 H835 0.930 . S
C832 C831 1.369 . S
C832 C841 1.429 . S
C833 C831 1.419 . S
C833 C834 1.363 . S
C833 H836 0.929 . S
C834 C833 1.363 . S
C834 C840 1.428 . S
H835 C831 0.930 . S
H836 C833 0.929 . S
S837 N838 1.613 . S
S837 N839 1.610 . S
N838 S837 1.613 . S
N838 C841 1.350 1_556 S
N839 S837 1.610 . S
N839 C840 1.351 1_556 S
C840 C834 1.428 . S
C840 N839 1.351 1_554 S
C840 C841 1.434 . S
C841 C832 1.429 . S
C841 N838 1.350 1_554 S
C841 C840 1.434 . S
C842 C843 1.369 . S
C842 C844 1.419 . S
C842 H846 0.930 . S
C843 C842 1.369 . S
C843 C852 1.429 . S
C844 C842 1.419 . S
C844 C845 1.363 . S
C844 H847 0.929 . S
C845 C844 1.363 . S
C845 C851 1.428 . S
H846 C842 0.930 . S
H847 C844 0.929 . S
S848 N849 1.613 . S
S848 N850 1.608 1_655 S
N849 S848 1.613 . S
N849 C852 1.350 1_655 S
N850 S848 1.608 1_455 S
N850 C851 1.354 . S
C851 C845 1.428 . S
C851 N850 1.354 . S
C851 C852 1.434 . S
C852 C843 1.429 . S
C852 N849 1.350 1_455 S
C852 C851 1.434 . S
C853 C854 1.369 . S
C853 C855 1.419 . S
C853 H857 0.930 . S
C854 C853 1.369 . S
C854 C863 1.429 . S
C855 C853 1.419 . S
C855 C856 1.363 . S
C855 H858 0.929 . S
C856 C855 1.363 . S
C856 C862 1.428 . S
H857 C853 0.930 . S
H858 C855 0.929 . S
S859 N860 1.613 . S
S859 N861 1.610 . S
N860 S859 1.613 . S
N860 C863 1.350 . S
N861 S859 1.610 . S
N861 C862 1.351 . S
C862 C856 1.428 . S
C862 N861 1.351 . S
C862 C863 1.434 . S
C863 C854 1.429 . S
C863 N860 1.350 . S
C863 C862 1.434 . S
C601 C1 2.134 . S
C603 C496 2.175 . S
C612 C80 1.163 . S
C614 N516 1.187 . S
C625 C550 2.037 . S
C623 C140 1.967 . S
C634 C211 1.386 . S
C636 N584 1.319 . S
C647 C537 2.325 . S
C645 C31 2.311 . S
C658 N494 1.211 . S
C656 C61 1.200 . S
C669 C571 2.055 . S
C667 C151 1.960 . S
C680 N546 1.153 . S
C678 C200 1.066 . S
C689 C20 1.846 . S
C691 C586 1.856 . S
C702 C520 1.766 . S
C700 C121 1.667 . S
C711 C181 1.429 . S
C713 C481 1.546 . S
C722 C91 1.416 . S
C724 C567 1.497 . S
C735 C507 2.176 . S
C733 C260 2.171 . S
C744 C320 1.173 . S
C746 N524 1.193 . S
C755 C361 2.035 . S
C757 C541 2.037 . S
C766 C451 1.386 . S
C768 N576 1.320 . S
C777 C271 2.302 . S
C779 C526 2.325 . S
C790 N486 1.215 . S
C788 C301 1.200 . S
C801 C580 2.055 . S
C799 C380 2.019 . S
C812 N554 1.153 . S
C810 C440 1.068 . S
C821 C241 1.812 . S
C823 C597 1.857 . S
C834 C511 1.765 . S
C832 C391 1.737 . S
C845 C490 1.540 . S
C843 C421 1.439 . S
C854 C331 1.410 . S
C856 C556 1.500 . S
