# Generated by pormake.
# Topology rtl, (3,6)-cn, num edge types: 1
# Building blocks:
#     Node 0, Type 0, BuildingBlock: BETDAH_clean_linker_0, # of connection points: 3
#     Node 1, Type 0, BuildingBlock: BETDAH_clean_linker_0, # of connection points: 3
#     Node 2, Type 0, BuildingBlock: BETDAH_clean_linker_0, # of connection points: 3
#     Node 3, Type 0, BuildingBlock: BETDAH_clean_linker_0, # of connection points: 3
#     Node 4, Type 1, BuildingBlock: KUMBUR_clean_sbu_1, # of connection points: 6
#     Node 5, Type 1, BuildingBlock: KUMBUR_clean_sbu_1, # of connection points: 6
#     Edge 6, Type (0, 1), BuildingBlock: OJICUG_clean_linker_0, # of connection points: 2
#     Edge 7, Type (0, 1), BuildingBlock: OJICUG_clean_linker_0, # of connection points: 2
#     Edge 8, Type (0, 1), BuildingBlock: OJICUG_clean_linker_0, # of connection points: 2
#     Edge 9, Type (0, 1), BuildingBlock: OJICUG_clean_linker_0, # of connection points: 2
#     Edge 10, Type (0, 1), BuildingBlock: OJICUG_clean_linker_0, # of connection points: 2
#     Edge 11, Type (0, 1), BuildingBlock: OJICUG_clean_linker_0, # of connection points: 2
#     Edge 12, Type (0, 1), BuildingBlock: OJICUG_clean_linker_0, # of connection points: 2
#     Edge 13, Type (0, 1), BuildingBlock: OJICUG_clean_linker_0, # of connection points: 2
#     Edge 14, Type (0, 1), BuildingBlock: OJICUG_clean_linker_0, # of connection points: 2
#     Edge 15, Type (0, 1), BuildingBlock: OJICUG_clean_linker_0, # of connection points: 2
#     Edge 16, Type (0, 1), BuildingBlock: OJICUG_clean_linker_0, # of connection points: 2
#     Edge 17, Type (0, 1), BuildingBlock: OJICUG_clean_linker_0, # of connection points: 2
# Relax obj value: 0.051
# Max RMSD: 0.239
# Mean RMSD: 0.169
data_MOF--net-rtl--node1-KUMBUR_clean_sbu_1--node2-BETDAH_clean_linker_0--edge1-OJICUG_clean_linker_0
_symmetry_space_group_name_H-M    P1
_symmetry_Int_Tables_number       1
_symmetry_cell_setting            triclinic
loop_
_symmetry_equiv_pos_as_xyz
'x, y, z'
_cell_length_a     26.076236
_cell_length_b     26.423283
_cell_length_c     20.700928
_cell_angle_alpha  74.484041
_cell_angle_beta   100.84859
_cell_angle_gamma 91.72803
loop_
_atom_site_label
_atom_site_type_symbol
_atom_site_fract_x
_atom_site_fract_y
_atom_site_fract_z
_atom_type_partial_charge
H0 H 0.13974 0.92048 0.97484 0.0
H1 H 0.2104 0.79514 0.14476 0.0
H2 H 0.22623 0.79691 0.94099 0.0
C3 C 0.16437 0.88543 0.99524 0.0
C4 C 0.18308 0.86273 0.94994 0.0
C5 C 0.17368 0.86174 0.06558 0.0
C6 C 0.20283 0.81439 0.09055 0.0
C7 C 0.22281 0.7913 0.04644 0.0
C8 C 0.21271 0.81544 0.97569 0.0
N9 N 0.24895 0.74175 0.07537 0.0
C10 C 0.28716 0.72063 0.05073 0.0
H11 H 0.60901 0.63351 0.67374 0.0
H12 H 0.73537 0.72737 0.60054 0.0
H13 H 0.71643 0.70144 0.80911 0.0
C14 C 0.64199 0.65855 0.68184 0.0
C15 C 0.6586 0.66587 0.74699 0.0
C16 C 0.66962 0.67984 0.62866 0.0
C17 C 0.71365 0.71098 0.64081 0.0
C18 C 0.73005 0.71958 0.70595 0.0
C19 C 0.70291 0.69601 0.75861 0.0
N20 N 0.77506 0.74881 0.72287 0.0
C21 C 0.80148 0.78523 0.67901 0.0
H22 H 0.90132 0.10078 0.16202 0.0
H23 H 0.81394 0.22295 0.19734 0.0
H24 H 0.8295 0.22619 0.99292 0.0
C25 C 0.87646 0.13568 0.14195 0.0
C26 C 0.8668 0.1596 0.07166 0.0
C27 C 0.85763 0.15787 0.18759 0.0
C28 C 0.82768 0.20493 0.16231 0.0
C29 C 0.8173 0.2294 0.09162 0.0
C30 C 0.83737 0.20681 0.04709 0.0
N31 N 0.78999 0.27841 0.06326 0.0
C32 C 0.75228 0.29827 0.09003 0.0
H33 H 0.41206 0.40675 0.45119 0.0
H34 H 0.30715 0.28936 0.53691 0.0
H35 H 0.33656 0.30457 0.3345 0.0
C36 C 0.38568 0.37482 0.44669 0.0
C37 C 0.37705 0.35909 0.38623 0.0
C38 C 0.36154 0.34963 0.50182 0.0
C39 C 0.32617 0.30889 0.49496 0.0
C40 C 0.3173 0.29242 0.43428 0.0
C41 C 0.34338 0.31734 0.38095 0.0
N42 N 0.2841 0.25024 0.42425 0.0
C43 C 0.24897 0.22353 0.46411 0.0
Tb44 Tb 0.04862 0.96113 0.52462 0.0
C45 C 0.94358 0.16913 0.52924 0.0
N46 N 0.99014 0.14762 0.56658 0.0
C47 C 0.0285 0.23278 0.54557 0.0
C48 C 0.93797 0.22344 0.49727 0.0
C49 C 0.0322 0.17866 0.57612 0.0
C50 C 0.98126 0.25526 0.50569 0.0
C51 C 0.85318 0.15671 0.48178 0.0
C52 C 0.90179 0.13613 0.52142 0.0
C53 C 0.84737 0.21081 0.44981 0.0
C54 C 0.88965 0.24408 0.45752 0.0
Tb55 Tb 0.99152 0.05886 0.61314 0.0
N56 N 0.90946 0.08361 0.55097 0.0
C57 C 0.81192 0.12227 0.47532 0.0
C58 C 0.86842 0.05045 0.54796 0.0
C59 C 0.81944 0.06903 0.50925 0.0
H60 H 0.06833 0.16202 0.60868 0.0
H61 H 0.78731 0.04233 0.50633 0.0
H62 H 0.97303 0.85735 0.52811 0.0
H63 H 0.25259 0.97901 0.63161 0.0
H64 H 0.87238 0.00996 0.57641 0.0
H65 H 0.77394 0.1365 0.44531 0.0
H66 H 0.16759 0.01065 0.5608 0.0
H67 H 0.06201 0.25716 0.55315 0.0
H68 H 0.81035 0.2273 0.41892 0.0
H69 H 0.88461 0.2857 0.43239 0.0
H70 H 0.97973 0.76226 0.58409 0.0
H71 H 0.97856 0.29719 0.48196 0.0
H72 H 0.26635 0.88505 0.69355 0.0
N73 N 0.0507 0.87235 0.57119 0.0
C74 C 0.09724 0.85118 0.60897 0.0
C75 C 0.01297 0.78689 0.59199 0.0
C76 C 0.10314 0.79692 0.64118 0.0
C77 C 1.009 0.84097 0.56123 0.0
C78 C 0.06016 0.76477 0.63246 0.0
N79 N 0.1308 0.93692 0.58693 0.0
C80 C 0.17165 0.97031 0.58975 0.0
C81 C 0.18736 0.86426 0.65688 0.0
C82 C 0.13874 0.88448 0.61689 0.0
C83 C 0.22837 0.89898 0.66328 0.0
C84 C 0.22063 0.95211 0.62883 0.0
H85 H 0.06308 0.72287 0.65634 0.0
H86 H 0.15669 0.73509 0.70671 0.0
H87 H 0.23046 0.79403 0.72038 0.0
O88 O 0.09439 0.97973 0.44855 0.0
O89 O 0.05758 0.93892 0.63642 0.0
O90 O 0.06428 0.01626 0.66845 0.0
O91 O 0.03905 0.91776 0.45135 0.0
O92 O 0.076 0.04298 0.50649 0.0
O93 O 0.07375 0.06995 0.60355 0.0
O94 O 0.94618 0.04001 0.68969 0.0
O95 O 0.98207 0.08091 0.50135 0.0
O96 O 0.97578 1.00359 0.46923 0.0
O97 O 1.00083 0.10265 0.68589 0.0
O98 O 0.96356 0.97722 0.63084 0.0
O99 O 0.96642 0.94945 0.53441 0.0
C100 C 0.07519 0.96595 0.68041 0.0
C101 C 0.05848 0.9622 0.34411 0.0
C102 C 0.07177 0.95577 0.23299 0.0
C103 C 0.03591 0.99782 0.20135 0.0
C104 C 0.02301 1.00416 0.31187 0.0
C105 C 0.01162 0.02167 0.24071 0.0
C106 C 0.08249 0.93794 0.30463 0.0
C107 C 0.09168 0.07384 0.54698 0.0
C108 C 0.07314 0.9447 0.41873 0.0
C109 C 0.15144 0.77665 0.68137 0.0
C110 C 0.19344 0.81023 0.6892 0.0
C111 C 0.96463 0.05383 0.45737 0.0
C112 C 0.98201 0.05856 0.79355 0.0
C113 C 0.96882 0.06571 0.90437 0.0
C114 C 1.00509 0.02406 0.93635 0.0
C115 C 0.01793 0.01703 0.82611 0.0
C116 C 0.95786 0.08299 0.83271 0.0
C117 C 0.02956 1.00009 0.89729 0.0
C118 C 0.94804 0.94613 0.59057 0.0
C119 C 0.96709 0.07548 0.71895 0.0
H120 H 0.02655 0.01212 0.14624 0.0
H121 H 1.0048 0.02371 0.34168 0.0
H122 H 0.98433 0.05416 0.21601 0.0
H123 H 0.11069 0.90617 0.32984 0.0
H124 H 0.0146 0.01017 0.99149 0.0
H125 H 0.03631 0.99741 0.79653 0.0
H126 H 0.92934 0.11444 0.80729 0.0
H127 H 0.05718 0.96793 0.92226 0.0
Tb128 Tb 0.46942 0.47857 0.01085 0.0
C129 C 0.649 0.62423 0.05218 0.0
N130 N 0.64745 0.57346 0.08864 0.0
C131 C 0.73471 0.55832 0.07584 0.0
C132 C 0.69271 0.6436 0.02303 0.0
C133 C 0.69012 0.5409 0.10316 0.0
C134 C 0.73573 0.6097 0.0347 0.0
C135 C 0.60772 0.71048 0.01076 0.0
C136 C 0.60704 0.65691 0.04607 0.0
C137 C 0.64976 0.72954 0.97805 0.0
C138 C 0.69227 0.69615 0.98429 0.0
Tb139 Tb 0.57331 0.54801 0.13055 0.0
N140 N 0.5677 0.63705 0.07952 0.0
C141 C 0.56745 0.74369 0.0122 0.0
C142 C 0.53185 0.67063 0.0874 0.0
C143 C 0.53006 0.72389 0.05212 0.0
H144 H 0.68945 0.50141 0.13521 0.0
H145 H 0.50052 0.74984 0.05697 0.0
H146 H 0.36628 0.56144 0.94702 0.0
H147 H 0.46966 0.27071 0.12989 0.0
H148 H 0.50503 0.657 0.12188 0.0
H149 H 0.56647 0.78512 0.98576 0.0
H150 H 0.50386 0.35345 0.06492 0.0
H151 H 0.76815 0.53212 0.08634 0.0
H152 H 0.65063 0.77042 0.94988 0.0
H153 H 0.72509 0.71165 0.96043 0.0
H154 H 0.27943 0.57115 0.97373 0.0
H155 H 0.77016 0.62304 0.01328 0.0
H156 H 0.3863 0.27206 0.17045 0.0
N157 N 0.38546 0.48986 0.02452 0.0
C158 C 0.36559 0.44831 0.06618 0.0
C159 C 0.30368 0.53679 1.0013 0.0
C160 C 0.31508 0.4506 0.08048 0.0
C161 C 0.35355 0.53181 0.98757 0.0
C162 C 0.28486 0.49654 0.04942 0.0
N163 N 0.44132 0.40069 0.07095 0.0
C164 C 0.46757 0.35415 0.08269 0.0
C165 C 0.37294 0.35571 0.12595 0.0
C166 C 0.39394 0.4016 0.08867 0.0
C167 C 0.40111 0.30827 0.14196 0.0
C168 C 0.44822 0.30736 0.1192 0.0
H169 H 0.24588 0.50001 0.05908 0.0
H170 H 0.25696 0.40726 0.13443 0.0
H171 H 0.30778 0.324 0.17437 0.0
O172 O 0.49374 0.44819 0.93689 0.0
O173 O 0.49195 0.44405 0.12212 0.0
O174 O 0.50338 0.51397 0.16829 0.0
O175 O 0.41288 0.46343 0.93154 0.0
O176 O 0.54943 0.44535 0.03851 0.0
O177 O 0.59482 0.46604 0.1372 0.0
O178 O 0.60277 0.5915 0.20087 0.0
O179 O 0.58656 0.54094 0.03135 0.0
O180 O 0.5058 0.55151 0.96225 0.0
O181 O 0.61538 0.5083 0.22732 0.0
O182 O 0.49006 0.57011 0.11046 0.0
O183 O 0.45647 0.5628 1.00198 0.0
C184 C 0.48603 0.46658 0.16964 0.0
C185 C 0.43965 0.46876 0.82786 0.0
C186 C 0.4164 0.45482 0.71422 0.0
C187 C 0.42652 0.5078 0.68573 0.0
C188 C 0.44906 0.52171 0.79861 0.0
C189 C 0.44256 0.54106 0.72778 0.0
C190 C 0.423 0.4354 0.78549 0.0
C191 C 0.58804 0.43755 0.09225 0.0
C192 C 0.44677 0.44775 0.90231 0.0
C193 C 0.29537 0.40605 0.12199 0.0
C194 C 0.32419 0.35857 0.14449 0.0
C195 C 0.55645 0.55929 0.97137 0.0
C196 C 0.60105 0.54589 0.31465 0.0
C197 C 0.60047 0.57841 0.41486 0.0
C198 C 0.56167 0.54201 0.43307 0.0
C199 C 0.5625 0.50983 0.33444 0.0
C200 C 0.62038 0.57986 0.35553 0.0
C201 C 0.54305 0.50796 0.39326 0.0
C202 C 0.45603 0.58416 0.05266 0.0
C203 C 0.61906 0.55004 0.24982 0.0
H204 H 0.42223 0.52332 0.63092 0.0
H205 H 0.46143 0.54789 0.83054 0.0
H206 H 0.45022 0.58187 0.70542 0.0
H207 H 0.41587 0.39437 0.80787 0.0
H208 H 0.5461 0.53942 0.47879 0.0
H209 H 0.54716 0.48317 0.30432 0.0
H210 H 0.64987 0.60804 0.34041 0.0
H211 H 0.51329 0.48007 0.40797 0.0
C212 C 0.20173 0.17273 0.55522 0.0
C213 C 0.208 0.18844 0.48684 0.0
H214 H 0.15993 0.12383 0.62835 0.0
C215 C 0.17551 0.1673 0.4389 0.0
H216 H 0.22671 0.18819 0.59323 0.0
C217 C 0.13773 0.13066 0.45864 0.0
C218 C 0.1312 0.11428 0.527 0.0
H219 H 0.17983 0.1786 0.3859 0.0
H220 H 0.11363 0.11506 0.42007 0.0
C221 C 0.1635 0.13599 0.57514 0.0
C222 C 0.34526 0.68747 0.98658 0.0
C223 C 0.33029 0.68845 0.04796 0.0
H224 H 0.39778 0.6538 0.9396 0.0
C225 C 0.35687 0.65605 0.10953 0.0
H226 H 0.32509 0.71225 0.93843 0.0
C227 C 0.39757 0.62275 0.1103 0.0
C228 C 0.41277 0.62083 0.04934 0.0
H229 H 0.34585 0.65612 0.15747 0.0
H230 H 0.41682 0.59801 0.15898 0.0
C231 C 0.38651 0.65394 0.9873 0.0
C232 C 0.84384 0.84087 0.58568 0.0
C233 C 0.83674 0.8264 0.65373 0.0
H234 H 0.884 0.89092 0.51158 0.0
C235 C 0.86545 0.85178 0.69987 0.0
H236 H 0.82199 0.82188 0.5491 0.0
C237 C 0.90102 0.89064 0.67897 0.0
C238 C 0.90904 0.90515 0.61116 0.0
H239 H 0.86067 0.84123 0.7527 0.0
H240 H 0.92277 0.90884 0.71648 0.0
C241 C 0.87957 0.88012 0.56448 0.0
C242 C 0.6624 0.33254 0.05067 0.0
C243 C 0.70871 0.32676 0.09903 0.0
H244 H 0.58823 0.37146 0.01065 0.0
C245 C 0.71396 0.35416 0.14928 0.0
H246 H 0.65775 0.31204 0.0111 0.0
C247 C 0.67377 0.3884 0.14954 0.0
C248 C 0.62822 0.39652 0.09865 0.0
H249 H 0.74968 0.35047 0.18683 0.0
H250 H 0.67923 0.4097 0.18822 0.0
C251 C 0.62265 0.36693 0.0504 0.0
C252 C 0.12913 0.85383 0.16594 0.0
C253 C 0.15029 0.88554 0.11142 0.0
H254 H 0.08738 0.85114 0.24667 0.0
C255 C 0.14633 0.94053 0.09853 0.0
H256 H 0.1306 0.81143 0.17677 0.0
C257 C 0.1207 0.96316 0.13774 0.0
C258 C 0.09904 0.93146 0.19154 0.0
H259 H 0.163 0.9663 0.05792 0.0
H260 H 0.1183 1.00559 0.12635 0.0
C261 C 0.10402 0.87656 0.20575 0.0
C262 C 0.5778 0.64621 0.79933 0.0
C263 C 0.63174 0.63886 0.80388 0.0
H264 H 0.5117 0.6278 0.84927 0.0
C265 C 0.65986 0.6038 0.86233 0.0
H266 H 0.55512 0.67276 0.75449 0.0
C267 C 0.63477 0.57681 0.91515 0.0
C268 C 0.58132 0.58552 0.91221 0.0
H269 H 0.70119 0.59652 0.86663 0.0
H270 H 0.65743 0.54898 0.95849 0.0
C271 C 0.55291 0.62019 0.85329 0.0
C272 C 0.87197 0.07854 0.28735 0.0
C273 C 0.87499 0.13327 0.26154 0.0
H274 H 0.89792 0.01049 0.36943 0.0
C275 C 0.90374 0.16224 0.3032 0.0
H276 H 0.85011 0.05531 0.25605 0.0
C277 C 0.93191 0.13649 0.36761 0.0
C278 C 0.93131 0.08139 0.39183 0.0
H279 H 0.90744 0.20431 0.28413 0.0
H280 H 0.95611 0.15962 0.39694 0.0
C281 C 0.89978 0.05286 0.35186 0.0
C282 C 0.33612 0.38248 0.59558 0.0
C283 C 0.37502 0.36707 0.56558 0.0
H284 H 0.31899 0.4228 0.66703 0.0
C285 C 0.42769 0.37527 0.59118 0.0
H286 H 0.29527 0.37703 0.5766 0.0
C287 C 0.44102 0.40163 0.64192 0.0
C288 C 0.40209 0.41979 0.66891 0.0
H289 H 0.4586 0.36337 0.56959 0.0
H290 H 0.4817 0.40968 0.65825 0.0
C291 C 0.34961 0.40882 0.6469 0.0
C292 C 0.69017 0.6433 0.53534 0.0
C293 C 0.65369 0.66498 0.56322 0.0
H294 H 0.7019 0.59875 0.46604 0.0
C295 C 0.6004 0.66463 0.53436 0.0
H296 H 0.73145 0.64264 0.55676 0.0
C297 C 0.58359 0.63931 0.48314 0.0
C298 C 0.61959 0.61386 0.45907 0.0
H299 H 0.57138 0.68163 0.55399 0.0
H300 H 0.54205 0.63765 0.46436 0.0
C301 C 0.67325 0.61802 0.48357 0.0
C302 C 0.89392 0.08094 0.03837 0.0
C303 C 0.88993 0.13593 0.0255 0.0
H304 H 0.92216 0.0159 0.01074 0.0
C305 C 0.91094 0.16767 0.97087 0.0
H306 H 0.87729 0.05514 0.079 0.0
C307 C 0.93612 0.14495 0.93111 0.0
C308 C 0.94131 0.09005 0.94551 0.0
H309 H 0.90935 0.21007 0.96 0.0
H310 H 0.95271 0.17036 0.89013 0.0
C311 C 0.91964 0.05833 0.99926 0.0
C312 C 0.40437 0.44155 0.30821 0.0
C313 C 0.40398 0.38634 0.32942 0.0
H314 H 0.43029 0.50998 0.24112 0.0
C315 C 0.43153 0.35766 0.29825 0.0
H316 H 0.38356 0.46477 0.33128 0.0
C317 C 0.45912 0.38369 0.2474 0.0
C318 C 0.45854 0.43883 0.22525 0.0
H319 H 0.43278 0.31512 0.31434 0.0
H320 H 0.48124 0.36064 0.22573 0.0
C321 C 0.43122 0.46746 0.25667 0.0
C322 C 0.16892 0.94157 0.84955 0.0
C323 C 0.16565 0.88692 0.87589 0.0
H324 H 0.14288 0.00941 0.7672 0.0
C325 C 0.1364 0.85782 0.83478 0.0
H326 H 0.19115 0.96491 0.88041 0.0
C327 C 0.10797 0.88341 0.77043 0.0
C328 C 0.10877 0.93846 0.74578 0.0
H329 H 0.1325 0.81583 0.85426 0.0
H330 H 0.08341 0.86023 0.74152 0.0
C331 C 0.14083 0.96708 0.78514 0.0
loop_
_geom_bond_atom_site_label_1
_geom_bond_atom_site_label_2
_geom_bond_distance
_geom_bond_site_symmetry_2
_ccdc_geom_bond_type
H0 C3 0.929 . S
H1 C6 0.929 . S
H2 C8 0.930 . S
C3 H0 0.929 . S
C3 C4 1.398 1_554 S
C3 C5 1.396 . S
C4 C3 1.398 1_556 S
C4 C8 1.407 . S
C5 C3 1.396 . S
C5 C6 1.394 . S
C6 H1 0.929 . S
C6 C5 1.394 . S
C6 C7 1.382 . S
C7 C6 1.382 . S
C7 C8 1.392 1_554 S
C7 N9 1.420 . S
C8 H2 0.930 . S
C8 C4 1.407 . S
C8 C7 1.392 1_556 S
N9 C7 1.420 . S
N9 C10 1.244 . S
C10 N9 1.244 . S
H11 C14 0.929 . S
H12 C17 0.929 . S
H13 C19 0.930 . S
C14 H11 0.929 . S
C14 C15 1.398 . S
C14 C16 1.396 . S
C15 C14 1.398 . S
C15 C19 1.407 . S
C16 C14 1.396 . S
C16 C17 1.394 . S
C17 H12 0.929 . S
C17 C16 1.394 . S
C17 C18 1.382 . S
C18 C17 1.382 . S
C18 C19 1.392 . S
C18 N20 1.420 . S
C19 H13 0.930 . S
C19 C15 1.407 . S
C19 C18 1.392 . S
N20 C18 1.420 . S
N20 C21 1.244 . S
C21 N20 1.244 . S
H22 C25 0.929 . S
H23 C28 0.929 . S
H24 C30 0.930 1_556 S
C25 H22 0.929 . S
C25 C26 1.398 . S
C25 C27 1.396 . S
C26 C25 1.398 . S
C26 C30 1.407 . S
C27 C25 1.396 . S
C27 C28 1.394 . S
C28 H23 0.929 . S
C28 C27 1.394 . S
C28 C29 1.382 . S
C29 C28 1.382 . S
C29 C30 1.392 . S
C29 N31 1.420 . S
C30 H24 0.930 1_554 S
C30 C26 1.407 . S
C30 C29 1.392 . S
N31 C29 1.420 . S
N31 C32 1.244 . S
C32 N31 1.244 . S
H33 C36 0.929 . S
H34 C39 0.929 . S
H35 C41 0.930 . S
C36 H33 0.929 . S
C36 C37 1.398 . S
C36 C38 1.396 . S
C37 C36 1.398 . S
C37 C41 1.407 . S
C38 C36 1.396 . S
C38 C39 1.394 . S
C39 H34 0.929 . S
C39 C38 1.394 . S
C39 C40 1.382 . S
C40 C39 1.382 . S
C40 C41 1.392 . S
C40 N42 1.420 . S
C41 H35 0.930 . S
C41 C37 1.407 . S
C41 C40 1.392 . S
N42 C40 1.420 . S
N42 C43 1.244 . S
C43 N42 1.244 . S
Tb44 N73 2.617 . S
Tb44 N79 2.572 . S
Tb44 O88 2.465 . S
Tb44 O89 2.387 . S
Tb44 O91 2.428 . S
Tb44 O92 2.308 1_565 S
Tb44 O96 2.349 1_465 S
Tb44 O99 2.393 1_455 S
Tb44 C108 2.802 . S
C45 N46 1.379 . S
C45 C48 1.416 . S
C45 C52 1.424 . S
N46 C45 1.379 . S
N46 C49 1.334 1_655 S
N46 Tb55 2.617 . S
C47 C49 1.390 . S
C47 C50 1.339 1_455 S
C47 H67 0.930 . S
C48 C45 1.416 . S
C48 C50 1.416 . S
C48 C54 1.448 . S
C49 N46 1.334 1_455 S
C49 C47 1.390 . S
C49 H60 0.930 . S
C50 C47 1.339 1_655 S
C50 C48 1.416 . S
C50 H71 0.930 . S
C51 C52 1.413 . S
C51 C53 1.427 . S
C51 C57 1.416 . S
C52 C45 1.424 . S
C52 C51 1.413 . S
C52 N56 1.361 . S
C53 C51 1.427 . S
C53 C54 1.328 . S
C53 H68 0.929 . S
C54 C48 1.448 . S
C54 C53 1.328 . S
C54 H69 0.930 . S
Tb55 N46 2.617 . S
Tb55 N56 2.572 . S
Tb55 O90 2.349 1_655 S
Tb55 O93 2.393 1_655 S
Tb55 O94 2.465 . S
Tb55 O95 2.387 . S
Tb55 O97 2.428 . S
Tb55 O98 2.308 1_545 S
Tb55 C119 2.802 . S
N56 C52 1.361 . S
N56 Tb55 2.572 . S
N56 C58 1.340 . S
C57 C51 1.416 . S
C57 C59 1.332 . S
C57 H65 0.931 . S
C58 N56 1.340 . S
C58 C59 1.407 . S
C58 H64 0.930 . S
C59 C57 1.332 . S
C59 C58 1.407 . S
C59 H61 0.929 . S
H60 C49 0.930 . S
H61 C59 0.929 . S
H62 C77 0.930 1_655 S
H63 C84 0.929 . S
H64 C58 0.930 . S
H65 C57 0.931 . S
H66 C80 0.930 . S
H67 C47 0.930 . S
H68 C53 0.929 . S
H69 C54 0.930 . S
H70 C75 0.930 1_655 S
H71 C50 0.930 . S
H72 C83 0.931 . S
N73 Tb44 2.617 . S
N73 C74 1.379 . S
N73 C77 1.334 . S
C74 N73 1.379 . S
C74 C76 1.416 . S
C74 C82 1.424 . S
C75 H70 0.930 1_455 S
C75 C77 1.390 . S
C75 C78 1.339 . S
C76 C74 1.416 . S
C76 C78 1.416 . S
C76 C109 1.448 . S
C77 H62 0.930 1_455 S
C77 N73 1.334 . S
C77 C75 1.390 . S
C78 C75 1.339 . S
C78 C76 1.416 . S
C78 H85 0.930 . S
N79 Tb44 2.572 . S
N79 C80 1.340 . S
N79 C82 1.361 . S
C80 H66 0.930 . S
C80 N79 1.340 . S
C80 C84 1.407 . S
C81 C82 1.413 . S
C81 C83 1.416 . S
C81 C110 1.427 . S
C82 C74 1.424 . S
C82 N79 1.361 . S
C82 C81 1.413 . S
C83 H72 0.931 . S
C83 C81 1.416 . S
C83 C84 1.332 . S
C84 H63 0.929 . S
C84 C80 1.407 . S
C84 C83 1.332 . S
H85 C78 0.930 . S
H86 C109 0.930 . S
H87 C110 0.929 . S
O88 Tb44 2.465 . S
O88 C108 1.264 . S
O89 Tb44 2.387 . S
O89 C100 1.264 . S
O90 Tb55 2.349 1_455 S
O90 C100 1.243 1_545 S
O91 Tb44 2.428 . S
O91 C108 1.256 . S
O92 Tb44 2.308 1_545 S
O92 C107 1.266 . S
O93 Tb55 2.393 1_455 S
O93 C107 1.248 . S
O94 Tb55 2.465 . S
O94 C119 1.264 . S
O95 Tb55 2.387 . S
O95 C111 1.264 . S
O96 Tb44 2.349 1_645 S
O96 C111 1.243 . S
O97 Tb55 2.428 . S
O97 C119 1.256 . S
O98 Tb55 2.308 1_565 S
O98 C118 1.266 . S
O99 Tb44 2.393 1_655 S
O99 C118 1.248 . S
C100 O89 1.264 . S
C100 O90 1.243 1_565 S
C101 C104 1.399 . S
C101 C106 1.383 . S
C101 C108 1.496 . S
C102 C103 1.399 . S
C102 C106 1.389 . S
C103 C102 1.399 . S
C103 C105 1.380 . S
C103 H120 0.929 . S
C104 C101 1.399 . S
C104 C105 1.392 . S
C104 H121 0.929 . S
C105 C103 1.380 . S
C105 C104 1.392 . S
C105 H122 0.929 . S
C106 C101 1.383 . S
C106 C102 1.389 . S
C106 H123 0.931 . S
C107 O92 1.266 . S
C107 O93 1.248 . S
C108 Tb44 2.802 . S
C108 O88 1.264 . S
C108 O91 1.256 . S
C108 C101 1.496 . S
C109 C76 1.448 . S
C109 H86 0.930 . S
C109 C110 1.328 . S
C110 C81 1.427 . S
C110 H87 0.929 . S
C110 C109 1.328 . S
C111 O95 1.264 . S
C111 O96 1.243 . S
C112 C115 1.399 . S
C112 C116 1.383 . S
C112 C119 1.496 . S
C113 C114 1.399 . S
C113 C116 1.389 . S
C114 C113 1.399 . S
C114 C117 1.380 . S
C114 H124 0.929 . S
C115 C112 1.399 . S
C115 C117 1.392 . S
C115 H125 0.929 . S
C116 C112 1.383 . S
C116 C113 1.389 . S
C116 H126 0.931 . S
C117 C114 1.380 . S
C117 C115 1.392 . S
C117 H127 0.929 . S
C118 O98 1.266 . S
C118 O99 1.248 . S
C119 Tb55 2.802 . S
C119 O94 1.264 . S
C119 O97 1.256 . S
C119 C112 1.496 . S
H120 C103 0.929 . S
H121 C104 0.929 . S
H122 C105 0.929 . S
H123 C106 0.931 . S
H124 C114 0.929 . S
H125 C115 0.929 . S
H126 C116 0.931 . S
H127 C117 0.929 . S
Tb128 N157 2.617 . S
Tb128 N163 2.572 . S
Tb128 O172 2.465 1_554 S
Tb128 O173 2.387 . S
Tb128 O175 2.428 1_554 S
Tb128 O176 2.308 . S
Tb128 O180 2.349 1_554 S
Tb128 O183 2.393 . S
Tb128 C192 2.802 1_554 S
C129 N130 1.379 . S
C129 C132 1.416 . S
C129 C136 1.424 . S
N130 C129 1.379 . S
N130 C133 1.334 . S
N130 Tb139 2.617 . S
C131 C133 1.390 . S
C131 C134 1.339 . S
C131 H151 0.930 . S
C132 C129 1.416 . S
C132 C134 1.416 . S
C132 C138 1.448 . S
C133 N130 1.334 . S
C133 C131 1.390 . S
C133 H144 0.930 . S
C134 C131 1.339 . S
C134 C132 1.416 . S
C134 H155 0.930 . S
C135 C136 1.413 . S
C135 C137 1.427 . S
C135 C141 1.416 . S
C136 C129 1.424 . S
C136 C135 1.413 . S
C136 N140 1.361 . S
C137 C135 1.427 . S
C137 C138 1.328 . S
C137 H152 0.929 . S
C138 C132 1.448 . S
C138 C137 1.328 . S
C138 H153 0.930 . S
Tb139 N130 2.617 . S
Tb139 N140 2.572 . S
Tb139 O174 2.349 . S
Tb139 O177 2.393 . S
Tb139 O178 2.465 . S
Tb139 O179 2.387 . S
Tb139 O181 2.428 . S
Tb139 O182 2.308 . S
Tb139 C203 2.802 . S
N140 C136 1.361 . S
N140 Tb139 2.572 . S
N140 C142 1.340 . S
C141 C135 1.416 . S
C141 C143 1.332 . S
C141 H149 0.931 . S
C142 N140 1.340 . S
C142 C143 1.407 . S
C142 H148 0.930 . S
C143 C141 1.332 . S
C143 C142 1.407 . S
C143 H145 0.929 . S
H144 C133 0.930 . S
H145 C143 0.929 . S
H146 C161 0.930 . S
H147 C168 0.929 . S
H148 C142 0.930 . S
H149 C141 0.931 . S
H150 C164 0.930 . S
H151 C131 0.930 . S
H152 C137 0.929 . S
H153 C138 0.930 . S
H154 C159 0.930 . S
H155 C134 0.930 . S
H156 C167 0.931 . S
N157 Tb128 2.617 . S
N157 C158 1.379 . S
N157 C161 1.334 1_554 S
C158 N157 1.379 . S
C158 C160 1.416 . S
C158 C166 1.424 . S
C159 H154 0.930 . S
C159 C161 1.390 . S
C159 C162 1.339 1_556 S
C160 C158 1.416 . S
C160 C162 1.416 . S
C160 C193 1.448 . S
C161 H146 0.930 . S
C161 N157 1.334 1_556 S
C161 C159 1.390 . S
C162 C159 1.339 1_554 S
C162 C160 1.416 . S
C162 H169 0.930 . S
N163 Tb128 2.572 . S
N163 C164 1.340 . S
N163 C166 1.361 . S
C164 H150 0.930 . S
C164 N163 1.340 . S
C164 C168 1.407 . S
C165 C166 1.413 . S
C165 C167 1.416 . S
C165 C194 1.427 . S
C166 C158 1.424 . S
C166 N163 1.361 . S
C166 C165 1.413 . S
C167 H156 0.931 . S
C167 C165 1.416 . S
C167 C168 1.332 . S
C168 H147 0.929 . S
C168 C164 1.407 . S
C168 C167 1.332 . S
H169 C162 0.930 . S
H170 C193 0.930 . S
H171 C194 0.929 . S
O172 Tb128 2.465 1_556 S
O172 C192 1.264 . S
O173 Tb128 2.387 . S
O173 C184 1.264 . S
O174 Tb139 2.349 . S
O174 C184 1.243 . S
O175 Tb128 2.428 1_556 S
O175 C192 1.256 . S
O176 Tb128 2.308 . S
O176 C191 1.266 . S
O177 Tb139 2.393 . S
O177 C191 1.248 . S
O178 Tb139 2.465 . S
O178 C203 1.264 . S
O179 Tb139 2.387 . S
O179 C195 1.264 1_554 S
O180 Tb128 2.349 1_556 S
O180 C195 1.243 . S
O181 Tb139 2.428 . S
O181 C203 1.256 . S
O182 Tb139 2.308 . S
O182 C202 1.266 . S
O183 Tb128 2.393 . S
O183 C202 1.248 . S
C184 O173 1.264 . S
C184 O174 1.243 . S
C185 C188 1.399 . S
C185 C190 1.383 . S
C185 C192 1.496 . S
C186 C187 1.399 . S
C186 C190 1.389 . S
C187 C186 1.399 . S
C187 C189 1.380 . S
C187 H204 0.929 . S
C188 C185 1.399 . S
C188 C189 1.392 . S
C188 H205 0.929 . S
C189 C187 1.380 . S
C189 C188 1.392 . S
C189 H206 0.929 . S
C190 C185 1.383 . S
C190 C186 1.389 . S
C190 H207 0.931 . S
C191 O176 1.266 . S
C191 O177 1.248 . S
C192 Tb128 2.802 1_556 S
C192 O172 1.264 . S
C192 O175 1.256 . S
C192 C185 1.496 . S
C193 C160 1.448 . S
C193 H170 0.930 . S
C193 C194 1.328 . S
C194 C165 1.427 . S
C194 H171 0.929 . S
C194 C193 1.328 . S
C195 O179 1.264 1_556 S
C195 O180 1.243 . S
C196 C199 1.399 . S
C196 C200 1.383 . S
C196 C203 1.496 . S
C197 C198 1.399 . S
C197 C200 1.389 . S
C198 C197 1.399 . S
C198 C201 1.380 . S
C198 H208 0.929 . S
C199 C196 1.399 . S
C199 C201 1.392 . S
C199 H209 0.929 . S
C200 C196 1.383 . S
C200 C197 1.389 . S
C200 H210 0.931 . S
C201 C198 1.380 . S
C201 C199 1.392 . S
C201 H211 0.929 . S
C202 O182 1.266 . S
C202 O183 1.248 . S
C203 Tb139 2.802 . S
C203 O178 1.264 . S
C203 O181 1.256 . S
C203 C196 1.496 . S
H204 C187 0.929 . S
H205 C188 0.929 . S
H206 C189 0.929 . S
H207 C190 0.931 . S
H208 C198 0.929 . S
H209 C199 0.929 . S
H210 C200 0.931 . S
H211 C201 0.929 . S
C212 C213 1.387 . S
C212 H216 0.950 . S
C212 C221 1.390 . S
C213 C212 1.387 . S
C213 C215 1.387 . S
H214 C221 0.950 . S
C215 C213 1.387 . S
C215 C217 1.390 . S
C215 H219 0.950 . S
H216 C212 0.950 . S
C217 C215 1.390 . S
C217 C218 1.387 . S
C217 H220 0.950 . S
C218 C217 1.387 . S
C218 C221 1.387 . S
H219 C215 0.950 . S
H220 C217 0.950 . S
C221 C212 1.390 . S
C221 H214 0.950 . S
C221 C218 1.387 . S
C222 C223 1.387 . S
C222 H226 0.950 1_554 S
C222 C231 1.390 . S
C223 C222 1.387 . S
C223 C225 1.387 . S
H224 C231 0.950 1_556 S
C225 C223 1.387 . S
C225 C227 1.390 . S
C225 H229 0.950 . S
H226 C222 0.950 1_556 S
C227 C225 1.390 . S
C227 C228 1.387 . S
C227 H230 0.950 . S
C228 C227 1.387 . S
C228 C231 1.387 . S
H229 C225 0.950 . S
H230 C227 0.950 . S
C231 C222 1.390 . S
C231 H224 0.950 1_554 S
C231 C228 1.387 . S
C232 C233 1.387 . S
C232 H236 0.950 . S
C232 C241 1.390 . S
C233 C232 1.387 . S
C233 C235 1.387 . S
H234 C241 0.950 . S
C235 C233 1.387 . S
C235 C237 1.390 . S
C235 H239 0.950 . S
H236 C232 0.950 . S
C237 C235 1.390 . S
C237 C238 1.387 . S
C237 H240 0.950 . S
C238 C237 1.387 . S
C238 C241 1.387 . S
H239 C235 0.950 . S
H240 C237 0.950 . S
C241 C232 1.390 . S
C241 H234 0.950 . S
C241 C238 1.387 . S
C242 C243 1.387 . S
C242 H246 0.950 1_554 S
C242 C251 1.390 . S
C243 C242 1.387 . S
C243 C245 1.387 . S
H244 C251 0.950 1_556 S
C245 C243 1.387 . S
C245 C247 1.390 . S
C245 H249 0.950 . S
H246 C242 0.950 1_556 S
C247 C245 1.390 . S
C247 C248 1.387 . S
C247 H250 0.950 . S
C248 C247 1.387 . S
C248 C251 1.387 . S
H249 C245 0.950 . S
H250 C247 0.950 . S
C251 C242 1.390 . S
C251 H244 0.950 1_554 S
C251 C248 1.387 . S
C252 C253 1.387 . S
C252 H256 0.950 . S
C252 C261 1.390 . S
C253 C252 1.387 . S
C253 C255 1.387 . S
H254 C261 0.950 . S
C255 C253 1.387 . S
C255 C257 1.390 . S
C255 H259 0.950 . S
H256 C252 0.950 . S
C257 C255 1.390 . S
C257 C258 1.387 . S
C257 H260 0.950 1_565 S
C258 C257 1.387 . S
C258 C261 1.387 . S
H259 C255 0.950 . S
H260 C257 0.950 1_545 S
C261 C252 1.390 . S
C261 H254 0.950 . S
C261 C258 1.387 . S
C262 C263 1.387 . S
C262 H266 0.950 . S
C262 C271 1.390 . S
C263 C262 1.387 . S
C263 C265 1.387 . S
H264 C271 0.950 . S
C265 C263 1.387 . S
C265 C267 1.390 . S
C265 H269 0.950 . S
H266 C262 0.950 . S
C267 C265 1.390 . S
C267 C268 1.387 . S
C267 H270 0.950 . S
C268 C267 1.387 . S
C268 C271 1.387 . S
H269 C265 0.950 . S
H270 C267 0.950 . S
C271 C262 1.390 . S
C271 H264 0.950 . S
C271 C268 1.387 . S
C272 C273 1.387 . S
C272 H276 0.950 . S
C272 C281 1.390 . S
C273 C272 1.387 . S
C273 C275 1.387 . S
H274 C281 0.928 1_565 S
C275 C273 1.387 . S
C275 C277 1.390 . S
C275 H279 0.950 . S
H276 C272 0.950 . S
C277 C275 1.390 . S
C277 C278 1.387 . S
C277 H280 0.950 . S
C278 C277 1.387 . S
C278 C281 1.387 . S
H279 C275 0.950 . S
H280 C277 0.950 . S
C281 C272 1.390 . S
C281 H274 0.928 1_545 S
C281 C278 1.387 . S
C282 C283 1.387 . S
C282 H286 0.950 . S
C282 C291 1.390 . S
C283 C282 1.387 . S
C283 C285 1.387 . S
H284 C291 0.950 . S
C285 C283 1.387 . S
C285 C287 1.390 . S
C285 H289 0.950 . S
H286 C282 0.950 . S
C287 C285 1.390 . S
C287 C288 1.387 . S
C287 H290 0.950 . S
C288 C287 1.387 . S
C288 C291 1.387 . S
H289 C285 0.950 . S
H290 C287 0.950 . S
C291 C282 1.390 . S
C291 H284 0.950 . S
C291 C288 1.387 . S
C292 C293 1.387 . S
C292 H296 0.950 . S
C292 C301 1.390 . S
C293 C292 1.387 . S
C293 C295 1.387 . S
H294 C301 0.950 . S
C295 C293 1.387 . S
C295 C297 1.390 . S
C295 H299 0.950 . S
H296 C292 0.950 . S
C297 C295 1.390 . S
C297 C298 1.387 . S
C297 H300 0.950 . S
C298 C297 1.387 . S
C298 C301 1.387 . S
H299 C295 0.950 . S
H300 C297 0.950 . S
C301 C292 1.390 . S
C301 H294 0.950 . S
C301 C298 1.387 . S
C302 C303 1.387 1_554 S
C302 H306 0.950 . S
C302 C311 1.390 1_554 S
C303 C302 1.387 1_556 S
C303 C305 1.387 . S
H304 C311 0.950 . S
C305 C303 1.387 . S
C305 C307 1.390 . S
C305 H309 0.950 . S
H306 C302 0.950 . S
C307 C305 1.390 . S
C307 C308 1.387 . S
C307 H310 0.950 . S
C308 C307 1.387 . S
C308 C311 1.387 . S
H309 C305 0.950 . S
H310 C307 0.950 . S
C311 C302 1.390 1_556 S
C311 H304 0.950 . S
C311 C308 1.387 . S
C312 C313 1.387 . S
C312 H316 0.950 . S
C312 C321 1.390 . S
C313 C312 1.387 . S
C313 C315 1.387 . S
H314 C321 0.950 . S
C315 C313 1.387 . S
C315 C317 1.390 . S
C315 H319 0.950 . S
H316 C312 0.950 . S
C317 C315 1.390 . S
C317 C318 1.387 . S
C317 H320 0.950 . S
C318 C317 1.387 . S
C318 C321 1.387 . S
H319 C315 0.950 . S
H320 C317 0.950 . S
C321 C312 1.390 . S
C321 H314 0.950 . S
C321 C318 1.387 . S
C322 C323 1.387 . S
C322 H326 0.950 . S
C322 C331 1.390 . S
C323 C322 1.387 . S
C323 C325 1.387 . S
H324 C331 0.950 1_545 S
C325 C323 1.387 . S
C325 C327 1.390 . S
C325 H329 0.950 . S
H326 C322 0.950 . S
C327 C325 1.390 . S
C327 C328 1.387 . S
C327 H330 0.950 . S
C328 C327 1.387 . S
C328 C331 1.387 . S
H329 C325 0.950 . S
H330 C327 0.950 . S
C331 C322 1.390 . S
C331 H324 0.950 1_565 S
C331 C328 1.387 . S
C218 C107 1.627 . S
C213 C43 1.638 . S
C223 C10 1.638 . S
C228 C202 1.634 . S
C233 C21 1.635 . S
C238 C118 1.649 . S
C243 C32 1.602 . S
C248 C191 1.605 . S
C258 C102 1.411 . S
C253 C5 1.585 . S
C268 C195 1.688 . S
C263 C15 1.682 . S
C273 C27 1.625 . S
C278 C111 1.651 . S
C283 C38 1.587 . S
C288 C186 1.426 . S
C298 C197 1.390 . S
C293 C16 1.554 . S
C308 C113 1.358 . S
C303 C26 1.542 1_556 S
C318 C184 1.618 . S
C313 C37 1.605 . S
C323 C4 1.568 . S
C328 C100 1.592 . S
