# Generated by pormake.
# Topology anh, (6,3)-cn, num edge types: 1
# Building blocks:
#     Node 0, Type 0, BuildingBlock: VOLQOD_clean_sbu_1, # of connection points: 6
#     Node 1, Type 0, BuildingBlock: VOLQOD_clean_sbu_1, # of connection points: 6
#     Node 2, Type 0, BuildingBlock: VOLQOD_clean_sbu_1, # of connection points: 6
#     Node 3, Type 1, BuildingBlock: KAKCAD_clean_linker_0, # of connection points: 3
#     Node 4, Type 1, BuildingBlock: KAKCAD_clean_linker_0, # of connection points: 3
#     Node 5, Type 1, BuildingBlock: KAKCAD_clean_linker_0, # of connection points: 3
#     Node 6, Type 1, BuildingBlock: KAKCAD_clean_linker_0, # of connection points: 3
#     Node 7, Type 1, BuildingBlock: KAKCAD_clean_linker_0, # of connection points: 3
#     Node 8, Type 1, BuildingBlock: KAKCAD_clean_linker_0, # of connection points: 3
#     Edge 9, Type (0, 1), BuildingBlock: AJUNOK_clean_linker_0, # of connection points: 2
#     Edge 10, Type (0, 1), BuildingBlock: AJUNOK_clean_linker_0, # of connection points: 2
#     Edge 11, Type (0, 1), BuildingBlock: AJUNOK_clean_linker_0, # of connection points: 2
#     Edge 12, Type (0, 1), BuildingBlock: AJUNOK_clean_linker_0, # of connection points: 2
#     Edge 13, Type (0, 1), BuildingBlock: AJUNOK_clean_linker_0, # of connection points: 2
#     Edge 14, Type (0, 1), BuildingBlock: AJUNOK_clean_linker_0, # of connection points: 2
#     Edge 15, Type (0, 1), BuildingBlock: AJUNOK_clean_linker_0, # of connection points: 2
#     Edge 16, Type (0, 1), BuildingBlock: AJUNOK_clean_linker_0, # of connection points: 2
#     Edge 17, Type (0, 1), BuildingBlock: AJUNOK_clean_linker_0, # of connection points: 2
#     Edge 18, Type (0, 1), BuildingBlock: AJUNOK_clean_linker_0, # of connection points: 2
#     Edge 19, Type (0, 1), BuildingBlock: AJUNOK_clean_linker_0, # of connection points: 2
#     Edge 20, Type (0, 1), BuildingBlock: AJUNOK_clean_linker_0, # of connection points: 2
#     Edge 21, Type (0, 1), BuildingBlock: AJUNOK_clean_linker_0, # of connection points: 2
#     Edge 22, Type (0, 1), BuildingBlock: AJUNOK_clean_linker_0, # of connection points: 2
#     Edge 23, Type (0, 1), BuildingBlock: AJUNOK_clean_linker_0, # of connection points: 2
#     Edge 24, Type (0, 1), BuildingBlock: AJUNOK_clean_linker_0, # of connection points: 2
#     Edge 25, Type (0, 1), BuildingBlock: AJUNOK_clean_linker_0, # of connection points: 2
#     Edge 26, Type (0, 1), BuildingBlock: AJUNOK_clean_linker_0, # of connection points: 2
# Relax obj value: 0.167
# Max RMSD: 0.230
# Mean RMSD: 0.114
data_MOF--net-anh--node1-VOLQOD_clean_sbu_1--node2-KAKCAD_clean_linker_0--edge1-AJUNOK_clean_linker_0
_symmetry_space_group_name_H-M    P1
_symmetry_Int_Tables_number       1
_symmetry_cell_setting            triclinic
loop_
_symmetry_equiv_pos_as_xyz
'x, y, z'
_cell_length_a     27.806279
_cell_length_b     27.717039
_cell_length_c     59.500325
_cell_angle_alpha  90.259815
_cell_angle_beta   89.632902
_cell_angle_gamma 120.49502
loop_
_atom_site_label
_atom_site_type_symbol
_atom_site_fract_x
_atom_site_fract_y
_atom_site_fract_z
_atom_type_partial_charge
O0 O 0.00611 0.54512 0.21234 0.0
Zn1 Zn 0.00198 0.55961 0.17954 0.0
O2 O 0.00557 0.50247 0.16134 0.0
Zn3 Zn 0.93923 0.4617 0.14307 0.0
Zn4 Zn 0.01339 0.44979 0.18066 0.0
Zn5 Zn 0.06841 0.53899 0.14119 0.0
O6 O 0.95438 0.47513 0.1097 0.0
O7 O 0.0458 0.53418 0.10916 0.0
O8 O 0.93026 0.55965 0.17462 0.0
O9 O 0.88662 0.48702 0.15139 0.0
O10 O 0.89787 0.37963 0.14984 0.0
O11 O 0.94478 0.37349 0.17858 0.0
O12 O 0.07976 0.44255 0.1717 0.0
O13 O 0.06782 0.63624 0.1736 0.0
O14 O 0.11211 0.50102 0.14263 0.0
O15 O 0.1184 0.6196 0.14926 0.0
C16 C 0.01441 0.51049 0.22315 0.0
C17 C -0.00044 0.50617 0.09901 0.0
C18 C 0.90337 0.35116 0.16526 0.0
C19 C 0.88749 0.52546 0.1634 0.0
C20 C 0.11353 0.46505 0.15532 0.0
C21 C 0.11186 0.65313 0.16182 0.0
O22 O 0.01952 0.47263 0.21312 0.0
O23 O 0.46097 0.02022 0.44443 0.0
Zn24 Zn 0.4436 0.01937 0.47732 0.0
O25 O 0.49592 0.00736 0.4951 0.0
Zn26 Zn 0.53942 0.07026 0.51485 0.0
Zn27 Zn 0.54832 -0.001 0.47559 0.0
Zn28 Zn 0.45304 0.94116 0.51342 0.0
O29 O 0.52664 0.04892 0.54741 0.0
O30 O 0.46311 0.95828 0.54656 0.0
O31 O 0.4482 0.09282 0.48524 0.0
O32 O 0.51705 0.12638 0.51018 0.0
O33 O 0.62113 0.11157 0.50756 0.0
O34 O 0.62653 0.06482 0.4784 0.0
O35 O 0.54848 0.92761 0.48229 0.0
O36 O 0.36446 0.95555 0.48096 0.0
O37 O 0.47873 0.88772 0.50704 0.0
O38 O 0.37148 0.90068 0.506 0.0
C39 C 0.49424 0.00993 0.43345 0.0
C40 C 0.4943 0.00309 0.55743 0.0
C41 C 0.64939 0.10598 0.49197 0.0
C42 C 0.48185 0.13135 0.49844 0.0
C43 C 0.5162 0.88687 0.49499 0.0
C44 C 0.34224 0.91097 0.49266 0.0
O45 O 0.52803 -0.00115 0.44329 0.0
O46 O 0.43965 0.4736 0.78046 0.0
Zn47 Zn 0.42263 0.44913 0.81271 0.0
O48 O 0.48555 0.49992 0.8318 0.0
Zn49 Zn 0.46097 0.53403 0.85372 0.0
Zn50 Zn 0.54568 0.55902 0.81385 0.0
Zn51 Zn 0.51299 0.45847 0.84793 0.0
O52 O 0.48261 0.52799 0.885 0.0
O53 O 0.51114 0.46668 0.88154 0.0
O54 O 0.35019 0.44486 0.8224 0.0
O55 O 0.37875 0.49607 0.8536 0.0
O56 O 0.48786 0.6138 0.84601 0.0
O57 O 0.54927 0.63302 0.8186 0.0
O58 O 0.62057 0.56577 0.82001 0.0
O59 O 0.41224 0.37143 0.81349 0.0
O60 O 0.59224 0.48795 0.83979 0.0
O61 O 0.47246 0.37775 0.83928 0.0
C62 C 0.48432 0.50861 0.77029 0.0
C63 C 0.50003 0.49782 0.89361 0.0
C64 C 0.5224 0.64768 0.83165 0.0
C65 C 0.3402 0.4641 0.84019 0.0
C66 C 0.6303 0.53059 0.82959 0.0
C67 C 0.43457 0.34931 0.82499 0.0
O68 O 0.52868 0.54132 0.78106 0.0
C69 C 0.52005 0.06569 0.32462 0.0
C70 C 0.48898 0.01507 0.33623 0.0
C71 C 0.51953 0.0665 0.30118 0.0
C72 C 0.48852 0.01652 0.28892 0.0
C73 C 0.45689 0.96593 0.30072 0.0
C74 C 0.45679 0.96533 0.32419 0.0
C75 C 0.4903 0.01707 0.26394 0.0
C76 C 0.54029 0.05255 0.25249 0.0
C77 C 0.54279 0.05333 0.22888 0.0
C78 C 0.49461 0.01717 0.21666 0.0
C79 C 0.44481 0.98038 0.22788 0.0
C80 C 0.44266 0.98113 0.25143 0.0
C81 C 0.39597 0.9381 0.21523 0.0
C82 C 0.37448 0.9533 0.19702 0.0
C83 C 0.37102 0.88156 0.22134 0.0
C84 C 0.32545 0.84079 0.20946 0.0
C85 C 0.30365 0.85589 0.19144 0.0
C86 C 0.59624 0.09128 0.21726 0.0
C87 C 0.63116 0.14573 0.22552 0.0
C88 C 0.61356 0.07324 0.19832 0.0
C89 C 0.66506 0.10886 0.18805 0.0
C90 C 0.70006 0.16271 0.19672 0.0
C91 C 0.68262 0.18089 0.21544 0.0
C92 C 0.32805 0.91232 0.18528 0.0
H93 H 0.54466 0.1046 0.33371 0.0
H94 H 0.54342 0.10635 0.29268 0.0
H95 H 0.43323 0.92653 0.29188 0.0
H96 H 0.43274 0.92584 0.33293 0.0
H97 H 0.57795 0.07849 0.262 0.0
H98 H 0.40361 0.95352 0.25995 0.0
H99 H 0.49601 0.01675 0.19845 0.0
H100 H 0.39316 -0.00324 0.19208 0.0
H101 H 0.38726 0.86884 0.23517 0.0
H102 H 0.30687 0.79732 0.21442 0.0
H103 H 0.61863 0.16135 0.23976 0.0
H104 H 0.5879 0.0313 0.19171 0.0
H105 H 0.31147 0.92445 0.1714 0.0
H106 H 0.70869 0.2227 0.22214 0.0
H107 H 0.67792 0.09414 0.17362 0.0
C108 C 0.46729 0.53494 0.65988 0.0
C109 C 0.49536 0.51458 0.67271 0.0
C110 C 0.47119 0.53609 0.63647 0.0
C111 C 0.50313 0.51674 0.62549 0.0
C112 C 0.53148 0.49669 0.63837 0.0
C113 C 0.52784 0.49589 0.66179 0.0
C114 C 0.50636 0.51699 0.60065 0.0
C115 C 0.51483 0.56388 0.58845 0.0
C116 C 0.51648 0.56383 0.56487 0.0
C117 C 0.50978 0.51645 0.5535 0.0
C118 C 0.50138 0.46936 0.56546 0.0
C119 C 0.4999 0.46992 0.58904 0.0
C120 C 0.49489 0.41989 0.55327 0.0
C121 C 0.46025 0.39892 0.53429 0.0
C122 C 0.52456 0.39421 0.5603 0.0
C123 C 0.5206 0.3491 0.54834 0.0
C124 C 0.48703 0.32893 0.52911 0.0
C125 C 0.52233 0.61206 0.55205 0.0
C126 C 0.49095 0.63666 0.55838 0.0
C127 C 0.55722 0.63232 0.53299 0.0
C128 C 0.56 0.67603 0.52032 0.0
C129 C 0.5277 0.69971 0.52652 0.0
C130 C 0.49364 0.68004 0.54575 0.0
C131 C 0.45611 0.35345 0.52235 0.0
H132 H 0.44259 0.55027 0.66797 0.0
H133 H 0.4486 0.55139 0.62693 0.0
H134 H 0.55682 0.48205 0.63034 0.0
H135 H 0.54989 0.48007 0.67139 0.0
H136 H 0.52071 0.60071 0.59734 0.0
H137 H 0.49221 0.43309 0.59833 0.0
H138 H 0.51068 0.51605 0.53528 0.0
H139 H 0.43637 0.41763 0.52873 0.0
H140 H 0.55173 0.4097 0.57479 0.0
H141 H 0.54395 0.32996 0.5541 0.0
H142 H 0.46322 0.62149 0.5728 0.0
H143 H 0.58219 0.61427 0.52786 0.0
H144 H 0.42961 0.33807 0.50767 0.0
H145 H 0.46878 0.69815 0.55097 0.0
H146 H 0.58644 0.69058 0.50551 0.0
C147 C 0.04892 0.57245 0.99112 0.0
C148 C 0.00018 0.53175 0.0021 0.0
C149 C 0.05032 0.57771 0.96777 0.0
C150 C 0.00263 0.54341 0.95501 0.0
C151 C 0.95315 0.50448 0.96597 0.0
C152 C 0.95201 0.49849 0.98931 0.0
C153 C 0.00528 0.54611 0.93022 0.0
C154 C 0.04573 0.53955 0.91874 0.0
C155 C 0.04639 0.5378 0.89514 0.0
C156 C 0.00692 0.54433 0.88303 0.0
C157 C 0.96632 0.55114 0.89436 0.0
C158 C 0.96564 0.55182 0.91797 0.0
C159 C 0.9219 0.55308 0.88164 0.0
C160 C 0.93454 0.58811 0.86281 0.0
C161 C 0.86601 0.51837 0.8881 0.0
C162 C 0.82345 0.51809 0.87586 0.0
C163 C 0.83587 0.55254 0.85695 0.0
C164 C 0.08595 0.52516 0.88348 0.0
C165 C 0.14144 0.55034 0.89078 0.0
C166 C 0.0676 0.48472 0.86625 0.0
C167 C 0.10347 0.46792 0.85728 0.0
C168 C 0.15786 0.49107 0.86557 0.0
C169 C 0.17701 0.53346 0.88191 0.0
C170 C 0.89168 0.58823 0.85063 0.0
H171 H 0.08615 0.60006 0.00056 0.0
H172 H 0.08873 0.60848 0.95965 0.0
H173 H 0.91593 0.47735 0.95641 0.0
H174 H 0.91387 0.46677 -0.00272 0.0
H175 H 0.07497 0.53291 0.92828 0.0
H176 H 0.93416 0.55667 0.92684 0.0
H177 H 0.00677 0.54248 0.86483 0.0
H178 H 0.97745 0.61548 0.85761 0.0
H179 H 0.8551 0.49059 0.90239 0.0
H180 H 0.78059 0.49079 0.88117 0.0
H181 H 0.15701 0.58232 0.90371 0.0
H182 H 0.0249 0.46435 0.8604 0.0
H183 H 0.90193 0.61533 0.83615 0.0
H184 H 0.21937 0.55281 0.88813 0.0
H185 H 0.08815 0.43543 0.84457 0.0
C186 C 0.95887 0.47864 0.3316 0.0
C187 C 0.00992 0.51266 0.32062 0.0
C188 C 0.95575 0.47817 0.35505 0.0
C189 C 0.00387 0.51113 0.36795 0.0
C190 C 0.05512 0.54459 0.3568 0.0
C191 C 0.05802 0.54558 0.33336 0.0
C192 C 0.00074 0.51076 0.39293 0.0
C193 C 0.96581 0.4611 0.40462 0.0
C194 C 0.9621 0.46051 0.42821 0.0
C195 C -0.0037 0.51019 0.44024 0.0
C196 C 0.03255 0.56018 0.4288 0.0
C197 C 0.03302 0.56015 0.40517 0.0
C198 C 0.07129 0.61255 0.44111 0.0
C199 C 0.05514 0.62819 0.46107 0.0
C200 C 0.12527 0.64805 0.43249 0.0
C201 C 0.16139 0.69857 0.44301 0.0
C202 C 0.14497 0.71452 0.46262 0.0
C203 C 0.9217 0.40781 0.43992 0.0
C204 C 0.86881 0.37269 0.43048 0.0
C205 C 0.93535 0.39159 0.46018 0.0
C206 C 0.89705 0.34101 0.47057 0.0
C207 C 0.84479 0.3058 0.46075 0.0
C208 C 0.83106 0.32219 0.44068 0.0
C209 C 0.092 0.67874 0.47187 0.0
H210 H 0.92123 0.4531 0.32201 0.0
H211 H 0.91547 0.45257 0.36302 0.0
H212 H 0.09323 0.5696 0.36617 0.0
H213 H 0.09796 0.57155 0.32517 0.0
H214 H 0.94194 0.42241 0.39532 0.0
H215 H 0.05845 0.59905 0.39621 0.0
H216 H -0.00527 0.50991 0.45843 0.0
H217 H 0.01384 0.602 0.46812 0.0
H218 H 0.13993 0.63675 0.41759 0.0
H219 H 0.20264 0.72513 0.43592 0.0
H220 H 0.85627 0.38438 0.41521 0.0
H221 H 0.97588 0.41739 0.46779 0.0
H222 H 0.07895 0.69029 0.48716 0.0
H223 H 0.79058 0.29615 0.43303 0.0
H224 H 0.90845 0.32906 0.48606 0.0
C225 C 0.44887 0.94779 0.66645 0.0
C226 C 0.48892 -0.00373 0.65511 0.0
C227 C 0.44721 0.94611 0.68994 0.0
C228 C 0.48502 0.99312 0.70242 0.0
C229 C 0.52564 0.04112 0.6912 0.0
C230 C 0.52809 0.04241 0.66777 0.0
C231 C 0.4815 0.99303 0.72714 0.0
C232 C 0.48725 0.95385 0.73981 0.0
C233 C 0.4867 0.95579 0.76338 0.0
C234 C 0.47895 -0.00356 0.77424 0.0
C235 C 0.47138 0.03491 0.76167 0.0
C236 C 0.47325 0.03308 0.73809 0.0
C237 C 0.46092 0.07669 0.77292 0.0
C238 C 0.42551 0.062 0.79182 0.0
C239 C 0.48492 0.13128 0.76429 0.0
C240 C 0.47294 0.16986 0.77399 0.0
C241 C 0.43729 0.15502 0.79269 0.0
C242 C 0.49423 0.91511 0.77654 0.0
C243 C 0.46013 0.8576 0.77233 0.0
C244 C 0.53628 0.9334 0.79287 0.0
C245 C 0.54475 0.8946 0.80451 0.0
C246 C 0.51047 0.8372 0.80026 0.0
C247 C 0.46794 0.81892 0.78423 0.0
C248 C 0.41395 0.10097 0.80168 0.0
H249 H 0.41812 0.91158 0.65718 0.0
H250 H 0.41551 0.9087 0.69835 0.0
H251 H 0.55567 0.07754 0.7006 0.0
H252 H 0.56075 0.0796 0.6596 0.0
H253 H 0.49383 0.92294 0.73132 0.0
H254 H 0.46703 0.06204 0.72808 0.0
H255 H 0.47859 -0.00216 0.79245 0.0
H256 H 0.40578 0.02009 0.7987 0.0
H257 H 0.51325 0.14438 0.75007 0.0
H258 H 0.49212 0.21168 0.76701 0.0
H259 H 0.42737 0.84263 0.75987 0.0
H260 H 0.56325 0.97766 0.79623 0.0
H261 H 0.38619 0.0887 0.81608 0.0
H262 H 0.44128 0.77467 0.78072 0.0
H263 H 0.57783 0.90925 0.81681 0.0
C264 C 0.52629 0.46437 0.00292 0.0
C265 C 0.51845 0.50336 0.99086 0.0
C266 C 0.52635 0.46492 0.0264 0.0
C267 C 0.51727 0.50358 0.03816 0.0
C268 C 0.50977 0.54272 0.02622 0.0
C269 C 0.51086 0.54295 0.0028 0.0
C270 C 0.51346 0.50186 0.06286 0.0
C271 C 0.55775 0.50736 0.07584 0.0
C272 C 0.55416 0.50624 0.0994 0.0
C273 C 0.50544 0.49837 0.1099 0.0
C274 C 0.46057 0.49197 0.09702 0.0
C275 C 0.46508 0.49436 0.07349 0.0
C276 C 0.40873 0.48239 0.10801 0.0
C277 C 0.38398 0.44316 0.1255 0.0
C278 C 0.38288 0.51156 0.10056 0.0
C279 C 0.33257 0.50085 0.11 0.0
C280 C 0.30706 0.46074 0.12707 0.0
C281 C 0.60086 0.51199 0.11301 0.0
C282 C 0.6258 0.48047 0.10746 0.0
C283 C 0.62071 0.54866 0.13152 0.0
C284 C 0.66543 0.55411 0.14414 0.0
C285 C 0.69021 0.52247 0.13848 0.0
C286 C 0.66999 0.48561 0.1201 0.0
C287 C 0.33335 0.43237 0.13499 0.0
H288 H 0.53073 0.43239 0.99427 0.0
H289 H 0.53164 0.43402 0.03539 0.0
H290 H 0.50302 0.57308 0.03505 0.0
H291 H 0.50527 0.57387 0.994 0.0
H292 H 0.5954 0.51368 0.06758 0.0
H293 H 0.43036 0.48885 0.06336 0.0
H294 H 0.50235 0.49689 0.12809 0.0
H295 H 0.40298 0.41981 0.13141 0.0
H296 H 0.40157 0.54269 0.08739 0.0
H297 H 0.31341 0.52391 0.1039 0.0
H298 H 0.61086 0.45153 0.09342 0.0
H299 H 0.60216 0.5736 0.136 0.0
H300 H 0.31414 0.40107 0.14806 0.0
H301 H 0.68895 0.46119 0.11533 0.0
H302 H 0.68051 0.58272 0.15828 0.0
C303 C 0.16264 0.43948 0.12757 0.0
C304 C 0.15557 0.44974 0.15011 0.0
C305 C 0.21012 0.43862 0.12061 0.0
C306 C 0.25248 0.44877 0.13593 0.0
H307 H 0.13264 0.43515 0.11499 0.0
H308 H 0.21526 0.4332 0.10287 0.0
S309 S 0.25099 0.47218 0.19724 0.0
N310 N 0.19166 0.46502 0.18814 0.0
N311 N 0.28229 0.46453 0.17495 0.0
C312 C 0.244 0.45484 0.15884 0.0
C313 C 0.19507 0.45513 0.16598 0.0
C314 C 0.73206 0.15396 0.46634 0.0
C315 C 0.70665 0.15302 0.48704 0.0
C316 C 0.77912 0.20284 0.45858 0.0
C317 C 0.8031 0.25238 0.47132 0.0
H318 H 0.71353 0.11786 0.45531 0.0
H319 H 0.79532 0.20263 0.44199 0.0
S320 S 0.75819 0.27064 0.52789 0.0
N321 N 0.71333 0.20489 0.52123 0.0
N322 N 0.80191 0.2966 0.50644 0.0
C323 C 0.78123 0.25103 0.49277 0.0
C324 C 0.733 0.20135 0.50069 0.0
C325 C 0.56686 0.7423 0.81359 0.0
C326 C 0.52499 0.70178 0.82767 0.0
C327 C 0.56402 0.78857 0.80594 0.0
C328 C 0.51905 0.79553 0.81198 0.0
H329 H 0.60076 0.73699 0.8076 0.0
H330 H 0.59545 0.81732 0.79423 0.0
S331 S 0.40183 0.70573 0.8501 0.0
N332 N 0.43966 0.67525 0.84889 0.0
N333 N 0.43444 0.76178 0.83401 0.0
C334 C 0.47881 0.75758 0.827 0.0
C335 C 0.48184 0.71086 0.83504 0.0
C336 C 0.78513 0.47984 0.16449 0.0
C337 C 0.83708 0.52964 0.16349 0.0
C338 C 0.7364 0.47903 0.15844 0.0
C339 C 0.73823 0.52789 0.15096 0.0
H340 H 0.78263 0.44055 0.16857 0.0
H341 H 0.69761 0.43918 0.15803 0.0
S342 S 0.86304 0.67015 0.14814 0.0
N343 N 0.8871 0.63002 0.15704 0.0
N344 N 0.79498 0.62843 0.14517 0.0
C345 C 0.78912 0.57892 0.15185 0.0
C346 C 0.83889 0.5798 0.15825 0.0
C347 C 0.26003 0.81586 0.50062 0.0
C348 C 0.28384 0.86601 0.4881 0.0
C349 C 0.21147 0.76763 0.49337 0.0
C350 C 0.18513 0.76797 0.47341 0.0
H351 H 0.28092 0.81263 0.51534 0.0
H352 H 0.19689 0.7289 0.50252 0.0
S353 S 0.22367 0.8898 0.43663 0.0
N354 N 0.27186 0.91433 0.45638 0.0
N355 N 0.18112 0.82321 0.4428 0.0
C356 C 0.2052 0.81866 0.46187 0.0
C357 C 0.25435 0.86791 0.46925 0.0
C358 C 0.40493 0.27162 0.79727 0.0
C359 C 0.4235 0.29262 0.81906 0.0
C360 C 0.40669 0.22498 0.78925 0.0
C361 C 0.42613 0.19715 0.80282 0.0
H362 H 0.39248 0.29343 0.78577 0.0
H363 H 0.39498 0.212 0.77197 0.0
S364 S 0.4719 0.23021 0.86204 0.0
N365 N 0.45629 0.27812 0.85485 0.0
N366 N 0.45919 0.19017 0.83964 0.0
C367 C 0.44062 0.21483 0.82514 0.0
C368 C 0.43938 0.26267 0.8333 0.0
C369 C 0.47407 0.78488 0.49921 0.0
C370 C 0.52252 0.83768 0.49705 0.0
C371 C 0.47683 0.73903 0.50704 0.0
C372 C 0.52807 0.74461 0.51321 0.0
H373 H 0.43337 0.77974 0.49606 0.0
H374 H 0.43822 0.69973 0.50959 0.0
S375 S 0.66753 0.87249 0.50821 0.0
N376 N 0.62367 0.89196 0.49942 0.0
N377 N 0.62889 0.8054 0.51462 0.0
C378 C 0.57734 0.79597 0.50938 0.0
C379 C 0.57453 0.84276 0.50116 0.0
C380 C 0.73234 0.59225 0.83659 0.0
C381 C 0.68713 0.53971 0.83047 0.0
C382 C 0.78302 0.59752 0.84348 0.0
C383 C 0.78952 0.55043 0.84426 0.0
H384 H 0.7271 0.62833 0.83781 0.0
H385 H 0.81563 0.63755 0.8498 0.0
S386 S 0.68754 0.40654 0.82552 0.0
N387 N 0.65488 0.44191 0.8224 0.0
N388 N 0.75013 0.45204 0.83516 0.0
C389 C 0.74654 0.49914 0.83606 0.0
C390 C 0.69523 0.49372 0.82919 0.0
C391 C 0.21383 0.72229 0.15985 0.0
C392 C 0.15951 0.71057 0.16523 0.0
C393 C 0.26076 0.77174 0.1671 0.0
C394 C 0.25499 0.8116 0.17954 0.0
H395 H 0.22044 0.69155 0.15128 0.0
H396 H 0.30182 0.77756 0.16398 0.0
S397 S 0.12309 0.80559 0.19523 0.0
N398 N 0.10313 0.7462 0.18173 0.0
N399 N 0.19202 0.83959 0.19512 0.0
C400 C 0.20143 0.80283 0.18351 0.0
C401 C 0.15345 0.75215 0.17637 0.0
C402 C 0.4318 0.18333 0.50561 0.0
C403 C 0.48153 0.18383 0.50074 0.0
C404 C 0.43333 0.23194 0.51344 0.0
C405 C 0.4846 0.28192 0.51648 0.0
H406 H 0.39209 0.14448 0.50495 0.0
H407 H 0.39466 0.22945 0.51854 0.0
S408 S 0.62508 0.3067 0.50183 0.0
N409 N 0.58232 0.23966 0.49645 0.0
N410 N 0.58509 0.331 0.51086 0.0
C411 C 0.53394 0.28387 0.50968 0.0
C412 C 0.53241 0.2347 0.50187 0.0
C413 C 0.25565 0.46721 0.82893 0.0
C414 C 0.28414 0.45436 0.84508 0.0
C415 C 0.21148 0.47527 0.83534 0.0
C416 C 0.19495 0.47055 0.858 0.0
H417 H 0.27048 0.47565 0.81171 0.0
H418 H 0.19294 0.4891 0.82284 0.0
S419 S 0.24934 0.42691 0.90563 0.0
N420 N 0.28779 0.42958 0.88388 0.0
N421 N 0.20453 0.44398 0.89582 0.0
C422 C 0.21966 0.45244 0.87377 0.0
C423 C 0.26441 0.44449 0.86732 0.0
C424 C 0.85256 0.27148 0.19185 0.0
C425 C 0.85588 0.29453 0.17044 0.0
C426 C 0.80264 0.22604 0.19969 0.0
C427 C 0.75456 0.20142 0.1863 0.0
H428 H 0.88744 0.29101 0.20333 0.0
H429 H 0.80078 0.21191 0.2168 0.0
S430 S 0.74334 0.23898 0.12771 0.0
N431 N 0.8084 0.28409 0.13489 0.0
N432 N 0.71452 0.19833 0.14983 0.0
C433 C 0.75846 0.22034 0.16418 0.0
C434 C 0.80922 0.26699 0.15619 0.0
C435 C 0.95426 0.51005 0.06343 0.0
C436 C -0.00104 0.51005 0.07431 0.0
C437 C 0.95484 0.51699 0.04007 0.0
C438 C -0.00018 0.5234 0.02677 0.0
H439 H 0.91932 0.50618 0.0731 0.0
H440 H 0.92029 0.51835 0.03244 0.0
S441 S 0.12339 0.51866 0.04703 0.0
N442 N 0.08733 0.51288 0.07002 0.0
N443 N 0.08754 0.52376 0.0261 0.0
C444 C 0.04371 0.52124 0.03743 0.0
C445 C 0.04348 0.51506 0.0612 0.0
C446 C 0.44379 -0.00449 0.39725 0.0
C447 C 0.49382 0.0113 0.40868 0.0
C448 C 0.44234 -0.00376 0.37372 0.0
C449 C 0.4911 0.01398 0.36095 0.0
H450 H 0.40535 0.98182 0.40653 0.0
H451 H 0.40303 0.98347 0.36546 0.0
S452 S 0.63269 0.06059 0.38261 0.0
N453 N 0.5933 0.04541 0.40537 0.0
N454 N 0.59052 0.04778 0.36113 0.0
C455 C 0.54138 0.03029 0.3721 0.0
C456 C 0.54275 0.02864 0.39599 0.0
C457 C 0.5372 0.53745 0.73398 0.0
C458 C 0.48552 0.5104 0.74538 0.0
C459 C 0.53996 0.53849 0.71048 0.0
C460 C 0.49121 0.51314 0.69749 0.0
H461 H 0.576 0.55743 0.74323 0.0
H462 H 0.5806 0.55962 0.7024 0.0
S463 S 0.34557 0.43709 0.71875 0.0
N464 N 0.38427 0.45776 0.74163 0.0
N465 N 0.38988 0.45999 0.69742 0.0
C466 C 0.4393 0.48634 0.70853 0.0
C467 C 0.43636 0.48484 0.73248 0.0
C468 C 0.48423 0.95435 0.59385 0.0
C469 C 0.4926 0.00205 0.58222 0.0
C470 C 0.48325 0.95285 0.6174 0.0
C471 C 0.48974 -0.0013 0.63015 0.0
H472 H 0.47942 0.91828 0.5847 0.0
H473 H 0.47807 0.91575 0.62566 0.0
S474 S 0.5066 0.1311 0.60748 0.0
N475 N 0.50446 0.09497 0.58499 0.0
N476 N 0.50032 0.09143 0.6292 0.0
C477 C 0.49657 0.04606 0.61863 0.0
C478 C 0.49854 0.04791 0.59468 0.0
C479 C 0.46849 0.50533 0.93194 0.0
C480 C 0.50566 0.49807 0.91823 0.0
C481 C 0.47279 0.50642 0.95534 0.0
C482 C 0.51503 0.50125 0.96596 0.0
H483 H 0.43527 0.5095 0.92454 0.0
H484 H 0.4424 0.51094 0.96519 0.0
S485 S 0.62504 0.48486 0.93741 0.0
N486 N 0.58675 0.48676 0.91671 0.0
N487 N 0.59631 0.49095 0.96083 0.0
C488 C 0.55287 0.49445 0.9524 0.0
C489 C 0.54786 0.49239 0.92851 0.0
C490 C -0.002 0.46333 0.26039 0.0
C491 C 0.01577 0.51273 0.24798 0.0
C492 C -0.00392 0.46364 0.28391 0.0
C493 C 0.0129 0.51352 0.29583 0.0
H494 H 0.98429 0.42385 0.25186 0.0
H495 H 0.98154 0.42465 0.29286 0.0
S496 S 0.06453 0.65435 0.27151 0.0
N497 N 0.0514 0.61307 0.24948 0.0
N498 N 0.04857 0.61355 0.29377 0.0
C499 C 0.03168 0.56333 0.28374 0.0
C500 C 0.03286 0.56295 0.25978 0.0
loop_
_geom_bond_atom_site_label_1
_geom_bond_atom_site_label_2
_geom_bond_distance
_geom_bond_site_symmetry_2
_ccdc_geom_bond_type
O0 Zn1 1.952 . S
O0 C16 1.225 1_655 S
Zn1 O0 1.952 . S
Zn1 O2 1.941 1_655 S
Zn1 O8 1.931 . S
Zn1 O13 1.919 1_655 S
O2 Zn1 1.941 1_455 S
O2 Zn3 1.923 1_455 S
O2 Zn4 1.950 . S
O2 Zn5 1.945 . S
Zn3 O2 1.923 1_655 S
Zn3 O6 1.933 . S
Zn3 O9 1.941 . S
Zn3 O10 1.965 . S
Zn4 O2 1.950 . S
Zn4 O11 1.938 1_455 S
Zn4 O12 1.906 . S
Zn4 O22 1.953 . S
Zn5 O2 1.945 . S
Zn5 O7 1.932 . S
Zn5 O14 1.977 . S
Zn5 O15 1.910 . S
O6 Zn3 1.933 . S
O6 C17 1.226 1_655 S
O7 Zn5 1.932 . S
O7 C17 1.307 . S
O8 Zn1 1.931 . S
O8 C19 1.253 . S
O9 Zn3 1.941 . S
O9 C19 1.283 . S
O10 Zn3 1.965 . S
O10 C18 1.303 . S
O11 Zn4 1.938 1_655 S
O11 C18 1.247 . S
O12 Zn4 1.906 . S
O12 C20 1.304 . S
O13 Zn1 1.919 1_455 S
O13 C21 1.311 . S
O14 Zn5 1.977 . S
O14 C20 1.272 . S
O15 Zn5 1.910 . S
O15 C21 1.231 . S
C16 O0 1.225 1_455 S
C16 O22 1.298 . S
C17 O6 1.226 1_455 S
C17 O7 1.307 . S
C18 O10 1.303 . S
C18 O11 1.247 . S
C19 O8 1.253 . S
C19 O9 1.283 . S
C20 O12 1.304 . S
C20 O14 1.272 . S
C21 O13 1.311 . S
C21 O15 1.231 . S
O22 Zn4 1.953 . S
O22 C16 1.298 . S
O23 Zn24 1.953 . S
O23 C39 1.225 . S
Zn24 O23 1.953 . S
Zn24 O25 1.949 . S
Zn24 O31 1.919 . S
Zn24 O36 1.924 1_545 S
O25 Zn24 1.949 . S
O25 Zn26 1.923 . S
O25 Zn27 1.939 1_545 S
O25 Zn28 1.945 1_545 S
Zn26 O25 1.923 . S
Zn26 O29 1.933 . S
Zn26 O32 1.941 . S
Zn26 O33 1.965 . S
Zn27 O25 1.939 1_565 S
Zn27 O34 1.929 1_565 S
Zn27 O35 1.926 . S
Zn27 O45 1.951 . S
Zn28 O25 1.945 1_565 S
Zn28 O30 1.932 . S
Zn28 O37 1.977 . S
Zn28 O38 1.910 . S
O29 Zn26 1.933 . S
O29 C40 1.226 . S
O30 Zn28 1.932 . S
O30 C40 1.307 1_565 S
O31 Zn24 1.919 . S
O31 C42 1.253 . S
O32 Zn26 1.941 . S
O32 C42 1.283 . S
O33 Zn26 1.965 . S
O33 C41 1.303 . S
O34 Zn27 1.929 1_545 S
O34 C41 1.247 . S
O35 Zn27 1.926 . S
O35 C43 1.304 . S
O36 Zn24 1.924 1_565 S
O36 C44 1.311 . S
O37 Zn28 1.977 . S
O37 C43 1.272 . S
O38 Zn28 1.910 . S
O38 C44 1.231 . S
C39 O23 1.225 . S
C39 O45 1.298 1_545 S
C40 O29 1.226 . S
C40 O30 1.307 1_545 S
C41 O33 1.303 . S
C41 O34 1.247 . S
C42 O31 1.253 . S
C42 O32 1.283 . S
C43 O35 1.304 . S
C43 O37 1.272 . S
C44 O36 1.311 . S
C44 O38 1.231 . S
O45 Zn27 1.951 . S
O45 C39 1.298 1_565 S
O46 Zn47 1.953 . S
O46 C62 1.225 . S
Zn47 O46 1.953 . S
Zn47 O48 1.949 . S
Zn47 O54 1.919 . S
Zn47 O59 1.924 . S
O48 Zn47 1.949 . S
O48 Zn49 1.923 . S
O48 Zn50 1.950 . S
O48 Zn51 1.945 . S
Zn49 O48 1.923 . S
Zn49 O52 1.933 . S
Zn49 O55 1.941 . S
Zn49 O56 1.965 . S
Zn50 O48 1.950 . S
Zn50 O57 1.938 . S
Zn50 O58 1.906 . S
Zn50 O68 1.953 . S
Zn51 O48 1.945 . S
Zn51 O53 1.932 . S
Zn51 O60 1.977 . S
Zn51 O61 1.910 . S
O52 Zn49 1.933 . S
O52 C63 1.226 . S
O53 Zn51 1.932 . S
O53 C63 1.307 . S
O54 Zn47 1.919 . S
O54 C65 1.253 . S
O55 Zn49 1.941 . S
O55 C65 1.283 . S
O56 Zn49 1.965 . S
O56 C64 1.303 . S
O57 Zn50 1.938 . S
O57 C64 1.247 . S
O58 Zn50 1.906 . S
O58 C66 1.304 . S
O59 Zn47 1.924 . S
O59 C67 1.311 . S
O60 Zn51 1.977 . S
O60 C66 1.272 . S
O61 Zn51 1.910 . S
O61 C67 1.231 . S
C62 O46 1.225 . S
C62 O68 1.298 . S
C63 O52 1.226 . S
C63 O53 1.307 . S
C64 O56 1.303 . S
C64 O57 1.247 . S
C65 O54 1.253 . S
C65 O55 1.283 . S
C66 O58 1.304 . S
C66 O60 1.272 . S
C67 O59 1.311 . S
C67 O61 1.231 . S
O68 Zn50 1.953 . S
O68 C62 1.298 . S
C69 C70 1.386 . S
C69 C71 1.397 . S
C69 H93 0.931 . S
C70 C69 1.386 . S
C70 C74 1.397 1_545 S
C71 C69 1.397 . S
C71 C72 1.384 . S
C71 H94 0.930 . S
C72 C71 1.384 . S
C72 C73 1.377 1_545 S
C72 C75 1.481 . S
C73 C72 1.377 1_565 S
C73 C74 1.389 . S
C73 H95 0.929 . S
C74 C70 1.397 1_565 S
C74 C73 1.389 . S
C74 H96 0.931 . S
C75 C72 1.481 . S
C75 C76 1.387 . S
C75 C80 1.390 1_545 S
C76 C75 1.387 . S
C76 C77 1.401 . S
C76 H97 0.930 . S
C77 C76 1.401 . S
C77 C78 1.376 . S
C77 C86 1.511 . S
C78 C77 1.376 . S
C78 C79 1.392 1_545 S
C78 H99 0.931 . S
C79 C78 1.392 1_565 S
C79 C80 1.361 . S
C79 C81 1.500 . S
C80 C75 1.390 1_565 S
C80 C79 1.361 . S
C80 H98 0.931 . S
C81 C79 1.500 . S
C81 C82 1.371 . S
C81 C83 1.365 . S
C82 C81 1.371 . S
C82 C92 1.386 . S
C82 H100 0.931 . S
C83 C81 1.365 . S
C83 C84 1.409 . S
C83 H101 0.929 . S
C84 C83 1.409 . S
C84 C85 1.380 . S
C84 H102 0.930 . S
C85 C84 1.380 . S
C85 C92 1.357 . S
C86 C77 1.511 . S
C86 C87 1.341 . S
C86 C88 1.371 . S
C87 C86 1.341 . S
C87 C91 1.394 . S
C87 H103 0.930 . S
C88 C86 1.371 . S
C88 C89 1.392 . S
C88 H104 0.931 . S
C89 C88 1.392 . S
C89 C90 1.331 . S
C89 H107 0.932 . S
C90 C89 1.331 . S
C90 C91 1.336 . S
C91 C87 1.394 . S
C91 C90 1.336 . S
C91 H106 0.929 . S
C92 C82 1.386 . S
C92 C85 1.357 . S
C92 H105 0.928 . S
H93 C69 0.931 . S
H94 C71 0.930 . S
H95 C73 0.929 . S
H96 C74 0.931 . S
H97 C76 0.930 . S
H98 C80 0.931 . S
H99 C78 0.931 . S
H100 C82 0.931 . S
H101 C83 0.929 . S
H102 C84 0.930 . S
H103 C87 0.930 . S
H104 C88 0.931 . S
H105 C92 0.928 . S
H106 C91 0.929 . S
H107 C89 0.932 . S
C108 C109 1.386 . S
C108 C110 1.397 . S
C108 H132 0.931 . S
C109 C108 1.386 . S
C109 C113 1.397 . S
C110 C108 1.397 . S
C110 C111 1.384 . S
C110 H133 0.930 . S
C111 C110 1.384 . S
C111 C112 1.377 . S
C111 C114 1.481 . S
C112 C111 1.377 . S
C112 C113 1.389 . S
C112 H134 0.929 . S
C113 C109 1.397 . S
C113 C112 1.389 . S
C113 H135 0.931 . S
C114 C111 1.481 . S
C114 C115 1.387 . S
C114 C119 1.390 . S
C115 C114 1.387 . S
C115 C116 1.401 . S
C115 H136 0.930 . S
C116 C115 1.401 . S
C116 C117 1.376 . S
C116 C125 1.511 . S
C117 C116 1.376 . S
C117 C118 1.392 . S
C117 H138 0.931 . S
C118 C117 1.392 . S
C118 C119 1.361 . S
C118 C120 1.500 . S
C119 C114 1.390 . S
C119 C118 1.361 . S
C119 H137 0.931 . S
C120 C118 1.500 . S
C120 C121 1.371 . S
C120 C122 1.365 . S
C121 C120 1.371 . S
C121 C131 1.386 . S
C121 H139 0.931 . S
C122 C120 1.365 . S
C122 C123 1.409 . S
C122 H140 0.929 . S
C123 C122 1.409 . S
C123 C124 1.380 . S
C123 H141 0.930 . S
C124 C123 1.380 . S
C124 C131 1.357 . S
C125 C116 1.511 . S
C125 C126 1.341 . S
C125 C127 1.371 . S
C126 C125 1.341 . S
C126 C130 1.394 . S
C126 H142 0.930 . S
C127 C125 1.371 . S
C127 C128 1.392 . S
C127 H143 0.931 . S
C128 C127 1.392 . S
C128 C129 1.331 . S
C128 H146 0.932 . S
C129 C128 1.331 . S
C129 C130 1.336 . S
C130 C126 1.394 . S
C130 C129 1.336 . S
C130 H145 0.929 . S
C131 C121 1.386 . S
C131 C124 1.357 . S
C131 H144 0.928 . S
H132 C108 0.931 . S
H133 C110 0.930 . S
H134 C112 0.929 . S
H135 C113 0.931 . S
H136 C115 0.930 . S
H137 C119 0.931 . S
H138 C117 0.931 . S
H139 C121 0.931 . S
H140 C122 0.929 . S
H141 C123 0.930 . S
H142 C126 0.930 . S
H143 C127 0.931 . S
H144 C131 0.928 . S
H145 C130 0.929 . S
H146 C128 0.932 . S
C147 C148 1.386 1_556 S
C147 C149 1.397 . S
C147 H171 0.931 1_556 S
C148 C147 1.386 1_554 S
C148 C152 1.397 1_454 S
C149 C147 1.397 . S
C149 C150 1.384 . S
C149 H172 0.930 . S
C150 C149 1.384 . S
C150 C151 1.377 1_455 S
C150 C153 1.481 . S
C151 C150 1.377 1_655 S
C151 C152 1.389 . S
C151 H173 0.929 . S
C152 C148 1.397 1_656 S
C152 C151 1.389 . S
C152 H174 0.931 1_556 S
C153 C150 1.481 . S
C153 C154 1.387 . S
C153 C158 1.390 1_455 S
C154 C153 1.387 . S
C154 C155 1.401 . S
C154 H175 0.930 . S
C155 C154 1.401 . S
C155 C156 1.376 . S
C155 C164 1.511 . S
C156 C155 1.376 . S
C156 C157 1.392 1_455 S
C156 H177 0.931 . S
C157 C156 1.392 1_655 S
C157 C158 1.361 . S
C157 C159 1.500 . S
C158 C153 1.390 1_655 S
C158 C157 1.361 . S
C158 H176 0.931 . S
C159 C157 1.500 . S
C159 C160 1.371 . S
C159 C161 1.365 . S
C160 C159 1.371 . S
C160 C170 1.386 . S
C160 H178 0.931 . S
C161 C159 1.365 . S
C161 C162 1.409 . S
C161 H179 0.929 . S
C162 C161 1.409 . S
C162 C163 1.380 . S
C162 H180 0.930 . S
C163 C162 1.380 . S
C163 C170 1.357 . S
C164 C155 1.511 . S
C164 C165 1.341 . S
C164 C166 1.371 . S
C165 C164 1.341 . S
C165 C169 1.394 . S
C165 H181 0.930 . S
C166 C164 1.371 . S
C166 C167 1.392 . S
C166 H182 0.931 . S
C167 C166 1.392 . S
C167 C168 1.331 . S
C167 H185 0.932 . S
C168 C167 1.331 . S
C168 C169 1.336 . S
C169 C165 1.394 . S
C169 C168 1.336 . S
C169 H184 0.929 . S
C170 C160 1.386 . S
C170 C163 1.357 . S
C170 H183 0.928 . S
H171 C147 0.931 1_554 S
H172 C149 0.930 . S
H173 C151 0.929 . S
H174 C152 0.931 1_554 S
H175 C154 0.930 . S
H176 C158 0.931 . S
H177 C156 0.931 . S
H178 C160 0.931 . S
H179 C161 0.929 . S
H180 C162 0.930 . S
H181 C165 0.930 . S
H182 C166 0.931 . S
H183 C170 0.928 . S
H184 C169 0.929 . S
H185 C167 0.932 . S
C186 C187 1.386 1_655 S
C186 C188 1.397 . S
C186 H210 0.931 . S
C187 C186 1.386 1_455 S
C187 C191 1.397 . S
C188 C186 1.397 . S
C188 C189 1.384 1_655 S
C188 H211 0.930 . S
C189 C188 1.384 1_455 S
C189 C190 1.377 . S
C189 C192 1.481 . S
C190 C189 1.377 . S
C190 C191 1.389 . S
C190 H212 0.929 . S
C191 C187 1.397 . S
C191 C190 1.389 . S
C191 H213 0.931 . S
C192 C189 1.481 . S
C192 C193 1.387 1_455 S
C192 C197 1.390 . S
C193 C192 1.387 1_655 S
C193 C194 1.401 . S
C193 H214 0.930 . S
C194 C193 1.401 . S
C194 C195 1.376 1_655 S
C194 C203 1.511 . S
C195 C194 1.376 1_455 S
C195 C196 1.392 . S
C195 H216 0.931 . S
C196 C195 1.392 . S
C196 C197 1.361 . S
C196 C198 1.500 . S
C197 C192 1.390 . S
C197 C196 1.361 . S
C197 H215 0.931 . S
C198 C196 1.500 . S
C198 C199 1.371 . S
C198 C200 1.365 . S
C199 C198 1.371 . S
C199 C209 1.386 . S
C199 H217 0.931 . S
C200 C198 1.365 . S
C200 C201 1.409 . S
C200 H218 0.929 . S
C201 C200 1.409 . S
C201 C202 1.380 . S
C201 H219 0.930 . S
C202 C201 1.380 . S
C202 C209 1.357 . S
C203 C194 1.511 . S
C203 C204 1.341 . S
C203 C205 1.371 . S
C204 C203 1.341 . S
C204 C208 1.394 . S
C204 H220 0.930 . S
C205 C203 1.371 . S
C205 C206 1.392 . S
C205 H221 0.931 . S
C206 C205 1.392 . S
C206 C207 1.331 . S
C206 H224 0.932 . S
C207 C206 1.331 . S
C207 C208 1.336 . S
C208 C204 1.394 . S
C208 C207 1.336 . S
C208 H223 0.929 . S
C209 C199 1.386 . S
C209 C202 1.357 . S
C209 H222 0.928 . S
H210 C186 0.931 . S
H211 C188 0.930 . S
H212 C190 0.929 . S
H213 C191 0.931 . S
H214 C193 0.930 . S
H215 C197 0.931 . S
H216 C195 0.931 . S
H217 C199 0.931 . S
H218 C200 0.929 . S
H219 C201 0.930 . S
H220 C204 0.930 . S
H221 C205 0.931 . S
H222 C209 0.928 . S
H223 C208 0.929 . S
H224 C206 0.932 . S
C225 C226 1.386 1_565 S
C225 C227 1.397 . S
C225 H249 0.931 . S
C226 C225 1.386 1_545 S
C226 C230 1.397 . S
C227 C225 1.397 . S
C227 C228 1.384 1_565 S
C227 H250 0.930 . S
C228 C227 1.384 1_545 S
C228 C229 1.377 . S
C228 C231 1.481 . S
C229 C228 1.377 . S
C229 C230 1.389 . S
C229 H251 0.929 . S
C230 C226 1.397 . S
C230 C229 1.389 . S
C230 H252 0.931 . S
C231 C228 1.481 . S
C231 C232 1.387 1_545 S
C231 C236 1.390 . S
C232 C231 1.387 1_565 S
C232 C233 1.401 . S
C232 H253 0.930 . S
C233 C232 1.401 . S
C233 C234 1.376 1_565 S
C233 C242 1.511 . S
C234 C233 1.376 1_545 S
C234 C235 1.392 . S
C234 H255 0.931 . S
C235 C234 1.392 . S
C235 C236 1.361 . S
C235 C237 1.500 . S
C236 C231 1.390 . S
C236 C235 1.361 . S
C236 H254 0.931 . S
C237 C235 1.500 . S
C237 C238 1.371 . S
C237 C239 1.365 . S
C238 C237 1.371 . S
C238 C248 1.386 . S
C238 H256 0.931 . S
C239 C237 1.365 . S
C239 C240 1.409 . S
C239 H257 0.929 . S
C240 C239 1.409 . S
C240 C241 1.380 . S
C240 H258 0.930 . S
C241 C240 1.380 . S
C241 C248 1.357 . S
C242 C233 1.511 . S
C242 C243 1.341 . S
C242 C244 1.371 . S
C243 C242 1.341 . S
C243 C247 1.394 . S
C243 H259 0.930 . S
C244 C242 1.371 . S
C244 C245 1.392 . S
C244 H260 0.931 . S
C245 C244 1.392 . S
C245 C246 1.331 . S
C245 H263 0.932 . S
C246 C245 1.331 . S
C246 C247 1.336 . S
C247 C243 1.394 . S
C247 C246 1.336 . S
C247 H262 0.929 . S
C248 C238 1.386 . S
C248 C241 1.357 . S
C248 H261 0.928 . S
H249 C225 0.931 . S
H250 C227 0.930 . S
H251 C229 0.929 . S
H252 C230 0.931 . S
H253 C232 0.930 . S
H254 C236 0.931 . S
H255 C234 0.931 . S
H256 C238 0.931 . S
H257 C239 0.929 . S
H258 C240 0.930 . S
H259 C243 0.930 . S
H260 C244 0.931 . S
H261 C248 0.928 . S
H262 C247 0.929 . S
H263 C245 0.932 . S
C264 C265 1.386 1_554 S
C264 C266 1.397 . S
C264 H288 0.931 1_554 S
C265 C264 1.386 1_556 S
C265 C269 1.397 1_556 S
C266 C264 1.397 . S
C266 C267 1.384 . S
C266 H289 0.930 . S
C267 C266 1.384 . S
C267 C268 1.377 . S
C267 C270 1.481 . S
C268 C267 1.377 . S
C268 C269 1.389 . S
C268 H290 0.929 . S
C269 C265 1.397 1_554 S
C269 C268 1.389 . S
C269 H291 0.931 1_554 S
C270 C267 1.481 . S
C270 C271 1.387 . S
C270 C275 1.390 . S
C271 C270 1.387 . S
C271 C272 1.401 . S
C271 H292 0.930 . S
C272 C271 1.401 . S
C272 C273 1.376 . S
C272 C281 1.511 . S
C273 C272 1.376 . S
C273 C274 1.392 . S
C273 H294 0.931 . S
C274 C273 1.392 . S
C274 C275 1.361 . S
C274 C276 1.500 . S
C275 C270 1.390 . S
C275 C274 1.361 . S
C275 H293 0.931 . S
C276 C274 1.500 . S
C276 C277 1.371 . S
C276 C278 1.365 . S
C277 C276 1.371 . S
C277 C287 1.386 . S
C277 H295 0.931 . S
C278 C276 1.365 . S
C278 C279 1.409 . S
C278 H296 0.929 . S
C279 C278 1.409 . S
C279 C280 1.380 . S
C279 H297 0.930 . S
C280 C279 1.380 . S
C280 C287 1.357 . S
C281 C272 1.511 . S
C281 C282 1.341 . S
C281 C283 1.371 . S
C282 C281 1.341 . S
C282 C286 1.394 . S
C282 H298 0.930 . S
C283 C281 1.371 . S
C283 C284 1.392 . S
C283 H299 0.931 . S
C284 C283 1.392 . S
C284 C285 1.331 . S
C284 H302 0.932 . S
C285 C284 1.331 . S
C285 C286 1.336 . S
C286 C282 1.394 . S
C286 C285 1.336 . S
C286 H301 0.929 . S
C287 C277 1.386 . S
C287 C280 1.357 . S
C287 H300 0.928 . S
H288 C264 0.931 1_556 S
H289 C266 0.930 . S
H290 C268 0.929 . S
H291 C269 0.931 1_556 S
H292 C271 0.930 . S
H293 C275 0.931 . S
H294 C273 0.931 . S
H295 C277 0.931 . S
H296 C278 0.929 . S
H297 C279 0.930 . S
H298 C282 0.930 . S
H299 C283 0.931 . S
H300 C287 0.928 . S
H301 C286 0.929 . S
H302 C284 0.932 . S
C303 C304 1.369 . S
C303 C305 1.419 . S
C303 H307 0.930 . S
C304 C303 1.369 . S
C304 C313 1.429 . S
C305 C303 1.419 . S
C305 C306 1.363 . S
C305 H308 0.929 . S
C306 C305 1.363 . S
C306 C312 1.428 . S
H307 C303 0.930 . S
H308 C305 0.929 . S
S309 N310 1.613 . S
S309 N311 1.610 . S
N310 S309 1.613 . S
N310 C313 1.350 . S
N311 S309 1.610 . S
N311 C312 1.351 . S
C312 C306 1.428 . S
C312 N311 1.351 . S
C312 C313 1.434 . S
C313 C304 1.429 . S
C313 N310 1.350 . S
C313 C312 1.434 . S
C314 C315 1.369 . S
C314 C316 1.419 . S
C314 H318 0.930 . S
C315 C314 1.369 . S
C315 C324 1.429 . S
C316 C314 1.419 . S
C316 C317 1.363 . S
C316 H319 0.929 . S
C317 C316 1.363 . S
C317 C323 1.428 . S
H318 C314 0.930 . S
H319 C316 0.929 . S
S320 N321 1.613 . S
S320 N322 1.610 . S
N321 S320 1.613 . S
N321 C324 1.350 . S
N322 S320 1.610 . S
N322 C323 1.351 . S
C323 C317 1.428 . S
C323 N322 1.351 . S
C323 C324 1.434 . S
C324 C315 1.429 . S
C324 N321 1.350 . S
C324 C323 1.434 . S
C325 C326 1.369 . S
C325 C327 1.419 . S
C325 H329 0.930 . S
C326 C325 1.369 . S
C326 C335 1.429 . S
C327 C325 1.419 . S
C327 C328 1.363 . S
C327 H330 0.929 . S
C328 C327 1.363 . S
C328 C334 1.428 . S
H329 C325 0.930 . S
H330 C327 0.929 . S
S331 N332 1.613 . S
S331 N333 1.610 . S
N332 S331 1.613 . S
N332 C335 1.350 . S
N333 S331 1.610 . S
N333 C334 1.351 . S
C334 C328 1.428 . S
C334 N333 1.351 . S
C334 C335 1.434 . S
C335 C326 1.429 . S
C335 N332 1.350 . S
C335 C334 1.434 . S
C336 C337 1.369 . S
C336 C338 1.419 . S
C336 H340 0.930 . S
C337 C336 1.369 . S
C337 C346 1.429 . S
C338 C336 1.419 . S
C338 C339 1.363 . S
C338 H341 0.929 . S
C339 C338 1.363 . S
C339 C345 1.428 . S
H340 C336 0.930 . S
H341 C338 0.929 . S
S342 N343 1.613 . S
S342 N344 1.610 . S
N343 S342 1.613 . S
N343 C346 1.350 . S
N344 S342 1.610 . S
N344 C345 1.351 . S
C345 C339 1.428 . S
C345 N344 1.351 . S
C345 C346 1.434 . S
C346 C337 1.429 . S
C346 N343 1.350 . S
C346 C345 1.434 . S
C347 C348 1.369 . S
C347 C349 1.419 . S
C347 H351 0.930 . S
C348 C347 1.369 . S
C348 C357 1.429 . S
C349 C347 1.419 . S
C349 C350 1.363 . S
C349 H352 0.929 . S
C350 C349 1.363 . S
C350 C356 1.428 . S
H351 C347 0.930 . S
H352 C349 0.929 . S
S353 N354 1.613 . S
S353 N355 1.610 . S
N354 S353 1.613 . S
N354 C357 1.350 . S
N355 S353 1.610 . S
N355 C356 1.351 . S
C356 C350 1.428 . S
C356 N355 1.351 . S
C356 C357 1.434 . S
C357 C348 1.429 . S
C357 N354 1.350 . S
C357 C356 1.434 . S
C358 C359 1.369 . S
C358 C360 1.419 . S
C358 H362 0.930 . S
C359 C358 1.369 . S
C359 C368 1.429 . S
C360 C358 1.419 . S
C360 C361 1.363 . S
C360 H363 0.929 . S
C361 C360 1.363 . S
C361 C367 1.428 . S
H362 C358 0.930 . S
H363 C360 0.929 . S
S364 N365 1.613 . S
S364 N366 1.610 . S
N365 S364 1.613 . S
N365 C368 1.350 . S
N366 S364 1.610 . S
N366 C367 1.351 . S
C367 C361 1.428 . S
C367 N366 1.351 . S
C367 C368 1.434 . S
C368 C359 1.429 . S
C368 N365 1.350 . S
C368 C367 1.434 . S
C369 C370 1.369 . S
C369 C371 1.419 . S
C369 H373 0.930 . S
C370 C369 1.369 . S
C370 C379 1.429 . S
C371 C369 1.419 . S
C371 C372 1.363 . S
C371 H374 0.929 . S
C372 C371 1.363 . S
C372 C378 1.428 . S
H373 C369 0.930 . S
H374 C371 0.929 . S
S375 N376 1.613 . S
S375 N377 1.610 . S
N376 S375 1.613 . S
N376 C379 1.350 . S
N377 S375 1.610 . S
N377 C378 1.351 . S
C378 C372 1.428 . S
C378 N377 1.351 . S
C378 C379 1.434 . S
C379 C370 1.429 . S
C379 N376 1.350 . S
C379 C378 1.434 . S
C380 C381 1.369 . S
C380 C382 1.419 . S
C380 H384 0.930 . S
C381 C380 1.369 . S
C381 C390 1.429 . S
C382 C380 1.419 . S
C382 C383 1.363 . S
C382 H385 0.929 . S
C383 C382 1.363 . S
C383 C389 1.428 . S
H384 C380 0.930 . S
H385 C382 0.929 . S
S386 N387 1.613 . S
S386 N388 1.610 . S
N387 S386 1.613 . S
N387 C390 1.350 . S
N388 S386 1.610 . S
N388 C389 1.351 . S
C389 C383 1.428 . S
C389 N388 1.351 . S
C389 C390 1.434 . S
C390 C381 1.429 . S
C390 N387 1.350 . S
C390 C389 1.434 . S
C391 C392 1.369 . S
C391 C393 1.419 . S
C391 H395 0.930 . S
C392 C391 1.369 . S
C392 C401 1.429 . S
C393 C391 1.419 . S
C393 C394 1.363 . S
C393 H396 0.929 . S
C394 C393 1.363 . S
C394 C400 1.428 . S
H395 C391 0.930 . S
H396 C393 0.929 . S
S397 N398 1.613 . S
S397 N399 1.610 . S
N398 S397 1.613 . S
N398 C401 1.350 . S
N399 S397 1.610 . S
N399 C400 1.351 . S
C400 C394 1.428 . S
C400 N399 1.351 . S
C400 C401 1.434 . S
C401 C392 1.429 . S
C401 N398 1.350 . S
C401 C400 1.434 . S
C402 C403 1.369 . S
C402 C404 1.419 . S
C402 H406 0.930 . S
C403 C402 1.369 . S
C403 C412 1.429 . S
C404 C402 1.419 . S
C404 C405 1.363 . S
C404 H407 0.929 . S
C405 C404 1.363 . S
C405 C411 1.428 . S
H406 C402 0.930 . S
H407 C404 0.929 . S
S408 N409 1.613 . S
S408 N410 1.610 . S
N409 S408 1.613 . S
N409 C412 1.350 . S
N410 S408 1.610 . S
N410 C411 1.351 . S
C411 C405 1.428 . S
C411 N410 1.351 . S
C411 C412 1.434 . S
C412 C403 1.429 . S
C412 N409 1.350 . S
C412 C411 1.434 . S
C413 C414 1.369 . S
C413 C415 1.419 . S
C413 H417 0.930 . S
C414 C413 1.369 . S
C414 C423 1.429 . S
C415 C413 1.419 . S
C415 C416 1.363 . S
C415 H418 0.929 . S
C416 C415 1.363 . S
C416 C422 1.428 . S
H417 C413 0.930 . S
H418 C415 0.929 . S
S419 N420 1.613 . S
S419 N421 1.610 . S
N420 S419 1.613 . S
N420 C423 1.350 . S
N421 S419 1.610 . S
N421 C422 1.351 . S
C422 C416 1.428 . S
C422 N421 1.351 . S
C422 C423 1.434 . S
C423 C414 1.429 . S
C423 N420 1.350 . S
C423 C422 1.434 . S
C424 C425 1.369 . S
C424 C426 1.419 . S
C424 H428 0.930 . S
C425 C424 1.369 . S
C425 C434 1.429 . S
C426 C424 1.419 . S
C426 C427 1.363 . S
C426 H429 0.929 . S
C427 C426 1.363 . S
C427 C433 1.428 . S
H428 C424 0.930 . S
H429 C426 0.929 . S
S430 N431 1.613 . S
S430 N432 1.610 . S
N431 S430 1.613 . S
N431 C434 1.350 . S
N432 S430 1.610 . S
N432 C433 1.351 . S
C433 C427 1.428 . S
C433 N432 1.351 . S
C433 C434 1.434 . S
C434 C425 1.429 . S
C434 N431 1.350 . S
C434 C433 1.434 . S
C435 C436 1.369 1_655 S
C435 C437 1.419 . S
C435 H439 0.930 . S
C436 C435 1.369 1_455 S
C436 C445 1.429 . S
C437 C435 1.419 . S
C437 C438 1.363 1_655 S
C437 H440 0.929 . S
C438 C437 1.363 1_455 S
C438 C444 1.428 . S
H439 C435 0.930 . S
H440 C437 0.929 . S
S441 N442 1.613 . S
S441 N443 1.610 . S
N442 S441 1.613 . S
N442 C445 1.350 . S
N443 S441 1.610 . S
N443 C444 1.351 . S
C444 C438 1.428 . S
C444 N443 1.351 . S
C444 C445 1.434 . S
C445 C436 1.429 . S
C445 N442 1.350 . S
C445 C444 1.434 . S
C446 C447 1.369 1_565 S
C446 C448 1.419 . S
C446 H450 0.930 . S
C447 C446 1.369 1_545 S
C447 C456 1.429 . S
C448 C446 1.419 . S
C448 C449 1.363 1_565 S
C448 H451 0.929 . S
C449 C448 1.363 1_545 S
C449 C455 1.428 . S
H450 C446 0.930 . S
H451 C448 0.929 . S
S452 N453 1.613 . S
S452 N454 1.610 . S
N453 S452 1.613 . S
N453 C456 1.350 . S
N454 S452 1.610 . S
N454 C455 1.351 . S
C455 C449 1.428 . S
C455 N454 1.351 . S
C455 C456 1.434 . S
C456 C447 1.429 . S
C456 N453 1.350 . S
C456 C455 1.434 . S
C457 C458 1.369 . S
C457 C459 1.419 . S
C457 H461 0.930 . S
C458 C457 1.369 . S
C458 C467 1.429 . S
C459 C457 1.419 . S
C459 C460 1.363 . S
C459 H462 0.929 . S
C460 C459 1.363 . S
C460 C466 1.428 . S
H461 C457 0.930 . S
H462 C459 0.929 . S
S463 N464 1.613 . S
S463 N465 1.610 . S
N464 S463 1.613 . S
N464 C467 1.350 . S
N465 S463 1.610 . S
N465 C466 1.351 . S
C466 C460 1.428 . S
C466 N465 1.351 . S
C466 C467 1.434 . S
C467 C458 1.429 . S
C467 N464 1.350 . S
C467 C466 1.434 . S
C468 C469 1.369 1_565 S
C468 C470 1.419 . S
C468 H472 0.930 . S
C469 C468 1.369 1_545 S
C469 C478 1.429 . S
C470 C468 1.419 . S
C470 C471 1.363 1_565 S
C470 H473 0.929 . S
C471 C470 1.363 1_545 S
C471 C477 1.428 . S
H472 C468 0.930 . S
H473 C470 0.929 . S
S474 N475 1.613 . S
S474 N476 1.610 . S
N475 S474 1.613 . S
N475 C478 1.350 . S
N476 S474 1.610 . S
N476 C477 1.351 . S
C477 C471 1.428 . S
C477 N476 1.351 . S
C477 C478 1.434 . S
C478 C469 1.429 . S
C478 N475 1.350 . S
C478 C477 1.434 . S
C479 C480 1.369 . S
C479 C481 1.419 . S
C479 H483 0.930 . S
C480 C479 1.369 . S
C480 C489 1.429 . S
C481 C479 1.419 . S
C481 C482 1.363 . S
C481 H484 0.929 . S
C482 C481 1.363 . S
C482 C488 1.428 . S
H483 C479 0.930 . S
H484 C481 0.929 . S
S485 N486 1.613 . S
S485 N487 1.610 . S
N486 S485 1.613 . S
N486 C489 1.350 . S
N487 S485 1.610 . S
N487 C488 1.351 . S
C488 C482 1.428 . S
C488 N487 1.351 . S
C488 C489 1.434 . S
C489 C480 1.429 . S
C489 N486 1.350 . S
C489 C488 1.434 . S
C490 C491 1.369 1_655 S
C490 C492 1.419 . S
C490 H494 0.930 . S
C491 C490 1.369 1_455 S
C491 C500 1.429 . S
C492 C490 1.419 . S
C492 C493 1.363 1_655 S
C492 H495 0.929 . S
C493 C492 1.363 1_455 S
C493 C499 1.428 . S
H494 C490 0.930 . S
H495 C492 0.929 . S
S496 N497 1.613 . S
S496 N498 1.610 . S
N497 S496 1.613 . S
N497 C500 1.350 . S
N498 S496 1.610 . S
N498 C499 1.351 . S
C499 C493 1.428 . S
C499 N498 1.351 . S
C499 C500 1.434 . S
C500 C491 1.429 . S
C500 N497 1.350 . S
C500 C499 1.434 . S
C304 C20 1.272 . S
C306 C280 1.322 . S
C315 C41 1.362 . S
C317 C207 1.354 . S
C326 C64 1.397 . S
C328 C246 1.383 . S
C337 C19 1.317 . S
C339 C285 1.384 . S
C350 C202 1.345 . S
C348 C44 1.341 . S
C361 C241 1.328 . S
C359 C67 1.321 . S
C370 C43 1.275 . S
C372 C129 1.323 . S
C381 C66 1.270 . S
C383 C163 1.322 . S
C392 C21 1.339 . S
C394 C85 1.342 . S
C405 C124 1.365 . S
C403 C42 1.303 . S
C416 C168 1.381 . S
C414 C65 1.320 . S
C425 C18 1.366 . S
C427 C90 1.358 . S
C438 C148 1.470 . S
C436 C17 1.471 . S
C447 C39 1.466 . S
C449 C70 1.466 . S
C458 C62 1.483 . S
C460 C109 1.482 . S
C471 C226 1.454 . S
C469 C40 1.453 . S
C482 C265 1.470 . S
C480 C63 1.471 . S
C491 C16 1.466 . S
C493 C187 1.466 . S
