# Generated by pormake.
# Topology tsx, (6,3)-cn, num edge types: 1
# Building blocks:
#     Node 0, Type 0, BuildingBlock: MIDCAF_clean_sbu_0, # of connection points: 6
#     Node 1, Type 0, BuildingBlock: MIDCAF_clean_sbu_0, # of connection points: 6
#     Node 2, Type 1, BuildingBlock: BETDIP_clean_linker_0, # of connection points: 3
#     Node 3, Type 1, BuildingBlock: BETDIP_clean_linker_0, # of connection points: 3
#     Node 4, Type 1, BuildingBlock: BETDIP_clean_linker_0, # of connection points: 3
#     Node 5, Type 1, BuildingBlock: BETDIP_clean_linker_0, # of connection points: 3
#     Edge 6, Type (0, 1), BuildingBlock: KIFKEQ_clean_linker_1, # of connection points: 2
#     Edge 7, Type (0, 1), BuildingBlock: KIFKEQ_clean_linker_1, # of connection points: 2
#     Edge 8, Type (0, 1), BuildingBlock: KIFKEQ_clean_linker_1, # of connection points: 2
#     Edge 9, Type (0, 1), BuildingBlock: KIFKEQ_clean_linker_1, # of connection points: 2
#     Edge 10, Type (0, 1), BuildingBlock: KIFKEQ_clean_linker_1, # of connection points: 2
#     Edge 11, Type (0, 1), BuildingBlock: KIFKEQ_clean_linker_1, # of connection points: 2
#     Edge 12, Type (0, 1), BuildingBlock: KIFKEQ_clean_linker_1, # of connection points: 2
#     Edge 13, Type (0, 1), BuildingBlock: KIFKEQ_clean_linker_1, # of connection points: 2
#     Edge 14, Type (0, 1), BuildingBlock: KIFKEQ_clean_linker_1, # of connection points: 2
#     Edge 15, Type (0, 1), BuildingBlock: KIFKEQ_clean_linker_1, # of connection points: 2
#     Edge 16, Type (0, 1), BuildingBlock: KIFKEQ_clean_linker_1, # of connection points: 2
#     Edge 17, Type (0, 1), BuildingBlock: KIFKEQ_clean_linker_1, # of connection points: 2
# Relax obj value: 0.082
# Max RMSD: 0.149
# Mean RMSD: 0.113
data_MOF--net-tsx--node1-MIDCAF_clean_sbu_0--node2-BETDIP_clean_linker_0--edge1-KIFKEQ_clean_linker_1
_symmetry_space_group_name_H-M    P1
_symmetry_Int_Tables_number       1
_symmetry_cell_setting            triclinic
loop_
_symmetry_equiv_pos_as_xyz
'x, y, z'
_cell_length_a     19.503486
_cell_length_b     21.632254
_cell_length_c     36.441606
_cell_angle_alpha  88.825865
_cell_angle_beta   109.02067
_cell_angle_gamma 89.904989
loop_
_atom_site_label
_atom_site_type_symbol
_atom_site_fract_x
_atom_site_fract_y
_atom_site_fract_z
_atom_type_partial_charge
Zn0 Zn 0.94939 0.11418 0.97574 0.0
Zn1 Zn 0.21768 0.10443 0.06417 0.0
Zn2 Zn 0.08514 0.10638 0.01715 0.0
C3 C 0.18293 0.22791 0.05025 0.0
C4 C 0.22143 0.0401 0.99986 0.0
O5 O 1.01768 0.05039 0.04499 0.0
O6 O 0.9063 0.05426 1.00316 0.0
C7 C 0.98724 0.23366 0.99387 0.0
O8 O 0.12366 0.20387 0.02822 0.0
O9 O 0.234 0.19379 0.07089 0.0
O10 O 0.26327 0.06089 0.03123 0.0
O11 O 0.15263 0.05209 0.98902 0.0
O12 O 0.93044 0.20243 0.98036 0.0
O13 O 0.04986 0.20649 0.00688 0.0
O14 O 0.0812 0.06463 0.96178 0.0
O15 O 0.96772 0.08895 0.92774 0.0
C16 C 1.02867 0.06697 0.92926 0.0
O17 O 0.08654 0.05936 0.07216 0.0
O18 O 0.20279 0.05666 0.10749 0.0
C19 C 0.95062 0.03363 0.03459 0.0
C20 C 0.13775 0.04421 0.10374 0.0
Zn21 Zn 0.61337 0.33349 0.55933 0.0
Zn22 Zn 0.43336 0.38185 0.44484 0.0
Zn23 Zn 0.53789 0.37386 0.50306 0.0
C24 C 0.55368 0.36801 0.41987 0.0
C25 C 0.46034 0.49928 0.4847 0.0
O26 O 0.53182 0.43424 0.54997 0.0
O27 O 0.54138 0.35229 0.5881 0.0
C28 C 0.65127 0.27431 0.50779 0.0
O29 O 0.58594 0.36969 0.45667 0.0
O30 O 0.48517 0.36751 0.40662 0.0
O31 O 0.41872 0.47189 0.45551 0.0
O32 O 0.51311 0.46987 0.50965 0.0
O33 O 0.63184 0.25439 0.53585 0.0
O34 O 0.62845 0.32771 0.49259 0.0
O35 O 0.59101 0.45665 0.53379 0.0
O36 O 0.68927 0.40146 0.5618 0.0
C37 C 0.66049 0.45398 0.55042 0.0
O38 O 0.46899 0.30444 0.51447 0.0
O39 O 0.37784 0.31277 0.45989 0.0
C40 C 0.52454 0.40902 0.58085 0.0
C41 C 0.4068 0.28697 0.49283 0.0
H42 H 0.18308 0.92401 0.48525 0.0
H43 H 0.07594 0.02279 0.37809 0.0
H44 H 0.23964 0.8868 0.38313 0.0
H45 H 0.09145 0.10172 0.42853 0.0
C46 C 0.06387 0.07331 0.44425 0.0
C47 C 0.17623 0.93304 0.4549 0.0
C48 C 0.21889 0.90116 0.43694 0.0
C49 C 0.12614 0.97803 0.43409 0.0
C50 C 0.11596 -0.01089 0.39449 0.0
C51 C 0.15687 0.95638 0.37593 0.0
C52 C 0.20877 0.91308 0.3975 0.0
N53 N 0.08484 0.0105 0.45312 0.0
H54 H 0.98293 0.85493 0.56397 0.0
H55 H 0.07979 0.98617 0.65229 0.0
H56 H 0.95967 0.83392 0.67716 0.0
H57 H 1.03185 0.05105 0.59431 0.0
C58 C 0.06221 0.02538 0.57926 0.0
C59 C 0.99334 0.87071 0.59331 0.0
C60 C 0.96764 0.83689 0.61949 0.0
C61 C 1.03188 0.92549 0.60471 0.0
C62 C 0.0472 0.94535 0.64299 0.0
C63 C 1.02187 0.91247 0.66951 0.0
C64 C 0.9819 0.85837 0.65741 0.0
N65 N 0.05605 0.95995 0.57772 0.0
H66 H 0.64807 0.63419 0.94557 0.0
H67 H 0.49797 0.65744 0.82945 0.0
H68 H 0.69227 0.54926 0.8499 0.0
H69 H 0.59736 0.72786 0.95349 0.0
C70 C 0.54117 0.72694 0.93481 0.0
C71 C 0.63338 0.62668 0.91471 0.0
C72 C 0.67867 0.58977 0.90067 0.0
C73 C 0.56859 0.65233 0.88871 0.0
C74 C 0.54844 0.63874 0.84919 0.0
C75 C 0.59334 0.60258 0.83485 0.0
C76 C 0.65866 0.57904 0.86069 0.0
N77 N 0.52108 0.69068 0.90092 0.0
H78 H 0.53947 0.61809 0.08579 0.0
H79 H 0.70732 0.5987 0.1976 0.0
H80 H 0.51947 0.48413 0.17026 0.0
H81 H 0.77132 0.65908 0.17385 0.0
C82 C 0.73823 0.68275 0.14753 0.0
C83 C 0.56135 0.59567 0.11412 0.0
C84 C 0.52139 0.54938 0.12532 0.0
C85 C 0.62908 0.61397 0.13969 0.0
C86 C 0.65647 0.58499 0.17682 0.0
C87 C 0.61765 0.53726 0.18753 0.0
C88 C 0.55031 0.52011 0.16172 0.0
N89 N 0.6667 0.66227 0.12725 0.0
H90 H 0.1857 0.3052 0.99071 0.0
H91 H 0.21415 0.29909 0.11304 0.0
H92 H 0.24883 0.40477 0.99841 0.0
H93 H 0.27596 0.39769 0.12096 0.0
H94 H 0.39231 0.56759 0.13642 0.0
H95 H 0.28214 0.50782 0.10812 0.0
H96 H 0.38068 0.42179 0.03144 0.0
H97 H 0.48996 0.48304 0.05927 0.0
C98 C 0.20238 0.3267 0.01882 0.0
C99 C 0.19515 0.29498 0.05132 0.0
C100 C 0.23916 0.38323 0.02334 0.0
C101 C 0.26814 0.40901 0.06036 0.0
C102 C 0.25387 0.37984 0.09195 0.0
C103 C 0.21837 0.32322 0.08751 0.0
C104 C 0.38886 0.53789 0.1123 0.0
C105 C 0.44928 0.52963 0.09997 0.0
C106 C 0.32611 0.50334 0.09628 0.0
C107 C 0.32303 0.45914 0.06802 0.0
C108 C 0.38088 0.45566 0.05295 0.0
C109 C 0.44361 0.49066 0.06886 0.0
H110 H 0.33594 0.0625 0.97545 0.0
H111 H 0.18572 0.9201 0.98185 0.0
H112 H 0.41029 0.98599 0.95687 0.0
H113 H 0.25958 0.84319 0.96269 0.0
H114 H 0.39338 0.73455 0.89859 0.0
H115 H 0.30928 0.81156 0.90854 0.0
H116 H 0.48691 0.89762 0.99562 0.0
H117 H 0.57081 0.82048 0.98589 0.0
C118 C 0.3176 0.01509 0.97153 0.0
C119 C 0.25404 -0.00253 0.97894 0.0
C120 C 0.36055 0.97117 0.96138 0.0
C121 C 0.3411 0.90848 0.9586 0.0
C122 C 0.27565 0.89123 0.96426 0.0
C123 C 0.23306 0.93522 0.97489 0.0
C124 C 0.41443 0.76988 0.91989 0.0
C125 C 0.48883 0.77176 0.94138 0.0
C126 C 0.3662 0.81384 0.92563 0.0
C127 C 0.39155 0.86104 0.95254 0.0
C128 C 0.46588 0.86245 0.9742 0.0
C129 C 0.51385 0.81808 0.96885 0.0
H130 H 0.8153 0.02608 0.03967 0.0
H131 H 1.02543 0.93677 0.08003 0.0
H132 H 0.7654 0.94377 0.06953 0.0
H133 H 0.97539 0.85346 0.10969 0.0
H134 H 0.86933 0.73462 0.18203 0.0
H135 H 0.92348 0.82296 0.15911 0.0
H136 H 0.73399 0.83793 0.05648 0.0
H137 H 0.67948 0.75105 0.07996 0.0
C138 C 0.85106 -0.01094 0.05535 0.0
C139 C 0.92438 -0.01197 0.05767 0.0
C140 C 0.82231 0.94156 0.0722 0.0
C141 C 0.86596 0.89134 0.09152 0.0
C142 C 0.94022 0.8916 0.09528 0.0
C143 C 0.96912 0.93948 0.07847 0.0
C144 C 0.83935 0.75706 0.15462 0.0
C145 C 0.77018 0.73608 0.13289 0.0
C146 C 0.87049 0.80743 0.14139 0.0
C147 C 0.8331 0.83789 0.10603 0.0
C148 C 0.76388 0.81647 0.08422 0.0
C149 C 0.7327 0.76629 0.09754 0.0
H150 H 0.95575 0.30428 0.04695 0.0
H151 H 0.99138 0.31261 0.93644 0.0
H152 H 0.89814 0.40657 0.03406 0.0
H153 H 0.93159 0.41322 0.9224 0.0
H154 H 0.81658 0.59081 0.89757 0.0
H155 H 0.91496 0.51866 0.93025 0.0
H156 H 0.7826 0.43852 0.99347 0.0
H157 H 0.68611 0.51252 0.96189 0.0
C158 C 0.95386 0.32935 0.02059 0.0
C159 C 0.9788 0.30129 0.9929 0.0
C160 C 0.91969 0.38747 0.01281 0.0
C161 C 0.90855 0.41809 0.97679 0.0
C162 C 0.93946 0.39188 0.95062 0.0
C163 C 0.97414 0.3341 0.95862 0.0
C164 C 0.80972 0.55892 0.9194 0.0
C165 C 0.74364 0.55698 0.92708 0.0
C166 C 0.86579 0.51711 0.9379 0.0
C167 C 0.85669 0.47158 0.96406 0.0
C168 C 0.79243 0.47301 0.97387 0.0
C169 C 0.73673 0.51545 0.95572 0.0
H170 H 0.807 0.46084 0.58357 0.0
H171 H 0.61475 0.5749 0.5369 0.0
H172 H 0.88137 0.55292 0.59809 0.0
H173 H 0.68952 0.66757 0.5522 0.0
H174 H 0.97965 0.72819 0.66045 0.0
H175 H 0.90395 0.63704 0.64304 0.0
H176 H 0.78267 0.72475 0.53342 0.0
H177 H 0.8572 0.81718 0.55153 0.0
C178 C 0.7805 0.50563 0.57659 0.0
C179 C 0.70488 0.51053 0.55927 0.0
C180 C 0.82319 0.55847 0.58506 0.0
C181 C 0.7914 0.61762 0.57649 0.0
C182 C 0.71575 0.62264 0.55881 0.0
C183 C 0.67288 0.56959 0.55028 0.0
C184 C 0.93667 0.72814 0.63268 0.0
C185 C 0.9243 0.77996 0.60742 0.0
C186 C 0.89368 0.67567 0.62254 0.0
C187 C 0.83724 0.67359 0.58682 0.0
C188 C 0.82524 0.72516 0.56131 0.0
C189 C 0.86849 0.77776 0.57146 0.0
H190 H 0.73034 0.17346 0.54448 0.0
H191 H 0.69857 0.29786 0.44602 0.0
H192 H 0.83126 0.12454 0.53072 0.0
H193 H 0.79704 0.24707 0.43098 0.0
H194 H 1.0259 0.1939 0.43969 0.0
H195 H 0.92482 0.24048 0.45497 0.0
H196 H 0.86649 0.06022 0.48849 0.0
H197 H 0.96953 0.01452 0.4748 0.0
C198 C 0.74388 0.18961 0.51937 0.0
C199 C 0.70634 0.23976 0.49634 0.0
C200 C 0.80175 0.16136 0.51141 0.0
C201 C 0.82292 0.1821 0.47992 0.0
C202 C 0.78347 0.23076 0.45603 0.0
C203 C 0.72625 0.2595 0.46433 0.0
C204 C 0.99159 0.16453 0.4506 0.0
C205 C 1.0051 0.1008 0.45586 0.0
C206 C 0.93326 0.19099 0.459 0.0
C207 C 0.88664 0.15404 0.47242 0.0
C208 C 0.90141 0.09023 0.47847 0.0
C209 C 0.96031 0.06391 0.47046 0.0
H210 H 0.30506 0.20921 0.4486 0.0
H211 H 0.41486 0.25877 0.56751 0.0
H212 H 0.22615 0.13966 0.47008 0.0
H213 H 0.33441 0.19022 0.58879 0.0
H214 H 0.09649 0.1457 0.58934 0.0
H215 H 0.18784 0.20265 0.57 0.0
H216 H 0.23861 0.03828 0.51851 0.0
H217 H 0.14812 0.98056 0.53876 0.0
C218 C 0.31283 0.20463 0.47935 0.0
C219 C 0.36583 0.2395 0.50643 0.0
C220 C 0.26792 0.16473 0.49157 0.0
C221 C 0.27421 0.16007 0.53096 0.0
C222 C 0.32861 0.19336 0.55821 0.0
C223 C 0.3747 0.23223 0.54609 0.0
C224 C 0.12726 0.12173 0.57394 0.0
C225 C 0.1154 0.05889 0.56552 0.0
C226 C 0.17969 0.15414 0.56315 0.0
C227 C 0.22046 0.12452 0.54318 0.0
C228 C 0.20791 0.06187 0.53409 0.0
C229 C 0.15619 0.02904 0.54556 0.0
H230 H 0.43436 0.55636 0.54506 0.0
H231 H 0.45432 0.58899 0.43193 0.0
H232 H 0.39264 0.66364 0.54529 0.0
H233 H 0.41263 0.69507 0.43169 0.0
H234 H 0.35881 0.88777 0.43891 0.0
H235 H 0.437 0.79715 0.46175 0.0
H236 H 0.27572 0.71471 0.50483 0.0
H237 H 0.19792 0.8058 0.48233 0.0
C238 C 0.4322 0.58724 0.52096 0.0
C239 C 0.4479 0.56524 0.48863 0.0
C240 C 0.40771 0.6482 0.52086 0.0
C241 C 0.39955 0.68781 0.48856 0.0
C242 C 0.41943 0.6662 0.4573 0.0
C243 C 0.44281 0.6054 0.45724 0.0
C244 C 0.34091 0.8508 0.45405 0.0
C245 C 0.27184 0.85306 0.4582 0.0
C246 C 0.38562 0.79907 0.46716 0.0
C247 C 0.36194 0.74845 0.48447 0.0
C248 C 0.29566 0.75315 0.4918 0.0
C249 C 0.25096 0.80517 0.47879 0.0
H250 H 1.02851 0.07379 0.13208 0.0
H251 H 0.2141 0.95339 0.15159 0.0
H252 H 1.02507 0.04742 0.19719 0.0
H253 H 0.2091 0.92487 0.21559 0.0
H254 H 0.26031 0.97298 0.34176 0.0
H255 H 0.24409 0.98478 0.27305 0.0
H256 H 1.01166 0.97344 0.24613 0.0
H257 H 1.02829 0.9626 0.31563 0.0
C258 C 0.06683 0.04002 0.14981 0.0
C259 C 0.12232 0.01631 0.13733 0.0
C260 C 0.06498 0.02492 0.18707 0.0
C261 C 0.11827 0.9855 0.21203 0.0
C262 C 0.16887 0.95706 0.19764 0.0
C263 C 0.17137 0.97285 0.16087 0.0
C264 C 0.20577 0.97271 0.32118 0.0
C265 C 0.14566 0.96649 0.33401 0.0
C266 C 0.19636 0.97904 0.28173 0.0
C267 C 0.12655 0.9788 0.25395 0.0
C268 C 0.0661 0.97381 0.26677 0.0
C269 C 0.07559 0.96778 0.3065 0.0
H270 H 0.12277 0.98019 0.91869 0.0
H271 H 0.95141 0.10626 0.85647 0.0
H272 H 0.13286 0.945 0.85723 0.0
H273 H 0.95809 0.06967 0.79534 0.0
H274 H 1.01829 0.0327 0.69069 0.0
H275 H 1.03219 0.0716 0.75469 0.0
H276 H 0.06287 0.88496 0.80207 0.0
H277 H 0.05336 0.84613 0.73823 0.0
C278 C 0.08846 0.00103 0.89202 0.0
C279 C 0.03753 0.04641 0.89259 0.0
C280 C 0.09313 0.98033 0.85673 0.0
C281 C 0.04651 0.00479 0.82127 0.0
C282 C 0.99588 0.05062 0.822 0.0
C283 C 0.99153 0.07116 0.85714 0.0
C284 C 1.02966 -7e-05 0.71484 0.0
C285 C 1.03428 0.93617 0.70918 0.0
C286 C 1.03672 0.02223 0.75151 0.0
C287 C 0.04773 0.98136 0.78344 0.0
C288 C 0.05482 0.91776 0.77815 0.0
C289 C 0.04828 0.89542 0.74143 0.0
H290 H 0.55712 0.53079 0.59412 0.0
H291 H 0.47151 0.37247 0.63825 0.0
H292 H 0.56163 0.58797 0.65196 0.0
H293 H 0.47661 0.42942 0.69624 0.0
H294 H 0.46242 0.5587 0.78956 0.0
H295 H 0.43089 0.52103 0.72322 0.0
H296 H 0.64345 0.57142 0.72059 0.0
H297 H 0.67459 0.6093 0.7866 0.0
C298 C 0.53721 0.50886 0.61562 0.0
C299 C 0.51375 0.44722 0.61167 0.0
C300 C 0.5405 0.54139 0.6489 0.0
C301 C 0.51997 0.51303 0.67874 0.0
C302 C 0.49224 0.45271 0.67362 0.0
C303 C 0.4896 0.42 0.64051 0.0
C304 C 0.50174 0.56282 0.77443 0.0
C305 C 0.57109 0.58657 0.79324 0.0
C306 C 0.48388 0.54094 0.73662 0.0
C307 C 0.53471 0.54319 0.71674 0.0
C308 C 0.60283 0.56964 0.73496 0.0
C309 C 0.62093 0.59082 0.77286 0.0
H310 H 0.67815 0.4326 0.42821 0.0
H311 H 0.51709 0.32059 0.34798 0.0
H312 H 0.72249 0.46673 0.37545 0.0
H313 H 0.56028 0.35444 0.29564 0.0
H314 H 0.65319 0.59025 0.2585 0.0
H315 H 0.66445 0.5374 0.32014 0.0
H316 H 0.65223 0.36091 0.26499 0.0
H317 H 0.63883 0.41414 0.20328 0.0
C318 C 0.65403 0.4136 0.39963 0.0
C319 C 0.59383 0.37441 0.39199 0.0
C320 C 0.6789 0.43355 0.36938 0.0
C321 C 0.64446 0.41394 0.3312 0.0
C322 C 0.58868 0.37019 0.32463 0.0
C323 C 0.56352 0.3509 0.35463 0.0
C324 C 0.65542 0.54019 0.26 0.0
C325 C 0.64414 0.50617 0.22621 0.0
C326 C 0.6621 0.50977 0.29532 0.0
C327 C 0.65796 0.44484 0.29735 0.0
C328 C 0.65414 0.41094 0.26423 0.0
C329 C 0.64677 0.44132 0.22897 0.0
loop_
_geom_bond_atom_site_label_1
_geom_bond_atom_site_label_2
_geom_bond_distance
_geom_bond_site_symmetry_2
_ccdc_geom_bond_type
Zn0 O6 1.920 1_545 S
Zn0 O12 1.898 . S
Zn0 O15 1.905 1_545 S
Zn1 O9 1.905 . S
Zn1 O10 1.898 1_545 S
Zn1 O18 1.920 1_545 S
Zn2 O5 2.080 1_445 S
Zn2 O8 2.114 . S
Zn2 O11 2.120 1_545 S
Zn2 O13 2.120 1_455 S
Zn2 O14 2.114 1_554 S
Zn2 O17 2.080 . S
C3 O8 1.166 . S
C3 O9 1.182 . S
C4 O10 1.167 . S
C4 O11 1.299 . S
O5 Zn2 2.080 1_665 S
O5 C19 1.305 . S
O6 Zn0 1.920 1_565 S
O6 C19 1.234 1_556 S
C7 O12 1.167 . S
C7 O13 1.299 1_556 S
O8 Zn2 2.114 . S
O8 C3 1.166 . S
O9 Zn1 1.905 . S
O9 C3 1.182 . S
O10 Zn1 1.898 1_565 S
O10 C4 1.167 . S
O11 Zn2 2.120 1_565 S
O11 C4 1.299 . S
O12 Zn0 1.898 . S
O12 C7 1.167 . S
O13 Zn2 2.120 1_655 S
O13 C7 1.299 1_554 S
O14 Zn2 2.114 1_556 S
O14 C16 1.165 1_445 S
O15 Zn0 1.905 1_565 S
O15 C16 1.186 . S
C16 O14 1.165 1_665 S
C16 O15 1.186 . S
O17 Zn2 2.080 . S
O17 C20 1.305 1_545 S
O18 Zn1 1.920 1_565 S
O18 C20 1.234 . S
C19 O5 1.305 . S
C19 O6 1.234 1_554 S
C20 O17 1.305 1_565 S
C20 O18 1.234 . S
Zn21 O27 1.920 . S
Zn21 O33 1.898 . S
Zn21 O36 1.905 . S
Zn22 O30 1.905 . S
Zn22 O31 1.898 . S
Zn22 O39 1.920 . S
Zn23 O26 2.080 . S
Zn23 O29 2.114 . S
Zn23 O32 2.120 . S
Zn23 O34 2.120 . S
Zn23 O35 2.114 . S
Zn23 O38 2.080 . S
C24 O29 1.166 . S
C24 O30 1.182 . S
C25 O31 1.167 . S
C25 O32 1.299 . S
O26 Zn23 2.080 . S
O26 C40 1.305 . S
O27 Zn21 1.920 . S
O27 C40 1.234 . S
C28 O33 1.167 . S
C28 O34 1.299 . S
O29 Zn23 2.114 . S
O29 C24 1.166 . S
O30 Zn22 1.905 . S
O30 C24 1.182 . S
O31 Zn22 1.898 . S
O31 C25 1.167 . S
O32 Zn23 2.120 . S
O32 C25 1.299 . S
O33 Zn21 1.898 . S
O33 C28 1.167 . S
O34 Zn23 2.120 . S
O34 C28 1.299 . S
O35 Zn23 2.114 . S
O35 C37 1.166 . S
O36 Zn21 1.905 . S
O36 C37 1.182 . S
C37 O35 1.166 . S
C37 O36 1.182 . S
O38 Zn23 2.080 . S
O38 C41 1.305 . S
O39 Zn22 1.920 . S
O39 C41 1.234 . S
C40 O26 1.305 . S
C40 O27 1.234 . S
C41 O38 1.305 . S
C41 O39 1.234 . S
H42 C47 0.930 1_565 S
H43 C50 0.930 . S
H44 C52 0.930 . S
H45 C46 1.016 . S
C46 H45 1.016 . S
C46 N53 1.286 . S
C47 H42 0.930 1_545 S
C47 C48 1.397 1_545 S
C47 C49 1.361 . S
C48 C47 1.397 1_565 S
C48 C52 1.390 . S
C49 C47 1.361 . S
C49 C50 1.393 . S
C49 N53 1.413 . S
C50 H43 0.930 . S
C50 C49 1.393 . S
C50 C51 1.399 . S
C51 C50 1.399 . S
C51 C52 1.381 1_545 S
C52 H44 0.930 . S
C52 C48 1.390 . S
C52 C51 1.381 1_565 S
N53 C46 1.286 . S
N53 C49 1.413 . S
H54 C59 0.928 1_565 S
H55 C62 0.930 . S
H56 C64 0.930 . S
H57 C58 1.016 . S
C58 H57 1.016 . S
C58 N65 1.286 . S
C59 H54 0.928 1_545 S
C59 C60 1.394 1_545 S
C59 C61 1.366 1_655 S
C60 C59 1.394 1_565 S
C60 C64 1.390 . S
C61 C59 1.366 1_455 S
C61 C62 1.393 . S
C61 N65 1.413 . S
C62 H55 0.930 . S
C62 C61 1.393 . S
C62 C63 1.399 1_455 S
C63 C62 1.399 1_655 S
C63 C64 1.381 1_545 S
C64 H56 0.930 . S
C64 C60 1.390 . S
C64 C63 1.381 1_565 S
N65 C58 1.286 . S
N65 C61 1.413 . S
H66 C71 0.930 . S
H67 C74 0.930 . S
H68 C76 0.930 . S
H69 C70 1.016 . S
C70 H69 1.016 . S
C70 N77 1.286 . S
C71 H66 0.930 . S
C71 C72 1.397 . S
C71 C73 1.361 . S
C72 C71 1.397 . S
C72 C76 1.390 . S
C73 C71 1.361 . S
C73 C74 1.393 . S
C73 N77 1.413 . S
C74 H67 0.930 . S
C74 C73 1.393 . S
C74 C75 1.399 . S
C75 C74 1.399 . S
C75 C76 1.381 . S
C76 H68 0.930 . S
C76 C72 1.390 . S
C76 C75 1.381 . S
N77 C70 1.286 . S
N77 C73 1.413 . S
H78 C83 0.930 . S
H79 C86 0.930 . S
H80 C88 0.930 . S
H81 C82 1.016 . S
C82 H81 1.016 . S
C82 N89 1.286 . S
C83 H78 0.930 . S
C83 C84 1.397 . S
C83 C85 1.361 . S
C84 C83 1.397 . S
C84 C88 1.390 . S
C85 C83 1.361 . S
C85 C86 1.393 . S
C85 N89 1.413 . S
C86 H79 0.930 . S
C86 C85 1.393 . S
C86 C87 1.399 . S
C87 C86 1.399 . S
C87 C88 1.381 . S
C88 H80 0.930 . S
C88 C84 1.390 . S
C88 C87 1.381 . S
N89 C82 1.286 . S
N89 C85 1.413 . S
H90 C98 0.950 1_556 S
H91 C103 0.950 . S
H92 C100 0.950 1_556 S
H93 C102 0.950 . S
H94 C104 0.950 . S
H95 C106 0.950 . S
H96 C108 0.950 . S
H97 C109 0.950 . S
C98 H90 0.950 1_554 S
C98 C99 1.386 . S
C98 C100 1.391 . S
C99 C98 1.386 . S
C99 C103 1.393 . S
C100 H92 0.950 1_554 S
C100 C98 1.391 . S
C100 C101 1.400 . S
C101 C100 1.400 . S
C101 C102 1.398 . S
C101 C107 1.491 . S
C102 H93 0.950 . S
C102 C101 1.398 . S
C102 C103 1.391 . S
C103 H91 0.950 . S
C103 C99 1.393 . S
C103 C102 1.391 . S
C104 H94 0.950 . S
C104 C105 1.386 . S
C104 C106 1.391 . S
C105 C104 1.386 . S
C105 C109 1.393 . S
C106 H95 0.950 . S
C106 C104 1.391 . S
C106 C107 1.400 . S
C107 C101 1.491 . S
C107 C106 1.400 . S
C107 C108 1.398 . S
C108 H96 0.950 . S
C108 C107 1.398 . S
C108 C109 1.391 . S
C109 H97 0.950 . S
C109 C105 1.393 . S
C109 C108 1.391 . S
H110 C118 0.950 . S
H111 C123 0.950 . S
H112 C120 0.951 . S
H113 C122 0.950 . S
H114 C124 0.950 . S
H115 C126 0.950 . S
H116 C128 0.950 . S
H117 C129 0.950 . S
C118 H110 0.950 . S
C118 C119 1.386 1_554 S
C118 C120 1.402 . S
C119 C118 1.386 1_556 S
C119 C123 1.393 . S
C120 H112 0.951 . S
C120 C118 1.402 . S
C120 C121 1.390 1_554 S
C121 C120 1.390 1_556 S
C121 C122 1.398 . S
C121 C127 1.491 . S
C122 H113 0.950 . S
C122 C121 1.398 . S
C122 C123 1.391 . S
C123 H111 0.950 . S
C123 C119 1.393 . S
C123 C122 1.391 . S
C124 H114 0.950 . S
C124 C125 1.386 . S
C124 C126 1.391 . S
C125 C124 1.386 . S
C125 C129 1.393 . S
C126 H115 0.950 . S
C126 C124 1.391 . S
C126 C127 1.400 . S
C127 C121 1.491 . S
C127 C126 1.400 . S
C127 C128 1.398 . S
C128 H116 0.950 . S
C128 C127 1.398 . S
C128 C129 1.391 . S
C129 H117 0.950 . S
C129 C125 1.393 . S
C129 C128 1.391 . S
H130 C138 0.950 . S
H131 C143 0.950 . S
H132 C140 0.950 1_556 S
H133 C142 0.950 . S
H134 C144 0.950 . S
H135 C146 0.950 . S
H136 C148 0.950 1_556 S
H137 C149 0.961 . S
C138 H130 0.950 . S
C138 C139 1.386 1_556 S
C138 C140 1.391 1_556 S
C139 C138 1.386 1_554 S
C139 C143 1.393 . S
C140 H132 0.950 1_554 S
C140 C138 1.391 1_554 S
C140 C141 1.400 . S
C141 C140 1.400 . S
C141 C142 1.398 . S
C141 C147 1.491 . S
C142 H133 0.950 . S
C142 C141 1.398 . S
C142 C143 1.391 . S
C143 H131 0.950 . S
C143 C139 1.393 . S
C143 C142 1.391 . S
C144 H134 0.950 . S
C144 C145 1.386 . S
C144 C146 1.391 . S
C145 C144 1.386 . S
C145 C149 1.393 . S
C146 H135 0.950 . S
C146 C144 1.391 . S
C146 C147 1.400 . S
C147 C141 1.491 . S
C147 C146 1.400 . S
C147 C148 1.398 . S
C148 H136 0.950 1_554 S
C148 C147 1.398 . S
C148 C149 1.391 . S
C149 H137 0.961 . S
C149 C145 1.393 . S
C149 C148 1.391 . S
H150 C158 0.950 . S
H151 C163 0.950 . S
H152 C160 0.950 . S
H153 C162 0.950 . S
H154 C164 0.950 . S
H155 C166 0.950 . S
H156 C168 0.950 . S
H157 C169 0.950 . S
C158 H150 0.950 . S
C158 C159 1.386 . S
C158 C160 1.391 . S
C159 C158 1.386 . S
C159 C163 1.393 . S
C160 H152 0.950 . S
C160 C158 1.391 . S
C160 C161 1.400 . S
C161 C160 1.400 . S
C161 C162 1.398 . S
C161 C167 1.491 . S
C162 H153 0.950 . S
C162 C161 1.398 . S
C162 C163 1.391 . S
C163 H151 0.950 . S
C163 C159 1.393 . S
C163 C162 1.391 . S
C164 H154 0.950 . S
C164 C165 1.386 . S
C164 C166 1.391 . S
C165 C164 1.386 . S
C165 C169 1.393 . S
C166 H155 0.950 . S
C166 C164 1.391 . S
C166 C167 1.400 . S
C167 C161 1.491 . S
C167 C166 1.400 . S
C167 C168 1.398 . S
C168 H156 0.950 . S
C168 C167 1.398 . S
C168 C169 1.391 . S
C169 H157 0.950 . S
C169 C165 1.393 . S
C169 C168 1.391 . S
H170 C178 0.950 . S
H171 C183 0.950 . S
H172 C180 0.950 . S
H173 C182 0.950 . S
H174 C184 0.950 . S
H175 C186 0.950 . S
H176 C188 0.950 . S
H177 C189 0.950 . S
C178 H170 0.950 . S
C178 C179 1.386 . S
C178 C180 1.391 . S
C179 C178 1.386 . S
C179 C183 1.393 . S
C180 H172 0.950 . S
C180 C178 1.391 . S
C180 C181 1.400 . S
C181 C180 1.400 . S
C181 C182 1.398 . S
C181 C187 1.491 . S
C182 H173 0.950 . S
C182 C181 1.398 . S
C182 C183 1.391 . S
C183 H171 0.950 . S
C183 C179 1.393 . S
C183 C182 1.391 . S
C184 H174 0.950 . S
C184 C185 1.386 . S
C184 C186 1.391 . S
C185 C184 1.386 . S
C185 C189 1.393 . S
C186 H175 0.950 . S
C186 C184 1.391 . S
C186 C187 1.400 . S
C187 C181 1.491 . S
C187 C186 1.400 . S
C187 C188 1.398 . S
C188 H176 0.950 . S
C188 C187 1.398 . S
C188 C189 1.391 . S
C189 H177 0.950 . S
C189 C185 1.393 . S
C189 C188 1.391 . S
H190 C198 0.950 . S
H191 C203 0.950 . S
H192 C200 0.950 . S
H193 C202 0.950 . S
H194 C204 0.950 1_455 S
H195 C206 0.950 . S
H196 C208 0.950 . S
H197 C209 0.950 . S
C198 H190 0.950 . S
C198 C199 1.386 . S
C198 C200 1.391 . S
C199 C198 1.386 . S
C199 C203 1.393 . S
C200 H192 0.950 . S
C200 C198 1.391 . S
C200 C201 1.400 . S
C201 C200 1.400 . S
C201 C202 1.398 . S
C201 C207 1.491 . S
C202 H193 0.950 . S
C202 C201 1.398 . S
C202 C203 1.391 . S
C203 H191 0.950 . S
C203 C199 1.393 . S
C203 C202 1.391 . S
C204 H194 0.950 1_655 S
C204 C205 1.386 . S
C204 C206 1.391 . S
C205 C204 1.386 . S
C205 C209 1.393 . S
C206 H195 0.950 . S
C206 C204 1.391 . S
C206 C207 1.400 . S
C207 C201 1.491 . S
C207 C206 1.400 . S
C207 C208 1.398 . S
C208 H196 0.950 . S
C208 C207 1.398 . S
C208 C209 1.391 . S
C209 H197 0.950 . S
C209 C205 1.393 . S
C209 C208 1.391 . S
H210 C218 0.950 . S
H211 C223 0.950 . S
H212 C220 0.950 . S
H213 C222 0.950 . S
H214 C224 0.950 . S
H215 C226 0.950 . S
H216 C228 0.950 . S
H217 C229 0.950 . S
C218 H210 0.950 . S
C218 C219 1.386 . S
C218 C220 1.391 . S
C219 C218 1.386 . S
C219 C223 1.393 . S
C220 H212 0.950 . S
C220 C218 1.391 . S
C220 C221 1.400 . S
C221 C220 1.400 . S
C221 C222 1.398 . S
C221 C227 1.491 . S
C222 H213 0.950 . S
C222 C221 1.398 . S
C222 C223 1.391 . S
C223 H211 0.950 . S
C223 C219 1.393 . S
C223 C222 1.391 . S
C224 H214 0.950 . S
C224 C225 1.386 . S
C224 C226 1.391 . S
C225 C224 1.386 . S
C225 C229 1.393 . S
C226 H215 0.950 . S
C226 C224 1.391 . S
C226 C227 1.400 . S
C227 C221 1.491 . S
C227 C226 1.400 . S
C227 C228 1.398 . S
C228 H216 0.950 . S
C228 C227 1.398 . S
C228 C229 1.391 . S
C229 H217 0.950 . S
C229 C225 1.393 . S
C229 C228 1.391 . S
H230 C238 0.950 . S
H231 C243 0.950 . S
H232 C240 0.950 . S
H233 C242 0.950 . S
H234 C244 0.950 . S
H235 C246 0.950 . S
H236 C248 0.950 . S
H237 C249 0.950 . S
C238 H230 0.950 . S
C238 C239 1.386 . S
C238 C240 1.391 . S
C239 C238 1.386 . S
C239 C243 1.393 . S
C240 H232 0.950 . S
C240 C238 1.391 . S
C240 C241 1.400 . S
C241 C240 1.400 . S
C241 C242 1.398 . S
C241 C247 1.491 . S
C242 H233 0.950 . S
C242 C241 1.398 . S
C242 C243 1.391 . S
C243 H231 0.950 . S
C243 C239 1.393 . S
C243 C242 1.391 . S
C244 H234 0.950 . S
C244 C245 1.386 . S
C244 C246 1.391 . S
C245 C244 1.386 . S
C245 C249 1.393 . S
C246 H235 0.950 . S
C246 C244 1.391 . S
C246 C247 1.400 . S
C247 C241 1.491 . S
C247 C246 1.400 . S
C247 C248 1.398 . S
C248 H236 0.950 . S
C248 C247 1.398 . S
C248 C249 1.391 . S
C249 H237 0.950 . S
C249 C245 1.393 . S
C249 C248 1.391 . S
H250 C258 0.949 1_645 S
H251 C263 0.950 . S
H252 C260 0.950 1_655 S
H253 C262 0.950 . S
H254 C264 0.950 . S
H255 C266 0.947 1_565 S
H256 C268 0.950 1_655 S
H257 C269 0.950 1_655 S
C258 H250 0.949 1_465 S
C258 C259 1.386 . S
C258 C260 1.391 1_565 S
C259 C258 1.386 . S
C259 C263 1.393 . S
C260 H252 0.950 1_455 S
C260 C258 1.391 1_545 S
C260 C261 1.400 . S
C261 C260 1.400 . S
C261 C262 1.398 1_545 S
C261 C267 1.491 . S
C262 H253 0.950 . S
C262 C261 1.398 1_565 S
C262 C263 1.391 . S
C263 H251 0.950 . S
C263 C259 1.393 . S
C263 C262 1.391 . S
C264 H254 0.950 . S
C264 C265 1.386 . S
C264 C266 1.391 . S
C265 C264 1.386 . S
C265 C269 1.393 . S
C266 H255 0.947 1_545 S
C266 C264 1.391 . S
C266 C267 1.400 . S
C267 C261 1.491 . S
C267 C266 1.400 . S
C267 C268 1.398 . S
C268 H256 0.950 1_455 S
C268 C267 1.398 . S
C268 C269 1.391 . S
C269 H257 0.950 1_455 S
C269 C265 1.393 . S
C269 C268 1.391 . S
H270 C278 0.950 . S
H271 C283 0.950 . S
H272 C280 0.950 . S
H273 C282 0.950 . S
H274 C284 0.950 . S
H275 C286 0.950 . S
H276 C288 0.950 . S
H277 C289 0.950 . S
C278 H270 0.950 . S
C278 C279 1.386 1_655 S
C278 C280 1.391 . S
C279 C278 1.386 1_455 S
C279 C283 1.393 1_565 S
C280 H272 0.950 . S
C280 C278 1.391 . S
C280 C281 1.400 1_665 S
C281 C280 1.400 1_445 S
C281 C282 1.398 . S
C281 C287 1.491 . S
C282 H273 0.950 . S
C282 C281 1.398 . S
C282 C283 1.391 . S
C283 H271 0.950 . S
C283 C279 1.393 1_545 S
C283 C282 1.391 . S
C284 H274 0.950 . S
C284 C285 1.386 1_455 S
C284 C286 1.391 . S
C285 C284 1.386 1_655 S
C285 C289 1.393 1_545 S
C286 H275 0.950 . S
C286 C284 1.391 . S
C286 C287 1.400 . S
C287 C281 1.491 . S
C287 C286 1.400 . S
C287 C288 1.398 1_445 S
C288 H276 0.950 . S
C288 C287 1.398 1_665 S
C288 C289 1.391 . S
C289 H277 0.950 . S
C289 C285 1.393 1_565 S
C289 C288 1.391 . S
H290 C298 0.950 . S
H291 C303 0.950 . S
H292 C300 0.950 . S
H293 C302 0.950 . S
H294 C304 0.950 . S
H295 C306 0.950 . S
H296 C308 0.950 . S
H297 C309 0.950 . S
C298 H290 0.950 . S
C298 C299 1.386 . S
C298 C300 1.391 . S
C299 C298 1.386 . S
C299 C303 1.393 . S
C300 H292 0.950 . S
C300 C298 1.391 . S
C300 C301 1.400 . S
C301 C300 1.400 . S
C301 C302 1.398 . S
C301 C307 1.491 . S
C302 H293 0.950 . S
C302 C301 1.398 . S
C302 C303 1.391 . S
C303 H291 0.950 . S
C303 C299 1.393 . S
C303 C302 1.391 . S
C304 H294 0.950 . S
C304 C305 1.386 . S
C304 C306 1.391 . S
C305 C304 1.386 . S
C305 C309 1.393 . S
C306 H295 0.950 . S
C306 C304 1.391 . S
C306 C307 1.400 . S
C307 C301 1.491 . S
C307 C306 1.400 . S
C307 C308 1.398 . S
C308 H296 0.950 . S
C308 C307 1.398 . S
C308 C309 1.391 . S
C309 H297 0.950 . S
C309 C305 1.393 . S
C309 C308 1.391 . S
H310 C318 0.950 . S
H311 C323 0.950 . S
H312 C320 0.950 . S
H313 C322 0.950 . S
H314 C324 0.950 . S
H315 C326 0.950 . S
H316 C328 0.950 . S
H317 C329 0.950 . S
C318 H310 0.950 . S
C318 C319 1.386 . S
C318 C320 1.391 . S
C319 C318 1.386 . S
C319 C323 1.393 . S
C320 H312 0.950 . S
C320 C318 1.391 . S
C320 C321 1.400 . S
C321 C320 1.400 . S
C321 C322 1.398 . S
C321 C327 1.491 . S
C322 H313 0.950 . S
C322 C321 1.398 . S
C322 C323 1.391 . S
C323 H311 0.950 . S
C323 C319 1.393 . S
C323 C322 1.391 . S
C324 H314 0.950 . S
C324 C325 1.386 . S
C324 C326 1.391 . S
C325 C324 1.386 . S
C325 C329 1.393 . S
C326 H315 0.950 . S
C326 C324 1.391 . S
C326 C327 1.400 . S
C327 C321 1.491 . S
C327 C326 1.400 . S
C327 C328 1.398 . S
C328 H316 0.950 . S
C328 C327 1.398 . S
C328 C329 1.391 . S
C329 H317 0.950 . S
C329 C325 1.393 . S
C329 C328 1.391 . S
C105 C84 1.322 . S
C99 C3 1.242 . S
C119 C4 1.430 1_556 S
C125 C70 1.505 . S
C139 C19 1.476 . S
C145 C82 1.534 . S
C159 C7 1.238 . S
C165 C72 1.327 . S
C179 C37 1.240 . S
C185 C60 1.324 . S
C199 C28 1.453 . S
C205 C46 1.525 1_655 S
C225 C58 1.541 . S
C219 C41 1.478 . S
C245 C48 1.329 . S
C239 C25 1.226 . S
C259 C20 1.370 . S
C265 C51 1.498 . S
C279 C16 1.382 1_455 S
C285 C63 1.528 . S
C305 C75 1.484 . S
C299 C40 1.361 . S
C319 C24 1.407 . S
C325 C87 1.540 . S
