# Generated by pormake.
# Topology ptr, (4,4)-cn, num edge types: 1
# Building blocks:
#     Node 0, Type 0, BuildingBlock: TATPOV_clean_sbu_0, # of connection points: 4
#     Node 1, Type 0, BuildingBlock: TATPOV_clean_sbu_0, # of connection points: 4
#     Node 2, Type 0, BuildingBlock: TATPOV_clean_sbu_0, # of connection points: 4
#     Node 3, Type 0, BuildingBlock: TATPOV_clean_sbu_0, # of connection points: 4
#     Node 4, Type 0, BuildingBlock: TATPOV_clean_sbu_0, # of connection points: 4
#     Node 5, Type 0, BuildingBlock: TATPOV_clean_sbu_0, # of connection points: 4
#     Node 6, Type 0, BuildingBlock: TATPOV_clean_sbu_0, # of connection points: 4
#     Node 7, Type 0, BuildingBlock: TATPOV_clean_sbu_0, # of connection points: 4
#     Node 8, Type 0, BuildingBlock: TATPOV_clean_sbu_0, # of connection points: 4
#     Node 9, Type 0, BuildingBlock: TATPOV_clean_sbu_0, # of connection points: 4
#     Node 10, Type 0, BuildingBlock: TATPOV_clean_sbu_0, # of connection points: 4
#     Node 11, Type 0, BuildingBlock: TATPOV_clean_sbu_0, # of connection points: 4
#     Node 12, Type 0, BuildingBlock: TATPOV_clean_sbu_0, # of connection points: 4
#     Node 13, Type 0, BuildingBlock: TATPOV_clean_sbu_0, # of connection points: 4
#     Node 14, Type 0, BuildingBlock: TATPOV_clean_sbu_0, # of connection points: 4
#     Node 15, Type 0, BuildingBlock: TATPOV_clean_sbu_0, # of connection points: 4
#     Node 16, Type 0, BuildingBlock: TATPOV_clean_sbu_0, # of connection points: 4
#     Node 17, Type 0, BuildingBlock: TATPOV_clean_sbu_0, # of connection points: 4
#     Node 18, Type 1, BuildingBlock: NAHDIM_clean_linker_0, # of connection points: 4
#     Node 19, Type 1, BuildingBlock: NAHDIM_clean_linker_0, # of connection points: 4
#     Node 20, Type 1, BuildingBlock: NAHDIM_clean_linker_0, # of connection points: 4
#     Node 21, Type 1, BuildingBlock: NAHDIM_clean_linker_0, # of connection points: 4
#     Node 22, Type 1, BuildingBlock: NAHDIM_clean_linker_0, # of connection points: 4
#     Node 23, Type 1, BuildingBlock: NAHDIM_clean_linker_0, # of connection points: 4
#     Node 24, Type 1, BuildingBlock: NAHDIM_clean_linker_0, # of connection points: 4
#     Node 25, Type 1, BuildingBlock: NAHDIM_clean_linker_0, # of connection points: 4
#     Node 26, Type 1, BuildingBlock: NAHDIM_clean_linker_0, # of connection points: 4
#     Node 27, Type 1, BuildingBlock: NAHDIM_clean_linker_0, # of connection points: 4
#     Node 28, Type 1, BuildingBlock: NAHDIM_clean_linker_0, # of connection points: 4
#     Node 29, Type 1, BuildingBlock: NAHDIM_clean_linker_0, # of connection points: 4
#     Node 30, Type 1, BuildingBlock: NAHDIM_clean_linker_0, # of connection points: 4
#     Node 31, Type 1, BuildingBlock: NAHDIM_clean_linker_0, # of connection points: 4
#     Node 32, Type 1, BuildingBlock: NAHDIM_clean_linker_0, # of connection points: 4
#     Node 33, Type 1, BuildingBlock: NAHDIM_clean_linker_0, # of connection points: 4
#     Node 34, Type 1, BuildingBlock: NAHDIM_clean_linker_0, # of connection points: 4
#     Node 35, Type 1, BuildingBlock: NAHDIM_clean_linker_0, # of connection points: 4
#     Edge 36, Type (0, 1), BuildingBlock: UVAHIK_clean_linker_0, # of connection points: 2
#     Edge 37, Type (0, 1), BuildingBlock: UVAHIK_clean_linker_0, # of connection points: 2
#     Edge 38, Type (0, 1), BuildingBlock: UVAHIK_clean_linker_0, # of connection points: 2
#     Edge 39, Type (0, 1), BuildingBlock: UVAHIK_clean_linker_0, # of connection points: 2
#     Edge 40, Type (0, 1), BuildingBlock: UVAHIK_clean_linker_0, # of connection points: 2
#     Edge 41, Type (0, 1), BuildingBlock: UVAHIK_clean_linker_0, # of connection points: 2
#     Edge 42, Type (0, 1), BuildingBlock: UVAHIK_clean_linker_0, # of connection points: 2
#     Edge 43, Type (0, 1), BuildingBlock: UVAHIK_clean_linker_0, # of connection points: 2
#     Edge 44, Type (0, 1), BuildingBlock: UVAHIK_clean_linker_0, # of connection points: 2
#     Edge 45, Type (0, 1), BuildingBlock: UVAHIK_clean_linker_0, # of connection points: 2
#     Edge 46, Type (0, 1), BuildingBlock: UVAHIK_clean_linker_0, # of connection points: 2
#     Edge 47, Type (0, 1), BuildingBlock: UVAHIK_clean_linker_0, # of connection points: 2
#     Edge 48, Type (0, 1), BuildingBlock: UVAHIK_clean_linker_0, # of connection points: 2
#     Edge 49, Type (0, 1), BuildingBlock: UVAHIK_clean_linker_0, # of connection points: 2
#     Edge 50, Type (0, 1), BuildingBlock: UVAHIK_clean_linker_0, # of connection points: 2
#     Edge 51, Type (0, 1), BuildingBlock: UVAHIK_clean_linker_0, # of connection points: 2
#     Edge 52, Type (0, 1), BuildingBlock: UVAHIK_clean_linker_0, # of connection points: 2
#     Edge 53, Type (0, 1), BuildingBlock: UVAHIK_clean_linker_0, # of connection points: 2
#     Edge 54, Type (0, 1), BuildingBlock: UVAHIK_clean_linker_0, # of connection points: 2
#     Edge 55, Type (0, 1), BuildingBlock: UVAHIK_clean_linker_0, # of connection points: 2
#     Edge 56, Type (0, 1), BuildingBlock: UVAHIK_clean_linker_0, # of connection points: 2
#     Edge 57, Type (0, 1), BuildingBlock: UVAHIK_clean_linker_0, # of connection points: 2
#     Edge 58, Type (0, 1), BuildingBlock: UVAHIK_clean_linker_0, # of connection points: 2
#     Edge 59, Type (0, 1), BuildingBlock: UVAHIK_clean_linker_0, # of connection points: 2
#     Edge 60, Type (0, 1), BuildingBlock: UVAHIK_clean_linker_0, # of connection points: 2
#     Edge 61, Type (0, 1), BuildingBlock: UVAHIK_clean_linker_0, # of connection points: 2
#     Edge 62, Type (0, 1), BuildingBlock: UVAHIK_clean_linker_0, # of connection points: 2
#     Edge 63, Type (0, 1), BuildingBlock: UVAHIK_clean_linker_0, # of connection points: 2
#     Edge 64, Type (0, 1), BuildingBlock: UVAHIK_clean_linker_0, # of connection points: 2
#     Edge 65, Type (0, 1), BuildingBlock: UVAHIK_clean_linker_0, # of connection points: 2
#     Edge 66, Type (0, 1), BuildingBlock: UVAHIK_clean_linker_0, # of connection points: 2
#     Edge 67, Type (0, 1), BuildingBlock: UVAHIK_clean_linker_0, # of connection points: 2
#     Edge 68, Type (0, 1), BuildingBlock: UVAHIK_clean_linker_0, # of connection points: 2
#     Edge 69, Type (0, 1), BuildingBlock: UVAHIK_clean_linker_0, # of connection points: 2
#     Edge 70, Type (0, 1), BuildingBlock: UVAHIK_clean_linker_0, # of connection points: 2
#     Edge 71, Type (0, 1), BuildingBlock: UVAHIK_clean_linker_0, # of connection points: 2
#     Edge 72, Type (0, 1), BuildingBlock: UVAHIK_clean_linker_0, # of connection points: 2
#     Edge 73, Type (0, 1), BuildingBlock: UVAHIK_clean_linker_0, # of connection points: 2
#     Edge 74, Type (0, 1), BuildingBlock: UVAHIK_clean_linker_0, # of connection points: 2
#     Edge 75, Type (0, 1), BuildingBlock: UVAHIK_clean_linker_0, # of connection points: 2
#     Edge 76, Type (0, 1), BuildingBlock: UVAHIK_clean_linker_0, # of connection points: 2
#     Edge 77, Type (0, 1), BuildingBlock: UVAHIK_clean_linker_0, # of connection points: 2
#     Edge 78, Type (0, 1), BuildingBlock: UVAHIK_clean_linker_0, # of connection points: 2
#     Edge 79, Type (0, 1), BuildingBlock: UVAHIK_clean_linker_0, # of connection points: 2
#     Edge 80, Type (0, 1), BuildingBlock: UVAHIK_clean_linker_0, # of connection points: 2
#     Edge 81, Type (0, 1), BuildingBlock: UVAHIK_clean_linker_0, # of connection points: 2
#     Edge 82, Type (0, 1), BuildingBlock: UVAHIK_clean_linker_0, # of connection points: 2
#     Edge 83, Type (0, 1), BuildingBlock: UVAHIK_clean_linker_0, # of connection points: 2
#     Edge 84, Type (0, 1), BuildingBlock: UVAHIK_clean_linker_0, # of connection points: 2
#     Edge 85, Type (0, 1), BuildingBlock: UVAHIK_clean_linker_0, # of connection points: 2
#     Edge 86, Type (0, 1), BuildingBlock: UVAHIK_clean_linker_0, # of connection points: 2
#     Edge 87, Type (0, 1), BuildingBlock: UVAHIK_clean_linker_0, # of connection points: 2
#     Edge 88, Type (0, 1), BuildingBlock: UVAHIK_clean_linker_0, # of connection points: 2
#     Edge 89, Type (0, 1), BuildingBlock: UVAHIK_clean_linker_0, # of connection points: 2
#     Edge 90, Type (0, 1), BuildingBlock: UVAHIK_clean_linker_0, # of connection points: 2
#     Edge 91, Type (0, 1), BuildingBlock: UVAHIK_clean_linker_0, # of connection points: 2
#     Edge 92, Type (0, 1), BuildingBlock: UVAHIK_clean_linker_0, # of connection points: 2
#     Edge 93, Type (0, 1), BuildingBlock: UVAHIK_clean_linker_0, # of connection points: 2
#     Edge 94, Type (0, 1), BuildingBlock: UVAHIK_clean_linker_0, # of connection points: 2
#     Edge 95, Type (0, 1), BuildingBlock: UVAHIK_clean_linker_0, # of connection points: 2
#     Edge 96, Type (0, 1), BuildingBlock: UVAHIK_clean_linker_0, # of connection points: 2
#     Edge 97, Type (0, 1), BuildingBlock: UVAHIK_clean_linker_0, # of connection points: 2
#     Edge 98, Type (0, 1), BuildingBlock: UVAHIK_clean_linker_0, # of connection points: 2
#     Edge 99, Type (0, 1), BuildingBlock: UVAHIK_clean_linker_0, # of connection points: 2
#     Edge 100, Type (0, 1), BuildingBlock: UVAHIK_clean_linker_0, # of connection points: 2
#     Edge 101, Type (0, 1), BuildingBlock: UVAHIK_clean_linker_0, # of connection points: 2
#     Edge 102, Type (0, 1), BuildingBlock: UVAHIK_clean_linker_0, # of connection points: 2
#     Edge 103, Type (0, 1), BuildingBlock: UVAHIK_clean_linker_0, # of connection points: 2
#     Edge 104, Type (0, 1), BuildingBlock: UVAHIK_clean_linker_0, # of connection points: 2
#     Edge 105, Type (0, 1), BuildingBlock: UVAHIK_clean_linker_0, # of connection points: 2
#     Edge 106, Type (0, 1), BuildingBlock: UVAHIK_clean_linker_0, # of connection points: 2
#     Edge 107, Type (0, 1), BuildingBlock: UVAHIK_clean_linker_0, # of connection points: 2
# Relax obj value: 0.076
# Max RMSD: 0.284
# Mean RMSD: 0.115
data_MOF--net-ptr--node1-TATPOV_clean_sbu_0--node2-NAHDIM_clean_linker_0--edge1-UVAHIK_clean_linker_0
_symmetry_space_group_name_H-M    P1
_symmetry_Int_Tables_number       1
_symmetry_cell_setting            triclinic
loop_
_symmetry_equiv_pos_as_xyz
'x, y, z'
_cell_length_a     113.32863
_cell_length_b     114.63821
_cell_length_c     95.722654
_cell_angle_alpha  90.555086
_cell_angle_beta   90.775636
_cell_angle_gamma 121.65674
loop_
_atom_site_label
_atom_site_type_symbol
_atom_site_fract_x
_atom_site_fract_y
_atom_site_fract_z
_atom_type_partial_charge
Zn0 Zn 0.97352 0.34451 0.01639 0.0
Zn1 Zn 0.99823 0.34692 0.01916 0.0
O2 O 0.98449 0.32696 0.01244 0.0
O3 O 0.96402 0.32466 0.01046 0.0
O4 O 0.01546 0.34648 0.02386 0.0
O5 O 0.97399 0.35042 0.03636 0.0
O6 O 0.99486 0.35361 0.03793 0.0
C7 C 0.97159 0.31962 0.00935 0.0
C8 C 0.99512 0.36448 0.99794 0.0
O9 O 0.00299 0.36088 0.00354 0.0
O10 O 0.98267 0.35908 0.00176 0.0
C11 C 0.01894 0.33935 0.01679 0.0
O12 O 0.01197 0.33317 0.00522 0.0
C13 C 0.98507 0.3544 0.04333 0.0
Zn14 Zn 0.65262 0.62754 0.00274 0.0
Zn15 Zn 0.65474 0.64985 0.01516 0.0
O16 O 0.67414 0.65648 0.00755 0.0
O17 O 0.67318 0.63804 0.99922 0.0
O18 O 0.65752 0.66682 0.02499 0.0
O19 O 0.64495 0.61713 0.02064 0.0
O20 O 0.64839 0.63596 0.03096 0.0
C21 C 0.68003 0.65081 0.00186 0.0
C22 C 0.6352 0.63622 0.98995 0.0
O23 O 0.63961 0.6449 1.00008 0.0
O24 O 0.63963 0.62818 0.98848 0.0
C25 C 0.66521 0.6786 0.01984 0.0
O26 O 0.67075 0.67956 0.00761 0.0
C27 C 0.64455 0.62335 0.03146 0.0
Zn28 Zn 0.34465 0.97697 0.00925 0.0
Zn29 Zn 0.34789 0.00184 0.00516 0.0
O30 O 0.32704 0.98825 0.00805 0.0
O31 O 0.32378 0.96765 0.00975 0.0
O32 O 0.34826 0.0192 0.00058 0.0
O33 O 0.35471 0.97889 0.99121 0.0
O34 O 0.35682 0.99888 0.98806 0.0
C35 C 0.31893 0.9754 0.00959 0.0
C36 C 0.36135 0.99791 0.03075 0.0
O37 O 0.35972 0.00599 0.02305 0.0
O38 O 0.35575 0.98535 0.02732 0.0
C39 C 0.3404 0.02217 0.00699 0.0
O40 O 0.33301 0.01446 0.01734 0.0
C41 C 0.35898 0.98955 0.98402 0.0
Zn42 Zn 0.03458 0.66537 0.02018 0.0
Zn43 Zn 0.00843 0.65974 0.01407 0.0
O44 O 0.02014 0.68008 0.01942 0.0
O45 O 0.04154 0.68551 0.02375 0.0
O46 O 0.99057 0.65824 0.00805 0.0
O47 O 0.03506 0.6582 0.00075 0.0
O48 O 0.01388 0.6536 0.99653 0.0
C49 C 0.03263 0.68897 0.02287 0.0
C50 C 0.01241 0.64515 0.03816 0.0
O51 O 0.00419 0.64686 0.03044 0.0
O52 O 0.02534 0.65184 0.03597 0.0
C53 C 0.98569 0.66399 0.01537 0.0
O54 O 0.99149 0.66939 0.02761 0.0
C55 C 0.02453 0.65352 0.99264 0.0
Zn56 Zn 0.34751 0.3791 0.0218 0.0
Zn57 Zn 0.34985 0.35888 0.00978 0.0
O58 O 0.32993 0.3496 0.01684 0.0
O59 O 0.32736 0.36572 0.02613 0.0
O60 O 0.34937 0.34272 0.00065 0.0
O61 O 0.35274 0.38887 0.00328 0.0
O62 O 0.35466 0.37238 0.9938 0.0
C63 C 0.32239 0.35323 0.0229 0.0
C64 C 0.36845 0.37497 0.03486 0.0
O65 O 0.36487 0.36583 0.02529 0.0
O66 O 0.36254 0.38176 0.03562 0.0
C67 C 0.34481 0.33188 0.00769 0.0
O68 O 0.34178 0.3321 0.02086 0.0
C69 C 0.35537 0.38381 0.99282 0.0
Zn70 Zn 0.66539 0.03338 0.00735 0.0
Zn71 Zn 0.65945 0.00763 0.01308 0.0
O72 O 0.67997 0.01872 0.00795 0.0
O73 O 0.68564 0.03995 0.00439 0.0
O74 O 0.6575 0.98989 0.01909 0.0
O75 O 0.65857 0.03459 0.02653 0.0
O76 O 0.65387 0.01374 0.03063 0.0
C77 C 0.689 0.03103 0.00495 0.0
C78 C 0.64439 0.01129 0.9888 0.0
O79 O 0.64603 0.00322 0.99651 0.0
O80 O 0.65146 0.02414 0.99116 0.0
C81 C 0.66302 0.98451 0.01218 0.0
O82 O 0.66871 0.98982 0.00019 0.0
C83 C 0.65397 0.02444 0.03454 0.0
Zn84 Zn 0.64302 0.6898 0.32921 0.0
Zn85 Zn 0.66354 0.68833 0.34169 0.0
O86 O 0.65146 0.66984 0.33107 0.0
O87 O 0.6351 0.6712 0.32004 0.0
O88 O 0.6778 0.68552 0.35138 0.0
O89 O 0.63638 0.69164 0.34806 0.0
O90 O 0.65429 0.69223 0.35807 0.0
C91 C 0.64086 0.66456 0.3229 0.0
C92 C 0.67068 0.71121 0.32122 0.0
O93 O 0.6747 0.70499 0.3291 0.0
O94 O 0.65788 0.70685 0.31978 0.0
C95 C 0.68305 0.67968 0.3448 0.0
O96 O 0.67972 0.6764 0.33153 0.0
C97 C 0.64348 0.69297 0.35895 0.0
Zn98 Zn 0.29449 0.95085 0.34912 0.0
Zn99 Zn 0.30429 0.97582 0.36029 0.0
O100 O 0.32144 0.97715 0.35144 0.0
O101 O 0.3135 0.9566 0.34227 0.0
O102 O 0.3119 0.99454 0.36933 0.0
O103 O 0.28815 0.94225 0.36766 0.0
O104 O 0.29637 0.96276 0.37716 0.0
C105 C 0.32346 0.96875 0.34465 0.0
C106 C 0.28137 0.96431 0.33754 0.0
O107 O 0.28982 0.97422 0.34562 0.0
O108 O 0.28126 0.95322 0.33728 0.0
C109 C 0.32132 0.00543 0.3637 0.0
O110 O 0.32605 0.00453 0.35153 0.0
C111 C 0.29022 0.94977 0.37829 0.0
Zn112 Zn 0.02204 0.31208 0.35948 0.0
Zn113 Zn 0.02375 0.33469 0.34878 0.0
O114 O 0.0038 0.32347 0.35592 0.0
O115 O 0.00209 0.30488 0.36441 0.0
O116 O 0.0243 0.35072 0.33966 0.0
O117 O 0.02709 0.30775 0.34067 0.0
O118 O 0.02838 0.32621 0.33241 0.0
C119 C 0.99673 0.31197 0.36187 0.0
C120 C 0.04277 0.3376 0.37328 0.0
O121 O 0.03881 0.34309 0.36434 0.0
O122 O 0.03722 0.3247 0.37333 0.0
C123 C 0.02642 0.36137 0.34622 0.0
O124 O 0.02859 0.36233 0.35981 0.0
C125 C 0.02939 0.31575 0.33064 0.0
Zn126 Zn 0.70174 0.98082 0.37062 0.0
Zn127 Zn 0.67929 0.97866 0.35734 0.0
O128 O 0.69075 0.99848 0.36481 0.0
O129 O 0.70968 0.00105 0.37458 0.0
O130 O 0.66385 0.97904 0.34712 0.0
O131 O 0.70628 0.9747 0.35256 0.0
O132 O 0.68822 0.97336 0.34199 0.0
C133 C 0.70239 0.006 0.37112 0.0
C134 C 0.67508 0.96091 0.38254 0.0
O135 O 0.67001 0.96426 0.37251 0.0
O136 O 0.68812 0.96663 0.38409 0.0
C137 C 0.65129 0.96926 0.34586 0.0
O138 O 0.64746 0.9574 0.35147 0.0
C139 C 0.69878 0.97217 0.34166 0.0
Zn140 Zn 0.01806 0.72207 0.36594 0.0
Zn141 Zn 0.01885 0.70121 0.3535 0.0
O142 O 0.9988 0.6927 0.36011 0.0
O143 O 0.99751 0.70968 0.36923 0.0
O144 O 0.01764 0.68497 0.34365 0.0
O145 O 0.02461 0.73267 0.34802 0.0
O146 O 0.02499 0.71551 0.33801 0.0
C147 C 0.99178 0.69711 0.3659 0.0
C148 C 0.03713 0.71557 0.37934 0.0
O149 O 0.03326 0.70669 0.36945 0.0
O150 O 0.03204 0.7231 0.3802 0.0
C151 C 0.02752 0.68289 0.34218 0.0
O152 O 0.03988 0.69188 0.34738 0.0
C153 C 0.02683 0.72746 0.33741 0.0
Zn154 Zn 0.31078 0.35885 0.33386 0.0
Zn155 Zn 0.3094 0.33697 0.3457 0.0
O156 O 0.32941 0.34887 0.33873 0.0
O157 O 0.33085 0.36693 0.3292 0.0
O158 O 0.3104 0.3217 0.35485 0.0
O159 O 0.30543 0.36341 0.35225 0.0
O160 O 0.3042 0.34542 0.36179 0.0
C161 C 0.33642 0.36021 0.33248 0.0
C162 C 0.29052 0.33286 0.32059 0.0
O163 O 0.29436 0.3277 0.33005 0.0
O164 O 0.29602 0.34573 0.32004 0.0
C165 C 0.31563 0.31596 0.34807 0.0
O166 O 0.31909 0.31937 0.33503 0.0
C167 C 0.30309 0.35591 0.36274 0.0
Zn168 Zn 0.30897 0.02487 0.6595 0.0
Zn169 Zn 0.33051 0.02521 0.67225 0.0
O170 O 0.31923 0.00594 0.66301 0.0
O171 O 0.30176 0.00562 0.65227 0.0
O172 O 0.34643 0.02525 0.68207 0.0
O173 O 0.30305 0.0282 0.67814 0.0
O174 O 0.32093 0.02892 0.68838 0.0
C175 C 0.30822 0.99971 0.65541 0.0
C176 C 0.3356 0.04635 0.64993 0.0
O177 O 0.34022 0.04119 0.65855 0.0
O178 O 0.32266 0.04122 0.64842 0.0
C179 C 0.35205 0.01915 0.67683 0.0
O180 O 0.34748 0.01277 0.66468 0.0
C181 C 0.3102 0.02981 0.68907 0.0
Zn182 Zn 0.9808 0.28316 0.66446 0.0
Zn183 Zn 0.98118 0.30485 0.67605 0.0
O184 O 0.00064 0.31299 0.6677 0.0
O185 O 1.0001 0.29545 0.65743 0.0
O186 O 0.98284 0.32139 0.68577 0.0
O187 O 0.97829 0.27475 0.6834 0.0
O188 O 0.97613 0.29135 0.69225 0.0
C189 C 0.00654 0.30812 0.66053 0.0
C190 C 0.95972 0.28785 0.65318 0.0
O191 O 0.96551 0.29834 0.66133 0.0
O192 O 0.96406 0.27966 0.65289 0.0
C193 C 0.97773 0.32831 0.68145 0.0
O194 O 0.9704 0.32463 0.66973 0.0
C195 C 0.97588 0.28018 0.69366 0.0
Zn196 Zn 0.68772 0.64779 0.68868 0.0
Zn197 Zn 0.68933 0.67005 0.67778 0.0
O198 O 0.66932 0.65826 0.68495 0.0
O199 O 0.66757 0.63951 0.69297 0.0
O200 O 0.68877 0.68562 0.66883 0.0
O201 O 0.69319 0.64356 0.67026 0.0
O202 O 0.69477 0.66198 0.66146 0.0
C203 C 0.66217 0.64655 0.69051 0.0
C204 C 0.70802 0.67349 0.70265 0.0
O205 O 0.70426 0.67893 0.69344 0.0
O206 O 0.70243 0.66058 0.70283 0.0
C207 C 0.68418 0.69199 0.67555 0.0
O208 O 0.68067 0.68885 0.68863 0.0
C209 C 0.69579 0.65148 0.66009 0.0
Zn210 Zn 0.36645 0.31864 0.70208 0.0
Zn211 Zn 0.34435 0.3177 0.68946 0.0
O212 O 0.35672 0.33731 0.69737 0.0
O213 O 0.37531 0.33886 0.70679 0.0
O214 O 0.32927 0.31923 0.67986 0.0
O215 O 0.37044 0.31264 0.68363 0.0
O216 O 0.35254 0.31206 0.6736 0.0
C217 C 0.36842 0.34433 0.7037 0.0
C218 C 0.33961 0.29922 0.71408 0.0
O219 O 0.33467 0.30305 0.70436 0.0
O220 O 0.3526 0.30446 0.71537 0.0
C221 C 0.32358 0.3245 0.68666 0.0
O222 O 0.32688 0.32764 0.69996 0.0
C223 C 0.36284 0.31048 0.6729 0.0
Zn224 Zn 0.69001 0.05565 0.69297 0.0
Zn225 Zn 0.68683 0.03223 0.68237 0.0
O226 O 0.66791 0.02644 0.69089 0.0
O227 O 0.67 0.04559 0.69862 0.0
O228 O 0.68315 0.01448 0.67361 0.0
O229 O 0.69523 0.06417 0.67393 0.0
O230 O 0.69247 0.04495 0.66545 0.0
C231 C 0.66272 0.03273 0.69675 0.0
C232 C 0.70826 0.04782 0.70575 0.0
O233 O 0.70256 0.03786 0.69693 0.0
O234 O 0.70459 0.05653 0.70619 0.0
C235 C 0.67656 0.00324 0.68005 0.0
O236 O 0.67277 0.00336 0.69294 0.0
C237 C 0.69546 0.05722 0.66369 0.0
Zn238 Zn 0.97782 0.69717 0.66067 0.0
Zn239 Zn 0.97453 0.67394 0.67143 0.0
O240 O 0.99478 0.6848 0.66495 0.0
O241 O 0.99807 0.70434 0.65738 0.0
O242 O 0.97309 0.6572 0.68 0.0
O243 O 0.97197 0.70122 0.67904 0.0
O244 O 0.96987 0.68255 0.68781 0.0
C245 C 0.0027 0.69662 0.65989 0.0
C246 C 0.95706 0.67229 0.64597 0.0
O247 O 0.96001 0.66635 0.65535 0.0
O248 O 0.96336 0.68526 0.64585 0.0
C249 C 0.98276 0.65883 0.68824 0.0
O250 O 0.99323 0.67131 0.69101 0.0
C251 C 0.96918 0.69325 0.68921 0.0
C252 C 0.18846 0.2482 0.08913 0.0
C253 C 0.19148 0.26232 0.08474 0.0
C254 C 0.18402 0.27255 0.10262 0.0
C255 C 0.18898 0.28444 0.11076 0.0
C256 C 0.17988 0.28734 0.1175 0.0
C257 C 0.16542 0.27777 0.1165 0.0
C258 C 0.16031 0.26561 0.10836 0.0
C259 C 0.16966 0.26318 0.10138 0.0
C260 C 0.18577 0.30063 0.12572 0.0
C261 C 0.14497 0.25511 0.10715 0.0
C262 C 0.08902 0.29913 0.07336 0.0
C263 C 0.09573 0.29265 0.08078 0.0
C264 C 0.11494 0.29819 0.09692 0.0
C265 C 0.11017 0.28447 0.10009 0.0
C266 C 0.11798 0.28113 0.10881 0.0
C267 C 0.13089 0.29169 0.11442 0.0
C268 C 0.13571 0.30551 0.11132 0.0
C269 C 0.12761 0.30858 0.10267 0.0
C270 C 0.11246 0.26628 0.112 0.0
C271 C 0.14944 0.317 0.11711 0.0
C272 C 0.11032 0.29707 0.20362 0.0
C273 C 0.10411 0.28366 0.19811 0.0
C274 C 0.11208 0.27928 0.19137 0.0
C275 C 0.12651 0.28851 0.19006 0.0
C276 C 0.13284 0.30187 0.19597 0.0
C277 C 0.12466 0.30591 0.20282 0.0
C278 C 0.10509 0.26481 0.18558 0.0
C279 C 0.14822 0.31194 0.19485 0.0
C280 C 0.19145 0.2437 0.20667 0.0
C281 C 0.19108 0.25662 0.20984 0.0
C282 C 0.17104 0.25885 0.20568 0.0
C283 C 0.15684 0.25068 0.20267 0.0
C284 C 0.14982 0.25594 0.19545 0.0
C285 C 0.15718 0.26983 0.19146 0.0
C286 C 0.17139 0.27837 0.19521 0.0
C287 C 0.1782 0.27277 0.20223 0.0
C288 C 0.13463 0.24657 0.19178 0.0
C289 C 0.17944 0.29335 0.19159 0.0
C290 C 0.15572 0.28043 0.12417 0.0
C291 C 0.14829 0.28497 0.11662 0.0
C292 C 0.13938 0.28813 0.12329 0.0
C293 C 0.1382 0.28723 0.13799 0.0
C294 C 0.12983 0.29091 0.14512 0.0
C295 C 0.12884 0.2901 0.15959 0.0
C296 C 0.13594 0.28528 0.16748 0.0
C297 C 0.13492 0.28431 0.18219 0.0
C298 C 0.142 0.27934 0.18969 0.0
C299 C 0.15012 0.27525 0.1829 0.0
C300 C 0.15135 0.27623 0.1682 0.0
C301 C 0.15938 0.27216 0.161 0.0
C302 C 0.16078 0.27346 0.14659 0.0
C303 C 0.1541 0.27877 0.13878 0.0
C304 C 0.14554 0.28247 0.14574 0.0
C305 C 0.14428 0.28133 0.16049 0.0
C306 C 0.0911 0.30864 0.19475 0.0
C307 C 0.08985 0.2989 0.20626 0.0
O308 O 0.19347 0.27042 0.09644 0.0
O309 O 0.17747 0.25296 0.21184 0.0
O310 O 0.10295 0.30171 0.21013 0.0
O311 O 0.10767 0.30177 0.08839 0.0
H312 H 0.18252 0.26087 0.07831 0.0
H313 H 0.17869 0.24279 0.09502 0.0
H314 H 0.19695 0.24917 0.09594 0.0
H315 H 0.18726 0.24186 0.07975 0.0
H316 H 0.20008 0.29158 0.11167 0.0
H317 H 0.1657 0.25384 0.09524 0.0
H318 H 0.17984 0.30562 0.12334 0.0
H319 H 0.19687 0.30791 0.12348 0.0
H320 H 0.1849 0.29849 0.13707 0.0
H321 H 0.1428 0.24546 0.10193 0.0
H322 H 0.13979 0.25939 0.10099 0.0
H323 H 0.14033 0.25268 0.11767 0.0
H324 H 0.09705 0.28529 0.07429 0.0
H325 H 0.0899 0.29741 0.06191 0.0
H326 H 0.09692 0.31047 0.07325 0.0
H327 H 0.06993 0.29088 0.0831 0.0
H328 H 0.10036 0.27628 0.09581 0.0
H329 H 0.13122 0.31913 0.10023 0.0
H330 H 0.11193 0.26487 0.12348 0.0
H331 H 0.11964 0.26327 0.10795 0.0
H332 H 0.10199 0.2593 0.10729 0.0
H333 H 0.15183 0.32721 0.11358 0.0
H334 H 0.15787 0.31542 0.1138 0.0
H335 H 0.14935 0.31692 0.1287 0.0
H336 H 0.08329 0.28824 0.20212 0.0
H337 H 0.09313 0.27647 0.19927 0.0
H338 H 0.12938 0.31615 0.20733 0.0
H339 H 0.10581 0.26503 0.17402 0.0
H340 H 0.09398 0.25857 0.18834 0.0
H341 H 0.11048 0.25972 0.18959 0.0
H342 H 0.1515 0.32208 0.19968 0.0
H343 H 0.15113 0.31339 0.18368 0.0
H344 H 0.15402 0.30778 0.20007 0.0
H345 H 0.19529 0.26306 0.20041 0.0
H346 H 0.20232 0.24637 0.20537 0.0
H347 H 0.18557 0.23878 0.19679 0.0
H348 H 0.18668 0.23617 0.21515 0.0
H349 H 0.15136 0.24 0.20559 0.0
H350 H 0.18909 0.27929 0.20501 0.0
H351 H 0.13295 0.24652 0.18032 0.0
H352 H 0.12858 0.25044 0.1969 0.0
H353 H 0.13055 0.23587 0.1951 0.0
H354 H 0.18991 0.29895 0.19666 0.0
H355 H 0.17367 0.29829 0.19481 0.0
H356 H 0.18066 0.29434 0.1801 0.0
H357 H 0.14937 0.28597 0.10538 0.0
H358 H 0.12406 0.29461 0.13959 0.0
H359 H 0.12236 0.29323 0.16451 0.0
H360 H 0.14114 0.27861 0.20097 0.0
H361 H 0.16477 0.26801 0.16643 0.0
H362 H 0.16714 0.2702 0.14164 0.0
H363 H 0.0977 0.31949 0.19839 0.0
H364 H 0.08068 0.30658 0.19164 0.0
H365 H 0.09586 0.30708 0.18541 0.0
C366 C 0.72604 0.92824 0.10141 0.0
C367 C 0.71503 0.91581 0.09277 0.0
C368 C 0.70753 0.89659 0.10886 0.0
C369 C 0.6967 0.8873 0.11721 0.0
C370 C 0.69785 0.87776 0.12525 0.0
C371 C 0.71024 0.87759 0.12499 0.0
C372 C 0.72125 0.88692 0.11653 0.0
C373 C 0.71978 0.89628 0.1085 0.0
C374 C 0.68585 0.86788 0.13407 0.0
C375 C 0.73461 0.88701 0.11604 0.0
C376 C 0.7013 0.78467 0.08601 0.0
C377 C 0.70728 0.79825 0.09318 0.0
C378 C 0.70164 0.80996 0.11087 0.0
C379 C 0.71508 0.82167 0.11186 0.0
C380 C 0.7178 0.83315 0.11992 0.0
C381 C 0.70686 0.83296 0.12707 0.0
C382 C 0.69339 0.82111 0.12632 0.0
C383 C 0.69098 0.80971 0.11829 0.0
C384 C 0.73234 0.84556 0.12064 0.0
C385 C 0.68151 0.82058 0.13383 0.0
C386 C 0.7228 0.82411 0.21895 0.0
C387 C 0.73506 0.83306 0.21192 0.0
C388 C 0.73577 0.84321 0.20322 0.0
C389 C 0.72399 0.84433 0.20145 0.0
C390 C 0.71165 0.8353 0.20848 0.0
C391 C 0.71125 0.82532 0.21715 0.0
C392 C 0.74909 0.85274 0.19589 0.0
C393 C 0.69889 0.8362 0.20684 0.0
C394 C 0.74715 0.95085 0.20632 0.0
C395 C 0.73762 0.93671 0.21246 0.0
C396 C 0.74052 0.91716 0.20902 0.0
C397 C 0.75049 0.91431 0.20475 0.0
C398 C 0.74663 0.90144 0.19904 0.0
C399 C 0.73241 0.89109 0.19787 0.0
C400 C 0.72229 0.89367 0.20294 0.0
C401 C 0.72645 0.90671 0.20844 0.0
C402 C 0.7577 0.899 0.19392 0.0
C403 C 0.70708 0.88271 0.2023 0.0
C404 C 0.71167 0.86767 0.13359 0.0
C405 C 0.70857 0.85531 0.12727 0.0
C406 C 0.70947 0.84541 0.1348 0.0
C407 C 0.71325 0.8477 0.14916 0.0
C408 C 0.71384 0.83779 0.15717 0.0
C409 C 0.71744 0.84011 0.17133 0.0
C410 C 0.72086 0.85254 0.17796 0.0
C411 C 0.72451 0.855 0.19235 0.0
C412 C 0.72817 0.8676 0.19853 0.0
C413 C 0.72814 0.87784 0.19076 0.0
C414 C 0.7242 0.87545 0.17643 0.0
C415 C 0.72383 0.88545 0.16835 0.0
C416 C 0.71969 0.88292 0.15434 0.0
C417 C 0.71596 0.87037 0.14781 0.0
C418 C 0.71658 0.86027 0.15566 0.0
C419 C 0.72056 0.86276 0.17002 0.0
C420 C 0.72787 0.80191 0.2429 0.0
C421 C 0.73175 0.81133 0.2309 0.0
O422 O 0.70569 0.90565 0.10149 0.0
O423 O 0.74488 0.93007 0.21364 0.0
O424 O 0.72163 0.81425 0.2276 0.0
O425 O 0.69855 0.79882 0.10282 0.0
H426 H 0.7202 0.91178 0.08624 0.0
H427 H 0.73212 0.92538 0.10817 0.0
H428 H 0.72111 0.93234 0.1082 0.0
H429 H 0.73336 0.93647 0.09438 0.0
H430 H 0.68728 0.88757 0.11742 0.0
H431 H 0.72829 0.90333 0.10208 0.0
H432 H 0.68283 0.85718 0.13144 0.0
H433 H 0.67666 0.86884 0.13257 0.0
H434 H 0.68906 0.86979 0.14527 0.0
H435 H 0.74251 0.89541 0.10957 0.0
H436 H 0.73249 0.87708 0.11164 0.0
H437 H 0.73896 0.88816 0.12678 0.0
H438 H 0.71203 0.80721 0.0861 0.0
H439 H 0.71433 0.77789 0.0927 0.0
H440 H 0.70014 0.78659 0.07471 0.0
H441 H 0.68983 0.77883 0.08798 0.0
H442 H 0.7235 0.82197 0.10635 0.0
H443 H 0.68067 0.80062 0.11755 0.0
H444 H 0.7358 0.84844 0.13172 0.0
H445 H 0.73244 0.85437 0.11579 0.0
H446 H 0.73988 0.8438 0.11519 0.0
H447 H 0.67164 0.81059 0.13224 0.0
H448 H 0.68003 0.82887 0.13006 0.0
H449 H 0.68398 0.82239 0.1452 0.0
H450 H 0.73561 0.80852 0.22158 0.0
H451 H 0.74407 0.8322 0.21322 0.0
H452 H 0.70186 0.81837 0.22263 0.0
H453 H 0.74718 0.85168 0.18441 0.0
H454 H 0.75739 0.85063 0.19843 0.0
H455 H 0.75279 0.86352 0.19891 0.0
H456 H 0.69003 0.82825 0.21283 0.0
H457 H 0.69574 0.83502 0.19563 0.0
H458 H 0.70127 0.84646 0.21046 0.0
H459 H 0.72868 0.93108 0.20497 0.0
H460 H 0.74155 0.95636 0.20511 0.0
H461 H 0.75059 0.94972 0.19585 0.0
H462 H 0.75647 0.95707 0.21317 0.0
H463 H 0.76134 0.92239 0.20548 0.0
H464 H 0.71871 0.9087 0.21228 0.0
H465 H 0.75585 0.89602 0.18266 0.0
H466 H 0.75719 0.89039 0.19967 0.0
H467 H 0.76829 0.9082 0.19533 0.0
H468 H 0.70065 0.88587 0.2079 0.0
H469 H 0.70542 0.87311 0.20691 0.0
H470 H 0.70346 0.88038 0.19122 0.0
H471 H 0.70551 0.85342 0.11629 0.0
H472 H 0.71139 0.82807 0.1526 0.0
H473 H 0.7176 0.83207 0.177 0.0
H474 H 0.731 0.86943 0.20956 0.0
H475 H 0.72664 0.89532 0.17278 0.0
H476 H 0.71952 0.89096 0.14868 0.0
H477 H 0.74256 0.8139 0.25848 0.0
H478 H 0.72688 0.79232 0.23838 0.0
H479 H 0.71638 0.79709 0.24434 0.0
C480 C 0.17479 0.91277 0.0642 0.0
C481 C 0.18708 0.91943 0.07466 0.0
C482 C 0.17731 0.90339 0.09423 0.0
C483 C 0.16801 0.90722 0.09868 0.0
C484 C 0.15827 0.89977 0.10897 0.0
C485 C 0.1579 0.88837 0.115 0.0
C486 C 0.16758 0.88482 0.11091 0.0
C487 C 0.17718 0.89242 0.1006 0.0
C488 C 0.14815 0.90388 0.11321 0.0
C489 C 0.16755 0.87278 0.1172 0.0
C490 C 0.05448 0.81487 0.09739 0.0
C491 C 0.06699 0.81485 0.09153 0.0
C492 C 0.08685 0.82594 0.10803 0.0
C493 C 0.09649 0.82373 0.11476 0.0
C494 C 0.1087 0.83462 0.12086 0.0
C495 C 0.111 0.84801 0.12072 0.0
C496 C 0.10119 0.85031 0.11405 0.0
C497 C 0.08928 0.83927 0.10763 0.0
C498 C 0.11911 0.83179 0.12743 0.0
C499 C 0.10323 0.86443 0.1138 0.0
C500 C 0.09889 0.83563 0.21212 0.0
C501 C 0.10914 0.83386 0.20627 0.0
C502 C 0.11963 0.84416 0.19821 0.0
C503 C 0.11981 0.85644 0.19594 0.0
C504 C 0.10983 0.85847 0.20233 0.0
C505 C 0.09956 0.84806 0.21049 0.0
C506 C 0.13041 0.84183 0.19198 0.0
C507 C 0.1098 0.87148 0.20023 0.0
C508 C 0.20922 0.95581 0.20191 0.0
C509 C 0.20241 0.94565 0.21375 0.0
C510 C 0.18843 0.92235 0.20332 0.0
C511 C 0.18756 0.90977 0.20202 0.0
C512 C 0.17598 0.89837 0.19562 0.0
C513 C 0.16497 0.89961 0.1904 0.0
C514 C 0.16577 0.91233 0.19162 0.0
C515 C 0.17754 0.92361 0.19795 0.0
C516 C 0.17553 0.88501 0.19438 0.0
C517 C 0.15418 0.91399 0.18618 0.0
C518 C 0.14679 0.87956 0.1248 0.0
C519 C 0.13452 0.86853 0.11908 0.0
C520 C 0.12362 0.85959 0.12757 0.0
C521 C 0.12496 0.8616 0.14224 0.0
C522 C 0.11419 0.85281 0.1511 0.0
C523 C 0.11583 0.85451 0.16554 0.0
C524 C 0.1282 0.86524 0.17168 0.0
C525 C 0.13009 0.86683 0.18636 0.0
C526 C 0.14217 0.87809 0.19213 0.0
C527 C 0.15264 0.88766 0.18359 0.0
C528 C 0.15127 0.8858 0.16889 0.0
C529 C 0.16193 0.8948 0.16002 0.0
C530 C 0.1605 0.89279 0.14557 0.0
C531 C 0.14833 0.88178 0.13945 0.0
C532 C 0.1374 0.87268 0.1482 0.0
C533 C 0.13894 0.8746 0.16293 0.0
C534 C 0.06817 0.80952 0.20647 0.0
C535 C 0.08043 0.81191 0.21566 0.0
O536 O 0.1864 0.90975 0.08375 0.0
O537 O 0.19997 0.9329 0.20969 0.0
O538 O 0.0884 0.82566 0.2196 0.0
O539 O 0.07528 0.81491 0.10233 0.0
H540 H 0.18696 0.92769 0.08071 0.0
H541 H 0.16483 0.90861 0.06967 0.0
H542 H 0.17452 0.90424 0.05831 0.0
H543 H 0.17562 0.92049 0.05669 0.0
H544 H 0.16812 0.91584 0.09407 0.0
H545 H 0.18447 0.88961 0.09721 0.0
H546 H 0.13743 0.89546 0.11047 0.0
H547 H 0.15015 0.91336 0.10802 0.0
H548 H 0.14875 0.90556 0.1247 0.0
H549 H 0.17619 0.87176 0.11341 0.0
H550 H 0.15758 0.86319 0.11454 0.0
H551 H 0.16839 0.87392 0.12877 0.0
H552 H 0.07297 0.82411 0.08505 0.0
H553 H 0.0476 0.81436 0.08871 0.0
H554 H 0.05796 0.82441 0.10357 0.0
H555 H 0.04843 0.80603 0.10433 0.0
H556 H 0.09451 0.81339 0.11502 0.0
H557 H 0.08183 0.8411 0.10256 0.0
H558 H 0.11879 0.83247 0.13897 0.0
H559 H 0.12978 0.83954 0.12421 0.0
H560 H 0.11694 0.82142 0.12454 0.0
H561 H 0.09394 0.86424 0.10963 0.0
H562 H 0.11215 0.87114 0.10713 0.0
H563 H 0.10569 0.86906 0.12449 0.0
H564 H 0.08658 0.80881 0.20944 0.0
H565 H 0.10909 0.82453 0.20809 0.0
H566 H 0.09175 0.84942 0.21529 0.0
H567 H 0.12888 0.84066 0.18046 0.0
H568 H 0.12983 0.83251 0.19607 0.0
H569 H 0.14097 0.85083 0.1942 0.0
H570 H 0.10106 0.8713 0.20556 0.0
H571 H 0.10907 0.87304 0.18889 0.0
H572 H 0.11969 0.88038 0.20433 0.0
H573 H 0.1925 0.94488 0.21639 0.0
H574 H 0.21132 0.96607 0.20517 0.0
H575 H 0.20222 0.95227 0.19255 0.0
H576 H 0.21913 0.95672 0.19899 0.0
H577 H 0.19604 0.90891 0.20609 0.0
H578 H 0.17814 0.93333 0.19857 0.0
H579 H 0.17362 0.88138 0.18331 0.0
H580 H 0.1668 0.87708 0.20053 0.0
H581 H 0.18529 0.88594 0.19821 0.0
H582 H 0.15587 0.92422 0.18888 0.0
H583 H 0.14415 0.90596 0.19052 0.0
H584 H 0.15332 0.91265 0.17464 0.0
H585 H 0.13346 0.86684 0.10784 0.0
H586 H 0.10441 0.84441 0.14698 0.0
H587 H 0.10724 0.84732 0.17183 0.0
H588 H 0.14347 0.87936 0.2034 0.0
H589 H 0.17154 0.90343 0.16415 0.0
H590 H 0.16906 0.89997 0.13925 0.0
H591 H 0.06163 0.79853 0.20328 0.0
H592 H 0.07204 0.81569 0.19687 0.0
H593 H 0.0617 0.8126 0.21214 0.0
C594 C 0.29706 0.1168 0.95402 0.0
C595 C 0.29565 0.10602 0.94338 0.0
C596 C 0.29818 0.11869 0.92199 0.0
C597 C 0.28432 0.11512 0.9204 0.0
C598 C 0.28071 0.12246 0.91148 0.0
C599 C 0.29119 0.13373 0.90415 0.0
C600 C 0.30511 0.13714 0.90545 0.0
C601 C 0.30837 0.1294 0.91419 0.0
C602 C 0.26571 0.11834 0.91013 0.0
C603 C 0.31658 0.14921 0.89795 0.0
C604 C 0.27161 0.18876 0.95989 0.0
C605 C 0.28265 0.19624 0.94887 0.0
C606 C 0.2777 0.18671 0.92541 0.0
C607 C 0.29086 0.1904 0.92076 0.0
C608 C 0.29239 0.18228 0.91077 0.0
C609 C 0.28051 0.1701 0.90556 0.0
C610 C 0.26717 0.16661 0.90996 0.0
C611 C 0.26594 0.17517 0.91965 0.0
C612 C 0.30675 0.18649 0.90613 0.0
C613 C 0.25427 0.15357 0.90491 0.0
C614 C 0.25719 0.17769 0.81783 0.0
C615 C 0.27141 0.1836 0.82073 0.0
C616 C 0.27643 0.17591 0.82683 0.0
C617 C 0.26697 0.16212 0.83041 0.0
C618 C 0.2527 0.15601 0.82701 0.0
C619 C 0.24803 0.16385 0.82055 0.0
C620 C 0.29179 0.18258 0.82967 0.0
C621 C 0.24231 0.14131 0.83053 0.0
C622 C 0.28232 0.08057 0.82353 0.0
C623 C 0.27798 0.08366 0.80947 0.0
C624 C 0.28229 0.10674 0.81449 0.0
C625 C 0.29245 0.12067 0.81395 0.0
C626 C 0.29103 0.13054 0.82122 0.0
C627 C 0.27894 0.12636 0.82896 0.0
C628 C 0.2683 0.11233 0.82904 0.0
C629 C 0.27015 0.10264 0.82196 0.0
C630 C 0.30257 0.1454 0.82086 0.0
C631 C 0.25505 0.10755 0.83678 0.0
C632 C 0.28765 0.14248 0.896 0.0
C633 C 0.28608 0.15211 0.90342 0.0
C634 C 0.28218 0.16037 0.8967 0.0
C635 C 0.27976 0.15905 0.88207 0.0
C636 C 0.27573 0.16712 0.87496 0.0
C637 C 0.27302 0.16548 0.86062 0.0
C638 C 0.27457 0.15594 0.85276 0.0
C639 C 0.27189 0.15423 0.83815 0.0
C640 C 0.27351 0.14462 0.83071 0.0
C641 C 0.27768 0.13655 0.83745 0.0
C642 C 0.28039 0.13811 0.85204 0.0
C643 C 0.28459 0.13015 0.85916 0.0
C644 C 0.28687 0.13149 0.87356 0.0
C645 C 0.28536 0.14105 0.88136 0.0
C646 C 0.28135 0.14934 0.87438 0.0
C647 C 0.27881 0.14782 0.85971 0.0
C648 C 0.24403 0.19971 0.81947 0.0
C649 C 0.25656 0.19853 0.81631 0.0
O650 O 0.30218 0.11228 0.93109 0.0
O651 O 0.28469 0.09772 0.80771 0.0
O652 O 0.25199 0.18508 0.81256 0.0
O653 O 0.27621 0.19388 0.93584 0.0
H654 H 0.28449 0.09846 0.94118 0.0
H655 H 0.29197 0.12214 0.94989 0.0
H656 H 0.30817 0.12453 0.95627 0.0
H657 H 0.29196 0.11188 0.96393 0.0
H658 H 0.27623 0.10666 0.92609 0.0
H659 H 0.31902 0.13203 0.91539 0.0
H660 H 0.26435 0.12626 0.9153 0.0
H661 H 0.25862 0.10832 0.91501 0.0
H662 H 0.26266 0.1177 0.89895 0.0
H663 H 0.32695 0.15088 0.90053 0.0
H664 H 0.31661 0.15866 0.90075 0.0
H665 H 0.31474 0.14754 0.88649 0.0
H666 H 0.28944 0.19189 0.94922 0.0
H667 H 0.27655 0.19054 0.97044 0.0
H668 H 0.26574 0.17756 0.95755 0.0
H669 H 0.26419 0.19232 0.95995 0.0
H670 H 0.29991 0.19953 0.92513 0.0
H671 H 0.25583 0.1725 0.92331 0.0
H672 H 0.30687 0.18547 0.89459 0.0
H673 H 0.30979 0.17961 0.91083 0.0
H674 H 0.31458 0.19722 0.90935 0.0
H675 H 0.24483 0.1518 0.91023 0.0
H676 H 0.25541 0.14465 0.90673 0.0
H677 H 0.25278 0.15405 0.8935 0.0
H678 H 0.26283 0.20145 0.82623 0.0
H679 H 0.27858 0.19422 0.81821 0.0
H680 H 0.23711 0.15935 0.81807 0.0
H681 H 0.29395 0.18445 0.84108 0.0
H682 H 0.29791 0.19253 0.82433 0.0
H683 H 0.29538 0.1757 0.8262 0.0
H684 H 0.23147 0.13842 0.82815 0.0
H685 H 0.24325 0.13962 0.84179 0.0
H686 H 0.24452 0.1344 0.82446 0.0
H687 H 0.26657 0.07908 0.80911 0.0
H688 H 0.27705 0.06933 0.82494 0.0
H689 H 0.27936 0.08489 0.83227 0.0
H690 H 0.29373 0.08514 0.82408 0.0
H691 H 0.30171 0.12375 0.80806 0.0
H692 H 0.26207 0.09194 0.82237 0.0
H693 H 0.30605 0.14949 0.83168 0.0
H694 H 0.29869 0.15149 0.81589 0.0
H695 H 0.31163 0.14688 0.81497 0.0
H696 H 0.247 0.09674 0.83412 0.0
H697 H 0.25083 0.11415 0.83436 0.0
H698 H 0.25724 0.10838 0.8482 0.0
H699 H 0.28778 0.15309 0.91467 0.0
H700 H 0.27451 0.17472 0.88043 0.0
H701 H 0.26972 0.17183 0.85577 0.0
H702 H 0.27139 0.14331 0.81953 0.0
H703 H 0.28605 0.12271 0.8537 0.0
H704 H 0.2899 0.12497 0.87849 0.0
H705 H 0.23676 0.19634 0.81032 0.0
H706 H 0.24745 0.21048 0.82232 0.0
H707 H 0.23836 0.19313 0.82841 0.0
C708 C 0.81943 0.05622 0.93502 0.0
C709 C 0.81661 0.06747 0.9393 0.0
C710 C 0.82321 0.08437 0.92082 0.0
C711 C 0.81803 0.09115 0.91326 0.0
C712 C 0.82692 0.10323 0.90616 0.0
C713 C 0.84131 0.10829 0.9061 0.0
C714 C 0.84662 0.10136 0.9136 0.0
C715 C 0.83753 0.08958 0.92104 0.0
C716 C 0.82089 0.11057 0.89876 0.0
C717 C 0.86188 0.10635 0.9137 0.0
C718 C 0.92066 0.20971 0.94743 0.0
C719 C 0.91453 0.19625 0.93995 0.0
C720 C 0.89384 0.18034 0.92594 0.0
C721 C 0.89878 0.17195 0.92159 0.0
C722 C 0.89069 0.16051 0.91275 0.0
C723 C 0.87746 0.15748 0.90808 0.0
C724 C 0.87253 0.166 0.91229 0.0
C725 C 0.8808 0.17732 0.92121 0.0
C726 C 0.89622 0.15159 0.90849 0.0
C727 C 0.8585 0.1631 0.90743 0.0
C728 C 0.90315 0.17988 0.8177 0.0
C729 C 0.90586 0.16988 0.82232 0.0
C730 C 0.89596 0.15855 0.82977 0.0
C731 C 0.88302 0.15706 0.83256 0.0
C732 C 0.88027 0.16713 0.82801 0.0
C733 C 0.89045 0.17849 0.82074 0.0
C734 C 0.89933 0.14811 0.83466 0.0
C735 C 0.86656 0.16583 0.83079 0.0
C736 C 0.80298 0.04729 0.81531 0.0
C737 C 0.80575 0.06163 0.81248 0.0
C738 C 0.82801 0.08301 0.81629 0.0
C739 C 0.84199 0.08765 0.81868 0.0
C740 C 0.85079 0.10007 0.8259 0.0
C741 C 0.84549 0.10818 0.83051 0.0
C742 C 0.83153 0.10391 0.82737 0.0
C743 C 0.82291 0.09134 0.82034 0.0
C744 C 0.86566 0.10437 0.82887 0.0
C745 C 0.82565 0.11251 0.8317 0.0
C746 C 0.85084 0.1208 0.89824 0.0
C747 C 0.85918 0.13301 0.90583 0.0
C748 C 0.86859 0.14512 0.89918 0.0
C749 C 0.86958 0.14521 0.88446 0.0
C750 C 0.87889 0.15722 0.87742 0.0
C751 C 0.87987 0.15716 0.86294 0.0
C752 C 0.87148 0.14512 0.85493 0.0
C753 C 0.87243 0.14494 0.84022 0.0
C754 C 0.86374 0.13284 0.83256 0.0
C755 C 0.85432 0.12073 0.83922 0.0
C756 C 0.85353 0.12062 0.85397 0.0
C757 C 0.84461 0.10849 0.86107 0.0
C758 C 0.84383 0.10849 0.87556 0.0
C759 C 0.8518 0.12064 0.88352 0.0
C760 C 0.86109 0.13293 0.87661 0.0
C761 C 0.86199 0.1329 0.86182 0.0
C762 C 0.92995 0.20281 0.79287 0.0
C763 C 0.92389 0.19206 0.80368 0.0
O764 O 0.81403 0.07274 0.92749 0.0
O765 O 0.81976 0.07045 0.81015 0.0
O766 O 0.91241 0.19082 0.81015 0.0
O767 O 0.90125 0.19137 0.93467 0.0
H768 H 0.82598 0.07561 0.94511 0.0
H769 H 0.82913 0.06065 0.92904 0.0
H770 H 0.81087 0.04831 0.92824 0.0
H771 H 0.82072 0.05135 0.94443 0.0
H772 H 0.80697 0.08705 0.91316 0.0
H773 H 0.84167 0.08438 0.92676 0.0
H774 H 0.8273 0.12178 0.90097 0.0
H775 H 0.81007 0.10677 0.90191 0.0
H776 H 0.82083 0.10895 0.88731 0.0
H777 H 0.86405 0.09881 0.91833 0.0
H778 H 0.86768 0.11606 0.9199 0.0
H779 H 0.86587 0.10852 0.90291 0.0
H780 H 0.91549 0.18833 0.94564 0.0
H781 H 0.93729 0.22302 0.93501 0.0
H782 H 0.9221 0.20759 0.95858 0.0
H783 H 0.91184 0.21125 0.94974 0.0
H784 H 0.90889 0.17418 0.92513 0.0
H785 H 0.87709 0.18387 0.92457 0.0
H786 H 0.89692 0.15144 0.89694 0.0
H787 H 0.88897 0.14089 0.91173 0.0
H788 H 0.90663 0.1552 0.91317 0.0
H789 H 0.85645 0.17108 0.91109 0.0
H790 H 0.85029 0.15302 0.91138 0.0
H791 H 0.85778 0.16246 0.89583 0.0
H792 H 0.93157 0.19221 0.81121 0.0
H793 H 0.91568 0.17086 0.82017 0.0
H794 H 0.88844 0.18624 0.81716 0.0
H795 H 0.89782 0.14671 0.84609 0.0
H796 H 0.91014 0.15113 0.83234 0.0
H797 H 0.89213 0.13807 0.82945 0.0
H798 H 0.86585 0.1743 0.82617 0.0
H799 H 0.86509 0.16582 0.84223 0.0
H800 H 0.85796 0.15591 0.82642 0.0
H801 H 0.80266 0.06475 0.82215 0.0
H802 H 0.79173 0.03996 0.81681 0.0
H803 H 0.80867 0.04759 0.82498 0.0
H804 H 0.80655 0.04353 0.80657 0.0
H805 H 0.84588 0.08126 0.81529 0.0
H806 H 0.81222 0.08805 0.81803 0.0
H807 H 0.86812 0.10656 0.84022 0.0
H808 H 0.87263 0.11395 0.82325 0.0
H809 H 0.86789 0.09642 0.82553 0.0
H810 H 0.81519 0.10864 0.827 0.0
H811 H 0.83268 0.12331 0.8286 0.0
H812 H 0.82485 0.11245 0.84325 0.0
H813 H 0.85844 0.13305 0.91712 0.0
H814 H 0.88555 0.16681 0.88303 0.0
H815 H 0.88727 0.16671 0.8581 0.0
H816 H 0.86449 0.1328 0.82127 0.0
H817 H 0.83816 0.09883 0.85552 0.0
H818 H 0.83684 0.09882 0.88043 0.0
H819 H 0.9407 0.21053 0.79694 0.0
H820 H 0.92574 0.20966 0.79474 0.0
H821 H 0.92634 0.19159 0.77417 0.0
C822 C 0.82736 0.73102 0.95486 0.0
C823 C 0.81633 0.72736 0.94334 0.0
C824 C 0.82725 0.72219 0.92405 0.0
C825 C 0.83809 0.7357 0.9217 0.0
C826 C 0.84909 0.73831 0.91303 0.0
C827 C 0.84917 0.72722 0.90652 0.0
C828 C 0.83792 0.71367 0.90832 0.0
C829 C 0.82707 0.71136 0.91702 0.0
C830 C 0.86084 0.75289 0.91111 0.0
C831 C 0.83759 0.7016 0.90145 0.0
C832 C 0.91772 0.73522 0.96494 0.0
C833 C 0.91437 0.72406 0.95396 0.0
C834 C 0.9118 0.73021 0.93052 0.0
C835 C 0.90046 0.71799 0.92513 0.0
C836 C 0.89171 0.7182 0.91477 0.0
C837 C 0.8943 0.73094 0.90987 0.0
C838 C 0.90609 0.74328 0.91492 0.0
C839 C 0.91485 0.74272 0.92506 0.0
C840 C 0.87942 0.70482 0.90942 0.0
C841 C 0.90909 0.75705 0.91008 0.0
C842 C 0.92653 0.74401 0.82351 0.0
C843 C 0.91524 0.73056 0.82506 0.0
C844 C 0.90275 0.72814 0.83062 0.0
C845 C 0.90156 0.73939 0.83466 0.0
C846 C 0.91269 0.75292 0.83247 0.0
C847 C 0.925 0.75503 0.8268 0.0
C848 C 0.89092 0.71359 0.83246 0.0
C849 C 0.9117 0.76514 0.83646 0.0
C850 C 0.81503 0.74564 0.81716 0.0
C851 C 0.81943 0.74087 0.80429 0.0
C852 C 0.83339 0.7324 0.81515 0.0
C853 C 0.83325 0.72053 0.81866 0.0
C854 C 0.8441 0.72119 0.82657 0.0
C855 C 0.85537 0.7341 0.83113 0.0
C856 C 0.85577 0.7462 0.82736 0.0
C857 C 0.84481 0.74525 0.81934 0.0
C858 C 0.84341 0.70808 0.83026 0.0
C859 C 0.86769 0.76012 0.83201 0.0
C860 C 0.86158 0.72961 0.89898 0.0
C861 C 0.87214 0.72984 0.90689 0.0
C862 C 0.8839 0.73135 0.90061 0.0
C863 C 0.8853 0.7328 0.88598 0.0
C864 C 0.89696 0.73428 0.87929 0.0
C865 C 0.89826 0.73579 0.86489 0.0
C866 C 0.88784 0.73563 0.85658 0.0
C867 C 0.88902 0.73706 0.84191 0.0
C868 C 0.87835 0.73659 0.83393 0.0
C869 C 0.86648 0.73487 0.84023 0.0
C870 C 0.86523 0.73369 0.85492 0.0
C871 C 0.85354 0.73219 0.86163 0.0
C872 C 0.85235 0.73092 0.87606 0.0
C873 C 0.86277 0.73108 0.88434 0.0
C874 C 0.87468 0.73267 0.87781 0.0
C875 C 0.87592 0.73401 0.86309 0.0
C876 C 0.95954 0.74735 0.82549 0.0
C877 C 0.94454 0.73856 0.82011 0.0
O878 O 0.8169 0.71902 0.93311 0.0
O879 O 0.82224 0.73086 0.80788 0.0
O880 O 0.93901 0.7468 0.81888 0.0
O881 O 0.91968 0.73015 0.94125 0.0
H882 H 0.81801 0.7369 0.93853 0.0
H883 H 0.83795 0.73722 0.95067 0.0
H884 H 0.82617 0.72158 0.9594 0.0
H885 H 0.8264 0.73717 0.96331 0.0
H886 H 0.83817 0.74422 0.92676 0.0
H887 H 0.81856 0.701 0.91875 0.0
H888 H 0.87047 0.75432 0.91599 0.0
H889 H 0.85871 0.76046 0.91587 0.0
H890 H 0.86276 0.75501 0.89981 0.0
H891 H 0.82785 0.69175 0.9035 0.0
H892 H 0.8465 0.70097 0.90538 0.0
H893 H 0.83866 0.70303 0.88999 0.0
H894 H 0.90285 0.71733 0.95321 0.0
H895 H 0.9135 0.73056 0.97521 0.0
H896 H 0.91291 0.74112 0.96174 0.0
H897 H 0.92911 0.74242 0.96609 0.0
H898 H 0.89837 0.7083 0.92919 0.0
H899 H 0.92375 0.75209 0.92924 0.0
H900 H 0.87849 0.70487 0.89786 0.0
H901 H 0.8698 0.70352 0.91384 0.0
H902 H 0.88018 0.6959 0.91243 0.0
H903 H 0.91845 0.76569 0.91535 0.0
H904 H 0.90008 0.75812 0.91215 0.0
H905 H 0.91068 0.7578 0.89863 0.0
H906 H 0.9389 0.73054 0.82805 0.0
H907 H 0.91614 0.72196 0.82197 0.0
H908 H 0.93369 0.76536 0.82531 0.0
H909 H 0.88898 0.71154 0.84377 0.0
H910 H 0.89308 0.70598 0.82785 0.0
H911 H 0.8813 0.71213 0.82752 0.0
H912 H 0.92126 0.77501 0.834 0.0
H913 H 0.90983 0.76502 0.84783 0.0
H914 H 0.90276 0.76454 0.83084 0.0
H915 H 0.82882 0.74975 0.79979 0.0
H916 H 0.81246 0.75341 0.81416 0.0
H917 H 0.82353 0.7504 0.82514 0.0
H918 H 0.80581 0.73683 0.82195 0.0
H919 H 0.82446 0.71067 0.8153 0.0
H920 H 0.84521 0.75456 0.81654 0.0
H921 H 0.84268 0.70681 0.84176 0.0
H922 H 0.85305 0.70859 0.82703 0.0
H923 H 0.83437 0.69892 0.8252 0.0
H924 H 0.8664 0.76857 0.82838 0.0
H925 H 0.87752 0.76169 0.82791 0.0
H926 H 0.86862 0.76067 0.8436 0.0
H927 H 0.87109 0.72863 0.91812 0.0
H928 H 0.90524 0.73435 0.88514 0.0
H929 H 0.90752 0.73699 0.86034 0.0
H930 H 0.87929 0.73759 0.82268 0.0
H931 H 0.84518 0.73198 0.85579 0.0
H932 H 0.84313 0.72979 0.88067 0.0
H933 H 0.96586 0.75576 0.81816 0.0
H934 H 0.96422 0.74098 0.82673 0.0
H935 H 0.95982 0.75197 0.83584 0.0
C936 C 0.84061 0.59468 0.38374 0.0
C937 C 0.8466 0.60651 0.39447 0.0
C938 C 0.8384 0.60533 0.41798 0.0
C939 C 0.8434 0.61924 0.42058 0.0
C940 C 0.83719 0.62328 0.43053 0.0
C941 C 0.82554 0.61316 0.4378 0.0
C942 C 0.82068 0.5991 0.43539 0.0
C943 C 0.82743 0.59541 0.42573 0.0
C944 C 0.84288 0.63835 0.43302 0.0
C945 C 0.80807 0.58795 0.44261 0.0
C946 C 0.74727 0.63487 0.40357 0.0
C947 C 0.75426 0.62832 0.41024 0.0
C948 C 0.77438 0.63394 0.42499 0.0
C949 C 0.76998 0.62023 0.42782 0.0
C950 C 0.77847 0.61699 0.43554 0.0
C951 C 0.79166 0.62764 0.44045 0.0
C952 C 0.79609 0.64144 0.4377 0.0
C953 C 0.78733 0.6444 0.43008 0.0
C954 C 0.77336 0.60217 0.43841 0.0
C955 C 0.81013 0.65302 0.44274 0.0
C956 C 0.77147 0.62539 0.53063 0.0
C957 C 0.76733 0.6128 0.52389 0.0
C958 C 0.77689 0.61093 0.51658 0.0
C959 C 0.79081 0.62191 0.51577 0.0
C960 C 0.79507 0.63452 0.52267 0.0
C961 C 0.78533 0.63606 0.53006 0.0
C962 C 0.77202 0.59727 0.50949 0.0
C963 C 0.80984 0.64642 0.522 0.0
C964 C 0.86614 0.58834 0.52601 0.0
C965 C 0.86373 0.5999 0.52992 0.0
C966 C 0.84219 0.59961 0.5261 0.0
C967 C 0.82815 0.59052 0.52295 0.0
C968 C 0.82009 0.59505 0.51657 0.0
C969 C 0.8262 0.60911 0.51356 0.0
C970 C 0.84024 0.6185 0.51738 0.0
C971 C 0.84812 0.61364 0.52359 0.0
C972 C 0.8051 0.58478 0.51279 0.0
C973 C 0.84695 0.63361 0.51471 0.0
C974 C 0.81774 0.61722 0.44696 0.0
C975 C 0.80913 0.62098 0.44044 0.0
C976 C 0.80089 0.62427 0.44821 0.0
C977 C 0.8011 0.62372 0.46295 0.0
C978 C 0.79272 0.62669 0.47106 0.0
C979 C 0.79271 0.62577 0.48554 0.0
C980 C 0.80105 0.62181 0.49246 0.0
C981 C 0.8007 0.62034 0.50713 0.0
C982 C 0.80921 0.6165 0.51371 0.0
C983 C 0.818 0.61388 0.506 0.0
C984 C 0.81838 0.61515 0.49129 0.0
C985 C 0.82697 0.61244 0.48316 0.0
C986 C 0.82698 0.61337 0.46867 0.0
C987 C 0.81828 0.61685 0.46172 0.0
C988 C 0.8098 0.61996 0.46972 0.0
C989 C 0.80982 0.61907 0.48451 0.0
C990 C 0.74056 0.61885 0.5258 0.0
C991 C 0.74836 0.61888 0.53903 0.0
O992 O 0.84372 0.60121 0.4078 0.0
O993 O 0.84965 0.59446 0.53149 0.0
O994 O 0.76252 0.62777 0.53764 0.0
O995 O 0.7665 0.63744 0.41739 0.0
H996 H 0.84118 0.61212 0.39238 0.0
H997 H 0.82916 0.58834 0.38465 0.0
H998 H 0.84485 0.58799 0.38549 0.0
H999 H 0.84303 0.59872 0.37297 0.0
H1000 H 0.85212 0.62694 0.41478 0.0
H1001 H 0.82373 0.5847 0.42368 0.0
H1002 H 0.83573 0.6411 0.42818 0.0
H1003 H 0.85328 0.64485 0.42845 0.0
H1004 H 0.84362 0.64071 0.44439 0.0
H1005 H 0.80451 0.57762 0.43812 0.0
H1006 H 0.7994 0.5898 0.44181 0.0
H1007 H 0.81054 0.58798 0.45386 0.0
H1008 H 0.7553 0.62103 0.40332 0.0
H1009 H 0.74766 0.63326 0.39201 0.0
H1010 H 0.75515 0.64621 0.40344 0.0
H1011 H 0.72864 0.62655 0.41421 0.0
H1012 H 0.75994 0.61199 0.42407 0.0
H1013 H 0.79064 0.65494 0.4279 0.0
H1014 H 0.77382 0.60075 0.44982 0.0
H1015 H 0.78023 0.59926 0.43332 0.0
H1016 H 0.76257 0.59512 0.4345 0.0
H1017 H 0.81218 0.66319 0.43948 0.0
H1018 H 0.81836 0.65153 0.43858 0.0
H1019 H 0.81081 0.65297 0.45432 0.0
H1020 H 0.74604 0.60831 0.54074 0.0
H1021 H 0.75668 0.60439 0.52411 0.0
H1022 H 0.78847 0.64572 0.53529 0.0
H1023 H 0.77234 0.59846 0.49798 0.0
H1024 H 0.76128 0.58933 0.51232 0.0
H1025 H 0.77905 0.5936 0.51234 0.0
H1026 H 0.81147 0.65563 0.52777 0.0
H1027 H 0.81267 0.64912 0.51093 0.0
H1028 H 0.81695 0.64345 0.52648 0.0
H1029 H 0.86763 0.60705 0.52099 0.0
H1030 H 0.8774 0.59244 0.52496 0.0
H1031 H 0.86087 0.5836 0.51583 0.0
H1032 H 0.8619 0.58024 0.53399 0.0
H1033 H 0.82363 0.57975 0.52514 0.0
H1034 H 0.85886 0.62083 0.52649 0.0
H1035 H 0.80321 0.58525 0.50146 0.0
H1036 H 0.79833 0.58737 0.51858 0.0
H1037 H 0.80207 0.57412 0.51529 0.0
H1038 H 0.85759 0.63972 0.51934 0.0
H1039 H 0.84055 0.63744 0.5191 0.0
H1040 H 0.84752 0.63529 0.50327 0.0
H1041 H 0.80867 0.62113 0.42911 0.0
H1042 H 0.78599 0.62966 0.4663 0.0
H1043 H 0.786 0.62813 0.49122 0.0
H1044 H 0.80877 0.61524 0.52495 0.0
H1045 H 0.83373 0.6095 0.4879 0.0
H1046 H 0.8338 0.61118 0.46295 0.0
H1047 H 0.7292 0.61198 0.52708 0.0
H1048 H 0.7436 0.61505 0.51666 0.0
H1049 H 0.74293 0.62935 0.52355 0.0
C1050 C 0.38777 0.26417 0.43299 0.0
C1051 C 0.37653 0.25202 0.4242 0.0
C1052 C 0.36991 0.23225 0.43928 0.0
C1053 C 0.35945 0.22254 0.4477 0.0
C1054 C 0.36114 0.21295 0.45503 0.0
C1055 C 0.37371 0.21319 0.45401 0.0
C1056 C 0.38429 0.22286 0.44537 0.0
C1057 C 0.38227 0.23224 0.43802 0.0
C1058 C 0.34954 0.20265 0.46398 0.0
C1059 C 0.39782 0.22338 0.44406 0.0
C1060 C 0.36575 0.11833 0.41805 0.0
C1061 C 0.37175 0.13252 0.42374 0.0
C1062 C 0.36627 0.14547 0.44009 0.0
C1063 C 0.3796 0.15738 0.44023 0.0
C1064 C 0.38241 0.16917 0.44778 0.0
C1065 C 0.3717 0.16909 0.45528 0.0
C1066 C 0.3583 0.15711 0.45521 0.0
C1067 C 0.3558 0.14543 0.44767 0.0
C1068 C 0.39684 0.18175 0.44773 0.0
C1069 C 0.34663 0.15669 0.46305 0.0
C1070 C 0.38739 0.15933 0.54669 0.0
C1071 C 0.39991 0.16904 0.54055 0.0
C1072 C 0.40058 0.1793 0.53205 0.0
C1073 C 0.38849 0.17977 0.52963 0.0
C1074 C 0.37588 0.16997 0.53578 0.0
C1075 C 0.37552 0.15987 0.54422 0.0
C1076 C 0.41416 0.18962 0.52563 0.0
C1077 C 0.3628 0.17018 0.53344 0.0
C1078 C 0.40547 0.28281 0.53636 0.0
C1079 C 0.39643 0.26925 0.54375 0.0
C1080 C 0.40058 0.25056 0.53984 0.0
C1081 C 0.41133 0.24885 0.53559 0.0
C1082 C 0.40854 0.23658 0.52915 0.0
C1083 C 0.39463 0.22567 0.5272 0.0
C1084 C 0.38372 0.22709 0.53216 0.0
C1085 C 0.38681 0.23955 0.53842 0.0
C1086 C 0.42043 0.23536 0.52417 0.0
C1087 C 0.3688 0.2155 0.53069 0.0
C1088 C 0.37587 0.20352 0.46225 0.0
C1089 C 0.37318 0.19139 0.4557 0.0
C1090 C 0.37448 0.18161 0.46303 0.0
C1091 C 0.37835 0.18384 0.47738 0.0
C1092 C 0.37939 0.17407 0.48517 0.0
C1093 C 0.38287 0.17623 0.49936 0.0
C1094 C 0.38565 0.18834 0.50626 0.0
C1095 C 0.38893 0.19052 0.52073 0.0
C1096 C 0.39188 0.20278 0.52721 0.0
C1097 C 0.39149 0.21294 0.51965 0.0
C1098 C 0.38797 0.21084 0.50522 0.0
C1099 C 0.3873 0.22077 0.49733 0.0
C1100 C 0.3834 0.21843 0.48326 0.0
C1101 C 0.38016 0.20613 0.47647 0.0
C1102 C 0.38121 0.19616 0.4841 0.0
C1103 C 0.385 0.19847 0.49852 0.0
C1104 C 0.39249 0.13773 0.57137 0.0
C1105 C 0.39671 0.14727 0.55945 0.0
O1106 O 0.36761 0.24141 0.43276 0.0
O1107 O 0.40391 0.26288 0.54544 0.0
O1108 O 0.38623 0.14933 0.55511 0.0
O1109 O 0.3631 0.13389 0.43282 0.0
H1110 H 0.38155 0.24838 0.41691 0.0
H1111 H 0.39425 0.2612 0.43889 0.0
H1112 H 0.38303 0.2678 0.44061 0.0
H1113 H 0.39468 0.27276 0.4261 0.0
H1114 H 0.34994 0.22255 0.44857 0.0
H1115 H 0.39046 0.23957 0.43147 0.0
H1116 H 0.34703 0.19213 0.46131 0.0
H1117 H 0.33999 0.20303 0.46271 0.0
H1118 H 0.35292 0.20471 0.47514 0.0
H1119 H 0.40529 0.23191 0.43742 0.0
H1120 H 0.39581 0.21356 0.43945 0.0
H1121 H 0.40264 0.22461 0.45458 0.0
H1122 H 0.37632 0.14073 0.41579 0.0
H1123 H 0.37895 0.11235 0.42626 0.0
H1124 H 0.36442 0.11912 0.40649 0.0
H1125 H 0.35431 0.11265 0.42015 0.0
H1126 H 0.38785 0.15755 0.43451 0.0
H1127 H 0.34557 0.1362 0.44755 0.0
H1128 H 0.40083 0.18495 0.45863 0.0
H1129 H 0.3965 0.19033 0.44289 0.0
H1130 H 0.40419 0.18 0.44188 0.0
H1131 H 0.3367 0.14672 0.46163 0.0
H1132 H 0.34511 0.165 0.45944 0.0
H1133 H 0.34935 0.15851 0.47437 0.0
H1134 H 0.40164 0.14508 0.55063 0.0
H1135 H 0.40916 0.16868 0.54235 0.0
H1136 H 0.36593 0.15233 0.54901 0.0
H1137 H 0.4129 0.18915 0.51407 0.0
H1138 H 0.42262 0.18783 0.52843 0.0
H1139 H 0.41723 0.20012 0.52916 0.0
H1140 H 0.35384 0.16185 0.53903 0.0
H1141 H 0.36016 0.16907 0.5221 0.0
H1142 H 0.36449 0.18018 0.53707 0.0
H1143 H 0.3871 0.26296 0.53691 0.0
H1144 H 0.39969 0.2881 0.53476 0.0
H1145 H 0.4084 0.28084 0.52597 0.0
H1146 H 0.4151 0.28965 0.54258 0.0
H1147 H 0.42194 0.25733 0.53699 0.0
H1148 H 0.37848 0.24061 0.54229 0.0
H1149 H 0.41914 0.23289 0.51279 0.0
H1150 H 0.42038 0.22681 0.52958 0.0
H1151 H 0.43064 0.24491 0.52613 0.0
H1152 H 0.36162 0.2178 0.53612 0.0
H1153 H 0.36759 0.20598 0.535 0.0
H1154 H 0.36573 0.21348 0.51945 0.0
H1155 H 0.36998 0.1895 0.44477 0.0
H1156 H 0.37738 0.16457 0.48042 0.0
H1157 H 0.38338 0.16829 0.50486 0.0
H1158 H 0.39433 0.20435 0.53832 0.0
H1159 H 0.38965 0.23043 0.50198 0.0
H1160 H 0.38295 0.2264 0.47776 0.0
H1161 H 0.4056 0.15003 0.58785 0.0
H1162 H 0.39255 0.12857 0.56712 0.0
H1163 H 0.38085 0.13219 0.57187 0.0
C1164 C 0.84899 0.25873 0.4025 0.0
C1165 C 0.859 0.25833 0.41319 0.0
C1166 C 0.84469 0.23627 0.42505 0.0
C1167 C 0.83574 0.23949 0.43172 0.0
C1168 C 0.82481 0.22974 0.43983 0.0
C1169 C 0.82309 0.21671 0.44169 0.0
C1170 C 0.8325 0.21371 0.43553 0.0
C1171 C 0.84306 0.22348 0.42716 0.0
C1172 C 0.81488 0.23325 0.44612 0.0
C1173 C 0.83122 0.20004 0.43748 0.0
C1174 C 0.74282 0.15213 0.38226 0.0
C1175 C 0.74977 0.14869 0.39396 0.0
C1176 C 0.75608 0.15907 0.41728 0.0
C1177 C 0.76719 0.15723 0.42003 0.0
C1178 C 0.77729 0.16521 0.43031 0.0
C1179 C 0.77635 0.17537 0.43785 0.0
C1180 C 0.76483 0.17684 0.43549 0.0
C1181 C 0.75471 0.16847 0.42537 0.0
C1182 C 0.78917 0.16305 0.43281 0.0
C1183 C 0.76349 0.18758 0.44327 0.0
C1184 C 0.7508 0.14799 0.52609 0.0
C1185 C 0.76219 0.14672 0.52307 0.0
C1186 C 0.77396 0.15743 0.5167 0.0
C1187 C 0.77439 0.16967 0.51346 0.0
C1188 C 0.76315 0.17113 0.51696 0.0
C1189 C 0.75153 0.16028 0.52332 0.0
C1190 C 0.78592 0.15568 0.51336 0.0
C1191 C 0.76334 0.18411 0.51385 0.0
C1192 C 0.85623 0.2662 0.54049 0.0
C1193 C 0.85274 0.25412 0.54996 0.0
C1194 C 0.84153 0.23359 0.5345 0.0
C1195 C 0.84288 0.22305 0.52893 0.0
C1196 C 0.83229 0.2125 0.52059 0.0
C1197 C 0.82015 0.2127 0.51752 0.0
C1198 C 0.81866 0.22329 0.52317 0.0
C1199 C 0.8293 0.23357 0.53169 0.0
C1200 C 0.83411 0.20121 0.51498 0.0
C1201 C 0.80585 0.22382 0.5201 0.0
C1202 C 0.81094 0.20584 0.4492 0.0
C1203 C 0.79958 0.19607 0.44113 0.0
C1204 C 0.78795 0.18517 0.44728 0.0
C1205 C 0.78759 0.18388 0.46196 0.0
C1206 C 0.77622 0.17284 0.46849 0.0
C1207 C 0.77587 0.17179 0.48296 0.0
C1208 C 0.78687 0.18172 0.49148 0.0
C1209 C 0.7865 0.18086 0.50621 0.0
C1210 C 0.79756 0.19096 0.51437 0.0
C1211 C 0.8091 0.20199 0.5082 0.0
C1212 C 0.80974 0.20295 0.49347 0.0
C1213 C 0.82124 0.21383 0.48691 0.0
C1214 C 0.82177 0.21469 0.47241 0.0
C1215 C 0.81065 0.20491 0.46393 0.0
C1216 C 0.79892 0.19387 0.47032 0.0
C1217 C 0.79853 0.19282 0.4851 0.0
C1218 C 0.71984 0.11803 0.52158 0.0
C1219 C 0.73321 0.12381 0.53033 0.0
O1220 O 0.8548 0.24492 0.41627 0.0
O1221 O 0.85231 0.24355 0.54234 0.0
O1222 O 0.73915 0.13785 0.53207 0.0
O1223 O 0.74672 0.15216 0.40674 0.0
H1224 H 0.85925 0.2639 0.42289 0.0
H1225 H 0.83856 0.2545 0.40695 0.0
H1226 H 0.84783 0.2526 0.39296 0.0
H1227 H 0.85288 0.26948 0.39951 0.0
H1228 H 0.837 0.24944 0.43044 0.0
H1229 H 0.85007 0.22111 0.42208 0.0
H1230 H 0.80407 0.22544 0.44283 0.0
H1231 H 0.81711 0.24351 0.44299 0.0
H1232 H 0.81552 0.23309 0.45768 0.0
H1233 H 0.84058 0.20014 0.43399 0.0
H1234 H 0.82214 0.19207 0.4313 0.0
H1235 H 0.82947 0.1971 0.44863 0.0
H1236 H 0.76113 0.15512 0.39211 0.0
H1237 H 0.74492 0.14918 0.37192 0.0
H1238 H 0.74706 0.16334 0.38237 0.0
H1239 H 0.73144 0.14676 0.38363 0.0
H1240 H 0.76805 0.14964 0.41409 0.0
H1241 H 0.74598 0.16967 0.42328 0.0
H1242 H 0.79862 0.17152 0.42801 0.0
H1243 H 0.78706 0.1532 0.42814 0.0
H1244 H 0.79135 0.1632 0.44417 0.0
H1245 H 0.75426 0.18785 0.43973 0.0
H1246 H 0.77291 0.19786 0.44181 0.0
H1247 H 0.76266 0.1855 0.45463 0.0
H1248 H 0.7401 0.12137 0.52453 0.0
H1249 H 0.76209 0.13755 0.52584 0.0
H1250 H 0.74282 0.16126 0.52596 0.0
H1251 H 0.78773 0.15668 0.50195 0.0
H1252 H 0.78405 0.14558 0.51662 0.0
H1253 H 0.79552 0.16391 0.5187 0.0
H1254 H 0.75385 0.18371 0.5174 0.0
H1255 H 0.76429 0.1859 0.50243 0.0
H1256 H 0.77252 0.19299 0.51906 0.0
H1257 H 0.84249 0.25046 0.55471 0.0
H1258 H 0.85711 0.27484 0.54677 0.0
H1259 H 0.84796 0.26316 0.53241 0.0
H1260 H 0.86614 0.2698 0.53507 0.0
H1261 H 0.8523 0.2231 0.53117 0.0
H1262 H 0.82799 0.24158 0.53594 0.0
H1263 H 0.83484 0.20183 0.50343 0.0
H1264 H 0.82495 0.19106 0.51747 0.0
H1265 H 0.84359 0.20187 0.51932 0.0
H1266 H 0.8067 0.23327 0.52442 0.0
H1267 H 0.79672 0.21481 0.5247 0.0
H1268 H 0.80393 0.22331 0.50864 0.0
H1269 H 0.79983 0.19693 0.42984 0.0
H1270 H 0.76746 0.16492 0.46246 0.0
H1271 H 0.76682 0.1631 0.4874 0.0
H1272 H 0.79712 0.19032 0.52567 0.0
H1273 H 0.83002 0.22177 0.4929 0.0
H1274 H 0.83094 0.22321 0.46794 0.0
H1275 H 0.71488 0.10679 0.51996 0.0
H1276 H 0.72222 0.1229 0.51119 0.0
H1277 H 0.71242 0.12012 0.52682 0.0
C1278 C 0.01514 0.47608 0.2916 0.0
C1279 C 0.00964 0.46448 0.28062 0.0
C1280 C 0.01273 0.47618 0.2587 0.0
C1281 C 0.9989 0.47091 0.25445 0.0
C1282 C 0.99541 0.4783 0.24549 0.0
C1283 C 0.00598 0.49117 0.24061 0.0
C1284 C 0.01999 0.49618 0.24433 0.0
C1285 C 0.0232 0.48852 0.25324 0.0
C1286 C 0.98039 0.4725 0.24144 0.0
C1287 C 0.03151 0.50979 0.23918 0.0
C1288 C 0.98356 0.54241 0.29549 0.0
C1289 C 0.99297 0.552 0.28418 0.0
C1290 C 0.98798 0.54119 0.26124 0.0
C1291 C 0.00129 0.54593 0.25626 0.0
C1292 C 0.00355 0.53816 0.24647 0.0
C1293 C 0.99226 0.52535 0.24168 0.0
C1294 C 0.97871 0.52082 0.24628 0.0
C1295 C 0.97672 0.52895 0.25587 0.0
C1296 C 0.01808 0.54345 0.24156 0.0
C1297 C 0.96645 0.50716 0.2415 0.0
C1298 C 0.96892 0.53156 0.15431 0.0
C1299 C 0.98336 0.53853 0.15642 0.0
C1300 C 0.98963 0.53187 0.16232 0.0
C1301 C 0.98127 0.51801 0.16624 0.0
C1302 C 0.9668 0.5108 0.16344 0.0
C1303 C 0.96084 0.51765 0.15735 0.0
C1304 C 0.00514 0.53972 0.1647 0.0
C1305 C 0.95759 0.49596 0.16729 0.0
C1306 C 0.02735 0.45793 0.15942 0.0
C1307 C 0.01317 0.45275 0.15247 0.0
C1308 C 0.00858 0.47118 0.15174 0.0
C1309 C 0.01718 0.48544 0.15193 0.0
C1310 C 0.01314 0.49371 0.15862 0.0
C1311 C 1.00001 0.4875 0.1649 0.0
C1312 C 0.99088 0.4731 0.16387 0.0
C1313 C 0.99532 0.46507 0.15737 0.0
C1314 C 0.02307 0.50903 0.15937 0.0
C1315 C 0.97659 0.46618 0.16995 0.0
C1316 C 0.00222 0.4997 0.2324 0.0
C1317 C 0.99925 0.50838 0.23979 0.0
C1318 C 0.99486 0.51619 0.23293 0.0
C1319 C 0.99313 0.51518 0.21822 0.0
C1320 C 0.98831 0.52255 0.21099 0.0
C1321 C 0.98633 0.5212 0.19654 0.0
C1322 C 0.98944 0.51272 0.18872 0.0
C1323 C 0.98746 0.51128 0.17402 0.0
C1324 C 0.99095 0.50301 0.16655 0.0
C1325 C 0.99626 0.49595 0.17339 0.0
C1326 C 0.998 0.497 0.18812 0.0
C1327 C 0.00305 0.48982 0.19537 0.0
C1328 C 0.00437 0.49062 0.20987 0.0
C1329 C 0.00101 0.49889 0.21766 0.0
C1330 C 0.99627 0.50653 0.21056 0.0
C1331 C 0.9946 0.50544 0.19578 0.0
C1332 C 0.95398 0.55127 0.15911 0.0
C1333 C 0.96628 0.5513 0.15265 0.0
O1334 O 0.01624 0.46963 0.26807 0.0
O1335 O 0.01327 0.46356 0.14597 0.0
O1336 O 0.96246 0.53793 0.14945 0.0
O1337 O 0.98583 0.54812 0.27144 0.0
H1338 H 0.9983 0.46007 0.27937 0.0
H1339 H 0.01276 0.48388 0.28821 0.0
H1340 H 0.02655 0.48115 0.29304 0.0
H1341 H 0.01011 0.47202 0.30178 0.0
H1342 H 0.99082 0.46104 0.2581 0.0
H1343 H 0.03387 0.49237 0.2564 0.0
H1344 H 0.97699 0.47933 0.24555 0.0
H1345 H 0.97348 0.46205 0.24553 0.0
H1346 H 0.97919 0.47208 0.22988 0.0
H1347 H 0.04192 0.51201 0.24256 0.0
H1348 H 0.03013 0.51811 0.24319 0.0
H1349 H 0.03104 0.5099 0.22759 0.0
H1350 H 0.00218 0.55093 0.28387 0.0
H1351 H 0.98908 0.54538 0.3058 0.0
H1352 H 0.98059 0.53172 0.29293 0.0
H1353 H 0.97395 0.54272 0.29621 0.0
H1354 H 0.00991 0.55564 0.26018 0.0
H1355 H 0.96646 0.52549 0.25971 0.0
H1356 H 0.0181 0.54262 0.23 0.0
H1357 H 0.0219 0.53707 0.24596 0.0
H1358 H 0.02538 0.55429 0.24486 0.0
H1359 H 0.95665 0.505 0.2463 0.0
H1360 H 0.96829 0.49884 0.24423 0.0
H1361 H 0.96521 0.50696 0.22997 0.0
H1362 H 0.97469 0.55589 0.16081 0.0
H1363 H 0.98973 0.54916 0.15351 0.0
H1364 H 0.94974 0.51231 0.15543 0.0
H1365 H 0.00754 0.5412 0.1761 0.0
H1366 H 0.01033 0.54994 0.15978 0.0
H1367 H 0.00953 0.53378 0.16043 0.0
H1368 H 0.94652 0.49184 0.16454 0.0
H1369 H 0.95855 0.49485 0.17869 0.0
H1370 H 0.96099 0.48967 0.16181 0.0
H1371 H 0.00531 0.44851 0.16082 0.0
H1372 H 0.02747 0.44942 0.16474 0.0
H1373 H 0.02959 0.466 0.16736 0.0
H1374 H 0.03565 0.46236 0.15155 0.0
H1375 H 0.0273 0.49003 0.14729 0.0
H1376 H 0.98846 0.45404 0.15669 0.0
H1377 H 0.02531 0.51257 0.17046 0.0
H1378 H 0.01823 0.51422 0.15429 0.0
H1379 H 0.03301 0.51223 0.15418 0.0
H1380 H 0.97009 0.45524 0.16659 0.0
H1381 H 0.97125 0.47158 0.16679 0.0
H1382 H 0.9775 0.46669 0.18153 0.0
H1383 H 0.0003 0.50901 0.25111 0.0
H1384 H 0.98586 0.5293 0.21645 0.0
H1385 H 0.98239 0.52697 0.19158 0.0
H1386 H 0.98947 0.502 0.15528 0.0
H1387 H 0.00592 0.48337 0.18994 0.0
H1388 H 0.00814 0.48474 0.2149 0.0
H1389 H 0.95671 0.56193 0.16143 0.0
H1390 H 0.95125 0.5456 0.16906 0.0
H1391 H 0.94473 0.54619 0.15201 0.0
C1392 C 0.46364 0.39132 0.25785 0.0
C1393 C 0.46475 0.40362 0.26557 0.0
C1394 C 0.47679 0.42373 0.25032 0.0
C1395 C 0.47479 0.43305 0.24301 0.0
C1396 C 0.48584 0.44442 0.23667 0.0
C1397 C 0.49924 0.44635 0.23741 0.0
C1398 C 0.50138 0.43695 0.24479 0.0
C1399 C 0.49012 0.42572 0.25125 0.0
C1400 C 0.48315 0.45434 0.22914 0.0
C1401 C 0.51552 0.4387 0.24568 0.0
C1402 C 0.58438 0.54847 0.27589 0.0
C1403 C 0.57672 0.53389 0.27102 0.0
C1404 C 0.55559 0.51798 0.25754 0.0
C1405 C 0.55954 0.50848 0.25448 0.0
C1406 C 0.55097 0.49677 0.24615 0.0
C1407 C 0.53818 0.49445 0.24087 0.0
C1408 C 0.53407 0.50385 0.24413 0.0
C1409 C 0.54288 0.51553 0.25238 0.0
C1410 C 0.55562 0.4869 0.24289 0.0
C1411 C 0.52042 0.5016 0.23879 0.0
C1412 C 0.55228 0.52308 0.15292 0.0
C1413 C 0.55951 0.51667 0.15663 0.0
C1414 C 0.55258 0.50366 0.16268 0.0
C1415 C 0.53821 0.49711 0.16519 0.0
C1416 C 0.53086 0.50342 0.16104 0.0
C1417 C 0.53799 0.51626 0.15475 0.0
C1418 C 0.56061 0.49699 0.16651 0.0
C1419 C 0.51552 0.49671 0.16344 0.0
C1420 C 0.46655 0.38571 0.14684 0.0
C1421 C 0.46833 0.39962 0.1438 0.0
C1422 C 0.4899 0.42163 0.14778 0.0
C1423 C 0.50402 0.42693 0.15022 0.0
C1424 C 0.51229 0.43936 0.15761 0.0
C1425 C 0.5063 0.44677 0.16241 0.0
C1426 C 0.49219 0.44187 0.15923 0.0
C1427 C 0.48412 0.42932 0.15196 0.0
C1428 C 0.52733 0.44437 0.16066 0.0
C1429 C 0.48559 0.44975 0.16378 0.0
C1430 C 0.51084 0.45817 0.23029 0.0
C1431 C 0.51951 0.47007 0.23821 0.0
C1432 C 0.52919 0.48224 0.23181 0.0
C1433 C 0.52999 0.48272 0.21707 0.0
C1434 C 0.53882 0.49503 0.21022 0.0
C1435 C 0.53906 0.49549 0.1957 0.0
C1436 C 0.53087 0.48356 0.18746 0.0
C1437 C 0.53088 0.48394 0.17269 0.0
C1438 C 0.52293 0.47182 0.16483 0.0
C1439 C 0.5146 0.45927 0.17134 0.0
C1440 C 0.51403 0.45877 0.1861 0.0
C1441 C 0.50535 0.44643 0.19299 0.0
C1442 C 0.50435 0.44618 0.20747 0.0
C1443 C 0.51224 0.4582 0.21564 0.0
C1444 C 0.52159 0.4706 0.20897 0.0
C1445 C 0.52225 0.47096 0.19417 0.0
C1446 C 0.56751 0.5563 0.16009 0.0
C1447 C 0.571 0.54706 0.15175 0.0
O1448 O 0.46545 0.41294 0.256 0.0
O1449 O 0.4822 0.40909 0.14146 0.0
O1450 O 0.55866 0.53562 0.14708 0.0
O1451 O 0.56373 0.52962 0.26526 0.0
H1452 H 0.47416 0.40855 0.27252 0.0
H1453 H 0.4728 0.39472 0.25121 0.0
H1454 H 0.45416 0.38613 0.25104 0.0
H1455 H 0.46324 0.38384 0.26543 0.0
H1456 H 0.46446 0.43138 0.24235 0.0
H1457 H 0.49177 0.41849 0.25676 0.0
H1458 H 0.49086 0.46504 0.23253 0.0
H1459 H 0.47258 0.45231 0.23101 0.0
H1460 H 0.48425 0.45351 0.21773 0.0
H1461 H 0.51536 0.43012 0.25115 0.0
H1462 H 0.52285 0.44843 0.25134 0.0
H1463 H 0.51954 0.43939 0.235 0.0
H1464 H 0.57653 0.52646 0.27859 0.0
H1465 H 0.60145 0.55795 0.26277 0.0
H1466 H 0.58552 0.54806 0.28755 0.0
H1467 H 0.57655 0.55168 0.27654 0.0
H1468 H 0.5693 0.51017 0.25848 0.0
H1469 H 0.53991 0.52289 0.25482 0.0
H1470 H 0.55617 0.48594 0.2314 0.0
H1471 H 0.54791 0.47659 0.24678 0.0
H1472 H 0.56592 0.49022 0.24768 0.0
H1473 H 0.51853 0.50964 0.24265 0.0
H1474 H 0.5118 0.49144 0.24209 0.0
H1475 H 0.52028 0.50158 0.22719 0.0
H1476 H 0.57688 0.54416 0.15882 0.0
H1477 H 0.57049 0.52172 0.15464 0.0
H1478 H 0.5325 0.52123 0.15156 0.0
H1479 H 0.56118 0.49647 0.17806 0.0
H1480 H 0.57134 0.50271 0.16252 0.0
H1481 H 0.55519 0.48632 0.16227 0.0
H1482 H 0.51153 0.50337 0.16041 0.0
H1483 H 0.5133 0.49412 0.17463 0.0
H1484 H 0.50978 0.487 0.15724 0.0
H1485 H 0.46486 0.40248 0.15338 0.0
H1486 H 0.45544 0.37788 0.14842 0.0
H1487 H 0.47247 0.38652 0.15652 0.0
H1488 H 0.47046 0.38225 0.13815 0.0
H1489 H 0.50843 0.42103 0.14673 0.0
H1490 H 0.47332 0.42555 0.14959 0.0
H1491 H 0.5293 0.44537 0.17213 0.0
H1492 H 0.53401 0.45469 0.1562 0.0
H1493 H 0.53042 0.43737 0.15627 0.0
H1494 H 0.47492 0.44526 0.15934 0.0
H1495 H 0.492 0.46058 0.16052 0.0
H1496 H 0.48507 0.44977 0.17535 0.0
H1497 H 0.51846 0.46996 0.24947 0.0
H1498 H 0.54543 0.50452 0.216 0.0
H1499 H 0.54582 0.50533 0.19103 0.0
H1500 H 0.523 0.47219 0.15351 0.0
H1501 H 0.49904 0.43685 0.18726 0.0
H1502 H 0.49732 0.43643 0.2122 0.0
H1503 H 0.5622 0.56002 0.15326 0.0
H1504 H 0.57702 0.56525 0.16479 0.0
H1505 H 0.56051 0.55044 0.16873 0.0
C1506 C 0.46411 0.0098 0.29391 0.0
C1507 C 0.45453 0.00945 0.28222 0.0
C1508 C 0.4627 0.00185 0.26246 0.0
C1509 C 0.47498 0.0145 0.26028 0.0
C1510 C 0.48505 0.01544 0.25121 0.0
C1511 C 0.48289 0.00351 0.24426 0.0
C1512 C 0.47041 0.99083 0.24614 0.0
C1513 C 0.4604 0.99021 0.25511 0.0
C1514 C 0.49819 0.02917 0.2493 0.0
C1515 C 0.46781 0.9779 0.23894 0.0
C1516 C 0.54759 0.00224 0.29579 0.0
C1517 C 0.55011 0.99456 0.28418 0.0
C1518 C 0.54547 0.00282 0.26281 0.0
C1519 C 0.53411 0.99082 0.257 0.0
C1520 C 0.5247 0.99147 0.24785 0.0
C1521 C 0.52672 0.00438 0.24449 0.0
C1522 C 0.53848 0.01652 0.24995 0.0
C1523 C 0.54784 0.01556 0.2589 0.0
C1524 C 0.51246 0.97835 0.24195 0.0
C1525 C 0.54093 0.03045 0.24663 0.0
C1526 C 0.55809 0.02379 0.15777 0.0
C1527 C 0.54686 0.01027 0.15888 0.0
C1528 C 0.53451 0.00751 0.16507 0.0
C1529 C 0.53345 0.01851 0.17029 0.0
C1530 C 0.54455 0.03217 0.16864 0.0
C1531 C 0.55669 0.03463 0.16223 0.0
C1532 C 0.52267 0.99285 0.16622 0.0
C1533 C 0.54369 0.04414 0.17394 0.0
C1534 C 0.44135 0.01721 0.16181 0.0
C1535 C 0.45045 0.02292 0.14892 0.0
C1536 C 0.46708 0.0157 0.15386 0.0
C1537 C 0.46854 0.00437 0.15263 0.0
C1538 C 0.47869 0.00362 0.16041 0.0
C1539 C 0.48793 0.01473 0.16933 0.0
C1540 C 0.48688 0.0265 0.17022 0.0
C1541 C 0.47632 0.02677 0.16267 0.0
C1542 C 0.47945 0.9909 0.15916 0.0
C1543 C 0.49691 0.0388 0.17916 0.0
C1544 C 0.49413 0.00422 0.23584 0.0
C1545 C 0.50458 0.00353 0.24297 0.0
C1546 C 0.51607 0.00512 0.23603 0.0
C1547 C 0.51729 0.00753 0.22152 0.0
C1548 C 0.52884 0.00943 0.21425 0.0
C1549 C 0.53012 0.01218 0.20005 0.0
C1550 C 0.51976 0.01286 0.1925 0.0
C1551 C 0.52102 0.01573 0.17807 0.0
C1552 C 0.51051 0.01627 0.17087 0.0
C1553 C 0.49868 0.01403 0.17769 0.0
C1554 C 0.49727 0.01124 0.19215 0.0
C1555 C 0.48555 0.00898 0.19939 0.0
C1556 C 0.48451 0.00676 0.21371 0.0
C1557 C 0.49499 0.00632 0.22127 0.0
C1558 C 0.50669 0.00813 0.21412 0.0
C1559 C 0.50789 0.01071 0.19957 0.0
C1560 C 0.58686 0.02722 0.16818 0.0
C1561 C 0.57738 0.02023 0.15537 0.0
O1562 O 0.45295 0.00034 0.27164 0.0
O1563 O 0.45674 0.01551 0.1463 0.0
O1564 O 0.57028 0.02675 0.15221 0.0
O1565 O 0.55427 0.00237 0.27223 0.0
H1566 H 0.45898 0.01989 0.27791 0.0
H1567 H 0.47461 0.01348 0.28991 0.0
H1568 H 0.4599 0.9994 0.29819 0.0
H1569 H 0.46515 0.0169 0.3025 0.0
H1570 H 0.47691 0.02367 0.26569 0.0
H1571 H 0.45087 0.98051 0.25677 0.0
H1572 H 0.5071 0.02898 0.25397 0.0
H1573 H 0.49772 0.0377 0.2543 0.0
H1574 H 0.50019 0.03127 0.238 0.0
H1575 H 0.45758 0.96883 0.24151 0.0
H1576 H 0.47606 0.9759 0.24205 0.0
H1577 H 0.46828 0.97921 0.22744 0.0
H1578 H 0.54022 0.98466 0.28214 0.0
H1579 H 0.54439 0.99616 0.30549 0.0
H1580 H 0.53917 0.00393 0.29252 0.0
H1581 H 0.55713 0.01237 0.29807 0.0
H1582 H 0.53259 0.98095 0.25958 0.0
H1583 H 0.55677 0.02476 0.26332 0.0
H1584 H 0.5118 0.97899 0.23042 0.0
H1585 H 0.50275 0.97689 0.2463 0.0
H1586 H 0.51309 0.96924 0.24445 0.0
H1587 H 0.55034 0.03887 0.25206 0.0
H1588 H 0.53184 0.03102 0.24972 0.0
H1589 H 0.54212 0.03208 0.2352 0.0
H1590 H 0.57005 0.00932 0.15794 0.0
H1591 H 0.54763 0.00186 0.15479 0.0
H1592 H 0.56533 0.04503 0.16105 0.0
H1593 H 0.52106 0.99001 0.17739 0.0
H1594 H 0.52462 0.98557 0.16051 0.0
H1595 H 0.51294 0.99175 0.16204 0.0
H1596 H 0.55333 0.05414 0.17206 0.0
H1597 H 0.54173 0.04318 0.18533 0.0
H1598 H 0.53486 0.04406 0.16868 0.0
H1599 H 0.45844 0.03391 0.15078 0.0
H1600 H 0.43639 0.02313 0.16427 0.0
H1601 H 0.44775 0.01796 0.17106 0.0
H1602 H 0.43315 0.00627 0.15999 0.0
H1603 H 0.46143 0.99594 0.14573 0.0
H1604 H 0.47551 0.03572 0.1636 0.0
H1605 H 0.47965 0.98703 0.1697 0.0
H1606 H 0.48919 0.99344 0.15396 0.0
H1607 H 0.47057 0.98259 0.153 0.0
H1608 H 0.4962 0.0479 0.17688 0.0
H1609 H 0.50772 0.04147 0.1775 0.0
H1610 H 0.4946 0.03634 0.19034 0.0
H1611 H 0.50384 0.00193 0.25417 0.0
H1612 H 0.53711 0.00897 0.2195 0.0
H1613 H 0.53935 0.01374 0.19506 0.0
H1614 H 0.51159 0.01852 0.15981 0.0
H1615 H 0.47709 0.00907 0.1941 0.0
H1616 H 0.47537 0.00531 0.21877 0.0
H1617 H 0.59271 0.02219 0.17077 0.0
H1618 H 0.58055 0.02639 0.17732 0.0
H1619 H 0.59432 0.03825 0.16625 0.0
C1620 C 0.51247 0.95215 0.73078 0.0
C1621 C 0.52099 0.96441 0.74076 0.0
C1622 C 0.5153 0.96643 0.7646 0.0
C1623 C 0.52326 0.9807 0.76654 0.0
C1624 C 0.51958 0.98726 0.77647 0.0
C1625 C 0.50751 0.97939 0.78439 0.0
C1626 C 0.49967 0.96492 0.78268 0.0
C1627 C 0.5039 0.95861 0.77301 0.0
C1628 C 0.5284 0.00265 0.77821 0.0
C1629 C 0.48653 0.95616 0.79063 0.0
C1630 C 0.47945 0.03126 0.73878 0.0
C1631 C 0.46656 0.01989 0.74589 0.0
C1632 C 0.47276 0.01693 0.76913 0.0
C1633 C 0.46512 0.00289 0.77176 0.0
C1634 C 0.47058 0.99698 0.78044 0.0
C1635 C 0.48407 0.00532 0.78638 0.0
C1636 C 0.49171 0.01959 0.78388 0.0
C1637 C 0.48582 0.02526 0.77544 0.0
C1638 C 0.46205 0.98179 0.78304 0.0
C1639 C 0.50623 0.02876 0.78975 0.0
C1640 C 0.47708 0.02055 0.8759 0.0
C1641 C 0.46827 0.00702 0.87104 0.0
C1642 C 0.47368 0.99991 0.86435 0.0
C1643 C 0.48814 0.00661 0.86225 0.0
C1644 C 0.49707 0.02005 0.86773 0.0
C1645 C 0.4914 0.02676 0.87469 0.0
C1646 C 0.4639 0.98538 0.85921 0.0
C1647 C 0.51254 0.02746 0.86586 0.0
C1648 C 0.54337 0.95142 0.86808 0.0
C1649 C 0.54486 0.96452 0.87423 0.0
C1650 C 0.52587 0.96875 0.87244 0.0
C1651 C 0.5115 0.96144 0.87038 0.0
C1652 C 0.50482 0.9676 0.86425 0.0
C1653 C 0.51276 0.98148 0.86031 0.0
C1654 C 0.52722 0.98916 0.86312 0.0
C1655 C 0.53364 0.98272 0.8692 0.0
C1656 C 0.48936 0.95917 0.86158 0.0
C1657 C 0.53592 0.00408 0.8594 0.0
C1658 C 0.50238 0.98637 0.7934 0.0
C1659 C 0.49595 0.99245 0.78675 0.0
C1660 C 0.49054 0.99897 0.79437 0.0
C1661 C 0.49137 0.99933 0.80913 0.0
C1662 C 0.48582 0.00559 0.81714 0.0
C1663 C 0.48676 0.00596 0.83166 0.0
C1664 C 0.49307 0.99987 0.83876 0.0
C1665 C 0.49384 0.99997 0.85354 0.0
C1666 C 0.50027 0.99389 0.86025 0.0
C1667 C 0.50605 0.98774 0.85258 0.0
C1668 C 0.50536 0.98751 0.8378 0.0
C1669 C 0.51111 0.98144 0.82975 0.0
C1670 C 0.5103 0.98119 0.81522 0.0
C1671 C 0.50358 0.98687 0.80816 0.0
C1672 C 0.49792 0.99325 0.81605 0.0
C1673 C 0.49878 0.99354 0.83088 0.0
C1674 C 0.46419 0.04242 0.87448 0.0
C1675 C 0.46031 0.02772 0.87724 0.0
O1676 O 0.51818 0.96002 0.75442 0.0
O1677 O 0.53186 0.96199 0.87754 0.0
O1678 O 0.47209 0.0279 0.88175 0.0
O1679 O 0.46779 0.02248 0.76018 0.0
H1680 H 0.51746 0.97167 0.73863 0.0
H1681 H 0.50124 0.94782 0.73241 0.0
H1682 H 0.51472 0.94396 0.73266 0.0
H1683 H 0.51476 0.95542 0.71976 0.0
H1684 H 0.53229 0.98671 0.76023 0.0
H1685 H 0.4979 0.94758 0.77147 0.0
H1686 H 0.52296 0.00731 0.77329 0.0
H1687 H 0.53864 0.00694 0.77325 0.0
H1688 H 0.53008 0.00565 0.78947 0.0
H1689 H 0.48081 0.94531 0.78688 0.0
H1690 H 0.47959 0.96025 0.78962 0.0
H1691 H 0.48911 0.95641 0.80189 0.0
H1692 H 0.46589 0.00999 0.74363 0.0
H1693 H 0.47866 0.02932 0.72731 0.0
H1694 H 0.48883 0.03154 0.74284 0.0
H1695 H 0.4807 0.0414 0.74088 0.0
H1696 H 0.45494 0.99658 0.76688 0.0
H1697 H 0.49159 0.03612 0.7733 0.0
H1698 H 0.46211 0.97983 0.79437 0.0
H1699 H 0.46668 0.97663 0.77753 0.0
H1700 H 0.45114 0.97712 0.77928 0.0
H1701 H 0.51116 0.03941 0.78593 0.0
H1702 H 0.51279 0.02459 0.78687 0.0
H1703 H 0.50598 0.02907 0.80133 0.0
H1704 H 0.45632 0.02195 0.86712 0.0
H1705 H 0.4572 0.00203 0.87245 0.0
H1706 H 0.4981 0.03713 0.87872 0.0
H1707 H 0.46288 0.98522 0.84766 0.0
H1708 H 0.45341 0.98091 0.86364 0.0
H1709 H 0.46806 0.97881 0.86198 0.0
H1710 H 0.51797 0.03814 0.87009 0.0
H1711 H 0.51487 0.02772 0.85459 0.0
H1712 H 0.51675 0.02185 0.87127 0.0
H1713 H 0.54957 0.97224 0.86585 0.0
H1714 H 0.55372 0.95311 0.86574 0.0
H1715 H 0.53715 0.94851 0.85818 0.0
H1716 H 0.53801 0.94277 0.87538 0.0
H1717 H 0.50556 0.95074 0.87317 0.0
H1718 H 0.5447 0.98861 0.87138 0.0
H1719 H 0.48711 0.95858 0.85018 0.0
H1720 H 0.48439 0.96421 0.86668 0.0
H1721 H 0.48462 0.9486 0.86556 0.0
H1722 H 0.54689 0.00885 0.86301 0.0
H1723 H 0.53153 0.00984 0.86412 0.0
H1724 H 0.53568 0.00508 0.84789 0.0
H1725 H 0.49512 0.99208 0.77542 0.0
H1726 H 0.48071 0.01031 0.81226 0.0
H1727 H 0.4824 0.01104 0.83723 0.0
H1728 H 0.50082 0.994 0.87158 0.0
H1729 H 0.51631 0.97679 0.83459 0.0
H1730 H 0.51495 0.97643 0.80957 0.0
H1731 H 0.45497 0.04258 0.87067 0.0
H1732 H 0.47223 0.04693 0.86636 0.0
H1733 H 0.46839 0.04886 0.88416 0.0
C1734 C 0.98186 0.53373 0.7326 0.0
C1735 C 0.97982 0.54096 0.74504 0.0
C1736 C 0.99077 0.53519 0.76382 0.0
C1737 C 0.97897 0.52318 0.76848 0.0
C1738 C 0.98027 0.51416 0.77726 0.0
C1739 C 0.99362 0.51707 0.7813 0.0
C1740 C 0.00552 0.52915 0.77663 0.0
C1741 C 0.0039 0.53818 0.76817 0.0
C1742 C 0.96735 0.50151 0.78225 0.0
C1743 C 0.01993 0.53247 0.78048 0.0
C1744 C 0.00071 0.42765 0.75224 0.0
C1745 C 0.0042 0.43972 0.7613 0.0
C1746 C 0.99387 0.45231 0.77026 0.0
C1747 C 0.00657 0.464 0.77446 0.0
C1748 C 0.00699 0.47513 0.78122 0.0
C1749 C 0.99444 0.47447 0.78409 0.0
C1750 C 0.98164 0.46276 0.77984 0.0
C1751 C 0.98154 0.45186 0.77289 0.0
C1752 C 0.02087 0.48757 0.78533 0.0
C1753 C 0.96807 0.46173 0.78275 0.0
C1754 C 0.01072 0.4665 0.87512 0.0
C1755 C 0.02142 0.4755 0.86631 0.0
C1756 C 0.02017 0.48499 0.85826 0.0
C1757 C 0.00784 0.48527 0.85877 0.0
C1758 C 0.9971 0.4763 0.86771 0.0
C1759 C 0.99876 0.46713 0.87586 0.0
C1760 C 0.03202 0.49468 0.84917 0.0
C1761 C 0.98382 0.47631 0.86855 0.0
C1762 C 0.02013 0.58334 0.85719 0.0
C1763 C 0.01383 0.57433 0.86995 0.0
C1764 C 0.0171 0.555 0.86723 0.0
C1765 C 0.02769 0.55317 0.86274 0.0
C1766 C 0.0247 0.54069 0.85668 0.0
C1767 C 0.01075 0.5297 0.85543 0.0
C1768 C 1.00002 0.53128 0.8606 0.0
C1769 C 0.00331 0.54394 0.86644 0.0
C1770 C 0.03642 0.53932 0.85143 0.0
C1771 C 0.98509 0.5196 0.85984 0.0
C1772 C 0.99507 0.50736 0.79027 0.0
C1773 C 0.99379 0.49571 0.78389 0.0
C1774 C 0.9948 0.48602 0.7917 0.0
C1775 C 0.99698 0.48784 0.80634 0.0
C1776 C 0.99753 0.47804 0.81458 0.0
C1777 C 0.00025 0.48019 0.8289 0.0
C1778 C 0.00269 0.4923 0.8355 0.0
C1779 C 0.00615 0.4949 0.84992 0.0
C1780 C 0.00847 0.50704 0.85614 0.0
C1781 C 0.00742 0.51671 0.84834 0.0
C1782 C 0.0039 0.51427 0.83393 0.0
C1783 C 0.00265 0.52374 0.8258 0.0
C1784 C 0.99945 0.52136 0.81158 0.0
C1785 C 0.99772 0.50959 0.80485 0.0
C1786 C 0.99873 0.49981 0.81288 0.0
C1787 C 0.0017 0.50209 0.82746 0.0
C1788 C 0.01794 0.44385 0.86943 0.0
C1789 C 0.02093 0.45299 0.88242 0.0
O1790 O 0.98995 0.54416 0.75526 0.0
O1791 O 0.02062 0.56743 0.87265 0.0
O1792 O 0.0114 0.45709 0.88308 0.0
O1793 O 0.99309 0.44135 0.76366 0.0
H1794 H 0.96935 0.53408 0.74929 0.0
H1795 H 0.98087 0.52402 0.73599 0.0
H1796 H 0.99231 0.54038 0.72817 0.0
H1797 H 0.97386 0.53118 0.72431 0.0
H1798 H 0.9687 0.52085 0.76555 0.0
H1799 H 0.01294 0.54749 0.7646 0.0
H1800 H 0.96664 0.49226 0.77759 0.0
H1801 H 0.95776 0.5014 0.77935 0.0
H1802 H 0.96787 0.50083 0.79379 0.0
H1803 H 0.02805 0.54142 0.77473 0.0
H1804 H 0.02091 0.52349 0.77823 0.0
H1805 H 0.02189 0.53481 0.79185 0.0
H1806 H 0.01021 0.4408 0.77106 0.0
H1807 H 0.01246 0.43643 0.73443 0.0
H1808 H 0.98905 0.42092 0.75184 0.0
H1809 H 0.00222 0.42064 0.75918 0.0
H1810 H 0.01623 0.46457 0.77247 0.0
H1811 H 0.97179 0.44285 0.76958 0.0
H1812 H 0.02212 0.48822 0.79688 0.0
H1813 H 0.02143 0.49706 0.78186 0.0
H1814 H 0.02965 0.4872 0.78082 0.0
H1815 H 0.95898 0.45151 0.77976 0.0
H1816 H 0.96746 0.46966 0.7768 0.0
H1817 H 0.96752 0.46372 0.79403 0.0
H1818 H 0.03161 0.46214 0.88202 0.0
H1819 H 0.0308 0.47525 0.86565 0.0
H1820 H 0.99059 0.46021 0.88273 0.0
H1821 H 0.02902 0.49174 0.83802 0.0
H1822 H 0.04157 0.49452 0.85144 0.0
H1823 H 0.03439 0.50533 0.85068 0.0
H1824 H 0.97602 0.46793 0.87511 0.0
H1825 H 0.97927 0.47522 0.85791 0.0
H1826 H 0.98608 0.48626 0.87306 0.0
H1827 H 0.00264 0.56703 0.86754 0.0
H1828 H 0.01487 0.58903 0.85495 0.0
H1829 H 0.01876 0.57683 0.8479 0.0
H1830 H 0.03139 0.5908 0.85898 0.0
H1831 H 0.03833 0.5617 0.86367 0.0
H1832 H 0.99511 0.54507 0.87057 0.0
H1833 H 0.03465 0.5363 0.84018 0.0
H1834 H 0.03671 0.5311 0.85716 0.0
H1835 H 0.04666 0.54899 0.85276 0.0
H1836 H 0.97808 0.52213 0.86526 0.0
H1837 H 0.98411 0.51033 0.86459 0.0
H1838 H 0.98164 0.51702 0.84873 0.0
H1839 H 0.99212 0.49424 0.77265 0.0
H1840 H 0.9959 0.46861 0.81005 0.0
H1841 H 0.00059 0.47231 0.83469 0.0
H1842 H 0.01131 0.50907 0.86715 0.0
H1843 H 0.00413 0.53312 0.83034 0.0
H1844 H 0.99856 0.52899 0.80588 0.0
H1845 H 0.00728 0.43466 0.86971 0.0
H1846 H 0.0255 0.44048 0.86887 0.0
H1847 H 0.01886 0.44956 0.85981 0.0
C1848 C 0.51803 0.58345 0.74371 0.0
C1849 C 0.52971 0.58919 0.75488 0.0
C1850 C 0.51813 0.5706 0.77186 0.0
C1851 C 0.50834 0.57371 0.77645 0.0
C1852 C 0.49703 0.56433 0.7844 0.0
C1853 C 0.49561 0.5517 0.78795 0.0
C1854 C 0.50588 0.54892 0.78403 0.0
C1855 C 0.51705 0.55846 0.77607 0.0
C1856 C 0.48635 0.56769 0.78862 0.0
C1857 C 0.50479 0.53565 0.78782 0.0
C1858 C 0.42009 0.49268 0.72211 0.0
C1859 C 0.42478 0.48761 0.73447 0.0
C1860 C 0.42957 0.49729 0.7581 0.0
C1861 C 0.43977 0.49444 0.76201 0.0
C1862 C 0.44913 0.50171 0.7731 0.0
C1863 C 0.44833 0.5121 0.78031 0.0
C1864 C 0.43768 0.51459 0.77674 0.0
C1865 C 0.42827 0.50694 0.76581 0.0
C1866 C 0.46012 0.49854 0.77683 0.0
C1867 C 0.43657 0.52566 0.7841 0.0
C1868 C 0.41263 0.48408 0.86393 0.0
C1869 C 0.42365 0.48185 0.8629 0.0
C1870 C 0.43674 0.49233 0.85855 0.0
C1871 C 0.43884 0.5053 0.8553 0.0
C1872 C 0.42796 0.50777 0.85708 0.0
C1873 C 0.415 0.49712 0.86145 0.0
C1874 C 0.44825 0.4895 0.85709 0.0
C1875 C 0.42992 0.52155 0.85396 0.0
C1876 C 0.53328 0.59356 0.87533 0.0
C1877 C 0.52552 0.58848 0.8891 0.0
C1878 C 0.50759 0.56518 0.88109 0.0
C1879 C 0.50516 0.55197 0.8795 0.0
C1880 C 0.49461 0.54227 0.87047 0.0
C1881 C 0.48606 0.54583 0.86313 0.0
C1882 C 0.48802 0.55899 0.86522 0.0
C1883 C 0.49887 0.56859 0.87405 0.0
C1884 C 0.49279 0.52833 0.86857 0.0
C1885 C 0.47878 0.56299 0.85797 0.0
C1886 C 0.48271 0.54087 0.79447 0.0
C1887 C 0.47184 0.53174 0.7855 0.0
C1888 C 0.45935 0.52116 0.79067 0.0
C1889 C 0.45755 0.51958 0.80526 0.0
C1890 C 0.4452 0.50894 0.81083 0.0
C1891 C 0.4434 0.5077 0.8252 0.0
C1892 C 0.45393 0.51701 0.83456 0.0
C1893 C 0.45208 0.51599 0.84918 0.0
C1894 C 0.46271 0.52546 0.85819 0.0
C1895 C 0.4753 0.53593 0.853 0.0
C1896 C 0.4774 0.53703 0.8384 0.0
C1897 C 0.49001 0.5473 0.8328 0.0
C1898 C 0.49181 0.54856 0.81842 0.0
C1899 C 0.4811 0.53954 0.80909 0.0
C1900 C 0.46843 0.5289 0.8145 0.0
C1901 C 0.4666 0.52762 0.82917 0.0
C1902 C 0.37974 0.45449 0.85721 0.0
C1903 C 0.39355 0.46003 0.86509 0.0
O1904 O 0.52857 0.57879 0.76316 0.0
O1905 O 0.51848 0.57427 0.88941 0.0
O1906 O 0.39961 0.47403 0.86732 0.0
O1907 O 0.42103 0.49112 0.74681 0.0
H1908 H 0.52922 0.59691 0.76157 0.0
H1909 H 0.50776 0.57906 0.74856 0.0
H1910 H 0.51799 0.57528 0.73732 0.0
H1911 H 0.51944 0.59175 0.73671 0.0
H1912 H 0.5093 0.58328 0.77365 0.0
H1913 H 0.52477 0.55625 0.77267 0.0
H1914 H 0.47624 0.56032 0.78345 0.0
H1915 H 0.48934 0.57825 0.78574 0.0
H1916 H 0.48487 0.56661 0.80008 0.0
H1917 H 0.51418 0.5355 0.78497 0.0
H1918 H 0.49566 0.52698 0.7823 0.0
H1919 H 0.50317 0.53396 0.79921 0.0
H1920 H 0.43629 0.49303 0.73386 0.0
H1921 H 0.42542 0.50404 0.72271 0.0
H1922 H 0.42279 0.48977 0.71209 0.0
H1923 H 0.40873 0.48835 0.72221 0.0
H1924 H 0.44051 0.48664 0.75635 0.0
H1925 H 0.42023 0.50892 0.76281 0.0
H1926 H 0.46079 0.49773 0.78834 0.0
H1927 H 0.47035 0.50703 0.7734 0.0
H1928 H 0.45806 0.48886 0.77177 0.0
H1929 H 0.42817 0.52681 0.77955 0.0
H1930 H 0.44654 0.53563 0.7835 0.0
H1931 H 0.43447 0.52322 0.79532 0.0
H1932 H 0.40006 0.45781 0.85829 0.0
H1933 H 0.42211 0.47197 0.86548 0.0
H1934 H 0.4065 0.49881 0.86256 0.0
H1935 H 0.4513 0.49049 0.84598 0.0
H1936 H 0.44518 0.47909 0.86061 0.0
H1937 H 0.45751 0.4972 0.86329 0.0
H1938 H 0.42065 0.52203 0.85654 0.0
H1939 H 0.43207 0.52372 0.8427 0.0
H1940 H 0.43901 0.52973 0.85999 0.0
H1941 H 0.51805 0.59194 0.8901 0.0
H1942 H 0.539 0.60492 0.87498 0.0
H1943 H 0.52589 0.58949 0.86628 0.0
H1944 H 0.54076 0.59014 0.8742 0.0
H1945 H 0.51185 0.54939 0.88508 0.0
H1946 H 0.50044 0.57869 0.87539 0.0
H1947 H 0.49303 0.52611 0.85729 0.0
H1948 H 0.48252 0.52037 0.87248 0.0
H1949 H 0.50095 0.52753 0.87423 0.0
H1950 H 0.48029 0.57273 0.86228 0.0
H1951 H 0.46771 0.55478 0.85896 0.0
H1952 H 0.4811 0.56431 0.84667 0.0
H1953 H 0.47313 0.53291 0.77428 0.0
H1954 H 0.43673 0.5015 0.80413 0.0
H1955 H 0.43361 0.49936 0.82887 0.0
H1956 H 0.46113 0.52472 0.86938 0.0
H1957 H 0.49862 0.55455 0.83948 0.0
H1958 H 0.50167 0.55673 0.81469 0.0
H1959 H 0.37467 0.44329 0.85521 0.0
H1960 H 0.38155 0.45962 0.847 0.0
H1961 H 0.37265 0.45646 0.8633 0.0
C1962 C 0.62669 0.77284 0.62291 0.0
C1963 C 0.63148 0.7683 0.61017 0.0
C1964 C 0.63654 0.78644 0.59335 0.0
C1965 C 0.62266 0.7824 0.59051 0.0
C1966 C 0.61944 0.79014 0.58176 0.0
C1967 C 0.63026 0.80209 0.57559 0.0
C1968 C 0.6442 0.80606 0.57821 0.0
C1969 C 0.64715 0.79817 0.58706 0.0
C1970 C 0.60444 0.78563 0.57918 0.0
C1971 C 0.65598 0.81869 0.57171 0.0
C1972 C 0.6055 0.8757 0.59273 0.0
C1973 C 0.61707 0.87594 0.60148 0.0
C1974 C 0.62512 0.86391 0.58654 0.0
C1975 C 0.6361 0.86568 0.57848 0.0
C1976 C 0.63556 0.85454 0.57159 0.0
C1977 C 0.62363 0.84127 0.57272 0.0
C1978 C 0.61244 0.83936 0.58085 0.0
C1979 C 0.61329 0.85068 0.58773 0.0
C1980 C 0.64774 0.85694 0.5631 0.0
C1981 C 0.59954 0.82535 0.5822 0.0
C1982 C 0.59267 0.83916 0.48612 0.0
C1983 C 0.60695 0.84521 0.48864 0.0
C1984 C 0.61218 0.83787 0.49516 0.0
C1985 C 0.60285 0.82435 0.49963 0.0
C1986 C 0.58848 0.81807 0.49659 0.0
C1987 C 0.58362 0.82551 0.48963 0.0
C1988 C 0.62763 0.84469 0.49753 0.0
C1989 C 0.57822 0.80363 0.50101 0.0
C1990 C 0.60687 0.73582 0.49284 0.0
C1991 C 0.60779 0.7436 0.47956 0.0
C1992 C 0.616 0.76716 0.48785 0.0
C1993 C 0.62733 0.78063 0.48824 0.0
C1994 C 0.6266 0.79119 0.49491 0.0
C1995 C 0.61418 0.78815 0.50138 0.0
C1996 C 0.6026 0.77457 0.50093 0.0
C1997 C 0.60361 0.7642 0.4942 0.0
C1998 C 0.63915 0.80556 0.49521 0.0
C1999 C 0.58919 0.771 0.50771 0.0
C2000 C 0.62694 0.81056 0.56667 0.0
C2001 C 0.62674 0.82149 0.57301 0.0
C2002 C 0.62294 0.82942 0.56544 0.0
C2003 C 0.61893 0.82623 0.55119 0.0
C2004 C 0.61429 0.83349 0.54347 0.0
C2005 C 0.61048 0.83034 0.52942 0.0
C2006 C 0.61147 0.82003 0.52245 0.0
C2007 C 0.608 0.81702 0.50805 0.0
C2008 C 0.60911 0.80669 0.50149 0.0
C2009 C 0.61342 0.79909 0.50896 0.0
C2010 C 0.61682 0.80188 0.52337 0.0
C2011 C 0.62104 0.79433 0.53122 0.0
C2012 C 0.6243 0.7971 0.54541 0.0
C2013 C 0.62363 0.80764 0.55226 0.0
C2014 C 0.61951 0.81545 0.54452 0.0
C2015 C 0.61596 0.81247 0.53009 0.0
C2016 C 0.57886 0.86062 0.48696 0.0
C2017 C 0.5916 0.85969 0.48417 0.0
O2018 O 0.64019 0.77951 0.60212 0.0
O2019 O 0.61759 0.75745 0.48139 0.0
O2020 O 0.58732 0.84628 0.48052 0.0
O2021 O 0.62642 0.87524 0.59285 0.0
H2022 H 0.62227 0.76077 0.60376 0.0
H2023 H 0.62064 0.77746 0.6196 0.0
H2024 H 0.63574 0.78057 0.62934 0.0
H2025 H 0.61994 0.76388 0.62947 0.0
H2026 H 0.61426 0.77332 0.59514 0.0
H2027 H 0.65781 0.8012 0.58924 0.0
H2028 H 0.60275 0.79399 0.58231 0.0
H2029 H 0.59722 0.77628 0.58502 0.0
H2030 H 0.60185 0.7835 0.56785 0.0
H2031 H 0.66623 0.82006 0.57426 0.0
H2032 H 0.656 0.82789 0.57548 0.0
H2033 H 0.65449 0.81805 0.56018 0.0
H2034 H 0.61242 0.86708 0.60862 0.0
H2035 H 0.59813 0.87646 0.59966 0.0
H2036 H 0.59961 0.86599 0.58655 0.0
H2037 H 0.60989 0.88436 0.58537 0.0
H2038 H 0.64517 0.87589 0.57761 0.0
H2039 H 0.60466 0.84905 0.5939 0.0
H2040 H 0.64449 0.85438 0.55195 0.0
H2041 H 0.65134 0.85011 0.56665 0.0
H2042 H 0.65656 0.86774 0.56391 0.0
H2043 H 0.59142 0.82565 0.58829 0.0
H2044 H 0.60224 0.81843 0.58746 0.0
H2045 H 0.59521 0.82087 0.57167 0.0
H2046 H 0.59769 0.8627 0.49421 0.0
H2047 H 0.61401 0.85567 0.48552 0.0
H2048 H 0.57263 0.82089 0.48743 0.0
H2049 H 0.63025 0.84781 0.5087 0.0
H2050 H 0.63353 0.85398 0.49111 0.0
H2051 H 0.63106 0.83746 0.49503 0.0
H2052 H 0.56731 0.80073 0.49906 0.0
H2053 H 0.57968 0.80249 0.5123 0.0
H2054 H 0.58004 0.79636 0.49512 0.0
H2055 H 0.59745 0.74214 0.4772 0.0
H2056 H 0.59922 0.72469 0.49125 0.0
H2057 H 0.60344 0.73953 0.50173 0.0
H2058 H 0.61712 0.73732 0.49568 0.0
H2059 H 0.63684 0.78285 0.48333 0.0
H2060 H 0.59472 0.75385 0.4941 0.0
H2061 H 0.64249 0.80904 0.5062 0.0
H2062 H 0.63643 0.81266 0.49044 0.0
H2063 H 0.64799 0.80629 0.48952 0.0
H2064 H 0.58099 0.76003 0.50617 0.0
H2065 H 0.58537 0.77739 0.50335 0.0
H2066 H 0.59103 0.77333 0.5191 0.0
H2067 H 0.62956 0.82383 0.58401 0.0
H2068 H 0.61346 0.84163 0.54823 0.0
H2069 H 0.60684 0.83619 0.52409 0.0
H2070 H 0.60648 0.80445 0.49045 0.0
H2071 H 0.62182 0.78615 0.5265 0.0
H2072 H 0.62745 0.79094 0.55093 0.0
H2073 H 0.57177 0.85715 0.47766 0.0
H2074 H 0.58206 0.87134 0.48973 0.0
H2075 H 0.57308 0.85399 0.49584 0.0
C2076 C 0.15162 0.74144 0.6424 0.0
C2077 C 0.14643 0.74754 0.63156 0.0
C2078 C 0.15519 0.75419 0.60818 0.0
C2079 C 0.15123 0.76369 0.60553 0.0
C2080 C 0.15825 0.77403 0.59574 0.0
C2081 C 0.16965 0.77504 0.58868 0.0
C2082 C 0.17339 0.7652 0.59106 0.0
C2083 C 0.16587 0.7547 0.60058 0.0
C2084 C 0.15371 0.78409 0.59325 0.0
C2085 C 0.18566 0.76609 0.584 0.0
C2086 C 0.2531 0.88105 0.61723 0.0
C2087 C 0.24548 0.86616 0.61351 0.0
C2088 C 0.22367 0.84901 0.60177 0.0
C2089 C 0.22771 0.83953 0.59906 0.0
C2090 C 0.2188 0.82719 0.59176 0.0
C2091 C 0.20555 0.82421 0.58721 0.0
C2092 C 0.20137 0.83362 0.59013 0.0
C2093 C 0.21053 0.84594 0.59733 0.0
C2094 C 0.22356 0.81737 0.58878 0.0
C2095 C 0.18727 0.83071 0.58555 0.0
C2096 C 0.22092 0.84541 0.49733 0.0
C2097 C 0.22633 0.83796 0.50324 0.0
C2098 C 0.21769 0.82565 0.51012 0.0
C2099 C 0.20345 0.82094 0.51154 0.0
C2100 C 0.19796 0.82835 0.50546 0.0
C2101 C 0.20677 0.84041 0.49829 0.0
C2102 C 0.22382 0.81778 0.51608 0.0
C2103 C 0.18286 0.82368 0.50675 0.0
C2104 C 0.12257 0.71128 0.49596 0.0
C2105 C 0.12657 0.72603 0.49319 0.0
C2106 C 0.14929 0.74656 0.49831 0.0
C2107 C 0.16304 0.75058 0.50122 0.0
C2108 C 0.1721 0.76295 0.50839 0.0
C2109 C 0.1673 0.7716 0.51253 0.0
C2110 C 0.15356 0.76788 0.50908 0.0
C2111 C 0.14468 0.75539 0.502 0.0
C2112 C 0.18674 0.76668 0.51175 0.0
C2113 C 0.14825 0.77707 0.51298 0.0
C2114 C 0.17835 0.78706 0.57983 0.0
C2115 C 0.18758 0.79951 0.58668 0.0
C2116 C 0.19614 0.81134 0.5792 0.0
C2117 C 0.19565 0.81081 0.56444 0.0
C2118 C 0.20413 0.82254 0.55661 0.0
C2119 C 0.20363 0.82192 0.5421 0.0
C2120 C 0.19479 0.80951 0.53482 0.0
C2121 C 0.19447 0.80874 0.52005 0.0
C2122 C 0.18546 0.79627 0.51313 0.0
C2123 C 0.17662 0.78448 0.52058 0.0
C2124 C 0.17682 0.78504 0.53537 0.0
C2125 C 0.16806 0.77339 0.54322 0.0
C2126 C 0.1684 0.77405 0.55777 0.0
C2127 C 0.17765 0.78633 0.56504 0.0
C2128 C 0.18643 0.79824 0.55734 0.0
C2129 C 0.18601 0.79759 0.5425 0.0
C2130 C 0.24853 0.87607 0.47974 0.0
C2131 C 0.24324 0.86495 0.49014 0.0
O2132 O 0.14915 0.74472 0.61828 0.0
O2133 O 0.14084 0.73415 0.49195 0.0
O2134 O 0.22888 0.85738 0.49059 0.0
O2135 O 0.2321 0.86123 0.60849 0.0
H2136 H 0.15247 0.75883 0.63368 0.0
H2137 H 0.16303 0.7463 0.64161 0.0
H2138 H 0.14671 0.73022 0.64066 0.0
H2139 H 0.14933 0.7434 0.65312 0.0
H2140 H 0.14272 0.76307 0.61119 0.0
H2141 H 0.16875 0.74723 0.60266 0.0
H2142 H 0.16132 0.79408 0.59833 0.0
H2143 H 0.14334 0.78053 0.5976 0.0
H2144 H 0.1534 0.78582 0.58189 0.0
H2145 H 0.18806 0.75851 0.58808 0.0
H2146 H 0.19497 0.77653 0.58548 0.0
H2147 H 0.18347 0.76418 0.5726 0.0
H2148 H 0.24601 0.85944 0.62151 0.0
H2149 H 0.26923 0.8898 0.60296 0.0
H2150 H 0.25501 0.88156 0.62886 0.0
H2151 H 0.24511 0.88405 0.61797 0.0
H2152 H 0.23782 0.84173 0.60253 0.0
H2153 H 0.20749 0.85329 0.59949 0.0
H2154 H 0.22312 0.81541 0.57735 0.0
H2155 H 0.21648 0.8074 0.59374 0.0
H2156 H 0.2343 0.82131 0.59272 0.0
H2157 H 0.1853 0.83874 0.58928 0.0
H2158 H 0.17907 0.82065 0.58954 0.0
H2159 H 0.18641 0.83008 0.57396 0.0
H2160 H 0.24831 0.86803 0.50072 0.0
H2161 H 0.23726 0.84167 0.50252 0.0
H2162 H 0.20268 0.84619 0.49361 0.0
H2163 H 0.22459 0.81899 0.52764 0.0
H2164 H 0.23435 0.82147 0.51209 0.0
H2165 H 0.21703 0.80668 0.51352 0.0
H2166 H 0.18042 0.83109 0.50225 0.0
H2167 H 0.17995 0.82222 0.51792 0.0
H2168 H 0.17635 0.81364 0.50125 0.0
H2169 H 0.12314 0.72928 0.50252 0.0
H2170 H 0.11113 0.70451 0.4967 0.0
H2171 H 0.12737 0.71091 0.50601 0.0
H2172 H 0.12625 0.70729 0.48754 0.0
H2173 H 0.16656 0.7438 0.49814 0.0
H2174 H 0.1342 0.75261 0.49931 0.0
H2175 H 0.18868 0.76812 0.52322 0.0
H2176 H 0.19419 0.77655 0.50684 0.0
H2177 H 0.18881 0.75873 0.50802 0.0
H2178 H 0.13751 0.77304 0.50898 0.0
H2179 H 0.15515 0.78746 0.50876 0.0
H2180 H 0.1484 0.77816 0.52453 0.0
H2181 H 0.18809 0.80001 0.59801 0.0
H2182 H 0.21125 0.83234 0.56162 0.0
H2183 H 0.21034 0.83132 0.53667 0.0
H2184 H 0.18528 0.79576 0.5018 0.0
H2185 H 0.16083 0.76362 0.53819 0.0
H2186 H 0.16138 0.76479 0.56326 0.0
H2187 H 0.2544 0.88586 0.48614 0.0
H2188 H 0.23969 0.87753 0.47695 0.0
H2189 H 0.25809 0.87032 0.46494 0.0
C2190 C 0.15599 0.38868 0.62475 0.0
C2191 C 0.14668 0.38589 0.61181 0.0
C2192 C 0.15926 0.38105 0.59403 0.0
C2193 C 0.1706 0.39454 0.59282 0.0
C2194 C 0.18202 0.39732 0.58472 0.0
C2195 C 0.18204 0.38644 0.57765 0.0
C2196 C 0.17049 0.37293 0.57856 0.0
C2197 C 0.15924 0.37043 0.58671 0.0
C2198 C 0.19415 0.41187 0.58385 0.0
C2199 C 0.17015 0.36109 0.5711 0.0
C2200 C 0.27806 0.40108 0.60146 0.0
C2201 C 0.26538 0.39013 0.60927 0.0
C2202 C 0.24567 0.3841 0.59324 0.0
C2203 C 0.23554 0.37374 0.58451 0.0
C2204 C 0.22585 0.37553 0.57713 0.0
C2205 C 0.22645 0.38814 0.57837 0.0
C2206 C 0.23661 0.39868 0.58725 0.0
C2207 C 0.24607 0.39654 0.59467 0.0
C2208 C 0.215 0.36395 0.56797 0.0
C2209 C 0.23754 0.41226 0.58877 0.0
C2210 C 0.26031 0.4102 0.49374 0.0
C2211 C 0.24927 0.39662 0.49516 0.0
C2212 C 0.23663 0.39378 0.5007 0.0
C2213 C 0.23509 0.40475 0.50499 0.0
C2214 C 0.24595 0.41843 0.50288 0.0
C2215 C 0.25839 0.42096 0.49713 0.0
C2216 C 0.22507 0.37907 0.50232 0.0
C2217 C 0.24459 0.43037 0.50714 0.0
C2218 C 0.14781 0.41033 0.48946 0.0
C2219 C 0.15242 0.40566 0.47668 0.0
C2220 C 0.16639 0.39717 0.48748 0.0
C2221 C 0.1664 0.38531 0.49059 0.0
C2222 C 0.17735 0.38591 0.49825 0.0
C2223 C 0.18854 0.39877 0.50304 0.0
C2224 C 0.18875 0.41089 0.49975 0.0
C2225 C 0.17771 0.40999 0.49192 0.0
C2226 C 0.17687 0.37279 0.50137 0.0
C2227 C 0.20057 0.42476 0.50466 0.0
C2228 C 0.19439 0.38908 0.56979 0.0
C2229 C 0.20466 0.38816 0.57702 0.0
C2230 C 0.21648 0.39028 0.5703 0.0
C2231 C 0.2183 0.3937 0.55602 0.0
C2232 C 0.23032 0.39643 0.54908 0.0
C2233 C 0.23184 0.39936 0.53492 0.0
C2234 C 0.22131 0.39949 0.5271 0.0
C2235 C 0.22255 0.40198 0.51258 0.0
C2236 C 0.21181 0.40185 0.50508 0.0
C2237 C 0.19984 0.39946 0.51174 0.0
C2238 C 0.19854 0.39723 0.52631 0.0
C2239 C 0.18678 0.3951 0.5334 0.0
C2240 C 0.18546 0.39258 0.54767 0.0
C2241 C 0.19579 0.39201 0.55537 0.0
C2242 C 0.2078 0.39432 0.54847 0.0
C2243 C 0.20924 0.39707 0.53396 0.0
C2244 C 0.29394 0.4149 0.49591 0.0
C2245 C 0.27889 0.40552 0.49093 0.0
O2246 O 0.14822 0.37769 0.60216 0.0
O2247 O 0.1552 0.39565 0.48034 0.0
O2248 O 0.27293 0.41335 0.48921 0.0
O2249 O 0.2548 0.38162 0.5999 0.0
H2250 H 0.14942 0.39576 0.60695 0.0
H2251 H 0.16709 0.39438 0.62194 0.0
H2252 H 0.15352 0.37889 0.62959 0.0
H2253 H 0.1545 0.39498 0.63259 0.0
H2254 H 0.1707 0.40291 0.59822 0.0
H2255 H 0.15041 0.36008 0.58762 0.0
H2256 H 0.20362 0.41254 0.58823 0.0
H2257 H 0.1924 0.41927 0.58962 0.0
H2258 H 0.19613 0.4149 0.57274 0.0
H2259 H 0.16023 0.35123 0.57256 0.0
H2260 H 0.17881 0.36006 0.57505 0.0
H2261 H 0.17164 0.36312 0.55974 0.0
H2262 H 0.26176 0.39526 0.61644 0.0
H2263 H 0.28662 0.40769 0.609 0.0
H2264 H 0.27549 0.40772 0.59548 0.0
H2265 H 0.28174 0.39624 0.59399 0.0
H2266 H 0.23527 0.36417 0.58349 0.0
H2267 H 0.25377 0.40468 0.60142 0.0
H2268 H 0.21688 0.36696 0.55685 0.0
H2269 H 0.20452 0.36186 0.57047 0.0
H2270 H 0.21508 0.35437 0.56919 0.0
H2271 H 0.24655 0.41973 0.59542 0.0
H2272 H 0.22791 0.41064 0.5935 0.0
H2273 H 0.2384 0.41673 0.57832 0.0
H2274 H 0.27358 0.39787 0.49928 0.0
H2275 H 0.2505 0.38823 0.49201 0.0
H2276 H 0.26689 0.4314 0.49574 0.0
H2277 H 0.22366 0.3766 0.51359 0.0
H2278 H 0.22722 0.37179 0.49692 0.0
H2279 H 0.21516 0.37755 0.49811 0.0
H2280 H 0.25407 0.44041 0.50497 0.0
H2281 H 0.24247 0.42992 0.51848 0.0
H2282 H 0.23567 0.42972 0.50142 0.0
H2283 H 0.16186 0.41459 0.4723 0.0
H2284 H 0.1453 0.41813 0.48641 0.0
H2285 H 0.15618 0.41502 0.49758 0.0
H2286 H 0.13851 0.4015 0.4941 0.0
H2287 H 0.15768 0.37548 0.48705 0.0
H2288 H 0.17798 0.41931 0.48945 0.0
H2289 H 0.17593 0.37106 0.51279 0.0
H2290 H 0.18666 0.37362 0.49815 0.0
H2291 H 0.16802 0.36375 0.49595 0.0
H2292 H 0.19897 0.43318 0.50171 0.0
H2293 H 0.21038 0.42671 0.50007 0.0
H2294 H 0.20181 0.4249 0.5162 0.0
H2295 H 0.20333 0.38554 0.58799 0.0
H2296 H 0.2387 0.39632 0.55452 0.0
H2297 H 0.24133 0.40137 0.53017 0.0
H2298 H 0.21274 0.40355 0.49392 0.0
H2299 H 0.17845 0.39532 0.52798 0.0
H2300 H 0.17617 0.39096 0.55256 0.0
H2301 H 0.29992 0.42296 0.48814 0.0
H2302 H 0.29894 0.40887 0.49754 0.0
H2303 H 0.29429 0.41996 0.50599 0.0
C2304 C 0.97704 0.36373 0.06221 0.0
C2305 C 0.9872 0.36139 0.05707 0.0
C2306 C 0.97977 0.37208 0.07403 0.0
C2307 C 0.00929 0.40054 0.09342 0.0
H2308 H 0.98079 0.3952 0.11912 0.0
C2309 C 0.00222 0.42768 0.14594 0.0
C2310 C 0.00986 0.44145 0.14194 0.0
C2311 C 0.99967 0.41718 0.13652 0.0
C2312 C 0.98893 0.39679 0.11215 0.0
H2313 H 0.00791 0.36531 0.06086 0.0
H2314 H 0.01257 0.37966 0.08168 0.0
H2315 H 0.97588 0.37732 0.10193 0.0
H2316 H 0.0213 0.45505 0.12509 0.0
H2317 H 0.0165 0.43674 0.10847 0.0
H2318 H 0.0224 0.41991 0.10375 0.0
C2319 C 0.0026 0.37529 0.07636 0.0
C2320 C 0.98607 0.38659 0.10219 0.0
C2321 C 0.99988 0.36697 0.06448 0.0
C2322 C 0.01514 0.44452 0.12838 0.0
C2323 C 0.01254 0.43402 0.11893 0.0
C2324 C 0.01217 0.4107 0.10342 0.0
C2325 C 0.99271 0.37823 0.08105 0.0
C2326 C 0.99614 0.38843 0.09256 0.0
C2327 C 0.00478 0.42022 0.12288 0.0
C2328 C 0.00196 0.40906 0.11277 0.0
H2329 H 0.96716 0.3596 0.05677 0.0
H2330 H 0.97195 0.37421 0.07724 0.0
H2331 H 0.01726 0.40239 0.08609 0.0
H2332 H 0.99831 0.42506 0.15643 0.0
H2333 H 0.99389 0.4067 0.14 0.0
C2334 C 0.62998 0.60145 0.044 0.0
C2335 C 0.63898 0.61574 0.04451 0.0
C2336 C 0.62405 0.59424 0.05616 0.0
C2337 C 0.61687 0.59943 0.09283 0.0
H2338 H 0.60657 0.56151 0.09575 0.0
C2339 C 0.59355 0.5662 0.14215 0.0
C2340 C 0.58017 0.55472 0.13954 0.0
C2341 C 0.60191 0.57384 0.13111 0.0
C2342 C 0.60945 0.57211 0.09505 0.0
H2343 H 0.64924 0.63366 0.05821 0.0
H2344 H 0.63946 0.62104 0.07958 0.0
H2345 H 0.61967 0.57474 0.07573 0.0
H2346 H 0.56539 0.542 0.12305 0.0
H2347 H 0.58025 0.55507 0.10391 0.0
H2348 H 0.6069 0.59672 0.11246 0.0
C2349 C 0.63653 0.6154 0.06973 0.0
C2350 C 0.61684 0.57969 0.08353 0.0
C2351 C 0.64223 0.62265 0.05749 0.0
C2352 C 0.57557 0.55078 0.12557 0.0
C2353 C 0.58408 0.55823 0.11456 0.0
C2354 C 0.60975 0.59192 0.1045 0.0
C2355 C 0.62721 0.6011 0.06922 0.0
C2356 C 0.62041 0.59338 0.0821 0.0
C2357 C 0.59721 0.5699 0.11725 0.0
C2358 C 0.60578 0.57814 0.10555 0.0
H2359 H 0.62716 0.59585 0.03411 0.0
H2360 H 0.6167 0.58331 0.05521 0.0
H2361 H 0.61918 0.60984 0.09206 0.0
H2362 H 0.59746 0.56939 0.15276 0.0
H2363 H 0.61206 0.58279 0.13339 0.0
C2364 C 0.3817 0.01641 0.04454 0.0
C2365 C 0.37002 0.00303 0.04363 0.0
C2366 C 0.39066 0.02061 0.05623 0.0
C2367 C 0.39327 0.01429 0.09299 0.0
H2368 H 0.43083 0.02355 0.08584 0.0
C2369 C 0.43637 0.03079 0.1359 0.0
C2370 C 0.44172 0.02215 0.13635 0.0
C2371 C 0.42794 0.03 0.12468 0.0
C2372 C 0.42041 0.02111 0.08795 0.0
H2373 H 0.35813 0.98383 0.05444 0.0
H2374 H 0.37351 0.99136 0.07504 0.0
H2375 H 0.41508 0.01996 0.06618 0.0
H2376 H 0.44234 0.00587 0.12513 0.0
H2377 H 0.4281 0.00496 0.10535 0.0
H2378 H 0.39858 0.01535 0.11476 0.0
C2379 C 0.37584 0.99848 0.06665 0.0
C2380 C 0.41146 0.01915 0.07675 0.0
C2381 C 0.3671 0.99418 0.05485 0.0
C2382 C 0.43856 0.01281 0.12516 0.0
C2383 C 0.43041 0.01226 0.1138 0.0
C2384 C 0.40232 0.01656 0.1042 0.0
C2385 C 0.38783 0.01163 0.06732 0.0
C2386 C 0.39775 0.01546 0.07918 0.0
C2387 C 0.42496 0.02078 0.11352 0.0
C2388 C 0.41586 0.0197 0.10174 0.0
H2389 H 0.3842 0.0234 0.03599 0.0
H2390 H 0.39987 0.0308 0.05656 0.0
H2391 H 0.38272 0.01142 0.09508 0.0
H2392 H 0.43862 0.03808 0.14433 0.0
H2393 H 0.42382 0.03666 0.12465 0.0
C2394 C 0.37233 0.00343 0.96347 0.0
C2395 C 0.3674 0.99161 0.97152 0.0
C2396 C 0.38135 0.006 0.9525 0.0
C2397 C 0.40727 0.9982 0.94097 0.0
H2398 H 0.40474 0.01356 0.90595 0.0
C2399 C 0.4351 0.01382 0.88374 0.0
C2400 C 0.44911 0.0214 0.88804 0.0
C2401 C 0.4246 0.00907 0.89354 0.0
C2402 C 0.40552 0.00916 0.91562 0.0
H2403 H 0.36776 0.97299 0.97398 0.0
H2404 H 0.38346 0.97749 0.95482 0.0
H2405 H 0.38686 0.00708 0.92334 0.0
H2406 H 0.46312 0.0302 0.90598 0.0
H2407 H 0.44478 0.02179 0.92314 0.0
H2408 H 0.42595 0.00033 0.93328 0.0
C2409 C 0.38045 0.98483 0.95712 0.0
C2410 C 0.39535 0.00557 0.92563 0.0
C2411 C 0.37138 0.98222 0.96804 0.0
C2412 C 0.45242 0.02411 0.90238 0.0
C2413 C 0.44192 0.0193 0.9122 0.0
C2414 C 0.41748 0.00187 0.931 0.0
C2415 C 0.38571 0.99685 0.94936 0.0
C2416 C 0.39615 1.00012 0.93844 0.0
C2417 C 0.42789 0.01186 0.90787 0.0
C2418 C 0.41676 0.00745 0.91824 0.0
H2419 H 0.36948 0.01089 0.96586 0.0
H2420 H 0.3853 0.0154 0.94678 0.0
H2421 H 0.40826 0.99416 0.9508 0.0
H2422 H 0.43227 0.01177 0.87274 0.0
H2423 H 0.41389 0.00329 0.88989 0.0
C2424 C 0.99153 0.37949 0.98204 0.0
C2425 C 1.0002 0.375 0.98698 0.0
C2426 C 0.99588 0.38922 0.97164 0.0
C2427 C 0.01977 0.40404 0.94254 0.0
H2428 H 0.0087 0.4308 0.94453 0.0
C2429 C 0.03165 0.4445 0.8998 0.0
C2430 C 0.02012 0.44517 0.89542 0.0
C2431 C 0.03092 0.43694 0.9115 0.0
C2432 C 0.01185 0.42338 0.94383 0.0
H2433 H 0.02034 0.3773 0.9848 0.0
H2434 H 0.02802 0.3945 0.96647 0.0
H2435 H 0.00495 0.41621 0.9644 0.0
H2436 H 0.99854 0.43781 0.89955 0.0
H2437 H 0.99741 0.42499 0.92015 0.0
H2438 H 0.02656 0.41125 0.92184 0.0
C2439 C 0.01779 0.39035 0.97072 0.0
C2440 C 0.0097 0.41501 0.95519 0.0
C2441 C 0.01342 0.38056 0.98124 0.0
C2442 C 0.00774 0.43786 0.90284 0.0
C2443 C 0.00708 0.43049 0.91464 0.0
C2444 C 0.02203 0.41253 0.93117 0.0
C2445 C 0.00905 0.39481 0.96585 0.0
C2446 C 0.01324 0.40496 0.95453 0.0
C2447 C 0.01866 0.42998 0.9191 0.0
C2448 C 0.01774 0.42202 0.93159 0.0
H2449 H 0.98127 0.37545 0.98616 0.0
H2450 H 0.98876 0.39219 0.96796 0.0
H2451 H 0.02254 0.39635 0.94167 0.0
H2452 H 0.04122 0.4498 0.8941 0.0
H2453 H 0.03997 0.43666 0.9147 0.0
C2454 C 0.61382 0.6368 0.98457 0.0
C2455 C 0.62451 0.63499 0.98005 0.0
C2456 C 0.60276 0.63385 0.97548 0.0
C2457 C 0.59192 0.6306 0.93901 0.0
H2458 H 0.55613 0.59996 0.94966 0.0
C2459 C 0.54154 0.60861 0.90498 0.0
C2460 C 0.53579 0.59471 0.90131 0.0
C2461 C 0.55182 0.61488 0.91545 0.0
C2462 C 0.56603 0.60862 0.94665 0.0
H2463 H 0.63247 0.62943 0.9624 0.0
H2464 H 0.61343 0.62481 0.94641 0.0
H2465 H 0.57575 0.60964 0.9664 0.0
H2466 H 0.5365 0.57653 0.90586 0.0
H2467 H 0.55401 0.58738 0.92451 0.0
H2468 H 0.58225 0.62946 0.9192 0.0
C2469 C 0.6135 0.62829 0.95699 0.0
C2470 C 0.57719 0.61419 0.95621 0.0
C2471 C 0.62433 0.63087 0.96614 0.0
C2472 C 0.54046 0.58717 0.90853 0.0
C2473 C 0.5505 0.59337 0.91921 0.0
C2474 C 0.58069 0.62523 0.92956 0.0
C2475 C 0.60248 0.62945 0.96166 0.0
C2476 C 0.59029 0.62502 0.95234 0.0
C2477 C 0.55637 0.6073 0.92264 0.0
C2478 C 0.56774 0.61399 0.9332 0.0
H2479 H 0.61369 0.63988 0.99527 0.0
H2480 H 0.59433 0.63479 0.97928 0.0
H2481 H 0.60197 0.63892 0.93581 0.0
H2482 H 0.53824 0.61469 0.89951 0.0
H2483 H 0.55626 0.62566 0.91791 0.0
C2484 C 0.01229 0.64131 0.97033 0.0
C2485 C 0.02424 0.64717 0.97899 0.0
C2486 C 0.01151 0.6343 0.95801 0.0
C2487 C 0.03249 0.62926 0.93226 0.0
H2488 H 0.99853 0.59417 0.92551 0.0
C2489 C 0.02778 0.59046 0.89017 0.0
C2490 C 0.01519 0.58306 0.88254 0.0
C2491 C 0.02905 0.59873 0.90162 0.0
C2492 C 0.00801 0.60402 0.92712 0.0
H2493 H 0.04494 0.65065 0.98122 0.0
H2494 H 0.04353 0.63835 0.95971 0.0
H2495 H 0.00055 0.60812 0.94579 0.0
H2496 H 0.99433 0.57906 0.88047 0.0
H2497 H 0.99655 0.59362 0.90036 0.0
H2498 H 0.03995 0.62514 0.91357 0.0
C2499 C 0.0348 0.63925 0.96244 0.0
C2500 C 0.00917 0.61202 0.93875 0.0
C2501 C 0.03557 0.64625 0.9748 0.0
C2502 C 0.00404 0.58442 0.88636 0.0
C2503 C 0.00532 0.59272 0.89777 0.0
C2504 C 0.03131 0.62127 0.92058 0.0
C2505 C 0.02266 0.63301 0.95404 0.0
C2506 C 0.02142 0.62472 0.94147 0.0
C2507 C 0.01781 0.59992 0.90558 0.0
C2508 C 0.01906 0.60854 0.91789 0.0
H2509 H 0.00339 0.64189 0.97319 0.0
H2510 H 0.0021 0.62979 0.95163 0.0
H2511 H 0.042 0.63906 0.934 0.0
H2512 H 0.03662 0.58979 0.88731 0.0
H2513 H 0.03878 0.60405 0.90747 0.0
C2514 C 0.36358 0.38663 0.96812 0.0
C2515 C 0.3594 0.39134 0.97952 0.0
C2516 C 0.36756 0.39393 0.95568 0.0
C2517 C 0.36379 0.4192 0.93577 0.0
H2518 H 0.39672 0.42574 0.91685 0.0
C2519 C 0.3864 0.45676 0.89042 0.0
C2520 C 0.39117 0.45285 0.87888 0.0
C2521 C 0.383 0.44933 0.90273 0.0
C2522 C 0.38741 0.42388 0.92193 0.0
H2523 H 0.35611 0.4074 0.98676 0.0
H2524 H 0.36304 0.42007 0.96513 0.0
H2525 H 0.38955 0.41226 0.93809 0.0
H2526 H 0.39588 0.43799 0.87107 0.0
H2527 H 0.38983 0.42489 0.89256 0.0
H2528 H 0.36155 0.4307 0.91964 0.0
C2529 C 0.36314 0.41069 0.96575 0.0
C2530 C 0.38331 0.41615 0.93408 0.0
C2531 C 0.35924 0.40346 0.97818 0.0
C2532 C 0.39247 0.44136 0.87991 0.0
C2533 C 0.38903 0.43389 0.89222 0.0
C2534 C 0.36786 0.42687 0.92362 0.0
C2535 C 0.36735 0.40602 0.95436 0.0
C2536 C 0.3715 0.41382 0.94119 0.0
C2537 C 0.38412 0.43771 0.90373 0.0
C2538 C 0.37977 0.42939 0.91659 0.0
H2539 H 0.36383 0.37734 0.9688 0.0
H2540 H 0.37064 0.39001 0.94703 0.0
H2541 H 0.35451 0.41738 0.94087 0.0
H2542 H 0.38509 0.46545 0.88985 0.0
H2543 H 0.37943 0.45266 0.91146 0.0
C2544 C 0.63476 0.01461 0.9666 0.0
C2545 C 0.63403 0.00584 0.97715 0.0
C2546 C 0.62472 0.00979 0.9559 0.0
C2547 C 0.59636 0.97788 0.93862 0.0
H2548 H 0.58572 0.00273 0.92441 0.0
C2549 C 0.55087 0.96119 0.89895 0.0
C2550 C 0.55426 0.96945 0.88711 0.0
C2551 C 0.56003 0.96542 0.91045 0.0
C2552 C 0.58863 0.9957 0.92825 0.0
H2553 H 0.62222 0.98506 0.9847 0.0
H2554 H 0.6044 0.9767 0.96623 0.0
H2555 H 0.6027 0.01022 0.94354 0.0
H2556 H 0.56956 0.98887 0.87832 0.0
H2557 H 0.58544 0.99639 0.89856 0.0
H2558 H 0.58198 0.96328 0.92341 0.0
C2559 C 0.61291 0.98726 0.96604 0.0
C2560 C 0.59842 1.0 0.93916 0.0
C2561 C 0.6231 0.99206 0.97667 0.0
C2562 C 0.56673 0.98226 0.88726 0.0
C2563 C 0.57578 0.98657 0.89884 0.0
C2564 C 0.5864 0.97352 0.92782 0.0
C2565 C 0.61353 0.99611 0.95557 0.0
C2566 C 0.60259 0.99122 0.94437 0.0
C2567 C 0.57261 0.97811 0.91047 0.0
C2568 C 0.58258 0.98245 0.92243 0.0
H2569 H 0.64314 0.02525 0.96657 0.0
H2570 H 0.62579 0.01683 0.94784 0.0
H2571 H 0.5994 0.97088 0.9422 0.0
H2572 H 0.54124 0.95136 0.89921 0.0
H2573 H 0.55727 0.95878 0.91936 0.0
C2574 C 0.64199 0.0131 0.05663 0.0
C2575 C 0.64793 0.02466 0.04809 0.0
C2576 C 0.63527 0.01286 0.06884 0.0
C2577 C 0.63137 0.0349 0.09447 0.0
H2578 H 0.5957 0.00199 0.10075 0.0
C2579 C 0.59329 0.03286 0.13531 0.0
C2580 C 0.58584 0.02082 0.14302 0.0
C2581 C 0.60136 0.03344 0.12412 0.0
C2582 C 0.60572 0.01119 0.09927 0.0
H2583 H 0.65184 0.04523 0.04598 0.0
H2584 H 0.64005 0.04477 0.06726 0.0
H2585 H 0.60923 0.00288 0.08081 0.0
H2586 H 0.58151 1.00018 0.14547 0.0
H2587 H 0.59568 0.00118 0.12599 0.0
H2588 H 0.62783 0.04323 0.11293 0.0
C2589 C 0.64067 0.03592 0.06454 0.0
C2590 C 0.61349 0.0117 0.08784 0.0
C2591 C 0.64737 0.03615 0.0523 0.0
C2592 C 0.58691 0.00949 0.13952 0.0
C2593 C 0.59499 0.01006 0.12835 0.0
C2594 C 0.62362 0.03439 0.10594 0.0
C2595 C 0.63436 0.02419 0.07283 0.0
C2596 C 0.62638 0.02357 0.08527 0.0
C2597 C 0.60227 0.02202 0.12048 0.0
C2598 C 0.61067 0.02254 0.10844 0.0
H2599 H 0.64228 0.00409 0.05375 0.0
H2600 H 0.63069 0.00376 0.07513 0.0
H2601 H 0.64134 0.04414 0.09287 0.0
H2602 H 0.59284 0.04183 0.13794 0.0
H2603 H 0.60674 0.04277 0.11821 0.0
C2604 C 0.9929 0.62487 0.05007 0.0
C2605 C 0.007 0.6352 0.04963 0.0
C2606 C 0.98807 0.6151 0.06059 0.0
C2607 C 0.00082 0.60047 0.08717 0.0
H2608 H 0.96476 0.58674 0.1033 0.0
C2609 C 0.9843 0.5717 0.13925 0.0
C2610 C 0.97098 0.55986 0.13964 0.0
C2611 C 0.98845 0.58006 0.12757 0.0
C2612 C 0.9748 0.59039 0.09878 0.0
H2613 H 0.027 0.64367 0.06016 0.0
H2614 H 0.01857 0.62706 0.07869 0.0
H2615 H 0.97235 0.60325 0.08449 0.0
H2616 H 0.95175 0.54723 0.1279 0.0
H2617 H 0.95892 0.56207 0.10756 0.0
H2618 H 0.00341 0.58793 0.10183 0.0
C2619 C 0.01126 0.62613 0.07068 0.0
C2620 C 0.97914 0.59982 0.08797 0.0
C2621 C 0.0161 0.63575 0.0601 0.0
C2622 C 0.96201 0.55639 0.12795 0.0
C2623 C 0.96609 0.56487 0.11635 0.0
C2624 C 0.99655 0.59119 0.09808 0.0
C2625 C 0.99723 0.61555 0.07099 0.0
C2626 C 0.99228 0.60508 0.08211 0.0
C2627 C 0.97932 0.57683 0.11609 0.0
C2628 C 0.98354 0.58613 0.10405 0.0
H2629 H 0.98564 0.62414 0.04211 0.0
H2630 H 0.97723 0.60704 0.06039 0.0
H2631 H 0.01085 0.604 0.08271 0.0
H2632 H 0.99144 0.5746 0.14807 0.0
H2633 H 0.99868 0.58927 0.12767 0.0
C2634 C 0.3886 0.37312 0.04298 0.0
C2635 C 0.37951 0.37778 0.04521 0.0
C2636 C 0.39921 0.37615 0.05274 0.0
C2637 C 0.41866 0.39957 0.08303 0.0
H2638 H 0.42837 0.37255 0.09124 0.0
C2639 C 0.44871 0.40112 0.1329 0.0
C2640 C 0.45951 0.39863 0.13129 0.0
C2641 C 0.44003 0.39946 0.12157 0.0
C2642 C 0.42586 0.38024 0.08893 0.0
H2643 H 0.37421 0.38898 0.05961 0.0
H2644 H 0.39225 0.39381 0.07675 0.0
H2645 H 0.4109 0.36759 0.07312 0.0
H2646 H 0.46999 0.39293 0.11644 0.0
H2647 H 0.45452 0.38968 0.09667 0.0
H2648 H 0.43326 0.41197 0.09927 0.0
C2649 C 0.39158 0.38823 0.06728 0.0
C2650 C 0.41588 0.37744 0.07852 0.0
C2651 C 0.38112 0.38535 0.05748 0.0
C2652 C 0.46164 0.39475 0.11802 0.0
C2653 C 0.45281 0.39288 0.10673 0.0
C2654 C 0.42848 0.40228 0.09356 0.0
C2655 C 0.40085 0.38378 0.06501 0.0
C2656 C 0.41203 0.38701 0.07554 0.0
C2657 C 0.44186 0.39513 0.10843 0.0
C2658 C 0.43209 0.3926 0.0967 0.0
H2659 H 0.38766 0.3673 0.0336 0.0
H2660 H 0.40623 0.37267 0.05054 0.0
H2661 H 0.41625 0.40735 0.08082 0.0
H2662 H 0.44685 0.40415 0.14298 0.0
H2663 H 0.43162 0.4012 0.12318 0.0
C2664 C 0.62633 0.69437 0.37384 0.0
C2665 C 0.63953 0.69621 0.37245 0.0
C2666 C 0.62293 0.69871 0.38597 0.0
C2667 C 0.63375 0.71005 0.42288 0.0
H2668 H 0.61268 0.72755 0.41716 0.0
C2669 C 0.62524 0.74038 0.46642 0.0
C2670 C 0.61176 0.73798 0.46732 0.0
C2671 C 0.62878 0.73497 0.4552 0.0
C2672 C 0.61846 0.72258 0.41895 0.0
H2673 H 0.65936 0.70363 0.38294 0.0
H2674 H 0.65352 0.71148 0.40409 0.0
H2675 H 0.61854 0.71846 0.39717 0.0
H2676 H 0.59137 0.72778 0.45738 0.0
H2677 H 0.59758 0.71844 0.43775 0.0
H2678 H 0.63381 0.71444 0.44472 0.0
C2679 C 0.64572 0.70651 0.39584 0.0
C2680 C 0.62179 0.71732 0.40749 0.0
C2681 C 0.64909 0.70204 0.38371 0.0
C2682 C 0.60187 0.72994 0.45687 0.0
C2683 C 0.60544 0.72463 0.44562 0.0
C2684 C 0.63049 0.71541 0.43437 0.0
C2685 C 0.63268 0.70514 0.39699 0.0
C2686 C 0.62937 0.71087 0.4093 0.0
C2687 C 0.61893 0.72711 0.44464 0.0
C2688 C 0.62271 0.72164 0.43251 0.0
H2689 H 0.61865 0.68976 0.36544 0.0
H2690 H 0.61266 0.69715 0.38662 0.0
H2691 H 0.6395 0.70505 0.42468 0.0
H2692 H 0.63303 0.74646 0.47439 0.0
H2693 H 0.63928 0.73713 0.45468 0.0
C2694 C 0.27352 0.92983 0.3921 0.0
C2695 C 0.28527 0.94313 0.39186 0.0
C2696 C 0.26937 0.92268 0.40452 0.0
C2697 C 0.28337 0.91868 0.43679 0.0
H2698 H 0.24456 0.89543 0.44581 0.0
C2699 C 0.26733 0.87352 0.48298 0.0
C2700 C 0.24879 0.85958 0.48086 0.0
C2701 C 0.27243 0.88821 0.47229 0.0
C2702 C 0.25544 0.9018 0.44339 0.0
H2703 H 0.30172 0.9596 0.40446 0.0
H2704 H 0.2946 0.94681 0.42638 0.0
H2705 H 0.25141 0.91285 0.4281 0.0
H2706 H 0.22804 0.84817 0.46305 0.0
H2707 H 0.23798 0.87205 0.446 0.0
H2708 H 0.28733 0.90717 0.45155 0.0
C2709 C 0.28856 0.94205 0.41688 0.0
C2710 C 0.25936 0.91185 0.43334 0.0
C2711 C 0.29259 0.94936 0.40441 0.0
C2712 C 0.2383 0.85711 0.46475 0.0
C2713 C 0.24431 0.8723 0.45468 0.0
C2714 C 0.27943 0.90856 0.44683 0.0
C2715 C 0.27699 0.92858 0.41699 0.0
C2716 C 0.2733 0.92007 0.4296 0.0
C2717 C 0.26086 0.88771 0.45874 0.0
C2718 C 0.26536 0.89972 0.44985 0.0
H2719 H 0.26765 0.92481 0.38259 0.0
H2720 H 0.26052 0.91227 0.40424 0.0
H2721 H 0.29418 0.9248 0.43401 0.0
H2722 H 0.2736 0.87412 0.49191 0.0
H2723 H 0.28246 0.89742 0.47416 0.0
C2724 C 0.0559 0.33989 0.39532 0.0
C2725 C 0.05376 0.34613 0.38381 0.0
C2726 C 0.06624 0.34772 0.40532 0.0
C2727 C 0.09954 0.37945 0.41056 0.0
H2728 H 0.09126 0.37209 0.44982 0.0
C2729 C 0.14117 0.40791 0.45459 0.0
C2730 C 0.14095 0.39979 0.46561 0.0
C2731 C 0.13036 0.40257 0.44461 0.0
C2732 C 0.09379 0.3742 0.4389 0.0
H2733 H 0.06086 0.36554 0.37375 0.0
H2734 H 0.07919 0.37926 0.39125 0.0
H2735 H 0.07267 0.36064 0.43231 0.0
H2736 H 0.12897 0.37989 0.47511 0.0
H2737 H 0.11037 0.37043 0.45755 0.0
H2738 H 0.12076 0.39265 0.41711 0.0
C2739 C 0.07275 0.36827 0.39248 0.0
C2740 C 0.08312 0.36768 0.42888 0.0
C2741 C 0.06224 0.36043 0.38252 0.0
C2742 C 0.12955 0.38632 0.46661 0.0
C2743 C 0.11881 0.38097 0.45662 0.0
C2744 C 0.11027 0.3859 0.42059 0.0
C2745 C 0.07479 0.36197 0.404 0.0
C2746 C 0.08592 0.37003 0.4146 0.0
C2747 C 0.11904 0.38902 0.44551 0.0
C2748 C 0.10756 0.38314 0.43487 0.0
H2749 H 0.04956 0.32891 0.39667 0.0
H2750 H 0.06769 0.34256 0.41399 0.0
H2751 H 0.10199 0.38137 0.3996 0.0
H2752 H 0.1497 0.41842 0.45374 0.0
H2753 H 0.13077 0.40912 0.43631 0.0
C2754 C 0.03592 0.32173 0.30563 0.0
C2755 C 0.0339 0.31329 0.31704 0.0
C2756 C 0.04094 0.3199 0.29306 0.0
C2757 C 0.04627 0.29506 0.27325 0.0
H2758 H 0.07403 0.32755 0.25432 0.0
C2759 C 0.09043 0.31129 0.22863 0.0
C2760 C 0.08287 0.30058 0.21882 0.0
C2761 C 0.08387 0.31284 0.24013 0.0
C2762 C 0.06636 0.31837 0.25952 0.0
H2763 H 0.03535 0.29615 0.3241 0.0
H2764 H 0.04432 0.29311 0.30231 0.0
H2765 H 0.06358 0.32997 0.27534 0.0
H2766 H 0.06241 0.28361 0.21291 0.0
H2767 H 0.05088 0.28641 0.23288 0.0
H2768 H 0.04944 0.28348 0.25774 0.0
C2769 C 0.04182 0.30101 0.30297 0.0
C2770 C 0.06022 0.31975 0.27147 0.0
C2771 C 0.03675 0.30281 0.31551 0.0
C2772 C 0.06853 0.29175 0.22049 0.0
C2773 C 0.06196 0.29334 0.23195 0.0
C2774 C 0.05246 0.29368 0.26133 0.0
C2775 C 0.0441 0.30962 0.29163 0.0
C2776 C 0.05016 0.30812 0.27854 0.0
C2777 C 0.06956 0.30384 0.24197 0.0
C2778 C 0.06265 0.30532 0.25437 0.0
H2779 H 0.03376 0.32986 0.30643 0.0
H2780 H 0.04237 0.32656 0.28447 0.0
H2781 H 0.03845 0.28588 0.27832 0.0
H2782 H 0.10144 0.31841 0.22746 0.0
H2783 H 0.09008 0.32097 0.24769 0.0
C2784 C 0.69448 0.72713 0.31176 0.0
C2785 C 0.68083 0.72384 0.31397 0.0
C2786 C 0.7038 0.73907 0.30468 0.0
C2787 C 0.71051 0.77312 0.29632 0.0
H2788 H 0.72836 0.77093 0.263 0.0
C2789 C 0.731 0.8213 0.25435 0.0
C2790 C 0.74198 0.82069 0.24045 0.0
C2791 C 0.7245 0.80749 0.26648 0.0
C2792 C 0.72372 0.77182 0.27244 0.0
H2793 H 0.66634 0.73058 0.31073 0.0
H2794 H 0.6826 0.75138 0.2987 0.0
H2795 H 0.71537 0.75069 0.2774 0.0
H2796 H 0.75897 0.81254 0.2349 0.0
H2797 H 0.74847 0.79147 0.25572 0.0
H2798 H 0.71874 0.7941 0.29153 0.0
C2799 C 0.68609 0.74475 0.30234 0.0
C2800 C 0.71625 0.7602 0.28065 0.0
C2801 C 0.67676 0.73278 0.30915 0.0
C2802 C 0.75169 0.81179 0.24257 0.0
C2803 C 0.74455 0.79826 0.25513 0.0
C2804 C 0.71806 0.78472 0.28822 0.0
C2805 C 0.69968 0.74802 0.3 0.0
C2806 C 0.70926 0.76067 0.29245 0.0
C2807 C 0.73082 0.79588 0.26649 0.0
C2808 C 0.7244 0.78409 0.27597 0.0
H2809 H 0.69789 0.72041 0.31533 0.0
H2810 H 0.71424 0.74139 0.30299 0.0
H2811 H 0.7054 0.7738 0.30551 0.0
H2812 H 0.72644 0.82753 0.25347 0.0
H2813 H 0.71645 0.80599 0.2735 0.0
C2814 C 0.25889 0.95387 0.32469 0.0
C2815 C 0.27193 0.96554 0.3278 0.0
C2816 C 0.25096 0.9537 0.31338 0.0
C2817 C 0.24679 0.97396 0.28617 0.0
H2818 H 0.23431 0.94085 0.26394 0.0
C2819 C 0.20905 0.95678 0.23792 0.0
C2820 C 0.21174 0.9506 0.22666 0.0
C2821 C 0.21714 0.9605 0.25022 0.0
C2822 C 0.23782 0.95021 0.26995 0.0
H2823 H 0.28651 0.98656 0.32224 0.0
H2824 H 0.27266 0.98619 0.30207 0.0
H2825 H 0.24615 0.94387 0.2862 0.0
H2826 H 0.22568 0.94451 0.219 0.0
H2827 H 0.23974 0.95091 0.24048 0.0
H2828 H 0.23843 0.98026 0.26965 0.0
C2829 C 0.26853 0.97723 0.30853 0.0
C2830 C 0.24444 0.95187 0.28281 0.0
C2831 C 0.27645 0.97745 0.32005 0.0
C2832 C 0.22318 0.94896 0.22764 0.0
C2833 C 0.2312 0.95262 0.23992 0.0
C2834 C 0.24003 0.97225 0.27325 0.0
C2835 C 0.256 0.96512 0.30475 0.0
C2836 C 0.24893 0.9637 0.29112 0.0
C2837 C 0.22807 0.95813 0.25145 0.0
C2838 C 0.23552 0.96035 0.26501 0.0
H2839 H 0.25511 0.94461 0.33065 0.0
H2840 H 0.24117 0.94435 0.31095 0.0
H2841 H 0.25017 0.98319 0.29235 0.0
H2842 H 0.20046 0.95838 0.23735 0.0
H2843 H 0.21448 0.96472 0.25894 0.0
C2844 C 0.71437 0.96715 0.328 0.0
C2845 C 0.70233 0.9678 0.32857 0.0
C2846 C 0.71781 0.96308 0.31569 0.0
C2847 C 0.70304 0.9443 0.28229 0.0
H2848 H 0.74127 0.96468 0.27062 0.0
C2849 C 0.7199 0.93743 0.22756 0.0
C2850 C 0.73262 0.93817 0.22657 0.0
C2851 C 0.71582 0.94019 0.24027 0.0
C2852 C 0.73058 0.95874 0.27382 0.0
H2853 H 0.68443 0.96459 0.3166 0.0
H2854 H 0.6905 0.95754 0.29507 0.0
H2855 H 0.7349 0.97128 0.29216 0.0
H2856 H 0.75112 0.94246 0.23808 0.0
H2857 H 0.74388 0.94694 0.26037 0.0
H2858 H 0.69872 0.93176 0.26393 0.0
C2859 C 0.6972 0.96008 0.30422 0.0
C2860 C 0.72693 0.96255 0.28616 0.0
C2861 C 0.69378 0.96421 0.31653 0.0
C2862 C 0.74116 0.94162 0.23859 0.0
C2863 C 0.73707 0.94433 0.25131 0.0
C2864 C 0.7067 0.94046 0.26995 0.0
C2865 C 0.70929 0.95952 0.30365 0.0
C2866 C 0.71312 0.9554 0.29053 0.0
C2867 C 0.72443 0.94384 0.25226 0.0
C2868 C 0.72052 0.94764 0.26556 0.0
H2869 H 0.72118 0.9698 0.33707 0.0
H2870 H 0.7271 0.96259 0.31565 0.0
H2871 H 0.69234 0.93847 0.28547 0.0
H2872 H 0.71325 0.93505 0.21839 0.0
H2873 H 0.70613 0.93991 0.24056 0.0
C2874 C 0.03296 0.74826 0.32357 0.0
C2875 C 0.03174 0.73543 0.32441 0.0
C2876 C 0.03782 0.75598 0.31149 0.0
C2877 C 0.05863 0.76088 0.28047 0.0
H2878 H 0.04136 0.78023 0.26667 0.0
C2879 C 0.07435 0.7904 0.22865 0.0
C2880 C 0.07522 0.80309 0.22848 0.0
C2881 C 0.06889 0.78184 0.24012 0.0
C2882 C 0.04641 0.77502 0.27047 0.0
H2883 H 0.03462 0.72063 0.31313 0.0
H2884 H 0.0431 0.73415 0.29197 0.0
H2885 H 0.03191 0.76564 0.28691 0.0
H2886 H 0.07065 0.81656 0.24 0.0
H2887 H 0.06139 0.80178 0.2602 0.0
H2888 H 0.07322 0.77037 0.26412 0.0
C2889 C 0.04037 0.73825 0.30074 0.0
C2890 C 0.04097 0.76663 0.28206 0.0
C2891 C 0.03544 0.73047 0.31283 0.0
C2892 C 0.07032 0.80695 0.23995 0.0
C2893 C 0.06488 0.7984 0.25144 0.0
C2894 C 0.0641 0.76931 0.2689 0.0
C2895 C 0.04163 0.7511 0.29995 0.0
C2896 C 0.04707 0.75954 0.28726 0.0
C2897 C 0.06407 0.78572 0.25165 0.0
C2898 C 0.05811 0.77655 0.26381 0.0
H2899 H 0.03023 0.75242 0.33228 0.0
H2900 H 0.03883 0.76591 0.3113 0.0
H2901 H 0.06368 0.75569 0.28433 0.0
H2902 H 0.07778 0.78704 0.21982 0.0
H2903 H 0.06819 0.77205 0.23983 0.0
C2904 C 0.2703 0.31004 0.31223 0.0
C2905 C 0.27969 0.32405 0.31004 0.0
C2906 C 0.2597 0.30211 0.30236 0.0
C2907 C 0.24096 0.30599 0.27212 0.0
H2908 H 0.22976 0.26844 0.26325 0.0
C2909 C 0.2115 0.27759 0.2214 0.0
C2910 C 0.19997 0.26423 0.22261 0.0
C2911 C 0.22013 0.28447 0.23297 0.0
C2912 C 0.2327 0.27887 0.26575 0.0
H2913 H 0.28568 0.34058 0.29553 0.0
H2914 H 0.26771 0.3268 0.27825 0.0
H2915 H 0.2472 0.28109 0.28172 0.0
H2916 H 0.18821 0.24776 0.23701 0.0
H2917 H 0.20361 0.2597 0.25722 0.0
H2918 H 0.22687 0.30391 0.25575 0.0
C2919 C 0.26808 0.32195 0.28776 0.0
C2920 C 0.24265 0.28612 0.27635 0.0
C2921 C 0.27849 0.32986 0.29765 0.0
C2922 C 0.19712 0.25799 0.23573 0.0
C2923 C 0.20591 0.26479 0.24727 0.0
C2924 C 0.23119 0.29882 0.26142 0.0
C2925 C 0.25839 0.30802 0.29005 0.0
C2926 C 0.24708 0.29986 0.27952 0.0
C2927 C 0.21752 0.27808 0.24597 0.0
C2928 C 0.2271 0.28526 0.25801 0.0
H2929 H 0.27095 0.30528 0.32169 0.0
H2930 H 0.25239 0.29144 0.30452 0.0
H2931 H 0.24378 0.31641 0.27451 0.0
H2932 H 0.21393 0.28267 0.21144 0.0
H2933 H 0.22906 0.29469 0.23167 0.0
C2934 C 0.2982 0.37123 0.37704 0.0
C2935 C 0.29903 0.35943 0.37605 0.0
C2936 C 0.29442 0.3747 0.38948 0.0
C2937 C 0.29296 0.36932 0.42744 0.0
H2938 H 0.26995 0.38512 0.42623 0.0
C2939 C 0.27673 0.38534 0.47757 0.0
C2940 C 0.27834 0.39836 0.47736 0.0
C2941 C 0.27765 0.37923 0.46526 0.0
C2942 C 0.27643 0.38077 0.42673 0.0
H2943 H 0.29641 0.34197 0.38741 0.0
H2944 H 0.28966 0.348 0.40918 0.0
H2945 H 0.27453 0.37678 0.40469 0.0
H2946 H 0.28238 0.41527 0.46415 0.0
H2947 H 0.28389 0.40457 0.44263 0.0
H2948 H 0.29497 0.37345 0.44949 0.0
C2949 C 0.29211 0.35463 0.40032 0.0
C2950 C 0.27908 0.37601 0.41439 0.0
C2951 C 0.29592 0.35115 0.38783 0.0
C2952 C 0.28079 0.4051 0.46457 0.0
C2953 C 0.28164 0.39896 0.45226 0.0
C2954 C 0.29028 0.37403 0.4398 0.0
C2955 C 0.2913 0.36645 0.40128 0.0
C2956 C 0.28757 0.37045 0.41456 0.0
C2957 C 0.28024 0.38603 0.45249 0.0
C2958 C 0.28216 0.38001 0.43955 0.0
H2959 H 0.30057 0.37789 0.3682 0.0
H2960 H 0.29416 0.38401 0.38991 0.0
H2961 H 0.29967 0.36523 0.42793 0.0
H2962 H 0.27502 0.38002 0.48732 0.0
H2963 H 0.27644 0.36922 0.46575 0.0
C2964 C 0.65171 0.94123 0.38924 0.0
C2965 C 0.66584 0.95034 0.3925 0.0
C2966 C 0.64315 0.93112 0.39866 0.0
C2967 C 0.63984 0.92319 0.4358 0.0
H2968 H 0.61729 0.88508 0.42384 0.0
C2969 C 0.61356 0.88058 0.47593 0.0
C2970 C 0.60023 0.86935 0.47276 0.0
C2971 C 0.62128 0.89007 0.46572 0.0
C2972 C 0.62335 0.89569 0.42733 0.0
H2973 H 0.68203 0.95608 0.40825 0.0
H2974 H 0.66705 0.93862 0.42472 0.0
H2975 H 0.63084 0.90262 0.40673 0.0
H2976 H 0.58465 0.85904 0.45632 0.0
H2977 H 0.5979 0.87588 0.43854 0.0
H2978 H 0.63226 0.91648 0.45628 0.0
C2979 C 0.66262 0.93926 0.41487 0.0
C2980 C 0.63113 0.90572 0.41752 0.0
C2981 C 0.6712 0.94921 0.4054 0.0
C2982 C 0.59489 0.86764 0.45905 0.0
C2983 C 0.60253 0.87725 0.44886 0.0
C2984 C 0.63196 0.91323 0.44555 0.0
C2985 C 0.64853 0.9301 0.41159 0.0
C2986 C 0.63959 0.91953 0.42172 0.0
C2987 C 0.61577 0.88869 0.45211 0.0
C2988 C 0.62376 0.89931 0.44151 0.0
H2989 H 0.64729 0.94183 0.37936 0.0
H2990 H 0.6323 0.9242 0.39592 0.0
H2991 H 0.64613 0.93381 0.43926 0.0
H2992 H 0.61799 0.88209 0.48637 0.0
H2993 H 0.63157 0.89852 0.46854 0.0
C2994 C 0.05558 0.71129 0.38797 0.0
C2995 C 0.04751 0.71716 0.38999 0.0
C2996 C 0.06548 0.71306 0.39808 0.0
C2997 C 0.08509 0.73469 0.42939 0.0
H2998 H 0.09012 0.70455 0.43782 0.0
C2999 C 0.10962 0.73076 0.48094 0.0
C3000 C 0.11934 0.72671 0.48008 0.0
C3001 C 0.10226 0.73059 0.46904 0.0
C3002 C 0.08894 0.7131 0.43545 0.0
H3003 H 0.04332 0.72926 0.40434 0.0
H3004 H 0.06011 0.73194 0.42204 0.0
H3005 H 0.07436 0.70203 0.41877 0.0
H3006 H 0.12932 0.71976 0.46599 0.0
H3007 H 0.11613 0.71912 0.44518 0.0
H3008 H 0.09925 0.74551 0.44648 0.0
C3009 C 0.0592 0.72634 0.4125 0.0
C3010 C 0.07994 0.7117 0.42451 0.0
C3011 C 0.04946 0.72471 0.40237 0.0
C3012 C 0.12177 0.72279 0.46698 0.0
C3013 C 0.11424 0.72241 0.4551 0.0
C3014 C 0.09392 0.73602 0.44043 0.0
C3015 C 0.06742 0.72063 0.41049 0.0
C3016 C 0.07774 0.72241 0.42146 0.0
C3017 C 0.10434 0.72621 0.45605 0.0
C3018 C 0.09581 0.72518 0.44368 0.0
H3019 H 0.05437 0.70546 0.37851 0.0
H3020 H 0.07171 0.70863 0.39608 0.0
H3021 H 0.08396 0.7433 0.42714 0.0
H3022 H 0.10755 0.73385 0.49088 0.0
H3023 H 0.09463 0.7335 0.47008 0.0
C3024 C 0.31337 0.03432 0.71505 0.0
C3025 C 0.30637 0.03342 0.70247 0.0
C3026 C 0.31008 0.03842 0.72749 0.0
C3027 C 0.283 0.04325 0.7433 0.0
H3028 H 0.31291 0.06798 0.76875 0.0
C3029 C 0.29425 0.0844 0.79088 0.0
C3030 C 0.28151 0.07714 0.7977 0.0
C3031 C 0.29731 0.07817 0.78008 0.0
C3032 C 0.30443 0.06116 0.7617 0.0
H3033 H 0.29038 0.03607 0.69313 0.0
H3034 H 0.28496 0.04351 0.71456 0.0
H3035 H 0.31796 0.05876 0.74824 0.0
H3036 H 0.26247 0.05742 0.79925 0.0
H3037 H 0.26793 0.04639 0.78069 0.0
H3038 H 0.26957 0.04621 0.75627 0.0
C3039 C 0.29274 0.04074 0.71499 0.0
C3040 C 0.30731 0.0557 0.75004 0.0
C3041 C 0.29593 0.03655 0.70263 0.0
C3042 C 0.2722 0.06335 0.79391 0.0
C3043 C 0.27532 0.05706 0.78324 0.0
C3044 C 0.28015 0.04883 0.75486 0.0
C3045 C 0.29979 0.04179 0.72758 0.0
C3046 C 0.29665 0.0468 0.74058 0.0
C3047 C 0.28784 0.06444 0.77605 0.0
C3048 C 0.29084 0.05797 0.76415 0.0
H3049 H 0.32144 0.03194 0.71529 0.0
H3050 H 0.3156 0.03893 0.73702 0.0
H3051 H 0.27447 0.03625 0.7364 0.0
H3052 H 0.30181 0.09495 0.79377 0.0
H3053 H 0.30699 0.08423 0.77473 0.0
C3054 C 0.97973 0.26764 0.7124 0.0
C3055 C 0.972 0.27294 0.70697 0.0
C3056 C 0.97505 0.25906 0.72389 0.0
C3057 C 0.94703 0.24384 0.75074 0.0
H3058 H 0.95512 0.21492 0.74932 0.0
C3059 C 0.90893 0.18761 0.78188 0.0
C3060 C 0.92027 0.18328 0.79198 0.0
C3061 C 0.91816 0.20271 0.77148 0.0
C3062 C 0.95291 0.22303 0.74997 0.0
H3063 H 0.95354 0.27384 0.70933 0.0
H3064 H 0.94479 0.25814 0.72881 0.0
H3065 H 0.96554 0.23317 0.73261 0.0
H3066 H 0.94414 0.18516 0.79195 0.0
H3067 H 0.95727 0.20856 0.77396 0.0
H3068 H 0.93354 0.23284 0.76761 0.0
C3069 C 0.95477 0.26097 0.7247 0.0
C3070 C 0.95898 0.23362 0.74042 0.0
C3071 C 0.95973 0.26994 0.71348 0.0
C3072 C 0.93815 0.18876 0.78671 0.0
C3073 C 0.94637 0.20376 0.77613 0.0
C3074 C 0.94065 0.23299 0.76006 0.0
C3075 C 0.9622 0.25512 0.72987 0.0
C3076 C 0.95616 0.24422 0.74063 0.0
C3077 C 0.93661 0.21082 0.76909 0.0
C3078 C 0.94359 0.22254 0.75973 0.0
H3079 H 0.9893 0.26994 0.70758 0.0
H3080 H 0.98138 0.25526 0.72782 0.0
H3081 H 0.94474 0.25188 0.75147 0.0
H3082 H 0.8981 0.18323 0.78422 0.0
H3083 H 0.91254 0.20683 0.76646 0.0
C3084 C 0.72771 0.69629 0.71171 0.0
C3085 C 0.71895 0.68206 0.71323 0.0
C3086 C 0.73834 0.7041 0.72157 0.0
C3087 C 0.74917 0.70361 0.75795 0.0
H3088 H 0.78665 0.72778 0.74531 0.0
C3089 C 0.79635 0.72159 0.79453 0.0
C3090 C 0.80782 0.735 0.79338 0.0
C3091 C 0.7854 0.71632 0.78477 0.0
C3092 C 0.77622 0.72126 0.74903 0.0
H3093 H 0.7143 0.66493 0.72645 0.0
H3094 H 0.73266 0.6785 0.74357 0.0
H3095 H 0.76747 0.71673 0.72823 0.0
H3096 H 0.81652 0.75359 0.78145 0.0
H3097 H 0.79728 0.74442 0.7644 0.0
H3098 H 0.75781 0.70799 0.77869 0.0
C3099 C 0.73134 0.68365 0.73481 0.0
C3100 C 0.76524 0.71493 0.73924 0.0
C3101 C 0.72087 0.67586 0.72492 0.0
C3102 C 0.80794 0.74313 0.78241 0.0
C3103 C 0.79694 0.73786 0.77265 0.0
C3104 C 0.7601 0.70997 0.76772 0.0
C3105 C 0.74024 0.69783 0.73322 0.0
C3106 C 0.75166 0.70581 0.74359 0.0
C3107 C 0.78553 0.72439 0.77373 0.0
C3108 C 0.77381 0.71863 0.76337 0.0
H3109 H 0.7265 0.70136 0.7028 0.0
H3110 H 0.74504 0.71503 0.72014 0.0
H3111 H 0.73877 0.6968 0.76162 0.0
H3112 H 0.79585 0.71516 0.803 0.0
H3113 H 0.77688 0.70584 0.78583 0.0
C3114 C 0.70693 0.65872 0.63664 0.0
C3115 C 0.70051 0.64863 0.64684 0.0
C3116 C 0.7123 0.6562 0.62467 0.0
C3117 C 0.7241 0.63341 0.61192 0.0
H3118 H 0.72152 0.64615 0.5753 0.0
C3119 C 0.73529 0.61352 0.56161 0.0
C3120 C 0.7435 0.62321 0.55162 0.0
C3121 C 0.73051 0.61734 0.57309 0.0
C3122 C 0.72243 0.64266 0.5855 0.0
H3123 H 0.69411 0.62779 0.65214 0.0
H3124 H 0.70308 0.62329 0.63124 0.0
H3125 H 0.71189 0.65137 0.59545 0.0
H3126 H 0.75295 0.64443 0.54568 0.0
H3127 H 0.74448 0.65111 0.56581 0.0
H3128 H 0.73439 0.62449 0.60196 0.0
C3129 C 0.70439 0.6333 0.63262 0.0
C3130 C 0.71694 0.64565 0.59704 0.0
C3131 C 0.69915 0.63585 0.64459 0.0
C3132 C 0.7467 0.63678 0.55328 0.0
C3133 C 0.7418 0.64057 0.56472 0.0
C3134 C 0.72948 0.63034 0.60041 0.0
C3135 C 0.71127 0.64351 0.62264 0.0
C3136 C 0.71757 0.64091 0.61037 0.0
C3137 C 0.73371 0.63089 0.57478 0.0
C3138 C 0.72858 0.63481 0.58705 0.0
H3139 H 0.70816 0.66868 0.63809 0.0
H3140 H 0.7176 0.66432 0.61723 0.0
H3141 H 0.7251 0.6299 0.62208 0.0
H3142 H 0.73252 0.60296 0.56052 0.0
H3143 H 0.72413 0.60961 0.58056 0.0
C3144 C 0.34029 0.06654 0.63595 0.0
C3145 C 0.34523 0.05877 0.6421 0.0
C3146 C 0.34926 0.07857 0.629 0.0
C3147 C 0.38086 0.09625 0.60954 0.0
H3148 H 0.37973 0.12859 0.61907 0.0
C3149 C 0.41645 0.14901 0.57297 0.0
C3150 C 0.40587 0.15684 0.56959 0.0
C3151 C 0.4091 0.13526 0.58528 0.0
C3152 C 0.38007 0.11964 0.61612 0.0
H3153 H 0.36342 0.05741 0.64553 0.0
H3154 H 0.37913 0.07845 0.63295 0.0
H3155 H 0.36648 0.10791 0.63254 0.0
H3156 H 0.38826 0.16197 0.5808 0.0
H3157 H 0.37799 0.14019 0.60056 0.0
H3158 H 0.39393 0.10775 0.59272 0.0
C3159 C 0.3683 0.07518 0.63371 0.0
C3160 C 0.37256 0.10783 0.62394 0.0
C3161 C 0.35933 0.0632 0.64092 0.0
C3162 C 0.39337 0.15632 0.58235 0.0
C3163 C 0.38676 0.14237 0.5943 0.0
C3164 C 0.38828 0.10806 0.60159 0.0
C3165 C 0.36334 0.08304 0.62785 0.0
C3166 C 0.37264 0.09594 0.62055 0.0
C3167 C 0.39418 0.13172 0.59536 0.0
C3168 C 0.38769 0.11977 0.60462 0.0
H3169 H 0.32951 0.06346 0.63668 0.0
H3170 H 0.34515 0.08436 0.62443 0.0
H3171 H 0.38103 0.08717 0.60668 0.0
H3172 H 0.42451 0.15041 0.566 0.0
H3173 H 0.41363 0.12905 0.5865 0.0
C3174 C 0.94536 0.29556 0.64081 0.0
C3175 C 0.94795 0.28513 0.64392 0.0
C3176 C 0.93455 0.29299 0.63154 0.0
C3177 C 0.90159 0.26535 0.61626 0.0
H3178 H 0.90996 0.28942 0.58484 0.0
C3179 C 0.86001 0.25852 0.5756 0.0
C3180 C 0.86357 0.25862 0.56157 0.0
C3181 C 0.86998 0.2625 0.58631 0.0
C3182 C 0.90748 0.28264 0.59359 0.0
H3183 H 0.94103 0.26376 0.64006 0.0
H3184 H 0.92211 0.25927 0.6241 0.0
H3185 H 0.92784 0.29499 0.6028 0.0
H3186 H 0.88035 0.26294 0.54777 0.0
H3187 H 0.89784 0.27014 0.56648 0.0
H3188 H 0.8813 0.25291 0.60698 0.0
C3189 C 0.92844 0.26942 0.62877 0.0
C3190 C 0.91766 0.28589 0.6039 0.0
C3191 C 0.93934 0.27203 0.63784 0.0
C3192 C 0.87734 0.26289 0.55848 0.0
C3193 C 0.88734 0.26704 0.56916 0.0
C3194 C 0.89136 0.26221 0.60606 0.0
C3195 C 0.92602 0.27989 0.62543 0.0
C3196 C 0.91487 0.27715 0.61521 0.0
C3197 C 0.88375 0.26682 0.58318 0.0
C3198 C 0.89428 0.27071 0.59451 0.0
H3199 H 0.95183 0.30576 0.64532 0.0
H3200 H 0.93285 0.30122 0.62916 0.0
H3201 H 0.89917 0.25849 0.62492 0.0
H3202 H 0.84948 0.25528 0.5783 0.0
H3203 H 0.86696 0.2623 0.59703 0.0
C3204 C 0.35703 0.3023 0.64785 0.0
C3205 C 0.36597 0.30602 0.65959 0.0
C3206 C 0.35998 0.29794 0.6354 0.0
C3207 C 0.38886 0.29965 0.61626 0.0
H3208 H 0.35981 0.26797 0.5957 0.0
C3209 C 0.40119 0.27614 0.56946 0.0
C3210 C 0.39212 0.27184 0.55778 0.0
C3211 C 0.39766 0.27973 0.58203 0.0
C3212 C 0.36801 0.27693 0.60123 0.0
H3213 H 0.38506 0.30806 0.6674 0.0
H3214 H 0.39017 0.30047 0.64574 0.0
H3215 H 0.35429 0.27567 0.61714 0.0
H3216 H 0.37243 0.26823 0.55001 0.0
H3217 H 0.36629 0.27464 0.5719 0.0
H3218 H 0.40257 0.30105 0.60034 0.0
C3219 C 0.38093 0.30102 0.64612 0.0
C3220 C 0.36484 0.28133 0.61352 0.0
C3221 C 0.37795 0.30531 0.65857 0.0
C3222 C 0.37947 0.27124 0.55894 0.0
C3223 C 0.37596 0.27489 0.57149 0.0
C3224 C 0.39202 0.29529 0.60396 0.0
C3225 C 0.37199 0.29727 0.6344 0.0
C3226 C 0.37524 0.29272 0.62119 0.0
C3227 C 0.38506 0.2793 0.58316 0.0
C3228 C 0.38165 0.28384 0.59631 0.0
H3229 H 0.34771 0.30273 0.64828 0.0
H3230 H 0.35296 0.29524 0.6265 0.0
H3231 H 0.39706 0.30859 0.62181 0.0
H3232 H 0.41111 0.27692 0.56881 0.0
H3233 H 0.40484 0.28292 0.59085 0.0
C3234 C 0.70031 0.07607 0.64736 0.0
C3235 C 0.69917 0.06344 0.64971 0.0
C3236 C 0.7038 0.08204 0.63424 0.0
C3237 C 0.72123 0.08301 0.60196 0.0
H3238 H 0.70072 0.09847 0.58643 0.0
C3239 C 0.73061 0.10516 0.54628 0.0
C3240 C 0.73006 0.11701 0.54441 0.0
C3241 C 0.72682 0.09827 0.55895 0.0
C3242 C 0.70669 0.09438 0.59068 0.0
H3243 H 0.70091 0.0472 0.64008 0.0
H3244 H 0.70714 0.05775 0.61711 0.0
H3245 H 0.6941 0.08701 0.60878 0.0
H3246 H 0.72471 0.1307 0.55423 0.0
H3247 H 0.71857 0.11901 0.57647 0.0
H3248 H 0.73401 0.09061 0.58401 0.0
C3249 C 0.70531 0.06299 0.62549 0.0
C3250 C 0.70284 0.08776 0.60347 0.0
C3251 C 0.70168 0.05693 0.63861 0.0
C3252 C 0.7255 0.12175 0.55544 0.0
C3253 C 0.72181 0.11493 0.56813 0.0
C3254 C 0.72516 0.08973 0.5892 0.0
C3255 C 0.70635 0.07559 0.62317 0.0
C3256 C 0.71012 0.08209 0.60929 0.0
C3257 C 0.72232 0.10305 0.57003 0.0
C3258 C 0.718 0.09559 0.58344 0.0
H3259 H 0.69846 0.08138 0.65566 0.0
H3260 H 0.70468 0.09183 0.63281 0.0
H3261 H 0.72711 0.07884 0.60627 0.0
H3262 H 0.7338 0.10112 0.53784 0.0
H3263 H 0.72712 0.08903 0.55994 0.0
C3264 C 0.94532 0.67071 0.62313 0.0
C3265 C 0.94634 0.6642 0.63504 0.0
C3266 C 0.93528 0.66326 0.61275 0.0
C3267 C 0.9115 0.62792 0.59895 0.0
H3268 H 0.89537 0.64559 0.57876 0.0
C3269 C 0.86857 0.60023 0.55597 0.0
C3270 C 0.87161 0.60721 0.54326 0.0
C3271 C 0.87655 0.60677 0.56803 0.0
C3272 C 0.8998 0.64054 0.58431 0.0
H3273 H 0.9375 0.64472 0.64544 0.0
H3274 H 0.91964 0.63173 0.62745 0.0
H3275 H 0.91124 0.65754 0.59846 0.0
H3276 H 0.88501 0.62663 0.53336 0.0
H3277 H 0.89876 0.63816 0.5545 0.0
H3278 H 0.89985 0.61085 0.58479 0.0
C3279 C 0.92683 0.64258 0.626 0.0
C3280 C 0.90896 0.6474 0.59555 0.0
C3281 C 0.93702 0.65003 0.63635 0.0
C3282 C 0.88246 0.621 0.54299 0.0
C3283 C 0.89028 0.6276 0.55508 0.0
C3284 C 0.90218 0.62099 0.58781 0.0
C3285 C 0.92582 0.64912 0.61406 0.0
C3286 C 0.91517 0.6413 0.60285 0.0
C3287 C 0.88754 0.6205 0.56767 0.0
C3288 C 0.89644 0.62734 0.58023 0.0
H3289 H 0.95242 0.68158 0.62171 0.0
H3290 H 0.93509 0.66862 0.60357 0.0
H3291 H 0.91617 0.62294 0.60419 0.0
H3292 H 0.86017 0.58963 0.5565 0.0
H3293 H 0.87414 0.60112 0.57764 0.0
C3294 C 0.96153 0.68766 0.71408 0.0
C3295 C 0.9651 0.69646 0.70268 0.0
C3296 C 0.95772 0.69084 0.72675 0.0
C3297 C 0.94559 0.71256 0.742 0.0
H3298 H 0.96025 0.7076 0.77675 0.0
C3299 C 0.94705 0.73946 0.79378 0.0
C3300 C 0.94409 0.73201 0.80615 0.0
C3301 C 0.94799 0.73385 0.78112 0.0
C3302 C 0.9559 0.70886 0.76716 0.0
H3303 H 0.96746 0.71553 0.69571 0.0
H3304 H 0.96106 0.72114 0.71775 0.0
H3305 H 0.96503 0.70013 0.75475 0.0
H3306 H 0.93997 0.71295 0.81502 0.0
H3307 H 0.94153 0.70307 0.79286 0.0
H3308 H 0.93672 0.72157 0.7544 0.0
C3309 C 0.96095 0.71166 0.71687 0.0
C3310 C 0.95863 0.70457 0.75454 0.0
C3311 C 0.96474 0.70848 0.70424 0.0
C3312 C 0.94206 0.71882 0.8056 0.0
C3313 C 0.94307 0.71323 0.79295 0.0
C3314 C 0.9429 0.71689 0.7546 0.0
C3315 C 0.95739 0.70289 0.72829 0.0
C3316 C 0.95367 0.70654 0.74179 0.0
C3317 C 0.94617 0.72074 0.78059 0.0
C3318 C 0.94817 0.71524 0.76731 0.0
H3319 H 0.96166 0.6783 0.71323 0.0
H3320 H 0.95491 0.6838 0.7353 0.0
H3321 H 0.94137 0.71399 0.7324 0.0
H3322 H 0.94897 0.74976 0.79395 0.0
H3323 H 0.95062 0.73999 0.77184 0.0
C3324 C 0.33572 0.2873 0.73679 0.0
C3325 C 0.3303 0.28871 0.72406 0.0
C3326 C 0.3271 0.27743 0.7463 0.0
C3327 C 0.29519 0.24434 0.74923 0.0
H3328 H 0.2973 0.25514 0.78813 0.0
C3329 C 0.25945 0.20651 0.79122 0.0
C3330 C 0.26505 0.20813 0.80479 0.0
C3331 C 0.26698 0.21608 0.78095 0.0
C3332 C 0.29671 0.25187 0.77736 0.0
H3333 H 0.3116 0.28077 0.71127 0.0
H3334 H 0.29653 0.26324 0.72789 0.0
H3335 H 0.31107 0.27238 0.77101 0.0
H3336 H 0.28315 0.22066 0.81808 0.0
H3337 H 0.29651 0.23701 0.80012 0.0
H3338 H 0.28119 0.22375 0.7556 0.0
C3339 C 0.30746 0.2699 0.73047 0.0
C3340 C 0.30454 0.26179 0.76754 0.0
C3341 C 0.31606 0.27996 0.72101 0.0
C3342 C 0.27852 0.21922 0.80775 0.0
C3343 C 0.28612 0.22867 0.79746 0.0
C3344 C 0.28748 0.23435 0.7591 0.0
C3345 C 0.31291 0.26861 0.74323 0.0
C3346 C 0.30395 0.25812 0.75341 0.0
C3347 C 0.28036 0.22739 0.78399 0.0
C3348 C 0.28824 0.23797 0.77333 0.0
H3349 H 0.34663 0.29389 0.73949 0.0
H3350 H 0.33159 0.27657 0.75602 0.0
H3351 H 0.29464 0.24123 0.7384 0.0
H3352 H 0.24911 0.19801 0.78864 0.0
H3353 H 0.26216 0.21479 0.77075 0.0
C3354 C 0.7263 0.04259 0.71339 0.0
C3355 C 0.71911 0.04933 0.7157 0.0
C3356 C 0.73677 0.04443 0.72278 0.0
C3357 C 0.75949 0.06758 0.75201 0.0
H3358 H 0.76395 0.03715 0.7608 0.0
C3359 C 0.78745 0.06532 0.80177 0.0
C3360 C 0.7972 0.0614 0.80005 0.0
C3361 C 0.77909 0.06457 0.79052 0.0
C3362 C 0.7629 0.04577 0.75832 0.0
H3363 H 0.71697 0.06296 0.72987 0.0
H3364 H 0.73467 0.06573 0.7464 0.0
H3365 H 0.74684 0.03411 0.74303 0.0
H3366 H 0.80619 0.05412 0.78508 0.0
H3367 H 0.79117 0.05236 0.76546 0.0
H3368 H 0.77513 0.079 0.7678 0.0
C3369 C 0.73271 0.05943 0.73713 0.0
C3370 C 0.75314 0.04407 0.7481 0.0
C3371 C 0.72243 0.05775 0.72768 0.0
C3372 C 0.79862 0.057 0.78675 0.0
C3373 C 0.79005 0.056 0.77555 0.0
C3374 C 0.76906 0.0692 0.76236 0.0
C3375 C 0.74013 0.05291 0.73477 0.0
C3376 C 0.75116 0.0549 0.74494 0.0
C3377 C 0.78018 0.05973 0.77737 0.0
C3378 C 0.77074 0.05827 0.76571 0.0
H3379 H 0.72401 0.03607 0.70422 0.0
H3380 H 0.74235 0.03935 0.72053 0.0
H3381 H 0.75857 0.07629 0.74963 0.0
H3382 H 0.78617 0.0688 0.81187 0.0
H3383 H 0.7715 0.06745 0.79219 0.0
C3384 C 0.03146 0.32669 0.01592 0.0
C3385 C 0.02914 0.33623 0.02269 0.0
C3386 C 0.03947 0.32221 0.02241 0.0
C3387 C 0.06442 0.32919 0.05158 0.0
H3388 H 0.04667 0.28967 0.05109 0.0
C3389 C 0.08482 0.30262 0.09616 0.0
C3390 C 0.08373 0.28696 0.08878 0.0
C3391 C 0.07871 0.3107 0.0845 0.0
C3392 C 0.05202 0.30073 0.05114 0.0
H3393 H 0.03414 0.34915 0.04125 0.0
H3394 H 0.04808 0.34128 0.05256 0.0
H3395 H 0.0367 0.30014 0.03738 0.0
H3396 H 0.07003 0.26665 0.07114 0.0
H3397 H 0.05993 0.28019 0.054 0.0
H3398 H 0.07967 0.32971 0.06548 0.0
C3399 C 0.04373 0.33729 0.04222 0.0
C3400 C 0.04623 0.30675 0.04326 0.0
C3401 C 0.03567 0.34176 0.03575 0.0
C3402 C 0.07133 0.27631 0.07449 0.0
C3403 C 0.06567 0.28519 0.06354 0.0
C3404 C 0.07028 0.32314 0.05942 0.0
C3405 C 0.04539 0.32718 0.03579 0.0
C3406 C 0.05227 0.32104 0.04346 0.0
C3407 C 0.06969 0.30227 0.06826 0.0
C3408 C 0.06407 0.30883 0.05937 0.0
H3409 H 0.02666 0.32228 0.00583 0.0
H3410 H 0.04075 0.31457 0.01708 0.0
H3411 H 0.06939 0.34024 0.05187 0.0
H3412 H 0.09102 0.30791 0.10541 0.0
H3413 H 0.08026 0.32054 0.08746 0.0
C3414 C 0.6623 0.69031 0.04063 0.0
C3415 C 0.6689 0.69114 0.02803 0.0
C3416 C 0.66648 0.70209 0.04879 0.0
C3417 C 0.6873 0.7403 0.04777 0.0
H3418 H 0.68978 0.73754 0.08791 0.0
C3419 C 0.72491 0.79481 0.08266 0.0
C3420 C 0.71634 0.79471 0.09913 0.0
C3421 C 0.71577 0.77915 0.07246 0.0
C3422 C 0.68895 0.73846 0.07675 0.0
H3423 H 0.68493 0.70503 0.01402 0.0
H3424 H 0.69242 0.72545 0.02835 0.0
H3425 H 0.67995 0.71694 0.07322 0.0
H3426 H 0.7002 0.77881 0.11855 0.0
H3427 H 0.68708 0.75408 0.10133 0.0
H3428 H 0.69674 0.76189 0.05134 0.0
C3429 C 0.68381 0.71578 0.03184 0.0
C3430 C 0.68329 0.72663 0.0683 0.0
C3431 C 0.67956 0.70403 0.02363 0.0
C3432 C 0.70406 0.77865 0.10832 0.0
C3433 C 0.69558 0.76348 0.09727 0.0
C3434 C 0.69309 0.75213 0.05622 0.0
C3435 C 0.67742 0.71496 0.04459 0.0
C3436 C 0.68254 0.72741 0.05367 0.0
C3437 C 0.70108 0.76393 0.07951 0.0
C3438 C 0.69411 0.75133 0.07075 0.0
H3439 H 0.65399 0.68053 0.04428 0.0
H3440 H 0.66115 0.70109 0.05843 0.0
H3441 H 0.68662 0.74129 0.03659 0.0
H3442 H 0.73293 0.80423 0.07813 0.0
H3443 H 0.71921 0.77888 0.06205 0.0
C3444 C 0.29519 0.95563 0.01483 0.0
C3445 C 0.30413 0.96973 0.01267 0.0
C3446 C 0.28177 0.95051 0.01959 0.0
C3447 C 0.2621 0.96144 0.04015 0.0
H3448 H 0.2304 0.92639 0.02809 0.0
C3449 C 0.20793 0.93972 0.06377 0.0
C3450 C 0.20049 0.92568 0.06675 0.0
C3451 C 0.22005 0.94542 0.05605 0.0
C3452 C 0.23918 0.93614 0.03166 0.0
H3453 H 0.30567 0.98943 0.01314 0.0
H3454 H 0.28223 0.98047 0.02142 0.0
H3455 H 0.2523 0.93574 0.01599 0.0
H3456 H 0.19961 0.9065 0.06347 0.0
H3457 H 0.22094 0.91647 0.05031 0.0
H3458 H 0.24913 0.96173 0.05601 0.0
C3459 C 0.28569 0.9734 0.01959 0.0
C3460 C 0.25171 0.94151 0.0247 0.0
C3461 C 0.2991 0.97852 0.01476 0.0
C3462 C 0.20527 0.9174 0.06156 0.0
C3463 C 0.21739 0.9231 0.05388 0.0
C3464 C 0.24959 0.95605 0.04714 0.0
C3465 C 0.27699 0.95939 0.02236 0.0
C3466 C 0.26335 0.95415 0.02896 0.0
C3467 C 0.22496 0.93719 0.05104 0.0
C3468 C 0.23802 0.94326 0.04309 0.0
H3469 H 0.2987 0.94856 0.01331 0.0
H3470 H 0.27536 0.93968 0.02171 0.0
H3471 H 0.27093 0.9711 0.04384 0.0
H3472 H 0.20431 0.94627 0.06738 0.0
H3473 H 0.22549 0.95626 0.05386 0.0
C3474 C 0.34675 0.0421 0.99147 0.0
C3475 C 0.33823 0.03305 0.00177 0.0
C3476 C 0.34388 0.05155 0.98572 0.0
C3477 C 0.32251 0.06731 0.99098 0.0
H3478 H 0.32683 0.07299 0.95104 0.0
C3479 C 0.29396 0.08755 0.95882 0.0
C3480 C 0.30185 0.09824 0.94958 0.0
C3481 C 0.29962 0.08073 0.96541 0.0
C3482 C 0.32571 0.07161 0.96222 0.0
H3483 H 0.32013 0.02697 0.01427 0.0
H3484 H 0.31489 0.04305 0.00402 0.0
H3485 H 0.33466 0.05919 0.96241 0.0
H3486 H 0.32211 0.11042 0.94036 0.0
H3487 H 0.33187 0.09811 0.95156 0.0
H3488 H 0.31299 0.07925 0.9906 0.0
C3489 C 0.32401 0.04318 0.00058 0.0
C3490 C 0.33025 0.06375 0.96878 0.0
C3491 C 0.32698 0.03386 0.00642 0.0
C3492 C 0.31564 0.10202 0.94716 0.0
C3493 C 0.32124 0.09502 0.95359 0.0
C3494 C 0.31779 0.07498 0.98439 0.0
C3495 C 0.33233 0.05206 0.99004 0.0
C3496 C 0.32854 0.06134 0.98323 0.0
C3497 C 0.31331 0.08439 0.96286 0.0
C3498 C 0.31919 0.07705 0.96993 0.0
H3499 H 0.35555 0.04178 0.98772 0.0
H3500 H 0.35067 0.05838 0.97782 0.0
H3501 H 0.3213 0.06598 0.00216 0.0
H3502 H 0.2834 0.08457 0.96105 0.0
H3503 H 0.29326 0.07251 0.97244 0.0
C3504 C 0.95236 0.29892 0.99686 0.0
C3505 C 0.96573 0.30576 0.00304 0.0
C3506 C 0.94744 0.28672 0.98924 0.0
C3507 C 0.9518 0.25764 0.9829 0.0
H3508 H 0.93803 0.2576 0.94561 0.0
C3509 C 0.94009 0.20885 0.94207 0.0
C3510 C 0.92493 0.20403 0.93034 0.0
C3511 C 0.94527 0.22353 0.9533 0.0
C3512 C 0.94155 0.25724 0.95605 0.0
H3513 H 0.9841 0.30473 0.00666 0.0
H3514 H 0.97534 0.28323 0.99349 0.0
H3515 H 0.94522 0.2771 0.96126 0.0
H3516 H 0.91196 0.21385 0.91699 0.0
H3517 H 0.92169 0.23747 0.93515 0.0
H3518 H 0.94787 0.23769 0.97786 0.0
C3519 C 0.96876 0.28742 0.99451 0.0
C3520 C 0.94576 0.26849 0.96501 0.0
C3521 C 0.97377 0.29973 0.00201 0.0
C3522 C 0.91999 0.21647 0.92483 0.0
C3523 C 0.92576 0.23089 0.93661 0.0
C3524 C 0.9474 0.24627 0.97399 0.0
C3525 C 0.95568 0.28099 0.98776 0.0
C3526 C 0.95095 0.26883 0.9785 0.0
C3527 C 0.93783 0.23406 0.9509 0.0
C3528 C 0.94228 0.24597 0.96044 0.0
H3529 H 0.94587 0.30323 0.99745 0.0
H3530 H 0.93725 0.28188 0.98428 0.0
H3531 H 0.95567 0.2576 0.9933 0.0
H3532 H 0.94357 0.20186 0.94415 0.0
H3533 H 0.95297 0.22603 0.96145 0.0
C3534 C 0.70166 0.65279 0.99299 0.0
C3535 C 0.69466 0.65918 0.99761 0.0
C3536 C 0.71508 0.66056 0.98792 0.0
C3537 C 0.74587 0.69588 0.98639 0.0
H3538 H 0.7538 0.681 0.95377 0.0
C3539 C 0.79553 0.72677 0.95368 0.0
C3540 C 0.80211 0.71976 0.94972 0.0
C3541 C 0.78256 0.71978 0.95992 0.0
C3542 C 0.75178 0.68524 0.96295 0.0
H3543 H 0.69643 0.6788 0.00088 0.0
H3544 H 0.71977 0.69235 0.99175 0.0
H3545 H 0.73105 0.66811 0.96415 0.0
H3546 H 0.80062 0.70011 0.94992 0.0
H3547 H 0.77793 0.68789 0.96061 0.0
H3548 H 0.76665 0.71313 0.98496 0.0
C3549 C 0.71496 0.68133 0.99224 0.0
C3550 C 0.73876 0.67784 0.96894 0.0
C3551 C 0.70155 0.67356 0.99742 0.0
C3552 C 0.79563 0.70571 0.95249 0.0
C3553 C 0.78265 0.69871 0.95862 0.0
C3554 C 0.75891 0.70335 0.98031 0.0
C3555 C 0.72179 0.6749 0.98721 0.0
C3556 C 0.73566 0.68299 0.98081 0.0
C3557 C 0.77594 0.70565 0.96234 0.0
C3558 C 0.76202 0.69804 0.9686 0.0
H3559 H 0.69672 0.64174 0.99314 0.0
H3560 H 0.72015 0.65528 0.98446 0.0
H3561 H 0.74389 0.70009 0.9956 0.0
H3562 H 0.80043 0.73765 0.95191 0.0
H3563 H 0.77761 0.72537 0.96267 0.0
C3564 C 0.97063 0.66276 0.99526 0.0
C3565 C 0.9753 0.66667 0.00918 0.0
C3566 C 0.96239 0.667 0.9888 0.0
C3567 C 0.94057 0.68166 0.99565 0.0
H3568 H 0.95179 0.6967 0.95868 0.0
C3569 C 0.93465 0.72069 0.95726 0.0
C3570 C 0.92041 0.71562 0.95846 0.0
C3571 C 0.94036 0.71338 0.96261 0.0
C3572 C 0.94855 0.69256 0.96901 0.0
H3573 H 0.97442 0.67754 0.02743 0.0
H3574 H 0.96011 0.68494 0.01616 0.0
H3575 H 0.96308 0.68602 0.97002 0.0
H3576 H 0.90104 0.69899 0.96628 0.0
H3577 H 0.91097 0.68611 0.97547 0.0
H3578 H 0.92637 0.68862 0.99484 0.0
C3579 C 0.96274 0.67855 0.01025 0.0
C3580 C 0.9549 0.68629 0.97544 0.0
C3581 C 0.971 0.67434 0.0167 0.0
C3582 C 0.91202 0.70306 0.96506 0.0
C3583 C 0.91772 0.69575 0.97043 0.0
C3584 C 0.9342 0.6879 0.9892 0.0
C3585 C 0.95861 0.67519 0.99613 0.0
C3586 C 0.9511 0.6809 0.9889 0.0
C3587 C 0.93199 0.70089 0.96939 0.0
C3588 C 0.93822 0.69356 0.97587 0.0
H3589 H 0.97371 0.65682 0.98917 0.0
H3590 H 0.95919 0.66406 0.97798 0.0
H3591 H 0.93733 0.67752 0.00597 0.0
H3592 H 0.9414 0.73048 0.95246 0.0
H3593 H 0.95143 0.71773 0.96184 0.0
C3594 C 0.34331 0.31812 0.98642 0.0
C3595 C 0.34137 0.3188 0.00081 0.0
C3596 C 0.33878 0.3055 0.97974 0.0
C3597 C 0.32747 0.26927 0.98655 0.0
H3598 H 0.30771 0.26202 0.95105 0.0
C3599 C 0.28549 0.21968 0.95097 0.0
C3600 C 0.29123 0.21144 0.95226 0.0
C3601 C 0.29297 0.23338 0.95555 0.0
C3602 C 0.31316 0.26387 0.96098 0.0
H3603 H 0.3335 0.30678 0.01954 0.0
H3604 H 0.32552 0.28486 0.00792 0.0
H3605 H 0.3184 0.28472 0.96203 0.0
H3606 H 0.30941 0.21117 0.95899 0.0
H3607 H 0.32259 0.23514 0.9667 0.0
H3608 H 0.32176 0.2483 0.98583 0.0
C3609 C 0.33067 0.29406 0.00178 0.0
C3610 C 0.31944 0.27694 0.96719 0.0
C3611 C 0.3352 0.30665 0.00845 0.0
C3612 C 0.30474 0.21729 0.95785 0.0
C3613 C 0.31224 0.23098 0.96236 0.0
C3614 C 0.32117 0.25622 0.98036 0.0
C3615 C 0.33224 0.29329 0.98731 0.0
C3616 C 0.32651 0.27974 0.98015 0.0
C3617 C 0.30635 0.23913 0.96152 0.0
C3618 C 0.31381 0.2533 0.96757 0.0
H3619 H 0.34806 0.32729 0.98023 0.0
H3620 H 0.34032 0.30529 0.96862 0.0
H3621 H 0.33297 0.27112 0.99645 0.0
H3622 H 0.27505 0.21539 0.9468 0.0
H3623 H 0.28804 0.23929 0.95489 0.0
C3624 C 0.71358 0.04834 0.99888 0.0
C3625 C 0.70316 0.03465 0.00125 0.0
C3626 C 0.72659 0.05157 0.99423 0.0
C3627 C 0.74254 0.0366 0.97399 0.0
H3628 H 0.77736 0.06747 0.98813 0.0
C3629 C 0.7943 0.04883 0.95093 0.0
C3630 C 0.80443 0.06275 0.94895 0.0
C3631 C 0.78265 0.04514 0.95891 0.0
C3632 C 0.76772 0.0589 0.98397 0.0
H3633 H 0.69842 0.01367 0.00105 0.0
H3634 H 0.72106 0.01934 0.99281 0.0
H3635 H 0.75571 0.06167 0.99929 0.0
H3636 H 0.81006 0.08356 0.95376 0.0
H3637 H 0.78955 0.07714 0.96731 0.0
H3638 H 0.75429 0.03406 0.95836 0.0
C3639 C 0.71913 0.02754 0.99451 0.0
C3640 C 0.75534 0.05556 0.9904 0.0
C3641 C 0.70618 0.02432 0.99929 0.0
C3642 C 0.80257 0.07278 0.95526 0.0
C3643 C 0.79083 0.06908 0.96309 0.0
C3644 C 0.75486 0.04002 0.96747 0.0
C3645 C 0.72938 0.04117 0.99173 0.0
C3646 C 0.74263 0.04441 0.98543 0.0
C3647 C 0.78063 0.05521 0.96488 0.0
C3648 C 0.76762 0.05125 0.97232 0.0
H3649 H 0.71161 0.05655 0.00033 0.0
H3650 H 0.73428 0.06216 0.99209 0.0
H3651 H 0.73286 0.02809 0.96979 0.0
H3652 H 0.79512 0.04068 0.94625 0.0
H3653 H 0.77515 0.03435 0.96027 0.0
C3654 C 0.67276 0.96931 0.0118 0.0
C3655 C 0.66509 0.974 0.01865 0.0
C3656 C 0.67644 0.96092 0.01867 0.0
C3657 C 0.66935 0.93911 0.04968 0.0
H3658 H 0.70796 0.95037 0.0463 0.0
C3659 C 0.69747 0.92286 0.08848 0.0
C3660 C 0.70734 0.92016 0.08317 0.0
C3661 C 0.69118 0.92789 0.0798 0.0
C3662 C 0.69709 0.94691 0.0472 0.0
H3663 H 0.65462 0.97295 0.03784 0.0
H3664 H 0.66111 0.95841 0.04983 0.0
H3665 H 0.69864 0.96144 0.03237 0.0
H3666 H 0.71834 0.92064 0.06465 0.0
H3667 H 0.70718 0.92917 0.04942 0.0
H3668 H 0.6679 0.92471 0.06471 0.0
C3669 C 0.66423 0.96114 0.03913 0.0
C3670 C 0.69174 0.95327 0.03919 0.0
C3671 C 0.66056 0.96953 0.03226 0.0
C3672 C 0.71069 0.92251 0.06899 0.0
C3673 C 0.70438 0.9275 0.06031 0.0
C3674 C 0.67471 0.93272 0.05769 0.0
C3675 C 0.67252 0.95703 0.03254 0.0
C3676 C 0.67783 0.94953 0.04041 0.0
C3677 C 0.69466 0.9304 0.06564 0.0
C3678 C 0.68868 0.93663 0.05663 0.0
H3679 H 0.67636 0.97248 0.00129 0.0
H3680 H 0.68262 0.95773 0.01321 0.0
H3681 H 0.65856 0.93589 0.05075 0.0
H3682 H 0.69485 0.92134 0.09942 0.0
H3683 H 0.68392 0.93021 0.08431 0.0
C3684 C 0.04979 0.71278 0.03181 0.0
C3685 C 0.03638 0.70306 0.02676 0.0
C3686 C 0.05286 0.7256 0.03679 0.0
C3687 C 0.0356 0.74193 0.05237 0.0
H3688 H 0.0709 0.77561 0.04715 0.0
C3689 C 0.06498 0.80324 0.06814 0.0
C3690 C 0.0623 0.80218 0.08252 0.0
C3691 C 0.0613 0.79155 0.06004 0.0
C3692 C 0.06093 0.76632 0.04857 0.0
H3693 H 0.01587 0.69947 0.02234 0.0
H3694 H 0.02127 0.72184 0.03093 0.0
H3695 H 0.06572 0.75468 0.03465 0.0
H3696 H 0.05362 0.78807 0.09964 0.0
H3697 H 0.0471 0.76767 0.08551 0.0
H3698 H 0.03084 0.75349 0.06637 0.0
C3699 C 0.02934 0.71946 0.03125 0.0
C3700 C 0.05803 0.75432 0.04153 0.0
C3701 C 0.02628 0.70666 0.02626 0.0
C3702 C 0.05568 0.78918 0.08857 0.0
C3703 C 0.05192 0.77751 0.08047 0.0
C3704 C 0.03853 0.75389 0.05945 0.0
C3705 C 0.04258 0.72897 0.03682 0.0
C3706 C 0.04538 0.74196 0.04347 0.0
C3707 C 0.05478 0.77857 0.06614 0.0
C3708 C 0.05129 0.76616 0.05777 0.0
H3709 H 0.05781 0.71034 0.03233 0.0
H3710 H 0.06312 0.73267 0.04112 0.0
H3711 H 0.02582 0.73255 0.0542 0.0
H3712 H 0.07009 0.81314 0.06321 0.0
H3713 H 0.06354 0.79266 0.049 0.0
C3714 C 0.29941 0.34672 0.03283 0.0
C3715 C 0.30802 0.34278 0.02668 0.0
C3716 C 0.28613 0.33685 0.03711 0.0
C3717 C 0.26587 0.30122 0.04839 0.0
H3718 H 0.23484 0.3064 0.0442 0.0
C3719 C 0.20378 0.27252 0.06207 0.0
C3720 C 0.20445 0.26956 0.07617 0.0
C3721 C 0.21591 0.28013 0.0545 0.0
C3722 C 0.24334 0.3047 0.0453 0.0
H3723 H 0.30928 0.32534 0.01991 0.0
H3724 H 0.28607 0.30812 0.02739 0.0
H3725 H 0.25681 0.32233 0.03332 0.0
H3726 H 0.21831 0.27197 0.09329 0.0
H3727 H 0.23947 0.2852 0.0801 0.0
H3728 H 0.25245 0.28367 0.06049 0.0
C3729 C 0.28966 0.31886 0.02899 0.0
C3730 C 0.25597 0.31391 0.03919 0.0
C3731 C 0.30293 0.32874 0.02464 0.0
C3732 C 0.21748 0.27402 0.08241 0.0
C3733 C 0.22958 0.28155 0.07484 0.0
C3734 C 0.25327 0.29205 0.05455 0.0
C3735 C 0.28117 0.32281 0.03539 0.0
C3736 C 0.26743 0.31239 0.04084 0.0
C3737 C 0.22895 0.28485 0.06086 0.0
C3738 C 0.24193 0.29381 0.05325 0.0
H3739 H 0.303 0.35744 0.03455 0.0
H3740 H 0.27991 0.34023 0.04216 0.0
H3741 H 0.27453 0.29982 0.04994 0.0
H3742 H 0.19388 0.26918 0.05697 0.0
H3743 H 0.2151 0.28239 0.0437 0.0
C3744 C 0.69598 0.67945 0.36623 0.0
C3745 C 0.69153 0.67526 0.3523 0.0
C3746 C 0.70292 0.67425 0.37363 0.0
C3747 C 0.70513 0.64372 0.3749 0.0
H3748 H 0.73798 0.6657 0.39824 0.0
C3749 C 0.72963 0.61204 0.40486 0.0
C3750 C 0.74263 0.62255 0.41879 0.0
C3751 C 0.72355 0.62105 0.3947 0.0
C3752 C 0.72869 0.65937 0.39194 0.0
H3753 H 0.69127 0.66265 0.33509 0.0
H3754 H 0.70321 0.65349 0.34806 0.0
H3755 H 0.72835 0.67686 0.38468 0.0
H3756 H 0.75064 0.64331 0.43589 0.0
H3757 H 0.73926 0.65619 0.41926 0.0
H3758 H 0.70498 0.62623 0.38242 0.0
C3759 C 0.70131 0.66077 0.35325 0.0
C3760 C 0.72324 0.6658 0.38411 0.0
C3761 C 0.69453 0.66608 0.34581 0.0
C3762 C 0.74406 0.63813 0.42682 0.0
C3763 C 0.7375 0.64635 0.41596 0.0
C3764 C 0.71046 0.6373 0.38283 0.0
C3765 C 0.70538 0.66464 0.36729 0.0
C3766 C 0.71142 0.65802 0.37548 0.0
C3767 C 0.72782 0.63811 0.39993 0.0
C3768 C 0.72233 0.64503 0.39142 0.0
H3769 H 0.69386 0.68653 0.37151 0.0
H3770 H 0.70588 0.67735 0.38447 0.0
H3771 H 0.69585 0.63743 0.36855 0.0
H3772 H 0.7282 0.60243 0.40112 0.0
H3773 H 0.7175 0.61618 0.38527 0.0
C3774 C 0.32153 0.02016 0.38341 0.0
C3775 C 0.32722 0.01891 0.37094 0.0
C3776 C 0.32731 0.03285 0.39037 0.0
C3777 C 0.35075 0.07031 0.38521 0.0
H3778 H 0.35365 0.07169 0.42566 0.0
C3779 C 0.38929 0.12813 0.41457 0.0
C3780 C 0.381 0.12967 0.43054 0.0
C3781 C 0.38003 0.11153 0.40604 0.0
C3782 C 0.35274 0.07148 0.41438 0.0
H3783 H 0.34349 0.03005 0.35601 0.0
H3784 H 0.35372 0.05206 0.36825 0.0
H3785 H 0.34259 0.04963 0.41337 0.0
H3786 H 0.36525 0.11584 0.45115 0.0
H3787 H 0.3519 0.08957 0.43666 0.0
H3788 H 0.36112 0.09219 0.38626 0.0
C3789 C 0.34461 0.04332 0.37254 0.0
C3790 C 0.34639 0.05881 0.40731 0.0
C3791 C 0.33879 0.03065 0.36555 0.0
C3792 C 0.36894 0.11466 0.44119 0.0
C3793 C 0.36032 0.09847 0.4318 0.0
C3794 C 0.35718 0.08298 0.39229 0.0
C3795 C 0.33898 0.04459 0.38506 0.0
C3796 C 0.34537 0.05805 0.39262 0.0
C3797 C 0.3655 0.09711 0.41433 0.0
C3798 C 0.35829 0.08368 0.40693 0.0
H3799 H 0.31258 0.01133 0.38782 0.0
H3800 H 0.32256 0.03346 0.39986 0.0
H3801 H 0.34992 0.07013 0.37392 0.0
H3802 H 0.3972 0.13704 0.40921 0.0
H3803 H 0.38329 0.11023 0.39588 0.0
C3804 C 0.97594 0.2962 0.3758 0.0
C3805 C 0.98245 0.30707 0.36643 0.0
C3806 C 0.96273 0.29189 0.38065 0.0
C3807 C 0.9307 0.29077 0.37219 0.0
H3808 H 0.92411 0.28511 0.41193 0.0
C3809 C 0.88452 0.27705 0.41382 0.0
C3810 C 0.87346 0.26519 0.40737 0.0
C3811 C 0.89793 0.28309 0.40863 0.0
C3812 C 0.92582 0.28675 0.40082 0.0
H3813 H 0.98006 0.32178 0.3546 0.0
H3814 H 0.95677 0.31402 0.36293 0.0
H3815 H 0.94742 0.29389 0.40318 0.0
H3816 H 0.86781 0.25034 0.39046 0.0
H3817 H 0.89116 0.26105 0.38124 0.0
H3818 H 0.90902 0.28335 0.36982 0.0
C3819 C 0.962 0.30893 0.36655 0.0
C3820 C 0.93912 0.29166 0.39581 0.0
C3821 C 0.97534 0.31339 0.36182 0.0
C3822 C 0.87609 0.25957 0.39554 0.0
C3823 C 0.88944 0.26571 0.39026 0.0
C3824 C 0.91735 0.28567 0.37719 0.0
C3825 C 0.95565 0.29823 0.37612 0.0
C3826 C 0.94167 0.29363 0.38144 0.0
C3827 C 0.90051 0.27747 0.3968 0.0
C3828 C 0.91477 0.28354 0.39155 0.0
H3829 H 0.98113 0.29112 0.37958 0.0
H3830 H 0.95801 0.28351 0.3879 0.0
H3831 H 0.93238 0.29214 0.36106 0.0
H3832 H 0.88282 0.28159 0.42295 0.0
H3833 H 0.90628 0.29219 0.41384 0.0
C3834 C 0.02852 0.38427 0.34565 0.0
C3835 C 0.02597 0.37233 0.3386 0.0
C3836 C 0.02765 0.39439 0.3385 0.0
C3837 C 0.01141 0.39913 0.30731 0.0
H3838 H 0.03763 0.4378 0.31474 0.0
C3839 C 0.00096 0.44116 0.29084 0.0
C3840 C 0.01202 0.45337 0.28558 0.0
C3841 C 0.00319 0.43122 0.29632 0.0
C3842 C 0.0303 0.42704 0.31244 0.0
H3843 H 0.02076 0.36177 0.31844 0.0
H3844 H 0.01929 0.37942 0.306 0.0
H3845 H 0.0409 0.42072 0.3262 0.0
H3846 H 0.03413 0.46481 0.28206 0.0
H3847 H 0.03806 0.44736 0.29161 0.0
H3848 H 0.00082 0.40543 0.29356 0.0
C3849 C 0.02181 0.3809 0.31708 0.0
C3850 C 0.03209 0.41726 0.31912 0.0
C3851 C 0.02273 0.37082 0.32421 0.0
C3852 C 0.0254 0.45543 0.28592 0.0
C3853 C 0.02765 0.4455 0.29148 0.0
C3854 C 0.00959 0.4089 0.30068 0.0
C3855 C 0.02417 0.39276 0.32416 0.0
C3856 C 0.02261 0.40319 0.3167 0.0
C3857 C 0.01657 0.43331 0.29681 0.0
C3858 C 0.01895 0.42296 0.30326 0.0
H3859 H 0.03104 0.38576 0.35673 0.0
H3860 H 0.02938 0.40334 0.34429 0.0
H3861 H 0.00385 0.38838 0.30531 0.0
H3862 H 0.99058 0.43938 0.2909 0.0
H3863 H 0.99448 0.42205 0.30054 0.0
C3864 C 0.6416 0.64318 0.31941 0.0
C3865 C 0.63539 0.65079 0.31648 0.0
C3866 C 0.63656 0.63034 0.313 0.0
C3867 C 0.61637 0.60969 0.28207 0.0
H3868 H 0.61191 0.57895 0.30309 0.0
C3869 C 0.58449 0.55157 0.25199 0.0
C3870 C 0.58729 0.53894 0.26116 0.0
C3871 C 0.592 0.56797 0.2608 0.0
C3872 C 0.61327 0.58747 0.29702 0.0
H3873 H 0.61889 0.65076 0.30464 0.0
H3874 H 0.61012 0.62843 0.29358 0.0
H3875 H 0.62114 0.60117 0.31479 0.0
H3876 H 0.60424 0.5367 0.27788 0.0
H3877 H 0.61648 0.56382 0.29024 0.0
H3878 H 0.60865 0.59611 0.2643 0.0
C3879 C 0.61898 0.63244 0.30069 0.0
C3880 C 0.61854 0.6002 0.30374 0.0
C3881 C 0.62397 0.64522 0.30711 0.0
C3882 C 0.60204 0.54408 0.27361 0.0
C3883 C 0.60901 0.56073 0.28173 0.0
C3884 C 0.61114 0.59698 0.27536 0.0
C3885 C 0.62526 0.62488 0.30349 0.0
C3886 C 0.62005 0.61143 0.29635 0.0
C3887 C 0.60367 0.57223 0.27571 0.0
C3888 C 0.60945 0.58572 0.28278 0.0
H3889 H 0.65042 0.64718 0.32656 0.0
H3890 H 0.64168 0.62481 0.31529 0.0
H3891 H 0.61766 0.6182 0.27601 0.0
H3892 H 0.57665 0.54849 0.24383 0.0
H3893 H 0.58925 0.57516 0.2572 0.0
C3894 C 0.33979 0.96354 0.33287 0.0
C3895 C 0.33732 0.97318 0.33916 0.0
C3896 C 0.35264 0.96766 0.32718 0.0
C3897 C 0.38319 0.9974 0.31254 0.0
H3898 H 0.40041 0.97619 0.31867 0.0
C3899 C 0.43817 0.01522 0.29353 0.0
C3900 C 0.44055 0.0052 0.28817 0.0
C3901 C 0.42567 0.01146 0.29987 0.0
C3902 C 0.39566 0.98212 0.3167 0.0
H3903 H 0.3465 0.99473 0.34449 0.0
H3904 H 0.36901 0.00193 0.33449 0.0
H3905 H 0.37858 0.96947 0.32981 0.0
H3906 H 0.43186 0.98333 0.28572 0.0
H3907 H 0.40982 0.97674 0.29634 0.0
H3908 H 0.40012 0.00992 0.29924 0.0
C3909 C 0.36092 0.99119 0.33394 0.0
C3910 C 0.38318 0.9783 0.32313 0.0
C3911 C 0.34806 0.98704 0.33973 0.0
C3912 C 0.43021 0.9913 0.28947 0.0
C3913 C 0.41765 0.98753 0.29573 0.0
C3914 C 0.39564 0.00118 0.30603 0.0
C3915 C 0.36332 0.98153 0.32757 0.0
C3916 C 0.3768 0.98587 0.3211 0.0
C3917 C 0.41525 0.99757 0.30106 0.0
C3918 C 0.40201 0.99357 0.308 0.0
H3919 H 0.33174 0.95278 0.33224 0.0
H3920 H 0.35413 0.96001 0.32221 0.0
H3921 H 0.37841 0.00331 0.31062 0.0
H3922 H 0.4461 0.026 0.29297 0.0
H3923 H 0.42429 0.01945 0.30411 0.0
C3924 C 0.62696 0.96112 0.33769 0.0
C3925 C 0.64108 0.97146 0.33845 0.0
C3926 C 0.61734 0.96345 0.33103 0.0
C3927 C 0.61244 0.99153 0.32037 0.0
H3928 H 0.58253 0.96336 0.29714 0.0
C3929 C 0.57522 0.0019 0.28886 0.0
C3930 C 0.56107 0.99162 0.28889 0.0
C3931 C 0.5852 0.99935 0.29413 0.0
C3932 C 0.59076 0.97129 0.30369 0.0
H3933 H 0.65618 0.9923 0.33255 0.0
H3934 H 0.63945 0.99628 0.32085 0.0
H3935 H 0.59945 0.95898 0.30787 0.0
H3936 H 0.54628 0.97076 0.29479 0.0
H3937 H 0.56368 0.96631 0.30407 0.0
H3938 H 0.60371 0.00382 0.31631 0.0
C3939 C 0.63577 0.98644 0.32559 0.0
C3940 C 0.60044 0.96877 0.30985 0.0
C3941 C 0.64538 0.98412 0.33224 0.0
C3942 C 0.55713 0.97878 0.29438 0.0
C3943 C 0.5671 0.97623 0.29966 0.0
C3944 C 0.60276 0.99405 0.31423 0.0
C3945 C 0.62162 0.97617 0.32499 0.0
C3946 C 0.61138 0.97885 0.31829 0.0
C3947 C 0.58125 0.98651 0.29967 0.0
C3948 C 0.59178 0.98395 0.30585 0.0
H3949 H 0.6233 0.95126 0.34239 0.0
H3950 H 0.60649 0.95537 0.33088 0.0
H3951 H 0.6206 0.99944 0.327 0.0
H3952 H 0.57853 0.01196 0.28489 0.0
H3953 H 0.59602 0.00746 0.29389 0.0
C3954 C 0.03539 0.66717 0.33415 0.0
C3955 C 0.02495 0.67028 0.33486 0.0
C3956 C 0.03275 0.65506 0.32755 0.0
C3957 C 0.00884 0.62783 0.30234 0.0
H3958 H 0.0211 0.60608 0.3211 0.0
C3959 C 0.98835 0.57129 0.28705 0.0
C3960 C 0.99766 0.56671 0.28785 0.0
C3961 C 0.99239 0.5845 0.2917 0.0
C3962 C 0.01779 0.61211 0.31559 0.0
H3963 H 0.00361 0.66318 0.32902 0.0
H3964 H 0.99903 0.64208 0.31761 0.0
H3965 H 0.02699 0.62812 0.33118 0.0
H3966 H 0.01852 0.5724 0.29396 0.0
H3967 H 0.02569 0.59556 0.3018 0.0
H3968 H 0.99954 0.61176 0.28679 0.0
C3969 C 0.00929 0.64905 0.32203 0.0
C3970 C 0.02116 0.62476 0.32139 0.0
C3971 C 0.01189 0.66111 0.32867 0.0
C3972 C 0.01115 0.57569 0.29316 0.0
C3973 C 0.01521 0.5889 0.29776 0.0
C3974 C 0.00549 0.61519 0.29651 0.0
C3975 C 0.01965 0.64583 0.32147 0.0
C3976 C 0.01663 0.63271 0.3149 0.0
C3977 C 0.00582 0.59341 0.29729 0.0
C3978 C 0.00984 0.60713 0.30312 0.0
H3979 H 0.04557 0.67403 0.33878 0.0
H3980 H 0.041 0.65294 0.32717 0.0
H3981 H 0.00535 0.6338 0.29699 0.0
H3982 H 0.97784 0.56451 0.28315 0.0
H3983 H 0.98483 0.58757 0.29135 0.0
C3984 C 0.35794 0.35898 0.33332 0.0
C3985 C 0.35088 0.36527 0.32846 0.0
C3986 C 0.37138 0.36348 0.32891 0.0
C3987 C 0.4013 0.39249 0.31082 0.0
H3988 H 0.41053 0.36523 0.3015 0.0
C3989 C 0.44081 0.39971 0.2698 0.0
C3990 C 0.45219 0.39894 0.2746 0.0
C3991 C 0.42947 0.39575 0.27829 0.0
C3992 C 0.40813 0.37294 0.30425 0.0
H3993 H 0.35243 0.38124 0.31519 0.0
H3994 H 0.37548 0.38873 0.30718 0.0
H3995 H 0.3887 0.35822 0.31302 0.0
H3996 H 0.46005 0.39247 0.29168 0.0
H3997 H 0.43977 0.38504 0.30643 0.0
H3998 H 0.42036 0.40701 0.30119 0.0
C3999 C 0.37091 0.38061 0.31472 0.0
C4000 C 0.39567 0.36897 0.3109 0.0
C4001 C 0.3576 0.37623 0.31923 0.0
C4002 C 0.45156 0.39342 0.28783 0.0
C4003 C 0.44001 0.38915 0.29623 0.0
C4004 C 0.41359 0.39638 0.30397 0.0
C4005 C 0.378 0.37429 0.31944 0.0
C4006 C 0.39195 0.37866 0.31396 0.0
C4007 C 0.42901 0.39052 0.29157 0.0
C4008 C 0.41696 0.3866 0.30041 0.0
H4009 H 0.35306 0.35054 0.34048 0.0
H4010 H 0.37656 0.35848 0.3329 0.0
H4011 H 0.399 0.40031 0.31335 0.0
H4012 H 0.4407 0.40352 0.25952 0.0
H4013 H 0.42097 0.39667 0.27442 0.0
C4014 C 0.31668 0.30394 0.36943 0.0
C4015 C 0.31938 0.30689 0.35519 0.0
C4016 C 0.32153 0.29655 0.37644 0.0
C4017 C 0.3492 0.28898 0.37452 0.0
H4018 H 0.32791 0.26149 0.40202 0.0
C4019 C 0.3706 0.25888 0.40132 0.0
C4020 C 0.36833 0.25657 0.41569 0.0
C4021 C 0.36372 0.26392 0.3936 0.0
C4022 C 0.33404 0.26924 0.39447 0.0
H4023 H 0.32882 0.30388 0.33703 0.0
H4024 H 0.33718 0.29097 0.34922 0.0
H4025 H 0.31731 0.27211 0.38916 0.0
H4026 H 0.35716 0.2578 0.43325 0.0
H4027 H 0.3453 0.26683 0.41984 0.0
H4028 H 0.36602 0.28638 0.37997 0.0
C4029 C 0.33149 0.29453 0.35502 0.0
C4030 C 0.32795 0.2753 0.38708 0.0
C4031 C 0.3266 0.30186 0.34801 0.0
C4032 C 0.35898 0.25934 0.42215 0.0
C4033 C 0.35214 0.26445 0.41445 0.0
C4034 C 0.35531 0.28298 0.38193 0.0
C4035 C 0.32923 0.292 0.36937 0.0
C4036 C 0.33547 0.28524 0.37703 0.0
C4037 C 0.35452 0.26692 0.40009 0.0
C4038 C 0.34782 0.27304 0.39201 0.0
H4039 H 0.31115 0.30766 0.37528 0.0
H4040 H 0.3197 0.29484 0.38752 0.0
H4041 H 0.35537 0.2968 0.36704 0.0
H4042 H 0.37781 0.25692 0.39607 0.0
H4043 H 0.36565 0.2655 0.38252 0.0
C4044 C 0.72146 0.02993 0.37753 0.0
C4045 C 0.70736 0.02053 0.37441 0.0
C4046 C 0.72618 0.04369 0.38041 0.0
C4047 C 0.71543 0.06667 0.39323 0.0
H4048 H 0.74609 0.09452 0.37211 0.0
C4049 C 0.73105 0.12346 0.39517 0.0
C4050 C 0.74504 0.13364 0.39343 0.0
C4051 C 0.7266 0.10959 0.39366 0.0
C4052 C 0.7377 0.08694 0.37833 0.0
H4053 H 0.68713 0.01814 0.37212 0.0
H4054 H 0.69538 0.04217 0.37745 0.0
H4055 H 0.73817 0.07047 0.36813 0.0
H4056 H 0.76547 0.13728 0.38946 0.0
H4057 H 0.75791 0.11314 0.38751 0.0
H4058 H 0.71512 0.08304 0.40372 0.0
C4059 C 0.70275 0.03886 0.37756 0.0
C4060 C 0.73313 0.07315 0.37596 0.0
C4061 C 0.69806 0.02514 0.37443 0.0
C4062 C 0.75459 0.12965 0.39072 0.0
C4063 C 0.75021 0.1158 0.38946 0.0
C4064 C 0.72016 0.08049 0.39579 0.0
C4065 C 0.71686 0.04827 0.38048 0.0
C4066 C 0.7219 0.06289 0.38331 0.0
C4067 C 0.73611 0.10557 0.39064 0.0
C4068 C 0.73131 0.09083 0.38831 0.0
H4069 H 0.72888 0.02669 0.37757 0.0
H4070 H 0.73711 0.05075 0.38269 0.0
H4071 H 0.70683 0.05892 0.39913 0.0
H4072 H 0.72348 0.12625 0.39739 0.0
H4073 H 0.71565 0.10207 0.3945 0.0
C4074 C 0.96824 0.6926 0.37141 0.0
C4075 C 0.97696 0.68755 0.36887 0.0
C4076 C 0.95425 0.68363 0.37429 0.0
C4077 C 0.92999 0.65032 0.3886 0.0
H4078 H 0.90206 0.65292 0.36747 0.0
C4079 C 0.8712 0.6113 0.39451 0.0
C4080 C 0.86207 0.61602 0.39278 0.0
C4081 C 0.88533 0.61991 0.39192 0.0
C4082 C 0.90969 0.65219 0.37367 0.0
H4083 H 0.9779 0.66916 0.36751 0.0
H4084 H 0.95345 0.65349 0.37286 0.0
H4085 H 0.92646 0.66817 0.36231 0.0
H4086 H 0.86069 0.63364 0.38771 0.0
H4087 H 0.88535 0.64884 0.38384 0.0
H4088 H 0.91335 0.63466 0.40029 0.0
C4089 C 0.95747 0.66439 0.3725 0.0
C4090 C 0.92367 0.66088 0.37062 0.0
C4091 C 0.97142 0.67335 0.36937 0.0
C4092 C 0.86746 0.62967 0.38897 0.0
C4093 C 0.88159 0.63834 0.38662 0.0
C4094 C 0.916 0.64176 0.39183 0.0
C4095 C 0.94876 0.66946 0.37492 0.0
C4096 C 0.93394 0.66004 0.37806 0.0
C4097 C 0.89071 0.63352 0.38778 0.0
C4098 C 0.90565 0.64259 0.38442 0.0
H4099 H 0.97218 0.70348 0.37107 0.0
H4100 H 0.94776 0.6878 0.3762 0.0
H4101 H 0.93775 0.64957 0.39457 0.0
H4102 H 0.86734 0.60084 0.39756 0.0
H4103 H 0.89196 0.61575 0.39283 0.0
C4104 C 0.36865 0.01108 0.67939 0.0
C4105 C 0.36357 0.01916 0.68435 0.0
C4106 C 0.3795 0.01105 0.68645 0.0
C4107 C 0.39832 0.01973 0.72066 0.0
H4108 H 0.42628 0.01844 0.69898 0.0
C4109 C 0.44954 0.028 0.74472 0.0
C4110 C 0.45368 0.01906 0.73998 0.0
C4111 C 0.43824 0.02782 0.7384 0.0
C4112 C 0.41848 0.01866 0.70518 0.0
H4113 H 0.36594 0.03358 0.70064 0.0
H4114 H 0.38507 0.03374 0.71279 0.0
H4115 H 0.40733 0.0187 0.68701 0.0
H4116 H 0.44945 0.00318 0.72472 0.0
H4117 H 0.42969 0.0028 0.71372 0.0
H4118 H 0.40967 0.01988 0.73884 0.0
C4119 C 0.3805 0.02722 0.70358 0.0
C4120 C 0.40759 0.01879 0.69833 0.0
C4121 C 0.36958 0.0272 0.69656 0.0
C4122 C 0.44636 0.01003 0.72873 0.0
C4123 C 0.43513 0.0099 0.72236 0.0
C4124 C 0.40928 0.01968 0.72752 0.0
C4125 C 0.38562 0.01916 0.6986 0.0
C4126 C 0.39732 0.01924 0.70597 0.0
C4127 C 0.431 0.01885 0.72705 0.0
C4128 C 0.41943 0.01907 0.71985 0.0
H4129 H 0.36419 0.00469 0.67007 0.0
H4130 H 0.383 0.00452 0.68244 0.0
H4131 H 0.3905 0.01989 0.72688 0.0
H4132 H 0.45519 0.03529 0.75317 0.0
H4133 H 0.43542 0.03496 0.74212 0.0
C4134 C 0.97479 0.34838 0.68492 0.0
C4135 C 0.98056 0.34073 0.68935 0.0
C4136 C 0.97795 0.36041 0.6921 0.0
C4137 C 0.00494 0.3875 0.71492 0.0
H4138 H 0.97707 0.39637 0.72298 0.0
C4139 C 0.02462 0.44132 0.7507 0.0
C4140 C 0.01201 0.44703 0.74975 0.0
C4141 C 0.01882 0.42503 0.74231 0.0
C4142 C 0.98501 0.39414 0.72066 0.0
H4143 H 0.99395 0.33959 0.70499 0.0
H4144 H 0.99943 0.36052 0.71747 0.0
H4145 H 0.97027 0.37468 0.71117 0.0
H4146 H 0.99201 0.44547 0.73451 0.0
H4147 H 0.98449 0.41983 0.72074 0.0
H4148 H 0.01973 0.40695 0.72404 0.0
C4149 C 0.99257 0.35729 0.70837 0.0
C4150 C 0.98109 0.38168 0.71392 0.0
C4151 C 0.98937 0.34526 0.70124 0.0
C4152 C 0.99832 0.44102 0.73579 0.0
C4153 C 0.99335 0.4247 0.72785 0.0
C4154 C 0.00885 0.39995 0.72157 0.0
C4155 C 0.98701 0.36508 0.70381 0.0
C4156 C 0.99102 0.37822 0.71101 0.0
C4157 C 0.00319 0.41667 0.73146 0.0
C4158 C 0.99894 0.4034 0.72454 0.0
H4159 H 0.96795 0.34518 0.6758 0.0
H4160 H 0.97359 0.36625 0.68828 0.0
H4161 H 0.01288 0.38525 0.71259 0.0
H4162 H 0.03317 0.44575 0.7582 0.0
H4163 H 0.02471 0.42019 0.74404 0.0
C4164 C 0.63904 0.62744 0.698 0.0
C4165 C 0.64773 0.64132 0.6947 0.0
C4166 C 0.62574 0.62257 0.70292 0.0
C4167 C 0.60558 0.63352 0.72209 0.0
H4168 H 0.5743 0.59841 0.70949 0.0
C4169 C 0.55081 0.61022 0.74526 0.0
C4170 C 0.54353 0.59606 0.74768 0.0
C4171 C 0.56316 0.61642 0.73785 0.0
C4172 C 0.58295 0.60817 0.71323 0.0
H4173 H 0.64919 0.66093 0.69371 0.0
H4174 H 0.62589 0.65238 0.70252 0.0
H4175 H 0.59641 0.60804 0.69782 0.0
H4176 H 0.5432 0.57723 0.74377 0.0
H4177 H 0.5649 0.58806 0.73129 0.0
H4178 H 0.59229 0.63346 0.7378 0.0
C4179 C 0.62943 0.64531 0.70126 0.0
C4180 C 0.59559 0.61371 0.70649 0.0
C4181 C 0.64272 0.65018 0.69615 0.0
C4182 C 0.54873 0.58821 0.74233 0.0
C4183 C 0.56107 0.5944 0.735 0.0
C4184 C 0.59295 0.62793 0.72891 0.0
C4185 C 0.62086 0.63148 0.70478 0.0
C4186 C 0.6071 0.62633 0.71099 0.0
C4187 C 0.56842 0.60858 0.7326 0.0
C4188 C 0.58155 0.61506 0.72472 0.0
H4189 H 0.64257 0.62034 0.69697 0.0
H4190 H 0.61942 0.61188 0.70568 0.0
H4191 H 0.61432 0.64321 0.72587 0.0
H4192 H 0.54686 0.61645 0.74899 0.0
H4193 H 0.56843 0.62732 0.73602 0.0
C4194 C 0.68394 0.70419 0.654 0.0
C4195 C 0.68154 0.70183 0.66837 0.0
C4196 C 0.68033 0.71257 0.64701 0.0
C4197 C 0.67129 0.739 0.65259 0.0
H4198 H 0.65165 0.72532 0.61701 0.0
C4199 C 0.65263 0.76911 0.62062 0.0
C4200 C 0.63904 0.76137 0.61505 0.0
C4201 C 0.65911 0.7626 0.62621 0.0
C4202 C 0.6571 0.72927 0.62694 0.0
H4203 H 0.67384 0.70677 0.68671 0.0
H4204 H 0.66747 0.72128 0.67451 0.0
H4205 H 0.66076 0.71284 0.62883 0.0
H4206 H 0.62155 0.74078 0.61114 0.0
H4207 H 0.63283 0.7294 0.62088 0.0
H4208 H 0.66723 0.75519 0.65091 0.0
C4209 C 0.67226 0.71676 0.66866 0.0
C4210 C 0.66246 0.7222 0.63365 0.0
C4211 C 0.67584 0.70837 0.67565 0.0
C4212 C 0.63211 0.747 0.61513 0.0
C4213 C 0.6386 0.74049 0.62068 0.0
C4214 C 0.66596 0.7461 0.64586 0.0
C4215 C 0.67427 0.7188 0.65422 0.0
C4216 C 0.66947 0.72689 0.64664 0.0
C4217 C 0.65213 0.74821 0.6264 0.0
C4218 C 0.65865 0.74121 0.63305 0.0
H4219 H 0.68836 0.69935 0.64808 0.0
H4220 H 0.68218 0.71408 0.63591 0.0
H4221 H 0.67675 0.74296 0.66251 0.0
H4222 H 0.65814 0.7802 0.62086 0.0
H4223 H 0.66958 0.76883 0.63045 0.0
C4224 C 0.30991 0.97874 0.65322 0.0
C4225 C 0.30303 0.98564 0.64996 0.0
C4226 C 0.30507 0.96558 0.64773 0.0
C4227 C 0.28377 0.94238 0.61858 0.0
H4228 H 0.28165 0.91375 0.64161 0.0
C4229 C 0.25156 0.88227 0.59317 0.0
C4230 C 0.25539 0.87065 0.60299 0.0
C4231 C 0.25921 0.89922 0.60071 0.0
C4232 C 0.28235 0.92167 0.63498 0.0
H4233 H 0.28554 0.98401 0.63849 0.0
H4234 H 0.27712 0.96115 0.62904 0.0
H4235 H 0.29081 0.93665 0.65167 0.0
H4236 H 0.27371 0.87017 0.61924 0.0
H4237 H 0.28603 0.89805 0.62952 0.0
H4238 H 0.27543 0.92754 0.6019 0.0
C4239 C 0.28635 0.96595 0.63569 0.0
C4240 C 0.28759 0.9348 0.64076 0.0
C4241 C 0.29114 0.97904 0.64119 0.0
C4242 C 0.27097 0.87703 0.6146 0.0
C4243 C 0.27802 0.89418 0.62145 0.0
C4244 C 0.27857 0.9293 0.61281 0.0
C4245 C 0.29329 0.95909 0.63881 0.0
C4246 C 0.28824 0.94527 0.63264 0.0
C4247 C 0.27185 0.90486 0.61493 0.0
C4248 C 0.2777 0.91878 0.62098 0.0
H4249 H 0.3191 0.98353 0.65993 0.0
H4250 H 0.31069 0.96059 0.65025 0.0
H4251 H 0.28439 0.9503 0.61196 0.0
H4252 H 0.2432 0.87842 0.58548 0.0
H4253 H 0.25596 0.90593 0.59677 0.0
C4254 C 0.02791 0.31136 0.64956 0.0
C4255 C 0.02088 0.31714 0.65563 0.0
C4256 C 0.04128 0.31968 0.64458 0.0
C4257 C 0.07225 0.35476 0.64685 0.0
H4258 H 0.08176 0.34276 0.61311 0.0
C4259 C 0.1256 0.3862 0.61982 0.0
C4260 C 0.13169 0.37864 0.61617 0.0
C4261 C 0.11191 0.37954 0.62435 0.0
C4262 C 0.07926 0.34622 0.62257 0.0
H4263 H 0.02245 0.33628 0.66133 0.0
H4264 H 0.04581 0.35088 0.65236 0.0
H4265 H 0.05812 0.32975 0.62143 0.0
H4266 H 0.12842 0.35822 0.61516 0.0
H4267 H 0.10449 0.34662 0.62274 0.0
H4268 H 0.09351 0.3713 0.64784 0.0
C4269 C 0.041 0.33986 0.65164 0.0
C4270 C 0.06573 0.33874 0.62738 0.0
C4271 C 0.0276 0.3315 0.65673 0.0
C4272 C 0.1239 0.36431 0.61748 0.0
C4273 C 0.11021 0.35766 0.62184 0.0
C4274 C 0.0858 0.36232 0.64195 0.0
C4275 C 0.04795 0.33403 0.6454 0.0
C4276 C 0.06211 0.34274 0.63975 0.0
C4277 C 0.10405 0.36519 0.62528 0.0
C4278 C 0.08949 0.35796 0.62991 0.0
H4279 H 0.02312 0.30034 0.64867 0.0
H4280 H 0.04642 0.31481 0.64017 0.0
H4281 H 0.06985 0.35808 0.65646 0.0
H4282 H 0.13147 0.39727 0.61919 0.0
H4283 H 0.10742 0.38559 0.62697 0.0
C4284 C 0.31206 0.32633 0.6649 0.0
C4285 C 0.31481 0.32869 0.67936 0.0
C4286 C 0.30507 0.33163 0.65779 0.0
C4287 C 0.29874 0.35985 0.66048 0.0
H4288 H 0.27155 0.34017 0.63074 0.0
C4289 C 0.27116 0.38355 0.63242 0.0
C4290 C 0.26932 0.38161 0.61786 0.0
C4291 C 0.2755 0.37621 0.64029 0.0
C4292 C 0.27922 0.34585 0.63893 0.0
H4293 H 0.31181 0.33796 0.69777 0.0
H4294 H 0.29958 0.34711 0.68539 0.0
H4295 H 0.28107 0.32866 0.64383 0.0
H4296 H 0.27067 0.37054 0.60011 0.0
H4297 H 0.27849 0.35787 0.61378 0.0
H4298 H 0.29718 0.37712 0.65545 0.0
C4299 C 0.303 0.34133 0.67952 0.0
C4300 C 0.28465 0.33924 0.64645 0.0
C4301 C 0.30994 0.336 0.68663 0.0
C4302 C 0.27187 0.37213 0.61134 0.0
C4303 C 0.27627 0.36483 0.61919 0.0
C4304 C 0.29337 0.36647 0.65294 0.0
C4305 C 0.30072 0.33943 0.66499 0.0
C4306 C 0.2945 0.34618 0.65728 0.0
C4307 C 0.27824 0.36685 0.63376 0.0
C4308 C 0.28358 0.35958 0.64204 0.0
H4309 H 0.31566 0.32074 0.65898 0.0
H4310 H 0.30355 0.33006 0.64658 0.0
H4311 H 0.30651 0.36557 0.66859 0.0
H4312 H 0.26935 0.39084 0.63772 0.0
H4313 H 0.27672 0.37789 0.6515 0.0
C4314 C 0.66389 0.97756 0.6795 0.0
C4315 C 0.67213 0.99006 0.67273 0.0
C4316 C 0.65883 0.9651 0.6723 0.0
C4317 C 0.66374 0.94935 0.64066 0.0
H4318 H 0.62516 0.92126 0.64583 0.0
C4319 C 0.63402 0.90161 0.60415 0.0
C4320 C 0.62461 0.88903 0.61025 0.0
C4321 C 0.64041 0.91377 0.61212 0.0
C4322 C 0.63601 0.9289 0.6444 0.0
H4323 H 0.68183 0.99925 0.65315 0.0
H4324 H 0.67294 0.97752 0.64058 0.0
H4325 H 0.63544 0.94269 0.6592 0.0
H4326 H 0.61436 0.87938 0.62943 0.0
H4327 H 0.62567 0.90057 0.64343 0.0
H4328 H 0.66426 0.93556 0.62578 0.0
C4329 C 0.67047 0.97735 0.65149 0.0
C4330 C 0.6419 0.94121 0.65207 0.0
C4331 C 0.67551 0.98981 0.65869 0.0
C4332 C 0.62168 0.8889 0.62448 0.0
C4333 C 0.62807 0.90106 0.63246 0.0
C4334 C 0.65784 0.93702 0.63299 0.0
C4335 C 0.66191 0.96484 0.65816 0.0
C4336 C 0.65582 0.9516 0.65027 0.0
C4337 C 0.63747 0.91366 0.62636 0.0
C4338 C 0.64388 0.92666 0.63473 0.0
H4339 H 0.66112 0.97737 0.69032 0.0
H4340 H 0.65244 0.95565 0.6778 0.0
H4341 H 0.67453 0.95708 0.63914 0.0
H4342 H 0.6363 0.90204 0.59314 0.0
H4343 H 0.64741 0.92331 0.60702 0.0
C4344 C 0.02184 0.69211 0.656 0.0
C4345 C 0.01732 0.70141 0.65688 0.0
C4346 C 0.03563 0.6967 0.65288 0.0
C4347 C 0.07057 0.7269 0.65527 0.0
H4348 H 0.07929 0.70986 0.62527 0.0
C4349 C 0.12652 0.75076 0.63691 0.0
C4350 C 0.13108 0.74194 0.63308 0.0
C4351 C 0.1125 0.7456 0.63921 0.0
C4352 C 0.07708 0.71462 0.63382 0.0
H4353 H 0.02376 0.72282 0.65537 0.0
H4354 H 0.04785 0.73083 0.65022 0.0
H4355 H 0.05511 0.70093 0.631 0.0
H4356 H 0.12449 0.72086 0.62817 0.0
H4357 H 0.10005 0.71171 0.63277 0.0
H4358 H 0.09239 0.74034 0.65845 0.0
C4359 C 0.0407 0.72 0.65185 0.0
C4360 C 0.06321 0.70952 0.63706 0.0
C4361 C 0.0269 0.71539 0.65473 0.0
C4362 C 0.12126 0.72788 0.63124 0.0
C4363 C 0.10724 0.72267 0.63375 0.0
C4364 C 0.08441 0.73188 0.65219 0.0
C4365 C 0.04519 0.7107 0.65084 0.0
C4366 C 0.05985 0.7157 0.64773 0.0
C4367 C 0.10269 0.73145 0.63795 0.0
C4368 C 0.08787 0.72591 0.64132 0.0
H4369 H 0.0147 0.68127 0.65758 0.0
H4370 H 0.03887 0.68935 0.65224 0.0
H4371 H 0.06825 0.73174 0.66367 0.0
H4372 H 0.13383 0.76166 0.63826 0.0
H4373 H 0.10938 0.75275 0.64203 0.0
C4374 C 0.99408 0.64865 0.70191 0.0
C4375 C 0.98243 0.6469 0.69451 0.0
C4376 C 0.99392 0.63742 0.7077 0.0
C4377 C 0.97048 0.60252 0.72001 0.0
H4378 H 0.00179 0.59811 0.71461 0.0
C4379 C 0.96837 0.55283 0.7347 0.0
C4380 C 0.98042 0.55381 0.74019 0.0
C4381 C 0.96875 0.56436 0.7295 0.0
C4382 C 0.99305 0.59928 0.71643 0.0
H4383 H 0.96142 0.63196 0.68751 0.0
H4384 H 0.96111 0.61236 0.69775 0.0
H4385 H 0.00215 0.61788 0.70493 0.0
H4386 H 0.00248 0.56762 0.74406 0.0
H4387 H 0.00308 0.58789 0.7355 0.0
H4388 H 0.96144 0.58407 0.73167 0.0
C4389 C 0.97036 0.62245 0.69906 0.0
C4390 C 0.99324 0.61059 0.71082 0.0
C4391 C 0.97057 0.63367 0.69314 0.0
C4392 C 0.99295 0.56658 0.74017 0.0
C4393 C 0.99331 0.57817 0.73509 0.0
C4394 C 0.97034 0.59127 0.72573 0.0
C4395 C 0.98206 0.62421 0.70635 0.0
C4396 C 0.98193 0.61229 0.71248 0.0
C4397 C 0.98122 0.5772 0.72965 0.0
C4398 C 0.98158 0.58944 0.72394 0.0
H4399 H 0.00339 0.6587 0.70317 0.0
H4400 H 0.00304 0.63911 0.71338 0.0
H4401 H 0.9617 0.60366 0.72163 0.0
H4402 H 0.95865 0.54305 0.73427 0.0
H4403 H 0.9593 0.56312 0.72509 0.0
C4404 C 0.38786 0.36761 0.71152 0.0
C4405 C 0.37384 0.35883 0.70762 0.0
C4406 C 0.39296 0.38128 0.71527 0.0
C4407 C 0.38453 0.40852 0.71267 0.0
H4408 H 0.41365 0.42654 0.74107 0.0
C4409 C 0.40402 0.46322 0.7339 0.0
C4410 C 0.41846 0.47226 0.73342 0.0
C4411 C 0.39818 0.44913 0.73178 0.0
C4412 C 0.40553 0.42162 0.73311 0.0
H4413 H 0.35413 0.35746 0.70481 0.0
H4414 H 0.36288 0.38115 0.71179 0.0
H4415 H 0.40404 0.40236 0.73537 0.0
H4416 H 0.43811 0.47361 0.73093 0.0
H4417 H 0.42791 0.44895 0.72753 0.0
H4418 H 0.38593 0.4278 0.71065 0.0
C4419 C 0.37007 0.37763 0.71159 0.0
C4420 C 0.40007 0.40779 0.72976 0.0
C4421 C 0.36502 0.364 0.70765 0.0
C4422 C 0.42696 0.46688 0.73133 0.0
C4423 C 0.42113 0.45278 0.72943 0.0
C4424 C 0.38986 0.42229 0.71617 0.0
C4425 C 0.38413 0.38648 0.71541 0.0
C4426 C 0.38959 0.40108 0.71938 0.0
C4427 C 0.40668 0.4438 0.7294 0.0
C4428 C 0.4005 0.429 0.72632 0.0
H4429 H 0.39495 0.36396 0.71152 0.0
H4430 H 0.40389 0.38782 0.71786 0.0
H4431 H 0.37666 0.40382 0.70445 0.0
H4432 H 0.39725 0.46709 0.73563 0.0
H4433 H 0.38701 0.4424 0.73195 0.0
C4434 C 0.6415 0.03206 0.70478 0.0
C4435 C 0.64827 0.02507 0.70162 0.0
C4436 C 0.62803 0.02503 0.70979 0.0
C4437 C 0.59675 0.99011 0.71293 0.0
H4438 H 0.58645 0.00881 0.73956 0.0
C4439 C 0.54326 0.96413 0.73962 0.0
C4440 C 0.53635 0.97127 0.73805 0.0
C4441 C 0.55722 0.97029 0.73617 0.0
C4442 C 0.5892 0.00348 0.73212 0.0
H4443 H 0.64621 0.00516 0.70125 0.0
H4444 H 0.6228 0.99291 0.71043 0.0
H4445 H 0.61025 0.0201 0.73164 0.0
H4446 H 0.53878 0.99062 0.73218 0.0
H4447 H 0.56326 0.0015 0.72652 0.0
H4448 H 0.57563 0.97339 0.71371 0.0
C4449 C 0.62778 0.0038 0.70873 0.0
C4450 C 0.60281 0.00996 0.72749 0.0
C4451 C 0.64123 0.01083 0.70352 0.0
C4452 C 0.54382 0.98485 0.73345 0.0
C4453 C 0.55782 0.99109 0.73025 0.0
C4454 C 0.58317 0.98354 0.71775 0.0
C4455 C 0.62102 0.01083 0.712 0.0
C4456 C 0.60672 0.00348 0.71762 0.0
C4457 C 0.5646 0.98381 0.73139 0.0
C4458 C 0.57923 0.99026 0.72721 0.0
H4459 H 0.64658 0.04301 0.7033 0.0
H4460 H 0.62307 0.03077 0.71181 0.0
H4461 H 0.5993 0.98485 0.70522 0.0
H4462 H 0.53778 0.9537 0.74329 0.0
H4463 H 0.56227 0.96451 0.73725 0.0
loop_
_geom_bond_atom_site_label_1
_geom_bond_atom_site_label_2
_geom_bond_distance
_geom_bond_site_symmetry_2
_ccdc_geom_bond_type
Zn0 O3 2.031 1_554 S
Zn0 O5 2.049 . S
Zn0 O10 2.074 1_554 S
Zn1 O2 1.962 1_455 S
Zn1 O4 1.986 . S
Zn1 O6 1.996 1_455 S
Zn1 O9 1.943 . S
O2 Zn1 1.962 1_655 S
O2 C7 1.255 1_554 S
O3 Zn0 2.031 1_556 S
O3 C7 1.269 . S
O4 Zn1 1.986 . S
O4 C11 1.262 . S
O5 Zn0 2.049 . S
O5 C13 1.260 . S
O6 Zn1 1.996 1_655 S
O6 C13 1.257 . S
C7 O2 1.255 1_556 S
C7 O3 1.269 . S
C8 O9 1.249 1_556 S
C8 O10 1.258 1_455 S
O9 Zn1 1.943 . S
O9 C8 1.249 1_554 S
O10 Zn0 2.074 1_556 S
O10 C8 1.258 1_655 S
C11 O4 1.262 . S
C11 O12 1.232 . S
O12 C11 1.232 . S
C13 O5 1.260 . S
C13 O6 1.257 . S
Zn14 O17 2.031 . S
Zn14 O19 2.049 . S
Zn14 O24 2.067 . S
Zn15 O16 1.962 . S
Zn15 O18 1.986 . S
Zn15 O20 1.996 . S
Zn15 O23 1.943 . S
O16 Zn15 1.962 . S
O16 C21 1.254 . S
O17 Zn14 2.031 . S
O17 C21 1.269 . S
O18 Zn15 1.986 . S
O18 C25 1.262 . S
O19 Zn14 2.049 . S
O19 C27 1.260 . S
O20 Zn15 1.996 . S
O20 C27 1.257 . S
C21 O16 1.254 . S
C21 O17 1.269 . S
C22 O23 1.249 . S
C22 O24 1.270 . S
O23 Zn15 1.943 . S
O23 C22 1.249 . S
O24 Zn14 2.067 . S
O24 C22 1.270 . S
C25 O18 1.262 . S
C25 O26 1.232 . S
O26 C25 1.232 . S
C27 O19 1.260 . S
C27 O20 1.257 . S
Zn28 O31 2.031 . S
Zn28 O33 2.049 1_554 S
Zn28 O38 2.067 1_565 S
Zn29 O30 1.962 1_545 S
Zn29 O32 1.986 1_554 S
Zn29 O34 1.983 1_544 S
Zn29 O37 1.943 . S
O30 Zn29 1.962 1_565 S
O30 C35 1.254 . S
O31 Zn28 2.031 . S
O31 C35 1.269 . S
O32 Zn29 1.986 1_556 S
O32 C39 1.303 . S
O33 Zn28 2.049 1_556 S
O33 C41 1.260 . S
O34 Zn29 1.983 1_566 S
O34 C41 1.268 . S
C35 O30 1.254 . S
C35 O31 1.269 . S
C36 O37 1.249 . S
C36 O38 1.270 . S
O37 Zn29 1.943 . S
O37 C36 1.249 . S
O38 Zn28 2.067 1_545 S
O38 C36 1.270 . S
C39 O32 1.303 . S
C39 O40 1.161 1_556 S
O40 C39 1.161 1_554 S
C41 O33 1.260 . S
C41 O34 1.268 . S
Zn42 O45 2.031 . S
Zn42 O47 2.119 . S
Zn42 O52 2.067 . S
Zn43 O44 1.962 1_655 S
Zn43 O46 1.986 1_554 S
Zn43 O48 1.996 1_654 S
Zn43 O51 1.943 . S
O44 Zn43 1.962 1_455 S
O44 C49 1.254 . S
O45 Zn42 2.031 . S
O45 C49 1.269 . S
O46 Zn43 1.986 1_556 S
O46 C53 1.262 1_556 S
O47 Zn42 2.119 . S
O47 C55 1.217 1_554 S
O48 Zn43 1.996 1_456 S
O48 C55 1.257 . S
C49 O44 1.254 . S
C49 O45 1.269 . S
C50 O51 1.249 . S
C50 O52 1.270 1_655 S
O51 Zn43 1.943 . S
O51 C50 1.249 . S
O52 Zn42 2.067 . S
O52 C50 1.270 1_455 S
C53 O46 1.262 1_554 S
C53 O54 1.232 . S
O54 C53 1.232 . S
C55 O47 1.217 1_556 S
C55 O48 1.257 . S
Zn56 O59 2.031 . S
Zn56 O61 2.049 1_554 S
Zn56 O66 2.067 . S
Zn57 O58 1.962 . S
Zn57 O60 1.986 1_554 S
Zn57 O62 1.996 1_554 S
Zn57 O65 1.943 . S
O58 Zn57 1.962 . S
O58 C63 1.254 . S
O59 Zn56 2.031 . S
O59 C63 1.269 . S
O60 Zn57 1.986 1_556 S
O60 C67 1.262 . S
O61 Zn56 2.049 1_556 S
O61 C69 1.260 . S
O62 Zn57 1.996 1_556 S
O62 C69 1.257 . S
C63 O58 1.254 . S
C63 O59 1.269 . S
C64 O65 1.249 . S
C64 O66 1.270 . S
O65 Zn57 1.943 . S
O65 C64 1.249 . S
O66 Zn56 2.067 . S
O66 C64 1.270 . S
C67 O60 1.262 . S
C67 O68 1.232 1_556 S
O68 C67 1.232 1_554 S
C69 O61 1.260 . S
C69 O62 1.257 . S
Zn70 O73 2.031 . S
Zn70 O75 2.049 . S
Zn70 O80 2.067 . S
Zn71 O72 1.962 1_565 S
Zn71 O74 1.986 . S
Zn71 O76 1.996 1_565 S
Zn71 O79 1.943 . S
O72 Zn71 1.962 1_545 S
O72 C77 1.254 . S
O73 Zn70 2.031 . S
O73 C77 1.269 . S
O74 Zn71 1.986 . S
O74 C81 1.262 . S
O75 Zn70 2.049 . S
O75 C83 1.260 . S
O76 Zn71 1.996 1_545 S
O76 C83 1.257 . S
C77 O72 1.254 . S
C77 O73 1.269 . S
C78 O79 1.249 . S
C78 O80 1.270 1_565 S
O79 Zn71 1.943 . S
O79 C78 1.249 . S
O80 Zn70 2.067 . S
O80 C78 1.270 1_545 S
C81 O74 1.262 . S
C81 O82 1.232 . S
O82 C81 1.232 . S
C83 O75 1.260 . S
C83 O76 1.257 . S
Zn84 O87 2.031 . S
Zn84 O89 2.049 . S
Zn84 O94 2.067 . S
Zn85 O86 1.962 . S
Zn85 O88 1.986 . S
Zn85 O90 1.996 . S
Zn85 O93 1.943 . S
O86 Zn85 1.962 . S
O86 C91 1.254 . S
O87 Zn84 2.031 . S
O87 C91 1.269 . S
O88 Zn85 1.986 . S
O88 C95 1.262 . S
O89 Zn84 2.049 . S
O89 C97 1.260 . S
O90 Zn85 1.996 . S
O90 C97 1.257 . S
C91 O86 1.254 . S
C91 O87 1.269 . S
C92 O93 1.249 . S
C92 O94 1.270 . S
O93 Zn85 1.943 . S
O93 C92 1.249 . S
O94 Zn84 2.067 . S
O94 C92 1.270 . S
C95 O88 1.262 . S
C95 O96 1.232 . S
O96 C95 1.232 . S
C97 O89 1.260 . S
C97 O90 1.257 . S
Zn98 O101 2.031 . S
Zn98 O103 2.049 . S
Zn98 O108 2.067 . S
Zn99 O100 1.962 . S
Zn99 O102 1.986 1_565 S
Zn99 O104 1.996 . S
Zn99 O107 1.943 . S
O100 Zn99 1.962 . S
O100 C105 1.254 . S
O101 Zn98 2.031 . S
O101 C105 1.269 . S
O102 Zn99 1.986 1_545 S
O102 C109 1.262 . S
O103 Zn98 2.049 . S
O103 C111 1.260 . S
O104 Zn99 1.996 . S
O104 C111 1.257 . S
C105 O100 1.254 . S
C105 O101 1.269 . S
C106 O107 1.249 . S
C106 O108 1.270 . S
O107 Zn99 1.943 . S
O107 C106 1.249 . S
O108 Zn98 2.067 . S
O108 C106 1.270 . S
C109 O102 1.262 . S
C109 O110 1.232 . S
O110 C109 1.232 . S
C111 O103 1.260 . S
C111 O104 1.257 . S
Zn112 O115 2.031 . S
Zn112 O117 2.049 . S
Zn112 O122 2.067 . S
Zn113 O114 1.962 . S
Zn113 O116 1.986 . S
Zn113 O118 1.996 . S
Zn113 O121 1.943 . S
O114 Zn113 1.962 . S
O114 C119 1.254 . S
O115 Zn112 2.031 . S
O115 C119 1.269 . S
O116 Zn113 1.986 . S
O116 C123 1.262 . S
O117 Zn112 2.049 . S
O117 C125 1.260 . S
O118 Zn113 1.996 . S
O118 C125 1.257 . S
C119 O114 1.254 . S
C119 O115 1.269 . S
C120 O121 1.249 . S
C120 O122 1.270 . S
O121 Zn113 1.943 . S
O121 C120 1.249 . S
O122 Zn112 2.067 . S
O122 C120 1.270 . S
C123 O116 1.262 . S
C123 O124 1.232 . S
O124 C123 1.232 . S
C125 O117 1.260 . S
C125 O118 1.257 . S
Zn126 O129 2.031 . S
Zn126 O131 2.049 . S
Zn126 O136 2.067 . S
Zn127 O128 1.962 1_565 S
Zn127 O130 1.986 . S
Zn127 O132 1.996 . S
Zn127 O135 1.943 . S
O128 Zn127 1.962 1_545 S
O128 C133 1.254 . S
O129 Zn126 2.031 . S
O129 C133 1.269 1_565 S
O130 Zn127 1.986 . S
O130 C137 1.262 . S
O131 Zn126 2.049 . S
O131 C139 1.260 . S
O132 Zn127 1.996 . S
O132 C139 1.257 . S
C133 O128 1.254 . S
C133 O129 1.269 1_545 S
C134 O135 1.249 . S
C134 O136 1.270 . S
O135 Zn127 1.943 . S
O135 C134 1.249 . S
O136 Zn126 2.067 . S
O136 C134 1.270 . S
C137 O130 1.262 . S
C137 O138 1.232 . S
O138 C137 1.232 . S
C139 O131 1.260 . S
C139 O132 1.257 . S
Zn140 O143 2.031 . S
Zn140 O145 2.049 . S
Zn140 O150 2.067 . S
Zn141 O142 1.962 1_455 S
Zn141 O144 1.986 . S
Zn141 O146 1.996 . S
Zn141 O149 1.943 . S
O142 Zn141 1.962 1_655 S
O142 C147 1.254 . S
O143 Zn140 2.031 . S
O143 C147 1.269 1_455 S
O144 Zn141 1.986 . S
O144 C151 1.262 . S
O145 Zn140 2.049 . S
O145 C153 1.260 . S
O146 Zn141 1.996 . S
O146 C153 1.257 . S
C147 O142 1.254 . S
C147 O143 1.269 1_655 S
C148 O149 1.249 . S
C148 O150 1.270 . S
O149 Zn141 1.943 . S
O149 C148 1.249 . S
O150 Zn140 2.067 . S
O150 C148 1.270 . S
C151 O144 1.262 . S
C151 O152 1.232 . S
O152 C151 1.232 . S
C153 O145 1.260 . S
C153 O146 1.257 . S
Zn154 O157 2.031 . S
Zn154 O159 2.049 . S
Zn154 O164 2.067 . S
Zn155 O156 1.962 . S
Zn155 O158 1.986 . S
Zn155 O160 1.996 . S
Zn155 O163 1.943 . S
O156 Zn155 1.962 . S
O156 C161 1.254 . S
O157 Zn154 2.031 . S
O157 C161 1.269 . S
O158 Zn155 1.986 . S
O158 C165 1.262 . S
O159 Zn154 2.049 . S
O159 C167 1.260 . S
O160 Zn155 1.996 . S
O160 C167 1.257 . S
C161 O156 1.254 . S
C161 O157 1.269 . S
C162 O163 1.249 . S
C162 O164 1.270 . S
O163 Zn155 1.943 . S
O163 C162 1.249 . S
O164 Zn154 2.067 . S
O164 C162 1.270 . S
C165 O158 1.262 . S
C165 O166 1.232 . S
O166 C165 1.232 . S
C167 O159 1.260 . S
C167 O160 1.257 . S
Zn168 O171 2.031 . S
Zn168 O173 2.049 . S
Zn168 O178 2.067 . S
Zn169 O170 2.012 . S
Zn169 O172 1.986 . S
Zn169 O174 1.996 . S
Zn169 O177 1.943 . S
O170 Zn169 2.012 . S
O170 C175 1.273 . S
O171 Zn168 2.031 . S
O171 C175 1.279 . S
O172 Zn169 1.986 . S
O172 C179 1.262 . S
O173 Zn168 2.049 . S
O173 C181 1.260 . S
O174 Zn169 1.996 . S
O174 C181 1.257 . S
C175 O170 1.273 . S
C175 O171 1.279 . S
C176 O177 1.249 . S
C176 O178 1.270 . S
O177 Zn169 1.943 . S
O177 C176 1.249 . S
O178 Zn168 2.067 . S
O178 C176 1.270 . S
C179 O172 1.262 . S
C179 O180 1.232 . S
O180 C179 1.232 . S
C181 O173 1.260 . S
C181 O174 1.257 . S
Zn182 O185 2.031 . S
Zn182 O187 2.049 . S
Zn182 O192 2.067 . S
Zn183 O184 1.962 1_655 S
Zn183 O186 1.986 . S
Zn183 O188 1.996 . S
Zn183 O191 1.943 . S
O184 Zn183 1.962 1_455 S
O184 C189 1.254 . S
O185 Zn182 2.031 . S
O185 C189 1.269 1_655 S
O186 Zn183 1.986 . S
O186 C193 1.262 . S
O187 Zn182 2.049 . S
O187 C195 1.260 . S
O188 Zn183 1.996 . S
O188 C195 1.257 . S
C189 O184 1.254 . S
C189 O185 1.269 1_455 S
C190 O191 1.249 . S
C190 O192 1.270 . S
O191 Zn183 1.943 . S
O191 C190 1.249 . S
O192 Zn182 2.067 . S
O192 C190 1.270 . S
C193 O186 1.262 . S
C193 O194 1.232 . S
O194 C193 1.232 . S
C195 O187 1.260 . S
C195 O188 1.257 . S
Zn196 O199 2.031 . S
Zn196 O201 2.049 . S
Zn196 O206 2.067 . S
Zn197 O198 1.962 . S
Zn197 O200 1.986 . S
Zn197 O202 1.996 . S
Zn197 O205 1.943 . S
O198 Zn197 1.962 . S
O198 C203 1.254 . S
O199 Zn196 2.031 . S
O199 C203 1.269 . S
O200 Zn197 1.986 . S
O200 C207 1.262 . S
O201 Zn196 2.049 . S
O201 C209 1.260 . S
O202 Zn197 1.996 . S
O202 C209 1.257 . S
C203 O198 1.254 . S
C203 O199 1.269 . S
C204 O205 1.249 . S
C204 O206 1.270 . S
O205 Zn197 1.943 . S
O205 C204 1.249 . S
O206 Zn196 2.067 . S
O206 C204 1.270 . S
C207 O200 1.262 . S
C207 O208 1.232 . S
O208 C207 1.232 . S
C209 O201 1.260 . S
C209 O202 1.257 . S
Zn210 O213 2.031 . S
Zn210 O215 2.049 . S
Zn210 O220 2.067 . S
Zn211 O212 1.962 . S
Zn211 O214 1.986 . S
Zn211 O216 1.996 . S
Zn211 O219 1.943 . S
O212 Zn211 1.962 . S
O212 C217 1.254 . S
O213 Zn210 2.031 . S
O213 C217 1.269 . S
O214 Zn211 1.986 . S
O214 C221 1.262 . S
O215 Zn210 2.049 . S
O215 C223 1.260 . S
O216 Zn211 1.996 . S
O216 C223 1.257 . S
C217 O212 1.254 . S
C217 O213 1.269 . S
C218 O219 1.249 . S
C218 O220 1.270 . S
O219 Zn211 1.943 . S
O219 C218 1.249 . S
O220 Zn210 2.067 . S
O220 C218 1.270 . S
C221 O214 1.262 . S
C221 O222 1.232 . S
O222 C221 1.232 . S
C223 O215 1.260 . S
C223 O216 1.257 . S
Zn224 O227 2.031 . S
Zn224 O229 2.049 . S
Zn224 O234 2.067 . S
Zn225 O226 1.962 . S
Zn225 O228 1.986 . S
Zn225 O230 1.996 . S
Zn225 O233 1.943 . S
O226 Zn225 1.962 . S
O226 C231 1.254 . S
O227 Zn224 2.031 . S
O227 C231 1.269 . S
O228 Zn225 1.986 . S
O228 C235 1.262 1_545 S
O229 Zn224 2.049 . S
O229 C237 1.260 . S
O230 Zn225 1.996 . S
O230 C237 1.257 . S
C231 O226 1.254 . S
C231 O227 1.269 . S
C232 O233 1.249 . S
C232 O234 1.270 . S
O233 Zn225 1.943 . S
O233 C232 1.249 . S
O234 Zn224 2.067 . S
O234 C232 1.270 . S
C235 O228 1.262 1_565 S
C235 O236 1.232 . S
O236 C235 1.232 . S
C237 O229 1.260 . S
C237 O230 1.257 . S
Zn238 O241 2.031 . S
Zn238 O243 2.049 . S
Zn238 O248 2.067 . S
Zn239 O240 1.903 1_655 S
Zn239 O242 1.986 . S
Zn239 O244 1.996 . S
Zn239 O247 1.943 . S
O240 Zn239 1.903 1_455 S
O240 C245 1.234 . S
O241 Zn238 2.031 . S
O241 C245 1.269 1_655 S
O242 Zn239 1.986 . S
O242 C249 1.262 . S
O243 Zn238 2.049 . S
O243 C251 1.260 . S
O244 Zn239 1.996 . S
O244 C251 1.257 . S
C245 O240 1.234 . S
C245 O241 1.269 1_455 S
C246 O247 1.249 . S
C246 O248 1.270 . S
O247 Zn239 1.943 . S
O247 C246 1.249 . S
O248 Zn238 2.067 . S
O248 C246 1.270 . S
C249 O242 1.262 . S
C249 O250 1.232 . S
O250 C249 1.232 . S
C251 O243 1.260 . S
C251 O244 1.257 . S
C252 C253 1.560 . S
C252 H313 0.959 . S
C252 H314 0.959 . S
C252 H315 0.960 . S
C253 C252 1.560 . S
C253 O308 1.426 . S
C253 H312 0.980 . S
C254 C255 1.407 . S
C254 C259 1.418 . S
C254 O308 1.334 . S
C255 C254 1.407 . S
C255 C256 1.360 . S
C255 H316 0.929 . S
C256 C255 1.360 . S
C256 C257 1.401 . S
C256 C260 1.527 . S
C257 C256 1.401 . S
C257 C258 1.405 . S
C257 C290 1.587 . S
C258 C257 1.405 . S
C258 C259 1.332 . S
C258 C261 1.496 . S
C259 C254 1.418 . S
C259 C258 1.332 . S
C259 H317 0.929 . S
C260 C256 1.527 . S
C260 H318 0.959 . S
C260 H319 0.961 . S
C260 H320 0.961 . S
C261 C258 1.496 . S
C261 H321 0.960 . S
C261 H322 0.960 . S
C261 H323 0.961 . S
C262 C263 1.517 . S
C262 H325 0.961 . S
C262 H326 0.960 . S
C262 H327 0.959 . S
C263 C262 1.517 . S
C263 O311 1.468 . S
C263 H324 0.980 . S
C264 C265 1.349 . S
C264 C269 1.367 . S
C264 O311 1.408 . S
C265 C264 1.349 . S
C265 C266 1.407 . S
C265 H328 0.930 . S
C266 C265 1.407 . S
C266 C267 1.449 . S
C266 C270 1.535 . S
C267 C266 1.449 . S
C267 C268 1.384 . S
C267 C292 1.553 . S
C268 C267 1.384 . S
C268 C269 1.364 . S
C268 C271 1.450 . S
C269 C264 1.367 . S
C269 C268 1.364 . S
C269 H329 0.931 . S
C270 C266 1.535 . S
C270 H330 0.959 . S
C270 H331 0.961 . S
C270 H332 0.959 . S
C271 C268 1.450 . S
C271 H333 0.960 . S
C271 H334 0.960 . S
C271 H335 0.960 . S
C272 C273 1.309 . S
C272 C277 1.304 . S
C272 O310 1.435 . S
C273 C272 1.309 . S
C273 C274 1.476 . S
C273 H337 0.930 . S
C274 C273 1.476 . S
C274 C275 1.400 . S
C274 C278 1.567 . S
C275 C274 1.400 . S
C275 C276 1.373 . S
C275 C297 1.432 . S
C276 C275 1.373 . S
C276 C277 1.339 . S
C276 C279 1.530 . S
C277 C272 1.304 . S
C277 C276 1.339 . S
C277 H338 0.930 . S
C278 C274 1.567 . S
C278 H339 0.961 . S
C278 H340 0.960 . S
C278 H341 0.958 . S
C279 C276 1.530 . S
C279 H342 0.961 . S
C279 H343 0.960 . S
C279 H344 0.960 . S
C280 C281 1.530 . S
C280 H346 0.961 . S
C280 H347 0.961 . S
C280 H348 0.959 . S
C281 C280 1.530 . S
C281 O309 1.412 . S
C281 H345 0.980 . S
C282 C283 1.288 . S
C282 C287 1.377 . S
C282 O309 1.393 . S
C283 C282 1.288 . S
C283 C284 1.369 . S
C283 H349 0.932 . S
C284 C283 1.369 . S
C284 C285 1.398 . S
C284 C288 1.527 . S
C285 C284 1.398 . S
C285 C286 1.380 . S
C285 C299 1.497 . S
C286 C285 1.380 . S
C286 C287 1.383 . S
C286 C289 1.603 . S
C287 C282 1.377 . S
C287 C286 1.383 . S
C287 H350 0.929 . S
C288 C284 1.527 . S
C288 H351 0.961 . S
C288 H352 0.959 . S
C288 H353 0.959 . S
C289 C286 1.603 . S
C289 H354 0.960 . S
C289 H355 0.962 . S
C289 H356 0.961 . S
C290 C257 1.587 . S
C290 C291 1.360 . S
C290 C303 1.412 . S
C291 C290 1.360 . S
C291 C292 1.365 . S
C291 H357 0.929 . S
C292 C267 1.553 . S
C292 C291 1.365 . S
C292 C293 1.404 . S
C293 C292 1.404 . S
C293 C294 1.395 . S
C293 C304 1.451 . S
C294 C293 1.395 . S
C294 C295 1.322 . S
C294 H358 0.930 . S
C295 C294 1.322 . S
C295 C296 1.459 . S
C295 H359 0.929 . S
C296 C295 1.459 . S
C296 C297 1.445 . S
C296 C305 1.395 . S
C297 C275 1.432 . S
C297 C296 1.445 . S
C297 C298 1.370 . S
C298 C297 1.370 . S
C298 C299 1.438 . S
C298 H360 0.930 . S
C299 C285 1.497 . S
C299 C298 1.438 . S
C299 C300 1.360 . S
C300 C299 1.360 . S
C300 C301 1.401 . S
C300 C305 1.446 . S
C301 C300 1.401 . S
C301 C302 1.347 . S
C301 H361 0.929 . S
C302 C301 1.347 . S
C302 C303 1.455 . S
C302 H362 0.930 . S
C303 C290 1.412 . S
C303 C302 1.455 . S
C303 C304 1.331 . S
C304 C293 1.451 . S
C304 C303 1.331 . S
C304 C305 1.497 . S
C305 C296 1.395 . S
C305 C300 1.446 . S
C305 C304 1.497 . S
C306 C307 1.582 . S
C306 H363 0.962 . S
C306 H364 0.959 . S
C306 H365 0.958 . S
C307 C306 1.582 . S
C307 O310 1.458 . S
C307 H336 0.980 . S
O308 C253 1.426 . S
O308 C254 1.334 . S
O309 C281 1.412 . S
O309 C282 1.393 . S
O310 C272 1.435 . S
O310 C307 1.458 . S
O311 C263 1.468 . S
O311 C264 1.408 . S
H312 C253 0.980 . S
H313 C252 0.959 . S
H314 C252 0.959 . S
H315 C252 0.960 . S
H316 C255 0.929 . S
H317 C259 0.929 . S
H318 C260 0.959 . S
H319 C260 0.961 . S
H320 C260 0.961 . S
H321 C261 0.960 . S
H322 C261 0.960 . S
H323 C261 0.961 . S
H324 C263 0.980 . S
H325 C262 0.961 . S
H326 C262 0.960 . S
H327 C262 0.959 . S
H328 C265 0.930 . S
H329 C269 0.931 . S
H330 C270 0.959 . S
H331 C270 0.961 . S
H332 C270 0.959 . S
H333 C271 0.960 . S
H334 C271 0.960 . S
H335 C271 0.960 . S
H336 C307 0.980 . S
H337 C273 0.930 . S
H338 C277 0.930 . S
H339 C278 0.961 . S
H340 C278 0.960 . S
H341 C278 0.958 . S
H342 C279 0.961 . S
H343 C279 0.960 . S
H344 C279 0.960 . S
H345 C281 0.980 . S
H346 C280 0.961 . S
H347 C280 0.961 . S
H348 C280 0.959 . S
H349 C283 0.932 . S
H350 C287 0.929 . S
H351 C288 0.961 . S
H352 C288 0.959 . S
H353 C288 0.959 . S
H354 C289 0.960 . S
H355 C289 0.962 . S
H356 C289 0.961 . S
H357 C291 0.929 . S
H358 C294 0.930 . S
H359 C295 0.929 . S
H360 C298 0.930 . S
H361 C301 0.929 . S
H362 C302 0.930 . S
H363 C306 0.962 . S
H364 C306 0.959 . S
H365 C306 0.958 . S
C366 C367 1.560 . S
C366 H427 0.959 . S
C366 H428 0.959 . S
C366 H429 0.960 . S
C367 C366 1.560 . S
C367 O422 1.426 . S
C367 H426 0.980 . S
C368 C369 1.407 . S
C368 C373 1.418 . S
C368 O422 1.334 . S
C369 C368 1.407 . S
C369 C370 1.360 . S
C369 H430 0.929 . S
C370 C369 1.360 . S
C370 C371 1.401 . S
C370 C374 1.527 . S
C371 C370 1.401 . S
C371 C372 1.405 . S
C371 C404 1.587 . S
C372 C371 1.405 . S
C372 C373 1.332 . S
C372 C375 1.496 . S
C373 C368 1.418 . S
C373 C372 1.332 . S
C373 H431 0.929 . S
C374 C370 1.527 . S
C374 H432 0.959 . S
C374 H433 0.961 . S
C374 H434 0.961 . S
C375 C372 1.496 . S
C375 H435 0.960 . S
C375 H436 0.960 . S
C375 H437 0.961 . S
C376 C377 1.517 . S
C376 H439 0.961 . S
C376 H440 0.960 . S
C376 H441 0.959 . S
C377 C376 1.517 . S
C377 O425 1.468 . S
C377 H438 0.980 . S
C378 C379 1.349 . S
C378 C383 1.367 . S
C378 O425 1.408 . S
C379 C378 1.349 . S
C379 C380 1.407 . S
C379 H442 0.930 . S
C380 C379 1.407 . S
C380 C381 1.449 . S
C380 C384 1.535 . S
C381 C380 1.449 . S
C381 C382 1.384 . S
C381 C406 1.553 . S
C382 C381 1.384 . S
C382 C383 1.364 . S
C382 C385 1.450 . S
C383 C378 1.367 . S
C383 C382 1.364 . S
C383 H443 0.931 . S
C384 C380 1.535 . S
C384 H444 0.959 . S
C384 H445 0.961 . S
C384 H446 0.959 . S
C385 C382 1.450 . S
C385 H447 0.960 . S
C385 H448 0.960 . S
C385 H449 0.960 . S
C386 C387 1.309 . S
C386 C391 1.304 . S
C386 O424 1.435 . S
C387 C386 1.309 . S
C387 C388 1.476 . S
C387 H451 0.930 . S
C388 C387 1.476 . S
C388 C389 1.400 . S
C388 C392 1.567 . S
C389 C388 1.400 . S
C389 C390 1.373 . S
C389 C411 1.432 . S
C390 C389 1.373 . S
C390 C391 1.339 . S
C390 C393 1.530 . S
C391 C386 1.304 . S
C391 C390 1.339 . S
C391 H452 0.930 . S
C392 C388 1.567 . S
C392 H453 0.961 . S
C392 H454 0.960 . S
C392 H455 0.958 . S
C393 C390 1.530 . S
C393 H456 0.961 . S
C393 H457 0.960 . S
C393 H458 0.960 . S
C394 C395 1.530 . S
C394 H460 0.961 . S
C394 H461 0.961 . S
C394 H462 0.959 . S
C395 C394 1.530 . S
C395 O423 1.412 . S
C395 H459 0.980 . S
C396 C397 1.288 . S
C396 C401 1.377 . S
C396 O423 1.393 . S
C397 C396 1.288 . S
C397 C398 1.369 . S
C397 H463 0.932 . S
C398 C397 1.369 . S
C398 C399 1.398 . S
C398 C402 1.527 . S
C399 C398 1.398 . S
C399 C400 1.380 . S
C399 C413 1.497 . S
C400 C399 1.380 . S
C400 C401 1.383 . S
C400 C403 1.603 . S
C401 C396 1.377 . S
C401 C400 1.383 . S
C401 H464 0.929 . S
C402 C398 1.527 . S
C402 H465 0.961 . S
C402 H466 0.959 . S
C402 H467 0.959 . S
C403 C400 1.603 . S
C403 H468 0.960 . S
C403 H469 0.962 . S
C403 H470 0.961 . S
C404 C371 1.587 . S
C404 C405 1.360 . S
C404 C417 1.412 . S
C405 C404 1.360 . S
C405 C406 1.365 . S
C405 H471 0.929 . S
C406 C381 1.553 . S
C406 C405 1.365 . S
C406 C407 1.404 . S
C407 C406 1.404 . S
C407 C408 1.395 . S
C407 C418 1.451 . S
C408 C407 1.395 . S
C408 C409 1.322 . S
C408 H472 0.930 . S
C409 C408 1.322 . S
C409 C410 1.459 . S
C409 H473 0.929 . S
C410 C409 1.459 . S
C410 C411 1.445 . S
C410 C419 1.395 . S
C411 C389 1.432 . S
C411 C410 1.445 . S
C411 C412 1.370 . S
C412 C411 1.370 . S
C412 C413 1.438 . S
C412 H474 0.930 . S
C413 C399 1.497 . S
C413 C412 1.438 . S
C413 C414 1.360 . S
C414 C413 1.360 . S
C414 C415 1.401 . S
C414 C419 1.446 . S
C415 C414 1.401 . S
C415 C416 1.347 . S
C415 H475 0.929 . S
C416 C415 1.347 . S
C416 C417 1.455 . S
C416 H476 0.930 . S
C417 C404 1.412 . S
C417 C416 1.455 . S
C417 C418 1.331 . S
C418 C407 1.451 . S
C418 C417 1.331 . S
C418 C419 1.497 . S
C419 C410 1.395 . S
C419 C414 1.446 . S
C419 C418 1.497 . S
C420 C421 1.582 . S
C420 H477 0.962 . S
C420 H478 0.959 . S
C420 H479 0.958 . S
C421 C420 1.582 . S
C421 O424 1.458 . S
C421 H450 0.980 . S
O422 C367 1.426 . S
O422 C368 1.334 . S
O423 C395 1.412 . S
O423 C396 1.393 . S
O424 C386 1.435 . S
O424 C421 1.458 . S
O425 C377 1.468 . S
O425 C378 1.408 . S
H426 C367 0.980 . S
H427 C366 0.959 . S
H428 C366 0.959 . S
H429 C366 0.960 . S
H430 C369 0.929 . S
H431 C373 0.929 . S
H432 C374 0.959 . S
H433 C374 0.961 . S
H434 C374 0.961 . S
H435 C375 0.960 . S
H436 C375 0.960 . S
H437 C375 0.961 . S
H438 C377 0.980 . S
H439 C376 0.961 . S
H440 C376 0.960 . S
H441 C376 0.959 . S
H442 C379 0.930 . S
H443 C383 0.931 . S
H444 C384 0.959 . S
H445 C384 0.961 . S
H446 C384 0.959 . S
H447 C385 0.960 . S
H448 C385 0.960 . S
H449 C385 0.960 . S
H450 C421 0.980 . S
H451 C387 0.930 . S
H452 C391 0.930 . S
H453 C392 0.961 . S
H454 C392 0.960 . S
H455 C392 0.958 . S
H456 C393 0.961 . S
H457 C393 0.960 . S
H458 C393 0.960 . S
H459 C395 0.980 . S
H460 C394 0.961 . S
H461 C394 0.961 . S
H462 C394 0.959 . S
H463 C397 0.932 . S
H464 C401 0.929 . S
H465 C402 0.961 . S
H466 C402 0.959 . S
H467 C402 0.959 . S
H468 C403 0.960 . S
H469 C403 0.962 . S
H470 C403 0.961 . S
H471 C405 0.929 . S
H472 C408 0.930 . S
H473 C409 0.929 . S
H474 C412 0.930 . S
H475 C415 0.929 . S
H476 C416 0.930 . S
H477 C420 0.962 . S
H478 C420 0.959 . S
H479 C420 0.958 . S
C480 C481 1.560 . S
C480 H541 0.959 . S
C480 H542 0.959 . S
C480 H543 0.960 . S
C481 C480 1.560 . S
C481 O536 1.426 . S
C481 H540 0.980 . S
C482 C483 1.407 . S
C482 C487 1.418 . S
C482 O536 1.334 . S
C483 C482 1.407 . S
C483 C484 1.360 . S
C483 H544 0.929 . S
C484 C483 1.360 . S
C484 C485 1.401 . S
C484 C488 1.527 . S
C485 C484 1.401 . S
C485 C486 1.405 . S
C485 C518 1.587 . S
C486 C485 1.405 . S
C486 C487 1.332 . S
C486 C489 1.496 . S
C487 C482 1.418 . S
C487 C486 1.332 . S
C487 H545 0.929 . S
C488 C484 1.527 . S
C488 H546 0.959 . S
C488 H547 0.961 . S
C488 H548 0.961 . S
C489 C486 1.496 . S
C489 H549 0.960 . S
C489 H550 0.960 . S
C489 H551 0.961 . S
C490 C491 1.517 . S
C490 H553 0.961 . S
C490 H554 0.960 . S
C490 H555 0.959 . S
C491 C490 1.517 . S
C491 O539 1.468 . S
C491 H552 0.980 . S
C492 C493 1.349 . S
C492 C497 1.367 . S
C492 O539 1.408 . S
C493 C492 1.349 . S
C493 C494 1.407 . S
C493 H556 0.930 . S
C494 C493 1.407 . S
C494 C495 1.449 . S
C494 C498 1.535 . S
C495 C494 1.449 . S
C495 C496 1.384 . S
C495 C520 1.553 . S
C496 C495 1.384 . S
C496 C497 1.364 . S
C496 C499 1.450 . S
C497 C492 1.367 . S
C497 C496 1.364 . S
C497 H557 0.931 . S
C498 C494 1.535 . S
C498 H558 0.959 . S
C498 H559 0.961 . S
C498 H560 0.959 . S
C499 C496 1.450 . S
C499 H561 0.960 . S
C499 H562 0.960 . S
C499 H563 0.960 . S
C500 C501 1.309 . S
C500 C505 1.304 . S
C500 O538 1.435 . S
C501 C500 1.309 . S
C501 C502 1.476 . S
C501 H565 0.930 . S
C502 C501 1.476 . S
C502 C503 1.400 . S
C502 C506 1.567 . S
C503 C502 1.400 . S
C503 C504 1.373 . S
C503 C525 1.432 . S
C504 C503 1.373 . S
C504 C505 1.339 . S
C504 C507 1.530 . S
C505 C500 1.304 . S
C505 C504 1.339 . S
C505 H566 0.930 . S
C506 C502 1.567 . S
C506 H567 0.961 . S
C506 H568 0.960 . S
C506 H569 0.958 . S
C507 C504 1.530 . S
C507 H570 0.961 . S
C507 H571 0.960 . S
C507 H572 0.960 . S
C508 C509 1.530 . S
C508 H574 0.961 . S
C508 H575 0.961 . S
C508 H576 0.959 . S
C509 C508 1.530 . S
C509 O537 1.412 . S
C509 H573 0.980 . S
C510 C511 1.288 . S
C510 C515 1.377 . S
C510 O537 1.393 . S
C511 C510 1.288 . S
C511 C512 1.369 . S
C511 H577 0.932 . S
C512 C511 1.369 . S
C512 C513 1.398 . S
C512 C516 1.527 . S
C513 C512 1.398 . S
C513 C514 1.380 . S
C513 C527 1.497 . S
C514 C513 1.380 . S
C514 C515 1.383 . S
C514 C517 1.603 . S
C515 C510 1.377 . S
C515 C514 1.383 . S
C515 H578 0.929 . S
C516 C512 1.527 . S
C516 H579 0.961 . S
C516 H580 0.959 . S
C516 H581 0.959 . S
C517 C514 1.603 . S
C517 H582 0.960 . S
C517 H583 0.962 . S
C517 H584 0.961 . S
C518 C485 1.587 . S
C518 C519 1.360 . S
C518 C531 1.412 . S
C519 C518 1.360 . S
C519 C520 1.365 . S
C519 H585 0.929 . S
C520 C495 1.553 . S
C520 C519 1.365 . S
C520 C521 1.404 . S
C521 C520 1.404 . S
C521 C522 1.395 . S
C521 C532 1.451 . S
C522 C521 1.395 . S
C522 C523 1.322 . S
C522 H586 0.930 . S
C523 C522 1.322 . S
C523 C524 1.459 . S
C523 H587 0.929 . S
C524 C523 1.459 . S
C524 C525 1.445 . S
C524 C533 1.395 . S
C525 C503 1.432 . S
C525 C524 1.445 . S
C525 C526 1.370 . S
C526 C525 1.370 . S
C526 C527 1.438 . S
C526 H588 0.930 . S
C527 C513 1.497 . S
C527 C526 1.438 . S
C527 C528 1.360 . S
C528 C527 1.360 . S
C528 C529 1.401 . S
C528 C533 1.446 . S
C529 C528 1.401 . S
C529 C530 1.347 . S
C529 H589 0.929 . S
C530 C529 1.347 . S
C530 C531 1.455 . S
C530 H590 0.930 . S
C531 C518 1.412 . S
C531 C530 1.455 . S
C531 C532 1.331 . S
C532 C521 1.451 . S
C532 C531 1.331 . S
C532 C533 1.497 . S
C533 C524 1.395 . S
C533 C528 1.446 . S
C533 C532 1.497 . S
C534 C535 1.582 . S
C534 H591 0.962 . S
C534 H592 0.959 . S
C534 H593 0.958 . S
C535 C534 1.582 . S
C535 O538 1.458 . S
C535 H564 0.980 . S
O536 C481 1.426 . S
O536 C482 1.334 . S
O537 C509 1.412 . S
O537 C510 1.393 . S
O538 C500 1.435 . S
O538 C535 1.458 . S
O539 C491 1.468 . S
O539 C492 1.408 . S
H540 C481 0.980 . S
H541 C480 0.959 . S
H542 C480 0.959 . S
H543 C480 0.960 . S
H544 C483 0.929 . S
H545 C487 0.929 . S
H546 C488 0.959 . S
H547 C488 0.961 . S
H548 C488 0.961 . S
H549 C489 0.960 . S
H550 C489 0.960 . S
H551 C489 0.961 . S
H552 C491 0.980 . S
H553 C490 0.961 . S
H554 C490 0.960 . S
H555 C490 0.959 . S
H556 C493 0.930 . S
H557 C497 0.931 . S
H558 C498 0.959 . S
H559 C498 0.961 . S
H560 C498 0.959 . S
H561 C499 0.960 . S
H562 C499 0.960 . S
H563 C499 0.960 . S
H564 C535 0.980 . S
H565 C501 0.930 . S
H566 C505 0.930 . S
H567 C506 0.961 . S
H568 C506 0.960 . S
H569 C506 0.958 . S
H570 C507 0.961 . S
H571 C507 0.960 . S
H572 C507 0.960 . S
H573 C509 0.980 . S
H574 C508 0.961 . S
H575 C508 0.961 . S
H576 C508 0.959 . S
H577 C511 0.932 . S
H578 C515 0.929 . S
H579 C516 0.961 . S
H580 C516 0.959 . S
H581 C516 0.959 . S
H582 C517 0.960 . S
H583 C517 0.962 . S
H584 C517 0.961 . S
H585 C519 0.929 . S
H586 C522 0.930 . S
H587 C523 0.929 . S
H588 C526 0.930 . S
H589 C529 0.929 . S
H590 C530 0.930 . S
H591 C534 0.962 . S
H592 C534 0.959 . S
H593 C534 0.958 . S
C594 C595 1.560 . S
C594 H655 0.959 . S
C594 H656 0.959 . S
C594 H657 0.960 . S
C595 C594 1.560 . S
C595 O650 1.426 . S
C595 H654 0.980 . S
C596 C597 1.407 . S
C596 C601 1.418 . S
C596 O650 1.334 . S
C597 C596 1.407 . S
C597 C598 1.360 . S
C597 H658 0.929 . S
C598 C597 1.360 . S
C598 C599 1.401 . S
C598 C602 1.527 . S
C599 C598 1.401 . S
C599 C600 1.405 . S
C599 C632 1.587 . S
C600 C599 1.405 . S
C600 C601 1.332 . S
C600 C603 1.496 . S
C601 C596 1.418 . S
C601 C600 1.332 . S
C601 H659 0.929 . S
C602 C598 1.527 . S
C602 H660 0.959 . S
C602 H661 0.961 . S
C602 H662 0.961 . S
C603 C600 1.496 . S
C603 H663 0.960 . S
C603 H664 0.960 . S
C603 H665 0.961 . S
C604 C605 1.517 . S
C604 H667 0.961 . S
C604 H668 0.960 . S
C604 H669 0.959 . S
C605 C604 1.517 . S
C605 O653 1.468 . S
C605 H666 0.980 . S
C606 C607 1.349 . S
C606 C611 1.367 . S
C606 O653 1.408 . S
C607 C606 1.349 . S
C607 C608 1.407 . S
C607 H670 0.930 . S
C608 C607 1.407 . S
C608 C609 1.449 . S
C608 C612 1.535 . S
C609 C608 1.449 . S
C609 C610 1.384 . S
C609 C634 1.553 . S
C610 C609 1.384 . S
C610 C611 1.364 . S
C610 C613 1.450 . S
C611 C606 1.367 . S
C611 C610 1.364 . S
C611 H671 0.931 . S
C612 C608 1.535 . S
C612 H672 0.959 . S
C612 H673 0.961 . S
C612 H674 0.959 . S
C613 C610 1.450 . S
C613 H675 0.960 . S
C613 H676 0.960 . S
C613 H677 0.960 . S
C614 C615 1.309 . S
C614 C619 1.304 . S
C614 O652 1.435 . S
C615 C614 1.309 . S
C615 C616 1.476 . S
C615 H679 0.930 . S
C616 C615 1.476 . S
C616 C617 1.400 . S
C616 C620 1.567 . S
C617 C616 1.400 . S
C617 C618 1.373 . S
C617 C639 1.432 . S
C618 C617 1.373 . S
C618 C619 1.339 . S
C618 C621 1.530 . S
C619 C614 1.304 . S
C619 C618 1.339 . S
C619 H680 0.930 . S
C620 C616 1.567 . S
C620 H681 0.961 . S
C620 H682 0.960 . S
C620 H683 0.958 . S
C621 C618 1.530 . S
C621 H684 0.961 . S
C621 H685 0.960 . S
C621 H686 0.960 . S
C622 C623 1.530 . S
C622 H688 0.961 . S
C622 H689 0.961 . S
C622 H690 0.959 . S
C623 C622 1.530 . S
C623 O651 1.412 . S
C623 H687 0.980 . S
C624 C625 1.288 . S
C624 C629 1.377 . S
C624 O651 1.393 . S
C625 C624 1.288 . S
C625 C626 1.369 . S
C625 H691 0.932 . S
C626 C625 1.369 . S
C626 C627 1.398 . S
C626 C630 1.527 . S
C627 C626 1.398 . S
C627 C628 1.380 . S
C627 C641 1.497 . S
C628 C627 1.380 . S
C628 C629 1.383 . S
C628 C631 1.603 . S
C629 C624 1.377 . S
C629 C628 1.383 . S
C629 H692 0.929 . S
C630 C626 1.527 . S
C630 H693 0.961 . S
C630 H694 0.959 . S
C630 H695 0.959 . S
C631 C628 1.603 . S
C631 H696 0.960 . S
C631 H697 0.962 . S
C631 H698 0.961 . S
C632 C599 1.587 . S
C632 C633 1.360 . S
C632 C645 1.412 . S
C633 C632 1.360 . S
C633 C634 1.365 . S
C633 H699 0.929 . S
C634 C609 1.553 . S
C634 C633 1.365 . S
C634 C635 1.404 . S
C635 C634 1.404 . S
C635 C636 1.395 . S
C635 C646 1.451 . S
C636 C635 1.395 . S
C636 C637 1.322 . S
C636 H700 0.930 . S
C637 C636 1.322 . S
C637 C638 1.459 . S
C637 H701 0.929 . S
C638 C637 1.459 . S
C638 C639 1.445 . S
C638 C647 1.395 . S
C639 C617 1.432 . S
C639 C638 1.445 . S
C639 C640 1.370 . S
C640 C639 1.370 . S
C640 C641 1.438 . S
C640 H702 0.930 . S
C641 C627 1.497 . S
C641 C640 1.438 . S
C641 C642 1.360 . S
C642 C641 1.360 . S
C642 C643 1.401 . S
C642 C647 1.446 . S
C643 C642 1.401 . S
C643 C644 1.347 . S
C643 H703 0.929 . S
C644 C643 1.347 . S
C644 C645 1.455 . S
C644 H704 0.930 . S
C645 C632 1.412 . S
C645 C644 1.455 . S
C645 C646 1.331 . S
C646 C635 1.451 . S
C646 C645 1.331 . S
C646 C647 1.497 . S
C647 C638 1.395 . S
C647 C642 1.446 . S
C647 C646 1.497 . S
C648 C649 1.582 . S
C648 H705 0.962 . S
C648 H706 0.959 . S
C648 H707 0.958 . S
C649 C648 1.582 . S
C649 O652 1.458 . S
C649 H678 0.980 . S
O650 C595 1.426 . S
O650 C596 1.334 . S
O651 C623 1.412 . S
O651 C624 1.393 . S
O652 C614 1.435 . S
O652 C649 1.458 . S
O653 C605 1.468 . S
O653 C606 1.408 . S
H654 C595 0.980 . S
H655 C594 0.959 . S
H656 C594 0.959 . S
H657 C594 0.960 . S
H658 C597 0.929 . S
H659 C601 0.929 . S
H660 C602 0.959 . S
H661 C602 0.961 . S
H662 C602 0.961 . S
H663 C603 0.960 . S
H664 C603 0.960 . S
H665 C603 0.961 . S
H666 C605 0.980 . S
H667 C604 0.961 . S
H668 C604 0.960 . S
H669 C604 0.959 . S
H670 C607 0.930 . S
H671 C611 0.931 . S
H672 C612 0.959 . S
H673 C612 0.961 . S
H674 C612 0.959 . S
H675 C613 0.960 . S
H676 C613 0.960 . S
H677 C613 0.960 . S
H678 C649 0.980 . S
H679 C615 0.930 . S
H680 C619 0.930 . S
H681 C620 0.961 . S
H682 C620 0.960 . S
H683 C620 0.958 . S
H684 C621 0.961 . S
H685 C621 0.960 . S
H686 C621 0.960 . S
H687 C623 0.980 . S
H688 C622 0.961 . S
H689 C622 0.961 . S
H690 C622 0.959 . S
H691 C625 0.932 . S
H692 C629 0.929 . S
H693 C630 0.961 . S
H694 C630 0.959 . S
H695 C630 0.959 . S
H696 C631 0.960 . S
H697 C631 0.962 . S
H698 C631 0.961 . S
H699 C633 0.929 . S
H700 C636 0.930 . S
H701 C637 0.929 . S
H702 C640 0.930 . S
H703 C643 0.929 . S
H704 C644 0.930 . S
H705 C648 0.962 . S
H706 C648 0.959 . S
H707 C648 0.958 . S
C708 C709 1.560 . S
C708 H769 0.959 . S
C708 H770 0.959 . S
C708 H771 0.960 . S
C709 C708 1.560 . S
C709 O764 1.426 . S
C709 H768 0.980 . S
C710 C711 1.407 . S
C710 C715 1.418 . S
C710 O764 1.334 . S
C711 C710 1.407 . S
C711 C712 1.360 . S
C711 H772 0.929 . S
C712 C711 1.360 . S
C712 C713 1.401 . S
C712 C716 1.527 . S
C713 C712 1.401 . S
C713 C714 1.405 . S
C713 C746 1.587 . S
C714 C713 1.405 . S
C714 C715 1.332 . S
C714 C717 1.496 . S
C715 C710 1.418 . S
C715 C714 1.332 . S
C715 H773 0.929 . S
C716 C712 1.527 . S
C716 H774 0.959 . S
C716 H775 0.961 . S
C716 H776 0.961 . S
C717 C714 1.496 . S
C717 H777 0.960 . S
C717 H778 0.960 . S
C717 H779 0.961 . S
C718 C719 1.517 . S
C718 H781 0.961 . S
C718 H782 0.960 . S
C718 H783 0.959 . S
C719 C718 1.517 . S
C719 O767 1.468 . S
C719 H780 0.980 . S
C720 C721 1.349 . S
C720 C725 1.367 . S
C720 O767 1.408 . S
C721 C720 1.349 . S
C721 C722 1.407 . S
C721 H784 0.930 . S
C722 C721 1.407 . S
C722 C723 1.449 . S
C722 C726 1.535 . S
C723 C722 1.449 . S
C723 C724 1.384 . S
C723 C748 1.553 . S
C724 C723 1.384 . S
C724 C725 1.364 . S
C724 C727 1.450 . S
C725 C720 1.367 . S
C725 C724 1.364 . S
C725 H785 0.931 . S
C726 C722 1.535 . S
C726 H786 0.959 . S
C726 H787 0.961 . S
C726 H788 0.959 . S
C727 C724 1.450 . S
C727 H789 0.960 . S
C727 H790 0.960 . S
C727 H791 0.960 . S
C728 C729 1.309 . S
C728 C733 1.304 . S
C728 O766 1.435 . S
C729 C728 1.309 . S
C729 C730 1.476 . S
C729 H793 0.930 . S
C730 C729 1.476 . S
C730 C731 1.400 . S
C730 C734 1.567 . S
C731 C730 1.400 . S
C731 C732 1.373 . S
C731 C753 1.432 . S
C732 C731 1.373 . S
C732 C733 1.339 . S
C732 C735 1.530 . S
C733 C728 1.304 . S
C733 C732 1.339 . S
C733 H794 0.930 . S
C734 C730 1.567 . S
C734 H795 0.961 . S
C734 H796 0.960 . S
C734 H797 0.958 . S
C735 C732 1.530 . S
C735 H798 0.961 . S
C735 H799 0.960 . S
C735 H800 0.960 . S
C736 C737 1.530 . S
C736 H802 0.961 . S
C736 H803 0.961 . S
C736 H804 0.959 . S
C737 C736 1.530 . S
C737 O765 1.412 . S
C737 H801 0.980 . S
C738 C739 1.288 . S
C738 C743 1.377 . S
C738 O765 1.393 . S
C739 C738 1.288 . S
C739 C740 1.369 . S
C739 H805 0.932 . S
C740 C739 1.369 . S
C740 C741 1.398 . S
C740 C744 1.527 . S
C741 C740 1.398 . S
C741 C742 1.380 . S
C741 C755 1.497 . S
C742 C741 1.380 . S
C742 C743 1.383 . S
C742 C745 1.603 . S
C743 C738 1.377 . S
C743 C742 1.383 . S
C743 H806 0.929 . S
C744 C740 1.527 . S
C744 H807 0.961 . S
C744 H808 0.959 . S
C744 H809 0.959 . S
C745 C742 1.603 . S
C745 H810 0.960 . S
C745 H811 0.962 . S
C745 H812 0.961 . S
C746 C713 1.587 . S
C746 C747 1.360 . S
C746 C759 1.412 . S
C747 C746 1.360 . S
C747 C748 1.365 . S
C747 H813 0.929 . S
C748 C723 1.553 . S
C748 C747 1.365 . S
C748 C749 1.404 . S
C749 C748 1.404 . S
C749 C750 1.395 . S
C749 C760 1.451 . S
C750 C749 1.395 . S
C750 C751 1.322 . S
C750 H814 0.930 . S
C751 C750 1.322 . S
C751 C752 1.459 . S
C751 H815 0.929 . S
C752 C751 1.459 . S
C752 C753 1.445 . S
C752 C761 1.395 . S
C753 C731 1.432 . S
C753 C752 1.445 . S
C753 C754 1.370 . S
C754 C753 1.370 . S
C754 C755 1.438 . S
C754 H816 0.930 . S
C755 C741 1.497 . S
C755 C754 1.438 . S
C755 C756 1.360 . S
C756 C755 1.360 . S
C756 C757 1.401 . S
C756 C761 1.446 . S
C757 C756 1.401 . S
C757 C758 1.347 . S
C757 H817 0.929 . S
C758 C757 1.347 . S
C758 C759 1.455 . S
C758 H818 0.930 . S
C759 C746 1.412 . S
C759 C758 1.455 . S
C759 C760 1.331 . S
C760 C749 1.451 . S
C760 C759 1.331 . S
C760 C761 1.497 . S
C761 C752 1.395 . S
C761 C756 1.446 . S
C761 C760 1.497 . S
C762 C763 1.582 . S
C762 H819 0.962 . S
C762 H820 0.959 . S
C762 H821 0.958 . S
C763 C762 1.582 . S
C763 O766 1.458 . S
C763 H792 0.980 . S
O764 C709 1.426 . S
O764 C710 1.334 . S
O765 C737 1.412 . S
O765 C738 1.393 . S
O766 C728 1.435 . S
O766 C763 1.458 . S
O767 C719 1.468 . S
O767 C720 1.408 . S
H768 C709 0.980 . S
H769 C708 0.959 . S
H770 C708 0.959 . S
H771 C708 0.960 . S
H772 C711 0.929 . S
H773 C715 0.929 . S
H774 C716 0.959 . S
H775 C716 0.961 . S
H776 C716 0.961 . S
H777 C717 0.960 . S
H778 C717 0.960 . S
H779 C717 0.961 . S
H780 C719 0.980 . S
H781 C718 0.961 . S
H782 C718 0.960 . S
H783 C718 0.959 . S
H784 C721 0.930 . S
H785 C725 0.931 . S
H786 C726 0.959 . S
H787 C726 0.961 . S
H788 C726 0.959 . S
H789 C727 0.960 . S
H790 C727 0.960 . S
H791 C727 0.960 . S
H792 C763 0.980 . S
H793 C729 0.930 . S
H794 C733 0.930 . S
H795 C734 0.961 . S
H796 C734 0.960 . S
H797 C734 0.958 . S
H798 C735 0.961 . S
H799 C735 0.960 . S
H800 C735 0.960 . S
H801 C737 0.980 . S
H802 C736 0.961 . S
H803 C736 0.961 . S
H804 C736 0.959 . S
H805 C739 0.932 . S
H806 C743 0.929 . S
H807 C744 0.961 . S
H808 C744 0.959 . S
H809 C744 0.959 . S
H810 C745 0.960 . S
H811 C745 0.962 . S
H812 C745 0.961 . S
H813 C747 0.929 . S
H814 C750 0.930 . S
H815 C751 0.929 . S
H816 C754 0.930 . S
H817 C757 0.929 . S
H818 C758 0.930 . S
H819 C762 0.962 . S
H820 C762 0.959 . S
H821 C762 0.958 . S
C822 C823 1.560 . S
C822 H883 0.959 . S
C822 H884 0.959 . S
C822 H885 0.960 . S
C823 C822 1.560 . S
C823 O878 1.426 . S
C823 H882 0.980 . S
C824 C825 1.407 . S
C824 C829 1.418 . S
C824 O878 1.334 . S
C825 C824 1.407 . S
C825 C826 1.360 . S
C825 H886 0.929 . S
C826 C825 1.360 . S
C826 C827 1.401 . S
C826 C830 1.527 . S
C827 C826 1.401 . S
C827 C828 1.405 . S
C827 C860 1.587 . S
C828 C827 1.405 . S
C828 C829 1.332 . S
C828 C831 1.496 . S
C829 C824 1.418 . S
C829 C828 1.332 . S
C829 H887 0.929 . S
C830 C826 1.527 . S
C830 H888 0.959 . S
C830 H889 0.961 . S
C830 H890 0.961 . S
C831 C828 1.496 . S
C831 H891 0.960 . S
C831 H892 0.960 . S
C831 H893 0.961 . S
C832 C833 1.517 . S
C832 H895 0.961 . S
C832 H896 0.960 . S
C832 H897 0.959 . S
C833 C832 1.517 . S
C833 O881 1.468 . S
C833 H894 0.980 . S
C834 C835 1.349 . S
C834 C839 1.367 . S
C834 O881 1.408 . S
C835 C834 1.349 . S
C835 C836 1.407 . S
C835 H898 0.930 . S
C836 C835 1.407 . S
C836 C837 1.449 . S
C836 C840 1.535 . S
C837 C836 1.449 . S
C837 C838 1.384 . S
C837 C862 1.553 . S
C838 C837 1.384 . S
C838 C839 1.364 . S
C838 C841 1.450 . S
C839 C834 1.367 . S
C839 C838 1.364 . S
C839 H899 0.931 . S
C840 C836 1.535 . S
C840 H900 0.959 . S
C840 H901 0.961 . S
C840 H902 0.959 . S
C841 C838 1.450 . S
C841 H903 0.960 . S
C841 H904 0.960 . S
C841 H905 0.960 . S
C842 C843 1.309 . S
C842 C847 1.304 . S
C842 O880 1.435 . S
C843 C842 1.309 . S
C843 C844 1.476 . S
C843 H907 0.930 . S
C844 C843 1.476 . S
C844 C845 1.400 . S
C844 C848 1.567 . S
C845 C844 1.400 . S
C845 C846 1.373 . S
C845 C867 1.432 . S
C846 C845 1.373 . S
C846 C847 1.339 . S
C846 C849 1.530 . S
C847 C842 1.304 . S
C847 C846 1.339 . S
C847 H908 0.930 . S
C848 C844 1.567 . S
C848 H909 0.961 . S
C848 H910 0.960 . S
C848 H911 0.958 . S
C849 C846 1.530 . S
C849 H912 0.961 . S
C849 H913 0.960 . S
C849 H914 0.960 . S
C850 C851 1.530 . S
C850 H916 0.961 . S
C850 H917 0.961 . S
C850 H918 0.959 . S
C851 C850 1.530 . S
C851 O879 1.412 . S
C851 H915 0.980 . S
C852 C853 1.288 . S
C852 C857 1.377 . S
C852 O879 1.393 . S
C853 C852 1.288 . S
C853 C854 1.369 . S
C853 H919 0.932 . S
C854 C853 1.369 . S
C854 C855 1.398 . S
C854 C858 1.527 . S
C855 C854 1.398 . S
C855 C856 1.380 . S
C855 C869 1.497 . S
C856 C855 1.380 . S
C856 C857 1.383 . S
C856 C859 1.603 . S
C857 C852 1.377 . S
C857 C856 1.383 . S
C857 H920 0.929 . S
C858 C854 1.527 . S
C858 H921 0.961 . S
C858 H922 0.959 . S
C858 H923 0.959 . S
C859 C856 1.603 . S
C859 H924 0.960 . S
C859 H925 0.962 . S
C859 H926 0.961 . S
C860 C827 1.587 . S
C860 C861 1.360 . S
C860 C873 1.412 . S
C861 C860 1.360 . S
C861 C862 1.365 . S
C861 H927 0.929 . S
C862 C837 1.553 . S
C862 C861 1.365 . S
C862 C863 1.404 . S
C863 C862 1.404 . S
C863 C864 1.395 . S
C863 C874 1.451 . S
C864 C863 1.395 . S
C864 C865 1.322 . S
C864 H928 0.930 . S
C865 C864 1.322 . S
C865 C866 1.459 . S
C865 H929 0.929 . S
C866 C865 1.459 . S
C866 C867 1.445 . S
C866 C875 1.395 . S
C867 C845 1.432 . S
C867 C866 1.445 . S
C867 C868 1.370 . S
C868 C867 1.370 . S
C868 C869 1.438 . S
C868 H930 0.930 . S
C869 C855 1.497 . S
C869 C868 1.438 . S
C869 C870 1.360 . S
C870 C869 1.360 . S
C870 C871 1.401 . S
C870 C875 1.446 . S
C871 C870 1.401 . S
C871 C872 1.347 . S
C871 H931 0.929 . S
C872 C871 1.347 . S
C872 C873 1.455 . S
C872 H932 0.930 . S
C873 C860 1.412 . S
C873 C872 1.455 . S
C873 C874 1.331 . S
C874 C863 1.451 . S
C874 C873 1.331 . S
C874 C875 1.497 . S
C875 C866 1.395 . S
C875 C870 1.446 . S
C875 C874 1.497 . S
C876 C877 1.582 . S
C876 H933 0.962 . S
C876 H934 0.959 . S
C876 H935 0.958 . S
C877 C876 1.582 . S
C877 O880 1.458 . S
C877 H906 0.980 . S
O878 C823 1.426 . S
O878 C824 1.334 . S
O879 C851 1.412 . S
O879 C852 1.393 . S
O880 C842 1.435 . S
O880 C877 1.458 . S
O881 C833 1.468 . S
O881 C834 1.408 . S
H882 C823 0.980 . S
H883 C822 0.959 . S
H884 C822 0.959 . S
H885 C822 0.960 . S
H886 C825 0.929 . S
H887 C829 0.929 . S
H888 C830 0.959 . S
H889 C830 0.961 . S
H890 C830 0.961 . S
H891 C831 0.960 . S
H892 C831 0.960 . S
H893 C831 0.961 . S
H894 C833 0.980 . S
H895 C832 0.961 . S
H896 C832 0.960 . S
H897 C832 0.959 . S
H898 C835 0.930 . S
H899 C839 0.931 . S
H900 C840 0.959 . S
H901 C840 0.961 . S
H902 C840 0.959 . S
H903 C841 0.960 . S
H904 C841 0.960 . S
H905 C841 0.960 . S
H906 C877 0.980 . S
H907 C843 0.930 . S
H908 C847 0.930 . S
H909 C848 0.961 . S
H910 C848 0.960 . S
H911 C848 0.958 . S
H912 C849 0.961 . S
H913 C849 0.960 . S
H914 C849 0.960 . S
H915 C851 0.980 . S
H916 C850 0.961 . S
H917 C850 0.961 . S
H918 C850 0.959 . S
H919 C853 0.932 . S
H920 C857 0.929 . S
H921 C858 0.961 . S
H922 C858 0.959 . S
H923 C858 0.959 . S
H924 C859 0.960 . S
H925 C859 0.962 . S
H926 C859 0.961 . S
H927 C861 0.929 . S
H928 C864 0.930 . S
H929 C865 0.929 . S
H930 C868 0.930 . S
H931 C871 0.929 . S
H932 C872 0.930 . S
H933 C876 0.962 . S
H934 C876 0.959 . S
H935 C876 0.958 . S
C936 C937 1.560 . S
C936 H997 0.959 . S
C936 H998 0.959 . S
C936 H999 0.960 . S
C937 C936 1.560 . S
C937 O992 1.426 . S
C937 H996 0.980 . S
C938 C939 1.407 . S
C938 C943 1.418 . S
C938 O992 1.334 . S
C939 C938 1.407 . S
C939 C940 1.360 . S
C939 H1000 0.929 . S
C940 C939 1.360 . S
C940 C941 1.401 . S
C940 C944 1.527 . S
C941 C940 1.401 . S
C941 C942 1.405 . S
C941 C974 1.587 . S
C942 C941 1.405 . S
C942 C943 1.332 . S
C942 C945 1.496 . S
C943 C938 1.418 . S
C943 C942 1.332 . S
C943 H1001 0.929 . S
C944 C940 1.527 . S
C944 H1002 0.959 . S
C944 H1003 0.961 . S
C944 H1004 0.961 . S
C945 C942 1.496 . S
C945 H1005 0.960 . S
C945 H1006 0.960 . S
C945 H1007 0.961 . S
C946 C947 1.517 . S
C946 H1009 0.961 . S
C946 H1010 0.960 . S
C946 H1011 0.959 . S
C947 C946 1.517 . S
C947 O995 1.468 . S
C947 H1008 0.980 . S
C948 C949 1.349 . S
C948 C953 1.367 . S
C948 O995 1.408 . S
C949 C948 1.349 . S
C949 C950 1.407 . S
C949 H1012 0.930 . S
C950 C949 1.407 . S
C950 C951 1.449 . S
C950 C954 1.535 . S
C951 C950 1.449 . S
C951 C952 1.384 . S
C951 C976 1.553 . S
C952 C951 1.384 . S
C952 C953 1.364 . S
C952 C955 1.450 . S
C953 C948 1.367 . S
C953 C952 1.364 . S
C953 H1013 0.931 . S
C954 C950 1.535 . S
C954 H1014 0.959 . S
C954 H1015 0.961 . S
C954 H1016 0.959 . S
C955 C952 1.450 . S
C955 H1017 0.960 . S
C955 H1018 0.960 . S
C955 H1019 0.960 . S
C956 C957 1.309 . S
C956 C961 1.304 . S
C956 O994 1.435 . S
C957 C956 1.309 . S
C957 C958 1.476 . S
C957 H1021 0.930 . S
C958 C957 1.476 . S
C958 C959 1.400 . S
C958 C962 1.567 . S
C959 C958 1.400 . S
C959 C960 1.373 . S
C959 C981 1.432 . S
C960 C959 1.373 . S
C960 C961 1.339 . S
C960 C963 1.530 . S
C961 C956 1.304 . S
C961 C960 1.339 . S
C961 H1022 0.930 . S
C962 C958 1.567 . S
C962 H1023 0.961 . S
C962 H1024 0.960 . S
C962 H1025 0.958 . S
C963 C960 1.530 . S
C963 H1026 0.961 . S
C963 H1027 0.960 . S
C963 H1028 0.960 . S
C964 C965 1.530 . S
C964 H1030 0.961 . S
C964 H1031 0.961 . S
C964 H1032 0.959 . S
C965 C964 1.530 . S
C965 O993 1.412 . S
C965 H1029 0.980 . S
C966 C967 1.288 . S
C966 C971 1.377 . S
C966 O993 1.393 . S
C967 C966 1.288 . S
C967 C968 1.369 . S
C967 H1033 0.932 . S
C968 C967 1.369 . S
C968 C969 1.398 . S
C968 C972 1.527 . S
C969 C968 1.398 . S
C969 C970 1.380 . S
C969 C983 1.497 . S
C970 C969 1.380 . S
C970 C971 1.383 . S
C970 C973 1.603 . S
C971 C966 1.377 . S
C971 C970 1.383 . S
C971 H1034 0.929 . S
C972 C968 1.527 . S
C972 H1035 0.961 . S
C972 H1036 0.959 . S
C972 H1037 0.959 . S
C973 C970 1.603 . S
C973 H1038 0.960 . S
C973 H1039 0.962 . S
C973 H1040 0.961 . S
C974 C941 1.587 . S
C974 C975 1.360 . S
C974 C987 1.412 . S
C975 C974 1.360 . S
C975 C976 1.365 . S
C975 H1041 0.929 . S
C976 C951 1.553 . S
C976 C975 1.365 . S
C976 C977 1.404 . S
C977 C976 1.404 . S
C977 C978 1.395 . S
C977 C988 1.451 . S
C978 C977 1.395 . S
C978 C979 1.322 . S
C978 H1042 0.930 . S
C979 C978 1.322 . S
C979 C980 1.459 . S
C979 H1043 0.929 . S
C980 C979 1.459 . S
C980 C981 1.445 . S
C980 C989 1.395 . S
C981 C959 1.432 . S
C981 C980 1.445 . S
C981 C982 1.370 . S
C982 C981 1.370 . S
C982 C983 1.438 . S
C982 H1044 0.930 . S
C983 C969 1.497 . S
C983 C982 1.438 . S
C983 C984 1.360 . S
C984 C983 1.360 . S
C984 C985 1.401 . S
C984 C989 1.446 . S
C985 C984 1.401 . S
C985 C986 1.347 . S
C985 H1045 0.929 . S
C986 C985 1.347 . S
C986 C987 1.455 . S
C986 H1046 0.930 . S
C987 C974 1.412 . S
C987 C986 1.455 . S
C987 C988 1.331 . S
C988 C977 1.451 . S
C988 C987 1.331 . S
C988 C989 1.497 . S
C989 C980 1.395 . S
C989 C984 1.446 . S
C989 C988 1.497 . S
C990 C991 1.582 . S
C990 H1047 0.962 . S
C990 H1048 0.959 . S
C990 H1049 0.958 . S
C991 C990 1.582 . S
C991 O994 1.458 . S
C991 H1020 0.980 . S
O992 C937 1.426 . S
O992 C938 1.334 . S
O993 C965 1.412 . S
O993 C966 1.393 . S
O994 C956 1.435 . S
O994 C991 1.458 . S
O995 C947 1.468 . S
O995 C948 1.408 . S
H996 C937 0.980 . S
H997 C936 0.959 . S
H998 C936 0.959 . S
H999 C936 0.960 . S
H1000 C939 0.929 . S
H1001 C943 0.929 . S
H1002 C944 0.959 . S
H1003 C944 0.961 . S
H1004 C944 0.961 . S
H1005 C945 0.960 . S
H1006 C945 0.960 . S
H1007 C945 0.961 . S
H1008 C947 0.980 . S
H1009 C946 0.961 . S
H1010 C946 0.960 . S
H1011 C946 0.959 . S
H1012 C949 0.930 . S
H1013 C953 0.931 . S
H1014 C954 0.959 . S
H1015 C954 0.961 . S
H1016 C954 0.959 . S
H1017 C955 0.960 . S
H1018 C955 0.960 . S
H1019 C955 0.960 . S
H1020 C991 0.980 . S
H1021 C957 0.930 . S
H1022 C961 0.930 . S
H1023 C962 0.961 . S
H1024 C962 0.960 . S
H1025 C962 0.958 . S
H1026 C963 0.961 . S
H1027 C963 0.960 . S
H1028 C963 0.960 . S
H1029 C965 0.980 . S
H1030 C964 0.961 . S
H1031 C964 0.961 . S
H1032 C964 0.959 . S
H1033 C967 0.932 . S
H1034 C971 0.929 . S
H1035 C972 0.961 . S
H1036 C972 0.959 . S
H1037 C972 0.959 . S
H1038 C973 0.960 . S
H1039 C973 0.962 . S
H1040 C973 0.961 . S
H1041 C975 0.929 . S
H1042 C978 0.930 . S
H1043 C979 0.929 . S
H1044 C982 0.930 . S
H1045 C985 0.929 . S
H1046 C986 0.930 . S
H1047 C990 0.962 . S
H1048 C990 0.959 . S
H1049 C990 0.958 . S
C1050 C1051 1.560 . S
C1050 H1111 0.959 . S
C1050 H1112 0.959 . S
C1050 H1113 0.960 . S
C1051 C1050 1.560 . S
C1051 O1106 1.426 . S
C1051 H1110 0.980 . S
C1052 C1053 1.407 . S
C1052 C1057 1.418 . S
C1052 O1106 1.334 . S
C1053 C1052 1.407 . S
C1053 C1054 1.360 . S
C1053 H1114 0.929 . S
C1054 C1053 1.360 . S
C1054 C1055 1.401 . S
C1054 C1058 1.527 . S
C1055 C1054 1.401 . S
C1055 C1056 1.405 . S
C1055 C1088 1.587 . S
C1056 C1055 1.405 . S
C1056 C1057 1.332 . S
C1056 C1059 1.496 . S
C1057 C1052 1.418 . S
C1057 C1056 1.332 . S
C1057 H1115 0.929 . S
C1058 C1054 1.527 . S
C1058 H1116 0.959 . S
C1058 H1117 0.961 . S
C1058 H1118 0.961 . S
C1059 C1056 1.496 . S
C1059 H1119 0.960 . S
C1059 H1120 0.960 . S
C1059 H1121 0.961 . S
C1060 C1061 1.517 . S
C1060 H1123 0.961 . S
C1060 H1124 0.960 . S
C1060 H1125 0.959 . S
C1061 C1060 1.517 . S
C1061 O1109 1.468 . S
C1061 H1122 0.980 . S
C1062 C1063 1.349 . S
C1062 C1067 1.367 . S
C1062 O1109 1.408 . S
C1063 C1062 1.349 . S
C1063 C1064 1.407 . S
C1063 H1126 0.930 . S
C1064 C1063 1.407 . S
C1064 C1065 1.449 . S
C1064 C1068 1.535 . S
C1065 C1064 1.449 . S
C1065 C1066 1.384 . S
C1065 C1090 1.553 . S
C1066 C1065 1.384 . S
C1066 C1067 1.364 . S
C1066 C1069 1.450 . S
C1067 C1062 1.367 . S
C1067 C1066 1.364 . S
C1067 H1127 0.931 . S
C1068 C1064 1.535 . S
C1068 H1128 0.959 . S
C1068 H1129 0.961 . S
C1068 H1130 0.959 . S
C1069 C1066 1.450 . S
C1069 H1131 0.960 . S
C1069 H1132 0.960 . S
C1069 H1133 0.960 . S
C1070 C1071 1.309 . S
C1070 C1075 1.304 . S
C1070 O1108 1.435 . S
C1071 C1070 1.309 . S
C1071 C1072 1.476 . S
C1071 H1135 0.930 . S
C1072 C1071 1.476 . S
C1072 C1073 1.400 . S
C1072 C1076 1.567 . S
C1073 C1072 1.400 . S
C1073 C1074 1.373 . S
C1073 C1095 1.432 . S
C1074 C1073 1.373 . S
C1074 C1075 1.339 . S
C1074 C1077 1.530 . S
C1075 C1070 1.304 . S
C1075 C1074 1.339 . S
C1075 H1136 0.930 . S
C1076 C1072 1.567 . S
C1076 H1137 0.961 . S
C1076 H1138 0.960 . S
C1076 H1139 0.958 . S
C1077 C1074 1.530 . S
C1077 H1140 0.961 . S
C1077 H1141 0.960 . S
C1077 H1142 0.960 . S
C1078 C1079 1.530 . S
C1078 H1144 0.961 . S
C1078 H1145 0.961 . S
C1078 H1146 0.959 . S
C1079 C1078 1.530 . S
C1079 O1107 1.412 . S
C1079 H1143 0.980 . S
C1080 C1081 1.288 . S
C1080 C1085 1.377 . S
C1080 O1107 1.393 . S
C1081 C1080 1.288 . S
C1081 C1082 1.369 . S
C1081 H1147 0.932 . S
C1082 C1081 1.369 . S
C1082 C1083 1.398 . S
C1082 C1086 1.527 . S
C1083 C1082 1.398 . S
C1083 C1084 1.380 . S
C1083 C1097 1.497 . S
C1084 C1083 1.380 . S
C1084 C1085 1.383 . S
C1084 C1087 1.603 . S
C1085 C1080 1.377 . S
C1085 C1084 1.383 . S
C1085 H1148 0.929 . S
C1086 C1082 1.527 . S
C1086 H1149 0.961 . S
C1086 H1150 0.959 . S
C1086 H1151 0.959 . S
C1087 C1084 1.603 . S
C1087 H1152 0.960 . S
C1087 H1153 0.962 . S
C1087 H1154 0.961 . S
C1088 C1055 1.587 . S
C1088 C1089 1.360 . S
C1088 C1101 1.412 . S
C1089 C1088 1.360 . S
C1089 C1090 1.365 . S
C1089 H1155 0.929 . S
C1090 C1065 1.553 . S
C1090 C1089 1.365 . S
C1090 C1091 1.404 . S
C1091 C1090 1.404 . S
C1091 C1092 1.395 . S
C1091 C1102 1.451 . S
C1092 C1091 1.395 . S
C1092 C1093 1.322 . S
C1092 H1156 0.930 . S
C1093 C1092 1.322 . S
C1093 C1094 1.459 . S
C1093 H1157 0.929 . S
C1094 C1093 1.459 . S
C1094 C1095 1.445 . S
C1094 C1103 1.395 . S
C1095 C1073 1.432 . S
C1095 C1094 1.445 . S
C1095 C1096 1.370 . S
C1096 C1095 1.370 . S
C1096 C1097 1.438 . S
C1096 H1158 0.930 . S
C1097 C1083 1.497 . S
C1097 C1096 1.438 . S
C1097 C1098 1.360 . S
C1098 C1097 1.360 . S
C1098 C1099 1.401 . S
C1098 C1103 1.446 . S
C1099 C1098 1.401 . S
C1099 C1100 1.347 . S
C1099 H1159 0.929 . S
C1100 C1099 1.347 . S
C1100 C1101 1.455 . S
C1100 H1160 0.930 . S
C1101 C1088 1.412 . S
C1101 C1100 1.455 . S
C1101 C1102 1.331 . S
C1102 C1091 1.451 . S
C1102 C1101 1.331 . S
C1102 C1103 1.497 . S
C1103 C1094 1.395 . S
C1103 C1098 1.446 . S
C1103 C1102 1.497 . S
C1104 C1105 1.582 . S
C1104 H1161 0.962 . S
C1104 H1162 0.959 . S
C1104 H1163 0.958 . S
C1105 C1104 1.582 . S
C1105 O1108 1.458 . S
C1105 H1134 0.980 . S
O1106 C1051 1.426 . S
O1106 C1052 1.334 . S
O1107 C1079 1.412 . S
O1107 C1080 1.393 . S
O1108 C1070 1.435 . S
O1108 C1105 1.458 . S
O1109 C1061 1.468 . S
O1109 C1062 1.408 . S
H1110 C1051 0.980 . S
H1111 C1050 0.959 . S
H1112 C1050 0.959 . S
H1113 C1050 0.960 . S
H1114 C1053 0.929 . S
H1115 C1057 0.929 . S
H1116 C1058 0.959 . S
H1117 C1058 0.961 . S
H1118 C1058 0.961 . S
H1119 C1059 0.960 . S
H1120 C1059 0.960 . S
H1121 C1059 0.961 . S
H1122 C1061 0.980 . S
H1123 C1060 0.961 . S
H1124 C1060 0.960 . S
H1125 C1060 0.959 . S
H1126 C1063 0.930 . S
H1127 C1067 0.931 . S
H1128 C1068 0.959 . S
H1129 C1068 0.961 . S
H1130 C1068 0.959 . S
H1131 C1069 0.960 . S
H1132 C1069 0.960 . S
H1133 C1069 0.960 . S
H1134 C1105 0.980 . S
H1135 C1071 0.930 . S
H1136 C1075 0.930 . S
H1137 C1076 0.961 . S
H1138 C1076 0.960 . S
H1139 C1076 0.958 . S
H1140 C1077 0.961 . S
H1141 C1077 0.960 . S
H1142 C1077 0.960 . S
H1143 C1079 0.980 . S
H1144 C1078 0.961 . S
H1145 C1078 0.961 . S
H1146 C1078 0.959 . S
H1147 C1081 0.932 . S
H1148 C1085 0.929 . S
H1149 C1086 0.961 . S
H1150 C1086 0.959 . S
H1151 C1086 0.959 . S
H1152 C1087 0.960 . S
H1153 C1087 0.962 . S
H1154 C1087 0.961 . S
H1155 C1089 0.929 . S
H1156 C1092 0.930 . S
H1157 C1093 0.929 . S
H1158 C1096 0.930 . S
H1159 C1099 0.929 . S
H1160 C1100 0.930 . S
H1161 C1104 0.962 . S
H1162 C1104 0.959 . S
H1163 C1104 0.958 . S
C1164 C1165 1.560 . S
C1164 H1225 0.959 . S
C1164 H1226 0.959 . S
C1164 H1227 0.960 . S
C1165 C1164 1.560 . S
C1165 O1220 1.426 . S
C1165 H1224 0.980 . S
C1166 C1167 1.407 . S
C1166 C1171 1.418 . S
C1166 O1220 1.334 . S
C1167 C1166 1.407 . S
C1167 C1168 1.360 . S
C1167 H1228 0.929 . S
C1168 C1167 1.360 . S
C1168 C1169 1.401 . S
C1168 C1172 1.527 . S
C1169 C1168 1.401 . S
C1169 C1170 1.405 . S
C1169 C1202 1.587 . S
C1170 C1169 1.405 . S
C1170 C1171 1.332 . S
C1170 C1173 1.496 . S
C1171 C1166 1.418 . S
C1171 C1170 1.332 . S
C1171 H1229 0.929 . S
C1172 C1168 1.527 . S
C1172 H1230 0.959 . S
C1172 H1231 0.961 . S
C1172 H1232 0.961 . S
C1173 C1170 1.496 . S
C1173 H1233 0.960 . S
C1173 H1234 0.960 . S
C1173 H1235 0.961 . S
C1174 C1175 1.517 . S
C1174 H1237 0.961 . S
C1174 H1238 0.960 . S
C1174 H1239 0.959 . S
C1175 C1174 1.517 . S
C1175 O1223 1.468 . S
C1175 H1236 0.980 . S
C1176 C1177 1.349 . S
C1176 C1181 1.367 . S
C1176 O1223 1.408 . S
C1177 C1176 1.349 . S
C1177 C1178 1.407 . S
C1177 H1240 0.930 . S
C1178 C1177 1.407 . S
C1178 C1179 1.449 . S
C1178 C1182 1.535 . S
C1179 C1178 1.449 . S
C1179 C1180 1.384 . S
C1179 C1204 1.553 . S
C1180 C1179 1.384 . S
C1180 C1181 1.364 . S
C1180 C1183 1.450 . S
C1181 C1176 1.367 . S
C1181 C1180 1.364 . S
C1181 H1241 0.931 . S
C1182 C1178 1.535 . S
C1182 H1242 0.959 . S
C1182 H1243 0.961 . S
C1182 H1244 0.959 . S
C1183 C1180 1.450 . S
C1183 H1245 0.960 . S
C1183 H1246 0.960 . S
C1183 H1247 0.960 . S
C1184 C1185 1.309 . S
C1184 C1189 1.304 . S
C1184 O1222 1.435 . S
C1185 C1184 1.309 . S
C1185 C1186 1.476 . S
C1185 H1249 0.930 . S
C1186 C1185 1.476 . S
C1186 C1187 1.400 . S
C1186 C1190 1.567 . S
C1187 C1186 1.400 . S
C1187 C1188 1.373 . S
C1187 C1209 1.432 . S
C1188 C1187 1.373 . S
C1188 C1189 1.339 . S
C1188 C1191 1.530 . S
C1189 C1184 1.304 . S
C1189 C1188 1.339 . S
C1189 H1250 0.930 . S
C1190 C1186 1.567 . S
C1190 H1251 0.961 . S
C1190 H1252 0.960 . S
C1190 H1253 0.958 . S
C1191 C1188 1.530 . S
C1191 H1254 0.961 . S
C1191 H1255 0.960 . S
C1191 H1256 0.960 . S
C1192 C1193 1.530 . S
C1192 H1258 0.961 . S
C1192 H1259 0.961 . S
C1192 H1260 0.959 . S
C1193 C1192 1.530 . S
C1193 O1221 1.412 . S
C1193 H1257 0.980 . S
C1194 C1195 1.288 . S
C1194 C1199 1.377 . S
C1194 O1221 1.393 . S
C1195 C1194 1.288 . S
C1195 C1196 1.369 . S
C1195 H1261 0.932 . S
C1196 C1195 1.369 . S
C1196 C1197 1.398 . S
C1196 C1200 1.527 . S
C1197 C1196 1.398 . S
C1197 C1198 1.380 . S
C1197 C1211 1.497 . S
C1198 C1197 1.380 . S
C1198 C1199 1.383 . S
C1198 C1201 1.603 . S
C1199 C1194 1.377 . S
C1199 C1198 1.383 . S
C1199 H1262 0.929 . S
C1200 C1196 1.527 . S
C1200 H1263 0.961 . S
C1200 H1264 0.959 . S
C1200 H1265 0.959 . S
C1201 C1198 1.603 . S
C1201 H1266 0.960 . S
C1201 H1267 0.962 . S
C1201 H1268 0.961 . S
C1202 C1169 1.587 . S
C1202 C1203 1.360 . S
C1202 C1215 1.412 . S
C1203 C1202 1.360 . S
C1203 C1204 1.365 . S
C1203 H1269 0.929 . S
C1204 C1179 1.553 . S
C1204 C1203 1.365 . S
C1204 C1205 1.404 . S
C1205 C1204 1.404 . S
C1205 C1206 1.395 . S
C1205 C1216 1.451 . S
C1206 C1205 1.395 . S
C1206 C1207 1.322 . S
C1206 H1270 0.930 . S
C1207 C1206 1.322 . S
C1207 C1208 1.459 . S
C1207 H1271 0.929 . S
C1208 C1207 1.459 . S
C1208 C1209 1.445 . S
C1208 C1217 1.395 . S
C1209 C1187 1.432 . S
C1209 C1208 1.445 . S
C1209 C1210 1.370 . S
C1210 C1209 1.370 . S
C1210 C1211 1.438 . S
C1210 H1272 0.930 . S
C1211 C1197 1.497 . S
C1211 C1210 1.438 . S
C1211 C1212 1.360 . S
C1212 C1211 1.360 . S
C1212 C1213 1.401 . S
C1212 C1217 1.446 . S
C1213 C1212 1.401 . S
C1213 C1214 1.347 . S
C1213 H1273 0.929 . S
C1214 C1213 1.347 . S
C1214 C1215 1.455 . S
C1214 H1274 0.930 . S
C1215 C1202 1.412 . S
C1215 C1214 1.455 . S
C1215 C1216 1.331 . S
C1216 C1205 1.451 . S
C1216 C1215 1.331 . S
C1216 C1217 1.497 . S
C1217 C1208 1.395 . S
C1217 C1212 1.446 . S
C1217 C1216 1.497 . S
C1218 C1219 1.582 . S
C1218 H1275 0.962 . S
C1218 H1276 0.959 . S
C1218 H1277 0.958 . S
C1219 C1218 1.582 . S
C1219 O1222 1.458 . S
C1219 H1248 0.980 . S
O1220 C1165 1.426 . S
O1220 C1166 1.334 . S
O1221 C1193 1.412 . S
O1221 C1194 1.393 . S
O1222 C1184 1.435 . S
O1222 C1219 1.458 . S
O1223 C1175 1.468 . S
O1223 C1176 1.408 . S
H1224 C1165 0.980 . S
H1225 C1164 0.959 . S
H1226 C1164 0.959 . S
H1227 C1164 0.960 . S
H1228 C1167 0.929 . S
H1229 C1171 0.929 . S
H1230 C1172 0.959 . S
H1231 C1172 0.961 . S
H1232 C1172 0.961 . S
H1233 C1173 0.960 . S
H1234 C1173 0.960 . S
H1235 C1173 0.961 . S
H1236 C1175 0.980 . S
H1237 C1174 0.961 . S
H1238 C1174 0.960 . S
H1239 C1174 0.959 . S
H1240 C1177 0.930 . S
H1241 C1181 0.931 . S
H1242 C1182 0.959 . S
H1243 C1182 0.961 . S
H1244 C1182 0.959 . S
H1245 C1183 0.960 . S
H1246 C1183 0.960 . S
H1247 C1183 0.960 . S
H1248 C1219 0.980 . S
H1249 C1185 0.930 . S
H1250 C1189 0.930 . S
H1251 C1190 0.961 . S
H1252 C1190 0.960 . S
H1253 C1190 0.958 . S
H1254 C1191 0.961 . S
H1255 C1191 0.960 . S
H1256 C1191 0.960 . S
H1257 C1193 0.980 . S
H1258 C1192 0.961 . S
H1259 C1192 0.961 . S
H1260 C1192 0.959 . S
H1261 C1195 0.932 . S
H1262 C1199 0.929 . S
H1263 C1200 0.961 . S
H1264 C1200 0.959 . S
H1265 C1200 0.959 . S
H1266 C1201 0.960 . S
H1267 C1201 0.962 . S
H1268 C1201 0.961 . S
H1269 C1203 0.929 . S
H1270 C1206 0.930 . S
H1271 C1207 0.929 . S
H1272 C1210 0.930 . S
H1273 C1213 0.929 . S
H1274 C1214 0.930 . S
H1275 C1218 0.962 . S
H1276 C1218 0.959 . S
H1277 C1218 0.958 . S
C1278 C1279 1.560 . S
C1278 H1339 0.959 . S
C1278 H1340 0.959 . S
C1278 H1341 0.960 . S
C1279 C1278 1.560 . S
C1279 O1334 1.426 . S
C1279 H1338 0.980 . S
C1280 C1281 1.407 1_455 S
C1280 C1285 1.418 . S
C1280 O1334 1.334 . S
C1281 C1280 1.407 1_655 S
C1281 C1282 1.360 . S
C1281 H1342 0.929 . S
C1282 C1281 1.360 . S
C1282 C1283 1.401 1_655 S
C1282 C1286 1.527 . S
C1283 C1282 1.401 1_455 S
C1283 C1284 1.405 . S
C1283 C1316 1.587 1_455 S
C1284 C1283 1.405 . S
C1284 C1285 1.332 . S
C1284 C1287 1.496 . S
C1285 C1280 1.418 . S
C1285 C1284 1.332 . S
C1285 H1343 0.929 . S
C1286 C1282 1.527 . S
C1286 H1344 0.959 . S
C1286 H1345 0.961 . S
C1286 H1346 0.961 . S
C1287 C1284 1.496 . S
C1287 H1347 0.960 . S
C1287 H1348 0.960 . S
C1287 H1349 0.961 . S
C1288 C1289 1.517 . S
C1288 H1351 1.008 . S
C1288 H1352 0.960 . S
C1288 H1353 0.959 . S
C1289 C1288 1.517 . S
C1289 O1337 1.468 . S
C1289 H1350 0.980 1_655 S
C1290 C1291 1.349 . S
C1290 C1295 1.367 . S
C1290 O1337 1.408 . S
C1291 C1290 1.349 . S
C1291 C1292 1.375 1_655 S
C1291 H1354 0.930 1_655 S
C1292 C1291 1.375 1_455 S
C1292 C1293 1.424 1_455 S
C1292 C1296 1.588 . S
C1293 C1292 1.424 1_655 S
C1293 C1294 1.384 . S
C1293 C1318 1.553 . S
C1294 C1293 1.384 . S
C1294 C1295 1.364 . S
C1294 C1297 1.450 . S
C1295 C1290 1.367 . S
C1295 C1294 1.364 . S
C1295 H1355 0.931 . S
C1296 C1292 1.588 . S
C1296 H1356 0.959 . S
C1296 H1357 0.961 . S
C1296 H1358 0.959 . S
C1297 C1294 1.450 . S
C1297 H1359 0.960 . S
C1297 H1360 0.960 . S
C1297 H1361 0.960 . S
C1298 C1299 1.309 . S
C1298 C1303 1.304 . S
C1298 O1336 1.435 . S
C1299 C1298 1.309 . S
C1299 C1300 1.476 1_655 S
C1299 H1363 0.930 1_655 S
C1300 C1299 1.476 1_455 S
C1300 C1301 1.400 1_455 S
C1300 C1304 1.567 . S
C1301 C1300 1.400 1_655 S
C1301 C1302 1.373 . S
C1301 C1323 1.432 . S
C1302 C1301 1.373 . S
C1302 C1303 1.339 . S
C1302 C1305 1.530 . S
C1303 C1298 1.304 . S
C1303 C1302 1.339 . S
C1303 H1364 0.930 . S
C1304 C1300 1.567 . S
C1304 H1365 0.961 . S
C1304 H1366 0.960 . S
C1304 H1367 0.958 . S
C1305 C1302 1.530 . S
C1305 H1368 0.961 . S
C1305 H1369 0.960 . S
C1305 H1370 0.960 . S
C1306 C1307 1.546 . S
C1306 H1372 0.961 . S
C1306 H1373 0.961 . S
C1306 H1374 0.959 . S
C1307 C1306 1.546 . S
C1307 O1335 1.415 . S
C1307 H1371 0.976 1_455 S
C1308 C1309 1.288 . S
C1308 C1313 1.377 1_455 S
C1308 O1335 1.393 . S
C1309 C1308 1.288 . S
C1309 C1310 1.369 . S
C1309 H1375 0.932 . S
C1310 C1309 1.369 . S
C1310 C1311 1.398 1_455 S
C1310 C1314 1.527 . S
C1311 C1310 1.398 1_655 S
C1311 C1312 1.380 . S
C1311 C1325 1.497 . S
C1312 C1311 1.380 . S
C1312 C1313 1.383 . S
C1312 C1315 1.603 . S
C1313 C1308 1.377 1_655 S
C1313 C1312 1.383 . S
C1313 H1376 0.929 . S
C1314 C1310 1.527 . S
C1314 H1377 0.961 . S
C1314 H1378 0.959 . S
C1314 H1379 0.959 . S
C1315 C1312 1.603 . S
C1315 H1380 0.960 . S
C1315 H1381 0.962 . S
C1315 H1382 0.961 . S
C1316 C1283 1.587 1_655 S
C1316 C1317 1.360 . S
C1316 C1329 1.412 . S
C1317 C1316 1.360 . S
C1317 C1318 1.365 . S
C1317 H1383 0.929 . S
C1318 C1293 1.553 . S
C1318 C1317 1.365 . S
C1318 C1319 1.404 . S
C1319 C1318 1.404 . S
C1319 C1320 1.395 . S
C1319 C1330 1.451 . S
C1320 C1319 1.395 . S
C1320 C1321 1.322 . S
C1320 H1384 0.930 . S
C1321 C1320 1.322 . S
C1321 C1322 1.459 . S
C1321 H1385 0.929 . S
C1322 C1321 1.459 . S
C1322 C1323 1.445 . S
C1322 C1331 1.395 . S
C1323 C1301 1.432 . S
C1323 C1322 1.445 . S
C1323 C1324 1.370 . S
C1324 C1323 1.370 . S
C1324 C1325 1.438 . S
C1324 H1386 0.930 . S
C1325 C1311 1.497 . S
C1325 C1324 1.438 . S
C1325 C1326 1.360 . S
C1326 C1325 1.360 . S
C1326 C1327 1.401 . S
C1326 C1331 1.446 . S
C1327 C1326 1.401 . S
C1327 C1328 1.347 . S
C1327 H1387 0.929 . S
C1328 C1327 1.347 . S
C1328 C1329 1.455 . S
C1328 H1388 0.991 . S
C1329 C1316 1.412 . S
C1329 C1328 1.455 . S
C1329 C1330 1.331 . S
C1330 C1319 1.451 . S
C1330 C1329 1.331 . S
C1330 C1331 1.497 . S
C1331 C1322 1.395 . S
C1331 C1326 1.446 . S
C1331 C1330 1.497 . S
C1332 C1333 1.582 . S
C1332 H1389 0.962 . S
C1332 H1390 0.959 . S
C1332 H1391 0.958 . S
C1333 C1332 1.582 . S
C1333 O1336 1.458 . S
C1333 H1362 0.980 . S
O1334 C1279 1.426 . S
O1334 C1280 1.334 . S
O1335 C1307 1.415 . S
O1335 C1308 1.393 . S
O1336 C1298 1.435 . S
O1336 C1333 1.458 . S
O1337 C1289 1.468 . S
O1337 C1290 1.408 . S
H1338 C1279 0.980 . S
H1339 C1278 0.959 . S
H1340 C1278 0.959 . S
H1341 C1278 0.960 . S
H1342 C1281 0.929 . S
H1343 C1285 0.929 . S
H1344 C1286 0.959 . S
H1345 C1286 0.961 . S
H1346 C1286 0.961 . S
H1347 C1287 0.960 . S
H1348 C1287 0.960 . S
H1349 C1287 0.961 . S
H1350 C1289 0.980 1_455 S
H1351 C1288 1.008 . S
H1352 C1288 0.960 . S
H1353 C1288 0.959 . S
H1354 C1291 0.930 1_455 S
H1355 C1295 0.931 . S
H1356 C1296 0.959 . S
H1357 C1296 0.961 . S
H1358 C1296 0.959 . S
H1359 C1297 0.960 . S
H1360 C1297 0.960 . S
H1361 C1297 0.960 . S
H1362 C1333 0.980 . S
H1363 C1299 0.930 1_455 S
H1364 C1303 0.930 . S
H1365 C1304 0.961 . S
H1366 C1304 0.960 . S
H1367 C1304 0.958 . S
H1368 C1305 0.961 . S
H1369 C1305 0.960 . S
H1370 C1305 0.960 . S
H1371 C1307 0.976 1_655 S
H1372 C1306 0.961 . S
H1373 C1306 0.961 . S
H1374 C1306 0.959 . S
H1375 C1309 0.932 . S
H1376 C1313 0.929 . S
H1377 C1314 0.961 . S
H1378 C1314 0.959 . S
H1379 C1314 0.959 . S
H1380 C1315 0.960 . S
H1381 C1315 0.962 . S
H1382 C1315 0.961 . S
H1383 C1317 0.929 . S
H1384 C1320 0.930 . S
H1385 C1321 0.929 . S
H1386 C1324 0.930 . S
H1387 C1327 0.929 . S
H1388 C1328 0.991 . S
H1389 C1332 0.962 . S
H1390 C1332 0.959 . S
H1391 C1332 0.958 . S
C1392 C1393 1.560 . S
C1392 H1453 0.959 . S
C1392 H1454 0.959 . S
C1392 H1455 0.960 . S
C1393 C1392 1.560 . S
C1393 O1448 1.426 . S
C1393 H1452 0.980 . S
C1394 C1395 1.407 . S
C1394 C1399 1.418 . S
C1394 O1448 1.334 . S
C1395 C1394 1.407 . S
C1395 C1396 1.360 . S
C1395 H1456 0.929 . S
C1396 C1395 1.360 . S
C1396 C1397 1.401 . S
C1396 C1400 1.527 . S
C1397 C1396 1.401 . S
C1397 C1398 1.405 . S
C1397 C1430 1.587 . S
C1398 C1397 1.405 . S
C1398 C1399 1.332 . S
C1398 C1401 1.496 . S
C1399 C1394 1.418 . S
C1399 C1398 1.332 . S
C1399 H1457 0.929 . S
C1400 C1396 1.527 . S
C1400 H1458 0.959 . S
C1400 H1459 0.961 . S
C1400 H1460 0.961 . S
C1401 C1398 1.496 . S
C1401 H1461 0.960 . S
C1401 H1462 0.960 . S
C1401 H1463 0.961 . S
C1402 C1403 1.517 . S
C1402 H1465 0.961 . S
C1402 H1466 0.960 . S
C1402 H1467 0.959 . S
C1403 C1402 1.517 . S
C1403 O1451 1.468 . S
C1403 H1464 0.980 . S
C1404 C1405 1.349 . S
C1404 C1409 1.367 . S
C1404 O1451 1.408 . S
C1405 C1404 1.349 . S
C1405 C1406 1.407 . S
C1405 H1468 0.930 . S
C1406 C1405 1.407 . S
C1406 C1407 1.449 . S
C1406 C1410 1.535 . S
C1407 C1406 1.449 . S
C1407 C1408 1.384 . S
C1407 C1432 1.553 . S
C1408 C1407 1.384 . S
C1408 C1409 1.364 . S
C1408 C1411 1.450 . S
C1409 C1404 1.367 . S
C1409 C1408 1.364 . S
C1409 H1469 0.931 . S
C1410 C1406 1.535 . S
C1410 H1470 0.959 . S
C1410 H1471 0.961 . S
C1410 H1472 0.959 . S
C1411 C1408 1.450 . S
C1411 H1473 0.960 . S
C1411 H1474 0.960 . S
C1411 H1475 0.960 . S
C1412 C1413 1.309 . S
C1412 C1417 1.304 . S
C1412 O1450 1.435 . S
C1413 C1412 1.309 . S
C1413 C1414 1.476 . S
C1413 H1477 0.930 . S
C1414 C1413 1.476 . S
C1414 C1415 1.400 . S
C1414 C1418 1.567 . S
C1415 C1414 1.400 . S
C1415 C1416 1.373 . S
C1415 C1437 1.432 . S
C1416 C1415 1.373 . S
C1416 C1417 1.339 . S
C1416 C1419 1.530 . S
C1417 C1412 1.304 . S
C1417 C1416 1.339 . S
C1417 H1478 0.930 . S
C1418 C1414 1.567 . S
C1418 H1479 0.961 . S
C1418 H1480 0.960 . S
C1418 H1481 0.958 . S
C1419 C1416 1.530 . S
C1419 H1482 0.961 . S
C1419 H1483 0.960 . S
C1419 H1484 0.960 . S
C1420 C1421 1.530 . S
C1420 H1486 0.961 . S
C1420 H1487 0.961 . S
C1420 H1488 0.959 . S
C1421 C1420 1.530 . S
C1421 O1449 1.412 . S
C1421 H1485 0.980 . S
C1422 C1423 1.288 . S
C1422 C1427 1.377 . S
C1422 O1449 1.393 . S
C1423 C1422 1.288 . S
C1423 C1424 1.369 . S
C1423 H1489 0.932 . S
C1424 C1423 1.369 . S
C1424 C1425 1.398 . S
C1424 C1428 1.527 . S
C1425 C1424 1.398 . S
C1425 C1426 1.380 . S
C1425 C1439 1.497 . S
C1426 C1425 1.380 . S
C1426 C1427 1.383 . S
C1426 C1429 1.603 . S
C1427 C1422 1.377 . S
C1427 C1426 1.383 . S
C1427 H1490 0.929 . S
C1428 C1424 1.527 . S
C1428 H1491 0.961 . S
C1428 H1492 0.959 . S
C1428 H1493 0.959 . S
C1429 C1426 1.603 . S
C1429 H1494 0.960 . S
C1429 H1495 0.962 . S
C1429 H1496 0.961 . S
C1430 C1397 1.587 . S
C1430 C1431 1.360 . S
C1430 C1443 1.412 . S
C1431 C1430 1.360 . S
C1431 C1432 1.365 . S
C1431 H1497 0.929 . S
C1432 C1407 1.553 . S
C1432 C1431 1.365 . S
C1432 C1433 1.404 . S
C1433 C1432 1.404 . S
C1433 C1434 1.395 . S
C1433 C1444 1.451 . S
C1434 C1433 1.395 . S
C1434 C1435 1.322 . S
C1434 H1498 0.930 . S
C1435 C1434 1.322 . S
C1435 C1436 1.459 . S
C1435 H1499 0.929 . S
C1436 C1435 1.459 . S
C1436 C1437 1.445 . S
C1436 C1445 1.395 . S
C1437 C1415 1.432 . S
C1437 C1436 1.445 . S
C1437 C1438 1.370 . S
C1438 C1437 1.370 . S
C1438 C1439 1.438 . S
C1438 H1500 0.930 . S
C1439 C1425 1.497 . S
C1439 C1438 1.438 . S
C1439 C1440 1.360 . S
C1440 C1439 1.360 . S
C1440 C1441 1.401 . S
C1440 C1445 1.446 . S
C1441 C1440 1.401 . S
C1441 C1442 1.347 . S
C1441 H1501 0.929 . S
C1442 C1441 1.347 . S
C1442 C1443 1.455 . S
C1442 H1502 0.930 . S
C1443 C1430 1.412 . S
C1443 C1442 1.455 . S
C1443 C1444 1.331 . S
C1444 C1433 1.451 . S
C1444 C1443 1.331 . S
C1444 C1445 1.497 . S
C1445 C1436 1.395 . S
C1445 C1440 1.446 . S
C1445 C1444 1.497 . S
C1446 C1447 1.582 . S
C1446 H1503 0.962 . S
C1446 H1504 0.959 . S
C1446 H1505 0.958 . S
C1447 C1446 1.582 . S
C1447 O1450 1.458 . S
C1447 H1476 0.980 . S
O1448 C1393 1.426 . S
O1448 C1394 1.334 . S
O1449 C1421 1.412 . S
O1449 C1422 1.393 . S
O1450 C1412 1.435 . S
O1450 C1447 1.458 . S
O1451 C1403 1.468 . S
O1451 C1404 1.408 . S
H1452 C1393 0.980 . S
H1453 C1392 0.959 . S
H1454 C1392 0.959 . S
H1455 C1392 0.960 . S
H1456 C1395 0.929 . S
H1457 C1399 0.929 . S
H1458 C1400 0.959 . S
H1459 C1400 0.961 . S
H1460 C1400 0.961 . S
H1461 C1401 0.960 . S
H1462 C1401 0.960 . S
H1463 C1401 0.961 . S
H1464 C1403 0.980 . S
H1465 C1402 0.961 . S
H1466 C1402 0.960 . S
H1467 C1402 0.959 . S
H1468 C1405 0.930 . S
H1469 C1409 0.931 . S
H1470 C1410 0.959 . S
H1471 C1410 0.961 . S
H1472 C1410 0.959 . S
H1473 C1411 0.960 . S
H1474 C1411 0.960 . S
H1475 C1411 0.960 . S
H1476 C1447 0.980 . S
H1477 C1413 0.930 . S
H1478 C1417 0.930 . S
H1479 C1418 0.961 . S
H1480 C1418 0.960 . S
H1481 C1418 0.958 . S
H1482 C1419 0.961 . S
H1483 C1419 0.960 . S
H1484 C1419 0.960 . S
H1485 C1421 0.980 . S
H1486 C1420 0.961 . S
H1487 C1420 0.961 . S
H1488 C1420 0.959 . S
H1489 C1423 0.932 . S
H1490 C1427 0.929 . S
H1491 C1428 0.961 . S
H1492 C1428 0.959 . S
H1493 C1428 0.959 . S
H1494 C1429 0.960 . S
H1495 C1429 0.962 . S
H1496 C1429 0.961 . S
H1497 C1431 0.929 . S
H1498 C1434 0.930 . S
H1499 C1435 0.929 . S
H1500 C1438 0.930 . S
H1501 C1441 0.929 . S
H1502 C1442 0.930 . S
H1503 C1446 0.962 . S
H1504 C1446 0.959 . S
H1505 C1446 0.958 . S
C1506 C1507 1.560 . S
C1506 H1567 0.959 . S
C1506 H1568 0.959 . S
C1506 H1569 0.960 . S
C1507 C1506 1.560 . S
C1507 O1562 1.426 . S
C1507 H1566 0.980 . S
C1508 C1509 1.407 1_565 S
C1508 C1513 1.418 . S
C1508 O1562 1.334 . S
C1509 C1508 1.407 1_545 S
C1509 C1510 1.360 . S
C1509 H1570 0.929 . S
C1510 C1509 1.360 . S
C1510 C1511 1.331 1_545 S
C1510 C1514 1.527 . S
C1511 C1510 1.331 1_565 S
C1511 C1512 1.469 . S
C1511 C1544 1.601 1_565 S
C1512 C1511 1.469 . S
C1512 C1513 1.332 . S
C1512 C1515 1.496 . S
C1513 C1508 1.418 . S
C1513 C1512 1.332 . S
C1513 H1571 0.929 . S
C1514 C1510 1.527 . S
C1514 H1572 0.959 . S
C1514 H1573 0.961 . S
C1514 H1574 0.961 . S
C1515 C1512 1.496 . S
C1515 H1575 0.960 . S
C1515 H1576 0.960 . S
C1515 H1577 0.961 . S
C1516 C1517 1.517 . S
C1516 H1579 0.961 1_545 S
C1516 H1580 0.960 . S
C1516 H1581 0.959 . S
C1517 C1516 1.517 . S
C1517 O1565 1.468 . S
C1517 H1578 0.980 1_545 S
C1518 C1519 1.354 1_545 S
C1518 C1523 1.367 . S
C1518 O1565 1.408 . S
C1519 C1518 1.354 1_565 S
C1519 C1520 1.410 . S
C1519 H1582 0.923 . S
C1520 C1519 1.410 . S
C1520 C1521 1.449 1_565 S
C1520 C1524 1.535 . S
C1521 C1520 1.449 1_545 S
C1521 C1522 1.384 . S
C1521 C1546 1.553 . S
C1522 C1521 1.384 . S
C1522 C1523 1.364 . S
C1522 C1525 1.450 . S
C1523 C1518 1.367 . S
C1523 C1522 1.364 . S
C1523 H1583 0.931 . S
C1524 C1520 1.535 . S
C1524 H1584 0.959 . S
C1524 H1585 0.961 . S
C1524 H1586 0.959 . S
C1525 C1522 1.450 . S
C1525 H1587 0.960 . S
C1525 H1588 0.960 . S
C1525 H1589 0.960 . S
C1526 C1527 1.309 . S
C1526 C1531 1.304 . S
C1526 O1564 1.435 . S
C1527 C1526 1.309 . S
C1527 C1528 1.510 1_545 S
C1527 H1591 0.930 1_545 S
C1528 C1527 1.510 1_565 S
C1528 C1529 1.303 1_565 S
C1528 C1532 1.632 . S
C1529 C1528 1.303 1_545 S
C1529 C1530 1.373 . S
C1529 C1551 1.432 . S
C1530 C1529 1.373 . S
C1530 C1531 1.339 . S
C1530 C1533 1.530 . S
C1531 C1526 1.304 . S
C1531 C1530 1.339 . S
C1531 H1592 0.930 . S
C1532 C1528 1.632 . S
C1532 H1593 0.961 . S
C1532 H1594 0.960 . S
C1532 H1595 0.958 . S
C1533 C1530 1.530 . S
C1533 H1596 0.961 . S
C1533 H1597 0.960 . S
C1533 H1598 0.960 . S
C1534 C1535 1.530 1_565 S
C1534 H1600 0.961 . S
C1534 H1601 0.961 . S
C1534 H1602 0.959 . S
C1535 C1534 1.530 1_545 S
C1535 O1563 1.412 1_545 S
C1535 H1599 0.980 . S
C1536 C1537 1.288 . S
C1536 C1541 1.377 1_565 S
C1536 O1563 1.393 . S
C1537 C1536 1.288 . S
C1537 C1538 1.369 . S
C1537 H1603 0.932 . S
C1538 C1537 1.369 . S
C1538 C1539 1.398 1_565 S
C1538 C1542 1.527 . S
C1539 C1538 1.398 1_545 S
C1539 C1540 1.380 . S
C1539 C1553 1.497 . S
C1540 C1539 1.380 . S
C1540 C1541 1.383 . S
C1540 C1543 1.603 . S
C1541 C1536 1.377 1_545 S
C1541 C1540 1.383 . S
C1541 H1604 0.929 . S
C1542 C1538 1.527 . S
C1542 H1605 0.961 . S
C1542 H1606 0.959 . S
C1542 H1607 0.959 . S
C1543 C1540 1.603 . S
C1543 H1608 0.960 . S
C1543 H1609 0.962 . S
C1543 H1610 0.961 . S
C1544 C1511 1.601 1_545 S
C1544 C1545 1.360 . S
C1544 C1557 1.412 . S
C1545 C1544 1.360 . S
C1545 C1546 1.365 . S
C1545 H1611 0.929 . S
C1546 C1521 1.553 . S
C1546 C1545 1.365 . S
C1546 C1547 1.404 . S
C1547 C1546 1.404 . S
C1547 C1548 1.395 . S
C1547 C1558 1.451 . S
C1548 C1547 1.395 . S
C1548 C1549 1.322 . S
C1548 H1612 0.930 . S
C1549 C1548 1.322 . S
C1549 C1550 1.459 . S
C1549 H1613 0.929 . S
C1550 C1549 1.459 . S
C1550 C1551 1.445 . S
C1550 C1559 1.395 . S
C1551 C1529 1.432 . S
C1551 C1550 1.445 . S
C1551 C1552 1.370 . S
C1552 C1551 1.370 . S
C1552 C1553 1.438 . S
C1552 H1614 0.930 . S
C1553 C1539 1.497 . S
C1553 C1552 1.438 . S
C1553 C1554 1.360 . S
C1554 C1553 1.360 . S
C1554 C1555 1.401 . S
C1554 C1559 1.446 . S
C1555 C1554 1.401 . S
C1555 C1556 1.347 . S
C1555 H1615 0.929 . S
C1556 C1555 1.347 . S
C1556 C1557 1.455 . S
C1556 H1616 0.930 . S
C1557 C1544 1.412 . S
C1557 C1556 1.455 . S
C1557 C1558 1.331 . S
C1558 C1547 1.451 . S
C1558 C1557 1.331 . S
C1558 C1559 1.497 . S
C1559 C1550 1.395 . S
C1559 C1554 1.446 . S
C1559 C1558 1.497 . S
C1560 C1561 1.582 . S
C1560 H1617 0.962 . S
C1560 H1618 0.959 . S
C1560 H1619 0.958 . S
C1561 C1560 1.582 . S
C1561 O1564 1.458 . S
C1561 H1590 0.980 . S
O1562 C1507 1.426 . S
O1562 C1508 1.334 . S
O1563 C1535 1.412 1_565 S
O1563 C1536 1.393 . S
O1564 C1526 1.435 . S
O1564 C1561 1.458 . S
O1565 C1517 1.468 . S
O1565 C1518 1.408 . S
H1566 C1507 0.980 . S
H1567 C1506 0.959 . S
H1568 C1506 0.959 . S
H1569 C1506 0.960 . S
H1570 C1509 0.929 . S
H1571 C1513 0.929 . S
H1572 C1514 0.959 . S
H1573 C1514 0.961 . S
H1574 C1514 0.961 . S
H1575 C1515 0.960 . S
H1576 C1515 0.960 . S
H1577 C1515 0.961 . S
H1578 C1517 0.980 1_565 S
H1579 C1516 0.961 1_565 S
H1580 C1516 0.960 . S
H1581 C1516 0.959 . S
H1582 C1519 0.923 . S
H1583 C1523 0.931 . S
H1584 C1524 0.959 . S
H1585 C1524 0.961 . S
H1586 C1524 0.959 . S
H1587 C1525 0.960 . S
H1588 C1525 0.960 . S
H1589 C1525 0.960 . S
H1590 C1561 0.980 . S
H1591 C1527 0.930 1_565 S
H1592 C1531 0.930 . S
H1593 C1532 0.961 . S
H1594 C1532 0.960 . S
H1595 C1532 0.958 . S
H1596 C1533 0.961 . S
H1597 C1533 0.960 . S
H1598 C1533 0.960 . S
H1599 C1535 0.980 . S
H1600 C1534 0.961 . S
H1601 C1534 0.961 . S
H1602 C1534 0.959 . S
H1603 C1537 0.932 . S
H1604 C1541 0.929 . S
H1605 C1542 0.961 . S
H1606 C1542 0.959 . S
H1607 C1542 0.959 . S
H1608 C1543 0.960 . S
H1609 C1543 0.962 . S
H1610 C1543 0.961 . S
H1611 C1545 0.929 . S
H1612 C1548 0.930 . S
H1613 C1549 0.929 . S
H1614 C1552 0.930 . S
H1615 C1555 0.929 . S
H1616 C1556 0.930 . S
H1617 C1560 0.962 . S
H1618 C1560 0.959 . S
H1619 C1560 0.958 . S
C1620 C1621 1.560 . S
C1620 H1681 0.959 . S
C1620 H1682 0.959 . S
C1620 H1683 0.960 . S
C1621 C1620 1.560 . S
C1621 O1676 1.426 . S
C1621 H1680 0.980 1_565 S
C1622 C1623 1.407 1_565 S
C1622 C1627 1.418 . S
C1622 O1676 1.334 . S
C1623 C1622 1.407 1_545 S
C1623 C1624 1.360 . S
C1623 H1684 0.929 . S
C1624 C1623 1.360 . S
C1624 C1625 1.401 . S
C1624 C1628 1.527 . S
C1625 C1624 1.401 . S
C1625 C1626 1.405 1_545 S
C1625 C1658 1.587 . S
C1626 C1625 1.405 1_565 S
C1626 C1627 1.332 . S
C1626 C1629 1.496 . S
C1627 C1622 1.418 . S
C1627 C1626 1.332 . S
C1627 H1685 0.929 . S
C1628 C1624 1.527 . S
C1628 H1686 0.959 . S
C1628 H1687 0.961 . S
C1628 H1688 0.961 . S
C1629 C1626 1.496 . S
C1629 H1689 0.960 . S
C1629 H1690 0.960 . S
C1629 H1691 0.961 . S
C1630 C1631 1.517 . S
C1630 H1693 0.961 . S
C1630 H1694 0.960 . S
C1630 H1695 0.959 . S
C1631 C1630 1.517 . S
C1631 O1679 1.468 . S
C1631 H1692 0.980 . S
C1632 C1633 1.349 . S
C1632 C1637 1.367 . S
C1632 O1679 1.408 . S
C1633 C1632 1.349 . S
C1633 C1634 1.407 . S
C1633 H1696 0.938 . S
C1634 C1633 1.407 . S
C1634 C1635 1.449 . S
C1634 C1638 1.535 1_545 S
C1635 C1634 1.449 . S
C1635 C1636 1.384 . S
C1635 C1660 1.553 . S
C1636 C1635 1.384 . S
C1636 C1637 1.364 . S
C1636 C1639 1.450 . S
C1637 C1632 1.367 . S
C1637 C1636 1.364 . S
C1637 H1697 0.931 . S
C1638 C1634 1.535 1_565 S
C1638 H1698 0.959 . S
C1638 H1699 0.961 . S
C1638 H1700 0.959 . S
C1639 C1636 1.450 . S
C1639 H1701 0.960 . S
C1639 H1702 0.960 . S
C1639 H1703 0.960 . S
C1640 C1641 1.309 1_545 S
C1640 C1645 1.304 . S
C1640 O1678 1.435 . S
C1641 C1640 1.309 1_565 S
C1641 C1642 1.476 . S
C1641 H1705 0.930 . S
C1642 C1641 1.476 . S
C1642 C1643 1.400 1_565 S
C1642 C1646 1.567 . S
C1643 C1642 1.400 1_545 S
C1643 C1644 1.373 . S
C1643 C1665 1.432 . S
C1644 C1643 1.373 . S
C1644 C1645 1.339 . S
C1644 C1647 1.530 . S
C1645 C1640 1.304 . S
C1645 C1644 1.339 . S
C1645 H1706 0.930 . S
C1646 C1642 1.567 . S
C1646 H1707 0.961 . S
C1646 H1708 0.960 . S
C1646 H1709 0.958 . S
C1647 C1644 1.530 . S
C1647 H1710 0.961 . S
C1647 H1711 0.960 . S
C1647 H1712 0.960 . S
C1648 C1649 1.530 . S
C1648 H1714 0.961 . S
C1648 H1715 0.961 . S
C1648 H1716 0.959 . S
C1649 C1648 1.530 . S
C1649 O1677 1.412 . S
C1649 H1713 0.980 . S
C1650 C1651 1.288 . S
C1650 C1655 1.377 1_565 S
C1650 O1677 1.393 . S
C1651 C1650 1.288 . S
C1651 C1652 1.369 . S
C1651 H1717 0.932 . S
C1652 C1651 1.369 . S
C1652 C1653 1.398 . S
C1652 C1656 1.527 . S
C1653 C1652 1.398 . S
C1653 C1654 1.380 1_565 S
C1653 C1667 1.497 1_565 S
C1654 C1653 1.380 1_545 S
C1654 C1655 1.383 . S
C1654 C1657 1.603 . S
C1655 C1650 1.377 1_545 S
C1655 C1654 1.383 . S
C1655 H1718 0.929 . S
C1656 C1652 1.527 . S
C1656 H1719 0.961 . S
C1656 H1720 0.959 . S
C1656 H1721 0.959 . S
C1657 C1654 1.603 . S
C1657 H1722 0.960 . S
C1657 H1723 0.962 . S
C1657 H1724 0.961 . S
C1658 C1625 1.587 . S
C1658 C1659 1.360 . S
C1658 C1671 1.412 . S
C1659 C1658 1.360 . S
C1659 C1660 1.365 . S
C1659 H1725 0.929 . S
C1660 C1635 1.553 . S
C1660 C1659 1.365 . S
C1660 C1661 1.404 . S
C1661 C1660 1.404 . S
C1661 C1662 1.395 . S
C1661 C1672 1.451 . S
C1662 C1661 1.395 . S
C1662 C1663 1.322 . S
C1662 H1726 0.930 . S
C1663 C1662 1.322 . S
C1663 C1664 1.459 . S
C1663 H1727 0.929 . S
C1664 C1663 1.459 . S
C1664 C1665 1.445 . S
C1664 C1673 1.395 . S
C1665 C1643 1.432 . S
C1665 C1664 1.445 . S
C1665 C1666 1.370 . S
C1666 C1665 1.370 . S
C1666 C1667 1.438 . S
C1666 H1728 0.930 . S
C1667 C1653 1.497 1_545 S
C1667 C1666 1.438 . S
C1667 C1668 1.360 . S
C1668 C1667 1.360 . S
C1668 C1669 1.401 . S
C1668 C1673 1.446 . S
C1669 C1668 1.401 . S
C1669 C1670 1.347 . S
C1669 H1729 0.933 . S
C1670 C1669 1.347 . S
C1670 C1671 1.455 . S
C1670 H1730 0.930 . S
C1671 C1658 1.412 . S
C1671 C1670 1.455 . S
C1671 C1672 1.331 . S
C1672 C1661 1.451 . S
C1672 C1671 1.331 . S
C1672 C1673 1.497 . S
C1673 C1664 1.395 . S
C1673 C1668 1.446 . S
C1673 C1672 1.497 . S
C1674 C1675 1.582 . S
C1674 H1731 0.962 . S
C1674 H1732 0.959 . S
C1674 H1733 0.958 . S
C1675 C1674 1.582 . S
C1675 O1678 1.458 . S
C1675 H1704 0.980 1_545 S
O1676 C1621 1.426 . S
O1676 C1622 1.334 . S
O1677 C1649 1.412 . S
O1677 C1650 1.393 . S
O1678 C1640 1.435 . S
O1678 C1675 1.458 . S
O1679 C1631 1.468 . S
O1679 C1632 1.408 . S
H1680 C1621 0.980 1_545 S
H1681 C1620 0.959 . S
H1682 C1620 0.959 . S
H1683 C1620 0.960 . S
H1684 C1623 0.929 . S
H1685 C1627 0.929 . S
H1686 C1628 0.959 . S
H1687 C1628 0.961 . S
H1688 C1628 0.961 . S
H1689 C1629 0.960 . S
H1690 C1629 0.960 . S
H1691 C1629 0.961 . S
H1692 C1631 0.980 . S
H1693 C1630 0.961 . S
H1694 C1630 0.960 . S
H1695 C1630 0.959 . S
H1696 C1633 0.938 . S
H1697 C1637 0.931 . S
H1698 C1638 0.959 . S
H1699 C1638 0.961 . S
H1700 C1638 0.959 . S
H1701 C1639 0.960 . S
H1702 C1639 0.960 . S
H1703 C1639 0.960 . S
H1704 C1675 0.980 1_565 S
H1705 C1641 0.930 . S
H1706 C1645 0.930 . S
H1707 C1646 0.961 . S
H1708 C1646 0.960 . S
H1709 C1646 0.958 . S
H1710 C1647 0.961 . S
H1711 C1647 0.960 . S
H1712 C1647 0.960 . S
H1713 C1649 0.980 . S
H1714 C1648 0.961 . S
H1715 C1648 0.961 . S
H1716 C1648 0.959 . S
H1717 C1651 0.932 . S
H1718 C1655 0.929 . S
H1719 C1656 0.961 . S
H1720 C1656 0.959 . S
H1721 C1656 0.959 . S
H1722 C1657 0.960 . S
H1723 C1657 0.962 . S
H1724 C1657 0.961 . S
H1725 C1659 0.929 . S
H1726 C1662 0.930 . S
H1727 C1663 0.929 . S
H1728 C1666 0.930 . S
H1729 C1669 0.933 . S
H1730 C1670 0.930 . S
H1731 C1674 0.962 . S
H1732 C1674 0.959 . S
H1733 C1674 0.958 . S
C1734 C1735 1.598 . S
C1734 H1795 0.959 . S
C1734 H1796 0.959 . S
C1734 H1797 0.960 . S
C1735 C1734 1.598 . S
C1735 O1790 1.502 . S
C1735 H1794 0.965 1_455 S
C1736 C1737 1.407 1_455 S
C1736 C1741 1.418 . S
C1736 O1790 1.334 . S
C1737 C1736 1.407 1_655 S
C1737 C1738 1.360 . S
C1737 H1798 0.929 . S
C1738 C1737 1.360 . S
C1738 C1739 1.401 . S
C1738 C1742 1.527 . S
C1739 C1738 1.401 . S
C1739 C1740 1.405 1_655 S
C1739 C1772 1.587 . S
C1740 C1739 1.405 1_455 S
C1740 C1741 1.332 . S
C1740 C1743 1.496 . S
C1741 C1736 1.418 . S
C1741 C1740 1.332 . S
C1741 H1799 0.929 . S
C1742 C1738 1.527 . S
C1742 H1800 0.959 . S
C1742 H1801 0.961 . S
C1742 H1802 0.961 . S
C1743 C1740 1.496 . S
C1743 H1803 0.960 . S
C1743 H1804 0.960 . S
C1743 H1805 0.961 . S
C1744 C1745 1.517 . S
C1744 H1807 0.961 . S
C1744 H1808 0.960 . S
C1744 H1809 0.959 . S
C1745 C1744 1.517 . S
C1745 O1793 1.468 . S
C1745 H1806 0.980 . S
C1746 C1747 1.349 . S
C1746 C1751 1.367 . S
C1746 O1793 1.408 . S
C1747 C1746 1.349 . S
C1747 C1748 1.407 . S
C1747 H1810 0.911 1_655 S
C1748 C1747 1.407 . S
C1748 C1749 1.449 . S
C1748 C1752 1.535 1_655 S
C1749 C1748 1.449 . S
C1749 C1750 1.384 . S
C1749 C1774 1.553 . S
C1750 C1749 1.384 . S
C1750 C1751 1.364 . S
C1750 C1753 1.450 . S
C1751 C1746 1.367 . S
C1751 C1750 1.364 . S
C1751 H1811 0.931 . S
C1752 C1748 1.535 1_455 S
C1752 H1812 0.959 . S
C1752 H1813 0.961 . S
C1752 H1814 0.959 . S
C1753 C1750 1.450 . S
C1753 H1815 0.960 . S
C1753 H1816 0.960 . S
C1753 H1817 0.960 . S
C1754 C1755 1.309 1_655 S
C1754 C1759 1.304 . S
C1754 O1792 1.435 . S
C1755 C1754 1.309 1_455 S
C1755 C1756 1.476 . S
C1755 H1819 0.930 . S
C1756 C1755 1.476 . S
C1756 C1757 1.400 1_455 S
C1756 C1760 1.567 . S
C1757 C1756 1.400 1_655 S
C1757 C1758 1.373 . S
C1757 C1779 1.432 . S
C1758 C1757 1.373 . S
C1758 C1759 1.339 . S
C1758 C1761 1.530 . S
C1759 C1754 1.304 . S
C1759 C1758 1.339 . S
C1759 H1820 0.930 . S
C1760 C1756 1.567 . S
C1760 H1821 0.961 . S
C1760 H1822 0.960 . S
C1760 H1823 0.958 . S
C1761 C1758 1.530 . S
C1761 H1824 0.961 . S
C1761 H1825 0.960 . S
C1761 H1826 0.960 . S
C1762 C1763 1.530 . S
C1762 H1828 0.961 . S
C1762 H1829 0.961 . S
C1762 H1830 0.959 . S
C1763 C1762 1.530 . S
C1763 O1791 1.412 . S
C1763 H1827 0.976 1_455 S
C1764 C1765 1.288 . S
C1764 C1769 1.377 1_455 S
C1764 O1791 1.393 . S
C1765 C1764 1.288 . S
C1765 C1766 1.369 . S
C1765 H1831 0.932 . S
C1766 C1765 1.369 . S
C1766 C1767 1.398 . S
C1766 C1770 1.527 . S
C1767 C1766 1.398 . S
C1767 C1768 1.380 1_455 S
C1767 C1781 1.497 1_455 S
C1768 C1767 1.380 1_655 S
C1768 C1769 1.383 . S
C1768 C1771 1.603 . S
C1769 C1764 1.377 1_655 S
C1769 C1768 1.383 . S
C1769 H1832 0.929 . S
C1770 C1766 1.527 . S
C1770 H1833 0.961 . S
C1770 H1834 0.959 . S
C1770 H1835 0.959 . S
C1771 C1768 1.603 . S
C1771 H1836 0.960 . S
C1771 H1837 0.962 . S
C1771 H1838 0.961 . S
C1772 C1739 1.587 . S
C1772 C1773 1.360 . S
C1772 C1785 1.412 . S
C1773 C1772 1.360 . S
C1773 C1774 1.365 . S
C1773 H1839 0.929 . S
C1774 C1749 1.553 . S
C1774 C1773 1.365 . S
C1774 C1775 1.404 . S
C1775 C1774 1.404 . S
C1775 C1776 1.395 . S
C1775 C1786 1.451 . S
C1776 C1775 1.395 . S
C1776 C1777 1.322 . S
C1776 H1840 0.930 . S
C1777 C1776 1.322 . S
C1777 C1778 1.459 . S
C1777 H1841 0.929 . S
C1778 C1777 1.459 . S
C1778 C1779 1.445 . S
C1778 C1787 1.395 . S
C1779 C1757 1.432 . S
C1779 C1778 1.445 . S
C1779 C1780 1.370 . S
C1780 C1779 1.370 . S
C1780 C1781 1.438 . S
C1780 H1842 0.930 . S
C1781 C1767 1.497 1_655 S
C1781 C1780 1.438 . S
C1781 C1782 1.360 . S
C1782 C1781 1.360 . S
C1782 C1783 1.401 . S
C1782 C1787 1.446 . S
C1783 C1782 1.401 . S
C1783 C1784 1.347 . S
C1783 H1843 0.929 . S
C1784 C1783 1.347 . S
C1784 C1785 1.455 . S
C1784 H1844 0.930 . S
C1785 C1772 1.412 . S
C1785 C1784 1.455 . S
C1785 C1786 1.331 . S
C1786 C1775 1.451 . S
C1786 C1785 1.331 . S
C1786 C1787 1.497 . S
C1787 C1778 1.395 . S
C1787 C1782 1.446 . S
C1787 C1786 1.497 . S
C1788 C1789 1.582 1_655 S
C1788 H1845 0.927 1_655 S
C1788 H1846 0.959 . S
C1788 H1847 0.958 . S
C1789 C1788 1.582 1_455 S
C1789 O1792 1.458 1_455 S
C1789 H1818 0.980 . S
O1790 C1735 1.502 . S
O1790 C1736 1.334 . S
O1791 C1763 1.412 . S
O1791 C1764 1.393 . S
O1792 C1754 1.435 . S
O1792 C1789 1.458 1_655 S
O1793 C1745 1.468 . S
O1793 C1746 1.408 . S
H1794 C1735 0.965 1_655 S
H1795 C1734 0.959 . S
H1796 C1734 0.959 . S
H1797 C1734 0.960 . S
H1798 C1737 0.929 . S
H1799 C1741 0.929 . S
H1800 C1742 0.959 . S
H1801 C1742 0.961 . S
H1802 C1742 0.961 . S
H1803 C1743 0.960 . S
H1804 C1743 0.960 . S
H1805 C1743 0.961 . S
H1806 C1745 0.980 . S
H1807 C1744 0.961 . S
H1808 C1744 0.960 . S
H1809 C1744 0.959 . S
H1810 C1747 0.911 1_455 S
H1811 C1751 0.931 . S
H1812 C1752 0.959 . S
H1813 C1752 0.961 . S
H1814 C1752 0.959 . S
H1815 C1753 0.960 . S
H1816 C1753 0.960 . S
H1817 C1753 0.960 . S
H1818 C1789 0.980 . S
H1819 C1755 0.930 . S
H1820 C1759 0.930 . S
H1821 C1760 0.961 . S
H1822 C1760 0.960 . S
H1823 C1760 0.958 . S
H1824 C1761 0.961 . S
H1825 C1761 0.960 . S
H1826 C1761 0.960 . S
H1827 C1763 0.976 1_655 S
H1828 C1762 0.961 . S
H1829 C1762 0.961 . S
H1830 C1762 0.959 . S
H1831 C1765 0.932 . S
H1832 C1769 0.929 . S
H1833 C1770 0.961 . S
H1834 C1770 0.959 . S
H1835 C1770 0.959 . S
H1836 C1771 0.960 . S
H1837 C1771 0.962 . S
H1838 C1771 0.961 . S
H1839 C1773 0.929 . S
H1840 C1776 0.930 . S
H1841 C1777 0.929 . S
H1842 C1780 0.930 . S
H1843 C1783 0.929 . S
H1844 C1784 0.930 . S
H1845 C1788 0.927 1_455 S
H1846 C1788 0.959 . S
H1847 C1788 0.958 . S
C1848 C1849 1.560 . S
C1848 H1909 0.959 . S
C1848 H1910 0.959 . S
C1848 H1911 0.960 . S
C1849 C1848 1.560 . S
C1849 O1904 1.426 . S
C1849 H1908 0.980 . S
C1850 C1851 1.407 . S
C1850 C1855 1.418 . S
C1850 O1904 1.334 . S
C1851 C1850 1.407 . S
C1851 C1852 1.360 . S
C1851 H1912 0.929 . S
C1852 C1851 1.360 . S
C1852 C1853 1.401 . S
C1852 C1856 1.527 . S
C1853 C1852 1.401 . S
C1853 C1854 1.405 . S
C1853 C1886 1.587 . S
C1854 C1853 1.405 . S
C1854 C1855 1.332 . S
C1854 C1857 1.496 . S
C1855 C1850 1.418 . S
C1855 C1854 1.332 . S
C1855 H1913 0.929 . S
C1856 C1852 1.527 . S
C1856 H1914 0.959 . S
C1856 H1915 0.961 . S
C1856 H1916 0.961 . S
C1857 C1854 1.496 . S
C1857 H1917 0.960 . S
C1857 H1918 0.960 . S
C1857 H1919 0.961 . S
C1858 C1859 1.517 . S
C1858 H1921 0.961 . S
C1858 H1922 0.960 . S
C1858 H1923 0.959 . S
C1859 C1858 1.517 . S
C1859 O1907 1.468 . S
C1859 H1920 0.980 . S
C1860 C1861 1.349 . S
C1860 C1865 1.367 . S
C1860 O1907 1.408 . S
C1861 C1860 1.349 . S
C1861 C1862 1.407 . S
C1861 H1924 0.930 . S
C1862 C1861 1.407 . S
C1862 C1863 1.449 . S
C1862 C1866 1.535 . S
C1863 C1862 1.449 . S
C1863 C1864 1.384 . S
C1863 C1888 1.553 . S
C1864 C1863 1.384 . S
C1864 C1865 1.364 . S
C1864 C1867 1.450 . S
C1865 C1860 1.367 . S
C1865 C1864 1.364 . S
C1865 H1925 0.931 . S
C1866 C1862 1.535 . S
C1866 H1926 0.959 . S
C1866 H1927 0.961 . S
C1866 H1928 0.959 . S
C1867 C1864 1.450 . S
C1867 H1929 0.960 . S
C1867 H1930 0.960 . S
C1867 H1931 0.960 . S
C1868 C1869 1.309 . S
C1868 C1873 1.304 . S
C1868 O1906 1.435 . S
C1869 C1868 1.309 . S
C1869 C1870 1.476 . S
C1869 H1933 0.930 . S
C1870 C1869 1.476 . S
C1870 C1871 1.400 . S
C1870 C1874 1.567 . S
C1871 C1870 1.400 . S
C1871 C1872 1.373 . S
C1871 C1893 1.432 . S
C1872 C1871 1.373 . S
C1872 C1873 1.339 . S
C1872 C1875 1.530 . S
C1873 C1868 1.304 . S
C1873 C1872 1.339 . S
C1873 H1934 0.930 . S
C1874 C1870 1.567 . S
C1874 H1935 0.961 . S
C1874 H1936 0.960 . S
C1874 H1937 0.958 . S
C1875 C1872 1.530 . S
C1875 H1938 0.961 . S
C1875 H1939 0.960 . S
C1875 H1940 0.960 . S
C1876 C1877 1.530 . S
C1876 H1942 0.961 . S
C1876 H1943 0.961 . S
C1876 H1944 0.959 . S
C1877 C1876 1.530 . S
C1877 O1905 1.412 . S
C1877 H1941 0.980 . S
C1878 C1879 1.288 . S
C1878 C1883 1.377 . S
C1878 O1905 1.393 . S
C1879 C1878 1.288 . S
C1879 C1880 1.369 . S
C1879 H1945 0.932 . S
C1880 C1879 1.369 . S
C1880 C1881 1.398 . S
C1880 C1884 1.527 . S
C1881 C1880 1.398 . S
C1881 C1882 1.380 . S
C1881 C1895 1.497 . S
C1882 C1881 1.380 . S
C1882 C1883 1.383 . S
C1882 C1885 1.603 . S
C1883 C1878 1.377 . S
C1883 C1882 1.383 . S
C1883 H1946 0.929 . S
C1884 C1880 1.527 . S
C1884 H1947 0.961 . S
C1884 H1948 0.959 . S
C1884 H1949 0.959 . S
C1885 C1882 1.603 . S
C1885 H1950 0.960 . S
C1885 H1951 0.962 . S
C1885 H1952 0.961 . S
C1886 C1853 1.587 . S
C1886 C1887 1.360 . S
C1886 C1899 1.412 . S
C1887 C1886 1.360 . S
C1887 C1888 1.365 . S
C1887 H1953 0.929 . S
C1888 C1863 1.553 . S
C1888 C1887 1.365 . S
C1888 C1889 1.404 . S
C1889 C1888 1.404 . S
C1889 C1890 1.395 . S
C1889 C1900 1.451 . S
C1890 C1889 1.395 . S
C1890 C1891 1.322 . S
C1890 H1954 0.930 . S
C1891 C1890 1.322 . S
C1891 C1892 1.459 . S
C1891 H1955 0.929 . S
C1892 C1891 1.459 . S
C1892 C1893 1.445 . S
C1892 C1901 1.395 . S
C1893 C1871 1.432 . S
C1893 C1892 1.445 . S
C1893 C1894 1.370 . S
C1894 C1893 1.370 . S
C1894 C1895 1.438 . S
C1894 H1956 0.930 . S
C1895 C1881 1.497 . S
C1895 C1894 1.438 . S
C1895 C1896 1.360 . S
C1896 C1895 1.360 . S
C1896 C1897 1.401 . S
C1896 C1901 1.446 . S
C1897 C1896 1.401 . S
C1897 C1898 1.347 . S
C1897 H1957 0.929 . S
C1898 C1897 1.347 . S
C1898 C1899 1.455 . S
C1898 H1958 0.930 . S
C1899 C1886 1.412 . S
C1899 C1898 1.455 . S
C1899 C1900 1.331 . S
C1900 C1889 1.451 . S
C1900 C1899 1.331 . S
C1900 C1901 1.497 . S
C1901 C1892 1.395 . S
C1901 C1896 1.446 . S
C1901 C1900 1.497 . S
C1902 C1903 1.582 . S
C1902 H1959 0.962 . S
C1902 H1960 0.959 . S
C1902 H1961 0.958 . S
C1903 C1902 1.582 . S
C1903 O1906 1.458 . S
C1903 H1932 0.980 . S
O1904 C1849 1.426 . S
O1904 C1850 1.334 . S
O1905 C1877 1.412 . S
O1905 C1878 1.393 . S
O1906 C1868 1.435 . S
O1906 C1903 1.458 . S
O1907 C1859 1.468 . S
O1907 C1860 1.408 . S
H1908 C1849 0.980 . S
H1909 C1848 0.959 . S
H1910 C1848 0.959 . S
H1911 C1848 0.960 . S
H1912 C1851 0.929 . S
H1913 C1855 0.929 . S
H1914 C1856 0.959 . S
H1915 C1856 0.961 . S
H1916 C1856 0.961 . S
H1917 C1857 0.960 . S
H1918 C1857 0.960 . S
H1919 C1857 0.961 . S
H1920 C1859 0.980 . S
H1921 C1858 0.961 . S
H1922 C1858 0.960 . S
H1923 C1858 0.959 . S
H1924 C1861 0.930 . S
H1925 C1865 0.931 . S
H1926 C1866 0.959 . S
H1927 C1866 0.961 . S
H1928 C1866 0.959 . S
H1929 C1867 0.960 . S
H1930 C1867 0.960 . S
H1931 C1867 0.960 . S
H1932 C1903 0.980 . S
H1933 C1869 0.930 . S
H1934 C1873 0.930 . S
H1935 C1874 0.961 . S
H1936 C1874 0.960 . S
H1937 C1874 0.958 . S
H1938 C1875 0.961 . S
H1939 C1875 0.960 . S
H1940 C1875 0.960 . S
H1941 C1877 0.980 . S
H1942 C1876 0.961 . S
H1943 C1876 0.961 . S
H1944 C1876 0.959 . S
H1945 C1879 0.932 . S
H1946 C1883 0.929 . S
H1947 C1884 0.961 . S
H1948 C1884 0.959 . S
H1949 C1884 0.959 . S
H1950 C1885 0.960 . S
H1951 C1885 0.962 . S
H1952 C1885 0.961 . S
H1953 C1887 0.929 . S
H1954 C1890 0.930 . S
H1955 C1891 0.929 . S
H1956 C1894 0.930 . S
H1957 C1897 0.929 . S
H1958 C1898 0.930 . S
H1959 C1902 0.962 . S
H1960 C1902 0.959 . S
H1961 C1902 0.958 . S
C1962 C1963 1.560 . S
C1962 H2023 0.959 . S
C1962 H2024 0.959 . S
C1962 H2025 0.960 . S
C1963 C1962 1.560 . S
C1963 O2018 1.426 . S
C1963 H2022 0.980 . S
C1964 C1965 1.407 . S
C1964 C1969 1.418 . S
C1964 O2018 1.334 . S
C1965 C1964 1.407 . S
C1965 C1966 1.360 . S
C1965 H2026 0.929 . S
C1966 C1965 1.360 . S
C1966 C1967 1.401 . S
C1966 C1970 1.527 . S
C1967 C1966 1.401 . S
C1967 C1968 1.405 . S
C1967 C2000 1.587 . S
C1968 C1967 1.405 . S
C1968 C1969 1.332 . S
C1968 C1971 1.496 . S
C1969 C1964 1.418 . S
C1969 C1968 1.332 . S
C1969 H2027 0.929 . S
C1970 C1966 1.527 . S
C1970 H2028 0.959 . S
C1970 H2029 0.961 . S
C1970 H2030 0.961 . S
C1971 C1968 1.496 . S
C1971 H2031 0.960 . S
C1971 H2032 0.960 . S
C1971 H2033 0.961 . S
C1972 C1973 1.517 . S
C1972 H2035 0.961 . S
C1972 H2036 0.960 . S
C1972 H2037 0.959 . S
C1973 C1972 1.517 . S
C1973 O2021 1.468 . S
C1973 H2034 0.980 . S
C1974 C1975 1.349 . S
C1974 C1979 1.367 . S
C1974 O2021 1.408 . S
C1975 C1974 1.349 . S
C1975 C1976 1.407 . S
C1975 H2038 0.930 . S
C1976 C1975 1.407 . S
C1976 C1977 1.449 . S
C1976 C1980 1.535 . S
C1977 C1976 1.449 . S
C1977 C1978 1.384 . S
C1977 C2002 1.553 . S
C1978 C1977 1.384 . S
C1978 C1979 1.364 . S
C1978 C1981 1.450 . S
C1979 C1974 1.367 . S
C1979 C1978 1.364 . S
C1979 H2039 0.931 . S
C1980 C1976 1.535 . S
C1980 H2040 0.959 . S
C1980 H2041 0.961 . S
C1980 H2042 0.959 . S
C1981 C1978 1.450 . S
C1981 H2043 0.960 . S
C1981 H2044 0.960 . S
C1981 H2045 0.960 . S
C1982 C1983 1.309 . S
C1982 C1987 1.304 . S
C1982 O2020 1.435 . S
C1983 C1982 1.309 . S
C1983 C1984 1.476 . S
C1983 H2047 0.930 . S
C1984 C1983 1.476 . S
C1984 C1985 1.400 . S
C1984 C1988 1.567 . S
C1985 C1984 1.400 . S
C1985 C1986 1.373 . S
C1985 C2007 1.432 . S
C1986 C1985 1.373 . S
C1986 C1987 1.339 . S
C1986 C1989 1.530 . S
C1987 C1982 1.304 . S
C1987 C1986 1.339 . S
C1987 H2048 0.930 . S
C1988 C1984 1.567 . S
C1988 H2049 0.961 . S
C1988 H2050 0.960 . S
C1988 H2051 0.958 . S
C1989 C1986 1.530 . S
C1989 H2052 0.961 . S
C1989 H2053 0.960 . S
C1989 H2054 0.960 . S
C1990 C1991 1.530 . S
C1990 H2056 0.961 . S
C1990 H2057 0.961 . S
C1990 H2058 0.959 . S
C1991 C1990 1.530 . S
C1991 O2019 1.412 . S
C1991 H2055 0.980 . S
C1992 C1993 1.288 . S
C1992 C1997 1.377 . S
C1992 O2019 1.393 . S
C1993 C1992 1.288 . S
C1993 C1994 1.369 . S
C1993 H2059 0.932 . S
C1994 C1993 1.369 . S
C1994 C1995 1.398 . S
C1994 C1998 1.527 . S
C1995 C1994 1.398 . S
C1995 C1996 1.380 . S
C1995 C2009 1.497 . S
C1996 C1995 1.380 . S
C1996 C1997 1.383 . S
C1996 C1999 1.603 . S
C1997 C1992 1.377 . S
C1997 C1996 1.383 . S
C1997 H2060 0.929 . S
C1998 C1994 1.527 . S
C1998 H2061 0.961 . S
C1998 H2062 0.959 . S
C1998 H2063 0.959 . S
C1999 C1996 1.603 . S
C1999 H2064 0.960 . S
C1999 H2065 0.962 . S
C1999 H2066 0.961 . S
C2000 C1967 1.587 . S
C2000 C2001 1.360 . S
C2000 C2013 1.412 . S
C2001 C2000 1.360 . S
C2001 C2002 1.365 . S
C2001 H2067 0.929 . S
C2002 C1977 1.553 . S
C2002 C2001 1.365 . S
C2002 C2003 1.404 . S
C2003 C2002 1.404 . S
C2003 C2004 1.395 . S
C2003 C2014 1.451 . S
C2004 C2003 1.395 . S
C2004 C2005 1.322 . S
C2004 H2068 0.930 . S
C2005 C2004 1.322 . S
C2005 C2006 1.459 . S
C2005 H2069 0.929 . S
C2006 C2005 1.459 . S
C2006 C2007 1.445 . S
C2006 C2015 1.395 . S
C2007 C1985 1.432 . S
C2007 C2006 1.445 . S
C2007 C2008 1.370 . S
C2008 C2007 1.370 . S
C2008 C2009 1.438 . S
C2008 H2070 0.930 . S
C2009 C1995 1.497 . S
C2009 C2008 1.438 . S
C2009 C2010 1.360 . S
C2010 C2009 1.360 . S
C2010 C2011 1.401 . S
C2010 C2015 1.446 . S
C2011 C2010 1.401 . S
C2011 C2012 1.347 . S
C2011 H2071 0.929 . S
C2012 C2011 1.347 . S
C2012 C2013 1.455 . S
C2012 H2072 0.930 . S
C2013 C2000 1.412 . S
C2013 C2012 1.455 . S
C2013 C2014 1.331 . S
C2014 C2003 1.451 . S
C2014 C2013 1.331 . S
C2014 C2015 1.497 . S
C2015 C2006 1.395 . S
C2015 C2010 1.446 . S
C2015 C2014 1.497 . S
C2016 C2017 1.582 . S
C2016 H2073 0.962 . S
C2016 H2074 0.959 . S
C2016 H2075 0.958 . S
C2017 C2016 1.582 . S
C2017 O2020 1.458 . S
C2017 H2046 0.980 . S
O2018 C1963 1.426 . S
O2018 C1964 1.334 . S
O2019 C1991 1.412 . S
O2019 C1992 1.393 . S
O2020 C1982 1.435 . S
O2020 C2017 1.458 . S
O2021 C1973 1.468 . S
O2021 C1974 1.408 . S
H2022 C1963 0.980 . S
H2023 C1962 0.959 . S
H2024 C1962 0.959 . S
H2025 C1962 0.960 . S
H2026 C1965 0.929 . S
H2027 C1969 0.929 . S
H2028 C1970 0.959 . S
H2029 C1970 0.961 . S
H2030 C1970 0.961 . S
H2031 C1971 0.960 . S
H2032 C1971 0.960 . S
H2033 C1971 0.961 . S
H2034 C1973 0.980 . S
H2035 C1972 0.961 . S
H2036 C1972 0.960 . S
H2037 C1972 0.959 . S
H2038 C1975 0.930 . S
H2039 C1979 0.931 . S
H2040 C1980 0.959 . S
H2041 C1980 0.961 . S
H2042 C1980 0.959 . S
H2043 C1981 0.960 . S
H2044 C1981 0.960 . S
H2045 C1981 0.960 . S
H2046 C2017 0.980 . S
H2047 C1983 0.930 . S
H2048 C1987 0.930 . S
H2049 C1988 0.961 . S
H2050 C1988 0.960 . S
H2051 C1988 0.958 . S
H2052 C1989 0.961 . S
H2053 C1989 0.960 . S
H2054 C1989 0.960 . S
H2055 C1991 0.980 . S
H2056 C1990 0.961 . S
H2057 C1990 0.961 . S
H2058 C1990 0.959 . S
H2059 C1993 0.932 . S
H2060 C1997 0.929 . S
H2061 C1998 0.961 . S
H2062 C1998 0.959 . S
H2063 C1998 0.959 . S
H2064 C1999 0.960 . S
H2065 C1999 0.962 . S
H2066 C1999 0.961 . S
H2067 C2001 0.929 . S
H2068 C2004 0.930 . S
H2069 C2005 0.929 . S
H2070 C2008 0.930 . S
H2071 C2011 0.929 . S
H2072 C2012 0.930 . S
H2073 C2016 0.962 . S
H2074 C2016 0.959 . S
H2075 C2016 0.958 . S
C2076 C2077 1.560 . S
C2076 H2137 0.959 . S
C2076 H2138 0.959 . S
C2076 H2139 0.960 . S
C2077 C2076 1.560 . S
C2077 O2132 1.426 . S
C2077 H2136 0.980 . S
C2078 C2079 1.407 . S
C2078 C2083 1.418 . S
C2078 O2132 1.334 . S
C2079 C2078 1.407 . S
C2079 C2080 1.360 . S
C2079 H2140 0.929 . S
C2080 C2079 1.360 . S
C2080 C2081 1.401 . S
C2080 C2084 1.527 . S
C2081 C2080 1.401 . S
C2081 C2082 1.405 . S
C2081 C2114 1.587 . S
C2082 C2081 1.405 . S
C2082 C2083 1.332 . S
C2082 C2085 1.496 . S
C2083 C2078 1.418 . S
C2083 C2082 1.332 . S
C2083 H2141 0.929 . S
C2084 C2080 1.527 . S
C2084 H2142 0.959 . S
C2084 H2143 0.961 . S
C2084 H2144 0.961 . S
C2085 C2082 1.496 . S
C2085 H2145 0.960 . S
C2085 H2146 0.960 . S
C2085 H2147 0.961 . S
C2086 C2087 1.517 . S
C2086 H2149 0.961 . S
C2086 H2150 0.960 . S
C2086 H2151 0.959 . S
C2087 C2086 1.517 . S
C2087 O2135 1.468 . S
C2087 H2148 0.980 . S
C2088 C2089 1.349 . S
C2088 C2093 1.367 . S
C2088 O2135 1.408 . S
C2089 C2088 1.349 . S
C2089 C2090 1.407 . S
C2089 H2152 0.930 . S
C2090 C2089 1.407 . S
C2090 C2091 1.449 . S
C2090 C2094 1.535 . S
C2091 C2090 1.449 . S
C2091 C2092 1.384 . S
C2091 C2116 1.553 . S
C2092 C2091 1.384 . S
C2092 C2093 1.364 . S
C2092 C2095 1.450 . S
C2093 C2088 1.367 . S
C2093 C2092 1.364 . S
C2093 H2153 0.931 . S
C2094 C2090 1.535 . S
C2094 H2154 0.959 . S
C2094 H2155 0.961 . S
C2094 H2156 0.959 . S
C2095 C2092 1.450 . S
C2095 H2157 0.960 . S
C2095 H2158 0.960 . S
C2095 H2159 0.960 . S
C2096 C2097 1.309 . S
C2096 C2101 1.304 . S
C2096 O2134 1.435 . S
C2097 C2096 1.309 . S
C2097 C2098 1.476 . S
C2097 H2161 0.930 . S
C2098 C2097 1.476 . S
C2098 C2099 1.400 . S
C2098 C2102 1.567 . S
C2099 C2098 1.400 . S
C2099 C2100 1.373 . S
C2099 C2121 1.432 . S
C2100 C2099 1.373 . S
C2100 C2101 1.339 . S
C2100 C2103 1.530 . S
C2101 C2096 1.304 . S
C2101 C2100 1.339 . S
C2101 H2162 0.930 . S
C2102 C2098 1.567 . S
C2102 H2163 0.961 . S
C2102 H2164 0.960 . S
C2102 H2165 0.958 . S
C2103 C2100 1.530 . S
C2103 H2166 0.961 . S
C2103 H2167 0.960 . S
C2103 H2168 0.960 . S
C2104 C2105 1.530 . S
C2104 H2170 0.961 . S
C2104 H2171 0.961 . S
C2104 H2172 0.959 . S
C2105 C2104 1.530 . S
C2105 O2133 1.412 . S
C2105 H2169 0.980 . S
C2106 C2107 1.288 . S
C2106 C2111 1.377 . S
C2106 O2133 1.393 . S
C2107 C2106 1.288 . S
C2107 C2108 1.369 . S
C2107 H2173 0.932 . S
C2108 C2107 1.369 . S
C2108 C2109 1.398 . S
C2108 C2112 1.527 . S
C2109 C2108 1.398 . S
C2109 C2110 1.380 . S
C2109 C2123 1.497 . S
C2110 C2109 1.380 . S
C2110 C2111 1.383 . S
C2110 C2113 1.603 . S
C2111 C2106 1.377 . S
C2111 C2110 1.383 . S
C2111 H2174 0.929 . S
C2112 C2108 1.527 . S
C2112 H2175 0.961 . S
C2112 H2176 0.959 . S
C2112 H2177 0.959 . S
C2113 C2110 1.603 . S
C2113 H2178 0.960 . S
C2113 H2179 0.962 . S
C2113 H2180 0.961 . S
C2114 C2081 1.587 . S
C2114 C2115 1.360 . S
C2114 C2127 1.412 . S
C2115 C2114 1.360 . S
C2115 C2116 1.365 . S
C2115 H2181 0.929 . S
C2116 C2091 1.553 . S
C2116 C2115 1.365 . S
C2116 C2117 1.404 . S
C2117 C2116 1.404 . S
C2117 C2118 1.395 . S
C2117 C2128 1.451 . S
C2118 C2117 1.395 . S
C2118 C2119 1.322 . S
C2118 H2182 0.930 . S
C2119 C2118 1.322 . S
C2119 C2120 1.459 . S
C2119 H2183 0.929 . S
C2120 C2119 1.459 . S
C2120 C2121 1.445 . S
C2120 C2129 1.395 . S
C2121 C2099 1.432 . S
C2121 C2120 1.445 . S
C2121 C2122 1.370 . S
C2122 C2121 1.370 . S
C2122 C2123 1.438 . S
C2122 H2184 0.930 . S
C2123 C2109 1.497 . S
C2123 C2122 1.438 . S
C2123 C2124 1.360 . S
C2124 C2123 1.360 . S
C2124 C2125 1.401 . S
C2124 C2129 1.446 . S
C2125 C2124 1.401 . S
C2125 C2126 1.347 . S
C2125 H2185 0.929 . S
C2126 C2125 1.347 . S
C2126 C2127 1.455 . S
C2126 H2186 0.930 . S
C2127 C2114 1.412 . S
C2127 C2126 1.455 . S
C2127 C2128 1.331 . S
C2128 C2117 1.451 . S
C2128 C2127 1.331 . S
C2128 C2129 1.497 . S
C2129 C2120 1.395 . S
C2129 C2124 1.446 . S
C2129 C2128 1.497 . S
C2130 C2131 1.582 . S
C2130 H2187 0.962 . S
C2130 H2188 0.959 . S
C2130 H2189 0.958 . S
C2131 C2130 1.582 . S
C2131 O2134 1.458 . S
C2131 H2160 0.980 . S
O2132 C2077 1.426 . S
O2132 C2078 1.334 . S
O2133 C2105 1.412 . S
O2133 C2106 1.393 . S
O2134 C2096 1.435 . S
O2134 C2131 1.458 . S
O2135 C2087 1.468 . S
O2135 C2088 1.408 . S
H2136 C2077 0.980 . S
H2137 C2076 0.959 . S
H2138 C2076 0.959 . S
H2139 C2076 0.960 . S
H2140 C2079 0.929 . S
H2141 C2083 0.929 . S
H2142 C2084 0.959 . S
H2143 C2084 0.961 . S
H2144 C2084 0.961 . S
H2145 C2085 0.960 . S
H2146 C2085 0.960 . S
H2147 C2085 0.961 . S
H2148 C2087 0.980 . S
H2149 C2086 0.961 . S
H2150 C2086 0.960 . S
H2151 C2086 0.959 . S
H2152 C2089 0.930 . S
H2153 C2093 0.931 . S
H2154 C2094 0.959 . S
H2155 C2094 0.961 . S
H2156 C2094 0.959 . S
H2157 C2095 0.960 . S
H2158 C2095 0.960 . S
H2159 C2095 0.960 . S
H2160 C2131 0.980 . S
H2161 C2097 0.930 . S
H2162 C2101 0.930 . S
H2163 C2102 0.961 . S
H2164 C2102 0.960 . S
H2165 C2102 0.958 . S
H2166 C2103 0.961 . S
H2167 C2103 0.960 . S
H2168 C2103 0.960 . S
H2169 C2105 0.980 . S
H2170 C2104 0.961 . S
H2171 C2104 0.961 . S
H2172 C2104 0.959 . S
H2173 C2107 0.932 . S
H2174 C2111 0.929 . S
H2175 C2112 0.961 . S
H2176 C2112 0.959 . S
H2177 C2112 0.959 . S
H2178 C2113 0.960 . S
H2179 C2113 0.962 . S
H2180 C2113 0.961 . S
H2181 C2115 0.929 . S
H2182 C2118 0.930 . S
H2183 C2119 0.929 . S
H2184 C2122 0.930 . S
H2185 C2125 0.929 . S
H2186 C2126 0.930 . S
H2187 C2130 0.962 . S
H2188 C2130 0.959 . S
H2189 C2130 0.958 . S
C2190 C2191 1.560 . S
C2190 H2251 0.959 . S
C2190 H2252 0.959 . S
C2190 H2253 0.960 . S
C2191 C2190 1.560 . S
C2191 O2246 1.426 . S
C2191 H2250 0.980 . S
C2192 C2193 1.407 . S
C2192 C2197 1.418 . S
C2192 O2246 1.334 . S
C2193 C2192 1.407 . S
C2193 C2194 1.360 . S
C2193 H2254 0.929 . S
C2194 C2193 1.360 . S
C2194 C2195 1.401 . S
C2194 C2198 1.527 . S
C2195 C2194 1.401 . S
C2195 C2196 1.405 . S
C2195 C2228 1.587 . S
C2196 C2195 1.405 . S
C2196 C2197 1.332 . S
C2196 C2199 1.496 . S
C2197 C2192 1.418 . S
C2197 C2196 1.332 . S
C2197 H2255 0.929 . S
C2198 C2194 1.527 . S
C2198 H2256 0.959 . S
C2198 H2257 0.961 . S
C2198 H2258 0.961 . S
C2199 C2196 1.496 . S
C2199 H2259 0.960 . S
C2199 H2260 0.960 . S
C2199 H2261 0.961 . S
C2200 C2201 1.517 . S
C2200 H2263 0.961 . S
C2200 H2264 0.960 . S
C2200 H2265 0.959 . S
C2201 C2200 1.517 . S
C2201 O2249 1.468 . S
C2201 H2262 0.980 . S
C2202 C2203 1.349 . S
C2202 C2207 1.367 . S
C2202 O2249 1.408 . S
C2203 C2202 1.349 . S
C2203 C2204 1.407 . S
C2203 H2266 0.930 . S
C2204 C2203 1.407 . S
C2204 C2205 1.449 . S
C2204 C2208 1.535 . S
C2205 C2204 1.449 . S
C2205 C2206 1.384 . S
C2205 C2230 1.553 . S
C2206 C2205 1.384 . S
C2206 C2207 1.364 . S
C2206 C2209 1.450 . S
C2207 C2202 1.367 . S
C2207 C2206 1.364 . S
C2207 H2267 0.931 . S
C2208 C2204 1.535 . S
C2208 H2268 0.959 . S
C2208 H2269 0.961 . S
C2208 H2270 0.959 . S
C2209 C2206 1.450 . S
C2209 H2271 0.960 . S
C2209 H2272 0.960 . S
C2209 H2273 0.960 . S
C2210 C2211 1.309 . S
C2210 C2215 1.304 . S
C2210 O2248 1.435 . S
C2211 C2210 1.309 . S
C2211 C2212 1.476 . S
C2211 H2275 0.930 . S
C2212 C2211 1.476 . S
C2212 C2213 1.400 . S
C2212 C2216 1.567 . S
C2213 C2212 1.400 . S
C2213 C2214 1.373 . S
C2213 C2235 1.432 . S
C2214 C2213 1.373 . S
C2214 C2215 1.339 . S
C2214 C2217 1.530 . S
C2215 C2210 1.304 . S
C2215 C2214 1.339 . S
C2215 H2276 0.930 . S
C2216 C2212 1.567 . S
C2216 H2277 0.961 . S
C2216 H2278 0.960 . S
C2216 H2279 0.958 . S
C2217 C2214 1.530 . S
C2217 H2280 0.961 . S
C2217 H2281 0.960 . S
C2217 H2282 0.960 . S
C2218 C2219 1.530 . S
C2218 H2284 0.961 . S
C2218 H2285 0.961 . S
C2218 H2286 0.959 . S
C2219 C2218 1.530 . S
C2219 O2247 1.412 . S
C2219 H2283 0.980 . S
C2220 C2221 1.288 . S
C2220 C2225 1.377 . S
C2220 O2247 1.393 . S
C2221 C2220 1.288 . S
C2221 C2222 1.369 . S
C2221 H2287 0.932 . S
C2222 C2221 1.369 . S
C2222 C2223 1.398 . S
C2222 C2226 1.527 . S
C2223 C2222 1.398 . S
C2223 C2224 1.380 . S
C2223 C2237 1.497 . S
C2224 C2223 1.380 . S
C2224 C2225 1.383 . S
C2224 C2227 1.603 . S
C2225 C2220 1.377 . S
C2225 C2224 1.383 . S
C2225 H2288 0.929 . S
C2226 C2222 1.527 . S
C2226 H2289 0.961 . S
C2226 H2290 0.959 . S
C2226 H2291 0.959 . S
C2227 C2224 1.603 . S
C2227 H2292 0.960 . S
C2227 H2293 0.962 . S
C2227 H2294 0.961 . S
C2228 C2195 1.587 . S
C2228 C2229 1.360 . S
C2228 C2241 1.412 . S
C2229 C2228 1.360 . S
C2229 C2230 1.365 . S
C2229 H2295 0.929 . S
C2230 C2205 1.553 . S
C2230 C2229 1.365 . S
C2230 C2231 1.404 . S
C2231 C2230 1.404 . S
C2231 C2232 1.395 . S
C2231 C2242 1.451 . S
C2232 C2231 1.395 . S
C2232 C2233 1.322 . S
C2232 H2296 0.930 . S
C2233 C2232 1.322 . S
C2233 C2234 1.459 . S
C2233 H2297 0.929 . S
C2234 C2233 1.459 . S
C2234 C2235 1.445 . S
C2234 C2243 1.395 . S
C2235 C2213 1.432 . S
C2235 C2234 1.445 . S
C2235 C2236 1.370 . S
C2236 C2235 1.370 . S
C2236 C2237 1.438 . S
C2236 H2298 0.930 . S
C2237 C2223 1.497 . S
C2237 C2236 1.438 . S
C2237 C2238 1.360 . S
C2238 C2237 1.360 . S
C2238 C2239 1.401 . S
C2238 C2243 1.446 . S
C2239 C2238 1.401 . S
C2239 C2240 1.347 . S
C2239 H2299 0.929 . S
C2240 C2239 1.347 . S
C2240 C2241 1.455 . S
C2240 H2300 0.930 . S
C2241 C2228 1.412 . S
C2241 C2240 1.455 . S
C2241 C2242 1.331 . S
C2242 C2231 1.451 . S
C2242 C2241 1.331 . S
C2242 C2243 1.497 . S
C2243 C2234 1.395 . S
C2243 C2238 1.446 . S
C2243 C2242 1.497 . S
C2244 C2245 1.582 . S
C2244 H2301 0.962 . S
C2244 H2302 0.959 . S
C2244 H2303 0.958 . S
C2245 C2244 1.582 . S
C2245 O2248 1.458 . S
C2245 H2274 0.980 . S
O2246 C2191 1.426 . S
O2246 C2192 1.334 . S
O2247 C2219 1.412 . S
O2247 C2220 1.393 . S
O2248 C2210 1.435 . S
O2248 C2245 1.458 . S
O2249 C2201 1.468 . S
O2249 C2202 1.408 . S
H2250 C2191 0.980 . S
H2251 C2190 0.959 . S
H2252 C2190 0.959 . S
H2253 C2190 0.960 . S
H2254 C2193 0.929 . S
H2255 C2197 0.929 . S
H2256 C2198 0.959 . S
H2257 C2198 0.961 . S
H2258 C2198 0.961 . S
H2259 C2199 0.960 . S
H2260 C2199 0.960 . S
H2261 C2199 0.961 . S
H2262 C2201 0.980 . S
H2263 C2200 0.961 . S
H2264 C2200 0.960 . S
H2265 C2200 0.959 . S
H2266 C2203 0.930 . S
H2267 C2207 0.931 . S
H2268 C2208 0.959 . S
H2269 C2208 0.961 . S
H2270 C2208 0.959 . S
H2271 C2209 0.960 . S
H2272 C2209 0.960 . S
H2273 C2209 0.960 . S
H2274 C2245 0.980 . S
H2275 C2211 0.930 . S
H2276 C2215 0.930 . S
H2277 C2216 0.961 . S
H2278 C2216 0.960 . S
H2279 C2216 0.958 . S
H2280 C2217 0.961 . S
H2281 C2217 0.960 . S
H2282 C2217 0.960 . S
H2283 C2219 0.980 . S
H2284 C2218 0.961 . S
H2285 C2218 0.961 . S
H2286 C2218 0.959 . S
H2287 C2221 0.932 . S
H2288 C2225 0.929 . S
H2289 C2226 0.961 . S
H2290 C2226 0.959 . S
H2291 C2226 0.959 . S
H2292 C2227 0.960 . S
H2293 C2227 0.962 . S
H2294 C2227 0.961 . S
H2295 C2229 0.929 . S
H2296 C2232 0.930 . S
H2297 C2233 0.929 . S
H2298 C2236 0.930 . S
H2299 C2239 0.929 . S
H2300 C2240 0.930 . S
H2301 C2244 0.962 . S
H2302 C2244 0.959 . S
H2303 C2244 0.958 . S
C2304 C2305 1.349 . S
C2304 C2306 1.327 . S
C2304 H2329 0.950 . S
C2305 C2304 1.349 . S
C2305 C2321 1.349 . S
C2306 C2304 1.327 . S
C2306 C2325 1.429 . S
C2306 H2330 0.950 . S
C2307 C2324 1.574 . S
C2307 C2326 1.368 . S
C2307 H2331 0.947 . S
H2308 C2312 0.949 . S
C2309 C2310 1.349 . S
C2309 C2311 1.327 . S
C2309 H2332 0.970 . S
C2310 C2309 1.349 . S
C2310 C2322 1.349 . S
C2311 C2309 1.327 . S
C2311 C2327 1.429 . S
C2311 H2333 0.978 . S
C2312 H2308 0.949 . S
C2312 C2320 1.574 . S
C2312 C2328 1.368 . S
H2313 C2321 0.948 1_455 S
H2314 C2319 0.951 1_455 S
H2315 C2320 0.949 . S
H2316 C2322 0.950 . S
H2317 C2323 0.950 . S
H2318 C2324 0.954 . S
C2319 H2314 0.951 1_655 S
C2319 C2321 1.327 . S
C2319 C2325 1.429 . S
C2320 C2312 1.574 . S
C2320 H2315 0.949 . S
C2320 C2326 1.368 . S
C2321 C2305 1.349 . S
C2321 H2313 0.948 1_655 S
C2321 C2319 1.327 . S
C2322 C2310 1.349 . S
C2322 H2316 0.950 . S
C2322 C2323 1.327 . S
C2323 H2317 0.950 . S
C2323 C2322 1.327 . S
C2323 C2327 1.429 . S
C2324 C2307 1.574 . S
C2324 H2318 0.954 . S
C2324 C2328 1.368 . S
C2325 C2306 1.429 . S
C2325 C2319 1.429 . S
C2325 C2326 1.523 . S
C2326 C2307 1.368 . S
C2326 C2320 1.368 . S
C2326 C2325 1.523 . S
C2327 C2311 1.429 . S
C2327 C2323 1.429 . S
C2327 C2328 1.523 . S
C2328 C2312 1.368 . S
C2328 C2324 1.368 . S
C2328 C2327 1.523 . S
H2329 C2304 0.950 . S
H2330 C2306 0.950 . S
H2331 C2307 0.947 . S
H2332 C2309 0.970 . S
H2333 C2311 0.978 . S
C2334 C2335 1.349 . S
C2334 C2336 1.327 . S
C2334 H2359 0.950 . S
C2335 C2334 1.349 . S
C2335 C2351 1.349 . S
C2336 C2334 1.327 . S
C2336 C2355 1.429 . S
C2336 H2360 0.950 . S
C2337 C2354 1.574 . S
C2337 C2356 1.368 . S
C2337 H2361 0.949 . S
H2338 C2342 0.949 . S
C2339 C2340 1.349 . S
C2339 C2341 1.327 . S
C2339 H2362 0.950 . S
C2340 C2339 1.349 . S
C2340 C2352 1.349 . S
C2341 C2339 1.327 . S
C2341 C2357 1.429 . S
C2341 H2363 0.950 . S
C2342 H2338 0.949 . S
C2342 C2350 1.574 . S
C2342 C2358 1.368 . S
H2343 C2351 0.950 . S
H2344 C2349 0.950 . S
H2345 C2350 0.949 . S
H2346 C2352 0.950 . S
H2347 C2353 0.950 . S
H2348 C2354 0.949 . S
C2349 H2344 0.950 . S
C2349 C2351 1.327 . S
C2349 C2355 1.429 . S
C2350 C2342 1.574 . S
C2350 H2345 0.949 . S
C2350 C2356 1.368 . S
C2351 C2335 1.349 . S
C2351 H2343 0.950 . S
C2351 C2349 1.327 . S
C2352 C2340 1.349 . S
C2352 H2346 0.950 . S
C2352 C2353 1.327 . S
C2353 H2347 0.950 . S
C2353 C2352 1.327 . S
C2353 C2357 1.429 . S
C2354 C2337 1.574 . S
C2354 H2348 0.949 . S
C2354 C2358 1.368 . S
C2355 C2336 1.429 . S
C2355 C2349 1.429 . S
C2355 C2356 1.523 . S
C2356 C2337 1.368 . S
C2356 C2350 1.368 . S
C2356 C2355 1.523 . S
C2357 C2341 1.429 . S
C2357 C2353 1.429 . S
C2357 C2358 1.523 . S
C2358 C2342 1.368 . S
C2358 C2354 1.368 . S
C2358 C2357 1.523 . S
H2359 C2334 0.950 . S
H2360 C2336 0.950 . S
H2361 C2337 0.949 . S
H2362 C2339 0.950 . S
H2363 C2341 0.950 . S
C2364 C2365 1.349 . S
C2364 C2366 1.327 . S
C2364 H2389 0.950 . S
C2365 C2364 1.349 . S
C2365 C2381 1.349 . S
C2366 C2364 1.327 . S
C2366 C2385 1.429 . S
C2366 H2390 0.950 . S
C2367 C2384 1.574 . S
C2367 C2386 1.368 . S
C2367 H2391 0.949 . S
H2368 C2372 0.949 . S
C2369 C2370 1.349 . S
C2369 C2371 1.327 . S
C2369 H2392 0.950 . S
C2370 C2369 1.349 . S
C2370 C2382 1.349 . S
C2371 C2369 1.327 . S
C2371 C2387 1.429 . S
C2371 H2393 0.950 . S
C2372 H2368 0.949 . S
C2372 C2380 1.574 . S
C2372 C2388 1.368 . S
H2373 C2381 0.950 . S
H2374 C2379 0.950 . S
H2375 C2380 0.949 . S
H2376 C2382 0.950 . S
H2377 C2383 0.950 . S
H2378 C2384 0.949 . S
C2379 H2374 0.950 . S
C2379 C2381 1.327 . S
C2379 C2385 1.429 . S
C2380 C2372 1.574 . S
C2380 H2375 0.949 . S
C2380 C2386 1.368 . S
C2381 C2365 1.349 . S
C2381 H2373 0.950 . S
C2381 C2379 1.327 . S
C2382 C2370 1.349 . S
C2382 H2376 0.950 . S
C2382 C2383 1.327 . S
C2383 H2377 0.950 . S
C2383 C2382 1.327 . S
C2383 C2387 1.429 . S
C2384 C2367 1.574 . S
C2384 H2378 0.949 . S
C2384 C2388 1.368 . S
C2385 C2366 1.429 . S
C2385 C2379 1.429 . S
C2385 C2386 1.523 . S
C2386 C2367 1.368 . S
C2386 C2380 1.368 . S
C2386 C2385 1.523 . S
C2387 C2371 1.429 . S
C2387 C2383 1.429 . S
C2387 C2388 1.523 . S
C2388 C2372 1.368 . S
C2388 C2384 1.368 . S
C2388 C2387 1.523 . S
H2389 C2364 0.950 . S
H2390 C2366 0.950 . S
H2391 C2367 0.949 . S
H2392 C2369 0.950 . S
H2393 C2371 0.950 . S
C2394 C2395 1.349 1_545 S
C2394 C2396 1.327 . S
C2394 H2419 0.950 . S
C2395 C2394 1.349 1_565 S
C2395 C2411 1.349 . S
C2396 C2394 1.327 . S
C2396 C2415 1.429 1_545 S
C2396 H2420 0.950 . S
C2397 C2414 1.574 . S
C2397 C2416 1.368 . S
C2397 H2421 0.949 . S
H2398 C2402 0.949 . S
C2399 C2400 1.349 . S
C2399 C2401 1.327 . S
C2399 H2422 0.950 . S
C2400 C2399 1.349 . S
C2400 C2412 1.349 1_565 S
C2401 C2399 1.327 . S
C2401 C2417 1.429 . S
C2401 H2423 0.950 . S
C2402 H2398 0.949 . S
C2402 C2410 1.574 . S
C2402 C2418 1.368 1_545 S
H2403 C2411 0.950 . S
H2404 C2409 0.950 . S
H2405 C2410 0.949 . S
H2406 C2412 0.950 . S
H2407 C2413 0.950 . S
H2408 C2414 0.949 . S
C2409 H2404 0.950 . S
C2409 C2411 1.327 . S
C2409 C2415 1.429 . S
C2410 C2402 1.574 . S
C2410 H2405 0.949 . S
C2410 C2416 1.368 1_545 S
C2411 C2395 1.349 . S
C2411 H2403 0.950 . S
C2411 C2409 1.327 . S
C2412 C2400 1.349 1_545 S
C2412 H2406 0.950 . S
C2412 C2413 1.327 . S
C2413 H2407 0.950 . S
C2413 C2412 1.327 . S
C2413 C2417 1.429 1_545 S
C2414 C2397 1.574 . S
C2414 H2408 0.949 . S
C2414 C2418 1.368 . S
C2415 C2396 1.429 1_565 S
C2415 C2409 1.429 . S
C2415 C2416 1.523 . S
C2416 C2397 1.368 . S
C2416 C2410 1.368 1_565 S
C2416 C2415 1.523 . S
C2417 C2401 1.429 . S
C2417 C2413 1.429 1_565 S
C2417 C2418 1.523 . S
C2418 C2402 1.368 1_565 S
C2418 C2414 1.368 . S
C2418 C2417 1.523 . S
H2419 C2394 0.950 . S
H2420 C2396 0.950 . S
H2421 C2397 0.949 . S
H2422 C2399 0.950 . S
H2423 C2401 0.950 . S
C2424 C2425 1.349 . S
C2424 C2426 1.327 . S
C2424 H2449 0.950 . S
C2425 C2424 1.349 . S
C2425 C2441 1.349 . S
C2426 C2424 1.327 . S
C2426 C2445 1.429 . S
C2426 H2450 0.950 . S
C2427 C2444 1.574 . S
C2427 C2446 1.368 . S
C2427 H2451 0.949 1_455 S
H2428 C2432 0.949 . S
C2429 C2430 1.349 . S
C2429 C2431 1.307 . S
C2429 H2452 0.945 1_455 S
C2430 C2429 1.349 . S
C2430 C2442 1.349 . S
C2431 C2429 1.307 . S
C2431 C2447 1.458 . S
C2431 H2453 0.949 1_455 S
C2432 H2428 0.949 . S
C2432 C2440 1.574 . S
C2432 C2448 1.368 . S
H2433 C2441 0.950 1_655 S
H2434 C2439 0.950 1_655 S
H2435 C2440 0.949 . S
H2436 C2442 0.950 . S
H2437 C2443 0.950 . S
H2438 C2444 0.949 1_655 S
C2439 H2434 0.950 1_455 S
C2439 C2441 1.327 . S
C2439 C2445 1.429 . S
C2440 C2432 1.574 . S
C2440 H2435 0.949 . S
C2440 C2446 1.368 . S
C2441 C2425 1.349 . S
C2441 H2433 0.950 1_455 S
C2441 C2439 1.327 . S
C2442 C2430 1.349 . S
C2442 H2436 0.950 . S
C2442 C2443 1.327 . S
C2443 H2437 0.950 . S
C2443 C2442 1.327 . S
C2443 C2447 1.429 . S
C2444 C2427 1.574 . S
C2444 H2438 0.949 1_455 S
C2444 C2448 1.368 . S
C2445 C2426 1.429 . S
C2445 C2439 1.429 . S
C2445 C2446 1.523 . S
C2446 C2427 1.368 . S
C2446 C2440 1.368 . S
C2446 C2445 1.523 . S
C2447 C2431 1.458 . S
C2447 C2443 1.429 . S
C2447 C2448 1.523 . S
C2448 C2432 1.368 . S
C2448 C2444 1.368 . S
C2448 C2447 1.523 . S
H2449 C2424 0.950 . S
H2450 C2426 0.950 . S
H2451 C2427 0.949 1_655 S
H2452 C2429 0.945 1_655 S
H2453 C2431 0.949 1_655 S
C2454 C2455 1.349 . S
C2454 C2456 1.327 . S
C2454 H2479 0.950 1_556 S
C2455 C2454 1.349 . S
C2455 C2471 1.349 . S
C2456 C2454 1.327 . S
C2456 C2475 1.429 . S
C2456 H2480 0.950 . S
C2457 C2474 1.574 . S
C2457 C2476 1.368 . S
C2457 H2481 0.949 . S
H2458 C2462 0.949 . S
C2459 C2460 1.349 . S
C2459 C2461 1.327 . S
C2459 H2482 0.950 . S
C2460 C2459 1.349 . S
C2460 C2472 1.349 . S
C2461 C2459 1.327 . S
C2461 C2477 1.429 . S
C2461 H2483 0.950 . S
C2462 H2458 0.949 . S
C2462 C2470 1.574 . S
C2462 C2478 1.368 . S
H2463 C2471 0.950 . S
H2464 C2469 0.950 . S
H2465 C2470 0.949 . S
H2466 C2472 0.950 . S
H2467 C2473 0.950 . S
H2468 C2474 0.949 . S
C2469 H2464 0.950 . S
C2469 C2471 1.327 . S
C2469 C2475 1.429 . S
C2470 C2462 1.574 . S
C2470 H2465 0.949 . S
C2470 C2476 1.368 . S
C2471 C2455 1.349 . S
C2471 H2463 0.950 . S
C2471 C2469 1.327 . S
C2472 C2460 1.349 . S
C2472 H2466 0.950 . S
C2472 C2473 1.327 . S
C2473 H2467 0.950 . S
C2473 C2472 1.327 . S
C2473 C2477 1.429 . S
C2474 C2457 1.574 . S
C2474 H2468 0.949 . S
C2474 C2478 1.368 . S
C2475 C2456 1.429 . S
C2475 C2469 1.429 . S
C2475 C2476 1.523 . S
C2476 C2457 1.368 . S
C2476 C2470 1.368 . S
C2476 C2475 1.523 . S
C2477 C2461 1.429 . S
C2477 C2473 1.429 . S
C2477 C2478 1.523 . S
C2478 C2462 1.368 . S
C2478 C2474 1.368 . S
C2478 C2477 1.523 . S
H2479 C2454 0.950 1_554 S
H2480 C2456 0.950 . S
H2481 C2457 0.949 . S
H2482 C2459 0.950 . S
H2483 C2461 0.950 . S
C2484 C2485 1.302 1_655 S
C2484 C2486 1.303 . S
C2484 H2509 1.026 . S
C2485 C2484 1.302 1_455 S
C2485 C2501 1.349 . S
C2486 C2484 1.303 . S
C2486 C2505 1.429 1_655 S
C2486 H2510 0.950 . S
C2487 C2504 1.574 . S
C2487 C2506 1.368 . S
C2487 H2511 0.949 . S
H2488 C2492 0.949 . S
C2489 C2490 1.349 . S
C2489 C2491 1.327 . S
C2489 H2512 0.950 . S
C2490 C2489 1.349 . S
C2490 C2502 1.349 1_455 S
C2491 C2489 1.327 . S
C2491 C2507 1.429 . S
C2491 H2513 0.950 . S
C2492 H2488 0.949 . S
C2492 C2500 1.574 . S
C2492 C2508 1.368 1_655 S
H2493 C2501 0.950 . S
H2494 C2499 0.950 . S
H2495 C2500 0.949 . S
H2496 C2502 0.950 . S
H2497 C2503 0.950 . S
H2498 C2504 0.949 . S
C2499 H2494 0.950 . S
C2499 C2501 1.327 . S
C2499 C2505 1.429 . S
C2500 C2492 1.574 . S
C2500 H2495 0.949 . S
C2500 C2506 1.368 1_655 S
C2501 C2485 1.349 . S
C2501 H2493 0.950 . S
C2501 C2499 1.327 . S
C2502 C2490 1.349 1_655 S
C2502 H2496 0.950 . S
C2502 C2503 1.327 . S
C2503 H2497 0.950 . S
C2503 C2502 1.327 . S
C2503 C2507 1.429 1_655 S
C2504 C2487 1.574 . S
C2504 H2498 0.949 . S
C2504 C2508 1.368 . S
C2505 C2486 1.429 1_455 S
C2505 C2499 1.429 . S
C2505 C2506 1.523 . S
C2506 C2487 1.368 . S
C2506 C2500 1.368 1_455 S
C2506 C2505 1.523 . S
C2507 C2491 1.429 . S
C2507 C2503 1.429 1_455 S
C2507 C2508 1.523 . S
C2508 C2492 1.368 1_455 S
C2508 C2504 1.368 . S
C2508 C2507 1.523 . S
H2509 C2484 1.026 . S
H2510 C2486 0.950 . S
H2511 C2487 0.949 . S
H2512 C2489 0.950 . S
H2513 C2491 0.950 . S
C2514 C2515 1.349 . S
C2514 C2516 1.327 . S
C2514 H2539 0.950 . S
C2515 C2514 1.349 . S
C2515 C2531 1.349 . S
C2516 C2514 1.327 . S
C2516 C2535 1.429 . S
C2516 H2540 0.950 . S
C2517 C2534 1.574 . S
C2517 C2536 1.368 . S
C2517 H2541 0.949 . S
H2518 C2522 0.949 . S
C2519 C2520 1.349 . S
C2519 C2521 1.327 . S
C2519 H2542 0.950 . S
C2520 C2519 1.349 . S
C2520 C2532 1.349 . S
C2521 C2519 1.327 . S
C2521 C2537 1.429 . S
C2521 H2543 0.950 . S
C2522 H2518 0.949 . S
C2522 C2530 1.574 . S
C2522 C2538 1.368 . S
H2523 C2531 0.950 . S
H2524 C2529 0.950 . S
H2525 C2530 0.949 . S
H2526 C2532 0.950 . S
H2527 C2533 0.950 . S
H2528 C2534 0.949 . S
C2529 H2524 0.950 . S
C2529 C2531 1.327 . S
C2529 C2535 1.429 . S
C2530 C2522 1.574 . S
C2530 H2525 0.949 . S
C2530 C2536 1.368 . S
C2531 C2515 1.349 . S
C2531 H2523 0.950 . S
C2531 C2529 1.327 . S
C2532 C2520 1.349 . S
C2532 H2526 0.950 . S
C2532 C2533 1.327 . S
C2533 H2527 0.950 . S
C2533 C2532 1.327 . S
C2533 C2537 1.429 . S
C2534 C2517 1.574 . S
C2534 H2528 0.949 . S
C2534 C2538 1.368 . S
C2535 C2516 1.429 . S
C2535 C2529 1.429 . S
C2535 C2536 1.523 . S
C2536 C2517 1.368 . S
C2536 C2530 1.368 . S
C2536 C2535 1.523 . S
C2537 C2521 1.429 . S
C2537 C2533 1.429 . S
C2537 C2538 1.523 . S
C2538 C2522 1.368 . S
C2538 C2534 1.368 . S
C2538 C2537 1.523 . S
H2539 C2514 0.950 . S
H2540 C2516 0.950 . S
H2541 C2517 0.949 . S
H2542 C2519 0.950 . S
H2543 C2521 0.950 . S
C2544 C2545 1.349 1_545 S
C2544 C2546 1.327 . S
C2544 H2569 0.950 . S
C2545 C2544 1.349 1_565 S
C2545 C2561 1.349 . S
C2546 C2544 1.327 . S
C2546 C2565 1.429 1_545 S
C2546 H2570 0.950 . S
C2547 C2564 1.574 . S
C2547 C2566 1.368 . S
C2547 H2571 0.949 . S
H2548 C2552 0.949 . S
C2549 C2550 1.349 . S
C2549 C2551 1.327 . S
C2549 H2572 0.950 . S
C2550 C2549 1.349 . S
C2550 C2562 1.349 1_565 S
C2551 C2549 1.327 . S
C2551 C2567 1.429 . S
C2551 H2573 0.950 . S
C2552 H2548 0.949 . S
C2552 C2560 1.574 . S
C2552 C2568 1.368 1_545 S
H2553 C2561 0.950 . S
H2554 C2559 0.950 . S
H2555 C2560 0.949 . S
H2556 C2562 0.950 . S
H2557 C2563 0.950 . S
H2558 C2564 0.949 . S
C2559 H2554 0.950 . S
C2559 C2561 1.327 . S
C2559 C2565 1.429 . S
C2560 C2552 1.574 . S
C2560 H2555 0.949 . S
C2560 C2566 1.368 1_545 S
C2561 C2545 1.349 . S
C2561 H2553 0.950 . S
C2561 C2559 1.327 . S
C2562 C2550 1.349 1_545 S
C2562 H2556 0.950 . S
C2562 C2563 1.327 . S
C2563 H2557 0.950 . S
C2563 C2562 1.327 . S
C2563 C2567 1.429 1_545 S
C2564 C2547 1.574 . S
C2564 H2558 0.949 . S
C2564 C2568 1.368 . S
C2565 C2546 1.429 1_565 S
C2565 C2559 1.429 . S
C2565 C2566 1.523 . S
C2566 C2547 1.368 . S
C2566 C2560 1.368 1_565 S
C2566 C2565 1.523 . S
C2567 C2551 1.429 . S
C2567 C2563 1.429 1_565 S
C2567 C2568 1.523 . S
C2568 C2552 1.368 1_565 S
C2568 C2564 1.368 . S
C2568 C2567 1.523 . S
H2569 C2544 0.950 . S
H2570 C2546 0.950 . S
H2571 C2547 0.949 . S
H2572 C2549 0.950 . S
H2573 C2551 0.950 . S
C2574 C2575 1.296 1_565 S
C2574 C2576 1.305 . S
C2574 H2599 1.031 . S
C2575 C2574 1.296 1_545 S
C2575 C2591 1.349 . S
C2576 C2574 1.305 . S
C2576 C2595 1.429 1_565 S
C2576 H2600 0.950 . S
C2577 C2594 1.574 . S
C2577 C2596 1.368 . S
C2577 H2601 0.949 . S
H2578 C2582 0.949 . S
C2579 C2580 1.379 . S
C2579 C2581 1.327 . S
C2579 H2602 0.950 . S
C2580 C2579 1.379 . S
C2580 C2592 1.305 1_545 S
C2581 C2579 1.327 . S
C2581 C2597 1.429 . S
C2581 H2603 0.950 . S
C2582 H2578 0.949 . S
C2582 C2590 1.574 . S
C2582 C2598 1.368 1_565 S
H2583 C2591 0.950 . S
H2584 C2589 0.950 . S
H2585 C2590 0.949 . S
H2586 C2592 0.950 . S
H2587 C2593 0.950 . S
H2588 C2594 0.949 . S
C2589 H2584 0.950 . S
C2589 C2591 1.327 . S
C2589 C2595 1.429 . S
C2590 C2582 1.574 . S
C2590 H2585 0.949 . S
C2590 C2596 1.368 1_565 S
C2591 C2575 1.349 . S
C2591 H2583 0.950 . S
C2591 C2589 1.327 . S
C2592 C2580 1.305 1_565 S
C2592 H2586 0.950 . S
C2592 C2593 1.327 . S
C2593 H2587 0.950 . S
C2593 C2592 1.327 . S
C2593 C2597 1.429 1_565 S
C2594 C2577 1.574 . S
C2594 H2588 0.949 . S
C2594 C2598 1.368 . S
C2595 C2576 1.429 1_545 S
C2595 C2589 1.429 . S
C2595 C2596 1.523 . S
C2596 C2577 1.368 . S
C2596 C2590 1.368 1_545 S
C2596 C2595 1.523 . S
C2597 C2581 1.429 . S
C2597 C2593 1.429 1_545 S
C2597 C2598 1.523 . S
C2598 C2582 1.368 1_545 S
C2598 C2594 1.368 . S
C2598 C2597 1.523 . S
H2599 C2574 1.031 . S
H2600 C2576 0.950 . S
H2601 C2577 0.949 . S
H2602 C2579 0.950 . S
H2603 C2581 0.950 . S
C2604 C2605 1.349 . S
C2604 C2606 1.327 . S
C2604 H2629 0.950 . S
C2605 C2604 1.349 . S
C2605 C2621 1.349 1_655 S
C2606 C2604 1.327 . S
C2606 C2625 1.429 . S
C2606 H2630 0.950 . S
C2607 C2624 1.574 . S
C2607 C2626 1.368 1_455 S
C2607 H2631 0.949 . S
H2608 C2612 0.949 . S
C2609 C2610 1.349 1_455 S
C2609 C2611 1.327 . S
C2609 H2632 0.950 . S
C2610 C2609 1.349 1_655 S
C2610 C2622 1.349 . S
C2611 C2609 1.327 . S
C2611 C2627 1.429 1_455 S
C2611 H2633 0.950 . S
C2612 H2608 0.949 . S
C2612 C2620 1.574 . S
C2612 C2628 1.368 . S
H2613 C2621 0.950 . S
H2614 C2619 0.950 . S
H2615 C2620 0.949 . S
H2616 C2622 0.950 . S
H2617 C2623 0.950 . S
H2618 C2624 0.949 . S
C2619 H2614 0.950 . S
C2619 C2621 1.327 . S
C2619 C2625 1.429 1_455 S
C2620 C2612 1.574 . S
C2620 H2615 0.949 . S
C2620 C2626 1.368 . S
C2621 C2605 1.349 1_455 S
C2621 H2613 0.950 . S
C2621 C2619 1.327 . S
C2622 C2610 1.349 . S
C2622 H2616 0.950 . S
C2622 C2623 1.327 . S
C2623 H2617 0.950 . S
C2623 C2622 1.327 . S
C2623 C2627 1.429 . S
C2624 C2607 1.574 . S
C2624 H2618 0.949 . S
C2624 C2628 1.368 1_455 S
C2625 C2606 1.429 . S
C2625 C2619 1.429 1_655 S
C2625 C2626 1.523 . S
C2626 C2607 1.368 1_655 S
C2626 C2620 1.368 . S
C2626 C2625 1.523 . S
C2627 C2611 1.429 1_655 S
C2627 C2623 1.429 . S
C2627 C2628 1.523 . S
C2628 C2612 1.368 . S
C2628 C2624 1.368 1_655 S
C2628 C2627 1.523 . S
H2629 C2604 0.950 . S
H2630 C2606 0.950 . S
H2631 C2607 0.949 . S
H2632 C2609 0.950 . S
H2633 C2611 0.950 . S
C2634 C2635 1.349 . S
C2634 C2636 1.327 . S
C2634 H2659 0.950 . S
C2635 C2634 1.349 . S
C2635 C2651 1.349 . S
C2636 C2634 1.327 . S
C2636 C2655 1.429 . S
C2636 H2660 0.950 . S
C2637 C2654 1.574 . S
C2637 C2656 1.368 . S
C2637 H2661 0.949 . S
H2638 C2642 0.949 . S
C2639 C2640 1.349 . S
C2639 C2641 1.327 . S
C2639 H2662 0.950 . S
C2640 C2639 1.349 . S
C2640 C2652 1.349 . S
C2641 C2639 1.327 . S
C2641 C2657 1.429 . S
C2641 H2663 0.950 . S
C2642 H2638 0.949 . S
C2642 C2650 1.574 . S
C2642 C2658 1.368 . S
H2643 C2651 0.950 . S
H2644 C2649 0.950 . S
H2645 C2650 0.949 . S
H2646 C2652 0.950 . S
H2647 C2653 0.950 . S
H2648 C2654 0.949 . S
C2649 H2644 0.950 . S
C2649 C2651 1.327 . S
C2649 C2655 1.429 . S
C2650 C2642 1.574 . S
C2650 H2645 0.949 . S
C2650 C2656 1.368 . S
C2651 C2635 1.349 . S
C2651 H2643 0.950 . S
C2651 C2649 1.327 . S
C2652 C2640 1.349 . S
C2652 H2646 0.950 . S
C2652 C2653 1.327 . S
C2653 H2647 0.950 . S
C2653 C2652 1.327 . S
C2653 C2657 1.429 . S
C2654 C2637 1.574 . S
C2654 H2648 0.949 . S
C2654 C2658 1.368 . S
C2655 C2636 1.429 . S
C2655 C2649 1.429 . S
C2655 C2656 1.523 . S
C2656 C2637 1.368 . S
C2656 C2650 1.368 . S
C2656 C2655 1.523 . S
C2657 C2641 1.429 . S
C2657 C2653 1.429 . S
C2657 C2658 1.523 . S
C2658 C2642 1.368 . S
C2658 C2654 1.368 . S
C2658 C2657 1.523 . S
H2659 C2634 0.950 . S
H2660 C2636 0.950 . S
H2661 C2637 0.949 . S
H2662 C2639 0.950 . S
H2663 C2641 0.950 . S
C2664 C2665 1.349 . S
C2664 C2666 1.327 . S
C2664 H2689 0.950 . S
C2665 C2664 1.349 . S
C2665 C2681 1.349 . S
C2666 C2664 1.327 . S
C2666 C2685 1.429 . S
C2666 H2690 0.950 . S
C2667 C2684 1.574 . S
C2667 C2686 1.368 . S
C2667 H2691 0.949 . S
H2668 C2672 0.949 . S
C2669 C2670 1.349 . S
C2669 C2671 1.327 . S
C2669 H2692 0.950 . S
C2670 C2669 1.349 . S
C2670 C2682 1.349 . S
C2671 C2669 1.327 . S
C2671 C2687 1.429 . S
C2671 H2693 0.950 . S
C2672 H2668 0.949 . S
C2672 C2680 1.574 . S
C2672 C2688 1.368 . S
H2673 C2681 0.950 . S
H2674 C2679 0.950 . S
H2675 C2680 0.949 . S
H2676 C2682 0.950 . S
H2677 C2683 0.950 . S
H2678 C2684 0.949 . S
C2679 H2674 0.950 . S
C2679 C2681 1.327 . S
C2679 C2685 1.429 . S
C2680 C2672 1.574 . S
C2680 H2675 0.949 . S
C2680 C2686 1.368 . S
C2681 C2665 1.349 . S
C2681 H2673 0.950 . S
C2681 C2679 1.327 . S
C2682 C2670 1.349 . S
C2682 H2676 0.950 . S
C2682 C2683 1.327 . S
C2683 H2677 0.950 . S
C2683 C2682 1.327 . S
C2683 C2687 1.429 . S
C2684 C2667 1.574 . S
C2684 H2678 0.949 . S
C2684 C2688 1.368 . S
C2685 C2666 1.429 . S
C2685 C2679 1.429 . S
C2685 C2686 1.523 . S
C2686 C2667 1.368 . S
C2686 C2680 1.368 . S
C2686 C2685 1.523 . S
C2687 C2671 1.429 . S
C2687 C2683 1.429 . S
C2687 C2688 1.523 . S
C2688 C2672 1.368 . S
C2688 C2684 1.368 . S
C2688 C2687 1.523 . S
H2689 C2664 0.950 . S
H2690 C2666 0.950 . S
H2691 C2667 0.949 . S
H2692 C2669 0.950 . S
H2693 C2671 0.950 . S
C2694 C2695 1.349 . S
C2694 C2696 1.327 . S
C2694 H2719 0.950 . S
C2695 C2694 1.349 . S
C2695 C2711 1.349 . S
C2696 C2694 1.327 . S
C2696 C2715 1.429 . S
C2696 H2720 0.950 . S
C2697 C2714 1.574 . S
C2697 C2716 1.368 . S
C2697 H2721 0.949 . S
H2698 C2702 0.949 . S
C2699 C2700 1.349 . S
C2699 C2701 1.327 . S
C2699 H2722 0.950 . S
C2700 C2699 1.349 . S
C2700 C2712 1.349 . S
C2701 C2699 1.327 . S
C2701 C2717 1.429 . S
C2701 H2723 0.950 . S
C2702 H2698 0.949 . S
C2702 C2710 1.574 . S
C2702 C2718 1.368 . S
H2703 C2711 0.950 . S
H2704 C2709 0.950 . S
H2705 C2710 0.949 . S
H2706 C2712 0.950 . S
H2707 C2713 0.950 . S
H2708 C2714 0.949 . S
C2709 H2704 0.950 . S
C2709 C2711 1.327 . S
C2709 C2715 1.429 . S
C2710 C2702 1.574 . S
C2710 H2705 0.949 . S
C2710 C2716 1.368 . S
C2711 C2695 1.349 . S
C2711 H2703 0.950 . S
C2711 C2709 1.327 . S
C2712 C2700 1.349 . S
C2712 H2706 0.950 . S
C2712 C2713 1.327 . S
C2713 H2707 0.950 . S
C2713 C2712 1.327 . S
C2713 C2717 1.429 . S
C2714 C2697 1.574 . S
C2714 H2708 0.949 . S
C2714 C2718 1.368 . S
C2715 C2696 1.429 . S
C2715 C2709 1.429 . S
C2715 C2716 1.523 . S
C2716 C2697 1.368 . S
C2716 C2710 1.368 . S
C2716 C2715 1.523 . S
C2717 C2701 1.429 . S
C2717 C2713 1.429 . S
C2717 C2718 1.523 . S
C2718 C2702 1.368 . S
C2718 C2714 1.368 . S
C2718 C2717 1.523 . S
H2719 C2694 0.950 . S
H2720 C2696 0.950 . S
H2721 C2697 0.949 . S
H2722 C2699 0.950 . S
H2723 C2701 0.950 . S
C2724 C2725 1.349 . S
C2724 C2726 1.327 . S
C2724 H2749 0.950 . S
C2725 C2724 1.349 . S
C2725 C2741 1.349 . S
C2726 C2724 1.327 . S
C2726 C2745 1.429 . S
C2726 H2750 0.950 . S
C2727 C2744 1.574 . S
C2727 C2746 1.368 . S
C2727 H2751 0.949 . S
H2728 C2732 0.949 . S
C2729 C2730 1.349 . S
C2729 C2731 1.327 . S
C2729 H2752 0.950 . S
C2730 C2729 1.349 . S
C2730 C2742 1.349 . S
C2731 C2729 1.327 . S
C2731 C2747 1.429 . S
C2731 H2753 0.950 . S
C2732 H2728 0.949 . S
C2732 C2740 1.574 . S
C2732 C2748 1.368 . S
H2733 C2741 0.950 . S
H2734 C2739 0.950 . S
H2735 C2740 0.949 . S
H2736 C2742 0.950 . S
H2737 C2743 0.950 . S
H2738 C2744 0.949 . S
C2739 H2734 0.950 . S
C2739 C2741 1.327 . S
C2739 C2745 1.429 . S
C2740 C2732 1.574 . S
C2740 H2735 0.949 . S
C2740 C2746 1.368 . S
C2741 C2725 1.349 . S
C2741 H2733 0.950 . S
C2741 C2739 1.327 . S
C2742 C2730 1.349 . S
C2742 H2736 0.950 . S
C2742 C2743 1.327 . S
C2743 H2737 0.950 . S
C2743 C2742 1.327 . S
C2743 C2747 1.429 . S
C2744 C2727 1.574 . S
C2744 H2738 0.949 . S
C2744 C2748 1.368 . S
C2745 C2726 1.429 . S
C2745 C2739 1.429 . S
C2745 C2746 1.523 . S
C2746 C2727 1.368 . S
C2746 C2740 1.368 . S
C2746 C2745 1.523 . S
C2747 C2731 1.429 . S
C2747 C2743 1.429 . S
C2747 C2748 1.523 . S
C2748 C2732 1.368 . S
C2748 C2744 1.368 . S
C2748 C2747 1.523 . S
H2749 C2724 0.950 . S
H2750 C2726 0.950 . S
H2751 C2727 0.949 . S
H2752 C2729 0.950 . S
H2753 C2731 0.950 . S
C2754 C2755 1.349 . S
C2754 C2756 1.327 . S
C2754 H2779 0.950 . S
C2755 C2754 1.349 . S
C2755 C2771 1.349 . S
C2756 C2754 1.327 . S
C2756 C2775 1.429 . S
C2756 H2780 0.950 . S
C2757 C2774 1.574 . S
C2757 C2776 1.368 . S
C2757 H2781 0.949 . S
H2758 C2762 0.949 . S
C2759 C2760 1.349 . S
C2759 C2761 1.327 . S
C2759 H2782 0.950 . S
C2760 C2759 1.349 . S
C2760 C2772 1.349 . S
C2761 C2759 1.327 . S
C2761 C2777 1.429 . S
C2761 H2783 0.950 . S
C2762 H2758 0.949 . S
C2762 C2770 1.574 . S
C2762 C2778 1.368 . S
H2763 C2771 0.950 . S
H2764 C2769 0.950 . S
H2765 C2770 0.949 . S
H2766 C2772 0.950 . S
H2767 C2773 0.950 . S
H2768 C2774 0.949 . S
C2769 H2764 0.950 . S
C2769 C2771 1.327 . S
C2769 C2775 1.429 . S
C2770 C2762 1.574 . S
C2770 H2765 0.949 . S
C2770 C2776 1.368 . S
C2771 C2755 1.349 . S
C2771 H2763 0.950 . S
C2771 C2769 1.327 . S
C2772 C2760 1.349 . S
C2772 H2766 0.950 . S
C2772 C2773 1.327 . S
C2773 H2767 0.950 . S
C2773 C2772 1.327 . S
C2773 C2777 1.429 . S
C2774 C2757 1.574 . S
C2774 H2768 0.949 . S
C2774 C2778 1.368 . S
C2775 C2756 1.429 . S
C2775 C2769 1.429 . S
C2775 C2776 1.523 . S
C2776 C2757 1.368 . S
C2776 C2770 1.368 . S
C2776 C2775 1.523 . S
C2777 C2761 1.429 . S
C2777 C2773 1.429 . S
C2777 C2778 1.523 . S
C2778 C2762 1.368 . S
C2778 C2774 1.368 . S
C2778 C2777 1.523 . S
H2779 C2754 0.950 . S
H2780 C2756 0.950 . S
H2781 C2757 0.949 . S
H2782 C2759 0.950 . S
H2783 C2761 0.950 . S
C2784 C2785 1.349 . S
C2784 C2786 1.327 . S
C2784 H2809 0.950 . S
C2785 C2784 1.349 . S
C2785 C2801 1.349 . S
C2786 C2784 1.327 . S
C2786 C2805 1.429 . S
C2786 H2810 0.950 . S
C2787 C2804 1.574 . S
C2787 C2806 1.368 . S
C2787 H2811 0.949 . S
H2788 C2792 0.949 . S
C2789 C2790 1.349 . S
C2789 C2791 1.327 . S
C2789 H2812 0.950 . S
C2790 C2789 1.349 . S
C2790 C2802 1.349 . S
C2791 C2789 1.327 . S
C2791 C2807 1.429 . S
C2791 H2813 0.950 . S
C2792 H2788 0.949 . S
C2792 C2800 1.574 . S
C2792 C2808 1.368 . S
H2793 C2801 0.950 . S
H2794 C2799 0.950 . S
H2795 C2800 0.949 . S
H2796 C2802 0.950 . S
H2797 C2803 0.950 . S
H2798 C2804 0.949 . S
C2799 H2794 0.950 . S
C2799 C2801 1.327 . S
C2799 C2805 1.429 . S
C2800 C2792 1.574 . S
C2800 H2795 0.949 . S
C2800 C2806 1.368 . S
C2801 C2785 1.349 . S
C2801 H2793 0.950 . S
C2801 C2799 1.327 . S
C2802 C2790 1.349 . S
C2802 H2796 0.950 . S
C2802 C2803 1.327 . S
C2803 H2797 0.950 . S
C2803 C2802 1.327 . S
C2803 C2807 1.429 . S
C2804 C2787 1.574 . S
C2804 H2798 0.949 . S
C2804 C2808 1.368 . S
C2805 C2786 1.429 . S
C2805 C2799 1.429 . S
C2805 C2806 1.523 . S
C2806 C2787 1.368 . S
C2806 C2800 1.368 . S
C2806 C2805 1.523 . S
C2807 C2791 1.429 . S
C2807 C2803 1.429 . S
C2807 C2808 1.523 . S
C2808 C2792 1.368 . S
C2808 C2804 1.368 . S
C2808 C2807 1.523 . S
H2809 C2784 0.950 . S
H2810 C2786 0.950 . S
H2811 C2787 0.949 . S
H2812 C2789 0.950 . S
H2813 C2791 0.950 . S
C2814 C2815 1.349 . S
C2814 C2816 1.327 . S
C2814 H2839 0.950 . S
C2815 C2814 1.349 . S
C2815 C2831 1.349 . S
C2816 C2814 1.327 . S
C2816 C2835 1.429 . S
C2816 H2840 0.950 . S
C2817 C2834 1.574 . S
C2817 C2836 1.368 . S
C2817 H2841 0.949 . S
H2818 C2822 0.949 . S
C2819 C2820 1.349 . S
C2819 C2821 1.327 . S
C2819 H2842 0.950 . S
C2820 C2819 1.349 . S
C2820 C2832 1.349 . S
C2821 C2819 1.327 . S
C2821 C2837 1.429 . S
C2821 H2843 0.950 . S
C2822 H2818 0.949 . S
C2822 C2830 1.574 . S
C2822 C2838 1.368 . S
H2823 C2831 0.950 . S
H2824 C2829 0.950 . S
H2825 C2830 0.949 . S
H2826 C2832 0.950 . S
H2827 C2833 0.950 . S
H2828 C2834 0.949 . S
C2829 H2824 0.950 . S
C2829 C2831 1.327 . S
C2829 C2835 1.429 . S
C2830 C2822 1.574 . S
C2830 H2825 0.949 . S
C2830 C2836 1.368 . S
C2831 C2815 1.349 . S
C2831 H2823 0.950 . S
C2831 C2829 1.327 . S
C2832 C2820 1.349 . S
C2832 H2826 0.950 . S
C2832 C2833 1.327 . S
C2833 H2827 0.950 . S
C2833 C2832 1.327 . S
C2833 C2837 1.429 . S
C2834 C2817 1.574 . S
C2834 H2828 0.949 . S
C2834 C2838 1.368 . S
C2835 C2816 1.429 . S
C2835 C2829 1.429 . S
C2835 C2836 1.523 . S
C2836 C2817 1.368 . S
C2836 C2830 1.368 . S
C2836 C2835 1.523 . S
C2837 C2821 1.429 . S
C2837 C2833 1.429 . S
C2837 C2838 1.523 . S
C2838 C2822 1.368 . S
C2838 C2834 1.368 . S
C2838 C2837 1.523 . S
H2839 C2814 0.950 . S
H2840 C2816 0.950 . S
H2841 C2817 0.949 . S
H2842 C2819 0.950 . S
H2843 C2821 0.950 . S
C2844 C2845 1.349 . S
C2844 C2846 1.327 . S
C2844 H2869 0.950 . S
C2845 C2844 1.349 . S
C2845 C2861 1.349 . S
C2846 C2844 1.327 . S
C2846 C2865 1.429 . S
C2846 H2870 0.950 . S
C2847 C2864 1.574 . S
C2847 C2866 1.368 . S
C2847 H2871 0.949 . S
H2848 C2852 0.949 . S
C2849 C2850 1.349 . S
C2849 C2851 1.327 . S
C2849 H2872 0.950 . S
C2850 C2849 1.349 . S
C2850 C2862 1.349 . S
C2851 C2849 1.327 . S
C2851 C2867 1.429 . S
C2851 H2873 0.950 . S
C2852 H2848 0.949 . S
C2852 C2860 1.574 . S
C2852 C2868 1.368 . S
H2853 C2861 0.950 . S
H2854 C2859 0.950 . S
H2855 C2860 0.949 . S
H2856 C2862 0.950 . S
H2857 C2863 0.950 . S
H2858 C2864 0.949 . S
C2859 H2854 0.950 . S
C2859 C2861 1.327 . S
C2859 C2865 1.429 . S
C2860 C2852 1.574 . S
C2860 H2855 0.949 . S
C2860 C2866 1.368 . S
C2861 C2845 1.349 . S
C2861 H2853 0.950 . S
C2861 C2859 1.327 . S
C2862 C2850 1.349 . S
C2862 H2856 0.950 . S
C2862 C2863 1.327 . S
C2863 H2857 0.950 . S
C2863 C2862 1.327 . S
C2863 C2867 1.429 . S
C2864 C2847 1.574 . S
C2864 H2858 0.949 . S
C2864 C2868 1.368 . S
C2865 C2846 1.429 . S
C2865 C2859 1.429 . S
C2865 C2866 1.523 . S
C2866 C2847 1.368 . S
C2866 C2860 1.368 . S
C2866 C2865 1.523 . S
C2867 C2851 1.429 . S
C2867 C2863 1.429 . S
C2867 C2868 1.523 . S
C2868 C2852 1.368 . S
C2868 C2864 1.368 . S
C2868 C2867 1.523 . S
H2869 C2844 0.950 . S
H2870 C2846 0.950 . S
H2871 C2847 0.949 . S
H2872 C2849 0.950 . S
H2873 C2851 0.950 . S
C2874 C2875 1.349 . S
C2874 C2876 1.327 . S
C2874 H2899 0.950 . S
C2875 C2874 1.349 . S
C2875 C2891 1.349 . S
C2876 C2874 1.327 . S
C2876 C2895 1.429 . S
C2876 H2900 0.950 . S
C2877 C2894 1.574 . S
C2877 C2896 1.368 . S
C2877 H2901 0.949 . S
H2878 C2882 0.949 . S
C2879 C2880 1.349 . S
C2879 C2881 1.327 . S
C2879 H2902 0.950 . S
C2880 C2879 1.349 . S
C2880 C2892 1.349 . S
C2881 C2879 1.327 . S
C2881 C2897 1.429 . S
C2881 H2903 0.950 . S
C2882 H2878 0.949 . S
C2882 C2890 1.574 . S
C2882 C2898 1.368 . S
H2883 C2891 0.950 . S
H2884 C2889 0.950 . S
H2885 C2890 0.949 . S
H2886 C2892 0.950 . S
H2887 C2893 0.950 . S
H2888 C2894 0.949 . S
C2889 H2884 0.950 . S
C2889 C2891 1.327 . S
C2889 C2895 1.429 . S
C2890 C2882 1.574 . S
C2890 H2885 0.949 . S
C2890 C2896 1.368 . S
C2891 C2875 1.349 . S
C2891 H2883 0.950 . S
C2891 C2889 1.327 . S
C2892 C2880 1.349 . S
C2892 H2886 0.950 . S
C2892 C2893 1.327 . S
C2893 H2887 0.950 . S
C2893 C2892 1.327 . S
C2893 C2897 1.429 . S
C2894 C2877 1.574 . S
C2894 H2888 0.949 . S
C2894 C2898 1.368 . S
C2895 C2876 1.429 . S
C2895 C2889 1.429 . S
C2895 C2896 1.523 . S
C2896 C2877 1.368 . S
C2896 C2890 1.368 . S
C2896 C2895 1.523 . S
C2897 C2881 1.429 . S
C2897 C2893 1.429 . S
C2897 C2898 1.523 . S
C2898 C2882 1.368 . S
C2898 C2894 1.368 . S
C2898 C2897 1.523 . S
H2899 C2874 0.950 . S
H2900 C2876 0.950 . S
H2901 C2877 0.949 . S
H2902 C2879 0.950 . S
H2903 C2881 0.950 . S
C2904 C2905 1.349 . S
C2904 C2906 1.327 . S
C2904 H2929 0.950 . S
C2905 C2904 1.349 . S
C2905 C2921 1.349 . S
C2906 C2904 1.327 . S
C2906 C2925 1.429 . S
C2906 H2930 0.950 . S
C2907 C2924 1.574 . S
C2907 C2926 1.368 . S
C2907 H2931 0.949 . S
H2908 C2912 0.949 . S
C2909 C2910 1.349 . S
C2909 C2911 1.327 . S
C2909 H2932 0.950 . S
C2910 C2909 1.349 . S
C2910 C2922 1.349 . S
C2911 C2909 1.327 . S
C2911 C2927 1.429 . S
C2911 H2933 0.950 . S
C2912 H2908 0.949 . S
C2912 C2920 1.574 . S
C2912 C2928 1.368 . S
H2913 C2921 0.950 . S
H2914 C2919 0.950 . S
H2915 C2920 0.949 . S
H2916 C2922 0.950 . S
H2917 C2923 0.950 . S
H2918 C2924 0.949 . S
C2919 H2914 0.950 . S
C2919 C2921 1.327 . S
C2919 C2925 1.429 . S
C2920 C2912 1.574 . S
C2920 H2915 0.949 . S
C2920 C2926 1.368 . S
C2921 C2905 1.349 . S
C2921 H2913 0.950 . S
C2921 C2919 1.327 . S
C2922 C2910 1.349 . S
C2922 H2916 0.950 . S
C2922 C2923 1.327 . S
C2923 H2917 0.950 . S
C2923 C2922 1.327 . S
C2923 C2927 1.429 . S
C2924 C2907 1.574 . S
C2924 H2918 0.949 . S
C2924 C2928 1.368 . S
C2925 C2906 1.429 . S
C2925 C2919 1.429 . S
C2925 C2926 1.523 . S
C2926 C2907 1.368 . S
C2926 C2920 1.368 . S
C2926 C2925 1.523 . S
C2927 C2911 1.429 . S
C2927 C2923 1.429 . S
C2927 C2928 1.523 . S
C2928 C2912 1.368 . S
C2928 C2924 1.368 . S
C2928 C2927 1.523 . S
H2929 C2904 0.950 . S
H2930 C2906 0.950 . S
H2931 C2907 0.949 . S
H2932 C2909 0.950 . S
H2933 C2911 0.950 . S
C2934 C2935 1.349 . S
C2934 C2936 1.327 . S
C2934 H2959 0.950 . S
C2935 C2934 1.349 . S
C2935 C2951 1.349 . S
C2936 C2934 1.327 . S
C2936 C2955 1.429 . S
C2936 H2960 0.950 . S
C2937 C2954 1.574 . S
C2937 C2956 1.368 . S
C2937 H2961 0.949 . S
H2938 C2942 0.949 . S
C2939 C2940 1.349 . S
C2939 C2941 1.327 . S
C2939 H2962 0.950 . S
C2940 C2939 1.349 . S
C2940 C2952 1.349 . S
C2941 C2939 1.327 . S
C2941 C2957 1.429 . S
C2941 H2963 0.950 . S
C2942 H2938 0.949 . S
C2942 C2950 1.574 . S
C2942 C2958 1.368 . S
H2943 C2951 0.950 . S
H2944 C2949 0.950 . S
H2945 C2950 0.949 . S
H2946 C2952 0.950 . S
H2947 C2953 0.950 . S
H2948 C2954 0.949 . S
C2949 H2944 0.950 . S
C2949 C2951 1.327 . S
C2949 C2955 1.429 . S
C2950 C2942 1.574 . S
C2950 H2945 0.949 . S
C2950 C2956 1.368 . S
C2951 C2935 1.349 . S
C2951 H2943 0.950 . S
C2951 C2949 1.327 . S
C2952 C2940 1.349 . S
C2952 H2946 0.950 . S
C2952 C2953 1.327 . S
C2953 H2947 0.950 . S
C2953 C2952 1.327 . S
C2953 C2957 1.429 . S
C2954 C2937 1.574 . S
C2954 H2948 0.949 . S
C2954 C2958 1.368 . S
C2955 C2936 1.429 . S
C2955 C2949 1.429 . S
C2955 C2956 1.523 . S
C2956 C2937 1.368 . S
C2956 C2950 1.368 . S
C2956 C2955 1.523 . S
C2957 C2941 1.429 . S
C2957 C2953 1.429 . S
C2957 C2958 1.523 . S
C2958 C2942 1.368 . S
C2958 C2954 1.368 . S
C2958 C2957 1.523 . S
H2959 C2934 0.950 . S
H2960 C2936 0.950 . S
H2961 C2937 0.949 . S
H2962 C2939 0.950 . S
H2963 C2941 0.950 . S
C2964 C2965 1.349 . S
C2964 C2966 1.327 . S
C2964 H2989 0.950 . S
C2965 C2964 1.349 . S
C2965 C2981 1.349 . S
C2966 C2964 1.327 . S
C2966 C2985 1.429 . S
C2966 H2990 0.950 . S
C2967 C2984 1.574 . S
C2967 C2986 1.368 . S
C2967 H2991 0.949 . S
H2968 C2972 0.949 . S
C2969 C2970 1.349 . S
C2969 C2971 1.327 . S
C2969 H2992 0.950 . S
C2970 C2969 1.349 . S
C2970 C2982 1.349 . S
C2971 C2969 1.327 . S
C2971 C2987 1.429 . S
C2971 H2993 0.950 . S
C2972 H2968 0.949 . S
C2972 C2980 1.574 . S
C2972 C2988 1.368 . S
H2973 C2981 0.950 . S
H2974 C2979 0.950 . S
H2975 C2980 0.949 . S
H2976 C2982 0.950 . S
H2977 C2983 0.950 . S
H2978 C2984 0.949 . S
C2979 H2974 0.950 . S
C2979 C2981 1.327 . S
C2979 C2985 1.429 . S
C2980 C2972 1.574 . S
C2980 H2975 0.949 . S
C2980 C2986 1.368 . S
C2981 C2965 1.349 . S
C2981 H2973 0.950 . S
C2981 C2979 1.327 . S
C2982 C2970 1.349 . S
C2982 H2976 0.950 . S
C2982 C2983 1.327 . S
C2983 H2977 0.950 . S
C2983 C2982 1.327 . S
C2983 C2987 1.429 . S
C2984 C2967 1.574 . S
C2984 H2978 0.949 . S
C2984 C2988 1.368 . S
C2985 C2966 1.429 . S
C2985 C2979 1.429 . S
C2985 C2986 1.523 . S
C2986 C2967 1.368 . S
C2986 C2980 1.368 . S
C2986 C2985 1.523 . S
C2987 C2971 1.429 . S
C2987 C2983 1.429 . S
C2987 C2988 1.523 . S
C2988 C2972 1.368 . S
C2988 C2984 1.368 . S
C2988 C2987 1.523 . S
H2989 C2964 0.950 . S
H2990 C2966 0.950 . S
H2991 C2967 0.949 . S
H2992 C2969 0.950 . S
H2993 C2971 0.950 . S
C2994 C2995 1.349 . S
C2994 C2996 1.327 . S
C2994 H3019 0.950 . S
C2995 C2994 1.349 . S
C2995 C3011 1.349 . S
C2996 C2994 1.327 . S
C2996 C3015 1.429 . S
C2996 H3020 0.950 . S
C2997 C3014 1.574 . S
C2997 C3016 1.368 . S
C2997 H3021 0.949 . S
H2998 C3002 0.949 . S
C2999 C3000 1.349 . S
C2999 C3001 1.327 . S
C2999 H3022 0.950 . S
C3000 C2999 1.349 . S
C3000 C3012 1.349 . S
C3001 C2999 1.327 . S
C3001 C3017 1.429 . S
C3001 H3023 0.950 . S
C3002 H2998 0.949 . S
C3002 C3010 1.574 . S
C3002 C3018 1.368 . S
H3003 C3011 0.950 . S
H3004 C3009 0.950 . S
H3005 C3010 0.949 . S
H3006 C3012 0.950 . S
H3007 C3013 0.950 . S
H3008 C3014 0.949 . S
C3009 H3004 0.950 . S
C3009 C3011 1.327 . S
C3009 C3015 1.429 . S
C3010 C3002 1.574 . S
C3010 H3005 0.949 . S
C3010 C3016 1.368 . S
C3011 C2995 1.349 . S
C3011 H3003 0.950 . S
C3011 C3009 1.327 . S
C3012 C3000 1.349 . S
C3012 H3006 0.950 . S
C3012 C3013 1.327 . S
C3013 H3007 0.950 . S
C3013 C3012 1.327 . S
C3013 C3017 1.429 . S
C3014 C2997 1.574 . S
C3014 H3008 0.949 . S
C3014 C3018 1.368 . S
C3015 C2996 1.429 . S
C3015 C3009 1.429 . S
C3015 C3016 1.523 . S
C3016 C2997 1.368 . S
C3016 C3010 1.368 . S
C3016 C3015 1.523 . S
C3017 C3001 1.429 . S
C3017 C3013 1.429 . S
C3017 C3018 1.523 . S
C3018 C3002 1.368 . S
C3018 C3014 1.368 . S
C3018 C3017 1.523 . S
H3019 C2994 0.950 . S
H3020 C2996 0.950 . S
H3021 C2997 0.949 . S
H3022 C2999 0.950 . S
H3023 C3001 0.950 . S
C3024 C3025 1.349 . S
C3024 C3026 1.327 . S
C3024 H3049 0.950 . S
C3025 C3024 1.349 . S
C3025 C3041 1.349 . S
C3026 C3024 1.327 . S
C3026 C3045 1.429 . S
C3026 H3050 0.950 . S
C3027 C3044 1.574 . S
C3027 C3046 1.368 . S
C3027 H3051 0.949 . S
H3028 C3032 0.949 . S
C3029 C3030 1.349 . S
C3029 C3031 1.327 . S
C3029 H3052 0.950 . S
C3030 C3029 1.349 . S
C3030 C3042 1.349 . S
C3031 C3029 1.327 . S
C3031 C3047 1.429 . S
C3031 H3053 0.950 . S
C3032 H3028 0.949 . S
C3032 C3040 1.574 . S
C3032 C3048 1.368 . S
H3033 C3041 0.950 . S
H3034 C3039 0.950 . S
H3035 C3040 0.949 . S
H3036 C3042 0.950 . S
H3037 C3043 0.950 . S
H3038 C3044 0.949 . S
C3039 H3034 0.950 . S
C3039 C3041 1.327 . S
C3039 C3045 1.429 . S
C3040 C3032 1.574 . S
C3040 H3035 0.949 . S
C3040 C3046 1.368 . S
C3041 C3025 1.349 . S
C3041 H3033 0.950 . S
C3041 C3039 1.327 . S
C3042 C3030 1.349 . S
C3042 H3036 0.950 . S
C3042 C3043 1.327 . S
C3043 H3037 0.950 . S
C3043 C3042 1.327 . S
C3043 C3047 1.429 . S
C3044 C3027 1.574 . S
C3044 H3038 0.949 . S
C3044 C3048 1.368 . S
C3045 C3026 1.429 . S
C3045 C3039 1.429 . S
C3045 C3046 1.523 . S
C3046 C3027 1.368 . S
C3046 C3040 1.368 . S
C3046 C3045 1.523 . S
C3047 C3031 1.429 . S
C3047 C3043 1.429 . S
C3047 C3048 1.523 . S
C3048 C3032 1.368 . S
C3048 C3044 1.368 . S
C3048 C3047 1.523 . S
H3049 C3024 0.950 . S
H3050 C3026 0.950 . S
H3051 C3027 0.949 . S
H3052 C3029 0.950 . S
H3053 C3031 0.950 . S
C3054 C3055 1.349 . S
C3054 C3056 1.327 . S
C3054 H3079 0.950 . S
C3055 C3054 1.349 . S
C3055 C3071 1.349 . S
C3056 C3054 1.327 . S
C3056 C3075 1.429 . S
C3056 H3080 0.950 . S
C3057 C3074 1.574 . S
C3057 C3076 1.368 . S
C3057 H3081 0.949 . S
H3058 C3062 0.949 . S
C3059 C3060 1.349 . S
C3059 C3061 1.327 . S
C3059 H3082 0.950 . S
C3060 C3059 1.349 . S
C3060 C3072 1.349 . S
C3061 C3059 1.327 . S
C3061 C3077 1.429 . S
C3061 H3083 0.950 . S
C3062 H3058 0.949 . S
C3062 C3070 1.574 . S
C3062 C3078 1.368 . S
H3063 C3071 0.950 . S
H3064 C3069 0.950 . S
H3065 C3070 0.949 . S
H3066 C3072 0.950 . S
H3067 C3073 0.950 . S
H3068 C3074 0.949 . S
C3069 H3064 0.950 . S
C3069 C3071 1.327 . S
C3069 C3075 1.429 . S
C3070 C3062 1.574 . S
C3070 H3065 0.949 . S
C3070 C3076 1.368 . S
C3071 C3055 1.349 . S
C3071 H3063 0.950 . S
C3071 C3069 1.327 . S
C3072 C3060 1.349 . S
C3072 H3066 0.950 . S
C3072 C3073 1.327 . S
C3073 H3067 0.950 . S
C3073 C3072 1.327 . S
C3073 C3077 1.429 . S
C3074 C3057 1.574 . S
C3074 H3068 0.949 . S
C3074 C3078 1.368 . S
C3075 C3056 1.429 . S
C3075 C3069 1.429 . S
C3075 C3076 1.523 . S
C3076 C3057 1.368 . S
C3076 C3070 1.368 . S
C3076 C3075 1.523 . S
C3077 C3061 1.429 . S
C3077 C3073 1.429 . S
C3077 C3078 1.523 . S
C3078 C3062 1.368 . S
C3078 C3074 1.368 . S
C3078 C3077 1.523 . S
H3079 C3054 0.950 . S
H3080 C3056 0.950 . S
H3081 C3057 0.949 . S
H3082 C3059 0.950 . S
H3083 C3061 0.950 . S
C3084 C3085 1.349 . S
C3084 C3086 1.327 . S
C3084 H3109 0.950 . S
C3085 C3084 1.349 . S
C3085 C3101 1.349 . S
C3086 C3084 1.327 . S
C3086 C3105 1.429 . S
C3086 H3110 0.950 . S
C3087 C3104 1.574 . S
C3087 C3106 1.368 . S
C3087 H3111 0.949 . S
H3088 C3092 0.949 . S
C3089 C3090 1.349 . S
C3089 C3091 1.327 . S
C3089 H3112 0.950 . S
C3090 C3089 1.349 . S
C3090 C3102 1.349 . S
C3091 C3089 1.327 . S
C3091 C3107 1.429 . S
C3091 H3113 0.950 . S
C3092 H3088 0.949 . S
C3092 C3100 1.574 . S
C3092 C3108 1.368 . S
H3093 C3101 0.950 . S
H3094 C3099 0.950 . S
H3095 C3100 0.949 . S
H3096 C3102 0.950 . S
H3097 C3103 0.950 . S
H3098 C3104 0.949 . S
C3099 H3094 0.950 . S
C3099 C3101 1.327 . S
C3099 C3105 1.429 . S
C3100 C3092 1.574 . S
C3100 H3095 0.949 . S
C3100 C3106 1.368 . S
C3101 C3085 1.349 . S
C3101 H3093 0.950 . S
C3101 C3099 1.327 . S
C3102 C3090 1.349 . S
C3102 H3096 0.950 . S
C3102 C3103 1.327 . S
C3103 H3097 0.950 . S
C3103 C3102 1.327 . S
C3103 C3107 1.429 . S
C3104 C3087 1.574 . S
C3104 H3098 0.949 . S
C3104 C3108 1.368 . S
C3105 C3086 1.429 . S
C3105 C3099 1.429 . S
C3105 C3106 1.523 . S
C3106 C3087 1.368 . S
C3106 C3100 1.368 . S
C3106 C3105 1.523 . S
C3107 C3091 1.429 . S
C3107 C3103 1.429 . S
C3107 C3108 1.523 . S
C3108 C3092 1.368 . S
C3108 C3104 1.368 . S
C3108 C3107 1.523 . S
H3109 C3084 0.950 . S
H3110 C3086 0.950 . S
H3111 C3087 0.949 . S
H3112 C3089 0.950 . S
H3113 C3091 0.950 . S
C3114 C3115 1.349 . S
C3114 C3116 1.327 . S
C3114 H3139 0.950 . S
C3115 C3114 1.349 . S
C3115 C3131 1.349 . S
C3116 C3114 1.327 . S
C3116 C3135 1.429 . S
C3116 H3140 0.950 . S
C3117 C3134 1.574 . S
C3117 C3136 1.368 . S
C3117 H3141 0.949 . S
H3118 C3122 0.949 . S
C3119 C3120 1.349 . S
C3119 C3121 1.327 . S
C3119 H3142 0.950 . S
C3120 C3119 1.349 . S
C3120 C3132 1.349 . S
C3121 C3119 1.327 . S
C3121 C3137 1.429 . S
C3121 H3143 0.950 . S
C3122 H3118 0.949 . S
C3122 C3130 1.574 . S
C3122 C3138 1.368 . S
H3123 C3131 0.950 . S
H3124 C3129 0.950 . S
H3125 C3130 0.949 . S
H3126 C3132 0.950 . S
H3127 C3133 0.950 . S
H3128 C3134 0.949 . S
C3129 H3124 0.950 . S
C3129 C3131 1.327 . S
C3129 C3135 1.429 . S
C3130 C3122 1.574 . S
C3130 H3125 0.949 . S
C3130 C3136 1.368 . S
C3131 C3115 1.349 . S
C3131 H3123 0.950 . S
C3131 C3129 1.327 . S
C3132 C3120 1.349 . S
C3132 H3126 0.950 . S
C3132 C3133 1.327 . S
C3133 H3127 0.950 . S
C3133 C3132 1.327 . S
C3133 C3137 1.429 . S
C3134 C3117 1.574 . S
C3134 H3128 0.949 . S
C3134 C3138 1.368 . S
C3135 C3116 1.429 . S
C3135 C3129 1.429 . S
C3135 C3136 1.523 . S
C3136 C3117 1.368 . S
C3136 C3130 1.368 . S
C3136 C3135 1.523 . S
C3137 C3121 1.429 . S
C3137 C3133 1.429 . S
C3137 C3138 1.523 . S
C3138 C3122 1.368 . S
C3138 C3134 1.368 . S
C3138 C3137 1.523 . S
H3139 C3114 0.950 . S
H3140 C3116 0.950 . S
H3141 C3117 0.949 . S
H3142 C3119 0.950 . S
H3143 C3121 0.950 . S
C3144 C3145 1.349 . S
C3144 C3146 1.327 . S
C3144 H3169 0.950 . S
C3145 C3144 1.349 . S
C3145 C3161 1.349 . S
C3146 C3144 1.327 . S
C3146 C3165 1.429 . S
C3146 H3170 0.950 . S
C3147 C3164 1.574 . S
C3147 C3166 1.368 . S
C3147 H3171 0.949 . S
H3148 C3152 0.949 . S
C3149 C3150 1.349 . S
C3149 C3151 1.327 . S
C3149 H3172 0.950 . S
C3150 C3149 1.349 . S
C3150 C3162 1.349 . S
C3151 C3149 1.327 . S
C3151 C3167 1.429 . S
C3151 H3173 0.950 . S
C3152 H3148 0.949 . S
C3152 C3160 1.574 . S
C3152 C3168 1.368 . S
H3153 C3161 0.950 . S
H3154 C3159 0.950 . S
H3155 C3160 0.949 . S
H3156 C3162 0.950 . S
H3157 C3163 0.950 . S
H3158 C3164 0.949 . S
C3159 H3154 0.950 . S
C3159 C3161 1.327 . S
C3159 C3165 1.429 . S
C3160 C3152 1.574 . S
C3160 H3155 0.949 . S
C3160 C3166 1.368 . S
C3161 C3145 1.349 . S
C3161 H3153 0.950 . S
C3161 C3159 1.327 . S
C3162 C3150 1.349 . S
C3162 H3156 0.950 . S
C3162 C3163 1.327 . S
C3163 H3157 0.950 . S
C3163 C3162 1.327 . S
C3163 C3167 1.429 . S
C3164 C3147 1.574 . S
C3164 H3158 0.949 . S
C3164 C3168 1.368 . S
C3165 C3146 1.429 . S
C3165 C3159 1.429 . S
C3165 C3166 1.523 . S
C3166 C3147 1.368 . S
C3166 C3160 1.368 . S
C3166 C3165 1.523 . S
C3167 C3151 1.429 . S
C3167 C3163 1.429 . S
C3167 C3168 1.523 . S
C3168 C3152 1.368 . S
C3168 C3164 1.368 . S
C3168 C3167 1.523 . S
H3169 C3144 0.950 . S
H3170 C3146 0.950 . S
H3171 C3147 0.949 . S
H3172 C3149 0.950 . S
H3173 C3151 0.950 . S
C3174 C3175 1.349 . S
C3174 C3176 1.327 . S
C3174 H3199 0.950 . S
C3175 C3174 1.349 . S
C3175 C3191 1.349 . S
C3176 C3174 1.327 . S
C3176 C3195 1.429 . S
C3176 H3200 0.950 . S
C3177 C3194 1.574 . S
C3177 C3196 1.368 . S
C3177 H3201 0.949 . S
H3178 C3182 0.949 . S
C3179 C3180 1.349 . S
C3179 C3181 1.327 . S
C3179 H3202 0.950 . S
C3180 C3179 1.349 . S
C3180 C3192 1.349 . S
C3181 C3179 1.327 . S
C3181 C3197 1.429 . S
C3181 H3203 0.950 . S
C3182 H3178 0.949 . S
C3182 C3190 1.574 . S
C3182 C3198 1.368 . S
H3183 C3191 0.950 . S
H3184 C3189 0.950 . S
H3185 C3190 0.949 . S
H3186 C3192 0.950 . S
H3187 C3193 0.950 . S
H3188 C3194 0.949 . S
C3189 H3184 0.950 . S
C3189 C3191 1.327 . S
C3189 C3195 1.429 . S
C3190 C3182 1.574 . S
C3190 H3185 0.949 . S
C3190 C3196 1.368 . S
C3191 C3175 1.349 . S
C3191 H3183 0.950 . S
C3191 C3189 1.327 . S
C3192 C3180 1.349 . S
C3192 H3186 0.950 . S
C3192 C3193 1.327 . S
C3193 H3187 0.950 . S
C3193 C3192 1.327 . S
C3193 C3197 1.429 . S
C3194 C3177 1.574 . S
C3194 H3188 0.949 . S
C3194 C3198 1.368 . S
C3195 C3176 1.429 . S
C3195 C3189 1.429 . S
C3195 C3196 1.523 . S
C3196 C3177 1.368 . S
C3196 C3190 1.368 . S
C3196 C3195 1.523 . S
C3197 C3181 1.429 . S
C3197 C3193 1.429 . S
C3197 C3198 1.523 . S
C3198 C3182 1.368 . S
C3198 C3194 1.368 . S
C3198 C3197 1.523 . S
H3199 C3174 0.950 . S
H3200 C3176 0.950 . S
H3201 C3177 0.949 . S
H3202 C3179 0.950 . S
H3203 C3181 0.950 . S
C3204 C3205 1.349 . S
C3204 C3206 1.327 . S
C3204 H3229 0.950 . S
C3205 C3204 1.349 . S
C3205 C3221 1.349 . S
C3206 C3204 1.327 . S
C3206 C3225 1.429 . S
C3206 H3230 0.950 . S
C3207 C3224 1.574 . S
C3207 C3226 1.368 . S
C3207 H3231 0.949 . S
H3208 C3212 0.949 . S
C3209 C3210 1.349 . S
C3209 C3211 1.327 . S
C3209 H3232 0.950 . S
C3210 C3209 1.349 . S
C3210 C3222 1.349 . S
C3211 C3209 1.327 . S
C3211 C3227 1.429 . S
C3211 H3233 0.950 . S
C3212 H3208 0.949 . S
C3212 C3220 1.574 . S
C3212 C3228 1.368 . S
H3213 C3221 0.950 . S
H3214 C3219 0.950 . S
H3215 C3220 0.949 . S
H3216 C3222 0.950 . S
H3217 C3223 0.950 . S
H3218 C3224 0.949 . S
C3219 H3214 0.950 . S
C3219 C3221 1.327 . S
C3219 C3225 1.429 . S
C3220 C3212 1.574 . S
C3220 H3215 0.949 . S
C3220 C3226 1.368 . S
C3221 C3205 1.349 . S
C3221 H3213 0.950 . S
C3221 C3219 1.327 . S
C3222 C3210 1.349 . S
C3222 H3216 0.950 . S
C3222 C3223 1.327 . S
C3223 H3217 0.950 . S
C3223 C3222 1.327 . S
C3223 C3227 1.429 . S
C3224 C3207 1.574 . S
C3224 H3218 0.949 . S
C3224 C3228 1.368 . S
C3225 C3206 1.429 . S
C3225 C3219 1.429 . S
C3225 C3226 1.523 . S
C3226 C3207 1.368 . S
C3226 C3220 1.368 . S
C3226 C3225 1.523 . S
C3227 C3211 1.429 . S
C3227 C3223 1.429 . S
C3227 C3228 1.523 . S
C3228 C3212 1.368 . S
C3228 C3224 1.368 . S
C3228 C3227 1.523 . S
H3229 C3204 0.950 . S
H3230 C3206 0.950 . S
H3231 C3207 0.949 . S
H3232 C3209 0.950 . S
H3233 C3211 0.950 . S
C3234 C3235 1.349 . S
C3234 C3236 1.327 . S
C3234 H3259 0.950 . S
C3235 C3234 1.349 . S
C3235 C3251 1.349 . S
C3236 C3234 1.327 . S
C3236 C3255 1.429 . S
C3236 H3260 0.950 . S
C3237 C3254 1.574 . S
C3237 C3256 1.368 . S
C3237 H3261 0.949 . S
H3238 C3242 0.949 . S
C3239 C3240 1.349 . S
C3239 C3241 1.327 . S
C3239 H3262 0.950 . S
C3240 C3239 1.349 . S
C3240 C3252 1.349 . S
C3241 C3239 1.327 . S
C3241 C3257 1.429 . S
C3241 H3263 0.950 . S
C3242 H3238 0.949 . S
C3242 C3250 1.574 . S
C3242 C3258 1.368 . S
H3243 C3251 0.950 . S
H3244 C3249 0.950 . S
H3245 C3250 0.949 . S
H3246 C3252 0.950 . S
H3247 C3253 0.950 . S
H3248 C3254 0.949 . S
C3249 H3244 0.950 . S
C3249 C3251 1.327 . S
C3249 C3255 1.429 . S
C3250 C3242 1.574 . S
C3250 H3245 0.949 . S
C3250 C3256 1.368 . S
C3251 C3235 1.349 . S
C3251 H3243 0.950 . S
C3251 C3249 1.327 . S
C3252 C3240 1.349 . S
C3252 H3246 0.950 . S
C3252 C3253 1.327 . S
C3253 H3247 0.950 . S
C3253 C3252 1.327 . S
C3253 C3257 1.429 . S
C3254 C3237 1.574 . S
C3254 H3248 0.949 . S
C3254 C3258 1.368 . S
C3255 C3236 1.429 . S
C3255 C3249 1.429 . S
C3255 C3256 1.523 . S
C3256 C3237 1.368 . S
C3256 C3250 1.368 . S
C3256 C3255 1.523 . S
C3257 C3241 1.429 . S
C3257 C3253 1.429 . S
C3257 C3258 1.523 . S
C3258 C3242 1.368 . S
C3258 C3254 1.368 . S
C3258 C3257 1.523 . S
H3259 C3234 0.950 . S
H3260 C3236 0.950 . S
H3261 C3237 0.949 . S
H3262 C3239 0.950 . S
H3263 C3241 0.950 . S
C3264 C3265 1.349 . S
C3264 C3266 1.327 . S
C3264 H3289 0.950 . S
C3265 C3264 1.349 . S
C3265 C3281 1.349 . S
C3266 C3264 1.327 . S
C3266 C3285 1.429 . S
C3266 H3290 0.950 . S
C3267 C3284 1.574 . S
C3267 C3286 1.368 . S
C3267 H3291 0.949 . S
H3268 C3272 0.949 . S
C3269 C3270 1.349 . S
C3269 C3271 1.327 . S
C3269 H3292 0.950 . S
C3270 C3269 1.349 . S
C3270 C3282 1.349 . S
C3271 C3269 1.327 . S
C3271 C3287 1.429 . S
C3271 H3293 0.950 . S
C3272 H3268 0.949 . S
C3272 C3280 1.574 . S
C3272 C3288 1.368 . S
H3273 C3281 0.950 . S
H3274 C3279 0.950 . S
H3275 C3280 0.949 . S
H3276 C3282 0.950 . S
H3277 C3283 0.950 . S
H3278 C3284 0.949 . S
C3279 H3274 0.950 . S
C3279 C3281 1.327 . S
C3279 C3285 1.429 . S
C3280 C3272 1.574 . S
C3280 H3275 0.949 . S
C3280 C3286 1.368 . S
C3281 C3265 1.349 . S
C3281 H3273 0.950 . S
C3281 C3279 1.327 . S
C3282 C3270 1.349 . S
C3282 H3276 0.950 . S
C3282 C3283 1.327 . S
C3283 H3277 0.950 . S
C3283 C3282 1.327 . S
C3283 C3287 1.429 . S
C3284 C3267 1.574 . S
C3284 H3278 0.949 . S
C3284 C3288 1.368 . S
C3285 C3266 1.429 . S
C3285 C3279 1.429 . S
C3285 C3286 1.523 . S
C3286 C3267 1.368 . S
C3286 C3280 1.368 . S
C3286 C3285 1.523 . S
C3287 C3271 1.429 . S
C3287 C3283 1.429 . S
C3287 C3288 1.523 . S
C3288 C3272 1.368 . S
C3288 C3284 1.368 . S
C3288 C3287 1.523 . S
H3289 C3264 0.950 . S
H3290 C3266 0.950 . S
H3291 C3267 0.949 . S
H3292 C3269 0.950 . S
H3293 C3271 0.950 . S
C3294 C3295 1.349 . S
C3294 C3296 1.327 . S
C3294 H3319 0.950 . S
C3295 C3294 1.349 . S
C3295 C3311 1.349 . S
C3296 C3294 1.327 . S
C3296 C3315 1.429 . S
C3296 H3320 0.950 . S
C3297 C3314 1.574 . S
C3297 C3316 1.368 . S
C3297 H3321 0.949 . S
H3298 C3302 0.949 . S
C3299 C3300 1.349 . S
C3299 C3301 1.327 . S
C3299 H3322 0.950 . S
C3300 C3299 1.349 . S
C3300 C3312 1.349 . S
C3301 C3299 1.327 . S
C3301 C3317 1.429 . S
C3301 H3323 0.950 . S
C3302 H3298 0.949 . S
C3302 C3310 1.574 . S
C3302 C3318 1.368 . S
H3303 C3311 0.950 . S
H3304 C3309 0.950 . S
H3305 C3310 0.949 . S
H3306 C3312 0.950 . S
H3307 C3313 0.950 . S
H3308 C3314 0.949 . S
C3309 H3304 0.950 . S
C3309 C3311 1.327 . S
C3309 C3315 1.429 . S
C3310 C3302 1.574 . S
C3310 H3305 0.949 . S
C3310 C3316 1.368 . S
C3311 C3295 1.349 . S
C3311 H3303 0.950 . S
C3311 C3309 1.327 . S
C3312 C3300 1.349 . S
C3312 H3306 0.950 . S
C3312 C3313 1.327 . S
C3313 H3307 0.950 . S
C3313 C3312 1.327 . S
C3313 C3317 1.429 . S
C3314 C3297 1.574 . S
C3314 H3308 0.949 . S
C3314 C3318 1.368 . S
C3315 C3296 1.429 . S
C3315 C3309 1.429 . S
C3315 C3316 1.523 . S
C3316 C3297 1.368 . S
C3316 C3310 1.368 . S
C3316 C3315 1.523 . S
C3317 C3301 1.429 . S
C3317 C3313 1.429 . S
C3317 C3318 1.523 . S
C3318 C3302 1.368 . S
C3318 C3314 1.368 . S
C3318 C3317 1.523 . S
H3319 C3294 0.950 . S
H3320 C3296 0.950 . S
H3321 C3297 0.949 . S
H3322 C3299 0.950 . S
H3323 C3301 0.950 . S
C3324 C3325 1.349 . S
C3324 C3326 1.327 . S
C3324 H3349 0.950 . S
C3325 C3324 1.349 . S
C3325 C3341 1.349 . S
C3326 C3324 1.327 . S
C3326 C3345 1.429 . S
C3326 H3350 0.950 . S
C3327 C3344 1.574 . S
C3327 C3346 1.368 . S
C3327 H3351 0.949 . S
H3328 C3332 0.949 . S
C3329 C3330 1.349 . S
C3329 C3331 1.327 . S
C3329 H3352 0.950 . S
C3330 C3329 1.349 . S
C3330 C3342 1.349 . S
C3331 C3329 1.327 . S
C3331 C3347 1.429 . S
C3331 H3353 0.950 . S
C3332 H3328 0.949 . S
C3332 C3340 1.574 . S
C3332 C3348 1.368 . S
H3333 C3341 0.950 . S
H3334 C3339 0.950 . S
H3335 C3340 0.949 . S
H3336 C3342 0.950 . S
H3337 C3343 0.950 . S
H3338 C3344 0.949 . S
C3339 H3334 0.950 . S
C3339 C3341 1.327 . S
C3339 C3345 1.429 . S
C3340 C3332 1.574 . S
C3340 H3335 0.949 . S
C3340 C3346 1.368 . S
C3341 C3325 1.349 . S
C3341 H3333 0.950 . S
C3341 C3339 1.327 . S
C3342 C3330 1.349 . S
C3342 H3336 0.950 . S
C3342 C3343 1.327 . S
C3343 H3337 0.950 . S
C3343 C3342 1.327 . S
C3343 C3347 1.429 . S
C3344 C3327 1.574 . S
C3344 H3338 0.949 . S
C3344 C3348 1.368 . S
C3345 C3326 1.429 . S
C3345 C3339 1.429 . S
C3345 C3346 1.523 . S
C3346 C3327 1.368 . S
C3346 C3340 1.368 . S
C3346 C3345 1.523 . S
C3347 C3331 1.429 . S
C3347 C3343 1.429 . S
C3347 C3348 1.523 . S
C3348 C3332 1.368 . S
C3348 C3344 1.368 . S
C3348 C3347 1.523 . S
H3349 C3324 0.950 . S
H3350 C3326 0.950 . S
H3351 C3327 0.949 . S
H3352 C3329 0.950 . S
H3353 C3331 0.950 . S
C3354 C3355 1.349 . S
C3354 C3356 1.327 . S
C3354 H3379 0.950 . S
C3355 C3354 1.349 . S
C3355 C3371 1.349 . S
C3356 C3354 1.327 . S
C3356 C3375 1.429 . S
C3356 H3380 0.950 . S
C3357 C3374 1.574 . S
C3357 C3376 1.368 . S
C3357 H3381 0.949 . S
H3358 C3362 0.949 . S
C3359 C3360 1.349 . S
C3359 C3361 1.327 . S
C3359 H3382 0.950 . S
C3360 C3359 1.349 . S
C3360 C3372 1.349 . S
C3361 C3359 1.327 . S
C3361 C3377 1.429 . S
C3361 H3383 0.950 . S
C3362 H3358 0.949 . S
C3362 C3370 1.574 . S
C3362 C3378 1.368 . S
H3363 C3371 0.950 . S
H3364 C3369 0.950 . S
H3365 C3370 0.949 . S
H3366 C3372 0.950 . S
H3367 C3373 0.950 . S
H3368 C3374 0.949 . S
C3369 H3364 0.950 . S
C3369 C3371 1.327 . S
C3369 C3375 1.429 . S
C3370 C3362 1.574 . S
C3370 H3365 0.949 . S
C3370 C3376 1.368 . S
C3371 C3355 1.349 . S
C3371 H3363 0.950 . S
C3371 C3369 1.327 . S
C3372 C3360 1.349 . S
C3372 H3366 0.950 . S
C3372 C3373 1.327 . S
C3373 H3367 0.950 . S
C3373 C3372 1.327 . S
C3373 C3377 1.429 . S
C3374 C3357 1.574 . S
C3374 H3368 0.949 . S
C3374 C3378 1.368 . S
C3375 C3356 1.429 . S
C3375 C3369 1.429 . S
C3375 C3376 1.523 . S
C3376 C3357 1.368 . S
C3376 C3370 1.368 . S
C3376 C3375 1.523 . S
C3377 C3361 1.429 . S
C3377 C3373 1.429 . S
C3377 C3378 1.523 . S
C3378 C3362 1.368 . S
C3378 C3374 1.368 . S
C3378 C3377 1.523 . S
H3379 C3354 0.950 . S
H3380 C3356 0.950 . S
H3381 C3357 0.949 . S
H3382 C3359 0.950 . S
H3383 C3361 0.950 . S
C3384 C3385 1.349 . S
C3384 C3386 1.327 . S
C3384 H3409 0.950 . S
C3385 C3384 1.349 . S
C3385 C3401 1.349 . S
C3386 C3384 1.327 . S
C3386 C3405 1.429 . S
C3386 H3410 0.950 . S
C3387 C3404 1.574 . S
C3387 C3406 1.368 . S
C3387 H3411 0.949 . S
H3388 C3392 0.949 . S
C3389 C3390 1.349 . S
C3389 C3391 1.327 . S
C3389 H3412 0.950 . S
C3390 C3389 1.349 . S
C3390 C3402 1.349 . S
C3391 C3389 1.327 . S
C3391 C3407 1.429 . S
C3391 H3413 0.950 . S
C3392 H3388 0.949 . S
C3392 C3400 1.574 . S
C3392 C3408 1.368 . S
H3393 C3401 0.950 . S
H3394 C3399 0.950 . S
H3395 C3400 0.949 . S
H3396 C3402 0.950 . S
H3397 C3403 0.950 . S
H3398 C3404 0.949 . S
C3399 H3394 0.950 . S
C3399 C3401 1.327 . S
C3399 C3405 1.429 . S
C3400 C3392 1.574 . S
C3400 H3395 0.949 . S
C3400 C3406 1.368 . S
C3401 C3385 1.349 . S
C3401 H3393 0.950 . S
C3401 C3399 1.327 . S
C3402 C3390 1.349 . S
C3402 H3396 0.950 . S
C3402 C3403 1.327 . S
C3403 H3397 0.950 . S
C3403 C3402 1.327 . S
C3403 C3407 1.429 . S
C3404 C3387 1.574 . S
C3404 H3398 0.949 . S
C3404 C3408 1.368 . S
C3405 C3386 1.429 . S
C3405 C3399 1.429 . S
C3405 C3406 1.523 . S
C3406 C3387 1.368 . S
C3406 C3400 1.368 . S
C3406 C3405 1.523 . S
C3407 C3391 1.429 . S
C3407 C3403 1.429 . S
C3407 C3408 1.523 . S
C3408 C3392 1.368 . S
C3408 C3404 1.368 . S
C3408 C3407 1.523 . S
H3409 C3384 0.950 . S
H3410 C3386 0.950 . S
H3411 C3387 0.949 . S
H3412 C3389 0.950 . S
H3413 C3391 0.950 . S
C3414 C3415 1.349 . S
C3414 C3416 1.327 . S
C3414 H3439 0.950 . S
C3415 C3414 1.349 . S
C3415 C3431 1.349 . S
C3416 C3414 1.327 . S
C3416 C3435 1.429 . S
C3416 H3440 0.950 . S
C3417 C3434 1.574 . S
C3417 C3436 1.368 . S
C3417 H3441 0.949 . S
H3418 C3422 0.949 . S
C3419 C3420 1.349 . S
C3419 C3421 1.327 . S
C3419 H3442 0.950 . S
C3420 C3419 1.349 . S
C3420 C3432 1.349 . S
C3421 C3419 1.327 . S
C3421 C3437 1.429 . S
C3421 H3443 0.950 . S
C3422 H3418 0.949 . S
C3422 C3430 1.574 . S
C3422 C3438 1.368 . S
H3423 C3431 0.950 . S
H3424 C3429 0.950 . S
H3425 C3430 0.949 . S
H3426 C3432 0.950 . S
H3427 C3433 0.950 . S
H3428 C3434 0.949 . S
C3429 H3424 0.950 . S
C3429 C3431 1.327 . S
C3429 C3435 1.429 . S
C3430 C3422 1.574 . S
C3430 H3425 0.949 . S
C3430 C3436 1.368 . S
C3431 C3415 1.349 . S
C3431 H3423 0.950 . S
C3431 C3429 1.327 . S
C3432 C3420 1.349 . S
C3432 H3426 0.950 . S
C3432 C3433 1.327 . S
C3433 H3427 0.950 . S
C3433 C3432 1.327 . S
C3433 C3437 1.429 . S
C3434 C3417 1.574 . S
C3434 H3428 0.949 . S
C3434 C3438 1.368 . S
C3435 C3416 1.429 . S
C3435 C3429 1.429 . S
C3435 C3436 1.523 . S
C3436 C3417 1.368 . S
C3436 C3430 1.368 . S
C3436 C3435 1.523 . S
C3437 C3421 1.429 . S
C3437 C3433 1.429 . S
C3437 C3438 1.523 . S
C3438 C3422 1.368 . S
C3438 C3434 1.368 . S
C3438 C3437 1.523 . S
H3439 C3414 0.950 . S
H3440 C3416 0.950 . S
H3441 C3417 0.949 . S
H3442 C3419 0.950 . S
H3443 C3421 0.950 . S
C3444 C3445 1.349 . S
C3444 C3446 1.327 . S
C3444 H3469 0.950 . S
C3445 C3444 1.349 . S
C3445 C3461 1.349 . S
C3446 C3444 1.327 . S
C3446 C3465 1.429 . S
C3446 H3470 0.950 . S
C3447 C3464 1.574 . S
C3447 C3466 1.368 . S
C3447 H3471 0.949 . S
H3448 C3452 0.949 . S
C3449 C3450 1.349 . S
C3449 C3451 1.327 . S
C3449 H3472 0.950 . S
C3450 C3449 1.349 . S
C3450 C3462 1.349 . S
C3451 C3449 1.327 . S
C3451 C3467 1.429 . S
C3451 H3473 0.950 . S
C3452 H3448 0.949 . S
C3452 C3460 1.574 . S
C3452 C3468 1.368 . S
H3453 C3461 0.950 . S
H3454 C3459 0.950 . S
H3455 C3460 0.949 . S
H3456 C3462 0.950 . S
H3457 C3463 0.950 . S
H3458 C3464 0.949 . S
C3459 H3454 0.950 . S
C3459 C3461 1.327 . S
C3459 C3465 1.429 . S
C3460 C3452 1.574 . S
C3460 H3455 0.949 . S
C3460 C3466 1.368 . S
C3461 C3445 1.349 . S
C3461 H3453 0.950 . S
C3461 C3459 1.327 . S
C3462 C3450 1.349 . S
C3462 H3456 0.950 . S
C3462 C3463 1.327 . S
C3463 H3457 0.950 . S
C3463 C3462 1.327 . S
C3463 C3467 1.429 . S
C3464 C3447 1.574 . S
C3464 H3458 0.949 . S
C3464 C3468 1.368 . S
C3465 C3446 1.429 . S
C3465 C3459 1.429 . S
C3465 C3466 1.523 . S
C3466 C3447 1.368 . S
C3466 C3460 1.368 . S
C3466 C3465 1.523 . S
C3467 C3451 1.429 . S
C3467 C3463 1.429 . S
C3467 C3468 1.523 . S
C3468 C3452 1.368 . S
C3468 C3464 1.368 . S
C3468 C3467 1.523 . S
H3469 C3444 0.950 . S
H3470 C3446 0.950 . S
H3471 C3447 0.949 . S
H3472 C3449 0.950 . S
H3473 C3451 0.950 . S
C3474 C3475 1.349 . S
C3474 C3476 1.327 . S
C3474 H3499 0.950 . S
C3475 C3474 1.349 . S
C3475 C3491 1.349 . S
C3476 C3474 1.327 . S
C3476 C3495 1.429 . S
C3476 H3500 0.950 . S
C3477 C3494 1.574 . S
C3477 C3496 1.368 . S
C3477 H3501 0.949 . S
H3478 C3482 0.949 . S
C3479 C3480 1.349 . S
C3479 C3481 1.327 . S
C3479 H3502 0.950 . S
C3480 C3479 1.349 . S
C3480 C3492 1.349 . S
C3481 C3479 1.327 . S
C3481 C3497 1.429 . S
C3481 H3503 0.950 . S
C3482 H3478 0.949 . S
C3482 C3490 1.574 . S
C3482 C3498 1.368 . S
H3483 C3491 0.966 . S
H3484 C3489 0.950 . S
H3485 C3490 0.949 . S
H3486 C3492 0.950 . S
H3487 C3493 0.950 . S
H3488 C3494 0.949 . S
C3489 H3484 0.950 . S
C3489 C3491 1.327 . S
C3489 C3495 1.429 . S
C3490 C3482 1.574 . S
C3490 H3485 0.949 . S
C3490 C3496 1.368 . S
C3491 C3475 1.349 . S
C3491 H3483 0.966 . S
C3491 C3489 1.327 . S
C3492 C3480 1.349 . S
C3492 H3486 0.950 . S
C3492 C3493 1.327 . S
C3493 H3487 0.950 . S
C3493 C3492 1.327 . S
C3493 C3497 1.429 . S
C3494 C3477 1.574 . S
C3494 H3488 0.949 . S
C3494 C3498 1.368 . S
C3495 C3476 1.429 . S
C3495 C3489 1.429 . S
C3495 C3496 1.523 . S
C3496 C3477 1.368 . S
C3496 C3490 1.368 . S
C3496 C3495 1.523 . S
C3497 C3481 1.429 . S
C3497 C3493 1.429 . S
C3497 C3498 1.523 . S
C3498 C3482 1.368 . S
C3498 C3494 1.368 . S
C3498 C3497 1.523 . S
H3499 C3474 0.950 . S
H3500 C3476 0.950 . S
H3501 C3477 0.949 . S
H3502 C3479 0.950 . S
H3503 C3481 0.950 . S
C3504 C3505 1.349 . S
C3504 C3506 1.327 . S
C3504 H3529 0.950 . S
C3505 C3504 1.349 . S
C3505 C3521 1.349 . S
C3506 C3504 1.327 . S
C3506 C3525 1.429 . S
C3506 H3530 0.950 . S
C3507 C3524 1.574 . S
C3507 C3526 1.368 . S
C3507 H3531 0.949 . S
H3508 C3512 0.949 . S
C3509 C3510 1.349 . S
C3509 C3511 1.327 . S
C3509 H3532 0.950 . S
C3510 C3509 1.349 . S
C3510 C3522 1.349 . S
C3511 C3509 1.327 . S
C3511 C3527 1.429 . S
C3511 H3533 0.950 . S
C3512 H3508 0.949 . S
C3512 C3520 1.574 . S
C3512 C3528 1.368 . S
H3513 C3521 0.950 1_554 S
H3514 C3519 0.950 . S
H3515 C3520 0.949 . S
H3516 C3522 0.950 . S
H3517 C3523 0.950 . S
H3518 C3524 0.949 . S
C3519 H3514 0.950 . S
C3519 C3521 1.327 . S
C3519 C3525 1.429 . S
C3520 C3512 1.574 . S
C3520 H3515 0.949 . S
C3520 C3526 1.368 . S
C3521 C3505 1.349 . S
C3521 H3513 0.950 1_556 S
C3521 C3519 1.327 . S
C3522 C3510 1.349 . S
C3522 H3516 0.950 . S
C3522 C3523 1.327 . S
C3523 H3517 0.950 . S
C3523 C3522 1.327 . S
C3523 C3527 1.429 . S
C3524 C3507 1.574 . S
C3524 H3518 0.949 . S
C3524 C3528 1.368 . S
C3525 C3506 1.429 . S
C3525 C3519 1.429 . S
C3525 C3526 1.523 . S
C3526 C3507 1.368 . S
C3526 C3520 1.368 . S
C3526 C3525 1.523 . S
C3527 C3511 1.429 . S
C3527 C3523 1.429 . S
C3527 C3528 1.523 . S
C3528 C3512 1.368 . S
C3528 C3524 1.368 . S
C3528 C3527 1.523 . S
H3529 C3504 0.950 . S
H3530 C3506 0.950 . S
H3531 C3507 0.949 . S
H3532 C3509 0.950 . S
H3533 C3511 0.950 . S
C3534 C3535 1.349 . S
C3534 C3536 1.327 . S
C3534 H3559 0.950 . S
C3535 C3534 1.349 . S
C3535 C3551 1.349 1_556 S
C3536 C3534 1.327 . S
C3536 C3555 1.429 . S
C3536 H3560 0.950 . S
C3537 C3554 1.574 . S
C3537 C3556 1.368 . S
C3537 H3561 0.949 . S
H3538 C3542 0.949 . S
C3539 C3540 1.349 . S
C3539 C3541 1.327 . S
C3539 H3562 0.950 . S
C3540 C3539 1.349 . S
C3540 C3552 1.349 . S
C3541 C3539 1.327 . S
C3541 C3557 1.429 . S
C3541 H3563 0.950 . S
C3542 H3538 0.949 . S
C3542 C3550 1.574 . S
C3542 C3558 1.368 . S
H3543 C3551 0.950 . S
H3544 C3549 0.950 1_554 S
H3545 C3550 0.949 . S
H3546 C3552 0.950 . S
H3547 C3553 0.950 . S
H3548 C3554 0.949 . S
C3549 H3544 0.950 1_556 S
C3549 C3551 1.327 1_556 S
C3549 C3555 1.429 . S
C3550 C3542 1.574 . S
C3550 H3545 0.949 . S
C3550 C3556 1.368 . S
C3551 C3535 1.349 1_554 S
C3551 H3543 0.950 . S
C3551 C3549 1.327 1_554 S
C3552 C3540 1.349 . S
C3552 H3546 0.950 . S
C3552 C3553 1.327 . S
C3553 H3547 0.950 . S
C3553 C3552 1.327 . S
C3553 C3557 1.429 . S
C3554 C3537 1.574 . S
C3554 H3548 0.949 . S
C3554 C3558 1.368 . S
C3555 C3536 1.429 . S
C3555 C3549 1.429 . S
C3555 C3556 1.523 . S
C3556 C3537 1.368 . S
C3556 C3550 1.368 . S
C3556 C3555 1.523 . S
C3557 C3541 1.429 . S
C3557 C3553 1.429 . S
C3557 C3558 1.523 . S
C3558 C3542 1.368 . S
C3558 C3554 1.368 . S
C3558 C3557 1.523 . S
H3559 C3534 0.950 . S
H3560 C3536 0.950 . S
H3561 C3537 0.949 . S
H3562 C3539 0.950 . S
H3563 C3541 0.950 . S
C3564 C3565 1.349 . S
C3564 C3566 1.327 . S
C3564 H3589 0.950 . S
C3565 C3564 1.349 . S
C3565 C3581 1.349 . S
C3566 C3564 1.327 . S
C3566 C3585 1.429 . S
C3566 H3590 0.950 . S
C3567 C3584 1.574 . S
C3567 C3586 1.368 . S
C3567 H3591 0.949 . S
H3568 C3572 0.949 . S
C3569 C3570 1.349 . S
C3569 C3571 1.327 . S
C3569 H3592 0.950 . S
C3570 C3569 1.349 . S
C3570 C3582 1.349 . S
C3571 C3569 1.327 . S
C3571 C3587 1.429 . S
C3571 H3593 0.950 . S
C3572 H3568 0.949 . S
C3572 C3580 1.574 . S
C3572 C3588 1.368 . S
H3573 C3581 0.956 . S
H3574 C3579 0.950 . S
H3575 C3580 0.949 . S
H3576 C3582 0.950 . S
H3577 C3583 0.950 . S
H3578 C3584 0.949 . S
C3579 H3574 0.950 . S
C3579 C3581 1.327 . S
C3579 C3585 1.429 . S
C3580 C3572 1.574 . S
C3580 H3575 0.949 . S
C3580 C3586 1.368 . S
C3581 C3565 1.349 . S
C3581 H3573 0.956 . S
C3581 C3579 1.327 . S
C3582 C3570 1.349 . S
C3582 H3576 0.950 . S
C3582 C3583 1.327 . S
C3583 H3577 0.950 . S
C3583 C3582 1.327 . S
C3583 C3587 1.429 . S
C3584 C3567 1.574 . S
C3584 H3578 0.949 . S
C3584 C3588 1.368 . S
C3585 C3566 1.429 . S
C3585 C3579 1.429 . S
C3585 C3586 1.523 . S
C3586 C3567 1.368 . S
C3586 C3580 1.368 . S
C3586 C3585 1.523 . S
C3587 C3571 1.429 . S
C3587 C3583 1.429 . S
C3587 C3588 1.523 . S
C3588 C3572 1.368 . S
C3588 C3584 1.368 . S
C3588 C3587 1.523 . S
H3589 C3564 0.950 . S
H3590 C3566 0.950 . S
H3591 C3567 0.949 . S
H3592 C3569 0.950 . S
H3593 C3571 0.950 . S
C3594 C3595 1.349 . S
C3594 C3596 1.327 . S
C3594 H3619 0.950 . S
C3595 C3594 1.349 . S
C3595 C3611 1.349 . S
C3596 C3594 1.327 . S
C3596 C3615 1.429 . S
C3596 H3620 0.950 . S
C3597 C3614 1.574 . S
C3597 C3616 1.368 . S
C3597 H3621 0.949 . S
H3598 C3602 0.949 . S
C3599 C3600 1.349 . S
C3599 C3601 1.327 . S
C3599 H3622 0.950 . S
C3600 C3599 1.349 . S
C3600 C3612 1.349 . S
C3601 C3599 1.327 . S
C3601 C3617 1.429 . S
C3601 H3623 0.950 . S
C3602 H3598 0.949 . S
C3602 C3610 1.574 . S
C3602 C3618 1.368 . S
H3603 C3611 0.950 . S
H3604 C3609 0.950 . S
H3605 C3610 0.949 . S
H3606 C3612 0.950 . S
H3607 C3613 0.950 . S
H3608 C3614 0.949 . S
C3609 H3604 0.950 . S
C3609 C3611 1.327 . S
C3609 C3615 1.429 . S
C3610 C3602 1.574 . S
C3610 H3605 0.949 . S
C3610 C3616 1.368 . S
C3611 C3595 1.349 . S
C3611 H3603 0.950 . S
C3611 C3609 1.327 . S
C3612 C3600 1.349 . S
C3612 H3606 0.950 . S
C3612 C3613 1.327 . S
C3613 H3607 0.950 . S
C3613 C3612 1.327 . S
C3613 C3617 1.429 . S
C3614 C3597 1.574 . S
C3614 H3608 0.949 . S
C3614 C3618 1.368 . S
C3615 C3596 1.429 . S
C3615 C3609 1.429 . S
C3615 C3616 1.523 . S
C3616 C3597 1.368 . S
C3616 C3610 1.368 . S
C3616 C3615 1.523 . S
C3617 C3601 1.429 . S
C3617 C3613 1.429 . S
C3617 C3618 1.523 . S
C3618 C3602 1.368 . S
C3618 C3614 1.368 . S
C3618 C3617 1.523 . S
H3619 C3594 0.950 . S
H3620 C3596 0.950 . S
H3621 C3597 0.949 . S
H3622 C3599 0.950 . S
H3623 C3601 0.950 . S
C3624 C3625 1.349 1_554 S
C3624 C3626 1.327 1_554 S
C3624 H3649 0.950 . S
C3625 C3624 1.349 1_556 S
C3625 C3641 1.349 . S
C3626 C3624 1.327 1_556 S
C3626 C3645 1.429 . S
C3626 H3650 0.943 1_556 S
C3627 C3644 1.574 . S
C3627 C3646 1.368 . S
C3627 H3651 0.949 . S
H3628 C3632 0.949 . S
C3629 C3630 1.349 . S
C3629 C3631 1.327 . S
C3629 H3652 0.950 . S
C3630 C3629 1.349 . S
C3630 C3642 1.349 . S
C3631 C3629 1.327 . S
C3631 C3647 1.429 . S
C3631 H3653 0.950 . S
C3632 H3628 0.949 . S
C3632 C3640 1.574 . S
C3632 C3648 1.368 . S
H3633 C3641 0.950 . S
H3634 C3639 0.950 . S
H3635 C3640 0.949 . S
H3636 C3642 0.950 . S
H3637 C3643 0.950 . S
H3638 C3644 0.949 . S
C3639 H3634 0.950 . S
C3639 C3641 1.327 . S
C3639 C3645 1.429 . S
C3640 C3632 1.574 . S
C3640 H3635 0.949 . S
C3640 C3646 1.368 . S
C3641 C3625 1.349 . S
C3641 H3633 0.950 . S
C3641 C3639 1.327 . S
C3642 C3630 1.349 . S
C3642 H3636 0.950 . S
C3642 C3643 1.327 . S
C3643 H3637 0.950 . S
C3643 C3642 1.327 . S
C3643 C3647 1.429 . S
C3644 C3627 1.574 . S
C3644 H3638 0.949 . S
C3644 C3648 1.368 . S
C3645 C3626 1.429 . S
C3645 C3639 1.429 . S
C3645 C3646 1.523 . S
C3646 C3627 1.368 . S
C3646 C3640 1.368 . S
C3646 C3645 1.523 . S
C3647 C3631 1.429 . S
C3647 C3643 1.429 . S
C3647 C3648 1.523 . S
C3648 C3632 1.368 . S
C3648 C3644 1.368 . S
C3648 C3647 1.523 . S
H3649 C3624 0.950 . S
H3650 C3626 0.943 1_554 S
H3651 C3627 0.949 . S
H3652 C3629 0.950 . S
H3653 C3631 0.950 . S
C3654 C3655 1.349 . S
C3654 C3656 1.327 . S
C3654 H3679 0.950 . S
C3655 C3654 1.349 . S
C3655 C3671 1.349 . S
C3656 C3654 1.327 . S
C3656 C3675 1.429 . S
C3656 H3680 0.950 . S
C3657 C3674 1.574 . S
C3657 C3676 1.368 . S
C3657 H3681 0.949 . S
H3658 C3662 0.949 . S
C3659 C3660 1.349 . S
C3659 C3661 1.327 . S
C3659 H3682 0.950 . S
C3660 C3659 1.349 . S
C3660 C3672 1.349 . S
C3661 C3659 1.327 . S
C3661 C3677 1.429 . S
C3661 H3683 0.950 . S
C3662 H3658 0.949 . S
C3662 C3670 1.574 . S
C3662 C3678 1.368 . S
H3663 C3671 0.950 . S
H3664 C3669 0.950 . S
H3665 C3670 0.949 . S
H3666 C3672 0.950 . S
H3667 C3673 0.950 . S
H3668 C3674 0.949 . S
C3669 H3664 0.950 . S
C3669 C3671 1.327 . S
C3669 C3675 1.429 . S
C3670 C3662 1.574 . S
C3670 H3665 0.949 . S
C3670 C3676 1.368 . S
C3671 C3655 1.349 . S
C3671 H3663 0.950 . S
C3671 C3669 1.327 . S
C3672 C3660 1.349 . S
C3672 H3666 0.950 . S
C3672 C3673 1.327 . S
C3673 H3667 0.950 . S
C3673 C3672 1.327 . S
C3673 C3677 1.429 . S
C3674 C3657 1.574 . S
C3674 H3668 0.949 . S
C3674 C3678 1.368 . S
C3675 C3656 1.429 . S
C3675 C3669 1.429 . S
C3675 C3676 1.523 . S
C3676 C3657 1.368 . S
C3676 C3670 1.368 . S
C3676 C3675 1.523 . S
C3677 C3661 1.429 . S
C3677 C3673 1.429 . S
C3677 C3678 1.523 . S
C3678 C3662 1.368 . S
C3678 C3674 1.368 . S
C3678 C3677 1.523 . S
H3679 C3654 0.950 . S
H3680 C3656 0.950 . S
H3681 C3657 0.949 . S
H3682 C3659 0.950 . S
H3683 C3661 0.950 . S
C3684 C3685 1.349 . S
C3684 C3686 1.327 . S
C3684 H3709 0.950 . S
C3685 C3684 1.349 . S
C3685 C3701 1.349 . S
C3686 C3684 1.327 . S
C3686 C3705 1.429 . S
C3686 H3710 0.950 . S
C3687 C3704 1.574 . S
C3687 C3706 1.368 . S
C3687 H3711 0.949 . S
H3688 C3692 0.949 . S
C3689 C3690 1.349 . S
C3689 C3691 1.327 . S
C3689 H3712 0.950 . S
C3690 C3689 1.349 . S
C3690 C3702 1.349 . S
C3691 C3689 1.327 . S
C3691 C3707 1.429 . S
C3691 H3713 0.950 . S
C3692 H3688 0.949 . S
C3692 C3700 1.574 . S
C3692 C3708 1.368 . S
H3693 C3701 0.950 . S
H3694 C3699 0.950 . S
H3695 C3700 0.949 . S
H3696 C3702 0.950 . S
H3697 C3703 0.950 . S
H3698 C3704 0.949 . S
C3699 H3694 0.950 . S
C3699 C3701 1.327 . S
C3699 C3705 1.429 . S
C3700 C3692 1.574 . S
C3700 H3695 0.949 . S
C3700 C3706 1.368 . S
C3701 C3685 1.349 . S
C3701 H3693 0.950 . S
C3701 C3699 1.327 . S
C3702 C3690 1.349 . S
C3702 H3696 0.950 . S
C3702 C3703 1.327 . S
C3703 H3697 0.950 . S
C3703 C3702 1.327 . S
C3703 C3707 1.429 . S
C3704 C3687 1.574 . S
C3704 H3698 0.949 . S
C3704 C3708 1.368 . S
C3705 C3686 1.429 . S
C3705 C3699 1.429 . S
C3705 C3706 1.523 . S
C3706 C3687 1.368 . S
C3706 C3700 1.368 . S
C3706 C3705 1.523 . S
C3707 C3691 1.429 . S
C3707 C3703 1.429 . S
C3707 C3708 1.523 . S
C3708 C3692 1.368 . S
C3708 C3704 1.368 . S
C3708 C3707 1.523 . S
H3709 C3684 0.950 . S
H3710 C3686 0.950 . S
H3711 C3687 0.949 . S
H3712 C3689 0.950 . S
H3713 C3691 0.950 . S
C3714 C3715 1.349 . S
C3714 C3716 1.327 . S
C3714 H3739 0.950 . S
C3715 C3714 1.349 . S
C3715 C3731 1.349 . S
C3716 C3714 1.327 . S
C3716 C3735 1.429 . S
C3716 H3740 0.950 . S
C3717 C3734 1.574 . S
C3717 C3736 1.368 . S
C3717 H3741 0.949 . S
H3718 C3722 0.949 . S
C3719 C3720 1.349 . S
C3719 C3721 1.327 . S
C3719 H3742 0.950 . S
C3720 C3719 1.349 . S
C3720 C3732 1.349 . S
C3721 C3719 1.327 . S
C3721 C3737 1.429 . S
C3721 H3743 0.950 . S
C3722 H3718 0.949 . S
C3722 C3730 1.574 . S
C3722 C3738 1.368 . S
H3723 C3731 0.950 . S
H3724 C3729 0.950 . S
H3725 C3730 0.949 . S
H3726 C3732 0.950 . S
H3727 C3733 0.950 . S
H3728 C3734 0.949 . S
C3729 H3724 0.950 . S
C3729 C3731 1.327 . S
C3729 C3735 1.429 . S
C3730 C3722 1.574 . S
C3730 H3725 0.949 . S
C3730 C3736 1.368 . S
C3731 C3715 1.349 . S
C3731 H3723 0.950 . S
C3731 C3729 1.327 . S
C3732 C3720 1.349 . S
C3732 H3726 0.950 . S
C3732 C3733 1.327 . S
C3733 H3727 0.950 . S
C3733 C3732 1.327 . S
C3733 C3737 1.429 . S
C3734 C3717 1.574 . S
C3734 H3728 0.949 . S
C3734 C3738 1.368 . S
C3735 C3716 1.429 . S
C3735 C3729 1.429 . S
C3735 C3736 1.523 . S
C3736 C3717 1.368 . S
C3736 C3730 1.368 . S
C3736 C3735 1.523 . S
C3737 C3721 1.429 . S
C3737 C3733 1.429 . S
C3737 C3738 1.523 . S
C3738 C3722 1.368 . S
C3738 C3734 1.368 . S
C3738 C3737 1.523 . S
H3739 C3714 0.950 . S
H3740 C3716 0.950 . S
H3741 C3717 0.949 . S
H3742 C3719 0.950 . S
H3743 C3721 0.950 . S
C3744 C3745 1.349 . S
C3744 C3746 1.327 . S
C3744 H3769 0.950 . S
C3745 C3744 1.349 . S
C3745 C3761 1.349 . S
C3746 C3744 1.327 . S
C3746 C3765 1.429 . S
C3746 H3770 0.950 . S
C3747 C3764 1.574 . S
C3747 C3766 1.368 . S
C3747 H3771 0.949 . S
H3748 C3752 0.949 . S
C3749 C3750 1.349 . S
C3749 C3751 1.327 . S
C3749 H3772 0.950 . S
C3750 C3749 1.349 . S
C3750 C3762 1.349 . S
C3751 C3749 1.327 . S
C3751 C3767 1.429 . S
C3751 H3773 0.950 . S
C3752 H3748 0.949 . S
C3752 C3760 1.574 . S
C3752 C3768 1.368 . S
H3753 C3761 0.950 . S
H3754 C3759 0.950 . S
H3755 C3760 0.949 . S
H3756 C3762 0.950 . S
H3757 C3763 0.950 . S
H3758 C3764 0.949 . S
C3759 H3754 0.950 . S
C3759 C3761 1.327 . S
C3759 C3765 1.429 . S
C3760 C3752 1.574 . S
C3760 H3755 0.949 . S
C3760 C3766 1.368 . S
C3761 C3745 1.349 . S
C3761 H3753 0.950 . S
C3761 C3759 1.327 . S
C3762 C3750 1.349 . S
C3762 H3756 0.950 . S
C3762 C3763 1.327 . S
C3763 H3757 0.950 . S
C3763 C3762 1.327 . S
C3763 C3767 1.429 . S
C3764 C3747 1.574 . S
C3764 H3758 0.949 . S
C3764 C3768 1.368 . S
C3765 C3746 1.429 . S
C3765 C3759 1.429 . S
C3765 C3766 1.523 . S
C3766 C3747 1.368 . S
C3766 C3760 1.368 . S
C3766 C3765 1.523 . S
C3767 C3751 1.429 . S
C3767 C3763 1.429 . S
C3767 C3768 1.523 . S
C3768 C3752 1.368 . S
C3768 C3764 1.368 . S
C3768 C3767 1.523 . S
H3769 C3744 0.950 . S
H3770 C3746 0.950 . S
H3771 C3747 0.949 . S
H3772 C3749 0.950 . S
H3773 C3751 0.950 . S
C3774 C3775 1.349 . S
C3774 C3776 1.327 . S
C3774 H3799 0.950 . S
C3775 C3774 1.349 . S
C3775 C3791 1.349 . S
C3776 C3774 1.327 . S
C3776 C3795 1.429 . S
C3776 H3800 0.950 . S
C3777 C3794 1.574 . S
C3777 C3796 1.368 . S
C3777 H3801 0.949 . S
H3778 C3782 0.949 . S
C3779 C3780 1.349 . S
C3779 C3781 1.327 . S
C3779 H3802 0.950 . S
C3780 C3779 1.349 . S
C3780 C3792 1.349 . S
C3781 C3779 1.327 . S
C3781 C3797 1.429 . S
C3781 H3803 0.950 . S
C3782 H3778 0.949 . S
C3782 C3790 1.574 . S
C3782 C3798 1.368 . S
H3783 C3791 0.950 . S
H3784 C3789 0.950 . S
H3785 C3790 0.949 . S
H3786 C3792 0.950 . S
H3787 C3793 0.950 . S
H3788 C3794 0.949 . S
C3789 H3784 0.950 . S
C3789 C3791 1.327 . S
C3789 C3795 1.429 . S
C3790 C3782 1.574 . S
C3790 H3785 0.949 . S
C3790 C3796 1.368 . S
C3791 C3775 1.349 . S
C3791 H3783 0.950 . S
C3791 C3789 1.327 . S
C3792 C3780 1.349 . S
C3792 H3786 0.950 . S
C3792 C3793 1.327 . S
C3793 H3787 0.950 . S
C3793 C3792 1.327 . S
C3793 C3797 1.429 . S
C3794 C3777 1.574 . S
C3794 H3788 0.949 . S
C3794 C3798 1.368 . S
C3795 C3776 1.429 . S
C3795 C3789 1.429 . S
C3795 C3796 1.523 . S
C3796 C3777 1.368 . S
C3796 C3790 1.368 . S
C3796 C3795 1.523 . S
C3797 C3781 1.429 . S
C3797 C3793 1.429 . S
C3797 C3798 1.523 . S
C3798 C3782 1.368 . S
C3798 C3794 1.368 . S
C3798 C3797 1.523 . S
H3799 C3774 0.950 . S
H3800 C3776 0.950 . S
H3801 C3777 0.949 . S
H3802 C3779 0.950 . S
H3803 C3781 0.950 . S
C3804 C3805 1.349 . S
C3804 C3806 1.327 . S
C3804 H3829 0.950 . S
C3805 C3804 1.349 . S
C3805 C3821 1.349 . S
C3806 C3804 1.327 . S
C3806 C3825 1.429 . S
C3806 H3830 0.950 . S
C3807 C3824 1.574 . S
C3807 C3826 1.368 . S
C3807 H3831 0.949 . S
H3808 C3812 0.949 . S
C3809 C3810 1.349 . S
C3809 C3811 1.327 . S
C3809 H3832 0.950 . S
C3810 C3809 1.349 . S
C3810 C3822 1.349 . S
C3811 C3809 1.327 . S
C3811 C3827 1.429 . S
C3811 H3833 0.950 . S
C3812 H3808 0.949 . S
C3812 C3820 1.574 . S
C3812 C3828 1.368 . S
H3813 C3821 0.950 . S
H3814 C3819 0.950 . S
H3815 C3820 0.949 . S
H3816 C3822 0.950 . S
H3817 C3823 0.950 . S
H3818 C3824 0.949 . S
C3819 H3814 0.950 . S
C3819 C3821 1.327 . S
C3819 C3825 1.429 . S
C3820 C3812 1.574 . S
C3820 H3815 0.949 . S
C3820 C3826 1.368 . S
C3821 C3805 1.349 . S
C3821 H3813 0.950 . S
C3821 C3819 1.327 . S
C3822 C3810 1.349 . S
C3822 H3816 0.950 . S
C3822 C3823 1.327 . S
C3823 H3817 0.950 . S
C3823 C3822 1.327 . S
C3823 C3827 1.429 . S
C3824 C3807 1.574 . S
C3824 H3818 0.949 . S
C3824 C3828 1.368 . S
C3825 C3806 1.429 . S
C3825 C3819 1.429 . S
C3825 C3826 1.523 . S
C3826 C3807 1.368 . S
C3826 C3820 1.368 . S
C3826 C3825 1.523 . S
C3827 C3811 1.429 . S
C3827 C3823 1.429 . S
C3827 C3828 1.523 . S
C3828 C3812 1.368 . S
C3828 C3824 1.368 . S
C3828 C3827 1.523 . S
H3829 C3804 0.950 . S
H3830 C3806 0.950 . S
H3831 C3807 0.949 . S
H3832 C3809 0.950 . S
H3833 C3811 0.950 . S
C3834 C3835 1.349 . S
C3834 C3836 1.327 . S
C3834 H3859 0.950 . S
C3835 C3834 1.349 . S
C3835 C3851 1.349 . S
C3836 C3834 1.327 . S
C3836 C3855 1.429 . S
C3836 H3860 0.950 . S
C3837 C3854 1.574 . S
C3837 C3856 1.368 . S
C3837 H3861 0.949 1_455 S
H3838 C3842 0.949 . S
C3839 C3840 1.349 1_655 S
C3839 C3841 1.334 . S
C3839 H3862 0.950 . S
C3840 C3839 1.349 1_455 S
C3840 C3852 1.349 . S
C3841 C3839 1.334 . S
C3841 C3857 1.420 1_655 S
C3841 H3863 0.952 . S
C3842 H3838 0.949 . S
C3842 C3850 1.574 . S
C3842 C3858 1.368 . S
H3843 C3851 0.950 . S
H3844 C3849 0.952 . S
H3845 C3850 0.949 . S
H3846 C3852 0.950 . S
H3847 C3853 0.950 . S
H3848 C3854 0.949 1_655 S
C3849 H3844 0.952 . S
C3849 C3851 1.327 . S
C3849 C3855 1.429 . S
C3850 C3842 1.574 . S
C3850 H3845 0.949 . S
C3850 C3856 1.368 . S
C3851 C3835 1.349 . S
C3851 H3843 0.950 . S
C3851 C3849 1.327 . S
C3852 C3840 1.349 . S
C3852 H3846 0.950 . S
C3852 C3853 1.327 . S
C3853 H3847 0.950 . S
C3853 C3852 1.327 . S
C3853 C3857 1.429 . S
C3854 C3837 1.574 . S
C3854 H3848 0.949 1_455 S
C3854 C3858 1.368 . S
C3855 C3836 1.429 . S
C3855 C3849 1.429 . S
C3855 C3856 1.523 . S
C3856 C3837 1.368 . S
C3856 C3850 1.368 . S
C3856 C3855 1.523 . S
C3857 C3841 1.420 1_455 S
C3857 C3853 1.429 . S
C3857 C3858 1.523 . S
C3858 C3842 1.368 . S
C3858 C3854 1.368 . S
C3858 C3857 1.523 . S
H3859 C3834 0.950 . S
H3860 C3836 0.950 . S
H3861 C3837 0.949 1_655 S
H3862 C3839 0.950 . S
H3863 C3841 0.952 . S
C3864 C3865 1.349 . S
C3864 C3866 1.327 . S
C3864 H3889 0.950 . S
C3865 C3864 1.349 . S
C3865 C3881 1.349 . S
C3866 C3864 1.327 . S
C3866 C3885 1.429 . S
C3866 H3890 0.950 . S
C3867 C3884 1.574 . S
C3867 C3886 1.368 . S
C3867 H3891 0.949 . S
H3868 C3872 0.949 . S
C3869 C3870 1.349 . S
C3869 C3871 1.327 . S
C3869 H3892 0.950 . S
C3870 C3869 1.349 . S
C3870 C3882 1.349 . S
C3871 C3869 1.327 . S
C3871 C3887 1.429 . S
C3871 H3893 0.950 . S
C3872 H3868 0.949 . S
C3872 C3880 1.574 . S
C3872 C3888 1.368 . S
H3873 C3881 0.950 . S
H3874 C3879 0.950 . S
H3875 C3880 0.949 . S
H3876 C3882 0.950 . S
H3877 C3883 0.950 . S
H3878 C3884 0.949 . S
C3879 H3874 0.950 . S
C3879 C3881 1.327 . S
C3879 C3885 1.429 . S
C3880 C3872 1.574 . S
C3880 H3875 0.949 . S
C3880 C3886 1.368 . S
C3881 C3865 1.349 . S
C3881 H3873 0.950 . S
C3881 C3879 1.327 . S
C3882 C3870 1.349 . S
C3882 H3876 0.950 . S
C3882 C3883 1.327 . S
C3883 H3877 0.950 . S
C3883 C3882 1.327 . S
C3883 C3887 1.429 . S
C3884 C3867 1.574 . S
C3884 H3878 0.949 . S
C3884 C3888 1.368 . S
C3885 C3866 1.429 . S
C3885 C3879 1.429 . S
C3885 C3886 1.523 . S
C3886 C3867 1.368 . S
C3886 C3880 1.368 . S
C3886 C3885 1.523 . S
C3887 C3871 1.429 . S
C3887 C3883 1.429 . S
C3887 C3888 1.523 . S
C3888 C3872 1.368 . S
C3888 C3884 1.368 . S
C3888 C3887 1.523 . S
H3889 C3864 0.950 . S
H3890 C3866 0.950 . S
H3891 C3867 0.949 . S
H3892 C3869 0.950 . S
H3893 C3871 0.950 . S
C3894 C3895 1.349 . S
C3894 C3896 1.327 . S
C3894 H3919 0.950 . S
C3895 C3894 1.349 . S
C3895 C3911 1.377 . S
C3896 C3894 1.327 . S
C3896 C3915 1.429 . S
C3896 H3920 0.950 . S
C3897 C3914 1.574 . S
C3897 C3916 1.368 1_545 S
C3897 H3921 0.949 . S
H3898 C3902 0.949 . S
C3899 C3900 1.349 1_545 S
C3899 C3901 1.327 . S
C3899 H3922 0.950 . S
C3900 C3899 1.349 1_565 S
C3900 C3912 1.349 . S
C3901 C3899 1.327 . S
C3901 C3917 1.429 1_545 S
C3901 H3923 0.950 . S
C3902 H3898 0.949 . S
C3902 C3910 1.574 . S
C3902 C3918 1.368 . S
H3903 C3911 0.897 1_545 S
H3904 C3909 0.952 . S
H3905 C3910 0.949 . S
H3906 C3912 0.950 . S
H3907 C3913 0.950 . S
H3908 C3914 0.949 . S
C3909 H3904 0.952 . S
C3909 C3911 1.360 1_545 S
C3909 C3915 1.424 1_545 S
C3910 C3902 1.574 . S
C3910 H3905 0.949 . S
C3910 C3916 1.368 . S
C3911 C3895 1.377 . S
C3911 H3903 0.897 1_565 S
C3911 C3909 1.360 1_565 S
C3912 C3900 1.349 . S
C3912 H3906 0.950 . S
C3912 C3913 1.327 . S
C3913 H3907 0.950 . S
C3913 C3912 1.327 . S
C3913 C3917 1.429 . S
C3914 C3897 1.574 . S
C3914 H3908 0.949 . S
C3914 C3918 1.368 1_545 S
C3915 C3896 1.429 . S
C3915 C3909 1.424 1_565 S
C3915 C3916 1.523 . S
C3916 C3897 1.368 1_565 S
C3916 C3910 1.368 . S
C3916 C3915 1.523 . S
C3917 C3901 1.429 1_565 S
C3917 C3913 1.429 . S
C3917 C3918 1.523 . S
C3918 C3902 1.368 . S
C3918 C3914 1.368 1_565 S
C3918 C3917 1.523 . S
H3919 C3894 0.950 . S
H3920 C3896 0.950 . S
H3921 C3897 0.949 . S
H3922 C3899 0.950 . S
H3923 C3901 0.950 . S
C3924 C3925 1.349 . S
C3924 C3926 1.327 . S
C3924 H3949 0.950 . S
C3925 C3924 1.349 . S
C3925 C3941 1.349 . S
C3926 C3924 1.327 . S
C3926 C3945 1.429 . S
C3926 H3950 0.950 . S
C3927 C3944 1.574 . S
C3927 C3946 1.368 1_545 S
C3927 H3951 0.949 . S
H3928 C3932 0.949 . S
C3929 C3930 1.349 1_545 S
C3929 C3931 1.327 . S
C3929 H3952 0.950 . S
C3930 C3929 1.349 1_565 S
C3930 C3942 1.349 . S
C3931 C3929 1.327 . S
C3931 C3947 1.429 1_545 S
C3931 H3953 0.950 . S
C3932 H3928 0.949 . S
C3932 C3940 1.574 . S
C3932 C3948 1.368 . S
H3933 C3941 0.950 1_545 S
H3934 C3939 0.950 1_545 S
H3935 C3940 0.949 . S
H3936 C3942 0.950 . S
H3937 C3943 0.950 . S
H3938 C3944 0.949 . S
C3939 H3934 0.950 1_565 S
C3939 C3941 1.327 . S
C3939 C3945 1.429 . S
C3940 C3932 1.574 . S
C3940 H3935 0.949 . S
C3940 C3946 1.368 . S
C3941 C3925 1.349 . S
C3941 H3933 0.950 1_565 S
C3941 C3939 1.327 . S
C3942 C3930 1.349 . S
C3942 H3936 0.950 . S
C3942 C3943 1.327 . S
C3943 H3937 0.950 . S
C3943 C3942 1.327 . S
C3943 C3947 1.429 . S
C3944 C3927 1.574 . S
C3944 H3938 0.949 . S
C3944 C3948 1.368 1_545 S
C3945 C3926 1.429 . S
C3945 C3939 1.429 . S
C3945 C3946 1.523 . S
C3946 C3927 1.368 1_565 S
C3946 C3940 1.368 . S
C3946 C3945 1.523 . S
C3947 C3931 1.429 1_565 S
C3947 C3943 1.429 . S
C3947 C3948 1.523 . S
C3948 C3932 1.368 . S
C3948 C3944 1.368 1_565 S
C3948 C3947 1.523 . S
H3949 C3924 0.950 . S
H3950 C3926 0.950 . S
H3951 C3927 0.949 . S
H3952 C3929 0.950 . S
H3953 C3931 0.950 . S
C3954 C3955 1.349 . S
C3954 C3956 1.327 . S
C3954 H3979 0.950 . S
C3955 C3954 1.349 . S
C3955 C3971 1.349 . S
C3956 C3954 1.327 . S
C3956 C3975 1.429 . S
C3956 H3980 0.950 . S
C3957 C3974 1.574 . S
C3957 C3976 1.368 . S
C3957 H3981 0.949 . S
H3958 C3962 0.949 . S
C3959 C3960 1.353 1_655 S
C3959 C3961 1.327 . S
C3959 H3982 0.950 . S
C3960 C3959 1.353 1_455 S
C3960 C3972 1.347 . S
C3961 C3959 1.327 . S
C3961 C3977 1.429 1_655 S
C3961 H3983 0.950 . S
C3962 H3958 0.949 . S
C3962 C3970 1.574 . S
C3962 C3978 1.368 . S
H3963 C3971 0.950 . S
H3964 C3969 0.950 . S
H3965 C3970 0.949 . S
H3966 C3972 0.950 . S
H3967 C3973 0.950 . S
H3968 C3974 0.949 1_655 S
C3969 H3964 0.950 . S
C3969 C3971 1.327 . S
C3969 C3975 1.429 . S
C3970 C3962 1.574 . S
C3970 H3965 0.949 . S
C3970 C3976 1.368 . S
C3971 C3955 1.349 . S
C3971 H3963 0.950 . S
C3971 C3969 1.327 . S
C3972 C3960 1.347 . S
C3972 H3966 0.950 . S
C3972 C3973 1.327 . S
C3973 H3967 0.950 . S
C3973 C3972 1.327 . S
C3973 C3977 1.429 . S
C3974 C3957 1.574 . S
C3974 H3968 0.949 1_455 S
C3974 C3978 1.368 . S
C3975 C3956 1.429 . S
C3975 C3969 1.429 . S
C3975 C3976 1.523 . S
C3976 C3957 1.368 . S
C3976 C3970 1.368 . S
C3976 C3975 1.523 . S
C3977 C3961 1.429 1_455 S
C3977 C3973 1.429 . S
C3977 C3978 1.523 . S
C3978 C3962 1.368 . S
C3978 C3974 1.368 . S
C3978 C3977 1.523 . S
H3979 C3954 0.950 . S
H3980 C3956 0.950 . S
H3981 C3957 0.949 . S
H3982 C3959 0.950 . S
H3983 C3961 0.950 . S
C3984 C3985 1.349 . S
C3984 C3986 1.327 . S
C3984 H4009 0.950 . S
C3985 C3984 1.349 . S
C3985 C4001 1.349 . S
C3986 C3984 1.327 . S
C3986 C4005 1.429 . S
C3986 H4010 0.950 . S
C3987 C4004 1.574 . S
C3987 C4006 1.368 . S
C3987 H4011 0.949 . S
H3988 C3992 0.949 . S
C3989 C3990 1.349 . S
C3989 C3991 1.327 . S
C3989 H4012 0.950 . S
C3990 C3989 1.349 . S
C3990 C4002 1.349 . S
C3991 C3989 1.327 . S
C3991 C4007 1.429 . S
C3991 H4013 0.950 . S
C3992 H3988 0.949 . S
C3992 C4000 1.574 . S
C3992 C4008 1.368 . S
H3993 C4001 0.950 . S
H3994 C3999 0.950 . S
H3995 C4000 0.949 . S
H3996 C4002 0.950 . S
H3997 C4003 0.950 . S
H3998 C4004 0.949 . S
C3999 H3994 0.950 . S
C3999 C4001 1.327 . S
C3999 C4005 1.429 . S
C4000 C3992 1.574 . S
C4000 H3995 0.949 . S
C4000 C4006 1.368 . S
C4001 C3985 1.349 . S
C4001 H3993 0.950 . S
C4001 C3999 1.327 . S
C4002 C3990 1.349 . S
C4002 H3996 0.950 . S
C4002 C4003 1.327 . S
C4003 H3997 0.950 . S
C4003 C4002 1.327 . S
C4003 C4007 1.429 . S
C4004 C3987 1.574 . S
C4004 H3998 0.949 . S
C4004 C4008 1.368 . S
C4005 C3986 1.429 . S
C4005 C3999 1.429 . S
C4005 C4006 1.523 . S
C4006 C3987 1.368 . S
C4006 C4000 1.368 . S
C4006 C4005 1.523 . S
C4007 C3991 1.429 . S
C4007 C4003 1.429 . S
C4007 C4008 1.523 . S
C4008 C3992 1.368 . S
C4008 C4004 1.368 . S
C4008 C4007 1.523 . S
H4009 C3984 0.950 . S
H4010 C3986 0.950 . S
H4011 C3987 0.949 . S
H4012 C3989 0.950 . S
H4013 C3991 0.950 . S
C4014 C4015 1.349 . S
C4014 C4016 1.327 . S
C4014 H4039 0.950 . S
C4015 C4014 1.349 . S
C4015 C4031 1.349 . S
C4016 C4014 1.327 . S
C4016 C4035 1.429 . S
C4016 H4040 0.950 . S
C4017 C4034 1.574 . S
C4017 C4036 1.368 . S
C4017 H4041 0.949 . S
H4018 C4022 0.949 . S
C4019 C4020 1.349 . S
C4019 C4021 1.327 . S
C4019 H4042 0.950 . S
C4020 C4019 1.349 . S
C4020 C4032 1.349 . S
C4021 C4019 1.327 . S
C4021 C4037 1.429 . S
C4021 H4043 0.950 . S
C4022 H4018 0.949 . S
C4022 C4030 1.574 . S
C4022 C4038 1.368 . S
H4023 C4031 0.950 . S
H4024 C4029 0.950 . S
H4025 C4030 0.949 . S
H4026 C4032 0.950 . S
H4027 C4033 0.950 . S
H4028 C4034 0.949 . S
C4029 H4024 0.950 . S
C4029 C4031 1.327 . S
C4029 C4035 1.429 . S
C4030 C4022 1.574 . S
C4030 H4025 0.949 . S
C4030 C4036 1.368 . S
C4031 C4015 1.349 . S
C4031 H4023 0.950 . S
C4031 C4029 1.327 . S
C4032 C4020 1.349 . S
C4032 H4026 0.950 . S
C4032 C4033 1.327 . S
C4033 H4027 0.950 . S
C4033 C4032 1.327 . S
C4033 C4037 1.429 . S
C4034 C4017 1.574 . S
C4034 H4028 0.949 . S
C4034 C4038 1.368 . S
C4035 C4016 1.429 . S
C4035 C4029 1.429 . S
C4035 C4036 1.523 . S
C4036 C4017 1.368 . S
C4036 C4030 1.368 . S
C4036 C4035 1.523 . S
C4037 C4021 1.429 . S
C4037 C4033 1.429 . S
C4037 C4038 1.523 . S
C4038 C4022 1.368 . S
C4038 C4034 1.368 . S
C4038 C4037 1.523 . S
H4039 C4014 0.950 . S
H4040 C4016 0.950 . S
H4041 C4017 0.949 . S
H4042 C4019 0.950 . S
H4043 C4021 0.950 . S
C4044 C4045 1.349 . S
C4044 C4046 1.327 . S
C4044 H4069 0.950 . S
C4045 C4044 1.349 . S
C4045 C4061 1.349 . S
C4046 C4044 1.327 . S
C4046 C4065 1.429 . S
C4046 H4070 0.950 . S
C4047 C4064 1.574 . S
C4047 C4066 1.368 . S
C4047 H4071 0.949 . S
H4048 C4052 0.949 . S
C4049 C4050 1.349 . S
C4049 C4051 1.327 . S
C4049 H4072 0.950 . S
C4050 C4049 1.349 . S
C4050 C4062 1.349 . S
C4051 C4049 1.327 . S
C4051 C4067 1.429 . S
C4051 H4073 0.950 . S
C4052 H4048 0.949 . S
C4052 C4060 1.574 . S
C4052 C4068 1.368 . S
H4053 C4061 0.950 . S
H4054 C4059 0.950 . S
H4055 C4060 0.949 . S
H4056 C4062 0.950 . S
H4057 C4063 0.950 . S
H4058 C4064 0.949 . S
C4059 H4054 0.950 . S
C4059 C4061 1.327 . S
C4059 C4065 1.429 . S
C4060 C4052 1.574 . S
C4060 H4055 0.949 . S
C4060 C4066 1.368 . S
C4061 C4045 1.349 . S
C4061 H4053 0.950 . S
C4061 C4059 1.327 . S
C4062 C4050 1.349 . S
C4062 H4056 0.950 . S
C4062 C4063 1.327 . S
C4063 H4057 0.950 . S
C4063 C4062 1.327 . S
C4063 C4067 1.429 . S
C4064 C4047 1.574 . S
C4064 H4058 0.949 . S
C4064 C4068 1.368 . S
C4065 C4046 1.429 . S
C4065 C4059 1.429 . S
C4065 C4066 1.523 . S
C4066 C4047 1.368 . S
C4066 C4060 1.368 . S
C4066 C4065 1.523 . S
C4067 C4051 1.429 . S
C4067 C4063 1.429 . S
C4067 C4068 1.523 . S
C4068 C4052 1.368 . S
C4068 C4064 1.368 . S
C4068 C4067 1.523 . S
H4069 C4044 0.950 . S
H4070 C4046 0.950 . S
H4071 C4047 0.949 . S
H4072 C4049 0.950 . S
H4073 C4051 0.950 . S
C4074 C4075 1.349 . S
C4074 C4076 1.327 . S
C4074 H4099 0.950 . S
C4075 C4074 1.349 . S
C4075 C4091 1.349 . S
C4076 C4074 1.327 . S
C4076 C4095 1.429 . S
C4076 H4100 0.950 . S
C4077 C4094 1.574 . S
C4077 C4096 1.368 . S
C4077 H4101 0.949 . S
H4078 C4082 0.949 . S
C4079 C4080 1.349 . S
C4079 C4081 1.327 . S
C4079 H4102 0.950 . S
C4080 C4079 1.349 . S
C4080 C4092 1.349 . S
C4081 C4079 1.327 . S
C4081 C4097 1.429 . S
C4081 H4103 0.950 . S
C4082 H4078 0.949 . S
C4082 C4090 1.574 . S
C4082 C4098 1.368 . S
H4083 C4091 0.950 . S
H4084 C4089 0.950 . S
H4085 C4090 0.949 . S
H4086 C4092 0.950 . S
H4087 C4093 0.950 . S
H4088 C4094 0.949 . S
C4089 H4084 0.950 . S
C4089 C4091 1.327 . S
C4089 C4095 1.429 . S
C4090 C4082 1.574 . S
C4090 H4085 0.949 . S
C4090 C4096 1.368 . S
C4091 C4075 1.349 . S
C4091 H4083 0.950 . S
C4091 C4089 1.327 . S
C4092 C4080 1.349 . S
C4092 H4086 0.950 . S
C4092 C4093 1.327 . S
C4093 H4087 0.950 . S
C4093 C4092 1.327 . S
C4093 C4097 1.429 . S
C4094 C4077 1.574 . S
C4094 H4088 0.949 . S
C4094 C4098 1.368 . S
C4095 C4076 1.429 . S
C4095 C4089 1.429 . S
C4095 C4096 1.523 . S
C4096 C4077 1.368 . S
C4096 C4090 1.368 . S
C4096 C4095 1.523 . S
C4097 C4081 1.429 . S
C4097 C4093 1.429 . S
C4097 C4098 1.523 . S
C4098 C4082 1.368 . S
C4098 C4094 1.368 . S
C4098 C4097 1.523 . S
H4099 C4074 0.950 . S
H4100 C4076 0.950 . S
H4101 C4077 0.949 . S
H4102 C4079 0.950 . S
H4103 C4081 0.950 . S
C4104 C4105 1.349 . S
C4104 C4106 1.327 . S
C4104 H4129 0.950 . S
C4105 C4104 1.349 . S
C4105 C4121 1.349 . S
C4106 C4104 1.327 . S
C4106 C4125 1.429 . S
C4106 H4130 0.950 . S
C4107 C4124 1.574 . S
C4107 C4126 1.368 . S
C4107 H4131 0.949 . S
H4108 C4112 0.949 . S
C4109 C4110 1.349 . S
C4109 C4111 1.327 . S
C4109 H4132 0.950 . S
C4110 C4109 1.349 . S
C4110 C4122 1.349 . S
C4111 C4109 1.327 . S
C4111 C4127 1.429 . S
C4111 H4133 0.950 . S
C4112 H4108 0.949 . S
C4112 C4120 1.574 . S
C4112 C4128 1.368 . S
H4113 C4121 0.950 . S
H4114 C4119 0.950 . S
H4115 C4120 0.949 . S
H4116 C4122 0.950 1_565 S
H4117 C4123 0.976 . S
H4118 C4124 0.949 . S
C4119 H4114 0.950 . S
C4119 C4121 1.327 . S
C4119 C4125 1.429 . S
C4120 C4112 1.574 . S
C4120 H4115 0.949 . S
C4120 C4126 1.368 . S
C4121 C4105 1.349 . S
C4121 H4113 0.950 . S
C4121 C4119 1.327 . S
C4122 C4110 1.349 . S
C4122 H4116 0.950 1_545 S
C4122 C4123 1.327 . S
C4123 H4117 0.976 . S
C4123 C4122 1.327 . S
C4123 C4127 1.429 . S
C4124 C4107 1.574 . S
C4124 H4118 0.949 . S
C4124 C4128 1.368 . S
C4125 C4106 1.429 . S
C4125 C4119 1.429 . S
C4125 C4126 1.523 . S
C4126 C4107 1.368 . S
C4126 C4120 1.368 . S
C4126 C4125 1.523 . S
C4127 C4111 1.429 . S
C4127 C4123 1.429 . S
C4127 C4128 1.523 . S
C4128 C4112 1.368 . S
C4128 C4124 1.368 . S
C4128 C4127 1.523 . S
H4129 C4104 0.950 . S
H4130 C4106 0.950 . S
H4131 C4107 0.949 . S
H4132 C4109 0.950 . S
H4133 C4111 0.950 . S
C4134 C4135 1.349 . S
C4134 C4136 1.327 . S
C4134 H4159 0.950 . S
C4135 C4134 1.349 . S
C4135 C4151 1.349 . S
C4136 C4134 1.327 . S
C4136 C4155 1.429 . S
C4136 H4160 0.950 . S
C4137 C4154 1.571 . S
C4137 C4156 1.364 1_455 S
C4137 H4161 0.955 . S
H4138 C4142 0.949 . S
C4139 C4140 1.349 1_455 S
C4139 C4141 1.327 . S
C4139 H4162 0.950 . S
C4140 C4139 1.349 1_655 S
C4140 C4152 1.349 . S
C4141 C4139 1.327 . S
C4141 C4157 1.429 1_455 S
C4141 H4163 0.950 . S
C4142 H4138 0.949 . S
C4142 C4150 1.574 . S
C4142 C4158 1.368 . S
H4143 C4151 0.950 1_455 S
H4144 C4149 0.950 1_455 S
H4145 C4150 0.949 . S
H4146 C4152 0.950 . S
H4147 C4153 0.950 . S
H4148 C4154 0.949 . S
C4149 H4144 0.950 1_655 S
C4149 C4151 1.327 . S
C4149 C4155 1.429 . S
C4150 C4142 1.574 . S
C4150 H4145 0.949 . S
C4150 C4156 1.368 . S
C4151 C4135 1.349 . S
C4151 H4143 0.950 1_655 S
C4151 C4149 1.327 . S
C4152 C4140 1.349 . S
C4152 H4146 0.950 . S
C4152 C4153 1.327 . S
C4153 H4147 0.950 . S
C4153 C4152 1.327 . S
C4153 C4157 1.429 . S
C4154 C4137 1.571 . S
C4154 H4148 0.949 . S
C4154 C4158 1.368 1_455 S
C4155 C4136 1.429 . S
C4155 C4149 1.429 . S
C4155 C4156 1.523 . S
C4156 C4137 1.364 1_655 S
C4156 C4150 1.368 . S
C4156 C4155 1.523 . S
C4157 C4141 1.429 1_655 S
C4157 C4153 1.429 . S
C4157 C4158 1.523 . S
C4158 C4142 1.368 . S
C4158 C4154 1.368 1_655 S
C4158 C4157 1.523 . S
H4159 C4134 0.950 . S
H4160 C4136 0.950 . S
H4161 C4137 0.955 . S
H4162 C4139 0.950 . S
H4163 C4141 0.950 . S
C4164 C4165 1.349 . S
C4164 C4166 1.327 . S
C4164 H4189 0.950 . S
C4165 C4164 1.349 . S
C4165 C4181 1.349 . S
C4166 C4164 1.327 . S
C4166 C4185 1.429 . S
C4166 H4190 0.950 . S
C4167 C4184 1.574 . S
C4167 C4186 1.368 . S
C4167 H4191 0.949 . S
H4168 C4172 0.949 . S
C4169 C4170 1.349 . S
C4169 C4171 1.327 . S
C4169 H4192 0.950 . S
C4170 C4169 1.349 . S
C4170 C4182 1.349 . S
C4171 C4169 1.327 . S
C4171 C4187 1.429 . S
C4171 H4193 0.950 . S
C4172 H4168 0.949 . S
C4172 C4180 1.574 . S
C4172 C4188 1.368 . S
H4173 C4181 0.950 . S
H4174 C4179 0.950 . S
H4175 C4180 0.949 . S
H4176 C4182 0.950 . S
H4177 C4183 0.950 . S
H4178 C4184 0.949 . S
C4179 H4174 0.950 . S
C4179 C4181 1.327 . S
C4179 C4185 1.429 . S
C4180 C4172 1.574 . S
C4180 H4175 0.949 . S
C4180 C4186 1.368 . S
C4181 C4165 1.349 . S
C4181 H4173 0.950 . S
C4181 C4179 1.327 . S
C4182 C4170 1.349 . S
C4182 H4176 0.950 . S
C4182 C4183 1.327 . S
C4183 H4177 0.950 . S
C4183 C4182 1.327 . S
C4183 C4187 1.429 . S
C4184 C4167 1.574 . S
C4184 H4178 0.949 . S
C4184 C4188 1.368 . S
C4185 C4166 1.429 . S
C4185 C4179 1.429 . S
C4185 C4186 1.523 . S
C4186 C4167 1.368 . S
C4186 C4180 1.368 . S
C4186 C4185 1.523 . S
C4187 C4171 1.429 . S
C4187 C4183 1.429 . S
C4187 C4188 1.523 . S
C4188 C4172 1.368 . S
C4188 C4184 1.368 . S
C4188 C4187 1.523 . S
H4189 C4164 0.950 . S
H4190 C4166 0.950 . S
H4191 C4167 0.949 . S
H4192 C4169 0.950 . S
H4193 C4171 0.950 . S
C4194 C4195 1.349 . S
C4194 C4196 1.327 . S
C4194 H4219 0.950 . S
C4195 C4194 1.349 . S
C4195 C4211 1.349 . S
C4196 C4194 1.327 . S
C4196 C4215 1.429 . S
C4196 H4220 0.950 . S
C4197 C4214 1.574 . S
C4197 C4216 1.368 . S
C4197 H4221 0.949 . S
H4198 C4202 0.949 . S
C4199 C4200 1.349 . S
C4199 C4201 1.327 . S
C4199 H4222 0.950 . S
C4200 C4199 1.349 . S
C4200 C4212 1.349 . S
C4201 C4199 1.327 . S
C4201 C4217 1.429 . S
C4201 H4223 0.950 . S
C4202 H4198 0.949 . S
C4202 C4210 1.574 . S
C4202 C4218 1.368 . S
H4203 C4211 0.950 . S
H4204 C4209 0.950 . S
H4205 C4210 0.949 . S
H4206 C4212 0.950 . S
H4207 C4213 0.950 . S
H4208 C4214 0.949 . S
C4209 H4204 0.950 . S
C4209 C4211 1.327 . S
C4209 C4215 1.429 . S
C4210 C4202 1.574 . S
C4210 H4205 0.949 . S
C4210 C4216 1.368 . S
C4211 C4195 1.349 . S
C4211 H4203 0.950 . S
C4211 C4209 1.327 . S
C4212 C4200 1.349 . S
C4212 H4206 0.950 . S
C4212 C4213 1.327 . S
C4213 H4207 0.950 . S
C4213 C4212 1.327 . S
C4213 C4217 1.429 . S
C4214 C4197 1.574 . S
C4214 H4208 0.949 . S
C4214 C4218 1.368 . S
C4215 C4196 1.429 . S
C4215 C4209 1.429 . S
C4215 C4216 1.523 . S
C4216 C4197 1.368 . S
C4216 C4210 1.368 . S
C4216 C4215 1.523 . S
C4217 C4201 1.429 . S
C4217 C4213 1.429 . S
C4217 C4218 1.523 . S
C4218 C4202 1.368 . S
C4218 C4214 1.368 . S
C4218 C4217 1.523 . S
H4219 C4194 0.950 . S
H4220 C4196 0.950 . S
H4221 C4197 0.949 . S
H4222 C4199 0.950 . S
H4223 C4201 0.950 . S
C4224 C4225 1.349 . S
C4224 C4226 1.327 . S
C4224 H4249 0.950 . S
C4225 C4224 1.349 . S
C4225 C4241 1.349 . S
C4226 C4224 1.327 . S
C4226 C4245 1.429 . S
C4226 H4250 0.950 . S
C4227 C4244 1.574 . S
C4227 C4246 1.368 . S
C4227 H4251 0.949 . S
H4228 C4232 0.949 . S
C4229 C4230 1.349 . S
C4229 C4231 1.327 . S
C4229 H4252 0.950 . S
C4230 C4229 1.349 . S
C4230 C4242 1.349 . S
C4231 C4229 1.327 . S
C4231 C4247 1.429 . S
C4231 H4253 0.950 . S
C4232 H4228 0.949 . S
C4232 C4240 1.574 . S
C4232 C4248 1.368 . S
H4233 C4241 0.950 . S
H4234 C4239 0.950 . S
H4235 C4240 0.949 . S
H4236 C4242 0.950 . S
H4237 C4243 0.950 . S
H4238 C4244 0.949 . S
C4239 H4234 0.950 . S
C4239 C4241 1.327 . S
C4239 C4245 1.429 . S
C4240 C4232 1.574 . S
C4240 H4235 0.949 . S
C4240 C4246 1.368 . S
C4241 C4225 1.349 . S
C4241 H4233 0.950 . S
C4241 C4239 1.327 . S
C4242 C4230 1.349 . S
C4242 H4236 0.950 . S
C4242 C4243 1.327 . S
C4243 H4237 0.950 . S
C4243 C4242 1.327 . S
C4243 C4247 1.429 . S
C4244 C4227 1.574 . S
C4244 H4238 0.949 . S
C4244 C4248 1.368 . S
C4245 C4226 1.429 . S
C4245 C4239 1.429 . S
C4245 C4246 1.523 . S
C4246 C4227 1.368 . S
C4246 C4240 1.368 . S
C4246 C4245 1.523 . S
C4247 C4231 1.429 . S
C4247 C4243 1.429 . S
C4247 C4248 1.523 . S
C4248 C4232 1.368 . S
C4248 C4244 1.368 . S
C4248 C4247 1.523 . S
H4249 C4224 0.950 . S
H4250 C4226 0.950 . S
H4251 C4227 0.949 . S
H4252 C4229 0.950 . S
H4253 C4231 0.950 . S
C4254 C4255 1.349 . S
C4254 C4256 1.327 . S
C4254 H4279 0.950 . S
C4255 C4254 1.349 . S
C4255 C4271 1.349 . S
C4256 C4254 1.327 . S
C4256 C4275 1.429 . S
C4256 H4280 0.950 . S
C4257 C4274 1.574 . S
C4257 C4276 1.368 . S
C4257 H4281 0.949 . S
H4258 C4262 0.949 . S
C4259 C4260 1.349 . S
C4259 C4261 1.327 . S
C4259 H4282 0.950 . S
C4260 C4259 1.349 . S
C4260 C4272 1.349 . S
C4261 C4259 1.327 . S
C4261 C4277 1.429 . S
C4261 H4283 0.950 . S
C4262 H4258 0.949 . S
C4262 C4270 1.574 . S
C4262 C4278 1.368 . S
H4263 C4271 0.950 . S
H4264 C4269 0.950 . S
H4265 C4270 0.949 . S
H4266 C4272 0.950 . S
H4267 C4273 0.950 . S
H4268 C4274 0.949 . S
C4269 H4264 0.950 . S
C4269 C4271 1.327 . S
C4269 C4275 1.429 . S
C4270 C4262 1.574 . S
C4270 H4265 0.949 . S
C4270 C4276 1.368 . S
C4271 C4255 1.349 . S
C4271 H4263 0.950 . S
C4271 C4269 1.327 . S
C4272 C4260 1.349 . S
C4272 H4266 0.950 . S
C4272 C4273 1.327 . S
C4273 H4267 0.950 . S
C4273 C4272 1.327 . S
C4273 C4277 1.429 . S
C4274 C4257 1.574 . S
C4274 H4268 0.949 . S
C4274 C4278 1.368 . S
C4275 C4256 1.429 . S
C4275 C4269 1.429 . S
C4275 C4276 1.523 . S
C4276 C4257 1.368 . S
C4276 C4270 1.368 . S
C4276 C4275 1.523 . S
C4277 C4261 1.429 . S
C4277 C4273 1.429 . S
C4277 C4278 1.523 . S
C4278 C4262 1.368 . S
C4278 C4274 1.368 . S
C4278 C4277 1.523 . S
H4279 C4254 0.950 . S
H4280 C4256 0.950 . S
H4281 C4257 0.949 . S
H4282 C4259 0.950 . S
H4283 C4261 0.950 . S
C4284 C4285 1.349 . S
C4284 C4286 1.327 . S
C4284 H4309 0.950 . S
C4285 C4284 1.349 . S
C4285 C4301 1.349 . S
C4286 C4284 1.327 . S
C4286 C4305 1.429 . S
C4286 H4310 0.950 . S
C4287 C4304 1.574 . S
C4287 C4306 1.368 . S
C4287 H4311 0.949 . S
H4288 C4292 0.949 . S
C4289 C4290 1.349 . S
C4289 C4291 1.327 . S
C4289 H4312 0.950 . S
C4290 C4289 1.349 . S
C4290 C4302 1.349 . S
C4291 C4289 1.327 . S
C4291 C4307 1.429 . S
C4291 H4313 0.950 . S
C4292 H4288 0.949 . S
C4292 C4300 1.574 . S
C4292 C4308 1.368 . S
H4293 C4301 0.950 . S
H4294 C4299 0.950 . S
H4295 C4300 0.949 . S
H4296 C4302 0.950 . S
H4297 C4303 0.950 . S
H4298 C4304 0.949 . S
C4299 H4294 0.950 . S
C4299 C4301 1.327 . S
C4299 C4305 1.429 . S
C4300 C4292 1.574 . S
C4300 H4295 0.949 . S
C4300 C4306 1.368 . S
C4301 C4285 1.349 . S
C4301 H4293 0.950 . S
C4301 C4299 1.327 . S
C4302 C4290 1.349 . S
C4302 H4296 0.950 . S
C4302 C4303 1.327 . S
C4303 H4297 0.950 . S
C4303 C4302 1.327 . S
C4303 C4307 1.429 . S
C4304 C4287 1.574 . S
C4304 H4298 0.949 . S
C4304 C4308 1.368 . S
C4305 C4286 1.429 . S
C4305 C4299 1.429 . S
C4305 C4306 1.523 . S
C4306 C4287 1.368 . S
C4306 C4300 1.368 . S
C4306 C4305 1.523 . S
C4307 C4291 1.429 . S
C4307 C4303 1.429 . S
C4307 C4308 1.523 . S
C4308 C4292 1.368 . S
C4308 C4304 1.368 . S
C4308 C4307 1.523 . S
H4309 C4284 0.950 . S
H4310 C4286 0.950 . S
H4311 C4287 0.949 . S
H4312 C4289 0.950 . S
H4313 C4291 0.950 . S
C4314 C4315 1.349 . S
C4314 C4316 1.327 . S
C4314 H4339 0.950 . S
C4315 C4314 1.349 . S
C4315 C4331 1.349 . S
C4316 C4314 1.327 . S
C4316 C4335 1.429 . S
C4316 H4340 0.950 . S
C4317 C4334 1.574 . S
C4317 C4336 1.368 . S
C4317 H4341 0.949 . S
H4318 C4322 0.949 . S
C4319 C4320 1.349 . S
C4319 C4321 1.327 . S
C4319 H4342 0.950 . S
C4320 C4319 1.349 . S
C4320 C4332 1.349 . S
C4321 C4319 1.327 . S
C4321 C4337 1.429 . S
C4321 H4343 0.950 . S
C4322 H4318 0.949 . S
C4322 C4330 1.574 . S
C4322 C4338 1.368 . S
H4323 C4331 0.950 . S
H4324 C4329 0.950 . S
H4325 C4330 0.949 . S
H4326 C4332 0.950 . S
H4327 C4333 0.950 . S
H4328 C4334 0.949 . S
C4329 H4324 0.950 . S
C4329 C4331 1.327 . S
C4329 C4335 1.429 . S
C4330 C4322 1.574 . S
C4330 H4325 0.949 . S
C4330 C4336 1.368 . S
C4331 C4315 1.349 . S
C4331 H4323 0.950 . S
C4331 C4329 1.327 . S
C4332 C4320 1.349 . S
C4332 H4326 0.950 . S
C4332 C4333 1.327 . S
C4333 H4327 0.950 . S
C4333 C4332 1.327 . S
C4333 C4337 1.429 . S
C4334 C4317 1.574 . S
C4334 H4328 0.949 . S
C4334 C4338 1.368 . S
C4335 C4316 1.429 . S
C4335 C4329 1.429 . S
C4335 C4336 1.523 . S
C4336 C4317 1.368 . S
C4336 C4330 1.368 . S
C4336 C4335 1.523 . S
C4337 C4321 1.429 . S
C4337 C4333 1.429 . S
C4337 C4338 1.523 . S
C4338 C4322 1.368 . S
C4338 C4334 1.368 . S
C4338 C4337 1.523 . S
H4339 C4314 0.950 . S
H4340 C4316 0.950 . S
H4341 C4317 0.949 . S
H4342 C4319 0.950 . S
H4343 C4321 0.950 . S
C4344 C4345 1.349 . S
C4344 C4346 1.327 . S
C4344 H4369 0.950 . S
C4345 C4344 1.349 . S
C4345 C4361 1.349 . S
C4346 C4344 1.327 . S
C4346 C4365 1.429 . S
C4346 H4370 0.950 . S
C4347 C4364 1.574 . S
C4347 C4366 1.368 . S
C4347 H4371 0.949 . S
H4348 C4352 0.949 . S
C4349 C4350 1.349 . S
C4349 C4351 1.327 . S
C4349 H4372 0.950 . S
C4350 C4349 1.349 . S
C4350 C4362 1.349 . S
C4351 C4349 1.327 . S
C4351 C4367 1.429 . S
C4351 H4373 0.950 . S
C4352 H4348 0.949 . S
C4352 C4360 1.574 . S
C4352 C4368 1.368 . S
H4353 C4361 0.950 . S
H4354 C4359 0.950 . S
H4355 C4360 0.949 . S
H4356 C4362 0.950 . S
H4357 C4363 0.950 . S
H4358 C4364 0.949 . S
C4359 H4354 0.950 . S
C4359 C4361 1.327 . S
C4359 C4365 1.429 . S
C4360 C4352 1.574 . S
C4360 H4355 0.949 . S
C4360 C4366 1.368 . S
C4361 C4345 1.349 . S
C4361 H4353 0.950 . S
C4361 C4359 1.327 . S
C4362 C4350 1.349 . S
C4362 H4356 0.950 . S
C4362 C4363 1.327 . S
C4363 H4357 0.950 . S
C4363 C4362 1.327 . S
C4363 C4367 1.429 . S
C4364 C4347 1.574 . S
C4364 H4358 0.949 . S
C4364 C4368 1.368 . S
C4365 C4346 1.429 . S
C4365 C4359 1.429 . S
C4365 C4366 1.523 . S
C4366 C4347 1.368 . S
C4366 C4360 1.368 . S
C4366 C4365 1.523 . S
C4367 C4351 1.429 . S
C4367 C4363 1.429 . S
C4367 C4368 1.523 . S
C4368 C4352 1.368 . S
C4368 C4364 1.368 . S
C4368 C4367 1.523 . S
H4369 C4344 0.950 . S
H4370 C4346 0.950 . S
H4371 C4347 0.949 . S
H4372 C4349 0.950 . S
H4373 C4351 0.950 . S
C4374 C4375 1.349 . S
C4374 C4376 1.327 . S
C4374 H4399 0.950 1_655 S
C4375 C4374 1.349 . S
C4375 C4391 1.349 . S
C4376 C4374 1.327 . S
C4376 C4395 1.429 . S
C4376 H4400 0.950 1_655 S
C4377 C4394 1.574 . S
C4377 C4396 1.368 . S
C4377 H4401 0.949 . S
H4378 C4382 0.949 . S
C4379 C4380 1.349 . S
C4379 C4381 1.327 . S
C4379 H4402 0.950 . S
C4380 C4379 1.349 . S
C4380 C4392 1.349 1_655 S
C4381 C4379 1.327 . S
C4381 C4397 1.429 . S
C4381 H4403 0.950 . S
C4382 H4378 0.949 . S
C4382 C4390 1.626 . S
C4382 C4398 1.368 1_455 S
H4383 C4391 0.950 . S
H4384 C4389 0.950 . S
H4385 C4390 0.991 . S
H4386 C4392 0.950 . S
H4387 C4393 0.950 . S
H4388 C4394 0.949 . S
C4389 H4384 0.950 . S
C4389 C4391 1.327 . S
C4389 C4395 1.429 . S
C4390 C4382 1.626 . S
C4390 H4385 0.991 . S
C4390 C4396 1.276 1_455 S
C4391 C4375 1.349 . S
C4391 H4383 0.950 . S
C4391 C4389 1.327 . S
C4392 C4380 1.349 1_455 S
C4392 H4386 0.950 . S
C4392 C4393 1.327 . S
C4393 H4387 0.950 . S
C4393 C4392 1.327 . S
C4393 C4397 1.429 1_455 S
C4394 C4377 1.574 . S
C4394 H4388 0.949 . S
C4394 C4398 1.368 . S
C4395 C4376 1.429 . S
C4395 C4389 1.429 . S
C4395 C4396 1.523 . S
C4396 C4377 1.368 . S
C4396 C4390 1.276 1_655 S
C4396 C4395 1.523 . S
C4397 C4381 1.429 . S
C4397 C4393 1.429 1_655 S
C4397 C4398 1.523 . S
C4398 C4382 1.368 1_655 S
C4398 C4394 1.368 . S
C4398 C4397 1.523 . S
H4399 C4374 0.950 1_455 S
H4400 C4376 0.950 1_455 S
H4401 C4377 0.949 . S
H4402 C4379 0.950 . S
H4403 C4381 0.950 . S
C4404 C4405 1.349 . S
C4404 C4406 1.327 . S
C4404 H4429 0.950 . S
C4405 C4404 1.349 . S
C4405 C4421 1.349 . S
C4406 C4404 1.327 . S
C4406 C4425 1.429 . S
C4406 H4430 0.950 . S
C4407 C4424 1.574 . S
C4407 C4426 1.368 . S
C4407 H4431 0.949 . S
H4408 C4412 0.949 . S
C4409 C4410 1.349 . S
C4409 C4411 1.327 . S
C4409 H4432 0.950 . S
C4410 C4409 1.349 . S
C4410 C4422 1.349 . S
C4411 C4409 1.327 . S
C4411 C4427 1.429 . S
C4411 H4433 0.950 . S
C4412 H4408 0.949 . S
C4412 C4420 1.574 . S
C4412 C4428 1.368 . S
H4413 C4421 0.950 . S
H4414 C4419 0.950 . S
H4415 C4420 0.949 . S
H4416 C4422 0.950 . S
H4417 C4423 0.950 . S
H4418 C4424 0.949 . S
C4419 H4414 0.950 . S
C4419 C4421 1.327 . S
C4419 C4425 1.429 . S
C4420 C4412 1.574 . S
C4420 H4415 0.949 . S
C4420 C4426 1.368 . S
C4421 C4405 1.349 . S
C4421 H4413 0.950 . S
C4421 C4419 1.327 . S
C4422 C4410 1.349 . S
C4422 H4416 0.950 . S
C4422 C4423 1.327 . S
C4423 H4417 0.950 . S
C4423 C4422 1.327 . S
C4423 C4427 1.429 . S
C4424 C4407 1.574 . S
C4424 H4418 0.949 . S
C4424 C4428 1.368 . S
C4425 C4406 1.429 . S
C4425 C4419 1.429 . S
C4425 C4426 1.523 . S
C4426 C4407 1.368 . S
C4426 C4420 1.368 . S
C4426 C4425 1.523 . S
C4427 C4411 1.429 . S
C4427 C4423 1.429 . S
C4427 C4428 1.523 . S
C4428 C4412 1.368 . S
C4428 C4424 1.368 . S
C4428 C4427 1.523 . S
H4429 C4404 0.950 . S
H4430 C4406 0.950 . S
H4431 C4407 0.949 . S
H4432 C4409 0.950 . S
H4433 C4411 0.950 . S
C4434 C4435 1.349 . S
C4434 C4436 1.327 . S
C4434 H4459 0.950 . S
C4435 C4434 1.349 . S
C4435 C4451 1.349 . S
C4436 C4434 1.327 . S
C4436 C4455 1.429 . S
C4436 H4460 0.950 . S
C4437 C4454 1.574 . S
C4437 C4456 1.368 1_565 S
C4437 H4461 0.949 . S
H4438 C4442 0.949 . S
C4439 C4440 1.348 . S
C4439 C4441 1.327 . S
C4439 H4462 0.950 . S
C4440 C4439 1.348 . S
C4440 C4452 1.350 1_565 S
C4441 C4439 1.327 . S
C4441 C4457 1.429 1_565 S
C4441 H4463 0.950 . S
C4442 H4438 0.949 . S
C4442 C4450 1.574 . S
C4442 C4458 1.368 . S
H4443 C4451 0.950 1_565 S
H4444 C4449 0.901 1_565 S
H4445 C4450 0.949 . S
H4446 C4452 0.950 . S
H4447 C4453 0.950 . S
H4448 C4454 0.949 . S
C4449 H4444 0.901 1_545 S
C4449 C4451 1.308 . S
C4449 C4455 1.501 . S
C4450 C4442 1.574 . S
C4450 H4445 0.949 . S
C4450 C4456 1.368 . S
C4451 C4435 1.349 . S
C4451 H4443 0.950 1_545 S
C4451 C4449 1.308 . S
C4452 C4440 1.350 1_545 S
C4452 H4446 0.950 . S
C4452 C4453 1.327 . S
C4453 H4447 0.950 . S
C4453 C4452 1.327 . S
C4453 C4457 1.429 . S
C4454 C4437 1.574 . S
C4454 H4448 0.949 . S
C4454 C4458 1.368 1_565 S
C4455 C4436 1.429 . S
C4455 C4449 1.501 . S
C4455 C4456 1.523 . S
C4456 C4437 1.368 1_545 S
C4456 C4450 1.368 . S
C4456 C4455 1.523 . S
C4457 C4441 1.429 1_545 S
C4457 C4453 1.429 . S
C4457 C4458 1.523 . S
C4458 C4442 1.368 . S
C4458 C4454 1.368 1_545 S
C4458 C4457 1.523 . S
H4459 C4434 0.950 . S
H4460 C4436 0.950 . S
H4461 C4437 0.949 . S
H4462 C4439 0.950 . S
H4463 C4441 0.950 . S
C2305 C13 1.228 . S
C2310 C1307 1.045 1_655 S
C2335 C27 1.362 . S
C2340 C1447 0.961 . S
C2370 C1535 1.059 . S
C2365 C36 1.169 . S
C2395 C41 1.351 . S
C2400 C1675 1.038 1_565 S
C2425 C8 1.324 . S
C2430 C1789 1.069 . S
C2455 C22 1.496 1_556 S
C2460 C1877 1.185 . S
C2485 C55 1.224 . S
C2490 C1763 1.025 . S
C2520 C1903 1.109 . S
C2515 C69 1.296 . S
C2550 C1649 1.080 . S
C2545 C78 1.204 1_556 S
C2575 C83 1.338 . S
C2580 C1561 1.025 . S
C2610 C1333 1.083 . S
C2605 C50 1.346 . S
C2635 C64 1.414 . S
C2640 C1421 1.298 . S
C2665 C97 1.627 . S
C2670 C1991 1.291 . S
C2695 C111 1.457 . S
C2700 C2131 1.028 . S
C2730 C2219 1.233 . S
C2725 C120 1.579 . S
C2755 C125 1.586 . S
C2760 C307 1.097 . S
C2785 C92 1.845 . S
C2790 C421 1.260 . S
C2815 C106 1.599 . S
C2820 C509 1.249 . S
C2845 C139 1.398 . S
C2850 C395 1.320 . S
C2875 C153 1.382 . S
C2880 C535 1.208 . S
C2910 C281 1.420 . S
C2905 C162 1.532 . S
C2940 C2245 1.472 . S
C2935 C167 1.662 . S
C2970 C2017 1.480 . S
C2965 C134 1.703 . S
C3000 C2105 1.428 . S
C2995 C148 1.546 . S
C3025 C181 1.490 . S
C3030 C623 1.166 . S
C3055 C195 1.442 . S
C3060 C763 1.000 . S
C3085 C204 1.616 . S
C3090 C851 1.271 . S
C3115 C209 1.728 . S
C3120 C991 1.221 . S
C3150 C1105 1.236 . S
C3145 C176 1.823 . S
C3180 C1193 1.279 . S
C3175 C190 1.638 . S
C3210 C1079 1.477 . S
C3205 C223 1.559 . S
C3240 C1219 1.241 . S
C3235 C237 1.401 . S
C3265 C246 1.474 . S
C3270 C965 1.359 . S
C3300 C877 1.320 . S
C3295 C251 1.500 . S
C3325 C218 1.749 . S
C3330 C649 1.525 . S
C3360 C737 1.407 . S
C3355 C232 1.517 . S
C3390 C263 0.942 . S
C3385 C11 1.667 . S
C3415 C25 1.392 . S
C3420 C377 0.766 . S
C3450 C481 1.140 . S
C3445 C35 1.592 . S
C3480 C595 1.107 . S
C3475 C39 1.528 . S
C3510 C719 0.989 . S
C3505 C7 1.752 . S
C3540 C823 1.082 . S
C3535 C21 1.525 1_556 S
C3565 C53 1.769 1_556 S
C3570 C833 1.353 . S
C3595 C67 1.476 . S
C3600 C605 1.126 . S
C3625 C77 1.664 1_556 S
C3630 C709 1.421 . S
C3655 C81 1.620 . S
C3660 C367 1.469 . S
C3690 C491 1.385 . S
C3685 C49 1.844 . S
C3715 C63 1.621 . S
C3720 C253 1.384 . S
C3750 C947 0.909 . S
C3745 C95 1.582 . S
C3775 C109 1.554 . S
C3780 C1061 0.867 . S
C3805 C119 1.637 1_655 S
C3810 C1165 1.209 . S
C3840 C1279 0.871 . S
C3835 C123 1.021 . S
C3865 C91 1.606 . S
C3870 C1403 0.915 . S
C3895 C105 1.114 . S
C3900 C1507 0.917 . S
C3925 C137 1.297 . S
C3930 C1517 0.850 1_565 S
C3955 C151 1.006 . S
C3960 C1289 0.759 1_455 S
C3990 C1393 1.304 . S
C3985 C161 1.546 . S
C4015 C165 1.540 . S
C4020 C1051 1.387 . S
C4045 C133 1.856 . S
C4050 C1175 1.401 . S
C4080 C937 1.528 . S
C4075 C147 1.780 . S
C4110 C1631 0.835 . S
C4105 C179 1.308 . S
C4135 C193 0.982 . S
C4140 C1745 0.746 . S
C4165 C203 1.448 . S
C4170 C1849 1.054 . S
C4200 C1963 1.064 . S
C4195 C207 1.412 . S
C4230 C2087 1.052 . S
C4225 C175 1.769 1_565 S
C4255 C189 1.686 . S
C4260 C2191 1.225 . S
C4285 C221 1.684 . S
C4290 C2201 1.273 . S
C4315 C235 1.641 . S
C4320 C1973 1.243 . S
C4350 C2077 1.464 . S
C4345 C245 1.702 . S
C4380 C1735 0.799 1_655 S
C4375 C249 1.009 . S
C4410 C1859 1.246 . S
C4405 C217 1.703 . S
C4435 C231 1.160 . S
C4440 C1621 0.959 . S
