# Generated by pormake.
# Topology anh, (6,3)-cn, num edge types: 1
# Building blocks:
#     Node 0, Type 0, BuildingBlock: PAMTUU_clean_sbu_0, # of connection points: 6
#     Node 1, Type 0, BuildingBlock: PAMTUU_clean_sbu_0, # of connection points: 6
#     Node 2, Type 0, BuildingBlock: PAMTUU_clean_sbu_0, # of connection points: 6
#     Node 3, Type 1, BuildingBlock: PAMTOO_clean_linker_0, # of connection points: 3
#     Node 4, Type 1, BuildingBlock: PAMTOO_clean_linker_0, # of connection points: 3
#     Node 5, Type 1, BuildingBlock: PAMTOO_clean_linker_0, # of connection points: 3
#     Node 6, Type 1, BuildingBlock: PAMTOO_clean_linker_0, # of connection points: 3
#     Node 7, Type 1, BuildingBlock: PAMTOO_clean_linker_0, # of connection points: 3
#     Node 8, Type 1, BuildingBlock: PAMTOO_clean_linker_0, # of connection points: 3
#     Edge 9, Type (0, 1), BuildingBlock: XUDNAN_clean_linker_2, # of connection points: 2
#     Edge 10, Type (0, 1), BuildingBlock: XUDNAN_clean_linker_2, # of connection points: 2
#     Edge 11, Type (0, 1), BuildingBlock: XUDNAN_clean_linker_2, # of connection points: 2
#     Edge 12, Type (0, 1), BuildingBlock: XUDNAN_clean_linker_2, # of connection points: 2
#     Edge 13, Type (0, 1), BuildingBlock: XUDNAN_clean_linker_2, # of connection points: 2
#     Edge 14, Type (0, 1), BuildingBlock: XUDNAN_clean_linker_2, # of connection points: 2
#     Edge 15, Type (0, 1), BuildingBlock: XUDNAN_clean_linker_2, # of connection points: 2
#     Edge 16, Type (0, 1), BuildingBlock: XUDNAN_clean_linker_2, # of connection points: 2
#     Edge 17, Type (0, 1), BuildingBlock: XUDNAN_clean_linker_2, # of connection points: 2
#     Edge 18, Type (0, 1), BuildingBlock: XUDNAN_clean_linker_2, # of connection points: 2
#     Edge 19, Type (0, 1), BuildingBlock: XUDNAN_clean_linker_2, # of connection points: 2
#     Edge 20, Type (0, 1), BuildingBlock: XUDNAN_clean_linker_2, # of connection points: 2
#     Edge 21, Type (0, 1), BuildingBlock: XUDNAN_clean_linker_2, # of connection points: 2
#     Edge 22, Type (0, 1), BuildingBlock: XUDNAN_clean_linker_2, # of connection points: 2
#     Edge 23, Type (0, 1), BuildingBlock: XUDNAN_clean_linker_2, # of connection points: 2
#     Edge 24, Type (0, 1), BuildingBlock: XUDNAN_clean_linker_2, # of connection points: 2
#     Edge 25, Type (0, 1), BuildingBlock: XUDNAN_clean_linker_2, # of connection points: 2
#     Edge 26, Type (0, 1), BuildingBlock: XUDNAN_clean_linker_2, # of connection points: 2
# Relax obj value: 0.267
# Max RMSD: 0.156
# Mean RMSD: 0.127
data_MOF--net-anh--node1-PAMTUU_clean_sbu_0--node2-PAMTOO_clean_linker_0--edge1-XUDNAN_clean_linker_2
_symmetry_space_group_name_H-M    P1
_symmetry_Int_Tables_number       1
_symmetry_cell_setting            triclinic
loop_
_symmetry_equiv_pos_as_xyz
'x, y, z'
_cell_length_a     30.5135
_cell_length_b     30.649819
_cell_length_c     49.373442
_cell_angle_alpha  88.861538
_cell_angle_beta   92.734791
_cell_angle_gamma 119.77539
loop_
_atom_site_label
_atom_site_type_symbol
_atom_site_fract_x
_atom_site_fract_y
_atom_site_fract_z
_atom_type_partial_charge
Tb0 Tb 0.15662 0.67183 0.1489 0.0
Tb1 Tb 0.20712 0.60564 0.16902 0.0
C2 C 0.19122 0.62328 0.1067 0.0
C3 C 1.06656 0.71855 0.14436 0.0
C4 C 0.97362 0.7087 0.15813 0.0
C5 C 1.00952 0.75222 0.14499 0.0
C6 C 1.05571 0.75706 0.13816 0.0
C7 C 1.03164 0.67583 0.15815 0.0
C8 C 0.98553 0.67083 0.16488 0.0
C9 C 1.11449 0.72305 0.13689 0.0
O10 O 1.09146 0.59238 0.14718 0.0
O11 O 0.12514 0.55164 0.17242 0.0
O12 O 0.20875 0.64824 0.20416 0.0
O13 O 0.13832 0.65147 0.19058 0.0
O14 O 0.25588 0.57771 0.16202 0.0
O15 O 0.20907 0.554 0.19703 0.0
O16 O 0.27476 0.6818 0.1656 0.0
O17 O 0.23734 0.73047 0.15809 0.0
O18 O 0.19046 0.66411 0.11305 0.0
O19 O 0.18785 0.5909 0.12552 0.0
C20 C 1.08555 0.55131 0.16012 0.0
O21 O 0.14763 0.73378 0.15693 0.0
O22 O 1.11086 0.68695 0.12167 0.0
C23 C 0.17129 0.65552 0.20963 0.0
C24 C 0.28238 0.54522 0.19984 0.0
C25 C 0.35123 0.51475 0.2189 0.0
C26 C 0.30088 0.48858 0.22662 0.0
C27 C 0.26675 0.50376 0.21717 0.0
C28 C 0.33383 0.57454 0.19443 0.0
C29 C 0.36813 0.55947 0.20403 0.0
C30 C 0.24314 0.55029 0.18392 0.0
C31 C 0.2786 0.72681 0.16294 0.0
H32 H 1.00163 0.78216 0.13968 0.0
H33 H 1.08267 0.79057 0.12779 0.0
H34 H 1.0397 0.6459 0.16328 0.0
H35 H 0.95849 0.63634 0.17444 0.0
H36 H 0.28703 0.45402 0.23806 0.0
H37 H 0.22722 0.48056 0.22157 0.0
H38 H 0.34687 0.60676 0.18113 0.0
H39 H 0.40669 0.58005 0.1976 0.0
Tb40 Tb 0.65123 1.06411 0.48042 0.0
Tb41 Tb 0.76909 0.11503 0.4986 0.0
C42 C 0.7318 0.11112 0.43778 0.0
C43 C 0.51461 1.02841 0.47566 0.0
C44 C 0.42507 1.02801 0.48803 0.0
C45 C 0.43138 0.98639 0.49424 0.0
C46 C 0.47549 0.9866 0.48807 0.0
C47 C 0.50953 1.07102 0.47037 0.0
C48 C 0.465 1.07074 0.47646 0.0
C49 C 0.55856 1.02502 0.46721 0.0
O50 O 0.66332 0.99808 0.48589 0.0
O51 O 0.74967 1.03564 0.49205 0.0
O52 O 0.72763 1.07299 0.53327 0.0
O53 O 0.65501 1.07538 0.52378 0.0
O54 O 0.84228 0.13305 0.48858 0.0
O55 O 0.82797 0.15322 0.52761 0.0
O56 O 0.75194 0.17622 0.50623 0.0
O57 O 0.67422 0.14575 0.48412 0.0
O58 O 0.69041 1.07012 0.44371 0.0
O59 O 0.76295 0.13968 0.45733 0.0
C60 C 0.70488 0.99446 0.48944 0.0
O61 O 0.59393 1.06344 0.45474 0.0
O62 O 0.5771 1.00568 0.48489 0.0
C63 C 0.68498 1.06831 0.54084 0.0
C64 C 0.9032 0.21 0.50781 0.0
C65 C 0.98077 0.31005 0.50289 0.0
C66 C 0.99172 0.27332 0.51327 0.0
C67 C 0.95302 0.22352 0.51582 0.0
C68 C 0.89225 0.24636 0.49713 0.0
C69 C 0.93069 0.29598 0.49471 0.0
C70 C 0.8623 0.15836 0.51106 0.0
C71 C 0.71436 0.18316 0.49681 0.0
H72 H 0.40104 0.95225 0.50245 0.0
H73 H 0.47828 0.95317 0.49219 0.0
H74 H 0.53921 0.10395 0.46087 0.0
H75 H 0.46119 0.10328 0.4714 0.0
H76 H 1.02999 0.28323 0.51972 0.0
H77 H 0.96188 0.19569 0.52413 0.0
H78 H 0.85392 0.23634 0.49072 0.0
H79 H 0.92128 0.32323 0.4861 0.0
Tb80 Tb 0.6858 0.54126 0.81211 0.0
Tb81 Tb 0.75234 0.65536 0.83288 0.0
C82 C 0.73466 0.62699 0.77091 0.0
C83 C 0.61453 0.39958 0.80141 0.0
C84 C 0.55774 0.29517 0.80902 0.0
C85 C 0.56996 0.32796 0.83111 0.0
C86 C 0.5982 0.37996 0.82733 0.0
C87 C 0.60606 0.36675 0.77999 0.0
C88 C 0.57807 0.31497 0.78376 0.0
C89 C 0.63126 0.45236 0.79494 0.0
O90 O 0.76593 0.55634 0.81307 0.0
O91 O 0.80836 0.62954 0.83801 0.0
O92 O 0.71141 0.60981 0.86727 0.0
O93 O 0.70276 0.53487 0.85429 0.0
O94 O 0.78223 0.73187 0.824 0.0
O95 O 0.79483 0.70815 0.86363 0.0
O96 O 0.67552 0.64602 0.82622 0.0
O97 O 0.62755 0.56032 0.82401 0.0
O98 O 0.69234 0.58771 0.77739 0.0
O99 O 0.76851 0.6539 0.79003 0.0
C100 C 0.80777 0.59078 0.82633 0.0
O101 O 0.61625 0.47531 0.81074 0.0
O102 O 0.67749 0.48138 0.78769 0.0
C103 C 0.70291 0.56432 0.87307 0.0
C104 C 0.77476 0.77327 0.86088 0.0
C105 C 0.71599 0.81901 0.86778 0.0
C106 C 0.69905 0.76978 0.87684 0.0
C107 C 0.72823 0.74699 0.8734 0.0
C108 C 0.79396 0.82409 0.85436 0.0
C109 C 0.76476 0.84697 0.85791 0.0
C110 C 0.79679 0.74516 0.8492 0.0
C111 C 0.63068 0.60471 0.82634 0.0
H112 H 0.55503 0.31364 0.85081 0.0
H113 H 0.60445 0.4047 0.84423 0.0
H114 H 0.61834 0.38114 0.75987 0.0
H115 H 0.57034 0.29041 0.76655 0.0
H116 H 0.66148 0.74767 0.88445 0.0
H117 H 0.71239 0.70754 0.87835 0.0
H118 H 0.8295 0.84476 0.84442 0.0
H119 H 0.77824 0.88487 0.85052 0.0
H120 H 0.80252 0.2416 0.23588 0.0
H121 H 0.66342 0.10009 0.23527 0.0
H122 H 0.72002 0.17813 0.16018 0.0
H123 H 0.58655 0.09586 0.167 0.0
C124 C 0.59446 1.07472 0.18319 0.0
O125 O 0.64672 0.09028 0.18323 0.0
H126 H 0.58623 0.08605 0.20272 0.0
C127 C 0.77037 0.21224 0.22469 0.0
C128 C 0.76743 0.21692 0.19628 0.0
C129 C 0.73296 0.17148 0.23921 0.0
C130 C 0.69193 0.13202 0.22457 0.0
C131 C 0.68588 0.13305 0.19617 0.0
C132 C 0.72368 0.17661 0.18204 0.0
H133 H 0.73091 0.7073 0.56698 0.0
H134 H 0.73516 0.56931 0.5678 0.0
H135 H 0.7047 0.625 0.49222 0.0
H136 H 0.65459 0.49265 0.50055 0.0
C137 C 0.68438 0.49949 0.51643 0.0
O138 O 0.72121 0.55128 0.51577 0.0
H139 H 0.66593 0.49092 0.53622 0.0
C140 C 0.72813 0.67583 0.55583 0.0
C141 C 0.71753 0.67268 0.52763 0.0
C142 C 0.73356 0.63873 0.57042 0.0
C143 C 0.72923 0.59684 0.5566 0.0
C144 C 0.71881 0.59046 0.52842 0.0
C145 C 0.7121 0.62862 0.51394 0.0
H146 H 1.11842 0.59536 0.9054 0.0
H147 H 0.26331 0.60486 0.90168 0.0
H148 H 0.17966 0.59846 0.82757 0.0
H149 H 0.26229 0.54674 0.82916 0.0
C150 C 0.28363 0.57071 0.84699 0.0
O151 O 0.26888 0.60752 0.84946 0.0
H152 H 0.27181 0.54586 0.86505 0.0
C153 C 0.14836 0.59818 0.89324 0.0
C154 C 0.14249 0.59779 0.86465 0.0
C155 C 0.19086 0.59952 0.90668 0.0
C156 C 0.22986 0.60207 0.89136 0.0
C157 C 0.22695 0.60123 0.86292 0.0
C158 C 0.18238 0.59843 0.8495 0.0
H159 H 0.14661 0.62868 0.4053 0.0
H160 H 0.15945 0.77487 0.4096 0.0
H161 H 0.14185 0.68965 0.48218 0.0
H162 H 1.09556 0.76127 0.48486 0.0
C163 C 1.11694 0.78433 0.46745 0.0
O164 O 0.1554 0.77469 0.46232 0.0
H165 H 1.09031 0.77498 0.44947 0.0
C166 C 0.14884 0.65924 0.41708 0.0
C167 C 0.14443 0.65419 0.44529 0.0
C168 C 0.15358 0.70224 0.40384 0.0
C169 C 0.15449 0.74074 0.41927 0.0
C170 C 0.14988 0.73582 0.44739 0.0
C171 C 0.14455 0.6926 0.46034 0.0
H172 H 0.56291 0.91699 0.73627 0.0
H173 H 0.47599 0.98146 0.70084 0.0
H174 H 0.46868 0.94704 0.78544 0.0
H175 H 0.37932 0.92401 0.76562 0.0
C176 C 0.3886 0.96002 0.75527 0.0
O177 O 0.43676 0.98355 0.74563 0.0
H178 H 0.3606 0.95158 0.7381 0.0
C179 C 0.5355 0.92943 0.73786 0.0
C180 C 0.51617 0.92822 0.76324 0.0
C181 C 0.52309 0.9504 0.71521 0.0
C182 C 0.48581 0.96423 0.71764 0.0
C183 C 0.46546 0.96196 0.74279 0.0
C184 C 0.48215 0.94579 0.76573 0.0
H185 H 0.68166 0.55807 0.07166 0.0
H186 H 0.54319 0.41783 0.06226 0.0
H187 H 0.58059 0.49801 0.13753 0.0
H188 H 0.55873 0.38655 0.13344 0.0
C189 C 0.51981 0.38109 0.13093 0.0
O190 O 0.51742 0.41436 0.11234 0.0
H191 H 0.49472 0.34205 0.12347 0.0
C192 C 0.6463 0.53024 0.07991 0.0
C193 C 0.63622 0.53342 0.10711 0.0
C194 C 0.61228 0.48985 0.06324 0.0
C195 C 0.56927 0.4501 0.07451 0.0
C196 C 0.55867 0.45277 0.10147 0.0
C197 C 0.59057 0.49549 0.11715 0.0
H198 H 0.32256 0.42222 0.20043 0.0
H199 H 0.44999 0.55304 0.23774 0.0
H200 H 0.50492 0.51686 0.22944 0.0
H201 H 0.36581 0.32563 0.21712 0.0
H202 H 0.34264 0.29757 0.18404 0.0
H203 H 0.31057 0.32417 0.20136 0.0
H204 H 0.31985 0.38061 0.15976 0.0
H205 H 0.35187 0.35454 0.14249 0.0
H206 H 0.3819 0.42161 0.1474 0.0
H207 H 0.54846 0.47599 0.20878 0.0
H208 H 0.57781 0.44126 0.17368 0.0
H209 H 0.42303 0.34194 0.14615 0.0
C210 C 0.36141 0.44181 0.20825 0.0
C211 C 0.38192 0.48961 0.22039 0.0
C212 C 0.43353 0.51581 0.22894 0.0
C213 C 0.4648 0.49535 0.22441 0.0
C214 C 0.44384 0.44895 0.21114 0.0
C215 C 0.39311 0.42253 0.20317 0.0
C216 C 0.38173 0.37977 0.1841 0.0
C217 C 0.34821 0.32876 0.19746 0.0
C218 C 0.35749 0.38451 0.15685 0.0
C219 C 0.43446 0.38846 0.1809 0.0
C220 C 0.46949 0.42693 0.19763 0.0
C221 C 0.52125 0.44516 0.19606 0.0
C222 C 0.53763 0.42536 0.17605 0.0
C223 C 0.50246 0.38899 0.15742 0.0
C224 C 0.45035 0.36887 0.16066 0.0
H225 H 0.97765 0.39448 0.51573 0.0
H226 H 1.07384 0.34427 0.48204 0.0
H227 H 0.13519 0.432 0.47037 0.0
H228 H 0.9887 0.47525 0.46544 0.0
H229 H 0.98872 0.52276 0.4864 0.0
H230 H 0.95845 0.45857 0.49747 0.0
H231 H 1.01372 0.48546 0.54212 0.0
H232 H 1.04416 0.55007 0.53122 0.0
H233 H 1.08158 0.52111 0.54069 0.0
H234 H 0.17722 0.52129 0.45496 0.0
H235 H 0.19763 0.60542 0.43796 0.0
H236 H 1.07346 0.59696 0.48137 0.0
C237 C 1.01225 0.40218 0.50648 0.0
C238 C 1.02115 0.3628 0.49978 0.0
C239 C 1.06671 0.37409 0.48767 0.0
C240 C 1.1017 0.42376 0.48096 0.0
C241 C 1.09077 0.46155 0.48688 0.0
C242 C 1.04739 0.45137 0.49969 0.0
C243 C 1.04138 0.49736 0.50102 0.0
C244 C 0.99138 0.4879 0.48672 0.0
C245 C 1.04547 0.51452 0.53052 0.0
C246 C 1.08661 0.53434 0.48558 0.0
C247 C 1.11521 0.51332 0.47805 0.0
C248 C 0.15585 0.53856 0.46127 0.0
C249 C 0.16693 0.58608 0.45158 0.0
C250 C 0.13727 0.6076 0.45857 0.0
C251 C 1.09748 0.58186 0.47631 0.0
H252 H 0.63415 0.77607 0.83381 0.0
H253 H 0.71884 0.90353 0.88763 0.0
H254 H 0.66421 0.93862 0.87185 0.0
H255 H 0.63241 0.84584 0.78028 0.0
H256 H 0.57087 0.80086 0.76625 0.0
H257 H 0.607 0.77961 0.78652 0.0
H258 H 0.53211 0.73355 0.81728 0.0
H259 H 0.49547 0.75634 0.7988 0.0
H260 H 0.5081 0.76798 0.83474 0.0
H261 H 0.60777 0.96458 0.84584 0.0
H262 H 0.56089 0.98313 0.80935 0.0
H263 H 0.51857 0.84138 0.77045 0.0
C264 C 0.63952 0.81017 0.84315 0.0
C265 C 0.67933 0.83652 0.8625 0.0
C266 C 0.68756 0.88248 0.87325 0.0
C267 C 0.65667 0.90243 0.86445 0.0
C268 C 0.61836 0.87611 0.84472 0.0
C269 C 0.60989 0.83096 0.83413 0.0
C270 C 0.57288 0.81447 0.80989 0.0
C271 C 0.59727 0.80998 0.78424 0.0
C272 C 0.52427 0.76517 0.81558 0.0
C273 C 0.56287 0.85794 0.80798 0.0
C274 C 0.58824 0.89251 0.82862 0.0
C275 C 0.58709 0.93735 0.82989 0.0
C276 C 0.56032 0.94752 0.80918 0.0
C277 C 0.53607 0.91339 0.78735 0.0
C278 C 0.53648 0.8677 0.78713 0.0
H279 H 0.91521 0.73055 0.1232 0.0
H280 H 0.91446 0.6643 0.20167 0.0
H281 H 0.82237 0.62888 0.20235 0.0
H282 H 0.79929 0.74981 0.13563 0.0
H283 H 0.77917 0.73516 0.10046 0.0
H284 H 0.84565 0.76883 0.11011 0.0
H285 H 0.85728 0.70173 0.08548 0.0
H286 H 0.79128 0.6676 0.07615 0.0
H287 H 0.82006 0.63658 0.09492 0.0
H288 H 0.73309 0.5794 0.18803 0.0
H289 H 0.65566 0.5249 0.16147 0.0
H290 H 0.70935 0.62989 0.09438 0.0
C291 C 0.89612 0.71112 0.14124 0.0
C292 C 0.92193 0.69984 0.16225 0.0
C293 C 0.89534 0.67284 0.18514 0.0
C294 C 0.84303 0.65305 0.18585 0.0
C295 C 0.81802 0.66175 0.16387 0.0
C296 C 0.8439 0.69151 0.1423 0.0
C297 C 0.80776 0.68847 0.11931 0.0
C298 C 0.80798 0.73855 0.11621 0.0
C299 C 0.81982 0.6726 0.09243 0.0
C300 C 0.75821 0.64797 0.13001 0.0
C301 C 0.76469 0.63415 0.15607 0.0
C302 C 0.72688 0.59122 0.16811 0.0
C303 C 0.68256 0.56033 0.15273 0.0
C304 C 0.67605 0.57254 0.12551 0.0
C305 C 0.71316 0.61883 0.1149 0.0
H306 H 0.35962 0.98477 0.52871 0.0
H307 H 0.37494 1.05586 0.45048 0.0
H308 H 0.28294 1.0181 0.44532 0.0
H309 H 0.28099 0.87689 0.50997 0.0
H310 H 0.24079 0.85376 0.53851 0.0
H311 H 0.30396 0.90442 0.54322 0.0
H312 H 0.2712 0.95994 0.56297 0.0
H313 H 0.2072 0.90871 0.55847 0.0
H314 H 0.22467 0.9693 0.54392 0.0
H315 H 0.1975 0.94959 0.43915 0.0
H316 H 0.1302 0.86152 0.43366 0.0
H317 H 0.16438 0.82904 0.5149 0.0
C318 C 0.34336 0.99428 0.5112 0.0
C319 C 0.37421 1.02266 0.48992 0.0
C320 C 0.35222 1.03465 0.46722 0.0
C321 C 0.29965 1.01312 0.46411 0.0
C322 C 0.26961 0.98005 0.48395 0.0
C323 C 0.2908 0.97169 0.50756 0.0
C324 C 0.25204 0.92603 0.52249 0.0
C325 C 0.27055 0.88809 0.52883 0.0
C326 C 0.23793 0.94197 0.5485 0.0
C327 C 0.2083 0.90577 0.50167 0.0
C328 C 0.21806 0.93893 0.48029 0.0
C329 C 0.18827 0.92432 0.45623 0.0
C330 C 0.14995 0.87414 0.45322 0.0
C331 C 0.14162 0.83923 0.4742 0.0
C332 C 0.16905 0.85595 0.49917 0.0
H333 H 0.47919 0.23891 0.77388 0.0
H334 H 0.55314 0.22947 0.84909 0.0
H335 H 0.49611 0.13725 0.84942 0.0
H336 H 0.34856 0.12856 0.78627 0.0
H337 H 0.33993 0.11053 0.75105 0.0
H338 H 0.37666 0.17596 0.76057 0.0
H339 H 0.45279 0.18402 0.73507 0.0
H340 H 0.41607 0.11929 0.72522 0.0
H341 H 0.47621 0.14147 0.74325 0.0
H342 H 0.44546 1.04692 0.83638 0.0
H343 H 0.41192 0.96857 0.80985 0.0
H344 H 0.37083 1.03648 0.74311 0.0
C345 C 0.48265 0.21749 0.79072 0.0
C346 C 0.52065 0.241 0.81135 0.0
C347 C 0.52398 0.21204 0.83317 0.0
C348 C 0.49155 0.15975 0.83357 0.0
C349 C 0.45552 0.13739 0.81229 0.0
C350 C 0.45079 0.16558 0.79134 0.0
C351 C 0.41522 0.13268 0.76873 0.0
C352 C 0.36724 0.1372 0.76654 0.0
C353 C 0.44168 0.14507 0.7415 0.0
C354 C 0.40367 0.08152 0.77915 0.0
C355 C 0.42573 0.08474 0.80477 0.0
C356 C 0.42661 1.04359 0.81677 0.0
C357 C 0.40723 0.99909 0.80163 0.0
C358 C 0.38774 0.99641 0.77476 0.0
C359 C 0.38358 1.03716 0.76403 0.0
H360 H 0.76978 0.96249 0.51499 0.0
H361 H 0.62923 0.90467 0.46718 0.0
H362 H 0.61976 0.81962 0.46872 0.0
H363 H 0.81385 0.88187 0.48709 0.0
H364 H 0.83859 0.87252 0.51921 0.0
H365 H 0.83587 0.92935 0.51319 0.0
H366 H 0.78391 0.91248 0.55584 0.0
H367 H 0.78672 0.85577 0.56205 0.0
H368 H 0.72641 0.85327 0.55908 0.0
H369 H 0.62635 0.7366 0.47533 0.0
H370 H 0.64343 0.6683 0.49022 0.0
H371 H 0.77671 0.77744 0.53605 0.0
C372 C 0.73714 0.93215 0.50458 0.0
C373 C 0.70057 0.94188 0.49056 0.0
C374 C 0.65818 0.89967 0.47793 0.0
C375 C 0.65249 0.85063 0.47867 0.0
C376 C 0.68898 0.84243 0.49256 0.0
C377 C 0.73025 0.88222 0.50563 0.0
C378 C 0.76266 0.86287 0.52046 0.0
C379 C 0.81591 0.88817 0.50932 0.0
C380 C 0.76507 0.87163 0.55118 0.0
C381 C 0.73365 0.80638 0.51368 0.0
C382 C 0.69148 0.79529 0.49725 0.0
C383 C 0.65937 0.74551 0.48828 0.0
C384 C 0.66966 0.70649 0.49668 0.0
C385 C 0.71159 0.71603 0.51442 0.0
C386 C 0.74412 0.7676 0.52255 0.0
H387 H 0.89628 0.63977 0.8607 0.0
H388 H 0.83109 0.53156 0.7949 0.0
H389 H 0.90855 0.52455 0.79557 0.0
H390 H 1.02701 0.70208 0.84031 0.0
H391 H 1.05367 0.70945 0.8744 0.0
H392 H 0.99389 0.70721 0.86826 0.0
H393 H 0.95225 0.63347 0.90189 0.0
H394 H 1.01196 0.63566 0.90821 0.0
H395 H 0.95707 0.57787 0.89709 0.0
H396 H 0.99823 0.53074 0.80322 0.0
H397 H 1.08199 0.54335 0.81956 0.0
H398 H 1.08867 0.64475 0.88163 0.0
C399 C 0.8981 0.6146 0.84632 0.0
C400 C 0.85622 0.5864 0.82755 0.0
C401 C 0.86146 0.55376 0.80952 0.0
C402 C 0.90595 0.54962 0.80971 0.0
C403 C 0.94623 0.57785 0.82831 0.0
C404 C 0.94232 0.60938 0.84652 0.0
C405 C 0.99023 0.63425 0.86517 0.0
C406 C 1.01783 0.69166 0.86184 0.0
C407 C 0.97709 0.61944 0.89485 0.0
C408 C 1.02175 0.61213 0.8547 0.0
C409 C 0.99601 0.58001 0.8332 0.0
C410 C 1.01814 0.55578 0.82016 0.0
C411 C 1.06649 0.56353 0.82949 0.0
C412 C 1.09346 0.59497 0.85214 0.0
C413 C 1.07 0.6199 0.86447 0.0
H414 H 0.30846 0.83121 0.15889 0.0
H415 H 0.37155 0.73339 0.17446 0.0
H416 H 0.4567 0.80772 0.18031 0.0
H417 H 0.41409 0.92663 0.1211 0.0
H418 H 0.41093 0.97888 0.13499 0.0
H419 H 0.35475 0.91805 0.13197 0.0
H420 H 0.34127 0.91947 0.18313 0.0
H421 H 0.39733 0.98034 0.18629 0.0
H422 H 0.39142 0.92917 0.20737 0.0
H423 H 0.53962 0.8975 0.18578 0.0
H424 H 0.60557 0.98783 0.18929 0.0
H425 H 0.4911 1.02889 0.16956 0.0
C426 C 0.34004 0.82511 0.16347 0.0
C427 C 0.33155 0.77473 0.16607 0.0
C428 C 0.37533 0.7703 0.17218 0.0
C429 C 0.4246 0.81293 0.17561 0.0
C430 C 0.4315 0.86158 0.17294 0.0
C431 C 0.39011 0.86776 0.16693 0.0
C432 C 0.4078 0.92422 0.16518 0.0
C433 C 0.39619 0.93774 0.13661 0.0
C434 C 0.38297 0.93918 0.18677 0.0
C435 C 0.4652 0.9488 0.17109 0.0
C436 C 0.47831 0.91206 0.17559 0.0
C437 C 0.52918 0.92611 0.18197 0.0
C438 C 0.56698 0.97807 0.18383 0.0
C439 C 0.55501 1.01692 0.17904 0.0
C440 C 0.50268 1.00097 0.17275 0.0
H441 H 0.64359 0.21778 0.48482 0.0
H442 H 0.79586 0.27006 0.51784 0.0
H443 H 0.80657 0.35431 0.5248 0.0
H444 H 0.67021 0.33442 0.44976 0.0
H445 H 0.61119 0.33046 0.45746 0.0
H446 H 0.61508 0.27393 0.45473 0.0
H447 H 0.58154 0.24771 0.50281 0.0
H448 H 0.57733 0.30404 0.50563 0.0
H449 H 0.61345 0.29034 0.53085 0.0
H450 H 0.80068 0.43707 0.52942 0.0
H451 H 0.77767 0.50427 0.53108 0.0
H452 H 0.63008 0.40138 0.49516 0.0
C453 C 0.67933 0.24681 0.49349 0.0
C454 C 0.71882 0.23549 0.50068 0.0
C455 C 0.76454 0.27598 0.51204 0.0
C456 C 0.77116 0.32476 0.51611 0.0
C457 C 0.73185 0.33451 0.50891 0.0
C458 C 0.68664 0.29639 0.49784 0.0
C459 C 0.65013 0.31683 0.49216 0.0
C460 C 0.6358 0.31371 0.46172 0.0
C461 C 0.6028 0.28801 0.50885 0.0
C462 C 0.68159 0.37198 0.50163 0.0
C463 C 0.72878 0.38153 0.51124 0.0
C464 C 0.76384 0.42957 0.52159 0.0
C465 C 0.75059 0.46816 0.5223 0.0
C466 C 0.70258 0.46 0.51241 0.0
C467 C 0.66782 0.41038 0.50214 0.0
H468 H 0.52597 0.53401 0.81633 0.0
H469 H 0.62528 0.68534 0.84601 0.0
H470 H 0.55127 0.6943 0.85504 0.0
H471 H 0.43418 0.56187 0.78129 0.0
H472 H 0.38009 0.50245 0.78938 0.0
H473 H 0.44089 0.50703 0.78642 0.0
H474 H 0.43543 0.47104 0.83471 0.0
H475 H 0.37458 0.46623 0.83777 0.0
H476 H 0.4248 0.50109 0.86268 0.0
H477 H 0.4616 0.6867 0.86083 0.0
H478 H 0.37106 0.66303 0.86239 0.0
H479 H 0.32863 0.51883 0.8267 0.0
C480 C 0.53236 0.56925 0.82457 0.0
C481 C 0.583 0.609 0.8305 0.0
C482 C 0.58805 0.65413 0.8412 0.0
C483 C 0.54562 0.65969 0.8463 0.0
C484 C 0.49664 0.62038 0.83994 0.0
C485 C 0.48993 0.57598 0.82913 0.0
C486 C 0.43325 0.5396 0.82379 0.0
C487 C 0.42141 0.52698 0.79341 0.0
C488 C 0.416 0.49164 0.84074 0.0
C489 C 0.40914 0.57008 0.83321 0.0
C490 C 0.4463 0.61664 0.84261 0.0
C491 C 0.43269 0.65054 0.853 0.0
C492 C 0.38067 0.63684 0.85375 0.0
C493 C 0.34147 0.58954 0.84389 0.0
C494 C 0.35695 0.55595 0.83372 0.0
H495 H 1.05372 0.4615 0.19045 0.0
H496 H 0.99538 0.52915 0.13189 0.0
H497 H 0.91126 0.45216 0.13236 0.0
H498 H 0.98074 0.3326 0.16498 0.0
H499 H 0.97 0.3045 0.19817 0.0
H500 H 1.0257 0.36427 0.19272 0.0
H501 H 1.00196 0.40385 0.23107 0.0
H502 H 0.94634 0.34415 0.2367 0.0
H503 H 0.94057 0.39907 0.22972 0.0
H504 H 0.82884 0.36207 0.13943 0.0
H505 H 0.76206 0.27834 0.15469 0.0
H506 H 0.87275 0.2692 0.20921 0.0
C507 C 1.02346 0.4604 0.17758 0.0
C508 C 1.03288 0.50294 0.16092 0.0
C509 C 0.99075 0.49834 0.14483 0.0
C510 C 0.9422 0.45409 0.14494 0.0
C511 C 0.93445 0.41314 0.16144 0.0
C512 C 0.97423 0.41633 0.17766 0.0
C513 C 0.95588 0.36779 0.19421 0.0
C514 C 0.98482 0.3407 0.1871 0.0
C515 C 0.96154 0.37942 0.22474 0.0
C516 C 0.89985 0.33675 0.18495 0.0
C517 C 0.88807 0.36325 0.16583 0.0
C518 C 0.83839 0.34163 0.15447 0.0
C519 C 0.80022 0.29319 0.16313 0.0
C520 C 0.81043 0.26541 0.18343 0.0
C521 C 0.86202 0.28832 0.19391 0.0
H522 H 0.17361 0.66712 0.06116 0.0
H523 H 0.21492 0.55531 0.08622 0.0
H524 H 0.2199 0.53779 0.03814 0.0
H525 H 1.0944 0.59788 0.0031 0.0
H526 H 1.11278 0.65299 0.98249 0.0
H527 H 1.11358 0.65764 0.01885 0.0
H528 H 0.20769 0.72716 0.01926 0.0
H529 H 0.20718 0.72274 0.98291 0.0
H530 H 0.25291 0.71498 0.00379 0.0
H531 H 0.2221 0.53359 0.98709 0.0
H532 H 0.2172 0.53989 0.93719 0.0
H533 H 0.17142 0.65218 0.94488 0.0
C534 C 0.18394 0.63908 0.05658 0.0
C535 C 0.19419 0.6128 0.07763 0.0
C536 C 0.20691 0.57598 0.07059 0.0
C537 C 0.20993 0.56582 0.04328 0.0
C538 C 0.19961 0.59238 0.02308 0.0
C539 C 0.18649 0.628 0.02938 0.0
C540 C 0.17605 0.65036 0.00378 0.0
C541 C 0.12092 0.63903 0.00196 0.0
C542 C 0.21318 0.70718 0.00236 0.0
C543 C 0.18566 0.62201 0.98208 0.0
C544 C 0.19952 0.58897 0.99369 0.0
C545 C 0.21118 0.55927 0.97783 0.0
C546 C 0.20854 0.56331 0.94946 0.0
C547 C 0.19398 0.59653 0.93699 0.0
C548 C 0.18226 0.62612 0.9537 0.0
H549 H 0.69658 1.05452 0.39047 0.0
H550 H 0.7846 0.2079 0.42025 0.0
H551 H 0.79297 0.23915 0.37326 0.0
H552 H 0.77132 1.0752 0.33065 0.0
H553 H 0.71747 1.03308 0.3094 0.0
H554 H 0.71786 1.02251 0.34541 0.0
H555 H 0.63377 1.0234 0.348 0.0
H556 H 0.63338 1.03445 0.31204 0.0
H557 H 0.62988 1.07702 0.33535 0.0
H558 H 0.78554 0.25424 0.3236 0.0
H559 H 0.77365 0.25286 0.27418 0.0
H560 H 0.69964 0.08952 0.27485 0.0
C561 C 0.71788 0.09466 0.38705 0.0
C562 C 0.73985 0.12879 0.40915 0.0
C563 C 0.76768 0.18099 0.40375 0.0
C564 C 0.7724 0.19914 0.37709 0.0
C565 C 0.74991 0.16467 0.35583 0.0
C566 C 0.72406 0.11348 0.36038 0.0
C567 C 0.70509 0.08473 0.33366 0.0
C568 C 0.7294 1.05194 0.32954 0.0
C569 C 0.64708 1.05303 0.33219 0.0
C570 C 0.72371 0.1278 0.31345 0.0
C571 C 0.74884 0.17348 0.32681 0.0
C572 C 0.76716 0.21867 0.31286 0.0
C573 C 0.76062 0.21736 0.28451 0.0
C574 C 0.73709 0.17118 0.26985 0.0
C575 C 0.71798 0.12573 0.28491 0.0
H576 H 0.68175 0.56678 0.72717 0.0
H577 H 0.80968 0.7132 0.74794 0.0
H578 H 0.82479 0.73136 0.69905 0.0
H579 H 0.73777 0.54154 0.67115 0.0
H580 H 0.67923 0.51003 0.65121 0.0
H581 H 0.67848 0.50897 0.68768 0.0
H582 H 0.6185 0.54616 0.68579 0.0
H583 H 0.6189 0.54716 0.64932 0.0
H584 H 0.63666 0.60406 0.66784 0.0
H585 H 0.82359 0.73427 0.64728 0.0
H586 H 0.80804 0.72099 0.59767 0.0
H587 H 0.68312 0.57113 0.61091 0.0
C588 C 0.71294 0.60283 0.72154 0.0
C589 C 0.74439 0.63875 0.74156 0.0
C590 C 0.78503 0.68511 0.73311 0.0
C591 C 0.79387 0.69572 0.70534 0.0
C592 C 0.76209 0.6594 0.6862 0.0
C593 C 0.7226 0.61375 0.694 0.0
C594 C 0.69413 0.58084 0.66954 0.0
C595 C 0.69763 0.53249 0.66993 0.0
C596 C 0.63877 0.56887 0.66804 0.0
C597 C 0.72342 0.61517 0.64662 0.0
C598 C 0.76237 0.66042 0.65664 0.0
C599 C 0.79345 0.69883 0.63931 0.0
C600 C 0.78429 0.69097 0.61115 0.0
C601 C 0.74464 0.64491 0.60038 0.0
C602 C 0.71422 0.60641 0.61849 0.0
H603 H 0.59003 1.02909 0.56053 0.0
H604 H 0.74499 1.07118 0.58432 0.0
H605 H 0.71928 1.04242 0.63087 0.0
H606 H 0.55954 1.06567 0.62239 0.0
H607 H 0.4959 1.01335 0.62227 0.0
H608 H 0.52636 1.03738 0.59073 0.0
H609 H 0.5096 0.94864 0.57804 0.0
H610 H 0.47928 0.92432 0.6096 0.0
H611 H 0.53158 0.91631 0.60091 0.0
H612 H 0.67824 1.01268 0.67473 0.0
H613 H 0.62449 0.98296 0.71378 0.0
H614 H 0.49392 0.95368 0.66137 0.0
C615 C 0.6186 1.03253 0.57558 0.0
C616 C 0.6696 1.0526 0.56887 0.0
C617 C 0.70573 1.05592 0.58902 0.0
C618 C 0.69151 1.03966 0.6155 0.0
C619 C 0.64094 1.01973 0.6214 0.0
C620 C 0.60495 1.01591 0.60207 0.0
C621 C 0.55311 0.99269 0.61384 0.0
C622 C 0.53253 1.02948 0.61222 0.0
C623 C 0.51622 0.94251 0.59976 0.0
C624 C 0.56582 0.98468 0.64291 0.0
C625 C 0.6167 1.0006 0.64672 0.0
C626 C 0.63813 0.99921 0.67194 0.0
C627 C 0.60687 0.98153 0.69402 0.0
C628 C 0.55432 0.96467 0.6908 0.0
C629 C 0.53371 0.96602 0.66469 0.0
H630 H 0.69929 0.61351 0.9181 0.0
H631 H 0.67533 0.46918 0.89059 0.0
H632 H 0.64899 0.43406 0.9361 0.0
H633 H 0.74914 0.60874 0.98534 0.0
H634 H 0.7186 0.63841 0.00119 0.0
H635 H 0.73632 0.65245 0.96648 0.0
H636 H 0.6439 0.62658 0.95173 0.0
H637 H 0.62583 0.6123 0.98638 0.0
H638 H 0.59355 0.56508 0.96039 0.0
H639 H 0.62322 0.41385 0.98443 0.0
H640 H 0.60348 0.41162 0.03268 0.0
H641 H 0.64401 0.56873 0.02821 0.0
C642 C 0.68878 0.5746 0.92166 0.0
C643 C 0.68944 0.54418 0.90075 0.0
C644 C 0.6753 0.49337 0.90628 0.0
C645 C 0.66015 0.47296 0.93206 0.0
C646 C 0.65949 0.50384 0.95213 0.0
C647 C 0.67369 0.55362 0.94728 0.0
C648 C 0.66952 0.57869 0.97235 0.0
C649 C 0.72149 0.62213 0.9819 0.0
C650 C 0.63089 0.59671 0.96741 0.0
C651 C 0.6506 0.53516 0.99197 0.0
C652 C 0.64493 0.49227 0.97995 0.0
C653 C 0.62758 0.44723 0.99411 0.0
C654 C 0.61617 0.4462 0.0214 0.0
C655 C 0.62241 0.49 0.03417 0.0
C656 C 0.63952 0.53481 0.01909 0.0
H657 H 0.21675 0.64721 0.25754 0.0
H658 H 1.11299 0.6948 0.22408 0.0
H659 H 1.10214 0.71744 0.26983 0.0
H660 H 0.1486 0.59042 0.31661 0.0
H661 H 0.204 0.60954 0.33863 0.0
H662 H 0.20659 0.6002 0.30299 0.0
H663 H 0.2821 0.69082 0.2995 0.0
H664 H 0.27966 0.70048 0.33515 0.0
H665 H 0.27576 0.74298 0.31068 0.0
H666 H 1.10002 0.7325 0.31898 0.0
H667 H 1.1031 0.73424 0.36902 0.0
H668 H 0.20744 0.67645 0.371 0.0
C669 C 0.19215 0.66284 0.25985 0.0
C670 C 0.16584 0.66933 0.23725 0.0
C671 C 0.13346 0.68931 0.24111 0.0
C672 C 0.12721 0.70258 0.267 0.0
C673 C 0.15346 0.69553 0.28887 0.0
C674 C 0.18508 0.67591 0.28566 0.0
C675 C 0.20664 0.66969 0.31279 0.0
C676 C 0.19047 0.61417 0.31806 0.0
C677 C 0.26448 0.70299 0.31463 0.0
C678 C 0.18166 0.68829 0.33168 0.0
C679 C 0.15162 0.70356 0.31742 0.0
C680 C 0.12371 0.72102 0.33041 0.0
C681 C 0.12592 0.72216 0.35882 0.0
C682 C 0.15554 0.70559 0.37388 0.0
C683 C 0.18425 0.68911 0.36002 0.0
loop_
_geom_bond_atom_site_label_1
_geom_bond_atom_site_label_2
_geom_bond_distance
_geom_bond_site_symmetry_2
_ccdc_geom_bond_type
Tb0 C9 2.764 . S
Tb0 O10 2.325 . S
Tb0 O13 2.303 . S
Tb0 O17 2.322 1_655 S
Tb0 O18 2.349 . S
Tb0 O21 2.415 . S
Tb0 O22 2.399 . S
Tb1 O11 2.322 1_455 S
Tb1 O12 2.349 . S
Tb1 O14 2.415 . S
Tb1 O15 2.399 . S
Tb1 O16 2.325 . S
Tb1 O19 2.303 . S
Tb1 C30 2.764 . S
C2 O18 1.261 1_455 S
C2 O19 1.257 . S
C3 C6 1.358 . S
C3 C7 1.332 . S
C3 C9 1.504 . S
C4 C5 1.373 . S
C4 C8 1.308 . S
C5 C4 1.373 . S
C5 C6 1.429 . S
C5 H32 0.932 . S
C6 C3 1.358 . S
C6 C5 1.429 . S
C6 H33 0.930 . S
C7 C3 1.332 . S
C7 C8 1.394 . S
C7 H34 0.932 . S
C8 C4 1.308 . S
C8 C7 1.394 . S
C8 H35 0.929 . S
C9 Tb0 2.764 . S
C9 C3 1.504 . S
C9 O21 1.239 . S
C9 O22 1.263 . S
O10 Tb0 2.325 . S
O10 C20 1.236 . S
O11 Tb1 2.322 1_655 S
O11 C20 1.257 . S
O12 Tb1 2.349 . S
O12 C23 1.261 . S
O13 Tb0 2.303 . S
O13 C23 1.257 1_655 S
O14 Tb1 2.415 . S
O14 C30 1.239 . S
O15 Tb1 2.399 . S
O15 C30 1.263 . S
O16 Tb1 2.325 . S
O16 C31 1.236 . S
O17 Tb0 2.322 1_455 S
O17 C31 1.257 . S
O18 Tb0 2.349 . S
O18 C2 1.261 1_655 S
O19 Tb1 2.303 . S
O19 C2 1.257 . S
C20 O10 1.236 . S
C20 O11 1.257 . S
O21 Tb0 2.415 . S
O21 C9 1.239 . S
O22 Tb0 2.399 . S
O22 C9 1.263 . S
C23 O12 1.261 . S
C23 O13 1.257 1_455 S
C24 C27 1.358 . S
C24 C28 1.332 . S
C24 C30 1.504 . S
C25 C26 1.373 . S
C25 C29 1.308 . S
C26 C25 1.373 . S
C26 C27 1.429 . S
C26 H36 0.932 . S
C27 C24 1.358 . S
C27 C26 1.429 . S
C27 H37 0.930 . S
C28 C24 1.332 . S
C28 C29 1.394 . S
C28 H38 0.932 . S
C29 C25 1.308 . S
C29 C28 1.394 . S
C29 H39 0.929 . S
C30 Tb1 2.764 . S
C30 O14 1.239 . S
C30 O15 1.263 . S
C30 C24 1.504 . S
C31 O16 1.236 . S
C31 O17 1.257 . S
H32 C5 0.932 . S
H33 C6 0.930 . S
H34 C7 0.932 . S
H35 C8 0.929 . S
H36 C26 0.932 . S
H37 C27 0.930 . S
H38 C28 0.932 . S
H39 C29 0.929 . S
Tb40 C49 2.764 . S
Tb40 O50 2.325 . S
Tb40 O53 2.303 1_565 S
Tb40 O57 2.322 1_565 S
Tb40 O58 2.349 1_565 S
Tb40 O61 2.415 . S
Tb40 O62 2.399 . S
Tb41 O51 2.322 1_545 S
Tb41 O52 2.349 . S
Tb41 O54 2.415 . S
Tb41 O55 2.399 . S
Tb41 O56 2.325 . S
Tb41 O59 2.303 . S
Tb41 C70 2.764 . S
C42 O58 1.261 . S
C42 O59 1.257 . S
C43 C46 1.358 . S
C43 C47 1.332 . S
C43 C49 1.504 . S
C44 C45 1.373 . S
C44 C48 1.308 . S
C45 C44 1.373 . S
C45 C46 1.429 . S
C45 H72 0.932 . S
C46 C43 1.358 . S
C46 C45 1.429 . S
C46 H73 0.930 . S
C47 C43 1.332 . S
C47 C48 1.394 . S
C47 H74 0.932 . S
C48 C44 1.308 . S
C48 C47 1.394 . S
C48 H75 0.929 . S
C49 Tb40 2.764 . S
C49 C43 1.504 . S
C49 O61 1.239 . S
C49 O62 1.263 . S
O50 Tb40 2.325 . S
O50 C60 1.236 . S
O51 Tb41 2.322 1_565 S
O51 C60 1.257 . S
O52 Tb41 2.349 . S
O52 C63 1.261 . S
O53 Tb40 2.303 1_545 S
O53 C63 1.257 . S
O54 Tb41 2.415 . S
O54 C70 1.239 . S
O55 Tb41 2.399 . S
O55 C70 1.263 . S
O56 Tb41 2.325 . S
O56 C71 1.236 . S
O57 Tb40 2.322 1_545 S
O57 C71 1.257 . S
O58 Tb40 2.349 1_545 S
O58 C42 1.261 . S
O59 Tb41 2.303 . S
O59 C42 1.257 . S
C60 O50 1.236 . S
C60 O51 1.257 . S
O61 Tb40 2.415 . S
O61 C49 1.239 . S
O62 Tb40 2.399 . S
O62 C49 1.263 . S
C63 O52 1.261 . S
C63 O53 1.257 . S
C64 C67 1.358 . S
C64 C68 1.332 . S
C64 C70 1.504 . S
C65 C66 1.373 . S
C65 C69 1.308 . S
C66 C65 1.373 . S
C66 C67 1.429 . S
C66 H76 0.932 . S
C67 C64 1.358 . S
C67 C66 1.429 . S
C67 H77 0.930 . S
C68 C64 1.332 . S
C68 C69 1.394 . S
C68 H78 0.932 . S
C69 C65 1.308 . S
C69 C68 1.394 . S
C69 H79 0.929 . S
C70 Tb41 2.764 . S
C70 O54 1.239 . S
C70 O55 1.263 . S
C70 C64 1.504 . S
C71 O56 1.236 . S
C71 O57 1.257 . S
H72 C45 0.932 . S
H73 C46 0.930 . S
H74 C47 0.932 . S
H75 C48 0.929 . S
H76 C66 0.932 . S
H77 C67 0.930 . S
H78 C68 0.932 . S
H79 C69 0.929 . S
Tb80 C89 2.764 . S
Tb80 O90 2.325 . S
Tb80 O93 2.303 . S
Tb80 O97 2.322 . S
Tb80 O98 2.349 . S
Tb80 O101 2.415 . S
Tb80 O102 2.399 . S
Tb81 O91 2.322 . S
Tb81 O92 2.349 . S
Tb81 O94 2.415 . S
Tb81 O95 2.399 . S
Tb81 O96 2.325 . S
Tb81 O99 2.303 . S
Tb81 C110 2.764 . S
C82 O98 1.261 . S
C82 O99 1.257 . S
C83 C86 1.358 . S
C83 C87 1.332 . S
C83 C89 1.504 . S
C84 C85 1.373 . S
C84 C88 1.308 . S
C85 C84 1.373 . S
C85 C86 1.429 . S
C85 H112 0.932 . S
C86 C83 1.358 . S
C86 C85 1.429 . S
C86 H113 0.930 . S
C87 C83 1.332 . S
C87 C88 1.394 . S
C87 H114 0.932 . S
C88 C84 1.308 . S
C88 C87 1.394 . S
C88 H115 0.929 . S
C89 Tb80 2.764 . S
C89 C83 1.504 . S
C89 O101 1.239 . S
C89 O102 1.263 . S
O90 Tb80 2.325 . S
O90 C100 1.236 . S
O91 Tb81 2.322 . S
O91 C100 1.257 . S
O92 Tb81 2.349 . S
O92 C103 1.261 . S
O93 Tb80 2.303 . S
O93 C103 1.257 . S
O94 Tb81 2.415 . S
O94 C110 1.239 . S
O95 Tb81 2.399 . S
O95 C110 1.263 . S
O96 Tb81 2.325 . S
O96 C111 1.236 . S
O97 Tb80 2.322 . S
O97 C111 1.257 . S
O98 Tb80 2.349 . S
O98 C82 1.261 . S
O99 Tb81 2.303 . S
O99 C82 1.257 . S
C100 O90 1.236 . S
C100 O91 1.257 . S
O101 Tb80 2.415 . S
O101 C89 1.239 . S
O102 Tb80 2.399 . S
O102 C89 1.263 . S
C103 O92 1.261 . S
C103 O93 1.257 . S
C104 C107 1.358 . S
C104 C108 1.332 . S
C104 C110 1.504 . S
C105 C106 1.373 . S
C105 C109 1.308 . S
C106 C105 1.373 . S
C106 C107 1.429 . S
C106 H116 0.932 . S
C107 C104 1.358 . S
C107 C106 1.429 . S
C107 H117 0.930 . S
C108 C104 1.332 . S
C108 C109 1.394 . S
C108 H118 0.932 . S
C109 C105 1.308 . S
C109 C108 1.394 . S
C109 H119 0.929 . S
C110 Tb81 2.764 . S
C110 O94 1.239 . S
C110 O95 1.263 . S
C110 C104 1.504 . S
C111 O96 1.236 . S
C111 O97 1.257 . S
H112 C85 0.932 . S
H113 C86 0.930 . S
H114 C87 0.932 . S
H115 C88 0.929 . S
H116 C106 0.932 . S
H117 C107 0.930 . S
H118 C108 0.932 . S
H119 C109 0.929 . S
H120 C127 0.929 . S
H121 C130 0.930 . S
H122 C132 0.929 . S
H123 C124 0.969 . S
C124 H123 0.969 . S
C124 O125 1.550 . S
C124 H126 0.973 . S
O125 C124 1.550 . S
O125 C131 1.414 1_565 S
H126 C124 0.973 . S
C127 H120 0.929 . S
C127 C128 1.400 . S
C127 C129 1.364 . S
C128 C127 1.400 . S
C128 C132 1.377 . S
C129 C127 1.364 . S
C129 C130 1.374 1_545 S
C130 H121 0.930 . S
C130 C129 1.374 1_565 S
C130 C131 1.383 1_565 S
C131 O125 1.414 1_545 S
C131 C130 1.383 1_545 S
C131 C132 1.393 . S
C132 H122 0.929 . S
C132 C128 1.377 . S
C132 C131 1.393 . S
H133 C140 0.929 . S
H134 C143 0.930 . S
H135 C145 0.929 . S
H136 C137 0.969 . S
C137 H136 0.969 . S
C137 O138 1.550 . S
C137 H139 0.973 . S
O138 C137 1.550 . S
O138 C144 1.412 . S
H139 C137 0.973 . S
C140 H133 0.929 . S
C140 C141 1.400 . S
C140 C142 1.364 . S
C141 C140 1.400 . S
C141 C145 1.377 . S
C142 C140 1.364 . S
C142 C143 1.374 . S
C143 H134 0.930 . S
C143 C142 1.374 . S
C143 C144 1.383 . S
C144 O138 1.412 . S
C144 C143 1.383 . S
C144 C145 1.394 . S
C145 H135 0.929 . S
C145 C141 1.377 . S
C145 C144 1.394 . S
H146 C153 0.929 . S
H147 C156 0.930 . S
H148 C158 0.929 . S
H149 C150 0.969 . S
C150 H149 0.969 . S
C150 O151 1.550 . S
C150 H152 0.973 . S
O151 C150 1.550 . S
O151 C157 1.412 . S
H152 C150 0.973 . S
C153 H146 0.929 . S
C153 C154 1.400 . S
C153 C155 1.364 . S
C154 C153 1.400 . S
C154 C158 1.377 . S
C155 C153 1.364 . S
C155 C156 1.374 . S
C156 H147 0.930 . S
C156 C155 1.374 . S
C156 C157 1.383 . S
C157 O151 1.412 . S
C157 C156 1.383 . S
C157 C158 1.394 . S
C158 H148 0.929 . S
C158 C154 1.377 . S
C158 C157 1.394 . S
H159 C166 0.929 . S
H160 C169 0.930 . S
H161 C171 0.929 . S
H162 C163 0.969 . S
C163 H162 0.969 . S
C163 O164 1.550 . S
C163 H165 0.973 . S
O164 C163 1.550 . S
O164 C170 1.412 . S
H165 C163 0.973 . S
C166 H159 0.929 . S
C166 C167 1.400 . S
C166 C168 1.364 . S
C167 C166 1.400 . S
C167 C171 1.377 . S
C168 C166 1.364 . S
C168 C169 1.374 1_655 S
C169 H160 0.930 . S
C169 C168 1.374 1_455 S
C169 C170 1.383 . S
C170 O164 1.412 . S
C170 C169 1.383 . S
C170 C171 1.394 1_455 S
C171 H161 0.929 . S
C171 C167 1.377 . S
C171 C170 1.394 1_655 S
H172 C179 0.929 . S
H173 C182 0.930 . S
H174 C184 0.929 . S
H175 C176 0.969 . S
C176 H175 0.969 . S
C176 O177 1.550 . S
C176 H178 0.973 . S
O177 C176 1.550 . S
O177 C183 1.412 . S
H178 C176 0.973 . S
C179 H172 0.929 . S
C179 C180 1.400 . S
C179 C181 1.364 . S
C180 C179 1.400 . S
C180 C184 1.377 . S
C181 C179 1.364 . S
C181 C182 1.374 1_565 S
C182 H173 0.930 . S
C182 C181 1.374 1_545 S
C182 C183 1.383 . S
C183 O177 1.412 . S
C183 C182 1.383 . S
C183 C184 1.394 1_545 S
C184 H174 0.929 . S
C184 C180 1.377 . S
C184 C183 1.394 1_565 S
H185 C192 0.929 . S
H186 C195 0.930 . S
H187 C197 0.929 . S
H188 C189 0.969 . S
C189 H188 0.969 . S
C189 O190 1.550 . S
C189 H191 0.973 . S
O190 C189 1.550 . S
O190 C196 1.412 . S
H191 C189 0.973 . S
C192 H185 0.929 . S
C192 C193 1.400 . S
C192 C194 1.364 . S
C193 C192 1.400 . S
C193 C197 1.377 . S
C194 C192 1.364 . S
C194 C195 1.374 . S
C195 H186 0.930 . S
C195 C194 1.374 . S
C195 C196 1.383 . S
C196 O190 1.412 . S
C196 C195 1.383 . S
C196 C197 1.394 . S
C197 H187 0.929 . S
C197 C193 1.377 . S
C197 C196 1.394 . S
H198 C210 0.930 . S
H199 C212 0.930 . S
H200 C213 0.930 . S
H201 C217 0.959 . S
H202 C217 0.959 . S
H203 C217 0.961 . S
H204 C218 0.960 . S
H205 C218 0.961 . S
H206 C218 0.959 . S
H207 C221 0.929 . S
H208 C222 0.931 . S
H209 C224 0.930 . S
C210 H198 0.930 . S
C210 C211 1.399 . S
C210 C215 1.399 . S
C211 C210 1.399 . S
C211 C212 1.376 . S
C212 H199 0.930 . S
C212 C211 1.376 . S
C212 C213 1.388 . S
C213 H200 0.930 . S
C213 C212 1.388 . S
C213 C214 1.390 . S
C214 C213 1.390 . S
C214 C215 1.394 . S
C214 C220 1.465 . S
C215 C210 1.399 . S
C215 C214 1.394 . S
C215 C216 1.516 . S
C216 C215 1.516 . S
C216 C217 1.502 . S
C216 C218 1.561 . S
C216 C219 1.526 . S
C217 H201 0.959 . S
C217 H202 0.959 . S
C217 H203 0.961 . S
C217 C216 1.502 . S
C218 H204 0.960 . S
C218 H205 0.961 . S
C218 H206 0.959 . S
C218 C216 1.561 . S
C219 C216 1.526 . S
C219 C220 1.396 . S
C219 C224 1.390 . S
C220 C214 1.465 . S
C220 C219 1.396 . S
C220 C221 1.399 . S
C221 H207 0.929 . S
C221 C220 1.399 . S
C221 C222 1.385 . S
C222 H208 0.931 . S
C222 C221 1.385 . S
C222 C223 1.389 . S
C223 C222 1.389 . S
C223 C224 1.387 . S
C224 H209 0.930 . S
C224 C219 1.390 . S
C224 C223 1.387 . S
H225 C237 0.930 . S
H226 C239 0.930 . S
H227 C240 0.930 . S
H228 C244 0.959 . S
H229 C244 0.959 . S
H230 C244 0.961 . S
H231 C245 0.960 . S
H232 C245 0.961 . S
H233 C245 0.959 . S
H234 C248 0.929 . S
H235 C249 0.931 . S
H236 C251 0.930 . S
C237 H225 0.930 . S
C237 C238 1.399 . S
C237 C242 1.399 . S
C238 C237 1.399 . S
C238 C239 1.376 . S
C239 H226 0.930 . S
C239 C238 1.376 . S
C239 C240 1.388 . S
C240 H227 0.930 . S
C240 C239 1.388 . S
C240 C241 1.390 . S
C241 C240 1.390 . S
C241 C242 1.394 . S
C241 C247 1.465 . S
C242 C237 1.399 . S
C242 C241 1.394 . S
C242 C243 1.516 . S
C243 C242 1.516 . S
C243 C244 1.502 . S
C243 C245 1.561 . S
C243 C246 1.526 . S
C244 H228 0.959 . S
C244 H229 0.959 . S
C244 H230 0.961 . S
C244 C243 1.502 . S
C245 H231 0.960 . S
C245 H232 0.961 . S
C245 H233 0.959 . S
C245 C243 1.561 . S
C246 C243 1.526 . S
C246 C247 1.396 . S
C246 C251 1.390 . S
C247 C241 1.465 . S
C247 C246 1.396 . S
C247 C248 1.399 . S
C248 H234 0.929 . S
C248 C247 1.399 . S
C248 C249 1.385 . S
C249 H235 0.931 . S
C249 C248 1.385 . S
C249 C250 1.389 . S
C250 C249 1.389 . S
C250 C251 1.387 . S
C251 H236 0.930 . S
C251 C246 1.390 . S
C251 C250 1.387 . S
H252 C264 0.930 . S
H253 C266 0.930 . S
H254 C267 0.930 . S
H255 C271 0.959 . S
H256 C271 0.959 . S
H257 C271 0.961 . S
H258 C272 0.960 . S
H259 C272 0.961 . S
H260 C272 0.959 . S
H261 C275 0.929 . S
H262 C276 0.931 . S
H263 C278 0.930 . S
C264 H252 0.930 . S
C264 C265 1.399 . S
C264 C269 1.399 . S
C265 C264 1.399 . S
C265 C266 1.376 . S
C266 H253 0.930 . S
C266 C265 1.376 . S
C266 C267 1.388 . S
C267 H254 0.930 . S
C267 C266 1.388 . S
C267 C268 1.390 . S
C268 C267 1.390 . S
C268 C269 1.394 . S
C268 C274 1.465 . S
C269 C264 1.399 . S
C269 C268 1.394 . S
C269 C270 1.516 . S
C270 C269 1.516 . S
C270 C271 1.502 . S
C270 C272 1.561 . S
C270 C273 1.526 . S
C271 H255 0.959 . S
C271 H256 0.959 . S
C271 H257 0.961 . S
C271 C270 1.502 . S
C272 H258 0.960 . S
C272 H259 0.961 . S
C272 H260 0.959 . S
C272 C270 1.561 . S
C273 C270 1.526 . S
C273 C274 1.396 . S
C273 C278 1.390 . S
C274 C268 1.465 . S
C274 C273 1.396 . S
C274 C275 1.399 . S
C275 H261 0.929 . S
C275 C274 1.399 . S
C275 C276 1.385 . S
C276 H262 0.931 . S
C276 C275 1.385 . S
C276 C277 1.389 . S
C277 C276 1.389 . S
C277 C278 1.387 . S
C278 H263 0.930 . S
C278 C273 1.390 . S
C278 C277 1.387 . S
H279 C291 0.930 . S
H280 C293 0.930 . S
H281 C294 0.930 . S
H282 C298 0.959 . S
H283 C298 0.959 . S
H284 C298 0.961 . S
H285 C299 0.960 . S
H286 C299 0.961 . S
H287 C299 0.959 . S
H288 C302 0.929 . S
H289 C303 0.931 . S
H290 C305 0.930 . S
C291 H279 0.930 . S
C291 C292 1.399 . S
C291 C296 1.399 . S
C292 C291 1.399 . S
C292 C293 1.376 . S
C293 H280 0.930 . S
C293 C292 1.376 . S
C293 C294 1.388 . S
C294 H281 0.930 . S
C294 C293 1.388 . S
C294 C295 1.390 . S
C295 C294 1.390 . S
C295 C296 1.394 . S
C295 C301 1.465 . S
C296 C291 1.399 . S
C296 C295 1.394 . S
C296 C297 1.516 . S
C297 C296 1.516 . S
C297 C298 1.502 . S
C297 C299 1.561 . S
C297 C300 1.526 . S
C298 H282 0.959 . S
C298 H283 0.959 . S
C298 H284 0.961 . S
C298 C297 1.502 . S
C299 H285 0.960 . S
C299 H286 0.961 . S
C299 H287 0.959 . S
C299 C297 1.561 . S
C300 C297 1.526 . S
C300 C301 1.396 . S
C300 C305 1.390 . S
C301 C295 1.465 . S
C301 C300 1.396 . S
C301 C302 1.399 . S
C302 H288 0.929 . S
C302 C301 1.399 . S
C302 C303 1.385 . S
C303 H289 0.931 . S
C303 C302 1.385 . S
C303 C304 1.389 . S
C304 C303 1.389 . S
C304 C305 1.387 . S
C305 H290 0.930 . S
C305 C300 1.390 . S
C305 C304 1.387 . S
H306 C318 0.930 . S
H307 C320 0.930 . S
H308 C321 0.930 . S
H309 C325 0.959 . S
H310 C325 0.959 . S
H311 C325 0.961 . S
H312 C326 0.960 . S
H313 C326 0.961 . S
H314 C326 0.959 . S
H315 C329 0.929 . S
H316 C330 0.931 . S
H317 C332 0.930 . S
C318 H306 0.930 . S
C318 C319 1.399 . S
C318 C323 1.399 . S
C319 C318 1.399 . S
C319 C320 1.376 . S
C320 H307 0.930 . S
C320 C319 1.376 . S
C320 C321 1.388 . S
C321 H308 0.930 . S
C321 C320 1.388 . S
C321 C322 1.390 . S
C322 C321 1.390 . S
C322 C323 1.394 . S
C322 C328 1.465 . S
C323 C318 1.399 . S
C323 C322 1.394 . S
C323 C324 1.516 . S
C324 C323 1.516 . S
C324 C325 1.502 . S
C324 C326 1.561 . S
C324 C327 1.526 . S
C325 H309 0.959 . S
C325 H310 0.959 . S
C325 H311 0.961 . S
C325 C324 1.502 . S
C326 H312 0.960 . S
C326 H313 0.961 . S
C326 H314 0.959 . S
C326 C324 1.561 . S
C327 C324 1.526 . S
C327 C328 1.396 . S
C327 C332 1.390 . S
C328 C322 1.465 . S
C328 C327 1.396 . S
C328 C329 1.399 . S
C329 H315 0.929 . S
C329 C328 1.399 . S
C329 C330 1.385 . S
C330 H316 0.931 . S
C330 C329 1.385 . S
C330 C331 1.389 . S
C331 C330 1.389 . S
C331 C332 1.387 . S
C332 H317 0.930 . S
C332 C327 1.390 . S
C332 C331 1.387 . S
H333 C345 0.930 . S
H334 C347 0.930 . S
H335 C348 0.930 . S
H336 C352 0.959 . S
H337 C352 0.959 . S
H338 C352 0.961 . S
H339 C353 0.960 . S
H340 C353 0.961 . S
H341 C353 0.959 . S
H342 C356 0.929 . S
H343 C357 0.931 . S
H344 C359 0.930 . S
C345 H333 0.930 . S
C345 C346 1.399 . S
C345 C350 1.399 . S
C346 C345 1.399 . S
C346 C347 1.376 . S
C347 H334 0.930 . S
C347 C346 1.376 . S
C347 C348 1.388 . S
C348 H335 0.930 . S
C348 C347 1.388 . S
C348 C349 1.390 . S
C349 C348 1.390 . S
C349 C350 1.394 . S
C349 C355 1.465 . S
C350 C345 1.399 . S
C350 C349 1.394 . S
C350 C351 1.516 . S
C351 C350 1.516 . S
C351 C352 1.502 . S
C351 C353 1.561 . S
C351 C354 1.526 . S
C352 H336 0.959 . S
C352 H337 0.959 . S
C352 H338 0.961 . S
C352 C351 1.502 . S
C353 H339 0.960 . S
C353 H340 0.961 . S
C353 H341 0.959 . S
C353 C351 1.561 . S
C354 C351 1.526 . S
C354 C355 1.396 . S
C354 C359 1.390 . S
C355 C349 1.465 . S
C355 C354 1.396 . S
C355 C356 1.399 . S
C356 H342 0.929 . S
C356 C355 1.399 . S
C356 C357 1.385 . S
C357 H343 0.931 . S
C357 C356 1.385 . S
C357 C358 1.389 . S
C358 C357 1.389 . S
C358 C359 1.387 . S
C359 H344 0.930 . S
C359 C354 1.390 . S
C359 C358 1.387 . S
H360 C372 0.930 . S
H361 C374 0.930 . S
H362 C375 0.930 . S
H363 C379 0.959 . S
H364 C379 0.959 . S
H365 C379 0.961 . S
H366 C380 0.960 . S
H367 C380 0.961 . S
H368 C380 0.959 . S
H369 C383 0.929 . S
H370 C384 0.931 . S
H371 C386 0.930 . S
C372 H360 0.930 . S
C372 C373 1.399 . S
C372 C377 1.399 . S
C373 C372 1.399 . S
C373 C374 1.376 . S
C374 H361 0.930 . S
C374 C373 1.376 . S
C374 C375 1.388 . S
C375 H362 0.930 . S
C375 C374 1.388 . S
C375 C376 1.390 . S
C376 C375 1.390 . S
C376 C377 1.394 . S
C376 C382 1.465 . S
C377 C372 1.399 . S
C377 C376 1.394 . S
C377 C378 1.516 . S
C378 C377 1.516 . S
C378 C379 1.502 . S
C378 C380 1.561 . S
C378 C381 1.526 . S
C379 H363 0.959 . S
C379 H364 0.959 . S
C379 H365 0.961 . S
C379 C378 1.502 . S
C380 H366 0.960 . S
C380 H367 0.961 . S
C380 H368 0.959 . S
C380 C378 1.561 . S
C381 C378 1.526 . S
C381 C382 1.396 . S
C381 C386 1.390 . S
C382 C376 1.465 . S
C382 C381 1.396 . S
C382 C383 1.399 . S
C383 H369 0.929 . S
C383 C382 1.399 . S
C383 C384 1.385 . S
C384 H370 0.931 . S
C384 C383 1.385 . S
C384 C385 1.389 . S
C385 C384 1.389 . S
C385 C386 1.387 . S
C386 H371 0.930 . S
C386 C381 1.390 . S
C386 C385 1.387 . S
H387 C399 0.930 . S
H388 C401 0.930 . S
H389 C402 0.930 . S
H390 C406 0.959 . S
H391 C406 0.959 . S
H392 C406 0.961 . S
H393 C407 0.960 . S
H394 C407 0.961 . S
H395 C407 0.959 . S
H396 C410 0.929 . S
H397 C411 0.931 . S
H398 C413 0.930 . S
C399 H387 0.930 . S
C399 C400 1.399 . S
C399 C404 1.399 . S
C400 C399 1.399 . S
C400 C401 1.376 . S
C401 H388 0.930 . S
C401 C400 1.376 . S
C401 C402 1.388 . S
C402 H389 0.930 . S
C402 C401 1.388 . S
C402 C403 1.390 . S
C403 C402 1.390 . S
C403 C404 1.394 . S
C403 C409 1.465 . S
C404 C399 1.399 . S
C404 C403 1.394 . S
C404 C405 1.516 . S
C405 C404 1.516 . S
C405 C406 1.502 . S
C405 C407 1.561 . S
C405 C408 1.526 . S
C406 H390 0.959 . S
C406 H391 0.959 . S
C406 H392 0.961 . S
C406 C405 1.502 . S
C407 H393 0.960 . S
C407 H394 0.961 . S
C407 H395 0.959 . S
C407 C405 1.561 . S
C408 C405 1.526 . S
C408 C409 1.396 . S
C408 C413 1.390 . S
C409 C403 1.465 . S
C409 C408 1.396 . S
C409 C410 1.399 . S
C410 H396 0.929 . S
C410 C409 1.399 . S
C410 C411 1.385 . S
C411 H397 0.931 . S
C411 C410 1.385 . S
C411 C412 1.389 . S
C412 C411 1.389 . S
C412 C413 1.387 . S
C413 H398 0.930 . S
C413 C408 1.390 . S
C413 C412 1.387 . S
H414 C426 0.930 . S
H415 C428 0.930 . S
H416 C429 0.930 . S
H417 C433 0.959 . S
H418 C433 0.959 . S
H419 C433 0.961 . S
H420 C434 0.960 . S
H421 C434 0.961 . S
H422 C434 0.959 . S
H423 C437 0.929 . S
H424 C438 0.931 . S
H425 C440 0.930 . S
C426 H414 0.930 . S
C426 C427 1.399 . S
C426 C431 1.399 . S
C427 C426 1.399 . S
C427 C428 1.376 . S
C428 H415 0.930 . S
C428 C427 1.376 . S
C428 C429 1.388 . S
C429 H416 0.930 . S
C429 C428 1.388 . S
C429 C430 1.390 . S
C430 C429 1.390 . S
C430 C431 1.394 . S
C430 C436 1.465 . S
C431 C426 1.399 . S
C431 C430 1.394 . S
C431 C432 1.516 . S
C432 C431 1.516 . S
C432 C433 1.502 . S
C432 C434 1.561 . S
C432 C435 1.526 . S
C433 H417 0.959 . S
C433 H418 0.959 . S
C433 H419 0.961 . S
C433 C432 1.502 . S
C434 H420 0.960 . S
C434 H421 0.961 . S
C434 H422 0.959 . S
C434 C432 1.561 . S
C435 C432 1.526 . S
C435 C436 1.396 . S
C435 C440 1.390 . S
C436 C430 1.465 . S
C436 C435 1.396 . S
C436 C437 1.399 . S
C437 H423 0.929 . S
C437 C436 1.399 . S
C437 C438 1.385 . S
C438 H424 0.931 . S
C438 C437 1.385 . S
C438 C439 1.389 . S
C439 C438 1.389 . S
C439 C440 1.387 . S
C440 H425 0.930 . S
C440 C435 1.390 . S
C440 C439 1.387 . S
H441 C453 0.930 . S
H442 C455 0.930 . S
H443 C456 0.930 . S
H444 C460 0.959 . S
H445 C460 0.959 . S
H446 C460 0.961 . S
H447 C461 0.960 . S
H448 C461 0.961 . S
H449 C461 0.959 . S
H450 C464 0.929 . S
H451 C465 0.931 . S
H452 C467 0.930 . S
C453 H441 0.930 . S
C453 C454 1.399 . S
C453 C458 1.399 . S
C454 C453 1.399 . S
C454 C455 1.376 . S
C455 H442 0.930 . S
C455 C454 1.376 . S
C455 C456 1.388 . S
C456 H443 0.930 . S
C456 C455 1.388 . S
C456 C457 1.390 . S
C457 C456 1.390 . S
C457 C458 1.394 . S
C457 C463 1.465 . S
C458 C453 1.399 . S
C458 C457 1.394 . S
C458 C459 1.516 . S
C459 C458 1.516 . S
C459 C460 1.502 . S
C459 C461 1.561 . S
C459 C462 1.526 . S
C460 H444 0.959 . S
C460 H445 0.959 . S
C460 H446 0.961 . S
C460 C459 1.502 . S
C461 H447 0.960 . S
C461 H448 0.961 . S
C461 H449 0.959 . S
C461 C459 1.561 . S
C462 C459 1.526 . S
C462 C463 1.396 . S
C462 C467 1.390 . S
C463 C457 1.465 . S
C463 C462 1.396 . S
C463 C464 1.399 . S
C464 H450 0.929 . S
C464 C463 1.399 . S
C464 C465 1.385 . S
C465 H451 0.931 . S
C465 C464 1.385 . S
C465 C466 1.389 . S
C466 C465 1.389 . S
C466 C467 1.387 . S
C467 H452 0.930 . S
C467 C462 1.390 . S
C467 C466 1.387 . S
H468 C480 0.930 . S
H469 C482 0.930 . S
H470 C483 0.930 . S
H471 C487 0.959 . S
H472 C487 0.959 . S
H473 C487 0.961 . S
H474 C488 0.960 . S
H475 C488 0.961 . S
H476 C488 0.959 . S
H477 C491 0.929 . S
H478 C492 0.931 . S
H479 C494 0.930 . S
C480 H468 0.930 . S
C480 C481 1.399 . S
C480 C485 1.399 . S
C481 C480 1.399 . S
C481 C482 1.376 . S
C482 H469 0.930 . S
C482 C481 1.376 . S
C482 C483 1.388 . S
C483 H470 0.930 . S
C483 C482 1.388 . S
C483 C484 1.390 . S
C484 C483 1.390 . S
C484 C485 1.394 . S
C484 C490 1.465 . S
C485 C480 1.399 . S
C485 C484 1.394 . S
C485 C486 1.516 . S
C486 C485 1.516 . S
C486 C487 1.502 . S
C486 C488 1.561 . S
C486 C489 1.526 . S
C487 H471 0.959 . S
C487 H472 0.959 . S
C487 H473 0.961 . S
C487 C486 1.502 . S
C488 H474 0.960 . S
C488 H475 0.961 . S
C488 H476 0.959 . S
C488 C486 1.561 . S
C489 C486 1.526 . S
C489 C490 1.396 . S
C489 C494 1.390 . S
C490 C484 1.465 . S
C490 C489 1.396 . S
C490 C491 1.399 . S
C491 H477 0.929 . S
C491 C490 1.399 . S
C491 C492 1.385 . S
C492 H478 0.931 . S
C492 C491 1.385 . S
C492 C493 1.389 . S
C493 C492 1.389 . S
C493 C494 1.387 . S
C494 H479 0.930 . S
C494 C489 1.390 . S
C494 C493 1.387 . S
H495 C507 0.930 . S
H496 C509 0.930 . S
H497 C510 0.930 . S
H498 C514 0.959 . S
H499 C514 0.959 . S
H500 C514 0.961 . S
H501 C515 0.960 . S
H502 C515 0.961 . S
H503 C515 0.959 . S
H504 C518 0.929 . S
H505 C519 0.931 . S
H506 C521 0.930 . S
C507 H495 0.930 . S
C507 C508 1.399 . S
C507 C512 1.399 . S
C508 C507 1.399 . S
C508 C509 1.376 . S
C509 H496 0.930 . S
C509 C508 1.376 . S
C509 C510 1.388 . S
C510 H497 0.930 . S
C510 C509 1.388 . S
C510 C511 1.390 . S
C511 C510 1.390 . S
C511 C512 1.394 . S
C511 C517 1.465 . S
C512 C507 1.399 . S
C512 C511 1.394 . S
C512 C513 1.516 . S
C513 C512 1.516 . S
C513 C514 1.502 . S
C513 C515 1.561 . S
C513 C516 1.526 . S
C514 H498 0.959 . S
C514 H499 0.959 . S
C514 H500 0.961 . S
C514 C513 1.502 . S
C515 H501 0.960 . S
C515 H502 0.961 . S
C515 H503 0.959 . S
C515 C513 1.561 . S
C516 C513 1.526 . S
C516 C517 1.396 . S
C516 C521 1.390 . S
C517 C511 1.465 . S
C517 C516 1.396 . S
C517 C518 1.399 . S
C518 H504 0.929 . S
C518 C517 1.399 . S
C518 C519 1.385 . S
C519 H505 0.931 . S
C519 C518 1.385 . S
C519 C520 1.389 . S
C520 C519 1.389 . S
C520 C521 1.387 . S
C521 H506 0.930 . S
C521 C516 1.390 . S
C521 C520 1.387 . S
H522 C534 0.930 . S
H523 C536 0.930 . S
H524 C537 0.930 . S
H525 C541 0.959 . S
H526 C541 0.959 . S
H527 C541 0.961 . S
H528 C542 0.960 . S
H529 C542 0.961 . S
H530 C542 0.959 . S
H531 C545 0.929 . S
H532 C546 0.931 1_655 S
H533 C548 0.930 . S
C534 H522 0.930 . S
C534 C535 1.399 . S
C534 C539 1.399 . S
C535 C534 1.399 . S
C535 C536 1.376 1_455 S
C536 H523 0.930 . S
C536 C535 1.376 1_655 S
C536 C537 1.388 . S
C537 H524 0.930 . S
C537 C536 1.388 . S
C537 C538 1.390 1_655 S
C538 C537 1.390 1_455 S
C538 C539 1.394 . S
C538 C544 1.465 1_554 S
C539 C534 1.399 . S
C539 C538 1.394 . S
C539 C540 1.516 . S
C540 C539 1.516 . S
C540 C541 1.502 . S
C540 C542 1.561 . S
C540 C543 1.526 1_554 S
C541 H525 0.959 . S
C541 H526 0.959 . S
C541 H527 0.961 . S
C541 C540 1.502 . S
C542 H528 0.960 . S
C542 H529 0.961 . S
C542 H530 0.959 . S
C542 C540 1.561 . S
C543 C540 1.526 1_556 S
C543 C544 1.396 . S
C543 C548 1.390 . S
C544 C538 1.465 1_556 S
C544 C543 1.396 . S
C544 C545 1.399 1_455 S
C545 H531 0.929 . S
C545 C544 1.399 1_655 S
C545 C546 1.385 1_655 S
C546 H532 0.931 1_455 S
C546 C545 1.385 1_455 S
C546 C547 1.389 . S
C547 C546 1.389 . S
C547 C548 1.387 . S
C548 H533 0.930 . S
C548 C543 1.390 . S
C548 C547 1.387 . S
H549 C561 0.930 1_565 S
H550 C563 0.930 . S
H551 C564 0.930 . S
H552 C568 0.959 . S
H553 C568 0.959 . S
H554 C568 0.961 . S
H555 C569 0.960 . S
H556 C569 0.961 . S
H557 C569 0.959 . S
H558 C572 0.929 . S
H559 C573 0.931 . S
H560 C575 0.914 1_565 S
C561 H549 0.930 1_545 S
C561 C562 1.399 . S
C561 C566 1.399 . S
C562 C561 1.399 . S
C562 C563 1.376 . S
C563 H550 0.930 . S
C563 C562 1.376 . S
C563 C564 1.388 . S
C564 H551 0.930 . S
C564 C563 1.388 . S
C564 C565 1.390 . S
C565 C564 1.390 . S
C565 C566 1.394 . S
C565 C571 1.465 . S
C566 C561 1.399 . S
C566 C565 1.394 . S
C566 C567 1.516 1_545 S
C567 C566 1.516 1_565 S
C567 C568 1.502 . S
C567 C569 1.561 . S
C567 C570 1.526 1_565 S
C568 H552 0.959 . S
C568 H553 0.959 . S
C568 H554 0.961 . S
C568 C567 1.502 . S
C569 H555 0.960 . S
C569 H556 0.961 . S
C569 H557 0.959 . S
C569 C567 1.561 . S
C570 C567 1.526 1_545 S
C570 C571 1.396 . S
C570 C575 1.393 . S
C571 C565 1.465 . S
C571 C570 1.396 . S
C571 C572 1.399 . S
C572 H558 0.929 . S
C572 C571 1.399 . S
C572 C573 1.385 . S
C573 H559 0.931 . S
C573 C572 1.385 . S
C573 C574 1.389 . S
C574 C573 1.389 . S
C574 C575 1.399 . S
C575 H560 0.914 1_545 S
C575 C570 1.393 . S
C575 C574 1.399 . S
H576 C588 0.930 . S
H577 C590 0.930 . S
H578 C591 0.930 . S
H579 C595 0.959 . S
H580 C595 0.959 . S
H581 C595 0.961 . S
H582 C596 0.960 . S
H583 C596 0.961 . S
H584 C596 0.959 . S
H585 C599 0.929 . S
H586 C600 0.931 . S
H587 C602 0.930 . S
C588 H576 0.930 . S
C588 C589 1.399 . S
C588 C593 1.399 . S
C589 C588 1.399 . S
C589 C590 1.376 . S
C590 H577 0.930 . S
C590 C589 1.376 . S
C590 C591 1.388 . S
C591 H578 0.930 . S
C591 C590 1.388 . S
C591 C592 1.390 . S
C592 C591 1.390 . S
C592 C593 1.394 . S
C592 C598 1.465 . S
C593 C588 1.399 . S
C593 C592 1.394 . S
C593 C594 1.516 . S
C594 C593 1.516 . S
C594 C595 1.502 . S
C594 C596 1.561 . S
C594 C597 1.526 . S
C595 H579 0.959 . S
C595 H580 0.959 . S
C595 H581 0.961 . S
C595 C594 1.502 . S
C596 H582 0.960 . S
C596 H583 0.961 . S
C596 H584 0.959 . S
C596 C594 1.561 . S
C597 C594 1.526 . S
C597 C598 1.396 . S
C597 C602 1.390 . S
C598 C592 1.465 . S
C598 C597 1.396 . S
C598 C599 1.399 . S
C599 H585 0.929 . S
C599 C598 1.399 . S
C599 C600 1.385 . S
C600 H586 0.931 . S
C600 C599 1.385 . S
C600 C601 1.389 . S
C601 C600 1.389 . S
C601 C602 1.387 . S
C602 H587 0.930 . S
C602 C597 1.390 . S
C602 C601 1.387 . S
H603 C615 0.930 . S
H604 C617 0.930 . S
H605 C618 0.930 . S
H606 C622 0.959 . S
H607 C622 0.959 . S
H608 C622 0.961 . S
H609 C623 0.960 . S
H610 C623 0.961 . S
H611 C623 0.959 . S
H612 C626 0.929 . S
H613 C627 0.931 . S
H614 C629 0.930 . S
C615 H603 0.930 . S
C615 C616 1.399 1_565 S
C615 C620 1.399 . S
C616 C615 1.399 1_545 S
C616 C617 1.376 . S
C617 H604 0.930 . S
C617 C616 1.376 . S
C617 C618 1.388 . S
C618 H605 0.930 . S
C618 C617 1.388 . S
C618 C619 1.390 . S
C619 C618 1.390 . S
C619 C620 1.394 1_545 S
C619 C625 1.465 . S
C620 C615 1.399 . S
C620 C619 1.394 1_565 S
C620 C621 1.516 . S
C621 C620 1.516 . S
C621 C622 1.502 . S
C621 C623 1.561 . S
C621 C624 1.526 . S
C622 H606 0.959 . S
C622 H607 0.959 . S
C622 H608 0.961 . S
C622 C621 1.502 . S
C623 H609 0.960 . S
C623 H610 0.961 . S
C623 H611 0.959 . S
C623 C621 1.561 . S
C624 C621 1.526 . S
C624 C625 1.396 1_565 S
C624 C629 1.390 . S
C625 C619 1.465 . S
C625 C624 1.396 1_545 S
C625 C626 1.399 . S
C626 H612 0.929 . S
C626 C625 1.399 . S
C626 C627 1.385 . S
C627 H613 0.931 . S
C627 C626 1.385 . S
C627 C628 1.389 . S
C628 C627 1.389 . S
C628 C629 1.387 1_545 S
C629 H614 0.930 . S
C629 C624 1.390 . S
C629 C628 1.387 1_565 S
H630 C642 0.930 . S
H631 C644 0.930 . S
H632 C645 0.930 . S
H633 C649 0.959 . S
H634 C649 0.959 . S
H635 C649 0.961 1_556 S
H636 C650 0.960 . S
H637 C650 0.961 1_554 S
H638 C650 0.959 . S
H639 C653 0.929 . S
H640 C654 0.931 . S
H641 C656 0.930 . S
C642 H630 0.930 . S
C642 C643 1.399 . S
C642 C647 1.399 . S
C643 C642 1.399 . S
C643 C644 1.376 . S
C644 H631 0.930 . S
C644 C643 1.376 . S
C644 C645 1.388 . S
C645 H632 0.930 . S
C645 C644 1.388 . S
C645 C646 1.390 . S
C646 C645 1.390 . S
C646 C647 1.394 . S
C646 C652 1.465 . S
C647 C642 1.399 . S
C647 C646 1.394 . S
C647 C648 1.516 . S
C648 C647 1.516 . S
C648 C649 1.502 1_556 S
C648 C650 1.561 . S
C648 C651 1.526 1_556 S
C649 H633 0.959 . S
C649 H634 0.959 . S
C649 H635 0.961 1_554 S
C649 C648 1.502 1_554 S
C650 H636 0.960 . S
C650 H637 0.961 1_556 S
C650 H638 0.959 . S
C650 C648 1.561 . S
C651 C648 1.526 1_554 S
C651 C652 1.396 1_554 S
C651 C656 1.390 . S
C652 C646 1.465 . S
C652 C651 1.396 1_556 S
C652 C653 1.399 . S
C653 H639 0.929 . S
C653 C652 1.399 . S
C653 C654 1.385 1_556 S
C654 H640 0.931 . S
C654 C653 1.385 1_554 S
C654 C655 1.389 . S
C655 C654 1.389 . S
C655 C656 1.387 . S
C656 H641 0.930 . S
C656 C651 1.390 . S
C656 C655 1.387 . S
H657 C669 0.930 . S
H658 C671 0.930 . S
H659 C672 0.930 . S
H660 C676 0.959 . S
H661 C676 0.959 . S
H662 C676 0.961 . S
H663 C677 0.960 . S
H664 C677 0.961 . S
H665 C677 0.959 1_655 S
H666 C680 0.929 . S
H667 C681 0.931 . S
H668 C683 0.930 . S
C669 H657 0.930 . S
C669 C670 1.399 1_455 S
C669 C674 1.399 . S
C670 C669 1.399 1_655 S
C670 C671 1.376 . S
C671 H658 0.930 . S
C671 C670 1.376 . S
C671 C672 1.388 . S
C672 H659 0.930 . S
C672 C671 1.388 . S
C672 C673 1.390 . S
C673 C672 1.390 . S
C673 C674 1.394 1_655 S
C673 C679 1.465 . S
C674 C669 1.399 . S
C674 C673 1.394 1_455 S
C674 C675 1.516 . S
C675 C674 1.516 . S
C675 C676 1.502 . S
C675 C677 1.561 . S
C675 C678 1.526 . S
C676 H660 0.959 . S
C676 H661 0.959 . S
C676 H662 0.961 . S
C676 C675 1.502 . S
C677 H663 0.960 . S
C677 H664 0.961 . S
C677 H665 0.959 1_455 S
C677 C675 1.561 . S
C678 C675 1.526 . S
C678 C679 1.396 1_455 S
C678 C683 1.390 . S
C679 C673 1.465 . S
C679 C678 1.396 1_655 S
C679 C680 1.399 . S
C680 H666 0.929 . S
C680 C679 1.399 . S
C680 C681 1.385 . S
C681 H667 0.931 . S
C681 C680 1.385 . S
C681 C682 1.389 . S
C682 C681 1.389 . S
C682 C683 1.387 1_655 S
C683 H668 0.930 . S
C683 C678 1.390 . S
C683 C682 1.387 1_455 S
C211 C25 0.343 . S
C223 C189 0.376 . S
C238 C65 0.387 . S
C250 C167 0.207 . S
C265 C105 0.526 . S
C277 C180 0.336 . S
C292 C4 0.433 . S
C304 C193 0.315 . S
C331 C163 0.445 . S
C319 C44 0.424 . S
C358 C176 0.622 . S
C346 C84 0.585 . S
C373 C60 2.884 . S
C385 C141 2.864 . S
C400 C100 3.006 . S
C412 C154 2.957 1_655 S
C427 C31 3.122 . S
C439 C124 2.932 . S
C466 C137 2.903 . S
C454 C71 3.121 . S
C493 C150 2.848 . S
C481 C111 2.999 . S
C508 C20 2.898 . S
C520 C128 2.871 . S
C547 C155 1.747 . S
C535 C2 1.715 . S
C562 C42 1.703 . S
C574 C129 1.774 . S
C589 C82 1.757 . S
C601 C142 1.798 . S
C628 C181 1.236 1_545 S
C616 C63 1.208 . S
C655 C194 1.314 . S
C643 C103 1.285 . S
C670 C23 1.252 1_655 S
C682 C168 1.235 . S
