# Generated by pormake.
# Topology zzz, (3,6)-cn, num edge types: 1
# Building blocks:
#     Node 0, Type 0, BuildingBlock: MIDCAF_clean_linker_0, # of connection points: 3
#     Node 1, Type 0, BuildingBlock: MIDCAF_clean_linker_0, # of connection points: 3
#     Node 2, Type 0, BuildingBlock: MIDCAF_clean_linker_0, # of connection points: 3
#     Node 3, Type 0, BuildingBlock: MIDCAF_clean_linker_0, # of connection points: 3
#     Node 4, Type 0, BuildingBlock: MIDCAF_clean_linker_0, # of connection points: 3
#     Node 5, Type 0, BuildingBlock: MIDCAF_clean_linker_0, # of connection points: 3
#     Node 6, Type 0, BuildingBlock: MIDCAF_clean_linker_0, # of connection points: 3
#     Node 7, Type 0, BuildingBlock: MIDCAF_clean_linker_0, # of connection points: 3
#     Node 8, Type 1, BuildingBlock: HISSIN_clean_sbu_0, # of connection points: 6
#     Node 9, Type 1, BuildingBlock: HISSIN_clean_sbu_0, # of connection points: 6
#     Node 10, Type 1, BuildingBlock: HISSIN_clean_sbu_0, # of connection points: 6
#     Node 11, Type 1, BuildingBlock: HISSIN_clean_sbu_0, # of connection points: 6
#     Edge 12, Type (0, 1), BuildingBlock: AJUNOK_clean_linker_0, # of connection points: 2
#     Edge 13, Type (0, 1), BuildingBlock: AJUNOK_clean_linker_0, # of connection points: 2
#     Edge 14, Type (0, 1), BuildingBlock: AJUNOK_clean_linker_0, # of connection points: 2
#     Edge 15, Type (0, 1), BuildingBlock: AJUNOK_clean_linker_0, # of connection points: 2
#     Edge 16, Type (0, 1), BuildingBlock: AJUNOK_clean_linker_0, # of connection points: 2
#     Edge 17, Type (0, 1), BuildingBlock: AJUNOK_clean_linker_0, # of connection points: 2
#     Edge 18, Type (0, 1), BuildingBlock: AJUNOK_clean_linker_0, # of connection points: 2
#     Edge 19, Type (0, 1), BuildingBlock: AJUNOK_clean_linker_0, # of connection points: 2
#     Edge 20, Type (0, 1), BuildingBlock: AJUNOK_clean_linker_0, # of connection points: 2
#     Edge 21, Type (0, 1), BuildingBlock: AJUNOK_clean_linker_0, # of connection points: 2
#     Edge 22, Type (0, 1), BuildingBlock: AJUNOK_clean_linker_0, # of connection points: 2
#     Edge 23, Type (0, 1), BuildingBlock: AJUNOK_clean_linker_0, # of connection points: 2
#     Edge 24, Type (0, 1), BuildingBlock: AJUNOK_clean_linker_0, # of connection points: 2
#     Edge 25, Type (0, 1), BuildingBlock: AJUNOK_clean_linker_0, # of connection points: 2
#     Edge 26, Type (0, 1), BuildingBlock: AJUNOK_clean_linker_0, # of connection points: 2
#     Edge 27, Type (0, 1), BuildingBlock: AJUNOK_clean_linker_0, # of connection points: 2
#     Edge 28, Type (0, 1), BuildingBlock: AJUNOK_clean_linker_0, # of connection points: 2
#     Edge 29, Type (0, 1), BuildingBlock: AJUNOK_clean_linker_0, # of connection points: 2
#     Edge 30, Type (0, 1), BuildingBlock: AJUNOK_clean_linker_0, # of connection points: 2
#     Edge 31, Type (0, 1), BuildingBlock: AJUNOK_clean_linker_0, # of connection points: 2
#     Edge 32, Type (0, 1), BuildingBlock: AJUNOK_clean_linker_0, # of connection points: 2
#     Edge 33, Type (0, 1), BuildingBlock: AJUNOK_clean_linker_0, # of connection points: 2
#     Edge 34, Type (0, 1), BuildingBlock: AJUNOK_clean_linker_0, # of connection points: 2
#     Edge 35, Type (0, 1), BuildingBlock: AJUNOK_clean_linker_0, # of connection points: 2
# Relax obj value: 0.453
# Max RMSD: 0.241
# Mean RMSD: 0.196
data_MOF--net-zzz--node1-HISSIN_clean_sbu_0--node2-MIDCAF_clean_linker_0--edge1-AJUNOK_clean_linker_0
_symmetry_space_group_name_H-M    P1
_symmetry_Int_Tables_number       1
_symmetry_cell_setting            triclinic
loop_
_symmetry_equiv_pos_as_xyz
'x, y, z'
_cell_length_a     43.517544
_cell_length_b     43.735693
_cell_length_c     16.748443
_cell_angle_alpha  90.154061
_cell_angle_beta   91.386302
_cell_angle_gamma 91.782518
loop_
_atom_site_label
_atom_site_type_symbol
_atom_site_fract_x
_atom_site_fract_y
_atom_site_fract_z
_atom_type_partial_charge
C0 C 0.861 0.58769 0.39931 0.0
C1 C 0.8588 0.56509 0.45854 0.0
C2 C 0.83079 0.54799 0.46331 0.0
C3 C 0.80601 0.55306 0.40912 0.0
H4 H 0.69095 0.61505 0.216 0.0
H5 H 0.64332 0.60744 0.1371 0.0
H6 H 0.65935 0.51087 0.12305 0.0
H7 H 0.70723 0.51862 0.20176 0.0
H8 H 0.74844 0.58163 0.99783 0.0
H9 H 0.77134 0.56415 0.87553 0.0
H10 H 0.86185 0.57999 0.98145 0.0
H11 H 0.83926 0.59718 0.10398 0.0
H12 H 0.83983 0.60986 0.30003 0.0
H13 H 0.88224 0.6008 0.39172 0.0
H14 H 0.82822 0.53033 0.50806 0.0
H15 H 0.78528 0.53882 0.41247 0.0
N16 N 0.75501 0.57135 0.28646 0.0
N17 N 0.74847 0.58221 0.14939 0.0
N18 N 0.79742 0.58553 0.20806 0.0
C19 C 0.73618 0.57429 0.21998 0.0
C20 C 0.77891 0.58773 0.14239 0.0
C21 C 0.78605 0.57772 0.2804 0.0
C22 C 0.70265 0.56737 0.21683 0.0
C23 C 0.68333 0.5919 0.2006 0.0
C24 C 0.65634 0.58764 0.1538 0.0
C25 C 0.64791 0.55865 0.12233 0.0
C26 C 0.66522 0.53348 0.14636 0.0
C27 C 0.69241 0.53783 0.19281 0.0
C28 C 0.79209 0.58945 0.06197 0.0
C29 C 0.77326 0.58262 0.99421 0.0
C30 C 0.78628 0.57276 0.92374 0.0
C31 C 0.81821 0.57021 0.91979 0.0
C32 C 0.83709 0.58179 0.98285 0.0
C33 C 0.82411 0.59137 0.05357 0.0
C34 C 0.80889 0.57509 0.34837 0.0
C35 C 0.83655 0.59268 0.34579 0.0
C36 C 0.98302 0.81517 0.49784 0.0
C37 C 1.0086 0.83478 0.48474 0.0
C38 C 0.02837 0.82739 0.42256 0.0
C39 C 0.02102 0.80276 0.37022 0.0
H40 H 0.93661 0.70768 0.08261 0.0
H41 H 0.94955 0.66553 0.99638 0.0
H42 H 0.0386 0.66132 0.11384 0.0
H43 H 0.02573 0.70427 0.20087 0.0
H44 H 0.94139 0.79769 0.0515 0.0
H45 H 0.94571 0.85174 1.02019 0.0
H46 H 0.90634 0.87388 0.24607 0.0
H47 H 0.90161 0.81961 0.2772 0.0
H48 H 0.95441 0.77777 0.45383 0.0
H49 H 0.9674 0.82004 0.5453 0.0
H50 H 0.0481 0.84217 0.4102 0.0
H51 H 0.03475 0.79988 0.31779 0.0
N52 N 0.98734 0.74611 0.26648 0.0
N53 N 0.94943 0.7555 0.16672 0.0
N54 N 0.95474 0.78763 0.27763 0.0
C55 C 0.97212 0.73756 0.19641 0.0
C56 C 0.94048 0.78039 0.20751 0.0
C57 C 0.97802 0.77124 0.30771 0.0
C58 C 0.98022 0.70987 0.1488 0.0
C59 C 0.95904 0.69792 0.09069 0.0
C60 C 0.96635 0.67346 0.04116 0.0
C61 C 0.99523 0.66008 0.04714 0.0
C62 C 1.01629 0.67138 0.10648 0.0
C63 C 1.00883 0.69587 0.15695 0.0
C64 C 0.92283 0.80471 0.16868 0.0
C65 C 0.9314 0.81381 0.09188 0.0
C66 C 0.93404 0.84496 0.07407 0.0
C67 C 0.92777 0.86682 0.13272 0.0
C68 C 0.91203 0.85737 0.20086 0.0
C69 C 0.9092 0.82622 0.21837 0.0
C70 C 0.99395 0.78478 0.3795 0.0
C71 C 0.97591 0.79049 0.44626 0.0
C72 C 0.72154 0.99014 0.47706 0.0
C73 C 0.69078 0.98961 0.44757 0.0
C74 C 0.68562 0.98441 0.36549 0.0
C75 C 0.70997 0.97843 0.31521 0.0
H76 H 0.86949 0.96389 0.25508 0.0
H77 H 0.91254 0.97513 0.16553 0.0
H78 H 0.84855 1.00678 0.98596 0.0
H79 H 0.80595 0.99635 0.07577 0.0
H80 H 0.7886 0.90683 0.04492 0.0
H81 H 0.75308 0.91718 0.93492 0.0
H82 H 0.6773 0.90963 0.09577 0.0
H83 H 0.71239 0.89752 0.20385 0.0
H84 H 0.76923 0.98262 0.45142 0.0
H85 H 0.72641 0.99389 0.54009 0.0
H86 H 0.66246 0.98424 0.34021 0.0
H87 H 0.70465 0.97328 0.25294 0.0
N88 N 0.79067 0.97739 0.27052 0.0
N89 N 0.7972 0.93849 0.17508 0.0
N90 N 0.75398 0.93708 0.25405 0.0
C91 C 0.80799 0.96432 0.21251 0.0
C92 C 0.77021 0.92468 0.19483 0.0
C93 C 0.76363 0.96302 0.29271 0.0
C94 C 0.83437 0.98035 0.17386 0.0
C95 C 0.86486 0.97476 0.19819 0.0
C96 C 0.88944 0.98077 0.1464 0.0
C97 C 0.88393 0.99175 0.06844 0.0
C98 C 0.85359 0.99836 0.04548 0.0
C99 C 0.82923 0.99288 0.09752 0.0
C100 C 0.75334 0.90523 0.1345 0.0
C101 C 0.76418 0.9053 0.05594 0.0
C102 C 0.7438 0.91155 0.99269 0.0
C103 C 0.713 0.91738 1.00906 0.0
C104 C 0.70129 0.90709 0.08209 0.0
C105 C 0.72161 0.90011 0.14462 0.0
C106 C 0.74051 0.9773 0.34481 0.0
C107 C 0.74616 0.98394 0.42622 0.0
C108 C 0.38875 0.72566 0.11387 0.0
C109 C 0.38616 0.73671 0.03528 0.0
C110 C 0.39993 0.76526 1.01731 0.0
C111 C 0.41938 0.78027 0.07341 0.0
H112 H 0.49554 0.86681 0.23504 0.0
H113 H 0.51073 0.90725 0.14232 0.0
H114 H 0.55744 0.84135 1.00071 0.0
H115 H 0.54174 0.80085 0.0936 0.0
H116 H 0.54709 0.74867 0.35345 0.0
H117 H 0.5585 0.70848 0.45163 0.0
H118 H 0.46146 0.69533 0.49229 0.0
H119 H 0.45024 0.73529 0.39711 0.0
H120 H 0.41156 0.73005 0.22768 0.0
H121 H 0.37873 0.7036 0.12979 0.0
H122 H 0.39807 0.77446 0.95745 0.0
H123 H 0.43175 0.80087 0.05523 0.0
N124 N 0.47157 0.79974 0.17128 0.0
N125 N 0.50846 0.78879 0.27182 0.0
N126 N 0.46174 0.76027 0.2612 0.0
C127 C 0.49913 0.80607 0.20802 0.0
C128 C 0.48926 0.76589 0.29938 0.0
C129 C 0.45271 0.77692 0.19722 0.0
C130 C 0.51829 0.83086 0.17301 0.0
C131 C 0.51049 0.86132 0.18656 0.0
C132 C 0.51905 0.88447 0.1329 0.0
C133 C 0.53541 0.87764 0.06388 0.0
C134 C 0.54487 0.84743 0.05318 0.0
C135 C 0.53635 0.8243 0.10709 0.0
C136 C 0.49775 0.74533 0.3671 0.0
C137 C 0.52833 0.73773 0.38501 0.0
C138 C 0.53482 0.71452 0.44078 0.0
C139 C 0.51091 0.69877 0.48067 0.0
C140 C 0.48055 0.70729 0.46454 0.0
C141 C 0.47411 0.73016 0.40901 0.0
C142 C 0.42534 0.76692 0.14837 0.0
C143 C 0.40808 0.74068 0.16996 0.0
C144 C 0.22549 0.46316 0.9039 0.0
C145 C 0.20886 0.48951 0.91973 0.0
C146 C 0.22011 0.50937 0.98096 0.0
C147 C 0.24635 0.50228 0.02746 0.0
H148 H 0.34478 0.51999 0.19604 0.0
H149 H 0.38669 0.53611 0.28946 0.0
H150 H 0.41262 0.44211 0.31481 0.0
H151 H 0.3717 0.4264 0.22052 0.0
H152 H 0.29736 0.41533 0.34398 0.0
H153 H 0.26082 0.42475 0.44756 0.0
H154 H 0.18602 0.41314 0.27567 0.0
H155 H 0.22236 0.40416 0.17142 0.0
H156 H 0.26212 0.43425 0.94115 0.0
H157 H 0.21729 0.447 0.85851 0.0
H158 H 0.20788 0.52983 0.99494 0.0
H159 H 0.25305 0.51689 0.07765 0.0
N160 N 0.30957 0.47338 0.10299 0.0
N161 N 0.31038 0.43763 0.20791 0.0
N162 N 0.26751 0.43916 0.1224 0.0
C163 C 0.32475 0.46028 0.16654 0.0
C164 C 0.2817 0.42717 0.18739 0.0
C165 C 0.28105 0.46182 0.07935 0.0
C166 C 0.35488 0.47191 0.20061 0.0
C167 C 0.36025 0.50301 0.21909 0.0
C168 C 0.38391 0.51211 0.27401 0.0
C169 C 0.40261 0.49029 0.31181 0.0
C170 C 0.39879 0.45961 0.28755 0.0
C171 C 0.37528 0.45058 0.2331 0.0
C172 C 0.26273 0.41166 0.24839 0.0
C173 C 0.27307 0.41293 0.3287 0.0
C174 C 0.25213 0.4182 0.38859 0.0
C175 C 0.22092 0.42128 0.36827 0.0
C176 C 0.21014 0.41164 0.29236 0.0
C177 C 0.2311 0.40666 0.23229 0.0
C178 C 0.26185 0.47506 1.01426 0.0
C179 C 0.25141 0.45595 0.9509 0.0
C180 C 0.09376 0.19119 0.98644 0.0
C181 C 0.06499 0.18898 0.94656 0.0
C182 C 0.04454 0.21313 0.9579 0.0
C183 C 0.05214 0.23768 1.01089 0.0
H184 H 0.1093 0.3628 0.19457 0.0
H185 H 0.09598 0.40567 0.27998 0.0
H186 H 1.01219 0.35734 0.34295 0.0
H187 H 0.02567 0.31447 0.25716 0.0
H188 H 0.12098 0.28986 0.39924 0.0
H189 H 0.11293 0.25754 0.51507 0.0
H190 H 0.12739 0.17763 0.37029 0.0
H191 H 0.1366 0.20966 0.25627 0.0
H192 H 0.1236 0.21548 0.06867 0.0
H193 H 0.11023 0.17332 0.98042 0.0
H194 H 0.02248 0.21293 0.92669 0.0
H195 H 0.03541 0.25501 1.02086 0.0
N196 N 0.07445 0.2885 0.13083 0.0
N197 N 0.10177 0.29511 0.25353 0.0
N198 N 0.10727 0.25067 0.17951 0.0
C199 C 0.08234 0.30612 0.19694 0.0
C200 C 0.11422 0.2674 0.24588 0.0
C201 C 0.08786 0.26066 0.12121 0.0
C202 C 0.06811 0.33554 0.21695 0.0
C203 C 0.08722 0.36206 0.22313 0.0
C204 C 0.07977 0.38648 0.27314 0.0
C205 C 0.0533 0.38477 0.31974 0.0
C206 C 0.033 0.35926 0.3089 0.0
C207 C 0.04034 0.33494 0.25822 0.0
C208 C 0.1271 0.25203 0.31734 0.0
C209 C 0.12421 0.26551 0.39309 0.0
C210 C 0.11962 0.24698 0.4598 0.0
C211 C 0.11777 0.21502 0.4508 0.0
C212 C 0.12797 0.20216 0.37944 0.0
C213 C 0.13294 0.22067 0.31314 0.0
C214 C 0.08047 0.23878 0.05343 0.0
C215 C 0.10137 0.21556 0.03812 0.0
C216 C 0.34494 0.01722 1.02145 0.0
C217 C 0.34775 0.03053 0.94519 0.0
C218 C 0.32344 0.04842 0.91681 0.0
C219 C 0.29829 0.05447 0.96507 0.0
H220 H 0.22401 1.00845 0.25647 0.0
H221 H 0.18283 0.99595 0.35108 0.0
H222 H 0.15721 0.0904 0.35132 0.0
H223 H 0.19775 0.10273 0.2581 0.0
H224 H 0.28636 0.11969 0.34357 0.0
H225 H 0.33714 0.11789 0.40429 0.0
H226 H 0.37745 0.13725 0.17657 0.0
H227 H 0.32636 0.13939 0.11563 0.0
H228 H 0.31973 0.0148 0.13036 0.0
H229 H 0.36308 1.00331 0.04561 0.0
H230 H 0.32488 0.05972 0.85953 0.0
H231 H 0.28161 0.07066 0.94399 0.0
N232 N 0.25401 0.04888 0.14305 0.0
N233 N 0.25604 0.09343 0.22342 0.0
N234 N 0.29221 0.08729 0.12488 0.0
C235 C 0.24172 0.06638 0.20222 0.0
C236 C 0.28131 0.10403 0.18523 0.0
C237 C 0.27919 0.06004 0.10299 0.0
C238 C 0.21413 0.05656 0.24887 0.0
C239 C 0.20909 0.02632 0.27534 0.0
C240 C 0.18572 0.01926 0.33027 0.0
C241 C 0.16649 0.04214 0.35866 0.0
C242 C 0.17112 0.07207 0.33012 0.0
C243 C 0.19453 0.07914 0.27657 0.0
C244 C 0.30275 0.1268 0.22366 0.0
C245 C 0.30584 0.12593 0.30728 0.0
C246 C 0.33523 0.12489 0.34241 0.0
C247 C 0.3611 0.12533 0.29366 0.0
C248 C 0.35773 0.13568 0.21478 0.0
C249 C 0.32832 0.13693 0.17991 0.0
C250 C 0.29638 0.04264 0.04296 0.0
C251 C 0.31964 0.02319 0.06955 0.0
C252 C 0.64869 0.32682 0.31173 0.0
C253 C 0.6559 0.31349 0.38604 0.0
C254 C 0.64777 0.28243 0.39739 0.0
C255 C 0.6281 0.26704 0.34224 0.0
H256 H 0.49614 0.23769 0.32321 0.0
H257 H 0.48135 0.19486 0.41093 0.0
H258 H 0.54604 0.1381 0.29346 0.0
H259 H 0.55988 0.18031 0.20574 0.0
H260 H 0.49154 0.29658 0.08357 0.0
H261 H 0.47825 0.33772 0.98994 0.0
H262 H 0.57454 0.35241 0.9406 0.0
H263 H 0.58732 0.31104 0.02912 0.0
H264 H 0.62276 0.32343 0.20271 0.0
H265 H 0.6547 0.35052 0.29945 0.0
H266 H 0.65443 0.27077 0.45173 0.0
H267 H 0.61972 0.24416 0.35629 0.0
N268 N 0.57263 0.24664 0.25567 0.0
N269 N 0.53326 0.25606 0.15997 0.0
N270 N 0.57842 0.28702 0.16649 0.0
C271 C 0.54473 0.23901 0.22206 0.0
C272 C 0.55067 0.28014 0.13124 0.0
C273 C 0.58958 0.27067 0.22848 0.0
C274 C 0.52833 0.21198 0.25563 0.0
C275 C 0.50592 0.21553 0.31376 0.0
C276 C 0.49792 0.19118 0.36493 0.0
C277 C 0.51224 0.16281 0.35905 0.0
C278 C 0.53377 0.15915 0.29857 0.0
C279 C 0.54167 0.18335 0.24778 0.0
C280 C 0.54052 0.30057 0.06477 0.0
C281 C 0.50966 0.30812 0.05097 0.0
C282 C 0.50216 0.33211 0.99826 0.0
C283 C 0.52538 0.34909 0.95856 0.0
C284 C 0.5559 0.34009 0.96932 0.0
C285 C 0.56328 0.31629 1.021 0.0
C286 C 0.61722 0.28223 0.27374 0.0
C287 C 0.62983 0.31127 0.256 0.0
Eu288 Eu 1.00147 0.02465 0.66283 0.0
Eu289 Eu 0.05361 1.00143 0.78332 0.0
C290 C 0.04028 0.07176 0.77828 0.0
C291 C 0.97516 0.08748 0.54962 0.0
C292 C 0.97861 0.1097 0.61082 0.0
C293 C 1.01183 0.11668 0.47129 0.0
C294 C 1.00021 0.13379 0.60451 0.0
C295 C 0.99016 0.09268 0.47732 0.0
C296 C 0.01821 0.13612 0.53667 0.0
C297 C 0.966 0.05572 0.57061 0.0
O298 O 1.00954 1.00847 0.85189 0.0
O299 O 0.97376 0.99864 0.75389 0.0
C300 C 0.981 1.0014 0.82994 0.0
O301 O 1.00167 0.97519 0.62493 0.0
O302 O 0.08606 1.01021 0.88347 0.0
O303 O 0.07474 0.96379 0.84734 0.0
O304 O 0.04003 0.95878 0.71006 0.0
C305 C 0.01977 0.95369 0.65122 0.0
O306 O 0.04711 0.03438 0.60136 0.0
O307 O 0.08211 1.00663 0.67304 0.0
O308 O 0.06284 0.05263 0.77637 0.0
O309 O 0.9839 0.03494 0.54296 0.0
O310 O 0.95994 0.05098 0.6456 0.0
O311 O 1.01274 0.06265 0.75305 0.0
C312 C 0.0718 0.9745 0.98303 0.0
C313 C 0.07334 0.94458 1.01259 0.0
C314 C 0.02722 0.98259 0.06444 0.0
C315 C 0.05069 0.93318 0.06335 0.0
C316 C 0.04988 0.99407 1.01407 0.0
C317 C 0.02637 0.95164 0.08502 0.0
C318 C 0.08525 0.98156 0.90495 0.0
C319 C 0.07451 0.0224 0.60911 0.0
H320 H 0.96718 0.10674 0.66715 0.0
H321 H 0.02508 0.11886 0.41755 0.0
H322 H 1.00452 0.14905 0.65489 0.0
H323 H 0.98787 0.07619 0.42897 0.0
H324 H 0.08982 0.929 0.98922 0.0
H325 H 1.00885 0.99708 0.08179 0.0
H326 H 0.05035 0.9091 0.07845 0.0
H327 H 0.04806 0.01732 0.99272 0.0
Eu328 Eu 0.53774 0.04166 0.76226 0.0
Eu329 Eu 0.50616 0.99177 0.64102 0.0
C330 C 0.53423 0.96969 0.81042 0.0
C331 C 0.60002 0.06686 0.89449 0.0
C332 C 0.60051 0.05151 0.96813 0.0
C333 C 0.64755 0.04263 0.86033 0.0
C334 C 0.62283 0.03004 0.98436 0.0
C335 C 0.62533 0.06428 0.84426 0.0
C336 C 0.64509 0.02398 0.92782 0.0
C337 C 0.57013 0.07629 0.86019 0.0
O338 O 0.46586 0.01475 0.69874 0.0
O339 O 0.49012 0.03369 0.81165 0.0
C340 C 0.46472 0.02533 0.77231 0.0
O341 O 0.51212 0.071 0.67327 0.0
O342 O 0.47055 0.95739 0.60762 0.0
O343 O 0.50466 0.971 0.52229 0.0
O344 O 0.51209 0.03604 0.57233 0.0
C345 C 0.50944 0.06435 0.59681 0.0
O346 O 0.57393 0.03092 0.67103 0.0
O347 O 0.55713 0.9832 0.63215 0.0
O348 O 0.51363 0.96431 0.75309 0.0
O349 O 0.56919 0.08101 0.78325 0.0
O350 O 0.54643 0.05974 0.88259 0.0
O351 O 0.55031 0.99566 0.81417 0.0
C352 C 0.45335 0.97187 0.47849 0.0
C353 C 0.46066 0.97897 0.39919 0.0
C354 C 0.41359 1.00952 0.47323 0.0
C355 C 0.44588 1.00267 0.35941 0.0
C356 C 0.42782 0.9855 0.51216 0.0
C357 C 0.42419 0.01979 0.39933 0.0
C358 C 0.47715 0.95916 0.53208 0.0
C359 C 0.57885 1.00479 0.63519 0.0
H360 H 0.58173 0.05347 1.00897 0.0
H361 H 0.66508 0.03876 0.81689 0.0
H362 H 0.62149 0.01662 0.03847 0.0
H363 H 0.62621 0.07654 0.78829 0.0
H364 H 0.47996 0.96853 0.37127 0.0
H365 H 0.39563 0.02135 0.50323 0.0
H366 H 0.45336 1.00931 0.30059 0.0
H367 H 0.42086 0.97992 0.5721 0.0
Eu368 Eu 0.491 0.53435 0.77998 0.0
Eu369 Eu 0.55108 0.5175 0.67914 0.0
C370 C 0.55793 0.54151 0.85714 0.0
C371 C 0.42021 0.57302 0.85748 0.0
C372 C 0.40348 0.57872 0.92581 0.0
C373 C 0.40092 0.61921 0.79695 0.0
C374 C 0.38672 0.60525 0.9314 0.0
C375 C 0.41798 0.59271 0.79174 0.0
C376 C 0.3863 0.62649 0.86836 0.0
C377 C 0.44297 0.54908 0.86034 0.0
O378 O 0.54132 0.47495 0.75284 0.0
O379 O 0.49206 0.48301 0.79212 0.0
C380 C 0.51585 0.46542 0.787 0.0
O381 O 0.47483 0.53202 0.65096 0.0
O382 O 0.60028 0.50974 0.68802 0.0
O383 O 0.57702 0.50788 0.57248 0.0
O384 O 0.51053 0.5004 0.6008 0.0
C385 C 0.4838 0.51374 0.59433 0.0
O386 O 0.50777 0.57996 0.72878 0.0
O387 O 0.53905 0.56361 0.62974 0.0
O388 O 0.56598 0.54776 0.78394 0.0
O389 O 0.44189 0.5292 0.80204 0.0
O390 O 0.471 0.55851 0.87878 0.0
O391 O 0.53066 0.52906 0.86882 0.0
C392 C 0.61676 0.47345 0.59753 0.0
C393 C 0.59849 0.44678 0.58704 0.0
C394 C 0.66264 0.44371 0.5845 0.0
C395 C 0.61209 0.41892 0.57369 0.0
C396 C 0.6489 0.47179 0.59713 0.0
C397 C 0.64433 0.41696 0.57247 0.0
C398 C 0.60233 0.50266 0.61289 0.0
C399 C 0.52347 0.58523 0.66346 0.0
H400 H 0.40514 0.56377 0.97715 0.0
H401 H 0.40106 0.63509 0.74744 0.0
H402 H 0.37655 0.61034 0.98809 0.0
H403 H 0.4309 0.5886 0.73847 0.0
H404 H 0.57363 0.44753 0.5881 0.0
H405 H 0.68747 0.44294 0.58315 0.0
H406 H 0.59719 0.39908 0.56156 0.0
H407 H 0.66332 0.4922 0.60624 0.0
Eu408 Eu 0.04775 0.54615 0.63751 0.0
Eu409 Eu 1.01555 0.49487 0.74448 0.0
C410 C 0.08808 0.5067 0.76189 0.0
C411 C 0.10529 0.56687 0.49776 0.0
C412 C 0.13542 0.56778 0.53032 0.0
C413 C 0.11824 0.52313 0.41677 0.0
C414 C 0.15595 0.54522 0.51045 0.0
C415 C 0.09776 0.54568 0.43635 0.0
C416 C 0.14671 0.52161 0.45738 0.0
C417 C 0.08035 0.58007 0.54398 0.0
O418 O 1.00401 0.53958 0.80586 0.0
O419 O 0.042 0.57061 0.75506 0.0
C420 C 0.02075 0.56525 0.80813 0.0
O421 O 0.9975 0.55809 0.63022 0.0
O422 O 0.99429 0.47742 0.85285 0.0
O423 O 0.99654 0.44811 0.74944 0.0
O424 O 0.97936 0.50958 0.65324 0.0
C425 C 0.97488 0.53745 0.62717 0.0
O426 O 0.03774 0.50559 0.55487 0.0
O427 O 0.04096 0.46915 0.65008 0.0
O428 O 0.06302 0.50092 0.8021 0.0
O429 O 0.05245 0.57046 0.52437 0.0
O430 O 0.08503 0.57994 0.62129 0.0
O431 O 0.08602 0.51709 0.68841 0.0
C432 C 0.94892 0.45146 0.81174 0.0
C433 C 0.9338 0.45692 0.73794 0.0
C434 C 0.90329 0.46616 0.8801 0.0
C435 C 0.90477 0.46948 0.73588 0.0
C436 C 0.93254 0.45392 0.88233 0.0
C437 C 0.89042 0.47611 0.80733 0.0
C438 C 0.98274 0.45318 0.81612 0.0
C439 C 0.04089 0.47683 0.57442 0.0
H440 H 0.14204 0.58397 0.5772 0.0
H441 H 0.11116 0.50594 0.3728 0.0
H442 H 0.17817 0.545 0.54099 0.0
H443 H 0.075 0.54458 0.40869 0.0
H444 H 0.94571 0.455 0.6822 0.0
H445 H 0.89245 0.47125 0.93598 0.0
H446 H 0.89501 0.47693 0.67935 0.0
H447 H 0.94371 0.44994 0.93973 0.0
C448 C 0.14967 0.02085 0.49218 0.0
C449 C 0.14229 0.03555 0.41972 0.0
C450 C 0.12783 0.01678 0.55273 0.0
C451 C 0.09747 0.02706 0.54365 0.0
H452 H 0.17278 0.01307 0.50308 0.0
H453 H 0.135 1.00565 0.60746 0.0
S454 S 0.06573 0.06472 0.36183 0.0
N455 N 0.10193 0.05889 0.34065 0.0
N456 N 0.06105 0.0512 0.45279 0.0
C457 C 0.08965 0.04109 0.47027 0.0
C458 C 0.11194 0.04535 0.40901 0.0
C459 C 0.50839 0.14411 0.50168 0.0
C460 C 0.50699 0.13779 0.41901 0.0
C461 C 0.50805 0.12042 0.55878 0.0
C462 C 0.50632 0.08932 0.53582 0.0
H463 H 0.51114 0.16752 0.52252 0.0
H464 H 0.51019 0.1266 0.62136 0.0
S465 S 0.49871 0.06081 0.32647 0.0
N466 N 0.50076 0.09832 0.3175 0.0
N467 N 0.5008 0.05396 0.42327 0.0
C468 C 0.5034 0.08286 0.45318 0.0
C469 C 0.50355 0.10698 0.39539 0.0
C470 C 0.45347 0.48599 0.38814 0.0
C471 C 0.42399 0.4985 0.38125 0.0
C472 C 0.47268 0.49111 0.45637 0.0
C473 C 0.46329 0.50885 0.52135 0.0
H474 H 0.46177 0.47192 0.34041 0.0
H475 H 0.49501 0.48084 0.45824 0.0
S476 S 0.38776 0.54613 0.53467 0.0
N477 N 0.38619 0.52891 0.44684 0.0
N478 N 0.42195 0.5389 0.57356 0.0
C479 C 0.43388 0.52168 0.51483 0.0
C480 C 0.41441 0.51647 0.44541 0.0
C481 C 0.05104 0.43961 0.3689 0.0
C482 C 0.04864 0.40798 0.38455 0.0
C483 C 0.04834 0.46156 0.43015 0.0
C484 C 0.04371 0.45294 0.51033 0.0
H485 H 0.05502 0.44749 0.30867 0.0
H486 H 0.05028 0.48552 0.41443 0.0
S487 S 0.03728 0.3729 0.58379 0.0
N488 N 0.04217 0.36922 0.48685 0.0
N489 N 0.03734 0.41006 0.60134 0.0
C490 C 0.04152 0.42132 0.52672 0.0
C491 C 0.04388 0.39902 0.4642 0.0
C492 C 0.90709 0.97763 0.93694 0.0
C493 C 0.90917 0.99441 1.00904 0.0
C494 C 0.93023 0.98001 0.87943 0.0
C495 C 0.95651 0.99928 0.89144 0.0
H496 H 0.88745 0.96232 0.92514 0.0
H497 H 0.92766 0.96637 0.82547 0.0
S498 S 0.97088 0.05131 0.06514 0.0
N499 N 0.93849 0.03268 0.08621 0.0
N500 N 0.9815 0.03773 0.97821 0.0
C501 C 0.95841 0.0168 0.96245 0.0
C502 C 0.93495 0.01419 1.02115 0.0
C503 C 0.52997 0.89323 0.91974 0.0
C504 C 0.53902 0.90088 0.99884 0.0
C505 C 0.52944 0.91537 0.85897 0.0
C506 C 0.53831 0.94614 0.87415 0.0
H507 H 0.52198 0.87013 0.90517 0.0
H508 H 0.5214 0.90835 0.7998 0.0
S509 S 0.56542 0.97784 0.07039 0.0
N510 N 0.55836 0.94122 0.08819 0.0
N511 N 0.55739 0.9828 0.9745 0.0
C512 C 0.5485 0.95389 0.9524 0.0
C513 C 0.54878 0.93135 1.01449 0.0
C514 C 0.59883 0.53478 0.06163 0.0
C515 C 0.62412 0.55549 0.05632 0.0
C516 C 0.57709 0.53103 0.99807 0.0
C517 C 0.58014 0.54731 0.92579 0.0
H518 H 0.59583 0.52138 0.11533 0.0
H519 H 0.55814 0.51468 1.005 0.0
S520 S 0.64282 0.60383 0.88113 0.0
N521 N 0.65105 0.59229 0.97273 0.0
N522 N 0.61082 0.585 0.85362 0.0
C523 C 0.60543 0.56802 0.91995 0.0
C524 C 0.62721 0.57216 0.98496 0.0
C525 C 0.98217 0.61049 0.97308 0.0
C526 C 1.00313 0.63512 0.98961 0.0
C527 C 0.98818 0.58789 0.91565 0.0
C528 C 1.01528 0.58902 0.87103 0.0
H529 H 0.96079 0.60868 1.00477 0.0
H530 H 0.97111 0.56967 0.90529 0.0
S531 S 0.0777 0.64886 0.89074 0.0
N532 N 0.05213 0.65917 0.95603 0.0
N533 N 0.06352 0.61708 0.84887 0.0
C534 C 0.03653 0.61347 0.88743 0.0
C535 C 0.03049 0.6363 0.94639 0.0
C536 C 0.06621 0.20812 0.50994 0.0
C537 C 0.09586 0.19671 0.49928 0.0
C538 C 0.04127 0.1886 0.52781 0.0
C539 C 0.0452 0.15713 0.53545 0.0
H540 H 0.06145 0.23178 0.49695 0.0
H541 H 0.01847 0.19783 0.52976 0.0
S542 S 0.11872 0.11671 0.53253 0.0
N543 N 0.12837 0.15267 0.51252 0.0
N544 N 0.08116 0.11585 0.54503 0.0
C545 C 0.07501 0.14582 0.53354 0.0
C546 C 0.10048 0.16569 0.51599 0.0
C547 C 0.38776 0.07765 0.26246 0.0
C548 C 0.38534 0.10333 0.31295 0.0
C549 C 0.40187 0.05112 0.28917 0.0
C550 C 0.41393 0.04936 0.36729 0.0
H551 H 0.37633 0.07696 0.20424 0.0
H552 H 0.40147 0.03126 0.25033 0.0
S553 S 0.4197 0.1124 0.51624 0.0
N554 N 0.40045 0.12691 0.43976 0.0
N555 N 0.4275 0.0771 0.49002 0.0
C556 C 0.41443 0.07583 0.41552 0.0
C557 C 0.40001 0.10282 0.3883 0.0
C558 C 0.68245 0.36106 0.43988 0.0
C559 C 0.66469 0.3342 0.45437 0.0
C560 C 0.67866 0.38762 0.48509 0.0
C561 C 0.65789 0.38774 0.54807 0.0
H562 H 0.69642 0.36274 0.38732 0.0
H563 H 0.68945 0.40877 0.46485 0.0
S564 S 0.61637 0.32042 0.63179 0.0
N565 N 0.63227 0.30744 0.55044 0.0
N566 N 0.62744 0.35678 0.63871 0.0
C567 C 0.64522 0.35958 0.57331 0.0
C568 C 0.64821 0.33279 0.5259 0.0
C569 C 0.21576 0.47488 0.41171 0.0
C570 C 0.20342 0.44472 0.40937 0.0
C571 C 0.1975 0.49956 0.42972 0.0
C572 C 0.16625 0.49495 0.44604 0.0
H573 H 0.23922 0.47972 0.39416 0.0
H574 H 0.20756 0.5225 0.42703 0.0
S575 S 0.12456 0.41997 0.46237 0.0
N576 N 0.15927 0.41122 0.43378 0.0
N577 N 0.12484 0.45764 0.47053 0.0
C578 C 0.15418 0.46471 0.44973 0.0
C579 C 0.1728 0.43958 0.43067 0.0
C580 C 0.94715 0.91507 0.06921 0.0
C581 C 0.94702 0.89529 0.13509 0.0
C582 C 0.97188 0.9358 0.05792 0.0
C583 C 0.99738 0.93695 0.11137 0.0
H584 H 0.92928 0.91286 1.0232 0.0
H585 H 0.97234 0.94898 1.00333 0.0
S586 S 1.00639 0.89281 0.298 0.0
N587 N 0.97299 0.88058 0.25907 0.0
N588 N 0.01959 0.91922 0.23625 0.0
C589 C 0.99635 0.91918 0.18057 0.0
C590 C 0.97104 0.89845 0.19293 0.0
C591 C 0.66497 0.94111 0.95663 0.0
C592 C 0.69712 0.94273 0.96792 0.0
C593 C 0.6484 0.96748 0.94118 0.0
C594 C 0.66343 0.99632 0.93575 0.0
H595 H 0.65238 0.9196 0.96438 0.0
H596 H 0.62355 0.96547 0.93587 0.0
S597 S 0.74704 0.01321 0.95512 0.0
N598 N 0.74335 0.97594 0.96889 0.0
N599 N 0.7119 0.02505 0.93733 0.0
C600 C 0.69552 0.99814 0.94153 0.0
C601 C 0.71247 0.97143 0.95806 0.0
C602 C 0.39882 0.70994 0.91034 0.0
C603 C 0.37737 0.71479 0.97027 0.0
C604 C 0.39897 0.68224 0.86871 0.0
C605 C 0.37763 0.65842 0.88531 0.0
H606 H 0.41796 0.72598 0.90215 0.0
H607 H 0.4182 0.67834 0.83061 0.0
S608 S 0.31038 0.66399 1.01573 0.0
N609 N 0.32966 0.69683 0.02918 0.0
N610 N 0.32967 0.64462 0.94967 0.0
C611 C 0.35309 0.66496 0.93517 0.0
C612 C 0.35303 0.6932 0.97803 0.0
C613 C 0.8205 0.51743 0.86762 0.0
C614 C 0.83122 0.54813 0.86416 0.0
C615 C 0.83859 0.49367 0.84148 0.0
C616 C 0.8675 0.50004 0.80941 0.0
H617 H 0.79956 0.51145 0.89849 0.0
H618 H 0.83107 0.47022 0.85222 0.0
S619 S 0.90376 0.57662 0.77604 0.0
N620 N 0.87071 0.58373 0.81771 0.0
N621 N 0.90462 0.53904 0.76698 0.0
C622 C 0.87696 0.5307 0.79759 0.0
C623 C 0.85876 0.55484 0.82528 0.0
C624 C 0.07943 0.14677 0.85103 0.0
C625 C 0.05679 0.16078 0.89675 0.0
C626 C 0.07387 0.11838 0.81231 0.0
C627 C 0.04517 0.10279 0.8158 0.0
H628 H 0.102 0.15762 0.84596 0.0
H629 H 0.09231 0.10852 0.77949 0.0
S630 S 0.97765 0.1289 0.92584 0.0
N631 N 1.00425 0.15605 0.94274 0.0
N632 N 0.99351 0.10371 0.86733 0.0
C633 C 0.02192 0.11688 0.85863 0.0
C634 C 0.02774 0.14555 0.89944 0.0
C635 C 0.40593 0.03296 0.93844 0.0
C636 C 0.3771 0.02829 0.89919 0.0
C637 C 0.43374 0.03241 0.8969 0.0
C638 C 0.43434 0.02697 0.81376 0.0
H639 H 0.40707 0.03763 1.00201 0.0
H640 H 0.45503 0.03611 0.93084 0.0
S641 S 0.36528 0.01279 0.68218 0.0
N642 N 0.35108 0.0175 0.77177 0.0
N643 N 0.40298 0.01678 0.69393 0.0
C644 C 0.40565 0.0222 0.77369 0.0
C645 C 0.37726 0.02283 0.81611 0.0
C646 C 0.53543 0.38316 0.83936 0.0
C647 C 0.51897 0.37718 0.90964 0.0
C648 C 0.53364 0.41127 0.79895 0.0
C649 C 0.51485 0.43461 0.82586 0.0
H650 H 0.55052 0.36621 0.81619 0.0
H651 H 0.5475 0.41488 0.74672 0.0
S652 S 0.46646 0.43089 1.00556 0.0
N653 N 0.48301 0.39745 1.00372 0.0
N654 N 0.47878 0.44956 0.92639 0.0
C655 C 0.49726 0.42858 0.89402 0.0
C656 C 0.49946 0.4001 0.93601 0.0
C657 C 0.15216 0.50047 0.92155 0.0
C658 C 0.17857 0.49472 0.8774 0.0
C659 C 0.12309 0.50374 0.88395 0.0
C660 C 0.11911 0.50195 0.80023 0.0
H661 H 0.15383 0.50188 0.9861 0.0
H662 H 0.10362 0.50809 0.92095 0.0
S663 S 0.18082 0.48726 0.6568 0.0
N664 N 0.19866 0.4873 0.74494 0.0
N665 N 0.14442 0.49384 0.67434 0.0
C666 C 0.14538 0.49643 0.75524 0.0
C667 C 0.1749 0.49267 0.7937 0.0
C668 C 0.98743 0.88452 0.53201 0.0
C669 C 1.01222 0.86454 0.52962 0.0
C670 C 0.99007 0.91301 0.57147 0.0
C671 C 0.01748 0.92275 0.61183 0.0
H672 H 0.96585 0.87831 0.50169 0.0
H673 H 0.97032 0.92749 0.57048 0.0
S674 S 0.08931 0.87898 0.62398 0.0
N675 N 0.0652 0.85666 0.57094 0.0
N676 N 0.07013 0.90975 0.64623 0.0
C677 C 0.04241 0.90284 0.61052 0.0
C678 C 0.03983 0.87399 0.56907 0.0
C679 C 0.63841 0.97195 0.49533 0.0
C680 C 0.66366 0.99299 0.50102 0.0
C681 C 0.61173 0.97546 0.54029 0.0
C682 C 0.60865 1.00044 0.59267 0.0
H683 H 0.63919 0.95256 0.45514 0.0
H684 H 0.59305 0.95869 0.53231 0.0
S685 S 0.66823 0.06204 0.63031 0.0
N686 N 0.68396 0.03949 0.56458 0.0
N687 N 0.63401 0.04647 0.64789 0.0
C688 C 0.63397 0.02145 0.59973 0.0
C689 C 0.66133 0.01762 0.55452 0.0
C690 C 0.53553 0.64827 0.50795 0.0
C691 C 0.5169 0.67189 0.53388 0.0
C692 C 0.53821 0.62094 0.55148 0.0
C693 C 0.52245 0.61589 0.62328 0.0
H694 H 0.54718 0.65033 0.4517 0.0
H695 H 0.55219 0.60329 0.52706 0.0
S696 S 0.47339 0.67212 0.72196 0.0
N697 N 0.48454 0.68955 0.6398 0.0
N698 N 0.48923 0.63832 0.721 0.0
C699 C 0.50481 0.63996 0.65172 0.0
C700 C 0.50211 0.66782 0.60728 0.0
C701 C 0.8959 0.52806 0.52161 0.0
C702 C 0.88661 0.55838 0.51032 0.0
C703 C 0.92403 0.52154 0.56068 0.0
C704 C 0.94431 0.54501 0.59 0.0
H705 H 0.8819 0.50919 0.49732 0.0
H706 H 0.93034 0.49785 0.56566 0.0
S707 S 0.92889 0.62802 0.58678 0.0
N708 N 0.89858 0.61192 0.54055 0.0
N709 N 0.95149 0.59975 0.61142 0.0
C710 C 0.93472 0.57533 0.58208 0.0
C711 C 0.90593 0.58196 0.54319 0.0
loop_
_geom_bond_atom_site_label_1
_geom_bond_atom_site_label_2
_geom_bond_distance
_geom_bond_site_symmetry_2
_ccdc_geom_bond_type
C0 C1 1.384 . S
C0 H13 0.947 . S
C0 C35 1.382 . S
C1 C0 1.384 . S
C1 C2 1.378 . S
C2 C1 1.378 . S
C2 C3 1.378 . S
C2 H14 0.952 . S
C3 C2 1.378 . S
C3 H15 0.950 . S
C3 C34 1.383 . S
H4 C23 0.947 . S
H5 C24 0.946 . S
H6 C26 0.953 . S
H7 C27 0.945 . S
H8 C29 0.952 . S
H9 C30 0.949 1_556 S
H10 C32 0.950 . S
H11 C33 0.948 . S
H12 C35 0.951 . S
H13 C0 0.947 . S
H14 C2 0.952 . S
H15 C3 0.950 . S
N16 C19 1.382 . S
N16 C21 1.363 . S
N17 C19 1.371 . S
N17 C20 1.372 . S
N18 C20 1.361 . S
N18 C21 1.377 . S
C19 N16 1.382 . S
C19 N17 1.371 . S
C19 C22 1.480 . S
C20 N17 1.372 . S
C20 N18 1.361 . S
C20 C28 1.457 . S
C21 N16 1.363 . S
C21 N18 1.377 . S
C21 C34 1.479 . S
C22 C19 1.480 . S
C22 C23 1.383 . S
C22 C27 1.385 . S
C23 H4 0.947 . S
C23 C22 1.383 . S
C23 C24 1.388 . S
C24 H5 0.946 . S
C24 C23 1.388 . S
C24 C25 1.384 . S
C25 C24 1.384 . S
C25 C26 1.377 . S
C26 H6 0.953 . S
C26 C25 1.377 . S
C26 C27 1.369 . S
C27 H7 0.945 . S
C27 C22 1.385 . S
C27 C26 1.369 . S
C28 C20 1.457 . S
C28 C29 1.372 . S
C28 C33 1.364 . S
C29 H8 0.952 . S
C29 C28 1.372 . S
C29 C30 1.389 . S
C30 H9 0.949 1_554 S
C30 C29 1.389 . S
C30 C31 1.387 . S
C31 C30 1.387 . S
C31 C32 1.372 . S
C32 H10 0.950 . S
C32 C31 1.372 . S
C32 C33 1.379 . S
C33 H11 0.948 . S
C33 C28 1.364 . S
C33 C32 1.379 . S
C34 C3 1.383 . S
C34 C21 1.479 . S
C34 C35 1.398 . S
C35 C0 1.382 . S
C35 H12 0.951 . S
C35 C34 1.398 . S
C36 C37 1.384 . S
C36 H49 0.947 . S
C36 C71 1.382 . S
C37 C36 1.384 . S
C37 C38 1.378 . S
C38 C37 1.378 . S
C38 C39 1.378 . S
C38 H50 0.952 . S
C39 C38 1.378 . S
C39 H51 0.950 . S
C39 C70 1.383 . S
H40 C59 0.947 . S
H41 C60 0.946 . S
H42 C62 0.953 . S
H43 C63 0.945 . S
H44 C65 0.952 . S
H45 C66 0.949 . S
H46 C68 0.950 . S
H47 C69 0.948 . S
H48 C71 0.951 . S
H49 C36 0.947 . S
H50 C38 0.952 . S
H51 C39 0.950 . S
N52 C55 1.382 . S
N52 C57 1.363 . S
N53 C55 1.371 . S
N53 C56 1.372 . S
N54 C56 1.361 . S
N54 C57 1.377 . S
C55 N52 1.382 . S
C55 N53 1.371 . S
C55 C58 1.480 . S
C56 N53 1.372 . S
C56 N54 1.361 . S
C56 C64 1.457 . S
C57 N52 1.363 . S
C57 N54 1.377 . S
C57 C70 1.479 . S
C58 C55 1.480 . S
C58 C59 1.383 . S
C58 C63 1.385 . S
C59 H40 0.947 . S
C59 C58 1.383 . S
C59 C60 1.388 . S
C60 H41 0.946 . S
C60 C59 1.388 . S
C60 C61 1.384 . S
C61 C60 1.384 . S
C61 C62 1.377 . S
C62 H42 0.953 . S
C62 C61 1.377 . S
C62 C63 1.369 . S
C63 H43 0.945 . S
C63 C58 1.385 . S
C63 C62 1.369 . S
C64 C56 1.457 . S
C64 C65 1.372 . S
C64 C69 1.364 . S
C65 H44 0.952 . S
C65 C64 1.372 . S
C65 C66 1.389 . S
C66 H45 0.949 . S
C66 C65 1.389 . S
C66 C67 1.387 . S
C67 C66 1.387 . S
C67 C68 1.372 . S
C68 H46 0.950 . S
C68 C67 1.372 . S
C68 C69 1.379 . S
C69 H47 0.948 . S
C69 C64 1.364 . S
C69 C68 1.379 . S
C70 C39 1.383 . S
C70 C57 1.479 . S
C70 C71 1.398 . S
C71 C36 1.382 . S
C71 H48 0.951 . S
C71 C70 1.398 . S
C72 C73 1.384 . S
C72 H85 0.947 . S
C72 C107 1.382 . S
C73 C72 1.384 . S
C73 C74 1.378 . S
C74 C73 1.378 . S
C74 C75 1.378 . S
C74 H86 0.952 . S
C75 C74 1.378 . S
C75 H87 0.950 . S
C75 C106 1.383 . S
H76 C95 0.947 . S
H77 C96 0.946 . S
H78 C98 0.953 . S
H79 C99 0.945 . S
H80 C101 0.952 . S
H81 C102 0.949 . S
H82 C104 0.950 . S
H83 C105 0.948 . S
H84 C107 0.951 . S
H85 C72 0.947 . S
H86 C74 0.952 . S
H87 C75 0.950 . S
N88 C91 1.382 . S
N88 C93 1.363 . S
N89 C91 1.371 . S
N89 C92 1.372 . S
N90 C92 1.361 . S
N90 C93 1.377 . S
C91 N88 1.382 . S
C91 N89 1.371 . S
C91 C94 1.480 . S
C92 N89 1.372 . S
C92 N90 1.361 . S
C92 C100 1.457 . S
C93 N88 1.363 . S
C93 N90 1.377 . S
C93 C106 1.479 . S
C94 C91 1.480 . S
C94 C95 1.383 . S
C94 C99 1.385 . S
C95 H76 0.947 . S
C95 C94 1.383 . S
C95 C96 1.388 . S
C96 H77 0.946 . S
C96 C95 1.388 . S
C96 C97 1.384 . S
C97 C96 1.384 . S
C97 C98 1.377 . S
C98 H78 0.953 . S
C98 C97 1.377 . S
C98 C99 1.369 . S
C99 H79 0.945 . S
C99 C94 1.385 . S
C99 C98 1.369 . S
C100 C92 1.457 . S
C100 C101 1.372 . S
C100 C105 1.364 . S
C101 H80 0.952 . S
C101 C100 1.372 . S
C101 C102 1.389 . S
C102 H81 0.949 . S
C102 C101 1.389 . S
C102 C103 1.387 . S
C103 C102 1.387 . S
C103 C104 1.372 . S
C104 H82 0.950 . S
C104 C103 1.372 . S
C104 C105 1.379 . S
C105 H83 0.948 . S
C105 C100 1.364 . S
C105 C104 1.379 . S
C106 C75 1.383 . S
C106 C93 1.479 . S
C106 C107 1.398 . S
C107 C72 1.382 . S
C107 H84 0.951 . S
C107 C106 1.398 . S
C108 C109 1.384 . S
C108 H121 0.947 . S
C108 C143 1.382 . S
C109 C108 1.384 . S
C109 C110 1.378 . S
C110 C109 1.378 . S
C110 C111 1.378 . S
C110 H122 0.952 1_554 S
C111 C110 1.378 . S
C111 H123 0.950 . S
C111 C142 1.383 . S
H112 C131 0.947 . S
H113 C132 0.946 . S
H114 C134 0.953 . S
H115 C135 0.945 . S
H116 C137 0.952 . S
H117 C138 0.949 . S
H118 C140 0.950 . S
H119 C141 0.948 . S
H120 C143 0.951 . S
H121 C108 0.947 . S
H122 C110 0.952 1_556 S
H123 C111 0.950 . S
N124 C127 1.382 . S
N124 C129 1.363 . S
N125 C127 1.371 . S
N125 C128 1.372 . S
N126 C128 1.361 . S
N126 C129 1.377 . S
C127 N124 1.382 . S
C127 N125 1.371 . S
C127 C130 1.480 . S
C128 N125 1.372 . S
C128 N126 1.361 . S
C128 C136 1.457 . S
C129 N124 1.363 . S
C129 N126 1.377 . S
C129 C142 1.479 . S
C130 C127 1.480 . S
C130 C131 1.383 . S
C130 C135 1.385 . S
C131 H112 0.947 . S
C131 C130 1.383 . S
C131 C132 1.388 . S
C132 H113 0.946 . S
C132 C131 1.388 . S
C132 C133 1.384 . S
C133 C132 1.384 . S
C133 C134 1.377 . S
C134 H114 0.953 . S
C134 C133 1.377 . S
C134 C135 1.369 . S
C135 H115 0.945 . S
C135 C130 1.385 . S
C135 C134 1.369 . S
C136 C128 1.457 . S
C136 C137 1.372 . S
C136 C141 1.364 . S
C137 H116 0.952 . S
C137 C136 1.372 . S
C137 C138 1.389 . S
C138 H117 0.949 . S
C138 C137 1.389 . S
C138 C139 1.387 . S
C139 C138 1.387 . S
C139 C140 1.372 . S
C140 H118 0.950 . S
C140 C139 1.372 . S
C140 C141 1.379 . S
C141 H119 0.948 . S
C141 C136 1.364 . S
C141 C140 1.379 . S
C142 C111 1.383 . S
C142 C129 1.479 . S
C142 C143 1.398 . S
C143 C108 1.382 . S
C143 H120 0.951 . S
C143 C142 1.398 . S
C144 C145 1.384 . S
C144 H157 0.947 . S
C144 C179 1.382 . S
C145 C144 1.384 . S
C145 C146 1.378 . S
C146 C145 1.378 . S
C146 C147 1.378 . S
C146 H158 0.952 . S
C147 C146 1.378 . S
C147 H159 0.950 . S
C147 C178 1.383 . S
H148 C167 0.947 . S
H149 C168 0.946 . S
H150 C170 0.953 . S
H151 C171 0.945 . S
H152 C173 0.952 . S
H153 C174 0.949 . S
H154 C176 0.950 . S
H155 C177 0.948 . S
H156 C179 0.951 . S
H157 C144 0.947 . S
H158 C146 0.952 . S
H159 C147 0.950 . S
N160 C163 1.382 . S
N160 C165 1.363 . S
N161 C163 1.371 . S
N161 C164 1.372 . S
N162 C164 1.361 . S
N162 C165 1.377 . S
C163 N160 1.382 . S
C163 N161 1.371 . S
C163 C166 1.480 . S
C164 N161 1.372 . S
C164 N162 1.361 . S
C164 C172 1.457 . S
C165 N160 1.363 . S
C165 N162 1.377 . S
C165 C178 1.479 1_554 S
C166 C163 1.480 . S
C166 C167 1.383 . S
C166 C171 1.385 . S
C167 H148 0.947 . S
C167 C166 1.383 . S
C167 C168 1.388 . S
C168 H149 0.946 . S
C168 C167 1.388 . S
C168 C169 1.384 . S
C169 C168 1.384 . S
C169 C170 1.377 . S
C170 H150 0.953 . S
C170 C169 1.377 . S
C170 C171 1.369 . S
C171 H151 0.945 . S
C171 C166 1.385 . S
C171 C170 1.369 . S
C172 C164 1.457 . S
C172 C173 1.372 . S
C172 C177 1.364 . S
C173 H152 0.952 . S
C173 C172 1.372 . S
C173 C174 1.389 . S
C174 H153 0.949 . S
C174 C173 1.389 . S
C174 C175 1.387 . S
C175 C174 1.387 . S
C175 C176 1.372 . S
C176 H154 0.950 . S
C176 C175 1.372 . S
C176 C177 1.379 . S
C177 H155 0.948 . S
C177 C172 1.364 . S
C177 C176 1.379 . S
C178 C147 1.383 . S
C178 C165 1.479 1_556 S
C178 C179 1.398 . S
C179 C144 1.382 . S
C179 H156 0.951 . S
C179 C178 1.398 . S
C180 C181 1.384 . S
C180 H193 0.947 . S
C180 C215 1.382 . S
C181 C180 1.384 . S
C181 C182 1.378 . S
C182 C181 1.378 . S
C182 C183 1.378 . S
C182 H194 0.952 . S
C183 C182 1.378 . S
C183 H195 0.950 . S
C183 C214 1.383 . S
H184 C203 0.947 1_556 S
H185 C204 0.955 . S
H186 C206 0.953 . S
H187 C207 0.945 . S
H188 C209 0.952 . S
H189 C210 0.949 . S
H190 C212 0.950 . S
H191 C213 0.948 . S
H192 C215 0.951 . S
H193 C180 0.947 . S
H194 C182 0.952 . S
H195 C183 0.950 . S
N196 C199 1.382 1_556 S
N196 C201 1.363 . S
N197 C199 1.371 . S
N197 C200 1.372 . S
N198 C200 1.361 . S
N198 C201 1.377 1_554 S
C199 N196 1.382 1_554 S
C199 N197 1.371 . S
C199 C202 1.480 . S
C200 N197 1.372 . S
C200 N198 1.361 . S
C200 C208 1.457 . S
C201 N196 1.363 . S
C201 N198 1.377 1_556 S
C201 C214 1.479 . S
C202 C199 1.480 . S
C202 C203 1.383 . S
C202 C207 1.385 . S
C203 H184 0.947 1_554 S
C203 C202 1.383 . S
C203 C204 1.388 . S
C204 H185 0.955 . S
C204 C203 1.388 . S
C204 C205 1.384 . S
C205 C204 1.384 . S
C205 C206 1.377 . S
C206 H186 0.953 . S
C206 C205 1.377 . S
C206 C207 1.369 . S
C207 H187 0.945 . S
C207 C202 1.385 . S
C207 C206 1.369 . S
C208 C200 1.457 . S
C208 C209 1.372 . S
C208 C213 1.364 . S
C209 H188 0.952 . S
C209 C208 1.372 . S
C209 C210 1.389 . S
C210 H189 0.949 . S
C210 C209 1.389 . S
C210 C211 1.387 . S
C211 C210 1.387 . S
C211 C212 1.372 . S
C212 H190 0.950 . S
C212 C211 1.372 . S
C212 C213 1.379 . S
C213 H191 0.948 . S
C213 C208 1.364 . S
C213 C212 1.379 . S
C214 C183 1.383 . S
C214 C201 1.479 . S
C214 C215 1.398 . S
C215 C180 1.382 . S
C215 H192 0.951 . S
C215 C214 1.398 . S
C216 C217 1.384 . S
C216 H229 0.947 . S
C216 C251 1.382 . S
C217 C216 1.384 . S
C217 C218 1.378 . S
C218 C217 1.378 . S
C218 C219 1.378 . S
C218 H230 0.952 . S
C219 C218 1.378 . S
C219 H231 0.950 . S
C219 C250 1.383 . S
H220 C239 0.947 . S
H221 C240 0.946 1_556 S
H222 C242 0.953 . S
H223 C243 0.945 . S
H224 C245 0.952 . S
H225 C246 0.949 . S
H226 C248 0.950 . S
H227 C249 0.948 . S
H228 C251 0.951 . S
H229 C216 0.947 . S
H230 C218 0.952 . S
H231 C219 0.950 . S
N232 C235 1.382 1_556 S
N232 C237 1.363 . S
N233 C235 1.371 . S
N233 C236 1.372 . S
N234 C236 1.361 . S
N234 C237 1.377 1_554 S
C235 N232 1.382 1_554 S
C235 N233 1.371 . S
C235 C238 1.480 . S
C236 N233 1.372 . S
C236 N234 1.361 . S
C236 C244 1.457 . S
C237 N232 1.363 . S
C237 N234 1.377 1_556 S
C237 C250 1.479 . S
C238 C235 1.480 . S
C238 C239 1.383 1_554 S
C238 C243 1.385 . S
C239 H220 0.947 . S
C239 C238 1.383 1_556 S
C239 C240 1.388 1_556 S
C240 H221 0.946 1_554 S
C240 C239 1.388 1_554 S
C240 C241 1.384 . S
C241 C240 1.384 . S
C241 C242 1.377 . S
C242 H222 0.953 . S
C242 C241 1.377 . S
C242 C243 1.369 . S
C243 H223 0.945 . S
C243 C238 1.385 . S
C243 C242 1.369 . S
C244 C236 1.457 . S
C244 C245 1.372 . S
C244 C249 1.364 . S
C245 H224 0.952 . S
C245 C244 1.372 . S
C245 C246 1.389 . S
C246 H225 0.949 . S
C246 C245 1.389 . S
C246 C247 1.387 . S
C247 C246 1.387 . S
C247 C248 1.372 . S
C248 H226 0.950 . S
C248 C247 1.372 . S
C248 C249 1.379 . S
C249 H227 0.948 . S
C249 C244 1.364 . S
C249 C248 1.379 . S
C250 C219 1.383 . S
C250 C237 1.479 . S
C250 C251 1.398 . S
C251 C216 1.382 . S
C251 H228 0.951 . S
C251 C250 1.398 . S
C252 C253 1.384 . S
C252 H265 0.947 . S
C252 C287 1.382 . S
C253 C252 1.384 . S
C253 C254 1.378 . S
C254 C253 1.378 . S
C254 C255 1.378 . S
C254 H266 0.952 . S
C255 C254 1.378 . S
C255 H267 0.950 . S
C255 C286 1.383 . S
H256 C275 0.947 . S
H257 C276 0.946 . S
H258 C278 0.953 . S
H259 C279 0.945 1_556 S
H260 C281 0.952 . S
H261 C282 0.949 . S
H262 C284 0.950 . S
H263 C285 0.948 . S
H264 C287 0.951 . S
H265 C252 0.947 . S
H266 C254 0.952 . S
H267 C255 0.950 . S
N268 C271 1.382 . S
N268 C273 1.363 . S
N269 C271 1.371 . S
N269 C272 1.372 1_554 S
N270 C272 1.361 1_554 S
N270 C273 1.377 . S
C271 N268 1.382 . S
C271 N269 1.371 . S
C271 C274 1.480 . S
C272 N269 1.372 1_556 S
C272 N270 1.361 1_556 S
C272 C280 1.457 . S
C273 N268 1.363 . S
C273 N270 1.377 . S
C273 C286 1.479 . S
C274 C271 1.480 . S
C274 C275 1.383 . S
C274 C279 1.385 . S
C275 H256 0.947 . S
C275 C274 1.383 . S
C275 C276 1.388 . S
C276 H257 0.946 . S
C276 C275 1.388 . S
C276 C277 1.384 . S
C277 C276 1.384 . S
C277 C278 1.377 . S
C278 H258 0.953 . S
C278 C277 1.377 . S
C278 C279 1.369 . S
C279 H259 0.945 1_554 S
C279 C274 1.385 . S
C279 C278 1.369 . S
C280 C272 1.457 . S
C280 C281 1.372 . S
C280 C285 1.364 . S
C281 H260 0.952 . S
C281 C280 1.372 . S
C281 C282 1.389 . S
C282 H261 0.949 . S
C282 C281 1.389 . S
C282 C283 1.387 . S
C283 C282 1.387 . S
C283 C284 1.372 . S
C284 H262 0.950 . S
C284 C283 1.372 . S
C284 C285 1.379 . S
C285 H263 0.948 . S
C285 C280 1.364 . S
C285 C284 1.379 . S
C286 C255 1.383 . S
C286 C273 1.479 . S
C286 C287 1.398 . S
C287 C252 1.382 . S
C287 H264 0.951 . S
C287 C286 1.398 . S
Eu288 C297 2.828 . S
Eu288 O299 2.392 . S
Eu288 O301 2.418 1_545 S
Eu288 O306 2.373 1_655 S
Eu288 O309 2.488 . S
Eu288 O310 2.471 . S
Eu288 O311 2.349 1_655 S
Eu289 O298 2.373 1_455 S
Eu289 O302 2.488 . S
Eu289 O303 2.471 . S
Eu289 O304 2.349 . S
Eu289 O307 2.392 1_565 S
Eu289 O308 2.418 1_565 S
Eu289 C318 2.828 . S
C290 O308 1.244 . S
C290 O311 1.265 . S
C291 C292 1.379 1_655 S
C291 C295 1.373 . S
C291 C297 1.505 . S
C292 C291 1.379 1_455 S
C292 C294 1.369 . S
C292 H320 0.930 . S
C293 C295 1.383 . S
C293 C296 1.382 . S
C293 H321 0.930 . S
C294 C292 1.369 . S
C294 C296 1.392 1_455 S
C294 H322 0.930 . S
C295 C291 1.373 . S
C295 C293 1.383 . S
C295 H323 0.931 . S
C296 C293 1.382 . S
C296 C294 1.392 1_655 S
C297 Eu288 2.828 . S
C297 C291 1.505 . S
C297 O309 1.249 . S
C297 O310 1.244 . S
O298 Eu289 2.373 1_655 S
O298 C300 1.265 . S
O299 Eu288 2.392 . S
O299 C300 1.231 1_545 S
C300 O298 1.265 . S
C300 O299 1.231 1_565 S
O301 Eu288 2.418 1_565 S
O301 C305 1.244 . S
O302 Eu289 2.488 . S
O302 C318 1.249 . S
O303 Eu289 2.471 . S
O303 C318 1.244 . S
O304 Eu289 2.349 . S
O304 C305 1.265 1_455 S
C305 O301 1.244 . S
C305 O304 1.265 1_655 S
O306 Eu288 2.373 1_455 S
O306 C319 1.258 . S
O307 Eu289 2.392 1_545 S
O307 C319 1.242 . S
O308 Eu289 2.418 1_545 S
O308 C290 1.244 . S
O309 Eu288 2.488 . S
O309 C297 1.249 . S
O310 Eu288 2.471 . S
O310 C297 1.244 . S
O311 Eu288 2.349 1_455 S
O311 C290 1.265 . S
C312 C313 1.379 . S
C312 C316 1.373 1_556 S
C312 C318 1.505 . S
C313 C312 1.379 . S
C313 C315 1.369 . S
C313 H324 0.930 1_455 S
C314 C316 1.383 . S
C314 C317 1.382 . S
C314 H325 0.930 . S
C315 C313 1.369 . S
C315 C317 1.392 1_556 S
C315 H326 0.930 1_455 S
C316 C312 1.373 1_554 S
C316 C314 1.383 . S
C316 H327 0.931 . S
C317 C314 1.382 . S
C317 C315 1.392 1_554 S
C318 Eu289 2.828 . S
C318 O302 1.249 . S
C318 O303 1.244 . S
C318 C312 1.505 . S
C319 O306 1.258 . S
C319 O307 1.242 . S
H320 C292 0.930 . S
H321 C293 0.930 . S
H322 C294 0.930 . S
H323 C295 0.931 . S
H324 C313 0.930 1_655 S
H325 C314 0.930 . S
H326 C315 0.930 1_655 S
H327 C316 0.931 . S
Eu328 C337 2.828 . S
Eu328 O339 2.392 . S
Eu328 O341 2.418 . S
Eu328 O346 2.373 . S
Eu328 O349 2.488 . S
Eu328 O350 2.471 . S
Eu328 O351 2.349 1_545 S
Eu329 O338 2.373 1_565 S
Eu329 O342 2.488 . S
Eu329 O343 2.471 1_565 S
Eu329 O344 2.349 1_565 S
Eu329 O347 2.392 . S
Eu329 O348 2.418 . S
Eu329 C358 2.828 . S
C330 O348 1.244 . S
C330 O351 1.265 . S
C331 C332 1.379 . S
C331 C335 1.373 . S
C331 C337 1.505 . S
C332 C331 1.379 . S
C332 C334 1.369 . S
C332 H360 0.930 1_545 S
C333 C335 1.383 . S
C333 C336 1.382 . S
C333 H361 0.930 . S
C334 C332 1.369 . S
C334 C336 1.392 . S
C334 H362 0.930 1_545 S
C335 C331 1.373 . S
C335 C333 1.383 . S
C335 H363 0.931 . S
C336 C333 1.382 . S
C336 C334 1.392 . S
C337 Eu328 2.828 . S
C337 C331 1.505 . S
C337 O349 1.249 . S
C337 O350 1.244 . S
O338 Eu329 2.373 1_545 S
O338 C340 1.258 . S
O339 Eu328 2.392 . S
O339 C340 1.242 . S
C340 O338 1.258 . S
C340 O339 1.242 . S
O341 Eu328 2.418 . S
O341 C345 1.244 . S
O342 Eu329 2.488 . S
O342 C358 1.249 . S
O343 Eu329 2.471 1_545 S
O343 C358 1.244 1_545 S
O344 Eu329 2.349 1_545 S
O344 C345 1.265 . S
C345 O341 1.244 . S
C345 O344 1.265 . S
O346 Eu328 2.373 . S
O346 C359 1.258 1_545 S
O347 Eu329 2.392 . S
O347 C359 1.242 . S
O348 Eu329 2.418 . S
O348 C330 1.244 . S
O349 Eu328 2.488 . S
O349 C337 1.249 . S
O350 Eu328 2.471 . S
O350 C337 1.244 . S
O351 Eu328 2.349 1_565 S
O351 C330 1.265 . S
C352 C353 1.379 1_565 S
C352 C356 1.373 . S
C352 C358 1.505 . S
C353 C352 1.379 1_545 S
C353 C355 1.369 . S
C353 H364 0.930 . S
C354 C356 1.383 . S
C354 C357 1.382 . S
C354 H365 0.930 . S
C355 C353 1.369 . S
C355 C357 1.392 1_545 S
C355 H366 0.930 . S
C356 C352 1.373 . S
C356 C354 1.383 . S
C356 H367 0.931 . S
C357 C354 1.382 . S
C357 C355 1.392 1_565 S
C358 Eu329 2.828 . S
C358 O342 1.249 . S
C358 O343 1.244 1_565 S
C358 C352 1.505 . S
C359 O346 1.258 1_565 S
C359 O347 1.242 . S
H360 C332 0.930 1_565 S
H361 C333 0.930 . S
H362 C334 0.930 1_565 S
H363 C335 0.931 . S
H364 C353 0.930 . S
H365 C354 0.930 . S
H366 C355 0.930 . S
H367 C356 0.931 . S
Eu368 C377 2.828 . S
Eu368 O379 2.392 . S
Eu368 O381 2.418 . S
Eu368 O386 2.373 . S
Eu368 O389 2.488 . S
Eu368 O390 2.471 . S
Eu368 O391 2.349 . S
Eu369 O378 2.373 . S
Eu369 O382 2.488 . S
Eu369 O383 2.471 . S
Eu369 O384 2.349 . S
Eu369 O387 2.392 . S
Eu369 O388 2.418 . S
Eu369 C398 2.828 . S
C370 O388 1.244 . S
C370 O391 1.265 . S
C371 C372 1.379 . S
C371 C375 1.373 . S
C371 C377 1.505 . S
C372 C371 1.379 . S
C372 C374 1.369 . S
C372 H400 0.930 . S
C373 C375 1.383 . S
C373 C376 1.382 . S
C373 H401 0.930 . S
C374 C372 1.369 . S
C374 C376 1.392 . S
C374 H402 0.930 . S
C375 C371 1.373 . S
C375 C373 1.383 . S
C375 H403 0.931 . S
C376 C373 1.382 . S
C376 C374 1.392 . S
C377 Eu368 2.828 . S
C377 C371 1.505 . S
C377 O389 1.249 . S
C377 O390 1.244 . S
O378 Eu369 2.373 . S
O378 C380 1.258 . S
O379 Eu368 2.392 . S
O379 C380 1.242 . S
C380 O378 1.258 . S
C380 O379 1.242 . S
O381 Eu368 2.418 . S
O381 C385 1.244 . S
O382 Eu369 2.488 . S
O382 C398 1.249 . S
O383 Eu369 2.471 . S
O383 C398 1.244 . S
O384 Eu369 2.349 . S
O384 C385 1.265 . S
C385 O381 1.244 . S
C385 O384 1.265 . S
O386 Eu368 2.373 . S
O386 C399 1.258 . S
O387 Eu369 2.392 . S
O387 C399 1.242 . S
O388 Eu369 2.418 . S
O388 C370 1.244 . S
O389 Eu368 2.488 . S
O389 C377 1.249 . S
O390 Eu368 2.471 . S
O390 C377 1.244 . S
O391 Eu368 2.349 . S
O391 C370 1.265 . S
C392 C393 1.379 . S
C392 C396 1.373 . S
C392 C398 1.505 . S
C393 C392 1.379 . S
C393 C395 1.369 . S
C393 H404 0.930 . S
C394 C396 1.383 . S
C394 C397 1.382 . S
C394 H405 0.930 . S
C395 C393 1.369 . S
C395 C397 1.392 . S
C395 H406 0.930 . S
C396 C392 1.373 . S
C396 C394 1.383 . S
C396 H407 0.931 . S
C397 C394 1.382 . S
C397 C395 1.392 . S
C398 Eu369 2.828 . S
C398 O382 1.249 . S
C398 O383 1.244 . S
C398 C392 1.505 . S
C399 O386 1.258 . S
C399 O387 1.242 . S
H400 C372 0.930 . S
H401 C373 0.930 . S
H402 C374 0.930 . S
H403 C375 0.931 . S
H404 C393 0.930 . S
H405 C394 0.930 . S
H406 C395 0.930 . S
H407 C396 0.931 . S
Eu408 C417 2.828 . S
Eu408 O419 2.392 . S
Eu408 O421 2.418 1_455 S
Eu408 O426 2.373 . S
Eu408 O429 2.488 . S
Eu408 O430 2.471 . S
Eu408 O431 2.349 . S
Eu409 O418 2.373 . S
Eu409 O422 2.488 . S
Eu409 O423 2.471 . S
Eu409 O424 2.349 . S
Eu409 O427 2.392 1_655 S
Eu409 O428 2.418 1_655 S
Eu409 C438 2.828 . S
C410 O428 1.244 . S
C410 O431 1.265 . S
C411 C412 1.379 . S
C411 C415 1.373 . S
C411 C417 1.505 . S
C412 C411 1.379 . S
C412 C414 1.369 . S
C412 H440 0.930 . S
C413 C415 1.383 . S
C413 C416 1.382 . S
C413 H441 0.930 . S
C414 C412 1.369 . S
C414 C416 1.392 . S
C414 H442 0.930 . S
C415 C411 1.373 . S
C415 C413 1.383 . S
C415 H443 0.931 . S
C416 C413 1.382 . S
C416 C414 1.392 . S
C417 Eu408 2.828 . S
C417 C411 1.505 . S
C417 O429 1.249 . S
C417 O430 1.244 . S
O418 Eu409 2.373 . S
O418 C420 1.258 . S
O419 Eu408 2.392 . S
O419 C420 1.242 1_455 S
C420 O418 1.258 . S
C420 O419 1.242 1_655 S
O421 Eu408 2.418 1_655 S
O421 C425 1.244 . S
O422 Eu409 2.488 . S
O422 C438 1.249 . S
O423 Eu409 2.471 . S
O423 C438 1.244 . S
O424 Eu409 2.349 . S
O424 C425 1.265 . S
C425 O421 1.244 . S
C425 O424 1.265 . S
O426 Eu408 2.373 . S
O426 C439 1.258 . S
O427 Eu409 2.392 1_455 S
O427 C439 1.242 . S
O428 Eu409 2.418 1_455 S
O428 C410 1.244 . S
O429 Eu408 2.488 . S
O429 C417 1.249 . S
O430 Eu408 2.471 . S
O430 C417 1.244 . S
O431 Eu408 2.349 . S
O431 C410 1.265 . S
C432 C433 1.379 . S
C432 C436 1.373 . S
C432 C438 1.505 . S
C433 C432 1.379 . S
C433 C435 1.369 . S
C433 H444 0.930 . S
C434 C436 1.383 1_554 S
C434 C437 1.382 . S
C434 H445 0.930 . S
C435 C433 1.369 . S
C435 C437 1.392 1_556 S
C435 H446 0.930 . S
C436 C432 1.373 . S
C436 C434 1.383 1_556 S
C436 H447 0.931 . S
C437 C434 1.382 . S
C437 C435 1.392 1_554 S
C438 Eu409 2.828 . S
C438 O422 1.249 . S
C438 O423 1.244 . S
C438 C432 1.505 . S
C439 O426 1.258 . S
C439 O427 1.242 . S
H440 C412 0.930 . S
H441 C413 0.930 . S
H442 C414 0.930 . S
H443 C415 0.931 . S
H444 C433 0.930 . S
H445 C434 0.930 . S
H446 C435 0.930 . S
H447 C436 0.931 . S
C448 C449 1.369 . S
C448 C450 1.419 . S
C448 H452 0.930 . S
C449 C448 1.369 . S
C449 C458 1.429 . S
C450 C448 1.419 . S
C450 C451 1.363 . S
C450 H453 0.929 . S
C451 C450 1.363 . S
C451 C457 1.428 . S
H452 C448 0.930 . S
H453 C450 0.929 . S
S454 N455 1.613 . S
S454 N456 1.610 . S
N455 S454 1.613 . S
N455 C458 1.350 1_565 S
N456 S454 1.610 . S
N456 C457 1.351 1_565 S
C457 C451 1.428 . S
C457 N456 1.351 1_545 S
C457 C458 1.434 . S
C458 C449 1.429 . S
C458 N455 1.350 1_545 S
C458 C457 1.434 . S
C459 C460 1.369 . S
C459 C461 1.419 . S
C459 H463 0.930 . S
C460 C459 1.369 . S
C460 C469 1.429 . S
C461 C459 1.419 . S
C461 C462 1.363 . S
C461 H464 0.929 . S
C462 C461 1.363 . S
C462 C468 1.428 . S
H463 C459 0.930 . S
H464 C461 0.929 . S
S465 N466 1.613 . S
S465 N467 1.610 . S
N466 S465 1.613 . S
N466 C469 1.350 . S
N467 S465 1.610 . S
N467 C468 1.351 . S
C468 C462 1.428 . S
C468 N467 1.351 . S
C468 C469 1.434 . S
C469 C460 1.429 . S
C469 N466 1.350 . S
C469 C468 1.434 . S
C470 C471 1.369 . S
C470 C472 1.419 . S
C470 H474 0.930 . S
C471 C470 1.369 . S
C471 C480 1.429 . S
C472 C470 1.419 . S
C472 C473 1.363 . S
C472 H475 0.929 . S
C473 C472 1.363 . S
C473 C479 1.428 . S
H474 C470 0.930 . S
H475 C472 0.929 . S
S476 N477 1.613 . S
S476 N478 1.610 . S
N477 S476 1.613 . S
N477 C480 1.350 . S
N478 S476 1.610 . S
N478 C479 1.351 . S
C479 C473 1.428 . S
C479 N478 1.351 . S
C479 C480 1.434 . S
C480 C471 1.429 . S
C480 N477 1.350 . S
C480 C479 1.434 . S
C481 C482 1.369 . S
C481 C483 1.419 . S
C481 H485 0.930 . S
C482 C481 1.369 . S
C482 C491 1.429 . S
C483 C481 1.419 . S
C483 C484 1.363 . S
C483 H486 0.929 1_455 S
C484 C483 1.363 . S
C484 C490 1.428 . S
H485 C481 0.930 . S
H486 C483 0.929 1_655 S
S487 N488 1.613 . S
S487 N489 1.610 . S
N488 S487 1.613 . S
N488 C491 1.350 . S
N489 S487 1.610 . S
N489 C490 1.351 . S
C490 C484 1.428 . S
C490 N489 1.351 . S
C490 C491 1.434 . S
C491 C482 1.429 . S
C491 N488 1.350 . S
C491 C490 1.434 . S
C492 C493 1.369 . S
C492 C494 1.419 1_554 S
C492 H496 0.930 . S
C493 C492 1.369 . S
C493 C502 1.429 . S
C494 C492 1.419 1_556 S
C494 C495 1.363 . S
C494 H497 0.929 . S
C495 C494 1.363 . S
C495 C501 1.420 1_556 S
H496 C492 0.930 . S
H497 C494 0.929 . S
S498 N499 1.613 . S
S498 N500 1.610 1_554 S
N499 S498 1.613 . S
N499 C502 1.350 1_455 S
N500 S498 1.610 1_556 S
N500 C501 1.346 1_456 S
C501 C495 1.420 1_554 S
C501 N500 1.346 1_654 S
C501 C502 1.449 . S
C502 C493 1.429 . S
C502 N499 1.350 1_655 S
C502 C501 1.449 . S
C503 C504 1.369 . S
C503 C505 1.419 1_554 S
C503 H507 0.930 . S
C504 C503 1.369 . S
C504 C513 1.429 . S
C505 C503 1.419 1_556 S
C505 C506 1.363 . S
C505 H508 0.929 . S
C506 C505 1.363 . S
C506 C512 1.428 . S
H507 C503 0.930 . S
H508 C505 0.929 . S
S509 N510 1.614 . S
S509 N511 1.624 1_554 S
N510 S509 1.614 . S
N510 C513 1.349 1_545 S
N511 S509 1.624 1_556 S
N511 C512 1.331 1_545 S
C512 C506 1.428 . S
C512 N511 1.331 1_565 S
C512 C513 1.434 1_556 S
C513 C504 1.429 . S
C513 N510 1.349 1_565 S
C513 C512 1.434 1_554 S
C514 C515 1.369 . S
C514 C516 1.419 1_554 S
C514 H518 0.930 . S
C515 C514 1.369 . S
C515 C524 1.429 . S
C516 C514 1.419 1_556 S
C516 C517 1.363 . S
C516 H519 0.929 . S
C517 C516 1.363 . S
C517 C523 1.428 . S
H518 C514 0.930 . S
H519 C516 0.929 . S
S520 N521 1.613 1_556 S
S520 N522 1.610 . S
N521 S520 1.613 1_554 S
N521 C524 1.350 . S
N522 S520 1.610 . S
N522 C523 1.351 . S
C523 C517 1.428 . S
C523 N522 1.351 . S
C523 C524 1.434 1_556 S
C524 C515 1.429 . S
C524 N521 1.350 . S
C524 C523 1.434 1_554 S
C525 C526 1.370 1_455 S
C525 C527 1.418 1_554 S
C525 H529 0.929 . S
C526 C525 1.370 1_655 S
C526 C535 1.429 . S
C527 C525 1.418 1_556 S
C527 C528 1.363 1_455 S
C527 H530 0.929 . S
C528 C527 1.363 1_655 S
C528 C534 1.428 . S
H529 C525 0.929 . S
H530 C527 0.929 . S
S531 N532 1.613 1_556 S
S531 N533 1.610 . S
N532 S531 1.613 1_554 S
N532 C535 1.350 . S
N533 S531 1.610 . S
N533 C534 1.351 . S
C534 C528 1.428 . S
C534 N533 1.351 . S
C534 C535 1.434 1_556 S
C535 C526 1.429 . S
C535 N532 1.350 . S
C535 C534 1.434 1_554 S
C536 C537 1.369 . S
C536 C538 1.419 . S
C536 H540 0.930 . S
C537 C536 1.369 . S
C537 C546 1.429 . S
C538 C536 1.419 . S
C538 C539 1.363 1_455 S
C538 H541 0.929 1_455 S
C539 C538 1.363 1_655 S
C539 C545 1.428 1_655 S
H540 C536 0.930 . S
H541 C538 0.929 1_655 S
S542 N543 1.613 . S
S542 N544 1.610 . S
N543 S542 1.613 . S
N543 C546 1.350 . S
N544 S542 1.610 . S
N544 C545 1.351 . S
C545 C539 1.428 1_455 S
C545 N544 1.351 . S
C545 C546 1.434 . S
C546 C537 1.429 . S
C546 N543 1.350 . S
C546 C545 1.434 . S
C547 C548 1.369 . S
C547 C549 1.419 . S
C547 H551 0.930 . S
C548 C547 1.369 . S
C548 C557 1.429 . S
C549 C547 1.419 . S
C549 C550 1.363 1_545 S
C549 H552 0.929 1_545 S
C550 C549 1.363 1_565 S
C550 C556 1.428 1_565 S
H551 C547 0.930 . S
H552 C549 0.929 1_565 S
S553 N554 1.613 . S
S553 N555 1.610 . S
N554 S553 1.613 . S
N554 C557 1.350 . S
N555 S553 1.610 . S
N555 C556 1.351 . S
C556 C550 1.428 1_545 S
C556 N555 1.351 . S
C556 C557 1.434 . S
C557 C548 1.429 . S
C557 N554 1.350 . S
C557 C556 1.434 . S
C558 C559 1.369 . S
C558 C560 1.419 . S
C558 H562 0.930 . S
C559 C558 1.369 . S
C559 C568 1.429 . S
C560 C558 1.419 . S
C560 C561 1.363 . S
C560 H563 0.929 . S
C561 C560 1.363 . S
C561 C567 1.428 . S
H562 C558 0.930 . S
H563 C560 0.929 . S
S564 N565 1.613 . S
S564 N566 1.610 . S
N565 S564 1.613 . S
N565 C568 1.350 . S
N566 S564 1.610 . S
N566 C567 1.351 . S
C567 C561 1.428 . S
C567 N566 1.351 . S
C567 C568 1.434 . S
C568 C559 1.429 . S
C568 N565 1.350 . S
C568 C567 1.434 . S
C569 C570 1.369 . S
C569 C571 1.419 . S
C569 H573 0.930 . S
C570 C569 1.369 . S
C570 C579 1.429 . S
C571 C569 1.419 . S
C571 C572 1.363 . S
C571 H574 0.929 . S
C572 C571 1.363 . S
C572 C578 1.428 . S
H573 C569 0.930 . S
H574 C571 0.929 . S
S575 N576 1.613 . S
S575 N577 1.610 . S
N576 S575 1.613 . S
N576 C579 1.350 . S
N577 S575 1.610 . S
N577 C578 1.351 . S
C578 C572 1.428 . S
C578 N577 1.351 . S
C578 C579 1.434 . S
C579 C570 1.429 . S
C579 N576 1.350 . S
C579 C578 1.434 . S
C580 C581 1.369 . S
C580 C582 1.419 . S
C580 H584 0.930 . S
C581 C580 1.369 . S
C581 C590 1.429 . S
C582 C580 1.419 . S
C582 C583 1.363 1_655 S
C582 H585 0.929 . S
C583 C582 1.363 1_455 S
C583 C589 1.428 . S
H584 C580 0.930 . S
H585 C582 0.929 . S
S586 N587 1.589 1_455 S
S586 N588 1.610 . S
N587 S586 1.589 1_655 S
N587 C590 1.355 . S
N588 S586 1.610 . S
N588 C589 1.351 . S
C589 C583 1.428 . S
C589 N588 1.351 . S
C589 C590 1.434 1_455 S
C590 C581 1.429 . S
C590 N587 1.355 . S
C590 C589 1.434 1_655 S
C591 C592 1.369 1_556 S
C591 C593 1.419 . S
C591 H595 0.930 . S
C592 C591 1.369 1_554 S
C592 C601 1.429 1_565 S
C593 C591 1.419 . S
C593 C594 1.363 1_565 S
C593 H596 0.929 . S
C594 C593 1.363 1_545 S
C594 C600 1.428 1_556 S
H595 C591 0.930 . S
H596 C593 0.929 . S
S597 N598 1.613 . S
S597 N599 1.610 . S
N598 S597 1.613 . S
N598 C601 1.350 . S
N599 S597 1.610 . S
N599 C600 1.351 . S
C600 C594 1.428 1_554 S
C600 N599 1.351 . S
C600 C601 1.434 . S
C601 C592 1.429 1_545 S
C601 N598 1.350 . S
C601 C600 1.434 . S
C602 C603 1.369 1_556 S
C602 C604 1.419 . S
C602 H606 0.930 . S
C603 C602 1.369 1_554 S
C603 C612 1.429 . S
C604 C602 1.419 . S
C604 C605 1.363 . S
C604 H607 0.929 . S
C605 C604 1.363 . S
C605 C611 1.428 1_556 S
H606 C602 0.930 . S
H607 C604 0.929 . S
S608 N609 1.613 . S
S608 N610 1.610 . S
N609 S608 1.613 . S
N609 C612 1.350 . S
N610 S608 1.610 . S
N610 C611 1.351 . S
C611 C605 1.428 1_554 S
C611 N610 1.351 . S
C611 C612 1.434 . S
C612 C603 1.429 . S
C612 N609 1.350 . S
C612 C611 1.434 . S
C613 C614 1.369 . S
C613 C615 1.419 . S
C613 H617 0.930 . S
C614 C613 1.369 . S
C614 C623 1.429 . S
C615 C613 1.419 . S
C615 C616 1.363 . S
C615 H618 0.929 . S
C616 C615 1.363 . S
C616 C622 1.428 . S
H617 C613 0.930 . S
H618 C615 0.929 . S
S619 N620 1.613 . S
S619 N621 1.610 1_556 S
N620 S619 1.613 . S
N620 C623 1.350 1_556 S
N621 S619 1.610 1_554 S
N621 C622 1.351 . S
C622 C616 1.428 . S
C622 N621 1.351 . S
C622 C623 1.434 . S
C623 C614 1.429 . S
C623 N620 1.350 1_554 S
C623 C622 1.434 . S
C624 C625 1.369 . S
C624 C626 1.419 . S
C624 H628 0.930 . S
C625 C624 1.369 . S
C625 C634 1.429 . S
C626 C624 1.419 . S
C626 C627 1.363 . S
C626 H629 0.929 . S
C627 C626 1.363 . S
C627 C633 1.428 . S
H628 C624 0.930 . S
H629 C626 0.929 . S
S630 N631 1.613 . S
S630 N632 1.610 . S
N631 S630 1.613 . S
N631 C634 1.350 . S
N632 S630 1.610 . S
N632 C633 1.351 . S
C633 C627 1.428 . S
C633 N632 1.351 . S
C633 C634 1.434 . S
C634 C625 1.429 . S
C634 N631 1.350 . S
C634 C633 1.434 . S
C635 C636 1.369 . S
C635 C637 1.419 . S
C635 H639 0.930 . S
C636 C635 1.369 . S
C636 C645 1.429 . S
C637 C635 1.419 . S
C637 C638 1.363 . S
C637 H640 0.929 . S
C638 C637 1.363 . S
C638 C644 1.428 . S
H639 C635 0.930 . S
H640 C637 0.929 . S
S641 N642 1.613 . S
S641 N643 1.610 . S
N642 S641 1.613 . S
N642 C645 1.350 . S
N643 S641 1.610 . S
N643 C644 1.351 . S
C644 C638 1.428 . S
C644 N643 1.351 . S
C644 C645 1.434 . S
C645 C636 1.429 . S
C645 N642 1.350 . S
C645 C644 1.434 . S
C646 C647 1.369 . S
C646 C648 1.419 . S
C646 H650 0.930 . S
C647 C646 1.369 . S
C647 C656 1.429 . S
C648 C646 1.419 . S
C648 C649 1.363 . S
C648 H651 0.929 . S
C649 C648 1.363 . S
C649 C655 1.428 . S
H650 C646 0.930 . S
H651 C648 0.929 . S
S652 N653 1.613 . S
S652 N654 1.610 . S
N653 S652 1.613 . S
N653 C656 1.350 . S
N654 S652 1.610 . S
N654 C655 1.351 . S
C655 C649 1.428 . S
C655 N654 1.351 . S
C655 C656 1.434 . S
C656 C647 1.429 . S
C656 N653 1.350 . S
C656 C655 1.434 . S
C657 C658 1.369 . S
C657 C659 1.419 . S
C657 H661 0.930 . S
C658 C657 1.369 . S
C658 C667 1.429 . S
C659 C657 1.419 . S
C659 C660 1.363 . S
C659 H662 0.929 . S
C660 C659 1.363 . S
C660 C666 1.428 . S
H661 C657 0.930 . S
H662 C659 0.929 . S
S663 N664 1.613 . S
S663 N665 1.610 . S
N664 S663 1.613 . S
N664 C667 1.350 . S
N665 S663 1.610 . S
N665 C666 1.351 . S
C666 C660 1.428 . S
C666 N665 1.351 . S
C666 C667 1.434 . S
C667 C658 1.429 . S
C667 N664 1.350 . S
C667 C666 1.434 . S
C668 C669 1.369 . S
C668 C670 1.419 . S
C668 H672 0.930 . S
C669 C668 1.369 . S
C669 C678 1.429 . S
C670 C668 1.419 . S
C670 C671 1.363 . S
C670 H673 0.929 . S
C671 C670 1.363 . S
C671 C677 1.428 . S
H672 C668 0.930 . S
H673 C670 0.929 . S
S674 N675 1.613 . S
S674 N676 1.610 . S
N675 S674 1.613 . S
N675 C678 1.350 1_455 S
N676 S674 1.610 . S
N676 C677 1.351 1_455 S
C677 C671 1.428 . S
C677 N676 1.351 1_655 S
C677 C678 1.434 . S
C678 C669 1.429 . S
C678 N675 1.350 1_655 S
C678 C677 1.434 . S
C679 C680 1.369 . S
C679 C681 1.419 . S
C679 H683 0.930 . S
C680 C679 1.369 . S
C680 C689 1.429 . S
C681 C679 1.419 . S
C681 C682 1.363 . S
C681 H684 0.929 . S
C682 C681 1.363 . S
C682 C688 1.428 . S
H683 C679 0.930 . S
H684 C681 0.929 . S
S685 N686 1.613 . S
S685 N687 1.610 . S
N686 S685 1.613 . S
N686 C689 1.350 . S
N687 S685 1.610 . S
N687 C688 1.351 . S
C688 C682 1.428 . S
C688 N687 1.351 . S
C688 C689 1.434 . S
C689 C680 1.429 . S
C689 N686 1.350 . S
C689 C688 1.434 . S
C690 C691 1.369 . S
C690 C692 1.419 . S
C690 H694 0.930 . S
C691 C690 1.369 . S
C691 C700 1.429 . S
C692 C690 1.419 . S
C692 C693 1.363 . S
C692 H695 0.929 . S
C693 C692 1.363 . S
C693 C699 1.428 . S
H694 C690 0.930 . S
H695 C692 0.929 . S
S696 N697 1.613 . S
S696 N698 1.610 . S
N697 S696 1.613 . S
N697 C700 1.350 . S
N698 S696 1.610 . S
N698 C699 1.351 . S
C699 C693 1.428 . S
C699 N698 1.351 . S
C699 C700 1.434 . S
C700 C691 1.429 . S
C700 N697 1.350 . S
C700 C699 1.434 . S
C701 C702 1.369 . S
C701 C703 1.419 . S
C701 H705 0.930 . S
C702 C701 1.369 . S
C702 C711 1.429 . S
C703 C701 1.419 . S
C703 C704 1.363 . S
C703 H706 0.929 . S
C704 C703 1.363 . S
C704 C710 1.428 . S
H705 C701 0.930 . S
H706 C703 0.929 . S
S707 N708 1.613 . S
S707 N709 1.610 . S
N708 S707 1.613 . S
N708 C711 1.350 . S
N709 S707 1.610 . S
N709 C710 1.351 . S
C710 C704 1.428 . S
C710 N709 1.351 . S
C710 C711 1.434 . S
C711 C702 1.429 . S
C711 N708 1.350 . S
C711 C710 1.434 . S
C449 C241 2.932 . S
C451 C319 3.246 . S
C462 C345 2.925 . S
C460 C277 2.610 . S
C473 C385 2.794 . S
C471 C169 2.425 . S
C484 C439 3.153 . S
C482 C205 2.863 . S
C495 C300 3.250 . S
C493 C97 2.904 . S
C504 C133 2.588 . S
C506 C330 2.922 . S
C515 C25 2.408 . S
C517 C370 2.793 . S
C526 C61 2.835 . S
C528 C420 3.151 . S
C539 C296 0.864 . S
C537 C211 0.847 . S
C550 C357 0.948 . S
C548 C247 0.986 . S
C561 C397 0.607 . S
C559 C253 0.608 . S
C570 C175 0.750 . S
C572 C416 0.739 . S
C581 C67 0.805 . S
C583 C317 0.866 . S
C594 C336 0.950 . S
C592 C103 0.923 . S
C605 C376 0.613 . S
C603 C109 0.574 . S
C614 C31 0.762 . S
C616 C437 0.734 . S
C625 C181 2.914 . S
C627 C290 3.381 . S
C636 C217 3.375 . S
C638 C340 3.779 . S
C649 C380 3.557 . S
C647 C283 3.104 . S
C660 C410 3.106 . S
C658 C145 2.675 . S
C669 C37 2.903 . S
C671 C305 3.379 . S
C682 C359 3.779 . S
C680 C73 3.365 . S
C693 C399 3.555 . S
C691 C139 3.072 . S
C702 C1 2.660 . S
C704 C425 3.106 . S
