# Generated by pormake.
# Topology zzz, (3,6)-cn, num edge types: 1
# Building blocks:
#     Node 0, Type 0, BuildingBlock: CUQRIR_clean_linker_1, # of connection points: 3
#     Node 1, Type 0, BuildingBlock: CUQRIR_clean_linker_1, # of connection points: 3
#     Node 2, Type 0, BuildingBlock: CUQRIR_clean_linker_1, # of connection points: 3
#     Node 3, Type 0, BuildingBlock: CUQRIR_clean_linker_1, # of connection points: 3
#     Node 4, Type 0, BuildingBlock: CUQRIR_clean_linker_1, # of connection points: 3
#     Node 5, Type 0, BuildingBlock: CUQRIR_clean_linker_1, # of connection points: 3
#     Node 6, Type 0, BuildingBlock: CUQRIR_clean_linker_1, # of connection points: 3
#     Node 7, Type 0, BuildingBlock: CUQRIR_clean_linker_1, # of connection points: 3
#     Node 8, Type 1, BuildingBlock: VOLQOD_clean_sbu_1, # of connection points: 6
#     Node 9, Type 1, BuildingBlock: VOLQOD_clean_sbu_1, # of connection points: 6
#     Node 10, Type 1, BuildingBlock: VOLQOD_clean_sbu_1, # of connection points: 6
#     Node 11, Type 1, BuildingBlock: VOLQOD_clean_sbu_1, # of connection points: 6
#     Edge 12, Type (0, 1), BuildingBlock: TEMPAE_clean_linker_10, # of connection points: 2
#     Edge 13, Type (0, 1), BuildingBlock: TEMPAE_clean_linker_10, # of connection points: 2
#     Edge 14, Type (0, 1), BuildingBlock: TEMPAE_clean_linker_10, # of connection points: 2
#     Edge 15, Type (0, 1), BuildingBlock: TEMPAE_clean_linker_10, # of connection points: 2
#     Edge 16, Type (0, 1), BuildingBlock: TEMPAE_clean_linker_10, # of connection points: 2
#     Edge 17, Type (0, 1), BuildingBlock: TEMPAE_clean_linker_10, # of connection points: 2
#     Edge 18, Type (0, 1), BuildingBlock: TEMPAE_clean_linker_10, # of connection points: 2
#     Edge 19, Type (0, 1), BuildingBlock: TEMPAE_clean_linker_10, # of connection points: 2
#     Edge 20, Type (0, 1), BuildingBlock: TEMPAE_clean_linker_10, # of connection points: 2
#     Edge 21, Type (0, 1), BuildingBlock: TEMPAE_clean_linker_10, # of connection points: 2
#     Edge 22, Type (0, 1), BuildingBlock: TEMPAE_clean_linker_10, # of connection points: 2
#     Edge 23, Type (0, 1), BuildingBlock: TEMPAE_clean_linker_10, # of connection points: 2
#     Edge 24, Type (0, 1), BuildingBlock: TEMPAE_clean_linker_10, # of connection points: 2
#     Edge 25, Type (0, 1), BuildingBlock: TEMPAE_clean_linker_10, # of connection points: 2
#     Edge 26, Type (0, 1), BuildingBlock: TEMPAE_clean_linker_10, # of connection points: 2
#     Edge 27, Type (0, 1), BuildingBlock: TEMPAE_clean_linker_10, # of connection points: 2
#     Edge 28, Type (0, 1), BuildingBlock: TEMPAE_clean_linker_10, # of connection points: 2
#     Edge 29, Type (0, 1), BuildingBlock: TEMPAE_clean_linker_10, # of connection points: 2
#     Edge 30, Type (0, 1), BuildingBlock: TEMPAE_clean_linker_10, # of connection points: 2
#     Edge 31, Type (0, 1), BuildingBlock: TEMPAE_clean_linker_10, # of connection points: 2
#     Edge 32, Type (0, 1), BuildingBlock: TEMPAE_clean_linker_10, # of connection points: 2
#     Edge 33, Type (0, 1), BuildingBlock: TEMPAE_clean_linker_10, # of connection points: 2
#     Edge 34, Type (0, 1), BuildingBlock: TEMPAE_clean_linker_10, # of connection points: 2
#     Edge 35, Type (0, 1), BuildingBlock: TEMPAE_clean_linker_10, # of connection points: 2
# Relax obj value: 0.216
# Max RMSD: 0.242
# Mean RMSD: 0.126
data_MOF--net-zzz--node1-VOLQOD_clean_sbu_1--node2-CUQRIR_clean_linker_1--edge1-TEMPAE_clean_linker_10
_symmetry_space_group_name_H-M    P1
_symmetry_Int_Tables_number       1
_symmetry_cell_setting            triclinic
loop_
_symmetry_equiv_pos_as_xyz
'x, y, z'
_cell_length_a     48.809078
_cell_length_b     48.46556
_cell_length_c     15.816424
_cell_angle_alpha  90.218102
_cell_angle_beta   89.836175
_cell_angle_gamma 90.700221
loop_
_atom_site_label
_atom_site_type_symbol
_atom_site_fract_x
_atom_site_fract_y
_atom_site_fract_z
_atom_type_partial_charge
C0 C 0.7608 0.50605 0.15873 0.0
N1 N 0.7873 0.49818 0.15466 0.0
N2 N 0.74708 0.49741 0.0889 0.0
C3 C 0.74892 0.52401 0.22692 0.0
C4 C 0.76611 0.48388 0.04278 0.0
N5 N 0.79048 0.48436 0.08268 0.0
C6 C 0.76077 0.4696 0.9597 0.0
H7 H 0.74054 0.51062 0.27778 0.0
H8 H 0.73202 0.53669 0.20191 0.0
H9 H 0.7649 0.53773 0.25474 0.0
H10 H 0.7649 0.48431 0.90747 0.0
H11 H 0.73913 0.46246 0.95541 0.0
H12 H 0.77453 0.45172 0.95153 0.0
C13 C 0.00848 0.73882 0.1952 0.0
N14 N 0.01363 0.7661 0.20464 0.0
N15 N 0.01978 0.72944 0.12245 0.0
C16 C 0.99251 0.72136 0.25671 0.0
C17 C 0.03177 0.75208 0.08772 0.0
N18 N 0.02824 0.77435 0.13816 0.0
C19 C 0.04372 0.75317 -0.00024 0.0
H20 H -0.00089 0.69955 0.25336 0.0
H21 H 0.97043 0.72215 0.24051 0.0
H22 H 0.99511 0.72931 0.32213 0.0
H23 H 0.03484 0.73679 0.95866 0.0
H24 H 0.06616 0.75007 0.00377 0.0
H25 H 0.04015 0.77346 0.9698 0.0
C26 C 0.75035 0.0157 0.19945 0.0
N27 N 0.72376 0.02211 0.21192 0.0
N28 N 0.75963 0.02687 0.12639 0.0
C29 C 0.76645 0.9964 0.25377 0.0
C30 C 0.73774 0.04036 0.0952 0.0
N31 N 0.71591 0.03756 0.14732 0.0
C32 C 0.73669 0.05328 0.0089 0.0
H33 H 0.78816 0.00329 0.25753 0.0
H34 H 0.76596 0.97553 0.22468 0.0
H35 H 0.75772 0.99514 0.3185 0.0
H36 H 0.72538 0.03923 0.96537 0.0
H37 H 0.75755 0.0572 0.98324 0.0
H38 H 0.72551 0.07303 0.01175 0.0
C39 C 0.49036 0.75511 0.22909 0.0
N40 N 0.48297 0.72852 0.24292 0.0
N41 N 0.47882 0.76435 0.15705 0.0
C42 C 0.51069 0.77125 0.28119 0.0
C43 C 0.46414 0.74245 0.12781 0.0
N44 N 0.46657 0.72065 0.18015 0.0
C45 C 0.45028 0.74127 0.04294 0.0
H46 H 0.50512 0.79335 0.28348 0.0
H47 H 0.53121 0.76974 0.25124 0.0
H48 H 0.51182 0.76305 0.34647 0.0
H49 H 0.44698 0.76222 0.01719 0.0
H50 H 0.43023 0.7304 0.04808 0.0
H51 H 0.46324 0.72944 0.99822 0.0
C52 C 0.26061 0.53047 0.14991 0.0
N53 N 0.23396 0.53611 0.13628 0.0
N54 N 0.26908 0.54174 0.22397 0.0
C55 C 0.27823 0.51366 0.09173 0.0
C56 C 0.24651 0.55432 0.25497 0.0
N57 N 0.22517 0.55107 0.20124 0.0
C58 C 0.24446 0.56624 0.34288 0.0
H59 H 0.27603 0.49153 0.10834 0.0
H60 H 0.30011 0.51977 0.09831 0.0
H61 H 0.27168 0.51623 0.02511 0.0
H62 H 0.25405 0.58711 0.34319 0.0
H63 H 0.2558 0.55332 0.38843 0.0
H64 H 0.22294 0.56804 0.36459 0.0
C65 C 0.05685 0.2387 0.16591 0.0
N66 N 0.0467 0.21256 0.16585 0.0
N67 N 0.04927 0.25202 0.23756 0.0
C68 C 0.07508 0.2508 0.09869 0.0
C69 C 0.03387 0.23331 0.28021 0.0
N70 N 0.03234 0.20942 0.23669 0.0
C71 C 0.01925 0.23882 0.36239 0.0
H72 H 0.08856 0.26723 0.1254 0.0
H73 H 0.06211 0.26011 0.04913 0.0
H74 H 0.08775 0.23457 0.06885 0.0
H75 H 0.01301 0.26073 0.3668 0.0
H76 H 0.03336 0.23451 0.41547 0.0
H77 H 0.00085 0.22533 0.36921 0.0
C78 C 0.24579 0.01888 0.15529 0.0
N79 N 0.27314 0.01476 0.16024 0.0
N80 N 0.23273 0.00623 0.22049 0.0
C81 C 0.23193 0.03499 0.08707 0.0
C82 C 0.253 0.99455 0.26545 0.0
N83 N 0.27747 -0.00042 0.22858 0.0
C84 C 0.24869 0.97836 0.34559 0.0
H85 H 0.24549 0.05197 0.0644 0.0
H86 H 0.21224 0.04355 0.10954 0.0
H87 H 0.22753 0.021 0.03299 0.0
H88 H 0.24033 0.95764 0.32921 0.0
H89 H 0.23346 0.98876 0.38664 0.0
H90 H 0.268 0.97566 0.38113 0.0
C91 C 0.4975 0.24865 0.1597 0.0
N92 N 0.50312 0.27598 0.15487 0.0
N93 N 0.50986 0.23766 0.22825 0.0
C94 C 0.48035 0.23268 0.0974 0.0
C95 C 0.5229 0.25937 0.26515 0.0
N96 N 0.51901 0.28257 0.22001 0.0
C97 C 0.53668 0.25848 0.35023 0.0
H98 H 0.45854 0.2337 0.11698 0.0
H99 H 0.48644 0.2107 0.09559 0.0
H100 H 0.48229 0.24176 0.0333 0.0
H101 H 0.55816 0.2518 0.34136 0.0
H102 H 0.5262 0.24342 0.39237 0.0
H103 H 0.53698 0.27899 0.38155 0.0
O104 O 0.05871 0.9963 0.61655 0.0
Zn105 Zn 0.03 0.99607 0.70938 0.0
O106 O 0.99289 0.99236 0.66074 0.0
Zn107 Zn 0.97195 0.02531 0.68394 0.0
Zn108 Zn 0.99495 0.98762 0.53879 0.0
Zn109 Zn 0.97362 0.96058 0.70812 0.0
O110 O 0.93663 0.01629 0.74209 0.0
O111 O 0.93878 0.97139 0.76833 0.0
O112 O 0.03409 0.03203 0.77389 0.0
O113 O 0.99286 0.05055 0.76133 0.0
O114 O 0.96452 0.04666 0.57787 0.0
O115 O 0.97665 0.01784 0.47578 0.0
O116 O 0.98077 0.95073 0.50125 0.0
O117 O 0.03779 0.96455 0.79034 0.0
O118 O 0.96555 0.93157 0.61974 0.0
O119 O 0.9979 0.94173 0.7897 0.0
C120 C 0.05681 0.99401 0.53643 0.0
C121 C 0.92657 0.9944 0.77447 0.0
C122 C 0.96694 0.0408 0.49969 0.0
C123 C 0.01717 0.05117 0.79009 0.0
C124 C 0.96998 0.93045 0.54046 0.0
C125 C 0.02238 0.94481 0.81559 0.0
O126 O 0.03378 0.99036 0.50062 0.0
O127 O 0.49371 0.06324 0.63755 0.0
Zn128 Zn 0.49379 0.03336 0.72774 0.0
O129 O 0.49951 0.99663 0.67535 0.0
Zn130 Zn 0.46843 0.97231 0.69756 0.0
Zn131 Zn 0.50357 -2e-05 0.55359 0.0
Zn132 Zn 0.53229 0.97953 0.71978 0.0
O133 O 0.47956 0.93771 0.75613 0.0
O134 O 0.52379 0.94428 0.78246 0.0
O135 O 0.45743 0.03424 0.79116 0.0
O136 O 0.44236 0.99101 0.77554 0.0
O137 O 0.44737 0.96295 0.59168 0.0
O138 O 0.47314 0.9814 0.49064 0.0
O139 O 0.53973 0.98638 0.51223 0.0
O140 O 0.5246 0.04272 0.81069 0.0
O141 O 0.56022 0.97228 0.62888 0.0
O142 O 0.55071 0.00552 0.79913 0.0
C143 C 0.49732 0.06214 0.55767 0.0
C144 C 0.50188 0.92991 0.78925 0.0
C145 C 0.45186 0.96805 0.51393 0.0
C146 C 0.43983 0.01518 0.80596 0.0
C147 C 0.56038 0.97633 0.54943 0.0
C148 C 0.54593 0.02921 0.83007 0.0
O149 O 0.50158 0.03936 0.52011 0.0
O150 O 0.43192 0.50157 0.66004 0.0
Zn151 Zn 0.46043 0.49872 0.75333 0.0
O152 O 0.49768 0.50323 0.70423 0.0
Zn153 Zn 0.51986 0.47153 0.73076 0.0
Zn154 Zn 0.49633 0.5065 0.58139 0.0
Zn155 Zn 0.51548 0.53622 0.74955 0.0
O156 O 0.55321 0.48211 0.79785 0.0
O157 O 0.54989 0.52747 0.81339 0.0
O158 O 0.45616 0.46159 0.81266 0.0
O159 O 0.49799 0.44434 0.7974 0.0
O160 O 0.53142 0.45105 0.62681 0.0
O161 O 0.51477 0.47526 0.52062 0.0
O162 O 0.51188 0.54256 0.54098 0.0
O163 O 0.4524 0.52914 0.83894 0.0
O164 O 0.52412 0.56405 0.65905 0.0
O165 O 0.49017 0.55514 0.82856 0.0
C166 C 0.43413 0.50461 0.58014 0.0
C167 C 0.56231 0.50497 0.82684 0.0
C168 C 0.52778 0.45457 0.54801 0.0
C169 C 0.4735 0.44252 0.82437 0.0
C170 C 0.52152 0.56369 0.57902 0.0
C171 C 0.4665 0.55043 0.85931 0.0
O172 O 0.45745 0.50634 0.54437 0.0
O173 O 0.96694 0.52551 0.54174 0.0
Zn174 Zn 0.00302 0.52941 0.60481 0.0
O175 O 0.01365 0.49359 0.65415 0.0
Zn176 Zn 0.01595 0.49611 0.77641 0.0
Zn177 Zn 0.98701 0.46482 0.62523 0.0
Zn178 Zn 0.04936 0.48297 0.61287 0.0
O179 O 0.05285 0.48631 0.82227 0.0
O180 O 0.07693 0.47916 0.70566 0.0
O181 O -0.00054 0.5584 0.69734 0.0
O182 O 0.00973 0.53473 0.81267 0.0
O183 O 0.98653 0.47407 0.83259 0.0
O184 O 0.96545 0.45202 0.72795 0.0
O185 O 0.0048 0.43288 0.56518 0.0
O186 O 0.03215 0.54379 0.52242 0.0
O187 O 0.04763 0.4477 0.54705 0.0
O188 O 0.06427 0.51202 0.5378 0.0
C189 C 0.95286 0.50419 0.52099 0.0
C190 C 0.07542 0.48093 0.78575 0.0
C191 C 0.96762 0.45799 0.80622 0.0
C192 C 0.00319 0.55715 0.77703 0.0
C193 C 0.02883 0.42971 0.53518 0.0
C194 C 0.05586 0.53439 0.50602 0.0
O195 O 0.95925 0.48018 0.54592 0.0
C196 C 0.18994 0.98126 0.24885 0.0
C197 C 0.2043 0.00631 0.24308 0.0
C198 C 0.16446 0.97975 0.28956 0.0
C199 C 0.15318 0.004 0.32483 0.0
C200 C 0.16685 0.02971 0.31404 0.0
C201 C 0.19246 0.03051 0.27361 0.0
C202 C 0.15055 0.95196 0.29977 0.0
C203 C 0.15529 0.05605 0.3498 0.0
C204 C 0.07893 0.00105 0.39542 0.0
C205 C 0.08157 0.99661 0.48275 0.0
C206 C 0.10205 0.00394 0.34331 0.0
C207 C 0.12843 0.00201 0.3792 0.0
C208 C 0.13128 0.99754 0.46722 0.0
C209 C 0.10779 0.99506 0.51808 0.0
C210 C 0.09825 0.009 0.24992 0.0
C211 C 0.15917 0.99513 0.50753 0.0
H212 H 0.19949 0.96265 0.22546 0.0
H213 H 0.20401 0.04971 0.27007 0.0
H214 H 0.15083 0.94593 0.36737 0.0
H215 H 0.12879 0.95298 0.28021 0.0
H216 H 0.16078 0.93561 0.26219 0.0
H217 H 0.16667 0.07459 0.32713 0.0
H218 H 0.13339 0.05801 0.33247 0.0
H219 H 0.1564 0.05558 0.41984 0.0
H220 H 0.05873 0.00256 0.36764 0.0
H221 H 0.10998 0.99162 0.58539 0.0
H222 H 0.10723 0.99183 0.21292 0.0
H223 H 0.10924 0.0282 0.23105 0.0
H224 H 0.07632 0.01087 0.23243 0.0
H225 H 0.17047 0.97778 0.47834 0.0
H226 H 0.15785 0.99163 0.57681 0.0
H227 H 0.17139 0.01422 0.49613 0.0
C228 C 0.53002 0.19552 0.28469 0.0
C229 C 0.50678 0.21043 0.26268 0.0
C230 C 0.52765 0.17081 0.32997 0.0
C231 C 0.50132 0.16081 0.35316 0.0
C232 C 0.47768 0.17526 0.32787 0.0
C233 C 0.48073 0.20004 0.28306 0.0
C234 C 0.55334 0.15596 0.35548 0.0
C235 C 0.44928 0.16506 0.3507 0.0
C236 C 0.49639 0.0857 0.41756 0.0
C237 C 0.4969 0.08762 0.50623 0.0
C238 C 0.49718 0.10937 0.36701 0.0
C239 C 0.49868 0.13563 0.40593 0.0
C240 C 0.4987 0.13781 0.4953 0.0
C241 C 0.4977 0.11375 0.54449 0.0
C242 C 0.49691 0.10623 0.27193 0.0
C243 C 0.50042 0.16555 0.5389 0.0
H244 H 0.55009 0.20377 0.26849 0.0
H245 H 0.46285 0.21194 0.26693 0.0
H246 H 0.55484 0.15543 0.42544 0.0
H247 H 0.55253 0.13427 0.3329 0.0
H248 H 0.57217 0.16601 0.32988 0.0
H249 H 0.43304 0.17768 0.32131 0.0
H250 H 0.44646 0.14328 0.33033 0.0
H251 H 0.44657 0.16568 0.42035 0.0
H252 H 0.49553 0.06561 0.38726 0.0
H253 H 0.49811 0.11541 0.61283 0.0
H254 H 0.51645 0.11426 0.24507 0.0
H255 H 0.48014 0.11855 0.24448 0.0
H256 H 0.49421 0.08439 0.25168 0.0
H257 H 0.51989 0.17615 0.52144 0.0
H258 H 0.49945 0.16375 0.60885 0.0
H259 H 0.48344 0.17883 0.51765 0.0
C260 C 0.30048 0.50845 0.28698 0.0
C261 C 0.29367 0.53582 0.26974 0.0
C262 C 0.32324 0.5023 0.337 0.0
C263 C 0.33933 0.52413 0.37104 0.0
C264 C 0.33258 0.55185 0.35323 0.0
C265 C 0.30975 0.55735 0.30261 0.0
C266 C 0.32986 0.4725 0.35427 0.0
C267 C 0.34929 0.57567 0.38827 0.0
C268 C 0.38335 0.51036 0.56373 0.0
C269 C 0.4094 0.5078 0.52707 0.0
C270 C 0.36027 0.51546 0.51358 0.0
C271 C 0.36334 0.51796 0.42484 0.0
C272 C 0.38944 0.51485 0.38732 0.0
C273 C 0.41212 0.5098 0.43881 0.0
C274 C 0.33267 0.51869 0.55562 0.0
C275 C 0.39352 0.51729 0.29287 0.0
H276 H 0.28754 0.49191 0.26294 0.0
H277 H 0.30419 0.57846 0.28916 0.0
H278 H 0.35107 0.46806 0.3333 0.0
H279 H 0.32884 0.4685 0.42322 0.0
H280 H 0.31558 0.45799 0.32162 0.0
H281 H 0.34124 0.59599 0.36852 0.0
H282 H 0.34939 0.57482 0.45836 0.0
H283 H 0.37087 0.57412 0.36672 0.0
H284 H 0.38106 0.50892 0.63176 0.0
H285 H 0.43211 0.50778 0.40962 0.0
H286 H 0.31776 0.50363 0.52867 0.0
H287 H 0.32469 0.53961 0.5431 0.0
H288 H 0.33363 0.51561 0.62511 0.0
H289 H 0.37996 0.50234 0.25935 0.0
H290 H 0.41504 0.51351 0.27343 0.0
H291 H 0.38779 0.53824 0.27172 0.0
C292 C 0.06735 0.28457 0.34205 0.0
C293 C 0.05496 0.27981 0.2637 0.0
C294 C 0.06658 0.31065 0.3801 0.0
C295 C 0.05318 0.33237 0.33806 0.0
C296 C 0.04289 0.32822 0.25524 0.0
C297 C 0.04385 0.30178 0.21894 0.0
C298 C 0.07785 0.3142 0.46833 0.0
C299 C 0.02882 0.351 0.20799 0.0
C300 C 0.01642 0.38268 0.48118 0.0
C301 C 0.03495 0.40498 0.48374 0.0
C302 C 0.02202 0.35911 0.43293 0.0
C303 C 0.04663 0.35792 0.38542 0.0
C304 C 0.06522 0.38051 0.38647 0.0
C305 C 0.05924 0.40373 0.43604 0.0
C306 C 0.00177 0.33527 0.43386 0.0
C307 C 0.09151 0.38001 0.33592 0.0
H308 H 0.07592 0.2673 0.37589 0.0
H309 H 0.03417 0.29778 0.15848 0.0
H310 H 0.09034 0.3334 0.47315 0.0
H311 H 0.06062 0.31599 0.51387 0.0
H312 H 0.09065 0.29649 0.48744 0.0
H313 H 0.02613 0.34585 0.13998 0.0
H314 H 0.00829 0.35444 0.23616 0.0
H315 H 0.0406 0.37064 0.21337 0.0
H316 H 0.99763 0.38348 0.51777 0.0
H317 H 0.07357 0.42099 0.43701 0.0
H318 H 0.01174 0.31656 0.45905 0.0
H319 H 0.99499 0.33042 0.36854 0.0
H320 H 0.98341 0.33967 0.47308 0.0
H321 H 0.10479 0.36326 0.35917 0.0
H322 H 0.10308 0.39985 0.34003 0.0
H323 H 0.08701 0.37553 0.2685 0.0
C324 C 0.80958 0.02792 0.10785 0.0
C325 C 0.78373 0.01912 0.08054 0.0
C326 C 0.83308 0.02177 0.06045 0.0
C327 C 0.83035 0.00671 0.98386 0.0
C328 C 0.80423 0.99712 0.95755 0.0
C329 C 0.7812 0.00335 0.00667 0.0
C330 C 0.86065 0.03212 0.09081 0.0
C331 C 0.80047 0.98119 0.87608 0.0
C332 C 0.88453 0.01976 0.81664 0.0
C333 C 0.90099 0.99639 0.82424 0.0
C334 C 0.86129 0.02313 0.86754 0.0
C335 C 0.85449 0.00276 0.92815 0.0
C336 C 0.87073 0.9789 0.93542 0.0
C337 C 0.89375 0.9759 0.88291 0.0
C338 C 0.84421 0.04869 0.85713 0.0
C339 C 0.86412 0.95688 -0.00015 0.0
H340 H 0.81121 0.04012 0.16521 0.0
H341 H 0.76102 0.99642 0.98676 0.0
H342 H 0.87547 0.01496 0.09225 0.0
H343 H 0.86883 0.04782 0.04621 0.0
H344 H 0.8595 0.04154 0.15486 0.0
H345 H 0.77899 0.97389 0.86731 0.0
H346 H 0.80621 0.99449 0.82174 0.0
H347 H 0.81415 0.96309 0.87467 0.0
H348 H 0.88991 0.0356 0.77111 0.0
H349 H 0.90649 0.95788 0.88949 0.0
H350 H 0.84425 0.06079 0.9168 0.0
H351 H 0.82263 0.04279 0.84356 0.0
H352 H 0.85187 0.06216 0.80532 0.0
H353 H 0.86503 0.96586 0.06443 0.0
H354 H 0.8785 0.93931 0.99634 0.0
H355 H 0.84296 0.94889 0.99034 0.0
C356 C 0.47773 0.81449 0.13706 0.0
C357 C 0.48644 0.78855 0.11035 0.0
C358 C 0.48275 0.8379 0.08718 0.0
C359 C 0.4966 0.83498 0.00881 0.0
C360 C 0.50636 0.80884 0.98346 0.0
C361 C 0.50122 0.7859 0.03494 0.0
C362 C 0.47222 0.8655 0.11655 0.0
C363 C 0.52108 0.80485 0.9003 0.0
C364 C 0.47904 0.88651 0.83863 0.0
C365 C 0.50168 0.9046 0.84126 0.0
C366 C 0.47738 0.86358 0.8921 0.0
C367 C 0.49879 0.85872 0.95013 0.0
C368 C 0.52194 0.87657 0.95221 0.0
C369 C 0.52318 0.89926 0.89737 0.0
C370 C 0.4525 0.84479 0.88733 0.0
C371 C 0.54507 0.87202 0.01359 0.0
H372 H 0.46626 0.8162 0.19558 0.0
H373 H 0.50798 0.76563 0.01534 0.0
H374 H 0.48877 0.88136 0.11336 0.0
H375 H 0.45555 0.87224 0.07409 0.0
H376 H 0.46415 0.86471 0.18225 0.0
H377 H 0.52919 0.78365 0.89317 0.0
H378 H 0.50679 0.80879 0.84738 0.0
H379 H 0.53833 0.81984 0.8944 0.0
H380 H 0.4624 0.8904 0.79519 0.0
H381 H 0.54067 0.91323 0.90013 0.0
H382 H 0.44147 0.84492 0.94876 0.0
H383 H 0.45888 0.82325 0.87499 0.0
H384 H 0.43804 0.85101 0.83697 0.0
H385 H 0.53724 0.87338 0.07939 0.0
H386 H 0.56197 0.88737 0.00568 0.0
H387 H 0.55348 0.85103 0.00507 0.0
C388 C 0.69737 0.49484 0.11408 0.0
C389 C 0.71954 0.50334 0.06398 0.0
C390 C 0.6704 0.49722 0.08449 0.0
C391 C 0.66582 0.5081 0.00277 0.0
C392 C 0.6882 0.51807 0.95413 0.0
C393 C 0.7148 0.51574 0.98578 0.0
C394 C 0.64701 0.48679 0.13866 0.0
C395 C 0.68423 0.52972 0.86663 0.0
C396 C 0.60533 0.48247 0.87422 0.0
C397 C 0.58804 0.50536 0.87608 0.0
C398 C 0.63038 0.48288 0.91721 0.0
C399 C 0.63817 0.50661 0.96418 0.0
C400 C 0.62041 0.52943 0.96884 0.0
C401 C 0.59561 0.52862 0.92412 0.0
C402 C 0.64893 0.45824 0.90999 0.0
C403 C 0.62789 0.55489 0.01942 0.0
H404 H 0.70128 0.4853 0.17464 0.0
H405 H 0.73212 0.52269 0.94817 0.0
H406 H 0.63025 0.50206 0.14053 0.0
H407 H 0.63847 0.46749 0.11087 0.0
H408 H 0.6536 0.48245 0.2044 0.0
H409 H 0.70356 0.53833 0.83972 0.0
H410 H 0.67651 0.51322 0.82373 0.0
H411 H 0.66869 0.54622 0.86792 0.0
H412 H 0.59964 0.46442 0.83728 0.0
H413 H 0.5822 0.54627 0.92661 0.0
H414 H 0.65426 0.45058 0.97378 0.0
H415 H 0.66835 0.46441 0.87826 0.0
H416 H 0.63939 0.44103 0.87349 0.0
H417 H 0.63383 0.54911 0.08461 0.0
H418 H 0.61078 0.56976 0.02295 0.0
H419 H 0.64586 0.56539 0.99015 0.0
C420 C 0.03837 0.6882 0.05432 0.0
C421 C 0.01576 0.70307 0.08263 0.0
C422 C 0.03484 0.66404 0.00648 0.0
C423 C 0.00799 0.65464 0.98697 0.0
C424 C 0.98505 0.66921 0.01778 0.0
C425 C 0.98924 0.6934 0.06515 0.0
C426 C 0.05981 0.64898 0.97504 0.0
C427 C 0.95614 0.65968 0.99879 0.0
C428 C 0.00152 0.60857 0.79339 0.0
C429 C 0.00148 0.58229 0.83004 0.0
C430 C 0.00289 0.63241 0.84398 0.0
C431 C 0.00406 0.62981 0.93308 0.0
C432 C 0.00288 0.6034 0.97049 0.0
C433 C 0.00165 0.57997 0.91855 0.0
C434 C 0.00412 0.66034 0.80203 0.0
C435 C 0.00389 0.59982 0.0653 0.0
H436 H 0.0588 0.69597 0.06811 0.0
H437 H 0.97186 0.70533 0.08615 0.0
H438 H 0.05915 0.62724 0.99669 0.0
H439 H 0.05996 0.64862 0.90489 0.0
H440 H 0.07921 0.65873 0.99735 0.0
H441 H 0.9406 0.67254 0.03124 0.0
H442 H 0.95247 0.66052 0.92967 0.0
H443 H 0.95317 0.63791 0.01855 0.0
H444 H 0.00142 0.61053 0.72514 0.0
H445 H 0.00136 0.55973 0.94755 0.0
H446 H 0.02416 0.67047 0.81554 0.0
H447 H 0.98796 0.67385 0.82812 0.0
H448 H 0.00153 0.6589 0.73238 0.0
H449 H 0.02413 0.60688 0.08935 0.0
H450 H 0.0006 0.578 0.0845 0.0
H451 H 0.9881 0.61268 0.09636 0.0
C452 C 0.99517 0.17529 0.21762 0.0
C453 C 0.01806 0.18484 0.26248 0.0
C454 C 0.98098 0.15138 0.24352 0.0
C455 C 0.99049 0.13668 0.31464 0.0
C456 C 0.014 0.14623 0.35897 0.0
C457 C 0.02727 0.17045 0.3328 0.0
C458 C 0.95563 0.14225 0.19622 0.0
C459 C 0.02528 0.13081 0.43384 0.0
C460 C 0.9527 0.08833 0.45996 0.0
C461 C 0.9646 0.0632 0.43704 0.0
C462 C 0.9582 0.11234 0.41337 0.0
C463 C 0.97646 0.11111 0.34381 0.0
C464 C 0.98575 0.08525 0.3145 0.0
C465 C 0.97935 0.06147 0.36092 0.0
C466 C 0.94701 0.13944 0.44447 0.0
C467 C 0.00533 0.08302 0.24079 0.0
H468 H 0.98827 0.1868 0.16324 0.0
H469 H 0.04518 0.17808 0.36627 0.0
H470 H 0.9566 0.12 0.17993 0.0
H471 H 0.9374 0.14503 0.23729 0.0
H472 H 0.95269 0.15421 0.13723 0.0
H473 H 0.04434 0.14052 0.45893 0.0
H474 H 0.00985 0.1301 0.48541 0.0
H475 H 0.02979 0.1092 0.41555 0.0
H476 H 0.94081 0.08971 0.51782 0.0
H477 H 0.98839 0.04207 0.34205 0.0
H478 H 0.94115 0.15273 0.39066 0.0
H479 H 0.96308 0.1506 0.48104 0.0
H480 H 0.92891 0.13635 0.48625 0.0
H481 H 0.02591 0.09055 0.26064 0.0
H482 H 0.99863 0.09606 0.18754 0.0
H483 H 0.00725 0.06142 0.21796 0.0
C484 C 0.31505 0.00433 0.32909 0.0
C485 C 0.30365 0.99108 0.25891 0.0
C486 C 0.34063 0.99662 0.35997 0.0
C487 C 0.35482 0.97473 0.32022 0.0
C488 C 0.34332 0.96132 0.24872 0.0
C489 C 0.31778 0.96987 0.21834 0.0
C490 C 0.35244 0.01196 0.43508 0.0
C491 C 0.35762 0.93767 0.20563 0.0
C492 C 0.42969 0.97809 0.37599 0.0
C493 C 0.42972 0.96314 0.45184 0.0
C494 C 0.40582 0.98015 0.32763 0.0
C495 C 0.38167 0.96637 0.35478 0.0
C496 C 0.38254 0.94854 0.42538 0.0
C497 C 0.40653 0.94733 0.47375 0.0
C498 C 0.40573 -0.00052 0.25303 0.0
C499 C 0.35739 0.93283 0.45466 0.0
H500 H 0.30386 0.0209 0.35907 0.0
H501 H 0.30863 0.95989 0.1637 0.0
H502 H 0.3552 0.99755 0.48863 0.0
H503 H 0.37292 0.02065 0.41882 0.0
H504 H 0.33914 0.02908 0.4565 0.0
H505 H 0.37926 0.94323 0.1915 0.0
H506 H 0.35785 0.91965 0.24866 0.0
H507 H 0.34734 0.93142 0.14585 0.0
H508 H 0.44759 0.99019 0.358 0.0
H509 H 0.40655 0.93535 0.5315 0.0
H510 H 0.39424 0.01833 0.27008 0.0
H511 H 0.39526 0.98975 0.19832 0.0
H512 H 0.42678 0.00575 0.23345 0.0
H513 H 0.34323 0.94722 0.4869 0.0
H514 H 0.36262 0.91616 0.49966 0.0
H515 H 0.34631 0.92362 0.40007 0.0
C516 C 0.50188 0.32626 0.27476 0.0
C517 C 0.524 0.31021 0.2493 0.0
C518 C 0.50618 0.35214 0.31203 0.0
C519 C 0.53332 0.36214 0.3233 0.0
C520 C 0.55566 0.34675 0.29191 0.0
C521 C 0.55072 0.32063 0.25605 0.0
C522 C 0.48174 0.36799 0.3438 0.0
C523 C 0.58472 0.35743 0.29916 0.0
C524 C 0.5342 0.4361 0.40102 0.0
C525 C 0.53516 0.43213 0.48881 0.0
C526 C 0.53603 0.41364 0.34502 0.0
C527 C 0.5381 0.38664 0.37802 0.0
C528 C 0.54096 0.38277 0.46621 0.0
C529 C 0.53983 0.40561 0.52039 0.0
C530 C 0.53379 0.41883 0.25128 0.0
C531 C 0.5428 0.35428 0.50421 0.0
H532 H 0.48129 0.31789 0.2687 0.0
H533 H 0.56763 0.30805 0.23484 0.0
H534 H 0.48284 0.37014 0.41361 0.0
H535 H 0.48189 0.38905 0.31671 0.0
H536 H 0.46201 0.3577 0.32718 0.0
H537 H 0.5992 0.34501 0.2608 0.0
H538 H 0.58602 0.37926 0.2784 0.0
H539 H 0.59132 0.35679 0.36616 0.0
H540 H 0.53093 0.4566 0.37602 0.0
H541 H 0.54069 0.40233 0.58809 0.0
H542 H 0.54223 0.43951 0.23472 0.0
H543 H 0.51188 0.41834 0.23292 0.0
H544 H 0.54465 0.40297 0.21357 0.0
H545 H 0.52324 0.34287 0.49347 0.0
H546 H 0.5468 0.35496 0.5733 0.0
H547 H 0.5593 0.34238 0.47321 0.0
C548 C 0.18585 0.58079 0.23366 0.0
C549 C 0.19681 0.55447 0.22303 0.0
C550 C 0.15917 0.584 0.26562 0.0
C551 C 0.1436 0.56029 0.28831 0.0
C552 C 0.15404 0.53367 0.27134 0.0
C553 C 0.18061 0.53114 0.23933 0.0
C554 C 0.14841 0.61266 0.28026 0.0
C555 C 0.13814 0.50776 0.29373 0.0
C556 C 0.10149 0.55503 0.48607 0.0
C557 C 0.0754 0.54978 0.45305 0.0
C558 C 0.12354 0.56154 0.43303 0.0
C559 C 0.11932 0.56262 0.34456 0.0
C560 C 0.09237 0.56033 0.31177 0.0
C561 C 0.07054 0.55377 0.36681 0.0
C562 C 0.15184 0.56398 0.47113 0.0
C563 C 0.08691 0.56205 0.21814 0.0
H564 H 0.19856 0.59872 0.22003 0.0
H565 H 0.18939 0.51087 0.23125 0.0
H566 H 0.12632 0.61367 0.26423 0.0
H567 H 0.15059 0.61816 0.34807 0.0
H568 H 0.15986 0.62826 0.24238 0.0
H569 H 0.14806 0.48887 0.26887 0.0
H570 H 0.1365 0.506 0.36352 0.0
H571 H 0.11705 0.50864 0.26813 0.0
H572 H 0.10506 0.55195 0.55305 0.0
H573 H 0.0503 0.54955 0.34145 0.0
H574 H 0.16301 0.58214 0.44527 0.0
H575 H 0.16379 0.54536 0.45468 0.0
H576 H 0.15114 0.5659 0.54112 0.0
H577 H 0.06552 0.56843 0.20564 0.0
H578 H 0.08984 0.54144 0.189 0.0
H579 H 0.10122 0.57678 0.18678 0.0
C580 C 0.00983 0.81952 0.10144 0.0
C581 C 0.03246 0.80261 0.11343 0.0
C582 C 0.01286 0.84556 0.0645 0.0
C583 C 0.0392 0.85469 0.03814 0.0
C584 C 0.06241 0.83844 0.05567 0.0
C585 C 0.05872 0.81241 0.09303 0.0
C586 C 0.98755 0.86222 0.04718 0.0
C587 C 0.09081 0.84757 0.02929 0.0
C588 C 0.03291 0.89601 0.83834 0.0
C589 C 0.03323 0.92302 0.86957 0.0
C590 C 0.03716 0.87363 0.89196 0.0
C591 C 0.04134 0.87845 0.97939 0.0
C592 C 0.04353 0.90588 0.01034 0.0
C593 C 0.03948 0.92802 0.95459 0.0
C594 C 0.03486 0.84475 0.85602 0.0
C595 C 0.04804 0.91179 0.10301 0.0
H596 H 0.98953 0.81162 0.1163 0.0
H597 H 0.07612 0.79913 0.10284 0.0
H598 H 0.98378 0.86288 0.97806 0.0
H599 H 0.96903 0.85338 0.07843 0.0
H600 H 0.99051 0.88379 0.06936 0.0
H601 H 0.1069 0.83545 0.06136 0.0
H602 H 0.09316 0.84473 0.96001 0.0
H603 H 0.09418 0.86979 0.04339 0.0
H604 H 0.02797 0.89234 0.77237 0.0
H605 H 0.03941 0.94902 0.97849 0.0
H606 H 0.01571 0.83474 0.87925 0.0
H607 H 0.05224 0.83203 0.87734 0.0
H608 H 0.03448 0.84465 0.78578 0.0
H609 H 0.02863 0.90807 0.1381 0.0
H610 H 0.05464 0.93352 0.1141 0.0
H611 H 0.06364 0.89783 0.12963 0.0
C612 C 0.67142 0.0183 0.10501 0.0
C613 C 0.68788 0.04139 0.12253 0.0
C614 C 0.64532 0.02119 0.07012 0.0
C615 C 0.63573 0.0479 0.05077 0.0
C616 C 0.65159 0.07142 0.07363 0.0
C617 C 0.67764 0.06785 0.1094 0.0
C618 C 0.62899 0.99552 0.04786 0.0
C619 C 0.64189 0.10019 0.0552 0.0
C620 C 0.5938 0.04364 0.85198 0.0
C621 C 0.5672 0.04141 0.88444 0.0
C622 C 0.61615 0.04837 0.90535 0.0
C623 C 0.61177 0.05046 0.99369 0.0
C624 C 0.58465 0.05044 0.02615 0.0
C625 C 0.56251 0.0459 0.97071 0.0
C626 C 0.64466 0.0485 0.86772 0.0
C627 C 0.57909 0.05277 0.11975 0.0
H628 H 0.67962 0.99789 0.11465 0.0
H629 H 0.69048 0.08562 0.12404 0.0
H630 H 0.60757 0.99733 0.07059 0.0
H631 H 0.62835 0.99301 0.97811 0.0
H632 H 0.63797 0.97664 0.0755 0.0
H633 H 0.65401 0.11607 0.09011 0.0
H634 H 0.64394 0.10431 0.9865 0.0
H635 H 0.61993 0.10231 0.07205 0.0
H636 H 0.59725 0.04008 0.78504 0.0
H637 H 0.54187 0.04386 0.99562 0.0
H638 H 0.6552 0.02919 0.88529 0.0
H639 H 0.65696 0.06603 0.89307 0.0
H640 H 0.64434 0.04994 0.79764 0.0
H641 H 0.58164 0.03225 0.14938 0.0
H642 H 0.55785 0.05968 0.13247 0.0
H643 H 0.5937 0.06733 0.15058 0.0
C644 C 0.43445 0.68261 0.14549 0.0
C645 C 0.46128 0.69241 0.15647 0.0
C646 C 0.42944 0.65641 0.10994 0.0
C647 C 0.45188 0.63995 0.08515 0.0
C648 C 0.47897 0.64903 0.10285 0.0
C649 C 0.4833 0.67529 0.13752 0.0
C650 C 0.4003 0.64724 0.09346 0.0
C651 C 0.50354 0.63204 0.07862 0.0
C652 C 0.45075 0.56661 0.00113 0.0
C653 C 0.45511 0.57166 0.91504 0.0
C654 C 0.4471 0.5887 0.05793 0.0
C655 C 0.44788 0.61612 0.02699 0.0
C656 C 0.44968 0.62088 0.93883 0.0
C657 C 0.45351 0.59855 0.88407 0.0
C658 C 0.44492 0.58275 0.15127 0.0
C659 C 0.45031 0.64972 0.90279 0.0
H660 H 0.41752 0.69594 0.16137 0.0
H661 H 0.50401 0.68315 0.14559 0.0
H662 H 0.39561 0.64987 0.02538 0.0
H663 H 0.39742 0.62506 0.10868 0.0
H664 H 0.38542 0.65949 0.13082 0.0
H665 H 0.52288 0.64064 0.10534 0.0
H666 H 0.50089 0.6105 0.10089 0.0
H667 H 0.50554 0.63141 0.00872 0.0
H668 H 0.45223 0.54571 0.02481 0.0
H669 H 0.45693 0.60227 0.81723 0.0
H670 H 0.43711 0.56147 0.16292 0.0
H671 H 0.4313 0.59763 0.1836 0.0
H672 H 0.46554 0.58469 0.18023 0.0
H673 H 0.4484 0.64967 0.8328 0.0
H674 H 0.46998 0.66006 0.91971 0.0
H675 H 0.43352 0.66221 0.92985 0.0
C676 C 0.83036 0.45384 0.0898 0.0
C677 C 0.816 0.47473 0.04914 0.0
C678 C 0.85578 0.44507 0.05831 0.0
C679 C 0.8671 0.45812 0.98597 0.0
C680 C 0.85246 0.47933 0.94513 0.0
C681 C 0.82691 0.4871 0.97679 0.0
C682 C 0.87052 0.42205 0.10233 0.0
C683 C 0.86412 0.49444 0.8695 0.0
C684 C 0.94258 0.46566 0.94138 0.0
C685 C 0.94481 0.4511 0.86477 0.0
C686 C 0.9178 0.46627 0.98601 0.0
C687 C 0.89495 0.45122 0.95486 0.0
C688 C 0.89811 0.43363 0.88389 0.0
C689 C 0.92296 0.43404 0.8388 0.0
C690 C 0.91534 0.48578 0.06018 0.0
C691 C 0.87451 0.41634 0.85097 0.0
H692 H 0.82161 0.44446 0.14596 0.0
H693 H 0.81566 0.50352 0.94674 0.0
H694 H 0.87381 0.40477 0.05734 0.0
H695 H 0.89103 0.42925 0.12368 0.0
H696 H 0.85895 0.41415 0.15795 0.0
H697 H 0.8502 0.51068 0.84614 0.0
H698 H 0.88404 0.50426 0.88632 0.0
H699 H 0.86798 0.4797 0.81714 0.0
H700 H 0.95939 0.47871 0.96276 0.0
H701 H 0.92463 0.42234 0.7805 0.0
H702 H 0.90269 0.47663 0.11127 0.0
H703 H 0.90508 0.50485 0.03896 0.0
H704 H 0.93568 0.49165 0.08651 0.0
H705 H 0.88164 0.3997 0.80801 0.0
H706 H 0.86032 0.42965 0.81523 0.0
H707 H 0.86277 0.40693 0.90391 0.0
C708 C 0.05958 0.1652 0.12983 0.0
C709 C 0.05075 0.19119 0.10392 0.0
C710 C 0.05775 0.14235 0.07563 0.0
C711 C 0.04794 0.14597 0.99234 0.0
C712 C 0.04154 0.17277 0.96341 0.0
C713 C 0.04267 0.19509 0.02016 0.0
C714 C 0.06433 0.11411 0.10955 0.0
C715 C 0.03171 0.17757 0.87437 0.0
C716 C 0.05259 0.08512 0.84057 0.0
C717 C 0.02565 0.07479 0.84331 0.0
C718 C 0.06019 0.10864 0.88766 0.0
C719 C 0.04055 0.12143 0.94038 0.0
C720 C 0.01351 0.11058 0.94482 0.0
C721 C 0.0063 0.08767 0.89516 0.0
C722 C 0.08893 0.12016 0.87951 0.0
C723 C 0.99207 0.12324 0.00161 0.0
H724 H 0.06642 0.16253 0.19435 0.0
H725 H 0.03583 0.21525 0.00051 0.0
H726 H 0.04612 0.1003 0.10391 0.0
H727 H 0.08098 0.10477 0.07168 0.0
H728 H 0.07074 0.1148 0.17689 0.0
H729 H 0.03245 0.1998 0.85742 0.0
H730 H 0.04428 0.16588 0.8283 0.0
H731 H 0.01023 0.17011 0.86831 0.0
H732 H 0.06748 0.07531 0.7997 0.0
H733 H 0.98548 0.07961 0.89763 0.0
H734 H 0.09912 0.12049 0.94207 0.0
H735 H 0.08822 0.14181 0.85707 0.0
H736 H 0.10163 0.108 0.83484 0.0
H737 H 0.0005 0.12722 0.06559 0.0
H738 H 0.97353 0.10986 0.0078 0.0
H739 H 0.98578 0.14338 0.97536 0.0
C740 C 0.2935 0.01559 0.01793 0.0
C741 C 0.29425 0.02383 0.10269 0.0
C742 C 0.31645 0.01939 0.96542 0.0
C743 C 0.34083 0.03097 0.99962 0.0
C744 C 0.34096 0.04104 0.08376 0.0
C745 C 0.31739 0.03782 0.13373 0.0
C746 C 0.31525 0.00905 0.87539 0.0
C747 C 0.36659 0.05313 0.12309 0.0
C748 C 0.40553 -0.00046 0.9118 0.0
C749 C 0.41578 0.02062 0.85984 0.0
C750 C 0.38163 0.0031 0.95938 0.0
C751 C 0.3671 0.02811 0.9529 0.0
C752 C 0.37749 0.04967 0.90127 0.0
C753 C 0.40203 0.0458 0.85604 0.0
C754 C 0.3716 0.97968 0.01475 0.0
C755 C 0.36214 0.07628 0.89102 0.0
H756 H 0.27557 0.00471 0.99424 0.0
H757 H 0.31753 0.04477 0.19888 0.0
H758 H 0.32546 0.0239 0.83198 0.0
H759 H 0.32626 0.98921 0.87046 0.0
H760 H 0.29381 0.00557 0.85405 0.0
H761 H 0.3635 0.05902 0.19038 0.0
H762 H 0.38342 0.03799 0.11946 0.0
H763 H 0.37336 0.07167 0.08749 0.0
H764 H 0.41625 0.9801 0.91511 0.0
H765 H 0.40983 0.06198 0.81507 0.0
H766 H 0.36462 0.98748 0.0771 0.0
H767 H 0.38769 0.96406 0.02522 0.0
H768 H 0.35381 0.96928 0.98424 0.0
H769 H 0.37377 0.09162 0.85265 0.0
H770 H 0.35754 0.08551 0.95363 0.0
H771 H 0.34222 0.07196 0.85965 0.0
C772 C 0.46567 0.3003 0.08345 0.0
C773 C 0.49369 0.29555 0.09378 0.0
C774 C 0.45664 0.32289 0.03597 0.0
C775 C 0.4762 0.34107 0.99917 0.0
C776 C 0.50452 0.33554 0.00691 0.0
C777 C 0.51285 0.31276 0.05387 0.0
C778 C 0.42633 0.32803 0.02861 0.0
C779 C 0.52613 0.35439 0.96905 0.0
C780 C 0.46464 0.39232 0.82439 0.0
C781 C 0.46576 0.41721 0.86937 0.0
C782 C 0.46521 0.36697 0.86671 0.0
C783 C 0.46768 0.36672 0.95584 0.0
C784 C 0.46675 0.39187 0.00183 0.0
C785 C 0.46571 0.41695 0.95776 0.0
C786 C 0.46584 0.34064 0.81549 0.0
C787 C 0.46955 0.39244 0.09692 0.0
H788 H 0.45097 0.28717 0.11601 0.0
H789 H 0.53448 0.30893 0.06281 0.0
H790 H 0.42088 0.34633 0.06718 0.0
H791 H 0.42079 0.33256 0.96215 0.0
H792 H 0.41386 0.31013 0.05082 0.0
H793 H 0.54719 0.34648 0.97817 0.0
H794 H 0.52253 0.35695 0.90033 0.0
H795 H 0.52493 0.37513 0.99874 0.0
H796 H 0.46504 0.39271 0.75583 0.0
H797 H 0.46707 0.43633 0.99208 0.0
H798 H 0.45277 0.32445 0.84509 0.0
H799 H 0.48711 0.33283 0.81338 0.0
H800 H 0.45885 0.3439 0.74953 0.0
H801 H 0.45524 0.37732 0.12635 0.0
H802 H 0.46553 0.41321 0.1238 0.0
H803 H 0.49063 0.3864 0.11461 0.0
C804 C 0.21262 0.49608 0.06568 0.0
C805 C 0.2164 0.52468 0.07208 0.0
C806 C 0.19155 0.48486 0.01559 0.0
C807 C 0.17408 0.50282 0.97124 0.0
C808 C 0.17882 0.5317 0.97437 0.0
C809 C 0.19992 0.54227 0.02522 0.0
C810 C 0.18697 0.45402 0.01446 0.0
C811 C 0.1607 0.55155 0.92775 0.0
C812 C 0.12655 0.47996 0.79522 0.0
C813 C 0.10098 0.48084 0.83605 0.0
C814 C 0.15084 0.48549 0.83957 0.0
C815 C 0.14951 0.4919 0.92676 0.0
C816 C 0.12403 0.49076 0.96968 0.0
C817 C 0.10005 0.48523 0.92377 0.0
C818 C 0.17768 0.48642 0.79186 0.0
C819 C 0.12189 0.49717 0.06306 0.0
H820 H 0.22501 0.48264 0.10406 0.0
H821 H 0.2029 0.56438 0.03155 0.0
H822 H 0.16816 0.44884 0.05094 0.0
H823 H 0.18381 0.44647 0.94887 0.0
H824 H 0.20442 0.44283 0.0427 0.0
H825 H 0.15893 0.54544 0.8603 0.0
H826 H 0.13979 0.55092 0.95541 0.0
H827 H 0.16859 0.57313 0.93116 0.0
H828 H 0.12754 0.47642 0.72757 0.0
H829 H 0.08044 0.48571 0.95609 0.0
H830 H 0.19367 0.47505 0.82663 0.0
H831 H 0.18481 0.50817 0.78619 0.0
H832 H 0.17576 0.47751 0.72729 0.0
H833 H 0.13694 0.48497 0.09914 0.0
H834 H 0.10107 0.49278 0.08858 0.0
H835 H 0.12682 0.5193 0.07424 0.0
C836 C 0.97522 0.78751 0.28007 0.0
C837 C 0.00345 0.78419 0.26922 0.0
C838 C 0.96508 0.80901 0.33042 0.0
C839 C 0.98376 0.82736 0.37056 0.0
C840 C 0.01232 0.82288 0.36373 0.0
C841 C 0.02179 0.80137 0.31264 0.0
C842 C 0.93455 0.81321 0.33571 0.0
C843 C 0.03295 0.84185 0.40595 0.0
C844 C 0.96957 0.90281 0.4071 0.0
C845 C 0.96686 0.9038 0.49535 0.0
C846 C 0.97309 0.87765 0.36482 0.0
C847 C 0.974 0.85293 0.41206 0.0
C848 C 0.96903 0.85353 0.50019 0.0
C849 C 0.96539 0.87901 0.54088 0.0
C850 C 0.97793 0.87778 0.27041 0.0
C851 C 0.9698 0.82757 0.55254 0.0
H852 H 0.96117 0.7744 0.24476 0.0
H853 H 0.0436 0.79863 0.30327 0.0
H854 H 0.92819 0.81777 0.40164 0.0
H855 H 0.92893 0.83119 0.29645 0.0
H856 H 0.92287 0.79487 0.31269 0.0
H857 H 0.05414 0.83386 0.4014 0.0
H858 H 0.0325 0.86244 0.37554 0.0
H859 H 0.02768 0.84473 0.47366 0.0
H860 H 0.9704 0.92184 0.37134 0.0
H861 H 0.96327 0.87955 0.60911 0.0
H862 H -0.0004 0.87263 0.25682 0.0
H863 H 0.97358 0.89816 0.24179 0.0
H864 H 0.9649 0.86187 0.23919 0.0
H865 H 0.95813 0.81062 0.52134 0.0
H866 H 0.96133 0.83083 0.61703 0.0
H867 H 0.99134 0.82078 0.55859 0.0
C868 C 0.70051 0.98272 0.27987 0.0
C869 C 0.70539 0.01119 0.27472 0.0
C870 C 0.67883 0.97223 0.32897 0.0
C871 C 0.66181 0.99079 0.37341 0.0
C872 C 0.66768 0.01949 0.37167 0.0
C873 C 0.68938 0.02932 0.32184 0.0
C874 C 0.67308 0.94157 0.32874 0.0
C875 C 0.65007 0.03997 0.41836 0.0
C876 C 0.58662 0.97756 0.41376 0.0
C877 C 0.58629 0.97352 0.50156 0.0
C878 C 0.61137 0.98125 0.36998 0.0
C879 C 0.63634 0.98088 0.4152 0.0
C880 C 0.6363 0.97451 0.50238 0.0
C881 C 0.61123 0.9708 0.54461 0.0
C882 C 0.61065 0.98762 0.27653 0.0
C883 C 0.66257 0.97382 0.55244 0.0
H884 H 0.7126 0.96887 0.24137 0.0
H885 H 0.69323 0.05132 0.31648 0.0
H886 H 0.66865 0.93411 0.39364 0.0
H887 H 0.65469 0.93712 0.2897 0.0
H888 H 0.69051 0.92974 0.30236 0.0
H889 H 0.65889 0.0612 0.41659 0.0
H890 H 0.62939 0.04035 0.38943 0.0
H891 H 0.64748 0.03374 0.48535 0.0
H892 H 0.56747 0.97933 0.37977 0.0
H893 H 0.61121 0.96755 0.61238 0.0
H894 H 0.62552 0.97467 0.24172 0.0
H895 H 0.61671 0.0095 0.26617 0.0
H896 H 0.58997 0.98418 0.24898 0.0
H897 H 0.67845 0.96199 0.51806 0.0
H898 H 0.65948 0.96453 0.61592 0.0
H899 H 0.67056 0.99518 0.56093 0.0
C900 C 0.47489 0.69465 0.35418 0.0
C901 C 0.49337 0.71012 0.30572 0.0
C902 C 0.48384 0.67261 0.40335 0.0
C903 C 0.51201 0.66586 0.4032 0.0
C904 C 0.531 0.68239 0.35758 0.0
C905 C 0.52139 0.70443 0.3091 0.0
C906 C 0.4629 0.65556 0.45126 0.0
C907 C 0.56111 0.67572 0.35536 0.0
C908 C 0.52992 0.6147 0.57359 0.0
C909 C 0.52557 0.58958 0.53085 0.0
C910 C 0.52753 0.63995 0.53136 0.0
C911 C 0.52075 0.64001 0.44449 0.0
C912 C 0.51873 0.61478 0.39944 0.0
C913 C 0.5212 0.58985 0.44318 0.0
C914 C 0.53006 0.66648 0.58121 0.0
C915 C 0.51183 0.61403 0.30634 0.0
H916 H 0.45323 0.69912 0.35019 0.0
H917 H 0.53548 0.71609 0.2696 0.0
H918 H 0.46939 0.65292 0.51788 0.0
H919 H 0.44229 0.66502 0.45071 0.0
H920 H 0.46126 0.63469 0.4224 0.0
H921 H 0.57359 0.69295 0.32871 0.0
H922 H 0.56871 0.67098 0.41966 0.0
H923 H 0.56428 0.65713 0.31554 0.0
H924 H 0.53351 0.61475 0.64119 0.0
H925 H 0.51815 0.57057 0.40932 0.0
H926 H 0.50938 0.67526 0.59084 0.0
H927 H 0.54249 0.68197 0.54607 0.0
H928 H 0.53949 0.66321 0.64416 0.0
H929 H 0.49036 0.62067 0.29712 0.0
H930 H 0.51404 0.59307 0.27865 0.0
H931 H 0.52522 0.62859 0.27084 0.0
C932 C 0.80737 0.49629 0.29682 0.0
C933 C 0.80898 0.50497 0.21278 0.0
C934 C 0.82984 0.49966 0.35125 0.0
C935 C 0.85448 0.5116 0.31998 0.0
C936 C 0.8556 0.5217 0.23616 0.0
C937 C 0.83264 0.51855 0.18387 0.0
C938 C 0.82764 0.48916 0.44075 0.0
C939 C 0.88144 0.53459 0.2004 0.0
C940 C 0.91264 0.53102 0.46951 0.0
C941 C 0.92831 0.50698 0.46738 0.0
C942 C 0.8883 0.53283 0.4226 0.0
C943 C 0.87997 0.51034 0.37091 0.0
C944 C 0.89615 0.48632 0.367 0.0
C945 C 0.91989 0.4848 0.41615 0.0
C946 C 0.87114 0.55843 0.43008 0.0
C947 C 0.88822 0.46195 0.31193 0.0
H948 H 0.78891 0.48588 0.31871 0.0
H949 H 0.83343 0.52584 0.11924 0.0
H950 H 0.83967 0.47001 0.44697 0.0
H951 H 0.83629 0.50453 0.48584 0.0
H952 H 0.80608 0.48449 0.459 0.0
H953 H 0.87936 0.53989 0.13246 0.0
H954 H 0.88668 0.55367 0.23598 0.0
H955 H 0.89885 0.5203 0.20767 0.0
H956 H 0.91896 0.54807 0.5098 0.0
H957 H 0.93201 0.46621 0.41406 0.0
H958 H 0.85046 0.55284 0.4544 0.0
H959 H 0.86832 0.56786 0.36701 0.0
H960 H 0.88048 0.57408 0.47301 0.0
H961 H 0.87049 0.45092 0.34069 0.0
H962 H 0.90524 0.4471 0.30461 0.0
H963 H 0.88186 0.46884 0.24825 0.0
loop_
_geom_bond_atom_site_label_1
_geom_bond_atom_site_label_2
_geom_bond_distance
_geom_bond_site_symmetry_2
_ccdc_geom_bond_type
C0 N1 1.317 . S
C0 N2 1.348 1_554 S
C0 C3 1.485 . S
N1 C0 1.317 . S
N1 N5 1.370 1_554 S
N2 C0 1.348 1_556 S
N2 C4 1.346 . S
C3 C0 1.485 . S
C3 H7 0.960 . S
C3 H8 0.961 . S
C3 H9 0.960 . S
C4 N2 1.346 . S
C4 N5 1.307 . S
C4 C6 1.486 . S
N5 N1 1.370 1_556 S
N5 C4 1.307 . S
C6 C4 1.486 . S
C6 H10 0.960 . S
C6 H11 0.960 . S
C6 H12 0.959 . S
H7 C3 0.960 . S
H8 C3 0.961 . S
H9 C3 0.960 . S
H10 C6 0.960 . S
H11 C6 0.960 . S
H12 C6 0.959 . S
C13 N14 1.317 . S
C13 N15 1.348 . S
C13 C16 1.485 . S
N14 C13 1.317 . S
N14 N18 1.371 1_655 S
N15 C13 1.348 . S
N15 C17 1.346 . S
C16 C13 1.485 . S
C16 H20 0.960 1_655 S
C16 H21 0.961 . S
C16 H22 0.960 . S
C17 N15 1.346 . S
C17 N18 1.307 1_655 S
C17 C19 1.486 1_654 S
N18 N14 1.371 1_455 S
N18 C17 1.307 1_455 S
C19 C17 1.486 1_456 S
C19 H23 0.934 1_455 S
C19 H24 0.981 . S
C19 H25 0.965 . S
H20 C16 0.960 1_455 S
H21 C16 0.961 . S
H22 C16 0.960 . S
H23 C19 0.934 1_655 S
H24 C19 0.981 . S
H25 C19 0.965 . S
C26 N27 1.317 . S
C26 N28 1.348 . S
C26 C29 1.485 . S
N27 C26 1.317 . S
N27 N31 1.371 . S
N28 C26 1.348 . S
N28 C30 1.346 1_564 S
C29 C26 1.485 . S
C29 H33 0.960 1_565 S
C29 H34 0.961 . S
C29 H35 0.960 . S
C30 N28 1.346 1_546 S
C30 N31 1.307 1_546 S
C30 C32 1.485 . S
N31 N27 1.371 . S
N31 C30 1.307 1_564 S
C32 C30 1.485 . S
C32 H36 0.928 1_545 S
C32 H37 0.986 . S
C32 H38 0.967 . S
H33 C29 0.960 1_545 S
H34 C29 0.961 . S
H35 C29 0.960 . S
H36 C32 0.928 1_565 S
H37 C32 0.986 . S
H38 C32 0.967 . S
C39 N40 1.317 . S
C39 N41 1.348 . S
C39 C42 1.485 . S
N40 C39 1.317 . S
N40 N44 1.370 . S
N41 C39 1.348 . S
N41 C43 1.346 1_554 S
C42 C39 1.485 . S
C42 H46 0.960 . S
C42 H47 0.961 . S
C42 H48 0.960 . S
C43 N41 1.346 1_556 S
C43 N44 1.307 1_556 S
C43 C45 1.486 . S
N44 N40 1.370 . S
N44 C43 1.307 1_554 S
C45 C43 1.486 . S
C45 H49 0.960 . S
C45 H50 0.960 . S
C45 H51 0.959 . S
H46 C42 0.960 . S
H47 C42 0.961 . S
H48 C42 0.960 . S
H49 C45 0.960 . S
H50 C45 0.960 . S
H51 C45 0.959 . S
C52 N53 1.317 . S
C52 N54 1.348 . S
C52 C55 1.485 . S
N53 C52 1.317 . S
N53 N57 1.370 . S
N54 C52 1.348 . S
N54 C56 1.346 . S
C55 C52 1.485 . S
C55 H59 0.960 . S
C55 H60 0.961 . S
C55 H61 0.960 . S
C56 N54 1.346 . S
C56 N57 1.307 . S
C56 C58 1.486 . S
N57 N53 1.370 . S
N57 C56 1.307 . S
C58 C56 1.486 . S
C58 H62 0.960 . S
C58 H63 0.960 . S
C58 H64 0.959 . S
H59 C55 0.960 . S
H60 C55 0.961 . S
H61 C55 0.960 . S
H62 C58 0.960 . S
H63 C58 0.960 . S
H64 C58 0.959 . S
C65 N66 1.317 . S
C65 N67 1.348 . S
C65 C68 1.485 . S
N66 C65 1.317 . S
N66 N70 1.370 . S
N67 C65 1.348 . S
N67 C69 1.346 . S
C68 C65 1.485 . S
C68 H72 0.960 . S
C68 H73 0.961 . S
C68 H74 0.960 . S
C69 N67 1.346 . S
C69 N70 1.307 . S
C69 C71 1.486 . S
N70 N66 1.370 . S
N70 C69 1.307 . S
C71 C69 1.486 . S
C71 H75 0.960 . S
C71 H76 0.960 . S
C71 H77 0.959 . S
H72 C68 0.960 . S
H73 C68 0.961 . S
H74 C68 0.960 . S
H75 C71 0.960 . S
H76 C71 0.960 . S
H77 C71 0.959 . S
C78 N79 1.317 . S
C78 N80 1.348 . S
C78 C81 1.485 . S
N79 C78 1.317 . S
N79 N83 1.370 . S
N80 C78 1.348 . S
N80 C82 1.346 . S
C81 C78 1.485 . S
C81 H85 0.960 . S
C81 H86 0.961 1_545 S
C81 H87 0.960 1_545 S
C82 N80 1.346 . S
C82 N83 1.307 . S
C82 C84 1.486 . S
N83 N79 1.370 . S
N83 C82 1.307 . S
C84 C82 1.486 . S
C84 H88 0.960 1_545 S
C84 H89 0.960 . S
C84 H90 0.959 . S
H85 C81 0.960 . S
H86 C81 0.961 1_565 S
H87 C81 0.960 1_565 S
H88 C84 0.960 1_565 S
H89 C84 0.960 . S
H90 C84 0.959 . S
C91 N92 1.317 . S
C91 N93 1.348 . S
C91 C94 1.485 . S
N92 C91 1.317 . S
N92 N96 1.370 . S
N93 C91 1.348 . S
N93 C95 1.346 . S
C94 C91 1.485 . S
C94 H98 0.960 . S
C94 H99 0.961 . S
C94 H100 0.960 . S
C95 N93 1.346 . S
C95 N96 1.307 . S
C95 C97 1.486 . S
N96 N92 1.370 . S
N96 C95 1.307 . S
C97 C95 1.486 . S
C97 H101 0.960 . S
C97 H102 0.960 . S
C97 H103 0.959 . S
H98 C94 0.960 . S
H99 C94 0.961 . S
H100 C94 0.960 . S
H101 C97 0.960 . S
H102 C97 0.960 . S
H103 C97 0.959 . S
O104 Zn105 1.953 . S
O104 C120 1.225 1_545 S
Zn105 O104 1.953 . S
Zn105 O106 1.948 1_545 S
Zn105 O112 1.919 . S
Zn105 O117 1.924 1_545 S
O106 Zn105 1.948 1_565 S
O106 Zn107 1.901 1_465 S
O106 Zn108 1.952 . S
O106 Zn109 1.966 1_455 S
Zn107 O106 1.901 1_645 S
Zn107 O110 1.933 . S
Zn107 O113 1.941 1_655 S
Zn107 O114 1.965 . S
Zn108 O106 1.952 . S
Zn108 O115 1.938 1_565 S
Zn108 O116 1.906 . S
Zn108 O126 1.953 . S
Zn109 O106 1.966 1_655 S
Zn109 O111 1.932 . S
Zn109 O118 1.977 . S
Zn109 O119 1.910 1_655 S
O110 Zn107 1.933 . S
O110 C121 1.226 . S
O111 Zn109 1.932 . S
O111 C121 1.307 1_565 S
O112 Zn105 1.919 . S
O112 C123 1.253 . S
O113 Zn107 1.941 1_455 S
O113 C123 1.283 . S
O114 Zn107 1.965 . S
O114 C122 1.303 1_655 S
O115 Zn108 1.938 1_545 S
O115 C122 1.247 . S
O116 Zn108 1.906 . S
O116 C124 1.304 1_455 S
O117 Zn105 1.924 1_565 S
O117 C125 1.311 . S
O118 Zn109 1.977 . S
O118 C124 1.272 . S
O119 Zn109 1.910 1_455 S
O119 C125 1.231 . S
C120 O104 1.225 1_565 S
C120 O126 1.298 . S
C121 O110 1.226 . S
C121 O111 1.307 1_545 S
C122 O114 1.303 1_455 S
C122 O115 1.247 . S
C123 O112 1.253 . S
C123 O113 1.283 . S
C124 O116 1.304 1_655 S
C124 O118 1.272 . S
C125 O117 1.311 . S
C125 O119 1.231 . S
O126 Zn108 1.953 . S
O126 C120 1.298 . S
O127 Zn128 1.953 . S
O127 C143 1.225 . S
Zn128 O127 1.953 . S
Zn128 O129 1.949 . S
Zn128 O135 1.919 . S
Zn128 O140 1.924 . S
O129 Zn128 1.949 . S
O129 Zn130 1.923 1_545 S
O129 Zn131 1.950 . S
O129 Zn132 1.945 1_545 S
Zn130 O129 1.923 1_565 S
Zn130 O133 1.933 . S
Zn130 O136 1.941 . S
Zn130 O137 1.965 . S
Zn131 O129 1.950 . S
Zn131 O138 1.938 . S
Zn131 O139 1.906 . S
Zn131 O149 1.953 . S
Zn132 O129 1.945 1_565 S
Zn132 O134 1.932 . S
Zn132 O141 1.977 . S
Zn132 O142 1.910 1_565 S
O133 Zn130 1.933 . S
O133 C144 1.226 . S
O134 Zn132 1.932 . S
O134 C144 1.307 . S
O135 Zn128 1.919 . S
O135 C146 1.253 . S
O136 Zn130 1.941 . S
O136 C146 1.283 1_565 S
O137 Zn130 1.965 . S
O137 C145 1.303 1_565 S
O138 Zn131 1.938 . S
O138 C145 1.247 . S
O139 Zn131 1.906 . S
O139 C147 1.304 1_545 S
O140 Zn128 1.924 . S
O140 C148 1.311 . S
O141 Zn132 1.977 . S
O141 C147 1.272 . S
O142 Zn132 1.910 1_545 S
O142 C148 1.231 . S
C143 O127 1.225 . S
C143 O149 1.298 . S
C144 O133 1.226 . S
C144 O134 1.307 . S
C145 O137 1.303 1_545 S
C145 O138 1.247 . S
C146 O135 1.253 . S
C146 O136 1.283 1_545 S
C147 O139 1.304 1_565 S
C147 O141 1.272 . S
C148 O140 1.311 . S
C148 O142 1.231 . S
O149 Zn131 1.953 . S
O149 C143 1.298 . S
O150 Zn151 1.953 . S
O150 C166 1.225 . S
Zn151 O150 1.953 . S
Zn151 O152 1.949 . S
Zn151 O158 1.919 . S
Zn151 O163 1.924 . S
O152 Zn151 1.949 . S
O152 Zn153 1.923 . S
O152 Zn154 1.950 . S
O152 Zn155 1.945 . S
Zn153 O152 1.923 . S
Zn153 O156 1.933 . S
Zn153 O159 1.941 . S
Zn153 O160 1.965 . S
Zn154 O152 1.950 . S
Zn154 O161 1.938 . S
Zn154 O162 1.906 . S
Zn154 O172 1.953 . S
Zn155 O152 1.945 . S
Zn155 O157 1.932 . S
Zn155 O164 1.977 . S
Zn155 O165 1.910 . S
O156 Zn153 1.933 . S
O156 C167 1.226 . S
O157 Zn155 1.932 . S
O157 C167 1.307 . S
O158 Zn151 1.919 . S
O158 C169 1.253 . S
O159 Zn153 1.941 . S
O159 C169 1.283 . S
O160 Zn153 1.965 . S
O160 C168 1.303 . S
O161 Zn154 1.938 . S
O161 C168 1.247 . S
O162 Zn154 1.906 . S
O162 C170 1.304 . S
O163 Zn151 1.924 . S
O163 C171 1.311 . S
O164 Zn155 1.977 . S
O164 C170 1.272 . S
O165 Zn155 1.910 . S
O165 C171 1.231 . S
C166 O150 1.225 . S
C166 O172 1.298 . S
C167 O156 1.226 . S
C167 O157 1.307 . S
C168 O160 1.303 . S
C168 O161 1.247 . S
C169 O158 1.253 . S
C169 O159 1.283 . S
C170 O162 1.304 . S
C170 O164 1.272 . S
C171 O163 1.311 . S
C171 O165 1.231 . S
O172 Zn154 1.953 . S
O172 C166 1.298 . S
O173 Zn174 1.927 1_655 S
O173 C189 1.225 . S
Zn174 O173 1.927 1_455 S
Zn174 O175 1.949 . S
Zn174 O181 1.919 . S
Zn174 O186 1.952 . S
O175 Zn174 1.949 . S
O175 Zn176 1.918 1_455 S
O175 Zn177 1.928 1_455 S
O175 Zn178 1.973 . S
Zn176 O175 1.918 1_655 S
Zn176 O179 1.933 1_655 S
Zn176 O182 1.941 . S
Zn176 O183 1.965 . S
Zn177 O175 1.928 1_655 S
Zn177 O184 1.938 . S
Zn177 O185 1.906 . S
Zn177 O195 1.953 . S
Zn178 O175 1.973 . S
Zn178 O180 1.932 . S
Zn178 O187 1.977 . S
Zn178 O188 1.910 . S
O179 Zn176 1.933 1_455 S
O179 C190 1.226 . S
O180 Zn178 1.932 . S
O180 C190 1.307 . S
O181 Zn174 1.919 . S
O181 C192 1.253 . S
O182 Zn176 1.941 . S
O182 C192 1.282 1_655 S
O183 Zn176 1.965 . S
O183 C191 1.303 . S
O184 Zn177 1.938 . S
O184 C191 1.247 . S
O185 Zn177 1.906 . S
O185 C193 1.304 1_655 S
O186 Zn174 1.952 . S
O186 C194 1.311 . S
O187 Zn178 1.977 . S
O187 C193 1.272 . S
O188 Zn178 1.910 . S
O188 C194 1.231 . S
C189 O173 1.225 . S
C189 O195 1.298 . S
C190 O179 1.226 . S
C190 O180 1.307 . S
C191 O183 1.303 . S
C191 O184 1.247 . S
C192 O181 1.253 . S
C192 O182 1.282 1_455 S
C193 O185 1.304 1_455 S
C193 O187 1.272 . S
C194 O186 1.311 . S
C194 O188 1.231 . S
O195 Zn177 1.953 . S
O195 C189 1.298 . S
C196 C197 1.391 . S
C196 C198 1.394 . S
C196 H212 0.931 1_545 S
C197 C196 1.391 . S
C197 C201 1.376 . S
C198 C196 1.394 . S
C198 C199 1.369 . S
C198 C202 1.531 1_545 S
C199 C198 1.369 . S
C199 C200 1.410 . S
C199 C207 1.503 . S
C200 C199 1.410 . S
C200 C201 1.392 . S
C200 C203 1.511 . S
C201 C197 1.376 . S
C201 C200 1.392 . S
C201 H213 0.929 . S
C202 C198 1.531 1_565 S
C202 H214 0.960 1_565 S
C202 H215 0.962 . S
C202 H216 0.960 . S
C203 C200 1.511 . S
C203 H217 0.961 . S
C203 H218 0.961 . S
C203 H219 0.961 . S
C204 C205 1.372 . S
C204 C206 1.363 . S
C204 H220 0.931 . S
C205 C204 1.372 . S
C205 C209 1.406 1_565 S
C206 C204 1.363 . S
C206 C207 1.370 1_565 S
C206 C210 1.524 . S
C207 C199 1.503 . S
C207 C206 1.370 1_545 S
C207 C208 1.403 . S
C208 C207 1.403 . S
C208 C209 1.404 . S
C208 C211 1.539 . S
C209 C205 1.406 1_545 S
C209 C208 1.404 . S
C209 H221 0.930 . S
C210 C206 1.524 . S
C210 H222 0.956 . S
C210 H223 0.961 . S
C210 H224 0.961 . S
C211 C208 1.539 . S
C211 H225 0.958 . S
C211 H226 0.961 . S
C211 H227 0.960 . S
H212 C196 0.931 1_565 S
H213 C201 0.929 . S
H214 C202 0.960 1_545 S
H215 C202 0.962 . S
H216 C202 0.960 . S
H217 C203 0.961 . S
H218 C203 0.961 . S
H219 C203 0.961 . S
H220 C204 0.931 . S
H221 C209 0.930 . S
H222 C210 0.956 . S
H223 C210 0.961 . S
H224 C210 0.961 . S
H225 C211 0.958 . S
H226 C211 0.961 . S
H227 C211 0.960 . S
C228 C229 1.391 . S
C228 C230 1.394 . S
C228 H244 0.931 . S
C229 C228 1.391 . S
C229 C233 1.376 . S
C230 C228 1.394 . S
C230 C231 1.369 . S
C230 C234 1.531 . S
C231 C230 1.369 . S
C231 C232 1.410 . S
C231 C239 1.503 . S
C232 C231 1.410 . S
C232 C233 1.392 . S
C232 C235 1.511 . S
C233 C229 1.376 . S
C233 C232 1.392 . S
C233 H245 0.929 . S
C234 C230 1.531 . S
C234 H246 0.960 . S
C234 H247 0.962 . S
C234 H248 0.960 . S
C235 C232 1.511 . S
C235 H249 0.961 . S
C235 H250 0.961 . S
C235 H251 0.961 . S
C236 C237 1.370 . S
C236 C238 1.363 . S
C236 H252 0.931 . S
C237 C236 1.370 . S
C237 C241 1.408 . S
C238 C236 1.363 . S
C238 C239 1.370 . S
C238 C242 1.524 . S
C239 C231 1.503 . S
C239 C238 1.370 . S
C239 C240 1.403 . S
C240 C239 1.403 . S
C240 C241 1.404 . S
C240 C243 1.539 . S
C241 C237 1.408 . S
C241 C240 1.404 . S
C241 H253 0.930 . S
C242 C238 1.524 . S
C242 H254 0.956 . S
C242 H255 0.961 . S
C242 H256 0.961 . S
C243 C240 1.539 . S
C243 H257 0.958 . S
C243 H258 0.961 . S
C243 H259 0.960 . S
H244 C228 0.931 . S
H245 C233 0.929 . S
H246 C234 0.960 . S
H247 C234 0.962 . S
H248 C234 0.960 . S
H249 C235 0.961 . S
H250 C235 0.961 . S
H251 C235 0.961 . S
H252 C236 0.931 . S
H253 C241 0.930 . S
H254 C242 0.956 . S
H255 C242 0.961 . S
H256 C242 0.961 . S
H257 C243 0.958 . S
H258 C243 0.961 . S
H259 C243 0.960 . S
C260 C261 1.391 . S
C260 C262 1.394 . S
C260 H276 0.931 . S
C261 C260 1.391 . S
C261 C265 1.376 . S
C262 C260 1.394 . S
C262 C263 1.369 . S
C262 C266 1.531 . S
C263 C262 1.369 . S
C263 C264 1.410 . S
C263 C271 1.503 . S
C264 C263 1.410 . S
C264 C265 1.392 . S
C264 C267 1.511 . S
C265 C261 1.376 . S
C265 C264 1.392 . S
C265 H277 0.929 . S
C266 C262 1.531 . S
C266 H278 0.960 . S
C266 H279 0.962 . S
C266 H280 0.960 . S
C267 C264 1.511 . S
C267 H281 0.961 . S
C267 H282 0.961 . S
C267 H283 0.961 . S
C268 C269 1.370 . S
C268 C270 1.363 . S
C268 H284 0.931 . S
C269 C268 1.370 . S
C269 C273 1.408 . S
C270 C268 1.363 . S
C270 C271 1.370 . S
C270 C274 1.524 . S
C271 C263 1.503 . S
C271 C270 1.370 . S
C271 C272 1.403 . S
C272 C271 1.403 . S
C272 C273 1.404 . S
C272 C275 1.539 . S
C273 C269 1.408 . S
C273 C272 1.404 . S
C273 H285 0.930 . S
C274 C270 1.524 . S
C274 H286 0.956 . S
C274 H287 0.961 . S
C274 H288 0.961 . S
C275 C272 1.539 . S
C275 H289 0.958 . S
C275 H290 0.961 . S
C275 H291 0.960 . S
H276 C260 0.931 . S
H277 C265 0.929 . S
H278 C266 0.960 . S
H279 C266 0.962 . S
H280 C266 0.960 . S
H281 C267 0.961 . S
H282 C267 0.961 . S
H283 C267 0.961 . S
H284 C268 0.931 . S
H285 C273 0.930 . S
H286 C274 0.956 . S
H287 C274 0.961 . S
H288 C274 0.961 . S
H289 C275 0.958 . S
H290 C275 0.961 . S
H291 C275 0.960 . S
C292 C293 1.391 . S
C292 C294 1.394 . S
C292 H308 0.931 . S
C293 C292 1.391 . S
C293 C297 1.376 . S
C294 C292 1.394 . S
C294 C295 1.369 . S
C294 C298 1.531 . S
C295 C294 1.369 . S
C295 C296 1.410 . S
C295 C303 1.503 . S
C296 C295 1.410 . S
C296 C297 1.392 . S
C296 C299 1.511 . S
C297 C293 1.376 . S
C297 C296 1.392 . S
C297 H309 0.929 . S
C298 C294 1.531 . S
C298 H310 0.960 . S
C298 H311 0.962 . S
C298 H312 0.960 . S
C299 C296 1.511 . S
C299 H313 0.961 . S
C299 H314 0.961 . S
C299 H315 0.961 . S
C300 C301 1.370 1_655 S
C300 C302 1.363 1_655 S
C300 H316 0.931 . S
C301 C300 1.370 1_455 S
C301 C305 1.408 . S
C302 C300 1.363 1_455 S
C302 C303 1.372 . S
C302 C306 1.523 1_455 S
C303 C295 1.503 . S
C303 C302 1.372 . S
C303 C304 1.403 . S
C304 C303 1.403 . S
C304 C305 1.404 . S
C304 C307 1.539 . S
C305 C301 1.408 . S
C305 C304 1.404 . S
C305 H317 0.930 . S
C306 C302 1.523 1_655 S
C306 H318 0.956 . S
C306 H319 0.961 . S
C306 H320 0.961 . S
C307 C304 1.539 . S
C307 H321 0.958 . S
C307 H322 0.961 . S
C307 H323 0.960 . S
H308 C292 0.931 . S
H309 C297 0.929 . S
H310 C298 0.960 . S
H311 C298 0.962 . S
H312 C298 0.960 . S
H313 C299 0.961 . S
H314 C299 0.961 . S
H315 C299 0.961 . S
H316 C300 0.931 . S
H317 C305 0.930 . S
H318 C306 0.956 . S
H319 C306 0.961 . S
H320 C306 0.961 . S
H321 C307 0.958 . S
H322 C307 0.961 . S
H323 C307 0.960 . S
C324 C325 1.391 1_545 S
C324 C326 1.394 . S
C324 H340 0.931 . S
C325 C324 1.391 1_565 S
C325 C329 1.376 1_554 S
C326 C324 1.394 . S
C326 C327 1.369 1_544 S
C326 C330 1.531 . S
C327 C326 1.369 1_566 S
C327 C328 1.410 . S
C327 C335 1.503 . S
C328 C327 1.410 . S
C328 C329 1.392 . S
C328 C331 1.511 . S
C329 C325 1.376 1_556 S
C329 C328 1.392 . S
C329 H341 0.929 . S
C330 C326 1.531 . S
C330 H342 0.960 . S
C330 H343 0.962 . S
C330 H344 0.960 . S
C331 C328 1.511 . S
C331 H345 0.961 . S
C331 H346 0.961 . S
C331 H347 0.961 . S
C332 C333 1.370 . S
C332 C334 1.363 . S
C332 H348 0.931 . S
C333 C332 1.370 . S
C333 C337 1.408 1_545 S
C334 C332 1.363 . S
C334 C335 1.370 1_545 S
C334 C338 1.524 . S
C335 C327 1.503 . S
C335 C334 1.370 1_565 S
C335 C336 1.403 . S
C336 C335 1.403 . S
C336 C337 1.404 . S
C336 C339 1.539 . S
C337 C333 1.408 1_565 S
C337 C336 1.404 . S
C337 H349 0.930 . S
C338 C334 1.524 . S
C338 H350 0.956 . S
C338 H351 0.961 . S
C338 H352 0.961 . S
C339 C336 1.539 . S
C339 H353 0.958 1_556 S
C339 H354 0.961 . S
C339 H355 0.960 . S
H340 C324 0.931 . S
H341 C329 0.929 . S
H342 C330 0.960 . S
H343 C330 0.962 . S
H344 C330 0.960 . S
H345 C331 0.961 . S
H346 C331 0.961 . S
H347 C331 0.961 . S
H348 C332 0.931 . S
H349 C337 0.930 . S
H350 C338 0.956 . S
H351 C338 0.961 . S
H352 C338 0.961 . S
H353 C339 0.958 1_554 S
H354 C339 0.961 . S
H355 C339 0.960 . S
C356 C357 1.391 . S
C356 C358 1.394 . S
C356 H372 0.931 . S
C357 C356 1.391 . S
C357 C361 1.377 . S
C358 C356 1.394 . S
C358 C359 1.369 . S
C358 C362 1.531 . S
C359 C358 1.369 . S
C359 C360 1.410 . S
C359 C367 1.503 . S
C360 C359 1.410 . S
C360 C361 1.396 . S
C360 C363 1.511 . S
C361 C357 1.377 . S
C361 C360 1.396 . S
C361 H373 0.925 1_556 S
C362 C358 1.531 . S
C362 H374 0.960 . S
C362 H375 0.962 . S
C362 H376 0.960 . S
C363 C360 1.511 . S
C363 H377 0.961 . S
C363 H378 0.961 . S
C363 H379 0.961 1_556 S
C364 C365 1.370 . S
C364 C366 1.363 . S
C364 H380 0.931 . S
C365 C364 1.370 . S
C365 C369 1.408 . S
C366 C364 1.363 . S
C366 C367 1.370 . S
C366 C370 1.524 . S
C367 C359 1.503 . S
C367 C366 1.370 . S
C367 C368 1.403 . S
C368 C367 1.403 . S
C368 C369 1.404 . S
C368 C371 1.539 . S
C369 C365 1.408 . S
C369 C368 1.404 . S
C369 H381 0.930 . S
C370 C366 1.524 . S
C370 H382 0.956 . S
C370 H383 0.961 . S
C370 H384 0.961 . S
C371 C368 1.539 . S
C371 H385 0.958 . S
C371 H386 0.961 1_556 S
C371 H387 0.960 1_556 S
H372 C356 0.931 . S
H373 C361 0.925 1_554 S
H374 C362 0.960 . S
H375 C362 0.962 . S
H376 C362 0.960 . S
H377 C363 0.961 . S
H378 C363 0.961 . S
H379 C363 0.961 1_554 S
H380 C364 0.931 . S
H381 C369 0.930 . S
H382 C370 0.956 . S
H383 C370 0.961 . S
H384 C370 0.961 . S
H385 C371 0.958 . S
H386 C371 0.961 1_554 S
H387 C371 0.960 1_554 S
C388 C389 1.391 1_554 S
C388 C390 1.394 1_554 S
C388 H404 0.931 . S
C389 C388 1.391 1_556 S
C389 C393 1.376 . S
C390 C388 1.394 1_556 S
C390 C391 1.369 . S
C390 C394 1.531 1_556 S
C391 C390 1.369 . S
C391 C392 1.410 . S
C391 C399 1.503 . S
C392 C391 1.410 . S
C392 C393 1.392 . S
C392 C395 1.511 . S
C393 C389 1.376 . S
C393 C392 1.392 . S
C393 H405 0.929 . S
C394 C390 1.531 1_554 S
C394 H406 0.960 1_554 S
C394 H407 0.962 . S
C394 H408 0.960 . S
C395 C392 1.511 . S
C395 H409 0.961 . S
C395 H410 0.961 . S
C395 H411 0.961 . S
C396 C397 1.370 . S
C396 C398 1.363 . S
C396 H412 0.931 . S
C397 C396 1.370 . S
C397 C401 1.408 . S
C398 C396 1.363 . S
C398 C399 1.370 . S
C398 C402 1.524 . S
C399 C391 1.503 . S
C399 C398 1.370 . S
C399 C400 1.403 . S
C400 C399 1.403 . S
C400 C401 1.404 . S
C400 C403 1.539 . S
C401 C397 1.408 . S
C401 C400 1.404 . S
C401 H413 0.930 . S
C402 C398 1.524 . S
C402 H414 0.956 . S
C402 H415 0.961 . S
C402 H416 0.961 . S
C403 C400 1.539 . S
C403 H417 0.958 . S
C403 H418 0.961 . S
C403 H419 0.960 . S
H404 C388 0.931 . S
H405 C393 0.929 . S
H406 C394 0.960 1_556 S
H407 C394 0.962 . S
H408 C394 0.960 . S
H409 C395 0.961 . S
H410 C395 0.961 . S
H411 C395 0.961 . S
H412 C396 0.931 . S
H413 C401 0.930 . S
H414 C402 0.956 . S
H415 C402 0.961 . S
H416 C402 0.961 . S
H417 C403 0.958 . S
H418 C403 0.961 . S
H419 C403 0.960 . S
C420 C421 1.391 1_455 S
C420 C422 1.394 1_554 S
C420 H436 0.931 . S
C421 C420 1.391 1_655 S
C421 C425 1.376 . S
C422 C420 1.394 1_556 S
C422 C423 1.367 . S
C422 C426 1.531 . S
C423 C422 1.367 . S
C423 C424 1.411 1_455 S
C423 C431 1.503 . S
C424 C423 1.411 1_655 S
C424 C425 1.392 1_556 S
C424 C427 1.511 . S
C425 C421 1.376 . S
C425 C424 1.392 1_554 S
C425 H437 0.929 . S
C426 C422 1.531 . S
C426 H438 0.960 . S
C426 H439 0.962 . S
C426 H440 0.960 1_556 S
C427 C424 1.511 . S
C427 H441 0.961 . S
C427 H442 0.961 . S
C427 H443 0.961 . S
C428 C429 1.370 . S
C428 C430 1.363 . S
C428 H444 0.931 . S
C429 C428 1.370 . S
C429 C433 1.408 1_455 S
C430 C428 1.363 . S
C430 C431 1.370 . S
C430 C434 1.524 . S
C431 C423 1.503 . S
C431 C430 1.370 . S
C431 C432 1.403 1_455 S
C432 C431 1.403 1_655 S
C432 C433 1.404 . S
C432 C435 1.539 1_556 S
C433 C429 1.408 1_655 S
C433 C432 1.404 . S
C433 H445 0.930 . S
C434 C430 1.524 . S
C434 H446 0.956 . S
C434 H447 0.992 . S
C434 H448 0.961 . S
C435 C432 1.539 1_554 S
C435 H449 0.952 1_655 S
C435 H450 0.961 . S
C435 H451 0.960 . S
H436 C420 0.931 . S
H437 C425 0.929 . S
H438 C426 0.960 . S
H439 C426 0.962 . S
H440 C426 0.960 1_554 S
H441 C427 0.961 . S
H442 C427 0.961 . S
H443 C427 0.961 . S
H444 C428 0.931 . S
H445 C433 0.930 . S
H446 C434 0.956 . S
H447 C434 0.992 . S
H448 C434 0.961 . S
H449 C435 0.952 1_455 S
H450 C435 0.961 . S
H451 C435 0.960 . S
C452 C453 1.391 . S
C452 C454 1.394 . S
C452 H468 0.931 . S
C453 C452 1.391 . S
C453 C457 1.376 . S
C454 C452 1.394 . S
C454 C455 1.369 . S
C454 C458 1.531 1_455 S
C455 C454 1.369 . S
C455 C456 1.410 . S
C455 C463 1.503 . S
C456 C455 1.410 . S
C456 C457 1.392 . S
C456 C459 1.511 . S
C457 C453 1.376 . S
C457 C456 1.392 . S
C457 H469 0.929 . S
C458 C454 1.531 1_655 S
C458 H470 0.972 . S
C458 H471 0.962 . S
C458 H472 0.960 . S
C459 C456 1.511 . S
C459 H473 0.961 . S
C459 H474 0.961 . S
C459 H475 0.961 . S
C460 C461 1.370 . S
C460 C462 1.363 . S
C460 H476 0.931 1_455 S
C461 C460 1.370 . S
C461 C465 1.408 . S
C462 C460 1.363 . S
C462 C463 1.370 . S
C462 C466 1.524 . S
C463 C455 1.503 . S
C463 C462 1.370 . S
C463 C464 1.403 . S
C464 C463 1.403 . S
C464 C465 1.404 . S
C464 C467 1.539 . S
C465 C461 1.408 . S
C465 C464 1.404 . S
C465 H477 0.930 . S
C466 C462 1.524 . S
C466 H478 0.956 1_455 S
C466 H479 0.961 . S
C466 H480 0.961 1_455 S
C467 C464 1.539 . S
C467 H481 0.958 . S
C467 H482 0.961 . S
C467 H483 0.960 . S
H468 C452 0.931 . S
H469 C457 0.929 . S
H470 C458 0.972 . S
H471 C458 0.962 . S
H472 C458 0.960 . S
H473 C459 0.961 . S
H474 C459 0.961 . S
H475 C459 0.961 . S
H476 C460 0.931 1_655 S
H477 C465 0.930 . S
H478 C466 0.956 1_655 S
H479 C466 0.961 . S
H480 C466 0.961 1_655 S
H481 C467 0.958 . S
H482 C467 0.961 . S
H483 C467 0.960 . S
C484 C485 1.391 . S
C484 C486 1.395 . S
C484 H500 0.931 . S
C485 C484 1.391 . S
C485 C489 1.376 . S
C486 C484 1.395 . S
C486 C487 1.370 . S
C486 C490 1.529 1_545 S
C487 C486 1.370 . S
C487 C488 1.410 . S
C487 C495 1.503 . S
C488 C487 1.410 . S
C488 C489 1.392 . S
C488 C491 1.511 . S
C489 C485 1.376 . S
C489 C488 1.392 . S
C489 H501 0.929 . S
C490 C486 1.529 1_565 S
C490 H502 0.960 . S
C490 H503 0.962 1_565 S
C490 H504 0.960 . S
C491 C488 1.511 . S
C491 H505 0.961 . S
C491 H506 0.961 . S
C491 H507 0.961 1_545 S
C492 C493 1.370 . S
C492 C494 1.363 . S
C492 H508 0.931 . S
C493 C492 1.370 . S
C493 C497 1.408 1_545 S
C494 C492 1.363 . S
C494 C495 1.370 . S
C494 C498 1.524 . S
C495 C487 1.503 . S
C495 C494 1.370 . S
C495 C496 1.403 1_545 S
C496 C495 1.403 1_565 S
C496 C497 1.404 . S
C496 C499 1.539 . S
C497 C493 1.408 1_565 S
C497 C496 1.404 . S
C497 H509 0.930 . S
C498 C494 1.524 . S
C498 H510 0.956 . S
C498 H511 0.961 . S
C498 H512 0.961 . S
C499 C496 1.539 . S
C499 H513 0.958 . S
C499 H514 0.961 . S
C499 H515 0.960 . S
H500 C484 0.931 . S
H501 C489 0.929 . S
H502 C490 0.960 . S
H503 C490 0.962 1_545 S
H504 C490 0.960 . S
H505 C491 0.961 . S
H506 C491 0.961 . S
H507 C491 0.961 1_565 S
H508 C492 0.931 . S
H509 C497 0.930 . S
H510 C498 0.956 . S
H511 C498 0.961 . S
H512 C498 0.961 . S
H513 C499 0.958 . S
H514 C499 0.961 . S
H515 C499 0.960 . S
C516 C517 1.391 . S
C516 C518 1.394 . S
C516 H532 0.931 . S
C517 C516 1.391 . S
C517 C521 1.376 . S
C518 C516 1.394 . S
C518 C519 1.369 . S
C518 C522 1.531 . S
C519 C518 1.369 . S
C519 C520 1.410 . S
C519 C527 1.503 . S
C520 C519 1.410 . S
C520 C521 1.392 . S
C520 C523 1.511 . S
C521 C517 1.376 . S
C521 C520 1.392 . S
C521 H533 0.929 . S
C522 C518 1.531 . S
C522 H534 0.960 . S
C522 H535 0.962 . S
C522 H536 0.960 . S
C523 C520 1.511 . S
C523 H537 0.961 . S
C523 H538 0.961 . S
C523 H539 0.961 . S
C524 C525 1.370 . S
C524 C526 1.363 . S
C524 H540 0.931 . S
C525 C524 1.370 . S
C525 C529 1.408 . S
C526 C524 1.363 . S
C526 C527 1.370 . S
C526 C530 1.524 . S
C527 C519 1.503 . S
C527 C526 1.370 . S
C527 C528 1.403 . S
C528 C527 1.403 . S
C528 C529 1.404 . S
C528 C531 1.539 . S
C529 C525 1.408 . S
C529 C528 1.404 . S
C529 H541 0.930 . S
C530 C526 1.524 . S
C530 H542 0.956 . S
C530 H543 0.961 . S
C530 H544 0.961 . S
C531 C528 1.539 . S
C531 H545 0.958 . S
C531 H546 0.961 . S
C531 H547 0.960 . S
H532 C516 0.931 . S
H533 C521 0.929 . S
H534 C522 0.960 . S
H535 C522 0.962 . S
H536 C522 0.960 . S
H537 C523 0.961 . S
H538 C523 0.961 . S
H539 C523 0.961 . S
H540 C524 0.931 . S
H541 C529 0.930 . S
H542 C530 0.956 . S
H543 C530 0.961 . S
H544 C530 0.961 . S
H545 C531 0.958 . S
H546 C531 0.961 . S
H547 C531 0.960 . S
C548 C549 1.391 . S
C548 C550 1.394 . S
C548 H564 0.931 . S
C549 C548 1.391 . S
C549 C553 1.376 . S
C550 C548 1.394 . S
C550 C551 1.369 . S
C550 C554 1.531 . S
C551 C550 1.369 . S
C551 C552 1.410 . S
C551 C559 1.503 . S
C552 C551 1.410 . S
C552 C553 1.392 . S
C552 C555 1.511 . S
C553 C549 1.376 . S
C553 C552 1.392 . S
C553 H565 0.929 . S
C554 C550 1.531 . S
C554 H566 0.960 . S
C554 H567 0.962 . S
C554 H568 0.960 . S
C555 C552 1.511 . S
C555 H569 0.961 . S
C555 H570 0.961 . S
C555 H571 0.961 . S
C556 C557 1.370 . S
C556 C558 1.363 . S
C556 H572 0.931 . S
C557 C556 1.370 . S
C557 C561 1.408 . S
C558 C556 1.363 . S
C558 C559 1.370 . S
C558 C562 1.524 . S
C559 C551 1.503 . S
C559 C558 1.370 . S
C559 C560 1.403 . S
C560 C559 1.403 . S
C560 C561 1.404 . S
C560 C563 1.539 . S
C561 C557 1.408 . S
C561 C560 1.404 . S
C561 H573 0.930 . S
C562 C558 1.524 . S
C562 H574 0.956 . S
C562 H575 0.961 . S
C562 H576 0.961 . S
C563 C560 1.539 . S
C563 H577 0.958 . S
C563 H578 0.961 . S
C563 H579 0.960 . S
H564 C548 0.931 . S
H565 C553 0.929 . S
H566 C554 0.960 . S
H567 C554 0.962 . S
H568 C554 0.960 . S
H569 C555 0.961 . S
H570 C555 0.961 . S
H571 C555 0.961 . S
H572 C556 0.931 . S
H573 C561 0.930 . S
H574 C562 0.956 . S
H575 C562 0.961 . S
H576 C562 0.961 . S
H577 C563 0.958 . S
H578 C563 0.961 . S
H579 C563 0.960 . S
C580 C581 1.393 . S
C580 C582 1.402 . S
C580 H596 0.921 1_455 S
C581 C580 1.393 . S
C581 C585 1.376 1_554 S
C582 C580 1.402 . S
C582 C583 1.369 1_554 S
C582 C586 1.531 . S
C583 C582 1.369 1_556 S
C583 C584 1.410 . S
C583 C591 1.503 . S
C584 C583 1.410 . S
C584 C585 1.392 . S
C584 C587 1.511 . S
C585 C581 1.376 1_556 S
C585 C584 1.392 . S
C585 H597 0.929 . S
C586 C582 1.531 . S
C586 H598 0.960 . S
C586 H599 0.962 1_455 S
C586 H600 0.960 . S
C587 C584 1.511 . S
C587 H601 0.961 . S
C587 H602 0.961 . S
C587 H603 0.961 . S
C588 C589 1.370 . S
C588 C590 1.363 . S
C588 H604 0.931 1_455 S
C589 C588 1.370 . S
C589 C593 1.408 . S
C590 C588 1.363 . S
C590 C591 1.370 . S
C590 C594 1.524 1_455 S
C591 C583 1.503 . S
C591 C590 1.370 . S
C591 C592 1.403 . S
C592 C591 1.403 . S
C592 C593 1.404 . S
C592 C595 1.539 . S
C593 C589 1.408 . S
C593 C592 1.404 . S
C593 H605 0.930 . S
C594 C590 1.524 1_655 S
C594 H606 0.956 . S
C594 H607 0.961 . S
C594 H608 0.961 . S
C595 C592 1.539 . S
C595 H609 0.958 1_556 S
C595 H610 0.961 . S
C595 H611 0.960 . S
H596 C580 0.921 1_655 S
H597 C585 0.929 . S
H598 C586 0.960 . S
H599 C586 0.962 1_655 S
H600 C586 0.960 . S
H601 C587 0.961 . S
H602 C587 0.961 . S
H603 C587 0.961 . S
H604 C588 0.931 1_655 S
H605 C593 0.930 . S
H606 C594 0.956 . S
H607 C594 0.961 . S
H608 C594 0.961 . S
H609 C595 0.958 1_554 S
H610 C595 0.961 . S
H611 C595 0.960 . S
C612 C613 1.391 1_556 S
C612 C614 1.394 . S
C612 H628 0.931 . S
C613 C612 1.391 1_554 S
C613 C617 1.376 1_565 S
C614 C612 1.394 . S
C614 C615 1.369 1_565 S
C614 C618 1.531 . S
C615 C614 1.369 1_545 S
C615 C616 1.410 1_556 S
C615 C623 1.503 . S
C616 C615 1.410 1_554 S
C616 C617 1.392 . S
C616 C619 1.511 . S
C617 C613 1.376 1_545 S
C617 C616 1.392 . S
C617 H629 0.929 . S
C618 C614 1.531 . S
C618 H630 0.960 . S
C618 H631 0.962 . S
C618 H632 0.960 . S
C619 C616 1.511 . S
C619 H633 0.961 . S
C619 H634 0.958 1_554 S
C619 H635 0.961 . S
C620 C621 1.370 . S
C620 C622 1.363 . S
C620 H636 0.931 . S
C621 C620 1.370 . S
C621 C625 1.408 . S
C622 C620 1.363 . S
C622 C623 1.370 . S
C622 C626 1.524 . S
C623 C615 1.503 . S
C623 C622 1.370 . S
C623 C624 1.403 . S
C624 C623 1.403 . S
C624 C625 1.404 . S
C624 C627 1.539 1_546 S
C625 C621 1.408 . S
C625 C624 1.404 . S
C625 H637 0.930 . S
C626 C622 1.524 . S
C626 H638 0.956 . S
C626 H639 0.961 . S
C626 H640 0.961 . S
C627 C624 1.539 1_564 S
C627 H641 0.955 1_554 S
C627 H642 0.961 . S
C627 H643 0.960 . S
H628 C612 0.931 . S
H629 C617 0.929 . S
H630 C618 0.960 . S
H631 C618 0.962 . S
H632 C618 0.960 . S
H633 C619 0.961 . S
H634 C619 0.958 1_556 S
H635 C619 0.961 . S
H636 C620 0.931 . S
H637 C625 0.930 . S
H638 C626 0.956 . S
H639 C626 0.961 . S
H640 C626 0.961 . S
H641 C627 0.955 1_556 S
H642 C627 0.961 . S
H643 C627 0.960 . S
C644 C645 1.391 . S
C644 C646 1.394 . S
C644 H660 0.931 . S
C645 C644 1.391 . S
C645 C649 1.373 1_556 S
C646 C644 1.394 . S
C646 C647 1.369 . S
C646 C650 1.531 . S
C647 C646 1.369 . S
C647 C648 1.410 . S
C647 C655 1.503 . S
C648 C647 1.410 . S
C648 C649 1.386 1_556 S
C648 C651 1.511 . S
C649 C645 1.373 1_554 S
C649 C648 1.386 1_554 S
C649 H661 0.938 . S
C650 C646 1.531 . S
C650 H662 0.960 . S
C650 H663 0.962 . S
C650 H664 0.960 . S
C651 C648 1.511 . S
C651 H665 0.961 1_556 S
C651 H666 0.961 . S
C651 H667 0.961 . S
C652 C653 1.370 . S
C652 C654 1.363 . S
C652 H668 0.931 . S
C653 C652 1.370 . S
C653 C657 1.408 . S
C654 C652 1.363 . S
C654 C655 1.370 . S
C654 C658 1.524 . S
C655 C647 1.503 . S
C655 C654 1.370 . S
C655 C656 1.403 . S
C656 C655 1.403 . S
C656 C657 1.404 . S
C656 C659 1.539 . S
C657 C653 1.408 . S
C657 C656 1.404 . S
C657 H669 0.930 . S
C658 C654 1.524 . S
C658 H670 0.956 . S
C658 H671 0.961 1_556 S
C658 H672 0.961 1_556 S
C659 C656 1.539 . S
C659 H673 0.958 . S
C659 H674 0.961 . S
C659 H675 0.960 . S
H660 C644 0.931 . S
H661 C649 0.938 . S
H662 C650 0.960 . S
H663 C650 0.962 . S
H664 C650 0.960 . S
H665 C651 0.961 1_554 S
H666 C651 0.961 . S
H667 C651 0.961 . S
H668 C652 0.931 . S
H669 C657 0.930 . S
H670 C658 0.956 . S
H671 C658 0.961 1_554 S
H672 C658 0.961 1_554 S
H673 C659 0.958 . S
H674 C659 0.961 . S
H675 C659 0.960 . S
C676 C677 1.391 . S
C676 C678 1.394 . S
C676 H692 0.931 . S
C677 C676 1.391 . S
C677 C681 1.376 . S
C678 C676 1.394 . S
C678 C679 1.369 . S
C678 C682 1.531 . S
C679 C678 1.369 . S
C679 C680 1.410 . S
C679 C687 1.503 . S
C680 C679 1.410 . S
C680 C681 1.392 . S
C680 C683 1.511 . S
C681 C677 1.376 . S
C681 C680 1.392 . S
C681 H693 0.929 1_556 S
C682 C678 1.531 . S
C682 H694 0.960 . S
C682 H695 0.962 . S
C682 H696 0.960 . S
C683 C680 1.511 . S
C683 H697 0.961 1_556 S
C683 H698 0.961 . S
C683 H699 0.961 . S
C684 C685 1.370 . S
C684 C686 1.363 . S
C684 H700 0.931 . S
C685 C684 1.370 . S
C685 C689 1.408 . S
C686 C684 1.363 . S
C686 C687 1.370 . S
C686 C690 1.524 . S
C687 C679 1.503 . S
C687 C686 1.370 . S
C687 C688 1.403 . S
C688 C687 1.403 . S
C688 C689 1.404 . S
C688 C691 1.539 . S
C689 C685 1.408 . S
C689 C688 1.404 . S
C689 H701 0.930 . S
C690 C686 1.524 . S
C690 H702 0.956 . S
C690 H703 0.961 . S
C690 H704 0.961 . S
C691 C688 1.539 . S
C691 H705 0.958 . S
C691 H706 0.961 . S
C691 H707 0.960 . S
H692 C676 0.931 . S
H693 C681 0.929 1_554 S
H694 C682 0.960 . S
H695 C682 0.962 . S
H696 C682 0.960 . S
H697 C683 0.961 1_554 S
H698 C683 0.961 . S
H699 C683 0.961 . S
H700 C684 0.931 . S
H701 C689 0.930 . S
H702 C690 0.956 . S
H703 C690 0.961 . S
H704 C690 0.961 . S
H705 C691 0.958 . S
H706 C691 0.961 . S
H707 C691 0.960 . S
C708 C709 1.391 . S
C708 C710 1.394 . S
C708 H724 0.931 . S
C709 C708 1.391 . S
C709 C713 1.376 . S
C710 C708 1.394 . S
C710 C711 1.369 . S
C710 C714 1.531 . S
C711 C710 1.369 . S
C711 C712 1.410 . S
C711 C719 1.503 . S
C712 C711 1.410 . S
C712 C713 1.392 . S
C712 C715 1.511 1_455 S
C713 C709 1.376 . S
C713 C712 1.392 . S
C713 H725 0.929 1_455 S
C714 C710 1.531 . S
C714 H726 0.960 . S
C714 H727 0.962 . S
C714 H728 0.960 . S
C715 C712 1.511 1_655 S
C715 H729 0.961 . S
C715 H730 0.961 . S
C715 H731 0.961 . S
C716 C717 1.370 . S
C716 C718 1.363 . S
C716 H732 0.931 . S
C717 C716 1.370 . S
C717 C721 1.408 1_556 S
C718 C716 1.363 . S
C718 C719 1.370 1_556 S
C718 C722 1.524 . S
C719 C711 1.503 . S
C719 C718 1.370 1_554 S
C719 C720 1.403 . S
C720 C719 1.403 . S
C720 C721 1.404 . S
C720 C723 1.539 . S
C721 C717 1.408 1_554 S
C721 C720 1.404 . S
C721 H733 0.930 . S
C722 C718 1.524 . S
C722 H734 0.956 . S
C722 H735 0.961 . S
C722 H736 0.961 . S
C723 C720 1.539 . S
C723 H737 0.958 . S
C723 H738 0.961 . S
C723 H739 0.960 . S
H724 C708 0.931 . S
H725 C713 0.929 1_655 S
H726 C714 0.960 . S
H727 C714 0.962 . S
H728 C714 0.960 . S
H729 C715 0.961 . S
H730 C715 0.961 . S
H731 C715 0.961 . S
H732 C716 0.931 . S
H733 C721 0.930 . S
H734 C722 0.956 . S
H735 C722 0.961 . S
H736 C722 0.961 . S
H737 C723 0.958 . S
H738 C723 0.961 . S
H739 C723 0.960 . S
C740 C741 1.391 . S
C740 C742 1.394 . S
C740 H756 0.931 1_545 S
C741 C740 1.391 . S
C741 C745 1.376 . S
C742 C740 1.394 . S
C742 C743 1.369 . S
C742 C746 1.531 1_544 S
C743 C742 1.369 . S
C743 C744 1.410 . S
C743 C751 1.503 . S
C744 C743 1.410 . S
C744 C745 1.392 . S
C744 C747 1.511 . S
C745 C741 1.376 . S
C745 C744 1.392 . S
C745 H757 0.929 . S
C746 C742 1.531 1_566 S
C746 H758 0.960 1_565 S
C746 H759 0.962 . S
C746 H760 0.960 . S
C747 C744 1.511 . S
C747 H761 0.961 . S
C747 H762 0.961 . S
C747 H763 0.961 . S
C748 C749 1.370 1_565 S
C748 C750 1.363 1_556 S
C748 H764 0.931 . S
C749 C748 1.370 1_545 S
C749 C753 1.408 . S
C750 C748 1.363 1_554 S
C750 C751 1.370 1_565 S
C750 C754 1.524 . S
C751 C743 1.503 . S
C751 C750 1.370 1_545 S
C751 C752 1.403 1_554 S
C752 C751 1.403 1_556 S
C752 C753 1.404 . S
C752 C755 1.539 . S
C753 C749 1.408 . S
C753 C752 1.404 . S
C753 H765 0.930 . S
C754 C750 1.524 . S
C754 H766 0.956 . S
C754 H767 0.961 . S
C754 H768 0.961 . S
C755 C752 1.539 . S
C755 H769 0.958 . S
C755 H770 0.961 . S
C755 H771 0.960 1_556 S
H756 C740 0.931 1_565 S
H757 C745 0.929 . S
H758 C746 0.960 1_545 S
H759 C746 0.962 . S
H760 C746 0.960 . S
H761 C747 0.961 . S
H762 C747 0.961 . S
H763 C747 0.961 . S
H764 C748 0.931 . S
H765 C753 0.930 . S
H766 C754 0.956 . S
H767 C754 0.961 . S
H768 C754 0.961 . S
H769 C755 0.958 . S
H770 C755 0.961 . S
H771 C755 0.960 1_554 S
C772 C773 1.391 . S
C772 C774 1.394 . S
C772 H788 0.931 . S
C773 C772 1.391 . S
C773 C777 1.376 . S
C774 C772 1.394 . S
C774 C775 1.369 . S
C774 C778 1.531 . S
C775 C774 1.369 . S
C775 C776 1.410 . S
C775 C783 1.503 1_554 S
C776 C775 1.410 . S
C776 C777 1.392 . S
C776 C779 1.511 . S
C777 C773 1.376 . S
C777 C776 1.392 . S
C777 H789 0.929 . S
C778 C774 1.531 . S
C778 H790 0.960 . S
C778 H791 0.962 1_554 S
C778 H792 0.960 . S
C779 C776 1.511 . S
C779 H793 0.961 . S
C779 H794 0.961 . S
C779 H795 0.961 . S
C780 C781 1.370 . S
C780 C782 1.363 . S
C780 H796 0.931 . S
C781 C780 1.370 . S
C781 C785 1.408 . S
C782 C780 1.363 . S
C782 C783 1.370 . S
C782 C786 1.524 . S
C783 C775 1.503 1_556 S
C783 C782 1.370 . S
C783 C784 1.403 1_556 S
C784 C783 1.403 1_554 S
C784 C785 1.404 1_554 S
C784 C787 1.539 . S
C785 C781 1.408 . S
C785 C784 1.404 1_556 S
C785 H797 0.930 . S
C786 C782 1.524 . S
C786 H798 0.956 . S
C786 H799 0.961 . S
C786 H800 0.961 . S
C787 C784 1.539 . S
C787 H801 0.958 . S
C787 H802 0.961 . S
C787 H803 0.960 . S
H788 C772 0.931 . S
H789 C777 0.929 . S
H790 C778 0.960 . S
H791 C778 0.962 1_556 S
H792 C778 0.960 . S
H793 C779 0.961 . S
H794 C779 0.961 . S
H795 C779 0.961 . S
H796 C780 0.931 . S
H797 C785 0.930 . S
H798 C786 0.956 . S
H799 C786 0.961 . S
H800 C786 0.961 . S
H801 C787 0.958 . S
H802 C787 0.961 . S
H803 C787 0.960 . S
C804 C805 1.391 . S
C804 C806 1.394 . S
C804 H820 0.931 . S
C805 C804 1.391 . S
C805 C809 1.376 . S
C806 C804 1.394 . S
C806 C807 1.369 . S
C806 C810 1.531 1_554 S
C807 C806 1.369 . S
C807 C808 1.410 . S
C807 C815 1.503 1_554 S
C808 C807 1.410 . S
C808 C809 1.392 . S
C808 C811 1.511 . S
C809 C805 1.376 . S
C809 C808 1.392 . S
C809 H821 0.929 . S
C810 C806 1.531 1_556 S
C810 H822 0.960 . S
C810 H823 0.962 . S
C810 H824 0.960 . S
C811 C808 1.511 . S
C811 H825 0.961 . S
C811 H826 0.961 . S
C811 H827 0.961 . S
C812 C813 1.370 . S
C812 C814 1.363 . S
C812 H828 0.931 . S
C813 C812 1.370 . S
C813 C817 1.408 . S
C814 C812 1.363 . S
C814 C815 1.370 . S
C814 C818 1.524 . S
C815 C807 1.503 1_556 S
C815 C814 1.370 . S
C815 C816 1.403 . S
C816 C815 1.403 . S
C816 C817 1.404 . S
C816 C819 1.539 1_556 S
C817 C813 1.408 . S
C817 C816 1.404 . S
C817 H829 0.930 . S
C818 C814 1.524 . S
C818 H830 0.956 . S
C818 H831 0.961 1_556 S
C818 H832 0.961 . S
C819 C816 1.539 1_554 S
C819 H833 0.958 . S
C819 H834 0.961 . S
C819 H835 0.960 . S
H820 C804 0.931 . S
H821 C809 0.929 . S
H822 C810 0.960 . S
H823 C810 0.962 . S
H824 C810 0.960 . S
H825 C811 0.961 . S
H826 C811 0.961 . S
H827 C811 0.961 . S
H828 C812 0.931 . S
H829 C817 0.930 . S
H830 C818 0.956 . S
H831 C818 0.961 1_554 S
H832 C818 0.961 . S
H833 C819 0.958 . S
H834 C819 0.961 . S
H835 C819 0.960 . S
C836 C837 1.391 . S
C836 C838 1.394 . S
C836 H852 0.931 . S
C837 C836 1.391 . S
C837 C841 1.376 1_655 S
C838 C836 1.394 . S
C838 C839 1.369 . S
C838 C842 1.531 . S
C839 C838 1.369 . S
C839 C840 1.410 1_655 S
C839 C847 1.503 . S
C840 C839 1.410 1_455 S
C840 C841 1.392 . S
C840 C843 1.511 . S
C841 C837 1.376 1_455 S
C841 C840 1.392 . S
C841 H853 0.929 . S
C842 C838 1.531 . S
C842 H854 0.960 . S
C842 H855 0.962 . S
C842 H856 0.960 . S
C843 C840 1.511 . S
C843 H857 0.961 . S
C843 H858 0.961 . S
C843 H859 0.961 . S
C844 C845 1.370 . S
C844 C846 1.363 . S
C844 H860 0.931 . S
C845 C844 1.370 . S
C845 C849 1.408 . S
C846 C844 1.363 . S
C846 C847 1.370 . S
C846 C850 1.524 . S
C847 C839 1.503 . S
C847 C846 1.370 . S
C847 C848 1.403 . S
C848 C847 1.403 . S
C848 C849 1.404 . S
C848 C851 1.539 1_655 S
C849 C845 1.408 . S
C849 C848 1.404 . S
C849 H861 0.930 . S
C850 C846 1.524 . S
C850 H862 0.956 . S
C850 H863 0.961 . S
C850 H864 0.961 . S
C851 C848 1.539 1_455 S
C851 H865 0.958 1_455 S
C851 H866 0.961 . S
C851 H867 0.960 . S
H852 C836 0.931 . S
H853 C841 0.929 . S
H854 C842 0.960 . S
H855 C842 0.962 . S
H856 C842 0.960 . S
H857 C843 0.961 . S
H858 C843 0.961 . S
H859 C843 0.961 . S
H860 C844 0.931 . S
H861 C849 0.930 . S
H862 C850 0.956 . S
H863 C850 0.961 . S
H864 C850 0.961 . S
H865 C851 0.958 1_655 S
H866 C851 0.961 . S
H867 C851 0.960 . S
C868 C869 1.393 . S
C868 C870 1.394 . S
C868 H884 0.931 . S
C869 C868 1.393 . S
C869 C873 1.374 1_565 S
C870 C868 1.394 . S
C870 C871 1.369 . S
C870 C874 1.531 . S
C871 C870 1.369 . S
C871 C872 1.410 1_565 S
C871 C879 1.503 . S
C872 C871 1.410 1_545 S
C872 C873 1.392 . S
C872 C875 1.511 . S
C873 C869 1.374 1_545 S
C873 C872 1.392 . S
C873 H885 0.929 . S
C874 C870 1.531 . S
C874 H886 0.960 . S
C874 H887 0.962 . S
C874 H888 0.960 . S
C875 C872 1.511 . S
C875 H889 0.961 . S
C875 H890 0.961 . S
C875 H891 0.961 . S
C876 C877 1.370 . S
C876 C878 1.363 . S
C876 H892 0.931 . S
C877 C876 1.370 . S
C877 C881 1.408 1_565 S
C878 C876 1.363 . S
C878 C879 1.370 . S
C878 C882 1.524 . S
C879 C871 1.503 . S
C879 C878 1.370 . S
C879 C880 1.403 1_565 S
C880 C879 1.403 1_545 S
C880 C881 1.404 . S
C880 C883 1.539 . S
C881 C877 1.408 1_545 S
C881 C880 1.404 . S
C881 H893 0.930 . S
C882 C878 1.524 . S
C882 H894 0.956 . S
C882 H895 0.961 . S
C882 H896 0.961 . S
C883 C880 1.539 . S
C883 H897 0.958 . S
C883 H898 0.961 . S
C883 H899 0.960 . S
H884 C868 0.931 . S
H885 C873 0.929 . S
H886 C874 0.960 . S
H887 C874 0.962 . S
H888 C874 0.960 . S
H889 C875 0.961 . S
H890 C875 0.961 . S
H891 C875 0.961 . S
H892 C876 0.931 . S
H893 C881 0.930 . S
H894 C882 0.956 . S
H895 C882 0.961 . S
H896 C882 0.961 . S
H897 C883 0.958 . S
H898 C883 0.961 . S
H899 C883 0.960 . S
C900 C901 1.391 . S
C900 C902 1.394 . S
C900 H916 0.931 . S
C901 C900 1.391 . S
C901 C905 1.376 . S
C902 C900 1.394 . S
C902 C903 1.369 . S
C902 C906 1.531 . S
C903 C902 1.369 . S
C903 C904 1.410 . S
C903 C911 1.503 . S
C904 C903 1.410 . S
C904 C905 1.392 . S
C904 C907 1.511 . S
C905 C901 1.376 . S
C905 C904 1.392 . S
C905 H917 0.929 . S
C906 C902 1.531 . S
C906 H918 0.960 . S
C906 H919 0.962 . S
C906 H920 0.960 . S
C907 C904 1.511 . S
C907 H921 0.961 . S
C907 H922 0.961 . S
C907 H923 0.961 . S
C908 C909 1.370 . S
C908 C910 1.363 . S
C908 H924 0.931 . S
C909 C908 1.370 . S
C909 C913 1.408 . S
C910 C908 1.363 . S
C910 C911 1.370 . S
C910 C914 1.524 . S
C911 C903 1.503 . S
C911 C910 1.370 . S
C911 C912 1.403 . S
C912 C911 1.403 . S
C912 C913 1.404 . S
C912 C915 1.539 . S
C913 C909 1.408 . S
C913 C912 1.404 . S
C913 H925 0.930 . S
C914 C910 1.524 . S
C914 H926 0.956 . S
C914 H927 0.961 . S
C914 H928 0.961 . S
C915 C912 1.539 . S
C915 H929 0.958 . S
C915 H930 0.961 . S
C915 H931 0.960 . S
H916 C900 0.931 . S
H917 C905 0.929 . S
H918 C906 0.960 . S
H919 C906 0.962 . S
H920 C906 0.960 . S
H921 C907 0.961 . S
H922 C907 0.961 . S
H923 C907 0.961 . S
H924 C908 0.931 . S
H925 C913 0.930 . S
H926 C914 0.956 . S
H927 C914 0.961 . S
H928 C914 0.961 . S
H929 C915 0.958 . S
H930 C915 0.961 . S
H931 C915 0.960 . S
C932 C933 1.391 . S
C932 C934 1.394 . S
C932 H948 0.931 . S
C933 C932 1.391 . S
C933 C937 1.376 . S
C934 C932 1.394 . S
C934 C935 1.369 . S
C934 C938 1.531 . S
C935 C934 1.369 . S
C935 C936 1.410 . S
C935 C943 1.503 . S
C936 C935 1.410 . S
C936 C937 1.392 . S
C936 C939 1.511 . S
C937 C933 1.376 . S
C937 C936 1.392 . S
C937 H949 0.929 . S
C938 C934 1.531 . S
C938 H950 0.960 . S
C938 H951 0.962 . S
C938 H952 0.960 . S
C939 C936 1.511 . S
C939 H953 0.961 . S
C939 H954 0.961 . S
C939 H955 0.961 . S
C940 C941 1.370 . S
C940 C942 1.363 . S
C940 H956 0.931 . S
C941 C940 1.370 . S
C941 C945 1.408 . S
C942 C940 1.363 . S
C942 C943 1.370 . S
C942 C946 1.524 . S
C943 C935 1.503 . S
C943 C942 1.370 . S
C943 C944 1.403 . S
C944 C943 1.403 . S
C944 C945 1.404 . S
C944 C947 1.539 . S
C945 C941 1.408 . S
C945 C944 1.404 . S
C945 H957 0.930 . S
C946 C942 1.524 . S
C946 H958 0.956 . S
C946 H959 0.961 . S
C946 H960 0.961 . S
C947 C944 1.539 . S
C947 H961 0.958 . S
C947 H962 0.961 . S
C947 H963 0.960 . S
H948 C932 0.931 . S
H949 C937 0.929 . S
H950 C938 0.960 . S
H951 C938 0.962 . S
H952 C938 0.960 . S
H953 C939 0.961 . S
H954 C939 0.961 . S
H955 C939 0.961 . S
H956 C940 0.931 . S
H957 C945 0.930 . S
H958 C946 0.956 . S
H959 C946 0.961 . S
H960 C946 0.961 . S
H961 C947 0.958 . S
H962 C947 0.961 . S
H963 C947 0.960 . S
C197 N80 1.592 . S
C205 C120 1.597 . S
C237 C143 1.631 . S
C229 N93 1.601 . S
C269 C166 1.635 . S
C261 N54 1.652 . S
C301 C193 1.510 . S
C293 N67 1.593 . S
C333 C121 1.570 . S
C325 N28 1.569 . S
C357 N41 1.519 1_556 S
C365 C144 1.510 . S
C389 N2 1.500 . S
C397 C167 1.507 . S
C421 N15 1.619 . S
C429 C192 1.585 . S
C461 C122 0.428 . S
C453 N70 0.436 . S
C493 C145 0.411 . S
C485 N83 0.412 . S
C525 C168 0.440 . S
C517 N96 0.431 . S
C549 N57 0.586 . S
C557 C194 0.639 . S
C581 N18 0.664 . S
C589 C125 0.739 . S
C621 C148 0.677 . S
C613 N31 0.689 . S
C653 C171 0.631 . S
C645 N44 0.644 1_556 S
C677 N5 0.424 . S
C685 C191 0.428 . S
C709 N66 1.584 . S
C717 C123 1.560 . S
C741 N79 1.575 . S
C749 C146 1.517 . S
C781 C169 1.545 . S
C773 N92 1.565 . S
C813 C190 1.402 . S
C805 N53 1.388 . S
C837 N14 1.664 . S
C845 C124 1.531 . S
C877 C147 1.484 . S
C869 N27 1.616 . S
C909 C170 1.503 . S
C901 N40 1.570 . S
C933 N1 1.723 . S
C941 C189 1.724 . S
