# Generated by pormake.
# Topology the, (3,8)-cn, num edge types: 1
# Building blocks:
#     Node 0, Type 0, BuildingBlock: PAMTOO_clean_linker_0, # of connection points: 3
#     Node 1, Type 0, BuildingBlock: PAMTOO_clean_linker_0, # of connection points: 3
#     Node 2, Type 0, BuildingBlock: PAMTOO_clean_linker_0, # of connection points: 3
#     Node 3, Type 0, BuildingBlock: PAMTOO_clean_linker_0, # of connection points: 3
#     Node 4, Type 0, BuildingBlock: PAMTOO_clean_linker_0, # of connection points: 3
#     Node 5, Type 0, BuildingBlock: PAMTOO_clean_linker_0, # of connection points: 3
#     Node 6, Type 0, BuildingBlock: PAMTOO_clean_linker_0, # of connection points: 3
#     Node 7, Type 0, BuildingBlock: PAMTOO_clean_linker_0, # of connection points: 3
#     Node 8, Type 1, BuildingBlock: GIZVER_clean_sbu_0, # of connection points: 8
#     Node 9, Type 1, BuildingBlock: GIZVER_clean_sbu_0, # of connection points: 8
#     Node 10, Type 1, BuildingBlock: GIZVER_clean_sbu_0, # of connection points: 8
#     Edge 11, Type (0, 1), BuildingBlock: XUDNAN_clean_linker_2, # of connection points: 2
#     Edge 12, Type (0, 1), BuildingBlock: XUDNAN_clean_linker_2, # of connection points: 2
#     Edge 13, Type (0, 1), BuildingBlock: XUDNAN_clean_linker_2, # of connection points: 2
#     Edge 14, Type (0, 1), BuildingBlock: XUDNAN_clean_linker_2, # of connection points: 2
#     Edge 15, Type (0, 1), BuildingBlock: XUDNAN_clean_linker_2, # of connection points: 2
#     Edge 16, Type (0, 1), BuildingBlock: XUDNAN_clean_linker_2, # of connection points: 2
#     Edge 17, Type (0, 1), BuildingBlock: XUDNAN_clean_linker_2, # of connection points: 2
#     Edge 18, Type (0, 1), BuildingBlock: XUDNAN_clean_linker_2, # of connection points: 2
#     Edge 19, Type (0, 1), BuildingBlock: XUDNAN_clean_linker_2, # of connection points: 2
#     Edge 20, Type (0, 1), BuildingBlock: XUDNAN_clean_linker_2, # of connection points: 2
#     Edge 21, Type (0, 1), BuildingBlock: XUDNAN_clean_linker_2, # of connection points: 2
#     Edge 22, Type (0, 1), BuildingBlock: XUDNAN_clean_linker_2, # of connection points: 2
#     Edge 23, Type (0, 1), BuildingBlock: XUDNAN_clean_linker_2, # of connection points: 2
#     Edge 24, Type (0, 1), BuildingBlock: XUDNAN_clean_linker_2, # of connection points: 2
#     Edge 25, Type (0, 1), BuildingBlock: XUDNAN_clean_linker_2, # of connection points: 2
#     Edge 26, Type (0, 1), BuildingBlock: XUDNAN_clean_linker_2, # of connection points: 2
#     Edge 27, Type (0, 1), BuildingBlock: XUDNAN_clean_linker_2, # of connection points: 2
#     Edge 28, Type (0, 1), BuildingBlock: XUDNAN_clean_linker_2, # of connection points: 2
#     Edge 29, Type (0, 1), BuildingBlock: XUDNAN_clean_linker_2, # of connection points: 2
#     Edge 30, Type (0, 1), BuildingBlock: XUDNAN_clean_linker_2, # of connection points: 2
#     Edge 31, Type (0, 1), BuildingBlock: XUDNAN_clean_linker_2, # of connection points: 2
#     Edge 32, Type (0, 1), BuildingBlock: XUDNAN_clean_linker_2, # of connection points: 2
#     Edge 33, Type (0, 1), BuildingBlock: XUDNAN_clean_linker_2, # of connection points: 2
#     Edge 34, Type (0, 1), BuildingBlock: XUDNAN_clean_linker_2, # of connection points: 2
# Relax obj value: 0.075
# Max RMSD: 0.228
# Mean RMSD: 0.144
data_MOF--net-the--node1-GIZVER_clean_sbu_0--node2-PAMTOO_clean_linker_0--edge1-XUDNAN_clean_linker_2
_symmetry_space_group_name_H-M    P1
_symmetry_Int_Tables_number       1
_symmetry_cell_setting            triclinic
loop_
_symmetry_equiv_pos_as_xyz
'x, y, z'
_cell_length_a     40.999727
_cell_length_b     38.497102
_cell_length_c     35.616864
_cell_angle_alpha  87.820041
_cell_angle_beta   94.500935
_cell_angle_gamma 107.94001
loop_
_atom_site_label
_atom_site_type_symbol
_atom_site_fract_x
_atom_site_fract_y
_atom_site_fract_z
_atom_type_partial_charge
H0 H 0.2822 0.441 0.37772 0.0
H1 H 0.28987 0.37517 0.47645 0.0
H2 H 0.34705 0.37144 0.38141 0.0
H3 H 0.30342 0.30008 0.42192 0.0
C4 C 0.31519 0.30911 0.45058 0.0
O5 O 0.33296 0.34597 0.4496 0.0
H6 H 0.29435 0.30412 0.47017 0.0
C7 C 0.2928 0.42136 0.39257 0.0
C8 C 0.31573 0.4077 0.37506 0.0
C9 C 0.2834 0.4098 0.42911 0.0
C10 C 0.29695 0.38425 0.44821 0.0
C11 C 0.31988 0.37048 0.43099 0.0
C12 C 0.32943 0.38237 0.39458 0.0
H13 H 0.72104 0.31318 0.39914 0.0
H14 H 0.63843 0.30133 0.31283 0.0
H15 H 0.72671 0.39662 0.31378 0.0
H16 H 0.65959 0.41128 0.2984 0.0
C17 C 0.64473 0.38544 0.28408 0.0
O18 O 0.66602 0.36425 0.28016 0.0
H19 H 0.62362 0.37054 0.30203 0.0
C20 C 0.70976 0.3233 0.3742 0.0
C21 C 0.72797 0.35706 0.35828 0.0
C22 C 0.67745 0.3025 0.35803 0.0
C23 C 0.6631 0.3167 0.32606 0.0
C24 C 0.68059 0.35073 0.31048 0.0
C25 C 0.71319 0.37053 0.32622 0.0
H26 H 0.62338 0.74737 0.31921 0.0
H27 H 0.69719 0.69209 0.3564 0.0
H28 H 0.67933 0.76912 0.42819 0.0
H29 H 0.7536 0.76128 0.44382 0.0
C30 C 0.74703 0.73693 0.42565 0.0
O31 O 0.7117 0.7217 0.42186 0.0
H32 H 0.75725 0.74565 0.39758 0.0
C33 C 0.64235 0.74303 0.3401 0.0
C34 C 0.64979 0.7631 0.37404 0.0
C35 C 0.65832 0.7163 0.33352 0.0
C36 C 0.68363 0.71157 0.36059 0.0
C37 C 0.69109 0.73077 0.39424 0.0
C38 C 0.67422 0.75617 0.401 0.0
H39 H 0.23924 0.76175 0.39906 0.0
H40 H 0.23884 0.6753 0.32551 0.0
H41 H 0.33295 0.75887 0.35424 0.0
H42 H 0.3246 0.73419 0.27567 0.0
C43 C 0.311 0.70472 0.28043 0.0
O44 O 0.30463 0.69823 0.31795 0.0
H45 H 0.28614 0.69706 0.26305 0.0
C46 C 0.25259 0.74926 0.3813 0.0
C47 C 0.2882 0.76521 0.37844 0.0
C48 C 0.23435 0.71646 0.36299 0.0
C49 C 0.25208 0.70049 0.34006 0.0
C50 C 0.28739 0.71607 0.33673 0.0
C51 C 0.30538 0.74819 0.3559 0.0
H52 H 0.28148 0.7492 0.68982 0.0
H53 H 0.27506 0.68049 0.78967 0.0
H54 H 0.36233 0.77424 0.77863 0.0
H55 H 0.36775 0.69316 0.79443 0.0
C56 C 0.35235 0.68968 0.8195 0.0
O57 O 0.3356 0.71592 0.81905 0.0
H58 H 0.33281 0.66224 0.81766 0.0
C59 C 0.29149 0.74304 0.7174 0.0
C60 C 0.32326 0.76659 0.73224 0.0
C61 C 0.27345 0.71123 0.73726 0.0
C62 C 0.2882 0.70371 0.77267 0.0
C63 C 0.32065 0.72558 0.78663 0.0
C64 C 0.33784 0.75702 0.76668 0.0
H65 H 0.28452 0.4167 0.75124 0.0
H66 H 0.27967 0.3301 0.67593 0.0
H67 H 0.35904 0.35812 0.76526 0.0
H68 H 0.38084 0.3422 0.69212 0.0
C69 C 0.35637 0.3223 0.68094 0.0
O70 O 0.33298 0.31492 0.7083 0.0
H71 H 0.34639 0.33463 0.65556 0.0
C72 C 0.29476 0.3958 0.74228 0.0
C73 C 0.32386 0.39033 0.76229 0.0
C74 C 0.2786 0.37446 0.71093 0.0
C75 C 0.29132 0.34659 0.70029 0.0
C76 C 0.32016 0.34077 0.71996 0.0
C77 C 0.33626 0.36242 0.75094 0.0
H78 H 0.61854 0.31209 0.76529 0.0
H79 H 0.71139 0.40234 0.78444 0.0
H80 H 0.714 0.3078 0.72647 0.0
H81 H 0.77327 0.34163 0.78015 0.0
C82 C 0.77716 0.37058 0.77122 0.0
O83 O 0.74946 0.37348 0.74818 0.0
H84 H 0.77974 0.38696 0.79696 0.0
C85 C 0.64591 0.32447 0.76302 0.0
C86 C 0.66438 0.30537 0.74494 0.0
C87 C 0.66271 0.35936 0.77822 0.0
C88 C 0.69817 0.37503 0.7744 0.0
C89 C 0.71645 0.3565 0.75561 0.0
C90 C 0.69969 0.32162 0.74147 0.0
H91 H 0.63868 0.73385 0.70126 0.0
H92 H 0.71596 0.68125 0.68753 0.0
H93 H 0.6892 0.74695 0.59784 0.0
H94 H 0.72237 0.69198 0.56466 0.0
C95 C 0.72084 0.67971 0.59346 0.0
O96 O 0.72861 0.70728 0.61945 0.0
H97 H 0.69416 0.66105 0.59565 0.0
C98 C 0.65701 0.72776 0.68429 0.0
C99 C 0.66141 0.74266 0.64773 0.0
C100 C 0.67654 0.70537 0.69904 0.0
C101 C 0.70064 0.69839 0.6768 0.0
C102 C 0.70496 0.71333 0.64041 0.0
C103 C 0.68538 0.73528 0.62594 0.0
Co104 Co 0.07187 0.50536 0.56955 0.0
Co105 Co 0.03643 0.48558 0.5046 0.0
Co106 Co 1.00035 0.53214 0.54925 0.0
O107 O 0.02407 0.49371 0.55269 0.0
H108 H 1.0102 0.47116 0.5636 0.0
O109 O 0.97622 0.57032 0.54575 0.0
Co110 Co 0.92717 0.55681 0.53246 0.0
Co111 Co 0.96674 0.57775 0.59534 0.0
H112 H 0.98924 0.59279 0.53394 0.0
O113 O 0.05641 0.44874 0.49221 0.0
O114 O 0.0833 0.50294 0.51763 0.0
O115 O 0.02927 0.51955 0.46619 0.0
O116 O 0.02952 0.56095 0.50835 0.0
O117 O 0.96624 0.50263 0.50983 0.0
O118 O 0.88273 0.54899 0.51974 0.0
O119 O 0.92504 0.60273 0.52229 0.0
O120 O 0.92284 0.50694 0.53952 0.0
O121 O 0.97119 0.50322 0.59016 0.0
O122 O 0.97617 0.5446 0.63357 0.0
O123 O 0.91942 0.56031 0.58587 0.0
O124 O 0.9491 0.61493 0.60955 0.0
C125 C 0.10314 0.47515 0.58945 0.0
C126 C 0.06682 0.57132 0.58601 0.0
C127 C 0.03492 0.55253 0.47543 0.0
C128 C 0.0848 0.47359 0.50251 0.0
C129 C 0.89265 0.58431 0.51533 0.0
C130 C 0.93401 0.49257 0.51391 0.0
C131 C 0.96755 0.51151 0.62371 0.0
C132 C 0.91992 0.59027 0.60158 0.0
O133 O 0.11547 0.51058 0.58632 0.0
O134 O 0.0709 0.45901 0.57926 0.0
O135 O 0.03445 0.5617 0.58899 0.0
O136 O 0.0784 0.55568 0.56198 0.0
Co137 Co 0.52355 0.96272 0.51183 0.0
Co138 Co 0.54396 0.98411 0.58032 0.0
Co139 Co 0.49998 0.03382 0.54139 0.0
O140 O 0.53655 1.00945 0.53676 0.0
H141 H 0.5578 0.02616 0.5288 0.0
O142 O 0.46271 0.05702 0.54493 0.0
Co143 Co 0.47187 0.10361 0.56724 0.0
Co144 Co 0.45413 0.07881 0.49874 0.0
H145 H 0.44172 0.03972 0.55281 0.0
O146 O 0.58356 0.97072 0.59085 0.0
O147 O 0.53477 0.93844 0.55878 0.0
O148 O 0.51135 0.9775 0.61762 0.0
O149 O 0.47427 0.99714 0.58028 0.0
O150 O 0.52982 0.06602 0.58262 0.0
O151 O 0.47661 0.14569 0.58916 0.0
O152 O 0.42858 0.09819 0.57937 0.0
O153 O 0.51822 0.11439 0.55791 0.0
O154 O 0.52562 0.07053 0.50287 0.0
O155 O 0.48761 0.08518 0.46228 0.0
O156 O 0.46285 0.12518 0.51783 0.0
O157 O 0.4142 0.09234 0.48661 0.0
C158 C 0.54639 0.93461 0.47979 0.0
C159 C 0.45998 0.96809 0.5046 0.0
C160 C 0.48124 0.97923 0.60933 0.0
C161 C 0.56504 0.94072 0.57463 0.0
C162 C 0.44376 0.13102 0.5921 0.0
C163 C 0.53593 0.10073 0.58133 0.0
C164 C 0.51822 0.08605 0.47233 0.0
C165 C 0.43266 0.1228 0.50193 0.0
O166 O 0.51437 0.92178 0.48721 0.0
O167 O 0.56538 0.96573 0.49429 0.0
O168 O 0.46958 1.00266 0.50066 0.0
O169 O 0.47825 0.95268 0.52506 0.0
Co170 Co 0.47283 0.5551 0.12141 0.0
Co171 Co 0.44999 0.49246 0.08885 0.0
Co172 Co 0.50949 0.54657 0.0413 0.0
O173 O 0.46798 0.53988 0.07029 0.0
H174 H 0.45025 0.54714 0.05562 0.0
O175 O 0.55076 0.5524 1.0116 0.0
Co176 Co 0.54239 0.53748 0.95982 0.0
Co177 Co 0.56962 0.59923 0.99301 0.0
H178 H 0.56813 0.54374 0.0252 0.0
O179 O 0.40417 0.47438 0.10031 0.0
O180 O 0.44947 0.50464 0.13856 0.0
O181 O 0.47961 0.46224 0.09121 0.0
O182 O 0.52366 0.50514 0.06795 0.0
O183 O 0.4785 0.51267 1.00235 0.0
O184 O 0.53684 0.52176 0.91323 0.0
O185 O 0.58017 0.52214 0.95619 0.0
O186 O 0.50164 0.5495 0.9565 0.0
O187 O 0.49577 0.58873 0.01504 0.0
O188 O 0.54208 0.63152 0.99571 0.0
O189 O 0.56677 0.58738 0.94237 0.0
O190 O 0.61463 0.61564 0.97807 0.0
C191 C 0.44544 0.57575 0.15553 0.0
C192 C 0.54068 0.57103 0.11542 0.0
C193 C 0.51117 0.47444 0.08485 0.0
C194 C 0.41697 0.48661 0.13346 0.0
C195 C 0.56446 0.51288 0.92293 0.0
C196 C 0.47658 0.52436 0.9685 0.0
C197 C 0.51017 0.62044 1.00089 0.0
C198 C 0.59952 0.60463 0.94534 0.0
O199 O 0.47438 0.57071 0.16784 0.0
O200 O 0.43316 0.56665 0.12108 0.0
O201 O 0.54006 0.58059 0.08064 0.0
O202 O 0.51547 0.54625 0.1279 0.0
H203 H 0.21909 0.37306 0.4507 0.0
H204 H 0.29387 0.48059 0.44611 0.0
H205 H 0.25241 0.50749 0.47079 0.0
H206 H 0.14871 0.39952 0.41669 0.0
H207 H 0.11796 0.36925 0.44605 0.0
H208 H 0.15498 0.35731 0.43422 0.0
H209 H 0.17231 0.35089 0.5052 0.0
H210 H 0.1351 0.36258 0.51722 0.0
H211 H 0.17729 0.38845 0.53616 0.0
H212 H 0.20237 0.52319 0.49119 0.0
H213 H 0.14553 0.52783 0.50276 0.0
H214 H 0.10102 0.41056 0.49043 0.0
C215 C 0.22683 0.40211 0.45589 0.0
C216 C 0.25962 0.4249 0.44711 0.0
C217 C 0.26886 0.46288 0.45307 0.0
C218 C 0.24559 0.47827 0.46718 0.0
C219 C 0.21316 0.45526 0.47492 0.0
C220 C 0.20366 0.418 0.4695 0.0
C221 C 0.1661 0.40006 0.47656 0.0
C222 C 0.14575 0.38039 0.44127 0.0
C223 C 0.1625 0.37395 0.51082 0.0
C224 C 0.15566 0.43327 0.48508 0.0
C225 C 0.1835 0.46462 0.48503 0.0
C226 C 0.18042 0.49882 0.49155 0.0
C227 C 0.14796 0.50114 0.49798 0.0
C228 C 0.1188 0.46958 0.49711 0.0
C229 C 0.12281 0.43515 0.49091 0.0
H230 H 0.60774 0.27203 0.36497 0.0
H231 H 0.70508 0.24991 0.38814 0.0
H232 H 0.6748 0.19044 0.41667 0.0
H233 H 0.56992 0.2322 0.44852 0.0
H234 H 0.52738 0.21347 0.42612 0.0
H235 H 0.55677 0.25387 0.40681 0.0
H236 H 0.54928 0.22211 0.34242 0.0
H237 H 0.51995 0.18152 0.36163 0.0
H238 H 0.55743 0.17885 0.34009 0.0
H239 H 0.63387 0.13447 0.44624 0.0
H240 H 0.58564 0.08695 0.47349 0.0
H241 H 0.51515 0.14416 0.42707 0.0
C242 C 0.62274 0.25453 0.37544 0.0
C243 C 0.65895 0.266 0.37435 0.0
C244 C 0.67745 0.24226 0.38916 0.0
C245 C 0.66043 0.20818 0.40515 0.0
C246 C 0.62478 0.19787 0.40585 0.0
C247 C 0.60615 0.2203 0.3912 0.0
C248 C 0.56814 0.20321 0.39615 0.0
C249 C 0.55478 0.22711 0.42087 0.0
C250 C 0.54749 0.19599 0.35778 0.0
C251 C 0.56832 0.16783 0.41619 0.0
C252 C 0.60121 0.16521 0.42162 0.0
C253 C 0.60793 0.13599 0.44164 0.0
C254 C 0.58039 0.10908 0.45697 0.0
C255 C 0.54649 0.11139 0.45191 0.0
C256 C 0.54054 0.14096 0.43067 0.0
H257 H 0.81336 0.736 0.42107 0.0
H258 H 0.71903 0.6779 0.47287 0.0
H259 H 0.74631 0.6332 0.50066 0.0
H260 H 0.83793 0.6572 0.39936 0.0
H261 H 0.88315 0.67871 0.41072 0.0
H262 H 0.85612 0.70598 0.39415 0.0
H263 H 0.8762 0.74567 0.45296 0.0
H264 H 0.90263 0.7183 0.47114 0.0
H265 H 0.87037 0.72505 0.49909 0.0
H266 H 0.78162 0.59168 0.51766 0.0
H267 H 0.82575 0.56082 0.53137 0.0
H268 H 0.90003 0.64917 0.47578 0.0
C269 C 0.79846 0.7137 0.43808 0.0
C270 C 0.76367 0.70969 0.44355 0.0
C271 C 0.74531 0.68091 0.46711 0.0
C272 C 0.76061 0.65539 0.48313 0.0
C273 C 0.79452 0.65941 0.47605 0.0
C274 C 0.81351 0.68821 0.45474 0.0
C275 C 0.84994 0.68677 0.45266 0.0
C276 C 0.8572 0.68187 0.41179 0.0
C277 C 0.87634 0.72094 0.47003 0.0
C278 C 0.84844 0.65272 0.47628 0.0
C279 C 0.81591 0.63696 0.48863 0.0
C280 C 0.8073 0.60404 0.50865 0.0
C281 C 0.8326 0.58677 0.5164 0.0
C282 C 0.86651 0.60306 0.50552 0.0
C283 C 0.87451 0.63654 0.4852 0.0
H284 H 0.3446 0.82264 0.35936 0.0
H285 H 0.27698 0.78156 0.44989 0.0
H286 H 0.30905 0.83472 0.48784 0.0
H287 H 0.42055 0.85065 0.41957 0.0
H288 H 0.44097 0.89032 0.39168 0.0
H289 H 0.40999 0.85146 0.36951 0.0
H290 H 0.37453 0.89316 0.34232 0.0
H291 H 0.40529 0.9321 0.36485 0.0
H292 H 0.36049 0.92039 0.3738 0.0
H293 H 0.351 0.88882 0.51869 0.0
H294 H 0.4026 0.93825 0.54139 0.0
H295 H 0.44452 0.94389 0.43272 0.0
C296 C 0.33634 0.82484 0.38706 0.0
C297 C 0.30759 0.79801 0.40105 0.0
C298 C 0.298 0.80212 0.43769 0.0
C299 C 0.31624 0.83223 0.45971 0.0
C300 C 0.34428 0.85806 0.44502 0.0
C301 C 0.35455 0.85456 0.4097 0.0
C302 C 0.38749 0.88449 0.40203 0.0
C303 C 0.41645 0.86826 0.39532 0.0
C304 C 0.38158 0.90899 0.36877 0.0
C305 C 0.39442 0.90489 0.43885 0.0
C306 C 0.36888 0.88942 0.46306 0.0
C307 C 0.37079 0.90165 0.49976 0.0
C308 C 0.39999 0.9298 0.51237 0.0
C309 C 0.42666 0.94541 0.48831 0.0
C310 C 0.42366 0.93324 0.45099 0.0
H311 H 0.22444 0.7254 0.68439 0.0
H312 H 0.24633 0.6368 0.75078 0.0
H313 H 0.19202 0.5947 0.72558 0.0
H314 H 0.13179 0.69544 0.68583 0.0
H315 H 0.12462 0.70705 0.63703 0.0
H316 H 0.16337 0.73223 0.66368 0.0
H317 H 0.20023 0.71748 0.61439 0.0
H318 H 0.16163 0.69272 0.58738 0.0
H319 H 0.19341 0.67058 0.60235 0.0
H320 H 0.13587 0.56083 0.69235 0.0
H321 H 0.08631 0.53626 0.64637 0.0
H322 H 0.10364 0.64377 0.59535 0.0
C323 C 0.21824 0.69723 0.69379 0.0
C324 C 0.24008 0.68536 0.7209 0.0
C325 C 0.23003 0.64778 0.73172 0.0
C326 C 0.19908 0.62322 0.71718 0.0
C327 C 0.17835 0.636 0.69097 0.0
C328 C 0.18782 0.67193 0.67869 0.0
C329 C 0.1625 0.67766 0.64733 0.0
C330 C 0.14451 0.70471 0.65919 0.0
C331 C 0.18052 0.69035 0.6107 0.0
C332 C 0.1375 0.63928 0.64385 0.0
C333 C 0.14681 0.61589 0.66993 0.0
C334 C 0.12823 0.57892 0.67195 0.0
C335 C 0.1 0.56524 0.64594 0.0
C336 C 0.09087 0.58828 0.61796 0.0
C337 C 0.10961 0.62585 0.61716 0.0
H338 H 0.41797 0.31151 0.6695 0.0
H339 H 0.30831 0.25618 0.66385 0.0
H340 H 0.31832 0.20027 0.64167 0.0
H341 H 0.43379 0.27274 0.58593 0.0
H342 H 0.47504 0.2691 0.60369 0.0
H343 H 0.45973 0.30435 0.62059 0.0
H344 H 0.46657 0.28213 0.68937 0.0
H345 H 0.48259 0.24717 0.67311 0.0
H346 H 0.44622 0.23495 0.70166 0.0
H347 H 0.34085 0.15058 0.61923 0.0
H348 H 0.37385 0.1118 0.59784 0.0
H349 H 0.46838 0.20068 0.61821 0.0
C350 C 0.39613 0.28744 0.66408 0.0
C351 C 0.36245 0.2877 0.66932 0.0
C352 C 0.33438 0.25611 0.66083 0.0
C353 C 0.33982 0.22437 0.64812 0.0
C354 C 0.37345 0.22489 0.64363 0.0
C355 C 0.40111 0.25568 0.65128 0.0
C356 C 0.4346 0.24964 0.64313 0.0
C357 C 0.4518 0.27548 0.61145 0.0
C358 C 0.45892 0.2537 0.67896 0.0
C359 C 0.42158 0.21047 0.63028 0.0
C360 C 0.38626 0.19663 0.63053 0.0
C361 C 0.36855 0.1611 0.61913 0.0
C362 C 0.3875 0.13924 0.60716 0.0
C363 C 0.42374 0.15301 0.60676 0.0
C364 C 0.44078 0.1891 0.61858 0.0
H365 H 0.8182 0.44142 0.76357 0.0
H366 H 0.80652 0.3312 0.72944 0.0
H367 H 0.85725 0.35451 0.69159 0.0
H368 H 0.8415 0.4838 0.67494 0.0
H369 H 0.87158 0.52463 0.69479 0.0
H370 H 0.83572 0.49878 0.7206 0.0
H371 H 0.87764 0.49336 0.77741 0.0
H372 H 0.91364 0.51903 0.75159 0.0
H373 H 0.91184 0.47445 0.77057 0.0
H374 H 0.90713 0.39075 0.65423 0.0
H375 H 0.95135 0.4369 0.61993 0.0
H376 H 0.93102 0.52295 0.68042 0.0
C377 C 0.82679 0.42223 0.74862 0.0
C378 C 0.80915 0.38447 0.75005 0.0
C379 C 0.82029 0.36015 0.72924 0.0
C380 C 0.84898 0.37315 0.7077 0.0
C381 C 0.86609 0.41058 0.70715 0.0
C382 C 0.85536 0.43476 0.72704 0.0
C383 C 0.87711 0.47381 0.72034 0.0
C384 C 0.85517 0.49658 0.70155 0.0
C385 C 0.89619 0.49117 0.75717 0.0
C386 C 0.90175 0.46785 0.69358 0.0
C387 C 0.89499 0.43125 0.68617 0.0
C388 C 0.91298 0.41945 0.66026 0.0
C389 C 0.9381 0.44581 0.64097 0.0
C390 C 0.94514 0.48349 0.64793 0.0
C391 C 0.92702 0.49437 0.67513 0.0
H392 H 0.66729 0.81098 0.67084 0.0
H393 H 0.61326 0.72921 0.58872 0.0
H394 H 0.58324 0.77158 0.55966 0.0
H395 H 0.59887 0.84904 0.68284 0.0
H396 H 0.62696 0.89535 0.68618 0.0
H397 H 0.64295 0.858 0.70093 0.0
H398 H 0.69169 0.88105 0.65531 0.0
H399 H 0.67564 0.91829 0.6402 0.0
H400 H 0.68085 0.88741 0.60602 0.0
H401 H 0.55769 0.82204 0.54163 0.0
H402 H 0.53997 0.87768 0.53406 0.0
H403 H 0.61492 0.92861 0.62433 0.0
C404 C 0.64877 0.80201 0.64705 0.0
C405 C 0.64191 0.76688 0.63221 0.0
C406 C 0.61831 0.75602 0.60054 0.0
C407 C 0.60132 0.77987 0.58389 0.0
C408 C 0.6088 0.81456 0.59899 0.0
C409 C 0.63212 0.8257 0.62969 0.0
C410 C 0.63635 0.86477 0.63971 0.0
C411 C 0.62563 0.86689 0.67979 0.0
C412 C 0.67333 0.88932 0.63502 0.0
C413 C 0.61134 0.87368 0.61026 0.0
C414 C 0.59559 0.84432 0.58716 0.0
C415 C 0.5702 0.8454 0.55919 0.0
C416 C 0.56042 0.87724 0.55497 0.0
C417 C 0.57658 0.90786 0.57799 0.0
C418 C 0.60257 0.90598 0.60575 0.0
H419 H 0.30403 0.23667 0.43945 0.0
H420 H 0.37768 0.3306 0.4937 0.0
H421 H 0.41465 0.29258 0.51477 0.0
H422 H 0.31425 0.17023 0.51186 0.0
H423 H 0.30911 0.13476 0.47825 0.0
H424 H 0.28812 0.16926 0.46852 0.0
H425 H 0.31742 0.18541 0.40546 0.0
H426 H 0.33848 0.15102 0.41506 0.0
H427 H 0.36357 0.19756 0.40582 0.0
H428 H 0.44534 0.24499 0.52611 0.0
H429 H 0.46597 0.19112 0.52961 0.0
H430 H 0.37089 0.12758 0.47038 0.0
C431 C 0.32801 0.2492 0.45567 0.0
C432 C 0.33846 0.28676 0.46392 0.0
C433 C 0.36955 0.30209 0.48612 0.0
C434 C 0.39063 0.28066 0.49842 0.0
C435 C 0.3799 0.24385 0.48898 0.0
C436 C 0.34915 0.22817 0.46843 0.0
C437 C 0.34354 0.18805 0.46189 0.0
C438 C 0.31187 0.16418 0.48129 0.0
C439 C 0.34059 0.18006 0.41955 0.0
C440 C 0.37638 0.1838 0.48105 0.0
C441 C 0.39695 0.21623 0.49669 0.0
C442 C 0.42919 0.21934 0.51448 0.0
C443 C 0.4407 0.18854 0.51626 0.0
C444 C 0.41993 0.15495 0.50058 0.0
C445 C 0.38729 0.15271 0.48293 0.0
H446 H 0.74614 0.37831 0.43158 0.0
H447 H 0.78775 0.3826 0.32276 0.0
H448 H 0.84594 0.41493 0.35113 0.0
H449 H 0.79892 0.46851 0.45973 0.0
H450 H 0.80334 0.4557 0.50861 0.0
H451 H 0.76554 0.43196 0.47975 0.0
H452 H 0.77674 0.37044 0.49729 0.0
H453 H 0.81474 0.39407 0.52595 0.0
H454 H 0.81758 0.3648 0.48883 0.0
H455 H 0.90024 0.4457 0.39251 0.0
H456 H 0.94439 0.47807 0.44141 0.0
H457 H 0.86625 0.45607 0.52206 0.0
C458 C 0.76757 0.386 0.41381 0.0
C459 C 0.76258 0.37781 0.37504 0.0
C460 C 0.79109 0.38874 0.35251 0.0
C461 C 0.82421 0.4069 0.36843 0.0
C462 C 0.82834 0.41435 0.40686 0.0
C463 C 0.80065 0.4047 0.42911 0.0
C464 C 0.81161 0.41735 0.46921 0.0
C465 C 0.7938 0.44502 0.47994 0.0
C466 C 0.80476 0.38472 0.49695 0.0
C467 C 0.84979 0.43541 0.46618 0.0
C468 C 0.8591 0.43309 0.43013 0.0
C469 C 0.89315 0.44776 0.42079 0.0
C470 C 0.91812 0.46592 0.44879 0.0
C471 C 0.90883 0.46966 0.48555 0.0
C472 C 0.87422 0.45375 0.49422 0.0
H473 H 0.67095 0.82403 0.4208 0.0
H474 H 0.58366 0.76116 0.34859 0.0
H475 H 0.55178 0.80257 0.36313 0.0
H476 H 0.61804 0.83464 0.4932 0.0
H477 H 0.64528 0.87957 0.50619 0.0
H478 H 0.66349 0.84754 0.48721 0.0
H479 H 0.68907 0.89439 0.43485 0.0
H480 H 0.67082 0.92657 0.45355 0.0
H481 H 0.66108 0.91337 0.40492 0.0
H482 H 0.52764 0.84816 0.38691 0.0
H483 H 0.51096 0.89282 0.42232 0.0
H484 H 0.61105 0.9245 0.48383 0.0
C485 C 0.64511 0.81858 0.40799 0.0
C486 C 0.63055 0.78918 0.38261 0.0
C487 C 0.5965 0.7839 0.36675 0.0
C488 C 0.57779 0.80719 0.37522 0.0
C489 C 0.59293 0.83549 0.40025 0.0
C490 C 0.62558 0.84103 0.41692 0.0
C491 C 0.63457 0.87181 0.44526 0.0
C492 C 0.64071 0.85754 0.48533 0.0
C493 C 0.66574 0.90341 0.43395 0.0
C494 C 0.60191 0.88287 0.44151 0.0
C495 C 0.57841 0.86151 0.41516 0.0
C496 C 0.54586 0.86516 0.40745 0.0
C497 C 0.53666 0.89067 0.42774 0.0
C498 C 0.55981 0.91242 0.45556 0.0
C499 C 0.59316 0.9089 0.46211 0.0
H500 H 0.20344 0.64258 0.37121 0.0
H501 H 0.18283 0.7465 0.37463 0.0
H502 H 0.12616 0.71496 0.39843 0.0
H503 H 0.11337 0.58812 0.34104 0.0
H504 H 0.11688 0.5492 0.36893 0.0
H505 H 0.15429 0.57969 0.34869 0.0
H506 H 0.18652 0.58963 0.41501 0.0
H507 H 0.14924 0.55918 0.43507 0.0
H508 H 0.16751 0.60492 0.45258 0.0
H509 H 0.07598 0.67311 0.43173 0.0
H510 H 0.03438 0.62347 0.46565 0.0
H511 H 0.08546 0.54697 0.43364 0.0
C512 C 0.18668 0.65875 0.37553 0.0
C513 C 0.19797 0.6972 0.37119 0.0
C514 C 0.17523 0.71712 0.37836 0.0
C515 C 0.14279 0.69941 0.3916 0.0
C516 C 0.13302 0.66163 0.39668 0.0
C517 C 0.15405 0.64147 0.38808 0.0
C518 C 0.13839 0.60144 0.39766 0.0
C519 C 0.13024 0.57825 0.36194 0.0
C520 C 0.16181 0.58805 0.42682 0.0
C521 C 0.10586 0.6024 0.41429 0.0
C522 C 0.10312 0.63732 0.41358 0.0
C523 C 0.07725 0.64546 0.43139 0.0
C524 C 0.0538 0.61722 0.45061 0.0
C525 C 0.05615 0.58131 0.45127 0.0
C526 C 0.08219 0.57387 0.43231 0.0
H527 H 0.39292 0.79777 0.72504 0.0
H528 H 0.29426 0.81437 0.69365 0.0
H529 H 0.32375 0.87225 0.66148 0.0
H530 H 0.43955 0.89227 0.74442 0.0
H531 H 0.47839 0.88991 0.72569 0.0
H532 H 0.44945 0.84972 0.74603 0.0
H533 H 0.44517 0.81466 0.6842 0.0
H534 H 0.4743 0.85463 0.66385 0.0
H535 H 0.4327 0.83349 0.64028 0.0
H536 H 0.36466 0.92849 0.63137 0.0
H537 H 0.41296 0.97634 0.60472 0.0
H538 H 0.48436 0.92363 0.6586 0.0
C539 C 0.37741 0.81366 0.7118 0.0
C540 C 0.34112 0.80125 0.71201 0.0
C541 C 0.32201 0.82283 0.69354 0.0
C542 C 0.33857 0.85599 0.67544 0.0
C543 C 0.37435 0.86749 0.67612 0.0
C544 C 0.3935 0.84689 0.6938 0.0
C545 C 0.43158 0.86491 0.69004 0.0
C546 C 0.45087 0.87479 0.72886 0.0
C547 C 0.44682 0.84047 0.66829 0.0
C548 C 0.43091 0.89883 0.66737 0.0
C549 C 0.39771 0.89993 0.65957 0.0
C550 C 0.39078 0.92801 0.63762 0.0
C551 C 0.41841 0.95517 0.62268 0.0
C552 C 0.45262 0.95415 0.62974 0.0
C553 C 0.45871 0.92581 0.65305 0.0
H554 H 0.27151 0.44136 0.69031 0.0
H555 H 0.2192 0.32503 0.68142 0.0
H556 H 0.16998 0.33809 0.64575 0.0
H557 H 0.19856 0.46767 0.70612 0.0
H558 H 0.21145 0.50948 0.67888 0.0
H559 H 0.2435 0.4909 0.70112 0.0
H560 H 0.26867 0.49059 0.63656 0.0
H561 H 0.23665 0.50924 0.61418 0.0
H562 H 0.24088 0.46733 0.59751 0.0
H563 H 0.12517 0.36403 0.614 0.0
H564 H 0.08806 0.40071 0.5894 0.0
H565 H 0.16962 0.50003 0.61983 0.0
C566 C 0.24969 0.41858 0.68096 0.0
C567 C 0.24919 0.38213 0.68878 0.0
C568 C 0.22032 0.35315 0.67547 0.0
C569 C 0.19222 0.36031 0.65526 0.0
C570 C 0.19346 0.39657 0.64838 0.0
C571 C 0.22151 0.42522 0.66073 0.0
C572 C 0.21602 0.46171 0.65073 0.0
C573 C 0.21746 0.48372 0.68633 0.0
C574 C 0.24211 0.48349 0.6231 0.0
C575 C 0.18008 0.44913 0.63181 0.0
C576 C 0.16765 0.41148 0.63032 0.0
C577 C 0.13469 0.39353 0.61494 0.0
C578 C 0.11375 0.41462 0.60117 0.0
C579 C 0.12583 0.45324 0.60294 0.0
C580 C 0.15962 0.47058 0.61806 0.0
H581 H 0.61583 0.29098 0.68599 0.0
H582 H 0.67471 0.23971 0.76304 0.0
H583 H 0.64816 0.18066 0.73054 0.0
H584 H 0.53774 0.214 0.67381 0.0
H585 H 0.5316 0.22387 0.62435 0.0
H586 H 0.55322 0.26029 0.65622 0.0
H587 H 0.60518 0.27851 0.61433 0.0
H588 H 0.58364 0.24146 0.58311 0.0
H589 H 0.62581 0.24501 0.60461 0.0
H590 H 0.61423 0.12658 0.68827 0.0
H591 H 0.57817 0.08424 0.63957 0.0
H592 H 0.54617 0.17371 0.58831 0.0
C593 C 0.62259 0.2671 0.69635 0.0
C594 C 0.64674 0.26951 0.72735 0.0
C595 C 0.65588 0.2381 0.73954 0.0
C596 C 0.64098 0.20455 0.72124 0.0
C597 C 0.61742 0.20307 0.69038 0.0
C598 C 0.60851 0.23369 0.67794 0.0
C599 C 0.58428 0.22571 0.64288 0.0
C600 C 0.54966 0.23128 0.64977 0.0
C601 C 0.60072 0.24906 0.60925 0.0
C602 C 0.58054 0.18577 0.63774 0.0
C603 C 0.59957 0.17293 0.66541 0.0
C604 C 0.59933 0.13648 0.6664 0.0
C605 C 0.57886 0.1126 0.6386 0.0
C606 C 0.55922 0.12542 0.61001 0.0
C607 C 0.56066 0.16268 0.60967 0.0
H608 H 0.79102 0.70756 0.60086 0.0
H609 H 0.7081 0.60531 0.59745 0.0
H610 H 0.75056 0.5713 0.60546 0.0
H611 H 0.84745 0.68068 0.54954 0.0
H612 H 0.88607 0.70491 0.57678 0.0
H613 H 0.84924 0.72123 0.57415 0.0
H614 H 0.84916 0.71884 0.64684 0.0
H615 H 0.88612 0.70261 0.6499 0.0
H616 H 0.8477 0.67684 0.67185 0.0
H617 H 0.80166 0.54872 0.61097 0.0
H618 H 0.85801 0.53871 0.60819 0.0
H619 H 0.90786 0.65584 0.60852 0.0
C620 C 0.78191 0.67801 0.60242 0.0
C621 C 0.74642 0.65893 0.59927 0.0
C622 C 0.73524 0.62031 0.60043 0.0
C623 C 0.75911 0.60085 0.60512 0.0
C624 C 0.79395 0.62051 0.6088 0.0
C625 C 0.80535 0.65823 0.60749 0.0
C626 C 0.8442 0.67273 0.61031 0.0
C627 C 0.85754 0.69629 0.57565 0.0
C628 C 0.85758 0.69401 0.64691 0.0
C629 C 0.85287 0.63723 0.61138 0.0
C630 C 0.82352 0.60746 0.61147 0.0
C631 C 0.82483 0.57178 0.61119 0.0
C632 C 0.85692 0.56639 0.60946 0.0
C633 C 0.88715 0.59654 0.60798 0.0
C634 C 0.88515 0.63234 0.60992 0.0
H635 H 0.37972 0.43902 0.34922 0.0
H636 H 0.27122 0.40284 0.31334 0.0
H637 H 0.28505 0.42192 0.24783 0.0
H638 H 0.40136 0.51968 0.28654 0.0
H639 H 0.44272 0.5156 0.27786 0.0
H640 H 0.42429 0.4998 0.32205 0.0
H641 H 0.42999 0.43566 0.31146 0.0
H642 H 0.4485 0.45134 0.26737 0.0
H643 H 0.41096 0.41182 0.26868 0.0
H644 H 0.31086 0.44151 0.18593 0.0
H645 H 0.3468 0.4619 0.13194 0.0
H646 H 0.43848 0.48869 0.20849 0.0
C647 C 0.35898 0.43517 0.32746 0.0
C648 C 0.32443 0.41933 0.33605 0.0
C649 C 0.29783 0.41501 0.30714 0.0
C650 C 0.30544 0.42577 0.26996 0.0
C651 C 0.33977 0.44138 0.26234 0.0
C652 C 0.36612 0.44644 0.2903 0.0
C653 C 0.40079 0.464 0.2745 0.0
C654 C 0.41831 0.50202 0.29124 0.0
C655 C 0.42391 0.43922 0.28088 0.0
C656 C 0.38988 0.46685 0.23315 0.0
C657 C 0.35457 0.45381 0.22677 0.0
C658 C 0.33852 0.45213 0.19062 0.0
C659 C 0.35914 0.4637 0.16013 0.0
C660 C 0.3954 0.47695 0.166 0.0
C661 C 0.41081 0.47904 0.20311 0.0
H662 H 0.34687 0.64008 0.87852 0.0
H663 H 0.41269 0.74325 0.83776 0.0
H664 H 0.45736 0.74158 0.88825 0.0
H665 H 0.37778 0.6556 0.98286 0.0
H666 H 0.37436 0.60801 0.98974 0.0
H667 H 0.34504 0.62139 0.95611 0.0
H668 H 0.36225 0.58689 0.90395 0.0
H669 H 0.39144 0.57358 0.93733 0.0
H670 H 0.4069 0.59797 0.89463 0.0
H671 H 0.49793 0.72371 0.93575 0.0
H672 H 0.53155 0.69137 0.97542 0.0
H673 H 0.43974 0.59879 0.98537 0.0
C674 C 0.3702 0.66293 0.88118 0.0
C675 C 0.37634 0.692 0.85449 0.0
C676 C 0.40744 0.72103 0.85823 0.0
C677 C 0.43288 0.72027 0.88684 0.0
C678 C 0.4266 0.69052 0.9119 0.0
C679 C 0.39577 0.66263 0.90973 0.0
C680 C 0.39686 0.63193 0.93741 0.0
C681 C 0.37203 0.62908 0.96837 0.0
C682 C 0.38893 0.59543 0.91709 0.0
C683 C 0.43398 0.64551 0.95331 0.0
C684 C 0.45031 0.6799 0.93912 0.0
C685 C 0.48523 0.69709 0.94755 0.0
C686 C 0.50417 0.67838 0.97014 0.0
C687 C 0.4884 0.6425 0.98386 0.0
C688 C 0.45254 0.62641 0.97607 0.0
H689 H 0.35369 0.37345 0.83035 0.0
H690 H 0.33683 0.4642 0.76396 0.0
H691 H 0.36815 0.50657 0.81381 0.0
H692 H 0.34753 0.40857 0.9234 0.0
H693 H 0.38156 0.39287 0.94566 0.0
H694 H 0.35523 0.36852 0.90628 0.0
H695 H 0.40966 0.37559 0.87056 0.0
H696 H 0.43609 0.39962 0.90995 0.0
H697 H 0.43936 0.42051 0.86368 0.0
H698 H 0.40597 0.53978 0.86587 0.0
H699 H 0.44823 0.56287 0.91926 0.0
H700 H 0.44051 0.45191 0.95491 0.0
C701 C 0.35642 0.40221 0.82644 0.0
C702 C 0.34228 0.41534 0.79332 0.0
C703 C 0.34658 0.45323 0.78933 0.0
C704 C 0.3645 0.47761 0.81746 0.0
C705 C 0.378 0.46382 0.84963 0.0
C706 C 0.37426 0.42708 0.85444 0.0
C707 C 0.39311 0.42004 0.89104 0.0
C708 C 0.36784 0.39607 0.9182 0.0
C709 C 0.42122 0.40294 0.88333 0.0
C710 C 0.40855 0.4587 0.90553 0.0
C711 C 0.39928 0.48335 0.88104 0.0
C712 C 0.41265 0.52084 0.88593 0.0
C713 C 0.43653 0.53366 0.91633 0.0
C714 C 0.44662 0.50917 0.9418 0.0
C715 C 0.43204 0.47112 0.93674 0.0
H716 H 0.67994 0.39968 0.84359 0.0
H717 H 0.60112 0.3676 0.75181 0.0
H718 H 0.56913 0.40452 0.77837 0.0
H719 H 0.62207 0.39776 0.91601 0.0
H720 H 0.65075 0.4369 0.94029 0.0
H721 H 0.6679 0.40824 0.91405 0.0
H722 H 0.70119 0.46461 0.87543 0.0
H723 H 0.68399 0.49342 0.90144 0.0
H724 H 0.67809 0.49254 0.85076 0.0
H725 H 0.54653 0.4458 0.81298 0.0
H726 H 0.53144 0.48529 0.85642 0.0
H727 H 0.62344 0.4905 0.92841 0.0
C728 C 0.65595 0.40049 0.82911 0.0
C729 C 0.64298 0.38058 0.79559 0.0
C730 C 0.61136 0.38213 0.7777 0.0
C731 C 0.59313 0.40328 0.79243 0.0
C732 C 0.60668 0.42267 0.82527 0.0
C733 C 0.63716 0.42128 0.84369 0.0
C734 C 0.64539 0.44424 0.87909 0.0
C735 C 0.64659 0.42035 0.91445 0.0
C736 C 0.67917 0.47556 0.87651 0.0
C737 C 0.61472 0.45869 0.87764 0.0
C738 C 0.59302 0.44608 0.84604 0.0
C739 C 0.56323 0.45572 0.8379 0.0
C740 C 0.55497 0.47837 0.86289 0.0
C741 C 0.57617 0.49115 0.89612 0.0
C742 C 0.60666 0.48127 0.90338 0.0
H743 H 0.61625 0.66943 0.73079 0.0
H744 H 0.72685 0.70584 0.75434 0.0
H745 H 0.71959 0.68056 0.81915 0.0
H746 H 0.59398 0.68934 0.8199 0.0
H747 H 0.55671 0.64958 0.8217 0.0
H748 H 0.57088 0.66926 0.77691 0.0
H749 H 0.57462 0.60673 0.75645 0.0
H750 H 0.5606 0.58692 0.80133 0.0
H751 H 0.60037 0.58422 0.78535 0.0
H752 H 0.69987 0.65504 0.88273 0.0
H753 H 0.66922 0.62986 0.93961 0.0
H754 H 0.57175 0.60764 0.87338 0.0
C755 C 0.63891 0.67202 0.74963 0.0
C756 C 0.67212 0.68963 0.73767 0.0
C757 C 0.7012 0.69221 0.76293 0.0
C758 C 0.69732 0.67799 0.79976 0.0
C759 C 0.66421 0.66084 0.8107 0.0
C760 C 0.63552 0.65754 0.78628 0.0
C761 C 0.60278 0.63828 0.80515 0.0
C762 C 0.57974 0.6631 0.80597 0.0
C763 C 0.58346 0.60188 0.78592 0.0
C764 C 0.61748 0.63204 0.84425 0.0
C765 C 0.65296 0.64518 0.84691 0.0
C766 C 0.67212 0.64426 0.88086 0.0
C767 C 0.65451 0.62997 0.91301 0.0
C768 C 0.61815 0.61659 0.91089 0.0
C769 C 0.59958 0.61715 0.87584 0.0
H770 H 0.63208 0.72947 0.26102 0.0
H771 H 0.65619 0.64428 0.33103 0.0
H772 H 0.63732 0.60205 0.27861 0.0
H773 H 0.55364 0.66999 0.22034 0.0
H774 H 0.55727 0.6921 0.17466 0.0
H775 H 0.57718 0.7178 0.21601 0.0
H776 H 0.63577 0.7369 0.18589 0.0
H777 H 0.61601 0.71079 0.14462 0.0
H778 H 0.65251 0.70219 0.17023 0.0
H779 H 0.61172 0.56669 0.22162 0.0
H780 H 0.57598 0.53922 0.16493 0.0
H781 H 0.5649 0.64451 0.13096 0.0
C782 C 0.63365 0.70206 0.26546 0.0
C783 C 0.64691 0.69109 0.30045 0.0
C784 C 0.64788 0.65452 0.30448 0.0
C785 C 0.63684 0.62992 0.27477 0.0
C786 C 0.62424 0.64169 0.24092 0.0
C787 C 0.62209 0.6767 0.23611 0.0
C788 C 0.60423 0.68096 0.19788 0.0
C789 C 0.57112 0.69078 0.20252 0.0
C790 C 0.62859 0.70941 0.1732 0.0
C791 C 0.59626 0.64271 0.1824 0.0
C792 C 0.60855 0.62075 0.20766 0.0
C793 C 0.60245 0.58372 0.20133 0.0
C794 C 0.5823 0.56838 0.16898 0.0
C795 C 0.56857 0.58995 0.14318 0.0
C796 C 0.57627 0.62779 0.14952 0.0
H797 H 0.3088 0.6717 0.2125 0.0
H798 H 0.36526 0.69081 0.32181 0.0
H799 H 0.40309 0.65655 0.30277 0.0
H800 H 0.31417 0.57998 0.19887 0.0
H801 H 0.3202 0.58723 0.14927 0.0
H802 H 0.29599 0.61115 0.17221 0.0
H803 H 0.33627 0.67297 0.14899 0.0
H804 H 0.36052 0.64923 0.12596 0.0
H805 H 0.38199 0.68401 0.15978 0.0
H806 H 0.43522 0.6214 0.27194 0.0
H807 H 0.46262 0.59132 0.22986 0.0
H808 H 0.38683 0.59623 0.13911 0.0
C809 C 0.32883 0.66814 0.23254 0.0
C810 C 0.33343 0.68285 0.26907 0.0
C811 C 0.36067 0.67884 0.29411 0.0
C812 C 0.3823 0.65948 0.28352 0.0
C813 C 0.37671 0.64478 0.24757 0.0
C814 C 0.35086 0.64909 0.22231 0.0
C815 C 0.3517 0.63226 0.18467 0.0
C816 C 0.31854 0.60078 0.17575 0.0
C817 C 0.35801 0.66136 0.15299 0.0
C818 C 0.38231 0.61819 0.19264 0.0
C819 C 0.39606 0.62541 0.22925 0.0
C820 C 0.42471 0.61562 0.24321 0.0
C821 C 0.44012 0.59856 0.21898 0.0
C822 C 0.42704 0.59157 0.18103 0.0
C823 C 0.39743 0.60114 0.16794 0.0
H824 H 0.57669 0.37425 0.26017 0.0
H825 H 0.6798 0.42008 0.22373 0.0
H826 H 0.65621 0.44196 0.16441 0.0
H827 H 0.53278 0.34627 0.16627 0.0
H828 H 0.49557 0.35874 0.17671 0.0
H829 H 0.52034 0.34332 0.21401 0.0
H830 H 0.52858 0.40273 0.25059 0.0
H831 H 0.50378 0.41818 0.21351 0.0
H832 H 0.54666 0.44631 0.22773 0.0
H833 H 0.62148 0.46451 0.11229 0.0
H834 H 0.57913 0.48596 0.07249 0.0
H835 H 0.49861 0.42399 0.14269 0.0
C836 C 0.59421 0.38808 0.23925 0.0
C837 C 0.63006 0.39491 0.24614 0.0
C838 C 0.65224 0.41402 0.2186 0.0
C839 C 0.63904 0.42655 0.18491 0.0
C840 C 0.60355 0.41967 0.17913 0.0
C841 C 0.58144 0.4007 0.20553 0.0
C842 C 0.54464 0.39911 0.1939 0.0
C843 C 0.522 0.3595 0.18733 0.0
C844 C 0.53008 0.4177 0.22316 0.0
C845 C 0.5495 0.4208 0.15724 0.0
C846 C 0.58361 0.43228 0.14903 0.0
C847 C 0.59462 0.4551 0.11812 0.0
C848 C 0.57034 0.46711 0.09558 0.0
C849 C 0.53533 0.45627 0.10394 0.0
C850 C 0.52489 0.43208 0.13477 0.0
loop_
_geom_bond_atom_site_label_1
_geom_bond_atom_site_label_2
_geom_bond_distance
_geom_bond_site_symmetry_2
_ccdc_geom_bond_type
H0 C7 0.929 . S
H1 C10 0.930 . S
H2 C12 0.929 . S
H3 C4 0.969 . S
C4 H3 0.969 . S
C4 O5 1.550 . S
C4 H6 0.973 . S
O5 C4 1.550 . S
O5 C11 1.412 . S
H6 C4 0.973 . S
C7 H0 0.929 . S
C7 C8 1.400 . S
C7 C9 1.364 . S
C8 C7 1.400 . S
C8 C12 1.377 . S
C9 C7 1.364 . S
C9 C10 1.374 . S
C10 H1 0.930 . S
C10 C9 1.374 . S
C10 C11 1.383 . S
C11 O5 1.412 . S
C11 C10 1.383 . S
C11 C12 1.394 . S
C12 H2 0.929 . S
C12 C8 1.377 . S
C12 C11 1.394 . S
H13 C20 0.929 . S
H14 C23 0.930 . S
H15 C25 0.929 . S
H16 C17 0.969 . S
C17 H16 0.969 . S
C17 O18 1.550 . S
C17 H19 0.973 . S
O18 C17 1.550 . S
O18 C24 1.412 . S
H19 C17 0.973 . S
C20 H13 0.929 . S
C20 C21 1.400 . S
C20 C22 1.364 . S
C21 C20 1.400 . S
C21 C25 1.377 . S
C22 C20 1.364 . S
C22 C23 1.374 . S
C23 H14 0.930 . S
C23 C22 1.374 . S
C23 C24 1.383 . S
C24 O18 1.412 . S
C24 C23 1.383 . S
C24 C25 1.394 . S
C25 H15 0.929 . S
C25 C21 1.377 . S
C25 C24 1.394 . S
H26 C33 0.929 . S
H27 C36 0.930 . S
H28 C38 0.929 . S
H29 C30 0.969 . S
C30 H29 0.969 . S
C30 O31 1.550 . S
C30 H32 0.973 . S
O31 C30 1.550 . S
O31 C37 1.412 . S
H32 C30 0.973 . S
C33 H26 0.929 . S
C33 C34 1.400 . S
C33 C35 1.364 . S
C34 C33 1.400 . S
C34 C38 1.377 . S
C35 C33 1.364 . S
C35 C36 1.374 . S
C36 H27 0.930 . S
C36 C35 1.374 . S
C36 C37 1.383 . S
C37 O31 1.412 . S
C37 C36 1.383 . S
C37 C38 1.394 . S
C38 H28 0.929 . S
C38 C34 1.377 . S
C38 C37 1.394 . S
H39 C46 0.929 . S
H40 C49 0.930 . S
H41 C51 0.929 . S
H42 C43 0.969 . S
C43 H42 0.969 . S
C43 O44 1.550 . S
C43 H45 0.973 . S
O44 C43 1.550 . S
O44 C50 1.412 . S
H45 C43 0.973 . S
C46 H39 0.929 . S
C46 C47 1.400 . S
C46 C48 1.364 . S
C47 C46 1.400 . S
C47 C51 1.377 . S
C48 C46 1.364 . S
C48 C49 1.374 . S
C49 H40 0.930 . S
C49 C48 1.374 . S
C49 C50 1.383 . S
C50 O44 1.412 . S
C50 C49 1.383 . S
C50 C51 1.394 . S
C51 H41 0.929 . S
C51 C47 1.377 . S
C51 C50 1.394 . S
H52 C59 0.929 . S
H53 C62 0.930 . S
H54 C64 0.929 . S
H55 C56 0.969 . S
C56 H55 0.969 . S
C56 O57 1.550 . S
C56 H58 0.973 . S
O57 C56 1.550 . S
O57 C63 1.412 . S
H58 C56 0.973 . S
C59 H52 0.929 . S
C59 C60 1.400 . S
C59 C61 1.364 . S
C60 C59 1.400 . S
C60 C64 1.377 . S
C61 C59 1.364 . S
C61 C62 1.374 . S
C62 H53 0.930 . S
C62 C61 1.374 . S
C62 C63 1.383 . S
C63 O57 1.412 . S
C63 C62 1.383 . S
C63 C64 1.394 . S
C64 H54 0.929 . S
C64 C60 1.377 . S
C64 C63 1.394 . S
H65 C72 0.929 . S
H66 C75 0.930 . S
H67 C77 0.929 . S
H68 C69 0.969 . S
C69 H68 0.969 . S
C69 O70 1.550 . S
C69 H71 0.973 . S
O70 C69 1.550 . S
O70 C76 1.412 . S
H71 C69 0.973 . S
C72 H65 0.929 . S
C72 C73 1.400 . S
C72 C74 1.364 . S
C73 C72 1.400 . S
C73 C77 1.377 . S
C74 C72 1.364 . S
C74 C75 1.374 . S
C75 H66 0.930 . S
C75 C74 1.374 . S
C75 C76 1.383 . S
C76 O70 1.412 . S
C76 C75 1.383 . S
C76 C77 1.394 . S
C77 H67 0.929 . S
C77 C73 1.377 . S
C77 C76 1.394 . S
H78 C85 0.929 . S
H79 C88 0.930 . S
H80 C90 0.929 . S
H81 C82 0.969 . S
C82 H81 0.969 . S
C82 O83 1.550 . S
C82 H84 0.973 . S
O83 C82 1.550 . S
O83 C89 1.412 . S
H84 C82 0.973 . S
C85 H78 0.929 . S
C85 C86 1.400 . S
C85 C87 1.364 . S
C86 C85 1.400 . S
C86 C90 1.377 . S
C87 C85 1.364 . S
C87 C88 1.374 . S
C88 H79 0.930 . S
C88 C87 1.374 . S
C88 C89 1.383 . S
C89 O83 1.412 . S
C89 C88 1.383 . S
C89 C90 1.394 . S
C90 H80 0.929 . S
C90 C86 1.377 . S
C90 C89 1.394 . S
H91 C98 0.929 . S
H92 C101 0.930 . S
H93 C103 0.929 . S
H94 C95 0.969 . S
C95 H94 0.969 . S
C95 O96 1.550 . S
C95 H97 0.973 . S
O96 C95 1.550 . S
O96 C102 1.412 . S
H97 C95 0.973 . S
C98 H91 0.929 . S
C98 C99 1.400 . S
C98 C100 1.364 . S
C99 C98 1.400 . S
C99 C103 1.377 . S
C100 C98 1.364 . S
C100 C101 1.374 . S
C101 H92 0.930 . S
C101 C100 1.374 . S
C101 C102 1.383 . S
C102 O96 1.412 . S
C102 C101 1.383 . S
C102 C103 1.394 . S
C103 H93 0.929 . S
C103 C99 1.377 . S
C103 C102 1.394 . S
Co104 O107 2.042 . S
Co104 O114 2.264 . S
Co104 O133 2.286 . S
Co104 O134 2.069 . S
Co104 O136 2.015 . S
Co105 O107 2.122 . S
Co105 O113 2.073 . S
Co105 O114 2.327 . S
Co105 O115 1.976 . S
Co106 O107 2.087 . S
Co106 O109 2.087 1_455 S
Co106 O116 2.111 . S
Co106 O117 2.143 1_455 S
Co106 O121 2.111 1_455 S
Co106 O135 2.143 . S
O107 Co104 2.042 . S
O107 Co105 2.122 . S
O107 Co106 2.087 . S
O107 H108 0.980 . S
H108 O107 0.980 . S
O109 Co106 2.087 1_655 S
O109 Co110 2.042 . S
O109 Co111 2.122 . S
O109 H112 0.980 1_655 S
Co110 O109 2.042 . S
Co110 O118 2.286 . S
Co110 O119 2.069 . S
Co110 O120 2.015 . S
Co110 O123 2.264 . S
Co111 O109 2.122 . S
Co111 O122 1.976 . S
Co111 O123 2.327 . S
Co111 O124 2.073 . S
H112 O109 0.980 1_455 S
O113 Co105 2.073 . S
O113 C128 1.245 . S
O114 Co104 2.264 . S
O114 Co105 2.327 . S
O114 C128 1.257 . S
O115 Co105 1.976 . S
O115 C127 1.251 . S
O116 Co106 2.111 . S
O116 C127 1.274 . S
O117 Co106 2.143 1_655 S
O117 C130 1.246 . S
O118 Co110 2.286 . S
O118 C129 1.259 . S
O119 Co110 2.069 . S
O119 C129 1.289 . S
O120 Co110 2.015 . S
O120 C130 1.257 . S
O121 Co106 2.111 1_655 S
O121 C131 1.274 . S
O122 Co111 1.976 . S
O122 C131 1.251 . S
O123 Co110 2.264 . S
O123 Co111 2.327 . S
O123 C132 1.257 . S
O124 Co111 2.073 . S
O124 C132 1.245 . S
C125 O133 1.259 . S
C125 O134 1.289 . S
C126 O135 1.246 . S
C126 O136 1.257 . S
C127 O115 1.251 . S
C127 O116 1.274 . S
C128 O113 1.245 . S
C128 O114 1.257 . S
C129 O118 1.259 . S
C129 O119 1.289 . S
C130 O117 1.246 . S
C130 O120 1.257 . S
C131 O121 1.274 . S
C131 O122 1.251 . S
C132 O123 1.257 . S
C132 O124 1.245 . S
O133 Co104 2.286 . S
O133 C125 1.259 . S
O134 Co104 2.069 . S
O134 C125 1.289 . S
O135 Co106 2.143 . S
O135 C126 1.246 . S
O136 Co104 2.015 . S
O136 C126 1.257 . S
Co137 O140 2.042 . S
Co137 O147 2.264 . S
Co137 O166 2.286 . S
Co137 O167 2.069 . S
Co137 O169 2.015 . S
Co138 O140 2.122 . S
Co138 O146 2.073 . S
Co138 O147 2.327 . S
Co138 O148 1.976 . S
Co139 O140 2.087 1_545 S
Co139 O142 2.087 . S
Co139 O149 2.111 1_545 S
Co139 O150 2.143 . S
Co139 O154 2.111 . S
Co139 O168 2.143 1_545 S
O140 Co137 2.042 . S
O140 Co138 2.122 . S
O140 Co139 2.087 1_565 S
O140 H141 0.980 1_565 S
H141 O140 0.980 1_545 S
O142 Co139 2.087 . S
O142 Co143 2.042 . S
O142 Co144 2.122 . S
O142 H145 0.980 . S
Co143 O142 2.042 . S
Co143 O151 2.286 . S
Co143 O152 2.069 . S
Co143 O153 2.015 . S
Co143 O156 2.264 . S
Co144 O142 2.122 . S
Co144 O155 1.976 . S
Co144 O156 2.327 . S
Co144 O157 2.073 . S
H145 O142 0.980 . S
O146 Co138 2.073 . S
O146 C161 1.245 . S
O147 Co137 2.264 . S
O147 Co138 2.327 . S
O147 C161 1.257 . S
O148 Co138 1.976 . S
O148 C160 1.251 . S
O149 Co139 2.111 1_565 S
O149 C160 1.274 . S
O150 Co139 2.143 . S
O150 C163 1.246 . S
O151 Co143 2.286 . S
O151 C162 1.259 . S
O152 Co143 2.069 . S
O152 C162 1.289 . S
O153 Co143 2.015 . S
O153 C163 1.257 . S
O154 Co139 2.111 . S
O154 C164 1.274 . S
O155 Co144 1.976 . S
O155 C164 1.251 . S
O156 Co143 2.264 . S
O156 Co144 2.327 . S
O156 C165 1.257 . S
O157 Co144 2.073 . S
O157 C165 1.245 . S
C158 O166 1.259 . S
C158 O167 1.289 . S
C159 O168 1.246 . S
C159 O169 1.257 . S
C160 O148 1.251 . S
C160 O149 1.274 . S
C161 O146 1.245 . S
C161 O147 1.257 . S
C162 O151 1.259 . S
C162 O152 1.289 . S
C163 O150 1.246 . S
C163 O153 1.257 . S
C164 O154 1.274 . S
C164 O155 1.251 . S
C165 O156 1.257 . S
C165 O157 1.245 . S
O166 Co137 2.286 . S
O166 C158 1.259 . S
O167 Co137 2.069 . S
O167 C158 1.289 . S
O168 Co139 2.143 1_565 S
O168 C159 1.246 . S
O169 Co137 2.015 . S
O169 C159 1.257 . S
Co170 O173 2.042 . S
Co170 O180 2.264 . S
Co170 O199 2.286 . S
Co170 O200 2.069 . S
Co170 O202 2.015 . S
Co171 O173 2.122 . S
Co171 O179 2.073 . S
Co171 O180 2.327 . S
Co171 O181 1.976 . S
Co172 O173 2.087 . S
Co172 O175 2.087 1_554 S
Co172 O182 2.111 . S
Co172 O183 2.143 1_554 S
Co172 O187 2.111 . S
Co172 O201 2.143 . S
O173 Co170 2.042 . S
O173 Co171 2.122 . S
O173 Co172 2.087 . S
O173 H174 0.980 . S
H174 O173 0.980 . S
O175 Co172 2.087 1_556 S
O175 Co176 2.042 . S
O175 Co177 2.122 . S
O175 H178 0.980 . S
Co176 O175 2.042 . S
Co176 O184 2.286 . S
Co176 O185 2.069 . S
Co176 O186 2.015 . S
Co176 O189 2.264 . S
Co177 O175 2.122 . S
Co177 O188 1.976 . S
Co177 O189 2.327 . S
Co177 O190 2.073 . S
H178 O175 0.980 . S
O179 Co171 2.073 . S
O179 C194 1.245 . S
O180 Co170 2.264 . S
O180 Co171 2.327 . S
O180 C194 1.257 . S
O181 Co171 1.976 . S
O181 C193 1.251 . S
O182 Co172 2.111 . S
O182 C193 1.274 . S
O183 Co172 2.143 1_556 S
O183 C196 1.246 . S
O184 Co176 2.286 . S
O184 C195 1.259 . S
O185 Co176 2.069 . S
O185 C195 1.289 . S
O186 Co176 2.015 . S
O186 C196 1.257 . S
O187 Co172 2.111 . S
O187 C197 1.274 1_554 S
O188 Co177 1.976 . S
O188 C197 1.251 . S
O189 Co176 2.264 . S
O189 Co177 2.327 . S
O189 C198 1.257 . S
O190 Co177 2.073 . S
O190 C198 1.245 . S
C191 O199 1.259 . S
C191 O200 1.289 . S
C192 O201 1.246 . S
C192 O202 1.257 . S
C193 O181 1.251 . S
C193 O182 1.274 . S
C194 O179 1.245 . S
C194 O180 1.257 . S
C195 O184 1.259 . S
C195 O185 1.289 . S
C196 O183 1.246 . S
C196 O186 1.257 . S
C197 O187 1.274 1_556 S
C197 O188 1.251 . S
C198 O189 1.257 . S
C198 O190 1.245 . S
O199 Co170 2.286 . S
O199 C191 1.259 . S
O200 Co170 2.069 . S
O200 C191 1.289 . S
O201 Co172 2.143 . S
O201 C192 1.246 . S
O202 Co170 2.015 . S
O202 C192 1.257 . S
H203 C215 0.930 . S
H204 C217 0.930 . S
H205 C218 0.930 . S
H206 C222 0.959 . S
H207 C222 0.959 . S
H208 C222 0.961 . S
H209 C223 0.960 . S
H210 C223 0.961 . S
H211 C223 0.959 . S
H212 C226 0.929 . S
H213 C227 0.931 . S
H214 C229 0.930 . S
C215 H203 0.930 . S
C215 C216 1.399 . S
C215 C220 1.399 . S
C216 C215 1.399 . S
C216 C217 1.376 . S
C217 H204 0.930 . S
C217 C216 1.376 . S
C217 C218 1.388 . S
C218 H205 0.930 . S
C218 C217 1.388 . S
C218 C219 1.390 . S
C219 C218 1.390 . S
C219 C220 1.394 . S
C219 C225 1.465 . S
C220 C215 1.399 . S
C220 C219 1.394 . S
C220 C221 1.516 . S
C221 C220 1.516 . S
C221 C222 1.502 . S
C221 C223 1.561 . S
C221 C224 1.526 . S
C222 H206 0.959 . S
C222 H207 0.959 . S
C222 H208 0.961 . S
C222 C221 1.502 . S
C223 H209 0.960 . S
C223 H210 0.961 . S
C223 H211 0.959 . S
C223 C221 1.561 . S
C224 C221 1.526 . S
C224 C225 1.396 . S
C224 C229 1.390 . S
C225 C219 1.465 . S
C225 C224 1.396 . S
C225 C226 1.399 . S
C226 H212 0.929 . S
C226 C225 1.399 . S
C226 C227 1.385 . S
C227 H213 0.931 . S
C227 C226 1.385 . S
C227 C228 1.389 . S
C228 C227 1.389 . S
C228 C229 1.387 . S
C229 H214 0.930 . S
C229 C224 1.390 . S
C229 C228 1.387 . S
H230 C242 0.930 . S
H231 C244 0.930 . S
H232 C245 0.930 . S
H233 C249 0.959 . S
H234 C249 0.959 . S
H235 C249 0.961 . S
H236 C250 0.960 . S
H237 C250 0.961 . S
H238 C250 0.959 . S
H239 C253 0.929 . S
H240 C254 0.931 . S
H241 C256 0.930 . S
C242 H230 0.930 . S
C242 C243 1.399 . S
C242 C247 1.399 . S
C243 C242 1.399 . S
C243 C244 1.376 . S
C244 H231 0.930 . S
C244 C243 1.376 . S
C244 C245 1.388 . S
C245 H232 0.930 . S
C245 C244 1.388 . S
C245 C246 1.390 . S
C246 C245 1.390 . S
C246 C247 1.394 . S
C246 C252 1.465 . S
C247 C242 1.399 . S
C247 C246 1.394 . S
C247 C248 1.516 . S
C248 C247 1.516 . S
C248 C249 1.502 . S
C248 C250 1.561 . S
C248 C251 1.526 . S
C249 H233 0.959 . S
C249 H234 0.959 . S
C249 H235 0.961 . S
C249 C248 1.502 . S
C250 H236 0.960 . S
C250 H237 0.961 . S
C250 H238 0.959 . S
C250 C248 1.561 . S
C251 C248 1.526 . S
C251 C252 1.396 . S
C251 C256 1.390 . S
C252 C246 1.465 . S
C252 C251 1.396 . S
C252 C253 1.399 . S
C253 H239 0.929 . S
C253 C252 1.399 . S
C253 C254 1.385 . S
C254 H240 0.931 . S
C254 C253 1.385 . S
C254 C255 1.389 . S
C255 C254 1.389 . S
C255 C256 1.387 . S
C256 H241 0.930 . S
C256 C251 1.390 . S
C256 C255 1.387 . S
H257 C269 0.930 . S
H258 C271 0.930 . S
H259 C272 0.930 . S
H260 C276 0.959 . S
H261 C276 0.959 . S
H262 C276 0.961 . S
H263 C277 0.960 . S
H264 C277 0.961 . S
H265 C277 0.959 . S
H266 C280 0.929 . S
H267 C281 0.931 . S
H268 C283 0.930 . S
C269 H257 0.930 . S
C269 C270 1.399 . S
C269 C274 1.399 . S
C270 C269 1.399 . S
C270 C271 1.376 . S
C271 H258 0.930 . S
C271 C270 1.376 . S
C271 C272 1.388 . S
C272 H259 0.930 . S
C272 C271 1.388 . S
C272 C273 1.390 . S
C273 C272 1.390 . S
C273 C274 1.394 . S
C273 C279 1.465 . S
C274 C269 1.399 . S
C274 C273 1.394 . S
C274 C275 1.516 . S
C275 C274 1.516 . S
C275 C276 1.502 . S
C275 C277 1.561 . S
C275 C278 1.526 . S
C276 H260 0.959 . S
C276 H261 0.959 . S
C276 H262 0.961 . S
C276 C275 1.502 . S
C277 H263 0.960 . S
C277 H264 0.961 . S
C277 H265 0.959 . S
C277 C275 1.561 . S
C278 C275 1.526 . S
C278 C279 1.396 . S
C278 C283 1.390 . S
C279 C273 1.465 . S
C279 C278 1.396 . S
C279 C280 1.399 . S
C280 H266 0.929 . S
C280 C279 1.399 . S
C280 C281 1.385 . S
C281 H267 0.931 . S
C281 C280 1.385 . S
C281 C282 1.389 . S
C282 C281 1.389 . S
C282 C283 1.387 . S
C283 H268 0.930 . S
C283 C278 1.390 . S
C283 C282 1.387 . S
H284 C296 0.930 . S
H285 C298 0.930 . S
H286 C299 0.930 . S
H287 C303 0.959 . S
H288 C303 0.959 . S
H289 C303 0.961 . S
H290 C304 0.960 . S
H291 C304 0.961 . S
H292 C304 0.959 . S
H293 C307 0.929 . S
H294 C308 0.931 . S
H295 C310 0.930 . S
C296 H284 0.930 . S
C296 C297 1.399 . S
C296 C301 1.399 . S
C297 C296 1.399 . S
C297 C298 1.376 . S
C298 H285 0.930 . S
C298 C297 1.376 . S
C298 C299 1.388 . S
C299 H286 0.930 . S
C299 C298 1.388 . S
C299 C300 1.390 . S
C300 C299 1.390 . S
C300 C301 1.394 . S
C300 C306 1.465 . S
C301 C296 1.399 . S
C301 C300 1.394 . S
C301 C302 1.516 . S
C302 C301 1.516 . S
C302 C303 1.502 . S
C302 C304 1.561 . S
C302 C305 1.526 . S
C303 H287 0.959 . S
C303 H288 0.959 . S
C303 H289 0.961 . S
C303 C302 1.502 . S
C304 H290 0.960 . S
C304 H291 0.961 . S
C304 H292 0.959 . S
C304 C302 1.561 . S
C305 C302 1.526 . S
C305 C306 1.396 . S
C305 C310 1.390 . S
C306 C300 1.465 . S
C306 C305 1.396 . S
C306 C307 1.399 . S
C307 H293 0.929 . S
C307 C306 1.399 . S
C307 C308 1.385 . S
C308 H294 0.931 . S
C308 C307 1.385 . S
C308 C309 1.389 . S
C309 C308 1.389 . S
C309 C310 1.387 . S
C310 H295 0.930 . S
C310 C305 1.390 . S
C310 C309 1.387 . S
H311 C323 0.930 . S
H312 C325 0.930 . S
H313 C326 0.930 . S
H314 C330 0.959 . S
H315 C330 0.959 . S
H316 C330 0.961 . S
H317 C331 0.960 . S
H318 C331 0.961 . S
H319 C331 0.959 . S
H320 C334 0.929 . S
H321 C335 0.931 . S
H322 C337 0.930 . S
C323 H311 0.930 . S
C323 C324 1.399 . S
C323 C328 1.399 . S
C324 C323 1.399 . S
C324 C325 1.376 . S
C325 H312 0.930 . S
C325 C324 1.376 . S
C325 C326 1.388 . S
C326 H313 0.930 . S
C326 C325 1.388 . S
C326 C327 1.390 . S
C327 C326 1.390 . S
C327 C328 1.394 . S
C327 C333 1.465 . S
C328 C323 1.399 . S
C328 C327 1.394 . S
C328 C329 1.516 . S
C329 C328 1.516 . S
C329 C330 1.502 . S
C329 C331 1.561 . S
C329 C332 1.526 . S
C330 H314 0.959 . S
C330 H315 0.959 . S
C330 H316 0.961 . S
C330 C329 1.502 . S
C331 H317 0.960 . S
C331 H318 0.961 . S
C331 H319 0.959 . S
C331 C329 1.561 . S
C332 C329 1.526 . S
C332 C333 1.396 . S
C332 C337 1.390 . S
C333 C327 1.465 . S
C333 C332 1.396 . S
C333 C334 1.399 . S
C334 H320 0.929 . S
C334 C333 1.399 . S
C334 C335 1.385 . S
C335 H321 0.931 . S
C335 C334 1.385 . S
C335 C336 1.389 . S
C336 C335 1.389 . S
C336 C337 1.387 . S
C337 H322 0.930 . S
C337 C332 1.390 . S
C337 C336 1.387 . S
H338 C350 0.930 . S
H339 C352 0.930 . S
H340 C353 0.930 . S
H341 C357 0.959 . S
H342 C357 0.959 . S
H343 C357 0.961 . S
H344 C358 0.960 . S
H345 C358 0.961 . S
H346 C358 0.959 . S
H347 C361 0.929 . S
H348 C362 0.931 . S
H349 C364 0.930 . S
C350 H338 0.930 . S
C350 C351 1.399 . S
C350 C355 1.399 . S
C351 C350 1.399 . S
C351 C352 1.376 . S
C352 H339 0.930 . S
C352 C351 1.376 . S
C352 C353 1.388 . S
C353 H340 0.930 . S
C353 C352 1.388 . S
C353 C354 1.390 . S
C354 C353 1.390 . S
C354 C355 1.394 . S
C354 C360 1.465 . S
C355 C350 1.399 . S
C355 C354 1.394 . S
C355 C356 1.516 . S
C356 C355 1.516 . S
C356 C357 1.502 . S
C356 C358 1.561 . S
C356 C359 1.526 . S
C357 H341 0.959 . S
C357 H342 0.959 . S
C357 H343 0.961 . S
C357 C356 1.502 . S
C358 H344 0.960 . S
C358 H345 0.961 . S
C358 H346 0.959 . S
C358 C356 1.561 . S
C359 C356 1.526 . S
C359 C360 1.396 . S
C359 C364 1.390 . S
C360 C354 1.465 . S
C360 C359 1.396 . S
C360 C361 1.399 . S
C361 H347 0.929 . S
C361 C360 1.399 . S
C361 C362 1.385 . S
C362 H348 0.931 . S
C362 C361 1.385 . S
C362 C363 1.389 . S
C363 C362 1.389 . S
C363 C364 1.387 . S
C364 H349 0.930 . S
C364 C359 1.390 . S
C364 C363 1.387 . S
H365 C377 0.930 . S
H366 C379 0.930 . S
H367 C380 0.930 . S
H368 C384 0.959 . S
H369 C384 0.959 . S
H370 C384 0.961 . S
H371 C385 0.960 . S
H372 C385 0.961 . S
H373 C385 0.959 . S
H374 C388 0.929 . S
H375 C389 0.931 . S
H376 C391 0.930 . S
C377 H365 0.930 . S
C377 C378 1.399 . S
C377 C382 1.399 . S
C378 C377 1.399 . S
C378 C379 1.376 . S
C379 H366 0.930 . S
C379 C378 1.376 . S
C379 C380 1.388 . S
C380 H367 0.930 . S
C380 C379 1.388 . S
C380 C381 1.390 . S
C381 C380 1.390 . S
C381 C382 1.394 . S
C381 C387 1.465 . S
C382 C377 1.399 . S
C382 C381 1.394 . S
C382 C383 1.516 . S
C383 C382 1.516 . S
C383 C384 1.502 . S
C383 C385 1.561 . S
C383 C386 1.526 . S
C384 H368 0.959 . S
C384 H369 0.959 . S
C384 H370 0.961 . S
C384 C383 1.502 . S
C385 H371 0.960 . S
C385 H372 0.961 . S
C385 H373 0.959 . S
C385 C383 1.561 . S
C386 C383 1.526 . S
C386 C387 1.396 . S
C386 C391 1.390 . S
C387 C381 1.465 . S
C387 C386 1.396 . S
C387 C388 1.399 . S
C388 H374 0.929 . S
C388 C387 1.399 . S
C388 C389 1.385 . S
C389 H375 0.931 . S
C389 C388 1.385 . S
C389 C390 1.389 . S
C390 C389 1.389 . S
C390 C391 1.387 . S
C391 H376 0.930 . S
C391 C386 1.390 . S
C391 C390 1.387 . S
H392 C404 0.930 . S
H393 C406 0.930 . S
H394 C407 0.930 . S
H395 C411 0.959 . S
H396 C411 0.959 . S
H397 C411 0.961 . S
H398 C412 0.960 . S
H399 C412 0.961 . S
H400 C412 0.959 . S
H401 C415 0.929 . S
H402 C416 0.931 . S
H403 C418 0.930 . S
C404 H392 0.930 . S
C404 C405 1.399 . S
C404 C409 1.399 . S
C405 C404 1.399 . S
C405 C406 1.376 . S
C406 H393 0.930 . S
C406 C405 1.376 . S
C406 C407 1.388 . S
C407 H394 0.930 . S
C407 C406 1.388 . S
C407 C408 1.390 . S
C408 C407 1.390 . S
C408 C409 1.394 . S
C408 C414 1.465 . S
C409 C404 1.399 . S
C409 C408 1.394 . S
C409 C410 1.516 . S
C410 C409 1.516 . S
C410 C411 1.502 . S
C410 C412 1.561 . S
C410 C413 1.526 . S
C411 H395 0.959 . S
C411 H396 0.959 . S
C411 H397 0.961 . S
C411 C410 1.502 . S
C412 H398 0.960 . S
C412 H399 0.961 . S
C412 H400 0.959 . S
C412 C410 1.561 . S
C413 C410 1.526 . S
C413 C414 1.396 . S
C413 C418 1.390 . S
C414 C408 1.465 . S
C414 C413 1.396 . S
C414 C415 1.399 . S
C415 H401 0.929 . S
C415 C414 1.399 . S
C415 C416 1.385 . S
C416 H402 0.931 . S
C416 C415 1.385 . S
C416 C417 1.389 . S
C417 C416 1.389 . S
C417 C418 1.387 . S
C418 H403 0.930 . S
C418 C413 1.390 . S
C418 C417 1.387 . S
H419 C431 0.930 . S
H420 C433 0.930 . S
H421 C434 0.930 . S
H422 C438 0.959 . S
H423 C438 0.959 . S
H424 C438 0.961 . S
H425 C439 0.960 . S
H426 C439 0.961 . S
H427 C439 0.959 . S
H428 C442 0.929 . S
H429 C443 0.931 . S
H430 C445 0.930 . S
C431 H419 0.930 . S
C431 C432 1.399 . S
C431 C436 1.399 . S
C432 C431 1.399 . S
C432 C433 1.376 . S
C433 H420 0.930 . S
C433 C432 1.376 . S
C433 C434 1.388 . S
C434 H421 0.930 . S
C434 C433 1.388 . S
C434 C435 1.390 . S
C435 C434 1.390 . S
C435 C436 1.394 . S
C435 C441 1.465 . S
C436 C431 1.399 . S
C436 C435 1.394 . S
C436 C437 1.516 . S
C437 C436 1.516 . S
C437 C438 1.502 . S
C437 C439 1.561 . S
C437 C440 1.526 . S
C438 H422 0.959 . S
C438 H423 0.959 . S
C438 H424 0.961 . S
C438 C437 1.502 . S
C439 H425 0.960 . S
C439 H426 0.961 . S
C439 H427 0.959 . S
C439 C437 1.561 . S
C440 C437 1.526 . S
C440 C441 1.396 . S
C440 C445 1.390 . S
C441 C435 1.465 . S
C441 C440 1.396 . S
C441 C442 1.399 . S
C442 H428 0.929 . S
C442 C441 1.399 . S
C442 C443 1.385 . S
C443 H429 0.931 . S
C443 C442 1.385 . S
C443 C444 1.389 . S
C444 C443 1.389 . S
C444 C445 1.387 . S
C445 H430 0.930 . S
C445 C440 1.390 . S
C445 C444 1.387 . S
H446 C458 0.930 . S
H447 C460 0.930 . S
H448 C461 0.930 . S
H449 C465 0.959 . S
H450 C465 0.959 . S
H451 C465 0.961 . S
H452 C466 0.960 . S
H453 C466 0.961 . S
H454 C466 0.959 . S
H455 C469 0.929 . S
H456 C470 0.931 . S
H457 C472 0.930 . S
C458 H446 0.930 . S
C458 C459 1.399 . S
C458 C463 1.399 . S
C459 C458 1.399 . S
C459 C460 1.376 . S
C460 H447 0.930 . S
C460 C459 1.376 . S
C460 C461 1.388 . S
C461 H448 0.930 . S
C461 C460 1.388 . S
C461 C462 1.390 . S
C462 C461 1.390 . S
C462 C463 1.394 . S
C462 C468 1.465 . S
C463 C458 1.399 . S
C463 C462 1.394 . S
C463 C464 1.516 . S
C464 C463 1.516 . S
C464 C465 1.502 . S
C464 C466 1.561 . S
C464 C467 1.526 . S
C465 H449 0.959 . S
C465 H450 0.959 . S
C465 H451 0.961 . S
C465 C464 1.502 . S
C466 H452 0.960 . S
C466 H453 0.961 . S
C466 H454 0.959 . S
C466 C464 1.561 . S
C467 C464 1.526 . S
C467 C468 1.396 . S
C467 C472 1.390 . S
C468 C462 1.465 . S
C468 C467 1.396 . S
C468 C469 1.399 . S
C469 H455 0.929 . S
C469 C468 1.399 . S
C469 C470 1.385 . S
C470 H456 0.931 . S
C470 C469 1.385 . S
C470 C471 1.389 . S
C471 C470 1.389 . S
C471 C472 1.387 . S
C472 H457 0.930 . S
C472 C467 1.390 . S
C472 C471 1.387 . S
H473 C485 0.930 . S
H474 C487 0.930 . S
H475 C488 0.930 . S
H476 C492 0.959 . S
H477 C492 0.959 . S
H478 C492 0.961 . S
H479 C493 0.960 . S
H480 C493 0.961 . S
H481 C493 0.959 . S
H482 C496 0.929 . S
H483 C497 0.931 . S
H484 C499 0.930 . S
C485 H473 0.930 . S
C485 C486 1.399 . S
C485 C490 1.399 . S
C486 C485 1.399 . S
C486 C487 1.376 . S
C487 H474 0.930 . S
C487 C486 1.376 . S
C487 C488 1.388 . S
C488 H475 0.930 . S
C488 C487 1.388 . S
C488 C489 1.390 . S
C489 C488 1.390 . S
C489 C490 1.394 . S
C489 C495 1.465 . S
C490 C485 1.399 . S
C490 C489 1.394 . S
C490 C491 1.516 . S
C491 C490 1.516 . S
C491 C492 1.502 . S
C491 C493 1.561 . S
C491 C494 1.526 . S
C492 H476 0.959 . S
C492 H477 0.959 . S
C492 H478 0.961 . S
C492 C491 1.502 . S
C493 H479 0.960 . S
C493 H480 0.961 . S
C493 H481 0.959 . S
C493 C491 1.561 . S
C494 C491 1.526 . S
C494 C495 1.396 . S
C494 C499 1.390 . S
C495 C489 1.465 . S
C495 C494 1.396 . S
C495 C496 1.399 . S
C496 H482 0.929 . S
C496 C495 1.399 . S
C496 C497 1.385 . S
C497 H483 0.931 . S
C497 C496 1.385 . S
C497 C498 1.389 . S
C498 C497 1.389 . S
C498 C499 1.387 . S
C499 H484 0.930 . S
C499 C494 1.390 . S
C499 C498 1.387 . S
H500 C512 0.930 . S
H501 C514 0.930 . S
H502 C515 0.930 . S
H503 C519 0.959 . S
H504 C519 0.959 . S
H505 C519 0.961 . S
H506 C520 0.960 . S
H507 C520 0.961 . S
H508 C520 0.959 . S
H509 C523 0.929 . S
H510 C524 0.931 . S
H511 C526 0.930 . S
C512 H500 0.930 . S
C512 C513 1.399 . S
C512 C517 1.399 . S
C513 C512 1.399 . S
C513 C514 1.376 . S
C514 H501 0.930 . S
C514 C513 1.376 . S
C514 C515 1.388 . S
C515 H502 0.930 . S
C515 C514 1.388 . S
C515 C516 1.390 . S
C516 C515 1.390 . S
C516 C517 1.394 . S
C516 C522 1.465 . S
C517 C512 1.399 . S
C517 C516 1.394 . S
C517 C518 1.516 . S
C518 C517 1.516 . S
C518 C519 1.502 . S
C518 C520 1.561 . S
C518 C521 1.526 . S
C519 H503 0.959 . S
C519 H504 0.959 . S
C519 H505 0.961 . S
C519 C518 1.502 . S
C520 H506 0.960 . S
C520 H507 0.961 . S
C520 H508 0.959 . S
C520 C518 1.561 . S
C521 C518 1.526 . S
C521 C522 1.396 . S
C521 C526 1.390 . S
C522 C516 1.465 . S
C522 C521 1.396 . S
C522 C523 1.399 . S
C523 H509 0.929 . S
C523 C522 1.399 . S
C523 C524 1.385 . S
C524 H510 0.931 . S
C524 C523 1.385 . S
C524 C525 1.389 . S
C525 C524 1.389 . S
C525 C526 1.387 . S
C526 H511 0.930 . S
C526 C521 1.390 . S
C526 C525 1.387 . S
H527 C539 0.930 . S
H528 C541 0.930 . S
H529 C542 0.930 . S
H530 C546 0.959 . S
H531 C546 0.959 . S
H532 C546 0.961 . S
H533 C547 0.960 . S
H534 C547 0.961 . S
H535 C547 0.959 . S
H536 C550 0.929 . S
H537 C551 0.931 . S
H538 C553 0.930 . S
C539 H527 0.930 . S
C539 C540 1.399 . S
C539 C544 1.399 . S
C540 C539 1.399 . S
C540 C541 1.376 . S
C541 H528 0.930 . S
C541 C540 1.376 . S
C541 C542 1.388 . S
C542 H529 0.930 . S
C542 C541 1.388 . S
C542 C543 1.390 . S
C543 C542 1.390 . S
C543 C544 1.394 . S
C543 C549 1.465 . S
C544 C539 1.399 . S
C544 C543 1.394 . S
C544 C545 1.516 . S
C545 C544 1.516 . S
C545 C546 1.502 . S
C545 C547 1.561 . S
C545 C548 1.526 . S
C546 H530 0.959 . S
C546 H531 0.959 . S
C546 H532 0.961 . S
C546 C545 1.502 . S
C547 H533 0.960 . S
C547 H534 0.961 . S
C547 H535 0.959 . S
C547 C545 1.561 . S
C548 C545 1.526 . S
C548 C549 1.396 . S
C548 C553 1.390 . S
C549 C543 1.465 . S
C549 C548 1.396 . S
C549 C550 1.399 . S
C550 H536 0.929 . S
C550 C549 1.399 . S
C550 C551 1.385 . S
C551 H537 0.931 . S
C551 C550 1.385 . S
C551 C552 1.389 . S
C552 C551 1.389 . S
C552 C553 1.387 . S
C553 H538 0.930 . S
C553 C548 1.390 . S
C553 C552 1.387 . S
H554 C566 0.930 . S
H555 C568 0.930 . S
H556 C569 0.930 . S
H557 C573 0.959 . S
H558 C573 0.959 . S
H559 C573 0.961 . S
H560 C574 0.960 . S
H561 C574 0.961 . S
H562 C574 0.959 . S
H563 C577 0.929 . S
H564 C578 0.931 . S
H565 C580 0.930 . S
C566 H554 0.930 . S
C566 C567 1.399 . S
C566 C571 1.399 . S
C567 C566 1.399 . S
C567 C568 1.376 . S
C568 H555 0.930 . S
C568 C567 1.376 . S
C568 C569 1.388 . S
C569 H556 0.930 . S
C569 C568 1.388 . S
C569 C570 1.390 . S
C570 C569 1.390 . S
C570 C571 1.394 . S
C570 C576 1.465 . S
C571 C566 1.399 . S
C571 C570 1.394 . S
C571 C572 1.516 . S
C572 C571 1.516 . S
C572 C573 1.502 . S
C572 C574 1.561 . S
C572 C575 1.526 . S
C573 H557 0.959 . S
C573 H558 0.959 . S
C573 H559 0.961 . S
C573 C572 1.502 . S
C574 H560 0.960 . S
C574 H561 0.961 . S
C574 H562 0.959 . S
C574 C572 1.561 . S
C575 C572 1.526 . S
C575 C576 1.396 . S
C575 C580 1.390 . S
C576 C570 1.465 . S
C576 C575 1.396 . S
C576 C577 1.399 . S
C577 H563 0.929 . S
C577 C576 1.399 . S
C577 C578 1.385 . S
C578 H564 0.931 . S
C578 C577 1.385 . S
C578 C579 1.389 . S
C579 C578 1.389 . S
C579 C580 1.387 . S
C580 H565 0.930 . S
C580 C575 1.390 . S
C580 C579 1.387 . S
H581 C593 0.930 . S
H582 C595 0.930 . S
H583 C596 0.930 . S
H584 C600 0.959 . S
H585 C600 0.959 . S
H586 C600 0.961 . S
H587 C601 0.960 . S
H588 C601 0.961 . S
H589 C601 0.959 . S
H590 C604 0.929 . S
H591 C605 0.931 . S
H592 C607 0.930 . S
C593 H581 0.930 . S
C593 C594 1.399 . S
C593 C598 1.399 . S
C594 C593 1.399 . S
C594 C595 1.376 . S
C595 H582 0.930 . S
C595 C594 1.376 . S
C595 C596 1.388 . S
C596 H583 0.930 . S
C596 C595 1.388 . S
C596 C597 1.390 . S
C597 C596 1.390 . S
C597 C598 1.394 . S
C597 C603 1.465 . S
C598 C593 1.399 . S
C598 C597 1.394 . S
C598 C599 1.516 . S
C599 C598 1.516 . S
C599 C600 1.502 . S
C599 C601 1.561 . S
C599 C602 1.526 . S
C600 H584 0.959 . S
C600 H585 0.959 . S
C600 H586 0.961 . S
C600 C599 1.502 . S
C601 H587 0.960 . S
C601 H588 0.961 . S
C601 H589 0.959 . S
C601 C599 1.561 . S
C602 C599 1.526 . S
C602 C603 1.396 . S
C602 C607 1.390 . S
C603 C597 1.465 . S
C603 C602 1.396 . S
C603 C604 1.399 . S
C604 H590 0.929 . S
C604 C603 1.399 . S
C604 C605 1.385 . S
C605 H591 0.931 . S
C605 C604 1.385 . S
C605 C606 1.389 . S
C606 C605 1.389 . S
C606 C607 1.387 . S
C607 H592 0.930 . S
C607 C602 1.390 . S
C607 C606 1.387 . S
H608 C620 0.930 . S
H609 C622 0.930 . S
H610 C623 0.930 . S
H611 C627 0.959 . S
H612 C627 0.959 . S
H613 C627 0.961 . S
H614 C628 0.960 . S
H615 C628 0.961 . S
H616 C628 0.959 . S
H617 C631 0.929 . S
H618 C632 0.931 . S
H619 C634 0.930 . S
C620 H608 0.930 . S
C620 C621 1.399 . S
C620 C625 1.399 . S
C621 C620 1.399 . S
C621 C622 1.376 . S
C622 H609 0.930 . S
C622 C621 1.376 . S
C622 C623 1.388 . S
C623 H610 0.930 . S
C623 C622 1.388 . S
C623 C624 1.390 . S
C624 C623 1.390 . S
C624 C625 1.394 . S
C624 C630 1.465 . S
C625 C620 1.399 . S
C625 C624 1.394 . S
C625 C626 1.516 . S
C626 C625 1.516 . S
C626 C627 1.502 . S
C626 C628 1.561 . S
C626 C629 1.526 . S
C627 H611 0.959 . S
C627 H612 0.959 . S
C627 H613 0.961 . S
C627 C626 1.502 . S
C628 H614 0.960 . S
C628 H615 0.961 . S
C628 H616 0.959 . S
C628 C626 1.561 . S
C629 C626 1.526 . S
C629 C630 1.396 . S
C629 C634 1.390 . S
C630 C624 1.465 . S
C630 C629 1.396 . S
C630 C631 1.399 . S
C631 H617 0.929 . S
C631 C630 1.399 . S
C631 C632 1.385 . S
C632 H618 0.931 . S
C632 C631 1.385 . S
C632 C633 1.389 . S
C633 C632 1.389 . S
C633 C634 1.387 . S
C634 H619 0.930 . S
C634 C629 1.390 . S
C634 C633 1.387 . S
H635 C647 0.930 . S
H636 C649 0.930 . S
H637 C650 0.930 . S
H638 C654 0.959 . S
H639 C654 0.959 . S
H640 C654 0.961 . S
H641 C655 0.960 . S
H642 C655 0.961 . S
H643 C655 0.959 . S
H644 C658 0.929 . S
H645 C659 0.931 . S
H646 C661 0.930 . S
C647 H635 0.930 . S
C647 C648 1.399 . S
C647 C652 1.399 . S
C648 C647 1.399 . S
C648 C649 1.376 . S
C649 H636 0.930 . S
C649 C648 1.376 . S
C649 C650 1.388 . S
C650 H637 0.930 . S
C650 C649 1.388 . S
C650 C651 1.390 . S
C651 C650 1.390 . S
C651 C652 1.394 . S
C651 C657 1.465 . S
C652 C647 1.399 . S
C652 C651 1.394 . S
C652 C653 1.516 . S
C653 C652 1.516 . S
C653 C654 1.502 . S
C653 C655 1.561 . S
C653 C656 1.526 . S
C654 H638 0.959 . S
C654 H639 0.959 . S
C654 H640 0.961 . S
C654 C653 1.502 . S
C655 H641 0.960 . S
C655 H642 0.961 . S
C655 H643 0.959 . S
C655 C653 1.561 . S
C656 C653 1.526 . S
C656 C657 1.396 . S
C656 C661 1.390 . S
C657 C651 1.465 . S
C657 C656 1.396 . S
C657 C658 1.399 . S
C658 H644 0.929 . S
C658 C657 1.399 . S
C658 C659 1.385 . S
C659 H645 0.931 . S
C659 C658 1.385 . S
C659 C660 1.389 . S
C660 C659 1.389 . S
C660 C661 1.387 . S
C661 H646 0.930 . S
C661 C656 1.390 . S
C661 C660 1.387 . S
H662 C674 0.930 . S
H663 C676 0.930 . S
H664 C677 0.930 . S
H665 C681 0.959 . S
H666 C681 0.959 . S
H667 C681 0.961 . S
H668 C682 0.960 . S
H669 C682 0.961 . S
H670 C682 0.959 . S
H671 C685 0.929 . S
H672 C686 0.931 . S
H673 C688 0.930 . S
C674 H662 0.930 . S
C674 C675 1.399 . S
C674 C679 1.399 . S
C675 C674 1.399 . S
C675 C676 1.376 . S
C676 H663 0.930 . S
C676 C675 1.376 . S
C676 C677 1.388 . S
C677 H664 0.930 . S
C677 C676 1.388 . S
C677 C678 1.390 . S
C678 C677 1.390 . S
C678 C679 1.394 . S
C678 C684 1.465 . S
C679 C674 1.399 . S
C679 C678 1.394 . S
C679 C680 1.516 . S
C680 C679 1.516 . S
C680 C681 1.502 . S
C680 C682 1.561 . S
C680 C683 1.526 . S
C681 H665 0.959 . S
C681 H666 0.959 . S
C681 H667 0.961 . S
C681 C680 1.502 . S
C682 H668 0.960 . S
C682 H669 0.961 . S
C682 H670 0.959 . S
C682 C680 1.561 . S
C683 C680 1.526 . S
C683 C684 1.396 . S
C683 C688 1.390 . S
C684 C678 1.465 . S
C684 C683 1.396 . S
C684 C685 1.399 . S
C685 H671 0.929 . S
C685 C684 1.399 . S
C685 C686 1.385 . S
C686 H672 0.931 . S
C686 C685 1.385 . S
C686 C687 1.389 . S
C687 C686 1.389 . S
C687 C688 1.387 . S
C688 H673 0.930 . S
C688 C683 1.390 . S
C688 C687 1.387 . S
H689 C701 0.930 . S
H690 C703 0.930 . S
H691 C704 0.930 . S
H692 C708 0.959 . S
H693 C708 0.959 . S
H694 C708 0.961 . S
H695 C709 0.960 . S
H696 C709 0.961 . S
H697 C709 0.959 . S
H698 C712 0.929 . S
H699 C713 0.931 . S
H700 C715 0.930 . S
C701 H689 0.930 . S
C701 C702 1.399 . S
C701 C706 1.399 . S
C702 C701 1.399 . S
C702 C703 1.376 . S
C703 H690 0.930 . S
C703 C702 1.376 . S
C703 C704 1.388 . S
C704 H691 0.930 . S
C704 C703 1.388 . S
C704 C705 1.390 . S
C705 C704 1.390 . S
C705 C706 1.394 . S
C705 C711 1.465 . S
C706 C701 1.399 . S
C706 C705 1.394 . S
C706 C707 1.516 . S
C707 C706 1.516 . S
C707 C708 1.502 . S
C707 C709 1.561 . S
C707 C710 1.526 . S
C708 H692 0.959 . S
C708 H693 0.959 . S
C708 H694 0.961 . S
C708 C707 1.502 . S
C709 H695 0.960 . S
C709 H696 0.961 . S
C709 H697 0.959 . S
C709 C707 1.561 . S
C710 C707 1.526 . S
C710 C711 1.396 . S
C710 C715 1.390 . S
C711 C705 1.465 . S
C711 C710 1.396 . S
C711 C712 1.399 . S
C712 H698 0.929 . S
C712 C711 1.399 . S
C712 C713 1.385 . S
C713 H699 0.931 . S
C713 C712 1.385 . S
C713 C714 1.389 . S
C714 C713 1.389 . S
C714 C715 1.387 . S
C715 H700 0.930 . S
C715 C710 1.390 . S
C715 C714 1.387 . S
H716 C728 0.930 . S
H717 C730 0.930 . S
H718 C731 0.930 . S
H719 C735 0.959 . S
H720 C735 0.959 . S
H721 C735 0.961 . S
H722 C736 0.960 . S
H723 C736 0.961 . S
H724 C736 0.959 . S
H725 C739 0.929 . S
H726 C740 0.931 . S
H727 C742 0.930 . S
C728 H716 0.930 . S
C728 C729 1.399 . S
C728 C733 1.399 . S
C729 C728 1.399 . S
C729 C730 1.376 . S
C730 H717 0.930 . S
C730 C729 1.376 . S
C730 C731 1.388 . S
C731 H718 0.930 . S
C731 C730 1.388 . S
C731 C732 1.390 . S
C732 C731 1.390 . S
C732 C733 1.394 . S
C732 C738 1.465 . S
C733 C728 1.399 . S
C733 C732 1.394 . S
C733 C734 1.516 . S
C734 C733 1.516 . S
C734 C735 1.502 . S
C734 C736 1.561 . S
C734 C737 1.526 . S
C735 H719 0.959 . S
C735 H720 0.959 . S
C735 H721 0.961 . S
C735 C734 1.502 . S
C736 H722 0.960 . S
C736 H723 0.961 . S
C736 H724 0.959 . S
C736 C734 1.561 . S
C737 C734 1.526 . S
C737 C738 1.396 . S
C737 C742 1.390 . S
C738 C732 1.465 . S
C738 C737 1.396 . S
C738 C739 1.399 . S
C739 H725 0.929 . S
C739 C738 1.399 . S
C739 C740 1.385 . S
C740 H726 0.931 . S
C740 C739 1.385 . S
C740 C741 1.389 . S
C741 C740 1.389 . S
C741 C742 1.387 . S
C742 H727 0.930 . S
C742 C737 1.390 . S
C742 C741 1.387 . S
H743 C755 0.930 . S
H744 C757 0.930 . S
H745 C758 0.930 . S
H746 C762 0.959 . S
H747 C762 0.959 . S
H748 C762 0.961 . S
H749 C763 0.960 . S
H750 C763 0.961 . S
H751 C763 0.959 . S
H752 C766 0.929 . S
H753 C767 0.931 . S
H754 C769 0.930 . S
C755 H743 0.930 . S
C755 C756 1.399 . S
C755 C760 1.399 . S
C756 C755 1.399 . S
C756 C757 1.376 . S
C757 H744 0.930 . S
C757 C756 1.376 . S
C757 C758 1.388 . S
C758 H745 0.930 . S
C758 C757 1.388 . S
C758 C759 1.390 . S
C759 C758 1.390 . S
C759 C760 1.394 . S
C759 C765 1.465 . S
C760 C755 1.399 . S
C760 C759 1.394 . S
C760 C761 1.516 . S
C761 C760 1.516 . S
C761 C762 1.502 . S
C761 C763 1.561 . S
C761 C764 1.526 . S
C762 H746 0.959 . S
C762 H747 0.959 . S
C762 H748 0.961 . S
C762 C761 1.502 . S
C763 H749 0.960 . S
C763 H750 0.961 . S
C763 H751 0.959 . S
C763 C761 1.561 . S
C764 C761 1.526 . S
C764 C765 1.396 . S
C764 C769 1.390 . S
C765 C759 1.465 . S
C765 C764 1.396 . S
C765 C766 1.399 . S
C766 H752 0.929 . S
C766 C765 1.399 . S
C766 C767 1.385 . S
C767 H753 0.931 . S
C767 C766 1.385 . S
C767 C768 1.389 . S
C768 C767 1.389 . S
C768 C769 1.387 . S
C769 H754 0.930 . S
C769 C764 1.390 . S
C769 C768 1.387 . S
H770 C782 0.930 . S
H771 C784 0.930 . S
H772 C785 0.930 . S
H773 C789 0.959 . S
H774 C789 0.959 . S
H775 C789 0.961 . S
H776 C790 0.960 . S
H777 C790 0.961 . S
H778 C790 0.959 . S
H779 C793 0.929 . S
H780 C794 0.931 . S
H781 C796 0.930 . S
C782 H770 0.930 . S
C782 C783 1.399 . S
C782 C787 1.399 . S
C783 C782 1.399 . S
C783 C784 1.376 . S
C784 H771 0.930 . S
C784 C783 1.376 . S
C784 C785 1.388 . S
C785 H772 0.930 . S
C785 C784 1.388 . S
C785 C786 1.390 . S
C786 C785 1.390 . S
C786 C787 1.394 . S
C786 C792 1.465 . S
C787 C782 1.399 . S
C787 C786 1.394 . S
C787 C788 1.516 . S
C788 C787 1.516 . S
C788 C789 1.502 . S
C788 C790 1.561 . S
C788 C791 1.526 . S
C789 H773 0.959 . S
C789 H774 0.959 . S
C789 H775 0.961 . S
C789 C788 1.502 . S
C790 H776 0.960 . S
C790 H777 0.961 . S
C790 H778 0.959 . S
C790 C788 1.561 . S
C791 C788 1.526 . S
C791 C792 1.396 . S
C791 C796 1.390 . S
C792 C786 1.465 . S
C792 C791 1.396 . S
C792 C793 1.399 . S
C793 H779 0.929 . S
C793 C792 1.399 . S
C793 C794 1.385 . S
C794 H780 0.931 . S
C794 C793 1.385 . S
C794 C795 1.389 . S
C795 C794 1.389 . S
C795 C796 1.387 . S
C796 H781 0.930 . S
C796 C791 1.390 . S
C796 C795 1.387 . S
H797 C809 0.930 . S
H798 C811 0.930 . S
H799 C812 0.930 . S
H800 C816 0.959 . S
H801 C816 0.959 . S
H802 C816 0.961 . S
H803 C817 0.960 . S
H804 C817 0.961 . S
H805 C817 0.959 . S
H806 C820 0.929 . S
H807 C821 0.931 . S
H808 C823 0.930 . S
C809 H797 0.930 . S
C809 C810 1.399 . S
C809 C814 1.399 . S
C810 C809 1.399 . S
C810 C811 1.376 . S
C811 H798 0.930 . S
C811 C810 1.376 . S
C811 C812 1.388 . S
C812 H799 0.930 . S
C812 C811 1.388 . S
C812 C813 1.390 . S
C813 C812 1.390 . S
C813 C814 1.394 . S
C813 C819 1.465 . S
C814 C809 1.399 . S
C814 C813 1.394 . S
C814 C815 1.516 . S
C815 C814 1.516 . S
C815 C816 1.502 . S
C815 C817 1.561 . S
C815 C818 1.526 . S
C816 H800 0.959 . S
C816 H801 0.959 . S
C816 H802 0.961 . S
C816 C815 1.502 . S
C817 H803 0.960 . S
C817 H804 0.961 . S
C817 H805 0.959 . S
C817 C815 1.561 . S
C818 C815 1.526 . S
C818 C819 1.396 . S
C818 C823 1.390 . S
C819 C813 1.465 . S
C819 C818 1.396 . S
C819 C820 1.399 . S
C820 H806 0.929 . S
C820 C819 1.399 . S
C820 C821 1.385 . S
C821 H807 0.931 . S
C821 C820 1.385 . S
C821 C822 1.389 . S
C822 C821 1.389 . S
C822 C823 1.387 . S
C823 H808 0.930 . S
C823 C818 1.390 . S
C823 C822 1.387 . S
H824 C836 0.930 . S
H825 C838 0.930 . S
H826 C839 0.930 . S
H827 C843 0.959 . S
H828 C843 0.959 . S
H829 C843 0.961 . S
H830 C844 0.960 . S
H831 C844 0.961 . S
H832 C844 0.959 . S
H833 C847 0.929 . S
H834 C848 0.931 . S
H835 C850 0.930 . S
C836 H824 0.930 . S
C836 C837 1.399 . S
C836 C841 1.399 . S
C837 C836 1.399 . S
C837 C838 1.376 . S
C838 H825 0.930 . S
C838 C837 1.376 . S
C838 C839 1.388 . S
C839 H826 0.930 . S
C839 C838 1.388 . S
C839 C840 1.390 . S
C840 C839 1.390 . S
C840 C841 1.394 . S
C840 C846 1.465 . S
C841 C836 1.399 . S
C841 C840 1.394 . S
C841 C842 1.516 . S
C842 C841 1.516 . S
C842 C843 1.502 . S
C842 C844 1.561 . S
C842 C845 1.526 . S
C843 H827 0.959 . S
C843 H828 0.959 . S
C843 H829 0.961 . S
C843 C842 1.502 . S
C844 H830 0.960 . S
C844 H831 0.961 . S
C844 H832 0.959 . S
C844 C842 1.561 . S
C845 C842 1.526 . S
C845 C846 1.396 . S
C845 C850 1.390 . S
C846 C840 1.465 . S
C846 C845 1.396 . S
C846 C847 1.399 . S
C847 H833 0.929 . S
C847 C846 1.399 . S
C847 C848 1.385 . S
C848 H834 0.931 . S
C848 C847 1.385 . S
C848 C849 1.389 . S
C849 C848 1.389 . S
C849 C850 1.387 . S
C850 H835 0.930 . S
C850 C845 1.390 . S
C850 C849 1.387 . S
C228 C128 1.405 . S
C216 C9 1.486 . S
C255 C164 1.997 . S
C243 C22 2.142 . S
C282 C129 1.318 . S
C270 C30 1.310 . S
C309 C159 1.151 . S
C297 C47 1.170 . S
C336 C126 1.075 . S
C324 C61 1.149 . S
C351 C69 1.272 . S
C363 C162 1.355 . S
C378 C82 0.989 . S
C390 C131 0.961 . S
C417 C161 1.693 . S
C405 C99 1.720 . S
C444 C165 1.429 . S
C432 C4 1.453 . S
C471 C130 1.720 . S
C459 C21 1.753 . S
C498 C158 1.922 . S
C486 C34 1.908 . S
C525 C127 0.859 . S
C513 C48 0.745 . S
C552 C160 1.294 . S
C540 C60 1.380 . S
C567 C74 1.552 . S
C579 C125 1.538 . S
C594 C86 1.527 . S
C606 C163 1.468 . S
C633 C132 1.182 . S
C621 C95 1.223 . S
C660 C194 1.805 . S
C648 C8 1.961 . S
C675 C56 1.261 . S
C687 C197 1.158 . S
C714 C196 1.586 . S
C702 C73 1.621 . S
C729 C87 2.244 . S
C741 C195 2.218 . S
C768 C198 1.849 . S
C756 C100 1.993 . S
C783 C35 2.087 . S
C795 C192 2.031 . S
C822 C191 1.318 . S
C810 C43 1.303 . S
C837 C17 1.922 . S
C849 C193 1.906 . S
