# Generated by pormake.
# Topology nom, (4,4)-cn, num edge types: 1
# Building blocks:
#     Node 0, Type 0, BuildingBlock: KUFVIS_clean_linker_0, # of connection points: 4
#     Node 1, Type 0, BuildingBlock: KUFVIS_clean_linker_0, # of connection points: 4
#     Node 2, Type 0, BuildingBlock: KUFVIS_clean_linker_0, # of connection points: 4
#     Node 3, Type 0, BuildingBlock: KUFVIS_clean_linker_0, # of connection points: 4
#     Node 4, Type 0, BuildingBlock: KUFVIS_clean_linker_0, # of connection points: 4
#     Node 5, Type 0, BuildingBlock: KUFVIS_clean_linker_0, # of connection points: 4
#     Node 6, Type 1, BuildingBlock: TATPOV_clean_sbu_0, # of connection points: 4
#     Node 7, Type 1, BuildingBlock: TATPOV_clean_sbu_0, # of connection points: 4
#     Node 8, Type 1, BuildingBlock: TATPOV_clean_sbu_0, # of connection points: 4
#     Node 9, Type 1, BuildingBlock: TATPOV_clean_sbu_0, # of connection points: 4
#     Node 10, Type 1, BuildingBlock: TATPOV_clean_sbu_0, # of connection points: 4
#     Node 11, Type 1, BuildingBlock: TATPOV_clean_sbu_0, # of connection points: 4
#     Edge 12, Type (0, 1), BuildingBlock: OJICUG_clean_linker_0, # of connection points: 2
#     Edge 13, Type (0, 1), BuildingBlock: OJICUG_clean_linker_0, # of connection points: 2
#     Edge 14, Type (0, 1), BuildingBlock: OJICUG_clean_linker_0, # of connection points: 2
#     Edge 15, Type (0, 1), BuildingBlock: OJICUG_clean_linker_0, # of connection points: 2
#     Edge 16, Type (0, 1), BuildingBlock: OJICUG_clean_linker_0, # of connection points: 2
#     Edge 17, Type (0, 1), BuildingBlock: OJICUG_clean_linker_0, # of connection points: 2
#     Edge 18, Type (0, 1), BuildingBlock: OJICUG_clean_linker_0, # of connection points: 2
#     Edge 19, Type (0, 1), BuildingBlock: OJICUG_clean_linker_0, # of connection points: 2
#     Edge 20, Type (0, 1), BuildingBlock: OJICUG_clean_linker_0, # of connection points: 2
#     Edge 21, Type (0, 1), BuildingBlock: OJICUG_clean_linker_0, # of connection points: 2
#     Edge 22, Type (0, 1), BuildingBlock: OJICUG_clean_linker_0, # of connection points: 2
#     Edge 23, Type (0, 1), BuildingBlock: OJICUG_clean_linker_0, # of connection points: 2
#     Edge 24, Type (0, 1), BuildingBlock: OJICUG_clean_linker_0, # of connection points: 2
#     Edge 25, Type (0, 1), BuildingBlock: OJICUG_clean_linker_0, # of connection points: 2
#     Edge 26, Type (0, 1), BuildingBlock: OJICUG_clean_linker_0, # of connection points: 2
#     Edge 27, Type (0, 1), BuildingBlock: OJICUG_clean_linker_0, # of connection points: 2
#     Edge 28, Type (0, 1), BuildingBlock: OJICUG_clean_linker_0, # of connection points: 2
#     Edge 29, Type (0, 1), BuildingBlock: OJICUG_clean_linker_0, # of connection points: 2
#     Edge 30, Type (0, 1), BuildingBlock: OJICUG_clean_linker_0, # of connection points: 2
#     Edge 31, Type (0, 1), BuildingBlock: OJICUG_clean_linker_0, # of connection points: 2
#     Edge 32, Type (0, 1), BuildingBlock: OJICUG_clean_linker_0, # of connection points: 2
#     Edge 33, Type (0, 1), BuildingBlock: OJICUG_clean_linker_0, # of connection points: 2
#     Edge 34, Type (0, 1), BuildingBlock: OJICUG_clean_linker_0, # of connection points: 2
#     Edge 35, Type (0, 1), BuildingBlock: OJICUG_clean_linker_0, # of connection points: 2
# Relax obj value: 0.020
# Max RMSD: 0.119
# Mean RMSD: 0.080
data_MOF--net-nom--node1-TATPOV_clean_sbu_0--node2-KUFVIS_clean_linker_0--edge1-OJICUG_clean_linker_0
_symmetry_space_group_name_H-M    P1
_symmetry_Int_Tables_number       1
_symmetry_cell_setting            triclinic
loop_
_symmetry_equiv_pos_as_xyz
'x, y, z'
_cell_length_a     31.735213
_cell_length_b     32.45962
_cell_length_c     37.483959
_cell_angle_alpha  90.428776
_cell_angle_beta   90.315148
_cell_angle_gamma 119.49366
loop_
_atom_site_label
_atom_site_type_symbol
_atom_site_fract_x
_atom_site_fract_y
_atom_site_fract_z
_atom_type_partial_charge
H0 H 0.22657 0.61309 0.30168 0.0
H1 H 0.12008 0.57039 0.21814 0.0
H2 H 0.07854 0.51281 0.3237 0.0
H3 H 1.0159 0.52577 0.30863 0.0
H4 H 0.90604 0.45713 0.22838 0.0
H5 H 0.05337 0.49769 0.2041 0.0
C6 C 0.18983 0.59002 0.29226 0.0
C7 C 0.15388 0.56254 0.31675 0.0
C8 C 0.17791 0.59248 0.25657 0.0
C9 C 0.12942 0.56627 0.24522 0.0
C10 C 0.09298 0.53704 0.26918 0.0
C11 C 0.106 0.53467 0.30473 0.0
C12 C 1.04099 0.51276 0.25823 0.0
C13 C 1.00561 0.51014 0.28217 0.0
C14 C 0.95683 0.48888 0.27178 0.0
C15 C 0.94332 0.47091 0.23702 0.0
C16 C 0.97816 0.47517 0.21229 0.0
C17 C 1.02671 0.49504 0.22324 0.0
H18 H 0.61713 0.20508 0.47205 0.0
H19 H 0.55538 0.10413 0.38616 0.0
H20 H 0.56361 0.05842 0.49291 0.0
H21 H 0.49387 0.99553 0.47532 0.0
H22 H 0.471 0.89183 0.39526 0.0
H23 H 0.56171 0.03899 0.37235 0.0
C24 C 0.60155 0.16891 0.46228 0.0
C25 C 0.59086 0.13257 0.48642 0.0
C26 C 0.58965 0.15898 0.42604 0.0
C27 C 0.5661 0.11165 0.41396 0.0
C28 C 0.55645 0.07452 0.43787 0.0
C29 C 0.56974 0.08584 0.474 0.0
C30 C 0.53235 1.02397 0.42579 0.0
C31 C 0.50204 0.98734 0.44907 0.0
C32 C 0.48141 0.9397 0.4386 0.0
C33 C 0.48941 0.92853 0.40412 0.0
C34 C 0.51698 0.96426 0.3799 0.0
C35 C 0.53929 1.01179 0.39104 0.0
H36 H 0.62684 0.45405 0.57469 0.0
H37 H 0.54599 0.48869 0.64793 0.0
H38 H 0.58369 0.55553 0.54473 0.0
H39 H 0.5104 0.55517 0.55533 0.0
H40 H 0.46687 0.61683 0.63904 0.0
H41 H 0.56211 0.56262 0.66345 0.0
C42 C 0.60914 0.47445 0.58112 0.0
C43 C 0.60642 0.50421 0.55548 0.0
C44 C 0.58796 0.4693 0.61451 0.0
C45 C 0.56396 0.49457 0.62248 0.0
C46 C 0.56322 0.52711 0.59795 0.0
C47 C 0.58455 0.53151 0.56425 0.0
C48 C 0.53977 0.55566 0.60797 0.0
C49 C 0.51318 0.56641 0.58293 0.0
C50 C 0.48729 0.58901 0.59413 0.0
C51 C 0.48839 0.60116 0.6302 0.0
C52 C 0.51448 0.59078 0.65527 0.0
C53 C 0.54121 0.56952 0.64385 0.0
H54 H 0.20634 0.61281 0.73569 0.0
H55 H 0.09332 0.53077 0.80895 0.0
H56 H 0.05811 0.55662 0.70281 0.0
H57 H 0.99218 0.48187 0.71328 0.0
H58 H 0.88096 0.43629 0.792 0.0
H59 H 1.02675 0.53818 0.82102 0.0
C60 C 0.16806 0.5933 0.74181 0.0
C61 C 0.13394 0.58609 0.71519 0.0
C62 C 0.15364 0.57392 0.77568 0.0
C63 C 0.10413 0.54728 0.78311 0.0
C64 C 0.06889 0.5414 0.7573 0.0
C65 C 0.08438 0.56119 0.72325 0.0
C66 C 1.01631 0.51374 0.76601 0.0
C67 C 0.98149 0.48434 0.74025 0.0
C68 C 0.93276 0.4563 0.74979 0.0
C69 C 0.91874 0.4577 0.78487 0.0
C70 C 0.95244 0.48675 0.81068 0.0
C71 C 1.00091 0.51532 0.80098 0.0
H72 H 0.50293 0.87326 -0.03542 0.0
H73 H 0.57311 0.98 0.88548 0.0
H74 H 0.55335 1.01847 -0.00757 0.0
H75 H 0.62837 0.08259 -0.02005 0.0
H76 H 0.65966 0.19035 0.90279 0.0
H77 H 0.56297 0.04525 0.87455 0.0
C78 C 0.5213 0.9103 -0.0428 0.0
C79 C 0.52733 0.94458 -0.01748 0.0
C80 C 0.53714 0.92272 0.9222 0.0
C81 C 0.55993 0.97057 0.91244 0.0
C82 C 0.56694 1.006 0.93785 0.0
C83 C 0.54954 0.99224 -0.02728 0.0
C84 C 0.59251 0.05718 0.92834 0.0
C85 C 0.62282 0.09232 -0.04652 0.0
C86 C 0.64731 0.1403 0.94416 0.0
C87 C 0.64156 0.15318 0.90976 0.0
C88 C 0.61162 0.11918 0.8846 0.0
C89 C 0.58674 0.07131 0.89402 0.0
H90 H 0.49744 0.63915 0.07581 0.0
H91 H 0.56033 0.59211 0.15593 0.0
H92 H 0.52814 0.52755 0.05073 0.0
H93 H 0.59908 0.52721 0.06354 0.0
H94 H 0.63113 0.45423 0.14466 0.0
H95 H 0.54359 0.51721 0.16991 0.0
C96 C 0.51188 0.61639 0.08363 0.0
C97 C 0.51194 0.58385 0.059 0.0
C98 C 0.52867 0.61903 0.1186 0.0
C99 C 0.54608 0.58872 0.12909 0.0
C100 C 0.54662 0.55557 0.10465 0.0
C101 C 0.5287 0.55309 0.06975 0.0
C102 C 0.56719 0.52471 0.11508 0.0
C103 C 0.5937 0.51362 0.09042 0.0
C104 C 0.61551 0.48689 0.10069 0.0
C105 C 0.61127 0.4717 0.13602 0.0
C106 C 0.58663 0.48376 0.16126 0.0
C107 C 0.56335 0.50883 0.15037 0.0
Zn108 Zn 0.73712 0.53376 0.35324 0.0
Zn109 Zn 0.69023 0.43698 0.35753 0.0
O110 O 0.76041 0.4576 0.34609 0.0
O111 O 0.80129 0.53529 0.34452 0.0
O112 O 0.6652 0.36773 0.36688 0.0
O113 O 0.71553 0.53939 0.40278 0.0
O114 O 0.67582 0.46147 0.40386 0.0
C115 C 0.80008 0.4958 0.34178 0.0
C116 C 0.65871 0.47987 0.30014 0.0
O117 O 0.65397 0.44249 0.31466 0.0
O118 O 0.69012 0.52045 0.31177 0.0
C119 C 0.62777 0.33049 0.35583 0.0
O120 O 0.59649 0.33395 0.33474 0.0
C121 C 0.68731 0.50129 0.41845 0.0
Zn122 Zn 0.22905 0.70708 0.51139 0.0
Zn123 Zn 0.2878 0.66824 0.5195 0.0
O124 O 0.33569 0.73806 0.51013 0.0
O125 O 0.2896 0.77099 0.50525 0.0
O126 O 0.32956 0.63915 0.53152 0.0
O127 O 0.19898 0.68508 0.55964 0.0
O128 O 0.24566 0.65286 0.5642 0.0
C129 C 0.33119 0.77449 0.50503 0.0
C130 C 0.21602 0.63492 0.45814 0.0
O131 O 0.25051 0.63358 0.47457 0.0
O132 O 0.2006 0.66221 0.46889 0.0
C133 C 0.36945 0.64809 0.51728 0.0
O134 O 0.38681 0.67874 0.49125 0.0
C135 C 0.21303 0.66066 0.57694 0.0
Zn136 Zn 0.55263 0.21441 0.69035 0.0
Zn137 Zn 0.65235 0.26545 0.6901 0.0
O138 O 0.63201 0.31572 0.68542 0.0
O139 O 0.55233 0.27694 0.68661 0.0
O140 O 0.72498 0.30237 0.69534 0.0
O141 O 0.55334 0.18567 0.73789 0.0
O142 O 0.63285 0.2258 0.73513 0.0
C143 C 0.59184 0.31557 0.68414 0.0
C144 C 0.60005 0.19507 0.63065 0.0
O145 O 0.63935 0.22688 0.64475 0.0
O146 O 0.55969 0.18347 0.64507 0.0
C147 C 0.7535 0.33972 0.67865 0.0
O148 O 0.73578 0.35652 0.65466 0.0
C149 C 0.5944 0.19643 0.75096 0.0
Zn150 Zn 0.38284 0.54617 0.85418 0.0
Zn151 Zn 0.4286 0.64286 0.85764 0.0
O152 O 0.3576 0.62506 0.84989 0.0
O153 O 0.31969 0.54705 0.84838 0.0
O154 O 0.46519 0.71368 0.8657 0.0
O155 O 0.40739 0.54191 0.9028 0.0
O156 O 0.44467 0.61976 0.90383 0.0
C157 C 0.31858 0.5855 0.84674 0.0
C158 C 0.45267 0.59455 0.79787 0.0
O159 O 0.4579 0.63215 0.81279 0.0
O160 O 0.424 0.55434 0.81073 0.0
C161 C 0.46139 0.74553 0.84875 0.0
O162 O 0.4303 0.73332 0.82211 0.0
C163 C 0.4349 0.58079 0.9185 0.0
Zn164 Zn 0.87272 0.51359 0.0211 0.0
Zn165 Zn 0.82208 0.41746 0.01621 0.0
O166 O 0.7685 0.43348 0.02785 0.0
O167 O 0.80874 0.51147 0.03033 0.0
O168 O 0.78783 0.34709 0.00611 0.0
O169 O 0.89794 0.52058 -0.02871 0.0
O170 O 0.85738 0.44277 -0.03127 0.0
C171 C 0.76922 0.4728 0.03244 0.0
C172 C 0.90016 0.46477 0.07334 0.0
O173 O 0.86623 0.42724 0.05907 0.0
O174 O 0.91016 0.50509 0.06163 0.0
C175 C 0.75277 0.31389 0.0226 0.0
O176 O 0.73475 0.32402 0.05063 0.0
C177 C 0.88528 0.4824 -0.04571 0.0
Zn178 Zn 0.39124 0.85471 0.18249 0.0
Zn179 Zn 0.44661 0.81124 0.1841 0.0
O180 O 0.37778 0.75718 0.19156 0.0
O181 O 0.3315 0.79 0.18868 0.0
O182 O 0.48549 0.77796 0.17816 0.0
O183 O 0.41545 0.88115 0.13373 0.0
O184 O 0.46038 0.84693 0.13719 0.0
C185 C 0.33603 0.75361 0.19263 0.0
C186 C 0.4643 0.88523 0.24005 0.0
O187 O 0.4741 0.85436 0.22758 0.0
O188 O 0.43171 0.89157 0.22561 0.0
C189 C 0.47864 0.7412 0.19481 0.0
O190 O 0.4461 0.72441 0.22009 0.0
C191 C 0.44695 0.87257 0.12048 0.0
C192 C 0.26139 0.6318 0.23149 0.0
C193 C 0.2155 0.62815 0.23331 0.0
H194 H 0.33543 0.67399 0.21654 0.0
C195 C 0.20807 0.66303 0.21724 0.0
H196 H 0.26791 0.60521 0.2436 0.0
C197 C 0.2468 0.70275 0.20209 0.0
C198 C 0.29353 0.70805 0.20248 0.0
H199 H 0.17311 0.66123 0.21854 0.0
H200 H 0.24054 0.73031 0.19162 0.0
C201 C 0.29999 0.67121 0.216 0.0
C202 C 0.6472 0.23904 0.40344 0.0
C203 C 0.60084 0.19906 0.40202 0.0
H204 H 0.69198 0.31151 0.38987 0.0
C205 C 0.56438 0.20075 0.38171 0.0
H206 H 0.67605 0.23849 0.41865 0.0
C207 C 0.57342 0.24294 0.36515 0.0
C208 C 0.61902 0.28392 0.36878 0.0
H209 H 0.52825 0.17042 0.3804 0.0
H210 H 0.54415 0.24405 0.35101 0.0
C211 C 0.65618 0.28093 0.38707 0.0
C212 C 0.47477 0.62817 0.54073 0.0
C213 C 0.45557 0.59723 0.56956 0.0
H214 H 0.46245 0.66886 0.50133 0.0
C215 C 0.40666 0.57913 0.57822 0.0
H216 H 0.5125 0.64276 0.53375 0.0
C217 C 0.37819 0.59399 0.55999 0.0
C218 C 0.39802 0.62747 0.53269 0.0
H219 H 0.39102 0.555 0.60028 0.0
H220 H 0.34112 0.58058 0.56834 0.0
C221 C 0.44617 0.64325 0.5224 0.0
C222 C 0.86799 0.37617 0.73173 0.0
C223 C 0.89493 0.42459 0.72417 0.0
H224 H 0.80234 0.31116 0.72286 0.0
C225 C 0.87866 0.4434 0.69729 0.0
H226 H 0.87986 0.36107 0.75254 0.0
C227 C 0.83385 0.4149 0.68038 0.0
C228 C 0.8048 0.36735 0.69033 0.0
H229 H 0.89867 0.48083 0.6914 0.0
H230 H 0.82062 0.43095 0.66137 0.0
C231 C 0.82344 0.34779 0.71493 0.0
C232 C 0.54382 0.85198 0.90559 0.0
C233 C 0.52793 0.88407 0.89674 0.0
H234 H 0.53553 0.78324 0.89717 0.0
C235 C 0.49508 0.87314 0.86826 0.0
H236 H 0.56907 0.85966 0.92755 0.0
C237 C 0.47536 0.82897 0.85088 0.0
C238 C 0.48819 0.7952 0.86193 0.0
H239 H 0.48191 0.89716 0.86128 0.0
H240 H 0.44794 0.82025 0.83042 0.0
C241 C 0.52422 0.80806 0.88838 0.0
C242 C 0.64818 0.43695 0.07467 0.0
C243 C 0.64899 0.48062 0.07667 0.0
H244 H 0.68531 0.39994 0.05853 0.0
C245 C 0.68637 0.52002 0.05977 0.0
H246 H 0.6196 0.40598 0.08736 0.0
C247 C 0.72413 0.51671 0.04356 0.0
C248 C 0.7251 0.47385 0.04367 0.0
H249 H 0.68818 0.5542 0.06115 0.0
H250 H 0.75371 0.54835 0.03237 0.0
C251 C 0.68575 0.43351 0.05812 0.0
C252 C 0.45263 0.86076 0.4666 0.0
C253 C 0.44766 0.90107 0.46197 0.0
H254 H 0.42007 0.78932 0.48462 0.0
C255 C 0.40699 0.90158 0.47595 0.0
H256 H 0.48386 0.8597 0.45619 0.0
C257 C 0.37016 0.86115 0.49192 0.0
C258 C 0.37364 0.8197 0.49449 0.0
H259 H 0.40222 0.93215 0.47254 0.0
H260 H 0.33801 0.86172 0.50076 0.0
C261 C 0.41614 0.82057 0.48295 0.0
C262 C 0.54626 0.39691 0.65197 0.0
C263 C 0.58936 0.43529 0.63981 0.0
H264 H 0.51312 0.32855 0.67601 0.0
C265 C 0.63366 0.43739 0.64771 0.0
H266 H 0.51168 0.39456 0.64608 0.0
C267 C 0.63466 0.39994 0.66494 0.0
C268 C 0.59127 0.35937 0.6742 0.0
H269 H 0.66738 0.46694 0.63883 0.0
H270 H 0.66931 0.4016 0.66885 0.0
C271 C 0.54717 0.35911 0.66897 0.0
C272 C 0.23284 0.6225 0.80732 0.0
C273 C 0.19113 0.57839 0.80153 0.0
H274 H 0.30584 0.65957 0.82682 0.0
C275 C 0.18902 0.53774 0.81609 0.0
H276 H 0.2351 0.65443 0.7966 0.0
C277 C 0.22959 0.54055 0.83324 0.0
C278 C 0.27285 0.58413 0.83627 0.0
H279 H 0.15735 0.5033 0.81189 0.0
H280 H 0.22789 0.50814 0.84223 0.0
C281 C 0.27328 0.6254 0.82467 0.0
C282 C 0.72531 0.21211 -0.0403 0.0
C283 C 0.67823 0.1785 -0.0303 0.0
H284 H 0.78589 0.28094 -0.03123 0.0
C285 C 0.65835 0.18684 0.00046 0.0
H286 H 0.74139 0.20639 0.93609 0.0
C287 C 0.68373 0.22994 0.01919 0.0
C288 C 0.72929 0.26522 0.00735 0.0
H289 H 0.62191 0.16157 0.00846 0.0
H290 H 0.66647 0.23664 0.04161 0.0
C291 C 0.75058 0.25494 -0.02168 0.0
C292 C 0.49747 0.63698 0.17437 0.0
C293 C 0.52602 0.65304 0.14369 0.0
H294 H 0.46 0.65262 0.21501 0.0
C295 C 0.54518 0.70047 0.13371 0.0
H296 H 0.48213 0.60044 0.18244 0.0
C297 C 0.53266 0.73026 0.15218 0.0
C298 C 0.50037 0.71311 0.18088 0.0
H299 H 0.56755 0.71366 0.11024 0.0
H300 H 0.546 0.7659 0.14253 0.0
C301 C 0.48465 0.66682 0.19284 0.0
C302 C 0.87617 0.44807 0.30096 0.0
C303 C 0.92016 0.48967 0.29548 0.0
H304 H 0.80408 0.41725 0.32063 0.0
C305 C 0.92645 0.53281 0.30908 0.0
H306 H 0.87063 0.41441 0.29076 0.0
C307 C 0.88812 0.53471 0.3258 0.0
C308 C 0.84311 0.49339 0.32954 0.0
H309 H 0.96003 0.56541 0.30493 0.0
H310 H 0.89316 0.56876 0.33449 0.0
C311 C 0.83816 0.44982 0.31808 0.0
C312 C 0.20794 0.57486 0.36966 0.0
C313 C 0.16493 0.5707 0.35543 0.0
H314 H 0.25769 0.59794 0.4139 0.0
C315 C 0.13595 0.58189 0.37714 0.0
H316 H 0.23082 0.56629 0.35347 0.0
C317 C 0.15144 0.60035 0.41138 0.0
C318 C 0.19603 0.60763 0.42475 0.0
H319 H 0.10289 0.5796 0.36682 0.0
H320 H 0.12948 0.61094 0.42677 0.0
C321 C 0.22323 0.59288 0.4042 0.0
C322 C 0.55734 0.11857 0.54771 0.0
C323 C 0.59683 0.14331 0.52501 0.0
H324 H 0.52744 0.11566 0.59917 0.0
C325 C 0.63948 0.1818 0.53859 0.0
H326 H 0.52393 0.08896 0.53775 0.0
C327 C 0.64161 0.19702 0.57379 0.0
C328 C 0.60084 0.17434 0.59574 0.0
H329 H 0.67045 0.20119 0.52155 0.0
H330 H 0.67424 0.22805 0.58314 0.0
C331 C 0.55925 0.13409 0.58274 0.0
C332 C 0.49405 0.55669 0.71613 0.0
C333 C 0.50767 0.59566 0.69375 0.0
H334 H 0.46605 0.52588 0.76676 0.0
C335 C 0.50855 0.63651 0.70738 0.0
H336 H 0.49258 0.52457 0.7062 0.0
C337 C 0.49346 0.63734 0.7422 0.0
C338 C 0.47659 0.59706 0.76369 0.0
H339 H 0.51915 0.66707 0.69066 0.0
H340 H 0.49253 0.66854 0.75154 0.0
C341 C 0.47847 0.55731 0.75071 0.0
C342 C 0.90546 0.44264 0.86404 0.0
C343 C 0.93665 0.48601 0.84788 0.0
H344 H 0.86478 0.40746 0.91016 0.0
C345 C 0.95153 0.52826 0.86717 0.0
H346 H 0.89395 0.40945 0.84997 0.0
C347 C 0.93488 0.52715 0.90178 0.0
C348 C 0.90319 0.48374 0.91777 0.0
H349 H 0.97525 0.56218 0.85525 0.0
H350 H 0.94668 0.56034 0.91589 0.0
C351 C 0.88889 0.4415 0.89858 0.0
C352 C 0.52086 0.89812 0.03675 0.0
C353 C 0.50971 0.92957 0.01907 0.0
H354 H 0.50973 0.85542 0.08253 0.0
C355 C 0.47904 0.9436 0.0354 0.0
H356 H 0.54476 0.8871 0.02476 0.0
C357 C 0.45861 0.92521 0.06848 0.0
C358 C 0.46888 0.89281 0.0858 0.0
H359 H 0.46968 0.96756 0.02208 0.0
H360 H 0.43446 0.93604 0.08028 0.0
C361 C 0.50075 0.88 0.0698 0.0
C362 C 0.59205 0.43663 0.21214 0.0
C363 C 0.59358 0.47808 0.19964 0.0
H364 H 0.61104 0.40438 0.2543 0.0
C365 C 0.61003 0.51743 0.22267 0.0
H366 H 0.57925 0.40571 0.19494 0.0
C367 C 0.62851 0.51684 0.25633 0.0
C368 C 0.63061 0.47678 0.26776 0.0
H369 H 0.61209 0.55003 0.21372 0.0
H370 H 0.64342 0.5487 0.27267 0.0
C371 C 0.61019 0.43588 0.24607 0.0
C372 C 0.49964 0.9723 0.31645 0.0
C373 C 0.51564 0.95144 0.34188 0.0
H374 H 0.47069 0.96744 0.26402 0.0
C375 C 0.52165 0.9129 0.33175 0.0
H376 H 0.49435 1.00181 0.32367 0.0
C377 C 0.50816 0.89319 0.29752 0.0
C378 C 0.48786 0.91139 0.27319 0.0
H379 H 0.53412 0.89638 0.35095 0.0
H380 H 0.51059 0.86185 0.29101 0.0
C381 C 0.48561 0.95228 0.28244 0.0
C382 C 0.61348 0.46126 0.50254 0.0
C383 C 0.62511 0.50447 0.51934 0.0
H384 H 0.62419 0.42638 0.45795 0.0
C385 C 0.65649 0.54698 0.50234 0.0
H386 H 0.5888 0.42791 0.51484 0.0
C387 C 0.67697 0.54616 0.46953 0.0
C388 C 0.66615 0.50278 0.45317 0.0
H389 H 0.66618 0.58073 0.51485 0.0
H390 H 0.7015 0.57946 0.45714 0.0
C391 C 0.6338 0.4604 0.46992 0.0
C392 C 0.18656 0.59417 0.6636 0.0
C393 C 0.15117 0.60282 0.6787 0.0
H394 H 0.23387 0.60573 0.61998 0.0
C395 C 0.13478 0.62928 0.65956 0.0
H396 H 0.1993 0.5732 0.67755 0.0
C397 C 0.15468 0.64806 0.62635 0.0
C398 C 0.19111 0.64043 0.61173 0.0
H399 H 0.10765 0.63655 0.67069 0.0
H400 H 0.14191 0.66895 0.61235 0.0
C401 C 0.20634 0.61279 0.63057 0.0
C402 C 0.6481 0.16756 0.83056 0.0
C403 C 0.60657 0.13491 0.84874 0.0
H404 H 0.67682 0.21266 0.78567 0.0
C405 C 0.56072 0.12086 0.83388 0.0
H406 H 0.68389 0.1786 0.84136 0.0
C407 C 0.55653 0.14057 0.8019 0.0
C408 C 0.59818 0.17444 0.78429 0.0
H409 H 0.52819 0.09598 0.84759 0.0
H410 H 0.52073 0.1298 0.7913 0.0
C411 C 0.64398 0.1871 0.79871 0.0
C412 C 0.46253 0.53924 0.00527 0.0
C413 C 0.49425 0.58247 0.02214 0.0
H414 H 0.41856 0.50472 -0.04072 0.0
C415 C 0.50748 0.62492 0.00419 0.0
H416 H 0.45142 0.50601 0.01861 0.0
C417 C 0.48843 0.62429 -0.02952 0.0
C418 C 0.45585 0.58115 -0.04614 0.0
H419 H 0.53247 0.65877 0.01633 0.0
H420 H 0.4991 0.6577 -0.04243 0.0
C421 C 0.44349 0.53857 -0.02858 0.0
C422 C 0.98957 0.50312 0.1497 0.0
C423 C 0.96449 0.46658 0.17407 0.0
H424 H 0.98863 0.5311 0.09845 0.0
C425 C 0.92175 0.42599 0.16294 0.0
H426 H 1.02236 0.53497 0.15768 0.0
C427 C 0.90249 0.42364 0.12887 0.0
C428 C 0.92531 0.46221 0.10575 0.0
H429 H 0.90187 0.39732 0.1813 0.0
H430 H 0.86807 0.39316 0.12166 0.0
C431 C 0.96999 0.50109 0.11591 0.0
loop_
_geom_bond_atom_site_label_1
_geom_bond_atom_site_label_2
_geom_bond_distance
_geom_bond_site_symmetry_2
_ccdc_geom_bond_type
H0 C6 0.930 . S
H1 C9 0.931 . S
H2 C11 0.931 . S
H3 C13 0.930 . S
H4 C15 0.930 . S
H5 C17 0.931 . S
C6 H0 0.930 . S
C6 C7 1.380 . S
C6 C8 1.394 . S
C7 C6 1.380 . S
C7 C11 1.382 . S
C8 C6 1.394 . S
C8 C9 1.400 . S
C9 H1 0.931 . S
C9 C8 1.400 . S
C9 C10 1.375 . S
C10 C9 1.375 . S
C10 C11 1.415 . S
C10 C12 1.501 1_455 S
C11 H2 0.931 . S
C11 C7 1.382 . S
C11 C10 1.415 . S
C12 C10 1.501 1_655 S
C12 C13 1.384 . S
C12 C17 1.408 . S
C13 H3 0.930 . S
C13 C12 1.384 . S
C13 C14 1.389 . S
C14 C13 1.389 . S
C14 C15 1.405 . S
C15 H4 0.930 . S
C15 C14 1.405 . S
C15 C16 1.364 . S
C16 C15 1.364 . S
C16 C17 1.400 . S
C17 H5 0.931 . S
C17 C12 1.408 . S
C17 C16 1.400 . S
H18 C24 0.930 . S
H19 C27 0.931 . S
H20 C29 0.931 . S
H21 C31 0.930 . S
H22 C33 0.930 . S
H23 C35 0.931 . S
C24 H18 0.930 . S
C24 C25 1.380 . S
C24 C26 1.394 . S
C25 C24 1.380 . S
C25 C29 1.382 . S
C26 C24 1.394 . S
C26 C27 1.400 . S
C27 H19 0.931 . S
C27 C26 1.400 . S
C27 C28 1.375 . S
C28 C27 1.375 . S
C28 C29 1.415 . S
C28 C30 1.501 1_545 S
C29 H20 0.931 . S
C29 C25 1.382 . S
C29 C28 1.415 . S
C30 C28 1.501 1_565 S
C30 C31 1.384 . S
C30 C35 1.408 . S
C31 H21 0.930 . S
C31 C30 1.384 . S
C31 C32 1.389 . S
C32 C31 1.389 . S
C32 C33 1.405 . S
C33 H22 0.930 . S
C33 C32 1.405 . S
C33 C34 1.364 . S
C34 C33 1.364 . S
C34 C35 1.400 . S
C35 H23 0.931 . S
C35 C30 1.408 . S
C35 C34 1.400 . S
H36 C42 0.930 . S
H37 C45 0.931 . S
H38 C47 0.931 . S
H39 C49 0.930 . S
H40 C51 0.930 . S
H41 C53 0.931 . S
C42 H36 0.930 . S
C42 C43 1.380 . S
C42 C44 1.394 . S
C43 C42 1.380 . S
C43 C47 1.382 . S
C44 C42 1.394 . S
C44 C45 1.400 . S
C45 H37 0.931 . S
C45 C44 1.400 . S
C45 C46 1.375 . S
C46 C45 1.375 . S
C46 C47 1.415 . S
C46 C48 1.501 . S
C47 H38 0.931 . S
C47 C43 1.382 . S
C47 C46 1.415 . S
C48 C46 1.501 . S
C48 C49 1.384 . S
C48 C53 1.408 . S
C49 H39 0.930 . S
C49 C48 1.384 . S
C49 C50 1.389 . S
C50 C49 1.389 . S
C50 C51 1.405 . S
C51 H40 0.930 . S
C51 C50 1.405 . S
C51 C52 1.364 . S
C52 C51 1.364 . S
C52 C53 1.400 . S
C53 H41 0.931 . S
C53 C48 1.408 . S
C53 C52 1.400 . S
H54 C60 0.930 . S
H55 C63 0.931 . S
H56 C65 0.931 . S
H57 C67 0.930 . S
H58 C69 0.930 . S
H59 C71 0.931 . S
C60 H54 0.930 . S
C60 C61 1.380 . S
C60 C62 1.394 . S
C61 C60 1.380 . S
C61 C65 1.382 . S
C62 C60 1.394 . S
C62 C63 1.400 . S
C63 H55 0.931 . S
C63 C62 1.400 . S
C63 C64 1.375 . S
C64 C63 1.375 . S
C64 C65 1.415 . S
C64 C66 1.501 1_455 S
C65 H56 0.931 . S
C65 C61 1.382 . S
C65 C64 1.415 . S
C66 C64 1.501 1_655 S
C66 C67 1.384 . S
C66 C71 1.408 . S
C67 H57 0.930 . S
C67 C66 1.384 . S
C67 C68 1.389 . S
C68 C67 1.389 . S
C68 C69 1.405 . S
C69 H58 0.930 . S
C69 C68 1.405 . S
C69 C70 1.364 . S
C70 C69 1.364 . S
C70 C71 1.400 . S
C71 H59 0.931 . S
C71 C66 1.408 . S
C71 C70 1.400 . S
H72 C78 0.930 . S
H73 C81 0.931 . S
H74 C83 0.931 . S
H75 C85 0.930 . S
H76 C87 0.930 . S
H77 C89 0.931 . S
C78 H72 0.930 . S
C78 C79 1.380 . S
C78 C80 1.394 1_554 S
C79 C78 1.380 . S
C79 C83 1.382 . S
C80 C78 1.394 1_556 S
C80 C81 1.400 . S
C81 H73 0.931 . S
C81 C80 1.400 . S
C81 C82 1.375 . S
C82 C81 1.375 . S
C82 C83 1.415 1_556 S
C82 C84 1.501 1_565 S
C83 H74 0.931 . S
C83 C79 1.382 . S
C83 C82 1.415 1_554 S
C84 C82 1.501 1_545 S
C84 C85 1.384 1_556 S
C84 C89 1.408 . S
C85 H75 0.930 . S
C85 C84 1.384 1_554 S
C85 C86 1.395 . S
C86 C85 1.395 . S
C86 C87 1.387 1_554 S
C87 H76 0.930 . S
C87 C86 1.387 1_556 S
C87 C88 1.364 . S
C88 C87 1.364 . S
C88 C89 1.400 . S
C89 H77 0.931 . S
C89 C84 1.408 . S
C89 C88 1.400 . S
H90 C96 0.930 . S
H91 C99 0.931 . S
H92 C101 0.931 . S
H93 C103 0.930 . S
H94 C105 0.930 . S
H95 C107 0.931 . S
C96 H90 0.930 . S
C96 C97 1.380 . S
C96 C98 1.394 . S
C97 C96 1.380 . S
C97 C101 1.382 . S
C98 C96 1.394 . S
C98 C99 1.400 . S
C99 H91 0.931 . S
C99 C98 1.400 . S
C99 C100 1.375 . S
C100 C99 1.375 . S
C100 C101 1.415 . S
C100 C102 1.501 . S
C101 H92 0.931 . S
C101 C97 1.382 . S
C101 C100 1.415 . S
C102 C100 1.501 . S
C102 C103 1.384 . S
C102 C107 1.408 . S
C103 H93 0.930 . S
C103 C102 1.384 . S
C103 C104 1.389 . S
C104 C103 1.389 . S
C104 C105 1.405 . S
C105 H94 0.930 . S
C105 C104 1.405 . S
C105 C106 1.364 . S
C106 C105 1.364 . S
C106 C107 1.400 . S
C107 H95 0.931 . S
C107 C102 1.408 . S
C107 C106 1.400 . S
Zn108 O111 2.031 . S
Zn108 O113 2.049 . S
Zn108 O118 2.067 . S
Zn109 O110 1.962 . S
Zn109 O112 1.986 . S
Zn109 O114 1.996 . S
Zn109 O117 1.943 . S
O110 Zn109 1.962 . S
O110 C115 1.254 . S
O111 Zn108 2.031 . S
O111 C115 1.269 . S
O112 Zn109 1.986 . S
O112 C119 1.262 . S
O113 Zn108 2.049 . S
O113 C121 1.260 . S
O114 Zn109 1.996 . S
O114 C121 1.257 . S
C115 O110 1.254 . S
C115 O111 1.269 . S
C116 O117 1.249 . S
C116 O118 1.270 . S
O117 Zn109 1.943 . S
O117 C116 1.249 . S
O118 Zn108 2.067 . S
O118 C116 1.270 . S
C119 O112 1.262 . S
C119 O120 1.232 . S
O120 C119 1.232 . S
C121 O113 1.260 . S
C121 O114 1.257 . S
Zn122 O125 2.031 . S
Zn122 O127 2.049 . S
Zn122 O132 2.067 . S
Zn123 O124 1.962 . S
Zn123 O126 1.986 . S
Zn123 O128 1.996 . S
Zn123 O131 1.943 . S
O124 Zn123 1.962 . S
O124 C129 1.254 . S
O125 Zn122 2.031 . S
O125 C129 1.269 . S
O126 Zn123 1.986 . S
O126 C133 1.262 . S
O127 Zn122 2.049 . S
O127 C135 1.260 . S
O128 Zn123 1.996 . S
O128 C135 1.257 . S
C129 O124 1.254 . S
C129 O125 1.269 . S
C130 O131 1.249 . S
C130 O132 1.270 . S
O131 Zn123 1.943 . S
O131 C130 1.249 . S
O132 Zn122 2.067 . S
O132 C130 1.270 . S
C133 O126 1.262 . S
C133 O134 1.232 . S
O134 C133 1.232 . S
C135 O127 1.260 . S
C135 O128 1.257 . S
Zn136 O139 2.031 . S
Zn136 O141 2.049 . S
Zn136 O146 2.067 . S
Zn137 O138 1.962 . S
Zn137 O140 1.986 . S
Zn137 O142 1.996 . S
Zn137 O145 1.943 . S
O138 Zn137 1.962 . S
O138 C143 1.254 . S
O139 Zn136 2.031 . S
O139 C143 1.269 . S
O140 Zn137 1.986 . S
O140 C147 1.262 . S
O141 Zn136 2.049 . S
O141 C149 1.260 . S
O142 Zn137 1.996 . S
O142 C149 1.257 . S
C143 O138 1.254 . S
C143 O139 1.269 . S
C144 O145 1.249 . S
C144 O146 1.270 . S
O145 Zn137 1.943 . S
O145 C144 1.249 . S
O146 Zn136 2.067 . S
O146 C144 1.270 . S
C147 O140 1.262 . S
C147 O148 1.232 . S
O148 C147 1.232 . S
C149 O141 1.260 . S
C149 O142 1.257 . S
Zn150 O153 2.031 . S
Zn150 O155 2.049 . S
Zn150 O160 2.067 . S
Zn151 O152 1.962 . S
Zn151 O154 1.986 . S
Zn151 O156 1.996 . S
Zn151 O159 1.943 . S
O152 Zn151 1.962 . S
O152 C157 1.254 . S
O153 Zn150 2.031 . S
O153 C157 1.269 . S
O154 Zn151 1.986 . S
O154 C161 1.262 . S
O155 Zn150 2.049 . S
O155 C163 1.260 . S
O156 Zn151 1.996 . S
O156 C163 1.257 . S
C157 O152 1.254 . S
C157 O153 1.269 . S
C158 O159 1.249 . S
C158 O160 1.270 . S
O159 Zn151 1.943 . S
O159 C158 1.249 . S
O160 Zn150 2.067 . S
O160 C158 1.270 . S
C161 O154 1.262 . S
C161 O162 1.232 . S
O162 C161 1.232 . S
C163 O155 1.260 . S
C163 O156 1.257 . S
Zn164 O167 2.031 . S
Zn164 O169 2.049 . S
Zn164 O174 2.067 . S
Zn165 O166 1.962 . S
Zn165 O168 1.986 . S
Zn165 O170 1.996 . S
Zn165 O173 1.943 . S
O166 Zn165 1.962 . S
O166 C171 1.254 . S
O167 Zn164 2.031 . S
O167 C171 1.269 . S
O168 Zn165 1.986 . S
O168 C175 1.262 . S
O169 Zn164 2.049 . S
O169 C177 1.260 . S
O170 Zn165 1.996 . S
O170 C177 1.257 . S
C171 O166 1.254 . S
C171 O167 1.269 . S
C172 O173 1.249 . S
C172 O174 1.270 . S
O173 Zn165 1.943 . S
O173 C172 1.249 . S
O174 Zn164 2.067 . S
O174 C172 1.270 . S
C175 O168 1.262 . S
C175 O176 1.232 . S
O176 C175 1.232 . S
C177 O169 1.260 . S
C177 O170 1.257 . S
Zn178 O181 2.031 . S
Zn178 O183 2.049 . S
Zn178 O188 2.067 . S
Zn179 O180 1.962 . S
Zn179 O182 1.986 . S
Zn179 O184 1.996 . S
Zn179 O187 1.943 . S
O180 Zn179 1.962 . S
O180 C185 1.254 . S
O181 Zn178 2.031 . S
O181 C185 1.269 . S
O182 Zn179 1.986 . S
O182 C189 1.262 . S
O183 Zn178 2.049 . S
O183 C191 1.260 . S
O184 Zn179 1.996 . S
O184 C191 1.257 . S
C185 O180 1.254 . S
C185 O181 1.269 . S
C186 O187 1.249 . S
C186 O188 1.270 . S
O187 Zn179 1.943 . S
O187 C186 1.249 . S
O188 Zn178 2.067 . S
O188 C186 1.270 . S
C189 O182 1.262 . S
C189 O190 1.232 . S
O190 C189 1.232 . S
C191 O183 1.260 . S
C191 O184 1.257 . S
C192 C193 1.387 . S
C192 H196 0.950 . S
C192 C201 1.390 . S
C193 C192 1.387 . S
C193 C195 1.387 . S
H194 C201 0.950 . S
C195 C193 1.387 . S
C195 C197 1.390 . S
C195 H199 0.950 . S
H196 C192 0.950 . S
C197 C195 1.390 . S
C197 C198 1.387 . S
C197 H200 0.950 . S
C198 C197 1.387 . S
C198 C201 1.387 . S
H199 C195 0.950 . S
H200 C197 0.950 . S
C201 C192 1.390 . S
C201 H194 0.950 . S
C201 C198 1.387 . S
C202 C203 1.387 . S
C202 H206 0.950 . S
C202 C211 1.390 . S
C203 C202 1.387 . S
C203 C205 1.387 . S
H204 C211 0.950 . S
C205 C203 1.387 . S
C205 C207 1.390 . S
C205 H209 0.950 . S
H206 C202 0.950 . S
C207 C205 1.390 . S
C207 C208 1.387 . S
C207 H210 0.950 . S
C208 C207 1.387 . S
C208 C211 1.387 . S
H209 C205 0.950 . S
H210 C207 0.950 . S
C211 C202 1.390 . S
C211 H204 0.950 . S
C211 C208 1.387 . S
C212 C213 1.387 . S
C212 H216 0.950 . S
C212 C221 1.390 . S
C213 C212 1.387 . S
C213 C215 1.387 . S
H214 C221 0.950 . S
C215 C213 1.387 . S
C215 C217 1.390 . S
C215 H219 0.950 . S
H216 C212 0.950 . S
C217 C215 1.390 . S
C217 C218 1.387 . S
C217 H220 0.950 . S
C218 C217 1.387 . S
C218 C221 1.387 . S
H219 C215 0.950 . S
H220 C217 0.950 . S
C221 C212 1.390 . S
C221 H214 0.950 . S
C221 C218 1.387 . S
C222 C223 1.387 . S
C222 H226 0.950 . S
C222 C231 1.390 . S
C223 C222 1.387 . S
C223 C225 1.387 . S
H224 C231 0.950 . S
C225 C223 1.387 . S
C225 C227 1.390 . S
C225 H229 0.950 . S
H226 C222 0.950 . S
C227 C225 1.390 . S
C227 C228 1.387 . S
C227 H230 0.950 . S
C228 C227 1.387 . S
C228 C231 1.387 . S
H229 C225 0.950 . S
H230 C227 0.950 . S
C231 C222 1.390 . S
C231 H224 0.950 . S
C231 C228 1.387 . S
C232 C233 1.387 . S
C232 H236 0.950 1_556 S
C232 C241 1.390 . S
C233 C232 1.387 . S
C233 C235 1.387 . S
H234 C241 0.950 . S
C235 C233 1.387 . S
C235 C237 1.390 . S
C235 H239 0.950 . S
H236 C232 0.950 1_554 S
C237 C235 1.390 . S
C237 C238 1.387 . S
C237 H240 0.950 . S
C238 C237 1.387 . S
C238 C241 1.387 . S
H239 C235 0.950 . S
H240 C237 0.950 . S
C241 C232 1.390 . S
C241 H234 0.950 . S
C241 C238 1.387 . S
C242 C243 1.387 . S
C242 H246 0.950 . S
C242 C251 1.390 . S
C243 C242 1.387 . S
C243 C245 1.387 . S
H244 C251 0.950 . S
C245 C243 1.387 . S
C245 C247 1.390 . S
C245 H249 0.950 . S
H246 C242 0.950 . S
C247 C245 1.390 . S
C247 C248 1.387 . S
C247 H250 0.950 . S
C248 C247 1.387 . S
C248 C251 1.387 . S
H249 C245 0.950 . S
H250 C247 0.950 . S
C251 C242 1.390 . S
C251 H244 0.950 . S
C251 C248 1.387 . S
C252 C253 1.387 . S
C252 H256 0.950 . S
C252 C261 1.390 . S
C253 C252 1.387 . S
C253 C255 1.387 . S
H254 C261 0.950 . S
C255 C253 1.387 . S
C255 C257 1.390 . S
C255 H259 0.950 . S
H256 C252 0.950 . S
C257 C255 1.390 . S
C257 C258 1.387 . S
C257 H260 0.950 . S
C258 C257 1.387 . S
C258 C261 1.387 . S
H259 C255 0.950 . S
H260 C257 0.950 . S
C261 C252 1.390 . S
C261 H254 0.950 . S
C261 C258 1.387 . S
C262 C263 1.387 . S
C262 H266 0.950 . S
C262 C271 1.390 . S
C263 C262 1.387 . S
C263 C265 1.387 . S
H264 C271 0.950 . S
C265 C263 1.387 . S
C265 C267 1.390 . S
C265 H269 0.950 . S
H266 C262 0.950 . S
C267 C265 1.390 . S
C267 C268 1.387 . S
C267 H270 0.950 . S
C268 C267 1.387 . S
C268 C271 1.387 . S
H269 C265 0.950 . S
H270 C267 0.950 . S
C271 C262 1.390 . S
C271 H264 0.950 . S
C271 C268 1.387 . S
C272 C273 1.387 . S
C272 H276 0.950 . S
C272 C281 1.390 . S
C273 C272 1.387 . S
C273 C275 1.387 . S
H274 C281 0.950 . S
C275 C273 1.387 . S
C275 C277 1.390 . S
C275 H279 0.950 . S
H276 C272 0.950 . S
C277 C275 1.390 . S
C277 C278 1.387 . S
C277 H280 0.950 . S
C278 C277 1.387 . S
C278 C281 1.387 . S
H279 C275 0.950 . S
H280 C277 0.950 . S
C281 C272 1.390 . S
C281 H274 0.950 . S
C281 C278 1.387 . S
C282 C283 1.387 1_556 S
C282 H286 0.950 . S
C282 C291 1.390 1_556 S
C283 C282 1.387 1_554 S
C283 C285 1.387 . S
H284 C291 0.950 1_556 S
C285 C283 1.387 . S
C285 C287 1.390 . S
C285 H289 0.950 . S
H286 C282 0.950 . S
C287 C285 1.390 . S
C287 C288 1.387 . S
C287 H290 0.950 . S
C288 C287 1.387 . S
C288 C291 1.387 . S
H289 C285 0.950 . S
H290 C287 0.950 . S
C291 C282 1.390 1_554 S
C291 H284 0.950 1_554 S
C291 C288 1.387 . S
C292 C293 1.387 . S
C292 H296 0.950 . S
C292 C301 1.390 . S
C293 C292 1.387 . S
C293 C295 1.387 . S
H294 C301 0.950 . S
C295 C293 1.387 . S
C295 C297 1.390 . S
C295 H299 0.950 . S
H296 C292 0.950 . S
C297 C295 1.390 . S
C297 C298 1.387 . S
C297 H300 0.950 . S
C298 C297 1.387 . S
C298 C301 1.387 . S
H299 C295 0.950 . S
H300 C297 0.950 . S
C301 C292 1.390 . S
C301 H294 0.950 . S
C301 C298 1.387 . S
C302 C303 1.387 . S
C302 H306 0.950 . S
C302 C311 1.390 . S
C303 C302 1.387 . S
C303 C305 1.387 . S
H304 C311 0.950 . S
C305 C303 1.387 . S
C305 C307 1.390 . S
C305 H309 0.950 . S
H306 C302 0.950 . S
C307 C305 1.390 . S
C307 C308 1.387 . S
C307 H310 0.950 . S
C308 C307 1.387 . S
C308 C311 1.387 . S
H309 C305 0.950 . S
H310 C307 0.950 . S
C311 C302 1.390 . S
C311 H304 0.950 . S
C311 C308 1.387 . S
C312 C313 1.387 . S
C312 H316 0.950 . S
C312 C321 1.390 . S
C313 C312 1.387 . S
C313 C315 1.387 . S
H314 C321 0.950 . S
C315 C313 1.387 . S
C315 C317 1.390 . S
C315 H319 0.950 . S
H316 C312 0.950 . S
C317 C315 1.390 . S
C317 C318 1.387 . S
C317 H320 0.950 . S
C318 C317 1.387 . S
C318 C321 1.387 . S
H319 C315 0.950 . S
H320 C317 0.950 . S
C321 C312 1.390 . S
C321 H314 0.950 . S
C321 C318 1.387 . S
C322 C323 1.387 . S
C322 H326 0.950 . S
C322 C331 1.390 . S
C323 C322 1.387 . S
C323 C325 1.387 . S
H324 C331 0.950 . S
C325 C323 1.387 . S
C325 C327 1.390 . S
C325 H329 0.950 . S
H326 C322 0.950 . S
C327 C325 1.390 . S
C327 C328 1.387 . S
C327 H330 0.950 . S
C328 C327 1.387 . S
C328 C331 1.387 . S
H329 C325 0.950 . S
H330 C327 0.950 . S
C331 C322 1.390 . S
C331 H324 0.950 . S
C331 C328 1.387 . S
C332 C333 1.387 . S
C332 H336 0.950 . S
C332 C341 1.390 . S
C333 C332 1.387 . S
C333 C335 1.387 . S
H334 C341 0.950 . S
C335 C333 1.387 . S
C335 C337 1.390 . S
C335 H339 0.950 . S
H336 C332 0.950 . S
C337 C335 1.390 . S
C337 C338 1.387 . S
C337 H340 0.950 . S
C338 C337 1.387 . S
C338 C341 1.387 . S
H339 C335 0.950 . S
H340 C337 0.950 . S
C341 C332 1.390 . S
C341 H334 0.950 . S
C341 C338 1.387 . S
C342 C343 1.387 . S
C342 H346 0.950 . S
C342 C351 1.390 . S
C343 C342 1.387 . S
C343 C345 1.387 . S
H344 C351 0.950 . S
C345 C343 1.387 . S
C345 C347 1.390 . S
C345 H349 0.950 . S
H346 C342 0.950 . S
C347 C345 1.390 . S
C347 C348 1.387 . S
C347 H350 0.950 1_556 S
C348 C347 1.387 . S
C348 C351 1.387 . S
H349 C345 0.950 . S
H350 C347 0.950 1_554 S
C351 C342 1.390 . S
C351 H344 0.950 . S
C351 C348 1.387 . S
C352 C353 1.387 . S
C352 H356 0.950 . S
C352 C361 1.390 . S
C353 C352 1.387 . S
C353 C355 1.387 . S
H354 C361 0.950 . S
C355 C353 1.387 . S
C355 C357 1.390 . S
C355 H359 0.950 . S
H356 C352 0.950 . S
C357 C355 1.390 . S
C357 C358 1.387 . S
C357 H360 0.950 . S
C358 C357 1.387 . S
C358 C361 1.387 . S
H359 C355 0.950 . S
H360 C357 0.950 . S
C361 C352 1.390 . S
C361 H354 0.950 . S
C361 C358 1.387 . S
C362 C363 1.387 . S
C362 H366 0.950 . S
C362 C371 1.390 . S
C363 C362 1.387 . S
C363 C365 1.387 . S
H364 C371 0.950 . S
C365 C363 1.387 . S
C365 C367 1.390 . S
C365 H369 0.950 . S
H366 C362 0.950 . S
C367 C365 1.390 . S
C367 C368 1.387 . S
C367 H370 0.950 . S
C368 C367 1.387 . S
C368 C371 1.387 . S
H369 C365 0.950 . S
H370 C367 0.950 . S
C371 C362 1.390 . S
C371 H364 0.950 . S
C371 C368 1.387 . S
C372 C373 1.387 . S
C372 H376 0.950 . S
C372 C381 1.390 . S
C373 C372 1.387 . S
C373 C375 1.387 . S
H374 C381 0.950 . S
C375 C373 1.387 . S
C375 C377 1.390 . S
C375 H379 0.950 . S
H376 C372 0.950 . S
C377 C375 1.390 . S
C377 C378 1.387 . S
C377 H380 0.950 . S
C378 C377 1.387 . S
C378 C381 1.387 . S
H379 C375 0.950 . S
H380 C377 0.950 . S
C381 C372 1.390 . S
C381 H374 0.950 . S
C381 C378 1.387 . S
C382 C383 1.387 . S
C382 H386 0.950 . S
C382 C391 1.390 . S
C383 C382 1.387 . S
C383 C385 1.387 . S
H384 C391 0.950 . S
C385 C383 1.387 . S
C385 C387 1.390 . S
C385 H389 0.950 . S
H386 C382 0.950 . S
C387 C385 1.390 . S
C387 C388 1.387 . S
C387 H390 0.950 . S
C388 C387 1.387 . S
C388 C391 1.387 . S
H389 C385 0.950 . S
H390 C387 0.950 . S
C391 C382 1.390 . S
C391 H384 0.950 . S
C391 C388 1.387 . S
C392 C393 1.387 . S
C392 H396 0.950 . S
C392 C401 1.390 . S
C393 C392 1.387 . S
C393 C395 1.387 . S
H394 C401 0.950 . S
C395 C393 1.387 . S
C395 C397 1.390 . S
C395 H399 0.950 . S
H396 C392 0.950 . S
C397 C395 1.390 . S
C397 C398 1.387 . S
C397 H400 0.950 . S
C398 C397 1.387 . S
C398 C401 1.387 . S
H399 C395 0.950 . S
H400 C397 0.950 . S
C401 C392 1.390 . S
C401 H394 0.950 . S
C401 C398 1.387 . S
C402 C403 1.387 . S
C402 H406 0.950 . S
C402 C411 1.390 . S
C403 C402 1.387 . S
C403 C405 1.387 . S
H404 C411 0.950 . S
C405 C403 1.387 . S
C405 C407 1.390 . S
C405 H409 0.950 . S
H406 C402 0.950 . S
C407 C405 1.390 . S
C407 C408 1.387 . S
C407 H410 0.950 . S
C408 C407 1.387 . S
C408 C411 1.387 . S
H409 C405 0.950 . S
H410 C407 0.950 . S
C411 C402 1.390 . S
C411 H404 0.950 . S
C411 C408 1.387 . S
C412 C413 1.387 . S
C412 H416 0.950 . S
C412 C421 1.390 . S
C413 C412 1.387 . S
C413 C415 1.387 . S
H414 C421 0.950 1_556 S
C415 C413 1.387 . S
C415 C417 1.390 . S
C415 H419 0.950 . S
H416 C412 0.950 . S
C417 C415 1.390 . S
C417 C418 1.387 . S
C417 H420 0.950 . S
C418 C417 1.387 . S
C418 C421 1.387 . S
H419 C415 0.950 . S
H420 C417 0.950 . S
C421 C412 1.390 . S
C421 H414 0.950 1_554 S
C421 C418 1.387 . S
C422 C423 1.387 . S
C422 H426 0.950 . S
C422 C431 1.390 . S
C423 C422 1.387 . S
C423 C425 1.387 . S
H424 C431 0.950 . S
C425 C423 1.387 . S
C425 C427 1.390 . S
C425 H429 0.950 . S
H426 C422 0.950 . S
C427 C425 1.390 . S
C427 C428 1.387 . S
C427 H430 0.950 . S
C428 C427 1.387 . S
C428 C431 1.387 . S
H429 C425 0.950 . S
H430 C427 0.950 . S
C431 C422 1.390 . S
C431 H424 0.950 . S
C431 C428 1.387 . S
C198 C185 1.555 . S
C193 C8 1.517 . S
C203 C26 1.465 . S
C208 C119 1.480 . S
C213 C50 1.421 . S
C218 C133 1.437 . S
C223 C68 1.447 . S
C228 C147 1.469 . S
C238 C161 1.485 . S
C233 C80 1.474 . S
C243 C104 1.480 . S
C248 C171 1.524 . S
C253 C32 1.521 . S
C258 C129 1.565 . S
C263 C44 1.560 . S
C268 C143 1.610 . S
C273 C62 1.508 . S
C278 C157 1.559 . S
C288 C175 1.477 . S
C283 C86 1.469 . S
C298 C189 1.509 . S
C293 C98 1.486 . S
C308 C115 1.545 . S
C303 C14 1.502 . S
C313 C7 1.467 . S
C318 C130 1.450 . S
C323 C25 1.517 . S
C328 C144 1.506 . S
C338 C158 1.509 . S
C333 C52 1.524 . S
C343 C70 1.448 . S
C348 C177 1.432 1_556 S
C358 C191 1.409 . S
C353 C79 1.428 . S
C368 C116 1.435 . S
C363 C106 1.455 . S
C378 C186 1.433 . S
C373 C34 1.452 . S
C383 C43 1.375 . S
C388 C121 1.369 . S
C398 C135 1.382 . S
C393 C61 1.385 . S
C403 C88 1.435 . S
C408 C149 1.418 . S
C413 C97 1.445 . S
C418 C163 1.429 1_554 S
C423 C16 1.474 . S
C428 C172 1.450 . S
