# Generated by pormake.
# Topology bwt, (3,3)-cn, num edge types: 1
# Building blocks:
#     Node 0, Type 0, BuildingBlock: WUSLED_clean_sbu_0, # of connection points: 3
#     Node 1, Type 0, BuildingBlock: WUSLED_clean_sbu_0, # of connection points: 3
#     Node 2, Type 0, BuildingBlock: WUSLED_clean_sbu_0, # of connection points: 3
#     Node 3, Type 0, BuildingBlock: WUSLED_clean_sbu_0, # of connection points: 3
#     Node 4, Type 0, BuildingBlock: WUSLED_clean_sbu_0, # of connection points: 3
#     Node 5, Type 0, BuildingBlock: WUSLED_clean_sbu_0, # of connection points: 3
#     Node 6, Type 0, BuildingBlock: WUSLED_clean_sbu_0, # of connection points: 3
#     Node 7, Type 0, BuildingBlock: WUSLED_clean_sbu_0, # of connection points: 3
#     Node 8, Type 0, BuildingBlock: WUSLED_clean_sbu_0, # of connection points: 3
#     Node 9, Type 0, BuildingBlock: WUSLED_clean_sbu_0, # of connection points: 3
#     Node 10, Type 0, BuildingBlock: WUSLED_clean_sbu_0, # of connection points: 3
#     Node 11, Type 0, BuildingBlock: WUSLED_clean_sbu_0, # of connection points: 3
#     Node 12, Type 0, BuildingBlock: WUSLED_clean_sbu_0, # of connection points: 3
#     Node 13, Type 0, BuildingBlock: WUSLED_clean_sbu_0, # of connection points: 3
#     Node 14, Type 0, BuildingBlock: WUSLED_clean_sbu_0, # of connection points: 3
#     Node 15, Type 0, BuildingBlock: WUSLED_clean_sbu_0, # of connection points: 3
#     Node 16, Type 0, BuildingBlock: WUSLED_clean_sbu_0, # of connection points: 3
#     Node 17, Type 0, BuildingBlock: WUSLED_clean_sbu_0, # of connection points: 3
#     Node 18, Type 0, BuildingBlock: WUSLED_clean_sbu_0, # of connection points: 3
#     Node 19, Type 0, BuildingBlock: WUSLED_clean_sbu_0, # of connection points: 3
#     Node 20, Type 0, BuildingBlock: WUSLED_clean_sbu_0, # of connection points: 3
#     Node 21, Type 0, BuildingBlock: WUSLED_clean_sbu_0, # of connection points: 3
#     Node 22, Type 0, BuildingBlock: WUSLED_clean_sbu_0, # of connection points: 3
#     Node 23, Type 0, BuildingBlock: WUSLED_clean_sbu_0, # of connection points: 3
#     Node 24, Type 1, BuildingBlock: PAMTOO_clean_linker_0, # of connection points: 3
#     Node 25, Type 1, BuildingBlock: PAMTOO_clean_linker_0, # of connection points: 3
#     Node 26, Type 1, BuildingBlock: PAMTOO_clean_linker_0, # of connection points: 3
#     Node 27, Type 1, BuildingBlock: PAMTOO_clean_linker_0, # of connection points: 3
#     Node 28, Type 1, BuildingBlock: PAMTOO_clean_linker_0, # of connection points: 3
#     Node 29, Type 1, BuildingBlock: PAMTOO_clean_linker_0, # of connection points: 3
#     Node 30, Type 1, BuildingBlock: PAMTOO_clean_linker_0, # of connection points: 3
#     Node 31, Type 1, BuildingBlock: PAMTOO_clean_linker_0, # of connection points: 3
#     Node 32, Type 1, BuildingBlock: PAMTOO_clean_linker_0, # of connection points: 3
#     Node 33, Type 1, BuildingBlock: PAMTOO_clean_linker_0, # of connection points: 3
#     Node 34, Type 1, BuildingBlock: PAMTOO_clean_linker_0, # of connection points: 3
#     Node 35, Type 1, BuildingBlock: PAMTOO_clean_linker_0, # of connection points: 3
#     Node 36, Type 1, BuildingBlock: PAMTOO_clean_linker_0, # of connection points: 3
#     Node 37, Type 1, BuildingBlock: PAMTOO_clean_linker_0, # of connection points: 3
#     Node 38, Type 1, BuildingBlock: PAMTOO_clean_linker_0, # of connection points: 3
#     Node 39, Type 1, BuildingBlock: PAMTOO_clean_linker_0, # of connection points: 3
#     Node 40, Type 1, BuildingBlock: PAMTOO_clean_linker_0, # of connection points: 3
#     Node 41, Type 1, BuildingBlock: PAMTOO_clean_linker_0, # of connection points: 3
#     Node 42, Type 1, BuildingBlock: PAMTOO_clean_linker_0, # of connection points: 3
#     Node 43, Type 1, BuildingBlock: PAMTOO_clean_linker_0, # of connection points: 3
#     Node 44, Type 1, BuildingBlock: PAMTOO_clean_linker_0, # of connection points: 3
#     Node 45, Type 1, BuildingBlock: PAMTOO_clean_linker_0, # of connection points: 3
#     Node 46, Type 1, BuildingBlock: PAMTOO_clean_linker_0, # of connection points: 3
#     Node 47, Type 1, BuildingBlock: PAMTOO_clean_linker_0, # of connection points: 3
#     Edge 48, Type (0, 1), BuildingBlock: UVAHIK_clean_linker_0, # of connection points: 2
#     Edge 49, Type (0, 1), BuildingBlock: UVAHIK_clean_linker_0, # of connection points: 2
#     Edge 50, Type (0, 1), BuildingBlock: UVAHIK_clean_linker_0, # of connection points: 2
#     Edge 51, Type (0, 1), BuildingBlock: UVAHIK_clean_linker_0, # of connection points: 2
#     Edge 52, Type (0, 1), BuildingBlock: UVAHIK_clean_linker_0, # of connection points: 2
#     Edge 53, Type (0, 1), BuildingBlock: UVAHIK_clean_linker_0, # of connection points: 2
#     Edge 54, Type (0, 1), BuildingBlock: UVAHIK_clean_linker_0, # of connection points: 2
#     Edge 55, Type (0, 1), BuildingBlock: UVAHIK_clean_linker_0, # of connection points: 2
#     Edge 56, Type (0, 1), BuildingBlock: UVAHIK_clean_linker_0, # of connection points: 2
#     Edge 57, Type (0, 1), BuildingBlock: UVAHIK_clean_linker_0, # of connection points: 2
#     Edge 58, Type (0, 1), BuildingBlock: UVAHIK_clean_linker_0, # of connection points: 2
#     Edge 59, Type (0, 1), BuildingBlock: UVAHIK_clean_linker_0, # of connection points: 2
#     Edge 60, Type (0, 1), BuildingBlock: UVAHIK_clean_linker_0, # of connection points: 2
#     Edge 61, Type (0, 1), BuildingBlock: UVAHIK_clean_linker_0, # of connection points: 2
#     Edge 62, Type (0, 1), BuildingBlock: UVAHIK_clean_linker_0, # of connection points: 2
#     Edge 63, Type (0, 1), BuildingBlock: UVAHIK_clean_linker_0, # of connection points: 2
#     Edge 64, Type (0, 1), BuildingBlock: UVAHIK_clean_linker_0, # of connection points: 2
#     Edge 65, Type (0, 1), BuildingBlock: UVAHIK_clean_linker_0, # of connection points: 2
#     Edge 66, Type (0, 1), BuildingBlock: UVAHIK_clean_linker_0, # of connection points: 2
#     Edge 67, Type (0, 1), BuildingBlock: UVAHIK_clean_linker_0, # of connection points: 2
#     Edge 68, Type (0, 1), BuildingBlock: UVAHIK_clean_linker_0, # of connection points: 2
#     Edge 69, Type (0, 1), BuildingBlock: UVAHIK_clean_linker_0, # of connection points: 2
#     Edge 70, Type (0, 1), BuildingBlock: UVAHIK_clean_linker_0, # of connection points: 2
#     Edge 71, Type (0, 1), BuildingBlock: UVAHIK_clean_linker_0, # of connection points: 2
#     Edge 72, Type (0, 1), BuildingBlock: UVAHIK_clean_linker_0, # of connection points: 2
#     Edge 73, Type (0, 1), BuildingBlock: UVAHIK_clean_linker_0, # of connection points: 2
#     Edge 74, Type (0, 1), BuildingBlock: UVAHIK_clean_linker_0, # of connection points: 2
#     Edge 75, Type (0, 1), BuildingBlock: UVAHIK_clean_linker_0, # of connection points: 2
#     Edge 76, Type (0, 1), BuildingBlock: UVAHIK_clean_linker_0, # of connection points: 2
#     Edge 77, Type (0, 1), BuildingBlock: UVAHIK_clean_linker_0, # of connection points: 2
#     Edge 78, Type (0, 1), BuildingBlock: UVAHIK_clean_linker_0, # of connection points: 2
#     Edge 79, Type (0, 1), BuildingBlock: UVAHIK_clean_linker_0, # of connection points: 2
#     Edge 80, Type (0, 1), BuildingBlock: UVAHIK_clean_linker_0, # of connection points: 2
#     Edge 81, Type (0, 1), BuildingBlock: UVAHIK_clean_linker_0, # of connection points: 2
#     Edge 82, Type (0, 1), BuildingBlock: UVAHIK_clean_linker_0, # of connection points: 2
#     Edge 83, Type (0, 1), BuildingBlock: UVAHIK_clean_linker_0, # of connection points: 2
#     Edge 84, Type (0, 1), BuildingBlock: UVAHIK_clean_linker_0, # of connection points: 2
#     Edge 85, Type (0, 1), BuildingBlock: UVAHIK_clean_linker_0, # of connection points: 2
#     Edge 86, Type (0, 1), BuildingBlock: UVAHIK_clean_linker_0, # of connection points: 2
#     Edge 87, Type (0, 1), BuildingBlock: UVAHIK_clean_linker_0, # of connection points: 2
#     Edge 88, Type (0, 1), BuildingBlock: UVAHIK_clean_linker_0, # of connection points: 2
#     Edge 89, Type (0, 1), BuildingBlock: UVAHIK_clean_linker_0, # of connection points: 2
#     Edge 90, Type (0, 1), BuildingBlock: UVAHIK_clean_linker_0, # of connection points: 2
#     Edge 91, Type (0, 1), BuildingBlock: UVAHIK_clean_linker_0, # of connection points: 2
#     Edge 92, Type (0, 1), BuildingBlock: UVAHIK_clean_linker_0, # of connection points: 2
#     Edge 93, Type (0, 1), BuildingBlock: UVAHIK_clean_linker_0, # of connection points: 2
#     Edge 94, Type (0, 1), BuildingBlock: UVAHIK_clean_linker_0, # of connection points: 2
#     Edge 95, Type (0, 1), BuildingBlock: UVAHIK_clean_linker_0, # of connection points: 2
#     Edge 96, Type (0, 1), BuildingBlock: UVAHIK_clean_linker_0, # of connection points: 2
#     Edge 97, Type (0, 1), BuildingBlock: UVAHIK_clean_linker_0, # of connection points: 2
#     Edge 98, Type (0, 1), BuildingBlock: UVAHIK_clean_linker_0, # of connection points: 2
#     Edge 99, Type (0, 1), BuildingBlock: UVAHIK_clean_linker_0, # of connection points: 2
#     Edge 100, Type (0, 1), BuildingBlock: UVAHIK_clean_linker_0, # of connection points: 2
#     Edge 101, Type (0, 1), BuildingBlock: UVAHIK_clean_linker_0, # of connection points: 2
#     Edge 102, Type (0, 1), BuildingBlock: UVAHIK_clean_linker_0, # of connection points: 2
#     Edge 103, Type (0, 1), BuildingBlock: UVAHIK_clean_linker_0, # of connection points: 2
#     Edge 104, Type (0, 1), BuildingBlock: UVAHIK_clean_linker_0, # of connection points: 2
#     Edge 105, Type (0, 1), BuildingBlock: UVAHIK_clean_linker_0, # of connection points: 2
#     Edge 106, Type (0, 1), BuildingBlock: UVAHIK_clean_linker_0, # of connection points: 2
#     Edge 107, Type (0, 1), BuildingBlock: UVAHIK_clean_linker_0, # of connection points: 2
#     Edge 108, Type (0, 1), BuildingBlock: UVAHIK_clean_linker_0, # of connection points: 2
#     Edge 109, Type (0, 1), BuildingBlock: UVAHIK_clean_linker_0, # of connection points: 2
#     Edge 110, Type (0, 1), BuildingBlock: UVAHIK_clean_linker_0, # of connection points: 2
#     Edge 111, Type (0, 1), BuildingBlock: UVAHIK_clean_linker_0, # of connection points: 2
#     Edge 112, Type (0, 1), BuildingBlock: UVAHIK_clean_linker_0, # of connection points: 2
#     Edge 113, Type (0, 1), BuildingBlock: UVAHIK_clean_linker_0, # of connection points: 2
#     Edge 114, Type (0, 1), BuildingBlock: UVAHIK_clean_linker_0, # of connection points: 2
#     Edge 115, Type (0, 1), BuildingBlock: UVAHIK_clean_linker_0, # of connection points: 2
#     Edge 116, Type (0, 1), BuildingBlock: UVAHIK_clean_linker_0, # of connection points: 2
#     Edge 117, Type (0, 1), BuildingBlock: UVAHIK_clean_linker_0, # of connection points: 2
#     Edge 118, Type (0, 1), BuildingBlock: UVAHIK_clean_linker_0, # of connection points: 2
#     Edge 119, Type (0, 1), BuildingBlock: UVAHIK_clean_linker_0, # of connection points: 2
# Relax obj value: 0.119
# Max RMSD: 0.169
# Mean RMSD: 0.083
data_MOF--net-bwt--node1-WUSLED_clean_sbu_0--node2-PAMTOO_clean_linker_0--edge1-UVAHIK_clean_linker_0
_symmetry_space_group_name_H-M    P1
_symmetry_Int_Tables_number       1
_symmetry_cell_setting            triclinic
loop_
_symmetry_equiv_pos_as_xyz
'x, y, z'
_cell_length_a     84.555444
_cell_length_b     84.556769
_cell_length_c     84.548871
_cell_angle_alpha  95.201293
_cell_angle_beta   95.19856
_cell_angle_gamma 95.207186
loop_
_atom_site_label
_atom_site_type_symbol
_atom_site_fract_x
_atom_site_fract_y
_atom_site_fract_z
_atom_type_partial_charge
C0 C 0.30387 0.63209 0.34502 0.0
C1 C 0.31508 0.62409 0.35363 0.0
C2 C 0.3349 0.63088 0.33553 0.0
C3 C 0.33045 0.62349 0.34893 0.0
C4 C 0.32361 0.63896 0.32697 0.0
C5 C 0.3082 0.63953 0.33168 0.0
U6 U 0.27471 0.62167 0.37438 0.0
O7 O 0.2567 0.63514 0.38528 0.0
O8 O 0.24945 0.61211 0.37119 0.0
C9 C 0.24475 0.62494 0.37863 0.0
C10 C 0.28772 0.6326 0.35002 0.0
C11 C 0.23089 0.63166 0.37061 0.0
C12 C 0.2057 0.62755 0.35368 0.0
C13 C 0.2194 0.62164 0.36038 0.0
C14 C 0.21459 0.65371 0.36727 0.0
C15 C 0.20306 0.64363 0.35712 0.0
C16 C 0.22834 0.64779 0.37396 0.0
C17 C 0.29007 0.59916 0.40901 0.0
C18 C 0.27296 0.58736 0.42728 0.0
C19 C 0.30171 0.5884 0.43252 0.0
C20 C 0.3035 0.59588 0.41864 0.0
C21 C 0.28642 0.58402 0.43702 0.0
C22 C 0.27477 0.5949 0.4134 0.0
C23 C 0.29229 0.607 0.39446 0.0
O24 O 0.2793 0.61864 0.34915 0.0
O25 O 0.28689 0.64144 0.36348 0.0
O26 O 0.29171 0.62254 0.39583 0.0
O27 O 0.28442 0.59978 0.38128 0.0
H28 H 0.31195 0.61834 0.36402 0.0
H29 H 0.33891 0.6174 0.35593 0.0
H30 H 0.32662 0.64466 0.31653 0.0
H31 H 0.29966 0.64574 0.32491 0.0
H32 H 0.19693 0.61938 0.34617 0.0
H33 H 0.22082 0.60909 0.35779 0.0
H34 H 0.21296 0.66617 0.37009 0.0
H35 H 0.23683 0.65581 0.38195 0.0
H36 H 0.26101 0.58402 0.4303 0.0
H37 H 0.31233 0.58629 0.43987 0.0
H38 H 0.3154 0.59916 0.41544 0.0
H39 H 0.26426 0.59737 0.40608 0.0
C40 C 0.19412 0.33892 0.75374 0.0
C41 C 0.18521 0.32643 0.75989 0.0
C42 C 0.16064 0.33357 0.74622 0.0
C43 C 0.16866 0.32383 0.75622 0.0
C44 C 0.16963 0.34572 0.73966 0.0
C45 C 0.18616 0.34832 0.74333 0.0
U46 U 0.22845 0.36192 0.78085 0.0
O47 O 0.25091 0.35443 0.79175 0.0
O48 O 0.25146 0.37361 0.77586 0.0
C49 C 0.25976 0.36416 0.78409 0.0
C50 C 0.21152 0.34236 0.75849 0.0
C51 C 0.27265 0.35723 0.77611 0.0
C52 C 0.28361 0.34665 0.75219 0.0
C53 C 0.27067 0.35176 0.7598 0.0
C54 C 0.3004 0.35178 0.77725 0.0
C55 C 0.29869 0.34684 0.76079 0.0
C56 C 0.2875 0.35694 0.78482 0.0
C57 C 0.21812 0.39235 0.81347 0.0
C58 C 0.23813 0.41142 0.82896 0.0
C59 C 0.21095 0.40903 0.83609 0.0
C60 C 0.2067 0.39716 0.82342 0.0
C61 C 0.2267 0.41631 0.83899 0.0
C62 C 0.23388 0.39949 0.81633 0.0
C63 C 0.21339 0.37998 0.80013 0.0
O64 O 0.21795 0.35656 0.75598 0.0
O65 O 0.21673 0.33795 0.7724 0.0
O66 O 0.21655 0.36547 0.80283 0.0
O67 O 0.21699 0.38384 0.78609 0.0
H68 H 0.19099 0.31879 0.76774 0.0
H69 H 0.16213 0.31419 0.76125 0.0
H70 H 0.16383 0.35353 0.73201 0.0
H71 H 0.19263 0.35794 0.73821 0.0
H72 H 0.28187 0.34277 0.73954 0.0
H73 H 0.25924 0.3518 0.75289 0.0
H74 H 0.31188 0.35228 0.78419 0.0
H75 H 0.28925 0.36115 0.79741 0.0
H76 H 0.2504 0.41665 0.83102 0.0
H77 H 0.20185 0.41264 0.8435 0.0
H78 H 0.19447 0.39178 0.82134 0.0
H79 H 0.24287 0.39584 0.80879 0.0
C80 C 0.71973 0.98193 0.63596 0.0
C81 C 0.73192 0.98506 0.62615 0.0
C82 C 0.75184 0.97993 0.64722 0.0
C83 C 0.74783 0.98408 0.63172 0.0
C84 C 0.73958 0.97713 0.65713 0.0
C85 C 0.72363 0.97808 0.65151 0.0
U86 U 0.68995 0.98712 0.60148 0.0
O87 O 0.66736 0.973 0.59196 0.0
O88 O 0.66764 0.99856 0.59973 0.0
C89 C 0.6589 0.98511 0.59452 0.0
C90 C 0.70297 0.98206 0.62967 0.0
C91 C 0.6441 0.98174 0.60206 0.0
C92 C 0.62803 0.98501 0.62432 0.0
C93 C 0.6427 0.98729 0.61797 0.0
C94 C 0.61622 0.97109 0.59912 0.0
C95 C 0.61455 0.9771 0.61488 0.0
C96 C 0.63084 0.97343 0.59278 0.0
C97 C 0.70506 0.99691 0.56242 0.0
C98 C 0.68653 0.00243 0.54041 0.0
C99 C 0.71361 0.99747 0.53584 0.0
C100 C 0.71694 0.99556 0.55202 0.0
C101 C 0.69832 0.00078 0.52981 0.0
C102 C 0.68986 0.00045 0.55656 0.0
C103 C 0.70834 0.99384 0.57915 0.0
O104 O 0.69877 0.99606 0.62627 0.0
O105 O 0.69781 0.97051 0.61842 0.0
O106 O 0.70404 0.97918 0.58215 0.0
O107 O 0.70434 0.00472 0.58976 0.0
H108 H 0.7291 0.98808 0.61409 0.0
H109 H 0.75699 0.98654 0.62387 0.0
H110 H 0.74227 0.97377 0.66907 0.0
H111 H 0.71434 0.97557 0.65921 0.0
H112 H 0.62714 0.98993 0.63645 0.0
H113 H 0.65281 0.9937 0.62538 0.0
H114 H 0.60618 0.96471 0.59161 0.0
H115 H 0.63172 0.969 0.58049 0.0
H116 H 0.6747 0.00516 0.53622 0.0
H117 H 0.72289 0.99586 0.52799 0.0
H118 H 0.7287 0.99271 0.55634 0.0
H119 H 0.6805 0.00147 0.56445 0.0
C120 C 0.77192 0.01486 0.27133 0.0
C121 C 0.76191 0.02609 0.26594 0.0
C122 C 0.74065 0.01533 0.28072 0.0
C123 C 0.74647 0.02631 0.27057 0.0
C124 C 0.75093 0.00458 0.28665 0.0
C125 C 0.7664 0.00442 0.28209 0.0
U126 U 0.7945 0.99979 0.23758 0.0
O127 O 0.81474 0.01039 0.22626 0.0
O128 O 0.81644 0.98769 0.23678 0.0
C129 C 0.8238 0.99911 0.22981 0.0
C130 C 0.7875 0.01315 0.26488 0.0
C131 C 0.84028 0.00447 0.23633 0.0
C132 C 0.85981 0.02151 0.25469 0.0
C133 C 0.84388 0.01616 0.24937 0.0
C134 C 0.86855 0.00332 0.23418 0.0
C135 C 0.87232 0.01528 0.247 0.0
C136 C 0.8527 0.998 0.22891 0.0
C137 C 0.76968 0.97857 0.20074 0.0
C138 C 0.78214 0.96709 0.1782 0.0
C139 C 0.75359 0.96894 0.17596 0.0
C140 C 0.75481 0.97586 0.19172 0.0
C141 C 0.76726 0.96458 0.16896 0.0
C142 C 0.78334 0.97407 0.19396 0.0
C143 C 0.77087 0.98668 0.21694 0.0
O144 O 0.79157 0.99849 0.26305 0.0
O145 O 0.79041 0.02128 0.25273 0.0
O146 O 0.77592 0.00194 0.21817 0.0
O147 O 0.77759 0.97905 0.22822 0.0
H148 H 0.76577 0.03442 0.25772 0.0
H149 H 0.73889 0.03467 0.26563 0.0
H150 H 0.74698 0.9961 0.29467 0.0
H151 H 0.77388 0.99576 0.28662 0.0
H152 H 0.86234 0.03077 0.26456 0.0
H153 H 0.83439 0.02126 0.25525 0.0
H154 H 0.87788 0.99802 0.22821 0.0
H155 H 0.85012 0.98892 0.21888 0.0
H156 H 0.79286 0.96374 0.17324 0.0
H157 H 0.742 0.96744 0.16913 0.0
H158 H 0.74418 0.97937 0.19677 0.0
H159 H 0.79494 0.97613 0.20079 0.0
C160 C 0.35023 0.3057 0.64982 0.0
C161 C 0.36122 0.31926 0.65398 0.0
C162 C 0.34002 0.33661 0.65025 0.0
C163 C 0.35615 0.33454 0.65428 0.0
C164 C 0.329 0.32302 0.64633 0.0
C165 C 0.33406 0.3077 0.64617 0.0
U166 U 0.38054 0.27889 0.63605 0.0
O167 O 0.39215 0.25982 0.64723 0.0
O168 O 0.37824 0.25462 0.62379 0.0
C169 C 0.38612 0.24883 0.63574 0.0
C170 C 0.35568 0.28959 0.6482 0.0
C171 C 0.37872 0.23398 0.64089 0.0
C172 C 0.35552 0.21719 0.64677 0.0
C173 C 0.36233 0.23176 0.64259 0.0
C174 C 0.38149 0.20713 0.64802 0.0
C175 C 0.365 0.20462 0.64936 0.0
C176 C 0.38826 0.22165 0.6438 0.0
C177 C 0.41505 0.29899 0.61627 0.0
C178 C 0.43504 0.28456 0.60392 0.0
C179 C 0.43791 0.31349 0.60693 0.0
C180 C 0.42365 0.31344 0.61408 0.0
C181 C 0.44382 0.29906 0.60183 0.0
C182 C 0.42078 0.28453 0.61114 0.0
C183 C 0.4002 0.29932 0.624 0.0
O184 O 0.3551 0.28296 0.63345 0.0
O185 O 0.36897 0.28775 0.6569 0.0
O186 O 0.40138 0.29687 0.63917 0.0
O187 O 0.38744 0.2916 0.61579 0.0
H188 H 0.37381 0.31809 0.65664 0.0
H189 H 0.36497 0.34475 0.65713 0.0
H190 H 0.31647 0.32424 0.64328 0.0
H191 H 0.32541 0.29741 0.64286 0.0
H192 H 0.34277 0.21563 0.64757 0.0
H193 H 0.35478 0.24119 0.64044 0.0
H194 H 0.3892 0.19784 0.65021 0.0
H195 H 0.40095 0.22319 0.64265 0.0
H196 H 0.43937 0.27325 0.60028 0.0
H197 H 0.44427 0.32484 0.60532 0.0
H198 H 0.41935 0.32471 0.61793 0.0
H199 H 0.41428 0.27325 0.6128 0.0
C200 C 0.27348 0.77374 0.00729 0.0
C201 C 0.26671 0.76373 0.01783 0.0
C202 C 0.28152 0.74207 0.00815 0.0
C203 C 0.27073 0.74812 0.01828 0.0
C204 C 0.2886 0.75222 0.9979 0.0
C205 C 0.28469 0.76792 0.99755 0.0
U206 U 0.23949 0.79759 0.99641 0.0
O207 O 0.23171 0.81983 0.00717 0.0
O208 O 0.23736 0.81803 0.98223 0.0
C209 C 0.23376 0.82733 0.99443 0.0
C210 C 0.26787 0.78959 0.00529 0.0
C211 C 0.24256 0.84336 0.99708 0.0
C212 C 0.26002 0.86412 0.01363 0.0
C213 C 0.25262 0.84848 0.01113 0.0
C214 C 0.24778 0.86955 0.98791 0.0
C215 C 0.25762 0.87483 0.00206 0.0
C216 C 0.24031 0.854 0.98549 0.0
C217 C 0.1992 0.77299 0.98434 0.0
C218 C 0.17552 0.78361 0.97278 0.0
C219 C 0.17345 0.75748 0.98254 0.0
C220 C 0.18987 0.7591 0.98688 0.0
C221 C 0.16607 0.76975 0.97554 0.0
C222 C 0.19198 0.78526 0.97723 0.0
C223 C 0.21636 0.77447 0.98944 0.0
O224 O 0.26335 0.79206 0.99049 0.0
O225 O 0.25811 0.79459 0.01549 0.0
O226 O 0.22055 0.78122 0.00401 0.0
O227 O 0.22581 0.77942 0.97899 0.0
H228 H 0.25792 0.76776 0.02542 0.0
H229 H 0.26486 0.74059 0.02615 0.0
H230 H 0.29705 0.748 0.99002 0.0
H231 H 0.29007 0.77537 0.98932 0.0
H232 H 0.26764 0.86782 0.02458 0.0
H233 H 0.25462 0.84048 0.02026 0.0
H234 H 0.24549 0.87758 0.97887 0.0
H235 H 0.23254 0.85033 0.97461 0.0
H236 H 0.17012 0.7933 0.96752 0.0
H237 H 0.16651 0.74659 0.98463 0.0
H238 H 0.19528 0.74952 0.99233 0.0
H239 H 0.19904 0.79612 0.97526 0.0
C240 C 0.76418 0.1934 0.33882 0.0
C241 C 0.77434 0.18267 0.34485 0.0
C242 C 0.75663 0.16023 0.33135 0.0
C243 C 0.77063 0.16624 0.34112 0.0
C244 C 0.74661 0.17107 0.32511 0.0
C245 C 0.75037 0.18753 0.32883 0.0
U246 U 0.78732 0.22618 0.36679 0.0
O247 O 0.79808 0.25012 0.36331 0.0
O248 O 0.77986 0.24735 0.38012 0.0
C249 C 0.78902 0.25729 0.37299 0.0
C250 C 0.76748 0.21056 0.34383 0.0
C251 C 0.78175 0.27137 0.36771 0.0
C252 C 0.77154 0.29661 0.37519 0.0
C253 C 0.77715 0.28241 0.37936 0.0
C254 C 0.77462 0.28888 0.34743 0.0
C255 C 0.77049 0.30019 0.35923 0.0
C256 C 0.78024 0.27458 0.35163 0.0
C257 C 0.81747 0.21491 0.39869 0.0
C258 C 0.82895 0.23426 0.42063 0.0
C259 C 0.84007 0.20898 0.4162 0.0
C260 C 0.8287 0.20452 0.40311 0.0
C261 C 0.8403 0.2239 0.42511 0.0
C262 C 0.81768 0.22983 0.40749 0.0
C263 C 0.80568 0.21022 0.38482 0.0
O264 O 0.76327 0.21494 0.35804 0.0
O265 O 0.78177 0.21694 0.34152 0.0
O266 O 0.8097 0.21513 0.3713 0.0
O267 O 0.79084 0.21224 0.38729 0.0
H268 H 0.78497 0.18699 0.35274 0.0
H269 H 0.77847 0.15824 0.34633 0.0
H270 H 0.73582 0.16682 0.31745 0.0
H271 H 0.74237 0.19567 0.32414 0.0
H272 H 0.76814 0.30489 0.38453 0.0
H273 H 0.7782 0.28017 0.39182 0.0
H274 H 0.77398 0.2913 0.33504 0.0
H275 H 0.7837 0.26624 0.34239 0.0
H276 H 0.82899 0.24593 0.4271 0.0
H277 H 0.8486 0.20072 0.41943 0.0
H278 H 0.82871 0.19296 0.39642 0.0
H279 H 0.80916 0.23807 0.40415 0.0
C280 C 0.63155 0.712 0.97681 0.0
C281 C 0.62041 0.72296 0.9737 0.0
C282 C 0.64184 0.7444 0.97494 0.0
C283 C 0.62551 0.73896 0.97267 0.0
C284 C 0.65298 0.73344 0.97828 0.0
C285 C 0.64785 0.71734 0.97915 0.0
U286 U 0.59874 0.68186 0.98508 0.0
O287 O 0.58893 0.65868 0.97235 0.0
O288 O 0.59832 0.6602 0.99761 0.0
C289 C 0.59239 0.65086 0.98475 0.0
C290 C 0.62604 0.69516 0.97799 0.0
C291 C 0.59989 0.63603 0.98151 0.0
C292 C 0.62286 0.62072 0.98271 0.0
C293 C 0.61635 0.63532 0.98489 0.0
C294 C 0.59662 0.60757 0.97324 0.0
C295 C 0.61302 0.60663 0.97707 0.0
C296 C 0.59013 0.62212 0.97547 0.0
C297 C 0.56012 0.69706 0.99636 0.0
C298 C 0.53859 0.67874 0.00324 0.0
C299 C 0.5338 0.70581 0.99842 0.0
C300 C 0.54974 0.709 0.99558 0.0
C301 C 0.52798 0.69058 0.00212 0.0
C302 C 0.55451 0.68194 0.00033 0.0
C303 C 0.57652 0.70021 0.99228 0.0
O304 O 0.62367 0.69157 0.99245 0.0
O305 O 0.61447 0.68898 0.96714 0.0
O306 O 0.57874 0.69526 0.97753 0.0
O307 O 0.58773 0.69676 0.00285 0.0
H308 H 0.60774 0.71914 0.97209 0.0
H309 H 0.61664 0.74716 0.97035 0.0
H310 H 0.66564 0.7373 0.98003 0.0
H311 H 0.6566 0.70907 0.98167 0.0
H312 H 0.63551 0.62041 0.98592 0.0
H313 H 0.6241 0.64595 0.98953 0.0
H314 H 0.58874 0.59702 0.96862 0.0
H315 H 0.57741 0.62247 0.97272 0.0
H316 H 0.53455 0.66695 0.00623 0.0
H317 H 0.52591 0.71512 0.99719 0.0
H318 H 0.55387 0.7207 0.99242 0.0
H319 H 0.5624 0.67255 0.00094 0.0
C320 C 0.62876 0.34246 0.31261 0.0
C321 C 0.61675 0.34596 0.32243 0.0
C322 C 0.62866 0.33106 0.34296 0.0
C323 C 0.61665 0.34024 0.33741 0.0
C324 C 0.64067 0.32756 0.33309 0.0
C325 C 0.64069 0.33319 0.31801 0.0
U326 U 0.61875 0.37507 0.28713 0.0
O327 O 0.63243 0.38811 0.27066 0.0
O328 O 0.60932 0.37475 0.26197 0.0
C329 C 0.62204 0.3832 0.25827 0.0
C330 C 0.62932 0.34919 0.29719 0.0
C331 C 0.62868 0.3772 0.24368 0.0
C332 C 0.64498 0.35961 0.22945 0.0
C333 C 0.63877 0.36491 0.24359 0.0
C334 C 0.63093 0.37875 0.21546 0.0
C335 C 0.64118 0.36653 0.21522 0.0
C336 C 0.62478 0.38403 0.22955 0.0
C337 C 0.59733 0.40864 0.30625 0.0
C338 C 0.58622 0.42898 0.29133 0.0
C339 C 0.58909 0.43237 0.32025 0.0
C340 C 0.59545 0.4177 0.32053 0.0
C341 C 0.58447 0.43821 0.30565 0.0
C342 C 0.59268 0.41433 0.29162 0.0
C343 C 0.60455 0.39352 0.30685 0.0
O344 O 0.61543 0.34921 0.28881 0.0
O345 O 0.63838 0.36274 0.29768 0.0
O346 O 0.62009 0.39461 0.3064 0.0
O347 O 0.59701 0.38124 0.29769 0.0
H348 H 0.60756 0.35332 0.31861 0.0
H349 H 0.60739 0.34337 0.34484 0.0
H350 H 0.65004 0.32045 0.33701 0.0
H351 H 0.65012 0.33047 0.31064 0.0
H352 H 0.65291 0.35024 0.2297 0.0
H353 H 0.64188 0.35949 0.25443 0.0
H354 H 0.62747 0.38413 0.20468 0.0
H355 H 0.61692 0.39346 0.2294 0.0
H356 H 0.58295 0.43325 0.2799 0.0
H357 H 0.58774 0.43913 0.33148 0.0
H358 H 0.599 0.41348 0.33192 0.0
H359 H 0.59418 0.40753 0.28046 0.0
C360 C 0.01646 0.27526 0.77008 0.0
C361 C 0.02652 0.26932 0.75906 0.0
C362 C 0.01539 0.2852 0.73897 0.0
C363 C 0.02599 0.27424 0.7437 0.0
C364 C 0.00583 0.29165 0.75021 0.0
C365 C 0.00643 0.2868 0.76562 0.0
U366 U 0.00276 0.24069 0.7921 0.0
O367 O 0.01383 0.22926 0.81207 0.0
O368 O 0.99082 0.23907 0.81405 0.0
C369 C 0.0028 0.23287 0.82143 0.0
C370 C 0.01528 0.26851 0.78557 0.0
C371 C 0.00834 0.24024 0.83778 0.0
C372 C 0.02953 0.24988 0.85883 0.0
C373 C 0.02466 0.24373 0.84303 0.0
C374 C 0.00189 0.24938 0.86433 0.0
C375 C 0.01819 0.25273 0.86966 0.0
C376 C 0.99704 0.24315 0.8486 0.0
C377 C 0.98169 0.20464 0.76455 0.0
C378 C 0.97529 0.17798 0.7722 0.0
C379 C 0.96683 0.18427 0.74552 0.0
C380 C 0.97375 0.19991 0.74938 0.0
C381 C 0.96775 0.17304 0.75678 0.0
C382 C 0.98224 0.19369 0.77606 0.0
C383 C 0.98981 0.22084 0.76775 0.0
O384 O 0.00074 0.26618 0.78983 0.0
O385 O 0.0238 0.25655 0.78811 0.0
O386 O 0.00502 0.22187 0.77301 0.0
O387 O 0.98194 0.23144 0.7752 0.0
H388 H 0.03445 0.26044 0.76206 0.0
H389 H 0.03344 0.26893 0.73534 0.0
H390 H 0.99766 0.30026 0.74705 0.0
H391 H 0.99863 0.2917 0.77388 0.0
H392 H 0.04217 0.25244 0.86257 0.0
H393 H 0.0337 0.24159 0.83502 0.0
H394 H 0.99287 0.2512 0.87244 0.0
H395 H 0.9844 0.24038 0.84494 0.0
H396 H 0.97629 0.16959 0.7811 0.0
H397 H 0.96088 0.18091 0.73364 0.0
H398 H 0.97316 0.20826 0.74039 0.0
H399 H 0.98833 0.1972 0.78786 0.0
C400 C 0.3328 0.7669 0.19309 0.0
C401 C 0.34007 0.77672 0.18275 0.0
C402 C 0.32719 0.7594 0.15975 0.0
C403 C 0.33727 0.77303 0.16625 0.0
C404 C 0.31988 0.74961 0.17018 0.0
C405 C 0.32266 0.75336 0.18674 0.0
U406 U 0.35807 0.79067 0.2275 0.0
O407 O 0.35202 0.80206 0.2504 0.0
O408 O 0.36917 0.78402 0.25007 0.0
C409 C 0.36097 0.79329 0.25881 0.0
C410 C 0.33631 0.77055 0.21044 0.0
C411 C 0.3539 0.78615 0.27211 0.0
C412 C 0.34401 0.76294 0.28462 0.0
C413 C 0.3483 0.7699 0.27101 0.0
C414 C 0.34994 0.78859 0.30027 0.0
C415 C 0.34522 0.77213 0.2995 0.0
C416 C 0.35426 0.79551 0.2867 0.0
C417 C 0.3919 0.82003 0.21853 0.0
C418 C 0.40699 0.83819 0.23958 0.0
C419 C 0.41739 0.83361 0.21396 0.0
C420 C 0.40386 0.82311 0.20847 0.0
C421 C 0.41917 0.84122 0.22962 0.0
C422 C 0.39353 0.82763 0.23412 0.0
C423 C 0.37819 0.80829 0.21294 0.0
O424 O 0.3501 0.76641 0.21629 0.0
O425 O 0.33357 0.78496 0.21603 0.0
O426 O 0.36414 0.81252 0.21614 0.0
O427 O 0.38024 0.79358 0.21586 0.0
H428 H 0.34808 0.78716 0.18747 0.0
H429 H 0.3433 0.78067 0.15858 0.0
H430 H 0.31198 0.73909 0.16554 0.0
H431 H 0.317 0.74563 0.19457 0.0
H432 H 0.34025 0.75027 0.2836 0.0
H433 H 0.34784 0.76248 0.25981 0.0
H434 H 0.35122 0.79599 0.31155 0.0
H435 H 0.35859 0.80806 0.28779 0.0
H436 H 0.40782 0.84402 0.25162 0.0
H437 H 0.42661 0.83549 0.20604 0.0
H438 H 0.40285 0.81721 0.19645 0.0
H439 H 0.38445 0.82531 0.2421 0.0
C440 C 0.97461 0.63191 0.71846 0.0
C441 C 0.97737 0.62141 0.73012 0.0
C442 C 0.97409 0.64225 0.75104 0.0
C443 C 0.97707 0.62652 0.74625 0.0
C444 C 0.97169 0.65284 0.73932 0.0
C445 C 0.97189 0.64768 0.72314 0.0
U446 U 0.981 0.59934 0.68699 0.0
O447 O 0.96596 0.58918 0.66517 0.0
O448 O 0.99047 0.5996 0.66366 0.0
C449 C 0.97694 0.5932 0.65582 0.0
C450 C 0.97408 0.62621 0.70147 0.0
C451 C 0.9715 0.60093 0.64174 0.0
C452 C 0.96513 0.62447 0.62896 0.0
C453 C 0.96923 0.61721 0.6428 0.0
C454 C 0.96508 0.59913 0.61305 0.0
C455 C 0.96322 0.61554 0.6139 0.0
C456 C 0.96918 0.59191 0.62686 0.0
C457 C 0.99637 0.56136 0.69948 0.0
C458 C 0.9937 0.53732 0.68104 0.0
C459 C 0.0106 0.53875 0.70596 0.0
C460 C 0.00682 0.5543 0.70988 0.0
C461 C 0.0039 0.52997 0.69159 0.0
C462 C 0.99006 0.55288 0.68491 0.0
C463 C 0.99198 0.57747 0.70386 0.0
O464 O 0.98802 0.62446 0.69615 0.0
O465 O 0.96337 0.61406 0.69671 0.0
O466 O 0.9767 0.57919 0.7012 0.0
O467 O 0.00124 0.58915 0.69923 0.0
H468 H 0.97956 0.6092 0.7267 0.0
H469 H 0.9792 0.61816 0.755 0.0
H470 H 0.96926 0.66499 0.74264 0.0
H471 H 0.96973 0.65592 0.71427 0.0
H472 H 0.96364 0.63709 0.63003 0.0
H473 H 0.97093 0.62432 0.65425 0.0
H474 H 0.96397 0.59194 0.60166 0.0
H475 H 0.97092 0.57934 0.62585 0.0
H476 H 0.9881 0.5309 0.67 0.0
H477 H 0.01868 0.53357 0.71425 0.0
H478 H 0.01193 0.56076 0.72111 0.0
H479 H 0.98206 0.5582 0.67665 0.0
C480 C 0.68948 0.36761 0.65582 0.0
C481 C 0.67782 0.37634 0.64887 0.0
C482 C 0.65942 0.36804 0.66778 0.0
C483 C 0.66295 0.37658 0.65481 0.0
C484 C 0.67112 0.35919 0.67464 0.0
C485 C 0.68606 0.35901 0.66871 0.0
U486 U 0.71504 0.37832 0.62363 0.0
O487 O 0.74003 0.38845 0.62428 0.0
O488 O 0.73204 0.36524 0.61074 0.0
C489 C 0.74414 0.3759 0.61586 0.0
C490 C 0.70504 0.36739 0.64939 0.0
C491 C 0.75893 0.36966 0.62197 0.0
C492 C 0.77325 0.3521 0.63806 0.0
C493 C 0.75894 0.35806 0.63284 0.0
C494 C 0.78758 0.36948 0.62176 0.0
C495 C 0.78773 0.35766 0.63247 0.0
C496 C 0.77333 0.37537 0.61656 0.0
C497 C 0.69553 0.39944 0.59004 0.0
C498 C 0.71027 0.41003 0.56932 0.0
C499 C 0.68139 0.40867 0.56691 0.0
C500 C 0.68122 0.40216 0.58151 0.0
C501 C 0.69591 0.41259 0.5606 0.0
C502 C 0.71008 0.40344 0.58391 0.0
C503 C 0.69502 0.3921 0.60509 0.0
O504 O 0.7049 0.35841 0.63584 0.0
O505 O 0.71301 0.3815 0.64945 0.0
O506 O 0.70396 0.39977 0.61743 0.0
O507 O 0.6959 0.37661 0.60393 0.0
H508 H 0.68022 0.38295 0.6388 0.0
H509 H 0.65414 0.38329 0.64908 0.0
H510 H 0.66881 0.35258 0.68472 0.0
H511 H 0.69492 0.35218 0.67418 0.0
H512 H 0.77293 0.34296 0.64623 0.0
H513 H 0.74791 0.35354 0.63718 0.0
H514 H 0.79852 0.37429 0.61748 0.0
H515 H 0.77354 0.3844 0.60825 0.0
H516 H 0.72163 0.41275 0.56468 0.0
H517 H 0.67014 0.41066 0.56057 0.0
H518 H 0.66989 0.39915 0.5861 0.0
H519 H 0.72125 0.40131 0.59032 0.0
C520 C 0.79791 0.66598 0.23489 0.0
C521 C 0.80895 0.66264 0.22392 0.0
C522 C 0.83096 0.6723 0.24408 0.0
C523 C 0.82531 0.66586 0.22844 0.0
C524 C 0.8198 0.67596 0.25492 0.0
C525 C 0.80341 0.67282 0.25034 0.0
U526 U 0.76543 0.63926 0.20949 0.0
O527 O 0.74379 0.62583 0.21573 0.0
O528 O 0.74181 0.64367 0.19851 0.0
C529 C 0.7342 0.63391 0.20719 0.0
C530 C 0.78079 0.66117 0.23067 0.0
C531 C 0.72064 0.6398 0.21514 0.0
C532 C 0.70023 0.63564 0.23327 0.0
C533 C 0.71375 0.63099 0.22653 0.0
C534 C 0.70007 0.65808 0.21742 0.0
C535 C 0.69313 0.64916 0.22872 0.0
C536 C 0.71368 0.65345 0.21069 0.0
C537 C 0.77766 0.60828 0.17873 0.0
C538 C 0.75815 0.58807 0.16419 0.0
C539 C 0.78582 0.58925 0.15857 0.0
C540 C 0.78957 0.60229 0.17011 0.0
C541 C 0.77007 0.58196 0.15551 0.0
C542 C 0.76191 0.60114 0.17569 0.0
C543 C 0.78181 0.62173 0.19108 0.0
O544 O 0.775 0.66424 0.21642 0.0
O545 O 0.77602 0.64675 0.23405 0.0
O546 O 0.77907 0.6186 0.20558 0.0
O547 O 0.77711 0.63546 0.18741 0.0
H548 H 0.80493 0.65724 0.21195 0.0
H549 H 0.83353 0.66311 0.21972 0.0
H550 H 0.82372 0.68073 0.2671 0.0
H551 H 0.79505 0.67531 0.25901 0.0
H552 H 0.69501 0.6283 0.24168 0.0
H553 H 0.71861 0.62026 0.23 0.0
H554 H 0.69493 0.66859 0.21371 0.0
H555 H 0.71856 0.66042 0.20181 0.0
H556 H 0.74587 0.58288 0.16195 0.0
H557 H 0.79528 0.58473 0.1522 0.0
H558 H 0.8018 0.60765 0.17238 0.0
H559 H 0.75256 0.60566 0.18225 0.0
C560 C 0.28531 0.02763 0.35442 0.0
C561 C 0.27408 0.03473 0.36327 0.0
C562 C 0.2543 0.0303 0.34018 0.0
C563 C 0.25878 0.03614 0.3562 0.0
C564 C 0.26556 0.02324 0.33129 0.0
C565 C 0.28098 0.02197 0.33836 0.0
U566 U 0.30872 0.01799 0.3913 0.0
O567 O 0.32838 0.00308 0.39565 0.0
O568 O 0.33143 0.02855 0.40434 0.0
C569 C 0.33818 0.01519 0.40258 0.0
C570 C 0.30102 0.02509 0.36231 0.0
C571 C 0.35419 0.01662 0.39714 0.0
C572 C 0.37229 0.02336 0.3775 0.0
C573 C 0.35685 0.02205 0.38232 0.0
C574 C 0.38245 0.01386 0.40227 0.0
C575 C 0.38527 0.01928 0.38744 0.0
C576 C 0.36705 0.01256 0.40706 0.0
C577 C 0.28486 0.01023 0.42632 0.0
C578 C 0.29787 0.00517 0.45188 0.0
C579 C 0.26927 0.00669 0.44866 0.0
C580 C 0.27014 0.00944 0.4327 0.0
C581 C 0.28315 0.00469 0.45847 0.0
C582 C 0.29871 0.00794 0.43592 0.0
C583 C 0.2857 0.01387 0.40979 0.0
O584 O 0.30676 0.03588 0.37412 0.0
O585 O 0.30251 0.01039 0.36568 0.0
O586 O 0.28989 0.00235 0.40002 0.0
O587 O 0.293 0.02793 0.40813 0.0
H588 H 0.27699 0.03891 0.37578 0.0
H589 H 0.25029 0.04136 0.36344 0.0
H590 H 0.26243 0.01866 0.31891 0.0
H591 H 0.28943 0.01631 0.33138 0.0
H592 H 0.37408 0.0277 0.36606 0.0
H593 H 0.34702 0.02527 0.37454 0.0
H594 H 0.39209 0.01033 0.41009 0.0
H595 H 0.36517 0.00831 0.41853 0.0
H596 H 0.30879 0.00387 0.45918 0.0
H597 H 0.25775 0.00619 0.45333 0.0
H598 H 0.25934 0.01114 0.42539 0.0
H599 H 0.31019 0.00856 0.43114 0.0
C600 C 0.23343 0.01866 0.72423 0.0
C601 C 0.24294 0.03331 0.72781 0.0
C602 C 0.26555 0.02161 0.71731 0.0
C603 C 0.2588 0.03479 0.72428 0.0
C604 C 0.2559 0.00711 0.71328 0.0
C605 C 0.23997 0.00567 0.71666 0.0
U606 U 0.20831 0.0228 0.75834 0.0
O607 O 0.1843 0.03004 0.76089 0.0
O608 O 0.19 0.0063 0.76685 0.0
C609 C 0.17892 0.01613 0.76517 0.0
C610 C 0.21745 0.0163 0.72994 0.0
C611 C 0.16339 0.00908 0.75721 0.0
C612 C 0.14439 0.0029 0.73362 0.0
C613 C 0.15967 0.00881 0.74066 0.0
C614 C 0.13662 0.9971 0.75954 0.0
C615 C 0.13263 0.99712 0.74303 0.0
C616 C 0.15184 0.00303 0.76654 0.0
C617 C 0.23113 0.04087 0.79806 0.0
C618 C 0.21927 0.05066 0.82173 0.0
C619 C 0.24652 0.04374 0.82396 0.0
C620 C 0.24536 0.03965 0.80751 0.0
C621 C 0.23347 0.04918 0.83126 0.0
C622 C 0.21806 0.04643 0.80524 0.0
C623 C 0.23017 0.03584 0.78089 0.0
O624 O 0.21612 0.00562 0.74023 0.0
O625 O 0.21074 0.02933 0.734 0.0
O626 O 0.22185 0.04419 0.7714 0.0
O627 O 0.22755 0.02037 0.77699 0.0
H628 H 0.23833 0.04351 0.73385 0.0
H629 H 0.26598 0.04607 0.72764 0.0
H630 H 0.26076 0.9968 0.70773 0.0
H631 H 0.23291 0.99424 0.71387 0.0
H632 H 0.14174 0.00294 0.72085 0.0
H633 H 0.16849 0.01337 0.73324 0.0
H634 H 0.12782 0.99297 0.76718 0.0
H635 H 0.1545 0.00318 0.77934 0.0
H636 H 0.209 0.05471 0.82709 0.0
H637 H 0.25767 0.04265 0.83099 0.0
H638 H 0.25555 0.03539 0.80216 0.0
H639 H 0.20691 0.04733 0.79814 0.0
C640 C 0.65965 0.6896 0.37108 0.0
C641 C 0.65188 0.67767 0.3789 0.0
C642 C 0.67094 0.65923 0.37107 0.0
C643 C 0.65747 0.66262 0.3789 0.0
C644 C 0.67859 0.67121 0.3631 0.0
C645 C 0.67299 0.6863 0.36314 0.0
U646 U 0.6298 0.71712 0.3843 0.0
O647 O 0.63256 0.74226 0.39438 0.0
O648 O 0.61719 0.73486 0.37209 0.0
C649 C 0.6236 0.74679 0.38242 0.0
C650 C 0.65389 0.70549 0.37142 0.0
C651 C 0.6299 0.76121 0.37568 0.0
C652 C 0.64527 0.77452 0.35689 0.0
C653 C 0.63997 0.76053 0.36337 0.0
C654 C 0.63069 0.7899 0.37517 0.0
C655 C 0.64055 0.78936 0.36263 0.0
C656 C 0.62541 0.77596 0.38159 0.0
C657 C 0.597 0.70093 0.40807 0.0
C658 C 0.58048 0.7182 0.42236 0.0
C659 C 0.57174 0.69005 0.41615 0.0
C660 C 0.58567 0.68793 0.40881 0.0
C661 C 0.56891 0.70524 0.42293 0.0
C662 C 0.59435 0.71608 0.41493 0.0
C663 C 0.61121 0.69865 0.39963 0.0
O664 O 0.63988 0.70598 0.36344 0.0
O665 O 0.6553 0.71352 0.38562 0.0
O666 O 0.62461 0.70656 0.40631 0.0
O667 O 0.60913 0.69926 0.38412 0.0
H668 H 0.64151 0.68002 0.38505 0.0
H669 H 0.65115 0.65361 0.38494 0.0
H670 H 0.68907 0.66902 0.35709 0.0
H671 H 0.67913 0.69541 0.35707 0.0
H672 H 0.65279 0.77369 0.3472 0.0
H673 H 0.64359 0.74921 0.35868 0.0
H674 H 0.62709 0.80113 0.38012 0.0
H675 H 0.61772 0.77671 0.39115 0.0
H676 H 0.57882 0.73001 0.42764 0.0
H677 H 0.563 0.67986 0.41611 0.0
H678 H 0.58748 0.67617 0.40347 0.0
H679 H 0.60293 0.7263 0.41441 0.0
C680 C 0.72372 0.2232 0.99086 0.0
C681 C 0.73096 0.23573 0.9833 0.0
C682 C 0.71339 0.25406 0.99451 0.0
C683 C 0.72579 0.25097 0.98505 0.0
C684 C 0.70569 0.24137 0.00149 0.0
C685 C 0.71077 0.22608 0.99962 0.0
U686 U 0.75978 0.20239 0.00121 0.0
O687 O 0.76362 0.18091 0.01337 0.0
O688 O 0.77082 0.18267 0.98921 0.0
C689 C 0.76922 0.17365 0.00095 0.0
C690 C 0.73077 0.20784 0.99135 0.0
C691 C 0.76257 0.15704 0.99634 0.0
C692 C 0.74292 0.13719 0.98132 0.0
C693 C 0.74865 0.1532 0.98582 0.0
C694 C 0.76481 0.12884 0.99807 0.0
C695 C 0.75103 0.12482 0.98731 0.0
C696 C 0.77051 0.14478 0.00251 0.0
C697 C 0.79646 0.23111 0.01827 0.0
C698 C 0.82318 0.22325 0.02369 0.0
C699 C 0.81818 0.25091 0.02908 0.0
C700 C 0.80208 0.24689 0.02383 0.0
C701 C 0.82897 0.23919 0.02884 0.0
C702 C 0.80701 0.21923 0.01841 0.0
C703 C 0.7797 0.2275 0.01187 0.0
O704 O 0.74173 0.20535 0.98156 0.0
O705 O 0.73472 0.20395 0.00579 0.0
O706 O 0.77038 0.21998 0.02097 0.0
O707 O 0.77725 0.22192 0.99674 0.0
H708 H 0.74107 0.23399 0.97657 0.0
H709 H 0.73205 0.26049 0.97962 0.0
H710 H 0.69597 0.24332 0.0087 0.0
H711 H 0.70501 0.21665 0.00557 0.0
H712 H 0.73234 0.13452 0.97295 0.0
H713 H 0.74233 0.16255 0.98098 0.0
H714 H 0.77116 0.11965 0.00318 0.0
H715 H 0.78121 0.14754 0.01073 0.0
H716 H 0.83122 0.21398 0.02325 0.0
H717 H 0.82223 0.26324 0.03321 0.0
H718 H 0.79404 0.25617 0.02387 0.0
H719 H 0.80281 0.20697 0.01414 0.0
C720 C 0.2447 0.79778 0.67502 0.0
C721 C 0.23341 0.80776 0.66964 0.0
C722 C 0.25222 0.83116 0.67806 0.0
C723 C 0.2371 0.82428 0.6712 0.0
C724 C 0.26337 0.82112 0.68382 0.0
C725 C 0.25963 0.80454 0.68228 0.0
U726 U 0.21945 0.76317 0.652 0.0
O727 O 0.22535 0.74086 0.63961 0.0
O728 O 0.20941 0.74003 0.65872 0.0
C729 C 0.21723 0.73186 0.64857 0.0
C730 C 0.24125 0.78038 0.67191 0.0
C731 C 0.22543 0.71876 0.65469 0.0
C732 C 0.24901 0.70838 0.66679 0.0
C733 C 0.24088 0.72135 0.66263 0.0
C734 C 0.22605 0.69024 0.65564 0.0
C735 C 0.24178 0.69264 0.66307 0.0
C736 C 0.21798 0.70318 0.6515 0.0
C737 C 0.18658 0.77217 0.62163 0.0
C738 C 0.17269 0.75105 0.60272 0.0
C739 C 0.16357 0.77746 0.60433 0.0
C740 C 0.17586 0.78272 0.61636 0.0
C741 C 0.16183 0.76155 0.59737 0.0
C742 C 0.18492 0.75631 0.61478 0.0
C743 C 0.19952 0.77776 0.6342 0.0
O744 O 0.22751 0.77451 0.67618 0.0
O745 O 0.244 0.77456 0.65759 0.0
O746 O 0.21389 0.77517 0.6305 0.0
O747 O 0.1969 0.77416 0.6486 0.0
H748 H 0.22183 0.80273 0.66391 0.0
H749 H 0.22816 0.83166 0.66686 0.0
H750 H 0.27517 0.82603 0.68901 0.0
H751 H 0.26854 0.79699 0.68636 0.0
H752 H 0.26104 0.71064 0.67264 0.0
H753 H 0.24679 0.73335 0.66521 0.0
H754 H 0.2202 0.67832 0.65234 0.0
H755 H 0.20607 0.70098 0.64532 0.0
H756 H 0.17186 0.7388 0.59748 0.0
H757 H 0.15528 0.78578 0.60065 0.0
H758 H 0.17698 0.795 0.62158 0.0
H759 H 0.19313 0.748 0.61873 0.0
C760 C 0.37413 0.28804 0.01878 0.0
C761 C 0.38459 0.27639 0.02158 0.0
C762 C 0.36205 0.25636 0.02162 0.0
C763 C 0.3786 0.26072 0.02309 0.0
C764 C 0.35161 0.26795 0.01836 0.0
C765 C 0.35762 0.2837 0.01703 0.0
U766 U 0.40763 0.31821 0.01088 0.0
O767 O 0.40785 0.34078 0.99992 0.0
O768 O 0.41775 0.34067 0.02485 0.0
C769 C 0.41393 0.34934 0.01321 0.0
C770 C 0.38039 0.30474 0.01803 0.0
C771 C 0.40606 0.36363 0.0177 0.0
C772 C 0.38229 0.37754 0.01925 0.0
C773 C 0.3894 0.36348 0.01585 0.0
C774 C 0.40841 0.39184 0.02693 0.0
C775 C 0.39173 0.39194 0.02463 0.0
C776 C 0.41549 0.37781 0.02346 0.0
C777 C 0.446 0.30518 0.99764 0.0
C778 C 0.46933 0.32449 0.99971 0.0
C779 C 0.46941 0.29867 0.98473 0.0
C780 C 0.45382 0.29445 0.98827 0.0
C781 C 0.47743 0.31369 0.99059 0.0
C782 C 0.45375 0.32032 0.0031 0.0
C783 C 0.42978 0.30072 0.00168 0.0
O784 O 0.39235 0.3101 0.02877 0.0
O785 O 0.38256 0.30883 0.00368 0.0
O786 O 0.41828 0.30469 0.99174 0.0
O787 O 0.42756 0.30414 0.01676 0.0
H788 H 0.39739 0.27946 0.02279 0.0
H789 H 0.38692 0.25198 0.02536 0.0
H790 H 0.33881 0.26492 0.01724 0.0
H791 H 0.34938 0.29254 0.01482 0.0
H792 H 0.36943 0.37721 0.01717 0.0
H793 H 0.38192 0.3526 0.01147 0.0
H794 H 0.41601 0.40264 0.03129 0.0
H795 H 0.42838 0.37809 0.02505 0.0
H796 H 0.47516 0.33603 0.00467 0.0
H797 H 0.47519 0.29014 0.97749 0.0
H798 H 0.44792 0.28278 0.9838 0.0
H799 H 0.44783 0.32883 0.01025 0.0
C800 C 0.36292 0.6543 0.68863 0.0
C801 C 0.37618 0.65293 0.67993 0.0
C802 C 0.36312 0.66551 0.65817 0.0
C803 C 0.37633 0.65857 0.66491 0.0
C804 C 0.34982 0.6668 0.66693 0.0
C805 C 0.34974 0.66126 0.68203 0.0
U806 U 0.3747 0.62377 0.71632 0.0
O807 O 0.38339 0.62589 0.74175 0.0
O808 O 0.36107 0.61099 0.73312 0.0
C809 C 0.37077 0.61733 0.74556 0.0
C810 C 0.36251 0.64799 0.70427 0.0
C811 C 0.36319 0.62394 0.7594 0.0
C812 C 0.35888 0.6461 0.77844 0.0
C813 C 0.36487 0.64037 0.76436 0.0
C814 C 0.3488 0.61915 0.7824 0.0
C815 C 0.35103 0.63552 0.78779 0.0
C816 C 0.35488 0.61344 0.76838 0.0
C817 C 0.3995 0.59137 0.70098 0.0
C818 C 0.41124 0.57336 0.71843 0.0
C819 C 0.4104 0.56775 0.68973 0.0
C820 C 0.40295 0.58163 0.6877 0.0
C821 C 0.41456 0.56339 0.70513 0.0
C822 C 0.40372 0.58719 0.71637 0.0
C823 C 0.39112 0.60557 0.69861 0.0
O824 O 0.35445 0.63392 0.70404 0.0
O825 O 0.37622 0.64937 0.71321 0.0
O826 O 0.39742 0.61881 0.7071 0.0
O827 O 0.37552 0.60337 0.6984 0.0
H828 H 0.38644 0.64746 0.68472 0.0
H829 H 0.38688 0.65759 0.65866 0.0
H830 H 0.33935 0.67184 0.66202 0.0
H831 H 0.33933 0.66226 0.68849 0.0
H832 H 0.36095 0.65874 0.78229 0.0
H833 H 0.37119 0.64874 0.75759 0.0
H834 H 0.34255 0.6107 0.78912 0.0
H835 H 0.35338 0.60073 0.76473 0.0
H836 H 0.41444 0.57048 0.73046 0.0
H837 H 0.41252 0.56024 0.67922 0.0
H838 H 0.39967 0.58464 0.67573 0.0
H839 H 0.4011 0.59458 0.72678 0.0
C840 C 0.00472 0.72703 0.23434 0.0
C841 C 0.01833 0.73284 0.24475 0.0
C842 C 0.00772 0.71901 0.26609 0.0
C843 C 0.01985 0.72879 0.26041 0.0
C844 C 0.99413 0.71313 0.25564 0.0
C845 C 0.99268 0.71707 0.23987 0.0
U846 U 0.00914 0.7605 0.20852 0.0
O847 O 0.01835 0.76252 0.18521 0.0
O848 O 0.99384 0.76789 0.1886 0.0
C849 C 0.00469 0.76616 0.17852 0.0
C850 C 0.00254 0.73236 0.21821 0.0
C851 C 0.99937 0.75788 0.16257 0.0
C852 C 0.98021 0.74077 0.14379 0.0
C853 C 0.98518 0.74761 0.1594 0.0
C854 C 0.00368 0.75418 0.13455 0.0
C855 C 0.98941 0.74403 0.13119 0.0
C856 C 0.00857 0.76101 0.15004 0.0
C857 C 0.02673 0.80073 0.23001 0.0
C858 C 0.03374 0.82371 0.21587 0.0
C859 C 0.03494 0.82654 0.24476 0.0
C860 C 0.02991 0.81032 0.24452 0.0
C861 C 0.03691 0.83345 0.23044 0.0
C862 C 0.02867 0.80747 0.21566 0.0
C863 C 0.02125 0.78378 0.23005 0.0
O864 O 0.99179 0.74253 0.21638 0.0
O865 O 0.01576 0.73639 0.21182 0.0
O866 O 0.02993 0.77374 0.22289 0.0
O867 O 0.00582 0.78004 0.22656 0.0
H868 H 0.02768 0.74081 0.24091 0.0
H869 H 0.03033 0.73372 0.26824 0.0
H870 H 0.9846 0.70554 0.25966 0.0
H871 H 0.98202 0.71259 0.23208 0.0
H872 H 0.9692 0.73295 0.14159 0.0
H873 H 0.97787 0.74499 0.16889 0.0
H874 H 0.0109 0.75722 0.12511 0.0
H875 H 0.01948 0.76901 0.1522 0.0
H876 H 0.03527 0.82861 0.20465 0.0
H877 H 0.03697 0.83373 0.25616 0.0
H878 H 0.02838 0.80529 0.25569 0.0
H879 H 0.02624 0.80018 0.20433 0.0
C880 C 0.67635 0.23807 0.81378 0.0
C881 C 0.67064 0.2268 0.82362 0.0
C882 C 0.68052 0.24478 0.84727 0.0
C883 C 0.67274 0.23009 0.8402 0.0
C884 C 0.6866 0.25589 0.83734 0.0
C885 C 0.68452 0.25255 0.82071 0.0
U886 U 0.65174 0.21421 0.77924 0.0
O887 O 0.63855 0.22114 0.75779 0.0
O888 O 0.65712 0.20477 0.75538 0.0
C889 C 0.64702 0.21329 0.74802 0.0
C890 C 0.67259 0.2352 0.79638 0.0
C891 C 0.65251 0.22174 0.73458 0.0
C892 C 0.64725 0.23989 0.71438 0.0
C893 C 0.64347 0.23329 0.72828 0.0
C894 C 0.6694 0.22379 0.71281 0.0
C895 C 0.6601 0.23505 0.70632 0.0
C896 C 0.66563 0.21718 0.72677 0.0
C897 C 0.62152 0.1814 0.78916 0.0
C898 C 0.60319 0.16603 0.76845 0.0
C899 C 0.60238 0.16063 0.79606 0.0
C900 C 0.61483 0.17266 0.80063 0.0
C901 C 0.59642 0.15717 0.77991 0.0
C902 C 0.61565 0.17805 0.77304 0.0
C903 C 0.63442 0.19413 0.79414 0.0
O904 O 0.67636 0.22152 0.78983 0.0
O905 O 0.6582 0.2384 0.79126 0.0
O906 O 0.63075 0.2086 0.792 0.0
O907 O 0.64847 0.19135 0.78963 0.0
H908 H 0.66413 0.21562 0.81846 0.0
H909 H 0.66769 0.22138 0.84745 0.0
H910 H 0.69276 0.26725 0.84242 0.0
H911 H 0.68893 0.26142 0.81328 0.0
H912 H 0.63962 0.24829 0.70958 0.0
H913 H 0.6331 0.23685 0.73379 0.0
H914 H 0.67945 0.21989 0.70697 0.0
H915 H 0.67273 0.20817 0.73116 0.0
H916 H 0.59875 0.16379 0.75595 0.0
H917 H 0.59757 0.15389 0.80514 0.0
H918 H 0.61926 0.17512 0.81313 0.0
H919 H 0.62066 0.18477 0.76405 0.0
C920 C 0.02722 0.35028 0.27944 0.0
C921 C 0.03108 0.35885 0.26663 0.0
C922 C 0.03085 0.33408 0.24954 0.0
C923 C 0.03295 0.35084 0.25186 0.0
C924 C 0.02684 0.3255 0.26237 0.0
C925 C 0.02508 0.33356 0.27724 0.0
U926 U 0.01878 0.38831 0.30201 0.0
O927 O 0.00397 0.39341 0.32162 0.0
O928 O 0.02964 0.40129 0.32464 0.0
C929 C 0.01624 0.40006 0.33139 0.0
C930 C 0.02497 0.35886 0.29487 0.0
C931 C 0.01737 0.39485 0.34751 0.0
C932 C 0.02556 0.37651 0.36648 0.0
C933 C 0.02444 0.381 0.35091 0.0
C934 C 0.01246 0.39961 0.37529 0.0
C935 C 0.01961 0.38579 0.37887 0.0
C936 C 0.01138 0.40408 0.35977 0.0
C937 C 0.01196 0.42349 0.2784 0.0
C938 C 0.00699 0.44884 0.29195 0.0
C939 C 0.00922 0.44642 0.26346 0.0
C940 C 0.0117 0.43034 0.26393 0.0
C941 C 0.00695 0.45588 0.27749 0.0
C942 C 0.00949 0.43277 0.2924 0.0
C943 C 0.01519 0.4068 0.27892 0.0
O944 O 0.03609 0.37054 0.30005 0.0
O945 O 0.01044 0.36282 0.29623 0.0
O946 O 0.00347 0.39725 0.28307 0.0
O947 O 0.02917 0.40473 0.28614 0.0
H948 H 0.03255 0.37179 0.26803 0.0
H949 H 0.03578 0.35779 0.24215 0.0
H950 H 0.0252 0.31258 0.26094 0.0
H951 H 0.022 0.32676 0.28697 0.0
H952 H 0.03124 0.36588 0.36885 0.0
H953 H 0.02914 0.37374 0.34155 0.0
H954 H 0.00747 0.40686 0.38443 0.0
H955 H 0.00583 0.41478 0.35732 0.0
H956 H 0.00551 0.45584 0.30299 0.0
H957 H 0.00909 0.45145 0.25212 0.0
H958 H 0.01356 0.42329 0.25302 0.0
H959 H 0.00972 0.42764 0.30369 0.0
H960 H 0.28713 0.55665 0.60054 0.0
H961 H 0.29315 0.50675 0.59089 0.0
H962 H 0.29734 0.5284 0.6393 0.0
H963 H 0.32174 0.50691 0.63232 0.0
C964 C 0.31482 0.49825 0.62294 0.0
O965 O 0.29927 0.50201 0.62092 0.0
H966 H 0.32049 0.49917 0.61163 0.0
C967 C 0.28933 0.54521 0.6047 0.0
C968 C 0.29213 0.54409 0.62113 0.0
C969 C 0.28947 0.53182 0.59363 0.0
C970 C 0.29282 0.51721 0.59922 0.0
C971 C 0.2957 0.51601 0.61566 0.0
C972 C 0.29511 0.52939 0.62662 0.0
H973 H 0.29681 0.50419 0.98093 0.0
H974 H 0.28411 0.55008 0.9688 0.0
H975 H 0.3188 0.54699 0.0086 0.0
H976 H 0.29876 0.57114 0.01615 0.0
C977 C 0.29339 0.57296 0.00404 0.0
O978 O 0.30229 0.56632 0.99273 0.0
H979 H 0.281 0.56693 0.00243 0.0
C980 C 0.29796 0.51709 0.9833 0.0
C981 C 0.30873 0.52447 0.99596 0.0
C982 C 0.28921 0.52618 0.97326 0.0
C983 C 0.29098 0.54288 0.97627 0.0
C984 C 0.30144 0.55034 0.98918 0.0
C985 C 0.31061 0.54116 0.99876 0.0
H986 H 0.67661 0.95064 0.36533 0.0
H987 H 0.69649 0.99605 0.35298 0.0
H988 H 0.69557 0.95414 0.32009 0.0
H989 H 0.72526 0.98363 0.31634 0.0
C990 C 0.71999 0.98972 0.32651 0.0
O991 O 0.70379 0.98501 0.32503 0.0
H992 H 0.72602 0.9862 0.33775 0.0
C993 C 0.68186 0.95786 0.35683 0.0
C994 C 0.68516 0.95047 0.3421 0.0
C995 C 0.68611 0.97425 0.36103 0.0
C996 C 0.69328 0.98335 0.35005 0.0
C997 C 0.69675 0.97608 0.33539 0.0
C998 C 0.69285 0.95965 0.33147 0.0
H999 H 0.73215 0.96479 0.00403 0.0
H1000 H 0.71252 0.91559 0.99777 0.0
H1001 H 0.69973 0.94712 0.96273 0.0
H1002 H 0.6721 0.91891 0.96409 0.0
C1003 C 0.67994 0.91415 0.97342 0.0
O1004 O 0.69567 0.91784 0.97079 0.0
H1005 H 0.67731 0.91983 0.9852 0.0
C1006 C 0.72493 0.95494 0.99694 0.0
C1007 C 0.71646 0.95771 0.98256 0.0
C1008 C 0.72347 0.93986 0.0027 0.0
C1009 C 0.71367 0.92735 0.99365 0.0
C1010 C 0.70513 0.92999 0.9793 0.0
C1011 C 0.70642 0.94517 0.97381 0.0
H1012 H 0.60478 0.29018 0.56998 0.0
H1013 H 0.59595 0.29672 0.52019 0.0
H1014 H 0.64149 0.28361 0.53861 0.0
H1015 H 0.64615 0.30379 0.51299 0.0
C1016 C 0.6333 0.30437 0.50916 0.0
O1017 O 0.62459 0.29096 0.5132 0.0
H1018 H 0.6296 0.31537 0.51551 0.0
C1019 C 0.60893 0.29045 0.55824 0.0
C1020 C 0.62443 0.28665 0.55595 0.0
C1021 C 0.59849 0.29393 0.54544 0.0
C1022 C 0.60378 0.29386 0.53017 0.0
C1023 C 0.61934 0.29033 0.52778 0.0
C1024 C 0.62953 0.28641 0.54059 0.0
H1025 H 0.9967 0.73411 0.97447 0.0
H1026 H 0.9959 0.71522 0.92537 0.0
H1027 H 0.95494 0.70579 0.95096 0.0
H1028 H 0.95802 0.67851 0.92401 0.0
C1029 C 0.96806 0.68557 0.91944 0.0
O1030 O 0.96669 0.70159 0.92328 0.0
H1031 H 0.97945 0.68203 0.92512 0.0
C1032 C 0.9905 0.72738 0.96382 0.0
C1033 C 0.97491 0.72036 0.96436 0.0
C1034 C 0.99837 0.7254 0.94997 0.0
C1035 C 0.99008 0.71692 0.9362 0.0
C1036 C 0.97443 0.70992 0.93656 0.0
C1037 C 0.96692 0.71144 0.95069 0.0
H1038 H 0.97066 0.31149 0.50639 0.0
H1039 H 0.9695 0.29715 0.55386 0.0
H1040 H 0.0035 0.33544 0.54481 0.0
H1041 H 0.01708 0.3179 0.57014 0.0
C1042 C 0.00591 0.31067 0.57214 0.0
O1043 O 0.99294 0.31814 0.56662 0.0
H1044 H 0.00589 0.29869 0.56546 0.0
C1045 C 0.97527 0.31288 0.51888 0.0
C1046 C 0.98777 0.32472 0.52429 0.0
C1047 C 0.96863 0.30283 0.52938 0.0
C1048 C 0.97453 0.30478 0.54557 0.0
C1049 C 0.98718 0.31645 0.55107 0.0
C1050 C 0.9938 0.32639 0.54044 0.0
H1051 H 0.36606 0.67747 0.95174 0.0
H1052 H 0.35235 0.69535 0.99727 0.0
H1053 H 0.32136 0.69775 0.95464 0.0
H1054 H 0.31833 0.7267 0.98317 0.0
C1055 C 0.32765 0.721 0.99011 0.0
O1056 O 0.32553 0.70474 0.98568 0.0
H1057 H 0.33951 0.72633 0.98735 0.0
C1058 C 0.35747 0.68278 0.95881 0.0
C1059 C 0.34324 0.68702 0.95114 0.0
C1060 C 0.36093 0.68574 0.97543 0.0
C1061 C 0.34985 0.69285 0.98444 0.0
C1062 C 0.33568 0.69719 0.97692 0.0
C1063 C 0.33229 0.69416 0.96033 0.0
H1064 H 0.55987 0.60127 0.29066 0.0
H1065 H 0.51056 0.59376 0.29951 0.0
H1066 H 0.52912 0.63868 0.28516 0.0
H1067 H 0.50585 0.64347 0.30805 0.0
C1068 C 0.50054 0.63089 0.30764 0.0
O1069 O 0.50393 0.62249 0.29379 0.0
H1070 H 0.50592 0.62578 0.31833 0.0
C1071 C 0.5483 0.60571 0.2914 0.0
C1072 C 0.54614 0.62122 0.28753 0.0
C1073 C 0.53556 0.59564 0.29559 0.0
C1074 C 0.52049 0.60129 0.2961 0.0
C1075 C 0.51827 0.61686 0.29253 0.0
C1076 C 0.53099 0.6267 0.28797 0.0
H1077 H 0.9709 0.01275 0.71248 0.0
H1078 H 0.92076 0.99708 0.70902 0.0
H1079 H 0.95469 0.96268 0.70326 0.0
H1080 H 0.91935 0.94787 0.68628 0.0
C1081 C 0.91772 0.96079 0.68806 0.0
O1082 O 0.92435 0.96674 0.7032 0.0
H1083 H 0.92392 0.96654 0.67865 0.0
C1084 C 0.96128 0.00318 0.71032 0.0
C1085 C 0.96485 0.98731 0.70765 0.0
C1086 C 0.94547 0.00684 0.71092 0.0
C1087 C 0.93304 0.99445 0.70869 0.0
C1088 C 0.93641 0.97859 0.70579 0.0
C1089 C 0.95227 0.97501 0.70549 0.0
H1090 H 0.51201 0.96447 0.31859 0.0
H1091 H 0.55647 0.96415 0.29759 0.0
H1092 H 0.5494 0.00258 0.33232 0.0
H1093 H 0.56971 0.01373 0.30893 0.0
C1094 C 0.57315 0.00209 0.30388 0.0
O1095 O 0.56966 0.99059 0.31397 0.0
H1096 H 0.56624 0.9988 0.29199 0.0
C1097 C 0.52404 0.96981 0.3178 0.0
C1098 C 0.52951 0.98434 0.32681 0.0
C1099 C 0.53359 0.96246 0.30718 0.0
C1100 C 0.54891 0.9697 0.30569 0.0
C1101 C 0.55463 0.98406 0.3149 0.0
C1102 C 0.54491 0.99143 0.32535 0.0
H1103 H 0.94934 0.36488 0.66522 0.0
H1104 H 0.99488 0.35777 0.68939 0.0
H1105 H 0.95509 0.32249 0.68882 0.0
H1106 H 0.98339 0.3238 0.72018 0.0
C1107 C 0.99004 0.33294 0.71399 0.0
O1108 O 0.98562 0.3299 0.69776 0.0
H1109 H 0.98699 0.3449 0.71868 0.0
C1110 C 0.95691 0.3577 0.67201 0.0
C1111 C 0.9503 0.34306 0.67635 0.0
C1112 C 0.97291 0.36343 0.67689 0.0
C1113 C 0.98255 0.35369 0.68532 0.0
C1114 C 0.97614 0.33899 0.68955 0.0
C1115 C 0.95999 0.33379 0.68532 0.0
H1116 H 0.70815 0.43497 0.39733 0.0
H1117 H 0.70288 0.48514 0.40413 0.0
H1118 H 0.71469 0.4644 0.35896 0.0
H1119 H 0.72983 0.49808 0.36665 0.0
C1120 C 0.72247 0.50136 0.37647 0.0
O1121 O 0.7089 0.49077 0.37523 0.0
H1122 H 0.72984 0.50081 0.38799 0.0
C1123 C 0.70795 0.44643 0.39255 0.0
C1124 C 0.7116 0.44788 0.37683 0.0
C1125 C 0.7048 0.45973 0.40251 0.0
C1126 C 0.7053 0.47474 0.39662 0.0
C1127 C 0.70881 0.47635 0.38092 0.0
C1128 C 0.71199 0.46298 0.37107 0.0
H1129 H 0.6989 0.48654 0.02183 0.0
H1130 H 0.70578 0.44029 0.03715 0.0
H1131 H 0.67092 0.44475 0.99787 0.0
H1132 H 0.66187 0.4178 0.01843 0.0
C1133 C 0.67423 0.41624 0.02331 0.0
O1134 O 0.68496 0.42464 0.01504 0.0
H1135 H 0.67577 0.4208 0.03619 0.0
C1136 C 0.69609 0.47368 0.02036 0.0
C1137 C 0.68415 0.46681 0.00851 0.0
C1138 C 0.7038 0.46431 0.03089 0.0
C1139 C 0.69978 0.44773 0.02923 0.0
C1140 C 0.68805 0.44068 0.01722 0.0
C1141 C 0.68006 0.45024 0.00704 0.0
H1142 H 0.29703 0.04819 0.62484 0.0
H1143 H 0.28445 1.0002 0.63562 0.0
H1144 H 0.29458 0.038 0.67357 0.0
H1145 H 0.30386 0.00508 0.68421 0.0
C1146 C 0.29875 0.99886 0.67256 0.0
O1147 O 0.28669 0.00725 0.66647 0.0
H1148 H 0.30854 0.99846 0.6646 0.0
C1149 C 0.29474 0.03976 0.63348 0.0
C1150 C 0.29622 0.04516 0.64982 0.0
C1151 C 0.29054 0.02357 0.62819 0.0
C1152 C 0.28754 0.01275 0.63945 0.0
C1153 C 0.28913 0.01794 0.65577 0.0
C1154 C 0.29347 0.0341 0.66095 0.0
H1155 H 0.27426 0.04009 0.98956 0.0
H1156 H 0.29368 0.08886 0.00245 0.0
H1157 H 0.309 0.05196 0.0303 0.0
H1158 H 0.31514 0.08891 0.0507 0.0
C1159 C 0.30873 0.09219 0.03961 0.0
O1160 O 0.31263 0.08253 0.02677 0.0
H1161 H 0.29568 0.09043 0.04085 0.0
C1162 C 0.28181 0.04899 0.99761 0.0
C1163 C 0.29144 0.04408 0.01028 0.0
C1164 C 0.28238 0.0651 0.99472 0.0
C1165 C 0.29275 0.07642 0.00474 0.0
C1166 C 0.30208 0.07169 0.01772 0.0
C1167 C 0.30133 0.05557 0.02058 0.0
H1168 H 0.40844 0.73031 0.44397 0.0
H1169 H 0.41018 0.7148 0.4911 0.0
H1170 H 0.36557 0.72513 0.46765 0.0
H1171 H 0.36886 0.735 0.50257 0.0
C1172 C 0.37855 0.72759 0.50616 0.0
O1173 O 0.37971 0.71607 0.49376 0.0
H1174 H 0.38993 0.7355 0.5088 0.0
C1175 C 0.40249 0.72757 0.45437 0.0
C1176 C 0.38599 0.72853 0.45419 0.0
C1177 C 0.41138 0.7227 0.46757 0.0
C1178 C 0.40352 0.71849 0.48073 0.0
C1179 C 0.38705 0.71951 0.48077 0.0
C1180 C 0.37827 0.72435 0.46747 0.0
H1181 H 0.99558 0.28045 0.02691 0.0
H1182 H 0.00474 0.28312 0.07801 0.0
H1183 H 0.04389 0.28772 0.04916 0.0
H1184 H 0.05407 0.27454 0.08338 0.0
C1185 C 0.04158 0.27566 0.08612 0.0
O1186 O 0.03576 0.28793 0.07838 0.0
H1187 H 0.03454 0.264 0.08195 0.0
C1188 C 0.00395 0.28216 0.03757 0.0
C1189 C 0.02039 0.28433 0.03612 0.0
C1190 C 0.99815 0.2816 0.05256 0.0
C1191 C 0.00901 0.28332 0.06631 0.0
C1192 C 0.02545 0.28553 0.06503 0.0
C1193 C 0.03115 0.28589 0.04998 0.0
H1194 H 0.02065 0.68864 0.50159 0.0
H1195 H 0.03759 0.70661 0.45946 0.0
H1196 H 0.99191 0.67907 0.45658 0.0
H1197 H 0.01188 0.6709 0.43059 0.0
C1198 C 0.0185 0.68278 0.42996 0.0
O1199 O 0.01273 0.69392 0.44033 0.0
H1200 H 0.0314 0.68198 0.43345 0.0
C1201 C 0.01904 0.68991 0.48891 0.0
C1202 C 0.00497 0.68295 0.47999 0.0
C1203 C 0.03093 0.69851 0.48171 0.0
C1204 C 0.02847 0.70024 0.46533 0.0
C1205 C 0.01449 0.69311 0.45627 0.0
C1206 C 0.00264 0.68464 0.46364 0.0
H1207 H 0.63995 0.34013 0.0523 0.0
H1208 H 0.64398 0.31261 0.00772 0.0
H1209 H 0.67552 0.30693 0.04885 0.0
H1210 H 0.64882 0.28109 0.01515 0.0
C1211 C 0.66185 0.28271 0.01391 0.0
O1212 O 0.66808 0.29834 0.0183 0.0
H1213 H 0.66792 0.27491 0.02191 0.0
C1214 C 0.64587 0.33158 0.04521 0.0
C1215 C 0.65845 0.32419 0.05256 0.0
C1216 C 0.64027 0.32735 0.02906 0.0
C1217 C 0.64817 0.31632 0.02008 0.0
C1218 C 0.66076 0.30898 0.02721 0.0
C1219 C 0.66582 0.31278 0.04343 0.0
H1220 H 0.4361 0.39919 0.71164 0.0
H1221 H 0.48647 0.40653 0.70718 0.0
H1222 H 0.46357 0.35894 0.70645 0.0
H1223 H 0.49657 0.36243 0.72274 0.0
C1224 C 0.50096 0.37362 0.71787 0.0
O1225 O 0.49071 0.37616 0.7049 0.0
H1226 H 0.50134 0.38359 0.72751 0.0
C1227 C 0.44739 0.3944 0.71014 0.0
C1228 C 0.44805 0.37781 0.70893 0.0
C1229 C 0.46114 0.40491 0.70964 0.0
C1230 C 0.47571 0.39863 0.7076 0.0
C1231 C 0.47657 0.38208 0.70658 0.0
C1232 C 0.46278 0.3717 0.70728 0.0
H1233 H 0.0312 0.99993 0.25938 0.0
H1234 H 0.08149 0.00728 0.27492 0.0
H1235 H 0.05089 0.04309 0.28797 0.0
H1236 H 0.07937 0.02288 0.31028 0.0
C1237 C 0.08524 0.03388 0.3061 0.0
O1238 O 0.08027 0.03525 0.29031 0.0
H1239 H 0.08173 0.04421 0.31361 0.0
C1240 C 0.04147 0.00738 0.26544 0.0
C1241 C 0.03926 0.02227 0.27326 0.0
C1242 C 0.0566 0.0017 0.26608 0.0
C1243 C 0.06968 0.01131 0.27442 0.0
C1244 C 0.06758 0.02617 0.28229 0.0
C1245 C 0.05239 0.0316 0.28181 0.0
H1246 H 0.50076 0.02138 0.70805 0.0
H1247 H 0.45578 0.03757 0.71869 0.0
H1248 H 0.45705 0.99915 0.68207 0.0
H1249 H 0.43195 0.02095 0.67441 0.0
C1250 C 0.431 0.02612 0.68682 0.0
O1251 O 0.43858 0.01713 0.69744 0.0
H1252 H 0.43678 0.03861 0.68818 0.0
C1253 C 0.48783 0.02011 0.70619 0.0
C1254 C 0.48002 0.00874 0.69423 0.0
C1255 C 0.47927 0.03063 0.71503 0.0
C1256 C 0.4626 0.02952 0.71202 0.0
C1257 C 0.45464 0.01811 0.70022 0.0
C1258 C 0.46332 0.0078 0.69129 0.0
H1259 H 0.04751 0.62429 0.29783 0.0
H1260 H 0.99838 0.63271 0.28738 0.0
H1261 H 0.03413 0.67233 0.29989 0.0
H1262 H 0.00049 0.67922 0.31069 0.0
C1263 C 0.99474 0.66805 0.30405 0.0
O1264 O 0.00363 0.66366 0.29175 0.0
H1265 H 0.99421 0.65872 0.31256 0.0
C1266 C 0.03843 0.63248 0.29654 0.0
C1267 C 0.04283 0.649 0.29922 0.0
C1268 C 0.02243 0.62641 0.29238 0.0
C1269 C 0.01081 0.63711 0.29053 0.0
C1270 C 0.01504 0.65358 0.29334 0.0
C1271 C 0.03099 0.65955 0.29779 0.0
C1272 C 0.18148 0.64461 0.33487 0.0
C1273 C 0.18801 0.64958 0.3506 0.0
C1274 C 0.16667 0.64904 0.32914 0.0
C1275 C 0.12927 0.66081 0.3435 0.0
H1276 H 0.11914 0.66751 0.2991 0.0
C1277 C 0.06447 0.66539 0.31755 0.0
C1278 C 0.05983 0.65486 0.30375 0.0
C1279 C 0.08067 0.66888 0.32306 0.0
C1280 C 0.1218 0.66571 0.31155 0.0
H1281 H 0.18425 0.66354 0.37252 0.0
H1282 H 0.1585 0.67151 0.36242 0.0
H1283 H 0.14684 0.66598 0.30934 0.0
H1284 H 0.06837 0.64062 0.2843 0.0
H1285 H 0.09651 0.64669 0.2938 0.0
H1286 H 0.10418 0.66007 0.34558 0.0
C1287 C 0.16478 0.66401 0.35457 0.0
C1288 C 0.13765 0.66478 0.31741 0.0
C1289 C 0.17962 0.65958 0.3603 0.0
C1290 C 0.07165 0.64868 0.29504 0.0
C1291 C 0.08777 0.65227 0.30043 0.0
C1292 C 0.11342 0.66179 0.33765 0.0
C1293 C 0.158 0.65858 0.339 0.0
C1294 C 0.14153 0.66186 0.33334 0.0
C1295 C 0.09246 0.66206 0.31472 0.0
C1296 C 0.10945 0.66378 0.32149 0.0
H1297 H 0.18772 0.63707 0.32701 0.0
H1298 H 0.16176 0.64448 0.31715 0.0
H1299 H 0.13178 0.65838 0.35579 0.0
H1300 H 0.05558 0.67028 0.32449 0.0
H1301 H 0.08394 0.67657 0.33404 0.0
C1302 C 0.32459 0.3345 0.75972 0.0
C1303 C 0.31291 0.34311 0.75254 0.0
C1304 C 0.33891 0.33281 0.75295 0.0
C1305 C 0.35974 0.33891 0.71653 0.0
H1306 H 0.397 0.34938 0.74721 0.0
C1307 C 0.4189 0.36995 0.70159 0.0
C1308 C 0.43329 0.36724 0.71011 0.0
C1309 C 0.40444 0.36216 0.70477 0.0
C1310 C 0.38681 0.34605 0.73845 0.0
H1311 H 0.30687 0.35615 0.73226 0.0
H1312 H 0.33182 0.35333 0.72054 0.0
H1313 H 0.37088 0.3446 0.75659 0.0
H1314 H 0.44399 0.3534 0.7278 0.0
H1315 H 0.41865 0.33959 0.73329 0.0
H1316 H 0.37572 0.34108 0.69839 0.0
C1317 C 0.32987 0.34765 0.73127 0.0
C1318 C 0.37177 0.34332 0.74385 0.0
C1319 C 0.31554 0.3493 0.73801 0.0
C1320 C 0.43307 0.35571 0.72106 0.0
C1321 C 0.41855 0.34793 0.72429 0.0
C1322 C 0.37482 0.34166 0.71112 0.0
C1323 C 0.3419 0.33974 0.73887 0.0
C1324 C 0.35799 0.34016 0.73298 0.0
C1325 C 0.40402 0.35148 0.71657 0.0
C1326 C 0.38847 0.34572 0.72204 0.0
H1327 H 0.32281 0.32935 0.77077 0.0
H1328 H 0.34781 0.3264 0.75896 0.0
H1329 H 0.34941 0.33623 0.70783 0.0
H1330 H 0.41876 0.37866 0.69295 0.0
H1331 H 0.39351 0.36529 0.69866 0.0
C1332 C 0.59713 0.97285 0.63706 0.0
C1333 C 0.59864 0.97584 0.62115 0.0
C1334 C 0.5823 0.97272 0.64317 0.0
C1335 C 0.54377 0.98922 0.63647 0.0
H1336 H 0.53097 0.96127 0.66794 0.0
C1337 C 0.48721 0.99802 0.66746 0.0
C1338 C 0.48971 0.99894 0.68418 0.0
C1339 C 0.49831 0.99157 0.65807 0.0
C1340 C 0.53438 0.96915 0.65915 0.0
H1341 H 0.5856 0.98077 0.59912 0.0
H1342 H 0.55974 0.98019 0.60965 0.0
H1343 H 0.55498 0.95707 0.65469 0.0
H1344 H 0.50498 0.99257 0.70413 0.0
H1345 H 0.52439 0.98152 0.68783 0.0
H1346 H 0.52353 0.00162 0.64123 0.0
C1347 C 0.57005 0.97811 0.61747 0.0
C1348 C 0.54815 0.96677 0.6516 0.0
C1349 C 0.58487 0.97826 0.61138 0.0
C1350 C 0.50285 0.99218 0.69126 0.0
C1351 C 0.51391 0.98572 0.6819 0.0
C1352 C 0.53003 0.99159 0.644 0.0
C1353 C 0.56862 0.97559 0.6335 0.0
C1354 C 0.55318 0.97699 0.6404 0.0
C1355 C 0.51208 0.98587 0.66522 0.0
C1356 C 0.52534 0.98179 0.65567 0.0
H1357 H 0.60745 0.97074 0.64486 0.0
H1358 H 0.58166 0.9709 0.65561 0.0
H1359 H 0.5474 0.99747 0.62809 0.0
H1360 H 0.47722 0.00317 0.66167 0.0
H1361 H 0.49644 0.99163 0.64523 0.0
C1362 C 0.89513 0.02382 0.26824 0.0
C1363 C 0.88929 0.02121 0.25202 0.0
C1364 C 0.91141 0.02819 0.27275 0.0
C1365 C 0.94926 0.04292 0.25686 0.0
H1366 H 0.9692 0.01915 0.28897 0.0
C1367 C 0.01384 0.02723 0.25798 0.0
C1368 C 0.02305 0.02761 0.27271 0.0
C1369 C 0.9979 0.03038 0.25739 0.0
C1370 C 0.9638 0.02613 0.2802 0.0
H1371 H 0.89579 0.02203 0.22786 0.0
H1372 H 0.92404 0.02917 0.23561 0.0
H1373 H 0.94018 0.01741 0.28449 0.0
H1374 H 0.02305 0.03202 0.29834 0.0
H1375 H 0.99492 0.03734 0.29732 0.0
H1376 H 0.97295 0.05092 0.25202 0.0
C1377 C 0.91614 0.02802 0.24493 0.0
C1378 C 0.94715 0.02516 0.27764 0.0
C1379 C 0.89994 0.02368 0.24045 0.0
C1380 C 0.01619 0.03175 0.28684 0.0
C1381 C 1.00012 0.03469 0.28626 0.0
C1382 C 0.96589 0.04377 0.25934 0.0
C1383 C 0.92215 0.03011 0.26112 0.0
C1384 C 0.93968 0.03316 0.26559 0.0
C1385 C 0.99076 0.03379 0.27152 0.0
C1386 C 0.97332 0.03503 0.27072 0.0
H1387 H 0.88723 0.02199 0.27744 0.0
H1388 H 0.91562 0.02987 0.28533 0.0
H1389 H 0.94391 0.04954 0.24774 0.0
H1390 H 0.01889 0.02409 0.24693 0.0
H1391 H 0.99095 0.02943 0.24586 0.0
C1392 C 0.36288 0.17468 0.64587 0.0
C1393 C 0.35773 0.18878 0.6529 0.0
C1394 C 0.356 0.15975 0.6489 0.0
C1395 C 0.31938 0.13977 0.66132 0.0
H1396 H 0.34541 0.10452 0.66474 0.0
C1397 C 0.29434 0.0741 0.6467 0.0
C1398 C 0.30116 0.06229 0.65495 0.0
C1399 C 0.30041 0.09009 0.64987 0.0
C1400 C 0.33796 0.11425 0.66409 0.0
H1401 H 0.34138 0.19817 0.66885 0.0
H1402 H 0.32925 0.17203 0.67407 0.0
H1403 H 0.35817 0.1314 0.66391 0.0
H1404 H 0.31915 0.05808 0.67361 0.0
H1405 H 0.32971 0.08616 0.67932 0.0
H1406 H 0.29916 0.12257 0.66133 0.0
C1407 C 0.33858 0.17258 0.66611 0.0
C1408 C 0.34527 0.12964 0.6634 0.0
C1409 C 0.3455 0.18755 0.66309 0.0
C1410 C 0.31364 0.06693 0.66709 0.0
C1411 C 0.31977 0.08298 0.67024 0.0
C1412 C 0.31206 0.12436 0.662 0.0
C1413 C 0.34374 0.1585 0.65903 0.0
C1414 C 0.33606 0.14252 0.66161 0.0
C1415 C 0.31347 0.09469 0.66138 0.0
C1416 C 0.32124 0.11135 0.66301 0.0
H1417 H 0.37203 0.17514 0.6377 0.0
H1418 H 0.36003 0.14918 0.64297 0.0
H1419 H 0.31191 0.14939 0.65989 0.0
H1420 H 0.28459 0.07089 0.63741 0.0
H1421 H 0.29534 0.09873 0.64272 0.0
C1422 C 0.27137 0.89908 0.99236 0.0
C1423 C 0.2648 0.89166 0.00481 0.0
C1424 C 0.27655 0.91534 0.99428 0.0
C1425 C 0.28713 0.95074 0.02376 0.0
H1426 H 0.27275 0.97331 0.98806 0.0
C1427 C 0.28857 0.02011 0.02574 0.0
C1428 C 0.29188 0.02681 0.01166 0.0
C1429 C 0.28706 0.00349 0.02606 0.0
C1430 C 0.27709 0.9672 0.99806 0.0
H1431 H 0.25912 0.89535 0.02928 0.0
H1432 H 0.26813 0.92387 0.03263 0.0
H1433 H 0.26714 0.94455 0.98649 0.0
H1434 H 0.29746 0.02168 0.98734 0.0
H1435 H 0.29522 0.99286 0.98796 0.0
H1436 H 0.29697 0.97362 0.03535 0.0
C1437 C 0.26938 0.91705 0.02142 0.0
C1438 C 0.27386 0.95068 0.99715 0.0
C1439 C 0.26423 0.90072 0.0195 0.0
C1440 C 0.2946 0.01676 0.99825 0.0
C1441 C 0.29324 1.00026 0.9986 0.0
C1442 C 0.29041 0.96737 0.02467 0.0
C1443 C 0.27523 0.92461 0.00868 0.0
C1444 C 0.27892 0.94222 0.00992 0.0
C1445 C 0.28895 0.99338 0.01232 0.0
C1446 C 0.28552 0.97576 0.01175 0.0
H1447 H 0.27227 0.89234 0.981 0.0
H1448 H 0.28133 0.92074 0.98436 0.0
H1449 H 0.29121 0.94454 0.03378 0.0
H1450 H 0.28643 0.02767 0.03622 0.0
H1451 H 0.28372 0.99855 0.0368 0.0
C1452 C 0.75484 0.31715 0.34174 0.0
C1453 C 0.76555 0.31589 0.3552 0.0
C1454 C 0.74949 0.33191 0.33877 0.0
C1455 C 0.75774 0.3757 0.35106 0.0
H1456 H 0.71213 0.37599 0.34112 0.0
C1457 C 0.72919 0.43452 0.35838 0.0
C1458 C 0.71576 0.43364 0.36703 0.0
C1459 C 0.73471 0.42059 0.35159 0.0
C1460 C 0.72491 0.37615 0.34387 0.0
H1461 H 0.77972 0.3293 0.37554 0.0
H1462 H 0.77011 0.35474 0.37069 0.0
H1463 H 0.72384 0.3507 0.33992 0.0
H1464 H 0.69672 0.41761 0.37401 0.0
H1465 H 0.70655 0.39342 0.36277 0.0
H1466 H 0.75871 0.40096 0.35623 0.0
C1467 C 0.76591 0.34447 0.36229 0.0
C1468 C 0.73166 0.36163 0.34298 0.0
C1469 C 0.77124 0.32979 0.36523 0.0
C1470 C 0.70729 0.41866 0.36769 0.0
C1471 C 0.71284 0.40477 0.36102 0.0
C1472 C 0.75098 0.39018 0.3521 0.0
C1473 C 0.75481 0.34572 0.34915 0.0
C1474 C 0.74809 0.36119 0.34716 0.0
C1475 C 0.72695 0.40549 0.35336 0.0
C1476 C 0.73439 0.39055 0.34909 0.0
H1477 H 0.75023 0.30666 0.33379 0.0
H1478 H 0.74105 0.33248 0.32846 0.0
H1479 H 0.7705 0.37584 0.35399 0.0
H1480 H 0.73597 0.44588 0.35763 0.0
H1481 H 0.74543 0.42162 0.34551 0.0
C1482 C 0.63471 0.58935 0.9704 0.0
C1483 C 0.61966 0.59091 0.97587 0.0
C1484 C 0.64123 0.57472 0.97012 0.0
C1485 C 0.63135 0.53128 0.97225 0.0
H1486 H 0.67532 0.53315 0.99038 0.0
C1487 C 0.65924 0.47824 0.99876 0.0
C1488 C 0.67571 0.47743 0.99844 0.0
C1489 C 0.65195 0.49076 0.99232 0.0
C1490 C 0.66313 0.53234 0.98495 0.0
H1491 H 0.59964 0.57821 0.98523 0.0
H1492 H 0.61101 0.55277 0.98472 0.0
H1493 H 0.66356 0.55772 0.98611 0.0
H1494 H 0.69723 0.48807 0.99001 0.0
H1495 H 0.68446 0.50959 0.97826 0.0
H1496 H 0.63087 0.50583 0.97145 0.0
C1497 C 0.61766 0.56278 0.98039 0.0
C1498 C 0.65637 0.54648 0.98253 0.0
C1499 C 0.61115 0.57739 0.9807 0.0
C1500 C 0.68452 0.48855 0.99048 0.0
C1501 C 0.67722 0.50093 0.9839 0.0
C1502 C 0.63814 0.51708 0.97463 0.0
C1503 C 0.63286 0.56132 0.97529 0.0
C1504 C 0.64034 0.54615 0.97639 0.0
C1505 C 0.661 0.5026 0.98536 0.0
C1506 C 0.65407 0.51745 0.98122 0.0
H1507 H 0.64146 0.59946 0.96635 0.0
H1508 H 0.6529 0.57393 0.96592 0.0
H1509 H 0.61901 0.53063 0.96731 0.0
H1510 H 0.65226 0.46986 0.00497 0.0
H1511 H 0.63946 0.49171 0.99374 0.0
C1512 C 0.64839 0.34468 0.19566 0.0
C1513 C 0.6476 0.36101 0.20006 0.0
C1514 C 0.65322 0.33952 0.18081 0.0
C1515 C 0.67251 0.35386 0.14598 0.0
H1516 H 0.64657 0.31769 0.1224 0.0
C1517 C 0.66429 0.34326 0.07731 0.0
C1518 C 0.66272 0.32751 0.07003 0.0
C1519 C 0.66588 0.34629 0.09393 0.0
C1520 C 0.65415 0.32763 0.1289 0.0
H1521 H 0.6521 0.38475 0.1926 0.0
H1522 H 0.66 0.37577 0.16663 0.0
H1523 H 0.64288 0.32485 0.15024 0.0
H1524 H 0.66232 0.30263 0.07442 0.0
H1525 H 0.66516 0.30794 0.10351 0.0
H1526 H 0.6833 0.35698 0.12434 0.0
C1527 C 0.65707 0.36691 0.17466 0.0
C1528 C 0.65204 0.33174 0.1449 0.0
C1529 C 0.65231 0.37207 0.1895 0.0
C1530 C 0.6636 0.31489 0.07971 0.0
C1531 C 0.66506 0.31792 0.09635 0.0
C1532 C 0.67455 0.3498 0.12994 0.0
C1533 C 0.65736 0.35056 0.17 0.0
C1534 C 0.66096 0.34511 0.15357 0.0
C1535 C 0.66584 0.33364 0.10363 0.0
C1536 C 0.66517 0.33682 0.12113 0.0
H1537 H 0.64479 0.33584 0.20347 0.0
H1538 H 0.6535 0.32684 0.1777 0.0
H1539 H 0.67982 0.36404 0.15237 0.0
H1540 H 0.66377 0.35321 0.07013 0.0
H1541 H 0.66634 0.35853 0.09915 0.0
C1542 C 0.03555 0.25207 0.8953 0.0
C1543 C 0.02323 0.25867 0.88661 0.0
C1544 C 0.03935 0.25673 0.91161 0.0
C1545 C 0.03387 0.28783 0.94402 0.0
H1546 H 0.03613 0.25332 0.97112 0.0
C1547 C 0.01831 0.29336 0.00873 0.0
C1548 C 0.02599 0.28466 0.02001 0.0
C1549 C 0.02183 0.292 0.99289 0.0
C1550 C 0.0359 0.26316 0.96377 0.0
H1551 H 0.00577 0.27587 0.88804 0.0
H1552 H 0.01227 0.28388 0.91648 0.0
H1553 H 0.03515 0.24752 0.94229 0.0
H1554 H 0.04403 0.26839 0.02375 0.0
H1555 H 0.05037 0.26612 0.99599 0.0
H1556 H 0.03416 0.3034 0.96549 0.0
C1557 C 0.01906 0.27516 0.91071 0.0
C1558 C 0.0353 0.25982 0.94722 0.0
C1559 C 0.01521 0.27044 0.89445 0.0
C1560 C 0.03794 0.27525 0.01531 0.0
C1561 C 0.04145 0.27384 0.9994 0.0
C1562 C 0.03451 0.29117 0.96058 0.0
C1563 C 0.03099 0.26817 0.91954 0.0
C1564 C 0.03384 0.27206 0.93713 0.0
C1565 C 0.03315 0.28191 0.98792 0.0
C1566 C 0.03508 0.27881 0.97063 0.0
H1567 H 0.04189 0.24291 0.88962 0.0
H1568 H 0.04868 0.25121 0.91807 0.0
H1569 H 0.03304 0.29755 0.93658 0.0
H1570 H 0.00917 0.30086 0.01206 0.0
H1571 H 0.01508 0.29828 0.9844 0.0
C1572 C 0.35063 0.75034 0.31684 0.0
C1573 C 0.34349 0.76444 0.31448 0.0
C1574 C 0.35172 0.74462 0.33183 0.0
C1575 C 0.33823 0.74805 0.37237 0.0
H1576 H 0.38214 0.74147 0.38538 0.0
C1577 C 0.36293 0.72519 0.43269 0.0
C1578 C 0.37717 0.73379 0.43991 0.0
C1579 C 0.35624 0.72869 0.41777 0.0
C1580 C 0.36982 0.74325 0.38192 0.0
H1581 H 0.33069 0.78279 0.32569 0.0
H1582 H 0.33275 0.77283 0.352 0.0
H1583 H 0.37456 0.74654 0.358 0.0
H1584 H 0.3947 0.7537 0.43794 0.0
H1585 H 0.38319 0.75961 0.41194 0.0
H1586 H 0.33369 0.74489 0.39658 0.0
C1587 C 0.3375 0.76624 0.34221 0.0
C1588 C 0.36544 0.74598 0.36619 0.0
C1589 C 0.33645 0.77202 0.32719 0.0
C1590 C 0.38393 0.74663 0.4325 0.0
C1591 C 0.37735 0.75003 0.41763 0.0
C1592 C 0.34261 0.74508 0.38815 0.0
C1593 C 0.34567 0.75282 0.34481 0.0
C1594 C 0.34965 0.74858 0.36126 0.0
C1595 C 0.36376 0.74078 0.40989 0.0
C1596 C 0.35852 0.74295 0.3931 0.0
H1597 H 0.35627 0.74425 0.30737 0.0
H1598 H 0.35792 0.73413 0.33346 0.0
H1599 H 0.32598 0.75 0.36886 0.0
H1600 H 0.35747 0.71522 0.43813 0.0
H1601 H 0.34574 0.7214 0.41201 0.0
C1602 C 0.96905 0.63809 0.5973 0.0
C1603 C 0.96051 0.62339 0.59897 0.0
C1604 C 0.9682 0.6445 0.58262 0.0
C1605 C 0.96158 0.63117 0.54002 0.0
H1606 H 0.96652 0.67664 0.53614 0.0
C1607 C 0.99742 0.6593 0.49396 0.0
C1608 C 0.99326 0.67351 0.48812 0.0
C1609 C 0.98837 0.65207 0.5048 0.0
C1610 C 0.9648 0.66389 0.53688 0.0
H1611 H 0.94351 0.60444 0.58681 0.0
H1612 H 0.94209 0.61562 0.56114 0.0
H1613 H 0.95949 0.66708 0.56118 0.0
H1614 H 0.97613 0.691 0.48826 0.0
H1615 H 0.96011 0.6783 0.50733 0.0
H1616 H 0.96737 0.628 0.51587 0.0
C1617 C 0.94963 0.62206 0.57114 0.0
C1618 C 0.96097 0.65842 0.55131 0.0
C1619 C 0.95046 0.61565 0.58584 0.0
C1620 C 0.9794 0.67992 0.49253 0.0
C1621 C 0.97036 0.67274 0.50352 0.0
C1622 C 0.96543 0.63663 0.52559 0.0
C1623 C 0.95879 0.63636 0.56926 0.0
C1624 C 0.95988 0.64203 0.55322 0.0
C1625 C 0.97507 0.65901 0.51016 0.0
C1626 C 0.96765 0.65308 0.52405 0.0
H1627 H 0.97706 0.64427 0.60708 0.0
H1628 H 0.97561 0.65541 0.58156 0.0
H1629 H 0.96091 0.61846 0.54108 0.0
H1630 H 0.00821 0.65431 0.49083 0.0
H1631 H 0.99248 0.64165 0.50982 0.0
C1632 C 0.8143 0.34865 0.62676 0.0
C1633 C 0.80301 0.35132 0.63769 0.0
C1634 C 0.82915 0.34384 0.63176 0.0
C1635 C 0.85742 0.34512 0.66781 0.0
H1636 H 0.88015 0.31862 0.63961 0.0
C1637 C 0.92314 0.33455 0.68412 0.0
C1638 C 0.93303 0.3382 0.6722 0.0
C1639 C 0.90652 0.33254 0.68066 0.0
C1640 C 0.87393 0.326 0.64764 0.0
H1641 H 0.79837 0.35049 0.66242 0.0
H1642 H 0.82421 0.34172 0.67111 0.0
H1643 H 0.85207 0.32168 0.63236 0.0
H1644 H 0.93347 0.34162 0.64716 0.0
H1645 H 0.90453 0.33796 0.64105 0.0
H1646 H 0.87938 0.34964 0.68294 0.0
C1647 C 0.82163 0.34362 0.65868 0.0
C1648 C 0.85786 0.32782 0.64346 0.0
C1649 C 0.80675 0.34849 0.65367 0.0
C1650 C 0.92609 0.33887 0.65657 0.0
C1651 C 0.90953 0.33668 0.65307 0.0
C1652 C 0.87345 0.3432 0.67204 0.0
C1653 C 0.83312 0.34147 0.64783 0.0
C1654 C 0.84952 0.33776 0.65328 0.0
C1655 C 0.89954 0.33393 0.66516 0.0
C1656 C 0.882 0.33396 0.6618 0.0
H1657 H 0.81173 0.35044 0.6143 0.0
H1658 H 0.83771 0.34251 0.62307 0.0
H1659 H 0.85147 0.35302 0.67558 0.0
H1660 H 0.9282 0.33407 0.69628 0.0
H1661 H 0.89912 0.33031 0.69018 0.0
C1662 C 0.66534 0.65748 0.22502 0.0
C1663 C 0.67808 0.65327 0.23516 0.0
C1664 C 0.65052 0.65938 0.23069 0.0
C1665 C 0.62972 0.66283 0.26778 0.0
H1666 H 0.59413 0.6396 0.24065 0.0
C1667 C 0.57475 0.63238 0.29168 0.0
C1668 C 0.55981 0.63129 0.28272 0.0
C1669 C 0.58826 0.63979 0.28605 0.0
C1670 C 0.60382 0.64646 0.24826 0.0
H1671 H 0.68553 0.64883 0.25944 0.0
H1672 H 0.65967 0.65176 0.26921 0.0
H1673 H 0.61987 0.64406 0.23027 0.0
H1674 H 0.54707 0.63785 0.26128 0.0
H1675 H 0.57079 0.65085 0.25135 0.0
H1676 H 0.61376 0.66451 0.28602 0.0
C1677 C 0.6611 0.65372 0.25692 0.0
C1678 C 0.61862 0.64903 0.24231 0.0
C1679 C 0.67589 0.65183 0.25127 0.0
C1680 C 0.55846 0.63856 0.26843 0.0
C1681 C 0.57203 0.64588 0.26271 0.0
C1682 C 0.61492 0.66021 0.27375 0.0
C1683 C 0.64811 0.65713 0.24661 0.0
C1684 C 0.63188 0.65681 0.25214 0.0
C1685 C 0.58715 0.64621 0.27128 0.0
C1686 C 0.60194 0.65157 0.26421 0.0
H1687 H 0.6666 0.6586 0.21253 0.0
H1688 H 0.64082 0.6622 0.22248 0.0
H1689 H 0.6396 0.66915 0.27557 0.0
H1690 H 0.57609 0.62699 0.30281 0.0
H1691 H 0.59972 0.63969 0.29288 0.0
C1692 C 0.40415 0.01508 0.36647 0.0
C1693 C 0.40166 0.02019 0.38226 0.0
C1694 C 0.41961 0.01479 0.36192 0.0
C1695 C 0.46046 0.01127 0.37882 0.0
H1696 H 0.47108 0.02066 0.33678 0.0
C1697 C 0.50987 0.98327 0.34714 0.0
C1698 C 0.51861 0.9922 0.33706 0.0
C1699 C 0.49763 0.98972 0.35479 0.0
C1700 C 0.46842 0.01825 0.34867 0.0
H1701 H 0.4135 0.02978 0.40544 0.0
H1702 H 0.44049 0.02915 0.3975 0.0
H1703 H 0.44538 0.0268 0.34546 0.0
H1704 H 0.522 0.01515 0.32771 0.0
H1705 H 0.50053 0.02652 0.34117 0.0
H1706 H 0.48336 0.00242 0.3819 0.0
C1707 C 0.43046 0.02516 0.38872 0.0
C1708 C 0.45362 0.02158 0.35356 0.0
C1709 C 0.415 0.02548 0.39326 0.0
C1710 C 0.51547 0.00804 0.33548 0.0
C1711 C 0.50311 0.01448 0.34305 0.0
C1712 C 0.47523 0.00788 0.37391 0.0
C1713 C 0.43295 0.01958 0.37306 0.0
C1714 C 0.44933 0.0178 0.36855 0.0
C1715 C 0.4938 0.00523 0.35247 0.0
C1716 C 0.47923 0.01099 0.35864 0.0
H1717 H 0.39416 0.01073 0.35776 0.0
H1718 H 0.42111 0.01021 0.34983 0.0
H1719 H 0.45749 0.00812 0.39041 0.0
H1720 H 0.51211 0.97105 0.34862 0.0
H1721 H 0.49062 0.98222 0.36184 0.0
C1722 C 0.10729 0.97872 0.74108 0.0
C1723 C 0.11602 0.99193 0.73594 0.0
C1724 C 0.09113 0.97492 0.73576 0.0
C1725 C 0.05902 0.98286 0.70533 0.0
H1726 H 0.03153 0.97522 0.73872 0.0
C1727 C 0.99257 0.99353 0.7001 0.0
C1728 C 0.98176 0.98383 0.70762 0.0
C1729 C 0.00883 0.99156 0.70159 0.0
C1730 C 0.039 0.977 0.72916 0.0
H1731 H 0.11469 0.01118 0.72072 0.0
H1732 H 0.08655 0.00456 0.71143 0.0
H1733 H 0.06034 0.97713 0.74482 0.0
H1734 H 0.97948 0.96394 0.722 0.0
H1735 H 0.00792 0.96029 0.72439 0.0
H1736 H 0.03762 0.98312 0.68977 0.0
C1737 C 0.09223 0.99702 0.71945 0.0
C1738 C 0.05555 0.97812 0.73266 0.0
C1739 C 0.10838 0.00083 0.72479 0.0
C1740 C 0.9875 0.97158 0.71603 0.0
C1741 C 0.00381 0.9696 0.71753 0.0
C1742 C 0.04244 0.98171 0.70181 0.0
C1743 C 0.08333 0.98423 0.72513 0.0
C1744 C 0.06577 0.98137 0.72088 0.0
C1745 C 0.01471 0.9798 0.71062 0.0
C1746 C 0.03223 0.97909 0.71376 0.0
H1747 H 0.11289 0.97145 0.74944 0.0
H1748 H 0.08469 0.96482 0.74014 0.0
H1749 H 0.06655 0.98512 0.69592 0.0
H1750 H 0.98849 0.00293 0.69334 0.0
H1751 H 0.01687 0.99972 0.69621 0.0
C1752 C 0.66149 0.80745 0.35187 0.0
C1753 C 0.64574 0.8043 0.35567 0.0
C1754 C 0.66653 0.82206 0.34642 0.0
C1755 C 0.65133 0.85829 0.33063 0.0
H1756 H 0.69191 0.87942 0.35025 0.0
C1757 C 0.66551 0.92634 0.3403 0.0
C1758 C 0.68091 0.93308 0.33832 0.0
C1759 C 0.66188 0.90981 0.33868 0.0
C1760 C 0.68068 0.87358 0.34442 0.0
H1761 H 0.62273 0.81371 0.35592 0.0
H1762 H 0.63156 0.83921 0.34695 0.0
H1763 H 0.68439 0.8517 0.35442 0.0
H1764 H 0.70447 0.92791 0.3326 0.0
H1765 H 0.69816 0.89881 0.32993 0.0
H1766 H 0.64734 0.88048 0.3213 0.0
C1767 C 0.64004 0.83041 0.34797 0.0
C1768 C 0.67637 0.85766 0.34679 0.0
C1769 C 0.63502 0.81585 0.35336 0.0
C1770 C 0.69248 0.92298 0.3341 0.0
C1771 C 0.68891 0.90638 0.33269 0.0
C1772 C 0.6556 0.87422 0.32837 0.0
C1773 C 0.65591 0.83382 0.34462 0.0
C1774 C 0.66145 0.84995 0.34027 0.0
C1775 C 0.67363 0.89964 0.33522 0.0
C1776 C 0.67015 0.88215 0.33557 0.0
H1777 H 0.67007 0.79884 0.35356 0.0
H1778 H 0.67879 0.82421 0.34378 0.0
H1779 H 0.63992 0.85262 0.32512 0.0
H1780 H 0.65637 0.93389 0.34352 0.0
H1781 H 0.65005 0.90499 0.34086 0.0
C1782 C 0.72897 0.10238 0.98099 0.0
C1783 C 0.74532 0.10775 0.9824 0.0
C1784 C 0.72382 0.08613 0.97733 0.0
C1785 C 0.73752 0.0473 0.96221 0.0
H1786 H 0.70572 0.02917 0.98749 0.0
C1787 C 0.73298 0.98216 0.97688 0.0
C1788 C 0.71784 0.97397 0.97727 0.0
C1789 C 0.73451 0.99819 0.97398 0.0
C1790 C 0.7144 0.03407 0.98011 0.0
H1791 H 0.76899 0.10032 0.9803 0.0
H1792 H 0.76014 0.07211 0.97445 0.0
H1793 H 0.71174 0.05805 0.98912 0.0
H1794 H 0.6924 0.97589 0.97446 0.0
H1795 H 0.69506 0.00413 0.96952 0.0
H1796 H 0.74068 0.02322 0.95381 0.0
C1797 C 0.75121 0.08038 0.97597 0.0
C1798 C 0.71785 0.05064 0.98103 0.0
C1799 C 0.75633 0.09658 0.97958 0.0
C1800 C 0.7042 0.98193 0.97411 0.0
C1801 C 0.70573 0.99808 0.97141 0.0
C1802 C 0.73415 0.03074 0.9614 0.0
C1803 C 0.73491 0.0749 0.97498 0.0
C1804 C 0.72975 0.05746 0.9724 0.0
C1805 C 0.72093 0.00643 0.97159 0.0
C1806 C 0.72283 0.02394 0.97062 0.0
H1807 H 0.72017 0.11065 0.98316 0.0
H1808 H 0.71117 0.08236 0.97649 0.0
H1809 H 0.74649 0.05214 0.95512 0.0
H1810 H 0.74368 0.97626 0.97926 0.0
H1811 H 0.74638 0.00432 0.97435 0.0
C1812 C 0.26678 0.67885 0.66178 0.0
C1813 C 0.25091 0.67867 0.66555 0.0
C1814 C 0.27453 0.66493 0.66154 0.0
C1815 C 0.27171 0.62285 0.67186 0.0
H1816 H 0.29144 0.61547 0.63259 0.0
C1817 C 0.2793 0.56014 0.64172 0.0
C1818 C 0.29192 0.55856 0.63221 0.0
C1819 C 0.27721 0.57504 0.64949 0.0
C1820 C 0.28634 0.61737 0.64382 0.0
H1821 H 0.23124 0.66402 0.67333 0.0
H1822 H 0.2446 0.63966 0.67249 0.0
H1823 H 0.28269 0.64137 0.63979 0.0
H1824 H 0.3129 0.57071 0.6242 0.0
H1825 H 0.30971 0.59658 0.63824 0.0
H1826 H 0.27498 0.59854 0.67556 0.0
C1827 C 0.25111 0.65057 0.6698 0.0
C1828 C 0.28129 0.6323 0.64795 0.0
C1829 C 0.24337 0.6645 0.6701 0.0
C1830 C 0.30307 0.57173 0.63148 0.0
C1831 C 0.30112 0.58654 0.63939 0.0
C1832 C 0.27683 0.60785 0.66773 0.0
C1833 C 0.26659 0.65049 0.66499 0.0
C1834 C 0.27365 0.63517 0.66187 0.0
C1835 C 0.28779 0.58855 0.64793 0.0
C1836 C 0.28397 0.60486 0.6535 0.0
H1837 H 0.27295 0.68951 0.65815 0.0
H1838 H 0.28656 0.66534 0.65805 0.0
H1839 H 0.26601 0.62472 0.68275 0.0
H1840 H 0.27049 0.55013 0.64228 0.0
H1841 H 0.26674 0.57615 0.65584 0.0
C1842 C 0.39142 0.42125 0.02196 0.0
C1843 C 0.38427 0.40713 0.027 0.0
C1844 C 0.38384 0.43525 0.02297 0.0
C1845 C 0.3438 0.44795 0.02225 0.0
H1846 H 0.36591 0.49035 0.03281 0.0
C1847 C 0.31022 0.50251 0.01355 0.0
C1848 C 0.31811 0.51441 0.00579 0.0
C1849 C 0.31868 0.49093 0.02026 0.0
C1850 C 0.35957 0.4786 0.02977 0.0
H1851 H 0.36393 0.39694 0.03786 0.0
H1852 H 0.35058 0.42138 0.03942 0.0
H1853 H 0.38019 0.46692 0.03684 0.0
H1854 H 0.34099 0.52416 0.99955 0.0
H1855 H 0.35582 0.50364 0.01083 0.0
H1856 H 0.32345 0.45938 0.01448 0.0
C1857 C 0.362 0.42151 0.03454 0.0
C1858 C 0.36775 0.4652 0.03211 0.0
C1859 C 0.36961 0.40751 0.03359 0.0
C1860 C 0.33472 0.51514 0.00562 0.0
C1861 C 0.34318 0.50339 0.01212 0.0
C1862 C 0.33569 0.4613 0.0198 0.0
C1863 C 0.3689 0.43545 0.02898 0.0
C1864 C 0.35999 0.44973 0.02815 0.0
C1865 C 0.33515 0.49081 0.01903 0.0
C1866 C 0.34351 0.47681 0.02332 0.0
H1867 H 0.40259 0.42134 0.01661 0.0
H1868 H 0.38935 0.44573 0.01837 0.0
H1869 H 0.33756 0.43621 0.01881 0.0
H1870 H 0.2974 0.50181 0.01386 0.0
H1871 H 0.31217 0.48168 0.02585 0.0
C1872 C 0.34816 0.63241 0.81668 0.0
C1873 C 0.34604 0.64137 0.80356 0.0
C1874 C 0.34446 0.63823 0.83174 0.0
C1875 C 0.34148 0.67578 0.85593 0.0
H1876 H 0.32378 0.6477 0.8851 0.0
C1877 C 0.3525 0.68869 0.92403 0.0
C1878 C 0.34029 0.68436 0.93349 0.0
C1879 C 0.35041 0.68499 0.90751 0.0
C1880 C 0.3285 0.65578 0.87705 0.0
H1881 H 0.3378 0.66331 0.79597 0.0
H1882 H 0.33151 0.67357 0.82239 0.0
H1883 H 0.32469 0.63776 0.85722 0.0
H1884 H 0.31612 0.67327 0.93306 0.0
H1885 H 0.31243 0.66674 0.90402 0.0
H1886 H 0.34556 0.69371 0.87583 0.0
C1887 C 0.33617 0.66206 0.82097 0.0
C1888 C 0.32918 0.65003 0.86112 0.0
C1889 C 0.33981 0.65619 0.80585 0.0
C1890 C 0.32571 0.67676 0.92603 0.0
C1891 C 0.32365 0.67293 0.90945 0.0
C1892 C 0.34085 0.68151 0.87187 0.0
C1893 C 0.3386 0.6532 0.83412 0.0
C1894 C 0.33602 0.65985 0.85047 0.0
C1895 C 0.33608 0.67681 0.90005 0.0
C1896 C 0.3347 0.67146 0.8827 0.0
H1897 H 0.35322 0.6211 0.81547 0.0
H1898 H 0.34676 0.63123 0.84167 0.0
H1899 H 0.3469 0.68363 0.84806 0.0
H1900 H 0.3638 0.69472 0.92946 0.0
H1901 H 0.36028 0.688 0.90066 0.0
C1902 C 0.9953 0.73244 0.10429 0.0
C1903 C 0.98408 0.73755 0.11443 0.0
C1904 C 0.99101 0.72879 0.08797 0.0
C1905 C 0.95848 0.71895 0.05597 0.0
H1906 H 0.98707 0.74314 0.03159 0.0
C1907 C 0.96421 0.70812 0.98756 0.0
C1908 C 0.96788 0.72177 0.97976 0.0
C1909 C 0.96215 0.70962 0.00388 0.0
C1910 C 0.97885 0.73643 0.03821 0.0
H1911 H 0.95925 0.74172 0.11549 0.0
H1912 H 0.9517 0.73507 0.08681 0.0
H1913 H 0.99199 0.74529 0.0605 0.0
H1914 H 0.97062 0.74759 0.98225 0.0
H1915 H 0.96679 0.75024 0.0106 0.0
H1916 H 0.94554 0.70986 0.0334 0.0
C1917 C 0.96383 0.734 0.09161 0.0
C1918 C 0.98179 0.73752 0.05476 0.0
C1919 C 0.96816 0.73778 0.10801 0.0
C1920 C 0.96789 0.73691 0.98806 0.0
C1921 C 0.96579 0.7384 0.00428 0.0
C1922 C 0.95564 0.71767 0.03926 0.0
C1923 C 0.97537 0.73002 0.08139 0.0
C1924 C 0.97173 0.72874 0.06382 0.0
C1925 C 0.96374 0.72478 0.01253 0.0
C1926 C 0.96582 0.72645 0.03024 0.0
H1927 H 0.00757 0.73177 0.10891 0.0
H1928 H 1.00008 0.72547 0.08037 0.0
H1929 H 0.95055 0.71207 0.06273 0.0
H1930 H 0.96428 0.69632 0.98141 0.0
H1931 H 0.96061 0.69892 0.00995 0.0
C1932 C 0.6664 0.23041 0.67786 0.0
C1933 C 0.66295 0.24095 0.69066 0.0
C1934 C 0.66712 0.23547 0.66262 0.0
C1935 C 0.6685 0.27157 0.6402 0.0
H1936 H 0.64452 0.2427 0.60638 0.0
C1937 C 0.6362 0.29234 0.58431 0.0
C1938 C 0.63489 0.28265 0.56976 0.0
C1939 C 0.64393 0.28748 0.59807 0.0
C1940 C 0.65157 0.2508 0.61557 0.0
H1941 H 0.65857 0.26535 0.69763 0.0
H1942 H 0.6594 0.27406 0.67105 0.0
H1943 H 0.6502 0.23365 0.63259 0.0
H1944 H 0.64137 0.2607 0.55796 0.0
H1945 H 0.65497 0.25213 0.58212 0.0
H1946 H 0.66919 0.28894 0.62327 0.0
C1947 C 0.6617 0.26191 0.67277 0.0
C1948 C 0.65483 0.24561 0.63064 0.0
C1949 C 0.66102 0.25686 0.688 0.0
C1950 C 0.64225 0.2684 0.56903 0.0
C1951 C 0.64991 0.26345 0.58286 0.0
C1952 C 0.66518 0.27678 0.62513 0.0
C1953 C 0.66439 0.25118 0.6598 0.0
C1954 C 0.66297 0.25605 0.64327 0.0
C1955 C 0.65047 0.27277 0.59761 0.0
C1956 C 0.65631 0.26658 0.61276 0.0
H1957 H 0.66786 0.21804 0.67944 0.0
H1958 H 0.66944 0.22695 0.65295 0.0
H1959 H 0.67507 0.27983 0.64956 0.0
H1960 H 0.63072 0.30344 0.58516 0.0
H1961 H 0.64402 0.29488 0.60923 0.0
C1962 C 0.02374 0.39259 0.40863 0.0
C1963 C 0.02047 0.38101 0.39541 0.0
C1964 C 0.02336 0.38825 0.42416 0.0
C1965 C 0.0238 0.35384 0.44832 0.0
H1966 H 0.99892 0.3788 0.47571 0.0
C1967 C 0.01071 0.33609 0.51063 0.0
C1968 C 0.99439 0.33506 0.51278 0.0
C1969 C 0.01641 0.34388 0.49804 0.0
C1970 C 0.00599 0.37178 0.46824 0.0
H1971 H 0.01461 0.35571 0.38825 0.0
H1972 H 0.01405 0.34815 0.41535 0.0
H1973 H 0.00449 0.38757 0.4499 0.0
H1974 H 0.9714 0.34207 0.50418 0.0
H1975 H 0.98131 0.35577 0.48236 0.0
H1976 H 0.02475 0.33771 0.46643 0.0
C1977 C 0.01705 0.36057 0.41368 0.0
C1978 C 0.00929 0.37686 0.45351 0.0
C1979 C 0.01737 0.36491 0.39814 0.0
C1980 C 0.98403 0.34267 0.50272 0.0
C1981 C 0.98973 0.35059 0.4903 0.0
C1982 C 0.02059 0.34882 0.46312 0.0
C1983 C 0.01979 0.37222 0.42686 0.0
C1984 C 0.01791 0.36775 0.44322 0.0
C1985 C 0.0059 0.35095 0.48756 0.0
C1986 C 0.01132 0.35753 0.47306 0.0
H1987 H 0.02649 0.40505 0.40698 0.0
H1988 H 0.02574 0.39747 0.43408 0.0
H1989 H 0.03063 0.34667 0.44073 0.0
H1990 H 0.01889 0.33023 0.5182 0.0
H1991 H 0.02895 0.34408 0.49627 0.0
C1992 C 0.29481 0.56494 0.45662 0.0
C1993 C 0.28461 0.57632 0.45199 0.0
C1994 C 0.29373 0.55839 0.47113 0.0
C1995 C 0.2797 0.56731 0.51069 0.0
H1996 H 0.28639 0.52321 0.51586 0.0
C1997 C 0.27406 0.54223 0.57081 0.0
C1998 C 0.28646 0.53351 0.57632 0.0
C1999 C 0.27236 0.54571 0.55497 0.0
C2000 C 0.28459 0.53557 0.51461 0.0
H2001 H 0.26504 0.58945 0.45892 0.0
H2002 H 0.26289 0.57774 0.484 0.0
H2003 H 0.28601 0.53266 0.48935 0.0
H2004 H 0.30633 0.52092 0.56937 0.0
H2005 H 0.3034 0.52705 0.54158 0.0
H2006 H 0.27843 0.57032 0.53589 0.0
C2007 C 0.27191 0.57407 0.47652 0.0
C2008 C 0.28438 0.54099 0.49943 0.0
C2009 C 0.27301 0.58065 0.46203 0.0
C2010 C 0.29662 0.5276 0.56543 0.0
C2011 C 0.29493 0.53112 0.54953 0.0
C2012 C 0.27986 0.56189 0.52581 0.0
C2013 C 0.2824 0.56303 0.48136 0.0
C2014 C 0.282 0.55696 0.49731 0.0
C2015 C 0.28303 0.54057 0.54424 0.0
C2016 C 0.28234 0.54598 0.52797 0.0
H2017 H 0.30372 0.56115 0.44906 0.0
H2018 H 0.30208 0.55002 0.47452 0.0
H2019 H 0.27818 0.57975 0.50958 0.0
H2020 H 0.26585 0.54668 0.57887 0.0
H2021 H 0.26284 0.5527 0.55119 0.0
C2022 C 0.24115 0.44266 0.85064 0.0
C2023 C 0.23123 0.42883 0.85253 0.0
C2024 C 0.2456 0.4543 0.86349 0.0
C2025 C 0.25071 0.45911 0.90725 0.0
H2026 H 0.25164 0.50439 0.90258 0.0
C2027 C 0.268 0.50484 0.96149 0.0
C2028 C 0.27881 0.51791 0.9594 0.0
C2029 C 0.26017 0.49521 0.94832 0.0
C2030 C 0.25156 0.49179 0.90405 0.0
H2031 H 0.2182 0.41638 0.86941 0.0
H2032 H 0.2259 0.43672 0.8918 0.0
H2033 H 0.24223 0.48495 0.87971 0.0
H2034 H 0.28936 0.53169 0.94198 0.0
H2035 H 0.27591 0.51468 0.91883 0.0
H2036 H 0.26038 0.46577 0.93137 0.0
C2037 C 0.23028 0.43854 0.88039 0.0
C2038 C 0.24616 0.48067 0.89095 0.0
C2039 C 0.22576 0.42696 0.86753 0.0
C2040 C 0.28098 0.52173 0.94388 0.0
C2041 C 0.27327 0.51198 0.93065 0.0
C2042 C 0.25617 0.47018 0.92028 0.0
C2043 C 0.24032 0.45229 0.87854 0.0
C2044 C 0.2457 0.46421 0.89243 0.0
C2045 C 0.26314 0.49831 0.93273 0.0
C2046 C 0.25667 0.48667 0.91888 0.0
H2047 H 0.24543 0.44452 0.83919 0.0
H2048 H 0.25346 0.46471 0.86173 0.0
H2049 H 0.25078 0.44652 0.9087 0.0
H2050 H 0.26601 0.50176 0.97337 0.0
H2051 H 0.25214 0.48505 0.95037 0.0
C2052 C 0.70573 0.00889 0.50333 0.0
C2053 C 0.69449 0.00168 0.51242 0.0
C2054 C 0.70259 0.00855 0.48678 0.0
C2055 C 0.67855 0.98458 0.45311 0.0
H2056 H 0.69332 0.01891 0.42896 0.0
C2057 C 0.67039 0.97718 0.38474 0.0
C2058 C 0.68417 0.98141 0.37735 0.0
C2059 C 0.66954 0.98208 0.40084 0.0
C2060 C 0.68915 0.00922 0.43555 0.0
H2061 H 0.67092 0.98884 0.51121 0.0
H2062 H 0.6653 0.98862 0.48245 0.0
H2063 H 0.69575 0.023 0.45811 0.0
H2064 H 0.70759 0.99471 0.38086 0.0
H2065 H 0.70615 0.00322 0.40895 0.0
H2066 H 0.67231 0.97066 0.43069 0.0
C2067 C 0.67665 0.99433 0.48809 0.0
C2068 C 0.69056 0.01155 0.45223 0.0
C2069 C 0.6798 0.99463 0.50462 0.0
C2070 C 0.69674 0.99138 0.38617 0.0
C2071 C 0.69591 0.99626 0.40228 0.0
C2072 C 0.67712 0.98227 0.43648 0.0
C2073 C 0.68813 0.00101 0.47893 0.0
C2074 C 0.68547 0.99917 0.46121 0.0
C2075 C 0.68248 0.99129 0.40991 0.0
C2076 C 0.6826 0.99447 0.4275 0.0
H2077 H 0.71706 0.01463 0.50899 0.0
H2078 H 0.71175 0.01371 0.48008 0.0
H2079 H 0.67477 0.97469 0.45963 0.0
H2080 H 0.6604 0.96973 0.37816 0.0
H2081 H 0.6589 0.97831 0.4063 0.0
C2082 C 0.75286 0.94765 0.14509 0.0
C2083 C 0.76602 0.95823 0.15186 0.0
C2084 C 0.75089 0.94294 0.1287 0.0
C2085 C 0.76195 0.9574 0.09117 0.0
H2086 H 0.74247 0.91578 0.07258 0.0
C2087 C 0.74693 0.94466 0.02353 0.0
C2088 C 0.73132 0.93769 0.01867 0.0
C2089 C 0.75347 0.94464 0.03929 0.0
C2090 C 0.74791 0.92746 0.07761 0.0
H2091 H 0.78775 0.97167 0.14675 0.0
H2092 H 0.78452 0.96314 0.11826 0.0
H2093 H 0.74989 0.92042 0.10137 0.0
H2094 H 0.71062 0.92455 0.02634 0.0
H2095 H 0.722 0.92457 0.05388 0.0
H2096 H 0.75962 0.9646 0.06758 0.0
C2097 C 0.77558 0.95869 0.12559 0.0
C2098 C 0.75214 0.93013 0.09409 0.0
C2099 C 0.77752 0.96343 0.14197 0.0
C2100 C 0.72273 0.9299 0.02969 0.0
C2101 C 0.72926 0.92991 0.04548 0.0
C2102 C 0.75776 0.95473 0.07474 0.0
C2103 C 0.76206 0.94867 0.11871 0.0
C2104 C 0.75898 0.94521 0.10108 0.0
C2105 C 0.74453 0.93768 0.05056 0.0
C2106 C 0.75046 0.93982 0.06778 0.0
H2107 H 0.7439 0.94322 0.15241 0.0
H2108 H 0.74028 0.93531 0.1238 0.0
H2109 H 0.76692 0.96925 0.09616 0.0
H2110 H 0.75393 0.9505 0.01522 0.0
H2111 H 0.76538 0.95045 0.04277 0.0
C2112 C 0.47237 0.30986 0.60148 0.0
C2113 C 0.45927 0.29921 0.59473 0.0
C2114 C 0.48699 0.30998 0.59501 0.0
C2115 C 0.50588 0.29845 0.55864 0.0
H2116 H 0.54402 0.30064 0.5882 0.0
C2117 C 0.56882 0.28836 0.53926 0.0
C2118 C 0.582 0.29714 0.5483 0.0
C2119 C 0.55338 0.28957 0.54371 0.0
C2120 C 0.53353 0.30029 0.57976 0.0
H2121 H 0.45119 0.28048 0.57572 0.0
H2122 H 0.47687 0.28059 0.56447 0.0
H2123 H 0.51807 0.30055 0.5984 0.0
H2124 H 0.58937 0.31494 0.5683 0.0
H2125 H 0.5625 0.31742 0.57582 0.0
H2126 H 0.52145 0.2982 0.53997 0.0
C2127 C 0.47575 0.28891 0.57473 0.0
C2128 C 0.51863 0.30019 0.58563 0.0
C2129 C 0.46111 0.28873 0.58127 0.0
C2130 C 0.57941 0.30787 0.56126 0.0
C2131 C 0.56403 0.30919 0.56562 0.0
C2132 C 0.52085 0.29862 0.55274 0.0
C2133 C 0.48888 0.29947 0.58161 0.0
C2134 C 0.50464 0.29934 0.57516 0.0
C2135 C 0.55088 0.29968 0.55723 0.0
C2136 C 0.53487 0.29963 0.56326 0.0
H2137 H 0.4714 0.31798 0.61195 0.0
H2138 H 0.49682 0.31837 0.6005 0.0
H2139 H 0.49531 0.29791 0.55028 0.0
H2140 H 0.57053 0.27992 0.52927 0.0
H2141 H 0.54354 0.28202 0.53702 0.0
C2142 C 0.1385 0.76233 0.98255 0.0
C2143 C 0.14852 0.76814 0.97158 0.0
C2144 C 0.122 0.76024 0.97882 0.0
C2145 C 0.09101 0.75308 0.94518 0.0
H2146 H 0.06345 0.76272 0.97828 0.0
C2147 C 0.02145 0.73907 0.93775 0.0
C2148 C 0.01547 0.7315 0.95043 0.0
C2149 C 0.03748 0.74538 0.93885 0.0
C2150 C 0.071 0.75998 0.96891 0.0
H2151 H 0.14914 0.77647 0.94812 0.0
H2152 H 0.1201 0.7728 0.94154 0.0
H2153 H 0.09195 0.77109 0.98308 0.0
H2154 H 0.02188 0.72374 0.97375 0.0
H2155 H 0.04953 0.7349 0.97573 0.0
H2156 H 0.06995 0.7416 0.93118 0.0
C2157 C 0.1251 0.76983 0.95303 0.0
C2158 C 0.0873 0.76475 0.97166 0.0
C2159 C 0.14167 0.77204 0.95683 0.0
C2160 C 0.02594 0.72994 0.96397 0.0
C2161 C 0.04181 0.73631 0.9651 0.0
C2162 C 0.07461 0.74832 0.94241 0.0
C2163 C 0.11511 0.76388 0.964 0.0
C2164 C 0.09757 0.76091 0.96004 0.0
C2165 C 0.04771 0.74428 0.95268 0.0
C2166 C 0.06456 0.75129 0.95446 0.0
H2167 H 0.14342 0.75939 0.99408 0.0
H2168 H 0.11466 0.75542 0.98744 0.0
H2169 H 0.09864 0.7499 0.93602 0.0
H2170 H 0.01367 0.74046 0.92717 0.0
H2171 H 0.04177 0.75143 0.92908 0.0
C2172 C 0.84843 0.2366 0.45302 0.0
C2173 C 0.85258 0.22888 0.43877 0.0
C2174 C 0.86015 0.24203 0.46556 0.0
C2175 C 0.90251 0.2389 0.48044 0.0
H2176 H 0.90001 0.28143 0.50086 0.0
C2177 C 0.95695 0.28034 0.50942 0.0
C2178 C 0.95543 0.29054 0.52313 0.0
C2179 C 0.94385 0.27036 0.50194 0.0
C2180 C 0.90075 0.26941 0.49553 0.0
H2181 H 0.87222 0.22068 0.42655 0.0
H2182 H 0.89268 0.23037 0.44826 0.0
H2183 H 0.87796 0.26875 0.48216 0.0
H2184 H 0.93929 0.29784 0.54025 0.0
H2185 H 0.91619 0.28038 0.52706 0.0
H2186 H 0.92566 0.23994 0.49334 0.0
C2187 C 0.88035 0.23193 0.44994 0.0
C2188 C 0.8881 0.26212 0.48478 0.0
C2189 C 0.86863 0.22641 0.43745 0.0
C2190 C 0.94076 0.29002 0.52971 0.0
C2191 C 0.92755 0.28014 0.52211 0.0
C2192 C 0.9152 0.24624 0.49112 0.0
C2193 C 0.87629 0.23996 0.46409 0.0
C2194 C 0.88896 0.24692 0.47683 0.0
C2195 C 0.9289 0.27048 0.50794 0.0
C2196 C 0.9146 0.26171 0.49851 0.0
H2197 H 0.83612 0.23845 0.45446 0.0
H2198 H 0.85655 0.24793 0.47637 0.0
H2199 H 0.90344 0.22705 0.4748 0.0
H2200 H 0.96818 0.28049 0.50417 0.0
H2201 H 0.94525 0.26318 0.49097 0.0
C2202 C 0.50262 0.67225 0.99693 0.0
C2203 C 0.51073 0.68686 0.0038 0.0
C2204 C 0.48611 0.66936 0.99701 0.0
C2205 C 0.45071 0.68418 0.01443 0.0
H2206 H 0.42899 0.66746 0.97314 0.0
C2207 C 0.38585 0.69433 0.99364 0.0
C2208 C 0.37666 0.68254 0.98302 0.0
C2209 C 0.40163 0.69236 0.99888 0.0
C2210 C 0.4348 0.67182 0.98487 0.0
H2211 H 0.50794 0.70949 0.01699 0.0
H2212 H 0.47906 0.70464 0.01673 0.0
H2213 H 0.45783 0.66855 0.97742 0.0
H2214 H 0.37632 0.65894 0.97057 0.0
H2215 H 0.40383 0.6554 0.97986 0.0
H2216 H 0.42756 0.6879 0.02166 0.0
C2217 C 0.48549 0.69535 0.01141 0.0
C2218 C 0.45138 0.67246 0.98732 0.0
C2219 C 0.50202 0.69822 0.01137 0.0
C2220 C 0.38323 0.66833 0.97854 0.0
C2221 C 0.39898 0.66632 0.98384 0.0
C2222 C 0.43406 0.68353 0.01197 0.0
C2223 C 0.47729 0.68103 0.0039 0.0
C2224 C 0.45957 0.67888 0.00204 0.0
C2225 C 0.40853 0.67853 0.99365 0.0
C2226 C 0.42595 0.67759 0.99706 0.0
H2227 H 0.50891 0.66327 0.9909 0.0
H2228 H 0.48018 0.65812 0.99132 0.0
H2229 H 0.45665 0.689 0.02597 0.0
H2230 H 0.38114 0.70546 0.99718 0.0
H2231 H 0.40869 0.70207 0.0063 0.0
C2232 C 0.58577 0.46717 0.31562 0.0
C2233 C 0.57826 0.45407 0.30541 0.0
C2234 C 0.5802 0.4822 0.31525 0.0
C2235 C 0.54511 0.50278 0.30345 0.0
H2236 H 0.57646 0.53914 0.30315 0.0
C2237 C 0.52843 0.56601 0.2911 0.0
C2238 C 0.53823 0.57917 0.29904 0.0
C2239 C 0.53234 0.55046 0.29275 0.0
C2240 C 0.56753 0.52918 0.3035 0.0
H2241 H 0.55885 0.4464 0.287 0.0
H2242 H 0.54913 0.47275 0.28631 0.0
H2243 H 0.58519 0.51262 0.30418 0.0
H2244 H 0.55913 0.58644 0.31575 0.0
H2245 H 0.56572 0.55939 0.31903 0.0
H2246 H 0.52743 0.5194 0.30287 0.0
C2247 C 0.5593 0.47133 0.29463 0.0
C2248 C 0.57256 0.51395 0.30403 0.0
C2249 C 0.56495 0.4563 0.29492 0.0
C2250 C 0.5515 0.57649 0.30932 0.0
C2251 C 0.55532 0.561 0.3111 0.0
C2252 C 0.54006 0.51807 0.30303 0.0
C2253 C 0.56695 0.48446 0.30471 0.0
C2254 C 0.56143 0.50059 0.30405 0.0
C2255 C 0.54606 0.5478 0.3025 0.0
C2256 C 0.55123 0.53147 0.30311 0.0
H2257 H 0.59614 0.46587 0.32373 0.0
H2258 H 0.58626 0.49205 0.32326 0.0
H2259 H 0.53626 0.4927 0.30359 0.0
H2260 H 0.51818 0.56778 0.28302 0.0
H2261 H 0.52499 0.5406 0.28587 0.0
C2262 C 0.96453 0.14865 0.73725 0.0
C2263 C 0.96161 0.1561 0.7521 0.0
C2264 C 0.95914 0.13266 0.73278 0.0
C2265 C 0.94733 0.0952 0.74953 0.0
H2266 H 0.93395 0.08076 0.70506 0.0
C2267 C 0.93351 0.02827 0.72695 0.0
C2268 C 0.94226 0.02366 0.71425 0.0
C2269 C 0.93234 0.04446 0.73137 0.0
C2270 C 0.9376 0.08463 0.71753 0.0
H2271 H 0.95054 0.15263 0.77383 0.0
H2272 H 0.94101 0.12457 0.76597 0.0
H2273 H 0.93847 0.10929 0.71355 0.0
H2274 H 0.9559 0.03211 0.69568 0.0
H2275 H 0.95372 0.06032 0.70322 0.0
H2276 H 0.94673 0.07047 0.75339 0.0
C2277 C 0.94763 0.13112 0.75786 0.0
C2278 C 0.94026 0.10096 0.72239 0.0
C2279 C 0.95309 0.14717 0.76237 0.0
C2280 C 0.94914 0.0354 0.70555 0.0
C2281 C 0.94779 0.05151 0.70981 0.0
C2282 C 0.94456 0.07885 0.74467 0.0
C2283 C 0.95063 0.12367 0.74301 0.0
C2284 C 0.94564 0.10644 0.73835 0.0
C2285 C 0.93969 0.05623 0.72298 0.0
C2286 C 0.94011 0.07342 0.72854 0.0
H2287 H 0.97134 0.15509 0.7292 0.0
H2288 H 0.96203 0.12724 0.72144 0.0
H2289 H 0.95159 0.09898 0.76188 0.0
H2290 H 0.92818 0.01942 0.73388 0.0
H2291 H 0.92597 0.04778 0.74151 0.0
C2292 C 0.44059 0.85213 0.25141 0.0
C2293 C 0.4337 0.85212 0.23564 0.0
C2294 C 0.45395 0.86266 0.25727 0.0
C2295 C 0.47524 0.90101 0.25008 0.0
H2296 H 0.50709 0.8891 0.28159 0.0
C2297 C 0.52621 0.94655 0.28065 0.0
C2298 C 0.52701 0.94753 0.29738 0.0
C2299 C 0.51751 0.93353 0.27139 0.0
C2300 C 0.49832 0.89257 0.27275 0.0
H2301 H 0.43569 0.8631 0.21359 0.0
H2302 H 0.45928 0.88116 0.22368 0.0
H2303 H 0.4865 0.8689 0.26837 0.0
H2304 H 0.52031 0.93533 0.31757 0.0
H2305 H 0.50531 0.91252 0.30146 0.0
H2306 H 0.48694 0.92474 0.25467 0.0
C2307 C 0.45417 0.87318 0.23161 0.0
C2308 C 0.48647 0.88104 0.26524 0.0
C2309 C 0.44074 0.86269 0.22576 0.0
C2310 C 0.51982 0.93485 0.30469 0.0
C2311 C 0.51132 0.92177 0.29546 0.0
C2312 C 0.48717 0.91251 0.2575 0.0
C2313 C 0.46087 0.87339 0.24748 0.0
C2314 C 0.47453 0.8852 0.25411 0.0
C2315 C 0.50968 0.92118 0.27872 0.0
C2316 C 0.49859 0.90849 0.2692 0.0
H2317 H 0.43566 0.84399 0.25929 0.0
H2318 H 0.45862 0.86261 0.26962 0.0
H2319 H 0.46616 0.90472 0.24172 0.0
H2320 H 0.53158 0.95625 0.27476 0.0
H2321 H 0.51653 0.93332 0.25851 0.0
C2322 C 0.00754 0.50648 0.67218 0.0
C2323 C 0.00661 0.51292 0.68798 0.0
C2324 C 0.00786 0.49007 0.66855 0.0
C2325 C 0.01383 0.45211 0.68574 0.0
H2326 H 0.97921 0.43414 0.65416 0.0
C2327 C 0.96898 0.39235 0.67535 0.0
C2328 C 0.97908 0.38002 0.67439 0.0
C2329 C 0.97481 0.40809 0.67412 0.0
C2330 C 0.98907 0.439 0.66283 0.0
H2331 H 0.00615 0.50711 0.71244 0.0
H2332 H 0.00706 0.47859 0.70612 0.0
H2333 H 0.98624 0.46298 0.65783 0.0
H2334 H 0.0033 0.37476 0.67097 0.0
H2335 H 0.01361 0.40255 0.66956 0.0
H2336 H 0.01619 0.42808 0.69114 0.0
C2337 C 0.00755 0.48627 0.69656 0.0
C2338 C 0.99316 0.45547 0.66487 0.0
C2339 C 0.00705 0.50266 0.70018 0.0
C2340 C 0.9952 0.38392 0.672 0.0
C2341 C 0.00111 0.3998 0.67108 0.0
C2342 C 0.00988 0.43558 0.68354 0.0
C2343 C 0.0075 0.47977 0.68067 0.0
C2344 C 0.00524 0.46223 0.6767 0.0
C2345 C 0.99095 0.412 0.6722 0.0
C2346 C 0.99711 0.42896 0.67243 0.0
H2347 H 0.0076 0.51407 0.66253 0.0
H2348 H 0.00799 0.48536 0.65622 0.0
H2349 H 0.02325 0.45703 0.69488 0.0
H2350 H 0.95665 0.39001 0.67765 0.0
H2351 H 0.9668 0.41734 0.67531 0.0
C2352 C 0.68505 0.41198 0.53195 0.0
C2353 C 0.69599 0.41887 0.54476 0.0
C2354 C 0.68529 0.41754 0.51692 0.0
C2355 C 0.69864 0.45191 0.49595 0.0
H2356 H 0.69581 0.42017 0.45946 0.0
C2357 C 0.71038 0.4671 0.43204 0.0
C2358 C 0.70149 0.45769 0.41915 0.0
C2359 C 0.70883 0.46353 0.44772 0.0
C2360 C 0.69635 0.42922 0.46946 0.0
H2361 H 0.71557 0.43724 0.55191 0.0
H2362 H 0.71606 0.44693 0.52552 0.0
H2363 H 0.69498 0.41165 0.48607 0.0
H2364 H 0.68325 0.43794 0.41248 0.0
H2365 H 0.68016 0.43198 0.43976 0.0
H2366 H 0.69996 0.4695 0.47925 0.0
C2367 C 0.70725 0.43725 0.52718 0.0
C2368 C 0.69592 0.42431 0.48474 0.0
C2369 C 0.70708 0.4316 0.54223 0.0
C2370 C 0.6904 0.44524 0.42222 0.0
C2371 C 0.68873 0.44177 0.43784 0.0
C2372 C 0.69897 0.45684 0.4806 0.0
C2373 C 0.69645 0.43017 0.51434 0.0
C2374 C 0.69702 0.43558 0.49815 0.0
C2375 C 0.69826 0.45055 0.45076 0.0
C2376 C 0.69776 0.44554 0.46716 0.0
H2377 H 0.67646 0.40206 0.53347 0.0
H2378 H 0.67672 0.41194 0.50729 0.0
H2379 H 0.69939 0.46086 0.50606 0.0
H2380 H 0.7191 0.47669 0.42995 0.0
H2381 H 0.71642 0.47048 0.45736 0.0
C2382 C 0.75554 0.55505 0.14601 0.0
C2383 C 0.76603 0.56814 0.14319 0.0
C2384 C 0.75133 0.5423 0.13422 0.0
C2385 C 0.74808 0.53318 0.09076 0.0
H2386 H 0.74336 0.48906 0.10024 0.0
C2387 C 0.72746 0.48362 0.04078 0.0
C2388 C 0.7153 0.47231 0.04405 0.0
C2389 C 0.73627 0.49361 0.05316 0.0
C2390 C 0.74455 0.50133 0.09742 0.0
H2391 H 0.78045 0.57803 0.12583 0.0
H2392 H 0.77321 0.55572 0.1053 0.0
H2393 H 0.75352 0.5101 0.12145 0.0
H2394 H 0.70335 0.46189 0.06277 0.0
H2395 H 0.71854 0.47954 0.08448 0.0
H2396 H 0.73871 0.52464 0.06693 0.0
C2397 C 0.76817 0.55536 0.1166 0.0
C2398 C 0.75037 0.51337 0.10956 0.0
C2399 C 0.77243 0.56807 0.12842 0.0
C2400 C 0.71278 0.47045 0.05998 0.0
C2401 C 0.72149 0.48057 0.07239 0.0
C2402 C 0.74222 0.5212 0.07867 0.0
C2403 C 0.75746 0.5424 0.11931 0.0
C2404 C 0.75209 0.52944 0.10637 0.0
C2405 C 0.73295 0.49265 0.06907 0.0
C2406 C 0.74028 0.50512 0.08184 0.0
H2407 H 0.75056 0.55465 0.15735 0.0
H2408 H 0.74294 0.53256 0.13662 0.0
H2409 H 0.74898 0.54546 0.08796 0.0
H2410 H 0.7297 0.48517 0.02857 0.0
H2411 H 0.74529 0.50248 0.05019 0.0
C2412 C 0.29144 0.99209 0.48334 0.0
C2413 C 0.28241 0.00287 0.4757 0.0
C2414 C 0.29143 0.99116 0.49976 0.0
C2415 C 0.26973 0.00275 0.53466 0.0
H2416 H 0.31099 0.00233 0.55862 0.0
C2417 C 0.27704 0.00711 0.6036 0.0
C2418 C 0.28967 0.01802 0.61095 0.0
C2419 C 0.27594 0.00252 0.58719 0.0
C2420 C 0.29938 0.00245 0.5521 0.0
H2421 H 0.2662 0.02104 0.47928 0.0
H2422 H 0.26624 0.0195 0.50786 0.0
H2423 H 0.3089 0.99947 0.52957 0.0
H2424 H 0.31143 0.03213 0.60699 0.0
H2425 H 0.30933 0.02446 0.5784 0.0
H2426 H 0.26035 0.00652 0.55721 0.0
C2427 C 0.2731 0.01152 0.50116 0.0
C2428 C 0.29814 0.00061 0.53544 0.0
C2429 C 0.27309 0.01243 0.48476 0.0
C2430 C 0.30141 0.0239 0.60164 0.0
C2431 C 0.30032 0.01932 0.58528 0.0
C2432 C 0.27097 0.00461 0.55133 0.0
C2433 C 0.2824 0.00101 0.50889 0.0
C2434 C 0.28336 0.00109 0.52653 0.0
C2435 C 0.2875 0.0087 0.57783 0.0
C2436 C 0.28587 0.00484 0.56023 0.0
H2437 H 0.29857 0.98441 0.47663 0.0
H2438 H 0.29856 0.98278 0.50533 0.0
H2439 H 0.25813 0.00293 0.52814 0.0
H2440 H 0.26779 0.00242 0.61046 0.0
H2441 H 0.26599 0.99421 0.58182 0.0
C2442 C 0.22962 0.06702 0.85578 0.0
C2443 C 0.23468 0.05285 0.84882 0.0
C2444 C 0.23155 0.07066 0.87238 0.0
C2445 C 0.2379 0.05211 0.91 0.0
H2446 H 0.25886 0.09348 0.92759 0.0
C2447 C 0.2809 0.0778 0.9691 0.0
C2448 C 0.27316 0.06948 0.98031 0.0
C2449 C 0.27311 0.07886 0.95398 0.0
C2450 C 0.25291 0.08191 0.92286 0.0
H2451 H 0.24519 0.03114 0.85372 0.0
H2452 H 0.2486 0.03747 0.88256 0.0
H2453 H 0.25095 0.08841 0.89888 0.0
H2454 H 0.25081 0.05715 0.98519 0.0
H2455 H 0.23707 0.05928 0.95893 0.0
H2456 H 0.24053 0.04523 0.93367 0.0
C2457 C 0.24312 0.04578 0.87527 0.0
C2458 C 0.24827 0.07906 0.90646 0.0
C2459 C 0.24133 0.04222 0.85875 0.0
C2460 C 0.25709 0.06344 0.97665 0.0
C2461 C 0.24927 0.0646 0.9616 0.0
C2462 C 0.24249 0.05495 0.92635 0.0
C2463 C 0.23837 0.06007 0.88227 0.0
C2464 C 0.24114 0.06397 0.89982 0.0
C2465 C 0.25741 0.07169 0.94985 0.0
C2466 C 0.25042 0.06975 0.93293 0.0
H2467 H 0.22451 0.07544 0.84837 0.0
H2468 H 0.22773 0.08173 0.87747 0.0
H2469 H 0.23224 0.04043 0.90525 0.0
H2470 H 0.29332 0.08247 0.97161 0.0
H2471 H 0.27978 0.0843 0.9452 0.0
C2472 C 0.54599 0.72144 0.42753 0.0
C2473 C 0.55369 0.70768 0.42996 0.0
C2474 C 0.53134 0.72348 0.43345 0.0
C2475 C 0.50382 0.70892 0.46201 0.0
H2476 H 0.47242 0.7264 0.43405 0.0
C2477 C 0.43614 0.70846 0.47108 0.0
C2478 C 0.42883 0.72207 0.46722 0.0
C2479 C 0.45211 0.7071 0.46841 0.0
C2480 C 0.48111 0.72169 0.4421 0.0
H2481 H 0.55216 0.68548 0.44101 0.0
H2482 H 0.52633 0.68881 0.45091 0.0
H2483 H 0.4987 0.72313 0.42558 0.0
H2484 H 0.43277 0.74545 0.45884 0.0
H2485 H 0.46053 0.74313 0.45428 0.0
H2486 H 0.4859 0.70724 0.4784 0.0
C2487 C 0.53175 0.69813 0.44458 0.0
C2488 C 0.49621 0.71983 0.43725 0.0
C2489 C 0.54647 0.69613 0.43872 0.0
C2490 C 0.43801 0.73468 0.46161 0.0
C2491 C 0.45389 0.73334 0.45897 0.0
C2492 C 0.48861 0.71071 0.46684 0.0
C2493 C 0.52392 0.71175 0.44185 0.0
C2494 C 0.50781 0.71353 0.44717 0.0
C2495 C 0.46098 0.71935 0.46186 0.0
C2496 C 0.47715 0.71725 0.45697 0.0
H2497 H 0.55106 0.73052 0.4207 0.0
H2498 H 0.52579 0.73424 0.43133 0.0
H2499 H 0.51251 0.70414 0.46999 0.0
H2500 H 0.42931 0.69854 0.47538 0.0
H2501 H 0.45725 0.69617 0.47073 0.0
C2502 C 0.85364 0.25751 0.02751 0.0
C2503 C 0.84629 0.24381 0.03312 0.0
C2504 C 0.86998 0.26176 0.03103 0.0
C2505 C 0.90494 0.25654 0.05852 0.0
H2506 H 0.92828 0.26917 0.02354 0.0
C2507 C 0.97427 0.26679 0.062 0.0
C2508 C 0.98073 0.27896 0.05352 0.0
C2509 C 0.95773 0.26291 0.06097 0.0
C2510 C 0.92193 0.26591 0.03351 0.0
H2511 H 0.85027 0.224 0.04707 0.0
H2512 H 0.87902 0.23143 0.05315 0.0
H2513 H 0.89977 0.2613 0.01882 0.0
H2514 H 0.97507 0.29738 0.03834 0.0
H2515 H 0.94627 0.29091 0.03682 0.0
H2516 H 0.92721 0.26124 0.07323 0.0
C2517 C 0.87204 0.23888 0.04609 0.0
C2518 C 0.90559 0.26135 0.03078 0.0
C2519 C 0.85564 0.23455 0.04249 0.0
C2520 C 0.97038 0.28777 0.04477 0.0
C2521 C 0.95391 0.28399 0.04384 0.0
C2522 C 0.92136 0.26118 0.06129 0.0
C2523 C 0.87939 0.25244 0.04024 0.0
C2524 C 0.89687 0.25674 0.04326 0.0
C2525 C 0.9474 0.2712 0.05152 0.0
C2526 C 0.93 0.26607 0.04882 0.0
H2527 H 0.84682 0.2648 0.02011 0.0
H2528 H 0.87528 0.27238 0.0265 0.0
H2529 H 0.89849 0.25313 0.06839 0.0
H2530 H 0.98203 0.25978 0.06877 0.0
H2531 H 0.9531 0.25296 0.06698 0.0
C2532 C 0.14047 0.74056 0.58461 0.0
C2533 C 0.14863 0.75582 0.58474 0.0
C2534 C 0.12808 0.73509 0.5728 0.0
C2535 C 0.11082 0.74177 0.53243 0.0
H2536 H 0.07392 0.7169 0.54473 0.0
C2537 C 0.05244 0.72099 0.49047 0.0
C2538 C 0.04589 0.70527 0.49148 0.0
C2539 C 0.06555 0.72775 0.50102 0.0
C2540 C 0.0842 0.72372 0.54109 0.0
H2541 H 0.15024 0.77722 0.5724 0.0
H2542 H 0.12828 0.76781 0.55199 0.0
H2543 H 0.0953 0.72787 0.565 0.0
H2544 H 0.04865 0.68394 0.50349 0.0
H2545 H 0.07134 0.69571 0.52186 0.0
H2546 H 0.09947 0.73764 0.50846 0.0
C2547 C 0.13163 0.76001 0.56094 0.0
C2548 C 0.09648 0.72999 0.55269 0.0
C2549 C 0.14408 0.76548 0.57275 0.0
C2550 C 0.05318 0.69621 0.50268 0.0
C2551 C 0.06617 0.70294 0.5132 0.0
C2552 C 0.09843 0.73556 0.52079 0.0
C2553 C 0.12345 0.74476 0.56086 0.0
C2554 C 0.11005 0.73889 0.5485 0.0
C2555 C 0.07227 0.71888 0.51275 0.0
C2556 C 0.08512 0.72626 0.52499 0.0
H2557 H 0.14351 0.73287 0.59375 0.0
H2558 H 0.12221 0.72319 0.57298 0.0
H2559 H 0.12116 0.74848 0.52878 0.0
H2560 H 0.04704 0.72827 0.48198 0.0
H2561 H 0.07002 0.74007 0.50041 0.0
C2562 C 0.50536 0.30618 0.98907 0.0
C2563 C 0.49448 0.31778 0.98817 0.0
C2564 C 0.5217 0.31043 0.98896 0.0
C2565 C 0.55082 0.34386 0.00238 0.0
H2566 H 0.58013 0.31712 0.98291 0.0
C2567 C 0.62259 0.33482 0.00577 0.0
C2568 C 0.62507 0.33272 0.02212 0.0
C2569 C 0.60737 0.33689 0.99877 0.0
C2570 C 0.57212 0.32491 0.98818 0.0
H2571 H 0.49223 0.34274 0.98517 0.0
H2572 H 0.52085 0.3502 0.98549 0.0
H2573 H 0.55153 0.31231 0.97439 0.0
H2574 H 0.61347 0.33213 0.04402 0.0
H2575 H 0.58733 0.3364 0.03197 0.0
H2576 H 0.5713 0.35581 0.01686 0.0
C2577 C 0.51666 0.33785 0.98636 0.0
C2578 C 0.55577 0.32207 0.9834 0.0
C2579 C 0.50029 0.33357 0.98628 0.0
C2580 C 0.61222 0.33397 0.03149 0.0
C2581 C 0.59714 0.33635 0.02456 0.0
C2582 C 0.56714 0.34656 0.0073 0.0
C2583 C 0.52754 0.32639 0.98808 0.0
C2584 C 0.54493 0.3312 0.99081 0.0
C2585 C 0.59445 0.3373 0.00807 0.0
C2586 C 0.57787 0.33679 0.0006 0.0
H2587 H 0.5014 0.29396 0.99074 0.0
H2588 H 0.52983 0.30138 0.99051 0.0
H2589 H 0.54274 0.35101 0.00839 0.0
H2590 H 0.63227 0.33428 0.99824 0.0
H2591 H 0.60559 0.33772 0.98603 0.0
C2592 C 0.41699 0.53856 0.71901 0.0
C2593 C 0.42176 0.5482 0.70725 0.0
C2594 C 0.42301 0.52386 0.72045 0.0
C2595 C 0.45519 0.49935 0.70887 0.0
H2596 H 0.42448 0.46434 0.7157 0.0
C2597 C 0.46644 0.43227 0.70062 0.0
C2598 C 0.45995 0.42236 0.71138 0.0
C2599 C 0.46347 0.44833 0.70117 0.0
C2600 C 0.43328 0.47402 0.71402 0.0
H2601 H 0.43712 0.55015 0.68816 0.0
H2602 H 0.44729 0.52427 0.69038 0.0
H2603 H 0.41603 0.49094 0.71466 0.0
H2604 H 0.44637 0.42175 0.7319 0.0
H2605 H 0.44129 0.44969 0.73294 0.0
H2606 H 0.47237 0.48218 0.70796 0.0
C2607 C 0.439 0.52818 0.6986 0.0
C2608 C 0.42843 0.4893 0.71343 0.0
C2609 C 0.43301 0.54293 0.6972 0.0
C2610 C 0.45123 0.42902 0.72324 0.0
C2611 C 0.4483 0.44502 0.72381 0.0
C2612 C 0.46005 0.48399 0.70941 0.0
C2613 C 0.4339 0.51837 0.7101 0.0
C2614 C 0.43931 0.50218 0.7109 0.0
C2615 C 0.45399 0.45475 0.71252 0.0
C2616 C 0.44914 0.47117 0.71205 0.0
H2617 H 0.40824 0.54215 0.72686 0.0
H2618 H 0.419 0.51673 0.7296 0.0
H2619 H 0.46391 0.50904 0.70703 0.0
H2620 H 0.47317 0.42742 0.69133 0.0
H2621 H 0.46797 0.45552 0.69228 0.0
C2622 C 0.03453 0.85993 0.21959 0.0
C2623 C 0.04179 0.85082 0.23078 0.0
C2624 C 0.03823 0.87647 0.22068 0.0
C2625 C 0.06721 0.90983 0.24029 0.0
H2626 H 0.03085 0.93443 0.23546 0.0
C2627 C 0.0673 0.97507 0.26736 0.0
C2628 C 0.05835 0.98535 0.25888 0.0
C2629 C 0.06722 0.95905 0.26156 0.0
C2630 C 0.04119 0.92779 0.23657 0.0
H2631 H 0.05923 0.85189 0.2514 0.0
H2632 H 0.06531 0.88074 0.25361 0.0
H2633 H 0.02705 0.90561 0.2296 0.0
H2634 H 0.04326 0.98717 0.2371 0.0
H2635 H 0.04312 0.95919 0.22698 0.0
H2636 H 0.08123 0.9321 0.24778 0.0
C2637 C 0.05689 0.87511 0.24387 0.0
C2638 C 0.03901 0.91123 0.23319 0.0
C2639 C 0.05323 0.85858 0.24274 0.0
C2640 C 0.05002 0.97946 0.24406 0.0
C2641 C 0.04994 0.96345 0.23827 0.0
C2642 C 0.06938 0.92643 0.24372 0.0
C2643 C 0.04923 0.88429 0.23302 0.0
C2644 C 0.05194 0.90201 0.23523 0.0
C2645 C 0.0582 0.95297 0.24715 0.0
C2646 C 0.05635 0.93556 0.24211 0.0
H2647 H 0.0256 0.85436 0.21027 0.0
H2648 H 0.03227 0.88315 0.212 0.0
H2649 H 0.07746 0.90311 0.24174 0.0
H2650 H 0.07372 0.9792 0.27888 0.0
H2651 H 0.07358 0.95125 0.26877 0.0
C2652 C 0.58382 0.13377 0.76122 0.0
C2653 C 0.58332 0.14425 0.77501 0.0
C2654 C 0.57165 0.12149 0.75668 0.0
C2655 C 0.52972 0.1085 0.76171 0.0
H2656 H 0.54141 0.06733 0.74525 0.0
C2657 C 0.48546 0.05948 0.72512 0.0
C2658 C 0.48815 0.04347 0.72635 0.0
C2659 C 0.4959 0.07178 0.73359 0.0
C2660 C 0.5379 0.07866 0.75004 0.0
H2661 H 0.56946 0.15018 0.7947 0.0
H2662 H 0.5483 0.12851 0.7869 0.0
H2663 H 0.56218 0.08866 0.75485 0.0
H2664 H 0.50293 0.02769 0.73835 0.0
H2665 H 0.52094 0.04912 0.75341 0.0
H2666 H 0.50538 0.0984 0.75691 0.0
C2667 C 0.55808 0.1299 0.77955 0.0
C2668 C 0.54984 0.09098 0.75532 0.0
C2669 C 0.57029 0.1422 0.78411 0.0
C2670 C 0.50074 0.03996 0.73705 0.0
C2671 C 0.51108 0.05222 0.74558 0.0
C2672 C 0.51774 0.09615 0.7564 0.0
C2673 C 0.55867 0.11936 0.76582 0.0
C2674 C 0.5459 0.1061 0.76102 0.0
C2675 C 0.50915 0.06827 0.74349 0.0
C2676 C 0.5217 0.08112 0.75036 0.0
H2677 H 0.59376 0.13492 0.75403 0.0
H2678 H 0.57236 0.11371 0.74592 0.0
H2679 H 0.5263 0.12005 0.76595 0.0
H2680 H 0.47591 0.0625 0.71685 0.0
H2681 H 0.49411 0.084 0.73162 0.0
C2682 C 0.99427 0.48052 0.2863 0.0
C2683 C 0.0052 0.47317 0.27722 0.0
C2684 C 0.99344 0.49699 0.28689 0.0
C2685 C 0.00311 0.53241 0.29522 0.0
H2686 H 0.00886 0.55601 0.25855 0.0
C2687 C 0.02458 0.59924 0.3014 0.0
C2688 C 0.01795 0.60892 0.29041 0.0
C2689 C 0.02081 0.58274 0.29943 0.0
C2690 C 0.00703 0.54959 0.26886 0.0
H2691 H 0.02368 0.47736 0.26146 0.0
H2692 H 0.02227 0.50605 0.26252 0.0
H2693 H 0.00574 0.52688 0.25511 0.0
H2694 H 0.00199 0.6089 0.26884 0.0
H2695 H 0.99528 0.57994 0.26545 0.0
H2696 H 0.00446 0.55509 0.30898 0.0
C2697 C 0.01415 0.49907 0.26899 0.0
C2698 C 0.00542 0.53291 0.26692 0.0
C2699 C 0.01497 0.4826 0.26839 0.0
C2700 C 0.00723 0.60174 0.27753 0.0
C2701 C 0.0035 0.58517 0.27552 0.0
C2702 C 0.00474 0.54907 0.29715 0.0
C2703 C 0.00354 0.50648 0.27842 0.0
C2704 C 0.00372 0.52414 0.28013 0.0
C2705 C 0.01032 0.57549 0.28642 0.0
C2706 C 0.00701 0.55785 0.28406 0.0
H2707 H 0.9864 0.47353 0.29303 0.0
H2708 H 0.98496 0.50231 0.29408 0.0
H2709 H 0.00195 0.52604 0.30566 0.0
H2710 H 0.0327 0.60444 0.31156 0.0
H2711 H 0.02642 0.57561 0.30794 0.0
C2712 C 0.35976 0.64377 0.32586 0.0
C2713 C 0.35131 0.6302 0.33064 0.0
C2714 C 0.37547 0.64327 0.32201 0.0
C2715 C 0.41054 0.62098 0.32921 0.0
H2716 H 0.42611 0.6424 0.29418 0.0
C2717 C 0.47426 0.61595 0.31152 0.0
C2718 C 0.48277 0.63013 0.30831 0.0
C2719 C 0.45789 0.61537 0.313 0.0
C2720 C 0.42197 0.63647 0.30409 0.0
H2721 H 0.35252 0.60531 0.33447 0.0
H2722 H 0.37986 0.60444 0.32775 0.0
H2723 H 0.3981 0.64256 0.2991 0.0
H2724 H 0.48089 0.65464 0.30349 0.0
H2725 H 0.45231 0.65376 0.30628 0.0
H2726 H 0.43438 0.61503 0.33434 0.0
C2727 C 0.37448 0.61556 0.32728 0.0
C2728 C 0.40592 0.63657 0.30691 0.0
C2729 C 0.3588 0.61605 0.33113 0.0
C2730 C 0.47457 0.64359 0.30607 0.0
C2731 C 0.4582 0.64303 0.30756 0.0
C2732 C 0.42656 0.62089 0.32641 0.0
C2733 C 0.38307 0.6292 0.32284 0.0
C2734 C 0.40003 0.62886 0.31954 0.0
C2735 C 0.44969 0.62897 0.31126 0.0
C2736 C 0.4325 0.62867 0.31384 0.0
H2737 H 0.35441 0.6549 0.32553 0.0
H2738 H 0.38181 0.65405 0.31881 0.0
H2739 H 0.40647 0.61516 0.33922 0.0
H2740 H 0.48035 0.60538 0.31311 0.0
H2741 H 0.45165 0.60428 0.31557 0.0
C2742 C 0.13332 0.32852 0.75535 0.0
C2743 C 0.14295 0.33146 0.74301 0.0
C2744 C 0.11668 0.32745 0.75256 0.0
C2745 C 0.08335 0.32154 0.72022 0.0
H2746 H 0.06019 0.34339 0.75171 0.0
C2747 C 0.01844 0.33512 0.70608 0.0
C2748 C 0.00779 0.33235 0.71761 0.0
C2749 C 0.03479 0.33437 0.70964 0.0
C2750 C 0.06646 0.33706 0.74289 0.0
H2751 H 0.14258 0.33508 0.71791 0.0
H2752 H 0.11361 0.33355 0.71312 0.0
H2753 H 0.08895 0.34267 0.75694 0.0
H2754 H 0.00606 0.32791 0.74221 0.0
H2755 H 0.03468 0.32628 0.74842 0.0
H2756 H 0.06087 0.31614 0.70608 0.0
C2757 C 0.1189 0.33192 0.72494 0.0
C2758 C 0.08294 0.33662 0.74589 0.0
C2759 C 0.13553 0.33299 0.72773 0.0
C2760 C 0.01397 0.32964 0.733 0.0
C2761 C 0.03034 0.32887 0.73658 0.0
C2762 C 0.06688 0.32201 0.71721 0.0
C2763 C 0.10927 0.32929 0.73735 0.0
C2764 C 0.09161 0.32899 0.73452 0.0
C2765 C 0.04091 0.33105 0.72486 0.0
C2766 C 0.05828 0.32993 0.72843 0.0
H2767 H 0.13864 0.32743 0.7673 0.0
H2768 H 0.10962 0.32524 0.76234 0.0
H2769 H 0.08961 0.31531 0.71133 0.0
H2770 H 0.01418 0.33766 0.6942 0.0
H2771 H 0.04265 0.33646 0.70046 0.0
C2772 C 0.77526 0.98396 0.66831 0.0
C2773 C 0.76871 0.97809 0.65277 0.0
C2774 C 0.79117 0.98219 0.6734 0.0
C2775 C 0.8241 0.95799 0.66442 0.0
H2776 H 0.85126 0.99338 0.68798 0.0
C2777 C 0.8887 0.95107 0.68881 0.0
C2778 C 0.90027 0.96323 0.6861 0.0
C2779 C 0.87246 0.95306 0.68625 0.0
C2780 C 0.84383 0.9834 0.68138 0.0
H2781 H 0.77367 0.96554 0.63052 0.0
H2782 H 0.80139 0.96265 0.63931 0.0
H2783 H 0.82322 0.99642 0.68023 0.0
H2784 H 0.90415 0.98731 0.67953 0.0
H2785 H 0.87573 0.99084 0.67489 0.0
H2786 H 0.84472 0.94509 0.66519 0.0
C2787 C 0.79424 0.96854 0.6476 0.0
C2788 C 0.82774 0.98509 0.67707 0.0
C2789 C 0.7784 0.97036 0.6425 0.0
C2790 C 0.89538 0.97771 0.6815 0.0
C2791 C 0.87915 0.97974 0.67896 0.0
C2792 C 0.84014 0.95628 0.66877 0.0
C2793 C 0.80083 0.97442 0.6631 0.0
C2794 C 0.81773 0.97245 0.6684 0.0
C2795 C 0.86749 0.96733 0.68106 0.0
C2796 C 0.85024 0.969 0.67718 0.0
H2797 H 0.76814 0.99007 0.67647 0.0
H2798 H 0.79587 0.98676 0.68545 0.0
H2799 H 0.81667 0.94796 0.6579 0.0
H2800 H 0.89222 0.9399 0.69265 0.0
H2801 H 0.8638 0.9434 0.68826 0.0
C2802 C 0.71606 0.02864 0.28665 0.0
C2803 C 0.72374 0.01463 0.28448 0.0
C2804 C 0.70001 0.02787 0.28958 0.0
C2805 C 0.66804 0.00202 0.30406 0.0
H2806 H 0.63967 0.02679 0.28009 0.0
C2807 C 0.60191 0.00559 0.31579 0.0
C2808 C 0.5908 0.00376 0.3022 0.0
C2809 C 0.6183 0.00736 0.31427 0.0
C2810 C 0.64744 0.01977 0.28684 0.0
H2811 H 0.72036 0.98879 0.2836 0.0
H2812 H 0.69254 0.98752 0.28909 0.0
H2813 H 0.66807 0.02901 0.27642 0.0
H2814 H 0.58804 0.00292 0.27641 0.0
H2815 H 0.61666 0.00606 0.2737 0.0
H2816 H 0.64735 0.99262 0.31432 0.0
C2817 C 0.69899 0.9991 0.2886 0.0
C2818 C 0.66372 0.02117 0.28486 0.0
C2819 C 0.71498 0.99985 0.2855 0.0
C2820 C 0.59636 0.00413 0.28707 0.0
C2821 C 0.61273 0.00603 0.28554 0.0
C2822 C 0.65177 0.00073 0.30614 0.0
C2823 C 0.69131 0.01309 0.29058 0.0
C2824 C 0.67417 0.01219 0.29333 0.0
C2825 C 0.62388 0.00762 0.29912 0.0
C2826 C 0.64127 0.00947 0.29743 0.0
H2827 H 0.72248 0.04025 0.28625 0.0
H2828 H 0.69448 0.03887 0.29131 0.0
H2829 H 0.67581 0.99505 0.31084 0.0
H2830 H 0.5979 0.00562 0.32761 0.0
H2831 H 0.6266 0.00877 0.32495 0.0
C2832 C 0.32485 0.35634 0.63624 0.0
C2833 C 0.33498 0.35292 0.64934 0.0
C2834 C 0.32123 0.37196 0.63464 0.0
C2835 C 0.33716 0.41371 0.64768 0.0
H2836 H 0.29582 0.42336 0.62942 0.0
C2837 C 0.32285 0.47844 0.6421 0.0
C2838 C 0.3152 0.48144 0.62739 0.0
C2839 C 0.3241 0.46277 0.64574 0.0
C2840 C 0.30746 0.42083 0.63445 0.0
H2841 H 0.34865 0.36309 0.67142 0.0
H2842 H 0.34218 0.39032 0.66876 0.0
H2843 H 0.29994 0.39594 0.63433 0.0
H2844 H 0.30255 0.47059 0.60511 0.0
H2845 H 0.30472 0.4431 0.61142 0.0
H2846 H 0.34471 0.43855 0.64773 0.0
C2847 C 0.33732 0.381 0.65951 0.0
C2848 C 0.30983 0.40512 0.63725 0.0
C2849 C 0.341 0.36539 0.66107 0.0
C2850 C 0.30847 0.46852 0.61655 0.0
C2851 C 0.30966 0.45283 0.6202 0.0
C2852 C 0.33477 0.4294 0.64495 0.0
C2853 C 0.32761 0.38454 0.64613 0.0
C2854 C 0.32475 0.40134 0.64381 0.0
C2855 C 0.31768 0.44978 0.63476 0.0
C2856 C 0.31993 0.43315 0.63821 0.0
H2857 H 0.32019 0.34703 0.6269 0.0
H2858 H 0.31389 0.37426 0.62408 0.0
H2859 H 0.3489 0.41122 0.65245 0.0
H2860 H 0.32809 0.48821 0.65069 0.0
H2861 H 0.33016 0.46082 0.65714 0.0
C2862 C 0.2861 0.71758 0.02203 0.0
C2863 C 0.28478 0.72506 0.00784 0.0
C2864 C 0.28832 0.70139 0.02164 0.0
C2865 C 0.30139 0.66766 0.9969 0.0
H2866 H 0.27447 0.64188 0.02151 0.0
C2867 C 0.30753 0.60061 0.00405 0.0
C2868 C 0.29318 0.5906 0.00288 0.0
C2869 C 0.30731 0.61716 0.00426 0.0
C2870 C 0.28202 0.64891 0.01452 0.0
H2871 H 0.28486 0.72132 0.98211 0.0
H2872 H 0.289 0.69312 0.98149 0.0
H2873 H 0.27297 0.6706 0.02291 0.0
H2874 H 0.26741 0.58996 0.00096 0.0
H2875 H 0.267 0.61881 0.00127 0.0
H2876 H 0.31027 0.64584 0.98835 0.0
C2877 C 0.2884 0.69984 0.99292 0.0
C2878 C 0.2813 0.66538 0.01546 0.0
C2879 C 0.28605 0.71601 0.99329 0.0
C2880 C 0.27863 0.5974 0.00179 0.0
C2881 C 0.27841 0.61391 0.00208 0.0
C2882 C 0.3022 0.65115 0.99604 0.0
C2883 C 0.2894 0.69232 0.00707 0.0
C2884 C 0.29086 0.67493 0.00657 0.0
C2885 C 0.29274 0.62399 0.00351 0.0
C2886 C 0.29239 0.64158 0.00471 0.0
H2887 H 0.28551 0.72426 0.03347 0.0
H2888 H 0.28932 0.69598 0.03277 0.0
H2889 H 0.30899 0.67474 0.99001 0.0
H2890 H 0.31889 0.59562 0.00511 0.0
H2891 H 0.31854 0.62464 0.00551 0.0
C2892 C 0.76381 0.13221 0.32561 0.0
C2893 C 0.75217 0.14271 0.32844 0.0
C2894 C 0.75985 0.11569 0.32419 0.0
C2895 C 0.73037 0.08561 0.33633 0.0
H2896 H 0.74804 0.05663 0.30597 0.0
C2897 C 0.7112 0.01788 0.32863 0.0
C2898 C 0.72318 0.0076 0.32645 0.0
C2899 C 0.71455 0.03434 0.32842 0.0
C2900 C 0.74315 0.06457 0.31463 0.0
H2901 H 0.72715 0.14406 0.33162 0.0
H2902 H 0.72019 0.11526 0.32888 0.0
H2903 H 0.75399 0.08543 0.30571 0.0
H2904 H 0.74817 0.00659 0.32329 0.0
H2905 H 0.75403 0.03538 0.32274 0.0
H2906 H 0.71967 0.06482 0.34538 0.0
C2907 C 0.73243 0.1198 0.32794 0.0
C2908 C 0.74653 0.08106 0.31445 0.0
C2909 C 0.73638 0.13632 0.32933 0.0
C2910 C 0.73865 0.01421 0.32458 0.0
C2911 C 0.74198 0.03067 0.32425 0.0
C2912 C 0.72702 0.06915 0.33652 0.0
C2913 C 0.74416 0.10929 0.3256 0.0
C2914 C 0.74021 0.09177 0.32534 0.0
C2915 C 0.72994 0.04092 0.3261 0.0
C2916 C 0.7334 0.05843 0.32572 0.0
H2917 H 0.77605 0.13676 0.32469 0.0
H2918 H 0.7692 0.10793 0.32248 0.0
H2919 H 0.72554 0.09351 0.34506 0.0
H2920 H 0.69917 0.01329 0.33028 0.0
H2921 H 0.70496 0.04187 0.32972 0.0
C2922 C 0.65834 0.76999 0.98562 0.0
C2923 C 0.64709 0.76149 0.97394 0.0
C2924 C 0.6625 0.78633 0.98516 0.0
C2925 C 0.64754 0.8217 0.96802 0.0
H2926 H 0.69067 0.84102 0.98092 0.0
C2927 C 0.66754 0.8874 0.95997 0.0
C2928 C 0.6765 0.89633 0.97311 0.0
C2929 C 0.66435 0.87086 0.95979 0.0
C2930 C 0.67854 0.8358 0.97739 0.0
H2931 H 0.63189 0.76327 0.95225 0.0
H2932 H 0.63937 0.79163 0.95121 0.0
H2933 H 0.68459 0.81224 0.98088 0.0
H2934 H 0.68945 0.89509 0.99616 0.0
H2935 H 0.68401 0.86611 0.99583 0.0
H2936 H 0.64156 0.84526 0.96438 0.0
C2937 C 0.64466 0.78585 0.96101 0.0
C2938 C 0.67504 0.81931 0.9774 0.0
C2939 C 0.64041 0.76957 0.96156 0.0
C2940 C 0.6825 0.88842 0.98591 0.0
C2941 C 0.67944 0.87187 0.98568 0.0
C2942 C 0.65107 0.83815 0.96789 0.0
C2943 C 0.6556 0.79451 0.97292 0.0
C2944 C 0.65947 0.81204 0.97274 0.0
C2945 C 0.67024 0.86292 0.97266 0.0
C2946 C 0.6666 0.84539 0.9726 0.0
H2947 H 0.66356 0.76411 0.9954 0.0
H2948 H 0.67081 0.79262 0.99464 0.0
H2949 H 0.63535 0.81661 0.96467 0.0
H2950 H 0.66293 0.89322 0.94987 0.0
H2951 H 0.6574 0.86426 0.9495 0.0
C2952 C 0.64307 0.32729 0.36945 0.0
C2953 C 0.62884 0.32567 0.35922 0.0
C2954 C 0.64302 0.32328 0.38515 0.0
C2955 C 0.61575 0.31819 0.41658 0.0
H2956 H 0.6515 0.30015 0.43778 0.0
C2957 C 0.62484 0.31824 0.48499 0.0
C2958 C 0.63123 0.30516 0.49137 0.0
C2959 C 0.62384 0.31946 0.46856 0.0
C2960 C 0.64132 0.30501 0.43201 0.0
H2961 H 0.60353 0.31792 0.35721 0.0
H2962 H 0.60346 0.31069 0.38448 0.0
H2963 H 0.65117 0.30394 0.40954 0.0
H2964 H 0.64131 0.28298 0.4857 0.0
H2965 H 0.63928 0.28487 0.45686 0.0
H2966 H 0.60576 0.31901 0.43896 0.0
C2967 C 0.61461 0.31543 0.38054 0.0
C2968 C 0.64123 0.30738 0.41584 0.0
C2969 C 0.61465 0.31953 0.36489 0.0
C2970 C 0.63634 0.29317 0.48101 0.0
C2971 C 0.63528 0.29434 0.46455 0.0
C2972 C 0.6158 0.31575 0.43272 0.0
C2973 C 0.62875 0.31748 0.39095 0.0
C2974 C 0.62852 0.31415 0.40795 0.0
C2975 C 0.62915 0.30759 0.45812 0.0
C2976 C 0.62867 0.3093 0.4407 0.0
H2977 H 0.65417 0.33216 0.3655 0.0
H2978 H 0.6541 0.32524 0.39287 0.0
H2979 H 0.60584 0.32359 0.41099 0.0
H2980 H 0.62089 0.3277 0.49274 0.0
H2981 H 0.61928 0.32995 0.46411 0.0
C2982 C 0.99868 0.29069 0.71433 0.0
C2983 C 0.0138 0.28928 0.72219 0.0
C2984 C 0.99709 0.29402 0.69841 0.0
C2985 C 0.02017 0.30977 0.66688 0.0
H2986 H 0.98482 0.2879 0.63842 0.0
C2987 C 0.00975 0.32246 0.60088 0.0
C2988 C 0.00556 0.3091 0.58969 0.0
C2989 C 0.0098 0.32097 0.61723 0.0
C2990 C 0.99481 0.29405 0.64618 0.0
H2991 H 0.03913 0.29052 0.71946 0.0
H2992 H 0.03632 0.2959 0.69159 0.0
H2993 H 0.98717 0.28331 0.66649 0.0
H2994 H 0.99754 0.28386 0.58665 0.0
H2995 H 0.99793 0.2811 0.61517 0.0
H2996 H 0.02814 0.32005 0.64643 0.0
C2997 C 0.02569 0.29462 0.69779 0.0
C2998 C 0.99605 0.29158 0.66235 0.0
C2999 C 0.02729 0.29133 0.71373 0.0
C3000 C 0.00097 0.29431 0.59508 0.0
C3001 C 0.00106 0.29279 0.61141 0.0
C3002 C 0.01895 0.31221 0.6507 0.0
C3003 C 0.01056 0.29601 0.68992 0.0
C3004 C 0.00884 0.29927 0.67287 0.0
C3005 C 0.0056 0.30607 0.6227 0.0
C3006 C 0.00636 0.30424 0.6401 0.0
H3007 H 0.98801 0.28901 0.7204 0.0
H3008 H 0.98527 0.29519 0.69281 0.0
H3009 H 0.03005 0.31608 0.67467 0.0
H3010 H 0.01312 0.33402 0.59694 0.0
H3011 H 0.01309 0.33149 0.62557 0.0
C3012 C 0.32516 0.73943 0.13558 0.0
C3013 C 0.32479 0.75524 0.14218 0.0
C3014 C 0.32407 0.73574 0.11903 0.0
C3015 C 0.33117 0.75446 0.08226 0.0
H3016 H 0.30811 0.71541 0.06106 0.0
C3017 C 0.32469 0.74039 0.01372 0.0
C3018 C 0.32646 0.72469 0.00775 0.0
C3019 C 0.32358 0.74425 0.02997 0.0
C3020 C 0.31471 0.7263 0.06685 0.0
H3021 H 0.32221 0.77945 0.13656 0.0
H3022 H 0.32023 0.77301 0.10771 0.0
H3023 H 0.30725 0.72184 0.08971 0.0
H3024 H 0.32938 0.7008 0.0144 0.0
H3025 H 0.32771 0.70759 0.04274 0.0
H3026 H 0.33875 0.75886 0.05946 0.0
C3027 C 0.32171 0.76351 0.11532 0.0
C3028 C 0.31421 0.72998 0.08325 0.0
C3029 C 0.32282 0.7672 0.13185 0.0
C3030 C 0.32771 0.71298 0.01849 0.0
C3031 C 0.32667 0.71684 0.03477 0.0
C3032 C 0.33167 0.75078 0.06588 0.0
C3033 C 0.32255 0.74778 0.10871 0.0
C3034 C 0.32251 0.74407 0.09116 0.0
C3035 C 0.32451 0.7325 0.04068 0.0
C3036 C 0.32353 0.73661 0.058 0.0
H3037 H 0.32685 0.72998 0.14321 0.0
H3038 H 0.32495 0.72353 0.11435 0.0
H3039 H 0.33793 0.76527 0.08801 0.0
H3040 H 0.32406 0.74968 0.00574 0.0
H3041 H 0.32185 0.7564 0.03413 0.0
C3042 C 0.96481 0.63744 0.77769 0.0
C3043 C 0.97316 0.64742 0.76816 0.0
C3044 C 0.96395 0.64218 0.79382 0.0
C3045 C 0.98444 0.66868 0.82776 0.0
H3046 H 0.94431 0.66173 0.84616 0.0
C3047 C 0.97724 0.69188 0.89286 0.0
C3048 C 0.96787 0.682 0.90162 0.0
C3049 C 0.97761 0.68818 0.87645 0.0
C3050 C 0.95566 0.66359 0.84127 0.0
H3051 H 0.98721 0.67017 0.76812 0.0
H3052 H 0.98567 0.67849 0.79637 0.0
H3053 H 0.94548 0.65435 0.81777 0.0
H3054 H 0.95211 0.66017 0.90028 0.0
H3055 H 0.95291 0.65352 0.87167 0.0
H3056 H 0.99472 0.67766 0.85127 0.0
C3057 C 0.97984 0.66697 0.79133 0.0
C3058 C 0.95631 0.65939 0.82498 0.0
C3059 C 0.98061 0.66227 0.77514 0.0
C3060 C 0.95915 0.66817 0.89373 0.0
C3061 C 0.95958 0.66441 0.87733 0.0
C3062 C 0.98382 0.6728 0.84407 0.0
C3063 C 0.97148 0.65697 0.80084 0.0
C3064 C 0.97072 0.66184 0.81806 0.0
C3065 C 0.96881 0.67438 0.86847 0.0
C3066 C 0.96943 0.67026 0.85105 0.0
H3067 H 0.95881 0.626 0.77262 0.0
H3068 H 0.95754 0.63415 0.80086 0.0
H3069 H 0.99577 0.67052 0.82282 0.0
H3070 H 0.98429 0.70248 0.8987 0.0
H3071 H 0.98474 0.69621 0.87001 0.0
C3072 C 0.63527 0.35434 0.67801 0.0
C3073 C 0.64355 0.36837 0.67401 0.0
C3074 C 0.62007 0.35462 0.68327 0.0
C3075 C 0.59287 0.38184 0.7006 0.0
H3076 H 0.55974 0.34839 0.68343 0.0
C3077 C 0.52657 0.38652 0.70965 0.0
C3078 C 0.51751 0.37266 0.71288 0.0
C3079 C 0.542 0.38578 0.70513 0.0
C3080 C 0.56889 0.35772 0.6885 0.0
H3081 H 0.64251 0.39377 0.67282 0.0
H3082 H 0.61596 0.39423 0.6818 0.0
H3083 H 0.58672 0.34742 0.67559 0.0
H3084 H 0.51722 0.34711 0.71359 0.0
H3085 H 0.5443 0.34577 0.70591 0.0
H3086 H 0.57508 0.39216 0.71351 0.0
C3087 C 0.62123 0.38301 0.68095 0.0
C3088 C 0.58437 0.35716 0.684 0.0
C3089 C 0.63638 0.38272 0.67564 0.0
C3090 C 0.52403 0.35798 0.71125 0.0
C3091 C 0.53948 0.35722 0.70675 0.0
C3092 C 0.57742 0.38239 0.70512 0.0
C3093 C 0.61284 0.36895 0.68473 0.0
C3094 C 0.59652 0.36926 0.68993 0.0
C3095 C 0.54869 0.37113 0.7037 0.0
C3096 C 0.56521 0.37038 0.69906 0.0
H3097 H 0.64041 0.34307 0.67677 0.0
H3098 H 0.61399 0.34361 0.68624 0.0
H3099 H 0.60201 0.39122 0.70558 0.0
H3100 H 0.52167 0.39794 0.71066 0.0
H3101 H 0.54863 0.39667 0.70259 0.0
C3102 C 0.85522 0.68759 0.25975 0.0
C3103 C 0.84837 0.67437 0.24928 0.0
C3104 C 0.87148 0.68903 0.26516 0.0
C3105 C 0.90996 0.67428 0.25636 0.0
H3106 H 0.92201 0.68509 0.30167 0.0
C3107 C 0.97556 0.67861 0.28377 0.0
C3108 C 0.97812 0.6707 0.29754 0.0
C3109 C 0.9601 0.68106 0.27782 0.0
C3110 C 0.91883 0.68206 0.28899 0.0
H3111 H 0.85332 0.65227 0.23638 0.0
H3112 H 0.88158 0.65487 0.24567 0.0
H3113 H 0.89428 0.68551 0.29093 0.0
H3114 H 0.9667 0.66002 0.31645 0.0
H3115 H 0.93965 0.66407 0.30599 0.0
H3116 H 0.9344 0.67033 0.25448 0.0
C3117 C 0.87445 0.66425 0.24952 0.0
C3118 C 0.90298 0.68246 0.28281 0.0
C3119 C 0.85822 0.66277 0.24417 0.0
C3120 C 0.96501 0.66588 0.30563 0.0
C3121 C 0.94956 0.66835 0.29973 0.0
C3122 C 0.92582 0.67395 0.26252 0.0
C3123 C 0.88124 0.67733 0.26017 0.0
C3124 C 0.89832 0.67831 0.26647 0.0
C3125 C 0.94691 0.67583 0.28566 0.0
C3126 C 0.93037 0.67756 0.27894 0.0
H3127 H 0.84803 0.69685 0.26375 0.0
H3128 H 0.87641 0.69934 0.27323 0.0
H3129 H 0.90677 0.6712 0.24368 0.0
H3130 H 0.98553 0.68276 0.27752 0.0
H3131 H 0.95846 0.68709 0.2671 0.0
C3132 C 0.22901 0.01749 0.32453 0.0
C3133 C 0.23766 0.03101 0.33318 0.0
C3134 C 0.21281 0.01765 0.31947 0.0
C3135 C 0.18105 0.04436 0.31254 0.0
H3136 H 0.15286 0.0084 0.322 0.0
C3137 C 0.11323 0.04716 0.31349 0.0
C3138 C 0.10303 0.03336 0.30798 0.0
C3139 C 0.12977 0.04665 0.31508 0.0
C3140 C 0.16055 0.01843 0.31902 0.0
H3141 H 0.23635 0.05551 0.34261 0.0
H3142 H 0.20811 0.05578 0.33382 0.0
H3143 H 0.18165 0.00792 0.32674 0.0
H3144 H 0.10197 0.00841 0.29921 0.0
H3145 H 0.13092 0.0075 0.30171 0.0
H3146 H 0.15997 0.05493 0.30492 0.0
C3147 C 0.21381 0.04506 0.33094 0.0
C3148 C 0.17707 0.01814 0.32175 0.0
C3149 C 0.22995 0.04487 0.33609 0.0
C3150 C 0.10964 0.01914 0.30369 0.0
C3151 C 0.12618 0.01863 0.30521 0.0
C3152 C 0.16453 0.04461 0.30974 0.0
C3153 C 0.20498 0.03136 0.32283 0.0
C3154 C 0.1875 0.03118 0.31872 0.0
C3155 C 0.13646 0.03236 0.31101 0.0
C3156 C 0.15406 0.03174 0.31314 0.0
H3157 H 0.2346 0.0066 0.32221 0.0
H3158 H 0.20636 0.00696 0.3131 0.0
H3159 H 0.1888 0.0545 0.3099 0.0
H3160 H 0.10839 0.0583 0.3167 0.0
H3161 H 0.1373 0.0574 0.31976 0.0
C3162 C 0.29004 0.03597 0.70846 0.0
C3163 C 0.28279 0.0228 0.71502 0.0
C3164 C 0.30631 0.03703 0.70639 0.0
C3165 C 0.33895 0.01129 0.70193 0.0
H3166 H 0.36589 0.0514 0.70753 0.0
C3167 C 0.4017 0.01687 0.68015 0.0
C3168 C 0.41382 0.02635 0.69006 0.0
C3169 C 0.3858 0.01687 0.68344 0.0
C3170 C 0.35856 0.04008 0.70603 0.0
H3171 H 0.28702 0.00078 0.72523 0.0
H3172 H 0.31544 0.00273 0.72186 0.0
H3173 H 0.33826 0.05082 0.71384 0.0
H3174 H 0.41905 0.04289 0.71134 0.0
H3175 H 0.39125 0.04278 0.71729 0.0
H3176 H 0.35927 0.00047 0.69441 0.0
C3177 C 0.3085 0.01205 0.71794 0.0
C3178 C 0.34267 0.03978 0.70949 0.0
C3179 C 0.29222 0.01091 0.71983 0.0
C3180 C 0.40983 0.03567 0.70343 0.0
C3181 C 0.39393 0.03564 0.70676 0.0
C3182 C 0.35481 0.01159 0.69849 0.0
C3183 C 0.3157 0.02497 0.71091 0.0
C3184 C 0.33268 0.02537 0.70751 0.0
C3185 C 0.38171 0.02623 0.69681 0.0
C3186 C 0.36482 0.02598 0.70048 0.0
H3187 H 0.28304 0.04529 0.7046 0.0
H3188 H 0.31142 0.04706 0.70079 0.0
H3189 H 0.33154 1.00001 0.70001 0.0
H3190 H 0.40453 0.00949 0.66983 0.0
H3191 H 0.37668 0.00961 0.67544 0.0
C3192 C 0.67757 0.63562 0.38547 0.0
C3193 C 0.67699 0.64327 0.37138 0.0
C3194 C 0.683 0.62052 0.38577 0.0
C3195 C 0.68878 0.58461 0.35959 0.0
H3196 H 0.71583 0.57492 0.39628 0.0
C3197 C 0.71739 0.52506 0.36123 0.0
C3198 C 0.71775 0.51801 0.37565 0.0
C3199 C 0.71274 0.54046 0.36049 0.0
C3200 C 0.70814 0.57738 0.38602 0.0
H3201 H 0.68167 0.64102 0.34652 0.0
H3202 H 0.69136 0.61471 0.34709 0.0
H3203 H 0.70736 0.60165 0.39536 0.0
H3204 H 0.71295 0.52108 0.40037 0.0
H3205 H 0.70468 0.54796 0.39912 0.0
H3206 H 0.68949 0.56031 0.35029 0.0
C3207 C 0.68748 0.62036 0.35789 0.0
C3208 C 0.7033 0.59271 0.38549 0.0
C3209 C 0.68208 0.6355 0.3576 0.0
C3210 C 0.71304 0.52644 0.38921 0.0
C3211 C 0.70838 0.54182 0.38848 0.0
C3212 C 0.69362 0.56927 0.36013 0.0
C3213 C 0.68797 0.61268 0.37198 0.0
C3214 C 0.6935 0.59649 0.37231 0.0
C3215 C 0.70822 0.54905 0.37412 0.0
C3216 C 0.7033 0.56544 0.37339 0.0
H3217 H 0.67392 0.64135 0.39635 0.0
H3218 H 0.68307 0.61489 0.39678 0.0
H3219 H 0.68105 0.58707 0.34936 0.0
H3220 H 0.72079 0.51869 0.35057 0.0
H3221 H 0.71286 0.5457 0.34927 0.0
C3222 C 0.70649 0.27641 0.0134 0.0
C3223 C 0.70918 0.27064 0.99787 0.0
C3224 C 0.70282 0.29206 0.01673 0.0
C3225 C 0.68715 0.32568 0.99674 0.0
H3226 H 0.70143 0.34951 0.03765 0.0
C3227 C 0.66551 0.38707 0.01444 0.0
C3228 C 0.67725 0.39891 0.02184 0.0
C3229 C 0.66877 0.37111 0.01248 0.0
C3230 C 0.6974 0.34305 0.02613 0.0
H3231 H 0.71017 0.27682 0.97363 0.0
H3232 H 0.70388 0.30417 0.97941 0.0
H3233 H 0.70959 0.32294 0.03181 0.0
H3234 H 0.70137 0.40346 0.03328 0.0
H3235 H 0.70727 0.3757 0.02955 0.0
H3236 H 0.67538 0.34602 0.9909 0.0
C3237 C 0.70446 0.29658 0.98905 0.0
C3238 C 0.70195 0.32771 0.02282 0.0
C3239 C 0.70823 0.28093 0.98574 0.0
C3240 C 0.69215 0.3945 0.02754 0.0
C3241 C 0.69546 0.3786 0.02549 0.0
C3242 C 0.68264 0.34103 1.00004 0.0
C3243 C 0.7016 0.30234 0.00458 0.0
C3244 C 0.69695 0.31882 0.00804 0.0
C3245 C 0.68387 0.36671 0.01779 0.0
C3246 C 0.68782 0.34997 0.01472 0.0
H3247 H 0.70734 0.26886 0.02306 0.0
H3248 H 0.7005 0.29591 0.02879 0.0
H3249 H 0.68285 0.31918 0.98532 0.0
H3250 H 0.65388 0.39016 0.01004 0.0
H3251 H 0.65949 0.36223 0.00675 0.0
C3252 C 0.25198 0.85668 0.66514 0.0
C3253 C 0.25654 0.84863 0.67841 0.0
C3254 C 0.25623 0.87301 0.66518 0.0
C3255 C 0.26918 0.90993 0.69163 0.0
H3256 H 0.28367 0.92515 0.65298 0.0
C3257 C 0.29671 0.9748 0.68821 0.0
C3258 C 0.2924 0.98195 0.6743 0.0
C3259 C 0.2919 0.9587 0.68931 0.0
C3260 C 0.27946 0.92114 0.6638 0.0
H3261 H 0.269 0.85154 0.70222 0.0
H3262 H 0.27665 0.88014 0.70219 0.0
H3263 H 0.27635 0.89677 0.65386 0.0
H3264 H 0.2799 0.97785 0.65058 0.0
H3265 H 0.27127 0.94985 0.65252 0.0
H3266 H 0.27234 0.93438 0.70156 0.0
C3267 C 0.26964 0.87377 0.69181 0.0
C3268 C 0.27528 0.90486 0.66431 0.0
C3269 C 0.2654 0.85737 0.69177 0.0
C3270 C 0.28321 0.97271 0.66151 0.0
C3271 C 0.2784 0.95663 0.66258 0.0
C3272 C 0.27337 0.92626 0.69112 0.0
C3273 C 0.26518 0.88174 0.67846 0.0
C3274 C 0.26999 0.89906 0.67819 0.0
C3275 C 0.28283 0.94939 0.67643 0.0
C3276 C 0.27846 0.93205 0.67715 0.0
H3277 H 0.24533 0.85029 0.65457 0.0
H3278 H 0.25243 0.87882 0.65478 0.0
H3279 H 0.265 0.90586 0.70244 0.0
H3280 H 0.30407 0.98156 0.69813 0.0
H3281 H 0.2957 0.95344 0.70005 0.0
C3282 C 0.3621 0.23222 0.0367 0.0
C3283 C 0.3558 0.23981 0.02378 0.0
C3284 C 0.35652 0.21654 0.03866 0.0
C3285 C 0.32304 0.18505 0.02568 0.0
H3286 H 0.35374 0.15729 0.04125 0.0
C3287 C 0.30386 0.12136 0.0414 0.0
C3288 C 0.31378 0.10941 0.03763 0.0
C3289 C 0.30874 0.13736 0.03985 0.0
C3290 C 0.345 0.1648 0.03672 0.0
H3291 H 0.33871 0.23698 0.0028 0.0
H3292 H 0.32919 0.2094 0.00595 0.0
H3293 H 0.36259 0.18476 0.03778 0.0
H3294 H 0.33676 0.1048 0.0298 0.0
H3295 H 0.34508 0.13257 0.02652 0.0
H3296 H 0.30557 0.16485 0.02403 0.0
C3297 C 0.3382 0.21567 0.01479 0.0
C3298 C 0.35005 0.18067 0.03497 0.0
C3299 C 0.34368 0.23144 0.01293 0.0
C3300 C 0.32879 0.11377 0.03256 0.0
C3301 C 0.3336 0.12971 0.03085 0.0
C3302 C 0.31801 0.16911 0.02731 0.0
C3303 C 0.34461 0.20797 0.02764 0.0
C3304 C 0.33914 0.19104 0.02946 0.0
C3305 C 0.32366 0.14174 0.0345 0.0
C3306 C 0.32893 0.15876 0.03285 0.0
H3307 H 0.37127 0.23848 0.0454 0.0
H3308 H 0.36149 0.21117 0.0489 0.0
H3309 H 0.31425 0.1927 0.02158 0.0
H3310 H 0.29236 0.11834 0.04561 0.0
H3311 H 0.3009 0.1463 0.04307 0.0
C3312 C 0.35656 0.68547 0.63879 0.0
C3313 C 0.36329 0.67137 0.64207 0.0
C3314 C 0.3571 0.69115 0.62379 0.0
C3315 C 0.36413 0.67881 0.58179 0.0
H3316 H 0.37233 0.72441 0.57973 0.0
C3317 C 0.38276 0.70668 0.52536 0.0
C3318 C 0.37517 0.72002 0.52112 0.0
C3319 C 0.38037 0.70038 0.53979 0.0
C3320 C 0.36987 0.71166 0.58009 0.0
H3321 H 0.3755 0.65196 0.63189 0.0
H3322 H 0.37699 0.66214 0.60605 0.0
H3323 H 0.36991 0.71412 0.60549 0.0
H3324 H 0.35973 0.73764 0.52893 0.0
H3325 H 0.35558 0.72666 0.5542 0.0
H3326 H 0.3645 0.67641 0.55637 0.0
C3327 C 0.37105 0.66872 0.61496 0.0
C3328 C 0.36842 0.70574 0.59486 0.0
C3329 C 0.37041 0.663 0.62991 0.0
C3330 C 0.36545 0.72715 0.53176 0.0
C3331 C 0.36319 0.72095 0.54625 0.0
C3332 C 0.36571 0.68473 0.56703 0.0
C3333 C 0.36447 0.68291 0.61172 0.0
C3334 C 0.36558 0.68923 0.59592 0.0
C3335 C 0.37064 0.70751 0.55043 0.0
C3336 C 0.36863 0.70121 0.56604 0.0
H3337 H 0.3511 0.69232 0.64789 0.0
H3338 H 0.3517 0.70199 0.62167 0.0
H3339 H 0.36165 0.66606 0.58208 0.0
H3340 H 0.39067 0.70123 0.51758 0.0
H3341 H 0.38649 0.69018 0.54281 0.0
C3342 C 0.02363 0.71148 0.29029 0.0
C3343 C 0.00911 0.71549 0.28301 0.0
C3344 C 0.02518 0.70883 0.3064 0.0
C3345 C 0.00676 0.71627 0.34417 0.0
H3346 H 0.02852 0.68015 0.35648 0.0
C3347 C 0.02019 0.70331 0.40999 0.0
C3348 C 0.01676 0.68739 0.41314 0.0
C3349 C 0.0195 0.70731 0.39426 0.0
C3350 C 0.02237 0.69025 0.35321 0.0
H3351 H 0.98483 0.71984 0.28693 0.0
H3352 H 0.98742 0.71489 0.315 0.0
H3353 H 0.02705 0.68631 0.32881 0.0
H3354 H 0.01063 0.66312 0.40239 0.0
H3355 H 0.00939 0.67009 0.37491 0.0
H3356 H 0.00194 0.72005 0.3686 0.0
C3357 C 0.99771 0.71411 0.30832 0.0
C3358 C 0.02168 0.6939 0.3374 0.0
C3359 C 0.99615 0.7167 0.29218 0.0
C3360 C 0.01301 0.67552 0.40029 0.0
C3361 C 0.01245 0.67949 0.38458 0.0
C3362 C 0.00759 0.71271 0.36003 0.0
C3363 C 0.01227 0.7102 0.31564 0.0
C3364 C 0.01372 0.70685 0.33264 0.0
C3365 C 0.0157 0.69543 0.38139 0.0
C3366 C 0.01526 0.69956 0.36468 0.0
H3367 H 0.03379 0.71033 0.28349 0.0
H3368 H 0.03655 0.70584 0.31166 0.0
H3369 H 0.00069 0.72643 0.34093 0.0
H3370 H 0.02354 0.71262 0.41968 0.0
H3371 H 0.02228 0.71966 0.39216 0.0
C3372 C 0.68413 0.23736 0.87546 0.0
C3373 C 0.68118 0.24886 0.86482 0.0
C3374 C 0.68314 0.24078 0.89183 0.0
C3375 C 0.66342 0.26691 0.91927 0.0
H3376 H 0.69296 0.25394 0.95234 0.0
C3377 C 0.66175 0.28883 0.98521 0.0
C3378 C 0.66434 0.27813 0.99672 0.0
C3379 C 0.66423 0.28479 0.96934 0.0
C3380 C 0.68451 0.25747 0.94322 0.0
H3381 H 0.67527 0.27313 0.86314 0.0
H3382 H 0.67381 0.27916 0.89165 0.0
H3383 H 0.69727 0.24812 0.92424 0.0
H3384 H 0.67055 0.25439 0.00043 0.0
H3385 H 0.67478 0.24715 0.9725 0.0
H3386 H 0.65057 0.27614 0.93808 0.0
C3387 C 0.67672 0.26743 0.88732 0.0
C3388 C 0.687 0.25417 0.92715 0.0
C3389 C 0.67775 0.26403 0.87099 0.0
C3390 C 0.66883 0.26299 0.99186 0.0
C3391 C 0.67129 0.25889 0.9759 0.0
C3392 C 0.66091 0.27016 0.93527 0.0
C3393 C 0.67909 0.25576 0.89789 0.0
C3394 C 0.67655 0.259 0.915 0.0
C3395 C 0.66904 0.26979 0.96446 0.0
C3396 C 0.67149 0.26562 0.94745 0.0
H3397 H 0.68697 0.22561 0.8711 0.0
H3398 H 0.68499 0.23152 0.89966 0.0
H3399 H 0.65493 0.27046 0.9102 0.0
H3400 H 0.65804 0.30048 0.9885 0.0
H3401 H 0.66256 0.29355 0.96091 0.0
C3402 C 0.02135 0.31324 0.22674 0.0
C3403 C 0.03265 0.32572 0.23369 0.0
C3404 C 0.02253 0.30613 0.21134 0.0
C3405 C 0.05066 0.30076 0.18071 0.0
H3406 H 0.01251 0.29536 0.15086 0.0
C3407 C 0.05317 0.28978 0.11271 0.0
C3408 C 0.04107 0.27938 0.10379 0.0
C3409 C 0.05226 0.29409 0.12894 0.0
C3410 C 0.02323 0.29653 0.15908 0.0
H3411 H 0.05437 0.34012 0.2302 0.0
H3412 H 0.0564 0.32778 0.20335 0.0
H3413 H 0.01081 0.3049 0.17867 0.0
H3414 H 0.01833 0.26562 0.10456 0.0
H3415 H 0.01685 0.27281 0.13303 0.0
H3416 H 0.06311 0.29247 0.16115 0.0
C3417 C 0.04664 0.32346 0.20978 0.0
C3418 C 0.02225 0.30201 0.17503 0.0
C3419 C 0.04539 0.33064 0.2251 0.0
C3420 C 0.02794 0.27346 0.1113 0.0
C3421 C 0.02704 0.27771 0.12754 0.0
C3422 C 0.05163 0.2952 0.16478 0.0
C3423 C 0.03512 0.31126 0.20265 0.0
C3424 C 0.03599 0.30438 0.18598 0.0
C3425 C 0.03916 0.28814 0.13656 0.0
C3426 C 0.03797 0.2932 0.15371 0.0
H3427 H 0.01134 0.30927 0.23303 0.0
H3428 H 0.01354 0.29666 0.20621 0.0
H3429 H 0.06141 0.30224 0.18892 0.0
H3430 H 0.06323 0.29475 0.10706 0.0
H3431 H 0.06164 0.30241 0.1354 0.0
loop_
_geom_bond_atom_site_label_1
_geom_bond_atom_site_label_2
_geom_bond_distance
_geom_bond_site_symmetry_2
_ccdc_geom_bond_type
C0 C1 1.264 . S
C0 C5 1.479 . S
C0 C10 1.465 . S
C1 C0 1.264 . S
C1 C3 1.339 . S
C1 H28 0.931 . S
C2 C3 1.395 . S
C2 C4 1.320 . S
C3 C1 1.339 . S
C3 C2 1.395 . S
C3 H29 0.929 . S
C4 C2 1.320 . S
C4 C5 1.405 . S
C4 H30 0.930 . S
C5 C0 1.479 . S
C5 C4 1.405 . S
C5 H31 0.931 . S
U6 O7 2.454 . S
U6 O8 2.458 . S
U6 C9 2.984 . S
U6 C10 2.847 . S
U6 C23 2.882 . S
U6 O24 2.441 . S
U6 O25 2.420 . S
U6 O26 2.455 . S
U6 O27 2.449 . S
O7 U6 2.454 . S
O7 C9 1.353 . S
O8 U6 2.458 . S
O8 C9 1.286 . S
C9 U6 2.984 . S
C9 O7 1.353 . S
C9 O8 1.286 . S
C9 C11 1.363 . S
C10 C0 1.465 . S
C10 U6 2.847 . S
C10 O24 1.249 . S
C10 O25 1.202 . S
C11 C9 1.363 . S
C11 C13 1.408 . S
C11 C16 1.342 . S
C12 C13 1.310 . S
C12 C15 1.461 . S
C12 H32 0.932 . S
C13 C11 1.408 . S
C13 C12 1.310 . S
C13 H33 0.930 . S
C14 C15 1.474 . S
C14 C16 1.285 . S
C14 H34 0.929 . S
C15 C12 1.461 . S
C15 C14 1.474 . S
C16 C11 1.342 . S
C16 C14 1.285 . S
C16 H35 0.930 . S
C17 C20 1.424 . S
C17 C22 1.245 . S
C17 C23 1.428 . S
C18 C21 1.260 . S
C18 C22 1.477 . S
C18 H36 0.932 . S
C19 C20 1.384 . S
C19 C21 1.479 . S
C19 H37 0.929 . S
C20 C17 1.424 . S
C20 C19 1.384 . S
C20 H38 0.928 . S
C21 C18 1.260 . S
C21 C19 1.479 . S
C22 C17 1.245 . S
C22 C18 1.477 . S
C22 H39 0.932 . S
C23 U6 2.882 . S
C23 C17 1.428 . S
C23 O26 1.301 . S
C23 O27 1.282 . S
O24 U6 2.441 . S
O24 C10 1.249 . S
O25 U6 2.420 . S
O25 C10 1.202 . S
O26 U6 2.455 . S
O26 C23 1.301 . S
O27 U6 2.449 . S
O27 C23 1.282 . S
H28 C1 0.931 . S
H29 C3 0.929 . S
H30 C4 0.930 . S
H31 C5 0.931 . S
H32 C12 0.932 . S
H33 C13 0.930 . S
H34 C14 0.929 . S
H35 C16 0.930 . S
H36 C18 0.932 . S
H37 C19 0.929 . S
H38 C20 0.928 . S
H39 C22 0.932 . S
C40 C41 1.264 . S
C40 C45 1.479 . S
C40 C50 1.465 . S
C41 C40 1.264 . S
C41 C43 1.339 . S
C41 H68 0.931 . S
C42 C43 1.395 . S
C42 C44 1.320 . S
C43 C41 1.339 . S
C43 C42 1.395 . S
C43 H69 0.929 . S
C44 C42 1.320 . S
C44 C45 1.405 . S
C44 H70 0.930 . S
C45 C40 1.479 . S
C45 C44 1.405 . S
C45 H71 0.931 . S
U46 O47 2.454 . S
U46 O48 2.458 . S
U46 C49 2.984 . S
U46 C50 2.847 . S
U46 C63 2.882 . S
U46 O64 2.441 . S
U46 O65 2.420 . S
U46 O66 2.455 . S
U46 O67 2.449 . S
O47 U46 2.454 . S
O47 C49 1.353 . S
O48 U46 2.458 . S
O48 C49 1.286 . S
C49 U46 2.984 . S
C49 O47 1.353 . S
C49 O48 1.286 . S
C49 C51 1.363 . S
C50 C40 1.465 . S
C50 U46 2.847 . S
C50 O64 1.249 . S
C50 O65 1.202 . S
C51 C49 1.363 . S
C51 C53 1.408 . S
C51 C56 1.342 . S
C52 C53 1.310 . S
C52 C55 1.461 . S
C52 H72 0.932 . S
C53 C51 1.408 . S
C53 C52 1.310 . S
C53 H73 0.930 . S
C54 C55 1.474 . S
C54 C56 1.285 . S
C54 H74 0.929 . S
C55 C52 1.461 . S
C55 C54 1.474 . S
C56 C51 1.342 . S
C56 C54 1.285 . S
C56 H75 0.930 . S
C57 C60 1.424 . S
C57 C62 1.245 . S
C57 C63 1.428 . S
C58 C61 1.260 . S
C58 C62 1.477 . S
C58 H76 0.932 . S
C59 C60 1.384 . S
C59 C61 1.479 . S
C59 H77 0.929 . S
C60 C57 1.424 . S
C60 C59 1.384 . S
C60 H78 0.928 . S
C61 C58 1.260 . S
C61 C59 1.479 . S
C62 C57 1.245 . S
C62 C58 1.477 . S
C62 H79 0.932 . S
C63 U46 2.882 . S
C63 C57 1.428 . S
C63 O66 1.301 . S
C63 O67 1.282 . S
O64 U46 2.441 . S
O64 C50 1.249 . S
O65 U46 2.420 . S
O65 C50 1.202 . S
O66 U46 2.455 . S
O66 C63 1.301 . S
O67 U46 2.449 . S
O67 C63 1.282 . S
H68 C41 0.931 . S
H69 C43 0.929 . S
H70 C44 0.930 . S
H71 C45 0.931 . S
H72 C52 0.932 . S
H73 C53 0.930 . S
H74 C54 0.929 . S
H75 C56 0.930 . S
H76 C58 0.932 . S
H77 C59 0.929 . S
H78 C60 0.928 . S
H79 C62 0.932 . S
C80 C81 1.264 . S
C80 C85 1.479 . S
C80 C90 1.465 . S
C81 C80 1.264 . S
C81 C83 1.339 . S
C81 H108 0.931 . S
C82 C83 1.395 . S
C82 C84 1.320 . S
C83 C81 1.339 . S
C83 C82 1.395 . S
C83 H109 0.929 . S
C84 C82 1.320 . S
C84 C85 1.405 . S
C84 H110 0.925 1_565 S
C85 C80 1.479 . S
C85 C84 1.405 . S
C85 H111 0.931 . S
U86 O87 2.454 . S
U86 O88 2.458 . S
U86 C89 2.984 . S
U86 C90 2.847 . S
U86 C103 2.882 . S
U86 O104 2.441 . S
U86 O105 2.420 . S
U86 O106 2.455 . S
U86 O107 2.449 . S
O87 U86 2.454 . S
O87 C89 1.353 . S
O88 U86 2.458 . S
O88 C89 1.286 . S
C89 U86 2.984 . S
C89 O87 1.353 . S
C89 O88 1.286 . S
C89 C91 1.363 . S
C90 C80 1.465 . S
C90 U86 2.847 . S
C90 O104 1.249 . S
C90 O105 1.202 . S
C91 C89 1.363 . S
C91 C93 1.408 . S
C91 C96 1.362 . S
C92 C93 1.310 . S
C92 C95 1.461 . S
C92 H112 0.930 . S
C93 C91 1.408 . S
C93 C92 1.310 . S
C93 H113 0.930 . S
C94 C95 1.473 1_545 S
C94 C96 1.278 1_545 S
C94 H114 0.932 . S
C95 C92 1.461 . S
C95 C94 1.473 1_565 S
C96 C91 1.362 . S
C96 C94 1.278 1_565 S
C96 H115 0.926 . S
C97 C100 1.424 . S
C97 C102 1.245 . S
C97 C103 1.428 . S
C98 C101 1.260 . S
C98 C102 1.477 . S
C98 H116 0.932 . S
C99 C100 1.384 . S
C99 C101 1.479 . S
C99 H117 0.929 . S
C100 C97 1.424 . S
C100 C99 1.384 . S
C100 H118 0.928 . S
C101 C98 1.260 . S
C101 C99 1.479 . S
C102 C97 1.245 . S
C102 C98 1.477 . S
C102 H119 0.932 . S
C103 U86 2.882 . S
C103 C97 1.428 . S
C103 O106 1.301 . S
C103 O107 1.282 . S
O104 U86 2.441 . S
O104 C90 1.249 . S
O105 U86 2.420 . S
O105 C90 1.202 . S
O106 U86 2.455 . S
O106 C103 1.301 . S
O107 U86 2.449 . S
O107 C103 1.282 . S
H108 C81 0.931 . S
H109 C83 0.929 . S
H110 C84 0.925 1_545 S
H111 C85 0.931 . S
H112 C92 0.930 . S
H113 C93 0.930 . S
H114 C94 0.932 . S
H115 C96 0.926 . S
H116 C98 0.932 . S
H117 C99 0.929 . S
H118 C100 0.928 . S
H119 C102 0.932 . S
C120 C121 1.264 . S
C120 C125 1.479 . S
C120 C130 1.465 . S
C121 C120 1.264 . S
C121 C123 1.339 . S
C121 H148 0.931 . S
C122 C123 1.395 . S
C122 C124 1.320 . S
C123 C121 1.339 . S
C123 C122 1.395 . S
C123 H149 0.929 . S
C124 C122 1.320 . S
C124 C125 1.405 . S
C124 H150 0.930 . S
C125 C120 1.479 . S
C125 C124 1.405 . S
C125 H151 0.931 . S
U126 O127 2.454 . S
U126 O128 2.458 . S
U126 C129 2.984 . S
U126 C130 2.847 . S
U126 C143 2.882 . S
U126 O144 2.441 . S
U126 O145 2.420 . S
U126 O146 2.455 . S
U126 O147 2.449 . S
O127 U126 2.454 . S
O127 C129 1.353 . S
O128 U126 2.458 . S
O128 C129 1.286 . S
C129 U126 2.984 . S
C129 O127 1.353 . S
C129 O128 1.286 . S
C129 C131 1.363 . S
C130 C120 1.465 . S
C130 U126 2.847 . S
C130 O144 1.249 . S
C130 O145 1.202 . S
C131 C129 1.363 . S
C131 C133 1.408 . S
C131 C136 1.342 . S
C132 C133 1.310 . S
C132 C135 1.461 . S
C132 H152 0.932 . S
C133 C131 1.408 . S
C133 C132 1.310 . S
C133 H153 0.930 . S
C134 C135 1.474 . S
C134 C136 1.285 . S
C134 H154 0.929 . S
C135 C132 1.461 . S
C135 C134 1.474 . S
C136 C131 1.342 . S
C136 C134 1.285 . S
C136 H155 0.930 . S
C137 C140 1.424 . S
C137 C142 1.245 . S
C137 C143 1.428 1_565 S
C138 C141 1.260 . S
C138 C142 1.477 . S
C138 H156 0.932 . S
C139 C140 1.384 . S
C139 C141 1.479 . S
C139 H157 0.929 . S
C140 C137 1.424 . S
C140 C139 1.384 . S
C140 H158 0.928 . S
C141 C138 1.260 . S
C141 C139 1.479 . S
C142 C137 1.245 . S
C142 C138 1.477 . S
C142 H159 0.932 . S
C143 U126 2.882 . S
C143 C137 1.428 1_545 S
C143 O146 1.301 . S
C143 O147 1.282 . S
O144 U126 2.441 . S
O144 C130 1.249 . S
O145 U126 2.420 . S
O145 C130 1.202 . S
O146 U126 2.455 . S
O146 C143 1.301 . S
O147 U126 2.449 . S
O147 C143 1.282 . S
H148 C121 0.931 . S
H149 C123 0.929 . S
H150 C124 0.930 . S
H151 C125 0.931 . S
H152 C132 0.932 . S
H153 C133 0.930 . S
H154 C134 0.929 . S
H155 C136 0.930 . S
H156 C138 0.932 . S
H157 C139 0.929 . S
H158 C140 0.928 . S
H159 C142 0.932 . S
C160 C161 1.264 . S
C160 C165 1.479 . S
C160 C170 1.465 . S
C161 C160 1.264 . S
C161 C163 1.339 . S
C161 H188 0.931 . S
C162 C163 1.395 . S
C162 C164 1.320 . S
C163 C161 1.339 . S
C163 C162 1.395 . S
C163 H189 0.929 . S
C164 C162 1.320 . S
C164 C165 1.405 . S
C164 H190 0.930 . S
C165 C160 1.479 . S
C165 C164 1.405 . S
C165 H191 0.931 . S
U166 O167 2.454 . S
U166 O168 2.458 . S
U166 C169 2.984 . S
U166 C170 2.847 . S
U166 C183 2.882 . S
U166 O184 2.441 . S
U166 O185 2.420 . S
U166 O186 2.455 . S
U166 O187 2.449 . S
O167 U166 2.454 . S
O167 C169 1.353 . S
O168 U166 2.458 . S
O168 C169 1.286 . S
C169 U166 2.984 . S
C169 O167 1.353 . S
C169 O168 1.286 . S
C169 C171 1.363 . S
C170 C160 1.465 . S
C170 U166 2.847 . S
C170 O184 1.249 . S
C170 O185 1.202 . S
C171 C169 1.363 . S
C171 C173 1.408 . S
C171 C176 1.342 . S
C172 C173 1.310 . S
C172 C175 1.461 . S
C172 H192 0.932 . S
C173 C171 1.408 . S
C173 C172 1.310 . S
C173 H193 0.930 . S
C174 C175 1.474 . S
C174 C176 1.285 . S
C174 H194 0.929 . S
C175 C172 1.461 . S
C175 C174 1.474 . S
C176 C171 1.342 . S
C176 C174 1.285 . S
C176 H195 0.930 . S
C177 C180 1.424 . S
C177 C182 1.245 . S
C177 C183 1.428 . S
C178 C181 1.260 . S
C178 C182 1.477 . S
C178 H196 0.932 . S
C179 C180 1.384 . S
C179 C181 1.479 . S
C179 H197 0.929 . S
C180 C177 1.424 . S
C180 C179 1.384 . S
C180 H198 0.928 . S
C181 C178 1.260 . S
C181 C179 1.479 . S
C182 C177 1.245 . S
C182 C178 1.477 . S
C182 H199 0.932 . S
C183 U166 2.882 . S
C183 C177 1.428 . S
C183 O186 1.301 . S
C183 O187 1.282 . S
O184 U166 2.441 . S
O184 C170 1.249 . S
O185 U166 2.420 . S
O185 C170 1.202 . S
O186 U166 2.455 . S
O186 C183 1.301 . S
O187 U166 2.449 . S
O187 C183 1.282 . S
H188 C161 0.931 . S
H189 C163 0.929 . S
H190 C164 0.930 . S
H191 C165 0.931 . S
H192 C172 0.932 . S
H193 C173 0.930 . S
H194 C174 0.929 . S
H195 C176 0.930 . S
H196 C178 0.932 . S
H197 C179 0.929 . S
H198 C180 0.928 . S
H199 C182 0.932 . S
C200 C201 1.264 . S
C200 C205 1.479 . S
C200 C210 1.465 . S
C201 C200 1.264 . S
C201 C203 1.339 . S
C201 H228 0.931 . S
C202 C203 1.395 . S
C202 C204 1.320 . S
C203 C201 1.339 . S
C203 C202 1.395 . S
C203 H229 0.929 . S
C204 C202 1.320 . S
C204 C205 1.405 . S
C204 H230 0.930 . S
C205 C200 1.479 . S
C205 C204 1.405 . S
C205 H231 0.931 . S
U206 O207 2.454 . S
U206 O208 2.458 . S
U206 C209 2.984 . S
U206 C210 2.847 . S
U206 C223 2.882 . S
U206 O224 2.441 . S
U206 O225 2.420 . S
U206 O226 2.455 . S
U206 O227 2.449 . S
O207 U206 2.454 . S
O207 C209 1.353 . S
O208 U206 2.458 . S
O208 C209 1.286 . S
C209 U206 2.984 . S
C209 O207 1.353 . S
C209 O208 1.286 . S
C209 C211 1.363 . S
C210 C200 1.465 . S
C210 U206 2.847 . S
C210 O224 1.249 . S
C210 O225 1.202 . S
C211 C209 1.363 . S
C211 C213 1.408 . S
C211 C216 1.342 . S
C212 C213 1.310 . S
C212 C215 1.461 . S
C212 H232 0.932 . S
C213 C211 1.408 . S
C213 C212 1.310 . S
C213 H233 0.930 . S
C214 C215 1.474 . S
C214 C216 1.285 . S
C214 H234 0.929 . S
C215 C212 1.461 . S
C215 C214 1.474 . S
C216 C211 1.342 . S
C216 C214 1.285 . S
C216 H235 0.930 . S
C217 C220 1.424 . S
C217 C222 1.245 . S
C217 C223 1.428 1_556 S
C218 C221 1.260 . S
C218 C222 1.477 . S
C218 H236 0.932 . S
C219 C220 1.384 . S
C219 C221 1.479 . S
C219 H237 0.929 . S
C220 C217 1.424 . S
C220 C219 1.384 . S
C220 H238 0.928 . S
C221 C218 1.260 . S
C221 C219 1.479 . S
C222 C217 1.245 . S
C222 C218 1.477 . S
C222 H239 0.932 . S
C223 U206 2.882 . S
C223 C217 1.428 1_554 S
C223 O226 1.301 . S
C223 O227 1.282 . S
O224 U206 2.441 . S
O224 C210 1.249 . S
O225 U206 2.420 . S
O225 C210 1.202 . S
O226 U206 2.455 . S
O226 C223 1.301 . S
O227 U206 2.449 . S
O227 C223 1.282 . S
H228 C201 0.931 . S
H229 C203 0.929 . S
H230 C204 0.930 . S
H231 C205 0.931 . S
H232 C212 0.932 . S
H233 C213 0.930 . S
H234 C214 0.929 . S
H235 C216 0.930 . S
H236 C218 0.932 . S
H237 C219 0.929 . S
H238 C220 0.928 . S
H239 C222 0.932 . S
C240 C241 1.264 . S
C240 C245 1.479 . S
C240 C250 1.465 . S
C241 C240 1.264 . S
C241 C243 1.339 . S
C241 H268 0.931 . S
C242 C243 1.395 . S
C242 C244 1.320 . S
C243 C241 1.339 . S
C243 C242 1.395 . S
C243 H269 0.929 . S
C244 C242 1.320 . S
C244 C245 1.405 . S
C244 H270 0.930 . S
C245 C240 1.479 . S
C245 C244 1.405 . S
C245 H271 0.931 . S
U246 O247 2.454 . S
U246 O248 2.458 . S
U246 C249 2.984 . S
U246 C250 2.847 . S
U246 C263 2.882 . S
U246 O264 2.441 . S
U246 O265 2.420 . S
U246 O266 2.455 . S
U246 O267 2.449 . S
O247 U246 2.454 . S
O247 C249 1.353 . S
O248 U246 2.458 . S
O248 C249 1.286 . S
C249 U246 2.984 . S
C249 O247 1.353 . S
C249 O248 1.286 . S
C249 C251 1.363 . S
C250 C240 1.465 . S
C250 U246 2.847 . S
C250 O264 1.249 . S
C250 O265 1.202 . S
C251 C249 1.363 . S
C251 C253 1.408 . S
C251 C256 1.342 . S
C252 C253 1.310 . S
C252 C255 1.461 . S
C252 H272 0.932 . S
C253 C251 1.408 . S
C253 C252 1.310 . S
C253 H273 0.930 . S
C254 C255 1.474 . S
C254 C256 1.285 . S
C254 H274 0.929 . S
C255 C252 1.461 . S
C255 C254 1.474 . S
C256 C251 1.342 . S
C256 C254 1.285 . S
C256 H275 0.930 . S
C257 C260 1.424 . S
C257 C262 1.245 . S
C257 C263 1.428 . S
C258 C261 1.260 . S
C258 C262 1.477 . S
C258 H276 0.932 . S
C259 C260 1.384 . S
C259 C261 1.479 . S
C259 H277 0.929 . S
C260 C257 1.424 . S
C260 C259 1.384 . S
C260 H278 0.928 . S
C261 C258 1.260 . S
C261 C259 1.479 . S
C262 C257 1.245 . S
C262 C258 1.477 . S
C262 H279 0.932 . S
C263 U246 2.882 . S
C263 C257 1.428 . S
C263 O266 1.301 . S
C263 O267 1.282 . S
O264 U246 2.441 . S
O264 C250 1.249 . S
O265 U246 2.420 . S
O265 C250 1.202 . S
O266 U246 2.455 . S
O266 C263 1.301 . S
O267 U246 2.449 . S
O267 C263 1.282 . S
H268 C241 0.931 . S
H269 C243 0.929 . S
H270 C244 0.930 . S
H271 C245 0.931 . S
H272 C252 0.932 . S
H273 C253 0.930 . S
H274 C254 0.929 . S
H275 C256 0.930 . S
H276 C258 0.932 . S
H277 C259 0.929 . S
H278 C260 0.928 . S
H279 C262 0.932 . S
C280 C281 1.264 . S
C280 C285 1.479 . S
C280 C290 1.465 . S
C281 C280 1.264 . S
C281 C283 1.339 . S
C281 H308 0.931 . S
C282 C283 1.395 . S
C282 C284 1.320 . S
C283 C281 1.339 . S
C283 C282 1.395 . S
C283 H309 0.929 . S
C284 C282 1.320 . S
C284 C285 1.405 . S
C284 H310 0.925 1_556 S
C285 C280 1.479 . S
C285 C284 1.405 . S
C285 H311 0.931 . S
U286 O287 2.454 . S
U286 O288 2.458 . S
U286 C289 2.984 . S
U286 C290 2.847 . S
U286 C303 2.882 . S
U286 O304 2.441 . S
U286 O305 2.420 . S
U286 O306 2.455 . S
U286 O307 2.449 . S
O287 U286 2.454 . S
O287 C289 1.353 . S
O288 U286 2.458 . S
O288 C289 1.286 . S
C289 U286 2.984 . S
C289 O287 1.353 . S
C289 O288 1.286 . S
C289 C291 1.363 . S
C290 C280 1.465 . S
C290 U286 2.847 . S
C290 O304 1.249 . S
C290 O305 1.202 . S
C291 C289 1.363 . S
C291 C293 1.408 . S
C291 C296 1.362 . S
C292 C293 1.310 . S
C292 C295 1.461 . S
C292 H312 0.930 . S
C293 C291 1.408 . S
C293 C292 1.310 . S
C293 H313 0.930 . S
C294 C295 1.473 1_554 S
C294 C296 1.278 1_554 S
C294 H314 0.932 . S
C295 C292 1.461 . S
C295 C294 1.473 1_556 S
C296 C291 1.362 . S
C296 C294 1.278 1_556 S
C296 H315 0.926 . S
C297 C300 1.424 . S
C297 C302 1.245 . S
C297 C303 1.428 . S
C298 C301 1.260 . S
C298 C302 1.477 . S
C298 H316 0.932 . S
C299 C300 1.384 . S
C299 C301 1.479 . S
C299 H317 0.929 . S
C300 C297 1.424 . S
C300 C299 1.384 . S
C300 H318 0.928 . S
C301 C298 1.260 . S
C301 C299 1.479 . S
C302 C297 1.245 . S
C302 C298 1.477 . S
C302 H319 0.932 . S
C303 U286 2.882 . S
C303 C297 1.428 . S
C303 O306 1.301 . S
C303 O307 1.282 . S
O304 U286 2.441 . S
O304 C290 1.249 . S
O305 U286 2.420 . S
O305 C290 1.202 . S
O306 U286 2.455 . S
O306 C303 1.301 . S
O307 U286 2.449 . S
O307 C303 1.282 . S
H308 C281 0.931 . S
H309 C283 0.929 . S
H310 C284 0.925 1_554 S
H311 C285 0.931 . S
H312 C292 0.930 . S
H313 C293 0.930 . S
H314 C294 0.932 . S
H315 C296 0.926 . S
H316 C298 0.932 . S
H317 C299 0.929 . S
H318 C300 0.928 . S
H319 C302 0.932 . S
C320 C321 1.264 . S
C320 C325 1.479 . S
C320 C330 1.465 . S
C321 C320 1.264 . S
C321 C323 1.339 . S
C321 H348 0.931 . S
C322 C323 1.395 . S
C322 C324 1.320 . S
C323 C321 1.339 . S
C323 C322 1.395 . S
C323 H349 0.929 . S
C324 C322 1.320 . S
C324 C325 1.405 . S
C324 H350 0.930 . S
C325 C320 1.479 . S
C325 C324 1.405 . S
C325 H351 0.931 . S
U326 O327 2.454 . S
U326 O328 2.458 . S
U326 C329 2.984 . S
U326 C330 2.847 . S
U326 C343 2.882 . S
U326 O344 2.441 . S
U326 O345 2.420 . S
U326 O346 2.455 . S
U326 O347 2.449 . S
O327 U326 2.454 . S
O327 C329 1.353 . S
O328 U326 2.458 . S
O328 C329 1.286 . S
C329 U326 2.984 . S
C329 O327 1.353 . S
C329 O328 1.286 . S
C329 C331 1.363 . S
C330 C320 1.465 . S
C330 U326 2.847 . S
C330 O344 1.249 . S
C330 O345 1.202 . S
C331 C329 1.363 . S
C331 C333 1.408 . S
C331 C336 1.342 . S
C332 C333 1.310 . S
C332 C335 1.461 . S
C332 H352 0.932 . S
C333 C331 1.408 . S
C333 C332 1.310 . S
C333 H353 0.930 . S
C334 C335 1.474 . S
C334 C336 1.285 . S
C334 H354 0.929 . S
C335 C332 1.461 . S
C335 C334 1.474 . S
C336 C331 1.342 . S
C336 C334 1.285 . S
C336 H355 0.930 . S
C337 C340 1.424 . S
C337 C342 1.245 . S
C337 C343 1.428 . S
C338 C341 1.260 . S
C338 C342 1.477 . S
C338 H356 0.932 . S
C339 C340 1.384 . S
C339 C341 1.479 . S
C339 H357 0.929 . S
C340 C337 1.424 . S
C340 C339 1.384 . S
C340 H358 0.928 . S
C341 C338 1.260 . S
C341 C339 1.479 . S
C342 C337 1.245 . S
C342 C338 1.477 . S
C342 H359 0.932 . S
C343 U326 2.882 . S
C343 C337 1.428 . S
C343 O346 1.301 . S
C343 O347 1.282 . S
O344 U326 2.441 . S
O344 C330 1.249 . S
O345 U326 2.420 . S
O345 C330 1.202 . S
O346 U326 2.455 . S
O346 C343 1.301 . S
O347 U326 2.449 . S
O347 C343 1.282 . S
H348 C321 0.931 . S
H349 C323 0.929 . S
H350 C324 0.930 . S
H351 C325 0.931 . S
H352 C332 0.932 . S
H353 C333 0.930 . S
H354 C334 0.929 . S
H355 C336 0.930 . S
H356 C338 0.932 . S
H357 C339 0.929 . S
H358 C340 0.928 . S
H359 C342 0.932 . S
C360 C361 1.264 . S
C360 C365 1.479 . S
C360 C370 1.465 . S
C361 C360 1.264 . S
C361 C363 1.339 . S
C361 H388 0.931 . S
C362 C363 1.395 . S
C362 C364 1.320 . S
C363 C361 1.339 . S
C363 C362 1.395 . S
C363 H389 0.929 . S
C364 C362 1.320 . S
C364 C365 1.405 . S
C364 H390 0.930 . S
C365 C360 1.479 . S
C365 C364 1.405 . S
C365 H391 0.931 . S
U366 O367 2.454 . S
U366 O368 2.458 . S
U366 C369 2.984 . S
U366 C370 2.847 . S
U366 C383 2.882 . S
U366 O384 2.441 . S
U366 O385 2.420 . S
U366 O386 2.455 . S
U366 O387 2.449 . S
O367 U366 2.454 . S
O367 C369 1.353 . S
O368 U366 2.458 . S
O368 C369 1.286 . S
C369 U366 2.984 . S
C369 O367 1.353 . S
C369 O368 1.286 . S
C369 C371 1.363 . S
C370 C360 1.465 . S
C370 U366 2.847 . S
C370 O384 1.249 . S
C370 O385 1.202 . S
C371 C369 1.363 . S
C371 C373 1.408 . S
C371 C376 1.342 . S
C372 C373 1.310 . S
C372 C375 1.461 . S
C372 H392 0.932 . S
C373 C371 1.408 . S
C373 C372 1.310 . S
C373 H393 0.930 . S
C374 C375 1.474 . S
C374 C376 1.285 . S
C374 H394 0.929 . S
C375 C372 1.461 . S
C375 C374 1.474 . S
C376 C371 1.342 . S
C376 C374 1.285 . S
C376 H395 0.930 . S
C377 C380 1.424 . S
C377 C382 1.245 . S
C377 C383 1.428 1_655 S
C378 C381 1.260 . S
C378 C382 1.477 . S
C378 H396 0.932 . S
C379 C380 1.384 . S
C379 C381 1.479 . S
C379 H397 0.929 . S
C380 C377 1.424 . S
C380 C379 1.384 . S
C380 H398 0.928 . S
C381 C378 1.260 . S
C381 C379 1.479 . S
C382 C377 1.245 . S
C382 C378 1.477 . S
C382 H399 0.932 . S
C383 U366 2.882 . S
C383 C377 1.428 1_455 S
C383 O386 1.301 . S
C383 O387 1.282 . S
O384 U366 2.441 . S
O384 C370 1.249 . S
O385 U366 2.420 . S
O385 C370 1.202 . S
O386 U366 2.455 . S
O386 C383 1.301 . S
O387 U366 2.449 . S
O387 C383 1.282 . S
H388 C361 0.931 . S
H389 C363 0.929 . S
H390 C364 0.930 . S
H391 C365 0.931 . S
H392 C372 0.932 . S
H393 C373 0.930 . S
H394 C374 0.929 . S
H395 C376 0.930 . S
H396 C378 0.932 . S
H397 C379 0.929 . S
H398 C380 0.928 . S
H399 C382 0.932 . S
C400 C401 1.264 . S
C400 C405 1.479 . S
C400 C410 1.465 . S
C401 C400 1.264 . S
C401 C403 1.339 . S
C401 H428 0.931 . S
C402 C403 1.395 . S
C402 C404 1.320 . S
C403 C401 1.339 . S
C403 C402 1.395 . S
C403 H429 0.929 . S
C404 C402 1.320 . S
C404 C405 1.405 . S
C404 H430 0.930 . S
C405 C400 1.479 . S
C405 C404 1.405 . S
C405 H431 0.931 . S
U406 O407 2.454 . S
U406 O408 2.458 . S
U406 C409 2.984 . S
U406 C410 2.847 . S
U406 C423 2.882 . S
U406 O424 2.441 . S
U406 O425 2.420 . S
U406 O426 2.455 . S
U406 O427 2.449 . S
O407 U406 2.454 . S
O407 C409 1.353 . S
O408 U406 2.458 . S
O408 C409 1.286 . S
C409 U406 2.984 . S
C409 O407 1.353 . S
C409 O408 1.286 . S
C409 C411 1.363 . S
C410 C400 1.465 . S
C410 U406 2.847 . S
C410 O424 1.249 . S
C410 O425 1.202 . S
C411 C409 1.363 . S
C411 C413 1.408 . S
C411 C416 1.342 . S
C412 C413 1.310 . S
C412 C415 1.461 . S
C412 H432 0.932 . S
C413 C411 1.408 . S
C413 C412 1.310 . S
C413 H433 0.930 . S
C414 C415 1.474 . S
C414 C416 1.285 . S
C414 H434 0.929 . S
C415 C412 1.461 . S
C415 C414 1.474 . S
C416 C411 1.342 . S
C416 C414 1.285 . S
C416 H435 0.930 . S
C417 C420 1.424 . S
C417 C422 1.245 . S
C417 C423 1.428 . S
C418 C421 1.260 . S
C418 C422 1.477 . S
C418 H436 0.932 . S
C419 C420 1.384 . S
C419 C421 1.479 . S
C419 H437 0.929 . S
C420 C417 1.424 . S
C420 C419 1.384 . S
C420 H438 0.928 . S
C421 C418 1.260 . S
C421 C419 1.479 . S
C422 C417 1.245 . S
C422 C418 1.477 . S
C422 H439 0.932 . S
C423 U406 2.882 . S
C423 C417 1.428 . S
C423 O426 1.301 . S
C423 O427 1.282 . S
O424 U406 2.441 . S
O424 C410 1.249 . S
O425 U406 2.420 . S
O425 C410 1.202 . S
O426 U406 2.455 . S
O426 C423 1.301 . S
O427 U406 2.449 . S
O427 C423 1.282 . S
H428 C401 0.931 . S
H429 C403 0.929 . S
H430 C404 0.930 . S
H431 C405 0.931 . S
H432 C412 0.932 . S
H433 C413 0.930 . S
H434 C414 0.929 . S
H435 C416 0.930 . S
H436 C418 0.932 . S
H437 C419 0.929 . S
H438 C420 0.928 . S
H439 C422 0.932 . S
C440 C441 1.264 . S
C440 C445 1.479 . S
C440 C450 1.465 . S
C441 C440 1.264 . S
C441 C443 1.339 . S
C441 H468 0.931 . S
C442 C443 1.395 . S
C442 C444 1.320 . S
C443 C441 1.339 . S
C443 C442 1.395 . S
C443 H469 0.929 . S
C444 C442 1.320 . S
C444 C445 1.405 . S
C444 H470 0.925 1_655 S
C445 C440 1.479 . S
C445 C444 1.405 . S
C445 H471 0.931 . S
U446 O447 2.454 . S
U446 O448 2.458 . S
U446 C449 2.984 . S
U446 C450 2.847 . S
U446 C463 2.882 . S
U446 O464 2.441 . S
U446 O465 2.420 . S
U446 O466 2.455 . S
U446 O467 2.449 . S
O447 U446 2.454 . S
O447 C449 1.353 . S
O448 U446 2.458 . S
O448 C449 1.286 . S
C449 U446 2.984 . S
C449 O447 1.353 . S
C449 O448 1.286 . S
C449 C451 1.363 . S
C450 C440 1.465 . S
C450 U446 2.847 . S
C450 O464 1.249 . S
C450 O465 1.202 . S
C451 C449 1.363 . S
C451 C453 1.408 . S
C451 C456 1.362 . S
C452 C453 1.310 . S
C452 C455 1.461 . S
C452 H472 0.930 . S
C453 C451 1.408 . S
C453 C452 1.310 . S
C453 H473 0.930 . S
C454 C455 1.473 1_455 S
C454 C456 1.278 1_455 S
C454 H474 0.932 . S
C455 C452 1.461 . S
C455 C454 1.473 1_655 S
C456 C451 1.362 . S
C456 C454 1.278 1_655 S
C456 H475 0.926 . S
C457 C460 1.424 . S
C457 C462 1.245 . S
C457 C463 1.428 . S
C458 C461 1.260 . S
C458 C462 1.477 . S
C458 H476 0.932 . S
C459 C460 1.384 . S
C459 C461 1.479 . S
C459 H477 0.929 . S
C460 C457 1.424 . S
C460 C459 1.384 . S
C460 H478 0.928 . S
C461 C458 1.260 . S
C461 C459 1.479 . S
C462 C457 1.245 . S
C462 C458 1.477 . S
C462 H479 0.932 . S
C463 U446 2.882 . S
C463 C457 1.428 . S
C463 O466 1.301 . S
C463 O467 1.282 . S
O464 U446 2.441 . S
O464 C450 1.249 . S
O465 U446 2.420 . S
O465 C450 1.202 . S
O466 U446 2.455 . S
O466 C463 1.301 . S
O467 U446 2.449 . S
O467 C463 1.282 . S
H468 C441 0.931 . S
H469 C443 0.929 . S
H470 C444 0.925 1_455 S
H471 C445 0.931 . S
H472 C452 0.930 . S
H473 C453 0.930 . S
H474 C454 0.932 . S
H475 C456 0.926 . S
H476 C458 0.932 . S
H477 C459 0.929 . S
H478 C460 0.928 . S
H479 C462 0.932 . S
C480 C481 1.264 . S
C480 C485 1.479 . S
C480 C490 1.465 . S
C481 C480 1.264 . S
C481 C483 1.339 . S
C481 H508 0.931 . S
C482 C483 1.395 . S
C482 C484 1.320 . S
C483 C481 1.339 . S
C483 C482 1.395 . S
C483 H509 0.929 . S
C484 C482 1.320 . S
C484 C485 1.405 . S
C484 H510 0.930 . S
C485 C480 1.479 . S
C485 C484 1.405 . S
C485 H511 0.931 . S
U486 O487 2.454 . S
U486 O488 2.458 . S
U486 C489 2.984 . S
U486 C490 2.847 . S
U486 C503 2.882 . S
U486 O504 2.441 . S
U486 O505 2.420 . S
U486 O506 2.455 . S
U486 O507 2.449 . S
O487 U486 2.454 . S
O487 C489 1.353 . S
O488 U486 2.458 . S
O488 C489 1.286 . S
C489 U486 2.984 . S
C489 O487 1.353 . S
C489 O488 1.286 . S
C489 C491 1.363 . S
C490 C480 1.465 . S
C490 U486 2.847 . S
C490 O504 1.249 . S
C490 O505 1.202 . S
C491 C489 1.363 . S
C491 C493 1.408 . S
C491 C496 1.342 . S
C492 C493 1.310 . S
C492 C495 1.461 . S
C492 H512 0.932 . S
C493 C491 1.408 . S
C493 C492 1.310 . S
C493 H513 0.930 . S
C494 C495 1.474 . S
C494 C496 1.285 . S
C494 H514 0.929 . S
C495 C492 1.461 . S
C495 C494 1.474 . S
C496 C491 1.342 . S
C496 C494 1.285 . S
C496 H515 0.930 . S
C497 C500 1.424 . S
C497 C502 1.245 . S
C497 C503 1.428 . S
C498 C501 1.260 . S
C498 C502 1.477 . S
C498 H516 0.932 . S
C499 C500 1.384 . S
C499 C501 1.479 . S
C499 H517 0.929 . S
C500 C497 1.424 . S
C500 C499 1.384 . S
C500 H518 0.928 . S
C501 C498 1.260 . S
C501 C499 1.479 . S
C502 C497 1.245 . S
C502 C498 1.477 . S
C502 H519 0.932 . S
C503 U486 2.882 . S
C503 C497 1.428 . S
C503 O506 1.301 . S
C503 O507 1.282 . S
O504 U486 2.441 . S
O504 C490 1.249 . S
O505 U486 2.420 . S
O505 C490 1.202 . S
O506 U486 2.455 . S
O506 C503 1.301 . S
O507 U486 2.449 . S
O507 C503 1.282 . S
H508 C481 0.931 . S
H509 C483 0.929 . S
H510 C484 0.930 . S
H511 C485 0.931 . S
H512 C492 0.932 . S
H513 C493 0.930 . S
H514 C494 0.929 . S
H515 C496 0.930 . S
H516 C498 0.932 . S
H517 C499 0.929 . S
H518 C500 0.928 . S
H519 C502 0.932 . S
C520 C521 1.264 . S
C520 C525 1.479 . S
C520 C530 1.465 . S
C521 C520 1.264 . S
C521 C523 1.339 . S
C521 H548 0.931 . S
C522 C523 1.395 . S
C522 C524 1.320 . S
C523 C521 1.339 . S
C523 C522 1.395 . S
C523 H549 0.929 . S
C524 C522 1.320 . S
C524 C525 1.405 . S
C524 H550 0.930 . S
C525 C520 1.479 . S
C525 C524 1.405 . S
C525 H551 0.931 . S
U526 O527 2.454 . S
U526 O528 2.458 . S
U526 C529 2.984 . S
U526 C530 2.847 . S
U526 C543 2.882 . S
U526 O544 2.441 . S
U526 O545 2.420 . S
U526 O546 2.455 . S
U526 O547 2.449 . S
O527 U526 2.454 . S
O527 C529 1.353 . S
O528 U526 2.458 . S
O528 C529 1.286 . S
C529 U526 2.984 . S
C529 O527 1.353 . S
C529 O528 1.286 . S
C529 C531 1.363 . S
C530 C520 1.465 . S
C530 U526 2.847 . S
C530 O544 1.249 . S
C530 O545 1.202 . S
C531 C529 1.363 . S
C531 C533 1.408 . S
C531 C536 1.342 . S
C532 C533 1.310 . S
C532 C535 1.461 . S
C532 H552 0.932 . S
C533 C531 1.408 . S
C533 C532 1.310 . S
C533 H553 0.930 . S
C534 C535 1.474 . S
C534 C536 1.285 . S
C534 H554 0.929 . S
C535 C532 1.461 . S
C535 C534 1.474 . S
C536 C531 1.342 . S
C536 C534 1.285 . S
C536 H555 0.930 . S
C537 C540 1.424 . S
C537 C542 1.245 . S
C537 C543 1.428 . S
C538 C541 1.260 . S
C538 C542 1.477 . S
C538 H556 0.932 . S
C539 C540 1.384 . S
C539 C541 1.479 . S
C539 H557 0.929 . S
C540 C537 1.424 . S
C540 C539 1.384 . S
C540 H558 0.928 . S
C541 C538 1.260 . S
C541 C539 1.479 . S
C542 C537 1.245 . S
C542 C538 1.477 . S
C542 H559 0.932 . S
C543 U526 2.882 . S
C543 C537 1.428 . S
C543 O546 1.301 . S
C543 O547 1.282 . S
O544 U526 2.441 . S
O544 C530 1.249 . S
O545 U526 2.420 . S
O545 C530 1.202 . S
O546 U526 2.455 . S
O546 C543 1.301 . S
O547 U526 2.449 . S
O547 C543 1.282 . S
H548 C521 0.931 . S
H549 C523 0.929 . S
H550 C524 0.930 . S
H551 C525 0.931 . S
H552 C532 0.932 . S
H553 C533 0.930 . S
H554 C534 0.929 . S
H555 C536 0.930 . S
H556 C538 0.932 . S
H557 C539 0.929 . S
H558 C540 0.928 . S
H559 C542 0.932 . S
C560 C561 1.264 . S
C560 C565 1.479 . S
C560 C570 1.465 . S
C561 C560 1.264 . S
C561 C563 1.339 . S
C561 H588 0.931 . S
C562 C563 1.395 . S
C562 C564 1.320 . S
C563 C561 1.339 . S
C563 C562 1.395 . S
C563 H589 0.929 . S
C564 C562 1.320 . S
C564 C565 1.405 . S
C564 H590 0.921 1_565 S
C565 C560 1.479 . S
C565 C564 1.405 . S
C565 H591 0.931 . S
U566 O567 2.454 . S
U566 O568 2.458 . S
U566 C569 2.984 . S
U566 C570 2.847 . S
U566 C583 2.882 . S
U566 O584 2.441 . S
U566 O585 2.420 . S
U566 O586 2.455 . S
U566 O587 2.449 . S
O567 U566 2.454 . S
O567 C569 1.353 . S
O568 U566 2.458 . S
O568 C569 1.286 . S
C569 U566 2.984 . S
C569 O567 1.353 . S
C569 O568 1.286 . S
C569 C571 1.363 . S
C570 C560 1.465 . S
C570 U566 2.847 . S
C570 O584 1.249 . S
C570 O585 1.202 . S
C571 C569 1.363 . S
C571 C573 1.408 . S
C571 C576 1.342 . S
C572 C573 1.310 . S
C572 C575 1.460 . S
C572 H592 0.932 . S
C573 C571 1.408 . S
C573 C572 1.310 . S
C573 H593 0.930 . S
C574 C575 1.475 1_545 S
C574 C576 1.286 1_545 S
C574 H594 0.930 . S
C575 C572 1.460 . S
C575 C574 1.475 1_565 S
C576 C571 1.342 . S
C576 C574 1.286 1_565 S
C576 H595 0.929 . S
C577 C580 1.424 . S
C577 C582 1.245 . S
C577 C583 1.428 . S
C578 C581 1.260 . S
C578 C582 1.477 . S
C578 H596 0.932 . S
C579 C580 1.384 . S
C579 C581 1.479 . S
C579 H597 0.929 . S
C580 C577 1.424 . S
C580 C579 1.384 . S
C580 H598 0.928 . S
C581 C578 1.260 . S
C581 C579 1.479 . S
C582 C577 1.245 . S
C582 C578 1.477 . S
C582 H599 0.932 . S
C583 U566 2.882 . S
C583 C577 1.428 . S
C583 O586 1.301 . S
C583 O587 1.282 . S
O584 U566 2.441 . S
O584 C570 1.249 . S
O585 U566 2.420 . S
O585 C570 1.202 . S
O586 U566 2.455 . S
O586 C583 1.301 . S
O587 U566 2.449 . S
O587 C583 1.282 . S
H588 C561 0.931 . S
H589 C563 0.929 . S
H590 C564 0.921 1_545 S
H591 C565 0.931 . S
H592 C572 0.932 . S
H593 C573 0.930 . S
H594 C574 0.930 . S
H595 C576 0.929 . S
H596 C578 0.932 . S
H597 C579 0.929 . S
H598 C580 0.928 . S
H599 C582 0.932 . S
C600 C601 1.267 . S
C600 C605 1.466 1_545 S
C600 C610 1.480 . S
C601 C600 1.267 . S
C601 C603 1.339 1_545 S
C601 H628 0.931 . S
C602 C603 1.395 . S
C602 C604 1.320 . S
C603 C601 1.339 1_565 S
C603 C602 1.395 . S
C603 H629 0.929 1_565 S
C604 C602 1.320 . S
C604 C605 1.405 . S
C604 H630 0.930 . S
C605 C600 1.466 1_565 S
C605 C604 1.405 . S
C605 H631 0.931 . S
U606 O607 2.454 1_545 S
U606 O608 2.458 . S
U606 C609 2.987 . S
U606 C610 2.847 . S
U606 C623 2.882 . S
U606 O624 2.441 . S
U606 O625 2.420 . S
U606 O626 2.455 . S
U606 O627 2.449 . S
O607 U606 2.454 1_565 S
O607 C609 1.350 1_565 S
O608 U606 2.458 . S
O608 C609 1.290 . S
C609 U606 2.987 . S
C609 O607 1.350 1_545 S
C609 O608 1.290 . S
C609 C611 1.361 1_545 S
C610 C600 1.480 . S
C610 U606 2.847 . S
C610 O624 1.249 . S
C610 O625 1.202 . S
C611 C609 1.361 1_565 S
C611 C613 1.408 . S
C611 C616 1.342 . S
C612 C613 1.310 . S
C612 C615 1.461 . S
C612 H632 0.932 . S
C613 C611 1.408 . S
C613 C612 1.310 . S
C613 H633 0.930 . S
C614 C615 1.474 . S
C614 C616 1.285 . S
C614 H634 0.929 . S
C615 C612 1.461 . S
C615 C614 1.474 . S
C616 C611 1.342 . S
C616 C614 1.285 . S
C616 H635 0.932 . S
C617 C620 1.424 . S
C617 C622 1.245 . S
C617 C623 1.428 . S
C618 C621 1.260 . S
C618 C622 1.477 . S
C618 H636 0.932 . S
C619 C620 1.384 . S
C619 C621 1.479 . S
C619 H637 0.929 . S
C620 C617 1.424 . S
C620 C619 1.384 . S
C620 H638 0.928 . S
C621 C618 1.260 . S
C621 C619 1.479 . S
C622 C617 1.245 . S
C622 C618 1.477 . S
C622 H639 0.932 . S
C623 U606 2.882 . S
C623 C617 1.428 . S
C623 O626 1.301 . S
C623 O627 1.282 . S
O624 U606 2.441 . S
O624 C610 1.249 . S
O625 U606 2.420 . S
O625 C610 1.202 . S
O626 U606 2.455 . S
O626 C623 1.301 . S
O627 U606 2.449 . S
O627 C623 1.282 . S
H628 C601 0.931 . S
H629 C603 0.929 1_545 S
H630 C604 0.930 . S
H631 C605 0.931 . S
H632 C612 0.932 . S
H633 C613 0.930 . S
H634 C614 0.929 . S
H635 C616 0.932 . S
H636 C618 0.932 . S
H637 C619 0.929 . S
H638 C620 0.928 . S
H639 C622 0.932 . S
C640 C641 1.264 . S
C640 C645 1.479 . S
C640 C650 1.465 . S
C641 C640 1.264 . S
C641 C643 1.339 . S
C641 H668 0.931 . S
C642 C643 1.395 . S
C642 C644 1.320 . S
C643 C641 1.339 . S
C643 C642 1.395 . S
C643 H669 0.929 . S
C644 C642 1.320 . S
C644 C645 1.405 . S
C644 H670 0.930 . S
C645 C640 1.479 . S
C645 C644 1.405 . S
C645 H671 0.931 . S
U646 O647 2.454 . S
U646 O648 2.458 . S
U646 C649 2.984 . S
U646 C650 2.847 . S
U646 C663 2.882 . S
U646 O664 2.441 . S
U646 O665 2.420 . S
U646 O666 2.455 . S
U646 O667 2.449 . S
O647 U646 2.454 . S
O647 C649 1.353 . S
O648 U646 2.458 . S
O648 C649 1.286 . S
C649 U646 2.984 . S
C649 O647 1.353 . S
C649 O648 1.286 . S
C649 C651 1.363 . S
C650 C640 1.465 . S
C650 U646 2.847 . S
C650 O664 1.249 . S
C650 O665 1.202 . S
C651 C649 1.363 . S
C651 C653 1.408 . S
C651 C656 1.342 . S
C652 C653 1.310 . S
C652 C655 1.461 . S
C652 H672 0.932 . S
C653 C651 1.408 . S
C653 C652 1.310 . S
C653 H673 0.930 . S
C654 C655 1.474 . S
C654 C656 1.285 . S
C654 H674 0.929 . S
C655 C652 1.461 . S
C655 C654 1.474 . S
C656 C651 1.342 . S
C656 C654 1.285 . S
C656 H675 0.930 . S
C657 C660 1.424 . S
C657 C662 1.245 . S
C657 C663 1.428 . S
C658 C661 1.260 . S
C658 C662 1.477 . S
C658 H676 0.932 . S
C659 C660 1.384 . S
C659 C661 1.479 . S
C659 H677 0.929 . S
C660 C657 1.424 . S
C660 C659 1.384 . S
C660 H678 0.928 . S
C661 C658 1.260 . S
C661 C659 1.479 . S
C662 C657 1.245 . S
C662 C658 1.477 . S
C662 H679 0.932 . S
C663 U646 2.882 . S
C663 C657 1.428 . S
C663 O666 1.301 . S
C663 O667 1.282 . S
O664 U646 2.441 . S
O664 C650 1.249 . S
O665 U646 2.420 . S
O665 C650 1.202 . S
O666 U646 2.455 . S
O666 C663 1.301 . S
O667 U646 2.449 . S
O667 C663 1.282 . S
H668 C641 0.931 . S
H669 C643 0.929 . S
H670 C644 0.930 . S
H671 C645 0.931 . S
H672 C652 0.932 . S
H673 C653 0.930 . S
H674 C654 0.929 . S
H675 C656 0.930 . S
H676 C658 0.932 . S
H677 C659 0.929 . S
H678 C660 0.928 . S
H679 C662 0.932 . S
C680 C681 1.267 . S
C680 C685 1.466 1_554 S
C680 C690 1.480 . S
C681 C680 1.267 . S
C681 C683 1.339 1_554 S
C681 H708 0.931 . S
C682 C683 1.395 . S
C682 C684 1.320 . S
C683 C681 1.339 1_556 S
C683 C682 1.395 . S
C683 H709 0.929 1_556 S
C684 C682 1.320 . S
C684 C685 1.405 . S
C684 H710 0.930 . S
C685 C680 1.466 1_556 S
C685 C684 1.405 . S
C685 H711 0.931 . S
U686 O687 2.454 1_554 S
U686 O688 2.458 . S
U686 C689 2.987 . S
U686 C690 2.847 . S
U686 C703 2.882 . S
U686 O704 2.441 . S
U686 O705 2.420 . S
U686 O706 2.455 . S
U686 O707 2.449 . S
O687 U686 2.454 1_556 S
O687 C689 1.350 1_556 S
O688 U686 2.458 . S
O688 C689 1.290 . S
C689 U686 2.987 . S
C689 O687 1.350 1_554 S
C689 O688 1.290 . S
C689 C691 1.361 1_554 S
C690 C680 1.480 . S
C690 U686 2.847 . S
C690 O704 1.249 . S
C690 O705 1.202 . S
C691 C689 1.361 1_556 S
C691 C693 1.408 . S
C691 C696 1.342 . S
C692 C693 1.310 . S
C692 C695 1.461 . S
C692 H712 0.932 . S
C693 C691 1.408 . S
C693 C692 1.310 . S
C693 H713 0.930 . S
C694 C695 1.474 . S
C694 C696 1.285 . S
C694 H714 0.929 . S
C695 C692 1.461 . S
C695 C694 1.474 . S
C696 C691 1.342 . S
C696 C694 1.285 . S
C696 H715 0.932 . S
C697 C700 1.424 . S
C697 C702 1.245 . S
C697 C703 1.428 . S
C698 C701 1.260 . S
C698 C702 1.477 . S
C698 H716 0.932 . S
C699 C700 1.384 . S
C699 C701 1.479 . S
C699 H717 0.929 . S
C700 C697 1.424 . S
C700 C699 1.384 . S
C700 H718 0.928 . S
C701 C698 1.260 . S
C701 C699 1.479 . S
C702 C697 1.245 . S
C702 C698 1.477 . S
C702 H719 0.932 . S
C703 U686 2.882 . S
C703 C697 1.428 . S
C703 O706 1.301 . S
C703 O707 1.282 . S
O704 U686 2.441 . S
O704 C690 1.249 . S
O705 U686 2.420 . S
O705 C690 1.202 . S
O706 U686 2.455 . S
O706 C703 1.301 . S
O707 U686 2.449 . S
O707 C703 1.282 . S
H708 C681 0.931 . S
H709 C683 0.929 1_554 S
H710 C684 0.930 . S
H711 C685 0.931 . S
H712 C692 0.932 . S
H713 C693 0.930 . S
H714 C694 0.929 . S
H715 C696 0.932 . S
H716 C698 0.932 . S
H717 C699 0.929 . S
H718 C700 0.928 . S
H719 C702 0.932 . S
C720 C721 1.264 . S
C720 C725 1.479 . S
C720 C730 1.465 . S
C721 C720 1.264 . S
C721 C723 1.339 . S
C721 H748 0.931 . S
C722 C723 1.395 . S
C722 C724 1.320 . S
C723 C721 1.339 . S
C723 C722 1.395 . S
C723 H749 0.929 . S
C724 C722 1.320 . S
C724 C725 1.405 . S
C724 H750 0.930 . S
C725 C720 1.479 . S
C725 C724 1.405 . S
C725 H751 0.931 . S
U726 O727 2.454 . S
U726 O728 2.458 . S
U726 C729 2.984 . S
U726 C730 2.847 . S
U726 C743 2.882 . S
U726 O744 2.441 . S
U726 O745 2.420 . S
U726 O746 2.455 . S
U726 O747 2.449 . S
O727 U726 2.454 . S
O727 C729 1.353 . S
O728 U726 2.458 . S
O728 C729 1.286 . S
C729 U726 2.984 . S
C729 O727 1.353 . S
C729 O728 1.286 . S
C729 C731 1.363 . S
C730 C720 1.465 . S
C730 U726 2.847 . S
C730 O744 1.249 . S
C730 O745 1.202 . S
C731 C729 1.363 . S
C731 C733 1.408 . S
C731 C736 1.342 . S
C732 C733 1.310 . S
C732 C735 1.461 . S
C732 H752 0.932 . S
C733 C731 1.408 . S
C733 C732 1.310 . S
C733 H753 0.930 . S
C734 C735 1.474 . S
C734 C736 1.285 . S
C734 H754 0.929 . S
C735 C732 1.461 . S
C735 C734 1.474 . S
C736 C731 1.342 . S
C736 C734 1.285 . S
C736 H755 0.930 . S
C737 C740 1.424 . S
C737 C742 1.245 . S
C737 C743 1.428 . S
C738 C741 1.260 . S
C738 C742 1.477 . S
C738 H756 0.932 . S
C739 C740 1.384 . S
C739 C741 1.479 . S
C739 H757 0.929 . S
C740 C737 1.424 . S
C740 C739 1.384 . S
C740 H758 0.928 . S
C741 C738 1.260 . S
C741 C739 1.479 . S
C742 C737 1.245 . S
C742 C738 1.477 . S
C742 H759 0.932 . S
C743 U726 2.882 . S
C743 C737 1.428 . S
C743 O746 1.301 . S
C743 O747 1.282 . S
O744 U726 2.441 . S
O744 C730 1.249 . S
O745 U726 2.420 . S
O745 C730 1.202 . S
O746 U726 2.455 . S
O746 C743 1.301 . S
O747 U726 2.449 . S
O747 C743 1.282 . S
H748 C721 0.931 . S
H749 C723 0.929 . S
H750 C724 0.930 . S
H751 C725 0.931 . S
H752 C732 0.932 . S
H753 C733 0.930 . S
H754 C734 0.929 . S
H755 C736 0.930 . S
H756 C738 0.932 . S
H757 C739 0.929 . S
H758 C740 0.928 . S
H759 C742 0.932 . S
C760 C761 1.264 . S
C760 C765 1.479 . S
C760 C770 1.465 . S
C761 C760 1.264 . S
C761 C763 1.339 . S
C761 H788 0.931 . S
C762 C763 1.395 . S
C762 C764 1.320 . S
C763 C761 1.339 . S
C763 C762 1.395 . S
C763 H789 0.929 . S
C764 C762 1.320 . S
C764 C765 1.405 . S
C764 H790 0.921 1_556 S
C765 C760 1.479 . S
C765 C764 1.405 . S
C765 H791 0.931 . S
U766 O767 2.454 . S
U766 O768 2.458 . S
U766 C769 2.984 . S
U766 C770 2.847 . S
U766 C783 2.882 . S
U766 O784 2.441 . S
U766 O785 2.420 . S
U766 O786 2.455 . S
U766 O787 2.449 . S
O767 U766 2.454 . S
O767 C769 1.353 . S
O768 U766 2.458 . S
O768 C769 1.286 . S
C769 U766 2.984 . S
C769 O767 1.353 . S
C769 O768 1.286 . S
C769 C771 1.363 . S
C770 C760 1.465 . S
C770 U766 2.847 . S
C770 O784 1.249 . S
C770 O785 1.202 . S
C771 C769 1.363 . S
C771 C773 1.408 . S
C771 C776 1.342 . S
C772 C773 1.310 . S
C772 C775 1.460 . S
C772 H792 0.932 . S
C773 C771 1.408 . S
C773 C772 1.310 . S
C773 H793 0.930 . S
C774 C775 1.475 1_554 S
C774 C776 1.286 1_554 S
C774 H794 0.930 . S
C775 C772 1.460 . S
C775 C774 1.475 1_556 S
C776 C771 1.342 . S
C776 C774 1.286 1_556 S
C776 H795 0.929 . S
C777 C780 1.424 . S
C777 C782 1.245 . S
C777 C783 1.428 . S
C778 C781 1.260 . S
C778 C782 1.477 . S
C778 H796 0.932 . S
C779 C780 1.384 . S
C779 C781 1.479 . S
C779 H797 0.929 . S
C780 C777 1.424 . S
C780 C779 1.384 . S
C780 H798 0.928 . S
C781 C778 1.260 . S
C781 C779 1.479 . S
C782 C777 1.245 . S
C782 C778 1.477 . S
C782 H799 0.932 . S
C783 U766 2.882 . S
C783 C777 1.428 . S
C783 O786 1.301 . S
C783 O787 1.282 . S
O784 U766 2.441 . S
O784 C770 1.249 . S
O785 U766 2.420 . S
O785 C770 1.202 . S
O786 U766 2.455 . S
O786 C783 1.301 . S
O787 U766 2.449 . S
O787 C783 1.282 . S
H788 C761 0.931 . S
H789 C763 0.929 . S
H790 C764 0.921 1_554 S
H791 C765 0.931 . S
H792 C772 0.932 . S
H793 C773 0.930 . S
H794 C774 0.930 . S
H795 C776 0.929 . S
H796 C778 0.932 . S
H797 C779 0.929 . S
H798 C780 0.928 . S
H799 C782 0.932 . S
C800 C801 1.264 . S
C800 C805 1.479 . S
C800 C810 1.465 . S
C801 C800 1.264 . S
C801 C803 1.339 . S
C801 H828 0.931 . S
C802 C803 1.395 . S
C802 C804 1.320 . S
C803 C801 1.339 . S
C803 C802 1.395 . S
C803 H829 0.929 . S
C804 C802 1.320 . S
C804 C805 1.405 . S
C804 H830 0.930 . S
C805 C800 1.479 . S
C805 C804 1.405 . S
C805 H831 0.931 . S
U806 O807 2.454 . S
U806 O808 2.458 . S
U806 C809 2.984 . S
U806 C810 2.847 . S
U806 C823 2.882 . S
U806 O824 2.441 . S
U806 O825 2.420 . S
U806 O826 2.455 . S
U806 O827 2.449 . S
O807 U806 2.454 . S
O807 C809 1.353 . S
O808 U806 2.458 . S
O808 C809 1.286 . S
C809 U806 2.984 . S
C809 O807 1.353 . S
C809 O808 1.286 . S
C809 C811 1.363 . S
C810 C800 1.465 . S
C810 U806 2.847 . S
C810 O824 1.249 . S
C810 O825 1.202 . S
C811 C809 1.363 . S
C811 C813 1.408 . S
C811 C816 1.342 . S
C812 C813 1.310 . S
C812 C815 1.461 . S
C812 H832 0.932 . S
C813 C811 1.408 . S
C813 C812 1.310 . S
C813 H833 0.930 . S
C814 C815 1.474 . S
C814 C816 1.285 . S
C814 H834 0.929 . S
C815 C812 1.461 . S
C815 C814 1.474 . S
C816 C811 1.342 . S
C816 C814 1.285 . S
C816 H835 0.930 . S
C817 C820 1.424 . S
C817 C822 1.245 . S
C817 C823 1.428 . S
C818 C821 1.260 . S
C818 C822 1.477 . S
C818 H836 0.932 . S
C819 C820 1.384 . S
C819 C821 1.479 . S
C819 H837 0.929 . S
C820 C817 1.424 . S
C820 C819 1.384 . S
C820 H838 0.928 . S
C821 C818 1.260 . S
C821 C819 1.479 . S
C822 C817 1.245 . S
C822 C818 1.477 . S
C822 H839 0.932 . S
C823 U806 2.882 . S
C823 C817 1.428 . S
C823 O826 1.301 . S
C823 O827 1.282 . S
O824 U806 2.441 . S
O824 C810 1.249 . S
O825 U806 2.420 . S
O825 C810 1.202 . S
O826 U806 2.455 . S
O826 C823 1.301 . S
O827 U806 2.449 . S
O827 C823 1.282 . S
H828 C801 0.931 . S
H829 C803 0.929 . S
H830 C804 0.930 . S
H831 C805 0.931 . S
H832 C812 0.932 . S
H833 C813 0.930 . S
H834 C814 0.929 . S
H835 C816 0.930 . S
H836 C818 0.932 . S
H837 C819 0.929 . S
H838 C820 0.928 . S
H839 C822 0.932 . S
C840 C841 1.267 . S
C840 C845 1.466 1_455 S
C840 C850 1.480 . S
C841 C840 1.267 . S
C841 C843 1.339 1_455 S
C841 H868 0.931 . S
C842 C843 1.395 . S
C842 C844 1.320 . S
C843 C841 1.339 1_655 S
C843 C842 1.395 . S
C843 H869 0.929 1_655 S
C844 C842 1.320 . S
C844 C845 1.405 . S
C844 H870 0.930 . S
C845 C840 1.466 1_655 S
C845 C844 1.405 . S
C845 H871 0.931 . S
U846 O847 2.454 1_455 S
U846 O848 2.458 . S
U846 C849 2.987 . S
U846 C850 2.847 . S
U846 C863 2.882 . S
U846 O864 2.441 . S
U846 O865 2.420 . S
U846 O866 2.455 . S
U846 O867 2.449 . S
O847 U846 2.454 1_655 S
O847 C849 1.350 1_655 S
O848 U846 2.458 . S
O848 C849 1.290 . S
C849 U846 2.987 . S
C849 O847 1.350 1_455 S
C849 O848 1.290 . S
C849 C851 1.361 1_455 S
C850 C840 1.480 . S
C850 U846 2.847 . S
C850 O864 1.249 . S
C850 O865 1.202 . S
C851 C849 1.361 1_655 S
C851 C853 1.408 . S
C851 C856 1.342 . S
C852 C853 1.310 . S
C852 C855 1.461 . S
C852 H872 0.932 . S
C853 C851 1.408 . S
C853 C852 1.310 . S
C853 H873 0.930 . S
C854 C855 1.474 . S
C854 C856 1.285 . S
C854 H874 0.929 . S
C855 C852 1.461 . S
C855 C854 1.474 . S
C856 C851 1.342 . S
C856 C854 1.285 . S
C856 H875 0.932 . S
C857 C860 1.424 . S
C857 C862 1.245 . S
C857 C863 1.428 . S
C858 C861 1.260 . S
C858 C862 1.477 . S
C858 H876 0.932 . S
C859 C860 1.384 . S
C859 C861 1.479 . S
C859 H877 0.929 . S
C860 C857 1.424 . S
C860 C859 1.384 . S
C860 H878 0.928 . S
C861 C858 1.260 . S
C861 C859 1.479 . S
C862 C857 1.245 . S
C862 C858 1.477 . S
C862 H879 0.932 . S
C863 U846 2.882 . S
C863 C857 1.428 . S
C863 O866 1.301 . S
C863 O867 1.282 . S
O864 U846 2.441 . S
O864 C850 1.249 . S
O865 U846 2.420 . S
O865 C850 1.202 . S
O866 U846 2.455 . S
O866 C863 1.301 . S
O867 U846 2.449 . S
O867 C863 1.282 . S
H868 C841 0.931 . S
H869 C843 0.929 1_455 S
H870 C844 0.930 . S
H871 C845 0.931 . S
H872 C852 0.932 . S
H873 C853 0.930 . S
H874 C854 0.929 . S
H875 C856 0.932 . S
H876 C858 0.932 . S
H877 C859 0.929 . S
H878 C860 0.928 . S
H879 C862 0.932 . S
C880 C881 1.264 . S
C880 C885 1.479 . S
C880 C890 1.465 . S
C881 C880 1.264 . S
C881 C883 1.339 . S
C881 H908 0.931 . S
C882 C883 1.395 . S
C882 C884 1.320 . S
C883 C881 1.339 . S
C883 C882 1.395 . S
C883 H909 0.929 . S
C884 C882 1.320 . S
C884 C885 1.405 . S
C884 H910 0.930 . S
C885 C880 1.479 . S
C885 C884 1.405 . S
C885 H911 0.931 . S
U886 O887 2.454 . S
U886 O888 2.458 . S
U886 C889 2.984 . S
U886 C890 2.847 . S
U886 C903 2.882 . S
U886 O904 2.441 . S
U886 O905 2.420 . S
U886 O906 2.455 . S
U886 O907 2.449 . S
O887 U886 2.454 . S
O887 C889 1.353 . S
O888 U886 2.458 . S
O888 C889 1.286 . S
C889 U886 2.984 . S
C889 O887 1.353 . S
C889 O888 1.286 . S
C889 C891 1.363 . S
C890 C880 1.465 . S
C890 U886 2.847 . S
C890 O904 1.249 . S
C890 O905 1.202 . S
C891 C889 1.363 . S
C891 C893 1.408 . S
C891 C896 1.342 . S
C892 C893 1.310 . S
C892 C895 1.461 . S
C892 H912 0.932 . S
C893 C891 1.408 . S
C893 C892 1.310 . S
C893 H913 0.930 . S
C894 C895 1.474 . S
C894 C896 1.285 . S
C894 H914 0.929 . S
C895 C892 1.461 . S
C895 C894 1.474 . S
C896 C891 1.342 . S
C896 C894 1.285 . S
C896 H915 0.930 . S
C897 C900 1.424 . S
C897 C902 1.245 . S
C897 C903 1.428 . S
C898 C901 1.260 . S
C898 C902 1.477 . S
C898 H916 0.932 . S
C899 C900 1.384 . S
C899 C901 1.479 . S
C899 H917 0.929 . S
C900 C897 1.424 . S
C900 C899 1.384 . S
C900 H918 0.928 . S
C901 C898 1.260 . S
C901 C899 1.479 . S
C902 C897 1.245 . S
C902 C898 1.477 . S
C902 H919 0.932 . S
C903 U886 2.882 . S
C903 C897 1.428 . S
C903 O906 1.301 . S
C903 O907 1.282 . S
O904 U886 2.441 . S
O904 C890 1.249 . S
O905 U886 2.420 . S
O905 C890 1.202 . S
O906 U886 2.455 . S
O906 C903 1.301 . S
O907 U886 2.449 . S
O907 C903 1.282 . S
H908 C881 0.931 . S
H909 C883 0.929 . S
H910 C884 0.930 . S
H911 C885 0.931 . S
H912 C892 0.932 . S
H913 C893 0.930 . S
H914 C894 0.929 . S
H915 C896 0.930 . S
H916 C898 0.932 . S
H917 C899 0.929 . S
H918 C900 0.928 . S
H919 C902 0.932 . S
C920 C921 1.264 . S
C920 C925 1.479 . S
C920 C930 1.465 . S
C921 C920 1.264 . S
C921 C923 1.339 . S
C921 H948 0.931 . S
C922 C923 1.395 . S
C922 C924 1.320 . S
C923 C921 1.339 . S
C923 C922 1.395 . S
C923 H949 0.929 . S
C924 C922 1.320 . S
C924 C925 1.405 . S
C924 H950 0.921 1_655 S
C925 C920 1.479 . S
C925 C924 1.405 . S
C925 H951 0.931 . S
U926 O927 2.454 . S
U926 O928 2.458 . S
U926 C929 2.984 . S
U926 C930 2.847 . S
U926 C943 2.882 . S
U926 O944 2.441 . S
U926 O945 2.420 . S
U926 O946 2.455 . S
U926 O947 2.449 . S
O927 U926 2.454 . S
O927 C929 1.353 . S
O928 U926 2.458 . S
O928 C929 1.286 . S
C929 U926 2.984 . S
C929 O927 1.353 . S
C929 O928 1.286 . S
C929 C931 1.363 . S
C930 C920 1.465 . S
C930 U926 2.847 . S
C930 O944 1.249 . S
C930 O945 1.202 . S
C931 C929 1.363 . S
C931 C933 1.408 . S
C931 C936 1.342 . S
C932 C933 1.310 . S
C932 C935 1.460 . S
C932 H952 0.932 . S
C933 C931 1.408 . S
C933 C932 1.310 . S
C933 H953 0.930 . S
C934 C935 1.475 1_455 S
C934 C936 1.286 1_455 S
C934 H954 0.930 . S
C935 C932 1.460 . S
C935 C934 1.475 1_655 S
C936 C931 1.342 . S
C936 C934 1.286 1_655 S
C936 H955 0.929 . S
C937 C940 1.424 . S
C937 C942 1.245 . S
C937 C943 1.428 . S
C938 C941 1.260 . S
C938 C942 1.477 . S
C938 H956 0.932 . S
C939 C940 1.384 . S
C939 C941 1.479 . S
C939 H957 0.929 . S
C940 C937 1.424 . S
C940 C939 1.384 . S
C940 H958 0.928 . S
C941 C938 1.260 . S
C941 C939 1.479 . S
C942 C937 1.245 . S
C942 C938 1.477 . S
C942 H959 0.932 . S
C943 U926 2.882 . S
C943 C937 1.428 . S
C943 O946 1.301 . S
C943 O947 1.282 . S
O944 U926 2.441 . S
O944 C930 1.249 . S
O945 U926 2.420 . S
O945 C930 1.202 . S
O946 U926 2.455 . S
O946 C943 1.301 . S
O947 U926 2.449 . S
O947 C943 1.282 . S
H948 C921 0.931 . S
H949 C923 0.929 . S
H950 C924 0.921 1_455 S
H951 C925 0.931 . S
H952 C932 0.932 . S
H953 C933 0.930 . S
H954 C934 0.930 . S
H955 C936 0.929 . S
H956 C938 0.932 . S
H957 C939 0.929 . S
H958 C940 0.928 . S
H959 C942 0.932 . S
H960 C967 0.929 . S
H961 C970 0.930 . S
H962 C972 0.929 . S
H963 C964 0.969 . S
C964 H963 0.969 . S
C964 O965 1.550 . S
C964 H966 0.973 . S
O965 C964 1.550 . S
O965 C971 1.412 . S
H966 C964 0.973 . S
C967 H960 0.929 . S
C967 C968 1.400 . S
C967 C969 1.364 . S
C968 C967 1.400 . S
C968 C972 1.377 . S
C969 C967 1.364 . S
C969 C970 1.374 . S
C970 H961 0.930 . S
C970 C969 1.374 . S
C970 C971 1.383 . S
C971 O965 1.412 . S
C971 C970 1.383 . S
C971 C972 1.394 . S
C972 H962 0.929 . S
C972 C968 1.377 . S
C972 C971 1.394 . S
H973 C980 0.929 . S
H974 C983 0.930 . S
H975 C985 0.929 . S
H976 C977 0.969 . S
C977 H976 0.969 . S
C977 O978 1.550 . S
C977 H979 0.973 1_554 S
O978 C977 1.550 . S
O978 C984 1.412 . S
H979 C977 0.973 1_556 S
C980 H973 0.929 . S
C980 C981 1.400 1_556 S
C980 C982 1.364 . S
C981 C980 1.400 1_554 S
C981 C985 1.377 . S
C982 C980 1.364 . S
C982 C983 1.374 . S
C983 H974 0.930 . S
C983 C982 1.374 . S
C983 C984 1.383 1_556 S
C984 O978 1.412 . S
C984 C983 1.383 1_554 S
C984 C985 1.394 . S
C985 H975 0.929 . S
C985 C981 1.377 . S
C985 C984 1.394 . S
H986 C993 0.929 . S
H987 C996 0.930 . S
H988 C998 0.929 . S
H989 C990 0.969 . S
C990 H989 0.969 . S
C990 O991 1.550 . S
C990 H992 0.973 . S
O991 C990 1.550 . S
O991 C997 1.412 . S
H992 C990 0.973 . S
C993 H986 0.929 . S
C993 C994 1.400 . S
C993 C995 1.364 . S
C994 C993 1.400 . S
C994 C998 1.377 . S
C995 C993 1.364 . S
C995 C996 1.374 1_565 S
C996 H987 0.930 . S
C996 C995 1.374 1_545 S
C996 C997 1.383 . S
C997 O991 1.412 . S
C997 C996 1.383 . S
C997 C998 1.394 1_545 S
C998 H988 0.929 . S
C998 C994 1.377 . S
C998 C997 1.394 1_565 S
H999 C1006 0.929 . S
H1000 C1009 0.930 . S
H1001 C1011 0.929 . S
H1002 C1003 0.969 . S
C1003 H1002 0.969 . S
C1003 O1004 1.550 . S
C1003 H1005 0.957 1_556 S
O1004 C1003 1.550 . S
O1004 C1010 1.412 . S
H1005 C1003 0.957 1_554 S
C1006 H999 0.929 . S
C1006 C1007 1.400 1_554 S
C1006 C1008 1.364 . S
C1007 C1006 1.400 1_556 S
C1007 C1011 1.377 . S
C1008 C1006 1.364 . S
C1008 C1009 1.374 . S
C1009 H1000 0.930 . S
C1009 C1008 1.374 . S
C1009 C1010 1.383 1_554 S
C1010 O1004 1.412 . S
C1010 C1009 1.383 1_556 S
C1010 C1011 1.394 . S
C1011 H1001 0.929 . S
C1011 C1007 1.377 . S
C1011 C1010 1.394 . S
H1012 C1019 0.929 . S
H1013 C1022 0.930 . S
H1014 C1024 0.929 . S
H1015 C1016 0.969 . S
C1016 H1015 0.969 . S
C1016 O1017 1.550 . S
C1016 H1018 0.973 . S
O1017 C1016 1.550 . S
O1017 C1023 1.412 . S
H1018 C1016 0.973 . S
C1019 H1012 0.929 . S
C1019 C1020 1.400 . S
C1019 C1021 1.364 . S
C1020 C1019 1.400 . S
C1020 C1024 1.377 . S
C1021 C1019 1.364 . S
C1021 C1022 1.374 . S
C1022 H1013 0.930 . S
C1022 C1021 1.374 . S
C1022 C1023 1.383 . S
C1023 O1017 1.412 . S
C1023 C1022 1.383 . S
C1023 C1024 1.394 . S
C1024 H1014 0.929 . S
C1024 C1020 1.377 . S
C1024 C1023 1.394 . S
H1025 C1032 0.929 . S
H1026 C1035 0.930 . S
H1027 C1037 0.929 . S
H1028 C1029 0.969 . S
C1029 H1028 0.969 . S
C1029 O1030 1.550 . S
C1029 H1031 0.957 1_655 S
O1030 C1029 1.550 . S
O1030 C1036 1.412 . S
H1031 C1029 0.957 1_455 S
C1032 H1025 0.929 . S
C1032 C1033 1.400 1_455 S
C1032 C1034 1.364 . S
C1033 C1032 1.400 1_655 S
C1033 C1037 1.377 . S
C1034 C1032 1.364 . S
C1034 C1035 1.374 . S
C1035 H1026 0.930 . S
C1035 C1034 1.374 . S
C1035 C1036 1.383 1_455 S
C1036 O1030 1.412 . S
C1036 C1035 1.383 1_655 S
C1036 C1037 1.394 . S
C1037 H1027 0.929 . S
C1037 C1033 1.377 . S
C1037 C1036 1.394 . S
H1038 C1045 0.929 . S
H1039 C1048 0.930 . S
H1040 C1050 0.929 . S
H1041 C1042 0.969 . S
C1042 H1041 0.969 . S
C1042 O1043 1.550 . S
C1042 H1044 0.973 1_455 S
O1043 C1042 1.550 . S
O1043 C1049 1.412 . S
H1044 C1042 0.973 1_655 S
C1045 H1038 0.929 . S
C1045 C1046 1.400 1_655 S
C1045 C1047 1.364 . S
C1046 C1045 1.400 1_455 S
C1046 C1050 1.377 . S
C1047 C1045 1.364 . S
C1047 C1048 1.374 . S
C1048 H1039 0.930 . S
C1048 C1047 1.374 . S
C1048 C1049 1.383 1_655 S
C1049 O1043 1.412 . S
C1049 C1048 1.383 1_455 S
C1049 C1050 1.394 . S
C1050 H1040 0.929 . S
C1050 C1046 1.377 . S
C1050 C1049 1.394 . S
H1051 C1058 0.929 . S
H1052 C1061 0.930 . S
H1053 C1063 0.929 . S
H1054 C1055 0.969 . S
C1055 H1054 0.969 . S
C1055 O1056 1.550 . S
C1055 H1057 0.973 . S
O1056 C1055 1.550 . S
O1056 C1062 1.412 . S
H1057 C1055 0.973 . S
C1058 H1051 0.929 . S
C1058 C1059 1.400 . S
C1058 C1060 1.364 . S
C1059 C1058 1.400 . S
C1059 C1063 1.377 . S
C1060 C1058 1.364 . S
C1060 C1061 1.374 1_556 S
C1061 H1052 0.930 . S
C1061 C1060 1.374 1_554 S
C1061 C1062 1.383 . S
C1062 O1056 1.412 . S
C1062 C1061 1.383 . S
C1062 C1063 1.394 1_554 S
C1063 H1053 0.929 . S
C1063 C1059 1.377 . S
C1063 C1062 1.394 1_556 S
H1064 C1071 0.929 . S
H1065 C1074 0.930 . S
H1066 C1076 0.929 . S
H1067 C1068 0.969 . S
C1068 H1067 0.969 . S
C1068 O1069 1.550 . S
C1068 H1070 0.973 . S
O1069 C1068 1.550 . S
O1069 C1075 1.412 . S
H1070 C1068 0.973 . S
C1071 H1064 0.929 . S
C1071 C1072 1.400 . S
C1071 C1073 1.364 . S
C1072 C1071 1.400 . S
C1072 C1076 1.377 . S
C1073 C1071 1.364 . S
C1073 C1074 1.374 . S
C1074 H1065 0.930 . S
C1074 C1073 1.374 . S
C1074 C1075 1.383 . S
C1075 O1069 1.412 . S
C1075 C1074 1.383 . S
C1075 C1076 1.394 . S
C1076 H1066 0.929 . S
C1076 C1072 1.377 . S
C1076 C1075 1.394 . S
H1077 C1084 0.929 . S
H1078 C1087 0.930 . S
H1079 C1089 0.929 . S
H1080 C1081 0.969 . S
C1081 H1080 0.969 . S
C1081 O1082 1.550 . S
C1081 H1083 0.957 1_565 S
O1082 C1081 1.550 . S
O1082 C1088 1.412 . S
H1083 C1081 0.957 1_545 S
C1084 H1077 0.929 . S
C1084 C1085 1.400 1_545 S
C1084 C1086 1.364 . S
C1085 C1084 1.400 1_565 S
C1085 C1089 1.377 . S
C1086 C1084 1.364 . S
C1086 C1087 1.374 . S
C1087 H1078 0.930 . S
C1087 C1086 1.374 . S
C1087 C1088 1.383 1_545 S
C1088 O1082 1.412 . S
C1088 C1087 1.383 1_565 S
C1088 C1089 1.394 . S
C1089 H1079 0.929 . S
C1089 C1085 1.377 . S
C1089 C1088 1.394 . S
H1090 C1097 0.929 . S
H1091 C1100 0.930 . S
H1092 C1102 0.929 . S
H1093 C1094 0.969 . S
C1094 H1093 0.969 . S
C1094 O1095 1.550 . S
C1094 H1096 0.973 1_545 S
O1095 C1094 1.550 . S
O1095 C1101 1.412 . S
H1096 C1094 0.973 1_565 S
C1097 H1090 0.929 . S
C1097 C1098 1.400 1_565 S
C1097 C1099 1.364 . S
C1098 C1097 1.400 1_545 S
C1098 C1102 1.377 . S
C1099 C1097 1.364 . S
C1099 C1100 1.374 . S
C1100 H1091 0.930 . S
C1100 C1099 1.374 . S
C1100 C1101 1.383 1_565 S
C1101 O1095 1.412 . S
C1101 C1100 1.383 1_545 S
C1101 C1102 1.394 . S
C1102 H1092 0.929 . S
C1102 C1098 1.377 . S
C1102 C1101 1.394 . S
H1103 C1110 0.929 . S
H1104 C1113 0.930 . S
H1105 C1115 0.929 . S
H1106 C1107 0.969 . S
C1107 H1106 0.969 . S
C1107 O1108 1.550 . S
C1107 H1109 0.973 . S
O1108 C1107 1.550 . S
O1108 C1114 1.412 . S
H1109 C1107 0.973 . S
C1110 H1103 0.929 . S
C1110 C1111 1.400 . S
C1110 C1112 1.364 . S
C1111 C1110 1.400 . S
C1111 C1115 1.377 . S
C1112 C1110 1.364 . S
C1112 C1113 1.374 1_655 S
C1113 H1104 0.930 . S
C1113 C1112 1.374 1_455 S
C1113 C1114 1.383 . S
C1114 O1108 1.412 . S
C1114 C1113 1.383 . S
C1114 C1115 1.394 1_455 S
C1115 H1105 0.929 . S
C1115 C1111 1.377 . S
C1115 C1114 1.394 1_655 S
H1116 C1123 0.929 . S
H1117 C1126 0.930 . S
H1118 C1128 0.929 . S
H1119 C1120 0.969 . S
C1120 H1119 0.969 . S
C1120 O1121 1.550 . S
C1120 H1122 0.973 . S
O1121 C1120 1.550 . S
O1121 C1127 1.412 . S
H1122 C1120 0.973 . S
C1123 H1116 0.929 . S
C1123 C1124 1.400 . S
C1123 C1125 1.364 . S
C1124 C1123 1.400 . S
C1124 C1128 1.377 . S
C1125 C1123 1.364 . S
C1125 C1126 1.374 . S
C1126 H1117 0.930 . S
C1126 C1125 1.374 . S
C1126 C1127 1.383 . S
C1127 O1121 1.412 . S
C1127 C1126 1.383 . S
C1127 C1128 1.394 . S
C1128 H1118 0.929 . S
C1128 C1124 1.377 . S
C1128 C1127 1.394 . S
H1129 C1136 0.929 . S
H1130 C1139 0.930 . S
H1131 C1141 0.929 . S
H1132 C1133 0.938 1_554 S
C1133 H1132 0.938 1_556 S
C1133 O1134 1.579 . S
C1133 H1135 0.961 1_556 S
O1134 C1133 1.579 . S
O1134 C1140 1.412 . S
H1135 C1133 0.961 1_554 S
C1136 H1129 0.929 . S
C1136 C1137 1.400 1_554 S
C1136 C1138 1.364 . S
C1137 C1136 1.400 1_556 S
C1137 C1141 1.377 . S
C1138 C1136 1.364 . S
C1138 C1139 1.374 . S
C1139 H1130 0.930 . S
C1139 C1138 1.374 . S
C1139 C1140 1.383 1_554 S
C1140 O1134 1.412 . S
C1140 C1139 1.383 1_556 S
C1140 C1141 1.394 . S
C1141 H1131 0.929 . S
C1141 C1137 1.377 . S
C1141 C1140 1.394 . S
H1142 C1149 0.929 . S
H1143 C1152 0.930 . S
H1144 C1154 0.929 . S
H1145 C1146 0.969 . S
C1146 H1145 0.969 . S
C1146 O1147 1.550 . S
C1146 H1148 0.973 . S
O1147 C1146 1.550 . S
O1147 C1153 1.412 . S
H1148 C1146 0.973 . S
C1149 H1142 0.929 . S
C1149 C1150 1.400 . S
C1149 C1151 1.364 . S
C1150 C1149 1.400 . S
C1150 C1154 1.377 . S
C1151 C1149 1.364 . S
C1151 C1152 1.374 1_545 S
C1152 H1143 0.930 . S
C1152 C1151 1.374 1_565 S
C1152 C1153 1.383 . S
C1153 O1147 1.412 . S
C1153 C1152 1.383 . S
C1153 C1154 1.394 1_565 S
C1154 H1144 0.929 . S
C1154 C1150 1.377 . S
C1154 C1153 1.394 1_545 S
H1155 C1162 0.929 . S
H1156 C1165 0.930 . S
H1157 C1167 0.929 . S
H1158 C1159 0.969 . S
C1159 H1158 0.969 . S
C1159 O1160 1.550 . S
C1159 H1161 0.973 1_554 S
O1160 C1159 1.550 . S
O1160 C1166 1.412 . S
H1161 C1159 0.973 1_556 S
C1162 H1155 0.929 . S
C1162 C1163 1.400 1_556 S
C1162 C1164 1.364 . S
C1163 C1162 1.400 1_554 S
C1163 C1167 1.377 . S
C1164 C1162 1.364 . S
C1164 C1165 1.374 . S
C1165 H1156 0.930 . S
C1165 C1164 1.374 . S
C1165 C1166 1.383 1_556 S
C1166 O1160 1.412 . S
C1166 C1165 1.383 1_554 S
C1166 C1167 1.394 . S
C1167 H1157 0.929 . S
C1167 C1163 1.377 . S
C1167 C1166 1.394 . S
H1168 C1175 0.929 . S
H1169 C1178 0.930 . S
H1170 C1180 0.929 . S
H1171 C1172 0.969 . S
C1172 H1171 0.969 . S
C1172 O1173 1.550 . S
C1172 H1174 0.973 . S
O1173 C1172 1.550 . S
O1173 C1179 1.412 . S
H1174 C1172 0.973 . S
C1175 H1168 0.929 . S
C1175 C1176 1.400 . S
C1175 C1177 1.364 . S
C1176 C1175 1.400 . S
C1176 C1180 1.377 . S
C1177 C1175 1.364 . S
C1177 C1178 1.374 . S
C1178 H1169 0.930 . S
C1178 C1177 1.374 . S
C1178 C1179 1.383 . S
C1179 O1173 1.412 . S
C1179 C1178 1.383 . S
C1179 C1180 1.394 . S
C1180 H1170 0.929 . S
C1180 C1176 1.377 . S
C1180 C1179 1.394 . S
H1181 C1188 0.929 . S
H1182 C1191 0.930 . S
H1183 C1193 0.929 . S
H1184 C1185 0.969 . S
C1185 H1184 0.969 . S
C1185 O1186 1.550 . S
C1185 H1187 0.973 1_455 S
O1186 C1185 1.550 . S
O1186 C1192 1.412 . S
H1187 C1185 0.973 1_655 S
C1188 H1181 0.929 . S
C1188 C1189 1.400 1_655 S
C1188 C1190 1.364 . S
C1189 C1188 1.400 1_455 S
C1189 C1193 1.377 . S
C1190 C1188 1.364 . S
C1190 C1191 1.374 . S
C1191 H1182 0.930 . S
C1191 C1190 1.374 . S
C1191 C1192 1.383 1_655 S
C1192 O1186 1.412 . S
C1192 C1191 1.383 1_455 S
C1192 C1193 1.394 . S
C1193 H1183 0.929 . S
C1193 C1189 1.377 . S
C1193 C1192 1.394 . S
H1194 C1201 0.929 . S
H1195 C1204 0.930 . S
H1196 C1206 0.929 . S
H1197 C1198 0.938 1_455 S
C1198 H1197 0.938 1_655 S
C1198 O1199 1.579 . S
C1198 H1200 0.961 1_655 S
O1199 C1198 1.579 . S
O1199 C1205 1.412 . S
H1200 C1198 0.961 1_455 S
C1201 H1194 0.929 . S
C1201 C1202 1.400 1_455 S
C1201 C1203 1.364 . S
C1202 C1201 1.400 1_655 S
C1202 C1206 1.377 . S
C1203 C1201 1.364 . S
C1203 C1204 1.374 . S
C1204 H1195 0.930 . S
C1204 C1203 1.374 . S
C1204 C1205 1.383 1_455 S
C1205 O1199 1.412 . S
C1205 C1204 1.383 1_655 S
C1205 C1206 1.394 . S
C1206 H1196 0.929 . S
C1206 C1202 1.377 . S
C1206 C1205 1.394 . S
H1207 C1214 0.929 . S
H1208 C1217 0.930 . S
H1209 C1219 0.929 . S
H1210 C1211 0.969 . S
C1211 H1210 0.969 . S
C1211 O1212 1.550 . S
C1211 H1213 0.973 . S
O1212 C1211 1.550 . S
O1212 C1218 1.412 . S
H1213 C1211 0.973 . S
C1214 H1207 0.929 . S
C1214 C1215 1.400 . S
C1214 C1216 1.364 . S
C1215 C1214 1.400 . S
C1215 C1219 1.377 . S
C1216 C1214 1.364 . S
C1216 C1217 1.374 1_554 S
C1217 H1208 0.930 . S
C1217 C1216 1.374 1_556 S
C1217 C1218 1.383 . S
C1218 O1212 1.412 . S
C1218 C1217 1.383 . S
C1218 C1219 1.394 1_556 S
C1219 H1209 0.929 . S
C1219 C1215 1.377 . S
C1219 C1218 1.394 1_554 S
H1220 C1227 0.929 . S
H1221 C1230 0.930 . S
H1222 C1232 0.929 . S
H1223 C1224 0.969 . S
C1224 H1223 0.969 . S
C1224 O1225 1.550 . S
C1224 H1226 0.973 . S
O1225 C1224 1.550 . S
O1225 C1231 1.412 . S
H1226 C1224 0.973 . S
C1227 H1220 0.929 . S
C1227 C1228 1.400 . S
C1227 C1229 1.364 . S
C1228 C1227 1.400 . S
C1228 C1232 1.377 . S
C1229 C1227 1.364 . S
C1229 C1230 1.374 . S
C1230 H1221 0.930 . S
C1230 C1229 1.374 . S
C1230 C1231 1.383 . S
C1231 O1225 1.412 . S
C1231 C1230 1.383 . S
C1231 C1232 1.394 . S
C1232 H1222 0.929 . S
C1232 C1228 1.377 . S
C1232 C1231 1.394 . S
H1233 C1240 0.929 . S
H1234 C1243 0.930 . S
H1235 C1245 0.929 . S
H1236 C1237 0.969 . S
C1237 H1236 0.969 . S
C1237 O1238 1.550 . S
C1237 H1239 0.973 1_545 S
O1238 C1237 1.550 . S
O1238 C1244 1.412 . S
H1239 C1237 0.973 1_565 S
C1240 H1233 0.929 . S
C1240 C1241 1.400 1_565 S
C1240 C1242 1.364 . S
C1241 C1240 1.400 1_545 S
C1241 C1245 1.377 . S
C1242 C1240 1.364 . S
C1242 C1243 1.374 . S
C1243 H1234 0.930 . S
C1243 C1242 1.374 . S
C1243 C1244 1.383 1_565 S
C1244 O1238 1.412 . S
C1244 C1243 1.383 1_545 S
C1244 C1245 1.394 . S
C1245 H1235 0.929 . S
C1245 C1241 1.377 . S
C1245 C1244 1.394 . S
H1246 C1253 0.929 . S
H1247 C1256 0.930 . S
H1248 C1258 0.929 . S
H1249 C1250 0.938 1_545 S
C1250 H1249 0.938 1_565 S
C1250 O1251 1.579 . S
C1250 H1252 0.961 1_565 S
O1251 C1250 1.579 . S
O1251 C1257 1.412 . S
H1252 C1250 0.961 1_545 S
C1253 H1246 0.929 . S
C1253 C1254 1.400 1_545 S
C1253 C1255 1.364 . S
C1254 C1253 1.400 1_565 S
C1254 C1258 1.377 . S
C1255 C1253 1.364 . S
C1255 C1256 1.374 . S
C1256 H1247 0.930 . S
C1256 C1255 1.374 . S
C1256 C1257 1.383 1_545 S
C1257 O1251 1.412 . S
C1257 C1256 1.383 1_565 S
C1257 C1258 1.394 . S
C1258 H1248 0.929 . S
C1258 C1254 1.377 . S
C1258 C1257 1.394 . S
H1259 C1266 0.929 . S
H1260 C1269 0.930 . S
H1261 C1271 0.929 . S
H1262 C1263 0.969 . S
C1263 H1262 0.969 . S
C1263 O1264 1.550 . S
C1263 H1265 0.973 . S
O1264 C1263 1.550 . S
O1264 C1270 1.412 . S
H1265 C1263 0.973 . S
C1266 H1259 0.929 . S
C1266 C1267 1.400 . S
C1266 C1268 1.364 . S
C1267 C1266 1.400 . S
C1267 C1271 1.377 . S
C1268 C1266 1.364 . S
C1268 C1269 1.374 1_455 S
C1269 H1260 0.930 . S
C1269 C1268 1.374 1_655 S
C1269 C1270 1.383 . S
C1270 O1264 1.412 . S
C1270 C1269 1.383 . S
C1270 C1271 1.394 1_655 S
C1271 H1261 0.929 . S
C1271 C1267 1.377 . S
C1271 C1270 1.394 1_455 S
C1272 C1273 1.349 . S
C1272 C1274 1.327 . S
C1272 H1297 0.950 . S
C1273 C1272 1.349 . S
C1273 C1289 1.349 . S
C1274 C1272 1.327 . S
C1274 C1293 1.429 . S
C1274 H1298 0.950 . S
C1275 C1292 1.574 . S
C1275 C1294 1.368 . S
C1275 H1299 0.949 . S
H1276 C1280 0.949 . S
C1277 C1278 1.349 . S
C1277 C1279 1.327 . S
C1277 H1300 0.950 . S
C1278 C1277 1.349 . S
C1278 C1290 1.349 . S
C1279 C1277 1.327 . S
C1279 C1295 1.429 . S
C1279 H1301 0.950 . S
C1280 H1276 0.949 . S
C1280 C1288 1.574 . S
C1280 C1296 1.368 . S
H1281 C1289 0.950 . S
H1282 C1287 0.950 . S
H1283 C1288 0.949 . S
H1284 C1290 0.950 . S
H1285 C1291 0.950 . S
H1286 C1292 0.949 . S
C1287 H1282 0.950 . S
C1287 C1289 1.327 . S
C1287 C1293 1.429 . S
C1288 C1280 1.574 . S
C1288 H1283 0.949 . S
C1288 C1294 1.368 . S
C1289 C1273 1.349 . S
C1289 H1281 0.950 . S
C1289 C1287 1.327 . S
C1290 C1278 1.349 . S
C1290 H1284 0.950 . S
C1290 C1291 1.327 . S
C1291 H1285 0.950 . S
C1291 C1290 1.327 . S
C1291 C1295 1.429 . S
C1292 C1275 1.574 . S
C1292 H1286 0.949 . S
C1292 C1296 1.368 . S
C1293 C1274 1.429 . S
C1293 C1287 1.429 . S
C1293 C1294 1.523 . S
C1294 C1275 1.368 . S
C1294 C1288 1.368 . S
C1294 C1293 1.523 . S
C1295 C1279 1.429 . S
C1295 C1291 1.429 . S
C1295 C1296 1.523 . S
C1296 C1280 1.368 . S
C1296 C1292 1.368 . S
C1296 C1295 1.523 . S
H1297 C1272 0.950 . S
H1298 C1274 0.950 . S
H1299 C1275 0.949 . S
H1300 C1277 0.950 . S
H1301 C1279 0.950 . S
C1302 C1303 1.349 . S
C1302 C1304 1.327 . S
C1302 H1327 0.950 . S
C1303 C1302 1.349 . S
C1303 C1319 1.349 . S
C1304 C1302 1.327 . S
C1304 C1323 1.429 . S
C1304 H1328 0.950 . S
C1305 C1322 1.574 . S
C1305 C1324 1.368 . S
C1305 H1329 0.949 . S
H1306 C1310 0.949 . S
C1307 C1308 1.349 . S
C1307 C1309 1.327 . S
C1307 H1330 0.950 . S
C1308 C1307 1.349 . S
C1308 C1320 1.349 . S
C1309 C1307 1.327 . S
C1309 C1325 1.429 . S
C1309 H1331 0.950 . S
C1310 H1306 0.949 . S
C1310 C1318 1.574 . S
C1310 C1326 1.368 . S
H1311 C1319 0.950 . S
H1312 C1317 0.950 . S
H1313 C1318 0.949 . S
H1314 C1320 0.950 . S
H1315 C1321 0.950 . S
H1316 C1322 0.949 . S
C1317 H1312 0.950 . S
C1317 C1319 1.327 . S
C1317 C1323 1.429 . S
C1318 C1310 1.574 . S
C1318 H1313 0.949 . S
C1318 C1324 1.368 . S
C1319 C1303 1.349 . S
C1319 H1311 0.950 . S
C1319 C1317 1.327 . S
C1320 C1308 1.349 . S
C1320 H1314 0.950 . S
C1320 C1321 1.327 . S
C1321 H1315 0.950 . S
C1321 C1320 1.327 . S
C1321 C1325 1.429 . S
C1322 C1305 1.574 . S
C1322 H1316 0.949 . S
C1322 C1326 1.368 . S
C1323 C1304 1.429 . S
C1323 C1317 1.429 . S
C1323 C1324 1.523 . S
C1324 C1305 1.368 . S
C1324 C1318 1.368 . S
C1324 C1323 1.523 . S
C1325 C1309 1.429 . S
C1325 C1321 1.429 . S
C1325 C1326 1.523 . S
C1326 C1310 1.368 . S
C1326 C1322 1.368 . S
C1326 C1325 1.523 . S
H1327 C1302 0.950 . S
H1328 C1304 0.950 . S
H1329 C1305 0.949 . S
H1330 C1307 0.950 . S
H1331 C1309 0.950 . S
C1332 C1333 1.336 1_565 S
C1332 C1334 1.327 . S
C1332 H1357 0.950 . S
C1333 C1332 1.336 1_545 S
C1333 C1349 1.361 . S
C1334 C1332 1.327 . S
C1334 C1353 1.429 . S
C1334 H1358 0.950 . S
C1335 C1352 1.574 . S
C1335 C1354 1.368 1_545 S
C1335 H1359 0.949 . S
H1336 C1340 0.949 . S
C1337 C1338 1.326 1_545 S
C1337 C1339 1.329 . S
C1337 H1360 0.971 . S
C1338 C1337 1.326 1_565 S
C1338 C1350 1.349 . S
C1339 C1337 1.329 . S
C1339 C1355 1.429 1_545 S
C1339 H1361 0.950 . S
C1340 H1336 0.949 . S
C1340 C1348 1.574 . S
C1340 C1356 1.368 . S
H1341 C1349 0.950 . S
H1342 C1347 0.950 . S
H1343 C1348 0.949 . S
H1344 C1350 0.950 . S
H1345 C1351 0.950 . S
H1346 C1352 0.949 . S
C1347 H1342 0.950 . S
C1347 C1349 1.327 . S
C1347 C1353 1.429 1_545 S
C1348 C1340 1.574 . S
C1348 H1343 0.949 . S
C1348 C1354 1.368 . S
C1349 C1333 1.361 . S
C1349 H1341 0.950 . S
C1349 C1347 1.327 . S
C1350 C1338 1.349 . S
C1350 H1344 0.950 . S
C1350 C1351 1.327 . S
C1351 H1345 0.950 . S
C1351 C1350 1.327 . S
C1351 C1355 1.429 . S
C1352 C1335 1.574 . S
C1352 H1346 0.949 . S
C1352 C1356 1.368 1_545 S
C1353 C1334 1.429 . S
C1353 C1347 1.429 1_565 S
C1353 C1354 1.523 . S
C1354 C1335 1.368 1_565 S
C1354 C1348 1.368 . S
C1354 C1353 1.523 . S
C1355 C1339 1.429 1_565 S
C1355 C1351 1.429 . S
C1355 C1356 1.523 . S
C1356 C1340 1.368 . S
C1356 C1352 1.368 1_565 S
C1356 C1355 1.523 . S
H1357 C1332 0.950 . S
H1358 C1334 0.950 . S
H1359 C1335 0.949 . S
H1360 C1337 0.971 . S
H1361 C1339 0.950 . S
C1362 C1363 1.349 1_565 S
C1362 C1364 1.327 . S
C1362 H1387 0.950 . S
C1363 C1362 1.349 1_545 S
C1363 C1379 1.349 . S
C1364 C1362 1.327 . S
C1364 C1383 1.429 1_565 S
C1364 H1388 0.950 . S
C1365 C1382 1.574 . S
C1365 C1384 1.368 . S
C1365 H1389 0.949 . S
H1366 C1370 0.949 . S
C1367 C1368 1.349 . S
C1367 C1369 1.327 . S
C1367 H1390 0.950 . S
C1368 C1367 1.349 . S
C1368 C1380 1.349 1_545 S
C1369 C1367 1.327 . S
C1369 C1385 1.429 . S
C1369 H1391 0.950 . S
C1370 H1366 0.949 . S
C1370 C1378 1.574 . S
C1370 C1386 1.368 1_565 S
H1371 C1379 0.950 . S
H1372 C1377 0.950 . S
H1373 C1378 0.949 . S
H1374 C1380 0.950 . S
H1375 C1381 0.950 . S
H1376 C1382 0.949 . S
C1377 H1372 0.950 . S
C1377 C1379 1.327 . S
C1377 C1383 1.429 . S
C1378 C1370 1.574 . S
C1378 H1373 0.949 . S
C1378 C1384 1.368 1_565 S
C1379 C1363 1.349 . S
C1379 H1371 0.950 . S
C1379 C1377 1.327 . S
C1380 C1368 1.349 1_565 S
C1380 H1374 0.950 . S
C1380 C1381 1.327 . S
C1381 H1375 0.950 . S
C1381 C1380 1.327 . S
C1381 C1385 1.429 1_565 S
C1382 C1365 1.574 . S
C1382 H1376 0.949 . S
C1382 C1386 1.368 . S
C1383 C1364 1.429 1_545 S
C1383 C1377 1.429 . S
C1383 C1384 1.523 . S
C1384 C1365 1.368 . S
C1384 C1378 1.368 1_545 S
C1384 C1383 1.523 . S
C1385 C1369 1.429 . S
C1385 C1381 1.429 1_545 S
C1385 C1386 1.523 1_455 S
C1386 C1370 1.368 1_545 S
C1386 C1382 1.368 . S
C1386 C1385 1.523 1_655 S
H1387 C1362 0.950 . S
H1388 C1364 0.950 . S
H1389 C1365 0.949 . S
H1390 C1367 0.950 . S
H1391 C1369 0.950 . S
C1392 C1393 1.349 . S
C1392 C1394 1.327 . S
C1392 H1417 0.950 . S
C1393 C1392 1.349 . S
C1393 C1409 1.349 . S
C1394 C1392 1.327 . S
C1394 C1413 1.429 . S
C1394 H1418 0.950 . S
C1395 C1412 1.574 . S
C1395 C1414 1.368 . S
C1395 H1419 0.949 . S
H1396 C1400 0.949 . S
C1397 C1398 1.349 . S
C1397 C1399 1.327 . S
C1397 H1420 0.950 . S
C1398 C1397 1.349 . S
C1398 C1410 1.349 . S
C1399 C1397 1.327 . S
C1399 C1415 1.429 . S
C1399 H1421 0.950 . S
C1400 H1396 0.949 . S
C1400 C1408 1.574 . S
C1400 C1416 1.368 . S
H1401 C1409 0.950 . S
H1402 C1407 0.950 . S
H1403 C1408 0.949 . S
H1404 C1410 0.950 . S
H1405 C1411 0.950 . S
H1406 C1412 0.949 . S
C1407 H1402 0.950 . S
C1407 C1409 1.327 . S
C1407 C1413 1.429 . S
C1408 C1400 1.574 . S
C1408 H1403 0.949 . S
C1408 C1414 1.368 . S
C1409 C1393 1.349 . S
C1409 H1401 0.950 . S
C1409 C1407 1.327 . S
C1410 C1398 1.349 . S
C1410 H1404 0.950 . S
C1410 C1411 1.327 . S
C1411 H1405 0.950 . S
C1411 C1410 1.327 . S
C1411 C1415 1.429 . S
C1412 C1395 1.574 . S
C1412 H1406 0.949 . S
C1412 C1416 1.368 . S
C1413 C1394 1.429 . S
C1413 C1407 1.429 . S
C1413 C1414 1.523 . S
C1414 C1395 1.368 . S
C1414 C1408 1.368 . S
C1414 C1413 1.523 . S
C1415 C1399 1.429 . S
C1415 C1411 1.429 . S
C1415 C1416 1.523 . S
C1416 C1400 1.368 . S
C1416 C1412 1.368 . S
C1416 C1415 1.523 . S
H1417 C1392 0.950 . S
H1418 C1394 0.950 . S
H1419 C1395 0.949 . S
H1420 C1397 0.950 . S
H1421 C1399 0.950 . S
C1422 C1423 1.349 1_556 S
C1422 C1424 1.327 . S
C1422 H1447 0.950 . S
C1423 C1422 1.349 1_554 S
C1423 C1439 1.349 . S
C1424 C1422 1.327 . S
C1424 C1443 1.429 1_556 S
C1424 H1448 0.950 . S
C1425 C1442 1.574 . S
C1425 C1444 1.368 . S
C1425 H1449 0.949 . S
H1426 C1430 0.949 . S
C1427 C1428 1.349 . S
C1427 C1429 1.327 . S
C1427 H1450 0.950 . S
C1428 C1427 1.349 . S
C1428 C1440 1.349 1_554 S
C1429 C1427 1.327 . S
C1429 C1445 1.429 . S
C1429 H1451 0.950 . S
C1430 H1426 0.949 . S
C1430 C1438 1.574 . S
C1430 C1446 1.368 1_556 S
H1431 C1439 0.950 . S
H1432 C1437 0.950 . S
H1433 C1438 0.949 . S
H1434 C1440 0.950 . S
H1435 C1441 0.950 . S
H1436 C1442 0.949 . S
C1437 H1432 0.950 . S
C1437 C1439 1.327 . S
C1437 C1443 1.429 . S
C1438 C1430 1.574 . S
C1438 H1433 0.949 . S
C1438 C1444 1.368 1_556 S
C1439 C1423 1.349 . S
C1439 H1431 0.950 . S
C1439 C1437 1.327 . S
C1440 C1428 1.349 1_556 S
C1440 H1434 0.950 . S
C1440 C1441 1.327 . S
C1441 H1435 0.950 . S
C1441 C1440 1.327 . S
C1441 C1445 1.429 1_556 S
C1442 C1425 1.574 . S
C1442 H1436 0.949 . S
C1442 C1446 1.368 . S
C1443 C1424 1.429 1_554 S
C1443 C1437 1.429 . S
C1443 C1444 1.523 . S
C1444 C1425 1.368 . S
C1444 C1438 1.368 1_554 S
C1444 C1443 1.523 . S
C1445 C1429 1.429 . S
C1445 C1441 1.429 1_554 S
C1445 C1446 1.523 1_545 S
C1446 C1430 1.368 1_554 S
C1446 C1442 1.368 . S
C1446 C1445 1.523 1_565 S
H1447 C1422 0.950 . S
H1448 C1424 0.950 . S
H1449 C1425 0.949 . S
H1450 C1427 0.950 . S
H1451 C1429 0.950 . S
C1452 C1453 1.349 . S
C1452 C1454 1.327 . S
C1452 H1477 0.950 . S
C1453 C1452 1.349 . S
C1453 C1469 1.349 . S
C1454 C1452 1.327 . S
C1454 C1473 1.429 . S
C1454 H1478 0.950 . S
C1455 C1472 1.574 . S
C1455 C1474 1.368 . S
C1455 H1479 0.949 . S
H1456 C1460 0.949 . S
C1457 C1458 1.349 . S
C1457 C1459 1.327 . S
C1457 H1480 0.950 . S
C1458 C1457 1.349 . S
C1458 C1470 1.349 . S
C1459 C1457 1.327 . S
C1459 C1475 1.429 . S
C1459 H1481 0.950 . S
C1460 H1456 0.949 . S
C1460 C1468 1.574 . S
C1460 C1476 1.368 . S
H1461 C1469 0.950 . S
H1462 C1467 0.950 . S
H1463 C1468 0.949 . S
H1464 C1470 0.950 . S
H1465 C1471 0.950 . S
H1466 C1472 0.949 . S
C1467 H1462 0.950 . S
C1467 C1469 1.327 . S
C1467 C1473 1.429 . S
C1468 C1460 1.574 . S
C1468 H1463 0.949 . S
C1468 C1474 1.368 . S
C1469 C1453 1.349 . S
C1469 H1461 0.950 . S
C1469 C1467 1.327 . S
C1470 C1458 1.349 . S
C1470 H1464 0.950 . S
C1470 C1471 1.327 . S
C1471 H1465 0.950 . S
C1471 C1470 1.327 . S
C1471 C1475 1.429 . S
C1472 C1455 1.574 . S
C1472 H1466 0.949 . S
C1472 C1476 1.368 . S
C1473 C1454 1.429 . S
C1473 C1467 1.429 . S
C1473 C1474 1.523 . S
C1474 C1455 1.368 . S
C1474 C1468 1.368 . S
C1474 C1473 1.523 . S
C1475 C1459 1.429 . S
C1475 C1471 1.429 . S
C1475 C1476 1.523 . S
C1476 C1460 1.368 . S
C1476 C1472 1.368 . S
C1476 C1475 1.523 . S
H1477 C1452 0.950 . S
H1478 C1454 0.950 . S
H1479 C1455 0.949 . S
H1480 C1457 0.950 . S
H1481 C1459 0.950 . S
C1482 C1483 1.338 1_556 S
C1482 C1484 1.327 . S
C1482 H1507 0.950 . S
C1483 C1482 1.338 1_554 S
C1483 C1499 1.359 . S
C1484 C1482 1.327 . S
C1484 C1503 1.429 . S
C1484 H1508 0.950 . S
C1485 C1502 1.574 . S
C1485 C1504 1.368 1_554 S
C1485 H1509 0.949 . S
H1486 C1490 0.949 . S
C1487 C1488 1.349 . S
C1487 C1489 1.327 1_556 S
C1487 H1510 0.950 1_556 S
C1488 C1487 1.349 . S
C1488 C1500 1.349 . S
C1489 C1487 1.327 1_554 S
C1489 C1505 1.432 1_554 S
C1489 H1511 0.946 . S
C1490 H1486 0.949 . S
C1490 C1498 1.574 . S
C1490 C1506 1.368 . S
H1491 C1499 0.950 . S
H1492 C1497 0.950 . S
H1493 C1498 0.949 . S
H1494 C1500 0.950 . S
H1495 C1501 0.950 . S
H1496 C1502 0.949 . S
C1497 H1492 0.950 . S
C1497 C1499 1.327 . S
C1497 C1503 1.429 1_554 S
C1498 C1490 1.574 . S
C1498 H1493 0.949 . S
C1498 C1504 1.368 . S
C1499 C1483 1.359 . S
C1499 H1491 0.950 . S
C1499 C1497 1.327 . S
C1500 C1488 1.349 . S
C1500 H1494 0.950 . S
C1500 C1501 1.327 . S
C1501 H1495 0.950 . S
C1501 C1500 1.327 . S
C1501 C1505 1.429 . S
C1502 C1485 1.574 . S
C1502 H1496 0.949 . S
C1502 C1506 1.368 1_554 S
C1503 C1484 1.429 . S
C1503 C1497 1.429 1_556 S
C1503 C1504 1.523 . S
C1504 C1485 1.368 1_556 S
C1504 C1498 1.368 . S
C1504 C1503 1.523 . S
C1505 C1489 1.432 1_556 S
C1505 C1501 1.429 . S
C1505 C1506 1.523 . S
C1506 C1490 1.368 . S
C1506 C1502 1.368 1_556 S
C1506 C1505 1.523 . S
H1507 C1482 0.950 . S
H1508 C1484 0.950 . S
H1509 C1485 0.949 . S
H1510 C1487 0.950 1_554 S
H1511 C1489 0.946 . S
C1512 C1513 1.349 . S
C1512 C1514 1.327 . S
C1512 H1537 0.950 . S
C1513 C1512 1.349 . S
C1513 C1529 1.349 . S
C1514 C1512 1.327 . S
C1514 C1533 1.429 . S
C1514 H1538 0.950 . S
C1515 C1532 1.574 . S
C1515 C1534 1.368 . S
C1515 H1539 0.949 . S
H1516 C1520 0.949 . S
C1517 C1518 1.349 . S
C1517 C1519 1.327 . S
C1517 H1540 0.950 . S
C1518 C1517 1.349 . S
C1518 C1530 1.349 . S
C1519 C1517 1.327 . S
C1519 C1535 1.429 . S
C1519 H1541 0.950 . S
C1520 H1516 0.949 . S
C1520 C1528 1.574 . S
C1520 C1536 1.368 . S
H1521 C1529 0.950 . S
H1522 C1527 0.950 . S
H1523 C1528 0.949 . S
H1524 C1530 0.950 . S
H1525 C1531 0.950 . S
H1526 C1532 0.949 . S
C1527 H1522 0.950 . S
C1527 C1529 1.327 . S
C1527 C1533 1.429 . S
C1528 C1520 1.574 . S
C1528 H1523 0.949 . S
C1528 C1534 1.368 . S
C1529 C1513 1.349 . S
C1529 H1521 0.950 . S
C1529 C1527 1.327 . S
C1530 C1518 1.349 . S
C1530 H1524 0.950 . S
C1530 C1531 1.327 . S
C1531 H1525 0.950 . S
C1531 C1530 1.327 . S
C1531 C1535 1.429 . S
C1532 C1515 1.574 . S
C1532 H1526 0.949 . S
C1532 C1536 1.368 . S
C1533 C1514 1.429 . S
C1533 C1527 1.429 . S
C1533 C1534 1.523 . S
C1534 C1515 1.368 . S
C1534 C1528 1.368 . S
C1534 C1533 1.523 . S
C1535 C1519 1.429 . S
C1535 C1531 1.429 . S
C1535 C1536 1.523 . S
C1536 C1520 1.368 . S
C1536 C1532 1.368 . S
C1536 C1535 1.523 . S
H1537 C1512 0.950 . S
H1538 C1514 0.950 . S
H1539 C1515 0.949 . S
H1540 C1517 0.950 . S
H1541 C1519 0.950 . S
C1542 C1543 1.349 . S
C1542 C1544 1.327 . S
C1542 H1567 0.950 . S
C1543 C1542 1.349 . S
C1543 C1559 1.349 . S
C1544 C1542 1.327 . S
C1544 C1563 1.429 . S
C1544 H1568 0.950 . S
C1545 C1562 1.574 . S
C1545 C1564 1.368 . S
C1545 H1569 0.949 1_455 S
H1546 C1550 0.949 . S
C1547 C1548 1.349 . S
C1547 C1549 1.327 . S
C1547 H1570 0.950 1_455 S
C1548 C1547 1.349 . S
C1548 C1560 1.349 . S
C1549 C1547 1.327 . S
C1549 C1565 1.429 . S
C1549 H1571 0.950 1_455 S
C1550 H1546 0.949 . S
C1550 C1558 1.574 . S
C1550 C1566 1.368 . S
H1551 C1559 0.950 1_655 S
H1552 C1557 0.950 1_655 S
H1553 C1558 0.949 . S
H1554 C1560 0.950 . S
H1555 C1561 0.950 . S
H1556 C1562 0.949 1_655 S
C1557 H1552 0.950 1_455 S
C1557 C1559 1.327 . S
C1557 C1563 1.429 . S
C1558 C1550 1.574 . S
C1558 H1553 0.949 . S
C1558 C1564 1.368 . S
C1559 C1543 1.349 . S
C1559 H1551 0.950 1_455 S
C1559 C1557 1.327 . S
C1560 C1548 1.349 . S
C1560 H1554 0.950 . S
C1560 C1561 1.327 . S
C1561 H1555 0.950 . S
C1561 C1560 1.327 . S
C1561 C1565 1.429 . S
C1562 C1545 1.574 . S
C1562 H1556 0.949 1_455 S
C1562 C1566 1.368 . S
C1563 C1544 1.429 . S
C1563 C1557 1.429 . S
C1563 C1564 1.523 . S
C1564 C1545 1.368 . S
C1564 C1558 1.368 . S
C1564 C1563 1.523 . S
C1565 C1549 1.429 . S
C1565 C1561 1.429 . S
C1565 C1566 1.523 1_554 S
C1566 C1550 1.368 . S
C1566 C1562 1.368 . S
C1566 C1565 1.523 1_556 S
H1567 C1542 0.950 . S
H1568 C1544 0.950 . S
H1569 C1545 0.949 1_655 S
H1570 C1547 0.950 1_655 S
H1571 C1549 0.950 1_655 S
C1572 C1573 1.349 . S
C1572 C1574 1.327 . S
C1572 H1597 0.950 . S
C1573 C1572 1.349 . S
C1573 C1589 1.349 . S
C1574 C1572 1.327 . S
C1574 C1593 1.429 . S
C1574 H1598 0.950 . S
C1575 C1592 1.574 . S
C1575 C1594 1.368 . S
C1575 H1599 0.949 . S
H1576 C1580 0.949 . S
C1577 C1578 1.349 . S
C1577 C1579 1.327 . S
C1577 H1600 0.950 . S
C1578 C1577 1.349 . S
C1578 C1590 1.349 . S
C1579 C1577 1.327 . S
C1579 C1595 1.429 . S
C1579 H1601 0.950 . S
C1580 H1576 0.949 . S
C1580 C1588 1.574 . S
C1580 C1596 1.368 . S
H1581 C1589 0.950 . S
H1582 C1587 0.950 . S
H1583 C1588 0.949 . S
H1584 C1590 0.950 . S
H1585 C1591 0.950 . S
H1586 C1592 0.949 . S
C1587 H1582 0.950 . S
C1587 C1589 1.327 . S
C1587 C1593 1.429 . S
C1588 C1580 1.574 . S
C1588 H1583 0.949 . S
C1588 C1594 1.368 . S
C1589 C1573 1.349 . S
C1589 H1581 0.950 . S
C1589 C1587 1.327 . S
C1590 C1578 1.349 . S
C1590 H1584 0.950 . S
C1590 C1591 1.327 . S
C1591 H1585 0.950 . S
C1591 C1590 1.327 . S
C1591 C1595 1.429 . S
C1592 C1575 1.574 . S
C1592 H1586 0.949 . S
C1592 C1596 1.368 . S
C1593 C1574 1.429 . S
C1593 C1587 1.429 . S
C1593 C1594 1.523 . S
C1594 C1575 1.368 . S
C1594 C1588 1.368 . S
C1594 C1593 1.523 . S
C1595 C1579 1.429 . S
C1595 C1591 1.429 . S
C1595 C1596 1.523 . S
C1596 C1580 1.368 . S
C1596 C1592 1.368 . S
C1596 C1595 1.523 . S
H1597 C1572 0.950 . S
H1598 C1574 0.950 . S
H1599 C1575 0.949 . S
H1600 C1577 0.950 . S
H1601 C1579 0.950 . S
C1602 C1603 1.354 . S
C1602 C1604 1.327 . S
C1602 H1627 0.950 . S
C1603 C1602 1.354 . S
C1603 C1619 1.343 1_455 S
C1604 C1602 1.327 . S
C1604 C1623 1.429 1_455 S
C1604 H1628 0.950 . S
C1605 C1622 1.574 . S
C1605 C1624 1.368 . S
C1605 H1629 0.949 . S
H1606 C1610 0.969 . S
C1607 C1608 1.349 . S
C1607 C1609 1.327 . S
C1607 H1630 0.950 . S
C1608 C1607 1.349 . S
C1608 C1620 1.349 . S
C1609 C1607 1.327 . S
C1609 C1625 1.429 . S
C1609 H1631 0.950 . S
C1610 H1606 0.969 . S
C1610 C1618 1.577 . S
C1610 C1626 1.346 1_455 S
H1611 C1619 0.950 . S
H1612 C1617 0.950 . S
H1613 C1618 0.949 . S
H1614 C1620 0.951 . S
H1615 C1621 0.950 1_455 S
H1616 C1622 0.949 . S
C1617 H1612 0.950 . S
C1617 C1619 1.327 . S
C1617 C1623 1.429 . S
C1618 C1610 1.577 . S
C1618 H1613 0.949 . S
C1618 C1624 1.368 1_455 S
C1619 C1603 1.343 1_655 S
C1619 H1611 0.950 . S
C1619 C1617 1.327 . S
C1620 C1608 1.349 . S
C1620 H1614 0.951 . S
C1620 C1621 1.327 . S
C1621 H1615 0.950 1_655 S
C1621 C1620 1.327 . S
C1621 C1625 1.429 . S
C1622 C1605 1.574 . S
C1622 H1616 0.949 . S
C1622 C1626 1.368 . S
C1623 C1604 1.429 1_655 S
C1623 C1617 1.429 . S
C1623 C1624 1.523 . S
C1624 C1605 1.368 . S
C1624 C1618 1.368 1_655 S
C1624 C1623 1.523 . S
C1625 C1609 1.429 . S
C1625 C1621 1.429 . S
C1625 C1626 1.523 . S
C1626 C1610 1.346 1_655 S
C1626 C1622 1.368 . S
C1626 C1625 1.523 . S
H1627 C1602 0.950 . S
H1628 C1604 0.950 . S
H1629 C1605 0.949 . S
H1630 C1607 0.950 . S
H1631 C1609 0.950 . S
C1632 C1633 1.349 . S
C1632 C1634 1.327 . S
C1632 H1657 0.950 . S
C1633 C1632 1.349 . S
C1633 C1649 1.349 . S
C1634 C1632 1.327 . S
C1634 C1653 1.429 . S
C1634 H1658 0.950 . S
C1635 C1652 1.574 . S
C1635 C1654 1.368 . S
C1635 H1659 0.949 . S
H1636 C1640 0.949 . S
C1637 C1638 1.349 . S
C1637 C1639 1.327 . S
C1637 H1660 0.950 . S
C1638 C1637 1.349 . S
C1638 C1650 1.349 . S
C1639 C1637 1.327 . S
C1639 C1655 1.429 . S
C1639 H1661 0.950 . S
C1640 H1636 0.949 . S
C1640 C1648 1.574 . S
C1640 C1656 1.368 . S
H1641 C1649 0.950 . S
H1642 C1647 0.950 . S
H1643 C1648 0.949 . S
H1644 C1650 0.950 . S
H1645 C1651 0.950 . S
H1646 C1652 0.949 . S
C1647 H1642 0.950 . S
C1647 C1649 1.327 . S
C1647 C1653 1.429 . S
C1648 C1640 1.574 . S
C1648 H1643 0.949 . S
C1648 C1654 1.368 . S
C1649 C1633 1.349 . S
C1649 H1641 0.950 . S
C1649 C1647 1.327 . S
C1650 C1638 1.349 . S
C1650 H1644 0.950 . S
C1650 C1651 1.327 . S
C1651 H1645 0.950 . S
C1651 C1650 1.327 . S
C1651 C1655 1.429 . S
C1652 C1635 1.574 . S
C1652 H1646 0.949 . S
C1652 C1656 1.368 . S
C1653 C1634 1.429 . S
C1653 C1647 1.429 . S
C1653 C1654 1.523 . S
C1654 C1635 1.368 . S
C1654 C1648 1.368 . S
C1654 C1653 1.523 . S
C1655 C1639 1.429 . S
C1655 C1651 1.429 . S
C1655 C1656 1.523 . S
C1656 C1640 1.368 . S
C1656 C1652 1.368 . S
C1656 C1655 1.523 . S
H1657 C1632 0.950 . S
H1658 C1634 0.950 . S
H1659 C1635 0.949 . S
H1660 C1637 0.950 . S
H1661 C1639 0.950 . S
C1662 C1663 1.349 . S
C1662 C1664 1.327 . S
C1662 H1687 0.950 . S
C1663 C1662 1.349 . S
C1663 C1679 1.349 . S
C1664 C1662 1.327 . S
C1664 C1683 1.429 . S
C1664 H1688 0.950 . S
C1665 C1682 1.574 . S
C1665 C1684 1.368 . S
C1665 H1689 0.949 . S
H1666 C1670 0.949 . S
C1667 C1668 1.349 . S
C1667 C1669 1.327 . S
C1667 H1690 0.950 . S
C1668 C1667 1.349 . S
C1668 C1680 1.349 . S
C1669 C1667 1.327 . S
C1669 C1685 1.429 . S
C1669 H1691 0.950 . S
C1670 H1666 0.949 . S
C1670 C1678 1.574 . S
C1670 C1686 1.368 . S
H1671 C1679 0.950 . S
H1672 C1677 0.950 . S
H1673 C1678 0.949 . S
H1674 C1680 0.950 . S
H1675 C1681 0.950 . S
H1676 C1682 0.949 . S
C1677 H1672 0.950 . S
C1677 C1679 1.327 . S
C1677 C1683 1.429 . S
C1678 C1670 1.574 . S
C1678 H1673 0.949 . S
C1678 C1684 1.368 . S
C1679 C1663 1.349 . S
C1679 H1671 0.950 . S
C1679 C1677 1.327 . S
C1680 C1668 1.349 . S
C1680 H1674 0.950 . S
C1680 C1681 1.327 . S
C1681 H1675 0.950 . S
C1681 C1680 1.327 . S
C1681 C1685 1.429 . S
C1682 C1665 1.574 . S
C1682 H1676 0.949 . S
C1682 C1686 1.368 . S
C1683 C1664 1.429 . S
C1683 C1677 1.429 . S
C1683 C1684 1.523 . S
C1684 C1665 1.368 . S
C1684 C1678 1.368 . S
C1684 C1683 1.523 . S
C1685 C1669 1.429 . S
C1685 C1681 1.429 . S
C1685 C1686 1.523 . S
C1686 C1670 1.368 . S
C1686 C1682 1.368 . S
C1686 C1685 1.523 . S
H1687 C1662 0.950 . S
H1688 C1664 0.950 . S
H1689 C1665 0.949 . S
H1690 C1667 0.950 . S
H1691 C1669 0.950 . S
C1692 C1693 1.356 . S
C1692 C1694 1.327 . S
C1692 H1717 0.950 . S
C1693 C1692 1.356 . S
C1693 C1709 1.341 1_565 S
C1694 C1692 1.327 . S
C1694 C1713 1.429 1_565 S
C1694 H1718 0.950 . S
C1695 C1712 1.574 . S
C1695 C1714 1.368 . S
C1695 H1719 0.949 . S
H1696 C1700 0.949 . S
C1697 C1698 1.349 . S
C1697 C1699 1.327 . S
C1697 H1720 0.950 . S
C1698 C1697 1.349 . S
C1698 C1710 1.349 . S
C1699 C1697 1.327 . S
C1699 C1715 1.429 . S
C1699 H1721 0.950 . S
C1700 H1696 0.949 . S
C1700 C1708 1.574 . S
C1700 C1716 1.368 1_565 S
H1701 C1709 0.950 . S
H1702 C1707 0.950 . S
H1703 C1708 0.949 . S
H1704 C1710 0.950 1_565 S
H1705 C1711 0.917 1_565 S
H1706 C1712 0.949 . S
C1707 H1702 0.950 . S
C1707 C1709 1.327 . S
C1707 C1713 1.429 . S
C1708 C1700 1.574 . S
C1708 H1703 0.949 . S
C1708 C1714 1.368 1_565 S
C1709 C1693 1.341 1_545 S
C1709 H1701 0.950 . S
C1709 C1707 1.327 . S
C1710 C1698 1.349 . S
C1710 H1704 0.950 1_545 S
C1710 C1711 1.332 . S
C1711 H1705 0.917 1_545 S
C1711 C1710 1.332 . S
C1711 C1715 1.459 . S
C1712 C1695 1.574 . S
C1712 H1706 0.949 . S
C1712 C1716 1.368 . S
C1713 C1694 1.429 1_545 S
C1713 C1707 1.429 . S
C1713 C1714 1.523 . S
C1714 C1695 1.368 . S
C1714 C1708 1.368 1_545 S
C1714 C1713 1.523 . S
C1715 C1699 1.429 . S
C1715 C1711 1.459 . S
C1715 C1716 1.523 . S
C1716 C1700 1.368 1_545 S
C1716 C1712 1.368 . S
C1716 C1715 1.523 . S
H1717 C1692 0.950 . S
H1718 C1694 0.950 . S
H1719 C1695 0.949 . S
H1720 C1697 0.950 . S
H1721 C1699 0.950 . S
C1722 C1723 1.349 . S
C1722 C1724 1.327 . S
C1722 H1747 0.950 . S
C1723 C1722 1.349 . S
C1723 C1739 1.349 . S
C1724 C1722 1.327 . S
C1724 C1743 1.429 . S
C1724 H1748 0.950 . S
C1725 C1742 1.574 . S
C1725 C1744 1.368 . S
C1725 H1749 0.949 . S
H1726 C1730 0.949 . S
C1727 C1728 1.349 . S
C1727 C1729 1.327 . S
C1727 H1750 0.950 . S
C1728 C1727 1.349 . S
C1728 C1740 1.349 . S
C1729 C1727 1.327 . S
C1729 C1745 1.429 . S
C1729 H1751 0.950 . S
C1730 H1726 0.949 . S
C1730 C1738 1.574 . S
C1730 C1746 1.368 . S
H1731 C1739 0.950 . S
H1732 C1737 0.950 . S
H1733 C1738 0.949 . S
H1734 C1740 0.950 . S
H1735 C1741 0.950 . S
H1736 C1742 0.949 . S
C1737 H1732 0.950 . S
C1737 C1739 1.327 . S
C1737 C1743 1.429 . S
C1738 C1730 1.574 . S
C1738 H1733 0.949 . S
C1738 C1744 1.368 . S
C1739 C1723 1.349 . S
C1739 H1731 0.950 . S
C1739 C1737 1.327 . S
C1740 C1728 1.349 . S
C1740 H1734 0.950 . S
C1740 C1741 1.327 . S
C1741 H1735 0.950 . S
C1741 C1740 1.327 . S
C1741 C1745 1.429 . S
C1742 C1725 1.574 . S
C1742 H1736 0.949 . S
C1742 C1746 1.368 . S
C1743 C1724 1.429 . S
C1743 C1737 1.429 . S
C1743 C1744 1.523 . S
C1744 C1725 1.368 . S
C1744 C1738 1.368 . S
C1744 C1743 1.523 . S
C1745 C1729 1.429 . S
C1745 C1741 1.429 . S
C1745 C1746 1.523 1_655 S
C1746 C1730 1.368 . S
C1746 C1742 1.368 . S
C1746 C1745 1.523 1_455 S
H1747 C1722 0.950 . S
H1748 C1724 0.950 . S
H1749 C1725 0.949 . S
H1750 C1727 0.950 . S
H1751 C1729 0.950 . S
C1752 C1753 1.349 . S
C1752 C1754 1.327 . S
C1752 H1777 0.950 . S
C1753 C1752 1.349 . S
C1753 C1769 1.349 . S
C1754 C1752 1.327 . S
C1754 C1773 1.429 . S
C1754 H1778 0.950 . S
C1755 C1772 1.574 . S
C1755 C1774 1.368 . S
C1755 H1779 0.949 . S
H1756 C1760 0.949 . S
C1757 C1758 1.349 . S
C1757 C1759 1.327 . S
C1757 H1780 0.950 . S
C1758 C1757 1.349 . S
C1758 C1770 1.349 . S
C1759 C1757 1.327 . S
C1759 C1775 1.429 . S
C1759 H1781 0.950 . S
C1760 H1756 0.949 . S
C1760 C1768 1.574 . S
C1760 C1776 1.368 . S
H1761 C1769 0.950 . S
H1762 C1767 0.950 . S
H1763 C1768 0.949 . S
H1764 C1770 0.950 . S
H1765 C1771 0.950 . S
H1766 C1772 0.949 . S
C1767 H1762 0.950 . S
C1767 C1769 1.327 . S
C1767 C1773 1.429 . S
C1768 C1760 1.574 . S
C1768 H1763 0.949 . S
C1768 C1774 1.368 . S
C1769 C1753 1.349 . S
C1769 H1761 0.950 . S
C1769 C1767 1.327 . S
C1770 C1758 1.349 . S
C1770 H1764 0.950 . S
C1770 C1771 1.327 . S
C1771 H1765 0.950 . S
C1771 C1770 1.327 . S
C1771 C1775 1.429 . S
C1772 C1755 1.574 . S
C1772 H1766 0.949 . S
C1772 C1776 1.368 . S
C1773 C1754 1.429 . S
C1773 C1767 1.429 . S
C1773 C1774 1.523 . S
C1774 C1755 1.368 . S
C1774 C1768 1.368 . S
C1774 C1773 1.523 . S
C1775 C1759 1.429 . S
C1775 C1771 1.429 . S
C1775 C1776 1.523 . S
C1776 C1760 1.368 . S
C1776 C1772 1.368 . S
C1776 C1775 1.523 . S
H1777 C1752 0.950 . S
H1778 C1754 0.950 . S
H1779 C1755 0.949 . S
H1780 C1757 0.950 . S
H1781 C1759 0.950 . S
C1782 C1783 1.349 1_554 S
C1782 C1784 1.327 . S
C1782 H1807 0.950 . S
C1783 C1782 1.349 1_556 S
C1783 C1799 1.349 . S
C1784 C1782 1.327 . S
C1784 C1803 1.429 1_554 S
C1784 H1808 0.950 . S
C1785 C1802 1.574 . S
C1785 C1804 1.368 . S
C1785 H1809 0.949 . S
H1786 C1790 0.949 . S
C1787 C1788 1.349 . S
C1787 C1789 1.327 . S
C1787 H1810 0.950 . S
C1788 C1787 1.349 . S
C1788 C1800 1.308 1_556 S
C1789 C1787 1.327 . S
C1789 C1805 1.429 . S
C1789 H1811 0.950 . S
C1790 H1786 0.949 . S
C1790 C1798 1.574 . S
C1790 C1806 1.368 1_554 S
H1791 C1799 0.950 . S
H1792 C1797 0.950 . S
H1793 C1798 0.949 . S
H1794 C1800 0.997 . S
H1795 C1801 0.950 . S
H1796 C1802 0.949 . S
C1797 H1792 0.950 . S
C1797 C1799 1.327 . S
C1797 C1803 1.429 . S
C1798 C1790 1.574 . S
C1798 H1793 0.949 . S
C1798 C1804 1.368 1_554 S
C1799 C1783 1.349 . S
C1799 H1791 0.950 . S
C1799 C1797 1.327 . S
C1800 C1788 1.308 1_554 S
C1800 H1794 0.997 . S
C1800 C1801 1.324 . S
C1801 H1795 0.950 . S
C1801 C1800 1.324 . S
C1801 C1805 1.429 1_554 S
C1802 C1785 1.574 . S
C1802 H1796 0.949 . S
C1802 C1806 1.368 . S
C1803 C1784 1.429 1_556 S
C1803 C1797 1.429 . S
C1803 C1804 1.523 . S
C1804 C1785 1.368 . S
C1804 C1798 1.368 1_556 S
C1804 C1803 1.523 . S
C1805 C1789 1.429 . S
C1805 C1801 1.429 1_556 S
C1805 C1806 1.523 1_565 S
C1806 C1790 1.368 1_556 S
C1806 C1802 1.368 . S
C1806 C1805 1.523 1_545 S
H1807 C1782 0.950 . S
H1808 C1784 0.950 . S
H1809 C1785 0.949 . S
H1810 C1787 0.950 . S
H1811 C1789 0.950 . S
C1812 C1813 1.349 . S
C1812 C1814 1.327 . S
C1812 H1837 0.950 . S
C1813 C1812 1.349 . S
C1813 C1829 1.349 . S
C1814 C1812 1.327 . S
C1814 C1833 1.429 . S
C1814 H1838 0.950 . S
C1815 C1832 1.574 . S
C1815 C1834 1.368 . S
C1815 H1839 0.949 . S
H1816 C1820 0.949 . S
C1817 C1818 1.349 . S
C1817 C1819 1.327 . S
C1817 H1840 0.950 . S
C1818 C1817 1.349 . S
C1818 C1830 1.349 . S
C1819 C1817 1.327 . S
C1819 C1835 1.429 . S
C1819 H1841 0.950 . S
C1820 H1816 0.949 . S
C1820 C1828 1.574 . S
C1820 C1836 1.368 . S
H1821 C1829 0.950 . S
H1822 C1827 0.950 . S
H1823 C1828 0.949 . S
H1824 C1830 0.950 . S
H1825 C1831 0.950 . S
H1826 C1832 0.949 . S
C1827 H1822 0.950 . S
C1827 C1829 1.327 . S
C1827 C1833 1.429 . S
C1828 C1820 1.574 . S
C1828 H1823 0.949 . S
C1828 C1834 1.368 . S
C1829 C1813 1.349 . S
C1829 H1821 0.950 . S
C1829 C1827 1.327 . S
C1830 C1818 1.349 . S
C1830 H1824 0.950 . S
C1830 C1831 1.327 . S
C1831 H1825 0.950 . S
C1831 C1830 1.327 . S
C1831 C1835 1.429 . S
C1832 C1815 1.574 . S
C1832 H1826 0.949 . S
C1832 C1836 1.368 . S
C1833 C1814 1.429 . S
C1833 C1827 1.429 . S
C1833 C1834 1.523 . S
C1834 C1815 1.368 . S
C1834 C1828 1.368 . S
C1834 C1833 1.523 . S
C1835 C1819 1.429 . S
C1835 C1831 1.429 . S
C1835 C1836 1.523 . S
C1836 C1820 1.368 . S
C1836 C1832 1.368 . S
C1836 C1835 1.523 . S
H1837 C1812 0.950 . S
H1838 C1814 0.950 . S
H1839 C1815 0.949 . S
H1840 C1817 0.950 . S
H1841 C1819 0.950 . S
C1842 C1843 1.355 . S
C1842 C1844 1.327 . S
C1842 H1867 0.950 . S
C1843 C1842 1.355 . S
C1843 C1859 1.342 1_556 S
C1844 C1842 1.327 . S
C1844 C1863 1.429 1_556 S
C1844 H1868 0.950 . S
C1845 C1862 1.574 . S
C1845 C1864 1.368 . S
C1845 H1869 0.949 . S
H1846 C1850 0.949 1_556 S
C1847 C1848 1.349 . S
C1847 C1849 1.327 . S
C1847 H1870 0.950 . S
C1848 C1847 1.349 . S
C1848 C1860 1.349 . S
C1849 C1847 1.327 . S
C1849 C1865 1.429 . S
C1849 H1871 0.950 . S
C1850 H1846 0.949 1_554 S
C1850 C1858 1.573 1_554 S
C1850 C1866 1.368 . S
H1851 C1859 0.950 . S
H1852 C1857 0.950 . S
H1853 C1858 0.962 . S
H1854 C1860 0.950 . S
H1855 C1861 0.972 . S
H1856 C1862 0.949 . S
C1857 H1852 0.950 . S
C1857 C1859 1.327 . S
C1857 C1863 1.429 . S
C1858 C1850 1.573 1_556 S
C1858 H1853 0.962 . S
C1858 C1864 1.356 1_556 S
C1859 C1843 1.342 1_554 S
C1859 H1851 0.950 . S
C1859 C1857 1.327 . S
C1860 C1848 1.349 . S
C1860 H1854 0.950 . S
C1860 C1861 1.327 . S
C1861 H1855 0.972 . S
C1861 C1860 1.327 . S
C1861 C1865 1.429 . S
C1862 C1845 1.574 . S
C1862 H1856 0.949 . S
C1862 C1866 1.368 . S
C1863 C1844 1.429 1_554 S
C1863 C1857 1.429 . S
C1863 C1864 1.523 . S
C1864 C1845 1.368 . S
C1864 C1858 1.356 1_554 S
C1864 C1863 1.523 . S
C1865 C1849 1.429 . S
C1865 C1861 1.429 . S
C1865 C1866 1.523 . S
C1866 C1850 1.368 . S
C1866 C1862 1.368 . S
C1866 C1865 1.523 . S
H1867 C1842 0.950 . S
H1868 C1844 0.950 . S
H1869 C1845 0.949 . S
H1870 C1847 0.950 . S
H1871 C1849 0.950 . S
C1872 C1873 1.349 . S
C1872 C1874 1.327 . S
C1872 H1897 0.950 . S
C1873 C1872 1.349 . S
C1873 C1889 1.349 . S
C1874 C1872 1.327 . S
C1874 C1893 1.429 . S
C1874 H1898 0.950 . S
C1875 C1892 1.574 . S
C1875 C1894 1.368 . S
C1875 H1899 0.949 . S
H1876 C1880 0.949 . S
C1877 C1878 1.349 . S
C1877 C1879 1.327 . S
C1877 H1900 0.950 . S
C1878 C1877 1.349 . S
C1878 C1890 1.349 . S
C1879 C1877 1.327 . S
C1879 C1895 1.429 . S
C1879 H1901 0.950 . S
C1880 H1876 0.949 . S
C1880 C1888 1.574 . S
C1880 C1896 1.368 . S
H1881 C1889 0.950 . S
H1882 C1887 0.950 . S
H1883 C1888 0.949 . S
H1884 C1890 0.950 . S
H1885 C1891 0.950 . S
H1886 C1892 0.949 . S
C1887 H1882 0.950 . S
C1887 C1889 1.327 . S
C1887 C1893 1.429 . S
C1888 C1880 1.574 . S
C1888 H1883 0.949 . S
C1888 C1894 1.368 . S
C1889 C1873 1.349 . S
C1889 H1881 0.950 . S
C1889 C1887 1.327 . S
C1890 C1878 1.349 . S
C1890 H1884 0.950 . S
C1890 C1891 1.327 . S
C1891 H1885 0.950 . S
C1891 C1890 1.327 . S
C1891 C1895 1.429 . S
C1892 C1875 1.574 . S
C1892 H1886 0.949 . S
C1892 C1896 1.368 . S
C1893 C1874 1.429 . S
C1893 C1887 1.429 . S
C1893 C1894 1.523 . S
C1894 C1875 1.368 . S
C1894 C1888 1.368 . S
C1894 C1893 1.523 . S
C1895 C1879 1.429 . S
C1895 C1891 1.429 . S
C1895 C1896 1.523 . S
C1896 C1880 1.368 . S
C1896 C1892 1.368 . S
C1896 C1895 1.523 . S
H1897 C1872 0.950 . S
H1898 C1874 0.950 . S
H1899 C1875 0.949 . S
H1900 C1877 0.950 . S
H1901 C1879 0.950 . S
C1902 C1903 1.388 . S
C1902 C1904 1.326 . S
C1902 H1927 0.921 1_655 S
C1903 C1902 1.388 . S
C1903 C1919 1.349 . S
C1904 C1902 1.326 . S
C1904 C1923 1.453 . S
C1904 H1928 0.921 1_655 S
C1905 C1922 1.574 . S
C1905 C1924 1.368 . S
C1905 H1929 0.949 . S
H1906 C1910 0.934 1_455 S
C1907 C1908 1.349 . S
C1907 C1909 1.327 . S
C1907 H1930 0.950 . S
C1908 C1907 1.349 . S
C1908 C1920 1.349 . S
C1909 C1907 1.327 . S
C1909 C1925 1.429 . S
C1909 H1931 0.950 . S
C1910 H1906 0.934 1_655 S
C1910 C1918 1.574 . S
C1910 C1926 1.383 . S
H1911 C1919 0.950 . S
H1912 C1917 0.950 . S
H1913 C1918 0.939 1_455 S
H1914 C1920 0.950 1_455 S
H1915 C1921 0.950 1_455 S
H1916 C1922 0.949 . S
C1917 H1912 0.950 . S
C1917 C1919 1.327 . S
C1917 C1923 1.429 . S
C1918 C1910 1.574 . S
C1918 H1913 0.939 1_655 S
C1918 C1924 1.382 . S
C1919 C1903 1.349 . S
C1919 H1911 0.950 . S
C1919 C1917 1.327 . S
C1920 C1908 1.349 . S
C1920 H1914 0.950 1_655 S
C1920 C1921 1.327 . S
C1921 H1915 0.950 1_655 S
C1921 C1920 1.327 . S
C1921 C1925 1.429 . S
C1922 C1905 1.574 . S
C1922 H1916 0.949 . S
C1922 C1926 1.368 . S
C1923 C1904 1.453 . S
C1923 C1917 1.429 . S
C1923 C1924 1.523 . S
C1924 C1905 1.368 . S
C1924 C1918 1.382 . S
C1924 C1923 1.523 . S
C1925 C1909 1.429 . S
C1925 C1921 1.429 . S
C1925 C1926 1.523 1_556 S
C1926 C1910 1.383 . S
C1926 C1922 1.368 . S
C1926 C1925 1.523 1_554 S
H1927 C1902 0.921 1_455 S
H1928 C1904 0.921 1_455 S
H1929 C1905 0.949 . S
H1930 C1907 0.950 . S
H1931 C1909 0.950 . S
C1932 C1933 1.349 . S
C1932 C1934 1.327 . S
C1932 H1957 0.950 . S
C1933 C1932 1.349 . S
C1933 C1949 1.349 . S
C1934 C1932 1.327 . S
C1934 C1953 1.429 . S
C1934 H1958 0.950 . S
C1935 C1952 1.574 . S
C1935 C1954 1.368 . S
C1935 H1959 0.949 . S
H1936 C1940 0.949 . S
C1937 C1938 1.349 . S
C1937 C1939 1.327 . S
C1937 H1960 0.950 . S
C1938 C1937 1.349 . S
C1938 C1950 1.349 . S
C1939 C1937 1.327 . S
C1939 C1955 1.429 . S
C1939 H1961 0.950 . S
C1940 H1936 0.949 . S
C1940 C1948 1.574 . S
C1940 C1956 1.368 . S
H1941 C1949 0.950 . S
H1942 C1947 0.950 . S
H1943 C1948 0.949 . S
H1944 C1950 0.950 . S
H1945 C1951 0.950 . S
H1946 C1952 0.949 . S
C1947 H1942 0.950 . S
C1947 C1949 1.327 . S
C1947 C1953 1.429 . S
C1948 C1940 1.574 . S
C1948 H1943 0.949 . S
C1948 C1954 1.368 . S
C1949 C1933 1.349 . S
C1949 H1941 0.950 . S
C1949 C1947 1.327 . S
C1950 C1938 1.349 . S
C1950 H1944 0.950 . S
C1950 C1951 1.327 . S
C1951 H1945 0.950 . S
C1951 C1950 1.327 . S
C1951 C1955 1.429 . S
C1952 C1935 1.574 . S
C1952 H1946 0.949 . S
C1952 C1956 1.368 . S
C1953 C1934 1.429 . S
C1953 C1947 1.429 . S
C1953 C1954 1.523 . S
C1954 C1935 1.368 . S
C1954 C1948 1.368 . S
C1954 C1953 1.523 . S
C1955 C1939 1.429 . S
C1955 C1951 1.429 . S
C1955 C1956 1.523 . S
C1956 C1940 1.368 . S
C1956 C1952 1.368 . S
C1956 C1955 1.523 . S
H1957 C1932 0.950 . S
H1958 C1934 0.950 . S
H1959 C1935 0.949 . S
H1960 C1937 0.950 . S
H1961 C1939 0.950 . S
C1962 C1963 1.348 1_455 S
C1962 C1964 1.327 . S
C1962 H1987 0.950 . S
C1963 C1962 1.348 1_655 S
C1963 C1979 1.350 . S
C1964 C1962 1.327 . S
C1964 C1983 1.429 . S
C1964 H1988 0.950 . S
C1965 C1982 1.574 . S
C1965 C1984 1.368 . S
C1965 H1989 0.949 1_455 S
H1966 C1970 0.949 . S
C1967 C1968 1.349 . S
C1967 C1969 1.327 . S
C1967 H1990 0.950 . S
C1968 C1967 1.349 . S
C1968 C1980 1.349 . S
C1969 C1967 1.327 . S
C1969 C1985 1.429 . S
C1969 H1991 0.950 . S
C1970 H1966 0.949 . S
C1970 C1978 1.574 . S
C1970 C1986 1.368 . S
H1971 C1979 0.950 . S
H1972 C1977 0.954 . S
H1973 C1978 0.949 . S
H1974 C1980 0.950 . S
H1975 C1981 0.950 . S
H1976 C1982 0.949 . S
C1977 H1972 0.954 . S
C1977 C1979 1.331 . S
C1977 C1983 1.424 1_655 S
C1978 C1970 1.574 . S
C1978 H1973 0.949 . S
C1978 C1984 1.368 . S
C1979 C1963 1.350 . S
C1979 H1971 0.950 . S
C1979 C1977 1.331 . S
C1980 C1968 1.349 . S
C1980 H1974 0.950 . S
C1980 C1981 1.327 . S
C1981 H1975 0.950 . S
C1981 C1980 1.327 . S
C1981 C1985 1.429 . S
C1982 C1965 1.574 . S
C1982 H1976 0.949 . S
C1982 C1986 1.368 . S
C1983 C1964 1.429 . S
C1983 C1977 1.424 1_455 S
C1983 C1984 1.523 . S
C1984 C1965 1.368 . S
C1984 C1978 1.368 . S
C1984 C1983 1.523 . S
C1985 C1969 1.429 . S
C1985 C1981 1.429 . S
C1985 C1986 1.523 . S
C1986 C1970 1.368 . S
C1986 C1982 1.368 . S
C1986 C1985 1.523 . S
H1987 C1962 0.950 . S
H1988 C1964 0.950 . S
H1989 C1965 0.949 1_655 S
H1990 C1967 0.950 . S
H1991 C1969 0.950 . S
C1992 C1993 1.349 . S
C1992 C1994 1.327 . S
C1992 H2017 0.950 . S
C1993 C1992 1.349 . S
C1993 C2009 1.349 . S
C1994 C1992 1.327 . S
C1994 C2013 1.429 . S
C1994 H2018 0.950 . S
C1995 C2012 1.574 . S
C1995 C2014 1.368 . S
C1995 H2019 0.949 . S
H1996 C2000 0.949 . S
C1997 C1998 1.349 . S
C1997 C1999 1.327 . S
C1997 H2020 0.950 . S
C1998 C1997 1.349 . S
C1998 C2010 1.349 . S
C1999 C1997 1.327 . S
C1999 C2015 1.429 . S
C1999 H2021 0.950 . S
C2000 H1996 0.949 . S
C2000 C2008 1.574 . S
C2000 C2016 1.368 . S
H2001 C2009 0.950 . S
H2002 C2007 0.950 . S
H2003 C2008 0.949 . S
H2004 C2010 0.950 . S
H2005 C2011 0.950 . S
H2006 C2012 0.949 . S
C2007 H2002 0.950 . S
C2007 C2009 1.327 . S
C2007 C2013 1.429 . S
C2008 C2000 1.574 . S
C2008 H2003 0.949 . S
C2008 C2014 1.368 . S
C2009 C1993 1.349 . S
C2009 H2001 0.950 . S
C2009 C2007 1.327 . S
C2010 C1998 1.349 . S
C2010 H2004 0.950 . S
C2010 C2011 1.327 . S
C2011 H2005 0.950 . S
C2011 C2010 1.327 . S
C2011 C2015 1.429 . S
C2012 C1995 1.574 . S
C2012 H2006 0.949 . S
C2012 C2016 1.368 . S
C2013 C1994 1.429 . S
C2013 C2007 1.429 . S
C2013 C2014 1.523 . S
C2014 C1995 1.368 . S
C2014 C2008 1.368 . S
C2014 C2013 1.523 . S
C2015 C1999 1.429 . S
C2015 C2011 1.429 . S
C2015 C2016 1.523 . S
C2016 C2000 1.368 . S
C2016 C2012 1.368 . S
C2016 C2015 1.523 . S
H2017 C1992 0.950 . S
H2018 C1994 0.950 . S
H2019 C1995 0.949 . S
H2020 C1997 0.950 . S
H2021 C1999 0.950 . S
C2022 C2023 1.349 . S
C2022 C2024 1.327 . S
C2022 H2047 0.950 . S
C2023 C2022 1.349 . S
C2023 C2039 1.349 . S
C2024 C2022 1.327 . S
C2024 C2043 1.429 . S
C2024 H2048 0.950 . S
C2025 C2042 1.574 . S
C2025 C2044 1.368 . S
C2025 H2049 0.949 . S
H2026 C2030 0.949 . S
C2027 C2028 1.349 . S
C2027 C2029 1.327 . S
C2027 H2050 0.950 . S
C2028 C2027 1.349 . S
C2028 C2040 1.349 . S
C2029 C2027 1.327 . S
C2029 C2045 1.429 . S
C2029 H2051 0.950 . S
C2030 H2026 0.949 . S
C2030 C2038 1.574 . S
C2030 C2046 1.368 . S
H2031 C2039 0.950 . S
H2032 C2037 0.950 . S
H2033 C2038 0.949 . S
H2034 C2040 0.950 . S
H2035 C2041 0.950 . S
H2036 C2042 0.949 . S
C2037 H2032 0.950 . S
C2037 C2039 1.327 . S
C2037 C2043 1.429 . S
C2038 C2030 1.574 . S
C2038 H2033 0.949 . S
C2038 C2044 1.368 . S
C2039 C2023 1.349 . S
C2039 H2031 0.950 . S
C2039 C2037 1.327 . S
C2040 C2028 1.349 . S
C2040 H2034 0.950 . S
C2040 C2041 1.327 . S
C2041 H2035 0.950 . S
C2041 C2040 1.327 . S
C2041 C2045 1.429 . S
C2042 C2025 1.574 . S
C2042 H2036 0.949 . S
C2042 C2046 1.368 . S
C2043 C2024 1.429 . S
C2043 C2037 1.429 . S
C2043 C2044 1.523 . S
C2044 C2025 1.368 . S
C2044 C2038 1.368 . S
C2044 C2043 1.523 . S
C2045 C2029 1.429 . S
C2045 C2041 1.429 . S
C2045 C2046 1.523 . S
C2046 C2030 1.368 . S
C2046 C2042 1.368 . S
C2046 C2045 1.523 . S
H2047 C2022 0.950 . S
H2048 C2024 0.950 . S
H2049 C2025 0.949 . S
H2050 C2027 0.950 . S
H2051 C2029 0.950 . S
C2052 C2053 1.350 . S
C2052 C2054 1.327 . S
C2052 H2077 0.950 . S
C2053 C2052 1.350 . S
C2053 C2069 1.348 1_545 S
C2054 C2052 1.327 . S
C2054 C2073 1.416 1_545 S
C2054 H2078 0.950 . S
C2055 C2072 1.574 . S
C2055 C2074 1.399 . S
C2055 H2079 0.949 . S
H2056 C2060 0.949 . S
C2057 C2058 1.349 . S
C2057 C2059 1.327 . S
C2057 H2080 0.950 . S
C2058 C2057 1.349 . S
C2058 C2070 1.349 1_565 S
C2059 C2057 1.327 . S
C2059 C2075 1.429 . S
C2059 H2081 0.950 . S
C2060 H2056 0.949 . S
C2060 C2068 1.574 . S
C2060 C2076 1.368 1_545 S
H2061 C2069 0.950 . S
H2062 C2067 0.950 . S
H2063 C2068 0.949 . S
H2064 C2070 0.950 . S
H2065 C2071 0.950 . S
H2066 C2072 0.949 . S
C2067 H2062 0.950 . S
C2067 C2069 1.327 . S
C2067 C2073 1.443 . S
C2068 C2060 1.574 . S
C2068 H2063 0.949 . S
C2068 C2074 1.336 1_545 S
C2069 C2053 1.348 1_565 S
C2069 H2061 0.950 . S
C2069 C2067 1.327 . S
C2070 C2058 1.349 1_545 S
C2070 H2064 0.950 . S
C2070 C2071 1.327 . S
C2071 H2065 0.950 . S
C2071 C2070 1.327 . S
C2071 C2075 1.429 1_545 S
C2072 C2055 1.574 . S
C2072 H2066 0.949 . S
C2072 C2076 1.368 . S
C2073 C2054 1.416 1_565 S
C2073 C2067 1.443 . S
C2073 C2074 1.524 . S
C2074 C2055 1.399 . S
C2074 C2068 1.336 1_565 S
C2074 C2073 1.524 . S
C2075 C2059 1.429 . S
C2075 C2071 1.429 1_565 S
C2075 C2076 1.523 . S
C2076 C2060 1.368 1_565 S
C2076 C2072 1.368 . S
C2076 C2075 1.523 . S
H2077 C2052 0.950 . S
H2078 C2054 0.950 . S
H2079 C2055 0.949 . S
H2080 C2057 0.950 . S
H2081 C2059 0.950 . S
C2082 C2083 1.349 . S
C2082 C2084 1.327 . S
C2082 H2107 0.950 . S
C2083 C2082 1.349 . S
C2083 C2099 1.349 . S
C2084 C2082 1.327 . S
C2084 C2103 1.429 . S
C2084 H2108 0.950 . S
C2085 C2102 1.574 . S
C2085 C2104 1.368 . S
C2085 H2109 0.949 . S
H2086 C2090 0.949 . S
C2087 C2088 1.349 . S
C2087 C2089 1.327 . S
C2087 H2110 0.950 . S
C2088 C2087 1.349 . S
C2088 C2100 1.349 . S
C2089 C2087 1.327 . S
C2089 C2105 1.429 . S
C2089 H2111 0.950 . S
C2090 H2086 0.949 . S
C2090 C2098 1.574 . S
C2090 C2106 1.368 . S
H2091 C2099 0.950 . S
H2092 C2097 0.950 . S
H2093 C2098 0.949 . S
H2094 C2100 0.950 . S
H2095 C2101 0.950 . S
H2096 C2102 0.949 . S
C2097 H2092 0.950 . S
C2097 C2099 1.327 . S
C2097 C2103 1.429 . S
C2098 C2090 1.574 . S
C2098 H2093 0.949 . S
C2098 C2104 1.368 . S
C2099 C2083 1.349 . S
C2099 H2091 0.950 . S
C2099 C2097 1.327 . S
C2100 C2088 1.349 . S
C2100 H2094 0.950 . S
C2100 C2101 1.327 . S
C2101 H2095 0.950 . S
C2101 C2100 1.327 . S
C2101 C2105 1.429 . S
C2102 C2085 1.574 . S
C2102 H2096 0.949 . S
C2102 C2106 1.368 . S
C2103 C2084 1.429 . S
C2103 C2097 1.429 . S
C2103 C2104 1.523 . S
C2104 C2085 1.368 . S
C2104 C2098 1.368 . S
C2104 C2103 1.523 . S
C2105 C2089 1.429 . S
C2105 C2101 1.429 . S
C2105 C2106 1.523 . S
C2106 C2090 1.368 . S
C2106 C2102 1.368 . S
C2106 C2105 1.523 . S
H2107 C2082 0.950 . S
H2108 C2084 0.950 . S
H2109 C2085 0.949 . S
H2110 C2087 0.950 . S
H2111 C2089 0.950 . S
C2112 C2113 1.349 . S
C2112 C2114 1.327 . S
C2112 H2137 0.950 . S
C2113 C2112 1.349 . S
C2113 C2129 1.349 . S
C2114 C2112 1.327 . S
C2114 C2133 1.429 . S
C2114 H2138 0.950 . S
C2115 C2132 1.574 . S
C2115 C2134 1.368 . S
C2115 H2139 0.949 . S
H2116 C2120 0.949 . S
C2117 C2118 1.349 . S
C2117 C2119 1.327 . S
C2117 H2140 0.950 . S
C2118 C2117 1.349 . S
C2118 C2130 1.349 . S
C2119 C2117 1.327 . S
C2119 C2135 1.429 . S
C2119 H2141 0.950 . S
C2120 H2116 0.949 . S
C2120 C2128 1.574 . S
C2120 C2136 1.368 . S
H2121 C2129 0.950 . S
H2122 C2127 0.950 . S
H2123 C2128 0.949 . S
H2124 C2130 0.950 . S
H2125 C2131 0.950 . S
H2126 C2132 0.949 . S
C2127 H2122 0.950 . S
C2127 C2129 1.327 . S
C2127 C2133 1.429 . S
C2128 C2120 1.574 . S
C2128 H2123 0.949 . S
C2128 C2134 1.368 . S
C2129 C2113 1.349 . S
C2129 H2121 0.950 . S
C2129 C2127 1.327 . S
C2130 C2118 1.349 . S
C2130 H2124 0.950 . S
C2130 C2131 1.327 . S
C2131 H2125 0.950 . S
C2131 C2130 1.327 . S
C2131 C2135 1.429 . S
C2132 C2115 1.574 . S
C2132 H2126 0.949 . S
C2132 C2136 1.368 . S
C2133 C2114 1.429 . S
C2133 C2127 1.429 . S
C2133 C2134 1.523 . S
C2134 C2115 1.368 . S
C2134 C2128 1.368 . S
C2134 C2133 1.523 . S
C2135 C2119 1.429 . S
C2135 C2131 1.429 . S
C2135 C2136 1.523 . S
C2136 C2120 1.368 . S
C2136 C2132 1.368 . S
C2136 C2135 1.523 . S
H2137 C2112 0.950 . S
H2138 C2114 0.950 . S
H2139 C2115 0.949 . S
H2140 C2117 0.950 . S
H2141 C2119 0.950 . S
C2142 C2143 1.349 . S
C2142 C2144 1.327 . S
C2142 H2167 0.946 1_556 S
C2143 C2142 1.349 . S
C2143 C2159 1.349 . S
C2144 C2142 1.327 . S
C2144 C2163 1.429 . S
C2144 H2168 0.950 . S
C2145 C2162 1.574 . S
C2145 C2164 1.368 . S
C2145 H2169 0.949 . S
H2146 C2150 0.949 . S
C2147 C2148 1.349 . S
C2147 C2149 1.327 . S
C2147 H2170 0.950 . S
C2148 C2147 1.349 . S
C2148 C2160 1.349 . S
C2149 C2147 1.327 . S
C2149 C2165 1.429 . S
C2149 H2171 0.950 . S
C2150 H2146 0.949 . S
C2150 C2158 1.574 . S
C2150 C2166 1.368 . S
H2151 C2159 0.950 . S
H2152 C2157 0.950 . S
H2153 C2158 0.949 . S
H2154 C2160 0.950 . S
H2155 C2161 0.950 . S
H2156 C2162 0.949 . S
C2157 H2152 0.950 . S
C2157 C2159 1.327 . S
C2157 C2163 1.429 . S
C2158 C2150 1.574 . S
C2158 H2153 0.949 . S
C2158 C2164 1.368 . S
C2159 C2143 1.349 . S
C2159 H2151 0.950 . S
C2159 C2157 1.327 . S
C2160 C2148 1.349 . S
C2160 H2154 0.950 . S
C2160 C2161 1.327 . S
C2161 H2155 0.950 . S
C2161 C2160 1.327 . S
C2161 C2165 1.429 . S
C2162 C2145 1.574 . S
C2162 H2156 0.949 . S
C2162 C2166 1.368 . S
C2163 C2144 1.429 . S
C2163 C2157 1.429 . S
C2163 C2164 1.523 . S
C2164 C2145 1.368 . S
C2164 C2158 1.368 . S
C2164 C2163 1.523 . S
C2165 C2149 1.429 . S
C2165 C2161 1.429 . S
C2165 C2166 1.523 . S
C2166 C2150 1.368 . S
C2166 C2162 1.368 . S
C2166 C2165 1.523 . S
H2167 C2142 0.946 1_554 S
H2168 C2144 0.950 . S
H2169 C2145 0.949 . S
H2170 C2147 0.950 . S
H2171 C2149 0.950 . S
C2172 C2173 1.349 . S
C2172 C2174 1.327 . S
C2172 H2197 0.950 . S
C2173 C2172 1.349 . S
C2173 C2189 1.349 . S
C2174 C2172 1.327 . S
C2174 C2193 1.429 . S
C2174 H2198 0.950 . S
C2175 C2192 1.574 . S
C2175 C2194 1.368 . S
C2175 H2199 0.949 . S
H2176 C2180 0.949 . S
C2177 C2178 1.349 . S
C2177 C2179 1.327 . S
C2177 H2200 0.950 . S
C2178 C2177 1.349 . S
C2178 C2190 1.349 . S
C2179 C2177 1.327 . S
C2179 C2195 1.429 . S
C2179 H2201 0.950 . S
C2180 H2176 0.949 . S
C2180 C2188 1.574 . S
C2180 C2196 1.368 . S
H2181 C2189 0.950 . S
H2182 C2187 0.950 . S
H2183 C2188 0.949 . S
H2184 C2190 0.950 . S
H2185 C2191 0.950 . S
H2186 C2192 0.949 . S
C2187 H2182 0.950 . S
C2187 C2189 1.327 . S
C2187 C2193 1.429 . S
C2188 C2180 1.574 . S
C2188 H2183 0.949 . S
C2188 C2194 1.368 . S
C2189 C2173 1.349 . S
C2189 H2181 0.950 . S
C2189 C2187 1.327 . S
C2190 C2178 1.349 . S
C2190 H2184 0.950 . S
C2190 C2191 1.327 . S
C2191 H2185 0.950 . S
C2191 C2190 1.327 . S
C2191 C2195 1.429 . S
C2192 C2175 1.574 . S
C2192 H2186 0.949 . S
C2192 C2196 1.368 . S
C2193 C2174 1.429 . S
C2193 C2187 1.429 . S
C2193 C2194 1.523 . S
C2194 C2175 1.368 . S
C2194 C2188 1.368 . S
C2194 C2193 1.523 . S
C2195 C2179 1.429 . S
C2195 C2191 1.429 . S
C2195 C2196 1.523 . S
C2196 C2180 1.368 . S
C2196 C2192 1.368 . S
C2196 C2195 1.523 . S
H2197 C2172 0.950 . S
H2198 C2174 0.950 . S
H2199 C2175 0.949 . S
H2200 C2177 0.950 . S
H2201 C2179 0.950 . S
C2202 C2203 1.348 1_556 S
C2202 C2204 1.327 . S
C2202 H2227 0.950 . S
C2203 C2202 1.348 1_554 S
C2203 C2219 1.350 . S
C2204 C2202 1.327 . S
C2204 C2223 1.443 . S
C2204 H2228 0.950 . S
C2205 C2222 1.574 . S
C2205 C2224 1.338 1_554 S
C2205 H2229 0.949 . S
H2206 C2210 0.949 . S
C2207 C2208 1.349 1_554 S
C2207 C2209 1.327 . S
C2207 H2230 0.950 . S
C2208 C2207 1.349 1_556 S
C2208 C2220 1.349 . S
C2209 C2207 1.327 . S
C2209 C2225 1.429 1_554 S
C2209 H2231 0.950 . S
C2210 H2206 0.949 . S
C2210 C2218 1.574 . S
C2210 C2226 1.368 . S
H2211 C2219 0.950 . S
H2212 C2217 0.950 . S
H2213 C2218 0.949 . S
H2214 C2220 0.950 . S
H2215 C2221 0.950 . S
H2216 C2222 0.949 . S
C2217 H2212 0.950 . S
C2217 C2219 1.327 . S
C2217 C2223 1.416 1_554 S
C2218 C2210 1.574 . S
C2218 H2213 0.949 . S
C2218 C2224 1.398 . S
C2219 C2203 1.350 . S
C2219 H2211 0.950 . S
C2219 C2217 1.327 . S
C2220 C2208 1.349 . S
C2220 H2214 0.950 . S
C2220 C2221 1.327 . S
C2221 H2215 0.950 . S
C2221 C2220 1.327 . S
C2221 C2225 1.429 . S
C2222 C2205 1.574 . S
C2222 H2216 0.949 . S
C2222 C2226 1.368 1_554 S
C2223 C2204 1.443 . S
C2223 C2217 1.416 1_556 S
C2223 C2224 1.524 . S
C2224 C2205 1.338 1_556 S
C2224 C2218 1.398 . S
C2224 C2223 1.524 . S
C2225 C2209 1.429 1_556 S
C2225 C2221 1.429 . S
C2225 C2226 1.523 . S
C2226 C2210 1.368 . S
C2226 C2222 1.368 1_556 S
C2226 C2225 1.523 . S
H2227 C2202 0.950 . S
H2228 C2204 0.950 . S
H2229 C2205 0.949 . S
H2230 C2207 0.950 . S
H2231 C2209 0.950 . S
C2232 C2233 1.349 . S
C2232 C2234 1.327 . S
C2232 H2257 0.950 . S
C2233 C2232 1.349 . S
C2233 C2249 1.349 . S
C2234 C2232 1.327 . S
C2234 C2253 1.429 . S
C2234 H2258 0.950 . S
C2235 C2252 1.574 . S
C2235 C2254 1.368 . S
C2235 H2259 0.949 . S
H2236 C2240 0.949 . S
C2237 C2238 1.349 . S
C2237 C2239 1.327 . S
C2237 H2260 0.950 . S
C2238 C2237 1.349 . S
C2238 C2250 1.349 . S
C2239 C2237 1.327 . S
C2239 C2255 1.429 . S
C2239 H2261 0.950 . S
C2240 H2236 0.949 . S
C2240 C2248 1.574 . S
C2240 C2256 1.368 . S
H2241 C2249 0.950 . S
H2242 C2247 0.950 . S
H2243 C2248 0.949 . S
H2244 C2250 0.950 . S
H2245 C2251 0.950 . S
H2246 C2252 0.949 . S
C2247 H2242 0.950 . S
C2247 C2249 1.327 . S
C2247 C2253 1.429 . S
C2248 C2240 1.574 . S
C2248 H2243 0.949 . S
C2248 C2254 1.368 . S
C2249 C2233 1.349 . S
C2249 H2241 0.950 . S
C2249 C2247 1.327 . S
C2250 C2238 1.349 . S
C2250 H2244 0.950 . S
C2250 C2251 1.327 . S
C2251 H2245 0.950 . S
C2251 C2250 1.327 . S
C2251 C2255 1.429 . S
C2252 C2235 1.574 . S
C2252 H2246 0.949 . S
C2252 C2256 1.368 . S
C2253 C2234 1.429 . S
C2253 C2247 1.429 . S
C2253 C2254 1.523 . S
C2254 C2235 1.368 . S
C2254 C2248 1.368 . S
C2254 C2253 1.523 . S
C2255 C2239 1.429 . S
C2255 C2251 1.429 . S
C2255 C2256 1.523 . S
C2256 C2240 1.368 . S
C2256 C2252 1.368 . S
C2256 C2255 1.523 . S
H2257 C2232 0.950 . S
H2258 C2234 0.950 . S
H2259 C2235 0.949 . S
H2260 C2237 0.950 . S
H2261 C2239 0.950 . S
C2262 C2263 1.349 . S
C2262 C2264 1.327 . S
C2262 H2287 0.950 . S
C2263 C2262 1.349 . S
C2263 C2279 1.349 . S
C2264 C2262 1.327 . S
C2264 C2283 1.429 . S
C2264 H2288 0.950 . S
C2265 C2282 1.574 . S
C2265 C2284 1.368 . S
C2265 H2289 0.949 . S
H2266 C2270 0.949 . S
C2267 C2268 1.349 . S
C2267 C2269 1.327 . S
C2267 H2290 0.950 . S
C2268 C2267 1.349 . S
C2268 C2280 1.349 . S
C2269 C2267 1.327 . S
C2269 C2285 1.429 . S
C2269 H2291 0.950 . S
C2270 H2266 0.949 . S
C2270 C2278 1.574 . S
C2270 C2286 1.368 . S
H2271 C2279 0.950 . S
H2272 C2277 0.950 . S
H2273 C2278 0.949 . S
H2274 C2280 0.950 . S
H2275 C2281 0.950 . S
H2276 C2282 0.949 . S
C2277 H2272 0.950 . S
C2277 C2279 1.327 . S
C2277 C2283 1.429 . S
C2278 C2270 1.574 . S
C2278 H2273 0.949 . S
C2278 C2284 1.368 . S
C2279 C2263 1.349 . S
C2279 H2271 0.950 . S
C2279 C2277 1.327 . S
C2280 C2268 1.349 . S
C2280 H2274 0.950 . S
C2280 C2281 1.327 . S
C2281 H2275 0.950 . S
C2281 C2280 1.327 . S
C2281 C2285 1.429 . S
C2282 C2265 1.574 . S
C2282 H2276 0.949 . S
C2282 C2286 1.368 . S
C2283 C2264 1.429 . S
C2283 C2277 1.429 . S
C2283 C2284 1.523 . S
C2284 C2265 1.368 . S
C2284 C2278 1.368 . S
C2284 C2283 1.523 . S
C2285 C2269 1.429 . S
C2285 C2281 1.429 . S
C2285 C2286 1.523 . S
C2286 C2270 1.368 . S
C2286 C2282 1.368 . S
C2286 C2285 1.523 . S
H2287 C2262 0.950 . S
H2288 C2264 0.950 . S
H2289 C2265 0.949 . S
H2290 C2267 0.950 . S
H2291 C2269 0.950 . S
C2292 C2293 1.349 . S
C2292 C2294 1.327 . S
C2292 H2317 0.950 . S
C2293 C2292 1.349 . S
C2293 C2309 1.349 . S
C2294 C2292 1.327 . S
C2294 C2313 1.429 . S
C2294 H2318 0.950 . S
C2295 C2312 1.574 . S
C2295 C2314 1.368 . S
C2295 H2319 0.949 . S
H2296 C2300 0.949 . S
C2297 C2298 1.349 . S
C2297 C2299 1.327 . S
C2297 H2320 0.950 . S
C2298 C2297 1.349 . S
C2298 C2310 1.349 . S
C2299 C2297 1.327 . S
C2299 C2315 1.429 . S
C2299 H2321 0.950 . S
C2300 H2296 0.949 . S
C2300 C2308 1.574 . S
C2300 C2316 1.368 . S
H2301 C2309 0.950 . S
H2302 C2307 0.950 . S
H2303 C2308 0.949 . S
H2304 C2310 0.950 . S
H2305 C2311 0.950 . S
H2306 C2312 0.949 . S
C2307 H2302 0.950 . S
C2307 C2309 1.327 . S
C2307 C2313 1.429 . S
C2308 C2300 1.574 . S
C2308 H2303 0.949 . S
C2308 C2314 1.368 . S
C2309 C2293 1.349 . S
C2309 H2301 0.950 . S
C2309 C2307 1.327 . S
C2310 C2298 1.349 . S
C2310 H2304 0.950 . S
C2310 C2311 1.327 . S
C2311 H2305 0.950 . S
C2311 C2310 1.327 . S
C2311 C2315 1.429 . S
C2312 C2295 1.574 . S
C2312 H2306 0.949 . S
C2312 C2316 1.368 . S
C2313 C2294 1.429 . S
C2313 C2307 1.429 . S
C2313 C2314 1.523 . S
C2314 C2295 1.368 . S
C2314 C2308 1.368 . S
C2314 C2313 1.523 . S
C2315 C2299 1.429 . S
C2315 C2311 1.429 . S
C2315 C2316 1.523 . S
C2316 C2300 1.368 . S
C2316 C2312 1.368 . S
C2316 C2315 1.523 . S
H2317 C2292 0.950 . S
H2318 C2294 0.950 . S
H2319 C2295 0.949 . S
H2320 C2297 0.950 . S
H2321 C2299 0.950 . S
C2322 C2323 1.350 . S
C2322 C2324 1.327 . S
C2322 H2347 0.950 . S
C2323 C2322 1.350 . S
C2323 C2339 1.348 1_455 S
C2324 C2322 1.327 . S
C2324 C2343 1.420 1_455 S
C2324 H2348 0.950 . S
C2325 C2342 1.574 . S
C2325 C2344 1.389 . S
C2325 H2349 0.949 . S
H2326 C2330 0.949 . S
C2327 C2328 1.349 . S
C2327 C2329 1.327 . S
C2327 H2350 0.950 . S
C2328 C2327 1.349 . S
C2328 C2340 1.349 1_655 S
C2329 C2327 1.327 . S
C2329 C2345 1.429 . S
C2329 H2351 0.950 . S
C2330 H2326 0.949 . S
C2330 C2338 1.574 . S
C2330 C2346 1.368 1_455 S
H2331 C2339 0.950 . S
H2332 C2337 0.950 . S
H2333 C2338 0.949 . S
H2334 C2340 0.950 . S
H2335 C2341 0.950 . S
H2336 C2342 0.949 . S
C2337 H2332 0.950 . S
C2337 C2339 1.327 . S
C2337 C2343 1.439 . S
C2338 C2330 1.574 . S
C2338 H2333 0.949 . S
C2338 C2344 1.346 1_455 S
C2339 C2323 1.348 1_655 S
C2339 H2331 0.950 . S
C2339 C2337 1.327 . S
C2340 C2328 1.349 1_455 S
C2340 H2334 0.950 . S
C2340 C2341 1.327 . S
C2341 H2335 0.950 . S
C2341 C2340 1.327 . S
C2341 C2345 1.429 1_455 S
C2342 C2325 1.574 . S
C2342 H2336 0.949 . S
C2342 C2346 1.368 . S
C2343 C2324 1.420 1_655 S
C2343 C2337 1.439 . S
C2343 C2344 1.524 . S
C2344 C2325 1.389 . S
C2344 C2338 1.346 1_655 S
C2344 C2343 1.524 . S
C2345 C2329 1.429 . S
C2345 C2341 1.429 1_655 S
C2345 C2346 1.523 . S
C2346 C2330 1.368 1_655 S
C2346 C2342 1.368 . S
C2346 C2345 1.523 . S
H2347 C2322 0.950 . S
H2348 C2324 0.950 . S
H2349 C2325 0.949 . S
H2350 C2327 0.950 . S
H2351 C2329 0.950 . S
C2352 C2353 1.349 . S
C2352 C2354 1.327 . S
C2352 H2377 0.950 . S
C2353 C2352 1.349 . S
C2353 C2369 1.349 . S
C2354 C2352 1.327 . S
C2354 C2373 1.429 . S
C2354 H2378 0.950 . S
C2355 C2372 1.574 . S
C2355 C2374 1.368 . S
C2355 H2379 0.949 . S
H2356 C2360 0.949 . S
C2357 C2358 1.349 . S
C2357 C2359 1.327 . S
C2357 H2380 0.950 . S
C2358 C2357 1.349 . S
C2358 C2370 1.349 . S
C2359 C2357 1.327 . S
C2359 C2375 1.429 . S
C2359 H2381 0.950 . S
C2360 H2356 0.949 . S
C2360 C2368 1.574 . S
C2360 C2376 1.368 . S
H2361 C2369 0.950 . S
H2362 C2367 0.950 . S
H2363 C2368 0.949 . S
H2364 C2370 0.950 . S
H2365 C2371 0.950 . S
H2366 C2372 0.949 . S
C2367 H2362 0.950 . S
C2367 C2369 1.327 . S
C2367 C2373 1.429 . S
C2368 C2360 1.574 . S
C2368 H2363 0.949 . S
C2368 C2374 1.368 . S
C2369 C2353 1.349 . S
C2369 H2361 0.950 . S
C2369 C2367 1.327 . S
C2370 C2358 1.349 . S
C2370 H2364 0.950 . S
C2370 C2371 1.327 . S
C2371 H2365 0.950 . S
C2371 C2370 1.327 . S
C2371 C2375 1.429 . S
C2372 C2355 1.574 . S
C2372 H2366 0.949 . S
C2372 C2376 1.368 . S
C2373 C2354 1.429 . S
C2373 C2367 1.429 . S
C2373 C2374 1.523 . S
C2374 C2355 1.368 . S
C2374 C2368 1.368 . S
C2374 C2373 1.523 . S
C2375 C2359 1.429 . S
C2375 C2371 1.429 . S
C2375 C2376 1.523 . S
C2376 C2360 1.368 . S
C2376 C2372 1.368 . S
C2376 C2375 1.523 . S
H2377 C2352 0.950 . S
H2378 C2354 0.950 . S
H2379 C2355 0.949 . S
H2380 C2357 0.950 . S
H2381 C2359 0.950 . S
C2382 C2383 1.349 . S
C2382 C2384 1.327 . S
C2382 H2407 0.950 . S
C2383 C2382 1.349 . S
C2383 C2399 1.349 . S
C2384 C2382 1.327 . S
C2384 C2403 1.429 . S
C2384 H2408 0.950 . S
C2385 C2402 1.574 . S
C2385 C2404 1.368 . S
C2385 H2409 0.949 . S
H2386 C2390 0.949 . S
C2387 C2388 1.349 . S
C2387 C2389 1.327 . S
C2387 H2410 0.950 . S
C2388 C2387 1.349 . S
C2388 C2400 1.349 . S
C2389 C2387 1.327 . S
C2389 C2405 1.429 . S
C2389 H2411 0.950 . S
C2390 H2386 0.949 . S
C2390 C2398 1.574 . S
C2390 C2406 1.368 . S
H2391 C2399 0.950 . S
H2392 C2397 0.950 . S
H2393 C2398 0.949 . S
H2394 C2400 0.950 . S
H2395 C2401 0.950 . S
H2396 C2402 0.949 . S
C2397 H2392 0.950 . S
C2397 C2399 1.327 . S
C2397 C2403 1.429 . S
C2398 C2390 1.574 . S
C2398 H2393 0.949 . S
C2398 C2404 1.368 . S
C2399 C2383 1.349 . S
C2399 H2391 0.950 . S
C2399 C2397 1.327 . S
C2400 C2388 1.349 . S
C2400 H2394 0.950 . S
C2400 C2401 1.327 . S
C2401 H2395 0.950 . S
C2401 C2400 1.327 . S
C2401 C2405 1.429 . S
C2402 C2385 1.574 . S
C2402 H2396 0.949 . S
C2402 C2406 1.368 . S
C2403 C2384 1.429 . S
C2403 C2397 1.429 . S
C2403 C2404 1.523 . S
C2404 C2385 1.368 . S
C2404 C2398 1.368 . S
C2404 C2403 1.523 . S
C2405 C2389 1.429 . S
C2405 C2401 1.429 . S
C2405 C2406 1.523 . S
C2406 C2390 1.368 . S
C2406 C2402 1.368 . S
C2406 C2405 1.523 . S
H2407 C2382 0.950 . S
H2408 C2384 0.950 . S
H2409 C2385 0.949 . S
H2410 C2387 0.950 . S
H2411 C2389 0.950 . S
C2412 C2413 1.350 . S
C2412 C2414 1.327 . S
C2412 H2437 0.950 . S
C2413 C2412 1.350 . S
C2413 C2429 1.348 1_565 S
C2414 C2412 1.327 . S
C2414 C2433 1.415 1_565 S
C2414 H2438 0.950 . S
C2415 C2432 1.574 . S
C2415 C2434 1.399 . S
C2415 H2439 0.949 . S
H2416 C2420 0.949 . S
C2417 C2418 1.349 . S
C2417 C2419 1.327 . S
C2417 H2440 0.950 . S
C2418 C2417 1.349 . S
C2418 C2430 1.349 1_545 S
C2419 C2417 1.327 . S
C2419 C2435 1.429 . S
C2419 H2441 0.950 . S
C2420 H2416 0.949 . S
C2420 C2428 1.574 . S
C2420 C2436 1.368 1_565 S
H2421 C2429 0.950 . S
H2422 C2427 0.950 . S
H2423 C2428 0.949 . S
H2424 C2430 0.950 . S
H2425 C2431 0.950 . S
H2426 C2432 0.949 . S
C2427 H2422 0.950 . S
C2427 C2429 1.327 . S
C2427 C2433 1.443 . S
C2428 C2420 1.574 . S
C2428 H2423 0.949 . S
C2428 C2434 1.336 1_565 S
C2429 C2413 1.348 1_545 S
C2429 H2421 0.950 . S
C2429 C2427 1.327 . S
C2430 C2418 1.349 1_565 S
C2430 H2424 0.950 . S
C2430 C2431 1.327 . S
C2431 H2425 0.950 . S
C2431 C2430 1.327 . S
C2431 C2435 1.429 1_565 S
C2432 C2415 1.574 . S
C2432 H2426 0.949 . S
C2432 C2436 1.368 . S
C2433 C2414 1.415 1_545 S
C2433 C2427 1.443 . S
C2433 C2434 1.524 . S
C2434 C2415 1.399 . S
C2434 C2428 1.336 1_545 S
C2434 C2433 1.524 . S
C2435 C2419 1.429 . S
C2435 C2431 1.429 1_545 S
C2435 C2436 1.523 . S
C2436 C2420 1.368 1_545 S
C2436 C2432 1.368 . S
C2436 C2435 1.523 . S
H2437 C2412 0.950 . S
H2438 C2414 0.950 . S
H2439 C2415 0.949 . S
H2440 C2417 0.950 . S
H2441 C2419 0.950 . S
C2442 C2443 1.349 . S
C2442 C2444 1.327 . S
C2442 H2467 0.950 . S
C2443 C2442 1.349 . S
C2443 C2459 1.349 . S
C2444 C2442 1.327 . S
C2444 C2463 1.429 . S
C2444 H2468 0.950 . S
C2445 C2462 1.574 . S
C2445 C2464 1.368 . S
C2445 H2469 0.949 . S
H2446 C2450 0.949 . S
C2447 C2448 1.349 . S
C2447 C2449 1.327 . S
C2447 H2470 0.950 . S
C2448 C2447 1.349 . S
C2448 C2460 1.349 . S
C2449 C2447 1.327 . S
C2449 C2465 1.429 . S
C2449 H2471 0.950 . S
C2450 H2446 0.949 . S
C2450 C2458 1.574 . S
C2450 C2466 1.368 . S
H2451 C2459 0.950 . S
H2452 C2457 0.950 . S
H2453 C2458 0.949 . S
H2454 C2460 0.950 . S
H2455 C2461 0.950 . S
H2456 C2462 0.949 . S
C2457 H2452 0.950 . S
C2457 C2459 1.327 . S
C2457 C2463 1.429 . S
C2458 C2450 1.574 . S
C2458 H2453 0.949 . S
C2458 C2464 1.368 . S
C2459 C2443 1.349 . S
C2459 H2451 0.950 . S
C2459 C2457 1.327 . S
C2460 C2448 1.349 . S
C2460 H2454 0.950 . S
C2460 C2461 1.327 . S
C2461 H2455 0.950 . S
C2461 C2460 1.327 . S
C2461 C2465 1.429 . S
C2462 C2445 1.574 . S
C2462 H2456 0.949 . S
C2462 C2466 1.368 . S
C2463 C2444 1.429 . S
C2463 C2457 1.429 . S
C2463 C2464 1.523 . S
C2464 C2445 1.368 . S
C2464 C2458 1.368 . S
C2464 C2463 1.523 . S
C2465 C2449 1.429 . S
C2465 C2461 1.429 . S
C2465 C2466 1.523 . S
C2466 C2450 1.368 . S
C2466 C2462 1.368 . S
C2466 C2465 1.523 . S
H2467 C2442 0.950 . S
H2468 C2444 0.950 . S
H2469 C2445 0.949 . S
H2470 C2447 0.950 . S
H2471 C2449 0.950 . S
C2472 C2473 1.349 . S
C2472 C2474 1.327 . S
C2472 H2497 0.950 . S
C2473 C2472 1.349 . S
C2473 C2489 1.349 . S
C2474 C2472 1.327 . S
C2474 C2493 1.429 . S
C2474 H2498 0.950 . S
C2475 C2492 1.574 . S
C2475 C2494 1.368 . S
C2475 H2499 0.949 . S
H2476 C2480 0.949 . S
C2477 C2478 1.349 . S
C2477 C2479 1.327 . S
C2477 H2500 0.950 . S
C2478 C2477 1.349 . S
C2478 C2490 1.349 . S
C2479 C2477 1.327 . S
C2479 C2495 1.429 . S
C2479 H2501 0.950 . S
C2480 H2476 0.949 . S
C2480 C2488 1.574 . S
C2480 C2496 1.368 . S
H2481 C2489 0.950 . S
H2482 C2487 0.950 . S
H2483 C2488 0.949 . S
H2484 C2490 0.950 . S
H2485 C2491 0.950 . S
H2486 C2492 0.949 . S
C2487 H2482 0.950 . S
C2487 C2489 1.327 . S
C2487 C2493 1.429 . S
C2488 C2480 1.574 . S
C2488 H2483 0.949 . S
C2488 C2494 1.368 . S
C2489 C2473 1.349 . S
C2489 H2481 0.950 . S
C2489 C2487 1.327 . S
C2490 C2478 1.349 . S
C2490 H2484 0.950 . S
C2490 C2491 1.327 . S
C2491 H2485 0.950 . S
C2491 C2490 1.327 . S
C2491 C2495 1.429 . S
C2492 C2475 1.574 . S
C2492 H2486 0.949 . S
C2492 C2496 1.368 . S
C2493 C2474 1.429 . S
C2493 C2487 1.429 . S
C2493 C2494 1.523 . S
C2494 C2475 1.368 . S
C2494 C2488 1.368 . S
C2494 C2493 1.523 . S
C2495 C2479 1.429 . S
C2495 C2491 1.429 . S
C2495 C2496 1.523 . S
C2496 C2480 1.368 . S
C2496 C2492 1.368 . S
C2496 C2495 1.523 . S
H2497 C2472 0.950 . S
H2498 C2474 0.950 . S
H2499 C2475 0.949 . S
H2500 C2477 0.950 . S
H2501 C2479 0.950 . S
C2502 C2503 1.349 . S
C2502 C2504 1.327 . S
C2502 H2527 0.941 1_554 S
C2503 C2502 1.349 . S
C2503 C2519 1.349 . S
C2504 C2502 1.327 . S
C2504 C2523 1.429 . S
C2504 H2528 0.950 . S
C2505 C2522 1.574 . S
C2505 C2524 1.368 . S
C2505 H2529 0.949 . S
H2506 C2510 0.949 . S
C2507 C2508 1.349 . S
C2507 C2509 1.327 . S
C2507 H2530 0.950 . S
C2508 C2507 1.349 . S
C2508 C2520 1.349 . S
C2509 C2507 1.327 . S
C2509 C2525 1.429 . S
C2509 H2531 0.950 . S
C2510 H2506 0.949 . S
C2510 C2518 1.574 . S
C2510 C2526 1.368 . S
H2511 C2519 0.950 . S
H2512 C2517 0.950 . S
H2513 C2518 0.949 . S
H2514 C2520 0.950 . S
H2515 C2521 0.950 . S
H2516 C2522 0.949 . S
C2517 H2512 0.950 . S
C2517 C2519 1.327 . S
C2517 C2523 1.429 . S
C2518 C2510 1.574 . S
C2518 H2513 0.949 . S
C2518 C2524 1.368 . S
C2519 C2503 1.349 . S
C2519 H2511 0.950 . S
C2519 C2517 1.327 . S
C2520 C2508 1.349 . S
C2520 H2514 0.950 . S
C2520 C2521 1.327 . S
C2521 H2515 0.950 . S
C2521 C2520 1.327 . S
C2521 C2525 1.429 . S
C2522 C2505 1.574 . S
C2522 H2516 0.949 . S
C2522 C2526 1.368 . S
C2523 C2504 1.429 . S
C2523 C2517 1.429 . S
C2523 C2524 1.523 . S
C2524 C2505 1.368 . S
C2524 C2518 1.368 . S
C2524 C2523 1.523 . S
C2525 C2509 1.429 . S
C2525 C2521 1.429 . S
C2525 C2526 1.523 . S
C2526 C2510 1.368 . S
C2526 C2522 1.368 . S
C2526 C2525 1.523 . S
H2527 C2502 0.941 1_556 S
H2528 C2504 0.950 . S
H2529 C2505 0.949 . S
H2530 C2507 0.950 . S
H2531 C2509 0.950 . S
C2532 C2533 1.349 . S
C2532 C2534 1.327 . S
C2532 H2557 0.950 . S
C2533 C2532 1.349 . S
C2533 C2549 1.349 . S
C2534 C2532 1.327 . S
C2534 C2553 1.429 . S
C2534 H2558 0.950 . S
C2535 C2552 1.574 . S
C2535 C2554 1.368 . S
C2535 H2559 0.949 . S
H2536 C2540 0.949 . S
C2537 C2538 1.349 . S
C2537 C2539 1.327 . S
C2537 H2560 0.950 . S
C2538 C2537 1.349 . S
C2538 C2550 1.349 . S
C2539 C2537 1.327 . S
C2539 C2555 1.429 . S
C2539 H2561 0.950 . S
C2540 H2536 0.949 . S
C2540 C2548 1.574 . S
C2540 C2556 1.368 . S
H2541 C2549 0.950 . S
H2542 C2547 0.950 . S
H2543 C2548 0.949 . S
H2544 C2550 0.950 . S
H2545 C2551 0.950 . S
H2546 C2552 0.949 . S
C2547 H2542 0.950 . S
C2547 C2549 1.327 . S
C2547 C2553 1.429 . S
C2548 C2540 1.574 . S
C2548 H2543 0.949 . S
C2548 C2554 1.368 . S
C2549 C2533 1.349 . S
C2549 H2541 0.950 . S
C2549 C2547 1.327 . S
C2550 C2538 1.349 . S
C2550 H2544 0.950 . S
C2550 C2551 1.327 . S
C2551 H2545 0.950 . S
C2551 C2550 1.327 . S
C2551 C2555 1.429 . S
C2552 C2535 1.574 . S
C2552 H2546 0.949 . S
C2552 C2556 1.368 . S
C2553 C2534 1.429 . S
C2553 C2547 1.429 . S
C2553 C2554 1.523 . S
C2554 C2535 1.368 . S
C2554 C2548 1.368 . S
C2554 C2553 1.523 . S
C2555 C2539 1.429 . S
C2555 C2551 1.429 . S
C2555 C2556 1.523 . S
C2556 C2540 1.368 . S
C2556 C2552 1.368 . S
C2556 C2555 1.523 . S
H2557 C2532 0.950 . S
H2558 C2534 0.950 . S
H2559 C2535 0.949 . S
H2560 C2537 0.950 . S
H2561 C2539 0.950 . S
C2562 C2563 1.348 1_554 S
C2562 C2564 1.327 . S
C2562 H2587 0.950 . S
C2563 C2562 1.348 1_556 S
C2563 C2579 1.350 . S
C2564 C2562 1.327 . S
C2564 C2583 1.442 . S
C2564 H2588 0.950 . S
C2565 C2582 1.574 . S
C2565 C2584 1.339 1_556 S
C2565 H2589 0.949 . S
H2566 C2570 0.949 . S
C2567 C2568 1.349 1_556 S
C2567 C2569 1.327 . S
C2567 H2590 0.950 . S
C2568 C2567 1.349 1_554 S
C2568 C2580 1.349 . S
C2569 C2567 1.327 . S
C2569 C2585 1.429 1_556 S
C2569 H2591 0.950 . S
C2570 H2566 0.949 . S
C2570 C2578 1.574 . S
C2570 C2586 1.368 . S
H2571 C2579 0.950 . S
H2572 C2577 0.950 . S
H2573 C2578 0.949 . S
H2574 C2580 0.950 . S
H2575 C2581 0.950 . S
H2576 C2582 0.949 . S
C2577 H2572 0.950 . S
C2577 C2579 1.327 . S
C2577 C2583 1.417 1_556 S
C2578 C2570 1.574 . S
C2578 H2573 0.949 . S
C2578 C2584 1.396 . S
C2579 C2563 1.350 . S
C2579 H2571 0.950 . S
C2579 C2577 1.327 . S
C2580 C2568 1.349 . S
C2580 H2574 0.950 . S
C2580 C2581 1.327 . S
C2581 H2575 0.950 . S
C2581 C2580 1.327 . S
C2581 C2585 1.429 . S
C2582 C2565 1.574 . S
C2582 H2576 0.949 . S
C2582 C2586 1.368 1_556 S
C2583 C2564 1.442 . S
C2583 C2577 1.417 1_554 S
C2583 C2584 1.524 . S
C2584 C2565 1.339 1_554 S
C2584 C2578 1.396 . S
C2584 C2583 1.524 . S
C2585 C2569 1.429 1_554 S
C2585 C2581 1.429 . S
C2585 C2586 1.523 . S
C2586 C2570 1.368 . S
C2586 C2582 1.368 1_554 S
C2586 C2585 1.523 . S
H2587 C2562 0.950 . S
H2588 C2564 0.950 . S
H2589 C2565 0.949 . S
H2590 C2567 0.950 . S
H2591 C2569 0.950 . S
C2592 C2593 1.349 . S
C2592 C2594 1.327 . S
C2592 H2617 0.950 . S
C2593 C2592 1.349 . S
C2593 C2609 1.349 . S
C2594 C2592 1.327 . S
C2594 C2613 1.429 . S
C2594 H2618 0.950 . S
C2595 C2612 1.574 . S
C2595 C2614 1.368 . S
C2595 H2619 0.949 . S
H2596 C2600 0.949 . S
C2597 C2598 1.349 . S
C2597 C2599 1.327 . S
C2597 H2620 0.950 . S
C2598 C2597 1.349 . S
C2598 C2610 1.349 . S
C2599 C2597 1.327 . S
C2599 C2615 1.429 . S
C2599 H2621 0.950 . S
C2600 H2596 0.949 . S
C2600 C2608 1.574 . S
C2600 C2616 1.368 . S
H2601 C2609 0.950 . S
H2602 C2607 0.950 . S
H2603 C2608 0.949 . S
H2604 C2610 0.950 . S
H2605 C2611 0.950 . S
H2606 C2612 0.949 . S
C2607 H2602 0.950 . S
C2607 C2609 1.327 . S
C2607 C2613 1.429 . S
C2608 C2600 1.574 . S
C2608 H2603 0.949 . S
C2608 C2614 1.368 . S
C2609 C2593 1.349 . S
C2609 H2601 0.950 . S
C2609 C2607 1.327 . S
C2610 C2598 1.349 . S
C2610 H2604 0.950 . S
C2610 C2611 1.327 . S
C2611 H2605 0.950 . S
C2611 C2610 1.327 . S
C2611 C2615 1.429 . S
C2612 C2595 1.574 . S
C2612 H2606 0.949 . S
C2612 C2616 1.368 . S
C2613 C2594 1.429 . S
C2613 C2607 1.429 . S
C2613 C2614 1.523 . S
C2614 C2595 1.368 . S
C2614 C2608 1.368 . S
C2614 C2613 1.523 . S
C2615 C2599 1.429 . S
C2615 C2611 1.429 . S
C2615 C2616 1.523 . S
C2616 C2600 1.368 . S
C2616 C2612 1.368 . S
C2616 C2615 1.523 . S
H2617 C2592 0.950 . S
H2618 C2594 0.950 . S
H2619 C2595 0.949 . S
H2620 C2597 0.950 . S
H2621 C2599 0.950 . S
C2622 C2623 1.349 . S
C2622 C2624 1.327 . S
C2622 H2647 0.950 . S
C2623 C2622 1.349 . S
C2623 C2639 1.349 . S
C2624 C2622 1.327 . S
C2624 C2643 1.429 . S
C2624 H2648 0.950 . S
C2625 C2642 1.574 . S
C2625 C2644 1.368 . S
C2625 H2649 0.949 . S
H2626 C2630 0.949 . S
C2627 C2628 1.349 . S
C2627 C2629 1.327 . S
C2627 H2650 0.950 . S
C2628 C2627 1.349 . S
C2628 C2640 1.349 . S
C2629 C2627 1.327 . S
C2629 C2645 1.429 . S
C2629 H2651 0.950 . S
C2630 H2626 0.949 . S
C2630 C2638 1.574 . S
C2630 C2646 1.368 . S
H2631 C2639 0.950 . S
H2632 C2637 0.950 . S
H2633 C2638 0.949 . S
H2634 C2640 0.950 . S
H2635 C2641 0.950 . S
H2636 C2642 0.949 . S
C2637 H2632 0.950 . S
C2637 C2639 1.327 . S
C2637 C2643 1.429 . S
C2638 C2630 1.574 . S
C2638 H2633 0.949 . S
C2638 C2644 1.368 . S
C2639 C2623 1.349 . S
C2639 H2631 0.950 . S
C2639 C2637 1.327 . S
C2640 C2628 1.349 . S
C2640 H2634 0.950 . S
C2640 C2641 1.327 . S
C2641 H2635 0.950 . S
C2641 C2640 1.327 . S
C2641 C2645 1.429 . S
C2642 C2625 1.574 . S
C2642 H2636 0.949 . S
C2642 C2646 1.368 . S
C2643 C2624 1.429 . S
C2643 C2637 1.429 . S
C2643 C2644 1.523 . S
C2644 C2625 1.368 . S
C2644 C2638 1.368 . S
C2644 C2643 1.523 . S
C2645 C2629 1.429 . S
C2645 C2641 1.429 . S
C2645 C2646 1.523 . S
C2646 C2630 1.368 . S
C2646 C2642 1.368 . S
C2646 C2645 1.523 . S
H2647 C2622 0.950 . S
H2648 C2624 0.950 . S
H2649 C2625 0.949 . S
H2650 C2627 0.950 . S
H2651 C2629 0.950 . S
C2652 C2653 1.349 . S
C2652 C2654 1.327 . S
C2652 H2677 0.950 . S
C2653 C2652 1.349 . S
C2653 C2669 1.349 . S
C2654 C2652 1.327 . S
C2654 C2673 1.429 . S
C2654 H2678 0.950 . S
C2655 C2672 1.574 . S
C2655 C2674 1.368 . S
C2655 H2679 0.949 . S
H2656 C2660 0.949 . S
C2657 C2658 1.349 . S
C2657 C2659 1.327 . S
C2657 H2680 0.950 . S
C2658 C2657 1.349 . S
C2658 C2670 1.349 . S
C2659 C2657 1.327 . S
C2659 C2675 1.429 . S
C2659 H2681 0.950 . S
C2660 H2656 0.949 . S
C2660 C2668 1.574 . S
C2660 C2676 1.368 . S
H2661 C2669 0.950 . S
H2662 C2667 0.950 . S
H2663 C2668 0.949 . S
H2664 C2670 0.950 . S
H2665 C2671 0.950 . S
H2666 C2672 0.949 . S
C2667 H2662 0.950 . S
C2667 C2669 1.327 . S
C2667 C2673 1.429 . S
C2668 C2660 1.574 . S
C2668 H2663 0.949 . S
C2668 C2674 1.368 . S
C2669 C2653 1.349 . S
C2669 H2661 0.950 . S
C2669 C2667 1.327 . S
C2670 C2658 1.349 . S
C2670 H2664 0.950 . S
C2670 C2671 1.327 . S
C2671 H2665 0.950 . S
C2671 C2670 1.327 . S
C2671 C2675 1.429 . S
C2672 C2655 1.574 . S
C2672 H2666 0.949 . S
C2672 C2676 1.368 . S
C2673 C2654 1.429 . S
C2673 C2667 1.429 . S
C2673 C2674 1.523 . S
C2674 C2655 1.368 . S
C2674 C2668 1.368 . S
C2674 C2673 1.523 . S
C2675 C2659 1.429 . S
C2675 C2671 1.429 . S
C2675 C2676 1.523 . S
C2676 C2660 1.368 . S
C2676 C2672 1.368 . S
C2676 C2675 1.523 . S
H2677 C2652 0.950 . S
H2678 C2654 0.950 . S
H2679 C2655 0.949 . S
H2680 C2657 0.950 . S
H2681 C2659 0.950 . S
C2682 C2683 1.350 . S
C2682 C2684 1.327 . S
C2682 H2707 0.950 . S
C2683 C2682 1.350 . S
C2683 C2699 1.348 1_655 S
C2684 C2682 1.327 . S
C2684 C2703 1.421 1_655 S
C2684 H2708 0.950 . S
C2685 C2702 1.574 . S
C2685 C2704 1.386 . S
C2685 H2709 0.949 . S
H2686 C2690 0.949 . S
C2687 C2688 1.349 . S
C2687 C2689 1.327 . S
C2687 H2710 0.950 . S
C2688 C2687 1.349 . S
C2688 C2700 1.349 1_455 S
C2689 C2687 1.327 . S
C2689 C2705 1.429 . S
C2689 H2711 0.950 . S
C2690 H2686 0.949 . S
C2690 C2698 1.574 . S
C2690 C2706 1.368 1_655 S
H2691 C2699 0.950 . S
H2692 C2697 0.950 . S
H2693 C2698 0.949 . S
H2694 C2700 0.950 . S
H2695 C2701 0.950 . S
H2696 C2702 0.949 . S
C2697 H2692 0.950 . S
C2697 C2699 1.327 . S
C2697 C2703 1.437 . S
C2698 C2690 1.574 . S
C2698 H2693 0.949 . S
C2698 C2704 1.349 1_655 S
C2699 C2683 1.348 1_455 S
C2699 H2691 0.950 . S
C2699 C2697 1.327 . S
C2700 C2688 1.349 1_655 S
C2700 H2694 0.950 . S
C2700 C2701 1.327 . S
C2701 H2695 0.950 . S
C2701 C2700 1.327 . S
C2701 C2705 1.429 1_655 S
C2702 C2685 1.574 . S
C2702 H2696 0.949 . S
C2702 C2706 1.368 . S
C2703 C2684 1.421 1_455 S
C2703 C2697 1.437 . S
C2703 C2704 1.524 . S
C2704 C2685 1.386 . S
C2704 C2698 1.349 1_455 S
C2704 C2703 1.524 . S
C2705 C2689 1.429 . S
C2705 C2701 1.429 1_455 S
C2705 C2706 1.523 . S
C2706 C2690 1.368 1_455 S
C2706 C2702 1.368 . S
C2706 C2705 1.523 . S
H2707 C2682 0.950 . S
H2708 C2684 0.950 . S
H2709 C2685 0.949 . S
H2710 C2687 0.950 . S
H2711 C2689 0.950 . S
C2712 C2713 1.349 . S
C2712 C2714 1.327 . S
C2712 H2737 0.950 . S
C2713 C2712 1.349 . S
C2713 C2729 1.349 . S
C2714 C2712 1.327 . S
C2714 C2733 1.429 . S
C2714 H2738 0.950 . S
C2715 C2732 1.574 . S
C2715 C2734 1.368 . S
C2715 H2739 0.949 . S
H2716 C2720 0.949 . S
C2717 C2718 1.349 . S
C2717 C2719 1.327 . S
C2717 H2740 0.950 . S
C2718 C2717 1.349 . S
C2718 C2730 1.349 . S
C2719 C2717 1.327 . S
C2719 C2735 1.429 . S
C2719 H2741 0.950 . S
C2720 H2716 0.949 . S
C2720 C2728 1.574 . S
C2720 C2736 1.368 . S
H2721 C2729 0.950 . S
H2722 C2727 0.950 . S
H2723 C2728 0.949 . S
H2724 C2730 0.950 . S
H2725 C2731 0.950 . S
H2726 C2732 0.949 . S
C2727 H2722 0.950 . S
C2727 C2729 1.327 . S
C2727 C2733 1.429 . S
C2728 C2720 1.574 . S
C2728 H2723 0.949 . S
C2728 C2734 1.368 . S
C2729 C2713 1.349 . S
C2729 H2721 0.950 . S
C2729 C2727 1.327 . S
C2730 C2718 1.349 . S
C2730 H2724 0.950 . S
C2730 C2731 1.327 . S
C2731 H2725 0.950 . S
C2731 C2730 1.327 . S
C2731 C2735 1.429 . S
C2732 C2715 1.574 . S
C2732 H2726 0.949 . S
C2732 C2736 1.368 . S
C2733 C2714 1.429 . S
C2733 C2727 1.429 . S
C2733 C2734 1.523 . S
C2734 C2715 1.368 . S
C2734 C2728 1.368 . S
C2734 C2733 1.523 . S
C2735 C2719 1.429 . S
C2735 C2731 1.429 . S
C2735 C2736 1.523 . S
C2736 C2720 1.368 . S
C2736 C2732 1.368 . S
C2736 C2735 1.523 . S
H2737 C2712 0.950 . S
H2738 C2714 0.950 . S
H2739 C2715 0.949 . S
H2740 C2717 0.950 . S
H2741 C2719 0.950 . S
C2742 C2743 1.349 . S
C2742 C2744 1.327 . S
C2742 H2767 0.950 . S
C2743 C2742 1.349 . S
C2743 C2759 1.349 . S
C2744 C2742 1.327 . S
C2744 C2763 1.429 . S
C2744 H2768 0.950 . S
C2745 C2762 1.574 . S
C2745 C2764 1.368 . S
C2745 H2769 0.949 . S
H2746 C2750 0.949 . S
C2747 C2748 1.349 . S
C2747 C2749 1.327 . S
C2747 H2770 0.950 . S
C2748 C2747 1.349 . S
C2748 C2760 1.349 . S
C2749 C2747 1.327 . S
C2749 C2765 1.429 . S
C2749 H2771 0.950 . S
C2750 H2746 0.949 . S
C2750 C2758 1.574 . S
C2750 C2766 1.368 . S
H2751 C2759 0.950 . S
H2752 C2757 0.950 . S
H2753 C2758 0.949 . S
H2754 C2760 0.950 . S
H2755 C2761 0.950 . S
H2756 C2762 0.949 . S
C2757 H2752 0.950 . S
C2757 C2759 1.327 . S
C2757 C2763 1.429 . S
C2758 C2750 1.574 . S
C2758 H2753 0.949 . S
C2758 C2764 1.368 . S
C2759 C2743 1.349 . S
C2759 H2751 0.950 . S
C2759 C2757 1.327 . S
C2760 C2748 1.349 . S
C2760 H2754 0.950 . S
C2760 C2761 1.327 . S
C2761 H2755 0.950 . S
C2761 C2760 1.327 . S
C2761 C2765 1.429 . S
C2762 C2745 1.574 . S
C2762 H2756 0.949 . S
C2762 C2766 1.368 . S
C2763 C2744 1.429 . S
C2763 C2757 1.429 . S
C2763 C2764 1.523 . S
C2764 C2745 1.368 . S
C2764 C2758 1.368 . S
C2764 C2763 1.523 . S
C2765 C2749 1.429 . S
C2765 C2761 1.429 . S
C2765 C2766 1.523 . S
C2766 C2750 1.368 . S
C2766 C2762 1.368 . S
C2766 C2765 1.523 . S
H2767 C2742 0.950 . S
H2768 C2744 0.950 . S
H2769 C2745 0.949 . S
H2770 C2747 0.950 . S
H2771 C2749 0.950 . S
C2772 C2773 1.310 1_545 S
C2772 C2774 1.327 . S
C2772 H2797 0.950 . S
C2773 C2772 1.310 1_565 S
C2773 C2789 1.400 . S
C2774 C2772 1.327 . S
C2774 C2793 1.429 1_545 S
C2774 H2798 0.950 . S
C2775 C2792 1.574 . S
C2775 C2794 1.368 . S
C2775 H2799 0.949 . S
H2776 C2780 0.949 . S
C2777 C2778 1.349 . S
C2777 C2779 1.327 . S
C2777 H2800 0.950 . S
C2778 C2777 1.349 . S
C2778 C2790 1.349 1_565 S
C2779 C2777 1.327 . S
C2779 C2795 1.429 . S
C2779 H2801 0.950 . S
C2780 H2776 0.949 . S
C2780 C2788 1.574 . S
C2780 C2796 1.368 1_545 S
H2781 C2789 0.950 . S
H2782 C2787 0.950 . S
H2783 C2788 0.949 . S
H2784 C2790 0.950 . S
H2785 C2791 0.950 . S
H2786 C2792 0.949 . S
C2787 H2782 0.950 . S
C2787 C2789 1.327 . S
C2787 C2793 1.429 . S
C2788 C2780 1.574 . S
C2788 H2783 0.949 . S
C2788 C2794 1.368 1_545 S
C2789 C2773 1.400 . S
C2789 H2781 0.950 . S
C2789 C2787 1.327 . S
C2790 C2778 1.349 1_545 S
C2790 H2784 0.950 . S
C2790 C2791 1.327 . S
C2791 H2785 0.950 . S
C2791 C2790 1.327 . S
C2791 C2795 1.429 1_545 S
C2792 C2775 1.574 . S
C2792 H2786 0.949 . S
C2792 C2796 1.368 . S
C2793 C2774 1.429 1_565 S
C2793 C2787 1.429 . S
C2793 C2794 1.523 . S
C2794 C2775 1.368 . S
C2794 C2788 1.368 1_565 S
C2794 C2793 1.523 . S
C2795 C2779 1.429 . S
C2795 C2791 1.429 1_565 S
C2795 C2796 1.523 . S
C2796 C2780 1.368 1_565 S
C2796 C2792 1.368 . S
C2796 C2795 1.523 . S
H2797 C2772 0.950 . S
H2798 C2774 0.950 . S
H2799 C2775 0.949 . S
H2800 C2777 0.950 . S
H2801 C2779 0.950 . S
C2802 C2803 1.349 . S
C2802 C2804 1.327 . S
C2802 H2827 0.950 . S
C2803 C2802 1.349 . S
C2803 C2819 1.318 1_545 S
C2804 C2802 1.327 . S
C2804 C2823 1.429 . S
C2804 H2828 0.950 . S
C2805 C2822 1.574 . S
C2805 C2824 1.368 1_565 S
C2805 H2829 0.949 . S
H2806 C2810 0.949 . S
C2807 C2808 1.349 1_565 S
C2807 C2809 1.327 . S
C2807 H2830 0.950 . S
C2808 C2807 1.349 1_545 S
C2808 C2820 1.349 . S
C2809 C2807 1.327 . S
C2809 C2825 1.429 1_565 S
C2809 H2831 0.950 . S
C2810 H2806 0.949 . S
C2810 C2818 1.574 . S
C2810 C2826 1.368 . S
H2811 C2819 0.983 . S
H2812 C2817 0.950 . S
H2813 C2818 0.949 . S
H2814 C2820 0.950 . S
H2815 C2821 0.950 . S
H2816 C2822 0.949 . S
C2817 H2812 0.950 . S
C2817 C2819 1.327 . S
C2817 C2823 1.429 1_565 S
C2818 C2810 1.574 . S
C2818 H2813 0.949 . S
C2818 C2824 1.368 . S
C2819 C2803 1.318 1_565 S
C2819 H2811 0.983 . S
C2819 C2817 1.327 . S
C2820 C2808 1.349 . S
C2820 H2814 0.950 . S
C2820 C2821 1.327 . S
C2821 H2815 0.950 . S
C2821 C2820 1.327 . S
C2821 C2825 1.429 . S
C2822 C2805 1.574 . S
C2822 H2816 0.949 . S
C2822 C2826 1.368 1_565 S
C2823 C2804 1.429 . S
C2823 C2817 1.429 1_545 S
C2823 C2824 1.523 . S
C2824 C2805 1.368 1_545 S
C2824 C2818 1.368 . S
C2824 C2823 1.523 . S
C2825 C2809 1.429 1_545 S
C2825 C2821 1.429 . S
C2825 C2826 1.523 . S
C2826 C2810 1.368 . S
C2826 C2822 1.368 1_545 S
C2826 C2825 1.523 . S
H2827 C2802 0.950 . S
H2828 C2804 0.950 . S
H2829 C2805 0.949 . S
H2830 C2807 0.950 . S
H2831 C2809 0.950 . S
C2832 C2833 1.349 . S
C2832 C2834 1.327 . S
C2832 H2857 0.950 . S
C2833 C2832 1.349 . S
C2833 C2849 1.349 . S
C2834 C2832 1.327 . S
C2834 C2853 1.429 . S
C2834 H2858 0.950 . S
C2835 C2852 1.574 . S
C2835 C2854 1.368 . S
C2835 H2859 0.949 . S
H2836 C2840 0.949 . S
C2837 C2838 1.349 . S
C2837 C2839 1.327 . S
C2837 H2860 0.950 . S
C2838 C2837 1.349 . S
C2838 C2850 1.349 . S
C2839 C2837 1.327 . S
C2839 C2855 1.429 . S
C2839 H2861 0.950 . S
C2840 H2836 0.949 . S
C2840 C2848 1.574 . S
C2840 C2856 1.368 . S
H2841 C2849 0.950 . S
H2842 C2847 0.950 . S
H2843 C2848 0.949 . S
H2844 C2850 0.950 . S
H2845 C2851 0.950 . S
H2846 C2852 0.949 . S
C2847 H2842 0.950 . S
C2847 C2849 1.327 . S
C2847 C2853 1.429 . S
C2848 C2840 1.574 . S
C2848 H2843 0.949 . S
C2848 C2854 1.368 . S
C2849 C2833 1.349 . S
C2849 H2841 0.950 . S
C2849 C2847 1.327 . S
C2850 C2838 1.349 . S
C2850 H2844 0.950 . S
C2850 C2851 1.327 . S
C2851 H2845 0.950 . S
C2851 C2850 1.327 . S
C2851 C2855 1.429 . S
C2852 C2835 1.574 . S
C2852 H2846 0.949 . S
C2852 C2856 1.368 . S
C2853 C2834 1.429 . S
C2853 C2847 1.429 . S
C2853 C2854 1.523 . S
C2854 C2835 1.368 . S
C2854 C2848 1.368 . S
C2854 C2853 1.523 . S
C2855 C2839 1.429 . S
C2855 C2851 1.429 . S
C2855 C2856 1.523 . S
C2856 C2840 1.368 . S
C2856 C2852 1.368 . S
C2856 C2855 1.523 . S
H2857 C2832 0.950 . S
H2858 C2834 0.950 . S
H2859 C2835 0.949 . S
H2860 C2837 0.950 . S
H2861 C2839 0.950 . S
C2862 C2863 1.349 . S
C2862 C2864 1.327 . S
C2862 H2887 0.950 . S
C2863 C2862 1.349 . S
C2863 C2879 1.336 1_554 S
C2864 C2862 1.327 . S
C2864 C2883 1.429 . S
C2864 H2888 0.950 . S
C2865 C2882 1.574 . S
C2865 C2884 1.368 1_556 S
C2865 H2889 0.949 . S
H2866 C2870 0.949 . S
C2867 C2868 1.349 1_556 S
C2867 C2869 1.327 . S
C2867 H2890 0.950 . S
C2868 C2867 1.349 1_554 S
C2868 C2880 1.349 . S
C2869 C2867 1.327 . S
C2869 C2885 1.429 1_556 S
C2869 H2891 0.950 . S
C2870 H2866 0.949 . S
C2870 C2878 1.574 . S
C2870 C2886 1.368 . S
H2871 C2879 0.963 . S
H2872 C2877 0.950 . S
H2873 C2878 0.949 . S
H2874 C2880 0.950 . S
H2875 C2881 0.950 . S
H2876 C2882 0.949 . S
C2877 H2872 0.950 . S
C2877 C2879 1.327 . S
C2877 C2883 1.429 1_556 S
C2878 C2870 1.574 . S
C2878 H2873 0.949 . S
C2878 C2884 1.368 . S
C2879 C2863 1.336 1_556 S
C2879 H2871 0.963 . S
C2879 C2877 1.327 . S
C2880 C2868 1.349 . S
C2880 H2874 0.950 . S
C2880 C2881 1.327 . S
C2881 H2875 0.950 . S
C2881 C2880 1.327 . S
C2881 C2885 1.429 . S
C2882 C2865 1.574 . S
C2882 H2876 0.949 . S
C2882 C2886 1.368 1_556 S
C2883 C2864 1.429 . S
C2883 C2877 1.429 1_554 S
C2883 C2884 1.523 . S
C2884 C2865 1.368 1_554 S
C2884 C2878 1.368 . S
C2884 C2883 1.523 . S
C2885 C2869 1.429 1_554 S
C2885 C2881 1.429 . S
C2885 C2886 1.523 . S
C2886 C2870 1.368 . S
C2886 C2882 1.368 1_554 S
C2886 C2885 1.523 . S
H2887 C2862 0.950 . S
H2888 C2864 0.950 . S
H2889 C2865 0.949 . S
H2890 C2867 0.950 . S
H2891 C2869 0.950 . S
C2892 C2893 1.349 . S
C2892 C2894 1.327 . S
C2892 H2917 0.950 . S
C2893 C2892 1.349 . S
C2893 C2909 1.349 . S
C2894 C2892 1.327 . S
C2894 C2913 1.429 . S
C2894 H2918 0.950 . S
C2895 C2912 1.574 . S
C2895 C2914 1.368 . S
C2895 H2919 0.949 . S
H2896 C2900 0.949 . S
C2897 C2898 1.349 . S
C2897 C2899 1.327 . S
C2897 H2920 0.950 . S
C2898 C2897 1.349 . S
C2898 C2910 1.349 . S
C2899 C2897 1.327 . S
C2899 C2915 1.429 . S
C2899 H2921 0.950 . S
C2900 H2896 0.949 . S
C2900 C2908 1.574 . S
C2900 C2916 1.368 . S
H2901 C2909 0.950 . S
H2902 C2907 0.950 . S
H2903 C2908 0.949 . S
H2904 C2910 0.950 . S
H2905 C2911 0.950 . S
H2906 C2912 0.949 . S
C2907 H2902 0.950 . S
C2907 C2909 1.327 . S
C2907 C2913 1.429 . S
C2908 C2900 1.574 . S
C2908 H2903 0.949 . S
C2908 C2914 1.368 . S
C2909 C2893 1.349 . S
C2909 H2901 0.950 . S
C2909 C2907 1.327 . S
C2910 C2898 1.349 . S
C2910 H2904 0.950 . S
C2910 C2911 1.327 . S
C2911 H2905 0.950 . S
C2911 C2910 1.327 . S
C2911 C2915 1.429 . S
C2912 C2895 1.574 . S
C2912 H2906 0.949 . S
C2912 C2916 1.368 . S
C2913 C2894 1.429 . S
C2913 C2907 1.429 . S
C2913 C2914 1.523 . S
C2914 C2895 1.368 . S
C2914 C2908 1.368 . S
C2914 C2913 1.523 . S
C2915 C2899 1.429 . S
C2915 C2911 1.429 . S
C2915 C2916 1.523 . S
C2916 C2900 1.368 . S
C2916 C2912 1.368 . S
C2916 C2915 1.523 . S
H2917 C2892 0.950 . S
H2918 C2894 0.950 . S
H2919 C2895 0.949 . S
H2920 C2897 0.950 . S
H2921 C2899 0.950 . S
C2922 C2923 1.327 1_554 S
C2922 C2924 1.327 . S
C2922 H2947 0.950 . S
C2923 C2922 1.327 1_556 S
C2923 C2939 1.385 . S
C2924 C2922 1.327 . S
C2924 C2943 1.429 1_554 S
C2924 H2948 0.950 . S
C2925 C2942 1.574 . S
C2925 C2944 1.368 . S
C2925 H2949 0.949 . S
H2926 C2930 0.949 . S
C2927 C2928 1.349 . S
C2927 C2929 1.327 . S
C2927 H2950 0.950 . S
C2928 C2927 1.349 . S
C2928 C2940 1.349 . S
C2929 C2927 1.327 . S
C2929 C2945 1.429 . S
C2929 H2951 0.950 . S
C2930 H2926 0.949 . S
C2930 C2938 1.574 . S
C2930 C2946 1.368 1_554 S
H2931 C2939 0.950 . S
H2932 C2937 0.950 . S
H2933 C2938 0.949 . S
H2934 C2940 0.950 1_554 S
H2935 C2941 0.950 1_554 S
H2936 C2942 0.949 . S
C2937 H2932 0.950 . S
C2937 C2939 1.327 . S
C2937 C2943 1.429 . S
C2938 C2930 1.574 . S
C2938 H2933 0.949 . S
C2938 C2944 1.368 1_554 S
C2939 C2923 1.385 . S
C2939 H2931 0.950 . S
C2939 C2937 1.327 . S
C2940 C2928 1.349 . S
C2940 H2934 0.950 1_556 S
C2940 C2941 1.327 . S
C2941 H2935 0.950 1_556 S
C2941 C2940 1.327 . S
C2941 C2945 1.429 . S
C2942 C2925 1.574 . S
C2942 H2936 0.949 . S
C2942 C2946 1.368 . S
C2943 C2924 1.429 1_556 S
C2943 C2937 1.429 . S
C2943 C2944 1.523 . S
C2944 C2925 1.368 . S
C2944 C2938 1.368 1_556 S
C2944 C2943 1.523 . S
C2945 C2929 1.429 . S
C2945 C2941 1.429 . S
C2945 C2946 1.523 . S
C2946 C2930 1.368 1_556 S
C2946 C2942 1.368 . S
C2946 C2945 1.523 . S
H2947 C2922 0.950 . S
H2948 C2924 0.950 . S
H2949 C2925 0.949 . S
H2950 C2927 0.950 . S
H2951 C2929 0.950 . S
C2952 C2953 1.349 . S
C2952 C2954 1.327 . S
C2952 H2977 0.950 . S
C2953 C2952 1.349 . S
C2953 C2969 1.349 . S
C2954 C2952 1.327 . S
C2954 C2973 1.429 . S
C2954 H2978 0.950 . S
C2955 C2972 1.574 . S
C2955 C2974 1.368 . S
C2955 H2979 0.949 . S
H2956 C2960 0.949 . S
C2957 C2958 1.349 . S
C2957 C2959 1.327 . S
C2957 H2980 0.950 . S
C2958 C2957 1.349 . S
C2958 C2970 1.349 . S
C2959 C2957 1.327 . S
C2959 C2975 1.429 . S
C2959 H2981 0.950 . S
C2960 H2956 0.949 . S
C2960 C2968 1.574 . S
C2960 C2976 1.368 . S
H2961 C2969 0.950 . S
H2962 C2967 0.950 . S
H2963 C2968 0.949 . S
H2964 C2970 0.950 . S
H2965 C2971 0.950 . S
H2966 C2972 0.949 . S
C2967 H2962 0.950 . S
C2967 C2969 1.327 . S
C2967 C2973 1.429 . S
C2968 C2960 1.574 . S
C2968 H2963 0.949 . S
C2968 C2974 1.368 . S
C2969 C2953 1.349 . S
C2969 H2961 0.950 . S
C2969 C2967 1.327 . S
C2970 C2958 1.349 . S
C2970 H2964 0.950 . S
C2970 C2971 1.327 . S
C2971 H2965 0.950 . S
C2971 C2970 1.327 . S
C2971 C2975 1.429 . S
C2972 C2955 1.574 . S
C2972 H2966 0.949 . S
C2972 C2976 1.368 . S
C2973 C2954 1.429 . S
C2973 C2967 1.429 . S
C2973 C2974 1.523 . S
C2974 C2955 1.368 . S
C2974 C2968 1.368 . S
C2974 C2973 1.523 . S
C2975 C2959 1.429 . S
C2975 C2971 1.429 . S
C2975 C2976 1.523 . S
C2976 C2960 1.368 . S
C2976 C2972 1.368 . S
C2976 C2975 1.523 . S
H2977 C2952 0.950 . S
H2978 C2954 0.950 . S
H2979 C2955 0.949 . S
H2980 C2957 0.950 . S
H2981 C2959 0.950 . S
C2982 C2983 1.382 . S
C2982 C2984 1.330 . S
C2982 H3007 0.917 1_455 S
C2983 C2982 1.382 . S
C2983 C2999 1.349 . S
C2984 C2982 1.330 . S
C2984 C3003 1.428 . S
C2984 H3008 0.950 1_455 S
C2985 C3002 1.574 . S
C2985 C3004 1.368 . S
C2985 H3009 0.949 . S
H2986 C2990 0.949 . S
C2987 C2988 1.349 . S
C2987 C2989 1.327 . S
C2987 H3010 0.950 . S
C2988 C2987 1.349 . S
C2988 C3000 1.349 1_455 S
C2989 C2987 1.327 . S
C2989 C3005 1.429 . S
C2989 H3011 0.950 . S
C2990 H2986 0.949 . S
C2990 C2998 1.574 . S
C2990 C3006 1.368 1_655 S
H2991 C2999 0.950 . S
H2992 C2997 0.950 . S
H2993 C2998 0.949 . S
H2994 C3000 0.950 . S
H2995 C3001 0.950 . S
H2996 C3002 0.949 . S
C2997 H2992 0.950 . S
C2997 C2999 1.327 . S
C2997 C3003 1.429 . S
C2998 C2990 1.574 . S
C2998 H2993 0.949 . S
C2998 C3004 1.368 1_655 S
C2999 C2983 1.349 . S
C2999 H2991 0.950 . S
C2999 C2997 1.327 . S
C3000 C2988 1.349 1_655 S
C3000 H2994 0.950 . S
C3000 C3001 1.327 . S
C3001 H2995 0.950 . S
C3001 C3000 1.327 . S
C3001 C3005 1.429 1_655 S
C3002 C2985 1.574 . S
C3002 H2996 0.949 . S
C3002 C3006 1.368 . S
C3003 C2984 1.428 . S
C3003 C2997 1.429 . S
C3003 C3004 1.523 . S
C3004 C2985 1.368 . S
C3004 C2998 1.368 1_455 S
C3004 C3003 1.523 . S
C3005 C2989 1.429 . S
C3005 C3001 1.429 1_455 S
C3005 C3006 1.523 . S
C3006 C2990 1.368 1_455 S
C3006 C3002 1.368 . S
C3006 C3005 1.523 . S
H3007 C2982 0.917 1_655 S
H3008 C2984 0.950 1_655 S
H3009 C2985 0.949 . S
H3010 C2987 0.950 . S
H3011 C2989 0.950 . S
C3012 C3013 1.349 . S
C3012 C3014 1.327 . S
C3012 H3037 0.950 . S
C3013 C3012 1.349 . S
C3013 C3029 1.349 . S
C3014 C3012 1.327 . S
C3014 C3033 1.429 . S
C3014 H3038 0.950 . S
C3015 C3032 1.574 . S
C3015 C3034 1.368 . S
C3015 H3039 0.949 . S
H3016 C3020 0.949 . S
C3017 C3018 1.349 . S
C3017 C3019 1.327 . S
C3017 H3040 0.950 . S
C3018 C3017 1.349 . S
C3018 C3030 1.349 . S
C3019 C3017 1.327 . S
C3019 C3035 1.429 . S
C3019 H3041 0.950 . S
C3020 H3016 0.949 . S
C3020 C3028 1.574 . S
C3020 C3036 1.368 . S
H3021 C3029 0.950 . S
H3022 C3027 0.950 . S
H3023 C3028 0.949 . S
H3024 C3030 0.950 . S
H3025 C3031 0.950 . S
H3026 C3032 0.949 . S
C3027 H3022 0.950 . S
C3027 C3029 1.327 . S
C3027 C3033 1.429 . S
C3028 C3020 1.574 . S
C3028 H3023 0.949 . S
C3028 C3034 1.368 . S
C3029 C3013 1.349 . S
C3029 H3021 0.950 . S
C3029 C3027 1.327 . S
C3030 C3018 1.349 . S
C3030 H3024 0.950 . S
C3030 C3031 1.327 . S
C3031 H3025 0.950 . S
C3031 C3030 1.327 . S
C3031 C3035 1.429 . S
C3032 C3015 1.574 . S
C3032 H3026 0.949 . S
C3032 C3036 1.368 . S
C3033 C3014 1.429 . S
C3033 C3027 1.429 . S
C3033 C3034 1.523 . S
C3034 C3015 1.368 . S
C3034 C3028 1.368 . S
C3034 C3033 1.523 . S
C3035 C3019 1.429 . S
C3035 C3031 1.429 . S
C3035 C3036 1.523 . S
C3036 C3020 1.368 . S
C3036 C3032 1.368 . S
C3036 C3035 1.523 . S
H3037 C3012 0.950 . S
H3038 C3014 0.950 . S
H3039 C3015 0.949 . S
H3040 C3017 0.950 . S
H3041 C3019 0.950 . S
C3042 C3043 1.400 . S
C3042 C3044 1.327 . S
C3042 H3067 0.950 . S
C3043 C3042 1.400 . S
C3043 C3059 1.310 1_655 S
C3044 C3042 1.327 . S
C3044 C3063 1.429 . S
C3044 H3068 0.950 . S
C3045 C3062 1.574 . S
C3045 C3064 1.368 1_455 S
C3045 H3069 0.949 . S
H3046 C3050 0.949 . S
C3047 C3048 1.349 1_455 S
C3047 C3049 1.327 . S
C3047 H3070 0.950 . S
C3048 C3047 1.349 1_655 S
C3048 C3060 1.349 . S
C3049 C3047 1.327 . S
C3049 C3065 1.429 1_455 S
C3049 H3071 0.950 . S
C3050 H3046 0.949 . S
C3050 C3058 1.574 . S
C3050 C3066 1.368 . S
H3051 C3059 0.950 . S
H3052 C3057 0.950 . S
H3053 C3058 0.949 . S
H3054 C3060 0.950 . S
H3055 C3061 0.950 . S
H3056 C3062 0.949 . S
C3057 H3052 0.950 . S
C3057 C3059 1.327 . S
C3057 C3063 1.429 1_455 S
C3058 C3050 1.574 . S
C3058 H3053 0.949 . S
C3058 C3064 1.368 . S
C3059 C3043 1.310 1_455 S
C3059 H3051 0.950 . S
C3059 C3057 1.327 . S
C3060 C3048 1.349 . S
C3060 H3054 0.950 . S
C3060 C3061 1.327 . S
C3061 H3055 0.950 . S
C3061 C3060 1.327 . S
C3061 C3065 1.429 . S
C3062 C3045 1.574 . S
C3062 H3056 0.949 . S
C3062 C3066 1.368 1_455 S
C3063 C3044 1.429 . S
C3063 C3057 1.429 1_655 S
C3063 C3064 1.523 . S
C3064 C3045 1.368 1_655 S
C3064 C3058 1.368 . S
C3064 C3063 1.523 . S
C3065 C3049 1.429 1_655 S
C3065 C3061 1.429 . S
C3065 C3066 1.523 . S
C3066 C3050 1.368 . S
C3066 C3062 1.368 1_655 S
C3066 C3065 1.523 . S
H3067 C3042 0.950 . S
H3068 C3044 0.950 . S
H3069 C3045 0.949 . S
H3070 C3047 0.950 . S
H3071 C3049 0.950 . S
C3072 C3073 1.349 . S
C3072 C3074 1.327 . S
C3072 H3097 0.950 . S
C3073 C3072 1.349 . S
C3073 C3089 1.349 . S
C3074 C3072 1.327 . S
C3074 C3093 1.429 . S
C3074 H3098 0.950 . S
C3075 C3092 1.574 . S
C3075 C3094 1.368 . S
C3075 H3099 0.949 . S
H3076 C3080 0.949 . S
C3077 C3078 1.349 . S
C3077 C3079 1.327 . S
C3077 H3100 0.950 . S
C3078 C3077 1.349 . S
C3078 C3090 1.349 . S
C3079 C3077 1.327 . S
C3079 C3095 1.429 . S
C3079 H3101 0.950 . S
C3080 H3076 0.949 . S
C3080 C3088 1.574 . S
C3080 C3096 1.368 . S
H3081 C3089 0.950 . S
H3082 C3087 0.950 . S
H3083 C3088 0.949 . S
H3084 C3090 0.950 . S
H3085 C3091 0.950 . S
H3086 C3092 0.949 . S
C3087 H3082 0.950 . S
C3087 C3089 1.327 . S
C3087 C3093 1.429 . S
C3088 C3080 1.574 . S
C3088 H3083 0.949 . S
C3088 C3094 1.368 . S
C3089 C3073 1.349 . S
C3089 H3081 0.950 . S
C3089 C3087 1.327 . S
C3090 C3078 1.349 . S
C3090 H3084 0.950 . S
C3090 C3091 1.327 . S
C3091 H3085 0.950 . S
C3091 C3090 1.327 . S
C3091 C3095 1.429 . S
C3092 C3075 1.574 . S
C3092 H3086 0.949 . S
C3092 C3096 1.368 . S
C3093 C3074 1.429 . S
C3093 C3087 1.429 . S
C3093 C3094 1.523 . S
C3094 C3075 1.368 . S
C3094 C3088 1.368 . S
C3094 C3093 1.523 . S
C3095 C3079 1.429 . S
C3095 C3091 1.429 . S
C3095 C3096 1.523 . S
C3096 C3080 1.368 . S
C3096 C3092 1.368 . S
C3096 C3095 1.523 . S
H3097 C3072 0.950 . S
H3098 C3074 0.950 . S
H3099 C3075 0.949 . S
H3100 C3077 0.950 . S
H3101 C3079 0.950 . S
C3102 C3103 1.349 . S
C3102 C3104 1.327 . S
C3102 H3127 0.950 . S
C3103 C3102 1.349 . S
C3103 C3119 1.349 . S
C3104 C3102 1.327 . S
C3104 C3123 1.429 . S
C3104 H3128 0.950 . S
C3105 C3122 1.574 . S
C3105 C3124 1.368 . S
C3105 H3129 0.949 . S
H3106 C3110 0.949 . S
C3107 C3108 1.349 . S
C3107 C3109 1.327 . S
C3107 H3130 0.950 . S
C3108 C3107 1.349 . S
C3108 C3120 1.349 . S
C3109 C3107 1.327 . S
C3109 C3125 1.429 . S
C3109 H3131 0.950 . S
C3110 H3106 0.949 . S
C3110 C3118 1.574 . S
C3110 C3126 1.368 . S
H3111 C3119 0.950 . S
H3112 C3117 0.950 . S
H3113 C3118 0.949 . S
H3114 C3120 0.950 . S
H3115 C3121 0.950 . S
H3116 C3122 0.949 . S
C3117 H3112 0.950 . S
C3117 C3119 1.327 . S
C3117 C3123 1.429 . S
C3118 C3110 1.574 . S
C3118 H3113 0.949 . S
C3118 C3124 1.368 . S
C3119 C3103 1.349 . S
C3119 H3111 0.950 . S
C3119 C3117 1.327 . S
C3120 C3108 1.349 . S
C3120 H3114 0.950 . S
C3120 C3121 1.327 . S
C3121 H3115 0.950 . S
C3121 C3120 1.327 . S
C3121 C3125 1.429 . S
C3122 C3105 1.574 . S
C3122 H3116 0.949 . S
C3122 C3126 1.368 . S
C3123 C3104 1.429 . S
C3123 C3117 1.429 . S
C3123 C3124 1.523 . S
C3124 C3105 1.368 . S
C3124 C3118 1.368 . S
C3124 C3123 1.523 . S
C3125 C3109 1.429 . S
C3125 C3121 1.429 . S
C3125 C3126 1.523 . S
C3126 C3110 1.368 . S
C3126 C3122 1.368 . S
C3126 C3125 1.523 . S
H3127 C3102 0.950 . S
H3128 C3104 0.950 . S
H3129 C3105 0.949 . S
H3130 C3107 0.950 . S
H3131 C3109 0.950 . S
C3132 C3133 1.315 1_565 S
C3132 C3134 1.327 . S
C3132 H3157 0.950 . S
C3133 C3132 1.315 1_545 S
C3133 C3149 1.396 . S
C3134 C3132 1.327 . S
C3134 C3153 1.429 1_565 S
C3134 H3158 0.950 . S
C3135 C3152 1.574 . S
C3135 C3154 1.368 . S
C3135 H3159 0.949 . S
H3136 C3140 0.949 . S
C3137 C3138 1.349 . S
C3137 C3139 1.327 . S
C3137 H3160 0.950 . S
C3138 C3137 1.349 . S
C3138 C3150 1.353 1_545 S
C3139 C3137 1.327 . S
C3139 C3155 1.429 . S
C3139 H3161 0.950 . S
C3140 H3136 0.949 . S
C3140 C3148 1.574 . S
C3140 C3156 1.368 1_565 S
H3141 C3149 0.950 . S
H3142 C3147 0.950 . S
H3143 C3148 0.949 . S
H3144 C3150 0.946 . S
H3145 C3151 0.950 . S
H3146 C3152 0.949 . S
C3147 H3142 0.950 . S
C3147 C3149 1.327 . S
C3147 C3153 1.429 . S
C3148 C3140 1.574 . S
C3148 H3143 0.949 . S
C3148 C3154 1.368 1_565 S
C3149 C3133 1.396 . S
C3149 H3141 0.950 . S
C3149 C3147 1.327 . S
C3150 C3138 1.353 1_565 S
C3150 H3144 0.946 . S
C3150 C3151 1.326 . S
C3151 H3145 0.950 . S
C3151 C3150 1.326 . S
C3151 C3155 1.429 1_565 S
C3152 C3135 1.574 . S
C3152 H3146 0.949 . S
C3152 C3156 1.368 . S
C3153 C3134 1.429 1_545 S
C3153 C3147 1.429 . S
C3153 C3154 1.523 . S
C3154 C3135 1.368 . S
C3154 C3148 1.368 1_545 S
C3154 C3153 1.523 . S
C3155 C3139 1.429 . S
C3155 C3151 1.429 1_545 S
C3155 C3156 1.523 . S
C3156 C3140 1.368 1_545 S
C3156 C3152 1.368 . S
C3156 C3155 1.523 . S
H3157 C3132 0.950 . S
H3158 C3134 0.950 . S
H3159 C3135 0.949 . S
H3160 C3137 0.950 . S
H3161 C3139 0.950 . S
C3162 C3163 1.349 1_545 S
C3162 C3164 1.327 . S
C3162 H3187 0.950 . S
C3163 C3162 1.349 1_565 S
C3163 C3179 1.349 . S
C3164 C3162 1.327 . S
C3164 C3183 1.429 1_545 S
C3164 H3188 0.950 . S
C3165 C3182 1.574 . S
C3165 C3184 1.368 . S
C3165 H3189 0.949 . S
H3166 C3170 0.949 . S
C3167 C3168 1.349 . S
C3167 C3169 1.327 . S
C3167 H3190 0.950 . S
C3168 C3167 1.349 . S
C3168 C3180 1.349 1_565 S
C3169 C3167 1.327 . S
C3169 C3185 1.429 . S
C3169 H3191 0.950 . S
C3170 H3166 0.949 . S
C3170 C3178 1.574 . S
C3170 C3186 1.368 1_545 S
H3171 C3179 0.950 . S
H3172 C3177 0.950 . S
H3173 C3178 0.949 . S
H3174 C3180 0.950 . S
H3175 C3181 0.950 . S
H3176 C3182 0.949 . S
C3177 H3172 0.950 . S
C3177 C3179 1.327 . S
C3177 C3183 1.429 . S
C3178 C3170 1.574 . S
C3178 H3173 0.949 . S
C3178 C3184 1.368 1_545 S
C3179 C3163 1.349 . S
C3179 H3171 0.950 . S
C3179 C3177 1.327 . S
C3180 C3168 1.349 1_545 S
C3180 H3174 0.950 . S
C3180 C3181 1.327 . S
C3181 H3175 0.950 . S
C3181 C3180 1.327 . S
C3181 C3185 1.429 1_545 S
C3182 C3165 1.574 . S
C3182 H3176 0.949 . S
C3182 C3186 1.368 . S
C3183 C3164 1.429 1_565 S
C3183 C3177 1.429 . S
C3183 C3184 1.523 . S
C3184 C3165 1.368 . S
C3184 C3178 1.368 1_565 S
C3184 C3183 1.523 . S
C3185 C3169 1.429 . S
C3185 C3181 1.429 1_565 S
C3185 C3186 1.523 . S
C3186 C3170 1.368 1_565 S
C3186 C3182 1.368 . S
C3186 C3185 1.523 . S
H3187 C3162 0.950 . S
H3188 C3164 0.950 . S
H3189 C3165 0.949 . S
H3190 C3167 0.950 . S
H3191 C3169 0.950 . S
C3192 C3193 1.349 . S
C3192 C3194 1.327 . S
C3192 H3217 0.950 . S
C3193 C3192 1.349 . S
C3193 C3209 1.349 . S
C3194 C3192 1.327 . S
C3194 C3213 1.429 . S
C3194 H3218 0.950 . S
C3195 C3212 1.574 . S
C3195 C3214 1.368 . S
C3195 H3219 0.949 . S
H3196 C3200 0.949 . S
C3197 C3198 1.349 . S
C3197 C3199 1.327 . S
C3197 H3220 0.950 . S
C3198 C3197 1.349 . S
C3198 C3210 1.349 . S
C3199 C3197 1.327 . S
C3199 C3215 1.429 . S
C3199 H3221 0.950 . S
C3200 H3196 0.949 . S
C3200 C3208 1.574 . S
C3200 C3216 1.368 . S
H3201 C3209 0.950 . S
H3202 C3207 0.950 . S
H3203 C3208 0.949 . S
H3204 C3210 0.950 . S
H3205 C3211 0.950 . S
H3206 C3212 0.949 . S
C3207 H3202 0.950 . S
C3207 C3209 1.327 . S
C3207 C3213 1.429 . S
C3208 C3200 1.574 . S
C3208 H3203 0.949 . S
C3208 C3214 1.368 . S
C3209 C3193 1.349 . S
C3209 H3201 0.950 . S
C3209 C3207 1.327 . S
C3210 C3198 1.349 . S
C3210 H3204 0.950 . S
C3210 C3211 1.327 . S
C3211 H3205 0.950 . S
C3211 C3210 1.327 . S
C3211 C3215 1.429 . S
C3212 C3195 1.574 . S
C3212 H3206 0.949 . S
C3212 C3216 1.368 . S
C3213 C3194 1.429 . S
C3213 C3207 1.429 . S
C3213 C3214 1.523 . S
C3214 C3195 1.368 . S
C3214 C3208 1.368 . S
C3214 C3213 1.523 . S
C3215 C3199 1.429 . S
C3215 C3211 1.429 . S
C3215 C3216 1.523 . S
C3216 C3200 1.368 . S
C3216 C3212 1.368 . S
C3216 C3215 1.523 . S
H3217 C3192 0.950 . S
H3218 C3194 0.950 . S
H3219 C3195 0.949 . S
H3220 C3197 0.950 . S
H3221 C3199 0.950 . S
C3222 C3223 1.349 1_554 S
C3222 C3224 1.327 . S
C3222 H3247 0.950 . S
C3223 C3222 1.349 1_556 S
C3223 C3239 1.349 . S
C3224 C3222 1.327 . S
C3224 C3243 1.429 1_554 S
C3224 H3248 0.950 . S
C3225 C3242 1.574 . S
C3225 C3244 1.368 . S
C3225 H3249 0.949 . S
H3226 C3230 0.949 . S
C3227 C3228 1.349 . S
C3227 C3229 1.327 . S
C3227 H3250 0.950 . S
C3228 C3227 1.349 . S
C3228 C3240 1.349 1_556 S
C3229 C3227 1.327 . S
C3229 C3245 1.429 . S
C3229 H3251 0.950 . S
C3230 H3226 0.949 . S
C3230 C3238 1.574 . S
C3230 C3246 1.368 1_554 S
H3231 C3239 0.950 . S
H3232 C3237 0.950 . S
H3233 C3238 0.949 . S
H3234 C3240 0.950 . S
H3235 C3241 0.950 . S
H3236 C3242 0.949 . S
C3237 H3232 0.950 . S
C3237 C3239 1.327 . S
C3237 C3243 1.429 . S
C3238 C3230 1.574 . S
C3238 H3233 0.949 . S
C3238 C3244 1.368 1_554 S
C3239 C3223 1.349 . S
C3239 H3231 0.950 . S
C3239 C3237 1.327 . S
C3240 C3228 1.349 1_554 S
C3240 H3234 0.950 . S
C3240 C3241 1.327 . S
C3241 H3235 0.950 . S
C3241 C3240 1.327 . S
C3241 C3245 1.429 1_554 S
C3242 C3225 1.574 . S
C3242 H3236 0.949 . S
C3242 C3246 1.368 . S
C3243 C3224 1.429 1_556 S
C3243 C3237 1.429 . S
C3243 C3244 1.523 . S
C3244 C3225 1.368 . S
C3244 C3238 1.368 1_556 S
C3244 C3243 1.523 . S
C3245 C3229 1.429 . S
C3245 C3241 1.429 1_556 S
C3245 C3246 1.523 . S
C3246 C3230 1.368 1_556 S
C3246 C3242 1.368 . S
C3246 C3245 1.523 . S
H3247 C3222 0.950 . S
H3248 C3224 0.950 . S
H3249 C3225 0.949 . S
H3250 C3227 0.950 . S
H3251 C3229 0.950 . S
C3252 C3253 1.349 . S
C3252 C3254 1.327 . S
C3252 H3277 0.950 . S
C3253 C3252 1.349 . S
C3253 C3269 1.349 . S
C3254 C3252 1.327 . S
C3254 C3273 1.429 . S
C3254 H3278 0.950 . S
C3255 C3272 1.574 . S
C3255 C3274 1.368 . S
C3255 H3279 0.949 . S
H3256 C3260 0.949 . S
C3257 C3258 1.349 . S
C3257 C3259 1.327 . S
C3257 H3280 0.950 . S
C3258 C3257 1.349 . S
C3258 C3270 1.349 . S
C3259 C3257 1.327 . S
C3259 C3275 1.429 . S
C3259 H3281 0.950 . S
C3260 H3256 0.949 . S
C3260 C3268 1.574 . S
C3260 C3276 1.368 . S
H3261 C3269 0.950 . S
H3262 C3267 0.950 . S
H3263 C3268 0.949 . S
H3264 C3270 0.950 . S
H3265 C3271 0.950 . S
H3266 C3272 0.949 . S
C3267 H3262 0.950 . S
C3267 C3269 1.327 . S
C3267 C3273 1.429 . S
C3268 C3260 1.574 . S
C3268 H3263 0.949 . S
C3268 C3274 1.368 . S
C3269 C3253 1.349 . S
C3269 H3261 0.950 . S
C3269 C3267 1.327 . S
C3270 C3258 1.349 . S
C3270 H3264 0.950 . S
C3270 C3271 1.327 . S
C3271 H3265 0.950 . S
C3271 C3270 1.327 . S
C3271 C3275 1.429 . S
C3272 C3255 1.574 . S
C3272 H3266 0.949 . S
C3272 C3276 1.368 . S
C3273 C3254 1.429 . S
C3273 C3267 1.429 . S
C3273 C3274 1.523 . S
C3274 C3255 1.368 . S
C3274 C3268 1.368 . S
C3274 C3273 1.523 . S
C3275 C3259 1.429 . S
C3275 C3271 1.429 . S
C3275 C3276 1.523 . S
C3276 C3260 1.368 . S
C3276 C3272 1.368 . S
C3276 C3275 1.523 . S
H3277 C3252 0.950 . S
H3278 C3254 0.950 . S
H3279 C3255 0.949 . S
H3280 C3257 0.950 . S
H3281 C3259 0.950 . S
C3282 C3283 1.353 . S
C3282 C3284 1.327 . S
C3282 H3307 0.958 . S
C3283 C3282 1.353 . S
C3283 C3299 1.359 . S
C3284 C3282 1.327 . S
C3284 C3303 1.429 . S
C3284 H3308 0.950 . S
C3285 C3302 1.574 . S
C3285 C3304 1.368 . S
C3285 H3309 0.949 . S
H3286 C3290 0.949 . S
C3287 C3288 1.349 . S
C3287 C3289 1.327 . S
C3287 H3310 0.950 . S
C3288 C3287 1.349 . S
C3288 C3300 1.349 . S
C3289 C3287 1.327 . S
C3289 C3305 1.429 . S
C3289 H3311 0.950 . S
C3290 H3286 0.949 . S
C3290 C3298 1.574 . S
C3290 C3306 1.368 . S
H3291 C3299 0.950 . S
H3292 C3297 0.950 . S
H3293 C3298 0.949 . S
H3294 C3300 0.950 . S
H3295 C3301 0.950 . S
H3296 C3302 0.949 . S
C3297 H3292 0.950 . S
C3297 C3299 1.327 . S
C3297 C3303 1.429 . S
C3298 C3290 1.574 . S
C3298 H3293 0.949 . S
C3298 C3304 1.368 . S
C3299 C3283 1.359 . S
C3299 H3291 0.950 . S
C3299 C3297 1.327 . S
C3300 C3288 1.349 . S
C3300 H3294 0.950 . S
C3300 C3301 1.327 . S
C3301 H3295 0.950 . S
C3301 C3300 1.327 . S
C3301 C3305 1.429 . S
C3302 C3285 1.574 . S
C3302 H3296 0.949 . S
C3302 C3306 1.368 . S
C3303 C3284 1.429 . S
C3303 C3297 1.429 . S
C3303 C3304 1.523 . S
C3304 C3285 1.368 . S
C3304 C3298 1.368 . S
C3304 C3303 1.523 . S
C3305 C3289 1.429 . S
C3305 C3301 1.429 . S
C3305 C3306 1.523 . S
C3306 C3290 1.368 . S
C3306 C3302 1.368 . S
C3306 C3305 1.523 . S
H3307 C3282 0.958 . S
H3308 C3284 0.950 . S
H3309 C3285 0.949 . S
H3310 C3287 0.950 . S
H3311 C3289 0.950 . S
C3312 C3313 1.349 . S
C3312 C3314 1.327 . S
C3312 H3337 0.950 . S
C3313 C3312 1.349 . S
C3313 C3329 1.349 . S
C3314 C3312 1.327 . S
C3314 C3333 1.429 . S
C3314 H3338 0.950 . S
C3315 C3332 1.574 . S
C3315 C3334 1.368 . S
C3315 H3339 0.949 . S
H3316 C3320 0.949 . S
C3317 C3318 1.349 . S
C3317 C3319 1.327 . S
C3317 H3340 0.950 . S
C3318 C3317 1.349 . S
C3318 C3330 1.349 . S
C3319 C3317 1.327 . S
C3319 C3335 1.429 . S
C3319 H3341 0.950 . S
C3320 H3316 0.949 . S
C3320 C3328 1.574 . S
C3320 C3336 1.368 . S
H3321 C3329 0.950 . S
H3322 C3327 0.950 . S
H3323 C3328 0.949 . S
H3324 C3330 0.950 . S
H3325 C3331 0.950 . S
H3326 C3332 0.949 . S
C3327 H3322 0.950 . S
C3327 C3329 1.327 . S
C3327 C3333 1.429 . S
C3328 C3320 1.574 . S
C3328 H3323 0.949 . S
C3328 C3334 1.368 . S
C3329 C3313 1.349 . S
C3329 H3321 0.950 . S
C3329 C3327 1.327 . S
C3330 C3318 1.349 . S
C3330 H3324 0.950 . S
C3330 C3331 1.327 . S
C3331 H3325 0.950 . S
C3331 C3330 1.327 . S
C3331 C3335 1.429 . S
C3332 C3315 1.574 . S
C3332 H3326 0.949 . S
C3332 C3336 1.368 . S
C3333 C3314 1.429 . S
C3333 C3327 1.429 . S
C3333 C3334 1.523 . S
C3334 C3315 1.368 . S
C3334 C3328 1.368 . S
C3334 C3333 1.523 . S
C3335 C3319 1.429 . S
C3335 C3331 1.429 . S
C3335 C3336 1.523 . S
C3336 C3320 1.368 . S
C3336 C3332 1.368 . S
C3336 C3335 1.523 . S
H3337 C3312 0.950 . S
H3338 C3314 0.950 . S
H3339 C3315 0.949 . S
H3340 C3317 0.950 . S
H3341 C3319 0.950 . S
C3342 C3343 1.349 . S
C3342 C3344 1.327 . S
C3342 H3367 0.950 1_655 S
C3343 C3342 1.349 . S
C3343 C3359 1.349 . S
C3344 C3342 1.327 . S
C3344 C3363 1.429 . S
C3344 H3368 0.950 1_655 S
C3345 C3362 1.574 . S
C3345 C3364 1.368 . S
C3345 H3369 0.949 . S
H3346 C3350 0.942 1_455 S
C3347 C3348 1.349 . S
C3347 C3349 1.327 . S
C3347 H3370 0.950 . S
C3348 C3347 1.349 . S
C3348 C3360 1.321 1_655 S
C3349 C3347 1.327 . S
C3349 C3365 1.429 . S
C3349 H3371 0.950 . S
C3350 H3346 0.942 1_655 S
C3350 C3358 1.577 . S
C3350 C3366 1.377 . S
H3351 C3359 0.950 . S
H3352 C3357 0.950 . S
H3353 C3358 0.916 1_455 S
H3354 C3360 0.977 . S
H3355 C3361 0.964 . S
H3356 C3362 0.949 . S
C3357 H3352 0.950 . S
C3357 C3359 1.327 . S
C3357 C3363 1.429 . S
C3358 C3350 1.577 . S
C3358 H3353 0.916 1_655 S
C3358 C3364 1.405 . S
C3359 C3343 1.349 . S
C3359 H3351 0.950 . S
C3359 C3357 1.327 . S
C3360 C3348 1.321 1_455 S
C3360 H3354 0.977 . S
C3360 C3361 1.329 . S
C3361 H3355 0.964 . S
C3361 C3360 1.329 . S
C3361 C3365 1.416 1_455 S
C3362 C3345 1.574 . S
C3362 H3356 0.949 . S
C3362 C3366 1.368 . S
C3363 C3344 1.429 . S
C3363 C3357 1.429 . S
C3363 C3364 1.523 . S
C3364 C3345 1.368 . S
C3364 C3358 1.405 . S
C3364 C3363 1.523 . S
C3365 C3349 1.429 . S
C3365 C3361 1.416 1_655 S
C3365 C3366 1.523 . S
C3366 C3350 1.377 . S
C3366 C3362 1.368 . S
C3366 C3365 1.523 . S
H3367 C3342 0.950 1_455 S
H3368 C3344 0.950 1_455 S
H3369 C3345 0.949 . S
H3370 C3347 0.950 . S
H3371 C3349 0.950 . S
C3372 C3373 1.349 . S
C3372 C3374 1.327 . S
C3372 H3397 0.950 . S
C3373 C3372 1.349 . S
C3373 C3389 1.349 . S
C3374 C3372 1.327 . S
C3374 C3393 1.429 . S
C3374 H3398 0.950 . S
C3375 C3392 1.574 . S
C3375 C3394 1.368 . S
C3375 H3399 0.949 . S
H3376 C3380 0.949 . S
C3377 C3378 1.349 . S
C3377 C3379 1.327 . S
C3377 H3400 0.950 . S
C3378 C3377 1.349 . S
C3378 C3390 1.349 . S
C3379 C3377 1.327 . S
C3379 C3395 1.429 . S
C3379 H3401 0.950 . S
C3380 H3376 0.949 . S
C3380 C3388 1.574 . S
C3380 C3396 1.368 . S
H3381 C3389 0.950 . S
H3382 C3387 0.950 . S
H3383 C3388 0.949 . S
H3384 C3390 0.950 . S
H3385 C3391 0.950 . S
H3386 C3392 0.949 . S
C3387 H3382 0.950 . S
C3387 C3389 1.327 . S
C3387 C3393 1.429 . S
C3388 C3380 1.574 . S
C3388 H3383 0.949 . S
C3388 C3394 1.368 . S
C3389 C3373 1.349 . S
C3389 H3381 0.950 . S
C3389 C3387 1.327 . S
C3390 C3378 1.349 . S
C3390 H3384 0.950 . S
C3390 C3391 1.327 . S
C3391 H3385 0.950 . S
C3391 C3390 1.327 . S
C3391 C3395 1.429 . S
C3392 C3375 1.574 . S
C3392 H3386 0.949 . S
C3392 C3396 1.368 . S
C3393 C3374 1.429 . S
C3393 C3387 1.429 . S
C3393 C3394 1.523 . S
C3394 C3375 1.368 . S
C3394 C3388 1.368 . S
C3394 C3393 1.523 . S
C3395 C3379 1.429 . S
C3395 C3391 1.429 . S
C3395 C3396 1.523 . S
C3396 C3380 1.368 . S
C3396 C3392 1.368 . S
C3396 C3395 1.523 . S
H3397 C3372 0.950 . S
H3398 C3374 0.950 . S
H3399 C3375 0.949 . S
H3400 C3377 0.950 . S
H3401 C3379 0.950 . S
C3402 C3403 1.311 1_655 S
C3402 C3404 1.327 . S
C3402 H3427 0.950 . S
C3403 C3402 1.311 1_455 S
C3403 C3419 1.399 . S
C3404 C3402 1.327 . S
C3404 C3423 1.429 1_655 S
C3404 H3428 0.950 . S
C3405 C3422 1.574 . S
C3405 C3424 1.368 . S
C3405 H3429 0.949 . S
H3406 C3410 0.949 . S
C3407 C3408 1.349 . S
C3407 C3409 1.327 . S
C3407 H3430 0.950 . S
C3408 C3407 1.349 . S
C3408 C3420 1.282 1_455 S
C3409 C3407 1.327 . S
C3409 C3425 1.429 . S
C3409 H3431 0.950 . S
C3410 H3406 0.949 . S
C3410 C3418 1.574 . S
C3410 C3426 1.368 1_655 S
H3411 C3419 0.950 . S
H3412 C3417 0.950 . S
H3413 C3418 0.949 . S
H3414 C3420 1.001 . S
H3415 C3421 0.950 . S
H3416 C3422 0.949 . S
C3417 H3412 0.950 . S
C3417 C3419 1.327 . S
C3417 C3423 1.429 . S
C3418 C3410 1.574 . S
C3418 H3413 0.949 . S
C3418 C3424 1.368 1_655 S
C3419 C3403 1.399 . S
C3419 H3411 0.950 . S
C3419 C3417 1.327 . S
C3420 C3408 1.282 1_655 S
C3420 H3414 1.001 . S
C3420 C3421 1.347 . S
C3421 H3415 0.950 . S
C3421 C3420 1.347 . S
C3421 C3425 1.429 1_655 S
C3422 C3405 1.574 . S
C3422 H3416 0.949 . S
C3422 C3426 1.368 . S
C3423 C3404 1.429 1_455 S
C3423 C3417 1.429 . S
C3423 C3424 1.523 . S
C3424 C3405 1.368 . S
C3424 C3418 1.368 1_455 S
C3424 C3423 1.523 . S
C3425 C3409 1.429 . S
C3425 C3421 1.429 1_455 S
C3425 C3426 1.523 . S
C3426 C3410 1.368 1_455 S
C3426 C3422 1.368 . S
C3426 C3425 1.523 . S
H3427 C3402 0.950 . S
H3428 C3404 0.950 . S
H3429 C3405 0.949 . S
H3430 C3407 0.950 . S
H3431 C3409 0.950 . S
C1278 C1267 1.810 . S
C1273 C15 1.879 . S
C1308 C1228 1.364 . S
C1303 C55 1.337 . S
C1338 C1254 0.659 . S
C1333 C95 0.608 1_545 S
C1368 C1241 1.412 . S
C1363 C135 1.429 . S
C1398 C1150 1.810 . S
C1393 C175 1.879 . S
C1423 C215 1.429 . S
C1428 C1163 1.412 . S
C1458 C1124 1.364 . S
C1453 C255 1.337 . S
C1483 C295 0.608 1_554 S
C1488 C1137 0.659 . S
C1518 C1215 1.810 . S
C1513 C335 1.879 . S
C1543 C375 1.429 . S
C1548 C1189 1.412 . S
C1573 C415 1.337 . S
C1578 C1176 1.364 . S
C1608 C1202 0.659 . S
C1603 C455 0.608 1_455 S
C1638 C1111 1.807 . S
C1633 C495 1.877 . S
C1663 C535 1.330 . S
C1668 C1072 1.364 . S
C1698 C1098 0.659 . S
C1693 C575 0.609 . S
C1723 C615 1.429 . S
C1728 C1085 1.405 . S
C1758 C994 1.807 . S
C1753 C655 1.877 . S
C1788 C1007 1.405 . S
C1783 C695 1.428 . S
C1813 C735 1.330 . S
C1818 C968 1.364 . S
C1843 C775 0.609 . S
C1848 C981 0.659 . S
C1873 C815 1.869 . S
C1878 C1059 1.815 . S
C1903 C855 1.428 . S
C1908 C1033 1.405 . S
C1938 C1020 1.364 . S
C1933 C895 1.330 . S
C1963 C935 0.609 . S
C1968 C1046 0.659 . S
C1998 C969 1.669 . S
C1993 C21 1.704 . S
C2028 C982 1.576 . S
C2023 C61 1.636 . S
C2053 C101 0.636 1_545 S
C2058 C995 0.635 . S
C2083 C141 0.768 . S
C2088 C1008 0.761 . S
C2118 C1021 1.669 . S
C2113 C181 1.704 . S
C2143 C221 0.768 . S
C2148 C1034 0.761 . S
C2178 C1047 1.576 . S
C2173 C261 1.636 . S
C2208 C1060 0.634 . S
C2203 C301 0.636 1_554 S
C2238 C1073 1.669 . S
C2233 C341 1.704 . S
C2263 C381 0.768 . S
C2268 C1086 0.761 . S
C2293 C421 1.640 . S
C2298 C1099 1.572 . S
C2323 C461 0.636 1_455 S
C2328 C1112 0.635 . S
C2353 C501 1.670 . S
C2358 C1125 1.669 . S
C2383 C541 1.527 . S
C2388 C1138 1.574 . S
C2413 C581 0.636 . S
C2418 C1151 0.634 . S
C2443 C621 0.767 . S
C2448 C1164 0.761 . S
C2473 C661 1.670 . S
C2478 C1177 1.669 . S
C2508 C1190 0.768 . S
C2503 C701 0.760 . S
C2538 C1203 1.578 . S
C2533 C741 1.521 . S
C2568 C1216 0.634 . S
C2563 C781 0.636 . S
C2598 C1229 1.669 . S
C2593 C821 1.671 . S
C2623 C861 0.767 . S
C2628 C1242 0.761 . S
C2653 C901 1.527 . S
C2658 C1255 1.574 . S
C2683 C941 0.636 . S
C2688 C1268 0.634 . S
C2713 C2 1.673 . S
C2718 C1068 1.582 . S
C2748 C1107 1.604 . S
C2743 C42 1.768 . S
C2773 C82 1.499 . S
C2778 C1081 1.339 . S
C2808 C1094 1.436 . S
C2803 C122 1.464 . S
C2833 C162 1.673 . S
C2838 C964 1.582 . S
C2863 C202 1.464 . S
C2868 C977 1.436 . S
C2893 C242 1.775 . S
C2898 C990 1.597 . S
C2923 C282 1.499 . S
C2928 C1003 1.339 . S
C2958 C1016 1.582 . S
C2953 C322 1.673 . S
C2988 C1042 1.436 . S
C2983 C362 1.464 . S
C3013 C402 1.775 . S
C3018 C1055 1.597 . S
C3043 C442 1.499 . S
C3048 C1029 1.339 . S
C3078 C1224 1.568 . S
C3073 C482 1.653 . S
C3108 C1263 1.634 . S
C3103 C522 1.689 . S
C3133 C562 1.502 1_545 S
C3138 C1237 1.384 . S
C3168 C1250 1.420 . S
C3163 C602 1.455 . S
C3193 C642 1.653 . S
C3198 C1120 1.568 . S
C3223 C682 1.456 . S
C3228 C1133 1.420 . S
C3253 C722 1.697 . S
C3258 C1146 1.628 . S
C3288 C1159 1.384 . S
C3283 C762 1.502 1_554 S
C3318 C1172 1.568 . S
C3313 C802 1.653 . S
C3348 C1198 1.420 . S
C3343 C842 1.455 . S
C3373 C882 1.697 . S
C3378 C1211 1.628 . S
C3408 C1185 1.384 . S
C3403 C922 1.502 1_455 S
