# Generated by pormake.
# Topology zzz, (3,6)-cn, num edge types: 1
# Building blocks:
#     Node 0, Type 0, BuildingBlock: VETTIZ_charged_linker_0, # of connection points: 3
#     Node 1, Type 0, BuildingBlock: VETTIZ_charged_linker_0, # of connection points: 3
#     Node 2, Type 0, BuildingBlock: VETTIZ_charged_linker_0, # of connection points: 3
#     Node 3, Type 0, BuildingBlock: VETTIZ_charged_linker_0, # of connection points: 3
#     Node 4, Type 0, BuildingBlock: VETTIZ_charged_linker_0, # of connection points: 3
#     Node 5, Type 0, BuildingBlock: VETTIZ_charged_linker_0, # of connection points: 3
#     Node 6, Type 0, BuildingBlock: VETTIZ_charged_linker_0, # of connection points: 3
#     Node 7, Type 0, BuildingBlock: VETTIZ_charged_linker_0, # of connection points: 3
#     Node 8, Type 1, BuildingBlock: CUKXOW_clean_sbu_0, # of connection points: 6
#     Node 9, Type 1, BuildingBlock: CUKXOW_clean_sbu_0, # of connection points: 6
#     Node 10, Type 1, BuildingBlock: CUKXOW_clean_sbu_0, # of connection points: 6
#     Node 11, Type 1, BuildingBlock: CUKXOW_clean_sbu_0, # of connection points: 6
#     Edge 12, Type (0, 1), BuildingBlock: MIFKUJ_clean_linker_0, # of connection points: 2
#     Edge 13, Type (0, 1), BuildingBlock: MIFKUJ_clean_linker_0, # of connection points: 2
#     Edge 14, Type (0, 1), BuildingBlock: MIFKUJ_clean_linker_0, # of connection points: 2
#     Edge 15, Type (0, 1), BuildingBlock: MIFKUJ_clean_linker_0, # of connection points: 2
#     Edge 16, Type (0, 1), BuildingBlock: MIFKUJ_clean_linker_0, # of connection points: 2
#     Edge 17, Type (0, 1), BuildingBlock: MIFKUJ_clean_linker_0, # of connection points: 2
#     Edge 18, Type (0, 1), BuildingBlock: MIFKUJ_clean_linker_0, # of connection points: 2
#     Edge 19, Type (0, 1), BuildingBlock: MIFKUJ_clean_linker_0, # of connection points: 2
#     Edge 20, Type (0, 1), BuildingBlock: MIFKUJ_clean_linker_0, # of connection points: 2
#     Edge 21, Type (0, 1), BuildingBlock: MIFKUJ_clean_linker_0, # of connection points: 2
#     Edge 22, Type (0, 1), BuildingBlock: MIFKUJ_clean_linker_0, # of connection points: 2
#     Edge 23, Type (0, 1), BuildingBlock: MIFKUJ_clean_linker_0, # of connection points: 2
#     Edge 24, Type (0, 1), BuildingBlock: MIFKUJ_clean_linker_0, # of connection points: 2
#     Edge 25, Type (0, 1), BuildingBlock: MIFKUJ_clean_linker_0, # of connection points: 2
#     Edge 26, Type (0, 1), BuildingBlock: MIFKUJ_clean_linker_0, # of connection points: 2
#     Edge 27, Type (0, 1), BuildingBlock: MIFKUJ_clean_linker_0, # of connection points: 2
#     Edge 28, Type (0, 1), BuildingBlock: MIFKUJ_clean_linker_0, # of connection points: 2
#     Edge 29, Type (0, 1), BuildingBlock: MIFKUJ_clean_linker_0, # of connection points: 2
#     Edge 30, Type (0, 1), BuildingBlock: MIFKUJ_clean_linker_0, # of connection points: 2
#     Edge 31, Type (0, 1), BuildingBlock: MIFKUJ_clean_linker_0, # of connection points: 2
#     Edge 32, Type (0, 1), BuildingBlock: MIFKUJ_clean_linker_0, # of connection points: 2
#     Edge 33, Type (0, 1), BuildingBlock: MIFKUJ_clean_linker_0, # of connection points: 2
#     Edge 34, Type (0, 1), BuildingBlock: MIFKUJ_clean_linker_0, # of connection points: 2
#     Edge 35, Type (0, 1), BuildingBlock: MIFKUJ_clean_linker_0, # of connection points: 2
# Relax obj value: 0.223
# Max RMSD: 0.236
# Mean RMSD: 0.191
data_MOF--net-zzz--node1-CUKXOW_clean_sbu_0--node2-VETTIZ_charged_linker_0--edge1-MIFKUJ_clean_linker_0
_symmetry_space_group_name_H-M    P1
_symmetry_Int_Tables_number       1
_symmetry_cell_setting            triclinic
loop_
_symmetry_equiv_pos_as_xyz
'x, y, z'
_cell_length_a     72.33118
_cell_length_b     70.223666
_cell_length_c     25.304212
_cell_angle_alpha  92.29237
_cell_angle_beta   88.458568
_cell_angle_gamma 95.367978
loop_
_atom_site_label
_atom_site_type_symbol
_atom_site_fract_x
_atom_site_fract_y
_atom_site_fract_z
_atom_type_partial_charge
C0 C 0.78586 0.46946 0.25674 0.0
C1 C 0.80216 0.46287 0.27602 0.0
C2 C 0.8115 0.44952 0.24507 0.0
C3 C 0.78954 0.45053 0.17524 0.0
C4 C 0.7796 0.46278 0.2064 0.0
C5 C 0.7622 0.4673 0.17929 0.0
H6 H 0.71096 0.45848 0.95541 0.0
C7 C 0.78048 0.44729 0.12385 0.0
C8 C 0.76419 0.45674 0.12578 0.0
H9 H 0.69623 0.48584 0.10467 0.0
H10 H 0.72531 0.47844 0.14134 0.0
H11 H 0.75201 0.47558 0.9524 0.0
H12 H 0.72658 0.42144 0.00356 0.0
H13 H 0.74644 0.41709 0.96473 0.0
H14 H 0.72789 0.42822 0.93578 0.0
H15 H 0.7458 0.45616 0.90622 0.0
H16 H 0.7682 0.45903 0.93683 0.0
C17 C 0.76291 0.48918 0.1737 0.0
C18 C 0.7452 0.45877 0.21171 0.0
C19 C 0.81579 0.41641 0.97316 0.0
C20 C 0.8129 0.41435 0.91847 0.0
C21 C 0.79571 0.41842 0.89878 0.0
C22 C 0.78201 0.42534 0.93282 0.0
C23 C 0.78563 0.42846 0.98703 0.0
C24 C 0.80215 0.42361 0.00638 0.0
C25 C 0.80418 0.42876 0.06421 0.0
C26 C 0.78635 0.43809 0.0762 0.0
C27 C 0.77552 0.43779 0.03108 0.0
C28 C 0.8217 0.44316 0.07046 0.0
C29 C 0.80475 0.40996 0.09416 0.0
C30 C 0.71377 0.46264 0.9963 0.0
C31 C 0.70108 0.47249 0.02732 0.0
C32 C 0.70573 0.47822 0.07983 0.0
C33 C 0.72254 0.47376 0.1012 0.0
C34 C 0.73484 0.46348 0.06975 0.0
C35 C 0.73031 0.45824 0.0181 0.0
C36 C 0.74493 0.4477 0.98962 0.0
C37 C 0.75869 0.44667 0.03316 0.0
C38 C 0.75293 0.45608 0.08015 0.0
C39 C 0.75316 0.46007 0.94361 0.0
C40 C 0.7361 0.42757 0.97202 0.0
H41 H 0.81334 0.4335 0.1733 0.0
H42 H 0.77826 0.4795 0.28018 0.0
H43 H 0.7479 0.4448 0.22782 0.0
H44 H 0.73271 0.45559 0.18763 0.0
H45 H 0.74192 0.46851 0.24566 0.0
H46 H 0.77684 0.49492 0.15874 0.0
H47 H 0.76022 0.4965 0.2125 0.0
H48 H 0.75285 0.4933 0.14523 0.0
H49 H 0.82899 0.41386 0.98951 0.0
H50 H 0.79313 0.41687 0.85678 0.0
H51 H 0.76938 0.42859 0.91532 0.0
H52 H 0.82291 0.45337 0.03774 0.0
H53 H 0.83454 0.43562 0.06954 0.0
H54 H 0.82149 0.45228 0.10689 0.0
H55 H 0.79778 0.39744 0.07183 0.0
H56 H 0.79711 0.41031 0.13267 0.0
H57 H 0.81926 0.4068 0.10067 0.0
H58 H 0.82409 0.44431 0.25889 0.0
C59 C 0.80529 0.44333 0.19509 0.0
C60 C 0.90378 0.80001 0.93156 0.0
C61 C 0.90275 0.81979 0.94082 0.0
C62 C 0.89833 0.82663 0.99233 0.0
C63 C 0.8998 0.79505 0.0256 0.0
C64 C 0.9023 0.78791 0.97455 0.0
C65 C 0.90497 0.76686 0.97302 0.0
H66 H 0.92783 0.6902 0.10139 0.0
C67 C 0.90257 0.77981 0.06218 0.0
C68 C 0.90542 0.76317 0.03187 0.0
H69 H 0.91373 0.69344 0.93709 0.0
H70 H 0.90629 0.72589 0.95275 0.0
H71 H 0.94976 0.73194 0.11237 0.0
H72 H 0.89234 0.71367 0.14947 0.0
H73 H 0.90206 0.72806 0.20238 0.0
H74 H 0.91133 0.70573 0.18448 0.0
H75 H 0.94315 0.71822 0.16935 0.0
H76 H 0.94333 0.74395 0.17126 0.0
C77 C 0.92379 0.76394 0.94459 0.0
C78 C 0.88793 0.75578 0.94616 0.0
C79 C 0.91146 0.79851 0.25527 0.0
C80 C 0.91907 0.78971 0.29728 0.0
C81 C 0.92357 0.77066 0.29017 0.0
C82 C 0.92064 0.76063 0.24136 0.0
C83 C 0.91357 0.76995 0.19901 0.0
C84 C 0.90914 0.7886 0.20669 0.0
C85 C 0.90374 0.79717 0.15672 0.0
C86 C 0.90528 0.78048 0.11753 0.0
C87 C 0.91082 0.76446 0.14236 0.0
C88 C 0.91802 0.81458 0.14485 0.0
C89 C 0.88338 0.80216 0.16369 0.0
C90 C 0.92314 0.69795 0.06888 0.0
C91 C 0.92139 0.68924 0.0179 0.0
C92 C 0.91501 0.69972 0.97678 0.0
C93 C 0.91081 0.71862 0.98579 0.0
C94 C 0.9131 0.72729 0.03634 0.0
C95 C 0.91871 0.71691 0.07731 0.0
C96 C 0.91954 0.7285 0.12884 0.0
C97 C 0.91322 0.74735 0.11189 0.0
C98 C 0.90999 0.74663 0.05729 0.0
C99 C 0.93994 0.73075 0.14695 0.0
C100 C 0.90569 0.7185 0.16881 0.0
H101 H 0.89412 0.82058 0.07311 0.0
H102 H 0.90673 0.79428 0.89219 0.0
H103 H 0.87584 0.76446 0.94588 0.0
H104 H 0.8828 0.7428 0.96763 0.0
H105 H 0.89121 0.75159 0.9044 0.0
H106 H 0.93491 0.77451 0.96027 0.0
H107 H 0.92296 0.76587 0.90139 0.0
H108 H 0.92854 0.74971 0.95017 0.0
H109 H 0.90849 0.81337 0.25898 0.0
H110 H 0.92962 0.76369 0.32207 0.0
H111 H 0.92444 0.74621 0.23799 0.0
H112 H 0.931 0.8144 0.16741 0.0
H113 H 0.91222 0.82837 0.15535 0.0
H114 H 0.92287 0.81465 0.10301 0.0
H115 H 0.87478 0.79067 0.18451 0.0
H116 H 0.87655 0.80336 0.12557 0.0
H117 H 0.8826 0.81572 0.18749 0.0
H118 H 0.89747 0.84176 0.00089 0.0
C119 C 0.89671 0.81434 0.0346 0.0
C120 C 0.79495 0.9907 0.09711 0.0
C121 C 0.80235 0.98884 0.04495 0.0
C122 C 0.79004 0.98634 0.00256 0.0
C123 C 0.76364 0.98587 0.06307 0.0
C124 C 0.77543 0.98907 0.10525 0.0
C125 C 0.76453 0.99014 0.1573 0.0
H126 H 0.67828 0.98466 0.27926 0.0
C127 C 0.74435 0.98364 0.0835 0.0
C128 C 0.74452 0.98595 0.13903 0.0
H129 H 0.73051 0.9997 0.35537 0.0
H130 H 0.74717 0.99437 0.27129 0.0
H131 H 0.68718 0.00885 0.1806 0.0
H132 H 0.69073 0.94967 0.21078 0.0
H133 H 0.68477 0.94983 0.14405 0.0
H134 H 0.66921 0.95852 0.19468 0.0
H135 H 0.66728 0.99183 0.18845 0.0
H136 H 0.67834 0.9958 0.1249 0.0
C137 C 0.76818 0.01063 0.1815 0.0
C138 C 0.77021 0.97457 0.19331 0.0
C139 C 0.69177 0.9732 0.953 0.0
C140 C 0.67236 0.97036 0.96007 0.0
C141 C 0.66485 0.96724 0.01137 0.0
C142 C 0.67631 0.96826 0.05515 0.0
C143 C 0.69552 0.9726 0.04794 0.0
C144 C 0.70304 0.97416 0.99743 0.0
C145 C 0.72384 0.97788 0.99755 0.0
C146 C 0.7274 0.97929 0.05669 0.0
C147 C 0.71075 0.97655 0.08573 0.0
C148 C 0.72925 0.99723 0.97104 0.0
C149 C 0.73215 0.96036 0.96982 0.0
C150 C 0.69333 0.98678 0.27797 0.0
C151 C 0.70309 0.99285 0.32347 0.0
C152 C 0.72269 0.99513 0.32048 0.0
C153 C 0.73228 0.9922 0.27166 0.0
C154 C 0.72209 0.98689 0.22571 0.0
C155 C 0.70292 0.984 0.23017 0.0
C156 C 0.69388 0.97875 0.17859 0.0
C157 C 0.7106 0.97935 0.14146 0.0
C158 C 0.7273 0.98407 0.16858 0.0
C159 C 0.68088 0.99445 0.16726 0.0
C160 C 0.68399 0.95821 0.18194 0.0
H161 H 0.76251 0.98276 0.97697 0.0
H162 H 0.80407 0.99285 0.13047 0.0
H163 H 0.77017 0.9606 0.17094 0.0
H164 H 0.76053 0.9722 0.22734 0.0
H165 H 0.7844 0.97838 0.2085 0.0
H166 H 0.76724 0.02138 0.15077 0.0
H167 H 0.78229 0.0129 0.19828 0.0
H168 H 0.75791 0.01394 0.21266 0.0
H169 H 0.69799 0.97529 0.91401 0.0
H170 H 0.64997 0.96517 0.0183 0.0
H171 H 0.66961 0.9665 0.09316 0.0
H172 H 0.71918 0.00779 0.98264 0.0
H173 H 0.7293 0.99541 0.92724 0.0
H174 H 0.74289 0.00415 0.98328 0.0
H175 H 0.74453 0.95631 0.98997 0.0
H176 H 0.73585 0.96303 0.92771 0.0
H177 H 0.72222 0.94727 0.97054 0.0
H178 H 0.79528 0.98546 0.96209 0.0
C179 C 0.7709 0.9848 0.01128 0.0
C180 C 0.59199 0.72842 0.30148 0.0
C181 C 0.59594 0.7098 0.31327 0.0
C182 C 0.60512 0.69874 0.27518 0.0
C183 C 0.60391 0.72342 0.21185 0.0
C184 C 0.59645 0.7351 0.2505 0.0
C185 C 0.59344 0.75442 0.22949 0.0
H186 H 0.58802 0.80852 0.014 0.0
C187 C 0.60414 0.73302 0.1611 0.0
C188 C 0.59834 0.75139 0.17091 0.0
H189 H 0.58356 0.82719 0.17838 0.0
H190 H 0.58875 0.79536 0.20518 0.0
H191 H 0.62382 0.7832 0.02486 0.0
H192 H 0.56457 0.77079 0.02432 0.0
H193 H 0.57348 0.74953 0.00104 0.0
H194 H 0.57809 0.771 0.96397 0.0
H195 H 0.60936 0.78592 0.96949 0.0
H196 H 0.61803 0.76335 0.98123 0.0
C197 C 0.6072 0.7697 0.25678 0.0
C198 C 0.57282 0.75805 0.23845 0.0
C199 C 0.60884 0.69199 0.99333 0.0
C200 C 0.60267 0.69421 0.94185 0.0
C201 C 0.59921 0.71267 0.92687 0.0
C202 C 0.60037 0.72819 0.96378 0.0
C203 C 0.60461 0.72516 0.01654 0.0
C204 C 0.60901 0.70733 0.0303 0.0
C205 C 0.611 0.70596 0.08896 0.0
C206 C 0.60642 0.72576 0.1084 0.0
C207 C 0.60323 0.73709 0.06581 0.0
C208 C 0.63151 0.70297 0.09929 0.0
C209 C 0.59669 0.6897 0.10905 0.0
C210 C 0.58853 0.80595 0.05583 0.0
C211 C 0.58564 0.82055 0.09401 0.0
C212 C 0.58573 0.81624 0.14806 0.0
C213 C 0.5889 0.79782 0.16359 0.0
C214 C 0.59195 0.78349 0.12472 0.0
C215 C 0.59175 0.78775 0.07187 0.0
C216 C 0.59495 0.77084 0.0357 0.0
C217 C 0.59838 0.75605 0.07544 0.0
C218 C 0.59622 0.76333 0.12766 0.0
C219 C 0.61241 0.77601 0.00059 0.0
C220 C 0.57696 0.76522 0.00428 0.0
H221 H 0.61552 0.69609 0.19669 0.0
H222 H 0.58517 0.73723 0.33064 0.0
H223 H 0.56363 0.74534 0.22465 0.0
H224 H 0.56889 0.77025 0.21649 0.0
H225 H 0.56965 0.76084 0.28111 0.0
H226 H 0.62012 0.76351 0.26769 0.0
H227 H 0.60097 0.77576 0.29361 0.0
H228 H 0.61199 0.78147 0.23052 0.0
H229 H 0.61204 0.67817 0.00614 0.0
H230 H 0.59445 0.71496 0.88763 0.0
H231 H 0.59704 0.74173 0.95042 0.0
H232 H 0.64106 0.71203 0.07339 0.0
H233 H 0.63425 0.68782 0.09093 0.0
H234 H 0.63563 0.70723 0.14014 0.0
H235 H 0.58573 0.68538 0.07978 0.0
H236 H 0.5888 0.69411 0.14481 0.0
H237 H 0.60352 0.67666 0.11743 0.0
H238 H 0.60831 0.68443 0.28382 0.0
C239 C 0.60915 0.70546 0.22461 0.0
C240 C 0.30229 0.52358 0.29271 0.0
C241 C 0.30927 0.52327 0.34415 0.0
C242 C 0.29871 0.52976 0.38749 0.0
C243 C 0.27468 0.53706 0.32905 0.0
C244 C 0.2848 0.53041 0.28613 0.0
C245 C 0.2744 0.53115 0.2352 0.0
H246 H 0.19789 0.55777 0.11496 0.0
C247 C 0.25751 0.54381 0.30973 0.0
C248 C 0.25719 0.54063 0.25454 0.0
H249 H 0.24034 0.52519 0.04335 0.0
H250 H 0.2571 0.52782 0.12606 0.0
H251 H 0.19398 0.53443 0.21653 0.0
H252 H 0.22416 0.58833 0.18233 0.0
H253 H 0.216 0.5907 0.24804 0.0
H254 H 0.19957 0.58617 0.1954 0.0
H255 H 0.18291 0.55584 0.20713 0.0
H256 H 0.19049 0.54997 0.27104 0.0
C257 C 0.26946 0.51036 0.21411 0.0
C258 C 0.28643 0.54368 0.19624 0.0
C259 C 0.21039 0.5684 0.44178 0.0
C260 C 0.19346 0.57626 0.43542 0.0
C261 C 0.18843 0.58099 0.38452 0.0
C262 C 0.19942 0.57667 0.34009 0.0
C263 C 0.2156 0.56747 0.3466 0.0
C264 C 0.22131 0.56435 0.3969 0.0
C265 C 0.23948 0.55554 0.39611 0.0
C266 C 0.24302 0.55272 0.33691 0.0
C267 C 0.2288 0.55937 0.30831 0.0
C268 C 0.23637 0.53616 0.42383 0.0
C269 C 0.25421 0.57025 0.4221 0.0
C270 C 0.211 0.55153 0.11657 0.0
C271 C 0.21793 0.54151 0.07245 0.0
C272 C 0.23474 0.53303 0.07689 0.0
C273 C 0.24436 0.53448 0.12492 0.0
C274 C 0.23683 0.5441 0.16925 0.0
C275 C 0.2204 0.55242 0.1642 0.0
C276 C 0.21335 0.56069 0.21553 0.0
C277 C 0.22816 0.55599 0.25274 0.0
C278 C 0.2421 0.54645 0.22573 0.0
C279 C 0.19414 0.54987 0.2285 0.0
C280 C 0.21308 0.58259 0.21033 0.0
H281 H 0.27432 0.54146 0.41505 0.0
H282 H 0.31014 0.51845 0.25885 0.0
H283 H 0.29183 0.55738 0.2163 0.0
H284 H 0.27855 0.54754 0.16214 0.0
H285 H 0.29851 0.53624 0.18109 0.0
H286 H 0.2663 0.50054 0.24727 0.0
H287 H 0.28117 0.50503 0.1903 0.0
H288 H 0.25683 0.50881 0.19022 0.0
H289 H 0.21467 0.56489 0.48063 0.0
H290 H 0.1754 0.587 0.37872 0.0
H291 H 0.19448 0.57993 0.30222 0.0
H292 H 0.22283 0.52841 0.4126 0.0
H293 H 0.2362 0.53836 0.46755 0.0
H294 H 0.24687 0.52624 0.41238 0.0
H295 H 0.25021 0.58515 0.42087 0.0
H296 H 0.26785 0.57069 0.401 0.0
H297 H 0.25608 0.56722 0.46427 0.0
H298 H 0.3039 0.52966 0.42727 0.0
C299 C 0.28157 0.53671 0.38025 0.0
C300 C 0.11419 0.20468 0.42962 0.0
C301 C 0.11509 0.185 0.41771 0.0
C302 C 0.12253 0.17933 0.36808 0.0
C303 C 0.12268 0.21164 0.33882 0.0
C304 C 0.11789 0.21777 0.38938 0.0
C305 C 0.11504 0.23879 0.39231 0.0
H306 H 0.08873 0.31443 0.26823 0.0
C307 C 0.1205 0.22722 0.30289 0.0
C308 C 0.11629 0.24331 0.33375 0.0
H309 H 0.10507 0.31162 0.43084 0.0
H310 H 0.11478 0.2801 0.41272 0.0
H311 H 0.12595 0.29413 0.21699 0.0
H312 H 0.07 0.27077 0.25564 0.0
H313 H 0.07709 0.26031 0.19511 0.0
H314 H 0.07503 0.28572 0.20016 0.0
H315 H 0.10602 0.30067 0.18346 0.0
H316 H 0.11687 0.27937 0.16386 0.0
C317 C 0.13111 0.2496 0.42411 0.0
C318 C 0.09551 0.24131 0.41674 0.0
C319 C 0.11189 0.20825 0.11026 0.0
C320 C 0.10279 0.2161 0.0693 0.0
C321 C 0.09738 0.23484 0.07644 0.0
C322 C 0.10058 0.24531 0.12455 0.0
C323 C 0.10873 0.23667 0.16636 0.0
C324 C 0.11423 0.21842 0.1584 0.0
C325 C 0.12034 0.2102 0.20803 0.0
C326 C 0.11807 0.22668 0.24741 0.0
C327 C 0.11148 0.2423 0.22297 0.0
C328 C 0.14102 0.20645 0.20045 0.0
C329 C 0.10704 0.192 0.22019 0.0
C330 C 0.09432 0.30694 0.29989 0.0
C331 C 0.09601 0.31548 0.35113 0.0
C332 C 0.1037 0.30544 0.39106 0.0
C333 C 0.10918 0.28709 0.38078 0.0
C334 C 0.10675 0.27847 0.33031 0.0
C335 C 0.1001 0.28852 0.29019 0.0
C336 C 0.09991 0.27718 0.23818 0.0
C337 C 0.10789 0.25896 0.25403 0.0
C338 C 0.1111 0.25964 0.30861 0.0
C339 C 0.11277 0.28838 0.1981 0.0
C340 C 0.07951 0.27332 0.22081 0.0
H341 H 0.13155 0.18741 0.29133 0.0
H342 H 0.10935 0.20955 0.46823 0.0
H343 H 0.08477 0.23167 0.39582 0.0
H344 H 0.09148 0.25599 0.41424 0.0
H345 H 0.09485 0.23785 0.45923 0.0
H346 H 0.14239 0.24036 0.43158 0.0
H347 H 0.12612 0.25496 0.46335 0.0
H348 H 0.13796 0.26185 0.40234 0.0
H349 H 0.11561 0.19365 0.10685 0.0
H350 H 0.09023 0.24115 0.0454 0.0
H351 H 0.09597 0.2594 0.12809 0.0
H352 H 0.14897 0.21846 0.17999 0.0
H353 H 0.14245 0.19313 0.17608 0.0
H354 H 0.14801 0.20544 0.23844 0.0
H355 H 0.09511 0.18982 0.1931 0.0
H356 H 0.10041 0.19291 0.26008 0.0
H357 H 0.11435 0.17878 0.21635 0.0
H358 H 0.12372 0.16438 0.35766 0.0
C359 C 0.12661 0.19264 0.32891 0.0
C360 C 0.28679 0.01825 0.03814 0.0
C361 C 0.30579 0.01868 0.02278 0.0
C362 C 0.31925 0.01892 0.06173 0.0
C363 C 0.29541 0.01778 0.13031 0.0
C364 C 0.28192 0.01804 0.09277 0.0
C365 C 0.26272 0.01812 0.11886 0.0
H366 H 0.21205 0.01798 0.35285 0.0
C367 C 0.28639 0.01694 0.18302 0.0
C368 C 0.26716 0.01736 0.17761 0.0
H369 H 0.19032 0.02045 0.19638 0.0
H370 H 0.22148 0.01872 0.15783 0.0
H371 H 0.23715 0.98527 0.32343 0.0
H372 H 0.24895 0.04645 0.33657 0.0
H373 H 0.26672 0.0361 0.36825 0.0
H374 H 0.2431 0.03184 0.39232 0.0
H375 H 0.23989 0.99775 0.38636 0.0
H376 H 0.25946 0.98943 0.34934 0.0
C377 C 0.25066 1.00008 0.09925 0.0
C378 C 0.25473 0.03699 0.10614 0.0
C379 C 0.32675 0.00775 0.33784 0.0
C380 C 0.32302 0.00453 0.39148 0.0
C381 C 0.30492 0.006 0.41225 0.0
C382 C 0.29053 0.00972 0.37893 0.0
C383 C 0.29438 0.012 0.32449 0.0
C384 C 0.31234 0.01126 0.30531 0.0
C385 C 0.31412 0.01358 0.24687 0.0
C386 C 0.29408 0.01527 0.2333 0.0
C387 C 0.28261 0.01449 0.27864 0.0
C388 C 0.32152 0.99509 0.22176 0.0
C389 C 0.32664 0.0324 0.23716 0.0
C390 C 0.21398 0.01846 0.31027 0.0
C391 C 0.19882 0.0198 0.27774 0.0
C392 C 0.20185 0.01962 0.22233 0.0
C393 C 0.21993 0.01871 0.20011 0.0
C394 C 0.23503 0.01776 0.23368 0.0
C395 C 0.2317 0.01741 0.28781 0.0
C396 C 0.24881 0.01547 0.31829 0.0
C397 C 0.26326 0.01545 0.27414 0.0
C398 C 0.25536 0.01679 0.2241 0.0
C399 C 0.24629 0.99609 0.34624 0.0
C400 C 0.25213 0.03328 0.35623 0.0
H401 H 0.32533 0.01845 0.14192 0.0
H402 H 0.27619 0.01816 0.00871 0.0
H403 H 0.26533 0.04934 0.11254 0.0
H404 H 0.2427 0.03996 0.13175 0.0
H405 H 0.25051 0.03674 0.06421 0.0
H406 H 0.25846 0.98722 0.101 0.0
H407 H 0.2466 0.00143 0.05762 0.0
H408 H 0.23795 0.99718 0.12378 0.0
H409 H 0.34062 0.00708 0.32104 0.0
H410 H 0.30182 0.00366 0.45373 0.0
H411 H 0.27693 0.01033 0.39662 0.0
H412 H 0.31637 0.9823 0.24432 0.0
H413 H 0.33693 0.99609 0.22144 0.0
H414 H 0.31669 0.99162 0.18118 0.0
H415 H 0.32617 0.04275 0.27157 0.0
H416 H 0.322 0.04029 0.20362 0.0
H417 H 0.34138 0.0296 0.23025 0.0
H418 H 0.33386 0.01919 0.05072 0.0
C419 C 0.31421 0.01848 0.11496 0.0
C420 C 0.41779 0.2777 0.06283 0.0
C421 C 0.41263 0.29638 0.05647 0.0
C422 C 0.404 0.30583 0.0992 0.0
C423 C 0.40895 0.28009 0.15579 0.0
C424 C 0.41529 0.26959 0.11292 0.0
C425 C 0.41888 0.24967 0.12846 0.0
H426 H 0.42594 0.18883 0.32991 0.0
C427 C 0.41057 0.26934 0.20372 0.0
C428 C 0.41566 0.25108 0.18837 0.0
H429 H 0.43019 0.17494 0.16276 0.0
H430 H 0.42519 0.20779 0.14302 0.0
H431 H 0.45156 0.22445 0.32391 0.0
H432 H 0.3922 0.21689 0.33185 0.0
H433 H 0.40012 0.23537 0.37773 0.0
H434 H 0.40758 0.21182 0.38306 0.0
H435 H 0.43932 0.22561 0.38608 0.0
H436 H 0.44532 0.24673 0.34846 0.0
C437 C 0.43917 0.24626 0.11345 0.0
C438 C 0.40433 0.23522 0.10136 0.0
C439 C 0.4182 0.30725 0.37681 0.0
C440 C 0.42541 0.30261 0.4249 0.0
C441 C 0.42673 0.28334 0.43587 0.0
C442 C 0.42185 0.26885 0.39768 0.0
C443 C 0.41637 0.27386 0.34749 0.0
C444 C 0.41417 0.29276 0.3382 0.0
C445 C 0.4098 0.29576 0.28157 0.0
C446 C 0.41076 0.27561 0.2577 0.0
C447 C 0.41448 0.2629 0.29652 0.0
C448 C 0.42525 0.31021 0.25887 0.0
C449 C 0.38998 0.30247 0.27977 0.0
C450 C 0.42539 0.19281 0.28905 0.0
C451 C 0.42792 0.17937 0.24777 0.0
C452 C 0.42795 0.18512 0.19504 0.0
C453 C 0.42495 0.20409 0.18379 0.0
C454 C 0.4222 0.21738 0.22582 0.0
C455 C 0.42274 0.21161 0.27737 0.0
C456 C 0.42134 0.22776 0.31736 0.0
C457 C 0.41794 0.24385 0.28178 0.0
C458 C 0.41864 0.23788 0.22801 0.0
C459 C 0.44024 0.23135 0.34574 0.0
C460 C 0.40448 0.22276 0.35485 0.0
H461 H 0.39578 0.30575 0.17994 0.0
H462 H 0.42386 0.26986 0.03007 0.0
H463 H 0.39065 0.24121 0.10006 0.0
H464 H 0.40156 0.22188 0.12297 0.0
H465 H 0.40873 0.23168 0.06 0.0
H466 H 0.44877 0.25867 0.12712 0.0
H467 H 0.44103 0.24441 0.06988 0.0
H468 H 0.44373 0.23358 0.13193 0.0
H469 H 0.41732 0.32209 0.36781 0.0
H470 H 0.43234 0.27961 0.47296 0.0
H471 H 0.42332 0.25441 0.40785 0.0
H472 H 0.43922 0.30573 0.26707 0.0
H473 H 0.42432 0.32476 0.27703 0.0
H474 H 0.42477 0.31158 0.21585 0.0
H475 H 0.3822 0.30071 0.31807 0.0
H476 H 0.3813 0.2939 0.25024 0.0
H477 H 0.39044 0.31783 0.27047 0.0
H478 H 0.39974 0.3201 0.09531 0.0
C479 C 0.40196 0.29768 0.14855 0.0
Tb480 Tb 0.99613 0.98941 0.64781 0.0
C481 C 0.03851 0.0035 0.62752 0.0
Tb482 Tb 0.0164 0.01766 0.73012 0.0
O483 O 0.99817 0.01066 0.58665 0.0
O484 O 0.99839 0.01915 0.66613 0.0
O485 O 0.0247 0.99011 0.61708 0.0
C486 C 0.03191 0.04775 0.78537 0.0
O487 O 0.0376 0.01658 0.66685 0.0
C488 C 0.01064 0.98147 0.75626 0.0
C489 C 0.97424 0.00478 0.75064 0.0
O490 O 0.03882 0.03134 0.77919 0.0
O491 O 0.01663 0.0473 0.75941 0.0
O492 O 0.01272 0.99581 0.79031 0.0
O493 O 0.01405 0.988 0.71117 0.0
O494 O 0.98799 0.01829 0.75985 0.0
O495 O 0.97512 0.99133 0.71205 0.0
C496 C 0.98196 0.95708 0.59901 0.0
O497 O 0.97323 0.97238 0.607 0.0
O498 O 0.99843 0.96018 0.61812 0.0
C499 C 1.0009 0.02519 0.61998 0.0
Tb500 Tb 0.50044 0.01733 0.64154 0.0
C501 C 0.53967 0.00231 0.63807 0.0
Tb502 Tb 0.5098 0.98851 0.72491 0.0
O503 O 0.51786 0.04098 0.68032 0.0
O504 O 0.50675 0.01815 0.72237 0.0
O505 O 0.52595 0.0068 0.60823 0.0
C506 C 0.52531 0.96923 0.79876 0.0
O507 O 0.53674 0.99772 0.68817 0.0
C508 C 0.49062 0.97366 0.64411 0.0
C509 C 0.46998 0.00328 0.72912 0.0
O510 O 0.52859 0.96779 0.74824 0.0
O511 O 0.51304 0.9814 0.80793 0.0
O512 O 0.49084 0.96579 0.68964 0.0
O513 O 0.50289 0.9876 0.64403 0.0
O514 O 0.48288 0.99602 0.75693 0.0
O515 O 0.47354 0.01073 0.68196 0.0
C516 C 0.48628 0.03522 0.56223 0.0
O517 O 0.47675 0.02506 0.59688 0.0
O518 O 0.50377 0.03524 0.5721 0.0
C519 C 0.51819 0.03268 0.72512 0.0
Tb520 Tb 0.5165 0.51772 0.64613 0.0
C521 C 0.47282 0.5087 0.63407 0.0
Tb522 Tb 0.49371 0.49224 0.72922 0.0
O523 O 0.51813 0.49409 0.58671 0.0
O524 O 0.51305 0.48881 0.66609 0.0
O525 O 0.48788 0.52045 0.62322 0.0
C526 C 0.47538 0.4629 0.77894 0.0
O527 O 0.47206 0.49648 0.67314 0.0
C528 C 0.49888 0.52923 0.75257 0.0
C529 C 0.5368 0.50157 0.7428 0.0
O530 O 0.47761 0.46423 0.72827 0.0
O531 O 0.4833 0.47827 0.802 0.0
O532 O 0.49565 0.51632 0.78794 0.0
O533 O 0.49689 0.52109 0.70787 0.0
O534 O 0.52224 0.48883 0.75022 0.0
O535 O 0.53692 0.51519 0.70758 0.0
C536 C 0.53457 0.54829 0.60133 0.0
O537 O 0.53816 0.54189 0.64694 0.0
O538 O 0.52119 0.53715 0.58043 0.0
C539 C 0.51294 0.48104 0.62043 0.0
Tb540 Tb 0.98798 0.50076 0.65359 0.0
C541 C 0.01899 0.47335 0.62138 0.0
Tb542 Tb 0.02106 0.49875 0.72964 0.0
O543 O 0.00685 0.51603 0.59702 0.0
O544 O 0.01165 0.51847 0.67806 0.0
O545 O 0.00193 0.47798 0.61277 0.0
C546 C 0.05517 0.50359 0.7697 0.0
O547 O 0.029 0.48039 0.66236 0.0
C548 C 0.99121 0.47626 0.75184 0.0
C549 C 0.98945 0.52453 0.76331 0.0
O550 O 0.04023 0.49672 0.79458 0.0
O551 O 0.05091 0.50759 0.7222 0.0
O552 O 0.00406 0.48113 0.78604 0.0
O553 O 0.997 0.48149 0.70695 0.0
O554 O 0.00752 0.52255 0.76578 0.0
O555 O 0.9787 0.51518 0.72698 0.0
C556 C 0.95518 0.49901 0.60602 0.0
O557 O 0.96568 0.51457 0.61741 0.0
O558 O 0.96321 0.48443 0.62105 0.0
C559 C 0.01828 0.52283 0.63336 0.0
H560 H 0.18965 0.04401 0.35869 0.0
H561 H 0.16107 0.04224 0.41261 0.0
H562 H 0.13726 0.99641 0.31006 0.0
H563 H 0.16603 0.9982 0.25549 0.0
H564 H 0.11111 0.02184 0.34721 0.0
H565 H 0.15686 0.98531 0.41871 0.0
H566 H 0.18806 0.98039 0.44949 0.0
H567 H 0.18357 0.02437 0.57077 0.0
H568 H 0.15247 0.02981 0.54006 0.0
H569 H 0.0437 0.98301 0.53446 0.0
H570 H 0.06961 0.98716 0.47074 0.0
H571 H 0.09639 0.0317 0.57195 0.0
H572 H 0.0705 0.02771 0.63599 0.0
H573 H 0.1207 0.00657 0.53381 0.0
H574 H 0.07547 0.04356 0.46308 0.0
H575 H 0.04487 0.04995 0.43061 0.0
H576 H 0.04841 0.00603 0.30886 0.0
H577 H 0.07896 0.99924 0.34079 0.0
C578 C 0.1782 0.03377 0.34704 0.0
C579 C 0.18015 0.02109 0.30319 0.0
C580 C 0.16189 0.03275 0.37797 0.0
C581 C 0.14715 0.01893 0.36609 0.0
C582 C 0.14849 0.00714 0.32013 0.0
C583 C 0.16489 0.0082 0.28888 0.0
C584 C 0.13116 0.01589 0.40419 0.0
C585 C 0.11315 0.01822 0.38779 0.0
C586 C 0.13385 0.01158 0.45754 0.0
C587 C 0.1524 0.00808 0.47678 0.0
C588 C 0.16258 0.99402 0.45173 0.0
C589 C 0.18024 0.99114 0.46917 0.0
C590 C 0.18781 0.00209 0.51199 0.0
C591 C 0.1777 0.01591 0.53756 0.0
C592 C 0.16005 0.0189 0.52017 0.0
C593 C 0.05515 0.9936 0.54355 0.0
C594 C 0.05499 0.00495 0.59072 0.0
C595 C 0.06991 0.99606 0.50674 0.0
C596 C 0.08489 0.00988 0.5162 0.0
C597 C 0.08498 0.02096 0.56369 0.0
C598 C 0.07015 0.01862 0.60037 0.0
C599 C 0.10059 0.01256 0.47699 0.0
C600 C 0.1186 0.01014 0.49322 0.0
C601 C 0.09787 0.01683 0.42361 0.0
C602 C 0.07941 0.02074 0.4047 0.0
C603 C 0.06965 0.03513 0.4297 0.0
C604 C 0.05234 0.03887 0.41133 0.0
C605 C 0.04468 0.02837 0.36788 0.0
C606 C 0.05434 0.01414 0.34258 0.0
C607 C 0.07167 0.01035 0.36074 0.0
H608 H 0.03128 0.03129 0.35373 0.0
H609 H 0.20149 0.99984 0.52542 0.0
H610 H 0.40346 0.1531 0.29381 0.0
H611 H 0.41067 0.12386 0.33549 0.0
H612 H 0.4675 0.13328 0.27908 0.0
H613 H 0.46004 0.16218 0.23563 0.0
H614 H 0.4571 0.09564 0.28118 0.0
H615 H 0.45339 0.15014 0.40136 0.0
H616 H 0.43823 0.17686 0.44467 0.0
H617 H 0.39507 0.13721 0.50695 0.0
H618 H 0.4098 0.11027 0.46311 0.0
H619 H 0.50523 0.05563 0.48551 0.0
H620 H 0.49256 0.07575 0.42115 0.0
H621 H 0.43721 0.05982 0.48145 0.0
H622 H 0.44983 0.0398 0.54641 0.0
H623 H 0.44423 0.09832 0.47485 0.0
H624 H 0.45017 0.04342 0.36076 0.0
H625 H 0.46607 0.01711 0.31805 0.0
H626 H 0.50619 0.05779 0.24653 0.0
H627 H 0.49069 0.08437 0.28945 0.0
C628 C 0.41731 0.14851 0.28889 0.0
C629 C 0.4312 0.15974 0.26148 0.0
C630 C 0.42148 0.13193 0.31305 0.0
C631 C 0.43975 0.12661 0.31156 0.0
C632 C 0.45333 0.13711 0.28095 0.0
C633 C 0.44908 0.15357 0.25603 0.0
C634 C 0.44509 0.11142 0.34605 0.0
C635 C 0.45441 0.09629 0.32356 0.0
C636 C 0.44128 0.11204 0.40136 0.0
C637 C 0.43257 0.12821 0.42842 0.0
C638 C 0.4406 0.14713 0.42399 0.0
C639 C 0.43209 0.16232 0.44863 0.0
C640 C 0.41567 0.15874 0.47843 0.0
C641 C 0.40777 0.13996 0.48376 0.0
C642 C 0.41618 0.12473 0.45899 0.0
C643 C 0.49033 0.05626 0.48463 0.0
C644 C 0.4785 0.04616 0.52084 0.0
C645 C 0.4831 0.06768 0.44768 0.0
C646 C 0.46389 0.0692 0.44624 0.0
C647 C 0.45203 0.05882 0.48184 0.0
C648 C 0.45925 0.04734 0.51871 0.0
C649 C 0.4564 0.08262 0.41007 0.0
C650 C 0.44672 0.0975 0.43237 0.0
C651 C 0.46003 0.08183 0.3548 0.0
C652 C 0.46934 0.06589 0.32868 0.0
C653 C 0.46247 0.04677 0.33626 0.0
C654 C 0.4714 0.0318 0.31195 0.0
C655 C 0.48716 0.03577 0.27969 0.0
C656 C 0.49399 0.05473 0.27156 0.0
C657 C 0.48512 0.06976 0.29582 0.0
H658 H 0.49405 0.02417 0.2609 0.0
H659 H 0.4091 0.17051 0.49749 0.0
H660 H 0.34344 0.5406 0.31882 0.0
H661 H 0.37281 0.53494 0.35918 0.0
H662 H 0.34535 0.48608 0.43681 0.0
H663 H 0.31599 0.49211 0.39759 0.0
H664 H 0.36183 0.50962 0.5064 0.0
H665 H 0.3804 0.48199 0.33966 0.0
H666 H 0.38607 0.48048 0.24314 0.0
H667 H 0.42551 0.52999 0.25601 0.0
H668 H 0.41988 0.53197 0.35258 0.0
H669 H 0.44152 0.48355 0.63268 0.0
H670 H 0.415 0.48323 0.57488 0.0
H671 H 0.44012 0.53396 0.50129 0.0
H672 H 0.46688 0.53426 0.55848 0.0
H673 H 0.42527 0.50809 0.42796 0.0
H674 H 0.40516 0.53687 0.59296 0.0
H675 H 0.39945 0.53869 0.68948 0.0
H676 H 0.36265 0.48711 0.67889 0.0
H677 H 0.36833 0.48484 0.58233 0.0
C678 C 0.34392 0.52824 0.34285 0.0
C679 C 0.32758 0.51668 0.35483 0.0
C680 C 0.36068 0.52502 0.36608 0.0
C681 C 0.36134 0.51008 0.40124 0.0
C682 C 0.34521 0.49774 0.41007 0.0
C683 C 0.32849 0.50106 0.3873 0.0
C684 C 0.37802 0.50868 0.4337 0.0
C685 C 0.37564 0.50891 0.48902 0.0
C686 C 0.39617 0.50838 0.41139 0.0
C687 C 0.39958 0.50723 0.35333 0.0
C688 C 0.39016 0.49266 0.32187 0.0
C689 C 0.3934 0.49169 0.26715 0.0
C690 C 0.40611 0.50516 0.24344 0.0
C691 C 0.41565 0.51958 0.27443 0.0
C692 C 0.41246 0.52062 0.32916 0.0
C693 C 0.44136 0.49478 0.60462 0.0
C694 C 0.45625 0.50911 0.60086 0.0
C695 C 0.42618 0.49454 0.57144 0.0
C696 C 0.42545 0.5087 0.53408 0.0
C697 C 0.44037 0.52289 0.52978 0.0
C698 C 0.45561 0.52311 0.56283 0.0
C699 C 0.40895 0.50895 0.50033 0.0
C700 C 0.4114 0.50863 0.44502 0.0
C701 C 0.39081 0.5092 0.52252 0.0
C702 C 0.38731 0.51058 0.58052 0.0
C703 C 0.39595 0.52584 0.61127 0.0
C704 C 0.39271 0.52697 0.66597 0.0
C705 C 0.38073 0.513 0.69032 0.0
C706 C 0.37194 0.4979 0.65999 0.0
C707 C 0.37515 0.49669 0.60527 0.0
H708 H 0.37824 0.5139 0.73267 0.0
H709 H 0.40859 0.50439 0.20107 0.0
H710 H 0.06267 0.32816 0.32724 0.0
H711 H 0.04961 0.35707 0.36344 0.0
H712 H 0.10092 0.37414 0.44274 0.0
H713 H 0.11395 0.34533 0.40689 0.0
H714 H 0.07181 0.37349 0.51026 0.0
H715 H 0.08706 0.39871 0.33877 0.0
H716 H 0.08666 0.39881 0.24137 0.0
H717 H 0.02724 0.3984 0.24702 0.0
H718 H 0.02726 0.39803 0.34448 0.0
H719 H 0.05473 0.46366 0.61715 0.0
H720 H 0.06756 0.43861 0.56205 0.0
H721 H 0.01447 0.42507 0.48925 0.0
H722 H 0.00151 0.45041 0.54378 0.0
H723 H 0.04287 0.42348 0.41671 0.0
H724 H 0.0272 0.39799 0.58633 0.0
H725 H 0.02689 0.39739 0.68371 0.0
H726 H 0.08626 0.39725 0.68131 0.0
H727 H 0.08695 0.39813 0.58388 0.0
C728 C 0.0713 0.33835 0.35126 0.0
C729 C 0.08926 0.33443 0.36467 0.0
C730 C 0.06382 0.35485 0.372 0.0
C731 C 0.07427 0.36774 0.40602 0.0
C732 C 0.09256 0.36432 0.41694 0.0
C733 C 0.09999 0.34787 0.39644 0.0
C734 C 0.06574 0.38383 0.43418 0.0
C735 C 0.06574 0.38458 0.48969 0.0
C736 C 0.05718 0.39788 0.40747 0.0
C737 C 0.05715 0.39815 0.3489 0.0
C738 C 0.07389 0.39848 0.31923 0.0
C739 C 0.07374 0.39862 0.26401 0.0
C740 C 0.05693 0.39856 0.23801 0.0
C741 C 0.04025 0.39842 0.2672 0.0
C742 C 0.04032 0.39826 0.32243 0.0
C743 C 0.04575 0.45544 0.58932 0.0
C744 C 0.027 0.45892 0.58541 0.0
C745 C 0.05312 0.4411 0.55782 0.0
C746 C 0.04189 0.42974 0.52216 0.0
C747 C 0.02337 0.43362 0.51662 0.0
C748 C 0.01598 0.44808 0.54798 0.0
C749 C 0.04935 0.41331 0.49263 0.0
C750 C 0.049 0.4124 0.4371 0.0
C751 C 0.05751 0.39897 0.51923 0.0
C752 C 0.05714 0.3983 0.57783 0.0
C753 C 0.0402 0.39797 0.60658 0.0
C754 C 0.03995 0.39756 0.66178 0.0
C755 C 0.05654 0.39732 0.68869 0.0
C756 C 0.07342 0.39745 0.66042 0.0
C757 C 0.07375 0.39789 0.6052 0.0
H758 H 0.05632 0.39701 0.73143 0.0
H759 H 0.05685 0.39867 0.19526 0.0
H760 H 0.83117 0.01461 0.07933 0.0
H761 H 0.86326 0.01757 0.04363 0.0
H762 H 0.8506 0.96707 0.94347 0.0
H763 H 0.81926 0.96356 0.9809 0.0
H764 H 0.88362 0.9666 0.97148 0.0
H765 H 0.84933 0.01611 0.90306 0.0
H766 H 0.83151 0.04443 0.91017 0.0
H767 H 0.87723 0.07687 0.98654 0.0
H768 H 0.89524 0.04865 0.9804 0.0
H769 H 0.94397 0.9789 0.74864 0.0
H770 H 0.91745 0.976 0.81104 0.0
H771 H 0.94144 0.02524 0.90082 0.0
H772 H 0.9677 0.02832 0.83769 0.0
H773 H 0.90567 0.02785 0.88963 0.0
H774 H 0.93934 0.97739 0.95933 0.0
H775 H 0.9557 0.94802 0.95714 0.0
H776 H 0.9106 0.91741 0.87351 0.0
H777 H 0.89376 0.94648 0.87661 0.0
C778 C 0.83547 0.00389 0.05082 0.0
C779 C 0.82261 0.98902 0.03235 0.0
C780 C 0.85373 0.00573 0.02979 0.0
C781 C 0.85933 0.99286 0.98952 0.0
C782 C 0.84677 0.97732 0.97402 0.0
C783 C 0.82874 0.97537 0.99533 0.0
C784 C 0.87774 0.99573 0.9611 0.0
C785 C 0.88833 0.98001 0.95343 0.0
C786 C 0.88432 0.01329 0.93828 0.0
C787 C 0.87353 0.03023 0.94185 0.0
C788 C 0.85552 0.02926 0.92167 0.0
C789 C 0.8454 0.04529 0.92549 0.0
C790 C 0.85321 0.06242 0.94895 0.0
C791 C 0.87119 0.06358 0.9685 0.0
C792 C 0.88136 0.04757 0.96485 0.0
C793 C 0.94347 0.98909 0.78149 0.0
C794 C 0.95784 0.00379 0.78771 0.0
C795 C 0.92847 0.98732 0.81768 0.0
C796 C 0.92756 1.00015 0.86151 0.0
C797 C 0.94183 0.01505 0.86763 0.0
C798 C 0.95682 0.01681 0.83127 0.0
C799 C 0.91124 0.99859 0.89908 0.0
C800 C 0.90106 0.01454 0.90833 0.0
C801 C 0.90487 0.98119 0.92283 0.0
C802 C 0.91538 0.96408 0.91799 0.0
C803 C 0.93298 0.96441 0.94029 0.0
C804 C 0.94223 0.94777 0.93942 0.0
C805 C 0.93415 0.93084 0.91544 0.0
C806 C 0.9168 0.9305 0.89229 0.0
C807 C 0.90734 0.947 0.89395 0.0
H808 H 0.94134 0.91801 0.91474 0.0
H809 H 0.84535 0.07482 0.95186 0.0
H810 H 0.60281 0.84045 0.01275 0.0
H811 H 0.5945 0.87006 0.97682 0.0
H812 H 0.55286 0.87478 0.10079 0.0
H813 H 0.56054 0.84453 0.1356 0.0
H814 H 0.53831 0.87958 0.01086 0.0
H815 H 0.59317 0.90768 0.09272 0.0
H816 H 0.62608 0.9114 0.11763 0.0
H817 H 0.64289 0.91521 0.95413 0.0
H818 H 0.61008 0.91161 0.92816 0.0
H819 H 0.51581 0.96659 0.90368 0.0
H820 H 0.52824 0.94587 0.9674 0.0
H821 H 0.56649 0.92666 0.84746 0.0
H822 H 0.55405 0.94719 0.78375 0.0
H823 H 0.58247 0.93267 0.9478 0.0
H824 H 0.52718 0.90041 0.86798 0.0
H825 H 0.49413 0.89736 0.84457 0.0
H826 H 0.47826 0.90178 0.00905 0.0
H827 H 0.51127 0.90512 0.03336 0.0
C828 C 0.59191 0.84779 0.03258 0.0
C829 C 0.58219 0.83994 0.07675 0.0
C830 C 0.58736 0.86494 0.01239 0.0
C831 C 0.57316 0.87486 0.0363 0.0
C832 C 0.56391 0.86745 0.08168 0.0
C833 C 0.5684 0.8502 0.10179 0.0
C834 C 0.56681 0.89177 0.01062 0.0
C835 C 0.54795 0.89141 0.99837 0.0
C836 C 0.57936 0.90711 0.99322 0.0
C837 C 0.59914 0.90924 0.00849 0.0
C838 C 0.60388 0.90921 0.06203 0.0
C839 C 0.62252 0.91138 0.07636 0.0
C840 C 0.63656 0.91357 0.03749 0.0
C841 C 0.63199 0.91358 0.9842 0.0
C842 C 0.61337 0.91156 0.96967 0.0
C843 C 0.52699 0.95807 0.89119 0.0
C844 C 0.5338 0.95823 0.83869 0.0
C845 C 0.53408 0.94627 0.92755 0.0
C846 C 0.54817 0.93458 0.91199 0.0
C847 C 0.55562 0.93554 0.86029 0.0
C848 C 0.54843 0.94717 0.82386 0.0
C849 C 0.55414 0.9202 0.94787 0.0
C850 C 0.57288 0.921 0.96157 0.0
C851 C 0.54149 0.90532 0.96701 0.0
C852 C 0.52167 0.90325 0.95243 0.0
C853 C 0.51665 0.90089 0.89911 0.0
C854 C 0.49792 0.89909 0.88569 0.0
C855 C 0.48411 0.89945 0.92529 0.0
C856 C 0.48898 0.90155 0.97841 0.0
C857 C 0.50769 0.9034 0.99204 0.0
H858 H 0.46962 0.89804 0.91482 0.0
H859 H 0.65098 0.91527 0.04865 0.0
H860 H 0.68307 0.50539 0.03758 0.0
H861 H 0.65482 0.51229 0.99306 0.0
H862 H 0.65059 0.45557 0.91987 0.0
H863 H 0.67844 0.44851 0.96456 0.0
H864 H 0.64707 0.48242 0.84798 0.0
H865 H 0.62183 0.4666 0.02099 0.0
H866 H 0.61926 0.46997 0.11823 0.0
H867 H 0.60649 0.52815 0.10669 0.0
H868 H 0.60924 0.52518 0.00934 0.0
H869 H 0.54094 0.47776 0.82378 0.0
H870 H 0.5686 0.47518 0.87519 0.0
H871 H 0.59841 0.51977 0.78597 0.0
H872 H 0.57075 0.52247 0.73405 0.0
H873 H 0.58952 0.5009 0.93939 0.0
H874 H 0.64341 0.50734 0.7683 0.0
H875 H 0.64524 0.50173 0.67145 0.0
H876 H 0.59946 0.45831 0.68034 0.0
H877 H 0.59753 0.46349 0.77723 0.0
C878 C 0.67595 0.49431 0.01264 0.0
C879 C 0.68315 0.47647 0.00425 0.0
C880 C 0.65985 0.49829 0.98704 0.0
C881 C 0.65065 0.48448 0.95283 0.0
C882 C 0.65756 0.46654 0.94554 0.0
C883 C 0.67354 0.46254 0.9711 0.0
C884 C 0.63402 0.48862 0.92348 0.0
C885 C 0.63454 0.48659 0.86802 0.0
C886 C 0.61761 0.49395 0.94949 0.0
C887 C 0.61594 0.49573 0.00795 0.0
C888 C 0.61863 0.48016 0.03922 0.0
C889 C 0.61711 0.48199 0.09434 0.0
C890 C 0.61277 0.49928 0.11863 0.0
C891 C 0.60989 0.51477 0.08783 0.0
C892 C 0.61141 0.51302 0.03268 0.0
C893 C 0.55335 0.48705 0.81493 0.0
C894 C 0.55363 0.5002 0.77431 0.0
C895 C 0.56913 0.48563 0.8447 0.0
C896 C 0.5856 0.4972 0.83431 0.0
C897 C 0.58589 0.51058 0.7944 0.0
C898 C 0.57005 0.51209 0.76472 0.0
C899 C 0.6026 0.49465 0.864 0.0
C900 C 0.60216 0.497 0.9194 0.0
C901 C 0.61904 0.48939 0.83803 0.0
C902 C 0.6202 0.48598 0.77989 0.0
C903 C 0.63378 0.49657 0.74955 0.0
C904 C 0.63483 0.49346 0.69467 0.0
C905 C 0.62243 0.47972 0.66974 0.0
C906 C 0.609 0.469 0.69966 0.0
C907 C 0.60791 0.47203 0.75455 0.0
H908 H 0.62325 0.47736 0.62724 0.0
H909 H 0.6116 0.50067 0.16132 0.0
H910 H 0.90269 0.66037 0.95975 0.0
H911 H 0.91381 0.62989 0.92966 0.0
H912 H 0.96362 0.64325 0.01903 0.0
H913 H 0.9527 0.67402 0.04846 0.0
H914 H 0.97142 0.633 0.91783 0.0
H915 H 0.93141 0.60748 0.05579 0.0
H916 H 0.90225 0.60212 0.10801 0.0
H917 H 0.87471 0.57619 0.97133 0.0
H918 H 0.90364 0.58164 0.91804 0.0
H919 H 0.00633 0.54503 0.84573 0.0
H920 H 0.99404 0.57041 0.90096 0.0
H921 H 0.94228 0.56199 0.81876 0.0
H922 H 0.95433 0.53629 0.76376 0.0
H923 H 0.93646 0.56885 0.92407 0.0
H924 H 0.97499 0.59726 0.7847 0.0
H925 H 0.00374 0.60283 0.73072 0.0
H926 H 0.03352 0.62378 0.86895 0.0
H927 H 0.00498 0.61807 0.92391 0.0
C928 C 0.91592 0.65672 0.97346 0.0
C929 C 0.92688 0.66963 0.00619 0.0
C930 C 0.92219 0.63922 0.95659 0.0
C931 C 0.93952 0.63424 0.97228 0.0
C932 C 0.95019 0.64679 0.00655 0.0
C933 C 0.94388 0.6643 0.02364 0.0
C934 C 0.94711 0.61675 0.94908 0.0
C935 C 0.96396 0.61891 0.92021 0.0
C936 C 0.93711 0.59845 0.95087 0.0
C937 C 0.91968 0.59512 0.9828 0.0
C938 C 0.9191 0.60078 0.03673 0.0
C939 C 0.90262 0.59769 0.06656 0.0
C940 C 0.88663 0.58885 0.04298 0.0
C941 C 0.8871 0.58304 0.98954 0.0
C942 C 0.90355 0.58611 0.95952 0.0
C943 C 0.99227 0.54842 0.83959 0.0
C944 C 0.9814 0.53875 0.79981 0.0
C945 C 0.98528 0.56298 0.87121 0.0
C946 C 0.96736 0.56831 0.8634 0.0
C947 C 0.95617 0.55814 0.82537 0.0
C948 C 0.96312 0.54349 0.79382 0.0
C949 C 0.96069 0.58517 0.89277 0.0
C950 C 0.944 0.58291 0.92244 0.0
C951 C 0.97076 0.60344 0.89154 0.0
C952 C 0.9879 0.60705 0.8585 0.0
C953 C 0.9877 0.60293 0.80364 0.0
C954 C 0.00395 0.60612 0.77286 0.0
C955 C 0.02046 0.6136 0.79641 0.0
C956 C 0.02073 0.61795 0.85078 0.0
C957 C 0.00452 0.61475 0.88176 0.0
H958 H 0.03303 0.61606 0.77252 0.0
H959 H 0.87388 0.58648 0.06614 0.0
H960 H 0.1249 0.14904 0.43803 0.0
H961 H 0.10491 0.12302 0.47737 0.0
H962 H 0.06301 0.16168 0.51355 0.0
H963 H 0.08242 0.18751 0.47293 0.0
H964 H 0.06788 0.13736 0.59426 0.0
H965 H 0.05935 0.13422 0.40611 0.0
H966 H 0.06931 0.13168 0.31234 0.0
H967 H 0.08948 0.07724 0.33768 0.0
H968 H 0.08004 0.07968 0.43187 0.0
H969 H 0.99766 0.06188 0.65831 0.0
H970 H 0.01575 0.09105 0.6297 0.0
H971 H 0.0498 0.05645 0.52905 0.0
H972 H 0.02938 0.02837 0.54924 0.0
H973 H 0.04653 0.08198 0.47717 0.0
H974 H 0.06528 0.09058 0.6689 0.0
H975 H 0.06245 0.09816 0.76435 0.0
H976 H 0.02618 0.14139 0.73478 0.0
H977 H 0.02941 0.13451 0.63874 0.0
C978 C 0.1115 0.15206 0.45476 0.0
C979 C 0.10526 0.17037 0.45185 0.0
C980 C 0.10011 0.13718 0.47714 0.0
C981 C 0.08238 0.14041 0.49731 0.0
C982 C 0.07663 0.15892 0.49789 0.0
C983 C 0.0879 0.17374 0.47513 0.0
C984 C 0.06947 0.12443 0.51622 0.0
C985 C 0.06318 0.12513 0.56885 0.0
C986 C 0.06342 0.10861 0.4829 0.0
C987 C 0.06915 0.10723 0.42621 0.0
C988 C 0.06609 0.12181 0.39184 0.0
C989 C 0.07163 0.12038 0.33857 0.0
C990 C 0.08007 0.10434 0.31909 0.0
C991 C 0.08298 0.08968 0.35282 0.0
C992 C 0.07755 0.09109 0.40615 0.0
C993 C 0.00895 0.06075 0.62965 0.0
C994 C 0.01226 0.04291 0.60626 0.0
C995 C 0.01962 0.07742 0.61403 0.0
C996 C 0.03459 0.07632 0.57736 0.0
C997 C 0.0382 0.05815 0.5562 0.0
C998 C 0.0267 0.04188 0.56862 0.0
C999 C 0.04593 0.0937 0.5576 0.0
C1000 C 0.05154 0.0937 0.50374 0.0
C1001 C 0.0517 0.11 0.59011 0.0
C1002 C 0.04728 0.11177 0.64709 0.0
C1003 C 0.05636 0.10137 0.68295 0.0
C1004 C 0.05482 0.10569 0.73714 0.0
C1005 C 0.044 0.12016 0.75578 0.0
C1006 C 0.03449 0.13016 0.72031 0.0
C1007 C 0.03624 0.12613 0.66606 0.0
H1008 H 0.04317 0.1239 0.79753 0.0
H1009 H 0.08432 0.10325 0.27782 0.0
H1010 H 0.33442 0.01922 0.48863 0.0
H1011 H 0.3622 0.01188 0.53512 0.0
H1012 H 0.37331 0.96996 0.41167 0.0
H1013 H 0.34552 0.97676 0.36655 0.0
H1014 H 0.38049 0.95691 0.50218 0.0
H1015 H 0.39529 0.01581 0.41253 0.0
H1016 H 0.39195 0.04921 0.39058 0.0
H1017 H 0.40097 0.06741 0.55254 0.0
H1018 H 0.40441 0.03407 0.57544 0.0
H1019 H 0.48648 0.98877 0.54814 0.0
H1020 H 0.45709 0.99159 0.50417 0.0
H1021 H 0.42745 0.96025 0.62856 0.0
H1022 H 0.45664 0.95684 0.67112 0.0
H1023 H 0.42942 0.00981 0.53806 0.0
H1024 H 0.38752 0.93783 0.58705 0.0
H1025 H 0.39296 0.90401 0.59714 0.0
H1026 H 0.44135 0.91102 0.49522 0.0
H1027 H 0.43607 0.9448 0.48398 0.0
C1028 C 0.34264 0.00819 0.47226 0.0
C1029 C 0.33805 0.99871 0.42382 0.0
C1030 C 0.35854 0.00414 0.49844 0.0
C1031 C 0.36997 0.99061 0.47629 0.0
C1032 C 0.36476 0.98049 0.42938 0.0
C1033 C 0.34895 0.98447 0.40348 0.0
C1034 C 0.38779 0.98734 0.50014 0.0
C1035 C 0.39116 0.96849 0.51032 0.0
C1036 C 0.40186 0.00241 0.50949 0.0
C1037 C 0.39976 0.02242 0.49589 0.0
C1038 C 0.3964 0.02692 0.44355 0.0
C1039 C 0.39456 0.04584 0.43091 0.0
C1040 C 0.39612 0.0604 0.47024 0.0
C1041 C 0.39964 0.05609 0.52225 0.0
C1042 C 0.40159 0.0372 0.53504 0.0
C1043 C 0.47369 0.98208 0.5651 0.0
C1044 C 0.47375 0.97259 0.61276 0.0
C1045 C 0.45694 0.9838 0.54031 0.0
C1046 C 0.44008 0.97604 0.56297 0.0
C1047 C 0.44028 0.966 0.60971 0.0
C1048 C 0.457 0.96407 0.63403 0.0
C1049 C 0.42219 0.97937 0.53963 0.0
C1050 C 0.41875 0.99824 0.53003 0.0
C1051 C 0.40829 0.96425 0.52905 0.0
C1052 C 0.41149 0.94389 0.53512 0.0
C1053 C 0.39928 0.93213 0.56664 0.0
C1054 C 0.40234 0.91297 0.57259 0.0
C1055 C 0.41752 0.90539 0.54697 0.0
C1056 C 0.42964 0.91693 0.5152 0.0
C1057 C 0.42663 0.93609 0.5091 0.0
H1058 H 0.41987 0.89056 0.55165 0.0
H1059 H 0.39471 0.07504 0.46036 0.0
H1060 H 0.46209 0.31251 0.42666 0.0
H1061 H 0.47788 0.3418 0.46569 0.0
H1062 H 0.42571 0.35702 0.53448 0.0
H1063 H 0.40977 0.32809 0.49245 0.0
H1064 H 0.44216 0.38591 0.48795 0.0
H1065 H 0.46259 0.3397 0.60131 0.0
H1066 H 0.47744 0.31163 0.62801 0.0
H1067 H 0.53 0.33588 0.56699 0.0
H1068 H 0.51547 0.36409 0.53928 0.0
H1069 H 0.47722 0.4662 0.63253 0.0
H1070 H 0.46384 0.43417 0.6102 0.0
H1071 H 0.51644 0.42073 0.5406 0.0
H1072 H 0.53046 0.45263 0.56969 0.0
H1073 H 0.50044 0.39071 0.58845 0.0
H1074 H 0.47965 0.43395 0.46517 0.0
H1075 H 0.46592 0.46315 0.44071 0.0
H1076 H 0.4148 0.44398 0.52033 0.0
H1077 H 0.42828 0.41474 0.54572 0.0
C1078 C 0.45415 0.32192 0.4513 0.0
C1079 C 0.43487 0.31806 0.45766 0.0
C1080 C 0.46315 0.33864 0.47357 0.0
C1081 C 0.45306 0.35152 0.50374 0.0
C1082 C 0.4338 0.34726 0.51152 0.0
C1083 C 0.42472 0.33072 0.48813 0.0
C1084 C 0.46234 0.37004 0.52378 0.0
C1085 C 0.45471 0.38688 0.51082 0.0
C1086 C 0.47916 0.37136 0.55188 0.0
C1087 C 0.48787 0.35414 0.56806 0.0
C1088 C 0.4773 0.33909 0.59325 0.0
C1089 C 0.48568 0.32311 0.60865 0.0
C1090 C 0.50465 0.32196 0.59921 0.0
C1091 C 0.5153 0.3368 0.57435 0.0
C1092 C 0.50699 0.35282 0.55888 0.0
C1093 C 0.48621 0.45619 0.61543 0.0
C1094 C 0.50506 0.46156 0.60571 0.0
C1095 C 0.47839 0.43796 0.60089 0.0
C1096 C 0.48902 0.42507 0.57287 0.0
C1097 C 0.50795 0.43043 0.56234 0.0
C1098 C 0.51592 0.44862 0.57863 0.0
C1099 C 0.48007 0.40633 0.55329 0.0
C1100 C 0.48781 0.38956 0.56595 0.0
C1101 C 0.46341 0.40497 0.52466 0.0
C1102 C 0.45501 0.42219 0.50755 0.0
C1103 C 0.46548 0.43596 0.47748 0.0
C1104 C 0.45775 0.45253 0.4635 0.0
C1105 C 0.4395 0.45542 0.479 0.0
C1106 C 0.42892 0.4417 0.5083 0.0
C1107 C 0.43658 0.42511 0.52239 0.0
H1108 H 0.43356 0.46828 0.46827 0.0
H1109 H 0.51111 0.30957 0.61117 0.0
H1110 H 0.17422 0.60631 0.46964 0.0
H1111 H 0.14669 0.60471 0.52839 0.0
H1112 H 0.15337 0.54536 0.55474 0.0
H1113 H 0.18123 0.54731 0.49857 0.0
H1114 H 0.11726 0.58593 0.50449 0.0
H1115 H 0.12967 0.5273 0.65537 0.0
H1116 H 0.15405 0.51985 0.71549 0.0
H1117 H 0.17671 0.57859 0.71832 0.0
H1118 H 0.15239 0.58647 0.65855 0.0
H1119 H 0.03857 0.5233 0.5417 0.0
H1120 H 0.06983 0.53885 0.52675 0.0
H1121 H 0.07065 0.56082 0.68859 0.0
H1122 H 0.03943 0.54487 0.7039 0.0
H1123 H 0.10259 0.54774 0.66341 0.0
H1124 H 0.06558 0.59082 0.58715 0.0
H1125 H 0.04076 0.60107 0.53288 0.0
H1126 H 0.06738 0.57928 0.39238 0.0
H1127 H 0.09222 0.56864 0.44585 0.0
C1128 C 0.17012 0.59319 0.4897 0.0
C1129 C 0.17975 0.57693 0.47964 0.0
C1130 C 0.15439 0.59224 0.52314 0.0
C1131 C 0.14785 0.57491 0.54618 0.0
C1132 C 0.15826 0.55905 0.53876 0.0
C1133 C 0.17418 0.56012 0.50628 0.0
C1134 C 0.12874 0.5723 0.56953 0.0
C1135 C 0.11415 0.57786 0.53979 0.0
C1136 C 0.1245 0.56213 0.61625 0.0
C1137 C 0.13921 0.55747 0.6522 0.0
C1138 C 0.1398 0.53867 0.66895 0.0
C1139 C 0.15363 0.53436 0.70294 0.0
C1140 C 0.16691 0.54874 0.7207 0.0
C1141 C 0.16642 0.56746 0.70445 0.0
C1142 C 0.15265 0.57185 0.67038 0.0
C1143 C 0.04538 0.53158 0.57387 0.0
C1144 C 0.0367 0.53294 0.62385 0.0
C1145 C 0.0632 0.54051 0.56534 0.0
C1146 C 0.07247 0.55126 0.60636 0.0
C1147 C 0.06374 0.55266 0.65637 0.0
C1148 C 0.04594 0.5436 0.665 0.0
C1149 C 0.09143 0.56058 0.59676 0.0
C1150 C 0.10586 0.55625 0.62898 0.0
C1151 C 0.09557 0.57235 0.55316 0.0
C1152 C 0.08074 0.57887 0.5206 0.0
C1153 C 0.06609 0.58812 0.54471 0.0
C1154 C 0.05202 0.59401 0.51407 0.0
C1155 C 0.05248 0.59081 0.45922 0.0
C1156 C 0.06704 0.58175 0.43487 0.0
C1157 C 0.08114 0.57582 0.46532 0.0
H1158 H 0.04157 0.59537 0.43558 0.0
H1159 H 0.17759 0.54538 0.74699 0.0
H1160 H 0.93248 0.81799 0.87277 0.0
H1161 H 0.94808 0.84422 0.82356 0.0
H1162 H 0.90455 0.8798 0.87044 0.0
H1163 H 0.8884 0.85332 0.91819 0.0
H1164 H 0.91892 0.8881 0.77202 0.0
H1165 H 0.94115 0.88042 0.94637 0.0
H1166 H 0.95321 0.8623 0.01735 0.0
H1167 H 0.00117 0.852 0.92039 0.0
H1168 H 0.98921 0.86981 0.84845 0.0
H1169 H 0.98423 0.97641 0.83404 0.0
H1170 H 0.96183 0.94866 0.84599 0.0
H1171 H 0.98625 0.9192 0.71302 0.0
H1172 H 0.00916 0.94703 0.70127 0.0
H1173 H 0.98062 0.90754 0.84821 0.0
H1174 H 0.93047 0.89585 0.67547 0.0
H1175 H 0.9149 0.91315 0.60932 0.0
H1176 H 0.91744 0.96299 0.71297 0.0
H1177 H 0.93394 0.94608 0.779 0.0
C1178 C 0.92577 0.83109 0.87087 0.0
C1179 C 0.90932 0.83367 0.90013 0.0
C1180 C 0.93484 0.84615 0.84312 0.0
C1181 C 0.9277 0.86406 0.8446 0.0
C1182 C 0.91037 0.86612 0.86928 0.0
C1183 C 0.90122 0.85102 0.89681 0.0
C1184 C 0.9393 0.88114 0.82652 0.0
C1185 C 0.93248 0.89234 0.78826 0.0
C1186 C 0.95685 0.88672 0.8485 0.0
C1187 C 0.96421 0.87626 0.8919 0.0
C1188 C 0.95421 0.87418 0.94009 0.0
C1189 C 0.96103 0.86397 0.98048 0.0
C1190 C 0.97793 0.85596 0.97334 0.0
C1191 C 0.98807 0.85819 0.92583 0.0
C1192 C 0.98128 0.86834 0.88524 0.0
C1193 C 0.98485 0.96405 0.80723 0.0
C1194 C 0.9982 0.96398 0.76595 0.0
C1195 C 0.97184 0.94832 0.81369 0.0
C1196 C 0.97197 0.93216 0.77942 0.0
C1197 C 0.98548 0.93185 0.73866 0.0
C1198 C 0.99855 0.94767 0.73207 0.0
C1199 C 0.96037 0.91451 0.79299 0.0
C1200 C 0.96725 0.90316 0.8309 0.0
C1201 C 0.94275 0.90904 0.77117 0.0
C1202 C 0.93449 0.92007 0.73059 0.0
C1203 C 0.92853 0.91078 0.683 0.0
C1204 C 0.91941 0.92045 0.64584 0.0
C1205 C 0.91574 0.93939 0.65639 0.0
C1206 C 0.92101 0.94857 0.70433 0.0
C1207 C 0.93045 0.93901 0.74134 0.0
H1208 H 0.90847 0.94684 0.62788 0.0
H1209 H 0.98319 0.84806 0.00465 0.0
H1210 H 0.63927 0.95005 0.9365 0.0
H1211 H 0.6147 0.96112 0.88465 0.0
H1212 H 0.65204 0.00869 0.83372 0.0
H1213 H 0.6766 0.99797 0.88646 0.0
H1214 H 0.60649 0.99904 0.92081 0.0
H1215 H 0.62986 0.02258 0.71176 0.0
H1216 H 0.64948 0.01274 0.63619 0.0
H1217 H 0.64237 0.95457 0.68463 0.0
H1218 H 0.62252 0.96399 0.76014 0.0
H1219 H 0.55267 0.05063 0.70408 0.0
H1220 H 0.58152 0.04306 0.7432 0.0
H1221 H 0.54958 0.00642 0.85243 0.0
H1222 H 0.52108 0.0164 0.81851 0.0
H1223 H 0.59455 0.01235 0.73464 0.0
H1224 H 0.57148 0.99154 0.94845 0.0
H1225 H 0.55258 0.00352 0.02296 0.0
H1226 H 0.56165 0.06054 0.9662 0.0
H1227 H 0.58077 0.04894 0.89162 0.0
C1228 C 0.64244 0.96251 0.91299 0.0
C1229 C 0.65975 0.97333 0.91649 0.0
C1230 C 0.62842 0.96876 0.88313 0.0
C1231 C 0.63158 0.98578 0.85579 0.0
C1232 C 0.64943 0.99543 0.85428 0.0
C1233 C 0.66346 0.98925 0.88446 0.0
C1234 C 0.61556 0.9955 0.83958 0.0
C1235 C 0.60369 0.00177 0.88001 0.0
C1236 C 0.61265 0.99994 0.78671 0.0
C1237 C 0.62495 0.99407 0.74225 0.0
C1238 C 0.63254 0.00769 0.70644 0.0
C1239 C 0.64367 0.00219 0.66353 0.0
C1240 C 0.64726 0.98307 0.65583 0.0
C1241 C 0.6397 0.96941 0.69094 0.0
C1242 C 0.62855 0.97483 0.73393 0.0
C1243 C 0.55192 0.04182 0.73838 0.0
C1244 C 0.53477 0.03352 0.75758 0.0
C1245 C 0.5684 0.03721 0.76016 0.0
C1246 C 0.56792 0.02398 0.80062 0.0
C1247 C 0.55062 0.01697 0.82224 0.0
C1248 C 0.53424 0.02231 0.80211 0.0
C1249 C 0.58515 0.01582 0.81594 0.0
C1250 C 0.59735 0.00987 0.77556 0.0
C1251 C 0.58874 0.01215 0.86914 0.0
C1252 C 0.57751 0.01935 0.91434 0.0
C1253 C 0.56956 0.00666 0.95209 0.0
C1254 C 0.55877 0.01338 0.99425 0.0
C1255 C 0.5559 0.03278 0.99928 0.0
C1256 C 0.56385 0.04551 0.96219 0.0
C1257 C 0.57464 0.03887 0.91991 0.0
H1258 H 0.54753 0.03794 0.03194 0.0
H1259 H 0.65584 0.97884 0.62247 0.0
H1260 H 0.58703 0.65951 0.97329 0.0
H1261 H 0.57534 0.63218 0.91915 0.0
H1262 H 0.592 0.66225 0.77788 0.0
H1263 H 0.60473 0.68989 0.83245 0.0
H1264 H 0.55515 0.64648 0.77763 0.0
H1265 H 0.61346 0.62429 0.79911 0.0
H1266 H 0.64192 0.61753 0.84347 0.0
H1267 H 0.60979 0.57924 0.94601 0.0
H1268 H 0.58108 0.586 0.90297 0.0
H1269 H 0.50634 0.55741 0.6824 0.0
H1270 H 0.5286 0.58567 0.69248 0.0
H1271 H 0.5359 0.57238 0.85543 0.0
H1272 H 0.51488 0.54333 0.84379 0.0
H1273 H 0.56792 0.58005 0.81275 0.0
H1274 H 0.50931 0.61194 0.80397 0.0
H1275 H 0.48148 0.61913 0.75684 0.0
H1276 H 0.51578 0.6388 0.62518 0.0
H1277 H 0.54378 0.63153 0.67134 0.0
C1278 C 0.58897 0.66027 0.93083 0.0
C1279 C 0.59717 0.67697 0.9075 0.0
C1280 C 0.58209 0.64455 0.8998 0.0
C1281 C 0.58303 0.64507 0.84451 0.0
C1282 C 0.59128 0.66155 0.82057 0.0
C1283 C 0.59845 0.67734 0.85184 0.0
C1284 C 0.57376 0.62878 0.81332 0.0
C1285 C 0.55818 0.63192 0.78414 0.0
C1286 C 0.57783 0.60983 0.82134 0.0
C1287 C 0.59507 0.60571 0.84776 0.0
C1288 C 0.61242 0.61453 0.83137 0.0
C1289 C 0.62862 0.61069 0.85627 0.0
C1290 C 0.62766 0.59797 0.89754 0.0
C1291 C 0.61051 0.58907 0.91399 0.0
C1292 C 0.59427 0.59288 0.88928 0.0
C1293 C 0.51274 0.56061 0.72032 0.0
C1294 C 0.5093 0.54803 0.76192 0.0
C1295 C 0.52534 0.57687 0.72622 0.0
C1296 C 0.53408 0.58122 0.77469 0.0
C1297 C 0.52961 0.56922 0.81731 0.0
C1298 C 0.51742 0.55273 0.81093 0.0
C1299 C 0.54833 0.59777 0.78166 0.0
C1300 C 0.56505 0.59459 0.8054 0.0
C1301 C 0.54537 0.61664 0.76826 0.0
C1302 C 0.52856 0.6211 0.74093 0.0
C1303 C 0.51088 0.61774 0.76491 0.0
C1304 C 0.49509 0.62182 0.73836 0.0
C1305 C 0.49686 0.62938 0.688 0.0
C1306 C 0.51443 0.63292 0.66412 0.0
C1307 C 0.53026 0.62885 0.69048 0.0
H1308 H 0.48462 0.63252 0.66752 0.0
H1309 H 0.64022 0.595 0.91674 0.0
H1310 H 0.83876 0.38864 0.92806 0.0
H1311 H 0.86981 0.39083 0.88667 0.0
H1312 H 0.85452 0.43505 0.78741 0.0
H1313 H 0.82362 0.43314 0.82891 0.0
H1314 H 0.88151 0.41222 0.73941 0.0
H1315 H 0.86967 0.44867 0.90238 0.0
H1316 H 0.85829 0.45129 0.99488 0.0
H1317 H 0.89753 0.41315 0.04109 0.0
H1318 H 0.90892 0.41006 0.94852 0.0
H1319 H 0.95745 0.48199 0.71516 0.0
H1320 H 0.92786 0.46329 0.73168 0.0
H1321 H 0.95487 0.42797 0.83588 0.0
H1322 H 0.98474 0.44655 0.81765 0.0
H1323 H 0.92369 0.43995 0.87989 0.0
H1324 H 0.94059 0.41075 0.71577 0.0
H1325 H 0.95098 0.40878 0.62236 0.0
H1326 H 0.90196 0.43324 0.57605 0.0
H1327 H 0.89162 0.43614 0.66934 0.0
C1328 C 0.84184 0.39838 0.89619 0.0
C1329 C 0.8289 0.41101 0.88252 0.0
C1330 C 0.85953 0.39955 0.87246 0.0
C1331 C 0.86451 0.41337 0.83484 0.0
C1332 C 0.85092 0.42431 0.81647 0.0
C1333 C 0.83323 0.42317 0.84023 0.0
C1334 C 0.88431 0.41909 0.82251 0.0
C1335 C 0.89081 0.41827 0.76988 0.0
C1336 C 0.89642 0.42669 0.86269 0.0
C1337 C 0.88999 0.42897 0.91854 0.0
C1338 C 0.87579 0.44076 0.93224 0.0
C1339 C 0.86934 0.44233 0.98465 0.0
C1340 C 0.87714 0.43234 0.02383 0.0
C1341 C 0.89147 0.42084 0.01067 0.0
C1342 C 0.89793 0.41918 0.95825 0.0
C1343 C 0.95719 0.46976 0.73961 0.0
C1344 C 0.97341 0.46516 0.76318 0.0
C1345 C 0.94025 0.45921 0.74969 0.0
C1346 C 0.93924 0.44389 0.78392 0.0
C1347 C 0.9554 0.43956 0.80873 0.0
C1348 C 0.97239 0.45017 0.79847 0.0
C1349 C 0.92101 0.43338 0.79634 0.0
C1350 C 0.91469 0.43345 0.84922 0.0
C1351 C 0.90909 0.42525 0.75616 0.0
C1352 C 0.91539 0.4238 0.69984 0.0
C1353 C 0.93214 0.41598 0.68581 0.0
C1354 C 0.93804 0.41472 0.63282 0.0
C1355 C 0.92719 0.421 0.59332 0.0
C1356 C 0.91042 0.42853 0.60673 0.0
C1357 C 0.90455 0.43002 0.65969 0.0
H1358 H 0.93175 0.41995 0.5523 0.0
H1359 H 0.87211 0.43356 0.06439 0.0
H1360 H 0.12342 0.19224 0.00985 0.0
H1361 H 0.11139 0.16436 0.95649 0.0
H1362 H 0.05607 0.18243 0.97399 0.0
H1363 H 0.06804 0.21006 0.02911 0.0
H1364 H 0.05632 0.14721 0.00437 0.0
H1365 H 0.07936 0.18019 0.85159 0.0
H1366 H 0.1021 0.19871 0.79489 0.0
H1367 H 0.13775 0.15309 0.79255 0.0
H1368 H 0.11533 0.13439 0.84986 0.0
H1369 H 0.01349 0.07724 0.82422 0.0
H1370 H 0.02601 0.10549 0.8755 0.0
H1371 H 0.07986 0.08367 0.87273 0.0
H1372 H 0.06713 0.0549 0.82251 0.0
H1373 H 0.08069 0.12032 0.83513 0.0
H1374 H 0.05655 0.0873 0.98744 0.0
H1375 H 0.03291 0.06894 0.04176 0.0
H1376 H 0.99812 0.11524 0.04173 0.0
H1377 H 0.02145 0.13379 0.98675 0.0
C1378 C 0.10878 0.19058 0.00092 0.0
C1379 C 0.09665 0.20325 0.02392 0.0
C1380 C 0.1019 0.17463 0.97029 0.0
C1381 C 0.08279 0.1712 0.9614 0.0
C1382 C 0.07087 0.18473 0.98058 0.0
C1383 C 0.07775 0.20067 0.01148 0.0
C1384 C 0.07508 0.15249 0.93778 0.0
C1385 C 0.06141 0.14151 0.96682 0.0
C1386 C 0.08216 0.14472 0.88973 0.0
C1387 C 0.09573 0.15597 0.85549 0.0
C1388 C 0.09212 0.17418 0.8394 0.0
C1389 C 0.10494 0.18469 0.80705 0.0
C1390 C 0.12138 0.1771 0.79025 0.0
C1391 C 0.12502 0.15896 0.80566 0.0
C1392 C 0.11225 0.14839 0.83803 0.0
C1393 C 0.02794 0.07835 0.83516 0.0
C1394 C 0.03945 0.0641 0.81889 0.0
C1395 C 0.03503 0.09439 0.86493 0.0
C1396 C 0.05388 0.09672 0.87772 0.0
C1397 C 0.06528 0.08215 0.86309 0.0
C1398 C 0.05804 0.06581 0.83434 0.0
C1399 C 0.06189 0.1152 0.90155 0.0
C1400 C 0.07562 0.12609 0.87262 0.0
C1401 C 0.05475 0.12297 0.9494 0.0
C1402 C 0.0407 0.11187 0.98258 0.0
C1403 C 0.0438 0.09351 0.99863 0.0
C1404 C 0.03046 0.08308 0.02963 0.0
C1405 C 0.01401 0.09091 0.04509 0.0
C1406 C 0.01087 0.1092 0.02969 0.0
C1407 C 0.02415 0.11968 0.99867 0.0
H1408 H 0.0037 0.08281 0.06909 0.0
H1409 H 0.13129 0.18526 0.76519 0.0
H1410 H 0.3054 0.98803 0.95349 0.0
H1411 H 0.32937 0.98409 0.8846 0.0
H1412 H 0.34841 0.04397 0.90393 0.0
H1413 H 0.3241 0.04796 0.97112 0.0
H1414 H 0.35696 0.03254 0.80771 0.0
H1415 H 0.36436 0.00976 0.98213 0.0
H1416 H 0.35544 0.99034 0.05947 0.0
H1417 H 0.35767 0.93886 0.96294 0.0
H1418 H 0.36637 0.95802 0.88485 0.0
H1419 H 0.45851 0.00341 0.83323 0.0
H1420 H 0.42695 0.0054 0.86895 0.0
H1421 H 0.40627 0.00398 0.71021 0.0
H1422 H 0.43791 0.00322 0.67462 0.0
H1423 H 0.39695 0.9847 0.86986 0.0
H1424 H 0.36702 0.02667 0.70448 0.0
H1425 H 0.37775 0.05012 0.63765 0.0
H1426 H 0.42464 0.06971 0.73235 0.0
H1427 H 0.41399 0.04664 0.8002 0.0
C1428 C 0.31393 0.00056 0.9405 0.0
C1429 C 0.31283 0.01833 0.96733 0.0
C1430 C 0.32789 0.99825 0.90182 0.0
C1431 C 0.34116 0.01359 0.89026 0.0
C1432 C 0.3385 0.03185 0.91223 0.0
C1433 C 0.32445 0.0342 0.95036 0.0
C1434 C 0.35917 0.01028 0.8626 0.0
C1435 C 0.36561 0.02191 0.82083 0.0
C1436 C 0.37082 0.99685 0.88064 0.0
C1437 C 0.3658 0.98531 0.92758 0.0
C1438 C 0.36285 0.9943 0.97737 0.0
C1439 C 0.35784 0.98335 0.02132 0.0
C1440 C 0.35593 0.96339 0.01608 0.0
C1441 C 0.3591 0.95433 0.96691 0.0
C1442 C 0.36407 0.96522 0.92279 0.0
C1443 C 0.44722 0.00355 0.80601 0.0
C1444 C 0.45075 0.00336 0.75116 0.0
C1445 C 0.42912 0.00463 0.82643 0.0
C1446 C 0.41408 0.0052 0.79249 0.0
C1447 C 0.41756 0.00417 0.73753 0.0
C1448 C 0.4357 0.0036 0.71715 0.0
C1449 C 0.3949 0.00702 0.81486 0.0
C1450 C 0.38823 0.99511 0.85585 0.0
C1451 C 0.38337 0.02071 0.79738 0.0
C1452 C 0.38982 0.03476 0.75708 0.0
C1453 C 0.37958 0.03603 0.7111 0.0
C1454 C 0.38564 0.04926 0.67307 0.0
C1455 C 0.40191 0.06134 0.68065 0.0
C1456 C 0.41209 0.06029 0.72643 0.0
C1457 C 0.40604 0.04715 0.7647 0.0
H1458 H 0.40661 0.07155 0.65115 0.0
H1459 H 0.35205 0.95493 0.05015 0.0
H1460 H 0.44698 0.3028 0.01027 0.0
H1461 H 0.4572 0.32933 0.95304 0.0
H1462 H 0.40041 0.34228 0.94042 0.0
H1463 H 0.39019 0.31588 0.99768 0.0
H1464 H 0.45034 0.344 0.85477 0.0
H1465 H 0.3996 0.39013 0.97078 0.0
H1466 H 0.38254 0.39017 0.05657 0.0
H1467 H 0.42414 0.35944 0.12431 0.0
H1468 H 0.44163 0.35958 0.03934 0.0
H1469 H 0.45412 0.4329 0.73449 0.0
H1470 H 0.44213 0.40323 0.77575 0.0
H1471 H 0.46667 0.42387 0.92327 0.0
H1472 H 0.4779 0.45407 0.88257 0.0
H1473 H 0.43432 0.405 0.9428 0.0
H1474 H 0.48943 0.38829 0.84185 0.0
H1475 H 0.50896 0.38908 0.76018 0.0
H1476 H 0.46279 0.36302 0.67179 0.0
H1477 H 0.44336 0.36127 0.75313 0.0
C1478 C 0.43662 0.31078 0.99334 0.0
C1479 C 0.41782 0.30742 0.00871 0.0
C1480 C 0.44248 0.32601 0.9609 0.0
C1481 C 0.4296 0.33805 0.94355 0.0
C1482 C 0.41061 0.33336 0.9541 0.0
C1483 C 0.40477 0.31822 0.98655 0.0
C1484 C 0.4361 0.3568 0.92101 0.0
C1485 C 0.44677 0.3573 0.87393 0.0
C1486 C 0.43189 0.37425 0.94667 0.0
C1487 C 0.4218 0.37469 0.9985 0.0
C1488 C 0.40516 0.3835 0.00409 0.0
C1489 C 0.39541 0.38348 0.05257 0.0
C1490 C 0.40222 0.37476 0.09581 0.0
C1491 C 0.41886 0.36615 0.09077 0.0
C1492 C 0.42869 0.3662 0.04246 0.0
C1493 C 0.45678 0.43118 0.77589 0.0
C1494 C 0.46699 0.44571 0.80535 0.0
C1495 C 0.45008 0.41413 0.79933 0.0
C1496 C 0.45392 0.41104 0.8523 0.0
C1497 C 0.46361 0.42585 0.88228 0.0
C1498 C 0.47003 0.44308 0.85904 0.0
C1499 C 0.44822 0.39221 0.87588 0.0
C1500 C 0.43779 0.39169 0.92345 0.0
C1501 C 0.45303 0.37479 0.85152 0.0
C1502 C 0.46504 0.37456 0.80338 0.0
C1503 C 0.48359 0.38247 0.80499 0.0
C1504 C 0.49466 0.383 0.75883 0.0
C1505 C 0.48722 0.37583 0.71085 0.0
C1506 C 0.46872 0.3681 0.709 0.0
C1507 C 0.45771 0.36719 0.75519 0.0
H1508 H 0.49578 0.37633 0.67517 0.0
H1509 H 0.39462 0.3747 0.13324 0.0
H1510 H 0.20749 0.50819 0.01656 0.0
H1511 H 0.1829 0.50316 0.95124 0.0
H1512 H 0.1774 0.56385 0.95586 0.0
H1513 H 0.20183 0.56887 0.02117 0.0
H1514 H 0.14515 0.54512 0.97506 0.0
H1515 H 0.19296 0.54068 0.84476 0.0
H1516 H 0.22102 0.52952 0.80091 0.0
H1517 H 0.1941 0.47248 0.78648 0.0
H1518 H 0.16595 0.48323 0.83097 0.0
H1519 H 0.08674 0.52053 0.72335 0.0
H1520 H 0.11713 0.52827 0.76379 0.0
H1521 H 0.096 0.50243 0.90769 0.0
H1522 H 0.06558 0.49501 0.86789 0.0
H1523 H 0.14264 0.50697 0.80573 0.0
H1524 H 0.11298 0.52917 0.01199 0.0
H1525 H 0.08528 0.54309 0.05014 0.0
H1526 H 0.07752 0.56994 0.90386 0.0
H1527 H 0.10531 0.55642 0.86511 0.0
C1528 C 0.20146 0.5205 0.00228 0.0
C1529 C 0.20649 0.53891 0.02424 0.0
C1530 C 0.18735 0.51762 0.96502 0.0
C1531 C 0.17816 0.53311 0.94881 0.0
C1532 C 0.18413 0.55164 0.96803 0.0
C1533 C 0.19814 0.55451 0.00525 0.0
C1534 C 0.16104 0.52987 0.9169 0.0
C1535 C 0.14469 0.53684 0.93792 0.0
C1536 C 0.16039 0.51934 0.86794 0.0
C1537 C 0.17738 0.51274 0.84174 0.0
C1538 C 0.19309 0.5257 0.83283 0.0
C1539 C 0.20899 0.51947 0.80768 0.0
C1540 C 0.20936 0.50029 0.79104 0.0
C1541 C 0.1938 0.48733 0.79943 0.0
C1542 C 0.17785 0.49349 0.82455 0.0
C1543 C 0.08865 0.51641 0.7635 0.0
C1544 C 0.0738 0.50726 0.79266 0.0
C1545 C 0.10603 0.52075 0.78642 0.0
C1546 C 0.10883 0.51606 0.83887 0.0
C1547 C 0.09412 0.50641 0.8674 0.0
C1548 C 0.07675 0.50213 0.84461 0.0
C1549 C 0.12684 0.52183 0.86475 0.0
C1550 C 0.14325 0.51534 0.84271 0.0
C1551 C 0.12771 0.53317 0.91226 0.0
C1552 C 0.11114 0.54163 0.93554 0.0
C1553 C 0.10541 0.53812 0.98806 0.0
C1554 C 0.08969 0.54593 0.00977 0.0
C1555 C 0.07962 0.55734 0.9794 0.0
C1556 C 0.08529 0.56104 0.9273 0.0
C1557 C 0.10102 0.55329 0.90542 0.0
H1558 H 0.06744 0.56335 0.99626 0.0
H1559 H 0.22169 0.49549 0.77155 0.0
H1560 H 0.89678 0.81158 0.35719 0.0
H1561 H 0.90699 0.83772 0.41954 0.0
H1562 H 0.96307 0.8216 0.40579 0.0
H1563 H 0.95283 0.79524 0.34369 0.0
H1564 H 0.95434 0.8363 0.50701 0.0
H1565 H 0.95062 0.85306 0.32603 0.0
H1566 H 0.93496 0.85393 0.24093 0.0
H1567 H 0.89363 0.8868 0.3152 0.0
H1568 H 0.9088 0.88572 0.4011 0.0
H1569 H 0.00124 0.9267 0.57335 0.0
H1570 H 0.99006 0.89643 0.5295 0.0
H1571 H 0.93525 0.91566 0.52262 0.0
H1572 H 0.94666 0.94643 0.56513 0.0
H1573 H 0.94335 0.89862 0.4332 0.0
H1574 H 0.9479 0.8827 0.61312 0.0
H1575 H 0.96285 0.88102 0.69943 0.0
H1576 H 0.00294 0.84629 0.62654 0.0
H1577 H 0.9883 0.8481 0.54009 0.0
C1578 C 0.91116 0.81324 0.36887 0.0
C1579 C 0.92406 0.80154 0.3454 0.0
C1580 C 0.91699 0.8282 0.40427 0.0
C1581 C 0.93586 0.83185 0.41625 0.0
C1582 C 0.94846 0.81907 0.39685 0.0
C1583 C 0.94259 0.80398 0.36158 0.0
C1584 C 0.94267 0.85021 0.44322 0.0
C1585 C 0.95214 0.84995 0.49074 0.0
C1586 C 0.93959 0.86799 0.42208 0.0
C1587 C 0.93075 0.86915 0.37014 0.0
C1588 C 0.93812 0.86037 0.3243 0.0
C1589 C 0.92933 0.86089 0.27592 0.0
C1590 C 0.91329 0.87038 0.27268 0.0
C1591 C 0.90604 0.87942 0.3178 0.0
C1592 C 0.91473 0.87886 0.36636 0.0
C1593 C 0.98679 0.92448 0.56251 0.0
C1594 C 0.97478 0.93887 0.57269 0.0
C1595 C 0.98038 0.90709 0.53776 0.0
C1596 C 0.9617 0.90353 0.52368 0.0
C1597 C 0.9497 0.91801 0.5334 0.0
C1598 C 0.95619 0.93556 0.55771 0.0
C1599 C 0.95484 0.88487 0.49781 0.0
C1600 C 0.9455 0.88504 0.44993 0.0
C1601 C 0.95818 0.86703 0.51856 0.0
C1602 C 0.96707 0.86574 0.57034 0.0
C1603 C 0.95995 0.87485 0.61583 0.0
C1604 C 0.96836 0.87386 0.66462 0.0
C1605 C 0.98387 0.86359 0.66845 0.0
C1606 C 0.99094 0.85427 0.62352 0.0
C1607 C 0.98257 0.85527 0.57462 0.0
H1608 H 0.99037 0.86282 0.70624 0.0
H1609 H 0.9065 0.87076 0.2352 0.0
H1610 H 0.67812 0.01906 0.33394 0.0
H1611 H 0.65471 0.02209 0.40393 0.0
H1612 H 0.67892 0.97968 0.49207 0.0
H1613 H 0.70234 0.97634 0.42049 0.0
H1614 H 0.64317 0.97079 0.48718 0.0
H1615 H 0.67884 0.02741 0.54021 0.0
H1616 H 0.69773 0.05828 0.53199 0.0
H1617 H 0.6512 0.08296 0.46946 0.0
H1618 H 0.63208 0.05217 0.47657 0.0
H1619 H 0.56935 0.98657 0.67848 0.0
H1620 H 0.60077 0.98614 0.64016 0.0
H1621 H 0.58513 0.01797 0.50888 0.0
H1622 H 0.55356 0.01815 0.54629 0.0
H1623 H 0.62018 0.0318 0.55431 0.0
H1624 H 0.58627 0.97216 0.49424 0.0
H1625 H 0.56819 0.94117 0.50817 0.0
H1626 H 0.61339 0.92206 0.5922 0.0
H1627 H 0.63168 0.953 0.57912 0.0
C1628 C 0.67878 0.01078 0.36896 0.0
C1629 C 0.69211 0.99756 0.37196 0.0
C1630 C 0.6654 0.01256 0.40919 0.0
C1631 C 0.66503 0.00126 0.45388 0.0
C1632 C 0.67891 0.98862 0.45818 0.0
C1633 C 0.6924 0.98684 0.41761 0.0
C1634 C 0.64902 0.00147 0.49254 0.0
C1635 C 0.63844 0.98413 0.50294 0.0
C1636 C 0.64264 0.01882 0.51317 0.0
C1637 C 0.65405 0.03742 0.50865 0.0
C1638 C 0.67266 0.03938 0.52433 0.0
C1639 C 0.68341 0.05688 0.51993 0.0
C1640 C 0.67568 0.07256 0.50014 0.0
C1641 C 0.65717 0.0708 0.48479 0.0
C1642 C 0.64636 0.05333 0.48909 0.0
C1643 C 0.57256 0.99348 0.6414 0.0
C1644 C 0.55884 0.00227 0.61519 0.0
C1645 C 0.59057 0.99324 0.61964 0.0
C1646 C 0.59531 0.002 0.57162 0.0
C1647 C 0.58178 0.01114 0.54602 0.0
C1648 C 0.5637 0.01113 0.5673 0.0
C1649 C 0.61416 0.00126 0.5469 0.0
C1650 C 0.6252 0.01849 0.5393 0.0
C1651 C 0.62111 0.9838 0.52972 0.0
C1652 C 0.6102 0.96508 0.53676 0.0
C1653 C 0.59228 0.96144 0.51623 0.0
C1654 C 0.58201 0.94385 0.52379 0.0
C1655 C 0.58959 0.9297 0.55135 0.0
C1656 C 0.6075 0.93307 0.5711 0.0
C1657 C 0.61782 0.95064 0.56364 0.0
H1658 H 0.58161 0.91608 0.55717 0.0
H1659 H 0.68402 0.0861 0.49677 0.0
H1660 H 0.56126 0.69352 0.33055 0.0
H1661 H 0.55137 0.67023 0.39692 0.0
H1662 H 0.60474 0.68082 0.47052 0.0
H1663 H 0.61494 0.70338 0.40155 0.0
H1664 H 0.59837 0.64555 0.45879 0.0
H1665 H 0.56082 0.69157 0.53351 0.0
H1666 H 0.53863 0.7162 0.53762 0.0
H1667 H 0.49583 0.6751 0.47784 0.0
H1668 H 0.51782 0.65027 0.47259 0.0
H1669 H 0.5626 0.57313 0.6415 0.0
H1670 H 0.57374 0.60483 0.60916 0.0
H1671 H 0.5341 0.59725 0.48399 0.0
H1672 H 0.52312 0.56561 0.51563 0.0
H1673 H 0.53548 0.63389 0.54062 0.0
H1674 H 0.5768 0.5901 0.45446 0.0
H1675 H 0.59957 0.56608 0.45595 0.0
H1676 H 0.63604 0.60522 0.54837 0.0
H1677 H 0.61335 0.62938 0.54795 0.0
C1678 C 0.57059 0.69136 0.36213 0.0
C1679 C 0.5887 0.70043 0.36174 0.0
C1680 C 0.56494 0.67805 0.40027 0.0
C1681 C 0.57718 0.6738 0.43957 0.0
C1682 C 0.59499 0.68379 0.44085 0.0
C1683 C 0.60077 0.69684 0.4019 0.0
C1684 C 0.57215 0.65735 0.47453 0.0
C1685 C 0.58476 0.64337 0.47782 0.0
C1686 C 0.55437 0.65417 0.49937 0.0
C1687 C 0.54104 0.66907 0.50237 0.0
C1688 C 0.54672 0.6878 0.52087 0.0
C1689 C 0.53416 0.7018 0.52345 0.0
C1690 C 0.51584 0.69723 0.50792 0.0
C1691 C 0.51003 0.67863 0.48986 0.0
C1692 C 0.52253 0.66457 0.48715 0.0
C1693 C 0.55643 0.57819 0.60676 0.0
C1694 C 0.54216 0.56686 0.58062 0.0
C1695 C 0.56272 0.5963 0.58856 0.0
C1696 C 0.55472 0.60336 0.5442 0.0
C1697 C 0.5404 0.59209 0.51841 0.0
C1698 C 0.53425 0.57396 0.53622 0.0
C1699 C 0.56149 0.62225 0.52322 0.0
C1700 C 0.5492 0.63654 0.5226 0.0
C1701 C 0.57966 0.62591 0.50184 0.0
C1702 C 0.59331 0.61144 0.5017 0.0
C1703 C 0.58961 0.59351 0.47546 0.0
C1704 C 0.60251 0.57989 0.47603 0.0
C1705 C 0.61922 0.5841 0.50238 0.0
C1706 C 0.62308 0.60196 0.52806 0.0
C1707 C 0.61021 0.61563 0.52764 0.0
H1708 H 0.62919 0.57354 0.50278 0.0
H1709 H 0.50615 0.70809 0.50995 0.0
H1710 H 0.81211 0.44228 0.35755 0.0
H1711 H 0.83398 0.45321 0.4265 0.0
H1712 H 0.83434 0.51115 0.3755 0.0
H1713 H 0.81255 0.50007 0.30553 0.0
H1714 H 0.86846 0.50071 0.37608 0.0
H1715 H 0.81835 0.49849 0.50107 0.0
H1716 H 0.78992 0.48522 0.5475 0.0
H1717 H 0.8186 0.43871 0.59911 0.0
H1718 H 0.84714 0.45151 0.55232 0.0
H1719 H 0.93835 0.52829 0.56577 0.0
H1720 H 0.90857 0.52629 0.52072 0.0
H1721 H 0.9013 0.4655 0.54328 0.0
H1722 H 0.93102 0.46743 0.58852 0.0
H1723 H 0.86889 0.48246 0.56336 0.0
H1724 H 0.9168 0.48196 0.42672 0.0
H1725 H 0.94526 0.49459 0.37916 0.0
H1726 H 0.92017 0.54604 0.34923 0.0
H1727 H 0.89163 0.5338 0.39728 0.0
C1728 C 0.81637 0.45745 0.36227 0.0
C1729 C 0.81067 0.47034 0.32626 0.0
C1730 C 0.82885 0.46372 0.40181 0.0
C1731 C 0.83586 0.48304 0.40638 0.0
C1732 C 0.82913 0.49618 0.3728 0.0
C1733 C 0.81654 0.48989 0.33319 0.0
C1734 C 0.85193 0.48878 0.44102 0.0
C1735 C 0.86836 0.49718 0.41745 0.0
C1736 C 0.85204 0.48374 0.49467 0.0
C1737 C 0.83488 0.47592 0.52283 0.0
C1738 C 0.81857 0.48534 0.52194 0.0
C1739 C 0.80243 0.47792 0.54841 0.0
C1740 C 0.80244 0.46112 0.57616 0.0
C1741 C 0.81861 0.45172 0.57758 0.0
C1742 C 0.83478 0.45907 0.55115 0.0
C1743 C 0.93034 0.51452 0.56128 0.0
C1744 C 0.93702 0.49798 0.58023 0.0
C1745 C 0.91336 0.51339 0.53554 0.0
C1746 C 0.90276 0.4957 0.52839 0.0
C1747 C 0.90922 0.47927 0.54853 0.0
C1748 C 0.92624 0.48037 0.57403 0.0
C1749 C 0.88532 0.49408 0.49803 0.0
C1750 C 0.86876 0.48636 0.52233 0.0
C1751 C 0.88505 0.49971 0.44501 0.0
C1752 C 0.90219 0.50708 0.41616 0.0
C1753 C 0.91742 0.49604 0.41041 0.0
C1754 C 0.93355 0.50311 0.38329 0.0
C1755 C 0.93455 0.52114 0.36135 0.0
C1756 C 0.91939 0.5321 0.36636 0.0
C1757 C 0.90324 0.52511 0.39351 0.0
H1758 H 0.94704 0.52658 0.34034 0.0
H1759 H 0.78994 0.4554 0.59664 0.0
loop_
_geom_bond_atom_site_label_1
_geom_bond_atom_site_label_2
_geom_bond_distance
_geom_bond_site_symmetry_2
_ccdc_geom_bond_type
C0 C1 1.391 . S
C0 C4 1.391 . S
C0 H42 0.948 . S
C1 C0 1.391 . S
C1 C2 1.391 . S
C2 C1 1.391 . S
C2 H58 0.947 . S
C2 C59 1.392 . S
C3 C4 1.391 . S
C3 C7 1.397 . S
C3 C59 1.419 . S
C4 C0 1.391 . S
C4 C3 1.391 . S
C4 C5 1.399 . S
C5 C4 1.399 . S
C5 C8 1.396 . S
C5 C17 1.453 . S
C5 C18 1.684 . S
H6 C30 0.948 . S
C7 C3 1.397 . S
C7 C8 1.394 . S
C7 C26 1.723 . S
C8 C5 1.396 . S
C8 C7 1.394 . S
C8 C38 1.723 . S
H9 C32 0.947 . S
H10 C33 0.948 . S
H11 C39 0.982 . S
H12 C40 0.979 . S
H13 C40 0.980 . S
H14 C40 0.983 . S
H15 C39 0.979 . S
H16 C39 0.977 . S
C17 C5 1.453 . S
C17 H46 0.982 . S
C17 H47 0.979 . S
C17 H48 0.977 . S
C18 C5 1.684 . S
C18 H43 0.979 . S
C18 H44 0.980 . S
C18 H45 0.983 . S
C19 C20 1.391 . S
C19 C24 1.391 . S
C19 H49 0.948 . S
C20 C19 1.391 . S
C20 C21 1.391 . S
C21 C20 1.391 . S
C21 C22 1.392 . S
C21 H50 0.947 . S
C22 C21 1.392 . S
C22 C23 1.419 . S
C22 H51 0.948 . S
C23 C22 1.419 . S
C23 C24 1.391 . S
C23 C27 1.397 1_556 S
C24 C19 1.391 . S
C24 C23 1.391 . S
C24 C25 1.399 1_556 S
C25 C24 1.399 1_554 S
C25 C26 1.396 . S
C25 C28 1.453 . S
C25 C29 1.684 . S
C26 C7 1.723 . S
C26 C25 1.396 . S
C26 C27 1.394 . S
C27 C23 1.397 1_554 S
C27 C26 1.394 . S
C27 C37 1.723 . S
C28 C25 1.453 . S
C28 H52 0.982 . S
C28 H53 0.979 . S
C28 H54 0.977 . S
C29 C25 1.684 . S
C29 H55 0.979 . S
C29 H56 0.980 . S
C29 H57 0.983 . S
C30 H6 0.948 . S
C30 C31 1.391 1_556 S
C30 C35 1.391 1_556 S
C31 C30 1.391 1_554 S
C31 C32 1.391 . S
C32 H9 0.947 . S
C32 C31 1.391 . S
C32 C33 1.392 . S
C33 H10 0.948 . S
C33 C32 1.392 . S
C33 C34 1.419 . S
C34 C33 1.419 . S
C34 C35 1.391 . S
C34 C38 1.397 . S
C35 C30 1.391 1_554 S
C35 C34 1.391 . S
C35 C36 1.399 1_554 S
C36 C35 1.399 1_556 S
C36 C37 1.396 1_556 S
C36 C39 1.453 . S
C36 C40 1.684 . S
C37 C27 1.723 . S
C37 C36 1.396 1_554 S
C37 C38 1.394 . S
C38 C8 1.723 . S
C38 C34 1.397 . S
C38 C37 1.394 . S
C39 H11 0.982 . S
C39 H15 0.979 . S
C39 H16 0.977 . S
C39 C36 1.453 . S
C40 H12 0.979 . S
C40 H13 0.980 . S
C40 H14 0.983 . S
C40 C36 1.684 . S
H41 C59 0.948 . S
H42 C0 0.948 . S
H43 C18 0.979 . S
H44 C18 0.980 . S
H45 C18 0.983 . S
H46 C17 0.982 . S
H47 C17 0.979 . S
H48 C17 0.977 . S
H49 C19 0.948 . S
H50 C21 0.947 . S
H51 C22 0.948 . S
H52 C28 0.982 . S
H53 C28 0.979 . S
H54 C28 0.977 . S
H55 C29 0.979 . S
H56 C29 0.980 . S
H57 C29 0.983 . S
H58 C2 0.947 . S
C59 C2 1.392 . S
C59 C3 1.419 . S
C59 H41 0.948 . S
C60 C61 1.391 . S
C60 C64 1.391 . S
C60 H102 0.948 . S
C61 C60 1.391 . S
C61 C62 1.391 . S
C62 C61 1.391 . S
C62 H118 0.947 . S
C62 C119 1.392 . S
C63 C64 1.391 . S
C63 C67 1.397 . S
C63 C119 1.419 . S
C64 C60 1.391 . S
C64 C63 1.391 . S
C64 C65 1.399 . S
C65 C64 1.399 . S
C65 C68 1.396 . S
C65 C77 1.453 . S
C65 C78 1.684 . S
H66 C90 0.948 . S
C67 C63 1.397 . S
C67 C68 1.394 . S
C67 C86 1.723 1_556 S
C68 C65 1.396 . S
C68 C67 1.394 . S
C68 C98 1.723 1_556 S
H69 C92 0.947 . S
H70 C93 0.948 . S
H71 C99 0.982 . S
H72 C100 0.979 . S
H73 C100 0.980 . S
H74 C100 0.983 . S
H75 C99 0.979 . S
H76 C99 0.977 . S
C77 C65 1.453 . S
C77 H106 0.982 . S
C77 H107 0.979 . S
C77 H108 0.977 . S
C78 C65 1.684 . S
C78 H103 0.979 . S
C78 H104 0.980 . S
C78 H105 0.983 . S
C79 C80 1.391 . S
C79 C84 1.391 . S
C79 H109 0.948 . S
C80 C79 1.391 . S
C80 C81 1.391 . S
C81 C80 1.391 . S
C81 C82 1.392 . S
C81 H110 0.947 . S
C82 C81 1.392 . S
C82 C83 1.419 . S
C82 H111 0.948 . S
C83 C82 1.419 . S
C83 C84 1.391 . S
C83 C87 1.397 . S
C84 C79 1.391 . S
C84 C83 1.391 . S
C84 C85 1.399 . S
C85 C84 1.399 . S
C85 C86 1.396 . S
C85 C88 1.453 . S
C85 C89 1.684 . S
C86 C67 1.723 1_554 S
C86 C85 1.396 . S
C86 C87 1.394 . S
C87 C83 1.397 . S
C87 C86 1.394 . S
C87 C97 1.723 . S
C88 C85 1.453 . S
C88 H112 0.982 . S
C88 H113 0.979 . S
C88 H114 0.977 . S
C89 C85 1.684 . S
C89 H115 0.979 . S
C89 H116 0.980 . S
C89 H117 0.983 . S
C90 H66 0.948 . S
C90 C91 1.391 1_554 S
C90 C95 1.391 . S
C91 C90 1.391 1_556 S
C91 C92 1.391 . S
C92 H69 0.947 . S
C92 C91 1.391 . S
C92 C93 1.392 . S
C93 H70 0.948 . S
C93 C92 1.392 . S
C93 C94 1.419 . S
C94 C93 1.419 . S
C94 C95 1.391 1_556 S
C94 C98 1.397 1_556 S
C95 C90 1.391 . S
C95 C94 1.391 1_554 S
C95 C96 1.399 . S
C96 C95 1.399 . S
C96 C97 1.396 . S
C96 C99 1.453 . S
C96 C100 1.684 . S
C97 C87 1.723 . S
C97 C96 1.396 . S
C97 C98 1.394 . S
C98 C68 1.723 1_554 S
C98 C94 1.397 1_554 S
C98 C97 1.394 . S
C99 H71 0.982 . S
C99 H75 0.979 . S
C99 H76 0.977 . S
C99 C96 1.453 . S
C100 H72 0.979 . S
C100 H73 0.980 . S
C100 H74 0.983 . S
C100 C96 1.684 . S
H101 C119 0.948 1_554 S
H102 C60 0.948 . S
H103 C78 0.979 . S
H104 C78 0.980 . S
H105 C78 0.983 . S
H106 C77 0.982 . S
H107 C77 0.979 . S
H108 C77 0.977 . S
H109 C79 0.948 . S
H110 C81 0.947 . S
H111 C82 0.948 . S
H112 C88 0.982 . S
H113 C88 0.979 . S
H114 C88 0.977 . S
H115 C89 0.979 . S
H116 C89 0.980 . S
H117 C89 0.983 . S
H118 C62 0.947 . S
C119 C62 1.392 . S
C119 C63 1.419 . S
C119 H101 0.948 1_556 S
C120 C121 1.391 . S
C120 C124 1.391 . S
C120 H162 0.948 . S
C121 C120 1.391 . S
C121 C122 1.391 1_554 S
C122 C121 1.391 1_556 S
C122 H178 0.947 . S
C122 C179 1.392 1_556 S
C123 C124 1.391 . S
C123 C127 1.398 1_565 S
C123 C179 1.419 . S
C124 C120 1.391 . S
C124 C123 1.391 . S
C124 C125 1.399 . S
C125 C124 1.399 . S
C125 C128 1.383 1_565 S
C125 C137 1.453 1_565 S
C125 C138 1.684 . S
H126 C150 0.948 . S
C127 C123 1.398 1_545 S
C127 C128 1.396 . S
C127 C146 1.716 . S
C128 C125 1.383 1_545 S
C128 C127 1.396 . S
C128 C158 1.726 . S
H129 C152 0.947 . S
H130 C153 0.948 . S
H131 C159 0.982 . S
H132 C160 0.979 . S
H133 C160 0.980 . S
H134 C160 0.983 . S
H135 C159 0.979 . S
H136 C159 0.977 . S
C137 C125 1.453 1_545 S
C137 H166 0.982 . S
C137 H167 0.979 . S
C137 H168 0.977 . S
C138 C125 1.684 . S
C138 H163 0.979 . S
C138 H164 0.980 . S
C138 H165 0.983 . S
C139 C140 1.391 . S
C139 C144 1.391 . S
C139 H169 0.948 . S
C140 C139 1.391 . S
C140 C141 1.391 . S
C141 C140 1.391 . S
C141 C142 1.392 1_556 S
C141 H170 0.947 1_556 S
C142 C141 1.392 1_554 S
C142 C143 1.419 . S
C142 H171 0.948 . S
C143 C142 1.419 . S
C143 C144 1.391 1_554 S
C143 C147 1.397 1_565 S
C144 C139 1.391 . S
C144 C143 1.391 1_556 S
C144 C145 1.399 . S
C145 C144 1.399 . S
C145 C146 1.392 1_566 S
C145 C148 1.453 1_565 S
C145 C149 1.684 . S
C146 C127 1.716 . S
C146 C145 1.392 1_544 S
C146 C147 1.396 . S
C147 C143 1.397 1_545 S
C147 C146 1.396 . S
C147 C157 1.723 . S
C148 C145 1.453 1_545 S
C148 H172 0.982 . S
C148 H173 0.979 . S
C148 H174 0.977 . S
C149 C145 1.684 . S
C149 H175 0.979 . S
C149 H176 0.980 . S
C149 H177 0.983 . S
C150 H126 0.948 . S
C150 C151 1.391 . S
C150 C155 1.391 . S
C151 C150 1.391 . S
C151 C152 1.391 . S
C152 H129 0.947 . S
C152 C151 1.391 . S
C152 C153 1.392 . S
C153 H130 0.948 . S
C153 C152 1.392 . S
C153 C154 1.419 . S
C154 C153 1.419 . S
C154 C155 1.391 . S
C154 C158 1.397 1_565 S
C155 C150 1.391 . S
C155 C154 1.391 . S
C155 C156 1.399 . S
C156 C155 1.399 . S
C156 C157 1.390 1_565 S
C156 C159 1.453 1_565 S
C156 C160 1.684 . S
C157 C147 1.723 . S
C157 C156 1.390 1_545 S
C157 C158 1.387 . S
C158 C128 1.726 . S
C158 C154 1.397 1_545 S
C158 C157 1.387 . S
C159 H131 0.982 . S
C159 H135 0.979 . S
C159 H136 0.977 . S
C159 C156 1.453 1_545 S
C160 H132 0.979 . S
C160 H133 0.980 . S
C160 H134 0.983 . S
C160 C156 1.684 . S
H161 C179 0.948 1_556 S
H162 C120 0.948 . S
H163 C138 0.979 . S
H164 C138 0.980 . S
H165 C138 0.983 . S
H166 C137 0.982 . S
H167 C137 0.979 . S
H168 C137 0.977 . S
H169 C139 0.948 . S
H170 C141 0.947 1_554 S
H171 C142 0.948 . S
H172 C148 0.982 . S
H173 C148 0.979 . S
H174 C148 0.977 . S
H175 C149 0.979 . S
H176 C149 0.980 . S
H177 C149 0.983 . S
H178 C122 0.947 . S
C179 C122 1.392 1_554 S
C179 C123 1.419 . S
C179 H161 0.948 1_554 S
C180 C181 1.391 . S
C180 C184 1.391 . S
C180 H222 0.948 . S
C181 C180 1.391 . S
C181 C182 1.391 . S
C182 C181 1.391 . S
C182 H238 0.947 . S
C182 C239 1.392 . S
C183 C184 1.391 . S
C183 C187 1.397 . S
C183 C239 1.419 . S
C184 C180 1.391 . S
C184 C183 1.391 . S
C184 C185 1.399 . S
C185 C184 1.399 . S
C185 C188 1.396 . S
C185 C197 1.453 . S
C185 C198 1.684 . S
H186 C210 0.948 1_556 S
C187 C183 1.397 . S
C187 C188 1.394 . S
C187 C206 1.723 . S
C188 C185 1.396 . S
C188 C187 1.394 . S
C188 C218 1.723 . S
H189 C212 0.947 . S
H190 C213 0.948 . S
H191 C219 0.982 . S
H192 C220 0.979 . S
H193 C220 0.980 . S
H194 C220 0.983 . S
H195 C219 0.979 . S
H196 C219 0.977 . S
C197 C185 1.453 . S
C197 H226 0.982 . S
C197 H227 0.979 . S
C197 H228 0.977 . S
C198 C185 1.684 . S
C198 H223 0.979 . S
C198 H224 0.980 . S
C198 H225 0.983 . S
C199 C200 1.391 . S
C199 C204 1.391 1_556 S
C199 H229 0.948 . S
C200 C199 1.391 . S
C200 C201 1.391 . S
C201 C200 1.391 . S
C201 C202 1.392 . S
C201 H230 0.947 . S
C202 C201 1.392 . S
C202 C203 1.419 . S
C202 H231 0.948 . S
C203 C202 1.419 . S
C203 C204 1.391 1_556 S
C203 C207 1.397 1_556 S
C204 C199 1.391 1_554 S
C204 C203 1.391 1_554 S
C204 C205 1.399 . S
C205 C204 1.399 . S
C205 C206 1.396 . S
C205 C208 1.453 . S
C205 C209 1.684 . S
C206 C187 1.723 . S
C206 C205 1.396 . S
C206 C207 1.394 . S
C207 C203 1.397 1_554 S
C207 C206 1.394 . S
C207 C217 1.723 . S
C208 C205 1.453 . S
C208 H232 0.982 . S
C208 H233 0.979 . S
C208 H234 0.977 . S
C209 C205 1.684 . S
C209 H235 0.979 . S
C209 H236 0.980 . S
C209 H237 0.983 . S
C210 H186 0.948 1_554 S
C210 C211 1.391 . S
C210 C215 1.391 . S
C211 C210 1.391 . S
C211 C212 1.391 . S
C212 H189 0.947 . S
C212 C211 1.391 . S
C212 C213 1.392 . S
C213 H190 0.948 . S
C213 C212 1.392 . S
C213 C214 1.419 . S
C214 C213 1.419 . S
C214 C215 1.391 . S
C214 C218 1.397 . S
C215 C210 1.391 . S
C215 C214 1.391 . S
C215 C216 1.399 1_554 S
C216 C215 1.399 1_556 S
C216 C217 1.396 1_556 S
C216 C219 1.453 . S
C216 C220 1.684 . S
C217 C207 1.723 . S
C217 C216 1.396 1_554 S
C217 C218 1.394 . S
C218 C188 1.723 . S
C218 C214 1.397 . S
C218 C217 1.394 . S
C219 H191 0.982 . S
C219 H195 0.979 . S
C219 H196 0.977 . S
C219 C216 1.453 . S
C220 H192 0.979 . S
C220 H193 0.980 . S
C220 H194 0.983 . S
C220 C216 1.684 . S
H221 C239 0.948 . S
H222 C180 0.948 . S
H223 C198 0.979 . S
H224 C198 0.980 . S
H225 C198 0.983 . S
H226 C197 0.982 . S
H227 C197 0.979 . S
H228 C197 0.977 . S
H229 C199 0.948 . S
H230 C201 0.947 . S
H231 C202 0.948 . S
H232 C208 0.982 . S
H233 C208 0.979 . S
H234 C208 0.977 . S
H235 C209 0.979 . S
H236 C209 0.980 . S
H237 C209 0.983 . S
H238 C182 0.947 . S
C239 C182 1.392 . S
C239 C183 1.419 . S
C239 H221 0.948 . S
C240 C241 1.391 . S
C240 C244 1.391 . S
C240 H282 0.948 . S
C241 C240 1.391 . S
C241 C242 1.391 . S
C242 C241 1.391 . S
C242 H298 0.947 . S
C242 C299 1.392 . S
C243 C244 1.391 . S
C243 C247 1.397 . S
C243 C299 1.419 . S
C244 C240 1.391 . S
C244 C243 1.391 . S
C244 C245 1.399 . S
C245 C244 1.399 . S
C245 C248 1.396 . S
C245 C257 1.453 . S
C245 C258 1.684 . S
H246 C270 0.948 . S
C247 C243 1.397 . S
C247 C248 1.394 . S
C247 C266 1.723 . S
C248 C245 1.396 . S
C248 C247 1.394 . S
C248 C278 1.723 . S
H249 C272 0.947 . S
H250 C273 0.948 . S
H251 C279 0.982 . S
H252 C280 0.979 . S
H253 C280 0.980 . S
H254 C280 0.983 . S
H255 C279 0.979 . S
H256 C279 0.977 . S
C257 C245 1.453 . S
C257 H286 0.982 . S
C257 H287 0.979 . S
C257 H288 0.977 . S
C258 C245 1.684 . S
C258 H283 0.979 . S
C258 H284 0.980 . S
C258 H285 0.983 . S
C259 C260 1.391 . S
C259 C264 1.391 . S
C259 H289 0.948 . S
C260 C259 1.391 . S
C260 C261 1.391 . S
C261 C260 1.391 . S
C261 C262 1.392 . S
C261 H290 0.947 . S
C262 C261 1.392 . S
C262 C263 1.419 . S
C262 H291 0.948 . S
C263 C262 1.419 . S
C263 C264 1.391 . S
C263 C267 1.397 . S
C264 C259 1.391 . S
C264 C263 1.391 . S
C264 C265 1.399 . S
C265 C264 1.399 . S
C265 C266 1.396 . S
C265 C268 1.453 . S
C265 C269 1.684 . S
C266 C247 1.723 . S
C266 C265 1.396 . S
C266 C267 1.394 . S
C267 C263 1.397 . S
C267 C266 1.394 . S
C267 C277 1.723 . S
C268 C265 1.453 . S
C268 H292 0.982 . S
C268 H293 0.979 . S
C268 H294 0.977 . S
C269 C265 1.684 . S
C269 H295 0.979 . S
C269 H296 0.980 . S
C269 H297 0.983 . S
C270 H246 0.948 . S
C270 C271 1.391 . S
C270 C275 1.391 . S
C271 C270 1.391 . S
C271 C272 1.391 . S
C272 H249 0.947 . S
C272 C271 1.391 . S
C272 C273 1.392 . S
C273 H250 0.948 . S
C273 C272 1.392 . S
C273 C274 1.419 . S
C274 C273 1.419 . S
C274 C275 1.391 . S
C274 C278 1.397 . S
C275 C270 1.391 . S
C275 C274 1.391 . S
C275 C276 1.399 . S
C276 C275 1.399 . S
C276 C277 1.396 . S
C276 C279 1.453 . S
C276 C280 1.684 . S
C277 C267 1.723 . S
C277 C276 1.396 . S
C277 C278 1.394 . S
C278 C248 1.723 . S
C278 C274 1.397 . S
C278 C277 1.394 . S
C279 H251 0.982 . S
C279 H255 0.979 . S
C279 H256 0.977 . S
C279 C276 1.453 . S
C280 H252 0.979 . S
C280 H253 0.980 . S
C280 H254 0.983 . S
C280 C276 1.684 . S
H281 C299 0.948 . S
H282 C240 0.948 . S
H283 C258 0.979 . S
H284 C258 0.980 . S
H285 C258 0.983 . S
H286 C257 0.982 . S
H287 C257 0.979 . S
H288 C257 0.977 . S
H289 C259 0.948 . S
H290 C261 0.947 . S
H291 C262 0.948 . S
H292 C268 0.982 . S
H293 C268 0.979 . S
H294 C268 0.977 . S
H295 C269 0.979 . S
H296 C269 0.980 . S
H297 C269 0.983 . S
H298 C242 0.947 . S
C299 C242 1.392 . S
C299 C243 1.419 . S
C299 H281 0.948 . S
C300 C301 1.391 . S
C300 C304 1.391 . S
C300 H342 0.948 . S
C301 C300 1.391 . S
C301 C302 1.391 . S
C302 C301 1.391 . S
C302 H358 0.947 . S
C302 C359 1.392 . S
C303 C304 1.391 . S
C303 C307 1.397 . S
C303 C359 1.419 . S
C304 C300 1.391 . S
C304 C303 1.391 . S
C304 C305 1.399 . S
C305 C304 1.399 . S
C305 C308 1.396 . S
C305 C317 1.453 . S
C305 C318 1.684 . S
H306 C330 0.948 . S
C307 C303 1.397 . S
C307 C308 1.394 . S
C307 C326 1.723 . S
C308 C305 1.396 . S
C308 C307 1.394 . S
C308 C338 1.723 . S
H309 C332 0.947 . S
H310 C333 0.948 . S
H311 C339 0.982 . S
H312 C340 0.979 . S
H313 C340 0.980 . S
H314 C340 0.983 . S
H315 C339 0.979 . S
H316 C339 0.977 . S
C317 C305 1.453 . S
C317 H346 0.982 . S
C317 H347 0.979 . S
C317 H348 0.977 . S
C318 C305 1.684 . S
C318 H343 0.979 . S
C318 H344 0.980 . S
C318 H345 0.983 . S
C319 C320 1.391 . S
C319 C324 1.391 . S
C319 H349 0.948 . S
C320 C319 1.391 . S
C320 C321 1.391 . S
C321 C320 1.391 . S
C321 C322 1.392 . S
C321 H350 0.947 . S
C322 C321 1.392 . S
C322 C323 1.419 . S
C322 H351 0.948 . S
C323 C322 1.419 . S
C323 C324 1.391 . S
C323 C327 1.397 . S
C324 C319 1.391 . S
C324 C323 1.391 . S
C324 C325 1.399 . S
C325 C324 1.399 . S
C325 C326 1.396 . S
C325 C328 1.453 . S
C325 C329 1.684 . S
C326 C307 1.723 . S
C326 C325 1.396 . S
C326 C327 1.394 . S
C327 C323 1.397 . S
C327 C326 1.394 . S
C327 C337 1.723 . S
C328 C325 1.453 . S
C328 H352 0.982 . S
C328 H353 0.979 . S
C328 H354 0.977 . S
C329 C325 1.684 . S
C329 H355 0.979 . S
C329 H356 0.980 . S
C329 H357 0.983 . S
C330 H306 0.948 . S
C330 C331 1.391 . S
C330 C335 1.391 . S
C331 C330 1.391 . S
C331 C332 1.391 . S
C332 H309 0.947 . S
C332 C331 1.391 . S
C332 C333 1.392 . S
C333 H310 0.948 . S
C333 C332 1.392 . S
C333 C334 1.419 . S
C334 C333 1.419 . S
C334 C335 1.391 . S
C334 C338 1.397 . S
C335 C330 1.391 . S
C335 C334 1.391 . S
C335 C336 1.399 . S
C336 C335 1.399 . S
C336 C337 1.396 . S
C336 C339 1.453 . S
C336 C340 1.684 . S
C337 C327 1.723 . S
C337 C336 1.396 . S
C337 C338 1.394 . S
C338 C308 1.723 . S
C338 C334 1.397 . S
C338 C337 1.394 . S
C339 H311 0.982 . S
C339 H315 0.979 . S
C339 H316 0.977 . S
C339 C336 1.453 . S
C340 H312 0.979 . S
C340 H313 0.980 . S
C340 H314 0.983 . S
C340 C336 1.684 . S
H341 C359 0.948 . S
H342 C300 0.948 . S
H343 C318 0.979 . S
H344 C318 0.980 . S
H345 C318 0.983 . S
H346 C317 0.982 . S
H347 C317 0.979 . S
H348 C317 0.977 . S
H349 C319 0.948 . S
H350 C321 0.947 . S
H351 C322 0.948 . S
H352 C328 0.982 . S
H353 C328 0.979 . S
H354 C328 0.977 . S
H355 C329 0.979 . S
H356 C329 0.980 . S
H357 C329 0.983 . S
H358 C302 0.947 . S
C359 C302 1.392 . S
C359 C303 1.419 . S
C359 H341 0.948 . S
C360 C361 1.391 . S
C360 C364 1.391 . S
C360 H402 0.948 . S
C361 C360 1.391 . S
C361 C362 1.391 . S
C362 C361 1.391 . S
C362 H418 0.947 . S
C362 C419 1.392 . S
C363 C364 1.391 . S
C363 C367 1.397 . S
C363 C419 1.419 . S
C364 C360 1.391 . S
C364 C363 1.391 . S
C364 C365 1.399 . S
C365 C364 1.399 . S
C365 C368 1.396 . S
C365 C377 1.453 1_545 S
C365 C378 1.684 . S
H366 C390 0.948 . S
C367 C363 1.397 . S
C367 C368 1.394 . S
C367 C386 1.723 . S
C368 C365 1.396 . S
C368 C367 1.394 . S
C368 C398 1.723 . S
H369 C392 0.947 . S
H370 C393 0.948 . S
H371 C399 0.982 . S
H372 C400 0.979 . S
H373 C400 0.980 . S
H374 C400 0.983 . S
H375 C399 0.979 . S
H376 C399 0.977 . S
C377 C365 1.453 1_565 S
C377 H406 0.982 . S
C377 H407 0.979 . S
C377 H408 0.977 . S
C378 C365 1.684 . S
C378 H403 0.979 . S
C378 H404 0.980 . S
C378 H405 0.983 . S
C379 C380 1.391 . S
C379 C384 1.391 . S
C379 H409 0.948 . S
C380 C379 1.391 . S
C380 C381 1.391 . S
C381 C380 1.391 . S
C381 C382 1.392 . S
C381 H410 0.947 . S
C382 C381 1.392 . S
C382 C383 1.419 . S
C382 H411 0.948 . S
C383 C382 1.419 . S
C383 C384 1.391 . S
C383 C387 1.397 . S
C384 C379 1.391 . S
C384 C383 1.391 . S
C384 C385 1.399 . S
C385 C384 1.399 . S
C385 C386 1.396 . S
C385 C388 1.453 1_545 S
C385 C389 1.684 . S
C386 C367 1.723 . S
C386 C385 1.396 . S
C386 C387 1.394 . S
C387 C383 1.397 . S
C387 C386 1.394 . S
C387 C397 1.723 . S
C388 C385 1.453 1_565 S
C388 H412 0.982 . S
C388 H413 0.979 . S
C388 H414 0.977 . S
C389 C385 1.684 . S
C389 H415 0.979 . S
C389 H416 0.980 . S
C389 H417 0.983 . S
C390 H366 0.948 . S
C390 C391 1.391 . S
C390 C395 1.391 . S
C391 C390 1.391 . S
C391 C392 1.391 . S
C392 H369 0.947 . S
C392 C391 1.391 . S
C392 C393 1.392 . S
C393 H370 0.948 . S
C393 C392 1.392 . S
C393 C394 1.419 . S
C394 C393 1.419 . S
C394 C395 1.391 . S
C394 C398 1.397 . S
C395 C390 1.391 . S
C395 C394 1.391 . S
C395 C396 1.399 . S
C396 C395 1.399 . S
C396 C397 1.396 . S
C396 C399 1.453 1_545 S
C396 C400 1.684 . S
C397 C387 1.723 . S
C397 C396 1.396 . S
C397 C398 1.394 . S
C398 C368 1.723 . S
C398 C394 1.397 . S
C398 C397 1.394 . S
C399 H371 0.982 . S
C399 H375 0.979 . S
C399 H376 0.977 . S
C399 C396 1.453 1_565 S
C400 H372 0.979 . S
C400 H373 0.980 . S
C400 H374 0.983 . S
C400 C396 1.684 . S
H401 C419 0.948 . S
H402 C360 0.948 . S
H403 C378 0.979 . S
H404 C378 0.980 . S
H405 C378 0.983 . S
H406 C377 0.982 . S
H407 C377 0.979 . S
H408 C377 0.977 . S
H409 C379 0.948 . S
H410 C381 0.947 . S
H411 C382 0.948 . S
H412 C388 0.982 . S
H413 C388 0.979 . S
H414 C388 0.977 . S
H415 C389 0.979 . S
H416 C389 0.980 . S
H417 C389 0.983 . S
H418 C362 0.947 . S
C419 C362 1.392 . S
C419 C363 1.419 . S
C419 H401 0.948 . S
C420 C421 1.391 . S
C420 C424 1.391 . S
C420 H462 0.948 . S
C421 C420 1.391 . S
C421 C422 1.391 . S
C422 C421 1.391 . S
C422 H478 0.947 . S
C422 C479 1.392 . S
C423 C424 1.391 . S
C423 C427 1.397 . S
C423 C479 1.419 . S
C424 C420 1.391 . S
C424 C423 1.391 . S
C424 C425 1.399 . S
C425 C424 1.399 . S
C425 C428 1.396 . S
C425 C437 1.453 . S
C425 C438 1.684 . S
H426 C450 0.948 . S
C427 C423 1.397 . S
C427 C428 1.394 . S
C427 C446 1.723 . S
C428 C425 1.396 . S
C428 C427 1.394 . S
C428 C458 1.723 . S
H429 C452 0.947 . S
H430 C453 0.948 . S
H431 C459 0.982 . S
H432 C460 0.979 . S
H433 C460 0.980 . S
H434 C460 0.983 . S
H435 C459 0.979 . S
H436 C459 0.977 . S
C437 C425 1.453 . S
C437 H466 0.982 . S
C437 H467 0.979 . S
C437 H468 0.977 . S
C438 C425 1.684 . S
C438 H463 0.979 . S
C438 H464 0.980 . S
C438 H465 0.983 . S
C439 C440 1.391 . S
C439 C444 1.391 . S
C439 H469 0.948 . S
C440 C439 1.391 . S
C440 C441 1.391 . S
C441 C440 1.391 . S
C441 C442 1.392 . S
C441 H470 0.947 . S
C442 C441 1.392 . S
C442 C443 1.419 . S
C442 H471 0.948 . S
C443 C442 1.419 . S
C443 C444 1.391 . S
C443 C447 1.397 . S
C444 C439 1.391 . S
C444 C443 1.391 . S
C444 C445 1.399 . S
C445 C444 1.399 . S
C445 C446 1.396 . S
C445 C448 1.453 . S
C445 C449 1.684 . S
C446 C427 1.723 . S
C446 C445 1.396 . S
C446 C447 1.394 . S
C447 C443 1.397 . S
C447 C446 1.394 . S
C447 C457 1.723 . S
C448 C445 1.453 . S
C448 H472 0.982 . S
C448 H473 0.979 . S
C448 H474 0.977 . S
C449 C445 1.684 . S
C449 H475 0.979 . S
C449 H476 0.980 . S
C449 H477 0.983 . S
C450 H426 0.948 . S
C450 C451 1.391 . S
C450 C455 1.391 . S
C451 C450 1.391 . S
C451 C452 1.391 . S
C452 H429 0.947 . S
C452 C451 1.391 . S
C452 C453 1.392 . S
C453 H430 0.948 . S
C453 C452 1.392 . S
C453 C454 1.419 . S
C454 C453 1.419 . S
C454 C455 1.391 . S
C454 C458 1.397 . S
C455 C450 1.391 . S
C455 C454 1.391 . S
C455 C456 1.399 . S
C456 C455 1.399 . S
C456 C457 1.396 . S
C456 C459 1.453 . S
C456 C460 1.684 . S
C457 C447 1.723 . S
C457 C456 1.396 . S
C457 C458 1.394 . S
C458 C428 1.723 . S
C458 C454 1.397 . S
C458 C457 1.394 . S
C459 H431 0.982 . S
C459 H435 0.979 . S
C459 H436 0.977 . S
C459 C456 1.453 . S
C460 H432 0.979 . S
C460 H433 0.980 . S
C460 H434 0.983 . S
C460 C456 1.684 . S
H461 C479 0.948 . S
H462 C420 0.948 . S
H463 C438 0.979 . S
H464 C438 0.980 . S
H465 C438 0.983 . S
H466 C437 0.982 . S
H467 C437 0.979 . S
H468 C437 0.977 . S
H469 C439 0.948 . S
H470 C441 0.947 . S
H471 C442 0.948 . S
H472 C448 0.982 . S
H473 C448 0.979 . S
H474 C448 0.977 . S
H475 C449 0.979 . S
H476 C449 0.980 . S
H477 C449 0.983 . S
H478 C422 0.947 . S
C479 C422 1.392 . S
C479 C423 1.419 . S
C479 H461 0.948 . S
Tb480 O483 2.453 1_665 S
Tb480 O484 2.596 1_665 S
Tb480 O485 2.374 1_655 S
Tb480 O493 2.343 . S
Tb480 O495 2.353 1_565 S
Tb480 O497 2.427 . S
Tb480 O498 2.513 . S
C481 O485 1.251 . S
C481 O487 1.263 . S
Tb482 O484 2.343 . S
Tb482 O487 2.353 1_545 S
Tb482 O490 2.427 . S
Tb482 O491 2.513 . S
Tb482 O492 2.453 1_545 S
Tb482 O493 2.596 1_445 S
Tb482 O494 2.374 1_455 S
O483 Tb480 2.453 1_445 S
O483 C499 1.245 . S
O484 Tb480 2.596 1_445 S
O484 Tb482 2.343 . S
O484 C499 1.259 . S
O485 Tb480 2.374 1_455 S
O485 C481 1.251 . S
C486 O490 1.275 . S
C486 O491 1.246 . S
O487 C481 1.263 . S
O487 Tb482 2.353 1_565 S
C488 O492 1.245 1_655 S
C488 O493 1.259 . S
C489 O494 1.250 . S
C489 O495 1.263 . S
O490 Tb482 2.427 . S
O490 C486 1.275 . S
O491 Tb482 2.513 . S
O491 C486 1.246 . S
O492 Tb482 2.453 1_565 S
O492 C488 1.245 1_455 S
O493 Tb480 2.343 . S
O493 Tb482 2.596 1_665 S
O493 C488 1.259 . S
O494 Tb482 2.374 1_655 S
O494 C489 1.250 . S
O495 Tb480 2.353 1_545 S
O495 C489 1.263 . S
C496 O497 1.275 . S
C496 O498 1.246 . S
O497 Tb480 2.427 . S
O497 C496 1.275 . S
O498 Tb480 2.513 . S
O498 C496 1.246 . S
C499 O483 1.245 . S
C499 O484 1.259 . S
Tb500 O503 2.453 . S
Tb500 O504 2.596 1_545 S
Tb500 O505 2.374 . S
Tb500 O513 2.343 . S
Tb500 O515 2.353 . S
Tb500 O517 2.427 . S
Tb500 O518 2.513 . S
C501 O505 1.266 . S
C501 O507 1.249 1_545 S
Tb502 O504 2.343 . S
Tb502 O507 2.353 . S
Tb502 O510 2.427 . S
Tb502 O511 2.513 . S
Tb502 O512 2.453 . S
Tb502 O513 2.596 1_565 S
Tb502 O514 2.374 . S
O503 Tb500 2.453 . S
O503 C519 1.245 . S
O504 Tb500 2.596 1_565 S
O504 Tb502 2.343 . S
O504 C519 1.259 1_565 S
O505 Tb500 2.374 . S
O505 C501 1.266 . S
C506 O510 1.275 . S
C506 O511 1.246 . S
O507 C501 1.249 1_565 S
O507 Tb502 2.353 . S
C508 O512 1.245 . S
C508 O513 1.259 1_565 S
C509 O514 1.250 1_545 S
C509 O515 1.263 . S
O510 Tb502 2.427 . S
O510 C506 1.275 . S
O511 Tb502 2.513 . S
O511 C506 1.246 . S
O512 Tb502 2.453 . S
O512 C508 1.245 . S
O513 Tb500 2.343 . S
O513 Tb502 2.596 1_545 S
O513 C508 1.259 1_545 S
O514 Tb502 2.374 . S
O514 C509 1.250 1_565 S
O515 Tb500 2.353 . S
O515 C509 1.263 . S
C516 O517 1.275 . S
C516 O518 1.246 . S
O517 Tb500 2.427 . S
O517 C516 1.275 . S
O518 Tb500 2.513 . S
O518 C516 1.246 . S
C519 O503 1.245 . S
C519 O504 1.259 1_545 S
Tb520 O523 2.453 . S
Tb520 O524 2.596 . S
Tb520 O525 2.374 . S
Tb520 O533 2.343 . S
Tb520 O535 2.353 . S
Tb520 O537 2.427 . S
Tb520 O538 2.513 . S
C521 O525 1.251 . S
C521 O527 1.263 . S
Tb522 O524 2.343 . S
Tb522 O527 2.353 . S
Tb522 O530 2.427 . S
Tb522 O531 2.513 . S
Tb522 O532 2.453 . S
Tb522 O533 2.596 . S
Tb522 O534 2.374 . S
O523 Tb520 2.453 . S
O523 C539 1.245 . S
O524 Tb520 2.596 . S
O524 Tb522 2.343 . S
O524 C539 1.259 . S
O525 Tb520 2.374 . S
O525 C521 1.251 . S
C526 O530 1.275 . S
C526 O531 1.246 . S
O527 C521 1.263 . S
O527 Tb522 2.353 . S
C528 O532 1.245 . S
C528 O533 1.259 . S
C529 O534 1.250 . S
C529 O535 1.263 . S
O530 Tb522 2.427 . S
O530 C526 1.275 . S
O531 Tb522 2.513 . S
O531 C526 1.246 . S
O532 Tb522 2.453 . S
O532 C528 1.245 . S
O533 Tb520 2.343 . S
O533 Tb522 2.596 . S
O533 C528 1.259 . S
O534 Tb522 2.374 . S
O534 C529 1.250 . S
O535 Tb520 2.353 . S
O535 C529 1.263 . S
C536 O537 1.275 . S
C536 O538 1.246 . S
O537 Tb520 2.427 . S
O537 C536 1.275 . S
O538 Tb520 2.513 . S
O538 C536 1.246 . S
C539 O523 1.245 . S
C539 O524 1.259 . S
Tb540 O543 2.453 1_655 S
Tb540 O544 2.596 1_655 S
Tb540 O545 2.374 1_655 S
Tb540 O553 2.343 . S
Tb540 O555 2.353 . S
Tb540 O557 2.427 . S
Tb540 O558 2.513 . S
C541 O545 1.251 . S
C541 O547 1.263 . S
Tb542 O544 2.343 . S
Tb542 O547 2.353 . S
Tb542 O550 2.427 . S
Tb542 O551 2.513 . S
Tb542 O552 2.453 1_455 S
Tb542 O553 2.596 1_455 S
Tb542 O554 2.374 . S
O543 Tb540 2.453 1_455 S
O543 C559 1.245 . S
O544 Tb540 2.596 1_455 S
O544 Tb542 2.343 . S
O544 C559 1.259 . S
O545 Tb540 2.374 1_455 S
O545 C541 1.251 . S
C546 O550 1.275 . S
C546 O551 1.246 . S
O547 C541 1.263 . S
O547 Tb542 2.353 . S
C548 O552 1.245 . S
C548 O553 1.259 . S
C549 O554 1.250 1_655 S
C549 O555 1.263 . S
O550 Tb542 2.427 . S
O550 C546 1.275 . S
O551 Tb542 2.513 . S
O551 C546 1.246 . S
O552 Tb542 2.453 1_655 S
O552 C548 1.245 . S
O553 Tb540 2.343 . S
O553 Tb542 2.596 1_655 S
O553 C548 1.259 . S
O554 Tb542 2.374 . S
O554 C549 1.250 1_455 S
O555 Tb540 2.353 . S
O555 C549 1.263 . S
C556 O557 1.275 . S
C556 O558 1.246 . S
O557 Tb540 2.427 . S
O557 C556 1.275 . S
O558 Tb540 2.513 . S
O558 C556 1.246 . S
C559 O543 1.245 . S
C559 O544 1.259 . S
H560 C578 0.951 . S
H561 C580 0.951 . S
H562 C582 0.950 . S
H563 C583 0.950 . S
H564 C585 0.950 . S
H565 C588 0.950 . S
H566 C589 0.950 . S
H567 C591 0.950 1_545 S
H568 C592 0.970 . S
H569 C593 0.951 . S
H570 C595 0.951 . S
H571 C597 0.950 . S
H572 C598 0.950 . S
H573 C600 0.950 . S
H574 C603 0.950 . S
H575 C604 0.950 . S
H576 C606 0.950 1_565 S
H577 C607 0.996 . S
C578 H560 0.951 . S
C578 C579 1.366 . S
C578 C580 1.388 . S
C579 C578 1.366 . S
C579 C583 1.385 1_545 S
C580 H561 0.951 . S
C580 C578 1.388 . S
C580 C581 1.365 . S
C581 C580 1.365 . S
C581 C582 1.414 1_545 S
C581 C584 1.500 1_545 S
C582 H562 0.950 . S
C582 C581 1.414 1_565 S
C582 C583 1.374 . S
C583 H563 0.950 . S
C583 C579 1.385 1_565 S
C583 C582 1.374 . S
C584 C581 1.500 1_565 S
C584 C585 1.359 1_565 S
C584 C586 1.401 . S
C585 H564 0.950 . S
C585 C584 1.359 1_545 S
C585 C601 1.377 . S
C586 C584 1.401 . S
C586 C587 1.524 . S
C586 C600 1.377 . S
C587 C586 1.524 . S
C587 C588 1.397 . S
C587 C592 1.353 1_565 S
C588 H565 0.950 . S
C588 C587 1.397 . S
C588 C589 1.334 . S
C589 H566 0.950 . S
C589 C588 1.334 . S
C589 C590 1.287 . S
C590 C589 1.287 . S
C590 C591 1.524 . S
C590 H609 0.913 . S
C591 H567 0.950 1_565 S
C591 C590 1.524 . S
C591 C592 1.406 1_565 S
C592 H568 0.970 . S
C592 C587 1.353 1_545 S
C592 C591 1.406 1_545 S
C593 H569 0.951 . S
C593 C594 1.366 . S
C593 C595 1.388 . S
C594 C593 1.366 . S
C594 C598 1.385 1_565 S
C595 H570 0.951 . S
C595 C593 1.388 . S
C595 C596 1.381 . S
C596 C595 1.381 . S
C596 C597 1.399 1_565 S
C596 C599 1.500 1_565 S
C597 H571 0.950 . S
C597 C596 1.399 1_545 S
C597 C598 1.374 . S
C598 H572 0.950 . S
C598 C594 1.385 1_545 S
C598 C597 1.374 . S
C599 C596 1.500 1_545 S
C599 C600 1.367 1_545 S
C599 C601 1.394 . S
C600 H573 0.950 . S
C600 C586 1.377 . S
C600 C599 1.367 1_565 S
C601 C585 1.377 . S
C601 C599 1.394 . S
C601 C602 1.524 . S
C602 C601 1.524 . S
C602 C603 1.397 . S
C602 C607 1.340 1_545 S
C603 H574 0.950 . S
C603 C602 1.397 . S
C603 C604 1.334 . S
C604 H575 0.950 . S
C604 C603 1.334 . S
C604 C605 1.287 . S
C605 C604 1.287 . S
C605 C606 1.524 . S
C605 H608 0.999 . S
C606 H576 0.950 1_545 S
C606 C605 1.524 . S
C606 C607 1.395 1_545 S
C607 H577 0.996 . S
C607 C602 1.340 1_565 S
C607 C606 1.395 1_565 S
H608 C605 0.999 . S
H609 C590 0.913 . S
H610 C628 0.951 . S
H611 C630 0.951 . S
H612 C632 0.950 . S
H613 C633 0.950 . S
H614 C635 0.950 . S
H615 C638 0.950 . S
H616 C639 0.950 . S
H617 C641 0.950 . S
H618 C642 0.950 . S
H619 C643 0.951 . S
H620 C645 0.951 . S
H621 C647 0.950 . S
H622 C648 0.950 . S
H623 C650 0.950 . S
H624 C653 0.950 . S
H625 C654 0.950 . S
H626 C656 0.950 . S
H627 C657 0.950 . S
C628 H610 0.951 . S
C628 C629 1.366 . S
C628 C630 1.388 . S
C629 C628 1.366 . S
C629 C633 1.385 . S
C630 H611 0.951 . S
C630 C628 1.388 . S
C630 C631 1.366 . S
C631 C630 1.366 . S
C631 C632 1.414 . S
C631 C634 1.499 . S
C632 H612 0.950 . S
C632 C631 1.414 . S
C632 C633 1.374 . S
C633 H613 0.950 . S
C633 C629 1.385 . S
C633 C632 1.374 . S
C634 C631 1.499 . S
C634 C635 1.373 . S
C634 C636 1.389 . S
C635 H614 0.950 . S
C635 C634 1.373 . S
C635 C651 1.377 . S
C636 C634 1.389 . S
C636 C637 1.524 . S
C636 C650 1.377 . S
C637 C636 1.524 . S
C637 C638 1.397 . S
C637 C642 1.363 . S
C638 H615 0.950 . S
C638 C637 1.397 . S
C638 C639 1.334 . S
C639 H616 0.950 . S
C639 C638 1.334 . S
C639 C640 1.287 . S
C640 C639 1.287 . S
C640 C641 1.524 . S
C640 H659 0.913 . S
C641 H617 0.950 . S
C641 C640 1.524 . S
C641 C642 1.415 . S
C642 H618 0.950 . S
C642 C637 1.363 . S
C642 C641 1.415 . S
C643 H619 0.951 . S
C643 C644 1.366 . S
C643 C645 1.388 . S
C644 C643 1.366 . S
C644 C648 1.385 . S
C645 H620 0.951 . S
C645 C643 1.388 . S
C645 C646 1.366 . S
C646 C645 1.366 . S
C646 C647 1.414 . S
C646 C649 1.499 . S
C647 H621 0.950 . S
C647 C646 1.414 . S
C647 C648 1.374 . S
C648 H622 0.950 . S
C648 C644 1.385 . S
C648 C647 1.374 . S
C649 C646 1.499 . S
C649 C650 1.373 . S
C649 C651 1.389 . S
C650 H623 0.950 . S
C650 C636 1.377 . S
C650 C649 1.373 . S
C651 C635 1.377 . S
C651 C649 1.389 . S
C651 C652 1.524 . S
C652 C651 1.524 . S
C652 C653 1.397 . S
C652 C657 1.363 . S
C653 H624 0.950 . S
C653 C652 1.397 . S
C653 C654 1.334 . S
C654 H625 0.950 . S
C654 C653 1.334 . S
C654 C655 1.287 . S
C655 C654 1.287 . S
C655 C656 1.524 . S
C655 H658 0.999 . S
C656 H626 0.950 . S
C656 C655 1.524 . S
C656 C657 1.415 . S
C657 H627 0.950 . S
C657 C652 1.363 . S
C657 C656 1.415 . S
H658 C655 0.999 . S
H659 C640 0.913 . S
H660 C678 0.951 . S
H661 C680 0.951 . S
H662 C682 0.950 . S
H663 C683 0.950 . S
H664 C685 0.950 . S
H665 C688 0.950 . S
H666 C689 0.950 . S
H667 C691 0.950 . S
H668 C692 0.950 . S
H669 C693 0.951 . S
H670 C695 0.951 . S
H671 C697 0.950 . S
H672 C698 0.950 . S
H673 C700 0.950 . S
H674 C703 0.950 . S
H675 C704 0.950 . S
H676 C706 0.950 . S
H677 C707 0.950 . S
C678 H660 0.951 . S
C678 C679 1.366 . S
C678 C680 1.388 . S
C679 C678 1.366 . S
C679 C683 1.385 . S
C680 H661 0.951 . S
C680 C678 1.388 . S
C680 C681 1.366 . S
C681 C680 1.366 . S
C681 C682 1.414 . S
C681 C684 1.499 . S
C682 H662 0.950 . S
C682 C681 1.414 . S
C682 C683 1.374 . S
C683 H663 0.950 . S
C683 C679 1.385 . S
C683 C682 1.374 . S
C684 C681 1.499 . S
C684 C685 1.373 . S
C684 C686 1.389 . S
C685 H664 0.950 . S
C685 C684 1.373 . S
C685 C701 1.377 . S
C686 C684 1.389 . S
C686 C687 1.524 . S
C686 C700 1.377 . S
C687 C686 1.524 . S
C687 C688 1.397 . S
C687 C692 1.363 . S
C688 H665 0.950 . S
C688 C687 1.397 . S
C688 C689 1.334 . S
C689 H666 0.950 . S
C689 C688 1.334 . S
C689 C690 1.287 . S
C690 C689 1.287 . S
C690 C691 1.524 . S
C690 H709 0.913 . S
C691 H667 0.950 . S
C691 C690 1.524 . S
C691 C692 1.415 . S
C692 H668 0.950 . S
C692 C687 1.363 . S
C692 C691 1.415 . S
C693 H669 0.951 . S
C693 C694 1.366 . S
C693 C695 1.388 . S
C694 C693 1.366 . S
C694 C698 1.385 . S
C695 H670 0.951 . S
C695 C693 1.388 . S
C695 C696 1.366 . S
C696 C695 1.366 . S
C696 C697 1.414 . S
C696 C699 1.499 . S
C697 H671 0.950 . S
C697 C696 1.414 . S
C697 C698 1.374 . S
C698 H672 0.950 . S
C698 C694 1.385 . S
C698 C697 1.374 . S
C699 C696 1.499 . S
C699 C700 1.373 . S
C699 C701 1.389 . S
C700 H673 0.950 . S
C700 C686 1.377 . S
C700 C699 1.373 . S
C701 C685 1.377 . S
C701 C699 1.389 . S
C701 C702 1.524 . S
C702 C701 1.524 . S
C702 C703 1.397 . S
C702 C707 1.363 . S
C703 H674 0.950 . S
C703 C702 1.397 . S
C703 C704 1.334 . S
C704 H675 0.950 . S
C704 C703 1.334 . S
C704 C705 1.287 . S
C705 C704 1.287 . S
C705 C706 1.524 . S
C705 H708 0.999 . S
C706 H676 0.950 . S
C706 C705 1.524 . S
C706 C707 1.415 . S
C707 H677 0.950 . S
C707 C702 1.363 . S
C707 C706 1.415 . S
H708 C705 0.999 . S
H709 C690 0.913 . S
H710 C728 0.951 . S
H711 C730 0.951 . S
H712 C732 0.950 . S
H713 C733 0.950 . S
H714 C735 0.950 . S
H715 C738 0.950 . S
H716 C739 0.950 . S
H717 C741 0.950 . S
H718 C742 0.950 . S
H719 C743 0.951 . S
H720 C745 0.951 . S
H721 C747 0.950 . S
H722 C748 0.950 . S
H723 C750 0.950 . S
H724 C753 0.950 . S
H725 C754 0.950 . S
H726 C756 0.950 . S
H727 C757 0.950 . S
C728 H710 0.951 . S
C728 C729 1.366 . S
C728 C730 1.388 . S
C729 C728 1.366 . S
C729 C733 1.385 . S
C730 H711 0.951 . S
C730 C728 1.388 . S
C730 C731 1.366 . S
C731 C730 1.366 . S
C731 C732 1.414 . S
C731 C734 1.499 . S
C732 H712 0.950 . S
C732 C731 1.414 . S
C732 C733 1.374 . S
C733 H713 0.950 . S
C733 C729 1.385 . S
C733 C732 1.374 . S
C734 C731 1.499 . S
C734 C735 1.373 . S
C734 C736 1.389 . S
C735 H714 0.950 . S
C735 C734 1.373 . S
C735 C751 1.377 . S
C736 C734 1.389 . S
C736 C737 1.524 . S
C736 C750 1.377 . S
C737 C736 1.524 . S
C737 C738 1.397 . S
C737 C742 1.363 . S
C738 H715 0.950 . S
C738 C737 1.397 . S
C738 C739 1.334 . S
C739 H716 0.950 . S
C739 C738 1.334 . S
C739 C740 1.287 . S
C740 C739 1.287 . S
C740 C741 1.524 . S
C740 H759 0.913 . S
C741 H717 0.950 . S
C741 C740 1.524 . S
C741 C742 1.415 . S
C742 H718 0.950 . S
C742 C737 1.363 . S
C742 C741 1.415 . S
C743 H719 0.951 . S
C743 C744 1.366 . S
C743 C745 1.388 . S
C744 C743 1.366 . S
C744 C748 1.385 . S
C745 H720 0.951 . S
C745 C743 1.388 . S
C745 C746 1.366 . S
C746 C745 1.366 . S
C746 C747 1.414 . S
C746 C749 1.499 . S
C747 H721 0.950 . S
C747 C746 1.414 . S
C747 C748 1.374 . S
C748 H722 0.950 . S
C748 C744 1.385 . S
C748 C747 1.374 . S
C749 C746 1.499 . S
C749 C750 1.373 . S
C749 C751 1.389 . S
C750 H723 0.950 . S
C750 C736 1.377 . S
C750 C749 1.373 . S
C751 C735 1.377 . S
C751 C749 1.389 . S
C751 C752 1.524 . S
C752 C751 1.524 . S
C752 C753 1.397 . S
C752 C757 1.363 . S
C753 H724 0.950 . S
C753 C752 1.397 . S
C753 C754 1.334 . S
C754 H725 0.950 . S
C754 C753 1.334 . S
C754 C755 1.287 . S
C755 C754 1.287 . S
C755 C756 1.524 . S
C755 H758 0.999 . S
C756 H726 0.950 . S
C756 C755 1.524 . S
C756 C757 1.415 . S
C757 H727 0.950 . S
C757 C752 1.363 . S
C757 C756 1.415 . S
H758 C755 0.999 . S
H759 C740 0.913 . S
H760 C778 0.951 . S
H761 C780 0.951 . S
H762 C782 0.951 1_565 S
H763 C783 0.951 . S
H764 C785 0.950 . S
H765 C788 0.950 . S
H766 C789 0.950 . S
H767 C791 0.950 . S
H768 C792 0.950 . S
H769 C793 0.951 . S
H770 C795 0.951 . S
H771 C797 0.950 . S
H772 C798 0.950 . S
H773 C800 0.950 . S
H774 C803 0.950 . S
H775 C804 0.950 . S
H776 C806 0.950 . S
H777 C807 0.950 . S
C778 H760 0.951 . S
C778 C779 1.366 . S
C778 C780 1.388 . S
C779 C778 1.366 . S
C779 C783 1.386 1_544 S
C780 H761 0.951 . S
C780 C778 1.388 . S
C780 C781 1.366 1_554 S
C781 C780 1.366 1_556 S
C781 C782 1.414 . S
C781 C784 1.499 . S
C782 H762 0.951 1_545 S
C782 C781 1.414 . S
C782 C783 1.375 1_545 S
C783 H763 0.951 . S
C783 C779 1.386 1_566 S
C783 C782 1.375 1_565 S
C784 C781 1.499 . S
C784 C785 1.373 1_545 S
C784 C786 1.389 . S
C785 H764 0.950 . S
C785 C784 1.373 1_565 S
C785 C801 1.377 . S
C786 C784 1.389 . S
C786 C787 1.524 . S
C786 C800 1.377 . S
C787 C786 1.524 . S
C787 C788 1.397 . S
C787 C792 1.363 . S
C788 H765 0.950 . S
C788 C787 1.397 . S
C788 C789 1.334 . S
C789 H766 0.950 . S
C789 C788 1.334 . S
C789 C790 1.287 1_556 S
C790 C789 1.287 1_554 S
C790 C791 1.524 . S
C790 H809 0.913 . S
C791 H767 0.950 . S
C791 C790 1.524 . S
C791 C792 1.415 1_554 S
C792 H768 0.950 . S
C792 C787 1.363 . S
C792 C791 1.415 1_556 S
C793 H769 0.951 . S
C793 C794 1.366 . S
C793 C795 1.388 . S
C794 C793 1.366 . S
C794 C798 1.385 . S
C795 H770 0.951 . S
C795 C793 1.388 . S
C795 C796 1.366 . S
C796 C795 1.366 . S
C796 C797 1.414 . S
C796 C799 1.499 . S
C797 H771 0.950 . S
C797 C796 1.414 . S
C797 C798 1.374 . S
C798 H772 0.950 . S
C798 C794 1.385 . S
C798 C797 1.374 . S
C799 C796 1.499 . S
C799 C800 1.373 . S
C799 C801 1.389 1_545 S
C800 H773 0.950 . S
C800 C786 1.377 . S
C800 C799 1.373 . S
C801 C785 1.377 . S
C801 C799 1.389 1_565 S
C801 C802 1.524 . S
C802 C801 1.524 . S
C802 C803 1.397 . S
C802 C807 1.363 . S
C803 H774 0.950 . S
C803 C802 1.397 . S
C803 C804 1.334 . S
C804 H775 0.950 . S
C804 C803 1.334 . S
C804 C805 1.287 . S
C805 C804 1.287 . S
C805 C806 1.524 . S
C805 H808 0.999 . S
C806 H776 0.950 . S
C806 C805 1.524 . S
C806 C807 1.415 . S
C807 H777 0.950 . S
C807 C802 1.363 . S
C807 C806 1.415 . S
H808 C805 0.999 . S
H809 C790 0.913 . S
H810 C828 0.951 . S
H811 C830 0.951 . S
H812 C832 0.950 . S
H813 C833 0.950 . S
H814 C835 0.950 . S
H815 C838 0.950 . S
H816 C839 0.950 . S
H817 C841 0.950 . S
H818 C842 0.950 . S
H819 C843 0.951 . S
H820 C845 0.951 . S
H821 C847 0.950 . S
H822 C848 0.950 . S
H823 C850 0.950 . S
H824 C853 0.950 . S
H825 C854 0.950 . S
H826 C856 0.950 1_554 S
H827 C857 0.941 1_554 S
C828 H810 0.951 . S
C828 C829 1.366 1_556 S
C828 C830 1.388 . S
C829 C828 1.366 1_554 S
C829 C833 1.385 . S
C830 H811 0.951 . S
C830 C828 1.388 . S
C830 C831 1.366 . S
C831 C830 1.366 . S
C831 C832 1.414 1_556 S
C831 C834 1.499 . S
C832 H812 0.950 . S
C832 C831 1.414 1_554 S
C832 C833 1.374 . S
C833 H813 0.950 . S
C833 C829 1.385 . S
C833 C832 1.374 . S
C834 C831 1.499 . S
C834 C835 1.373 . S
C834 C836 1.389 . S
C835 H814 0.950 . S
C835 C834 1.373 . S
C835 C851 1.377 . S
C836 C834 1.389 . S
C836 C837 1.524 . S
C836 C850 1.377 . S
C837 C836 1.524 . S
C837 C838 1.397 . S
C837 C842 1.363 . S
C838 H815 0.950 . S
C838 C837 1.397 . S
C838 C839 1.334 . S
C839 H816 0.950 . S
C839 C838 1.334 . S
C839 C840 1.287 . S
C840 C839 1.287 . S
C840 C841 1.524 . S
C840 H859 0.913 . S
C841 H817 0.950 . S
C841 C840 1.524 . S
C841 C842 1.415 . S
C842 H818 0.950 . S
C842 C837 1.363 . S
C842 C841 1.415 . S
C843 H819 0.951 . S
C843 C844 1.366 . S
C843 C845 1.388 . S
C844 C843 1.366 . S
C844 C848 1.385 . S
C845 H820 0.951 . S
C845 C843 1.388 . S
C845 C846 1.366 . S
C846 C845 1.366 . S
C846 C847 1.414 . S
C846 C849 1.499 . S
C847 H821 0.950 . S
C847 C846 1.414 . S
C847 C848 1.374 . S
C848 H822 0.950 . S
C848 C844 1.385 . S
C848 C847 1.374 . S
C849 C846 1.499 . S
C849 C850 1.373 . S
C849 C851 1.389 . S
C850 H823 0.950 . S
C850 C836 1.377 . S
C850 C849 1.373 . S
C851 C835 1.377 . S
C851 C849 1.389 . S
C851 C852 1.524 . S
C852 C851 1.524 . S
C852 C853 1.397 . S
C852 C857 1.363 . S
C853 H824 0.950 . S
C853 C852 1.397 . S
C853 C854 1.334 . S
C854 H825 0.950 . S
C854 C853 1.334 . S
C854 C855 1.287 . S
C855 C854 1.287 . S
C855 C856 1.524 . S
C855 H858 0.999 . S
C856 H826 0.950 1_556 S
C856 C855 1.524 . S
C856 C857 1.415 . S
C857 H827 0.941 1_556 S
C857 C852 1.363 . S
C857 C856 1.415 . S
H858 C855 0.999 . S
H859 C840 0.913 . S
H860 C878 0.951 . S
H861 C880 0.951 . S
H862 C882 0.950 . S
H863 C883 0.950 . S
H864 C885 0.950 . S
H865 C888 0.950 1_556 S
H866 C889 0.950 . S
H867 C891 0.950 . S
H868 C892 0.950 1_556 S
H869 C893 0.951 . S
H870 C895 0.951 . S
H871 C897 0.950 . S
H872 C898 0.950 . S
H873 C900 0.950 . S
H874 C903 0.950 . S
H875 C904 0.950 . S
H876 C906 0.950 . S
H877 C907 0.950 . S
C878 H860 0.951 . S
C878 C879 1.366 1_554 S
C878 C880 1.388 1_554 S
C879 C878 1.366 1_556 S
C879 C883 1.385 . S
C880 H861 0.951 . S
C880 C878 1.388 1_556 S
C880 C881 1.366 . S
C881 C880 1.366 . S
C881 C882 1.414 . S
C881 C884 1.499 . S
C882 H862 0.950 . S
C882 C881 1.414 . S
C882 C883 1.374 . S
C883 H863 0.950 . S
C883 C879 1.385 . S
C883 C882 1.374 . S
C884 C881 1.499 . S
C884 C885 1.373 . S
C884 C886 1.389 . S
C885 H864 0.950 . S
C885 C884 1.373 . S
C885 C901 1.377 . S
C886 C884 1.389 . S
C886 C887 1.524 . S
C886 C900 1.377 . S
C887 C886 1.524 . S
C887 C888 1.397 1_556 S
C887 C892 1.363 1_556 S
C888 H865 0.950 1_554 S
C888 C887 1.397 1_554 S
C888 C889 1.334 . S
C889 H866 0.950 . S
C889 C888 1.334 . S
C889 C890 1.287 . S
C890 C889 1.287 . S
C890 C891 1.524 . S
C890 H909 0.913 . S
C891 H867 0.950 . S
C891 C890 1.524 . S
C891 C892 1.415 . S
C892 H868 0.950 1_554 S
C892 C887 1.363 1_554 S
C892 C891 1.415 . S
C893 H869 0.951 . S
C893 C894 1.366 . S
C893 C895 1.388 . S
C894 C893 1.366 . S
C894 C898 1.385 . S
C895 H870 0.951 . S
C895 C893 1.388 . S
C895 C896 1.366 . S
C896 C895 1.366 . S
C896 C897 1.414 . S
C896 C899 1.499 . S
C897 H871 0.950 . S
C897 C896 1.414 . S
C897 C898 1.374 . S
C898 H872 0.950 . S
C898 C894 1.385 . S
C898 C897 1.374 . S
C899 C896 1.499 . S
C899 C900 1.373 . S
C899 C901 1.389 . S
C900 H873 0.950 . S
C900 C886 1.377 . S
C900 C899 1.373 . S
C901 C885 1.377 . S
C901 C899 1.389 . S
C901 C902 1.524 . S
C902 C901 1.524 . S
C902 C903 1.397 . S
C902 C907 1.363 . S
C903 H874 0.950 . S
C903 C902 1.397 . S
C903 C904 1.334 . S
C904 H875 0.950 . S
C904 C903 1.334 . S
C904 C905 1.287 . S
C905 C904 1.287 . S
C905 C906 1.524 . S
C905 H908 0.999 . S
C906 H876 0.950 . S
C906 C905 1.524 . S
C906 C907 1.415 . S
C907 H877 0.950 . S
C907 C902 1.363 . S
C907 C906 1.415 . S
H908 C905 0.999 . S
H909 C890 0.913 . S
H910 C928 0.951 . S
H911 C930 0.951 . S
H912 C932 0.950 . S
H913 C933 0.950 . S
H914 C935 0.950 . S
H915 C938 0.950 . S
H916 C939 0.950 . S
H917 C941 0.950 . S
H918 C942 0.950 . S
H919 C943 0.951 . S
H920 C945 0.951 . S
H921 C947 0.950 . S
H922 C948 0.950 . S
H923 C950 0.950 . S
H924 C953 0.950 . S
H925 C954 0.950 . S
H926 C956 0.950 . S
H927 C957 0.950 . S
C928 H910 0.951 . S
C928 C929 1.366 . S
C928 C930 1.388 . S
C929 C928 1.366 . S
C929 C933 1.385 . S
C930 H911 0.951 . S
C930 C928 1.388 . S
C930 C931 1.366 . S
C931 C930 1.366 . S
C931 C932 1.414 . S
C931 C934 1.499 . S
C932 H912 0.950 . S
C932 C931 1.414 . S
C932 C933 1.374 . S
C933 H913 0.950 . S
C933 C929 1.385 . S
C933 C932 1.374 . S
C934 C931 1.499 . S
C934 C935 1.373 . S
C934 C936 1.389 . S
C935 H914 0.950 . S
C935 C934 1.373 . S
C935 C951 1.377 . S
C936 C934 1.389 . S
C936 C937 1.524 . S
C936 C950 1.377 . S
C937 C936 1.524 . S
C937 C938 1.397 . S
C937 C942 1.363 . S
C938 H915 0.950 . S
C938 C937 1.397 . S
C938 C939 1.334 1_556 S
C939 H916 0.950 . S
C939 C938 1.334 1_554 S
C939 C940 1.287 . S
C940 C939 1.287 . S
C940 C941 1.524 . S
C940 H959 0.913 . S
C941 H917 0.950 . S
C941 C940 1.524 . S
C941 C942 1.415 1_554 S
C942 H918 0.950 . S
C942 C937 1.363 . S
C942 C941 1.415 1_556 S
C943 H919 0.951 . S
C943 C944 1.366 . S
C943 C945 1.388 . S
C944 C943 1.366 . S
C944 C948 1.385 . S
C945 H920 0.951 . S
C945 C943 1.388 . S
C945 C946 1.366 . S
C946 C945 1.366 . S
C946 C947 1.414 . S
C946 C949 1.499 . S
C947 H921 0.950 . S
C947 C946 1.414 . S
C947 C948 1.374 . S
C948 H922 0.950 . S
C948 C944 1.385 . S
C948 C947 1.374 . S
C949 C946 1.499 . S
C949 C950 1.373 . S
C949 C951 1.389 . S
C950 H923 0.950 . S
C950 C936 1.377 . S
C950 C949 1.373 . S
C951 C935 1.377 . S
C951 C949 1.389 . S
C951 C952 1.524 . S
C952 C951 1.524 . S
C952 C953 1.397 . S
C952 C957 1.363 . S
C953 H924 0.950 . S
C953 C952 1.397 . S
C953 C954 1.334 . S
C954 H925 0.950 . S
C954 C953 1.334 . S
C954 C955 1.287 . S
C955 C954 1.287 . S
C955 C956 1.524 . S
C955 H958 0.999 . S
C956 H926 0.950 . S
C956 C955 1.524 . S
C956 C957 1.415 . S
C957 H927 0.950 . S
C957 C952 1.363 . S
C957 C956 1.415 . S
H958 C955 0.999 . S
H959 C940 0.913 . S
H960 C978 0.951 . S
H961 C980 0.951 . S
H962 C982 0.950 . S
H963 C983 0.950 . S
H964 C985 0.950 . S
H965 C988 0.950 . S
H966 C989 0.950 . S
H967 C991 0.950 . S
H968 C992 0.950 . S
H969 C993 0.951 . S
H970 C995 0.951 . S
H971 C997 0.950 . S
H972 C998 0.950 . S
H973 C1000 0.950 . S
H974 C1003 0.950 . S
H975 C1004 0.950 . S
H976 C1006 0.950 . S
H977 C1007 0.950 . S
C978 H960 0.951 . S
C978 C979 1.366 . S
C978 C980 1.388 . S
C979 C978 1.366 . S
C979 C983 1.385 . S
C980 H961 0.951 . S
C980 C978 1.388 . S
C980 C981 1.366 . S
C981 C980 1.366 . S
C981 C982 1.414 . S
C981 C984 1.499 . S
C982 H962 0.950 . S
C982 C981 1.414 . S
C982 C983 1.374 . S
C983 H963 0.950 . S
C983 C979 1.385 . S
C983 C982 1.374 . S
C984 C981 1.499 . S
C984 C985 1.373 . S
C984 C986 1.389 . S
C985 H964 0.950 . S
C985 C984 1.373 . S
C985 C1001 1.377 . S
C986 C984 1.389 . S
C986 C987 1.524 . S
C986 C1000 1.377 . S
C987 C986 1.524 . S
C987 C988 1.397 . S
C987 C992 1.363 . S
C988 H965 0.950 . S
C988 C987 1.397 . S
C988 C989 1.334 . S
C989 H966 0.950 . S
C989 C988 1.334 . S
C989 C990 1.287 . S
C990 C989 1.287 . S
C990 C991 1.524 . S
C990 H1009 0.913 . S
C991 H967 0.950 . S
C991 C990 1.524 . S
C991 C992 1.415 . S
C992 H968 0.950 . S
C992 C987 1.363 . S
C992 C991 1.415 . S
C993 H969 0.951 . S
C993 C994 1.366 . S
C993 C995 1.388 . S
C994 C993 1.366 . S
C994 C998 1.385 . S
C995 H970 0.951 . S
C995 C993 1.388 . S
C995 C996 1.366 . S
C996 C995 1.366 . S
C996 C997 1.414 . S
C996 C999 1.499 . S
C997 H971 0.950 . S
C997 C996 1.414 . S
C997 C998 1.374 . S
C998 H972 0.950 . S
C998 C994 1.385 . S
C998 C997 1.374 . S
C999 C996 1.499 . S
C999 C1000 1.373 . S
C999 C1001 1.389 . S
C1000 H973 0.950 . S
C1000 C986 1.377 . S
C1000 C999 1.373 . S
C1001 C985 1.377 . S
C1001 C999 1.389 . S
C1001 C1002 1.524 . S
C1002 C1001 1.524 . S
C1002 C1003 1.397 . S
C1002 C1007 1.363 . S
C1003 H974 0.950 . S
C1003 C1002 1.397 . S
C1003 C1004 1.334 . S
C1004 H975 0.950 . S
C1004 C1003 1.334 . S
C1004 C1005 1.287 . S
C1005 C1004 1.287 . S
C1005 C1006 1.524 . S
C1005 H1008 0.999 . S
C1006 H976 0.950 . S
C1006 C1005 1.524 . S
C1006 C1007 1.415 . S
C1007 H977 0.950 . S
C1007 C1002 1.363 . S
C1007 C1006 1.415 . S
H1008 C1005 0.999 . S
H1009 C990 0.913 . S
H1010 C1028 0.951 . S
H1011 C1030 0.951 . S
H1012 C1032 0.950 . S
H1013 C1033 0.950 . S
H1014 C1035 0.950 . S
H1015 C1038 0.950 . S
H1016 C1039 0.950 . S
H1017 C1041 0.950 . S
H1018 C1042 0.950 . S
H1019 C1043 0.951 . S
H1020 C1045 0.951 . S
H1021 C1047 0.950 . S
H1022 C1048 0.950 . S
H1023 C1050 0.950 . S
H1024 C1053 0.950 . S
H1025 C1054 0.950 . S
H1026 C1056 0.950 . S
H1027 C1057 0.950 . S
C1028 H1010 0.951 . S
C1028 C1029 1.366 . S
C1028 C1030 1.388 . S
C1029 C1028 1.366 . S
C1029 C1033 1.385 1_545 S
C1030 H1011 0.951 . S
C1030 C1028 1.388 . S
C1030 C1031 1.366 . S
C1031 C1030 1.366 . S
C1031 C1032 1.414 1_545 S
C1031 C1034 1.499 . S
C1032 H1012 0.950 . S
C1032 C1031 1.414 1_565 S
C1032 C1033 1.374 . S
C1033 H1013 0.950 . S
C1033 C1029 1.385 1_565 S
C1033 C1032 1.374 . S
C1034 C1031 1.499 . S
C1034 C1035 1.373 1_545 S
C1034 C1036 1.389 . S
C1035 H1014 0.950 . S
C1035 C1034 1.373 1_565 S
C1035 C1051 1.377 . S
C1036 C1034 1.389 . S
C1036 C1037 1.524 . S
C1036 C1050 1.377 . S
C1037 C1036 1.524 . S
C1037 C1038 1.397 . S
C1037 C1042 1.363 . S
C1038 H1015 0.950 . S
C1038 C1037 1.397 . S
C1038 C1039 1.334 . S
C1039 H1016 0.950 . S
C1039 C1038 1.334 . S
C1039 C1040 1.287 . S
C1040 C1039 1.287 . S
C1040 C1041 1.524 . S
C1040 H1059 0.913 . S
C1041 H1017 0.950 . S
C1041 C1040 1.524 . S
C1041 C1042 1.415 . S
C1042 H1018 0.950 . S
C1042 C1037 1.363 . S
C1042 C1041 1.415 . S
C1043 H1019 0.951 . S
C1043 C1044 1.366 . S
C1043 C1045 1.388 . S
C1044 C1043 1.366 . S
C1044 C1048 1.385 1_565 S
C1045 H1020 0.951 . S
C1045 C1043 1.388 . S
C1045 C1046 1.366 . S
C1046 C1045 1.366 . S
C1046 C1047 1.414 1_565 S
C1046 C1049 1.503 . S
C1047 H1021 0.950 . S
C1047 C1046 1.414 1_545 S
C1047 C1048 1.374 . S
C1048 H1022 0.950 . S
C1048 C1044 1.385 1_545 S
C1048 C1047 1.374 . S
C1049 C1046 1.503 . S
C1049 C1050 1.346 1_565 S
C1049 C1051 1.412 . S
C1050 H1023 0.950 . S
C1050 C1036 1.377 . S
C1050 C1049 1.346 1_545 S
C1051 C1035 1.377 . S
C1051 C1049 1.412 . S
C1051 C1052 1.524 . S
C1052 C1051 1.524 . S
C1052 C1053 1.397 . S
C1052 C1057 1.363 . S
C1053 H1024 0.950 . S
C1053 C1052 1.397 . S
C1053 C1054 1.334 . S
C1054 H1025 0.950 . S
C1054 C1053 1.334 . S
C1054 C1055 1.287 . S
C1055 C1054 1.287 . S
C1055 C1056 1.524 . S
C1055 H1058 0.999 . S
C1056 H1026 0.950 . S
C1056 C1055 1.524 . S
C1056 C1057 1.415 . S
C1057 H1027 0.950 . S
C1057 C1052 1.363 . S
C1057 C1056 1.415 . S
H1058 C1055 0.999 . S
H1059 C1040 0.913 . S
H1060 C1078 0.951 . S
H1061 C1080 0.951 . S
H1062 C1082 0.950 . S
H1063 C1083 0.950 . S
H1064 C1085 0.950 . S
H1065 C1088 0.950 . S
H1066 C1089 0.950 . S
H1067 C1091 0.950 . S
H1068 C1092 0.950 . S
H1069 C1093 0.951 . S
H1070 C1095 0.951 . S
H1071 C1097 0.950 . S
H1072 C1098 0.950 . S
H1073 C1100 0.950 . S
H1074 C1103 0.950 . S
H1075 C1104 0.950 . S
H1076 C1106 0.950 . S
H1077 C1107 0.950 . S
C1078 H1060 0.951 . S
C1078 C1079 1.366 . S
C1078 C1080 1.388 . S
C1079 C1078 1.366 . S
C1079 C1083 1.385 . S
C1080 H1061 0.951 . S
C1080 C1078 1.388 . S
C1080 C1081 1.366 . S
C1081 C1080 1.366 . S
C1081 C1082 1.414 . S
C1081 C1084 1.499 . S
C1082 H1062 0.950 . S
C1082 C1081 1.414 . S
C1082 C1083 1.374 . S
C1083 H1063 0.950 . S
C1083 C1079 1.385 . S
C1083 C1082 1.374 . S
C1084 C1081 1.499 . S
C1084 C1085 1.373 . S
C1084 C1086 1.389 . S
C1085 H1064 0.950 . S
C1085 C1084 1.373 . S
C1085 C1101 1.377 . S
C1086 C1084 1.389 . S
C1086 C1087 1.524 . S
C1086 C1100 1.377 . S
C1087 C1086 1.524 . S
C1087 C1088 1.397 . S
C1087 C1092 1.363 . S
C1088 H1065 0.950 . S
C1088 C1087 1.397 . S
C1088 C1089 1.334 . S
C1089 H1066 0.950 . S
C1089 C1088 1.334 . S
C1089 C1090 1.287 . S
C1090 C1089 1.287 . S
C1090 C1091 1.524 . S
C1090 H1109 0.913 . S
C1091 H1067 0.950 . S
C1091 C1090 1.524 . S
C1091 C1092 1.415 . S
C1092 H1068 0.950 . S
C1092 C1087 1.363 . S
C1092 C1091 1.415 . S
C1093 H1069 0.951 . S
C1093 C1094 1.366 . S
C1093 C1095 1.388 . S
C1094 C1093 1.366 . S
C1094 C1098 1.385 . S
C1095 H1070 0.951 . S
C1095 C1093 1.388 . S
C1095 C1096 1.366 . S
C1096 C1095 1.366 . S
C1096 C1097 1.414 . S
C1096 C1099 1.499 . S
C1097 H1071 0.950 . S
C1097 C1096 1.414 . S
C1097 C1098 1.374 . S
C1098 H1072 0.950 . S
C1098 C1094 1.385 . S
C1098 C1097 1.374 . S
C1099 C1096 1.499 . S
C1099 C1100 1.373 . S
C1099 C1101 1.389 . S
C1100 H1073 0.950 . S
C1100 C1086 1.377 . S
C1100 C1099 1.373 . S
C1101 C1085 1.377 . S
C1101 C1099 1.389 . S
C1101 C1102 1.524 . S
C1102 C1101 1.524 . S
C1102 C1103 1.397 . S
C1102 C1107 1.363 . S
C1103 H1074 0.950 . S
C1103 C1102 1.397 . S
C1103 C1104 1.334 . S
C1104 H1075 0.950 . S
C1104 C1103 1.334 . S
C1104 C1105 1.287 . S
C1105 C1104 1.287 . S
C1105 C1106 1.524 . S
C1105 H1108 0.999 . S
C1106 H1076 0.950 . S
C1106 C1105 1.524 . S
C1106 C1107 1.415 . S
C1107 H1077 0.950 . S
C1107 C1102 1.363 . S
C1107 C1106 1.415 . S
H1108 C1105 0.999 . S
H1109 C1090 0.913 . S
H1110 C1128 0.951 . S
H1111 C1130 0.951 . S
H1112 C1132 0.950 . S
H1113 C1133 0.950 . S
H1114 C1135 0.950 . S
H1115 C1138 0.950 . S
H1116 C1139 0.950 . S
H1117 C1141 0.950 . S
H1118 C1142 0.950 . S
H1119 C1143 0.951 . S
H1120 C1145 0.951 . S
H1121 C1147 0.950 . S
H1122 C1148 0.950 . S
H1123 C1150 0.950 . S
H1124 C1153 0.950 . S
H1125 C1154 0.950 . S
H1126 C1156 0.950 . S
H1127 C1157 0.950 . S
C1128 H1110 0.951 . S
C1128 C1129 1.366 . S
C1128 C1130 1.388 . S
C1129 C1128 1.366 . S
C1129 C1133 1.385 . S
C1130 H1111 0.951 . S
C1130 C1128 1.388 . S
C1130 C1131 1.366 . S
C1131 C1130 1.366 . S
C1131 C1132 1.414 . S
C1131 C1134 1.499 . S
C1132 H1112 0.950 . S
C1132 C1131 1.414 . S
C1132 C1133 1.374 . S
C1133 H1113 0.950 . S
C1133 C1129 1.385 . S
C1133 C1132 1.374 . S
C1134 C1131 1.499 . S
C1134 C1135 1.373 . S
C1134 C1136 1.389 . S
C1135 H1114 0.950 . S
C1135 C1134 1.373 . S
C1135 C1151 1.377 . S
C1136 C1134 1.389 . S
C1136 C1137 1.524 . S
C1136 C1150 1.377 . S
C1137 C1136 1.524 . S
C1137 C1138 1.397 . S
C1137 C1142 1.363 . S
C1138 H1115 0.950 . S
C1138 C1137 1.397 . S
C1138 C1139 1.334 . S
C1139 H1116 0.950 . S
C1139 C1138 1.334 . S
C1139 C1140 1.287 . S
C1140 C1139 1.287 . S
C1140 C1141 1.524 . S
C1140 H1159 0.913 . S
C1141 H1117 0.950 . S
C1141 C1140 1.524 . S
C1141 C1142 1.415 . S
C1142 H1118 0.950 . S
C1142 C1137 1.363 . S
C1142 C1141 1.415 . S
C1143 H1119 0.951 . S
C1143 C1144 1.366 . S
C1143 C1145 1.388 . S
C1144 C1143 1.366 . S
C1144 C1148 1.385 . S
C1145 H1120 0.951 . S
C1145 C1143 1.388 . S
C1145 C1146 1.366 . S
C1146 C1145 1.366 . S
C1146 C1147 1.414 . S
C1146 C1149 1.499 . S
C1147 H1121 0.950 . S
C1147 C1146 1.414 . S
C1147 C1148 1.374 . S
C1148 H1122 0.950 . S
C1148 C1144 1.385 . S
C1148 C1147 1.374 . S
C1149 C1146 1.499 . S
C1149 C1150 1.373 . S
C1149 C1151 1.389 . S
C1150 H1123 0.950 . S
C1150 C1136 1.377 . S
C1150 C1149 1.373 . S
C1151 C1135 1.377 . S
C1151 C1149 1.389 . S
C1151 C1152 1.524 . S
C1152 C1151 1.524 . S
C1152 C1153 1.397 . S
C1152 C1157 1.363 . S
C1153 H1124 0.950 . S
C1153 C1152 1.397 . S
C1153 C1154 1.334 . S
C1154 H1125 0.950 . S
C1154 C1153 1.334 . S
C1154 C1155 1.287 . S
C1155 C1154 1.287 . S
C1155 C1156 1.524 . S
C1155 H1158 0.999 . S
C1156 H1126 0.950 . S
C1156 C1155 1.524 . S
C1156 C1157 1.415 . S
C1157 H1127 0.950 . S
C1157 C1152 1.363 . S
C1157 C1156 1.415 . S
H1158 C1155 0.999 . S
H1159 C1140 0.913 . S
H1160 C1178 0.951 . S
H1161 C1180 0.951 . S
H1162 C1182 0.950 . S
H1163 C1183 0.950 . S
H1164 C1185 0.950 . S
H1165 C1188 0.950 . S
H1166 C1189 0.950 . S
H1167 C1191 0.950 . S
H1168 C1192 0.950 . S
H1169 C1193 0.951 . S
H1170 C1195 0.951 . S
H1171 C1197 0.950 . S
H1172 C1198 0.950 1_455 S
H1173 C1200 0.950 . S
H1174 C1203 0.950 . S
H1175 C1204 0.950 . S
H1176 C1206 0.950 . S
H1177 C1207 0.950 . S
C1178 H1160 0.951 . S
C1178 C1179 1.366 . S
C1178 C1180 1.388 . S
C1179 C1178 1.366 . S
C1179 C1183 1.385 . S
C1180 H1161 0.951 . S
C1180 C1178 1.388 . S
C1180 C1181 1.366 . S
C1181 C1180 1.366 . S
C1181 C1182 1.414 . S
C1181 C1184 1.499 . S
C1182 H1162 0.950 . S
C1182 C1181 1.414 . S
C1182 C1183 1.374 . S
C1183 H1163 0.950 . S
C1183 C1179 1.385 . S
C1183 C1182 1.374 . S
C1184 C1181 1.499 . S
C1184 C1185 1.373 . S
C1184 C1186 1.389 . S
C1185 H1164 0.950 . S
C1185 C1184 1.373 . S
C1185 C1201 1.377 . S
C1186 C1184 1.389 . S
C1186 C1187 1.524 . S
C1186 C1200 1.377 . S
C1187 C1186 1.524 . S
C1187 C1188 1.397 . S
C1187 C1192 1.363 . S
C1188 H1165 0.950 . S
C1188 C1187 1.397 . S
C1188 C1189 1.334 . S
C1189 H1166 0.950 . S
C1189 C1188 1.334 . S
C1189 C1190 1.287 . S
C1190 C1189 1.287 . S
C1190 C1191 1.524 . S
C1190 H1209 0.913 . S
C1191 H1167 0.950 . S
C1191 C1190 1.524 . S
C1191 C1192 1.415 . S
C1192 H1168 0.950 . S
C1192 C1187 1.363 . S
C1192 C1191 1.415 . S
C1193 H1169 0.951 . S
C1193 C1194 1.366 . S
C1193 C1195 1.388 . S
C1194 C1193 1.366 . S
C1194 C1198 1.385 . S
C1195 H1170 0.951 . S
C1195 C1193 1.388 . S
C1195 C1196 1.366 . S
C1196 C1195 1.366 . S
C1196 C1197 1.414 . S
C1196 C1199 1.499 . S
C1197 H1171 0.950 . S
C1197 C1196 1.414 . S
C1197 C1198 1.374 . S
C1198 H1172 0.950 1_655 S
C1198 C1194 1.385 . S
C1198 C1197 1.374 . S
C1199 C1196 1.499 . S
C1199 C1200 1.373 . S
C1199 C1201 1.389 . S
C1200 H1173 0.950 . S
C1200 C1186 1.377 . S
C1200 C1199 1.373 . S
C1201 C1185 1.377 . S
C1201 C1199 1.389 . S
C1201 C1202 1.524 . S
C1202 C1201 1.524 . S
C1202 C1203 1.397 . S
C1202 C1207 1.363 . S
C1203 H1174 0.950 . S
C1203 C1202 1.397 . S
C1203 C1204 1.334 . S
C1204 H1175 0.950 . S
C1204 C1203 1.334 . S
C1204 C1205 1.287 . S
C1205 C1204 1.287 . S
C1205 C1206 1.524 . S
C1205 H1208 0.999 . S
C1206 H1176 0.950 . S
C1206 C1205 1.524 . S
C1206 C1207 1.415 . S
C1207 H1177 0.950 . S
C1207 C1202 1.363 . S
C1207 C1206 1.415 . S
H1208 C1205 0.999 . S
H1209 C1190 0.913 . S
H1210 C1228 0.951 . S
H1211 C1230 0.951 . S
H1212 C1232 0.950 . S
H1213 C1233 0.950 . S
H1214 C1235 0.950 . S
H1215 C1238 0.950 . S
H1216 C1239 0.950 . S
H1217 C1241 0.950 . S
H1218 C1242 0.950 . S
H1219 C1243 0.951 . S
H1220 C1245 0.951 . S
H1221 C1247 0.950 . S
H1222 C1248 0.950 . S
H1223 C1250 0.950 . S
H1224 C1253 0.950 . S
H1225 C1254 0.950 . S
H1226 C1256 0.950 1_554 S
H1227 C1257 0.950 . S
C1228 H1210 0.951 . S
C1228 C1229 1.366 . S
C1228 C1230 1.388 . S
C1229 C1228 1.366 . S
C1229 C1233 1.383 1_565 S
C1230 H1211 0.951 . S
C1230 C1228 1.388 . S
C1230 C1231 1.366 1_565 S
C1231 C1230 1.366 1_545 S
C1231 C1232 1.414 . S
C1231 C1234 1.499 . S
C1232 H1212 0.950 . S
C1232 C1231 1.414 . S
C1232 C1233 1.374 . S
C1233 H1213 0.950 . S
C1233 C1229 1.383 1_545 S
C1233 C1232 1.374 . S
C1234 C1231 1.499 . S
C1234 C1235 1.373 1_545 S
C1234 C1236 1.389 . S
C1235 H1214 0.950 . S
C1235 C1234 1.373 1_565 S
C1235 C1251 1.377 . S
C1236 C1234 1.389 . S
C1236 C1237 1.524 . S
C1236 C1250 1.377 . S
C1237 C1236 1.524 . S
C1237 C1238 1.397 . S
C1237 C1242 1.363 . S
C1238 H1215 0.950 . S
C1238 C1237 1.397 . S
C1238 C1239 1.334 . S
C1239 H1216 0.950 . S
C1239 C1238 1.334 . S
C1239 C1240 1.287 . S
C1240 C1239 1.287 . S
C1240 C1241 1.524 . S
C1240 H1259 0.913 . S
C1241 H1217 0.950 . S
C1241 C1240 1.524 . S
C1241 C1242 1.415 . S
C1242 H1218 0.950 . S
C1242 C1237 1.363 . S
C1242 C1241 1.415 . S
C1243 H1219 0.951 . S
C1243 C1244 1.366 . S
C1243 C1245 1.388 . S
C1244 C1243 1.366 . S
C1244 C1248 1.385 1_545 S
C1245 H1220 0.951 . S
C1245 C1243 1.388 . S
C1245 C1246 1.366 . S
C1246 C1245 1.366 . S
C1246 C1247 1.414 1_545 S
C1246 C1249 1.506 . S
C1247 H1221 0.950 . S
C1247 C1246 1.414 1_565 S
C1247 C1248 1.374 . S
C1248 H1222 0.950 . S
C1248 C1244 1.385 1_565 S
C1248 C1247 1.374 . S
C1249 C1246 1.506 . S
C1249 C1250 1.393 . S
C1249 C1251 1.368 1_545 S
C1250 H1223 0.950 . S
C1250 C1236 1.377 . S
C1250 C1249 1.393 . S
C1251 C1235 1.377 . S
C1251 C1249 1.368 1_565 S
C1251 C1252 1.524 . S
C1252 C1251 1.524 . S
C1252 C1253 1.397 . S
C1252 C1257 1.363 . S
C1253 H1224 0.950 . S
C1253 C1252 1.397 . S
C1253 C1254 1.334 . S
C1254 H1225 0.950 . S
C1254 C1253 1.334 . S
C1254 C1255 1.287 . S
C1255 C1254 1.287 . S
C1255 C1256 1.524 . S
C1255 H1258 0.999 . S
C1256 H1226 0.950 1_556 S
C1256 C1255 1.524 . S
C1256 C1257 1.415 . S
C1257 H1227 0.950 . S
C1257 C1252 1.363 . S
C1257 C1256 1.415 . S
H1258 C1255 0.999 . S
H1259 C1240 0.913 . S
H1260 C1278 0.951 . S
H1261 C1280 0.951 . S
H1262 C1282 0.950 . S
H1263 C1283 0.950 . S
H1264 C1285 0.950 . S
H1265 C1288 0.950 . S
H1266 C1289 0.950 . S
H1267 C1291 0.950 . S
H1268 C1292 0.950 . S
H1269 C1293 0.951 . S
H1270 C1295 0.951 . S
H1271 C1297 0.950 . S
H1272 C1298 0.950 . S
H1273 C1300 0.950 . S
H1274 C1303 0.950 . S
H1275 C1304 0.950 . S
H1276 C1306 0.950 . S
H1277 C1307 0.950 . S
C1278 H1260 0.951 . S
C1278 C1279 1.366 . S
C1278 C1280 1.388 . S
C1279 C1278 1.366 . S
C1279 C1283 1.385 . S
C1280 H1261 0.951 . S
C1280 C1278 1.388 . S
C1280 C1281 1.366 . S
C1281 C1280 1.366 . S
C1281 C1282 1.414 . S
C1281 C1284 1.499 . S
C1282 H1262 0.950 . S
C1282 C1281 1.414 . S
C1282 C1283 1.374 . S
C1283 H1263 0.950 . S
C1283 C1279 1.385 . S
C1283 C1282 1.374 . S
C1284 C1281 1.499 . S
C1284 C1285 1.373 . S
C1284 C1286 1.389 . S
C1285 H1264 0.950 . S
C1285 C1284 1.373 . S
C1285 C1301 1.377 . S
C1286 C1284 1.389 . S
C1286 C1287 1.524 . S
C1286 C1300 1.377 . S
C1287 C1286 1.524 . S
C1287 C1288 1.397 . S
C1287 C1292 1.363 . S
C1288 H1265 0.950 . S
C1288 C1287 1.397 . S
C1288 C1289 1.334 . S
C1289 H1266 0.950 . S
C1289 C1288 1.334 . S
C1289 C1290 1.287 . S
C1290 C1289 1.287 . S
C1290 C1291 1.524 . S
C1290 H1309 0.913 . S
C1291 H1267 0.950 . S
C1291 C1290 1.524 . S
C1291 C1292 1.415 . S
C1292 H1268 0.950 . S
C1292 C1287 1.363 . S
C1292 C1291 1.415 . S
C1293 H1269 0.951 . S
C1293 C1294 1.366 . S
C1293 C1295 1.388 . S
C1294 C1293 1.366 . S
C1294 C1298 1.385 . S
C1295 H1270 0.951 . S
C1295 C1293 1.388 . S
C1295 C1296 1.366 . S
C1296 C1295 1.366 . S
C1296 C1297 1.414 . S
C1296 C1299 1.499 . S
C1297 H1271 0.950 . S
C1297 C1296 1.414 . S
C1297 C1298 1.374 . S
C1298 H1272 0.950 . S
C1298 C1294 1.385 . S
C1298 C1297 1.374 . S
C1299 C1296 1.499 . S
C1299 C1300 1.373 . S
C1299 C1301 1.389 . S
C1300 H1273 0.950 . S
C1300 C1286 1.377 . S
C1300 C1299 1.373 . S
C1301 C1285 1.377 . S
C1301 C1299 1.389 . S
C1301 C1302 1.524 . S
C1302 C1301 1.524 . S
C1302 C1303 1.397 . S
C1302 C1307 1.363 . S
C1303 H1274 0.950 . S
C1303 C1302 1.397 . S
C1303 C1304 1.334 . S
C1304 H1275 0.950 . S
C1304 C1303 1.334 . S
C1304 C1305 1.287 . S
C1305 C1304 1.287 . S
C1305 C1306 1.524 . S
C1305 H1308 0.999 . S
C1306 H1276 0.950 . S
C1306 C1305 1.524 . S
C1306 C1307 1.415 . S
C1307 H1277 0.950 . S
C1307 C1302 1.363 . S
C1307 C1306 1.415 . S
H1308 C1305 0.999 . S
H1309 C1290 0.913 . S
H1310 C1328 0.951 . S
H1311 C1330 0.951 . S
H1312 C1332 0.950 . S
H1313 C1333 0.950 . S
H1314 C1335 0.950 . S
H1315 C1338 0.950 . S
H1316 C1339 0.950 . S
H1317 C1341 0.950 . S
H1318 C1342 0.950 . S
H1319 C1343 0.951 . S
H1320 C1345 0.951 . S
H1321 C1347 0.950 . S
H1322 C1348 0.950 . S
H1323 C1350 0.950 . S
H1324 C1353 0.950 . S
H1325 C1354 0.950 . S
H1326 C1356 0.950 . S
H1327 C1357 0.950 . S
C1328 H1310 0.951 . S
C1328 C1329 1.366 . S
C1328 C1330 1.388 . S
C1329 C1328 1.366 . S
C1329 C1333 1.385 . S
C1330 H1311 0.951 . S
C1330 C1328 1.388 . S
C1330 C1331 1.366 . S
C1331 C1330 1.366 . S
C1331 C1332 1.414 . S
C1331 C1334 1.499 . S
C1332 H1312 0.950 . S
C1332 C1331 1.414 . S
C1332 C1333 1.374 . S
C1333 H1313 0.950 . S
C1333 C1329 1.385 . S
C1333 C1332 1.374 . S
C1334 C1331 1.499 . S
C1334 C1335 1.373 . S
C1334 C1336 1.389 . S
C1335 H1314 0.950 . S
C1335 C1334 1.373 . S
C1335 C1351 1.377 . S
C1336 C1334 1.389 . S
C1336 C1337 1.524 . S
C1336 C1350 1.377 . S
C1337 C1336 1.524 . S
C1337 C1338 1.397 . S
C1337 C1342 1.363 . S
C1338 H1315 0.950 . S
C1338 C1337 1.397 . S
C1338 C1339 1.334 . S
C1339 H1316 0.950 . S
C1339 C1338 1.334 . S
C1339 C1340 1.287 1_556 S
C1340 C1339 1.287 1_554 S
C1340 C1341 1.524 . S
C1340 H1359 0.913 . S
C1341 H1317 0.950 . S
C1341 C1340 1.524 . S
C1341 C1342 1.415 1_554 S
C1342 H1318 0.950 . S
C1342 C1337 1.363 . S
C1342 C1341 1.415 1_556 S
C1343 H1319 0.951 . S
C1343 C1344 1.366 . S
C1343 C1345 1.388 . S
C1344 C1343 1.366 . S
C1344 C1348 1.385 . S
C1345 H1320 0.951 . S
C1345 C1343 1.388 . S
C1345 C1346 1.366 . S
C1346 C1345 1.366 . S
C1346 C1347 1.414 . S
C1346 C1349 1.499 . S
C1347 H1321 0.950 . S
C1347 C1346 1.414 . S
C1347 C1348 1.374 . S
C1348 H1322 0.950 . S
C1348 C1344 1.385 . S
C1348 C1347 1.374 . S
C1349 C1346 1.499 . S
C1349 C1350 1.373 . S
C1349 C1351 1.389 . S
C1350 H1323 0.950 . S
C1350 C1336 1.377 . S
C1350 C1349 1.373 . S
C1351 C1335 1.377 . S
C1351 C1349 1.389 . S
C1351 C1352 1.524 . S
C1352 C1351 1.524 . S
C1352 C1353 1.397 . S
C1352 C1357 1.363 . S
C1353 H1324 0.950 . S
C1353 C1352 1.397 . S
C1353 C1354 1.334 . S
C1354 H1325 0.950 . S
C1354 C1353 1.334 . S
C1354 C1355 1.287 . S
C1355 C1354 1.287 . S
C1355 C1356 1.524 . S
C1355 H1358 0.999 . S
C1356 H1326 0.950 . S
C1356 C1355 1.524 . S
C1356 C1357 1.415 . S
C1357 H1327 0.950 . S
C1357 C1352 1.363 . S
C1357 C1356 1.415 . S
H1358 C1355 0.999 . S
H1359 C1340 0.913 . S
H1360 C1378 0.951 . S
H1361 C1380 0.951 . S
H1362 C1382 0.950 1_556 S
H1363 C1383 0.950 . S
H1364 C1385 0.950 1_554 S
H1365 C1388 0.950 . S
H1366 C1389 0.950 . S
H1367 C1391 0.950 . S
H1368 C1392 0.950 . S
H1369 C1393 0.951 . S
H1370 C1395 0.951 . S
H1371 C1397 0.950 . S
H1372 C1398 0.950 . S
H1373 C1400 0.950 . S
H1374 C1403 0.950 . S
H1375 C1404 0.950 . S
H1376 C1406 0.950 . S
H1377 C1407 0.950 . S
C1378 H1360 0.951 . S
C1378 C1379 1.366 . S
C1378 C1380 1.388 . S
C1379 C1378 1.366 . S
C1379 C1383 1.385 . S
C1380 H1361 0.951 . S
C1380 C1378 1.388 . S
C1380 C1381 1.375 . S
C1381 C1380 1.375 . S
C1381 C1382 1.415 . S
C1381 C1384 1.489 1_554 S
C1382 H1362 0.950 1_554 S
C1382 C1381 1.415 . S
C1382 C1383 1.374 . S
C1383 H1363 0.950 . S
C1383 C1379 1.385 . S
C1383 C1382 1.374 . S
C1384 C1381 1.489 1_556 S
C1384 C1385 1.373 . S
C1384 C1386 1.389 . S
C1385 H1364 0.950 1_556 S
C1385 C1384 1.373 . S
C1385 C1401 1.377 . S
C1386 C1384 1.389 . S
C1386 C1387 1.524 . S
C1386 C1400 1.377 . S
C1387 C1386 1.524 . S
C1387 C1388 1.397 . S
C1387 C1392 1.363 . S
C1388 H1365 0.950 . S
C1388 C1387 1.397 . S
C1388 C1389 1.334 . S
C1389 H1366 0.950 . S
C1389 C1388 1.334 . S
C1389 C1390 1.287 . S
C1390 C1389 1.287 . S
C1390 C1391 1.524 . S
C1390 H1409 0.913 . S
C1391 H1367 0.950 . S
C1391 C1390 1.524 . S
C1391 C1392 1.415 . S
C1392 H1368 0.950 . S
C1392 C1387 1.363 . S
C1392 C1391 1.415 . S
C1393 H1369 0.951 . S
C1393 C1394 1.366 . S
C1393 C1395 1.388 . S
C1394 C1393 1.366 . S
C1394 C1398 1.385 . S
C1395 H1370 0.951 . S
C1395 C1393 1.388 . S
C1395 C1396 1.366 . S
C1396 C1395 1.366 . S
C1396 C1397 1.414 . S
C1396 C1399 1.499 . S
C1397 H1371 0.950 . S
C1397 C1396 1.414 . S
C1397 C1398 1.374 . S
C1398 H1372 0.950 . S
C1398 C1394 1.385 . S
C1398 C1397 1.374 . S
C1399 C1396 1.499 . S
C1399 C1400 1.373 . S
C1399 C1401 1.389 . S
C1400 H1373 0.950 . S
C1400 C1386 1.377 . S
C1400 C1399 1.373 . S
C1401 C1385 1.377 . S
C1401 C1399 1.389 . S
C1401 C1402 1.524 . S
C1402 C1401 1.524 . S
C1402 C1403 1.397 . S
C1402 C1407 1.363 . S
C1403 H1374 0.950 . S
C1403 C1402 1.397 . S
C1403 C1404 1.334 1_556 S
C1404 H1375 0.950 . S
C1404 C1403 1.334 1_554 S
C1404 C1405 1.287 . S
C1405 C1404 1.287 . S
C1405 C1406 1.524 1_554 S
C1405 H1408 0.999 1_455 S
C1406 H1376 0.950 . S
C1406 C1405 1.524 1_556 S
C1406 C1407 1.415 . S
C1407 H1377 0.950 . S
C1407 C1402 1.363 . S
C1407 C1406 1.415 . S
H1408 C1405 0.999 1_655 S
H1409 C1390 0.913 . S
H1410 C1428 0.951 . S
H1411 C1430 0.951 . S
H1412 C1432 0.950 . S
H1413 C1433 0.950 . S
H1414 C1435 0.950 . S
H1415 C1438 0.950 . S
H1416 C1439 0.950 . S
H1417 C1441 0.950 . S
H1418 C1442 0.950 . S
H1419 C1443 0.951 . S
H1420 C1445 0.951 . S
H1421 C1447 0.950 . S
H1422 C1448 0.950 . S
H1423 C1450 0.950 . S
H1424 C1453 0.950 . S
H1425 C1454 0.950 . S
H1426 C1456 0.950 . S
H1427 C1457 0.950 . S
C1428 H1410 0.951 . S
C1428 C1429 1.366 1_566 S
C1428 C1430 1.388 . S
C1429 C1428 1.366 1_544 S
C1429 C1433 1.385 . S
C1430 H1411 0.951 . S
C1430 C1428 1.388 . S
C1430 C1431 1.366 1_565 S
C1431 C1430 1.366 1_545 S
C1431 C1432 1.414 1_556 S
C1431 C1434 1.499 . S
C1432 H1412 0.950 . S
C1432 C1431 1.414 1_554 S
C1432 C1433 1.374 . S
C1433 H1413 0.950 . S
C1433 C1429 1.385 . S
C1433 C1432 1.374 . S
C1434 C1431 1.499 . S
C1434 C1435 1.373 . S
C1434 C1436 1.389 1_545 S
C1435 H1414 0.950 . S
C1435 C1434 1.373 . S
C1435 C1451 1.377 . S
C1436 C1434 1.389 1_565 S
C1436 C1437 1.524 . S
C1436 C1450 1.377 . S
C1437 C1436 1.524 . S
C1437 C1438 1.397 . S
C1437 C1442 1.363 . S
C1438 H1415 0.950 . S
C1438 C1437 1.397 . S
C1438 C1439 1.334 . S
C1439 H1416 0.950 . S
C1439 C1438 1.334 . S
C1439 C1440 1.287 . S
C1440 C1439 1.287 . S
C1440 C1441 1.524 . S
C1440 H1459 0.913 . S
C1441 H1417 0.950 . S
C1441 C1440 1.524 . S
C1441 C1442 1.415 . S
C1442 H1418 0.950 . S
C1442 C1437 1.363 . S
C1442 C1441 1.415 . S
C1443 H1419 0.951 . S
C1443 C1444 1.366 . S
C1443 C1445 1.388 . S
C1444 C1443 1.366 . S
C1444 C1448 1.385 1_545 S
C1445 H1420 0.951 . S
C1445 C1443 1.388 . S
C1445 C1446 1.366 . S
C1446 C1445 1.366 . S
C1446 C1447 1.414 1_545 S
C1446 C1449 1.499 . S
C1447 H1421 0.950 . S
C1447 C1446 1.414 1_565 S
C1447 C1448 1.374 . S
C1448 H1422 0.950 . S
C1448 C1444 1.385 1_565 S
C1448 C1447 1.374 . S
C1449 C1446 1.499 . S
C1449 C1450 1.373 1_545 S
C1449 C1451 1.389 . S
C1450 H1423 0.950 . S
C1450 C1436 1.377 . S
C1450 C1449 1.373 1_565 S
C1451 C1435 1.377 . S
C1451 C1449 1.389 . S
C1451 C1452 1.524 . S
C1452 C1451 1.524 . S
C1452 C1453 1.397 . S
C1452 C1457 1.363 . S
C1453 H1424 0.950 . S
C1453 C1452 1.397 . S
C1453 C1454 1.334 . S
C1454 H1425 0.950 . S
C1454 C1453 1.334 . S
C1454 C1455 1.287 . S
C1455 C1454 1.287 . S
C1455 C1456 1.524 . S
C1455 H1458 0.999 . S
C1456 H1426 0.950 . S
C1456 C1455 1.524 . S
C1456 C1457 1.415 . S
C1457 H1427 0.950 . S
C1457 C1452 1.363 . S
C1457 C1456 1.415 . S
H1458 C1455 0.999 . S
H1459 C1440 0.913 . S
H1460 C1478 0.951 . S
H1461 C1480 0.951 . S
H1462 C1482 0.950 . S
H1463 C1483 0.950 . S
H1464 C1485 0.950 . S
H1465 C1488 0.950 . S
H1466 C1489 0.950 . S
H1467 C1491 0.950 . S
H1468 C1492 0.950 . S
H1469 C1493 0.951 . S
H1470 C1495 0.951 . S
H1471 C1497 0.950 . S
H1472 C1498 0.950 . S
H1473 C1500 0.950 . S
H1474 C1503 0.950 . S
H1475 C1504 0.950 . S
H1476 C1506 0.950 . S
H1477 C1507 0.950 . S
C1478 H1460 0.951 . S
C1478 C1479 1.366 . S
C1478 C1480 1.388 . S
C1479 C1478 1.366 . S
C1479 C1483 1.385 1_554 S
C1480 H1461 0.951 . S
C1480 C1478 1.388 . S
C1480 C1481 1.366 1_554 S
C1481 C1480 1.366 1_556 S
C1481 C1482 1.414 . S
C1481 C1484 1.499 . S
C1482 H1462 0.950 . S
C1482 C1481 1.414 . S
C1482 C1483 1.374 . S
C1483 H1463 0.950 . S
C1483 C1479 1.385 1_556 S
C1483 C1482 1.374 . S
C1484 C1481 1.499 . S
C1484 C1485 1.373 . S
C1484 C1486 1.389 . S
C1485 H1464 0.950 . S
C1485 C1484 1.373 . S
C1485 C1501 1.377 . S
C1486 C1484 1.389 . S
C1486 C1487 1.524 1_556 S
C1486 C1500 1.377 . S
C1487 C1486 1.524 1_554 S
C1487 C1488 1.397 . S
C1487 C1492 1.363 . S
C1488 H1465 0.950 . S
C1488 C1487 1.397 . S
C1488 C1489 1.334 . S
C1489 H1466 0.950 . S
C1489 C1488 1.334 . S
C1489 C1490 1.287 . S
C1490 C1489 1.287 . S
C1490 C1491 1.524 . S
C1490 H1509 0.913 . S
C1491 H1467 0.950 . S
C1491 C1490 1.524 . S
C1491 C1492 1.415 . S
C1492 H1468 0.950 . S
C1492 C1487 1.363 . S
C1492 C1491 1.415 . S
C1493 H1469 0.951 . S
C1493 C1494 1.366 . S
C1493 C1495 1.388 . S
C1494 C1493 1.366 . S
C1494 C1498 1.385 . S
C1495 H1470 0.951 . S
C1495 C1493 1.388 . S
C1495 C1496 1.366 . S
C1496 C1495 1.366 . S
C1496 C1497 1.414 . S
C1496 C1499 1.499 . S
C1497 H1471 0.950 . S
C1497 C1496 1.414 . S
C1497 C1498 1.374 . S
C1498 H1472 0.950 . S
C1498 C1494 1.385 . S
C1498 C1497 1.374 . S
C1499 C1496 1.499 . S
C1499 C1500 1.373 . S
C1499 C1501 1.389 . S
C1500 H1473 0.950 . S
C1500 C1486 1.377 . S
C1500 C1499 1.373 . S
C1501 C1485 1.377 . S
C1501 C1499 1.389 . S
C1501 C1502 1.524 . S
C1502 C1501 1.524 . S
C1502 C1503 1.397 . S
C1502 C1507 1.363 . S
C1503 H1474 0.950 . S
C1503 C1502 1.397 . S
C1503 C1504 1.334 . S
C1504 H1475 0.950 . S
C1504 C1503 1.334 . S
C1504 C1505 1.287 . S
C1505 C1504 1.287 . S
C1505 C1506 1.524 . S
C1505 H1508 0.999 . S
C1506 H1476 0.950 . S
C1506 C1505 1.524 . S
C1506 C1507 1.415 . S
C1507 H1477 0.950 . S
C1507 C1502 1.363 . S
C1507 C1506 1.415 . S
H1508 C1505 0.999 . S
H1509 C1490 0.913 . S
H1510 C1528 0.951 . S
H1511 C1530 0.951 . S
H1512 C1532 0.950 . S
H1513 C1533 0.950 . S
H1514 C1535 0.950 1_554 S
H1515 C1538 0.950 . S
H1516 C1539 0.950 . S
H1517 C1541 0.950 . S
H1518 C1542 0.950 . S
H1519 C1543 0.951 . S
H1520 C1545 0.951 . S
H1521 C1547 0.950 . S
H1522 C1548 0.950 . S
H1523 C1550 0.950 . S
H1524 C1553 0.950 . S
H1525 C1554 0.950 . S
H1526 C1556 0.950 . S
H1527 C1557 0.950 . S
C1528 H1510 0.951 . S
C1528 C1529 1.366 . S
C1528 C1530 1.388 1_554 S
C1529 C1528 1.366 . S
C1529 C1533 1.385 . S
C1530 H1511 0.951 . S
C1530 C1528 1.388 1_556 S
C1530 C1531 1.366 . S
C1531 C1530 1.366 . S
C1531 C1532 1.414 1_556 S
C1531 C1534 1.499 . S
C1532 H1512 0.950 . S
C1532 C1531 1.414 1_554 S
C1532 C1533 1.374 . S
C1533 H1513 0.950 . S
C1533 C1529 1.385 . S
C1533 C1532 1.374 . S
C1534 C1531 1.499 . S
C1534 C1535 1.373 . S
C1534 C1536 1.389 . S
C1535 H1514 0.950 1_556 S
C1535 C1534 1.373 . S
C1535 C1551 1.377 . S
C1536 C1534 1.389 . S
C1536 C1537 1.524 . S
C1536 C1550 1.377 . S
C1537 C1536 1.524 . S
C1537 C1538 1.397 . S
C1537 C1542 1.363 . S
C1538 H1515 0.950 . S
C1538 C1537 1.397 . S
C1538 C1539 1.334 . S
C1539 H1516 0.950 . S
C1539 C1538 1.334 . S
C1539 C1540 1.287 . S
C1540 C1539 1.287 . S
C1540 C1541 1.524 . S
C1540 H1559 0.913 . S
C1541 H1517 0.950 . S
C1541 C1540 1.524 . S
C1541 C1542 1.415 . S
C1542 H1518 0.950 . S
C1542 C1537 1.363 . S
C1542 C1541 1.415 . S
C1543 H1519 0.951 . S
C1543 C1544 1.366 . S
C1543 C1545 1.388 . S
C1544 C1543 1.366 . S
C1544 C1548 1.385 . S
C1545 H1520 0.951 . S
C1545 C1543 1.388 . S
C1545 C1546 1.366 . S
C1546 C1545 1.366 . S
C1546 C1547 1.414 . S
C1546 C1549 1.499 . S
C1547 H1521 0.950 . S
C1547 C1546 1.414 . S
C1547 C1548 1.374 . S
C1548 H1522 0.950 . S
C1548 C1544 1.385 . S
C1548 C1547 1.374 . S
C1549 C1546 1.499 . S
C1549 C1550 1.373 . S
C1549 C1551 1.389 . S
C1550 H1523 0.950 . S
C1550 C1536 1.377 . S
C1550 C1549 1.373 . S
C1551 C1535 1.377 . S
C1551 C1549 1.389 . S
C1551 C1552 1.524 . S
C1552 C1551 1.524 . S
C1552 C1553 1.397 . S
C1552 C1557 1.363 1_556 S
C1553 H1524 0.950 . S
C1553 C1552 1.397 . S
C1553 C1554 1.334 1_556 S
C1554 H1525 0.950 . S
C1554 C1553 1.334 1_554 S
C1554 C1555 1.287 . S
C1555 C1554 1.287 . S
C1555 C1556 1.524 . S
C1555 H1558 0.999 . S
C1556 H1526 0.950 . S
C1556 C1555 1.524 . S
C1556 C1557 1.415 . S
C1557 H1527 0.950 . S
C1557 C1552 1.363 1_554 S
C1557 C1556 1.415 . S
H1558 C1555 0.999 . S
H1559 C1540 0.913 . S
H1560 C1578 0.951 . S
H1561 C1580 0.951 . S
H1562 C1582 0.950 . S
H1563 C1583 0.950 . S
H1564 C1585 0.950 . S
H1565 C1588 0.950 . S
H1566 C1589 0.950 . S
H1567 C1591 0.950 . S
H1568 C1592 0.950 . S
H1569 C1593 0.951 . S
H1570 C1595 0.951 . S
H1571 C1597 0.950 . S
H1572 C1598 0.950 . S
H1573 C1600 0.950 . S
H1574 C1603 0.950 . S
H1575 C1604 0.950 . S
H1576 C1606 0.989 . S
H1577 C1607 0.950 . S
C1578 H1560 0.951 . S
C1578 C1579 1.366 . S
C1578 C1580 1.388 . S
C1579 C1578 1.366 . S
C1579 C1583 1.385 . S
C1580 H1561 0.951 . S
C1580 C1578 1.388 . S
C1580 C1581 1.366 . S
C1581 C1580 1.366 . S
C1581 C1582 1.414 . S
C1581 C1584 1.499 . S
C1582 H1562 0.950 . S
C1582 C1581 1.414 . S
C1582 C1583 1.374 . S
C1583 H1563 0.950 . S
C1583 C1579 1.385 . S
C1583 C1582 1.374 . S
C1584 C1581 1.499 . S
C1584 C1585 1.373 . S
C1584 C1586 1.389 . S
C1585 H1564 0.950 . S
C1585 C1584 1.373 . S
C1585 C1601 1.377 . S
C1586 C1584 1.389 . S
C1586 C1587 1.524 . S
C1586 C1600 1.377 . S
C1587 C1586 1.524 . S
C1587 C1588 1.397 . S
C1587 C1592 1.363 . S
C1588 H1565 0.950 . S
C1588 C1587 1.397 . S
C1588 C1589 1.334 . S
C1589 H1566 0.950 . S
C1589 C1588 1.334 . S
C1589 C1590 1.287 . S
C1590 C1589 1.287 . S
C1590 C1591 1.524 . S
C1590 H1609 0.913 . S
C1591 H1567 0.950 . S
C1591 C1590 1.524 . S
C1591 C1592 1.415 . S
C1592 H1568 0.950 . S
C1592 C1587 1.363 . S
C1592 C1591 1.415 . S
C1593 H1569 0.951 . S
C1593 C1594 1.366 . S
C1593 C1595 1.388 . S
C1594 C1593 1.366 . S
C1594 C1598 1.385 . S
C1595 H1570 0.951 . S
C1595 C1593 1.388 . S
C1595 C1596 1.366 . S
C1596 C1595 1.366 . S
C1596 C1597 1.414 . S
C1596 C1599 1.499 . S
C1597 H1571 0.950 . S
C1597 C1596 1.414 . S
C1597 C1598 1.374 . S
C1598 H1572 0.950 . S
C1598 C1594 1.385 . S
C1598 C1597 1.374 . S
C1599 C1596 1.499 . S
C1599 C1600 1.373 . S
C1599 C1601 1.389 . S
C1600 H1573 0.950 . S
C1600 C1586 1.377 . S
C1600 C1599 1.373 . S
C1601 C1585 1.377 . S
C1601 C1599 1.389 . S
C1601 C1602 1.524 . S
C1602 C1601 1.524 . S
C1602 C1603 1.397 . S
C1602 C1607 1.363 . S
C1603 H1574 0.950 . S
C1603 C1602 1.397 . S
C1603 C1604 1.334 . S
C1604 H1575 0.950 . S
C1604 C1603 1.334 . S
C1604 C1605 1.287 . S
C1605 C1604 1.287 . S
C1605 C1606 1.524 . S
C1605 H1608 0.999 . S
C1606 H1576 0.989 . S
C1606 C1605 1.524 . S
C1606 C1607 1.415 . S
C1607 H1577 0.950 . S
C1607 C1602 1.363 . S
C1607 C1606 1.415 . S
H1608 C1605 0.999 . S
H1609 C1590 0.913 . S
H1610 C1628 0.956 . S
H1611 C1630 0.951 . S
H1612 C1632 0.952 . S
H1613 C1633 0.956 . S
H1614 C1635 0.950 . S
H1615 C1638 0.950 . S
H1616 C1639 0.950 . S
H1617 C1641 0.950 . S
H1618 C1642 0.950 . S
H1619 C1643 0.951 . S
H1620 C1645 0.951 . S
H1621 C1647 0.947 . S
H1622 C1648 0.945 . S
H1623 C1650 0.950 . S
H1624 C1653 0.950 . S
H1625 C1654 0.950 . S
H1626 C1656 0.950 . S
H1627 C1657 0.950 . S
C1628 H1610 0.956 . S
C1628 C1629 1.359 1_545 S
C1628 C1630 1.393 . S
C1629 C1628 1.359 1_565 S
C1629 C1633 1.383 . S
C1630 H1611 0.951 . S
C1630 C1628 1.393 . S
C1630 C1631 1.370 . S
C1631 C1630 1.370 . S
C1631 C1632 1.403 1_545 S
C1631 C1634 1.499 . S
C1632 H1612 0.952 . S
C1632 C1631 1.403 1_565 S
C1632 C1633 1.373 . S
C1633 H1613 0.956 . S
C1633 C1629 1.383 . S
C1633 C1632 1.373 . S
C1634 C1631 1.499 . S
C1634 C1635 1.331 1_545 S
C1634 C1636 1.434 . S
C1635 H1614 0.950 . S
C1635 C1634 1.331 1_565 S
C1635 C1651 1.377 . S
C1636 C1634 1.434 . S
C1636 C1637 1.524 . S
C1636 C1650 1.377 . S
C1637 C1636 1.524 . S
C1637 C1638 1.397 . S
C1637 C1642 1.363 . S
C1638 H1615 0.950 . S
C1638 C1637 1.397 . S
C1638 C1639 1.334 . S
C1639 H1616 0.950 . S
C1639 C1638 1.334 . S
C1639 C1640 1.287 . S
C1640 C1639 1.287 . S
C1640 C1641 1.524 . S
C1640 H1659 0.913 . S
C1641 H1617 0.950 . S
C1641 C1640 1.524 . S
C1641 C1642 1.415 . S
C1642 H1618 0.950 . S
C1642 C1637 1.363 . S
C1642 C1641 1.415 . S
C1643 H1619 0.951 . S
C1643 C1644 1.367 . S
C1643 C1645 1.388 . S
C1644 C1643 1.367 . S
C1644 C1648 1.383 1_565 S
C1645 H1620 0.951 . S
C1645 C1643 1.388 . S
C1645 C1646 1.366 . S
C1646 C1645 1.366 . S
C1646 C1647 1.414 1_565 S
C1646 C1649 1.499 . S
C1647 H1621 0.947 . S
C1647 C1646 1.414 1_545 S
C1647 C1648 1.373 . S
C1648 H1622 0.945 . S
C1648 C1644 1.383 1_545 S
C1648 C1647 1.373 . S
C1649 C1646 1.499 . S
C1649 C1650 1.373 1_565 S
C1649 C1651 1.389 . S
C1650 H1623 0.950 . S
C1650 C1636 1.377 . S
C1650 C1649 1.373 1_545 S
C1651 C1635 1.377 . S
C1651 C1649 1.389 . S
C1651 C1652 1.524 . S
C1652 C1651 1.524 . S
C1652 C1653 1.397 . S
C1652 C1657 1.363 . S
C1653 H1624 0.950 . S
C1653 C1652 1.397 . S
C1653 C1654 1.334 . S
C1654 H1625 0.950 . S
C1654 C1653 1.334 . S
C1654 C1655 1.287 . S
C1655 C1654 1.287 . S
C1655 C1656 1.524 . S
C1655 H1658 0.999 . S
C1656 H1626 0.950 . S
C1656 C1655 1.524 . S
C1656 C1657 1.415 . S
C1657 H1627 0.950 . S
C1657 C1652 1.363 . S
C1657 C1656 1.415 . S
H1658 C1655 0.999 . S
H1659 C1640 0.913 . S
H1660 C1678 0.951 . S
H1661 C1680 0.951 . S
H1662 C1682 0.950 . S
H1663 C1683 0.950 . S
H1664 C1685 0.950 . S
H1665 C1688 0.950 . S
H1666 C1689 0.950 . S
H1667 C1691 0.950 . S
H1668 C1692 0.950 . S
H1669 C1693 0.951 . S
H1670 C1695 0.951 . S
H1671 C1697 0.950 . S
H1672 C1698 0.950 . S
H1673 C1700 0.950 . S
H1674 C1703 0.950 . S
H1675 C1704 0.950 . S
H1676 C1706 0.950 . S
H1677 C1707 0.950 . S
C1678 H1660 0.951 . S
C1678 C1679 1.366 . S
C1678 C1680 1.388 . S
C1679 C1678 1.366 . S
C1679 C1683 1.385 . S
C1680 H1661 0.951 . S
C1680 C1678 1.388 . S
C1680 C1681 1.366 . S
C1681 C1680 1.366 . S
C1681 C1682 1.414 . S
C1681 C1684 1.499 . S
C1682 H1662 0.950 . S
C1682 C1681 1.414 . S
C1682 C1683 1.374 . S
C1683 H1663 0.950 . S
C1683 C1679 1.385 . S
C1683 C1682 1.374 . S
C1684 C1681 1.499 . S
C1684 C1685 1.373 . S
C1684 C1686 1.389 . S
C1685 H1664 0.950 . S
C1685 C1684 1.373 . S
C1685 C1701 1.377 . S
C1686 C1684 1.389 . S
C1686 C1687 1.524 . S
C1686 C1700 1.377 . S
C1687 C1686 1.524 . S
C1687 C1688 1.397 . S
C1687 C1692 1.363 . S
C1688 H1665 0.950 . S
C1688 C1687 1.397 . S
C1688 C1689 1.334 . S
C1689 H1666 0.950 . S
C1689 C1688 1.334 . S
C1689 C1690 1.287 . S
C1690 C1689 1.287 . S
C1690 C1691 1.524 . S
C1690 H1709 0.913 . S
C1691 H1667 0.950 . S
C1691 C1690 1.524 . S
C1691 C1692 1.415 . S
C1692 H1668 0.950 . S
C1692 C1687 1.363 . S
C1692 C1691 1.415 . S
C1693 H1669 0.951 . S
C1693 C1694 1.366 . S
C1693 C1695 1.388 . S
C1694 C1693 1.366 . S
C1694 C1698 1.385 . S
C1695 H1670 0.951 . S
C1695 C1693 1.388 . S
C1695 C1696 1.366 . S
C1696 C1695 1.366 . S
C1696 C1697 1.414 . S
C1696 C1699 1.499 . S
C1697 H1671 0.950 . S
C1697 C1696 1.414 . S
C1697 C1698 1.374 . S
C1698 H1672 0.950 . S
C1698 C1694 1.385 . S
C1698 C1697 1.374 . S
C1699 C1696 1.499 . S
C1699 C1700 1.373 . S
C1699 C1701 1.389 . S
C1700 H1673 0.950 . S
C1700 C1686 1.377 . S
C1700 C1699 1.373 . S
C1701 C1685 1.377 . S
C1701 C1699 1.389 . S
C1701 C1702 1.524 . S
C1702 C1701 1.524 . S
C1702 C1703 1.397 . S
C1702 C1707 1.363 . S
C1703 H1674 0.950 . S
C1703 C1702 1.397 . S
C1703 C1704 1.334 . S
C1704 H1675 0.950 . S
C1704 C1703 1.334 . S
C1704 C1705 1.287 . S
C1705 C1704 1.287 . S
C1705 C1706 1.524 . S
C1705 H1708 0.999 . S
C1706 H1676 0.950 . S
C1706 C1705 1.524 . S
C1706 C1707 1.415 . S
C1707 H1677 0.950 . S
C1707 C1702 1.363 . S
C1707 C1706 1.415 . S
H1708 C1705 0.999 . S
H1709 C1690 0.913 . S
H1710 C1728 0.951 . S
H1711 C1730 0.951 . S
H1712 C1732 0.950 . S
H1713 C1733 0.950 . S
H1714 C1735 0.950 . S
H1715 C1738 0.950 . S
H1716 C1739 0.950 . S
H1717 C1741 0.950 . S
H1718 C1742 0.950 . S
H1719 C1743 0.951 . S
H1720 C1745 0.951 . S
H1721 C1747 0.950 . S
H1722 C1748 0.950 . S
H1723 C1750 0.950 . S
H1724 C1753 0.950 . S
H1725 C1754 0.950 . S
H1726 C1756 0.950 . S
H1727 C1757 0.950 . S
C1728 H1710 0.951 . S
C1728 C1729 1.366 . S
C1728 C1730 1.388 . S
C1729 C1728 1.366 . S
C1729 C1733 1.385 . S
C1730 H1711 0.951 . S
C1730 C1728 1.388 . S
C1730 C1731 1.366 . S
C1731 C1730 1.366 . S
C1731 C1732 1.414 . S
C1731 C1734 1.499 . S
C1732 H1712 0.950 . S
C1732 C1731 1.414 . S
C1732 C1733 1.374 . S
C1733 H1713 0.950 . S
C1733 C1729 1.385 . S
C1733 C1732 1.374 . S
C1734 C1731 1.499 . S
C1734 C1735 1.373 . S
C1734 C1736 1.389 . S
C1735 H1714 0.950 . S
C1735 C1734 1.373 . S
C1735 C1751 1.377 . S
C1736 C1734 1.389 . S
C1736 C1737 1.524 . S
C1736 C1750 1.377 . S
C1737 C1736 1.524 . S
C1737 C1738 1.397 . S
C1737 C1742 1.363 . S
C1738 H1715 0.950 . S
C1738 C1737 1.397 . S
C1738 C1739 1.334 . S
C1739 H1716 0.950 . S
C1739 C1738 1.334 . S
C1739 C1740 1.287 . S
C1740 C1739 1.287 . S
C1740 C1741 1.524 . S
C1740 H1759 0.913 . S
C1741 H1717 0.950 . S
C1741 C1740 1.524 . S
C1741 C1742 1.415 . S
C1742 H1718 0.950 . S
C1742 C1737 1.363 . S
C1742 C1741 1.415 . S
C1743 H1719 0.951 . S
C1743 C1744 1.366 . S
C1743 C1745 1.388 . S
C1744 C1743 1.366 . S
C1744 C1748 1.385 . S
C1745 H1720 0.951 . S
C1745 C1743 1.388 . S
C1745 C1746 1.366 . S
C1746 C1745 1.366 . S
C1746 C1747 1.414 . S
C1746 C1749 1.499 . S
C1747 H1721 0.950 . S
C1747 C1746 1.414 . S
C1747 C1748 1.374 . S
C1748 H1722 0.950 . S
C1748 C1744 1.385 . S
C1748 C1747 1.374 . S
C1749 C1746 1.499 . S
C1749 C1750 1.373 . S
C1749 C1751 1.389 . S
C1750 H1723 0.950 . S
C1750 C1736 1.377 . S
C1750 C1749 1.373 . S
C1751 C1735 1.377 . S
C1751 C1749 1.389 . S
C1751 C1752 1.524 . S
C1752 C1751 1.524 . S
C1752 C1753 1.397 . S
C1752 C1757 1.363 . S
C1753 H1724 0.950 . S
C1753 C1752 1.397 . S
C1753 C1754 1.334 . S
C1754 H1725 0.950 . S
C1754 C1753 1.334 . S
C1754 C1755 1.287 . S
C1755 C1754 1.287 . S
C1755 C1756 1.524 . S
C1755 H1758 0.999 . S
C1756 H1726 0.950 . S
C1756 C1755 1.524 . S
C1756 C1757 1.415 . S
C1757 H1727 0.950 . S
C1757 C1752 1.363 . S
C1757 C1756 1.415 . S
H1758 C1755 0.999 . S
H1759 C1740 0.913 . S
C579 C391 1.483 . S
C594 C481 1.475 . S
C644 C516 2.232 . S
C629 C451 2.193 . S
C694 C521 1.340 . S
C679 C241 1.282 . S
C744 C541 1.864 . S
C729 C331 1.665 . S
C794 C489 1.475 . S
C779 C121 1.390 1_545 S
C829 C211 2.091 . S
C844 C506 2.232 . S
C879 C31 1.366 1_556 S
C894 C529 1.339 . S
C929 C91 1.762 . S
C944 C549 1.864 . S
C994 C499 1.156 . S
C979 C301 1.013 . S
C1044 C508 0.433 . S
C1029 C380 0.372 . S
C1094 C539 1.361 . S
C1079 C440 1.338 . S
C1129 C260 0.675 . S
C1144 C559 0.661 . S
C1179 C61 1.082 . S
C1194 C488 1.156 . S
C1244 C519 0.429 . S
C1229 C140 0.524 . S
C1294 C528 1.361 . S
C1279 C200 1.248 . S
C1329 C20 0.647 . S
C1344 C548 0.661 . S
C1379 C320 2.103 . S
C1394 C486 2.211 . S
C1429 C361 1.482 . S
C1444 C509 1.732 . S
C1494 C526 2.335 . S
C1479 C421 2.095 . S
C1544 C546 2.030 . S
C1529 C271 2.008 . S
C1579 C80 2.188 . S
C1594 C496 2.211 . S
C1644 C501 1.731 1_565 S
C1629 C151 1.681 . S
C1694 C536 2.335 . S
C1679 C181 1.991 . S
C1729 C1 1.806 . S
C1744 C556 2.029 . S
