# Generated by pormake.
# Topology rtl, (3,6)-cn, num edge types: 1
# Building blocks:
#     Node 0, Type 0, BuildingBlock: CUQRIR_clean_linker_1, # of connection points: 3
#     Node 1, Type 0, BuildingBlock: CUQRIR_clean_linker_1, # of connection points: 3
#     Node 2, Type 0, BuildingBlock: CUQRIR_clean_linker_1, # of connection points: 3
#     Node 3, Type 0, BuildingBlock: CUQRIR_clean_linker_1, # of connection points: 3
#     Node 4, Type 1, BuildingBlock: VOLQOD_clean_sbu_1, # of connection points: 6
#     Node 5, Type 1, BuildingBlock: VOLQOD_clean_sbu_1, # of connection points: 6
#     Edge 6, Type (0, 1), BuildingBlock: XUDNAN_clean_linker_2, # of connection points: 2
#     Edge 7, Type (0, 1), BuildingBlock: XUDNAN_clean_linker_2, # of connection points: 2
#     Edge 8, Type (0, 1), BuildingBlock: XUDNAN_clean_linker_2, # of connection points: 2
#     Edge 9, Type (0, 1), BuildingBlock: XUDNAN_clean_linker_2, # of connection points: 2
#     Edge 10, Type (0, 1), BuildingBlock: XUDNAN_clean_linker_2, # of connection points: 2
#     Edge 11, Type (0, 1), BuildingBlock: XUDNAN_clean_linker_2, # of connection points: 2
#     Edge 12, Type (0, 1), BuildingBlock: XUDNAN_clean_linker_2, # of connection points: 2
#     Edge 13, Type (0, 1), BuildingBlock: XUDNAN_clean_linker_2, # of connection points: 2
#     Edge 14, Type (0, 1), BuildingBlock: XUDNAN_clean_linker_2, # of connection points: 2
#     Edge 15, Type (0, 1), BuildingBlock: XUDNAN_clean_linker_2, # of connection points: 2
#     Edge 16, Type (0, 1), BuildingBlock: XUDNAN_clean_linker_2, # of connection points: 2
#     Edge 17, Type (0, 1), BuildingBlock: XUDNAN_clean_linker_2, # of connection points: 2
# Relax obj value: 0.040
# Max RMSD: 0.143
# Mean RMSD: 0.104
data_MOF--net-rtl--node1-VOLQOD_clean_sbu_1--node2-CUQRIR_clean_linker_1--edge1-XUDNAN_clean_linker_2
_symmetry_space_group_name_H-M    P1
_symmetry_Int_Tables_number       1
_symmetry_cell_setting            triclinic
loop_
_symmetry_equiv_pos_as_xyz
'x, y, z'
_cell_length_a     35.228017
_cell_length_b     35.640845
_cell_length_c     20.013112
_cell_angle_alpha  89.85284
_cell_angle_beta   90.315925
_cell_angle_gamma 90.020414
loop_
_atom_site_label
_atom_site_type_symbol
_atom_site_fract_x
_atom_site_fract_y
_atom_site_fract_z
_atom_type_partial_charge
C0 C 0.21093 0.77671 0.95523 0.0
N1 N 0.19191 0.80705 0.9779 0.0
N2 N 0.22426 0.75579 0.00698 0.0
C3 C 0.2191 0.76927 0.88271 0.0
C4 C 0.2126 0.77459 0.06196 0.0
N5 N 0.19311 0.80578 0.04424 0.0
C6 C 0.21994 0.76241 0.13287 0.0
H7 H 0.19613 0.75148 0.86169 0.0
H8 H 0.24651 0.75434 0.87687 0.0
H9 H 0.22001 0.79582 0.85371 0.0
H10 H 0.24648 0.77586 0.15091 0.0
H11 H 0.22331 0.73151 0.13618 0.0
H12 H 0.19655 0.7713 0.16612 0.0
C13 C 0.72634 0.7061 0.55256 0.0
N14 N 0.7016 0.67865 0.53526 0.0
N15 N 0.74555 0.71835 0.49821 0.0
C16 C 0.72902 0.72325 0.62098 0.0
C17 C 0.73135 0.69764 0.44735 0.0
N18 N 0.70465 0.67369 0.46981 0.0
C19 C 0.7425 0.70178 0.37532 0.0
H20 H 0.74315 0.75106 0.61976 0.0
H21 H 0.74571 0.70428 0.65391 0.0
H22 H 0.70031 0.72621 0.6429 0.0
H23 H 0.77095 0.71488 0.37075 0.0
H24 H 0.72134 0.71985 0.34952 0.0
H25 H 0.7425 0.67406 0.35017 0.0
C26 C 0.79892 0.2358 0.04691 0.0
N27 N 0.82264 0.20629 0.03882 0.0
N28 N 0.79092 0.2522 0.98744 0.0
C29 C 0.781 0.24705 0.11187 0.0
C30 C 0.81098 0.23178 0.943 0.0
N31 N 0.83061 0.20422 0.97421 0.0
C32 C 0.8071 0.23537 0.86842 0.0
H33 H 0.75255 0.23386 0.11557 0.0
H34 H 0.77711 0.27792 0.11365 0.0
H35 H 0.79861 0.23801 0.15513 0.0
H36 H 0.79637 0.26357 0.8542 0.0
H37 H 0.78684 0.21384 0.85009 0.0
H38 H 0.83486 0.2303 0.84411 0.0
C39 C 0.25977 0.30956 0.44094 0.0
N40 N 0.28976 0.328 0.46776 0.0
N41 N 0.23673 0.29637 0.48977 0.0
C42 C 0.25483 0.30143 0.36762 0.0
C43 C 0.25408 0.3074 0.54704 0.0
N44 N 0.28645 0.32624 0.53363 0.0
C45 C 0.23899 0.30069 0.61624 0.0
H46 H 0.23285 0.32049 0.34679 0.0
H47 H 0.24506 0.27213 0.3602 0.0
H48 H 0.28145 0.30594 0.33942 0.0
H49 H 0.25169 0.27466 0.63701 0.0
H50 H 0.20765 0.29754 0.61532 0.0
H51 H 0.24691 0.32425 0.64971 0.0
O52 O 0.92006 0.9578 0.50366 0.0
Zn53 Zn 0.94586 0.00692 0.51141 0.0
O54 O 0.0003 9e-05 0.50614 0.0
Zn55 Zn 0.0246 0.0266 0.5803 0.0
Zn56 Zn 0.01266 0.94601 0.50904 0.0
Zn57 Zn 0.017 0.02254 0.42267 0.0
O58 O 0.05654 0.07041 0.54896 0.0
O59 O 0.04698 0.06922 0.43922 0.0
O60 O 0.93055 0.02984 0.5987 0.0
O61 O 0.98551 0.04697 0.64429 0.0
O62 O 0.05678 0.99087 0.63337 0.0
O63 O 0.04344 0.93409 0.59348 0.0
O64 O 0.04488 0.93245 0.42802 0.0
O65 O 0.9252 0.0376 0.43495 0.0
O66 O 0.04987 0.98658 0.37272 0.0
O67 O 0.97348 0.03925 0.36435 0.0
C68 C 0.92979 0.92349 0.5024 0.0
C69 C 0.06121 0.08441 0.49097 0.0
C70 C 0.06022 0.9553 0.63575 0.0
C71 C 0.94942 0.04508 0.64577 0.0
C72 C 0.05775 0.95192 0.37951 0.0
C73 C 0.93896 0.04605 0.37818 0.0
O74 O 0.96457 0.91367 0.5061 0.0
O75 O 0.58468 0.45695 0.98241 0.0
Zn76 Zn 0.5545 0.50453 0.99454 0.0
O77 O 0.50006 0.49471 1.00167 0.0
Zn78 Zn 0.47425 0.51375 0.9225 0.0
Zn79 Zn 0.49221 0.44074 0.00607 0.0
Zn80 Zn 0.47927 0.5191 0.08187 0.0
O81 O 0.43075 0.54644 0.94869 0.0
O82 O 0.4373 0.55624 0.05791 0.0
O83 O 0.56599 0.5386 0.91601 0.0
O84 O 0.50985 0.54402 0.86581 0.0
O85 O 0.45232 0.47241 0.86579 0.0
O86 O 0.45914 0.42246 0.93097 0.0
O87 O 0.46929 0.42575 0.09358 0.0
O88 O 0.57325 0.52778 0.07955 0.0
O89 O 0.45625 0.47983 0.14366 0.0
O90 O 0.52137 0.54421 0.13554 0.0
C91 C 0.57509 0.42255 0.98476 0.0
C92 C 0.42007 0.56197 0.00258 0.0
C93 C 0.44714 0.43766 0.87728 0.0
C94 C 0.54519 0.55146 0.8689 0.0
C95 C 0.45569 0.44405 0.14248 0.0
C96 C 0.55739 0.54302 0.12964 0.0
O97 O 0.5409 0.41281 0.99498 0.0
H98 H 0.22863 0.23023 0.55459 0.0
H99 H 0.17527 0.30342 0.4088 0.0
H100 H 0.12381 0.25675 0.39278 0.0
H101 H 0.20718 0.14345 0.47954 0.0
H102 H 0.1973 0.11939 0.55684 0.0
H103 H 0.22983 0.15835 0.55601 0.0
H104 H 0.19001 0.19211 0.64627 0.0
H105 H 0.15748 0.15309 0.64782 0.0
H106 H 0.14005 0.19983 0.63192 0.0
H107 H 0.08094 0.20016 0.38829 0.0
H108 H 0.04604 0.14051 0.4026 0.0
H109 H 0.12394 0.10771 0.56083 0.0
C110 C 0.20565 0.23679 0.52047 0.0
C111 C 0.20571 0.27036 0.4829 0.0
C112 C 0.17579 0.27759 0.43729 0.0
C113 C 0.14647 0.25139 0.42826 0.0
C114 C 0.14731 0.21852 0.46619 0.0
C115 C 0.17582 0.21145 0.51216 0.0
C116 C 0.1699 0.17433 0.54751 0.0
C117 C 0.20302 0.14729 0.53414 0.0
C118 C 0.164 0.1802 0.62284 0.0
C119 C 0.1338 0.16127 0.51359 0.0
C120 C 0.12147 0.18697 0.46631 0.0
C121 C 0.08999 0.1801 0.4258 0.0
C122 C 0.0705 0.14614 0.43406 0.0
C123 C 0.08221 0.11985 0.48319 0.0
C124 C 0.1141 0.12766 0.52368 0.0
H125 H 0.29113 0.7422 0.07061 0.0
H126 H 0.20822 0.69373 0.93555 0.0
H127 H 0.2487 0.63747 0.92293 0.0
H128 H 0.37345 0.71014 0.98997 0.0
H129 H 0.39968 0.69975 0.06536 0.0
H130 H 0.36364 0.73555 0.06571 0.0
H131 H 0.32945 0.70175 0.16308 0.0
H132 H 0.36556 0.66592 0.16335 0.0
H133 H 0.31629 0.65312 0.15428 0.0
H134 H 0.30019 0.58974 0.9176 0.0
H135 H 0.35756 0.55034 0.92613 0.0
H136 H 0.40534 0.62682 0.07247 0.0
C137 C 0.28126 0.71933 0.03956 0.0
C138 C 0.24672 0.72212 0.00372 0.0
C139 C 0.23486 0.69209 0.96258 0.0
C140 C 0.25753 0.66008 0.95549 0.0
C141 C 0.29167 0.65836 0.99087 0.0
C142 C 0.3033 0.68689 0.03286 0.0
C143 C 0.34148 0.67807 0.06457 0.0
C144 C 0.37132 0.70763 0.04522 0.0
C145 C 0.33797 0.67449 0.14086 0.0
C146 C 0.34986 0.64045 0.0327 0.0
C147 C 0.32075 0.62979 0.99014 0.0
C148 C 0.32288 0.59745 0.95154 0.0
C149 C 0.35563 0.57538 0.95649 0.0
C150 C 0.38561 0.58545 1.00034 0.0
C151 C 0.3825 0.6182 0.03947 0.0
H152 H 0.81635 0.72956 0.54803 0.0
H153 H 0.72531 0.78146 0.43504 0.0
H154 H 0.76383 0.83908 0.42177 0.0
H155 H 0.84688 0.81293 0.63566 0.0
H156 H 0.89674 0.80184 0.63166 0.0
H157 H 0.86207 0.76467 0.63239 0.0
H158 H 0.88987 0.73844 0.52243 0.0
H159 H 0.92453 0.77562 0.52121 0.0
H160 H 0.8935 0.76868 0.4504 0.0
H161 H 0.81035 0.89051 0.42306 0.0
H162 H 0.86349 0.9345 0.43688 0.0
H163 H 0.92713 0.84965 0.54612 0.0
C164 C 0.80485 0.75326 0.52073 0.0
C165 C 0.76816 0.75162 0.49231 0.0
C166 C 0.75353 0.78267 0.45666 0.0
C167 C 0.77514 0.81528 0.44901 0.0
C168 C 0.81138 0.81612 0.47711 0.0
C169 C 0.82631 0.78604 0.51214 0.0
C170 C 0.86618 0.79463 0.53696 0.0
C171 C 0.86806 0.79345 0.61373 0.0
C172 C 0.89524 0.76774 0.50588 0.0
C173 C 0.87112 0.83431 0.51069 0.0
C174 C 0.83897 0.84597 0.47656 0.0
C175 C 0.83577 0.88173 0.44937 0.0
C176 C 0.8661 0.90652 0.45771 0.0
C177 C 0.89942 0.89546 0.49253 0.0
C178 C 0.90215 0.85867 0.51871 0.0
H179 H 0.77967 0.32633 0.0083 0.0
H180 H 0.72623 0.22453 0.93752 0.0
H181 H 0.6654 0.25841 0.92255 0.0
H182 H 0.70259 0.35917 0.10231 0.0
H183 H 0.70893 0.40811 0.08227 0.0
H184 H 0.74905 0.37684 0.08173 0.0
H185 H 0.76362 0.39581 0.95944 0.0
H186 H 0.72364 0.42735 0.9597 0.0
H187 H 0.72703 0.39154 0.89658 0.0
H188 H 0.60991 0.30107 0.92594 0.0
H189 H 0.56273 0.35136 0.94092 0.0
H190 H 0.65209 0.42702 0.00621 0.0
C191 C 0.75518 0.3117 0.98842 0.0
C192 C 0.75717 0.27321 0.97312 0.0
C193 C 0.72484 0.25425 0.94835 0.0
C194 C 0.69038 0.2732 0.93995 0.0
C195 C 0.68901 0.31112 0.95625 0.0
C196 C 0.72056 0.33036 0.97931 0.0
C197 C 0.71081 0.37071 0.99562 0.0
C198 C 0.71828 0.37919 0.06989 0.0
C199 C 0.73257 0.39796 0.9501 0.0
C200 C 0.66872 0.37082 0.97961 0.0
C201 C 0.65683 0.33614 0.95697 0.0
C202 C 0.6189 0.32854 0.94268 0.0
C203 C 0.59231 0.35721 0.9517 0.0
C204 C 0.60383 0.39309 0.97435 0.0
C205 C 0.6426 0.40001 0.9879 0.0
H206 H 0.12722 0.80048 0.11173 0.0
H207 H 0.2261 0.87025 0.0821 0.0
H208 H 0.20118 0.91647 0.16308 0.0
H209 H 0.05754 0.87404 0.13846 0.0
H210 H 0.03346 0.84908 0.20423 0.0
H211 H 0.05746 0.82346 0.13952 0.0
H212 H 0.09695 0.78814 0.22935 0.0
H213 H 0.07325 0.81382 0.29435 0.0
H214 H 0.12433 0.81457 0.28932 0.0
H215 H 0.16475 0.95531 0.24452 0.0
H216 H 0.12215 0.9822 0.32961 0.0
H217 H 0.05039 0.88354 0.31769 0.0
C218 C 0.14301 0.82593 0.1218 0.0
C219 C 0.17755 0.83312 0.08891 0.0
C220 C 0.19868 0.86557 0.10475 0.0
C221 C 0.18494 0.89159 0.15106 0.0
C222 C 0.15058 0.88395 0.18249 0.0
C223 C 0.13014 0.85166 0.16936 0.0
C224 C 0.09543 0.84899 0.21362 0.0
C225 C 0.05881 0.8489 0.17143 0.0
C226 C 0.09764 0.81432 0.25937 0.0
C227 C 0.0994 0.88499 0.25326 0.0
C228 C 0.13117 0.90491 0.23376 0.0
C229 C 0.14003 0.93982 0.26077 0.0
C230 C 0.11571 0.95485 0.3089 0.0
C231 C 0.08342 0.93466 0.33053 0.0
C232 C 0.07533 0.89915 0.30275 0.0
H233 H 0.71298 0.63653 0.64618 0.0
H234 H 0.62603 0.68541 0.51978 0.0
H235 H 0.57621 0.65827 0.59191 0.0
H236 H 0.66362 0.55024 0.68415 0.0
H237 H 0.67988 0.5484 0.76965 0.0
H238 H 0.70849 0.57103 0.70704 0.0
H239 H 0.70936 0.63196 0.77744 0.0
H240 H 0.68062 0.60956 0.84016 0.0
H241 H 0.66509 0.65292 0.80237 0.0
H242 H 0.53631 0.62618 0.67747 0.0
H243 H 0.50817 0.59061 0.77056 0.0
H244 H 0.62114 0.56369 0.84457 0.0
C245 C 0.68338 0.64124 0.63401 0.0
C246 C 0.67298 0.66219 0.57695 0.0
C247 C 0.63422 0.66836 0.56221 0.0
C248 C 0.60588 0.65343 0.60326 0.0
C249 C 0.61695 0.63271 0.65917 0.0
C250 C 0.65474 0.62661 0.67474 0.0
C251 C 0.65885 0.60353 0.73806 0.0
C252 C 0.67889 0.56608 0.72385 0.0
C253 C 0.67971 0.62583 0.79274 0.0
C254 C 0.61747 0.59758 0.75554 0.0
C255 C 0.59384 0.61468 0.70933 0.0
C256 C 0.55449 0.61271 0.71409 0.0
C257 C 0.53879 0.5924 0.76721 0.0
C258 C 0.56239 0.57436 0.81508 0.0
C259 C 0.60228 0.57734 0.80918 0.0
H260 H 0.89298 0.18176 0.07025 0.0
H261 H 0.77395 0.16691 0.11575 0.0
H262 H 0.79067 0.12149 0.20487 0.0
H263 H 0.91997 0.08289 0.09912 0.0
H264 H 0.96546 0.09524 0.13443 0.0
H265 H 0.94372 0.12507 0.07222 0.0
H266 H 0.94875 0.18155 0.15314 0.0
H267 H 0.97026 0.1519 0.21565 0.0
H268 H 0.928 0.17812 0.2351 0.0
H269 H 0.82055 0.08229 0.29445 0.0
H270 H 0.8614 0.04873 0.37538 0.0
H271 H 0.96133 0.08643 0.26825 0.0
C272 C 0.87062 0.1685 0.09874 0.0
C273 C 0.83234 0.17824 0.08778 0.0
C274 C 0.80351 0.16043 0.12518 0.0
C275 C 0.81273 0.13443 0.17527 0.0
C276 C 0.85088 0.12611 0.18624 0.0
C277 C 0.87938 0.14222 0.14855 0.0
C278 C 0.91815 0.12897 0.17152 0.0
C279 C 0.938 0.10671 0.11602 0.0
C280 C 0.94272 0.16211 0.19527 0.0
C281 C 0.90702 0.10373 0.22923 0.0
C282 C 0.86808 0.10239 0.23666 0.0
C283 C 0.85107 0.08266 0.28867 0.0
C284 C 0.87451 0.06384 0.33455 0.0
C285 C 0.91452 0.06478 0.32792 0.0
C286 C 0.93083 0.08474 0.2741 0.0
H287 H 0.31459 0.39522 0.56052 0.0
H288 H 0.32323 0.27776 0.61347 0.0
H289 H 0.36879 0.29333 0.70383 0.0
H290 H 0.4154 0.4194 0.59717 0.0
H291 H 0.40317 0.46484 0.63 0.0
H292 H 0.37425 0.44384 0.56556 0.0
H293 H 0.31505 0.45087 0.64079 0.0
H294 H 0.34378 0.47144 0.70568 0.0
H295 H 0.31545 0.43052 0.72338 0.0
H296 H 0.40784 0.32181 0.79376 0.0
H297 H 0.44114 0.36122 0.87622 0.0
H298 H 0.40837 0.46098 0.76473 0.0
C299 C 0.32689 0.37295 0.59048 0.0
C300 C 0.31569 0.3354 0.581 0.0
C301 C 0.33159 0.30668 0.62105 0.0
C302 C 0.35746 0.31526 0.67201 0.0
C303 C 0.36727 0.35271 0.68161 0.0
C304 C 0.35284 0.38112 0.64167 0.0
C305 C 0.36669 0.41917 0.66499 0.0
C306 C 0.39135 0.43792 0.61124 0.0
C307 C 0.33324 0.44447 0.6849 0.0
C308 C 0.39019 0.40772 0.72538 0.0
C309 C 0.3903 0.36923 0.73363 0.0
C310 C 0.40842 0.35198 0.78748 0.0
C311 C 0.42708 0.37465 0.83427 0.0
C312 C 0.42745 0.41421 0.82698 0.0
C313 C 0.40888 0.43083 0.77146 0.0
H314 H 0.64012 0.68614 0.40011 0.0
H315 H 0.72474 0.60239 0.44806 0.0
H316 H 0.69443 0.55819 0.36819 0.0
H317 H 0.55987 0.61845 0.3835 0.0
H318 H 0.53807 0.64496 0.31675 0.0
H319 H 0.56543 0.66869 0.38024 0.0
H320 H 0.60748 0.69839 0.28839 0.0
H321 H 0.58067 0.67442 0.2247 0.0
H322 H 0.63141 0.66837 0.22975 0.0
H323 H 0.65988 0.5271 0.2741 0.0
H324 H 0.61835 0.50691 0.18107 0.0
H325 H 0.55151 0.60832 0.20181 0.0
C326 C 0.65134 0.65804 0.39489 0.0
C327 C 0.68413 0.64694 0.43035 0.0
C328 C 0.69918 0.61064 0.42159 0.0
C329 C 0.68225 0.58565 0.37642 0.0
C330 C 0.64998 0.59743 0.34158 0.0
C331 C 0.63414 0.63246 0.35132 0.0
C332 C 0.59957 0.63825 0.30706 0.0
C333 C 0.5636 0.64285 0.34941 0.0
C334 C 0.60514 0.67185 0.25967 0.0
C335 C 0.59917 0.60149 0.26924 0.0
C336 C 0.62871 0.57852 0.28969 0.0
C337 C 0.63618 0.54444 0.25862 0.0
C338 C 0.61266 0.53335 0.20564 0.0
C339 C 0.5817 0.55596 0.18502 0.0
C340 C 0.57467 0.59031 0.21757 0.0
H341 H 0.89981 0.199 0.9187 0.0
H342 H 0.79529 0.13875 0.95331 0.0
H343 H 0.8173 0.08719 0.87999 0.0
H344 H 0.90785 0.17987 0.75164 0.0
H345 H 0.95864 0.17383 0.75011 0.0
H346 H 0.93738 0.20296 0.81285 0.0
H347 H 0.96941 0.16355 0.90632 0.0
H348 H 0.99128 0.13443 0.84386 0.0
H349 H 0.96259 0.11344 0.90824 0.0
H350 H 0.84586 0.04846 0.78963 0.0
H351 H 0.88188 0.02114 0.69606 0.0
H352 H 0.97006 0.10471 0.72404 0.0
C353 C 0.8824 0.17423 0.91224 0.0
C354 C 0.84625 0.17207 0.94152 0.0
C355 C 0.82333 0.14009 0.93152 0.0
C356 C 0.83558 0.11094 0.89006 0.0
C357 C 0.87105 0.11424 0.86003 0.0
C358 C 0.89449 0.14472 0.8716 0.0
C359 C 0.93016 0.14254 0.82989 0.0
C360 C 0.93368 0.17683 0.78337 0.0
C361 C 0.96545 0.13822 0.87476 0.0
C362 C 0.92233 0.10701 0.79083 0.0
C363 C 0.88814 0.09107 0.80919 0.0
C364 C 0.87311 0.06012 0.77591 0.0
C365 C 0.89359 0.04498 0.72256 0.0
C366 C 0.92885 0.06063 0.70342 0.0
C367 C 0.94355 0.09175 0.73861 0.0
H368 H 0.30112 0.39776 0.42021 0.0
H369 H 0.35041 0.28701 0.43393 0.0
H370 H 0.40281 0.3068 0.3592 0.0
H371 H 0.31757 0.41267 0.25232 0.0
H372 H 0.3293 0.46178 0.25833 0.0
H373 H 0.29888 0.44054 0.31961 0.0
H374 H 0.34395 0.46245 0.41453 0.0
H375 H 0.37445 0.48416 0.35357 0.0
H376 H 0.39354 0.45022 0.41163 0.0
H377 H 0.4436 0.33576 0.2717 0.0
H378 H 0.47352 0.37309 0.1824 0.0
H379 H 0.39956 0.46678 0.22833 0.0
C380 C 0.32371 0.37829 0.40864 0.0
C381 C 0.32251 0.34113 0.43254 0.0
C382 C 0.35164 0.31569 0.41609 0.0
C383 C 0.38126 0.32672 0.37389 0.0
C384 C 0.38133 0.36343 0.34955 0.0
C385 C 0.35365 0.38905 0.36707 0.0
C386 C 0.3591 0.42604 0.33085 0.0
C387 C 0.32414 0.4358 0.28772 0.0
C388 C 0.36832 0.45759 0.3806 0.0
C389 C 0.39316 0.41672 0.28805 0.0
C390 C 0.40563 0.38051 0.3 0.0
C391 C 0.43463 0.36439 0.26283 0.0
C392 C 0.45127 0.38573 0.21194 0.0
C393 C 0.43905 0.4229 0.19883 0.0
C394 C 0.40996 0.4387 0.23812 0.0
H395 H 0.13462 0.79676 0.88977 0.0
H396 H 0.21128 0.88024 0.97002 0.0
H397 H 0.18402 0.92794 0.89397 0.0
H398 H 0.14334 0.82634 0.72096 0.0
H399 H 0.09465 0.81693 0.69843 0.0
H400 H 0.11714 0.79035 0.76427 0.0
H401 H 0.06382 0.80942 0.8461 0.0
H402 H 0.04094 0.83579 0.78035 0.0
H403 H 0.05317 0.85842 0.858 0.0
H404 H 0.1503 0.96561 0.80656 0.0
H405 H 0.11283 0.9913 0.71287 0.0
H406 H 0.06035 0.8823 0.68268 0.0
C407 C 0.14493 0.82535 0.89192 0.0
C408 C 0.17387 0.83545 0.93753 0.0
C409 C 0.18779 0.87261 0.93798 0.0
C410 C 0.17285 0.89966 0.89418 0.0
C411 C 0.14443 0.88881 0.84951 0.0
C412 C 0.13063 0.85253 0.84783 0.0
C413 C 0.10158 0.84772 0.79229 0.0
C414 C 0.11499 0.81861 0.74095 0.0
C415 C 0.06256 0.83722 0.82091 0.0
C416 C 0.10132 0.88694 0.76279 0.0
C417 C 0.12609 0.91019 0.79693 0.0
C418 C 0.13077 0.94771 0.77948 0.0
C419 C 0.10932 0.96202 0.72609 0.0
C420 C 0.08366 0.93883 0.69019 0.0
C421 C 0.0799 0.90068 0.70872 0.0
loop_
_geom_bond_atom_site_label_1
_geom_bond_atom_site_label_2
_geom_bond_distance
_geom_bond_site_symmetry_2
_ccdc_geom_bond_type
C0 N1 1.317 . S
C0 N2 1.348 1_556 S
C0 C3 1.485 . S
N1 C0 1.317 . S
N1 N5 1.370 1_556 S
N2 C0 1.348 1_554 S
N2 C4 1.346 . S
C3 C0 1.485 . S
C3 H7 0.960 . S
C3 H8 0.961 . S
C3 H9 0.960 . S
C4 N2 1.346 . S
C4 N5 1.307 . S
C4 C6 1.486 . S
N5 N1 1.370 1_554 S
N5 C4 1.307 . S
C6 C4 1.486 . S
C6 H10 0.960 . S
C6 H11 0.960 . S
C6 H12 0.959 . S
H7 C3 0.960 . S
H8 C3 0.961 . S
H9 C3 0.960 . S
H10 C6 0.960 . S
H11 C6 0.960 . S
H12 C6 0.959 . S
C13 N14 1.317 . S
C13 N15 1.348 . S
C13 C16 1.485 . S
N14 C13 1.317 . S
N14 N18 1.370 . S
N15 C13 1.348 . S
N15 C17 1.346 . S
C16 C13 1.485 . S
C16 H20 0.960 . S
C16 H21 0.961 . S
C16 H22 0.960 . S
C17 N15 1.346 . S
C17 N18 1.307 . S
C17 C19 1.486 . S
N18 N14 1.370 . S
N18 C17 1.307 . S
C19 C17 1.486 . S
C19 H23 0.960 . S
C19 H24 0.960 . S
C19 H25 0.959 . S
H20 C16 0.960 . S
H21 C16 0.961 . S
H22 C16 0.960 . S
H23 C19 0.960 . S
H24 C19 0.960 . S
H25 C19 0.959 . S
C26 N27 1.317 . S
C26 N28 1.348 . S
C26 C29 1.485 . S
N27 C26 1.317 . S
N27 N31 1.370 1_554 S
N28 C26 1.348 . S
N28 C30 1.346 1_554 S
C29 C26 1.485 . S
C29 H33 0.960 . S
C29 H34 0.961 . S
C29 H35 0.960 . S
C30 N28 1.346 1_556 S
C30 N31 1.307 . S
C30 C32 1.486 . S
N31 N27 1.370 1_556 S
N31 C30 1.307 . S
C32 C30 1.486 . S
C32 H36 0.960 . S
C32 H37 0.960 . S
C32 H38 0.959 . S
H33 C29 0.960 . S
H34 C29 0.961 . S
H35 C29 0.960 . S
H36 C32 0.960 . S
H37 C32 0.960 . S
H38 C32 0.959 . S
C39 N40 1.317 . S
C39 N41 1.348 . S
C39 C42 1.485 . S
N40 C39 1.317 . S
N40 N44 1.370 . S
N41 C39 1.348 . S
N41 C43 1.346 . S
C42 C39 1.485 . S
C42 H46 0.960 . S
C42 H47 0.961 . S
C42 H48 0.960 . S
C43 N41 1.346 . S
C43 N44 1.307 . S
C43 C45 1.486 . S
N44 N40 1.370 . S
N44 C43 1.307 . S
C45 C43 1.486 . S
C45 H49 0.960 . S
C45 H50 0.960 . S
C45 H51 0.959 . S
H46 C42 0.960 . S
H47 C42 0.961 . S
H48 C42 0.960 . S
H49 C45 0.960 . S
H50 C45 0.960 . S
H51 C45 0.959 . S
O52 Zn53 1.953 1_565 S
O52 C68 1.225 . S
Zn53 O52 1.953 1_545 S
Zn53 O54 1.949 1_655 S
Zn53 O60 1.919 . S
Zn53 O65 1.924 . S
O54 Zn53 1.949 1_455 S
O54 Zn55 1.923 . S
O54 Zn56 1.950 1_545 S
O54 Zn57 1.945 . S
Zn55 O54 1.923 . S
Zn55 O58 1.933 . S
Zn55 O61 1.941 1_455 S
Zn55 O62 1.965 1_545 S
Zn56 O54 1.950 1_565 S
Zn56 O63 1.938 . S
Zn56 O64 1.906 . S
Zn56 O74 1.953 1_455 S
Zn57 O54 1.945 . S
Zn57 O59 1.932 . S
Zn57 O66 1.977 1_545 S
Zn57 O67 1.910 1_455 S
O58 Zn55 1.933 . S
O58 C69 1.226 . S
O59 Zn57 1.932 . S
O59 C69 1.307 . S
O60 Zn53 1.919 . S
O60 C71 1.253 . S
O61 Zn55 1.941 1_655 S
O61 C71 1.283 . S
O62 Zn55 1.965 1_565 S
O62 C70 1.303 . S
O63 Zn56 1.938 . S
O63 C70 1.247 . S
O64 Zn56 1.906 . S
O64 C72 1.304 . S
O65 Zn53 1.924 . S
O65 C73 1.311 . S
O66 Zn57 1.977 1_565 S
O66 C72 1.272 . S
O67 Zn57 1.910 1_655 S
O67 C73 1.231 . S
C68 O52 1.225 . S
C68 O74 1.298 . S
C69 O58 1.226 . S
C69 O59 1.307 . S
C70 O62 1.303 . S
C70 O63 1.247 . S
C71 O60 1.253 . S
C71 O61 1.283 . S
C72 O64 1.304 . S
C72 O66 1.272 . S
C73 O65 1.311 . S
C73 O67 1.231 . S
O74 Zn56 1.953 1_655 S
O74 C68 1.298 . S
O75 Zn76 1.953 . S
O75 C91 1.225 . S
Zn76 O75 1.953 . S
Zn76 O77 1.949 1_556 S
Zn76 O83 1.919 . S
Zn76 O88 1.924 1_556 S
O77 Zn76 1.949 1_554 S
O77 Zn78 1.923 1_554 S
O77 Zn79 1.950 . S
O77 Zn80 1.945 . S
Zn78 O77 1.923 1_556 S
Zn78 O81 1.933 . S
Zn78 O84 1.941 . S
Zn78 O85 1.965 . S
Zn79 O77 1.950 . S
Zn79 O86 1.938 1_554 S
Zn79 O87 1.906 . S
Zn79 O97 1.953 . S
Zn80 O77 1.945 . S
Zn80 O82 1.932 . S
Zn80 O89 1.977 . S
Zn80 O90 1.910 . S
O81 Zn78 1.933 . S
O81 C92 1.226 1_556 S
O82 Zn80 1.932 . S
O82 C92 1.307 . S
O83 Zn76 1.919 . S
O83 C94 1.253 . S
O84 Zn78 1.941 . S
O84 C94 1.283 . S
O85 Zn78 1.965 . S
O85 C93 1.303 . S
O86 Zn79 1.938 1_556 S
O86 C93 1.247 . S
O87 Zn79 1.906 . S
O87 C95 1.304 . S
O88 Zn76 1.924 1_554 S
O88 C96 1.311 . S
O89 Zn80 1.977 . S
O89 C95 1.272 . S
O90 Zn80 1.910 . S
O90 C96 1.231 . S
C91 O75 1.225 . S
C91 O97 1.299 1_556 S
C92 O81 1.226 1_554 S
C92 O82 1.307 . S
C93 O85 1.303 . S
C93 O86 1.247 . S
C94 O83 1.253 . S
C94 O84 1.283 . S
C95 O87 1.304 . S
C95 O89 1.272 . S
C96 O88 1.311 . S
C96 O90 1.231 . S
O97 Zn79 1.953 . S
O97 C91 1.299 1_554 S
H98 C110 0.930 . S
H99 C112 0.930 . S
H100 C113 0.930 . S
H101 C117 0.959 . S
H102 C117 0.959 . S
H103 C117 0.961 . S
H104 C118 0.960 . S
H105 C118 0.961 . S
H106 C118 0.959 . S
H107 C121 0.929 . S
H108 C122 0.931 . S
H109 C124 0.930 . S
C110 H98 0.930 . S
C110 C111 1.399 . S
C110 C115 1.399 . S
C111 C110 1.399 . S
C111 C112 1.376 . S
C112 H99 0.930 . S
C112 C111 1.376 . S
C112 C113 1.388 . S
C113 H100 0.930 . S
C113 C112 1.388 . S
C113 C114 1.390 . S
C114 C113 1.390 . S
C114 C115 1.394 . S
C114 C120 1.465 . S
C115 C110 1.399 . S
C115 C114 1.394 . S
C115 C116 1.516 . S
C116 C115 1.516 . S
C116 C117 1.502 . S
C116 C118 1.561 . S
C116 C119 1.526 . S
C117 H101 0.959 . S
C117 H102 0.959 . S
C117 H103 0.961 . S
C117 C116 1.502 . S
C118 H104 0.960 . S
C118 H105 0.961 . S
C118 H106 0.959 . S
C118 C116 1.561 . S
C119 C116 1.526 . S
C119 C120 1.396 . S
C119 C124 1.390 . S
C120 C114 1.465 . S
C120 C119 1.396 . S
C120 C121 1.399 . S
C121 H107 0.929 . S
C121 C120 1.399 . S
C121 C122 1.385 . S
C122 H108 0.931 . S
C122 C121 1.385 . S
C122 C123 1.389 . S
C123 C122 1.389 . S
C123 C124 1.387 . S
C124 H109 0.930 . S
C124 C119 1.390 . S
C124 C123 1.387 . S
H125 C137 0.930 . S
H126 C139 0.930 . S
H127 C140 0.930 . S
H128 C144 0.959 . S
H129 C144 0.959 . S
H130 C144 0.961 . S
H131 C145 0.960 . S
H132 C145 0.961 . S
H133 C145 0.959 . S
H134 C148 0.929 . S
H135 C149 0.931 . S
H136 C151 0.930 . S
C137 H125 0.930 . S
C137 C138 1.399 1_554 S
C137 C142 1.399 . S
C138 C137 1.399 1_556 S
C138 C139 1.376 . S
C139 H126 0.930 . S
C139 C138 1.376 . S
C139 C140 1.388 . S
C140 H127 0.930 . S
C140 C139 1.388 . S
C140 C141 1.390 . S
C141 C140 1.390 . S
C141 C142 1.394 1_556 S
C141 C147 1.465 . S
C142 C137 1.399 . S
C142 C141 1.394 1_554 S
C142 C143 1.516 . S
C143 C142 1.516 . S
C143 C144 1.502 . S
C143 C145 1.561 . S
C143 C146 1.526 . S
C144 H128 0.959 . S
C144 H129 0.959 . S
C144 H130 0.961 . S
C144 C143 1.502 . S
C145 H131 0.960 . S
C145 H132 0.961 . S
C145 H133 0.959 . S
C145 C143 1.561 . S
C146 C143 1.526 . S
C146 C147 1.396 1_554 S
C146 C151 1.390 . S
C147 C141 1.465 . S
C147 C146 1.396 1_556 S
C147 C148 1.399 . S
C148 H134 0.929 . S
C148 C147 1.399 . S
C148 C149 1.385 . S
C149 H135 0.931 . S
C149 C148 1.385 . S
C149 C150 1.389 . S
C150 C149 1.389 . S
C150 C151 1.387 1_556 S
C151 H136 0.930 . S
C151 C146 1.390 . S
C151 C150 1.387 1_554 S
H152 C164 0.930 . S
H153 C166 0.930 . S
H154 C167 0.930 . S
H155 C171 0.959 . S
H156 C171 0.959 . S
H157 C171 0.961 . S
H158 C172 0.960 . S
H159 C172 0.961 . S
H160 C172 0.959 . S
H161 C175 0.929 . S
H162 C176 0.931 . S
H163 C178 0.930 . S
C164 H152 0.930 . S
C164 C165 1.399 . S
C164 C169 1.399 . S
C165 C164 1.399 . S
C165 C166 1.376 . S
C166 H153 0.930 . S
C166 C165 1.376 . S
C166 C167 1.388 . S
C167 H154 0.930 . S
C167 C166 1.388 . S
C167 C168 1.390 . S
C168 C167 1.390 . S
C168 C169 1.394 . S
C168 C174 1.465 . S
C169 C164 1.399 . S
C169 C168 1.394 . S
C169 C170 1.516 . S
C170 C169 1.516 . S
C170 C171 1.502 . S
C170 C172 1.561 . S
C170 C173 1.526 . S
C171 H155 0.959 . S
C171 H156 0.959 . S
C171 H157 0.961 . S
C171 C170 1.502 . S
C172 H158 0.960 . S
C172 H159 0.961 . S
C172 H160 0.959 . S
C172 C170 1.561 . S
C173 C170 1.526 . S
C173 C174 1.396 . S
C173 C178 1.390 . S
C174 C168 1.465 . S
C174 C173 1.396 . S
C174 C175 1.399 . S
C175 H161 0.929 . S
C175 C174 1.399 . S
C175 C176 1.385 . S
C176 H162 0.931 . S
C176 C175 1.385 . S
C176 C177 1.389 . S
C177 C176 1.389 . S
C177 C178 1.387 . S
C178 H163 0.930 . S
C178 C173 1.390 . S
C178 C177 1.387 . S
H179 C191 0.930 . S
H180 C193 0.930 . S
H181 C194 0.930 . S
H182 C198 0.959 . S
H183 C198 0.959 . S
H184 C198 0.961 . S
H185 C199 0.960 . S
H186 C199 0.961 . S
H187 C199 0.959 . S
H188 C202 0.929 . S
H189 C203 0.931 . S
H190 C205 0.930 . S
C191 H179 0.930 . S
C191 C192 1.399 1_556 S
C191 C196 1.399 . S
C192 C191 1.399 1_554 S
C192 C193 1.376 . S
C193 H180 0.930 . S
C193 C192 1.376 . S
C193 C194 1.388 . S
C194 H181 0.930 . S
C194 C193 1.388 . S
C194 C195 1.390 . S
C195 C194 1.390 . S
C195 C196 1.394 1_554 S
C195 C201 1.465 . S
C196 C191 1.399 . S
C196 C195 1.394 1_556 S
C196 C197 1.516 . S
C197 C196 1.516 . S
C197 C198 1.502 . S
C197 C199 1.561 . S
C197 C200 1.526 . S
C198 H182 0.959 . S
C198 H183 0.959 . S
C198 H184 0.961 . S
C198 C197 1.502 . S
C199 H185 0.960 . S
C199 H186 0.961 . S
C199 H187 0.959 . S
C199 C197 1.561 . S
C200 C197 1.526 . S
C200 C201 1.396 1_556 S
C200 C205 1.390 . S
C201 C195 1.465 . S
C201 C200 1.396 1_554 S
C201 C202 1.399 . S
C202 H188 0.929 . S
C202 C201 1.399 . S
C202 C203 1.385 . S
C203 H189 0.931 . S
C203 C202 1.385 . S
C203 C204 1.389 . S
C204 C203 1.389 . S
C204 C205 1.387 1_554 S
C205 H190 0.930 . S
C205 C200 1.390 . S
C205 C204 1.387 1_556 S
H206 C218 0.930 . S
H207 C220 0.930 . S
H208 C221 0.930 . S
H209 C225 0.959 . S
H210 C225 0.959 . S
H211 C225 0.961 . S
H212 C226 0.960 . S
H213 C226 0.961 . S
H214 C226 0.959 . S
H215 C229 0.929 . S
H216 C230 0.931 . S
H217 C232 0.930 . S
C218 H206 0.930 . S
C218 C219 1.399 . S
C218 C223 1.399 . S
C219 C218 1.399 . S
C219 C220 1.376 . S
C220 H207 0.930 . S
C220 C219 1.376 . S
C220 C221 1.388 . S
C221 H208 0.930 . S
C221 C220 1.388 . S
C221 C222 1.390 . S
C222 C221 1.390 . S
C222 C223 1.394 . S
C222 C228 1.465 . S
C223 C218 1.399 . S
C223 C222 1.394 . S
C223 C224 1.516 . S
C224 C223 1.516 . S
C224 C225 1.502 . S
C224 C226 1.561 . S
C224 C227 1.526 . S
C225 H209 0.959 . S
C225 H210 0.959 . S
C225 H211 0.961 . S
C225 C224 1.502 . S
C226 H212 0.960 . S
C226 H213 0.961 . S
C226 H214 0.959 . S
C226 C224 1.561 . S
C227 C224 1.526 . S
C227 C228 1.396 . S
C227 C232 1.390 . S
C228 C222 1.465 . S
C228 C227 1.396 . S
C228 C229 1.399 . S
C229 H215 0.929 . S
C229 C228 1.399 . S
C229 C230 1.385 . S
C230 H216 0.931 . S
C230 C229 1.385 . S
C230 C231 1.389 . S
C231 C230 1.389 . S
C231 C232 1.387 . S
C232 H217 0.930 . S
C232 C227 1.390 . S
C232 C231 1.387 . S
H233 C245 0.930 . S
H234 C247 0.930 . S
H235 C248 0.930 . S
H236 C252 0.959 . S
H237 C252 0.959 . S
H238 C252 0.961 . S
H239 C253 0.960 . S
H240 C253 0.961 . S
H241 C253 0.959 . S
H242 C256 0.929 . S
H243 C257 0.931 . S
H244 C259 0.930 . S
C245 H233 0.930 . S
C245 C246 1.399 . S
C245 C250 1.399 . S
C246 C245 1.399 . S
C246 C247 1.376 . S
C247 H234 0.930 . S
C247 C246 1.376 . S
C247 C248 1.388 . S
C248 H235 0.930 . S
C248 C247 1.388 . S
C248 C249 1.390 . S
C249 C248 1.390 . S
C249 C250 1.394 . S
C249 C255 1.465 . S
C250 C245 1.399 . S
C250 C249 1.394 . S
C250 C251 1.516 . S
C251 C250 1.516 . S
C251 C252 1.502 . S
C251 C253 1.561 . S
C251 C254 1.526 . S
C252 H236 0.959 . S
C252 H237 0.959 . S
C252 H238 0.961 . S
C252 C251 1.502 . S
C253 H239 0.960 . S
C253 H240 0.961 . S
C253 H241 0.959 . S
C253 C251 1.561 . S
C254 C251 1.526 . S
C254 C255 1.396 . S
C254 C259 1.390 . S
C255 C249 1.465 . S
C255 C254 1.396 . S
C255 C256 1.399 . S
C256 H242 0.929 . S
C256 C255 1.399 . S
C256 C257 1.385 . S
C257 H243 0.931 . S
C257 C256 1.385 . S
C257 C258 1.389 . S
C258 C257 1.389 . S
C258 C259 1.387 . S
C259 H244 0.930 . S
C259 C254 1.390 . S
C259 C258 1.387 . S
H260 C272 0.930 . S
H261 C274 0.930 . S
H262 C275 0.930 . S
H263 C279 0.959 . S
H264 C279 0.959 . S
H265 C279 0.961 . S
H266 C280 0.960 . S
H267 C280 0.961 . S
H268 C280 0.959 . S
H269 C283 0.929 . S
H270 C284 0.931 . S
H271 C286 0.930 . S
C272 H260 0.930 . S
C272 C273 1.399 . S
C272 C277 1.399 . S
C273 C272 1.399 . S
C273 C274 1.376 . S
C274 H261 0.930 . S
C274 C273 1.376 . S
C274 C275 1.388 . S
C275 H262 0.930 . S
C275 C274 1.388 . S
C275 C276 1.390 . S
C276 C275 1.390 . S
C276 C277 1.394 . S
C276 C282 1.465 . S
C277 C272 1.399 . S
C277 C276 1.394 . S
C277 C278 1.516 . S
C278 C277 1.516 . S
C278 C279 1.502 . S
C278 C280 1.561 . S
C278 C281 1.526 . S
C279 H263 0.959 . S
C279 H264 0.959 . S
C279 H265 0.961 . S
C279 C278 1.502 . S
C280 H266 0.960 . S
C280 H267 0.961 . S
C280 H268 0.959 . S
C280 C278 1.561 . S
C281 C278 1.526 . S
C281 C282 1.396 . S
C281 C286 1.390 . S
C282 C276 1.465 . S
C282 C281 1.396 . S
C282 C283 1.399 . S
C283 H269 0.929 . S
C283 C282 1.399 . S
C283 C284 1.385 . S
C284 H270 0.931 . S
C284 C283 1.385 . S
C284 C285 1.389 . S
C285 C284 1.389 . S
C285 C286 1.387 . S
C286 H271 0.930 . S
C286 C281 1.390 . S
C286 C285 1.387 . S
H287 C299 0.930 . S
H288 C301 0.930 . S
H289 C302 0.930 . S
H290 C306 0.959 . S
H291 C306 0.959 . S
H292 C306 0.961 . S
H293 C307 0.960 . S
H294 C307 0.961 . S
H295 C307 0.959 . S
H296 C310 0.929 . S
H297 C311 0.931 . S
H298 C313 0.930 . S
C299 H287 0.930 . S
C299 C300 1.399 . S
C299 C304 1.399 . S
C300 C299 1.399 . S
C300 C301 1.376 . S
C301 H288 0.930 . S
C301 C300 1.376 . S
C301 C302 1.388 . S
C302 H289 0.930 . S
C302 C301 1.388 . S
C302 C303 1.390 . S
C303 C302 1.390 . S
C303 C304 1.394 . S
C303 C309 1.465 . S
C304 C299 1.399 . S
C304 C303 1.394 . S
C304 C305 1.516 . S
C305 C304 1.516 . S
C305 C306 1.502 . S
C305 C307 1.561 . S
C305 C308 1.526 . S
C306 H290 0.959 . S
C306 H291 0.959 . S
C306 H292 0.961 . S
C306 C305 1.502 . S
C307 H293 0.960 . S
C307 H294 0.961 . S
C307 H295 0.959 . S
C307 C305 1.561 . S
C308 C305 1.526 . S
C308 C309 1.396 . S
C308 C313 1.390 . S
C309 C303 1.465 . S
C309 C308 1.396 . S
C309 C310 1.399 . S
C310 H296 0.929 . S
C310 C309 1.399 . S
C310 C311 1.385 . S
C311 H297 0.931 . S
C311 C310 1.385 . S
C311 C312 1.389 . S
C312 C311 1.389 . S
C312 C313 1.387 . S
C313 H298 0.930 . S
C313 C308 1.390 . S
C313 C312 1.387 . S
H314 C326 0.930 . S
H315 C328 0.930 . S
H316 C329 0.930 . S
H317 C333 0.959 . S
H318 C333 0.959 . S
H319 C333 0.961 . S
H320 C334 0.960 . S
H321 C334 0.961 . S
H322 C334 0.959 . S
H323 C337 0.929 . S
H324 C338 0.931 . S
H325 C340 0.930 . S
C326 H314 0.930 . S
C326 C327 1.399 . S
C326 C331 1.399 . S
C327 C326 1.399 . S
C327 C328 1.376 . S
C328 H315 0.930 . S
C328 C327 1.376 . S
C328 C329 1.388 . S
C329 H316 0.930 . S
C329 C328 1.388 . S
C329 C330 1.390 . S
C330 C329 1.390 . S
C330 C331 1.394 . S
C330 C336 1.465 . S
C331 C326 1.399 . S
C331 C330 1.394 . S
C331 C332 1.516 . S
C332 C331 1.516 . S
C332 C333 1.502 . S
C332 C334 1.561 . S
C332 C335 1.526 . S
C333 H317 0.959 . S
C333 H318 0.959 . S
C333 H319 0.961 . S
C333 C332 1.502 . S
C334 H320 0.960 . S
C334 H321 0.961 . S
C334 H322 0.959 . S
C334 C332 1.561 . S
C335 C332 1.526 . S
C335 C336 1.396 . S
C335 C340 1.390 . S
C336 C330 1.465 . S
C336 C335 1.396 . S
C336 C337 1.399 . S
C337 H323 0.929 . S
C337 C336 1.399 . S
C337 C338 1.385 . S
C338 H324 0.931 . S
C338 C337 1.385 . S
C338 C339 1.389 . S
C339 C338 1.389 . S
C339 C340 1.387 . S
C340 H325 0.930 . S
C340 C335 1.390 . S
C340 C339 1.387 . S
H341 C353 0.930 . S
H342 C355 0.930 . S
H343 C356 0.930 . S
H344 C360 0.959 . S
H345 C360 0.959 . S
H346 C360 0.961 . S
H347 C361 0.960 . S
H348 C361 0.961 . S
H349 C361 0.959 . S
H350 C364 0.929 . S
H351 C365 0.931 . S
H352 C367 0.930 . S
C353 H341 0.930 . S
C353 C354 1.399 . S
C353 C358 1.399 . S
C354 C353 1.399 . S
C354 C355 1.376 . S
C355 H342 0.930 . S
C355 C354 1.376 . S
C355 C356 1.388 . S
C356 H343 0.930 . S
C356 C355 1.388 . S
C356 C357 1.390 . S
C357 C356 1.390 . S
C357 C358 1.394 . S
C357 C363 1.465 . S
C358 C353 1.399 . S
C358 C357 1.394 . S
C358 C359 1.516 . S
C359 C358 1.516 . S
C359 C360 1.502 . S
C359 C361 1.561 . S
C359 C362 1.526 . S
C360 H344 0.959 . S
C360 H345 0.959 . S
C360 H346 0.961 . S
C360 C359 1.502 . S
C361 H347 0.960 . S
C361 H348 0.961 . S
C361 H349 0.959 . S
C361 C359 1.561 . S
C362 C359 1.526 . S
C362 C363 1.396 . S
C362 C367 1.390 . S
C363 C357 1.465 . S
C363 C362 1.396 . S
C363 C364 1.399 . S
C364 H350 0.929 . S
C364 C363 1.399 . S
C364 C365 1.385 . S
C365 H351 0.931 . S
C365 C364 1.385 . S
C365 C366 1.389 . S
C366 C365 1.389 . S
C366 C367 1.387 . S
C367 H352 0.930 . S
C367 C362 1.390 . S
C367 C366 1.387 . S
H368 C380 0.930 . S
H369 C382 0.930 . S
H370 C383 0.930 . S
H371 C387 0.959 . S
H372 C387 0.959 . S
H373 C387 0.961 . S
H374 C388 0.960 . S
H375 C388 0.961 . S
H376 C388 0.959 . S
H377 C391 0.929 . S
H378 C392 0.931 . S
H379 C394 0.930 . S
C380 H368 0.930 . S
C380 C381 1.399 . S
C380 C385 1.399 . S
C381 C380 1.399 . S
C381 C382 1.376 . S
C382 H369 0.930 . S
C382 C381 1.376 . S
C382 C383 1.388 . S
C383 H370 0.930 . S
C383 C382 1.388 . S
C383 C384 1.390 . S
C384 C383 1.390 . S
C384 C385 1.394 . S
C384 C390 1.465 . S
C385 C380 1.399 . S
C385 C384 1.394 . S
C385 C386 1.516 . S
C386 C385 1.516 . S
C386 C387 1.502 . S
C386 C388 1.561 . S
C386 C389 1.526 . S
C387 H371 0.959 . S
C387 H372 0.959 . S
C387 H373 0.961 . S
C387 C386 1.502 . S
C388 H374 0.960 . S
C388 H375 0.961 . S
C388 H376 0.959 . S
C388 C386 1.561 . S
C389 C386 1.526 . S
C389 C390 1.396 . S
C389 C394 1.390 . S
C390 C384 1.465 . S
C390 C389 1.396 . S
C390 C391 1.399 . S
C391 H377 0.929 . S
C391 C390 1.399 . S
C391 C392 1.385 . S
C392 H378 0.931 . S
C392 C391 1.385 . S
C392 C393 1.389 . S
C393 C392 1.389 . S
C393 C394 1.387 . S
C394 H379 0.930 . S
C394 C389 1.390 . S
C394 C393 1.387 . S
H395 C407 0.930 . S
H396 C409 0.930 . S
H397 C410 0.930 . S
H398 C414 0.959 . S
H399 C414 0.959 . S
H400 C414 0.961 . S
H401 C415 0.960 . S
H402 C415 0.961 . S
H403 C415 0.959 . S
H404 C418 0.929 . S
H405 C419 0.931 . S
H406 C421 0.930 . S
C407 H395 0.930 . S
C407 C408 1.399 . S
C407 C412 1.399 . S
C408 C407 1.399 . S
C408 C409 1.376 . S
C409 H396 0.930 . S
C409 C408 1.376 . S
C409 C410 1.388 . S
C410 H397 0.930 . S
C410 C409 1.388 . S
C410 C411 1.390 . S
C411 C410 1.390 . S
C411 C412 1.394 . S
C411 C417 1.465 . S
C412 C407 1.399 . S
C412 C411 1.394 . S
C412 C413 1.516 . S
C413 C412 1.516 . S
C413 C414 1.502 . S
C413 C415 1.561 . S
C413 C416 1.526 . S
C414 H398 0.959 . S
C414 H399 0.959 . S
C414 H400 0.961 . S
C414 C413 1.502 . S
C415 H401 0.960 . S
C415 H402 0.961 . S
C415 H403 0.959 . S
C415 C413 1.561 . S
C416 C413 1.526 . S
C416 C417 1.396 . S
C416 C421 1.390 . S
C417 C411 1.465 . S
C417 C416 1.396 . S
C417 C418 1.399 . S
C418 H404 0.929 . S
C418 C417 1.399 . S
C418 C419 1.385 . S
C419 H405 0.931 . S
C419 C418 1.385 . S
C419 C420 1.389 . S
C420 C419 1.389 . S
C420 C421 1.387 . S
C421 H406 0.930 . S
C421 C416 1.390 . S
C421 C420 1.387 . S
C123 C69 1.492 . S
C111 N41 1.491 . S
C138 N2 1.489 1_556 S
C150 C92 1.485 1_556 S
C165 N15 1.522 . S
C177 C68 1.521 . S
C192 N28 1.523 . S
C204 C91 1.523 1_554 S
C231 C72 1.468 . S
C219 N5 1.463 . S
C258 C94 1.504 . S
C246 N14 1.516 . S
C273 N27 1.476 . S
C285 C73 1.423 . S
C300 N44 1.505 . S
C312 C93 1.440 . S
C339 C96 1.476 . S
C327 N18 1.477 . S
C366 C71 1.436 . S
C354 N31 1.535 . S
C393 C95 1.409 . S
C381 N40 1.476 . S
C408 N1 1.522 . S
C420 C70 1.435 . S
