# Generated by pormake.
# Topology pyr, (3,6)-cn, num edge types: 1
# Building blocks:
#     Node 0, Type 0, BuildingBlock: ESEHIV_clean_linker_0, # of connection points: 3
#     Node 1, Type 0, BuildingBlock: ESEHIV_clean_linker_0, # of connection points: 3
#     Node 2, Type 0, BuildingBlock: ESEHIV_clean_linker_0, # of connection points: 3
#     Node 3, Type 0, BuildingBlock: ESEHIV_clean_linker_0, # of connection points: 3
#     Node 4, Type 0, BuildingBlock: ESEHIV_clean_linker_0, # of connection points: 3
#     Node 5, Type 0, BuildingBlock: ESEHIV_clean_linker_0, # of connection points: 3
#     Node 6, Type 0, BuildingBlock: ESEHIV_clean_linker_0, # of connection points: 3
#     Node 7, Type 0, BuildingBlock: ESEHIV_clean_linker_0, # of connection points: 3
#     Node 8, Type 1, BuildingBlock: CIFDUS_clean_sbu_1, # of connection points: 6
#     Node 9, Type 1, BuildingBlock: CIFDUS_clean_sbu_1, # of connection points: 6
#     Node 10, Type 1, BuildingBlock: CIFDUS_clean_sbu_1, # of connection points: 6
#     Node 11, Type 1, BuildingBlock: CIFDUS_clean_sbu_1, # of connection points: 6
#     Edge 12, Type (0, 1), BuildingBlock: TEMPAE_clean_linker_10, # of connection points: 2
#     Edge 13, Type (0, 1), BuildingBlock: TEMPAE_clean_linker_10, # of connection points: 2
#     Edge 14, Type (0, 1), BuildingBlock: TEMPAE_clean_linker_10, # of connection points: 2
#     Edge 15, Type (0, 1), BuildingBlock: TEMPAE_clean_linker_10, # of connection points: 2
#     Edge 16, Type (0, 1), BuildingBlock: TEMPAE_clean_linker_10, # of connection points: 2
#     Edge 17, Type (0, 1), BuildingBlock: TEMPAE_clean_linker_10, # of connection points: 2
#     Edge 18, Type (0, 1), BuildingBlock: TEMPAE_clean_linker_10, # of connection points: 2
#     Edge 19, Type (0, 1), BuildingBlock: TEMPAE_clean_linker_10, # of connection points: 2
#     Edge 20, Type (0, 1), BuildingBlock: TEMPAE_clean_linker_10, # of connection points: 2
#     Edge 21, Type (0, 1), BuildingBlock: TEMPAE_clean_linker_10, # of connection points: 2
#     Edge 22, Type (0, 1), BuildingBlock: TEMPAE_clean_linker_10, # of connection points: 2
#     Edge 23, Type (0, 1), BuildingBlock: TEMPAE_clean_linker_10, # of connection points: 2
#     Edge 24, Type (0, 1), BuildingBlock: TEMPAE_clean_linker_10, # of connection points: 2
#     Edge 25, Type (0, 1), BuildingBlock: TEMPAE_clean_linker_10, # of connection points: 2
#     Edge 26, Type (0, 1), BuildingBlock: TEMPAE_clean_linker_10, # of connection points: 2
#     Edge 27, Type (0, 1), BuildingBlock: TEMPAE_clean_linker_10, # of connection points: 2
#     Edge 28, Type (0, 1), BuildingBlock: TEMPAE_clean_linker_10, # of connection points: 2
#     Edge 29, Type (0, 1), BuildingBlock: TEMPAE_clean_linker_10, # of connection points: 2
#     Edge 30, Type (0, 1), BuildingBlock: TEMPAE_clean_linker_10, # of connection points: 2
#     Edge 31, Type (0, 1), BuildingBlock: TEMPAE_clean_linker_10, # of connection points: 2
#     Edge 32, Type (0, 1), BuildingBlock: TEMPAE_clean_linker_10, # of connection points: 2
#     Edge 33, Type (0, 1), BuildingBlock: TEMPAE_clean_linker_10, # of connection points: 2
#     Edge 34, Type (0, 1), BuildingBlock: TEMPAE_clean_linker_10, # of connection points: 2
#     Edge 35, Type (0, 1), BuildingBlock: TEMPAE_clean_linker_10, # of connection points: 2
# Relax obj value: 0.035
# Max RMSD: 0.111
# Mean RMSD: 0.045
data_MOF--net-pry--node1-CIFDUS_clean_sbu_1--node2-ESEHIV_clean_linker_0--edge1-TEMPAE_clean_linker_10
_symmetry_space_group_name_H-M    P1
_symmetry_Int_Tables_number       1
_symmetry_cell_setting            triclinic
loop_
_symmetry_equiv_pos_as_xyz
'x, y, z'
_cell_length_a     35.613423
_cell_length_b     34.307416
_cell_length_c     34.079354
_cell_angle_alpha  92.162031
_cell_angle_beta   91.442827
_cell_angle_gamma 93.899597
loop_
_atom_site_label
_atom_site_type_symbol
_atom_site_fract_x
_atom_site_fract_y
_atom_site_fract_z
_atom_type_partial_charge
H0 H 0.11248 0.19294 0.18572 0.0
H1 H 0.19121 0.10349 0.18469 0.0
H2 H 0.18784 0.182 0.08942 0.0
C3 C 0.13513 0.17878 0.17159 0.0
C4 C 0.14796 0.19162 0.1351 0.0
C5 C 0.15045 0.14694 0.18959 0.0
C6 C 0.17882 0.12756 0.17061 0.0
C7 C 0.1926 0.14008 0.13458 0.0
C8 C 0.17704 0.17212 0.11705 0.0
H9 H 0.33538 0.93621 0.6555 0.0
H10 H 0.42448 0.85719 0.65773 0.0
H11 H 0.33904 0.8442 0.56657 0.0
C12 C 0.34924 0.91184 0.64269 0.0
C13 C 0.33315 0.89182 0.60882 0.0
C14 C 0.38233 0.89986 0.66084 0.0
C15 C 0.39976 0.86795 0.64375 0.0
C16 C 0.38413 0.84807 0.60985 0.0
C17 C 0.35098 0.85999 0.59262 0.0
H18 H 0.68748 0.31502 0.89639 0.0
H19 H 0.6962 0.40676 0.81344 0.0
H20 H 0.62143 0.30454 0.78873 0.0
C21 C 0.67903 0.32716 0.86888 0.0
C22 C 0.65267 0.30576 0.84387 0.0
C23 C 0.6956 0.36328 0.85781 0.0
C24 C 0.68432 0.37849 0.822 0.0
C25 C 0.65765 0.35736 0.79717 0.0
C26 C 0.64224 0.32077 0.80787 0.0
H27 H 0.84532 0.65659 0.45058 0.0
H28 H 0.92376 0.66614 0.35706 0.0
H29 H 0.82601 0.58534 0.3444 0.0
C30 C 0.85444 0.64657 0.42205 0.0
C31 C 0.83201 0.61813 0.39984 0.0
C32 C 0.88756 0.66392 0.40695 0.0
C33 C 0.89882 0.652 0.36938 0.0
C34 C 0.87629 0.6241 0.34646 0.0
C35 C 0.84313 0.60716 0.36195 0.0
H36 H 0.82757 0.91948 0.84054 0.0
H37 H 0.90796 0.83205 0.84682 0.0
H38 H 0.83726 0.85406 0.945 0.0
C39 C 0.84083 0.89737 0.85683 0.0
C40 C 0.82854 0.88891 0.89469 0.0
C41 C 0.86983 0.8774 0.83956 0.0
C42 C 0.8866 0.84836 0.86073 0.0
C43 C 0.87494 0.83917 0.89882 0.0
C44 C 0.84598 0.85996 0.91548 0.0
H45 H 0.58713 0.16844 0.36828 0.0
H46 H 0.67969 0.09377 0.36836 0.0
H47 H 0.67134 0.18148 0.46078 0.0
C48 C 0.61229 0.15839 0.38204 0.0
C49 C 0.62677 0.17755 0.41684 0.0
C50 C 0.63129 0.12816 0.36389 0.0
C51 C 0.66474 0.11697 0.38189 0.0
C52 C 0.67962 0.13611 0.41675 0.0
C53 C 0.66038 0.16648 0.4339 0.0
H54 H 0.33383 0.7206 0.12497 0.0
H55 H 0.31426 0.62808 0.20608 0.0
H56 H 0.39339 0.72532 0.23619 0.0
C57 C 0.33902 0.70766 0.15294 0.0
C58 C 0.36472 0.72726 0.17992 0.0
C59 C 0.32003 0.67192 0.16192 0.0
C60 C 0.32852 0.65542 0.19808 0.0
C61 C 0.35513 0.67444 0.22459 0.0
C62 C 0.37287 0.71057 0.21568 0.0
H63 H 0.07257 0.35191 0.67686 0.0
H64 H 0.13873 0.3601 0.57362 0.0
H65 H 0.17249 0.42949 0.67843 0.0
C66 C 0.09637 0.36506 0.6617 0.0
C67 C 0.12097 0.39333 0.68146 0.0
C68 C 0.10308 0.35257 0.62301 0.0
C69 C 0.13392 0.3697 0.6036 0.0
C70 C 0.15961 0.39728 0.62321 0.0
C71 C 0.15283 0.40886 0.6624 0.0
O72 O 0.95514 0.03904 0.50158 0.0
Mn73 Mn 0.00518 0.01025 0.51145 0.0
O74 O 0.92757 0.01128 0.44725 0.0
Mn75 Mn 0.96911 0.98549 0.43595 0.0
O76 O 0.05559 0.98339 0.52357 0.0
O77 O 0.02299 0.05757 0.54543 0.0
Mn78 Mn 0.0397 0.04235 0.59081 0.0
O79 O 0.97828 0.98256 0.55964 0.0
O80 O 0.07916 0.01205 0.58044 0.0
O81 O 0.03278 0.03911 0.46463 0.0
O82 O 0.00486 0.01356 0.40936 0.0
O83 O 0.04656 0.09572 0.59398 0.0
O84 O 0.99933 0.01757 0.6139 0.0
C85 C 0.97656 0.93022 0.45351 0.0
C86 C 0.92781 0.03537 0.47613 0.0
C87 C 0.08097 0.98789 0.55138 0.0
C88 C 0.0319 0.09288 0.55876 0.0
C89 C 0.97743 0.99097 0.59697 0.0
C90 C 0.02948 0.03663 0.42687 0.0
O91 O 0.98793 0.9608 0.47649 0.0
O92 O 0.96017 0.93617 0.42 0.0
O93 O 0.48862 0.99815 0.95403 0.0
Mn94 Mn 0.50925 0.01512 0.0112 0.0
O95 O 0.49746 0.93393 0.94627 0.0
Mn96 Mn 0.52461 0.92908 0.9924 0.0
O97 O 0.52981 0.03212 0.06838 0.0
O98 O 0.5144 0.071 0.99499 0.0
Mn99 Mn 0.49329 0.10085 0.02993 0.0
O100 O 0.45285 0.0208 0.02902 0.0
O101 O 0.51995 0.09608 0.07638 0.0
O102 O 0.56566 0.00922 0.99327 0.0
O103 O 0.57483 0.94488 0.99128 0.0
O104 O 0.51169 0.13435 0.99342 0.0
O105 O 0.44305 0.08493 0.03016 0.0
C106 C 0.49443 0.92777 0.04516 0.0
C107 C 0.48512 0.9654 0.93392 0.0
C108 C 0.53268 0.06477 0.08868 0.0
C109 C 0.5234 0.1028 0.97726 0.0
C110 C 0.43121 0.0494 0.03265 0.0
C111 C 0.58694 0.98036 0.98886 0.0
O112 O 0.5041 0.95933 0.02736 0.0
O113 O 0.50595 0.89601 0.02928 0.0
O114 O 0.5526 0.52571 0.50168 0.0
Mn115 Mn 0.49635 0.50813 0.51239 0.0
O116 O 0.56079 0.51105 0.43765 0.0
Mn117 Mn 0.5123 0.49016 0.42668 0.0
O118 O 0.4399 0.49011 0.5237 0.0
O119 O 0.51208 0.50105 0.56891 0.0
Mn120 Mn 0.48087 0.52493 0.59911 0.0
O121 O 0.48557 0.56743 0.52347 0.0
O122 O 0.43416 0.49964 0.58901 0.0
O123 O 0.50754 0.44864 0.50146 0.0
O124 O 0.50406 0.43838 0.43627 0.0
O125 O 0.51366 0.50434 0.63327 0.0
O126 O 0.48587 0.57704 0.58894 0.0
C127 C 0.46674 0.52555 0.42217 0.0
C128 C 0.57316 0.52426 0.47127 0.0
C129 C 0.42093 0.48744 0.55535 0.0
C130 C 0.52807 0.49122 0.6013 0.0
C131 C 0.48469 0.58995 0.55453 0.0
C132 C 0.50717 0.42569 0.47056 0.0
O133 O 0.48119 0.51598 0.45557 0.0
O134 O 0.48208 0.51176 0.39099 0.0
O135 O 0.95335 0.4822 1.00266 0.0
Mn136 Mn 0.0059 0.51121 0.01518 0.0
O137 O 0.93522 0.51544 0.9522 0.0
Mn138 Mn 0.98362 0.52916 0.93651 0.0
O139 O 0.05901 0.53971 0.02961 0.0
O140 O 0.98877 0.51636 0.07291 0.0
Mn141 Mn 0.026 0.49319 0.09624 0.0
O142 O 0.02797 0.45501 0.02079 0.0
O143 O 0.07061 0.52244 0.09131 0.0
O144 O 0.98423 0.5684 0.00684 0.0
O145 O 0.99656 0.58068 0.94463 0.0
O146 O 0.99836 0.50553 0.1369 0.0
O147 O 0.02569 0.44105 0.08373 0.0
C148 C 0.02027 0.48513 0.92548 0.0
C149 C 0.92774 0.49188 0.9789 0.0
C150 C 0.07991 0.54089 0.06103 0.0
C151 C 0.97795 0.5196 0.10949 0.0
C152 C 0.03055 0.43074 0.04851 0.0
C153 C 0.9867 0.59249 0.97821 0.0
O154 O 0.02303 0.5071 0.95782 0.0
O155 O 0.99683 0.49548 0.89878 0.0
C156 C 0.12769 0.09424 0.2342 0.0
C157 C 0.137 0.13394 0.22836 0.0
C158 C 0.11388 0.08165 0.27023 0.0
C159 C 0.1098 0.10931 0.30156 0.0
C160 C 0.12044 0.14928 0.29621 0.0
C161 C 0.13354 0.16115 0.25961 0.0
C162 C 0.10228 0.03887 0.27424 0.0
C163 C 0.1172 0.17964 0.32889 0.0
C164 C 0.03212 0.07998 0.37085 0.0
C165 C 0.05168 0.06285 0.40122 0.0
C166 C 0.05088 0.09674 0.33935 0.0
C167 C 0.09055 0.09681 0.33805 0.0
C168 C 0.11086 0.08198 0.37002 0.0
C169 C 0.09113 0.06499 0.40135 0.0
C170 C 0.02784 0.11187 0.30611 0.0
C171 C 0.15319 0.08197 0.36994 0.0
H172 H 0.13016 0.0731 0.2101 0.0
H173 H 0.14125 0.1918 0.25543 0.0
H174 H 0.11665 0.02757 0.30028 0.0
H175 H 0.07152 0.03515 0.27884 0.0
H176 H 0.10893 0.02083 0.24788 0.0
H177 H 0.1299 0.20878 0.32131 0.0
H178 H 0.08711 0.18246 0.33533 0.0
H179 H 0.13125 0.17047 0.35613 0.0
H180 H 0.00158 0.07832 0.37068 0.0
H181 H 0.10634 0.05132 0.42447 0.0
H182 H 0.03053 0.0931 0.27922 0.0
H183 H 0.03844 0.14195 0.29938 0.0
H184 H 0.99752 0.11217 0.31292 0.0
H185 H 0.16153 0.05982 0.34787 0.0
H186 H 0.16513 0.07502 0.39908 0.0
H187 H 0.1658 0.11081 0.36148 0.0
C188 C 0.37219 0.93054 0.72772 0.0
C189 C 0.3971 0.91864 0.69899 0.0
C190 C 0.38538 0.94489 0.76504 0.0
C191 C 0.42441 0.94671 0.77438 0.0
C192 C 0.44987 0.9364 0.74509 0.0
C193 C 0.43596 0.92277 0.70774 0.0
C194 C 0.35723 0.95577 0.79524 0.0
C195 C 0.4917 0.93756 0.7539 0.0
C196 C 0.46442 0.99524 0.87089 0.0
C197 C 0.46667 0.96265 0.89426 0.0
C198 C 0.45021 0.99085 0.83182 0.0
C199 C 0.43794 0.95311 0.81606 0.0
C200 C 0.43918 0.92046 0.84004 0.0
C201 C 0.45335 0.92566 0.87864 0.0
C202 C 0.44914 0.02636 0.80717 0.0
C203 C 0.42636 0.87966 0.8247 0.0
H204 H 0.3421 0.92703 0.72182 0.0
H205 H 0.4556 0.91449 0.68566 0.0
H206 H 0.35476 0.93282 0.81728 0.0
H207 H 0.36677 0.98368 0.81107 0.0
H208 H 0.32888 0.95876 0.78177 0.0
H209 H 0.50805 0.93293 0.72698 0.0
H210 H 0.50173 0.96599 0.76838 0.0
H211 H 0.49769 0.91436 0.77455 0.0
H212 H 0.47478 0.02386 0.88267 0.0
H213 H 0.45449 0.90028 0.89654 0.0
H214 H 0.42045 0.02831 0.79426 0.0
H215 H 0.46858 0.0237 0.78243 0.0
H216 H 0.4574 0.05388 0.82442 0.0
H217 H 0.39662 0.87876 0.81404 0.0
H218 H 0.42872 0.85749 0.8474 0.0
H219 H 0.44355 0.87129 0.79941 0.0
C220 C 0.65833 0.36267 0.72454 0.0
C221 C 0.64445 0.37434 0.76084 0.0
C222 C 0.64511 0.37825 0.68968 0.0
C223 C 0.61705 0.4055 0.69149 0.0
C224 C 0.60309 0.41729 0.7284 0.0
C225 C 0.61721 0.40169 0.76271 0.0
C226 C 0.66101 0.36557 0.65103 0.0
C227 C 0.5729 0.44604 0.73168 0.0
C228 C 0.59328 0.47984 0.61813 0.0
C229 C 0.55783 0.4642 0.60456 0.0
C230 C 0.61549 0.45886 0.64327 0.0
C231 C 0.60144 0.42168 0.65517 0.0
C232 C 0.56791 0.40383 0.63735 0.0
C233 C 0.54655 0.42537 0.61193 0.0
C234 C 0.65133 0.47877 0.66113 0.0
C235 C 0.55184 0.36432 0.64932 0.0
H236 H 0.67952 0.34144 0.72354 0.0
H237 H 0.6066 0.4104 0.79105 0.0
H238 H 0.63835 0.35075 0.63184 0.0
H239 H 0.67238 0.39152 0.63557 0.0
H240 H 0.68377 0.34534 0.65486 0.0
H241 H 0.56492 0.45175 0.76257 0.0
H242 H 0.58282 0.47421 0.71924 0.0
H243 H 0.54735 0.43469 0.71446 0.0
H244 H 0.60156 0.51023 0.61309 0.0
H245 H 0.51866 0.4137 0.60214 0.0
H246 H 0.67327 0.45764 0.66479 0.0
H247 H 0.64556 0.49137 0.69066 0.0
H248 H 0.66251 0.50287 0.6429 0.0
H249 H 0.57401 0.34317 0.65011 0.0
H250 H 0.52856 0.35237 0.6291 0.0
H251 H 0.54067 0.36704 0.67935 0.0
C252 C 0.9215 0.60007 0.29772 0.0
C253 C 0.88626 0.61376 0.30562 0.0
C254 C 0.93043 0.58808 0.25942 0.0
C255 C 0.90379 0.59085 0.22812 0.0
C256 C 0.86865 0.60603 0.23585 0.0
C257 C 0.8601 0.61681 0.27462 0.0
C258 C 0.96797 0.57131 0.25272 0.0
C259 C 0.83999 0.61049 0.20327 0.0
C260 C 0.95119 0.58084 0.13028 0.0
C261 C 0.9457 0.54041 0.12277 0.0
C262 C 0.93442 0.59882 0.1626 0.0
C263 C 0.91223 0.57556 0.18797 0.0
C264 C 0.90293 0.53569 0.17745 0.0
C265 C 0.91939 0.51879 0.14456 0.0
C266 C 0.94398 0.64172 0.17196 0.0
C267 C 0.87981 0.50951 0.20367 0.0
H268 H 0.94161 0.5976 0.32177 0.0
H269 H 0.83294 0.62782 0.28076 0.0
H270 H 0.9635 0.5409 0.24036 0.0
H271 H 0.98395 0.58861 0.23105 0.0
H272 H 0.98539 0.57105 0.2802 0.0
H273 H 0.81535 0.62576 0.21366 0.0
H274 H 0.85313 0.62712 0.17927 0.0
H275 H 0.82985 0.58131 0.1906 0.0
H276 H 0.97212 0.5975 0.11401 0.0
H277 H 0.91576 0.48736 0.13923 0.0
H278 H 0.96663 0.64512 0.19503 0.0
H279 H 0.9192 0.65598 0.1834 0.0
H280 H 0.95404 0.65714 0.14571 0.0
H281 H 0.89699 0.50371 0.23019 0.0
H282 H 0.87062 0.48103 0.18863 0.0
H283 H 0.85455 0.52377 0.2137 0.0
C284 C 0.25602 0.14284 0.10396 0.0
C285 C 0.2244 0.12054 0.11636 0.0
C286 C 0.28744 0.12488 0.08934 0.0
C287 C 0.28711 0.08348 0.08634 0.0
C288 C 0.25475 0.06082 0.09778 0.0
C289 C 0.22398 0.07959 0.11302 0.0
C290 C 0.3214 0.15032 0.07798 0.0
C291 C 0.25273 0.01676 0.09421 0.0
C292 C 0.36247 0.04891 0.01845 0.0
C293 C 0.39196 0.04337 0.04521 0.0
C294 C 0.32695 0.0587 0.0315 0.0
C295 C 0.32121 0.06437 0.07227 0.0
C296 C 0.35021 0.0562 0.09939 0.0
C297 C 0.38514 0.0456 0.08551 0.0
C298 C 0.29663 0.06613 1.00154 0.0
C299 C 0.3457 0.06229 0.14304 0.0
H300 H 0.25668 0.17446 0.10688 0.0
H301 H 0.19946 0.0622 0.12228 0.0
H302 H 0.34638 0.14348 0.09591 0.0
H303 H 0.32776 0.1442 0.04675 0.0
H304 H 0.31722 0.18199 0.08215 0.0
H305 H 0.22474 0.00347 0.1021 0.0
H306 H 0.25866 0.00705 0.0637 0.0
H307 H 0.27452 0.00546 0.11373 0.0
H308 H 0.36798 0.04834 0.98729 0.0
H309 H 0.40828 0.04261 0.10625 0.0
H310 H 0.29429 0.09809 0.99964 0.0
H311 H 0.26891 0.0531 0.01041 0.0
H312 H 0.30287 0.05402 0.97191 0.0
H313 H 0.34541 0.09406 0.1504 0.0
H314 H 0.36892 0.05043 0.16028 0.0
H315 H 0.31854 0.04821 0.1522 0.0
C316 C 0.26869 0.87388 0.57923 0.0
C317 C 0.2967 0.90284 0.59165 0.0
C318 C 0.23311 0.8838 0.56585 0.0
C319 C 0.22514 0.92362 0.56529 0.0
C320 C 0.25384 0.95301 0.57606 0.0
C321 C 0.28925 0.94226 0.58902 0.0
C322 C 0.20338 0.8516 0.55452 0.0
C323 C 0.24657 0.99583 0.57593 0.0
C324 C 0.13562 0.9588 0.51848 0.0
C325 C 0.11411 0.96433 0.55182 0.0
C326 C 0.17145 0.94387 0.5219 0.0
C327 C 0.18566 0.93445 0.5594 0.0
C328 C 0.16281 0.93774 0.59251 0.0
C329 C 0.12742 0.95253 0.58826 0.0
C330 C 0.19489 0.9402 0.4859 0.0
C331 C 0.17653 0.92778 0.63299 0.0
H332 H 0.274 0.84329 0.58146 0.0
H333 H 0.31096 0.96481 0.5978 0.0
H334 H 0.18215 0.84949 0.57776 0.0
H335 H 0.18843 0.85815 0.52685 0.0
H336 H 0.21551 0.82275 0.5507 0.0
H337 H 0.27278 0.01501 0.58117 0.0
H338 H 0.23346 0.00296 0.54745 0.0
H339 H 0.22655 0.00259 0.59926 0.0
H340 H 0.12549 0.96822 0.49036 0.0
H341 H 0.11063 0.95654 0.61405 0.0
H342 H 0.20759 0.91155 0.48456 0.0
H343 H 0.21832 0.96327 0.48748 0.0
H344 H 0.17807 0.94329 0.45844 0.0
H345 H 0.18618 0.89771 0.63251 0.0
H346 H 0.15439 0.92986 0.65521 0.0
H347 H 0.20096 0.94807 0.64244 0.0
C348 C 0.72261 0.3883 0.92344 0.0
C349 C 0.72605 0.38392 0.88262 0.0
C350 C 0.75232 0.40594 0.94724 0.0
C351 C 0.78634 0.41894 0.92979 0.0
C352 C 0.78971 0.41487 0.88852 0.0
C353 C 0.75948 0.39764 0.86546 0.0
C354 C 0.74736 0.41053 0.99095 0.0
C355 C 0.82553 0.42831 0.86868 0.0
C356 C 0.8591 0.49609 0.96949 0.0
C357 C 0.88914 0.47339 0.97869 0.0
C358 C 0.8238 0.47858 0.95749 0.0
C359 C 0.8187 0.43735 0.9539 0.0
C360 C 0.84783 0.41432 0.96693 0.0
C361 C 0.88285 0.43271 0.97946 0.0
C362 C 0.79335 0.50432 0.9448 0.0
C363 C 0.84341 0.37027 0.9637 0.0
H364 H 0.69661 0.37801 0.93671 0.0
H365 H 0.76238 0.3939 0.83397 0.0
H366 H 0.76812 0.39368 0.00668 0.0
H367 H 0.75281 0.44165 1.00072 0.0
H368 H 0.71862 0.40028 0.9997 0.0
H369 H 0.82382 0.42237 0.8364 0.0
H370 H 0.83169 0.46017 0.87441 0.0
H371 H 0.84958 0.41332 0.88097 0.0
H372 H 0.86396 0.52764 0.96918 0.0
H373 H 0.90614 0.41514 0.98638 0.0
H374 H 0.76542 0.49284 0.95462 0.0
H375 H 0.79199 0.50469 0.91225 0.0
H376 H 0.79888 0.53489 0.95652 0.0
H377 H 0.81545 0.35935 0.97394 0.0
H378 H 0.86564 0.35676 0.98094 0.0
H379 H 0.84523 0.36049 0.93243 0.0
C380 C 0.76326 0.59801 0.39113 0.0
C381 C 0.79579 0.60196 0.41538 0.0
C382 C 0.72845 0.58478 0.40585 0.0
C383 C 0.726 0.57525 0.44583 0.0
C384 C 0.75879 0.57868 0.47037 0.0
C385 C 0.7933 0.592 0.45485 0.0
C386 C 0.69413 0.58135 0.37866 0.0
C387 C 0.75737 0.56845 0.51299 0.0
C388 C 0.62608 0.57534 0.4822 0.0
C389 C 0.61355 0.53622 0.47449 0.0
C390 C 0.66367 0.58821 0.47552 0.0
C391 C 0.68897 0.56112 0.46125 0.0
C392 C 0.67693 0.52101 0.45673 0.0
C393 C 0.63922 0.50915 0.46297 0.0
C394 C 0.67549 0.6312 0.48068 0.0
C395 C 0.70301 0.49102 0.4423 0.0
H396 H 0.76479 0.60617 0.36077 0.0
H397 H 0.81844 0.59454 0.47363 0.0
H398 H 0.6817 0.55077 0.37719 0.0
H399 H 0.67241 0.60009 0.39024 0.0
H400 H 0.70074 0.59005 0.3484 0.0
H401 H 0.78558 0.57181 0.52789 0.0
H402 H 0.73829 0.58754 0.52871 0.0
H403 H 0.74575 0.53785 0.51548 0.0
H404 H 0.60599 0.59625 0.49072 0.0
H405 H 0.62928 0.47885 0.45701 0.0
H406 H 0.67909 0.64382 0.45138 0.0
H407 H 0.70299 0.63564 0.4968 0.0
H408 H 0.65436 0.64753 0.49672 0.0
H409 H 0.70788 0.49467 0.41058 0.0
H410 H 0.69115 0.46066 0.44625 0.0
H411 H 0.73075 0.49515 0.45798 0.0
C412 C 0.12453 0.22527 0.07523 0.0
C413 C 0.13107 0.22539 0.11611 0.0
C414 C 0.10816 0.25665 0.05728 0.0
C415 C 0.0979 0.28909 0.08059 0.0
C416 C 0.10451 0.28942 0.12181 0.0
C417 C 0.12102 0.2578 0.13896 0.0
C418 C 0.10146 0.2549 0.01336 0.0
C419 C 0.0941 0.32329 0.14795 0.0
C420 C 0.08518 0.39024 0.04131 0.0
C421 C 0.04603 0.39212 0.04255 0.0
C422 C 0.10243 0.35603 0.05127 0.0
C423 C 0.07996 0.32273 0.06242 0.0
C424 C 0.0402 0.32359 0.06052 0.0
C425 C 0.02379 0.35843 0.05123 0.0
C426 C 0.14485 0.35678 0.05318 0.0
C427 C 0.01497 0.28877 0.07144 0.0
H428 H 0.1316 0.20026 0.05722 0.0
H429 H 0.12643 0.25873 0.17042 0.0
H430 H 0.07094 0.25591 0.00644 0.0
H431 H 0.11602 0.28074 1.00033 0.0
H432 H 0.11154 0.22799 0.99921 0.0
H433 H 0.1013 0.31931 0.17938 0.0
H434 H 0.10892 0.3508 0.13871 0.0
H435 H 0.06343 0.32681 0.14501 0.0
H436 H 0.10254 0.41663 0.03602 0.0
H437 H 0.99361 0.36013 0.05337 0.0
H438 H 0.1547 0.32994 0.03878 0.0
H439 H 0.15472 0.35754 0.08437 0.0
H440 H 0.15812 0.3827 0.039 0.0
H441 H 0.02422 0.26149 0.05735 0.0
H442 H 0.98509 0.29189 0.06272 0.0
H443 H 0.01674 0.28559 0.1037 0.0
C444 C 0.61116 0.26721 0.88746 0.0
C445 C 0.63551 0.26803 0.85599 0.0
C446 C 0.59543 0.23164 0.90049 0.0
C447 C 0.60493 0.19604 0.88196 0.0
C448 C 0.62948 0.19685 0.84995 0.0
C449 C 0.64428 0.23303 0.83704 0.0
C450 C 0.56897 0.2322 0.93444 0.0
C451 C 0.64071 0.15957 0.83003 0.0
C452 C 0.58656 0.11665 0.95336 0.0
C453 C 0.54857 0.10633 0.9443 0.0
C454 C 0.60733 0.14283 0.93021 0.0
C455 C 0.58947 0.1584 0.89726 0.0
C456 C 0.55303 0.14304 0.88476 0.0
C457 C 0.53288 0.11715 0.90867 0.0
C458 C 0.64624 0.15809 0.94441 0.0
C459 C 0.53315 0.1581 0.84943 0.0
H460 H 0.60445 0.29452 0.90184 0.0
H461 H 0.66338 0.234 0.81277 0.0
H462 H 0.54158 0.21656 0.92563 0.0
H463 H 0.5809 0.21677 0.9594 0.0
H464 H 0.56372 0.2624 0.94477 0.0
H465 H 0.658 0.16523 0.80391 0.0
H466 H 0.65717 0.14311 0.85106 0.0
H467 H 0.61533 0.14058 0.82082 0.0
H468 H 0.59844 0.10871 0.98135 0.0
H469 H 0.50326 0.10952 0.90206 0.0
H470 H 0.64443 0.18664 0.96045 0.0
H471 H 0.66514 0.16291 0.91943 0.0
H472 H 0.65899 0.13773 0.96467 0.0
H473 H 0.5214 0.18631 0.85772 0.0
H474 H 0.50956 0.13731 0.83853 0.0
H475 H 0.55289 0.16339 0.82524 0.0
C476 C 0.88643 0.73086 0.43682 0.0
C477 C 0.90694 0.69845 0.42799 0.0
C478 C 0.90435 0.76595 0.45217 0.0
C479 C 0.94379 0.76846 0.45978 0.0
C480 C 0.96394 0.73445 0.45474 0.0
C481 C 0.94549 0.70004 0.43777 0.0
C482 C 0.88138 0.8011 0.45729 0.0
C483 C 0.00525 0.7348 0.46571 0.0
C484 C 0.9879 0.86459 0.42874 0.0
C485 C 0.98241 0.88909 0.46163 0.0
C486 C 0.97751 0.82466 0.42853 0.0
C487 C 0.96423 0.80794 0.46332 0.0
C488 C 0.96465 0.83155 0.49859 0.0
C489 C 0.97281 0.87237 0.49717 0.0
C490 C 0.97634 0.80174 0.38964 0.0
C491 C 0.95393 0.81465 0.53722 0.0
H492 H 0.85654 0.72945 0.42951 0.0
H493 H 0.96123 0.67463 0.43176 0.0
H494 H 0.88382 0.81245 0.48818 0.0
H495 H 0.89225 0.82476 0.4384 0.0
H496 H 0.85107 0.79417 0.44973 0.0
H497 H 0.01299 0.70525 0.47375 0.0
H498 H 0.0223 0.74355 0.44034 0.0
H499 H 0.01281 0.75582 0.4907 0.0
H500 H 0.99617 0.87752 0.40141 0.0
H501 H 0.96889 0.89111 0.52286 0.0
H502 H 0.94722 0.78938 0.38258 0.0
H503 H 0.99467 0.77704 0.39123 0.0
H504 H 0.98574 0.81996 0.36498 0.0
H505 H 0.9251 0.82241 0.54445 0.0
H506 H 0.97319 0.82768 0.56108 0.0
H507 H 0.95491 0.78237 0.5368 0.0
C508 C 0.43449 0.81511 0.57446 0.0
C509 C 0.40052 0.81258 0.59422 0.0
C510 C 0.45048 0.78116 0.5603 0.0
C511 C 0.43251 0.74401 0.56724 0.0
C512 C 0.39769 0.74162 0.58661 0.0
C513 C 0.38193 0.77603 0.59947 0.0
C514 C 0.4871 0.785 0.53903 0.0
C515 C 0.37797 0.70271 0.59553 0.0
C516 C 0.4568 0.64618 0.52153 0.0
C517 C 0.47851 0.63205 0.55208 0.0
C518 C 0.44354 0.68394 0.52467 0.0
C519 C 0.45205 0.70764 0.55919 0.0
C520 C 0.47618 0.6944 0.58867 0.0
C521 C 0.48936 0.65706 0.58452 0.0
C522 C 0.41881 0.69769 0.49214 0.0
C523 C 0.48562 0.71828 0.62622 0.0
H524 H 0.44853 0.84363 0.57022 0.0
H525 H 0.35557 0.77441 0.61479 0.0
H526 H 0.51022 0.77559 0.55811 0.0
H527 H 0.48557 0.76575 0.51206 0.0
H528 H 0.49437 0.81558 0.53083 0.0
H529 H 0.35019 0.70597 0.60895 0.0
H530 H 0.37367 0.68402 0.56831 0.0
H531 H 0.3958 0.68715 0.61611 0.0
H532 H 0.44819 0.62697 0.4965 0.0
H533 H 0.50653 0.64648 0.60806 0.0
H534 H 0.4307 0.7262 0.48204 0.0
H535 H 0.39036 0.70233 0.5032 0.0
H536 H 0.41585 0.67641 0.4667 0.0
H537 H 0.49672 0.74822 0.61964 0.0
H538 H 0.50674 0.70486 0.64504 0.0
H539 H 0.45967 0.72105 0.6432 0.0
C540 C 0.85612 0.89288 0.76916 0.0
C541 C 0.8825 0.88707 0.79934 0.0
C542 C 0.8676 0.90475 0.73198 0.0
C543 C 0.90646 0.91147 0.72469 0.0
C544 C 0.93324 0.90424 0.75461 0.0
C545 C 0.92097 0.89198 0.79141 0.0
C546 C 0.83804 0.91152 0.70098 0.0
C547 C 0.97493 0.91141 0.74848 0.0
C548 C 0.94603 0.92871 0.62251 0.0
C549 C 0.95156 0.96963 0.62368 0.0
C550 C 0.92962 0.90912 0.65439 0.0
C551 C 0.91903 0.93098 0.68813 0.0
C552 C 0.92264 0.97228 0.68812 0.0
C553 C 0.93837 0.99089 0.65593 0.0
C554 C 0.92553 0.86506 0.65291 0.0
C555 C 0.91217 0.99705 0.72325 0.0
H556 H 0.82634 0.88849 0.77476 0.0
H557 H 0.94157 0.88779 0.81457 0.0
H558 H 0.83756 0.9433 0.69626 0.0
H559 H 0.84487 0.89711 0.6726 0.0
H560 H 0.80947 0.90035 0.70939 0.0
H561 H 0.99215 0.90134 0.77327 0.0
H562 H 0.98296 0.89621 0.72096 0.0
H563 H 0.9819 0.94316 0.7454 0.0
H564 H 0.9565 0.912 0.59799 0.0
H565 H 0.9424 0.02255 0.657 0.0
H566 H 0.8974 0.85453 0.66308 0.0
H567 H 0.9469 0.85378 0.67298 0.0
H568 H 0.92942 0.8526 0.62285 0.0
H569 H 0.88269 0.98929 0.73122 0.0
H570 H 0.91518 0.02883 0.71784 0.0
H571 H 0.93053 0.99132 0.7489 0.0
C572 C 0.57881 0.10446 0.31591 0.0
C573 C 0.61753 0.11013 0.32507 0.0
C574 C 0.56568 0.09128 0.27816 0.0
C575 C 0.59181 0.08296 0.24887 0.0
C576 C 0.6308 0.08641 0.25851 0.0
C577 C 0.64318 0.10031 0.29624 0.0
C578 C 0.52386 0.08844 0.26902 0.0
C579 C 0.65966 0.07766 0.22831 0.0
C580 C 0.55418 0.03474 0.15132 0.0
C581 C 0.55075 0.06758 0.12854 0.0
C582 C 0.56806 0.03897 0.19052 0.0
C583 C 0.57874 0.07683 0.20703 0.0
C584 C 0.57626 0.10979 0.18367 0.0
C585 C 0.5625 0.10474 0.14492 0.0
C586 C 0.57055 0.00313 0.21448 0.0
C587 C 0.58729 0.15072 0.19986 0.0
H588 H 0.55863 0.11111 0.33804 0.0
H589 H 0.67316 0.10504 0.30247 0.0
H590 H 0.51703 0.11168 0.24875 0.0
H591 H 0.51506 0.05993 0.25397 0.0
H592 H 0.50712 0.09179 0.29586 0.0
H593 H 0.68814 0.07578 0.24188 0.0
H594 H 0.65143 0.04975 0.21184 0.0
H595 H 0.66121 0.10116 0.2068 0.0
H596 H 0.54506 0.00597 0.13896 0.0
H597 H 0.56044 0.13035 0.12751 0.0
H598 H 0.55133 0.00465 0.23952 0.0
H599 H 0.59952 0.00198 0.22696 0.0
H600 H 0.56297 0.9757 0.19684 0.0
H601 H 0.56966 0.15771 0.22523 0.0
H602 H 0.584 0.17319 0.17762 0.0
H603 H 0.61704 0.15281 0.21062 0.0
C604 C 0.39596 0.63165 0.26062 0.0
C605 C 0.36583 0.65563 0.26086 0.0
C606 C 0.4071 0.61359 0.2948 0.0
C607 C 0.38755 0.61986 0.33001 0.0
C608 C 0.35704 0.64424 0.33025 0.0
C609 C 0.34646 0.6619 0.29548 0.0
C610 C 0.4397 0.58767 0.29311 0.0
C611 C 0.33564 0.65156 0.36712 0.0
C612 C 0.40417 0.53785 0.39716 0.0
C613 C 0.43725 0.55268 0.41703 0.0
C614 C 0.38483 0.561 0.37152 0.0
C615 C 0.39906 0.59988 0.36594 0.0
C616 C 0.42946 0.61646 0.39007 0.0
C617 C 0.44834 0.59248 0.4154 0.0
C618 C 0.35252 0.54205 0.34655 0.0
C619 C 0.44518 0.65794 0.38543 0.0
H620 H 0.41077 0.62705 0.23359 0.0
H621 H 0.32314 0.68063 0.29527 0.0
H622 H 0.46221 0.59881 0.31455 0.0
H623 H 0.43028 0.55764 0.30129 0.0
H624 H 0.4519 0.58605 0.26345 0.0
H625 H 0.31282 0.67155 0.36247 0.0
H626 H 0.32308 0.62349 0.3776 0.0
H627 H 0.35518 0.66443 0.39075 0.0
H628 H 0.39613 0.50681 0.39782 0.0
H629 H 0.47449 0.60367 0.43003 0.0
H630 H 0.36286 0.534 0.31707 0.0
H631 H 0.33002 0.56244 0.34243 0.0
H632 H 0.34021 0.51506 0.35966 0.0
H633 H 0.46154 0.65947 0.35817 0.0
H634 H 0.46413 0.66841 0.41059 0.0
H635 H 0.42215 0.67795 0.38268 0.0
C636 C 0.14027 0.40179 0.75266 0.0
C637 C 0.11356 0.40579 0.72243 0.0
C638 C 0.13252 0.41191 0.79187 0.0
C639 C 0.09766 0.42724 0.80075 0.0
C640 C 0.07097 0.43203 0.76999 0.0
C641 C 0.07907 0.42074 0.73132 0.0
C642 C 0.1612 0.40538 0.82385 0.0
C643 C 0.03379 0.44914 0.77784 0.0
C644 C 0.04721 0.42687 0.89695 0.0
C645 C 0.05252 0.46629 0.90915 0.0
C646 C 0.06542 0.4124 0.86389 0.0
C647 C 0.08846 0.43839 0.84196 0.0
C648 C 0.0971 0.47718 0.85676 0.0
C649 C 0.07948 0.49046 0.89069 0.0
C650 C 0.0565 0.37044 0.85 0.0
C651 C 0.12077 0.50624 0.83406 0.0
H652 H 0.16682 0.38982 0.74569 0.0
H653 H 0.05855 0.42393 0.70781 0.0
H654 H 0.16874 0.43305 0.84098 0.0
H655 H 0.14891 0.38414 0.84456 0.0
H656 H 0.18729 0.39406 0.81199 0.0
H657 H 0.01714 0.45287 0.75039 0.0
H658 H 0.01679 0.42981 0.79699 0.0
H659 H 0.03863 0.47804 0.79355 0.0
H660 H 0.02579 0.40838 0.91065 0.0
H661 H 0.08281 0.52127 0.89944 0.0
H662 H 0.08196 0.35745 0.83862 0.0
H663 H 0.03508 0.36924 0.82569 0.0
H664 H 0.04511 0.35238 0.87394 0.0
H665 H 0.14586 0.49297 0.8222 0.0
H666 H 0.13022 0.53267 0.85248 0.0
H667 H 0.10383 0.51554 0.80871 0.0
C668 C 0.76826 0.88863 0.93177 0.0
C669 C 0.79664 0.90951 0.91184 0.0
C670 C 0.7367 0.90689 0.94565 0.0
C671 C 0.73321 0.94719 0.93964 0.0
C672 C 0.76239 0.96877 0.92076 0.0
C673 C 0.79361 0.94971 0.907 0.0
C674 C 0.70636 0.88258 0.96555 0.0
C675 C 0.76024 0.01182 0.91428 0.0
C676 C 0.63143 0.97407 0.93537 0.0
C677 C 0.62562 0.98589 0.97442 0.0
C678 C 0.66689 0.96369 0.92308 0.0
C679 C 0.69764 0.96555 0.95044 0.0
C680 C 0.69266 0.98075 0.98913 0.0
C681 C 0.65652 0.99019 1.00088 0.0
C682 C 0.67051 0.94733 0.88172 0.0
C683 C 0.72478 0.98413 0.01901 0.0
H684 H 0.77003 0.85755 0.93536 0.0
H685 H 0.81565 0.96633 0.89226 0.0
H686 H 0.7008 0.89604 0.99475 0.0
H687 H 0.67976 0.88167 0.94777 0.0
H688 H 0.71405 0.85211 0.96957 0.0
H689 H 0.78672 0.02521 0.90254 0.0
H690 H 0.7368 0.01616 0.8932 0.0
H691 H 0.7542 0.02753 0.94223 0.0
H692 H 0.60734 0.96965 0.91517 0.0
H693 H 0.65194 0.99824 0.03137 0.0
H694 H 0.67466 0.91559 0.8825 0.0
H695 H 0.69544 0.96152 0.86784 0.0
H696 H 0.64514 0.95131 0.86304 0.0
H697 H 0.72996 0.95466 0.0294 0.0
H698 H 0.71855 0.00313 0.04482 0.0
H699 H 0.75106 0.99607 0.00574 0.0
C700 C 0.72403 0.08586 0.43542 0.0
C701 C 0.7159 0.12521 0.4344 0.0
C702 C 0.75928 0.07524 0.4489 0.0
C703 C 0.7871 0.10466 0.46202 0.0
C704 C 0.77841 0.14431 0.46308 0.0
C705 C 0.743 0.15415 0.44903 0.0
C706 C 0.76736 0.03259 0.4471 0.0
C707 C 0.80719 0.1765 0.47703 0.0
C708 C 0.87419 0.06553 0.50962 0.0
C709 C 0.89655 0.06131 0.47676 0.0
C710 C 0.8391 0.08201 0.50606 0.0
C711 C 0.82654 0.09416 0.46889 0.0
C712 C 0.8506 0.09263 0.4366 0.0
C713 C 0.88526 0.07633 0.441 0.0
C714 C 0.8145 0.08405 0.5413 0.0
C715 C 0.83864 0.1054 0.39649 0.0
H716 H 0.70297 0.06329 0.425 0.0
H717 H 0.73714 0.1847 0.44811 0.0
H718 H 0.78869 0.0276 0.42459 0.0
H719 H 0.77921 0.02411 0.4757 0.0
H720 H 0.74176 0.01316 0.43953 0.0
H721 H 0.79427 0.20475 0.48226 0.0
H722 H 0.82165 0.16862 0.50453 0.0
H723 H 0.82896 0.18063 0.45456 0.0
H724 H 0.88286 0.05368 0.53719 0.0
H725 H 0.90279 0.07324 0.41564 0.0
H726 H 0.79132 0.06075 0.53814 0.0
H727 H 0.8015 0.11252 0.54336 0.0
H728 H 0.83055 0.08 0.56906 0.0
H729 H 0.81486 0.08549 0.38457 0.0
H730 H 0.86187 0.10516 0.37534 0.0
H731 H 0.82864 0.1353 0.39854 0.0
C732 C 0.26631 0.67616 0.11335 0.0
C733 C 0.29011 0.65308 0.13462 0.0
C734 C 0.23519 0.65929 0.09132 0.0
C735 C 0.22677 0.61845 0.09153 0.0
C736 C 0.25221 0.59465 0.11024 0.0
C737 C 0.28372 0.61221 0.13134 0.0
C738 C 0.20952 0.68562 0.07067 0.0
C739 C 0.24449 0.55087 0.11075 0.0
C740 C 0.12468 0.58411 0.10147 0.0
C741 C 0.11549 0.5656 0.06481 0.0
C742 C 0.16043 0.60213 0.10982 0.0
C743 C 0.18796 0.60208 0.08063 0.0
C744 C 0.17835 0.58539 0.04266 0.0
C745 C 0.142 0.56716 0.03512 0.0
C746 C 0.16913 0.61976 0.15064 0.0
C747 C 0.20681 0.5851 0.01067 0.0
H748 H 0.27055 0.70774 0.11556 0.0
H749 H 0.30256 0.59388 0.14641 0.0
H750 H 0.1997 0.67243 0.04167 0.0
H751 H 0.18434 0.68947 0.08858 0.0
H752 H 0.22369 0.71493 0.06629 0.0
H753 H 0.26934 0.53607 0.1215 0.0
H754 H 0.2207 0.54393 0.13032 0.0
H755 H 0.23614 0.53875 0.08094 0.0
H756 H 0.10403 0.58333 0.12434 0.0
H757 H 0.13501 0.55261 0.00683 0.0
H758 H 0.1791 0.65098 0.14903 0.0
H759 H 0.19201 0.60443 0.16482 0.0
H760 H 0.14428 0.61782 0.1697 0.0
H761 H 0.22455 0.613 0.01113 0.0
H762 H 0.19299 0.58004 0.98116 0.0
H763 H 0.2257 0.56122 0.01547 0.0
C764 C 0.21363 0.38629 0.5789 0.0
C765 C 0.19475 0.41163 0.60371 0.0
C766 C 0.24817 0.39814 0.56267 0.0
C767 C 0.26506 0.43587 0.57235 0.0
C768 C 0.24547 0.46228 0.59583 0.0
C769 C 0.21048 0.44996 0.61102 0.0
C770 C 0.26768 0.36926 0.53721 0.0
C771 C 0.26254 0.5028 0.60691 0.0
C772 C 0.37083 0.44754 0.58697 0.0
C773 C 0.38211 0.46915 0.55467 0.0
C774 C 0.33305 0.43551 0.59208 0.0
C775 C 0.30554 0.44518 0.56413 0.0
C776 C 0.31688 0.46505 0.53014 0.0
C777 C 0.35525 0.47686 0.52573 0.0
C778 C 0.32245 0.41406 0.62857 0.0
C779 C 0.28839 0.47544 0.49948 0.0
H780 H 0.20235 0.35641 0.57338 0.0
H781 H 0.19587 0.47015 0.62936 0.0
H782 H 0.28002 0.3837 0.51146 0.0
H783 H 0.29105 0.35768 0.55437 0.0
H784 H 0.24816 0.34423 0.5266 0.0
H785 H 0.2422 0.52122 0.62168 0.0
H786 H 0.28719 0.50065 0.62711 0.0
H787 H 0.2728 0.51763 0.58047 0.0
H788 H 0.39163 0.44116 0.60919 0.0
H789 H 0.36388 0.49377 0.50086 0.0
H790 H 0.30619 0.38608 0.62043 0.0
H791 H 0.30419 0.43193 0.64681 0.0
H792 H 0.34746 0.40761 0.64671 0.0
H793 H 0.26777 0.45029 0.4924 0.0
H794 H 0.30198 0.48467 0.47202 0.0
H795 H 0.27248 0.49985 0.51112 0.0
C796 C 0.93023 0.79977 0.91606 0.0
C797 C 0.89214 0.80702 0.92043 0.0
C798 C 0.94572 0.76735 0.93282 0.0
C799 C 0.92292 0.74156 0.95525 0.0
C800 C 0.88524 0.7502 0.96208 0.0
C801 C 0.87023 0.78239 0.94433 0.0
C802 C 0.98595 0.7594 0.92444 0.0
C803 C 0.85999 0.7241 0.98631 0.0
C804 C 0.94375 0.63481 0.94445 0.0
C805 C 0.9665 0.62916 0.97782 0.0
C806 C 0.92901 0.67076 0.93752 0.0
C807 C 0.93621 0.70236 0.96507 0.0
C808 C 0.95709 0.69637 1.00026 0.0
C809 C 0.97226 0.65977 0.0062 0.0
C810 C 0.90711 0.67526 0.89955 0.0
C811 C 0.96455 0.72898 0.03088 0.0
H812 H 0.94794 0.81902 0.89873 0.0
H813 H 0.84074 0.78714 0.94794 0.0
H814 H 1.00141 0.75346 0.95198 0.0
H815 H 0.98634 0.73296 0.90469 0.0
H816 H 1.00113 0.78421 0.91019 0.0
H817 H 0.83417 0.73836 0.99491 0.0
H818 H 0.85134 0.69675 0.96907 0.0
H819 H 0.87519 0.71588 0.01326 0.0
H820 H 0.93848 0.6111 0.92262 0.0
H821 H 0.98973 0.65572 0.03203 0.0
H822 H 0.92186 0.69788 0.88199 0.0
H823 H 0.87879 0.68513 0.90578 0.0
H824 H 0.9036 0.64759 0.88143 0.0
H825 H 0.9861 0.75066 0.02024 0.0
H826 H 0.97498 0.71807 0.05914 0.0
H827 H 0.93863 0.7444 0.03613 0.0
C828 C 0.37017 0.80005 0.1845 0.0
C829 C 0.38336 0.76499 0.1699 0.0
C830 C 0.38505 0.83617 0.17153 0.0
C831 C 0.41366 0.83686 0.14344 0.0
C832 C 0.42785 0.80129 0.12977 0.0
C833 C 0.41236 0.76574 0.14309 0.0
C834 C 0.36907 0.8733 0.18658 0.0
C835 C 0.45843 0.80061 0.09987 0.0
C836 C 0.43096 0.91007 0.06574 0.0
C837 C 0.46755 0.92458 0.07666 0.0
C838 C 0.41064 0.8844 0.08971 0.0
C839 C 0.42727 0.87397 0.12566 0.0
C840 C 0.46152 0.8938 0.13949 0.0
C841 C 0.48159 0.91868 0.11446 0.0
C842 C 0.37423 0.86403 0.07372 0.0
C843 C 0.4795 0.88478 0.1783 0.0
H844 H 0.3474 0.79909 0.20505 0.0
H845 H 0.42225 0.73836 0.1319 0.0
H846 H 0.39191 0.89629 0.19373 0.0
H847 H 0.35067 0.88447 0.16342 0.0
H848 H 0.35209 0.86849 0.21308 0.0
H849 H 0.46713 0.7706 0.09336 0.0
H850 H 0.4484 0.81275 0.07207 0.0
H851 H 0.48354 0.81921 0.11067 0.0
H852 H 0.42045 0.91425 0.03613 0.0
H853 H 0.51015 0.92956 0.12262 0.0
H854 H 0.35334 0.86057 0.09712 0.0
H855 H 0.37973 0.83434 0.06213 0.0
H856 H 0.3618 0.88018 0.04948 0.0
H857 H 0.45795 0.88016 0.20093 0.0
H858 H 0.50037 0.90867 0.18883 0.0
H859 H 0.49433 0.8575 0.17477 0.0
C860 C 0.07834 0.28318 0.62457 0.0
C861 C 0.08122 0.31807 0.60455 0.0
C862 C 0.06332 0.24833 0.60584 0.0
C863 C 0.05 0.24847 0.56625 0.0
C864 C 0.05068 0.28417 0.54667 0.0
C865 C 0.06689 0.31851 0.56587 0.0
C866 C 0.06363 0.21093 0.6279 0.0
C867 C 0.03594 0.2861 0.505 0.0
C868 C 0.0609 0.1476 0.52454 0.0
C869 C 0.02774 0.12866 0.53755 0.0
C870 C 0.06683 0.18844 0.52846 0.0
C871 C 0.03864 0.21037 0.54538 0.0
C872 C 0.00264 0.19183 0.55144 0.0
C873 C 0.99764 0.15087 0.54766 0.0
C874 C 0.10533 0.20709 0.52046 0.0
C875 C 0.97115 0.21441 0.5674 0.0
H876 H 0.08982 0.28269 0.65432 0.0
H877 H 0.06901 0.34558 0.55039 0.0
H878 H 0.03474 0.19679 0.62871 0.0
H879 H 0.0814 0.19013 0.61258 0.0
H880 H 0.07467 0.21597 0.65858 0.0
H881 H 0.02669 0.31566 0.49912 0.0
H882 H 0.05875 0.28004 0.48454 0.0
H883 H 0.01201 0.26419 0.49848 0.0
H884 H 0.08425 0.13032 0.5169 0.0
H885 H 0.97199 0.13618 0.5579 0.0
H886 H 0.12125 0.21309 0.54872 0.0
H887 H 0.10304 0.23535 0.50617 0.0
H888 H 0.12164 0.18781 0.50144 0.0
H889 H 0.97513 0.21875 0.59971 0.0
H890 H 0.9433 0.19842 0.56127 0.0
H891 H 0.97116 0.24367 0.55457 0.0
C892 C 0.62684 0.24826 0.43566 0.0
C893 C 0.6081 0.21104 0.43403 0.0
C894 C 0.60855 0.28111 0.44863 0.0
C895 C 0.57092 0.27633 0.46124 0.0
C896 C 0.55282 0.23829 0.462 0.0
C897 C 0.57141 0.2061 0.44762 0.0
C898 C 0.62864 0.32112 0.44624 0.0
C899 C 0.5133 0.23176 0.47651 0.0
C900 C 0.53441 0.36985 0.50551 0.0
C901 C 0.51622 0.38414 0.47258 0.0
C902 C 0.55032 0.33329 0.50329 0.0
C903 C 0.54888 0.31137 0.46707 0.0
C904 C 0.52873 0.32476 0.43458 0.0
C905 C 0.51199 0.36032 0.43806 0.0
C906 C 0.57026 0.31914 0.53904 0.0
C907 C 0.52719 0.30307 0.39504 0.0
H908 H 0.65528 0.25185 0.42505 0.0
H909 H 0.5572 0.17709 0.44668 0.0
H910 H 0.61419 0.33794 0.42387 0.0
H911 H 0.62771 0.33764 0.47473 0.0
H912 H 0.65855 0.31957 0.43816 0.0
H913 H 0.50599 0.20047 0.482 0.0
H914 H 0.50992 0.24938 0.50402 0.0
H915 H 0.49293 0.2413 0.4543 0.0
H916 H 0.53787 0.38792 0.53228 0.0
H917 H 0.4975 0.37066 0.41251 0.0
H918 H 0.60112 0.32421 0.53608 0.0
H919 H 0.56386 0.28727 0.54193 0.0
H920 H 0.56219 0.3348 0.5663 0.0
H921 H 0.55612 0.30148 0.38398 0.0
H922 H 0.51001 0.31736 0.37281 0.0
H923 H 0.51519 0.27267 0.39777 0.0
loop_
_geom_bond_atom_site_label_1
_geom_bond_atom_site_label_2
_geom_bond_distance
_geom_bond_site_symmetry_2
_ccdc_geom_bond_type
H0 C3 0.931 . S
H1 C6 0.928 . S
H2 C8 0.930 . S
C3 H0 0.931 . S
C3 C4 1.413 . S
C3 C5 1.360 . S
C4 C3 1.413 . S
C4 C8 1.429 . S
C5 C3 1.360 . S
C5 C6 1.372 . S
C6 H1 0.928 . S
C6 C5 1.372 . S
C6 C7 1.404 . S
C7 C6 1.404 . S
C7 C8 1.391 . S
C8 H2 0.930 . S
C8 C4 1.429 . S
C8 C7 1.391 . S
H9 C12 0.931 . S
H10 C15 0.928 . S
H11 C17 0.930 . S
C12 H9 0.931 . S
C12 C13 1.413 . S
C12 C14 1.360 . S
C13 C12 1.413 . S
C13 C17 1.429 . S
C14 C12 1.360 . S
C14 C15 1.372 . S
C15 H10 0.928 . S
C15 C14 1.372 . S
C15 C16 1.404 . S
C16 C15 1.404 . S
C16 C17 1.391 . S
C17 H11 0.930 . S
C17 C13 1.429 . S
C17 C16 1.391 . S
H18 C21 0.931 . S
H19 C24 0.928 . S
H20 C26 0.930 . S
C21 H18 0.931 . S
C21 C22 1.413 . S
C21 C23 1.360 . S
C22 C21 1.413 . S
C22 C26 1.429 . S
C23 C21 1.360 . S
C23 C24 1.372 . S
C24 H19 0.928 . S
C24 C23 1.372 . S
C24 C25 1.404 . S
C25 C24 1.404 . S
C25 C26 1.391 . S
C26 H20 0.930 . S
C26 C22 1.429 . S
C26 C25 1.391 . S
H27 C30 0.931 . S
H28 C33 0.928 . S
H29 C35 0.930 . S
C30 H27 0.931 . S
C30 C31 1.413 . S
C30 C32 1.360 . S
C31 C30 1.413 . S
C31 C35 1.429 . S
C32 C30 1.360 . S
C32 C33 1.372 . S
C33 H28 0.928 . S
C33 C32 1.372 . S
C33 C34 1.404 . S
C34 C33 1.404 . S
C34 C35 1.391 . S
C35 H29 0.930 . S
C35 C31 1.429 . S
C35 C34 1.391 . S
H36 C39 0.931 . S
H37 C42 0.928 . S
H38 C44 0.930 . S
C39 H36 0.931 . S
C39 C40 1.413 . S
C39 C41 1.360 . S
C40 C39 1.413 . S
C40 C44 1.429 . S
C41 C39 1.360 . S
C41 C42 1.372 . S
C42 H37 0.928 . S
C42 C41 1.372 . S
C42 C43 1.404 . S
C43 C42 1.404 . S
C43 C44 1.391 . S
C44 H38 0.930 . S
C44 C40 1.429 . S
C44 C43 1.391 . S
H45 C48 0.931 . S
H46 C51 0.928 . S
H47 C53 0.930 . S
C48 H45 0.931 . S
C48 C49 1.413 . S
C48 C50 1.360 . S
C49 C48 1.413 . S
C49 C53 1.429 . S
C50 C48 1.360 . S
C50 C51 1.372 . S
C51 H46 0.928 . S
C51 C50 1.372 . S
C51 C52 1.404 . S
C52 C51 1.404 . S
C52 C53 1.391 . S
C53 H47 0.930 . S
C53 C49 1.429 . S
C53 C52 1.391 . S
H54 C57 0.931 . S
H55 C60 0.928 . S
H56 C62 0.930 . S
C57 H54 0.931 . S
C57 C58 1.413 . S
C57 C59 1.360 . S
C58 C57 1.413 . S
C58 C62 1.429 . S
C59 C57 1.360 . S
C59 C60 1.372 . S
C60 H55 0.928 . S
C60 C59 1.372 . S
C60 C61 1.404 . S
C61 C60 1.404 . S
C61 C62 1.391 . S
C62 H56 0.930 . S
C62 C58 1.429 . S
C62 C61 1.391 . S
H63 C66 0.931 . S
H64 C69 0.928 . S
H65 C71 0.930 . S
C66 H63 0.931 . S
C66 C67 1.413 . S
C66 C68 1.360 . S
C67 C66 1.413 . S
C67 C71 1.429 . S
C68 C66 1.360 . S
C68 C69 1.372 . S
C69 H64 0.928 . S
C69 C68 1.372 . S
C69 C70 1.404 . S
C70 C69 1.404 . S
C70 C71 1.391 . S
C71 H65 0.930 . S
C71 C67 1.429 . S
C71 C70 1.391 . S
O72 Mn73 2.163 1_655 S
O72 C86 1.244 . S
Mn73 O72 2.163 1_455 S
Mn73 O76 2.160 1_545 S
Mn73 O77 2.221 . S
Mn73 O79 2.163 1_445 S
Mn73 O81 2.160 . S
Mn73 O91 2.221 1_445 S
O74 Mn75 2.087 1_545 S
O74 C86 1.256 . S
Mn75 O74 2.087 1_565 S
Mn75 O82 2.089 1_565 S
Mn75 O91 2.290 . S
Mn75 O92 2.251 . S
O76 Mn73 2.160 1_565 S
O76 C87 1.239 . S
O77 Mn73 2.221 . S
O77 Mn78 2.290 . S
O77 C88 1.278 . S
Mn78 O77 2.290 . S
Mn78 O80 2.089 1_545 S
Mn78 O83 2.251 . S
Mn78 O84 2.087 . S
O79 Mn73 2.163 1_665 S
O79 C89 1.244 . S
O80 Mn78 2.089 1_565 S
O80 C87 1.256 . S
O81 Mn73 2.160 . S
O81 C90 1.239 . S
O82 Mn75 2.089 1_545 S
O82 C90 1.256 1_655 S
O83 Mn78 2.251 . S
O83 C88 1.241 . S
O84 Mn78 2.087 . S
O84 C89 1.256 1_445 S
C85 O91 1.278 . S
C85 O92 1.241 . S
C86 O72 1.244 . S
C86 O74 1.256 . S
C87 O76 1.239 . S
C87 O80 1.256 . S
C88 O77 1.278 . S
C88 O83 1.241 . S
C89 O79 1.244 . S
C89 O84 1.256 1_665 S
C90 O81 1.239 . S
C90 O82 1.256 1_455 S
O91 Mn73 2.221 1_665 S
O91 Mn75 2.290 . S
O91 C85 1.278 . S
O92 Mn75 2.251 . S
O92 C85 1.241 . S
O93 Mn94 2.163 1_556 S
O93 C107 1.244 1_545 S
Mn94 O93 2.163 1_554 S
Mn94 O97 2.160 . S
Mn94 O98 2.221 1_554 S
Mn94 O100 2.163 . S
Mn94 O102 2.166 1_554 S
Mn94 O112 2.221 1_545 S
O95 Mn96 2.087 . S
O95 C107 1.256 . S
Mn96 O95 2.087 . S
Mn96 O103 2.089 . S
Mn96 O112 2.290 1_556 S
Mn96 O113 2.251 1_556 S
O97 Mn94 2.160 . S
O97 C108 1.239 . S
O98 Mn94 2.221 1_556 S
O98 Mn99 2.290 1_556 S
O98 C109 1.278 . S
Mn99 O98 2.290 1_554 S
Mn99 O101 2.089 . S
Mn99 O104 2.251 1_554 S
Mn99 O105 2.087 . S
O100 Mn94 2.163 . S
O100 C110 1.244 . S
O101 Mn99 2.089 . S
O101 C108 1.256 . S
O102 Mn94 2.166 1_556 S
O102 C111 1.224 1_545 S
O103 Mn96 2.089 . S
O103 C111 1.256 . S
O104 Mn99 2.251 1_556 S
O104 C109 1.241 . S
O105 Mn99 2.087 . S
O105 C110 1.256 . S
C106 O112 1.278 . S
C106 O113 1.241 . S
C107 O93 1.244 1_565 S
C107 O95 1.256 . S
C108 O97 1.239 . S
C108 O101 1.256 . S
C109 O98 1.278 . S
C109 O104 1.241 . S
C110 O100 1.244 . S
C110 O105 1.256 . S
C111 O102 1.224 1_565 S
C111 O103 1.256 . S
O112 Mn94 2.221 1_565 S
O112 Mn96 2.290 1_554 S
O112 C106 1.278 . S
O113 Mn96 2.251 1_554 S
O113 C106 1.241 . S
O114 Mn115 2.163 . S
O114 C128 1.244 . S
Mn115 O114 2.163 . S
Mn115 O118 2.160 . S
Mn115 O119 2.221 . S
Mn115 O121 2.163 . S
Mn115 O123 2.160 . S
Mn115 O133 2.221 . S
O116 Mn117 2.087 . S
O116 C128 1.256 . S
Mn117 O116 2.087 . S
Mn117 O124 2.089 . S
Mn117 O133 2.290 . S
Mn117 O134 2.251 . S
O118 Mn115 2.160 . S
O118 C129 1.239 . S
O119 Mn115 2.221 . S
O119 Mn120 2.290 . S
O119 C130 1.278 . S
Mn120 O119 2.290 . S
Mn120 O122 2.089 . S
Mn120 O125 2.251 . S
Mn120 O126 2.087 . S
O121 Mn115 2.163 . S
O121 C131 1.244 . S
O122 Mn120 2.089 . S
O122 C129 1.256 . S
O123 Mn115 2.160 . S
O123 C132 1.239 . S
O124 Mn117 2.089 . S
O124 C132 1.256 . S
O125 Mn120 2.251 . S
O125 C130 1.241 . S
O126 Mn120 2.087 . S
O126 C131 1.256 . S
C127 O133 1.278 . S
C127 O134 1.241 . S
C128 O114 1.244 . S
C128 O116 1.256 . S
C129 O118 1.239 . S
C129 O122 1.256 . S
C130 O119 1.278 . S
C130 O125 1.241 . S
C131 O121 1.244 . S
C131 O126 1.256 . S
C132 O123 1.239 . S
C132 O124 1.256 . S
O133 Mn115 2.221 . S
O133 Mn117 2.290 . S
O133 C127 1.278 . S
O134 Mn117 2.251 . S
O134 C127 1.241 . S
O135 Mn136 2.163 1_655 S
O135 C149 1.244 1_554 S
Mn136 O135 2.163 1_455 S
Mn136 O139 2.160 . S
Mn136 O140 2.221 1_455 S
Mn136 O142 2.163 . S
Mn136 O144 2.160 1_454 S
Mn136 O154 2.221 1_554 S
O137 Mn138 2.087 . S
O137 C149 1.256 . S
Mn138 O137 2.087 . S
Mn138 O145 2.089 . S
Mn138 O154 2.290 1_655 S
Mn138 O155 2.251 . S
O139 Mn136 2.160 . S
O139 C150 1.239 . S
O140 Mn136 2.221 1_655 S
O140 Mn141 2.290 1_655 S
O140 C151 1.278 . S
Mn141 O140 2.290 1_455 S
Mn141 O143 2.089 . S
Mn141 O146 2.251 1_455 S
Mn141 O147 2.087 . S
O142 Mn136 2.163 . S
O142 C152 1.244 . S
O143 Mn141 2.089 . S
O143 C150 1.256 . S
O144 Mn136 2.160 1_656 S
O144 C153 1.239 . S
O145 Mn138 2.089 . S
O145 C153 1.256 . S
O146 Mn141 2.251 1_655 S
O146 C151 1.241 . S
O147 Mn141 2.087 . S
O147 C152 1.256 . S
C148 O154 1.278 . S
C148 O155 1.241 1_455 S
C149 O135 1.244 1_556 S
C149 O137 1.256 . S
C150 O139 1.239 . S
C150 O143 1.256 . S
C151 O140 1.278 . S
C151 O146 1.241 . S
C152 O142 1.244 . S
C152 O147 1.256 . S
C153 O144 1.239 . S
C153 O145 1.256 . S
O154 Mn136 2.221 1_556 S
O154 Mn138 2.290 1_455 S
O154 C148 1.278 . S
O155 Mn138 2.251 . S
O155 C148 1.241 1_655 S
C156 C157 1.391 . S
C156 C158 1.394 . S
C156 H172 0.931 . S
C157 C156 1.391 . S
C157 C161 1.376 . S
C158 C156 1.394 . S
C158 C159 1.369 . S
C158 C162 1.531 . S
C159 C158 1.369 . S
C159 C160 1.410 . S
C159 C167 1.503 . S
C160 C159 1.410 . S
C160 C161 1.392 . S
C160 C163 1.511 . S
C161 C157 1.376 . S
C161 C160 1.392 . S
C161 H173 0.929 . S
C162 C158 1.531 . S
C162 H174 0.960 . S
C162 H175 0.962 . S
C162 H176 0.971 . S
C163 C160 1.511 . S
C163 H177 0.961 . S
C163 H178 0.961 . S
C163 H179 0.961 . S
C164 C165 1.370 . S
C164 C166 1.363 . S
C164 H180 0.931 1_455 S
C165 C164 1.370 . S
C165 C169 1.408 . S
C166 C164 1.363 . S
C166 C167 1.370 . S
C166 C170 1.524 . S
C167 C159 1.503 . S
C167 C166 1.370 . S
C167 C168 1.403 . S
C168 C167 1.403 . S
C168 C169 1.404 . S
C168 C171 1.539 . S
C169 C165 1.408 . S
C169 C168 1.404 . S
C169 H181 0.930 . S
C170 C166 1.524 . S
C170 H182 0.956 . S
C170 H183 0.961 . S
C170 H184 0.961 1_455 S
C171 C168 1.539 . S
C171 H185 0.958 . S
C171 H186 0.961 . S
C171 H187 0.960 . S
H172 C156 0.931 . S
H173 C161 0.929 . S
H174 C162 0.960 . S
H175 C162 0.962 . S
H176 C162 0.971 . S
H177 C163 0.961 . S
H178 C163 0.961 . S
H179 C163 0.961 . S
H180 C164 0.931 1_655 S
H181 C169 0.930 . S
H182 C170 0.956 . S
H183 C170 0.961 . S
H184 C170 0.961 1_655 S
H185 C171 0.958 . S
H186 C171 0.961 . S
H187 C171 0.960 . S
C188 C189 1.391 . S
C188 C190 1.394 . S
C188 H204 0.931 . S
C189 C188 1.391 . S
C189 C193 1.376 . S
C190 C188 1.394 . S
C190 C191 1.369 . S
C190 C194 1.531 . S
C191 C190 1.369 . S
C191 C192 1.410 . S
C191 C199 1.503 . S
C192 C191 1.410 . S
C192 C193 1.392 . S
C192 C195 1.511 . S
C193 C189 1.376 . S
C193 C192 1.392 . S
C193 H205 0.929 . S
C194 C190 1.531 . S
C194 H206 0.960 . S
C194 H207 0.962 1_565 S
C194 H208 0.960 . S
C195 C192 1.511 . S
C195 H209 0.961 . S
C195 H210 0.961 . S
C195 H211 0.961 . S
C196 C197 1.370 . S
C196 C198 1.363 . S
C196 H212 0.931 1_565 S
C197 C196 1.370 . S
C197 C201 1.408 . S
C198 C196 1.363 . S
C198 C199 1.370 . S
C198 C202 1.524 1_565 S
C199 C191 1.503 . S
C199 C198 1.370 . S
C199 C200 1.403 . S
C200 C199 1.403 . S
C200 C201 1.404 . S
C200 C203 1.539 . S
C201 C197 1.408 . S
C201 C200 1.404 . S
C201 H213 0.930 . S
C202 C198 1.524 1_545 S
C202 H214 0.956 . S
C202 H215 0.961 1_545 S
C202 H216 0.961 . S
C203 C200 1.539 . S
C203 H217 0.958 . S
C203 H218 0.961 . S
C203 H219 0.960 . S
H204 C188 0.931 . S
H205 C193 0.929 . S
H206 C194 0.960 . S
H207 C194 0.962 1_545 S
H208 C194 0.960 . S
H209 C195 0.961 . S
H210 C195 0.961 . S
H211 C195 0.961 . S
H212 C196 0.931 1_545 S
H213 C201 0.930 . S
H214 C202 0.956 . S
H215 C202 0.961 1_565 S
H216 C202 0.961 . S
H217 C203 0.958 . S
H218 C203 0.961 . S
H219 C203 0.960 . S
C220 C221 1.391 . S
C220 C222 1.394 . S
C220 H236 0.931 . S
C221 C220 1.391 . S
C221 C225 1.376 . S
C222 C220 1.394 . S
C222 C223 1.369 . S
C222 C226 1.531 . S
C223 C222 1.369 . S
C223 C224 1.410 . S
C223 C231 1.503 . S
C224 C223 1.410 . S
C224 C225 1.392 . S
C224 C227 1.511 . S
C225 C221 1.376 . S
C225 C224 1.392 . S
C225 H237 0.929 . S
C226 C222 1.531 . S
C226 H238 0.960 . S
C226 H239 0.962 . S
C226 H240 0.960 . S
C227 C224 1.511 . S
C227 H241 0.961 . S
C227 H242 0.961 . S
C227 H243 0.961 . S
C228 C229 1.370 . S
C228 C230 1.363 . S
C228 H244 0.931 . S
C229 C228 1.370 . S
C229 C233 1.408 . S
C230 C228 1.363 . S
C230 C231 1.370 . S
C230 C234 1.524 . S
C231 C223 1.503 . S
C231 C230 1.370 . S
C231 C232 1.403 . S
C232 C231 1.403 . S
C232 C233 1.404 . S
C232 C235 1.539 . S
C233 C229 1.408 . S
C233 C232 1.404 . S
C233 H245 0.930 . S
C234 C230 1.524 . S
C234 H246 0.956 . S
C234 H247 0.961 . S
C234 H248 0.961 . S
C235 C232 1.539 . S
C235 H249 0.958 . S
C235 H250 0.961 . S
C235 H251 0.960 . S
H236 C220 0.931 . S
H237 C225 0.929 . S
H238 C226 0.960 . S
H239 C226 0.962 . S
H240 C226 0.960 . S
H241 C227 0.961 . S
H242 C227 0.961 . S
H243 C227 0.961 . S
H244 C228 0.931 . S
H245 C233 0.930 . S
H246 C234 0.956 . S
H247 C234 0.961 . S
H248 C234 0.961 . S
H249 C235 0.958 . S
H250 C235 0.961 . S
H251 C235 0.960 . S
C252 C253 1.391 . S
C252 C254 1.394 . S
C252 H268 0.931 . S
C253 C252 1.391 . S
C253 C257 1.376 . S
C254 C252 1.394 . S
C254 C255 1.369 . S
C254 C258 1.531 . S
C255 C254 1.369 . S
C255 C256 1.410 . S
C255 C263 1.503 . S
C256 C255 1.410 . S
C256 C257 1.392 . S
C256 C259 1.511 . S
C257 C253 1.376 . S
C257 C256 1.392 . S
C257 H269 0.929 . S
C258 C254 1.531 . S
C258 H270 0.960 . S
C258 H271 0.962 . S
C258 H272 0.960 . S
C259 C256 1.511 . S
C259 H273 0.961 . S
C259 H274 0.961 . S
C259 H275 0.961 . S
C260 C261 1.370 . S
C260 C262 1.363 . S
C260 H276 0.931 . S
C261 C260 1.370 . S
C261 C265 1.408 . S
C262 C260 1.363 . S
C262 C263 1.370 . S
C262 C266 1.524 . S
C263 C255 1.503 . S
C263 C262 1.370 . S
C263 C264 1.403 . S
C264 C263 1.403 . S
C264 C265 1.404 . S
C264 C267 1.539 . S
C265 C261 1.408 . S
C265 C264 1.404 . S
C265 H277 0.930 . S
C266 C262 1.524 . S
C266 H278 0.956 . S
C266 H279 0.961 . S
C266 H280 0.961 . S
C267 C264 1.539 . S
C267 H281 0.958 . S
C267 H282 0.961 . S
C267 H283 0.960 . S
H268 C252 0.931 . S
H269 C257 0.929 . S
H270 C258 0.960 . S
H271 C258 0.962 . S
H272 C258 0.960 . S
H273 C259 0.961 . S
H274 C259 0.961 . S
H275 C259 0.961 . S
H276 C260 0.931 . S
H277 C265 0.930 . S
H278 C266 0.956 . S
H279 C266 0.961 . S
H280 C266 0.961 . S
H281 C267 0.958 . S
H282 C267 0.961 . S
H283 C267 0.960 . S
C284 C285 1.391 . S
C284 C286 1.394 . S
C284 H300 0.931 . S
C285 C284 1.391 . S
C285 C289 1.376 . S
C286 C284 1.394 . S
C286 C287 1.369 . S
C286 C290 1.531 . S
C287 C286 1.369 . S
C287 C288 1.410 . S
C287 C295 1.503 . S
C288 C287 1.410 . S
C288 C289 1.392 . S
C288 C291 1.511 . S
C289 C285 1.376 . S
C289 C288 1.392 . S
C289 H301 0.929 . S
C290 C286 1.531 . S
C290 H302 0.960 . S
C290 H303 0.962 . S
C290 H304 0.960 . S
C291 C288 1.511 . S
C291 H305 0.961 . S
C291 H306 0.961 . S
C291 H307 0.961 . S
C292 C293 1.370 . S
C292 C294 1.363 . S
C292 H308 0.958 . S
C293 C292 1.370 . S
C293 C297 1.408 . S
C294 C292 1.363 . S
C294 C295 1.370 . S
C294 C298 1.524 . S
C295 C287 1.503 . S
C295 C294 1.370 . S
C295 C296 1.403 . S
C296 C295 1.403 . S
C296 C297 1.404 . S
C296 C299 1.539 . S
C297 C293 1.408 . S
C297 C296 1.404 . S
C297 H309 0.930 . S
C298 C294 1.524 . S
C298 H310 0.956 . S
C298 H311 0.961 . S
C298 H312 0.961 1_554 S
C299 C296 1.539 . S
C299 H313 0.958 . S
C299 H314 0.961 . S
C299 H315 0.960 . S
H300 C284 0.931 . S
H301 C289 0.929 . S
H302 C290 0.960 . S
H303 C290 0.962 . S
H304 C290 0.960 . S
H305 C291 0.961 . S
H306 C291 0.961 . S
H307 C291 0.961 . S
H308 C292 0.958 . S
H309 C297 0.930 . S
H310 C298 0.956 . S
H311 C298 0.961 . S
H312 C298 0.961 1_556 S
H313 C299 0.958 . S
H314 C299 0.961 . S
H315 C299 0.960 . S
C316 C317 1.391 . S
C316 C318 1.394 . S
C316 H332 0.931 . S
C317 C316 1.391 . S
C317 C321 1.376 . S
C318 C316 1.394 . S
C318 C319 1.369 . S
C318 C322 1.531 . S
C319 C318 1.369 . S
C319 C320 1.410 . S
C319 C327 1.503 . S
C320 C319 1.410 . S
C320 C321 1.392 . S
C320 C323 1.528 . S
C321 C317 1.376 . S
C321 C320 1.392 . S
C321 H333 0.929 . S
C322 C318 1.531 . S
C322 H334 0.960 . S
C322 H335 0.962 . S
C322 H336 0.960 . S
C323 C320 1.528 . S
C323 H337 0.954 1_565 S
C323 H338 0.959 1_565 S
C323 H339 0.954 1_565 S
C324 C325 1.370 . S
C324 C326 1.363 . S
C324 H340 0.931 . S
C325 C324 1.370 . S
C325 C329 1.408 . S
C326 C324 1.363 . S
C326 C327 1.370 . S
C326 C330 1.524 . S
C327 C319 1.503 . S
C327 C326 1.370 . S
C327 C328 1.403 . S
C328 C327 1.403 . S
C328 C329 1.404 . S
C328 C331 1.539 . S
C329 C325 1.408 . S
C329 C328 1.404 . S
C329 H341 0.930 . S
C330 C326 1.524 . S
C330 H342 0.956 . S
C330 H343 0.961 . S
C330 H344 0.961 . S
C331 C328 1.539 . S
C331 H345 0.958 . S
C331 H346 0.961 . S
C331 H347 0.960 . S
H332 C316 0.931 . S
H333 C321 0.929 . S
H334 C322 0.960 . S
H335 C322 0.962 . S
H336 C322 0.960 . S
H337 C323 0.954 1_545 S
H338 C323 0.959 1_545 S
H339 C323 0.954 1_545 S
H340 C324 0.931 . S
H341 C329 0.930 . S
H342 C330 0.956 . S
H343 C330 0.961 . S
H344 C330 0.961 . S
H345 C331 0.958 . S
H346 C331 0.961 . S
H347 C331 0.960 . S
C348 C349 1.391 . S
C348 C350 1.394 . S
C348 H364 0.931 . S
C349 C348 1.391 . S
C349 C353 1.376 . S
C350 C348 1.394 . S
C350 C351 1.369 . S
C350 C354 1.531 . S
C351 C350 1.369 . S
C351 C352 1.410 . S
C351 C359 1.503 . S
C352 C351 1.410 . S
C352 C353 1.392 . S
C352 C355 1.511 . S
C353 C349 1.376 . S
C353 C352 1.392 . S
C353 H365 0.929 . S
C354 C350 1.531 . S
C354 H366 0.960 1_556 S
C354 H367 0.962 . S
C354 H368 0.960 1_556 S
C355 C352 1.511 . S
C355 H369 0.961 . S
C355 H370 0.961 . S
C355 H371 0.961 . S
C356 C357 1.370 . S
C356 C358 1.363 . S
C356 H372 0.931 . S
C357 C356 1.370 . S
C357 C361 1.408 . S
C358 C356 1.363 . S
C358 C359 1.370 . S
C358 C362 1.524 . S
C359 C351 1.503 . S
C359 C358 1.370 . S
C359 C360 1.403 . S
C360 C359 1.403 . S
C360 C361 1.404 . S
C360 C363 1.539 . S
C361 C357 1.408 . S
C361 C360 1.404 . S
C361 H373 0.930 1_556 S
C362 C358 1.524 . S
C362 H374 0.956 . S
C362 H375 0.961 . S
C362 H376 0.961 . S
C363 C360 1.539 . S
C363 H377 0.958 1_556 S
C363 H378 0.961 . S
C363 H379 0.960 . S
H364 C348 0.931 . S
H365 C353 0.929 . S
H366 C354 0.960 1_554 S
H367 C354 0.962 . S
H368 C354 0.960 1_554 S
H369 C355 0.961 . S
H370 C355 0.961 . S
H371 C355 0.961 . S
H372 C356 0.931 . S
H373 C361 0.930 1_554 S
H374 C362 0.956 . S
H375 C362 0.961 . S
H376 C362 0.961 . S
H377 C363 0.958 1_554 S
H378 C363 0.961 . S
H379 C363 0.960 . S
C380 C381 1.391 . S
C380 C382 1.394 . S
C380 H396 0.931 . S
C381 C380 1.391 . S
C381 C385 1.376 . S
C382 C380 1.394 . S
C382 C383 1.369 . S
C382 C386 1.531 . S
C383 C382 1.369 . S
C383 C384 1.410 . S
C383 C391 1.503 . S
C384 C383 1.410 . S
C384 C385 1.392 . S
C384 C387 1.511 . S
C385 C381 1.376 . S
C385 C384 1.392 . S
C385 H397 0.929 . S
C386 C382 1.531 . S
C386 H398 0.960 . S
C386 H399 0.962 . S
C386 H400 0.960 . S
C387 C384 1.511 . S
C387 H401 0.961 . S
C387 H402 0.961 . S
C387 H403 0.961 . S
C388 C389 1.370 . S
C388 C390 1.363 . S
C388 H404 0.931 . S
C389 C388 1.370 . S
C389 C393 1.408 . S
C390 C388 1.363 . S
C390 C391 1.370 . S
C390 C394 1.524 . S
C391 C383 1.503 . S
C391 C390 1.370 . S
C391 C392 1.403 . S
C392 C391 1.403 . S
C392 C393 1.404 . S
C392 C395 1.539 . S
C393 C389 1.408 . S
C393 C392 1.404 . S
C393 H405 0.930 . S
C394 C390 1.524 . S
C394 H406 0.956 . S
C394 H407 0.961 . S
C394 H408 0.961 . S
C395 C392 1.539 . S
C395 H409 0.958 . S
C395 H410 0.961 . S
C395 H411 0.960 . S
H396 C380 0.931 . S
H397 C385 0.929 . S
H398 C386 0.960 . S
H399 C386 0.962 . S
H400 C386 0.960 . S
H401 C387 0.961 . S
H402 C387 0.961 . S
H403 C387 0.961 . S
H404 C388 0.931 . S
H405 C393 0.930 . S
H406 C394 0.956 . S
H407 C394 0.961 . S
H408 C394 0.961 . S
H409 C395 0.958 . S
H410 C395 0.961 . S
H411 C395 0.960 . S
C412 C413 1.391 . S
C412 C414 1.394 . S
C412 H428 0.931 . S
C413 C412 1.391 . S
C413 C417 1.376 . S
C414 C412 1.394 . S
C414 C415 1.369 . S
C414 C418 1.531 . S
C415 C414 1.369 . S
C415 C416 1.410 . S
C415 C423 1.503 . S
C416 C415 1.410 . S
C416 C417 1.392 . S
C416 C419 1.511 . S
C417 C413 1.376 . S
C417 C416 1.392 . S
C417 H429 0.929 . S
C418 C414 1.531 . S
C418 H430 0.960 . S
C418 H431 0.962 . S
C418 H432 0.972 . S
C419 C416 1.511 . S
C419 H433 0.961 . S
C419 H434 0.961 . S
C419 H435 0.961 . S
C420 C421 1.370 . S
C420 C422 1.363 . S
C420 H436 0.931 . S
C421 C420 1.370 . S
C421 C425 1.408 . S
C422 C420 1.363 . S
C422 C423 1.370 . S
C422 C426 1.524 . S
C423 C415 1.503 . S
C423 C422 1.370 . S
C423 C424 1.403 . S
C424 C423 1.403 . S
C424 C425 1.404 . S
C424 C427 1.539 . S
C425 C421 1.408 . S
C425 C424 1.404 . S
C425 H437 0.930 . S
C426 C422 1.524 . S
C426 H438 0.956 . S
C426 H439 0.961 . S
C426 H440 0.961 . S
C427 C424 1.539 . S
C427 H441 0.958 1_554 S
C427 H442 0.961 1_455 S
C427 H443 0.960 . S
H428 C412 0.931 . S
H429 C417 0.929 . S
H430 C418 0.960 . S
H431 C418 0.962 . S
H432 C418 0.972 . S
H433 C419 0.961 . S
H434 C419 0.961 . S
H435 C419 0.961 . S
H436 C420 0.931 . S
H437 C425 0.930 . S
H438 C426 0.956 . S
H439 C426 0.961 . S
H440 C426 0.961 . S
H441 C427 0.958 1_556 S
H442 C427 0.961 1_655 S
H443 C427 0.960 . S
C444 C445 1.391 . S
C444 C446 1.394 . S
C444 H460 0.931 . S
C445 C444 1.391 . S
C445 C449 1.376 . S
C446 C444 1.394 . S
C446 C447 1.369 . S
C446 C450 1.531 . S
C447 C446 1.369 . S
C447 C448 1.410 . S
C447 C455 1.503 . S
C448 C447 1.410 . S
C448 C449 1.392 . S
C448 C451 1.511 . S
C449 C445 1.376 . S
C449 C448 1.392 . S
C449 H461 0.929 . S
C450 C446 1.531 . S
C450 H462 0.960 . S
C450 H463 0.962 . S
C450 H464 0.960 . S
C451 C448 1.511 . S
C451 H465 0.961 . S
C451 H466 0.961 . S
C451 H467 0.961 . S
C452 C453 1.370 . S
C452 C454 1.363 . S
C452 H468 0.915 1_556 S
C453 C452 1.370 . S
C453 C457 1.408 . S
C454 C452 1.363 . S
C454 C455 1.370 . S
C454 C458 1.524 . S
C455 C447 1.503 . S
C455 C454 1.370 . S
C455 C456 1.403 . S
C456 C455 1.403 . S
C456 C457 1.404 . S
C456 C459 1.539 . S
C457 C453 1.408 . S
C457 C456 1.404 . S
C457 H469 0.930 . S
C458 C454 1.524 . S
C458 H470 0.956 . S
C458 H471 0.961 . S
C458 H472 0.961 1_556 S
C459 C456 1.539 . S
C459 H473 0.958 . S
C459 H474 0.961 . S
C459 H475 0.960 . S
H460 C444 0.931 . S
H461 C449 0.929 . S
H462 C450 0.960 . S
H463 C450 0.962 . S
H464 C450 0.960 . S
H465 C451 0.961 . S
H466 C451 0.961 . S
H467 C451 0.961 . S
H468 C452 0.915 1_554 S
H469 C457 0.930 . S
H470 C458 0.956 . S
H471 C458 0.961 . S
H472 C458 0.961 1_554 S
H473 C459 0.958 . S
H474 C459 0.961 . S
H475 C459 0.960 . S
C476 C477 1.391 . S
C476 C478 1.394 . S
C476 H492 0.931 . S
C477 C476 1.391 . S
C477 C481 1.376 . S
C478 C476 1.394 . S
C478 C479 1.369 . S
C478 C482 1.531 . S
C479 C478 1.369 . S
C479 C480 1.410 . S
C479 C487 1.503 . S
C480 C479 1.410 . S
C480 C481 1.392 . S
C480 C483 1.511 . S
C481 C477 1.376 . S
C481 C480 1.392 . S
C481 H493 0.929 . S
C482 C478 1.531 . S
C482 H494 0.960 . S
C482 H495 0.962 . S
C482 H496 0.960 . S
C483 C480 1.511 . S
C483 H497 0.961 1_655 S
C483 H498 0.961 . S
C483 H499 0.961 1_655 S
C484 C485 1.370 . S
C484 C486 1.363 . S
C484 H500 0.931 . S
C485 C484 1.370 . S
C485 C489 1.408 . S
C486 C484 1.363 . S
C486 C487 1.370 . S
C486 C490 1.524 . S
C487 C479 1.503 . S
C487 C486 1.370 . S
C487 C488 1.403 . S
C488 C487 1.403 . S
C488 C489 1.404 . S
C488 C491 1.539 . S
C489 C485 1.408 . S
C489 C488 1.404 . S
C489 H501 0.930 . S
C490 C486 1.524 . S
C490 H502 0.956 . S
C490 H503 0.961 . S
C490 H504 0.961 . S
C491 C488 1.539 . S
C491 H505 0.958 . S
C491 H506 0.961 . S
C491 H507 0.960 . S
H492 C476 0.931 . S
H493 C481 0.929 . S
H494 C482 0.960 . S
H495 C482 0.962 . S
H496 C482 0.960 . S
H497 C483 0.961 1_455 S
H498 C483 0.961 . S
H499 C483 0.961 1_455 S
H500 C484 0.931 . S
H501 C489 0.930 . S
H502 C490 0.956 . S
H503 C490 0.961 . S
H504 C490 0.961 . S
H505 C491 0.958 . S
H506 C491 0.961 . S
H507 C491 0.960 . S
C508 C509 1.391 . S
C508 C510 1.394 . S
C508 H524 0.931 . S
C509 C508 1.391 . S
C509 C513 1.376 . S
C510 C508 1.394 . S
C510 C511 1.369 . S
C510 C514 1.531 . S
C511 C510 1.369 . S
C511 C512 1.410 . S
C511 C519 1.503 . S
C512 C511 1.410 . S
C512 C513 1.392 . S
C512 C515 1.511 . S
C513 C509 1.376 . S
C513 C512 1.392 . S
C513 H525 0.929 . S
C514 C510 1.531 . S
C514 H526 0.960 . S
C514 H527 0.962 . S
C514 H528 0.960 . S
C515 C512 1.511 . S
C515 H529 0.961 . S
C515 H530 0.961 . S
C515 H531 0.961 . S
C516 C517 1.370 . S
C516 C518 1.363 . S
C516 H532 0.931 . S
C517 C516 1.370 . S
C517 C521 1.408 . S
C518 C516 1.363 . S
C518 C519 1.370 . S
C518 C522 1.524 . S
C519 C511 1.503 . S
C519 C518 1.370 . S
C519 C520 1.403 . S
C520 C519 1.403 . S
C520 C521 1.404 . S
C520 C523 1.539 . S
C521 C517 1.408 . S
C521 C520 1.404 . S
C521 H533 0.930 . S
C522 C518 1.524 . S
C522 H534 0.956 . S
C522 H535 0.961 . S
C522 H536 0.961 . S
C523 C520 1.539 . S
C523 H537 0.958 . S
C523 H538 0.961 . S
C523 H539 0.960 . S
H524 C508 0.931 . S
H525 C513 0.929 . S
H526 C514 0.960 . S
H527 C514 0.962 . S
H528 C514 0.960 . S
H529 C515 0.961 . S
H530 C515 0.961 . S
H531 C515 0.961 . S
H532 C516 0.931 . S
H533 C521 0.930 . S
H534 C522 0.956 . S
H535 C522 0.961 . S
H536 C522 0.961 . S
H537 C523 0.958 . S
H538 C523 0.961 . S
H539 C523 0.960 . S
C540 C541 1.391 . S
C540 C542 1.394 . S
C540 H556 0.931 . S
C541 C540 1.391 . S
C541 C545 1.376 . S
C542 C540 1.394 . S
C542 C543 1.369 . S
C542 C546 1.531 . S
C543 C542 1.369 . S
C543 C544 1.410 . S
C543 C551 1.503 . S
C544 C543 1.410 . S
C544 C545 1.392 . S
C544 C547 1.511 . S
C545 C541 1.376 . S
C545 C544 1.392 . S
C545 H557 0.929 . S
C546 C542 1.531 . S
C546 H558 0.960 . S
C546 H559 0.962 . S
C546 H560 0.960 . S
C547 C544 1.511 . S
C547 H561 0.961 1_655 S
C547 H562 0.962 . S
C547 H563 0.961 1_655 S
C548 C549 1.370 . S
C548 C550 1.363 . S
C548 H564 0.931 . S
C549 C548 1.370 . S
C549 C553 1.408 . S
C550 C548 1.363 . S
C550 C551 1.370 . S
C550 C554 1.524 . S
C551 C543 1.503 . S
C551 C550 1.370 . S
C551 C552 1.403 . S
C552 C551 1.403 . S
C552 C553 1.404 . S
C552 C555 1.539 1_565 S
C553 C549 1.408 . S
C553 C552 1.404 . S
C553 H565 0.930 1_565 S
C554 C550 1.524 . S
C554 H566 0.956 . S
C554 H567 0.961 . S
C554 H568 0.961 . S
C555 C552 1.539 1_545 S
C555 H569 0.958 . S
C555 H570 0.961 . S
C555 H571 0.960 . S
H556 C540 0.931 . S
H557 C545 0.929 . S
H558 C546 0.960 . S
H559 C546 0.962 . S
H560 C546 0.960 . S
H561 C547 0.961 1_455 S
H562 C547 0.962 . S
H563 C547 0.961 1_455 S
H564 C548 0.931 . S
H565 C553 0.930 1_545 S
H566 C554 0.956 . S
H567 C554 0.961 . S
H568 C554 0.961 . S
H569 C555 0.958 . S
H570 C555 0.961 . S
H571 C555 0.960 . S
C572 C573 1.391 . S
C572 C574 1.394 . S
C572 H588 0.931 . S
C573 C572 1.391 . S
C573 C577 1.376 . S
C574 C572 1.394 . S
C574 C575 1.369 . S
C574 C578 1.531 . S
C575 C574 1.369 . S
C575 C576 1.410 . S
C575 C583 1.503 . S
C576 C575 1.410 . S
C576 C577 1.392 . S
C576 C579 1.511 . S
C577 C573 1.376 . S
C577 C576 1.392 . S
C577 H589 0.929 . S
C578 C574 1.531 . S
C578 H590 0.960 . S
C578 H591 0.962 . S
C578 H592 0.960 . S
C579 C576 1.511 . S
C579 H593 0.961 . S
C579 H594 0.961 . S
C579 H595 0.961 . S
C580 C581 1.370 . S
C580 C582 1.363 . S
C580 H596 0.931 . S
C581 C580 1.370 . S
C581 C585 1.408 . S
C582 C580 1.363 . S
C582 C583 1.370 . S
C582 C586 1.524 . S
C583 C575 1.503 . S
C583 C582 1.370 . S
C583 C584 1.403 . S
C584 C583 1.403 . S
C584 C585 1.404 . S
C584 C587 1.539 . S
C585 C581 1.408 . S
C585 C584 1.404 . S
C585 H597 0.930 . S
C586 C582 1.524 . S
C586 H598 0.956 . S
C586 H599 0.961 . S
C586 H600 0.961 1_545 S
C587 C584 1.539 . S
C587 H601 0.958 . S
C587 H602 0.961 . S
C587 H603 0.960 . S
H588 C572 0.931 . S
H589 C577 0.929 . S
H590 C578 0.960 . S
H591 C578 0.962 . S
H592 C578 0.960 . S
H593 C579 0.961 . S
H594 C579 0.961 . S
H595 C579 0.961 . S
H596 C580 0.931 . S
H597 C585 0.930 . S
H598 C586 0.956 . S
H599 C586 0.961 . S
H600 C586 0.961 1_565 S
H601 C587 0.958 . S
H602 C587 0.961 . S
H603 C587 0.960 . S
C604 C605 1.391 . S
C604 C606 1.394 . S
C604 H620 0.931 . S
C605 C604 1.391 . S
C605 C609 1.376 . S
C606 C604 1.394 . S
C606 C607 1.369 . S
C606 C610 1.531 . S
C607 C606 1.369 . S
C607 C608 1.410 . S
C607 C615 1.503 . S
C608 C607 1.410 . S
C608 C609 1.392 . S
C608 C611 1.511 . S
C609 C605 1.376 . S
C609 C608 1.392 . S
C609 H621 0.929 . S
C610 C606 1.531 . S
C610 H622 0.960 . S
C610 H623 0.962 . S
C610 H624 0.960 . S
C611 C608 1.511 . S
C611 H625 0.961 . S
C611 H626 0.961 . S
C611 H627 0.961 . S
C612 C613 1.370 . S
C612 C614 1.363 . S
C612 H628 0.931 . S
C613 C612 1.370 . S
C613 C617 1.408 . S
C614 C612 1.363 . S
C614 C615 1.370 . S
C614 C618 1.524 . S
C615 C607 1.503 . S
C615 C614 1.370 . S
C615 C616 1.403 . S
C616 C615 1.403 . S
C616 C617 1.404 . S
C616 C619 1.539 . S
C617 C613 1.408 . S
C617 C616 1.404 . S
C617 H629 0.930 . S
C618 C614 1.524 . S
C618 H630 0.956 . S
C618 H631 0.961 . S
C618 H632 0.961 . S
C619 C616 1.539 . S
C619 H633 0.958 . S
C619 H634 0.961 . S
C619 H635 0.960 . S
H620 C604 0.931 . S
H621 C609 0.929 . S
H622 C610 0.960 . S
H623 C610 0.962 . S
H624 C610 0.960 . S
H625 C611 0.961 . S
H626 C611 0.961 . S
H627 C611 0.961 . S
H628 C612 0.931 . S
H629 C617 0.930 . S
H630 C618 0.956 . S
H631 C618 0.961 . S
H632 C618 0.961 . S
H633 C619 0.958 . S
H634 C619 0.961 . S
H635 C619 0.960 . S
C636 C637 1.391 . S
C636 C638 1.394 . S
C636 H652 0.931 . S
C637 C636 1.391 . S
C637 C641 1.376 . S
C638 C636 1.394 . S
C638 C639 1.369 . S
C638 C642 1.531 . S
C639 C638 1.369 . S
C639 C640 1.410 . S
C639 C647 1.503 . S
C640 C639 1.410 . S
C640 C641 1.392 . S
C640 C643 1.511 . S
C641 C637 1.376 . S
C641 C640 1.392 . S
C641 H653 0.929 . S
C642 C638 1.531 . S
C642 H654 0.960 . S
C642 H655 0.962 . S
C642 H656 0.960 . S
C643 C640 1.511 . S
C643 H657 0.961 1_455 S
C643 H658 0.961 1_455 S
C643 H659 0.961 . S
C644 C645 1.370 . S
C644 C646 1.363 . S
C644 H660 0.931 . S
C645 C644 1.370 . S
C645 C649 1.408 . S
C646 C644 1.363 . S
C646 C647 1.370 . S
C646 C650 1.524 . S
C647 C639 1.503 . S
C647 C646 1.370 . S
C647 C648 1.403 . S
C648 C647 1.403 . S
C648 C649 1.404 . S
C648 C651 1.539 . S
C649 C645 1.408 . S
C649 C648 1.404 . S
C649 H661 0.930 . S
C650 C646 1.524 . S
C650 H662 0.956 . S
C650 H663 0.961 . S
C650 H664 0.961 . S
C651 C648 1.539 . S
C651 H665 0.958 . S
C651 H666 0.961 . S
C651 H667 0.960 . S
H652 C636 0.931 . S
H653 C641 0.929 . S
H654 C642 0.960 . S
H655 C642 0.962 . S
H656 C642 0.960 . S
H657 C643 0.961 1_655 S
H658 C643 0.961 1_655 S
H659 C643 0.961 . S
H660 C644 0.931 . S
H661 C649 0.930 . S
H662 C650 0.956 . S
H663 C650 0.961 . S
H664 C650 0.961 . S
H665 C651 0.958 . S
H666 C651 0.961 . S
H667 C651 0.960 . S
C668 C669 1.391 . S
C668 C670 1.394 . S
C668 H684 0.931 . S
C669 C668 1.391 . S
C669 C673 1.376 . S
C670 C668 1.394 . S
C670 C671 1.369 . S
C670 C674 1.531 . S
C671 C670 1.369 . S
C671 C672 1.410 . S
C671 C679 1.503 . S
C672 C671 1.410 . S
C672 C673 1.392 . S
C672 C675 1.511 . S
C673 C669 1.376 . S
C673 C672 1.392 . S
C673 H685 0.929 . S
C674 C670 1.531 . S
C674 H686 0.960 1_556 S
C674 H687 0.962 . S
C674 H688 0.960 1_556 S
C675 C672 1.511 . S
C675 H689 0.961 . S
C675 H690 0.961 . S
C675 H691 0.961 1_565 S
C676 C677 1.370 . S
C676 C678 1.363 . S
C676 H692 0.931 . S
C677 C676 1.370 . S
C677 C681 1.408 . S
C678 C676 1.363 . S
C678 C679 1.370 . S
C678 C682 1.524 . S
C679 C671 1.503 . S
C679 C678 1.370 . S
C679 C680 1.403 . S
C680 C679 1.403 . S
C680 C681 1.404 . S
C680 C683 1.539 1_565 S
C681 C677 1.408 . S
C681 C680 1.404 . S
C681 H693 0.930 1_565 S
C682 C678 1.524 . S
C682 H694 0.956 . S
C682 H695 0.961 . S
C682 H696 0.961 . S
C683 C680 1.539 1_545 S
C683 H697 0.958 1_556 S
C683 H698 0.961 . S
C683 H699 0.960 . S
H684 C668 0.931 . S
H685 C673 0.929 . S
H686 C674 0.960 1_554 S
H687 C674 0.962 . S
H688 C674 0.960 1_554 S
H689 C675 0.961 . S
H690 C675 0.961 . S
H691 C675 0.961 1_545 S
H692 C676 0.931 . S
H693 C681 0.930 1_545 S
H694 C682 0.956 . S
H695 C682 0.961 . S
H696 C682 0.961 . S
H697 C683 0.958 1_554 S
H698 C683 0.961 . S
H699 C683 0.960 . S
C700 C701 1.391 . S
C700 C702 1.394 . S
C700 H716 0.931 . S
C701 C700 1.391 . S
C701 C705 1.376 . S
C702 C700 1.394 . S
C702 C703 1.369 . S
C702 C706 1.531 . S
C703 C702 1.369 . S
C703 C704 1.410 . S
C703 C711 1.503 . S
C704 C703 1.410 . S
C704 C705 1.392 . S
C704 C707 1.511 . S
C705 C701 1.376 . S
C705 C704 1.392 . S
C705 H717 0.929 . S
C706 C702 1.531 . S
C706 H718 0.960 . S
C706 H719 0.962 . S
C706 H720 0.960 . S
C707 C704 1.511 . S
C707 H721 0.961 . S
C707 H722 0.961 . S
C707 H723 0.961 . S
C708 C709 1.370 . S
C708 C710 1.363 . S
C708 H724 0.931 . S
C709 C708 1.370 . S
C709 C713 1.408 . S
C710 C708 1.363 . S
C710 C711 1.370 . S
C710 C714 1.524 . S
C711 C703 1.503 . S
C711 C710 1.370 . S
C711 C712 1.403 . S
C712 C711 1.403 . S
C712 C713 1.404 . S
C712 C715 1.539 . S
C713 C709 1.408 . S
C713 C712 1.404 . S
C713 H725 0.930 . S
C714 C710 1.524 . S
C714 H726 0.956 . S
C714 H727 0.961 . S
C714 H728 0.961 . S
C715 C712 1.539 . S
C715 H729 0.958 . S
C715 H730 0.961 . S
C715 H731 0.960 . S
H716 C700 0.931 . S
H717 C705 0.929 . S
H718 C706 0.960 . S
H719 C706 0.962 . S
H720 C706 0.960 . S
H721 C707 0.961 . S
H722 C707 0.961 . S
H723 C707 0.961 . S
H724 C708 0.931 . S
H725 C713 0.930 . S
H726 C714 0.956 . S
H727 C714 0.961 . S
H728 C714 0.961 . S
H729 C715 0.958 . S
H730 C715 0.961 . S
H731 C715 0.960 . S
C732 C733 1.391 . S
C732 C734 1.394 . S
C732 H748 0.931 . S
C733 C732 1.391 . S
C733 C737 1.376 . S
C734 C732 1.394 . S
C734 C735 1.369 . S
C734 C738 1.531 . S
C735 C734 1.369 . S
C735 C736 1.410 . S
C735 C743 1.503 . S
C736 C735 1.410 . S
C736 C737 1.392 . S
C736 C739 1.511 . S
C737 C733 1.376 . S
C737 C736 1.392 . S
C737 H749 0.929 . S
C738 C734 1.531 . S
C738 H750 0.960 . S
C738 H751 0.962 . S
C738 H752 0.960 . S
C739 C736 1.511 . S
C739 H753 0.961 . S
C739 H754 0.961 . S
C739 H755 0.961 . S
C740 C741 1.370 . S
C740 C742 1.363 . S
C740 H756 0.931 . S
C741 C740 1.370 . S
C741 C745 1.408 . S
C742 C740 1.363 . S
C742 C743 1.370 . S
C742 C746 1.524 . S
C743 C735 1.503 . S
C743 C742 1.370 . S
C743 C744 1.403 . S
C744 C743 1.403 . S
C744 C745 1.404 . S
C744 C747 1.539 . S
C745 C741 1.408 . S
C745 C744 1.404 . S
C745 H757 0.930 1_554 S
C746 C742 1.524 . S
C746 H758 0.956 . S
C746 H759 0.961 . S
C746 H760 0.961 . S
C747 C744 1.539 . S
C747 H761 0.958 1_554 S
C747 H762 0.961 1_554 S
C747 H763 0.960 . S
H748 C732 0.931 . S
H749 C737 0.929 . S
H750 C738 0.960 . S
H751 C738 0.962 . S
H752 C738 0.960 . S
H753 C739 0.961 . S
H754 C739 0.961 . S
H755 C739 0.961 . S
H756 C740 0.931 . S
H757 C745 0.930 1_556 S
H758 C746 0.956 . S
H759 C746 0.961 . S
H760 C746 0.961 . S
H761 C747 0.958 1_556 S
H762 C747 0.961 1_556 S
H763 C747 0.960 . S
C764 C765 1.391 . S
C764 C766 1.394 . S
C764 H780 0.931 . S
C765 C764 1.391 . S
C765 C769 1.376 . S
C766 C764 1.394 . S
C766 C767 1.369 . S
C766 C770 1.531 . S
C767 C766 1.369 . S
C767 C768 1.410 . S
C767 C775 1.503 . S
C768 C767 1.410 . S
C768 C769 1.392 . S
C768 C771 1.511 . S
C769 C765 1.376 . S
C769 C768 1.392 . S
C769 H781 0.929 . S
C770 C766 1.531 . S
C770 H782 0.960 . S
C770 H783 0.962 . S
C770 H784 0.960 . S
C771 C768 1.511 . S
C771 H785 0.961 . S
C771 H786 0.961 . S
C771 H787 0.961 . S
C772 C773 1.370 . S
C772 C774 1.363 . S
C772 H788 0.931 . S
C773 C772 1.370 . S
C773 C777 1.408 . S
C774 C772 1.363 . S
C774 C775 1.370 . S
C774 C778 1.524 . S
C775 C767 1.503 . S
C775 C774 1.370 . S
C775 C776 1.403 . S
C776 C775 1.403 . S
C776 C777 1.404 . S
C776 C779 1.539 . S
C777 C773 1.408 . S
C777 C776 1.404 . S
C777 H789 0.930 . S
C778 C774 1.524 . S
C778 H790 0.956 . S
C778 H791 0.961 . S
C778 H792 0.961 . S
C779 C776 1.539 . S
C779 H793 0.958 . S
C779 H794 0.961 . S
C779 H795 0.960 . S
H780 C764 0.931 . S
H781 C769 0.929 . S
H782 C770 0.960 . S
H783 C770 0.962 . S
H784 C770 0.960 . S
H785 C771 0.961 . S
H786 C771 0.961 . S
H787 C771 0.961 . S
H788 C772 0.931 . S
H789 C777 0.930 . S
H790 C778 0.956 . S
H791 C778 0.961 . S
H792 C778 0.961 . S
H793 C779 0.958 . S
H794 C779 0.961 . S
H795 C779 0.960 . S
C796 C797 1.391 . S
C796 C798 1.394 . S
C796 H812 0.931 . S
C797 C796 1.391 . S
C797 C801 1.376 . S
C798 C796 1.394 . S
C798 C799 1.369 . S
C798 C802 1.531 . S
C799 C798 1.369 . S
C799 C800 1.410 . S
C799 C807 1.503 . S
C800 C799 1.410 . S
C800 C801 1.392 . S
C800 C803 1.511 . S
C801 C797 1.376 . S
C801 C800 1.392 . S
C801 H813 0.929 . S
C802 C798 1.531 . S
C802 H814 0.950 1_655 S
C802 H815 0.962 . S
C802 H816 0.960 1_655 S
C803 C800 1.511 . S
C803 H817 0.961 . S
C803 H818 0.961 . S
C803 H819 0.961 1_556 S
C804 C805 1.370 . S
C804 C806 1.363 . S
C804 H820 0.931 . S
C805 C804 1.370 . S
C805 C809 1.399 1_556 S
C806 C804 1.363 . S
C806 C807 1.370 . S
C806 C810 1.524 . S
C807 C799 1.503 . S
C807 C806 1.370 . S
C807 C808 1.403 . S
C808 C807 1.403 . S
C808 C809 1.400 1_556 S
C808 C811 1.539 1_556 S
C809 C805 1.399 1_554 S
C809 C808 1.400 1_554 S
C809 H821 0.943 . S
C810 C806 1.524 . S
C810 H822 0.956 . S
C810 H823 0.961 . S
C810 H824 0.961 . S
C811 C808 1.539 1_554 S
C811 H825 0.958 . S
C811 H826 0.961 . S
C811 H827 0.960 . S
H812 C796 0.931 . S
H813 C801 0.929 . S
H814 C802 0.950 1_455 S
H815 C802 0.962 . S
H816 C802 0.960 1_455 S
H817 C803 0.961 . S
H818 C803 0.961 . S
H819 C803 0.961 1_554 S
H820 C804 0.931 . S
H821 C809 0.943 . S
H822 C810 0.956 . S
H823 C810 0.961 . S
H824 C810 0.961 . S
H825 C811 0.958 . S
H826 C811 0.961 . S
H827 C811 0.960 . S
C828 C829 1.391 . S
C828 C830 1.394 . S
C828 H844 0.931 . S
C829 C828 1.391 . S
C829 C833 1.376 . S
C830 C828 1.394 . S
C830 C831 1.369 . S
C830 C834 1.531 . S
C831 C830 1.369 . S
C831 C832 1.410 . S
C831 C839 1.503 . S
C832 C831 1.410 . S
C832 C833 1.392 . S
C832 C835 1.511 . S
C833 C829 1.376 . S
C833 C832 1.392 . S
C833 H845 0.929 . S
C834 C830 1.531 . S
C834 H846 0.960 . S
C834 H847 0.962 . S
C834 H848 0.960 . S
C835 C832 1.511 . S
C835 H849 0.961 . S
C835 H850 0.961 . S
C835 H851 0.961 . S
C836 C837 1.370 . S
C836 C838 1.363 . S
C836 H852 0.931 . S
C837 C836 1.370 . S
C837 C841 1.408 . S
C838 C836 1.363 . S
C838 C839 1.370 . S
C838 C842 1.524 . S
C839 C831 1.503 . S
C839 C838 1.370 . S
C839 C840 1.403 . S
C840 C839 1.403 . S
C840 C841 1.404 . S
C840 C843 1.539 . S
C841 C837 1.408 . S
C841 C840 1.404 . S
C841 H853 0.930 . S
C842 C838 1.524 . S
C842 H854 0.956 . S
C842 H855 0.961 . S
C842 H856 0.961 1_554 S
C843 C840 1.539 . S
C843 H857 0.958 . S
C843 H858 0.961 . S
C843 H859 0.960 . S
H844 C828 0.931 . S
H845 C833 0.929 . S
H846 C834 0.960 . S
H847 C834 0.962 . S
H848 C834 0.960 . S
H849 C835 0.961 . S
H850 C835 0.961 . S
H851 C835 0.961 . S
H852 C836 0.931 . S
H853 C841 0.930 . S
H854 C842 0.956 . S
H855 C842 0.961 . S
H856 C842 0.961 1_556 S
H857 C843 0.958 . S
H858 C843 0.961 . S
H859 C843 0.960 . S
C860 C861 1.391 . S
C860 C862 1.394 . S
C860 H876 0.931 . S
C861 C860 1.391 . S
C861 C865 1.376 . S
C862 C860 1.394 . S
C862 C863 1.369 . S
C862 C866 1.531 . S
C863 C862 1.369 . S
C863 C864 1.410 . S
C863 C871 1.503 . S
C864 C863 1.410 . S
C864 C865 1.392 . S
C864 C867 1.511 . S
C865 C861 1.376 . S
C865 C864 1.392 . S
C865 H877 0.929 . S
C866 C862 1.531 . S
C866 H878 0.960 . S
C866 H879 0.962 . S
C866 H880 0.960 . S
C867 C864 1.511 . S
C867 H881 0.961 . S
C867 H882 0.961 . S
C867 H883 0.961 1_455 S
C868 C869 1.370 . S
C868 C870 1.363 . S
C868 H884 0.931 . S
C869 C868 1.370 . S
C869 C873 1.416 . S
C870 C868 1.363 . S
C870 C871 1.370 . S
C870 C874 1.524 . S
C871 C863 1.503 . S
C871 C870 1.370 . S
C871 C872 1.403 . S
C872 C871 1.403 . S
C872 C873 1.406 . S
C872 C875 1.539 1_455 S
C873 C869 1.416 . S
C873 C872 1.406 . S
C873 H885 0.920 1_455 S
C874 C870 1.524 . S
C874 H886 0.956 . S
C874 H887 0.961 . S
C874 H888 0.961 . S
C875 C872 1.539 1_655 S
C875 H889 0.958 . S
C875 H890 0.961 . S
C875 H891 0.960 . S
H876 C860 0.931 . S
H877 C865 0.929 . S
H878 C866 0.960 . S
H879 C866 0.962 . S
H880 C866 0.960 . S
H881 C867 0.961 . S
H882 C867 0.961 . S
H883 C867 0.961 1_655 S
H884 C868 0.931 . S
H885 C873 0.920 1_655 S
H886 C874 0.956 . S
H887 C874 0.961 . S
H888 C874 0.961 . S
H889 C875 0.958 . S
H890 C875 0.961 . S
H891 C875 0.960 . S
C892 C893 1.391 . S
C892 C894 1.394 . S
C892 H908 0.931 . S
C893 C892 1.391 . S
C893 C897 1.376 . S
C894 C892 1.394 . S
C894 C895 1.369 . S
C894 C898 1.531 . S
C895 C894 1.369 . S
C895 C896 1.410 . S
C895 C903 1.503 . S
C896 C895 1.410 . S
C896 C897 1.392 . S
C896 C899 1.511 . S
C897 C893 1.376 . S
C897 C896 1.392 . S
C897 H909 0.929 . S
C898 C894 1.531 . S
C898 H910 0.960 . S
C898 H911 0.962 . S
C898 H912 0.960 . S
C899 C896 1.511 . S
C899 H913 0.961 . S
C899 H914 0.961 . S
C899 H915 0.961 . S
C900 C901 1.370 . S
C900 C902 1.363 . S
C900 H916 0.931 . S
C901 C900 1.370 . S
C901 C905 1.408 . S
C902 C900 1.363 . S
C902 C903 1.370 . S
C902 C906 1.524 . S
C903 C895 1.503 . S
C903 C902 1.370 . S
C903 C904 1.403 . S
C904 C903 1.403 . S
C904 C905 1.404 . S
C904 C907 1.539 . S
C905 C901 1.408 . S
C905 C904 1.404 . S
C905 H917 0.930 . S
C906 C902 1.524 . S
C906 H918 0.956 . S
C906 H919 0.961 . S
C906 H920 0.961 . S
C907 C904 1.539 . S
C907 H921 0.958 . S
C907 H922 0.961 . S
C907 H923 0.960 . S
H908 C892 0.931 . S
H909 C897 0.929 . S
H910 C898 0.960 . S
H911 C898 0.962 . S
H912 C898 0.960 . S
H913 C899 0.961 . S
H914 C899 0.961 . S
H915 C899 0.961 . S
H916 C900 0.931 . S
H917 C905 0.930 . S
H918 C906 0.956 . S
H919 C906 0.961 . S
H920 C906 0.961 . S
H921 C907 0.958 . S
H922 C907 0.961 . S
H923 C907 0.960 . S
C157 C5 1.567 . S
C165 C90 1.547 . S
C189 C14 1.474 . S
C197 C107 1.409 . S
C229 C130 1.196 . S
C221 C25 1.441 . S
C253 C34 1.701 . S
C261 C151 1.413 . S
C293 C110 1.671 . S
C285 C7 1.700 . S
C325 C87 1.577 . S
C317 C13 1.626 . S
C357 C149 1.319 . S
C349 C23 1.372 . S
C389 C128 1.376 . S
C381 C31 1.436 . S
C413 C4 1.688 . S
C421 C152 1.635 . S
C453 C109 1.333 . S
C445 C22 1.567 . S
C477 C32 1.610 . S
C485 C85 1.426 . S
C509 C16 1.461 . S
C517 C131 1.436 . S
C549 C89 1.520 . S
C541 C41 1.591 . S
C573 C50 1.323 . S
C581 C108 1.278 . S
C605 C61 1.495 . S
C613 C127 1.276 . S
C637 C67 1.639 . S
C645 C148 1.332 . S
C669 C40 1.684 . S
C677 C111 1.649 . S
C709 C86 1.632 . S
C701 C52 1.680 . S
C741 C150 1.254 . S
C733 C59 1.304 . S
C773 C129 1.469 . S
C765 C70 1.527 . S
C797 C43 1.530 . S
C805 C153 1.492 . S
C837 C106 1.280 . S
C829 C58 1.483 . S
C869 C88 1.256 . S
C861 C68 1.434 . S
C893 C49 1.424 . S
C901 C132 1.397 . S
