# Generated by pormake.
# Topology zzz, (3,6)-cn, num edge types: 1
# Building blocks:
#     Node 0, Type 0, BuildingBlock: BETDIP_clean_linker_0, # of connection points: 3
#     Node 1, Type 0, BuildingBlock: BETDIP_clean_linker_0, # of connection points: 3
#     Node 2, Type 0, BuildingBlock: BETDIP_clean_linker_0, # of connection points: 3
#     Node 3, Type 0, BuildingBlock: BETDIP_clean_linker_0, # of connection points: 3
#     Node 4, Type 0, BuildingBlock: BETDIP_clean_linker_0, # of connection points: 3
#     Node 5, Type 0, BuildingBlock: BETDIP_clean_linker_0, # of connection points: 3
#     Node 6, Type 0, BuildingBlock: BETDIP_clean_linker_0, # of connection points: 3
#     Node 7, Type 0, BuildingBlock: BETDIP_clean_linker_0, # of connection points: 3
#     Node 8, Type 1, BuildingBlock: CUKXOW_clean_sbu_0, # of connection points: 6
#     Node 9, Type 1, BuildingBlock: CUKXOW_clean_sbu_0, # of connection points: 6
#     Node 10, Type 1, BuildingBlock: CUKXOW_clean_sbu_0, # of connection points: 6
#     Node 11, Type 1, BuildingBlock: CUKXOW_clean_sbu_0, # of connection points: 6
#     Edge 12, Type (0, 1), BuildingBlock: AJUNOK_clean_linker_0, # of connection points: 2
#     Edge 13, Type (0, 1), BuildingBlock: AJUNOK_clean_linker_0, # of connection points: 2
#     Edge 14, Type (0, 1), BuildingBlock: AJUNOK_clean_linker_0, # of connection points: 2
#     Edge 15, Type (0, 1), BuildingBlock: AJUNOK_clean_linker_0, # of connection points: 2
#     Edge 16, Type (0, 1), BuildingBlock: AJUNOK_clean_linker_0, # of connection points: 2
#     Edge 17, Type (0, 1), BuildingBlock: AJUNOK_clean_linker_0, # of connection points: 2
#     Edge 18, Type (0, 1), BuildingBlock: AJUNOK_clean_linker_0, # of connection points: 2
#     Edge 19, Type (0, 1), BuildingBlock: AJUNOK_clean_linker_0, # of connection points: 2
#     Edge 20, Type (0, 1), BuildingBlock: AJUNOK_clean_linker_0, # of connection points: 2
#     Edge 21, Type (0, 1), BuildingBlock: AJUNOK_clean_linker_0, # of connection points: 2
#     Edge 22, Type (0, 1), BuildingBlock: AJUNOK_clean_linker_0, # of connection points: 2
#     Edge 23, Type (0, 1), BuildingBlock: AJUNOK_clean_linker_0, # of connection points: 2
#     Edge 24, Type (0, 1), BuildingBlock: AJUNOK_clean_linker_0, # of connection points: 2
#     Edge 25, Type (0, 1), BuildingBlock: AJUNOK_clean_linker_0, # of connection points: 2
#     Edge 26, Type (0, 1), BuildingBlock: AJUNOK_clean_linker_0, # of connection points: 2
#     Edge 27, Type (0, 1), BuildingBlock: AJUNOK_clean_linker_0, # of connection points: 2
#     Edge 28, Type (0, 1), BuildingBlock: AJUNOK_clean_linker_0, # of connection points: 2
#     Edge 29, Type (0, 1), BuildingBlock: AJUNOK_clean_linker_0, # of connection points: 2
#     Edge 30, Type (0, 1), BuildingBlock: AJUNOK_clean_linker_0, # of connection points: 2
#     Edge 31, Type (0, 1), BuildingBlock: AJUNOK_clean_linker_0, # of connection points: 2
#     Edge 32, Type (0, 1), BuildingBlock: AJUNOK_clean_linker_0, # of connection points: 2
#     Edge 33, Type (0, 1), BuildingBlock: AJUNOK_clean_linker_0, # of connection points: 2
#     Edge 34, Type (0, 1), BuildingBlock: AJUNOK_clean_linker_0, # of connection points: 2
#     Edge 35, Type (0, 1), BuildingBlock: AJUNOK_clean_linker_0, # of connection points: 2
# Relax obj value: 0.059
# Max RMSD: 0.117
# Mean RMSD: 0.078
data_MOF--net-zzz--node1-CUKXOW_clean_sbu_0--node2-BETDIP_clean_linker_0--edge1-AJUNOK_clean_linker_0
_symmetry_space_group_name_H-M    P1
_symmetry_Int_Tables_number       1
_symmetry_cell_setting            triclinic
loop_
_symmetry_equiv_pos_as_xyz
'x, y, z'
_cell_length_a     36.736495
_cell_length_b     39.028259
_cell_length_c     12.137249
_cell_angle_alpha  93.934671
_cell_angle_beta   86.131683
_cell_angle_gamma 94.058319
loop_
_atom_site_label
_atom_site_type_symbol
_atom_site_fract_x
_atom_site_fract_y
_atom_site_fract_z
_atom_type_partial_charge
H0 H 0.75915 0.50341 0.27686 0.0
H1 H 0.79416 0.48498 0.93183 0.0
H2 H 0.87089 0.48394 0.1817 0.0
H3 H 0.73193 0.45207 0.95314 0.0
C4 C 0.71947 0.4756 -0.01599 0.0
C5 C 0.78018 0.49713 0.21325 0.0
C6 C 0.81593 0.49294 0.24221 0.0
C7 C 0.77167 0.49261 0.10124 0.0
C8 C 0.79976 0.48617 0.01855 0.0
C9 C 0.8355 0.48281 0.04822 0.0
C10 C 0.8429 0.48542 0.15943 0.0
N11 N 0.73529 0.49608 0.07223 0.0
H12 H 0.01507 0.77413 0.19196 0.0
H13 H 0.04862 0.80316 0.86025 0.0
H14 H 0.03127 0.88057 0.12241 0.0
H15 H 0.02236 0.75001 0.8156 0.0
C16 C 0.02919 0.73391 0.8797 0.0
C17 C 0.02278 0.79366 0.1339 0.0
C18 C 0.02202 0.82852 0.16904 0.0
C19 C 0.03224 0.784 0.0223 0.0
C20 C 0.04144 0.8098 0.94659 0.0
C21 C 0.04161 0.84467 -0.01615 0.0
C22 C 0.03221 0.85356 0.09455 0.0
N23 N 0.03212 0.7483 -0.01024 0.0
H24 H 0.75093 0.99083 0.29878 0.0
H25 H 0.72838 0.0202 -0.01971 0.0
H26 H 0.6426 0.97195 0.18728 0.0
H27 H 0.77609 0.98316 0.92817 0.0
C28 C 0.79551 0.9955 -0.01545 0.0
C29 C 0.73206 0.9908 0.23394 0.0
C30 C 0.6946 0.98202 0.25577 0.0
C31 C 0.74465 1.00004 0.12742 0.0
C32 C 0.71882 0.00653 0.05205 0.0
C33 C 0.68142 0.99709 0.07287 0.0
C34 C 0.67093 0.98073 0.17005 0.0
N35 N 0.7828 1.00351 0.09635 0.0
H36 H 0.55887 0.75547 0.28157 0.0
H37 H 0.51556 0.71588 0.97194 0.0
H38 H 0.52222 0.6489 0.23385 0.0
H39 H 0.55798 0.8074 0.21347 0.0
C40 C 0.55112 0.80519 0.12768 0.0
C41 C 0.54635 0.73481 0.23015 0.0
C42 C 0.54132 0.70165 0.26955 0.0
C43 C 0.53605 0.74021 0.12267 0.0
C44 C 0.52187 0.71218 0.05613 0.0
C45 C 0.51633 0.67943 0.09682 0.0
C46 C 0.52538 0.6746 0.20382 0.0
N47 N 0.54032 0.77269 0.07543 0.0
H48 H 0.27787 0.51679 0.14988 0.0
H49 H 0.24269 0.54832 0.48628 0.0
H50 H 0.16776 0.5445 0.22928 0.0
H51 H 0.30524 0.57647 0.46438 0.0
C52 C 0.31764 0.55259 0.43737 0.0
C53 C 0.25718 0.52641 0.20963 0.0
C54 C 0.22196 0.53083 0.17682 0.0
C55 C 0.26548 0.53448 0.32065 0.0
C56 C 0.2375 0.54464 0.39932 0.0
C57 C 0.20231 0.54858 0.36592 0.0
C58 C 0.19535 0.54271 0.25458 0.0
N59 N 0.30141 0.53064 0.35311 0.0
H60 H 0.01818 0.2595 0.23685 0.0
H61 H 0.98634 0.23025 0.56926 0.0
H62 H 1.00385 0.15296 0.30661 0.0
H63 H 0.01752 0.28321 0.60846 0.0
C64 C 1.00737 0.29917 0.5489 0.0
C65 C 1.01093 0.23989 0.29498 0.0
C66 C 1.01221 0.20507 0.25981 0.0
C67 C 1.00174 0.24941 0.40685 0.0
C68 C 0.99325 0.22358 0.48272 0.0
C69 C 0.99341 0.18875 0.44539 0.0
C70 C 1.00259 0.17994 0.33449 0.0
N71 N 1.00145 0.28503 0.44008 0.0
H72 H 0.2858 0.03211 0.14971 0.0
H73 H 0.31293 0.02448 0.48803 0.0
H74 H 0.39658 0.02121 0.22586 0.0
H75 H 0.25784 1.00193 0.51162 0.0
C76 C 0.2409 0.01423 0.45833 0.0
C77 C 0.30565 0.02974 0.21033 0.0
C78 C 0.34294 0.02863 0.17672 0.0
C79 C 0.29406 0.02686 0.32272 0.0
C80 C 0.32057 0.02427 0.40051 0.0
C81 C 0.35751 0.02152 0.36597 0.0
C82 C 0.36821 0.02396 0.25425 0.0
N83 N 0.25593 0.02613 0.35533 0.0
H84 H 0.49262 0.27205 0.12115 0.0
H85 H 0.53158 0.31091 0.4372 0.0
H86 H 0.52821 0.37875 0.17652 0.0
H87 H 0.49027 0.26809 0.49251 0.0
C88 C 0.49727 0.24685 0.43424 0.0
C89 C 0.50465 0.29277 0.17379 0.0
C90 C 0.51044 0.32599 0.13582 0.0
C91 C 0.51252 0.28682 0.2825 0.0
C92 C 0.52626 0.31456 0.35232 0.0
C93 C 0.53226 0.34761 0.3134 0.0
C94 C 0.52527 0.35282 0.2047 0.0
N95 N 0.50534 0.25319 0.32083 0.0
Tb96 Tb 1.00643 0.98985 0.62268 0.0
C97 C 0.08944 0.02079 0.62296 0.0
Tb98 Tb 0.02951 0.0438 0.80707 0.0
O99 O 0.97908 0.02829 0.5395 0.0
O100 O 0.02292 0.04257 0.63654 0.0
O101 O 0.06551 0.99709 0.58071 0.0
C102 C 0.03432 0.10521 0.91722 0.0
O103 O 0.08032 0.04419 0.70306 0.0
C104 C 0.03793 0.97956 0.84262 0.0
C105 C 0.94661 0.0122 0.80806 0.0
O106 O 0.05433 0.07985 0.93132 0.0
O107 O 1.01096 0.09548 0.84419 0.0
O108 O 0.05666 1.00526 0.89085 0.0
O109 O 0.01311 0.99116 0.79296 0.0
O110 O 0.97021 0.03641 0.8495 0.0
O111 O 0.95641 0.98867 0.72932 0.0
C112 C 1.00124 0.92863 0.51159 0.0
O113 O 0.98096 0.95394 0.49936 0.0
O114 O 0.02511 0.93834 0.58317 0.0
C115 C 0.99797 0.05401 0.58697 0.0
Tb116 Tb 0.51972 0.05133 0.67784 0.0
C117 C 0.57963 1.00178 0.58243 0.0
Tb118 Tb 0.521 0.97957 0.77369 0.0
O119 O 0.57223 0.06702 0.7469 0.0
O120 O 0.53579 0.03139 0.82339 0.0
O121 O 0.5605 0.02823 0.56263 0.0
C122 C 0.53759 0.92645 0.88397 0.0
O123 O 0.57101 0.9817 0.66565 0.0
C124 C 0.47373 0.98325 0.62396 0.0
C125 C 0.4555 0.02461 0.84731 0.0
O126 O 0.52741 0.92464 0.78317 0.0
O127 O 0.53855 0.95835 0.92273 0.0
O128 O 0.4706 0.96044 0.69782 0.0
O129 O 0.50456 0.99952 0.62896 0.0
O130 O 0.47553 0.99984 0.87472 0.0
O131 O 0.46592 0.04566 0.76773 0.0
C132 C 0.50711 0.11156 0.59969 0.0
O133 O 0.50865 0.10565 0.70307 0.0
O134 O 0.51252 0.0833 0.5395 0.0
C135 C 0.56744 0.04592 0.8251 0.0
Tb136 Tb 0.54019 0.5438 0.644 0.0
C137 C 0.45411 0.52493 0.62213 0.0
Tb138 Tb 0.50067 0.48414 0.76952 0.0
O139 O 0.56578 0.50666 0.52212 0.0
O140 O 0.51581 0.49438 0.6046 0.0
O141 O 0.48249 0.54793 0.61123 0.0
C142 C 0.48674 0.41977 0.83123 0.0
O143 O 0.4564 0.49526 0.66833 0.0
C144 C 0.49918 0.54542 0.87129 0.0
C145 C 0.58623 0.505 0.79757 0.0
O146 O 0.46832 0.44604 0.86684 0.0
O147 O 0.51278 0.43001 0.76134 0.0
O148 O 0.47498 0.52045 0.89346 0.0
O149 O 0.52434 0.53358 0.80842 0.0
O150 O 0.55853 0.48112 0.80495 0.0
O151 O 0.58323 0.53467 0.75213 0.0
C152 C 0.55607 0.6076 0.57874 0.0
O153 O 0.57434 0.58089 0.54717 0.0
O154 O 0.52892 0.59806 0.64582 0.0
C155 C 0.54079 0.48217 0.54195 0.0
Tb156 Tb 0.98931 0.5219 0.62869 0.0
C157 C 0.01467 0.44695 0.65575 0.0
Tb158 Tb 0.04965 0.51009 0.7871 0.0
O159 O 0.02931 0.54716 0.51289 0.0
O160 O 0.04472 0.51062 0.61545 0.0
O161 O 0.98681 0.46584 0.64189 0.0
C162 C 0.11493 0.50927 0.87188 0.0
O163 O 0.0458 0.4608 0.69331 0.0
C164 C 0.98162 0.5006 0.86595 0.0
C165 C 0.02321 0.58617 0.76771 0.0
O166 O 0.0862 0.48937 0.89753 0.0
O167 O 0.1065 0.53043 0.80122 0.0
O168 O 1.00841 0.48587 0.9041 0.0
O169 O 0.99461 0.5219 0.79941 0.0
O170 O 0.04706 0.56635 0.80594 0.0
O171 O 0.99649 0.57392 0.70415 0.0
C172 C 0.92484 0.51689 0.53739 0.0
O173 O 0.9525 0.49897 0.5057 0.0
O174 O 0.93383 0.53877 0.61771 0.0
C175 C 0.05668 0.53319 0.55107 0.0
C176 C 0.17419 0.01677 0.42538 0.0
C177 C 0.20245 0.01835 0.49858 0.0
C178 C 0.13739 0.01754 0.46579 0.0
C179 C 0.12801 0.02104 0.58021 0.0
H180 H 0.1804 0.01379 0.33688 0.0
H181 H 0.1162 0.01548 0.40734 0.0
S182 S 0.19203 0.02698 0.80505 0.0
N183 N 0.2186 0.02352 0.69007 0.0
N184 N 0.14986 0.02645 0.76541 0.0
C185 C 0.15614 0.02351 0.65359 0.0
C186 C 0.19328 0.02177 0.61283 0.0
C187 C 0.50491 0.18311 0.40325 0.0
C188 C 0.4981 0.21202 0.47564 0.0
C189 C 0.50696 0.15044 0.4437 0.0
C190 C 0.5025 0.14563 0.55781 0.0
H191 H 0.50901 0.18567 0.31493 0.0
H192 H 0.5127 0.12894 0.38532 0.0
S193 S 0.48294 0.2129 0.78111 0.0
N194 N 0.48591 0.23353 0.66622 0.0
N195 N 0.48993 0.17241 0.74211 0.0
C196 C 0.49508 0.17424 0.63063 0.0
C197 C 0.49284 0.20736 0.58952 0.0
C198 C 0.36426 0.5119 0.48052 0.0
C199 C 0.35287 0.54561 0.48167 0.0
C200 C 0.39679 0.50523 0.52771 0.0
C201 C 0.41941 0.53214 0.57526 0.0
H202 H 0.34767 0.49047 0.44481 0.0
H203 H 0.40452 0.4789 0.52556 0.0
S204 S 0.40173 0.62488 0.59823 0.0
N205 N 0.36648 0.60601 0.53514 0.0
N206 N 0.42795 0.59372 0.62055 0.0
C207 C 0.40842 0.56594 0.57569 0.0
C208 C 0.37504 0.57259 0.52984 0.0
C209 C 0.02941 0.35181 0.65876 0.0
C210 C 1.00754 0.33679 0.57548 0.0
C211 C 0.03157 0.38746 0.68381 0.0
C212 C 1.01123 0.40936 0.62828 0.0
H213 H 0.04557 0.33594 0.7036 0.0
H214 H 0.04916 0.3979 0.74782 0.0
S215 S 0.94826 0.38258 0.4069 0.0
N216 N 0.96431 0.34632 0.43922 0.0
N217 N 0.96769 0.41328 0.488 0.0
C218 C 0.9885 0.39455 0.54657 0.0
C219 C 0.98684 0.35827 0.51962 0.0
C220 C 0.86197 0.01509 0.00834 0.0
C221 C 0.83401 1.0014 0.94105 0.0
C222 C 0.89844 0.01945 0.96474 0.0
C223 C 0.90804 0.0099 0.853 0.0
H224 H 0.85577 0.02214 0.09508 0.0
H225 H 0.91933 0.02952 0.01939 0.0
S226 S 0.84432 0.9758 0.64086 0.0
N227 N 0.81812 0.98046 0.75603 0.0
N228 N 0.88611 0.98843 0.67495 0.0
C229 C 0.88007 0.99709 0.78483 0.0
C230 C 0.84322 0.99289 0.82869 0.0
C231 C 0.54075 0.83388 0.9548 0.0
C232 C 0.5502 0.83667 0.06579 0.0
C233 C 0.53768 0.86313 0.8964 0.0
C234 C 0.54387 0.89638 0.94635 0.0
H235 H 0.53511 0.80893 0.91241 0.0
H236 H 0.52969 0.85956 0.81185 0.0
S237 S 0.57168 0.91799 0.23241 0.0
N238 N 0.56748 0.87547 0.22173 0.0
N239 N 0.56168 0.9306 0.11148 0.0
C240 C 0.55439 0.89969 0.05609 0.0
C241 C 0.55756 0.8698 0.11584 0.0
C242 C 0.66321 0.45731 0.88867 0.0
C243 C 0.68453 0.4834 0.93999 0.0
C244 C 0.63127 0.46511 0.84504 0.0
C245 C 0.62056 0.49916 0.8486 0.0
H246 H 0.67102 0.43095 0.88271 0.0
H247 H 0.6148 0.44428 0.80533 0.0
S248 S 0.67373 0.58524 -0.01118 0.0
N249 N 0.68942 0.54601 -0.01112 0.0
N250 N 0.67073 0.54138 0.95604 0.0
C251 C 0.6398 0.52876 0.89751 0.0
C252 C 0.67163 0.51974 0.94366 0.0
C253 C 0.01394 0.68208 0.75619 0.0
C254 C 0.02898 0.69618 0.85402 0.0
C255 C 1.01211 0.64653 0.72947 0.0
C256 C 0.02586 0.62365 0.79866 0.0
H257 H 1.00301 0.69867 0.70027 0.0
H258 H 1.00008 0.63696 0.65331 0.0
S259 S 0.06914 0.64756 0.06335 0.0
N260 N 0.05856 0.68456 0.01984 0.0
N261 N 0.05555 0.61776 0.96899 0.0
C262 C 0.04158 0.63745 0.89607 0.0
C263 C 0.04301 0.67369 0.92401 0.0
C264 C 0.95967 0.13515 0.50276 0.0
C265 C 0.98871 0.1601 0.51908 0.0
C266 C 0.96217 0.10108 0.52991 0.0
C267 C 0.99385 0.09087 0.57367 0.0
H268 H 0.93632 0.14131 0.45965 0.0
H269 H 0.93996 0.08228 0.51104 0.0
S270 S 0.07607 0.14742 0.64063 0.0
N271 N 0.04856 0.17318 0.58983 0.0
N272 N 0.0538 0.10915 0.63931 0.0
C273 C 0.02194 0.1162 0.59766 0.0
C274 C 0.01913 0.15091 0.57121 0.0
C275 C 0.42086 0.0299 0.43121 0.0
C276 C 0.38529 0.01398 0.4429 0.0
C277 C 0.44933 0.0193 0.48866 0.0
C278 C 0.44322 0.99332 0.56309 0.0
H279 H 0.42706 0.05008 0.37457 0.0
H280 H 0.47652 0.03104 0.47271 0.0
S281 S 0.35509 0.94412 0.62795 0.0
N282 N 0.34564 0.97063 0.53511 0.0
N283 N 0.39886 0.9524 0.6488 0.0
C284 C 0.40763 0.97789 0.57893 0.0
C285 C 0.3787 0.98805 0.51816 0.0
C286 C 0.56903 0.40078 0.3776 0.0
C287 C 0.53745 0.37844 0.38935 0.0
C288 C 0.57038 0.43411 0.42973 0.0
C289 C 0.53985 0.44635 0.4927 0.0
H290 H 0.59223 0.39287 0.32447 0.0
H291 H 0.59505 0.4507 0.41791 0.0
S292 S 0.45002 0.39794 0.54228 0.0
N293 N 0.47519 0.37056 0.46715 0.0
N294 N 0.47673 0.43341 0.56008 0.0
C295 C 0.50822 0.42397 0.50494 0.0
C296 C 0.50729 0.38992 0.45459 0.0
C297 C 0.15854 0.52417 0.50809 0.0
C298 C 0.17017 0.55213 0.4446 0.0
C299 C 0.12187 0.51906 0.54663 0.0
C300 C 0.09578 0.5418 0.52306 0.0
H301 H 0.17702 0.50439 0.51896 0.0
H302 H 0.11356 0.49601 0.58921 0.0
S303 S 0.11403 0.62224 0.37752 0.0
N304 N 0.15408 0.60525 0.37287 0.0
N305 N 0.0851 0.59581 0.44608 0.0
C306 C 0.10778 0.57153 0.46879 0.0
C307 C 0.14509 0.57678 0.42995 0.0
C308 C 0.07575 0.89824 0.92755 0.0
C309 C 0.04676 0.87332 0.91014 0.0
C310 C 0.07343 0.93235 0.90042 0.0
C311 C 0.04197 0.94264 0.85562 0.0
H312 H 0.09889 0.89203 0.97153 0.0
H313 H 0.09558 0.95112 0.92017 0.0
S314 S 0.96 0.88617 0.78533 0.0
N315 N 0.98725 0.86034 0.837 0.0
N316 N 0.98231 0.92441 0.78768 0.0
C317 C 0.01396 0.91732 0.83043 0.0
C318 C 0.01661 0.88258 0.85682 0.0
C319 C 0.61811 0.01636 0.05631 0.0
C320 C 0.6525 0.00835 0.00455 0.0
C321 C 0.5906 0.02788 -0.00298 0.0
C322 C 0.59703 0.03422 0.88541 0.0
H323 H 0.61211 0.01454 0.14425 0.0
H324 H 0.56445 0.03287 0.03975 0.0
S325 S 0.68143 0.0192 0.70894 0.0
N326 N 0.68968 1.00589 0.83025 0.0
N327 N 0.64024 0.03384 0.72522 0.0
C328 C 0.63137 0.02801 0.83294 0.0
C329 C 0.65855 0.01363 0.89088 0.0
C330 C 0.5338 0.63705 0.94559 0.0
C331 C 0.50708 0.64861 0.02464 0.0
C332 C 0.53061 0.60371 0.89579 0.0
C333 C 0.50012 0.58104 0.92095 0.0
H334 H 0.55852 0.65307 0.92769 0.0
H335 H 0.55298 0.5953 0.84022 0.0
S336 S 0.4217 0.59996 0.11898 0.0
N337 N 0.44887 0.63556 0.12492 0.0
N338 N 0.44187 0.57315 0.02687 0.0
C339 C 0.47237 0.59286 -0.00358 0.0
C340 C 0.47606 0.62665 0.04913 0.0
C341 C 0.89203 0.45666 0.97022 0.0
C342 C 0.86749 0.48273 0.9681 0.0
C343 C 0.9289 0.46219 0.93406 0.0
C344 C 0.94228 0.49392 0.8945 0.0
H345 H 0.88328 0.43293 0.00857 0.0
H346 H 0.94728 0.44204 0.94105 0.0
S347 S 0.88878 0.56975 0.86772 0.0
N348 N 0.85865 0.54049 0.91783 0.0
N349 N 0.92799 0.55123 0.85155 0.0
C350 C 0.91757 0.51938 0.88575 0.0
C351 C 0.88005 0.51361 0.92163 0.0
C352 C 0.99914 0.18488 0.06876 0.0
C353 C 0.02513 0.1927 0.14785 0.0
C354 C 1.00394 0.15817 -0.01312 0.0
C355 C 0.03453 0.13826 -0.01646 0.0
H356 H 0.97325 0.19681 0.07762 0.0
H357 H 0.982 0.15114 0.93261 0.0
S358 S 0.11363 0.15352 0.15839 0.0
N359 N 0.08509 0.18265 0.20656 0.0
N360 N 0.09394 0.13202 0.05385 0.0
C361 C 0.06259 0.14853 0.05391 0.0
C362 C 0.05797 0.17607 0.13569 0.0
C363 C 0.36759 0.99846 0.0071 0.0
C364 C 0.35776 0.02979 0.06105 0.0
C365 C 0.39811 0.9973 0.93167 0.0
C366 C 0.41926 0.02749 0.90601 0.0
H367 H 0.35445 0.97439 0.03354 0.0
H368 H 0.40661 0.97239 0.89885 0.0
S369 S 0.40056 0.11642 0.00865 0.0
N370 N 0.36837 0.09196 0.07269 0.0
N371 N 0.425 0.08993 0.92689 0.0
C372 C 0.40696 0.05928 0.94839 0.0
C373 C 0.3762 0.06039 0.02674 0.0
C374 C 0.52149 0.34161 0.94213 0.0
C375 C 0.49644 0.33584 0.03251 0.0
C376 C 0.51587 0.36645 0.86794 0.0
C377 C 0.48544 0.38668 0.88382 0.0
H378 H 0.5474 0.32974 0.93599 0.0
H379 H 0.53738 0.37223 0.80514 0.0
S380 S 0.40847 0.37609 0.09458 0.0
N381 N 0.43733 0.34776 0.12266 0.0
N382 N 0.42697 0.39496 -0.01544 0.0
C383 C 0.45809 0.37805 0.96544 0.0
C384 C 0.46355 0.35237 0.03957 0.0
C385 C 0.2024 0.54513 -0.00417 0.0
C386 C 0.20903 0.51958 0.0669 0.0
C387 C 0.17355 0.54044 0.92487 0.0
C388 C 0.15013 0.51031 0.9246 0.0
H389 H 0.21687 0.57025 0.00418 0.0
H390 H 0.16759 0.56174 0.87777 0.0
S391 S 0.16051 0.43337 0.07958 0.0
N392 N 0.19369 0.46127 0.11972 0.0
N393 N 0.13914 0.45253 -0.0121 0.0
C394 C 0.15907 0.4832 -0.01407 0.0
C395 C 0.18881 0.48777 0.05633 0.0
C396 C 0.03533 0.84853 0.35994 0.0
C397 C 1.00924 0.84101 0.28097 0.0
C398 C 0.03092 0.87532 0.44173 0.0
C399 C 1.00061 0.8956 0.4452 0.0
H400 H 0.06103 0.83628 0.351 0.0
H401 H 0.05294 0.88209 0.49589 0.0
S402 S 0.92132 0.88124 0.27077 0.0
N403 N 0.94946 0.85178 0.22246 0.0
N404 N 0.94129 0.9025 0.37522 0.0
C405 C 0.97241 0.88563 0.37503 0.0
C406 C 0.97666 0.85804 0.29321 0.0
C407 C 0.66573 0.01902 0.40072 0.0
C408 C 0.67638 0.9858 0.36713 0.0
C409 C 0.63429 0.02382 0.46991 0.0
C410 C 0.61333 0.99566 0.51253 0.0
H411 H 0.67951 0.04128 0.36355 0.0
H412 H 0.62605 0.04979 0.48882 0.0
S413 S 0.63259 0.90371 0.46158 0.0
N414 N 0.66516 0.92451 0.38687 0.0
N415 N 0.60759 0.93353 0.52548 0.0
C416 C 0.62561 0.96247 0.48795 0.0
C417 C 0.65693 0.95755 0.41374 0.0
C418 C 0.58482 0.67184 0.36739 0.0
C419 C 0.55461 0.69231 0.37459 0.0
C420 C 0.58729 0.6463 0.44174 0.0
C421 C 0.55985 0.64084 0.5262 0.0
H422 H 0.604 0.67247 0.29553 0.0
H423 H 0.6089 0.62874 0.42641 0.0
S424 S 0.48074 0.69401 0.59712 0.0
N425 N 0.50074 0.70996 0.484 0.0
N426 N 0.50589 0.66284 0.62695 0.0
C427 C 0.53263 0.66462 0.54411 0.0
C428 C 0.52995 0.69032 0.46746 0.0
C429 C 0.84512 0.47143 0.39756 0.0
C430 C 0.82857 0.4988 0.35533 0.0
C431 C 0.87519 0.47766 0.46274 0.0
C432 C 0.88861 0.5114 0.49179 0.0
H433 H 0.83806 0.44517 0.36751 0.0
H434 H 0.88946 0.45595 0.48445 0.0
S435 S 0.84965 0.59169 0.4241 0.0
N436 N 0.82424 0.56066 0.36106 0.0
N437 N 0.87943 0.57234 0.49033 0.0
C438 C 0.8691 0.53885 0.46388 0.0
C439 C 0.83906 0.53252 0.3946 0.0
loop_
_geom_bond_atom_site_label_1
_geom_bond_atom_site_label_2
_geom_bond_distance
_geom_bond_site_symmetry_2
_ccdc_geom_bond_type
H0 C5 0.930 . S
H1 C8 0.930 . S
H2 C10 0.930 . S
H3 C4 1.016 . S
C4 H3 1.016 . S
C4 N11 1.286 1_556 S
C5 H0 0.930 . S
C5 C6 1.397 . S
C5 C7 1.361 . S
C6 C5 1.397 . S
C6 C10 1.390 . S
C7 C5 1.361 . S
C7 C8 1.393 1_554 S
C7 N11 1.413 . S
C8 H1 0.930 . S
C8 C7 1.393 1_556 S
C8 C9 1.399 . S
C9 C8 1.399 . S
C9 C10 1.381 1_556 S
C10 H2 0.930 . S
C10 C6 1.390 . S
C10 C9 1.381 1_554 S
N11 C4 1.286 1_554 S
N11 C7 1.413 . S
H12 C17 0.930 . S
H13 C20 0.930 . S
H14 C22 0.930 . S
H15 C16 1.016 . S
C16 H15 1.016 . S
C16 N23 1.286 1_556 S
C17 H12 0.930 . S
C17 C18 1.397 . S
C17 C19 1.361 . S
C18 C17 1.397 . S
C18 C22 1.390 . S
C19 C17 1.361 . S
C19 C20 1.393 1_554 S
C19 N23 1.413 . S
C20 H13 0.930 . S
C20 C19 1.393 1_556 S
C20 C21 1.399 . S
C21 C20 1.399 . S
C21 C22 1.381 1_556 S
C22 H14 0.930 . S
C22 C18 1.390 . S
C22 C21 1.381 1_554 S
N23 C16 1.286 1_554 S
N23 C19 1.413 . S
H24 C29 0.930 . S
H25 C32 0.930 1_556 S
H26 C34 0.930 . S
H27 C28 1.016 1_556 S
C28 H27 1.016 1_554 S
C28 N35 1.286 . S
C29 H24 0.930 . S
C29 C30 1.397 . S
C29 C31 1.361 . S
C30 C29 1.397 . S
C30 C34 1.390 . S
C31 C29 1.361 . S
C31 C32 1.393 . S
C31 N35 1.413 . S
C32 H25 0.930 1_554 S
C32 C31 1.393 . S
C32 C33 1.399 . S
C33 C32 1.399 . S
C33 C34 1.381 . S
C34 H26 0.930 . S
C34 C30 1.390 . S
C34 C33 1.381 . S
N35 C28 1.286 . S
N35 C31 1.413 . S
H36 C41 0.930 . S
H37 C44 0.930 1_556 S
H38 C46 0.930 . S
H39 C40 1.016 1_556 S
C40 H39 1.016 1_554 S
C40 N47 1.286 . S
C41 H36 0.930 . S
C41 C42 1.397 . S
C41 C43 1.361 . S
C42 C41 1.397 . S
C42 C46 1.390 . S
C43 C41 1.361 . S
C43 C44 1.393 . S
C43 N47 1.413 . S
C44 H37 0.930 1_554 S
C44 C43 1.393 . S
C44 C45 1.399 . S
C45 C44 1.399 . S
C45 C46 1.381 . S
C46 H38 0.930 . S
C46 C42 1.390 . S
C46 C45 1.381 . S
N47 C40 1.286 . S
N47 C43 1.413 . S
H48 C53 0.930 . S
H49 C56 0.930 . S
H50 C58 0.930 . S
H51 C52 1.016 . S
C52 H51 1.016 . S
C52 N59 1.286 . S
C53 H48 0.930 . S
C53 C54 1.397 . S
C53 C55 1.361 . S
C54 C53 1.397 . S
C54 C58 1.390 . S
C55 C53 1.361 . S
C55 C56 1.393 . S
C55 N59 1.413 . S
C56 H49 0.930 . S
C56 C55 1.393 . S
C56 C57 1.399 . S
C57 C56 1.399 . S
C57 C58 1.381 . S
C58 H50 0.930 . S
C58 C54 1.390 . S
C58 C57 1.381 . S
N59 C52 1.286 . S
N59 C55 1.413 . S
H60 C65 0.930 . S
H61 C68 0.930 . S
H62 C70 0.930 . S
H63 C64 1.016 . S
C64 H63 1.016 . S
C64 N71 1.286 . S
C65 H60 0.930 . S
C65 C66 1.397 . S
C65 C67 1.361 . S
C66 C65 1.397 . S
C66 C70 1.390 . S
C67 C65 1.361 . S
C67 C68 1.393 . S
C67 N71 1.413 . S
C68 H61 0.930 . S
C68 C67 1.393 . S
C68 C69 1.399 . S
C69 C68 1.399 . S
C69 C70 1.381 . S
C70 H62 0.930 . S
C70 C66 1.390 . S
C70 C69 1.381 . S
N71 C64 1.286 . S
N71 C67 1.413 . S
H72 C77 0.930 . S
H73 C80 0.930 . S
H74 C82 0.930 . S
H75 C76 1.016 . S
C76 H75 1.016 . S
C76 N83 1.286 . S
C77 H72 0.930 . S
C77 C78 1.397 . S
C77 C79 1.361 . S
C78 C77 1.397 . S
C78 C82 1.390 . S
C79 C77 1.361 . S
C79 C80 1.393 . S
C79 N83 1.413 . S
C80 H73 0.930 . S
C80 C79 1.393 . S
C80 C81 1.399 . S
C81 C80 1.399 . S
C81 C82 1.381 . S
C82 H74 0.930 . S
C82 C78 1.390 . S
C82 C81 1.381 . S
N83 C76 1.286 . S
N83 C79 1.413 . S
H84 C89 0.930 . S
H85 C92 0.930 . S
H86 C94 0.930 . S
H87 C88 1.016 . S
C88 H87 1.016 . S
C88 N95 1.286 . S
C89 H84 0.930 . S
C89 C90 1.397 . S
C89 C91 1.361 . S
C90 C89 1.397 . S
C90 C94 1.390 . S
C91 C89 1.361 . S
C91 C92 1.393 . S
C91 N95 1.413 . S
C92 H85 0.930 . S
C92 C91 1.393 . S
C92 C93 1.399 . S
C93 C92 1.399 . S
C93 C94 1.381 . S
C94 H86 0.930 . S
C94 C90 1.390 . S
C94 C93 1.381 . S
N95 C88 1.286 . S
N95 C91 1.413 . S
Tb96 O99 2.453 1_565 S
Tb96 O100 2.596 1_665 S
Tb96 O101 2.374 1_665 S
Tb96 O109 2.339 1_655 S
Tb96 O111 2.353 1_565 S
Tb96 O113 2.427 . S
Tb96 O114 2.513 1_655 S
C97 O101 1.251 . S
C97 O103 1.263 . S
Tb98 O100 2.343 . S
Tb98 O103 2.353 . S
Tb98 O106 2.427 . S
Tb98 O107 2.513 1_455 S
Tb98 O108 2.453 1_545 S
Tb98 O109 2.601 1_545 S
Tb98 O110 2.374 1_455 S
O99 Tb96 2.453 1_545 S
O99 C115 1.245 1_655 S
O100 Tb96 2.596 1_445 S
O100 Tb98 2.343 . S
O100 C115 1.259 . S
O101 Tb96 2.374 1_445 S
O101 C97 1.251 . S
C102 O106 1.275 . S
C102 O107 1.246 1_455 S
O103 C97 1.263 . S
O103 Tb98 2.353 . S
C104 O108 1.245 . S
C104 O109 1.262 . S
C105 O110 1.250 . S
C105 O111 1.263 . S
O106 Tb98 2.427 . S
O106 C102 1.275 . S
O107 Tb98 2.513 1_655 S
O107 C102 1.246 1_655 S
O108 Tb98 2.453 1_565 S
O108 C104 1.245 . S
O109 Tb96 2.339 1_455 S
O109 Tb98 2.601 1_565 S
O109 C104 1.262 . S
O110 Tb98 2.374 1_655 S
O110 C105 1.250 . S
O111 Tb96 2.353 1_545 S
O111 C105 1.263 . S
C112 O113 1.275 . S
C112 O114 1.246 1_655 S
O113 Tb96 2.427 . S
O113 C112 1.275 . S
O114 Tb96 2.513 1_455 S
O114 C112 1.246 1_455 S
C115 O99 1.245 1_455 S
C115 O100 1.259 . S
Tb116 O119 2.453 . S
Tb116 O120 2.596 1_545 S
Tb116 O121 2.374 . S
Tb116 O129 2.343 . S
Tb116 O131 2.353 . S
Tb116 O133 2.427 . S
Tb116 O134 2.513 . S
C117 O121 1.233 1_565 S
C117 O123 1.276 . S
Tb118 O120 2.343 . S
Tb118 O123 2.353 . S
Tb118 O126 2.427 . S
Tb118 O127 2.513 . S
Tb118 O128 2.453 . S
Tb118 O129 2.596 1_565 S
Tb118 O130 2.374 . S
O119 Tb116 2.453 . S
O119 C135 1.245 . S
O120 Tb116 2.596 1_565 S
O120 Tb118 2.343 . S
O120 C135 1.259 1_565 S
O121 Tb116 2.374 . S
O121 C117 1.233 1_545 S
C122 O126 1.275 . S
C122 O127 1.246 . S
O123 C117 1.276 . S
O123 Tb118 2.353 . S
C124 O128 1.245 1_545 S
C124 O129 1.259 . S
C125 O130 1.250 1_545 S
C125 O131 1.263 . S
O126 Tb118 2.427 . S
O126 C122 1.275 . S
O127 Tb118 2.513 . S
O127 C122 1.246 . S
O128 Tb118 2.453 . S
O128 C124 1.245 1_565 S
O129 Tb116 2.343 . S
O129 Tb118 2.596 1_545 S
O129 C124 1.259 . S
O130 Tb118 2.374 . S
O130 C125 1.250 1_565 S
O131 Tb116 2.353 . S
O131 C125 1.263 . S
C132 O133 1.275 . S
C132 O134 1.246 . S
O133 Tb116 2.427 . S
O133 C132 1.275 . S
O134 Tb116 2.513 . S
O134 C132 1.246 . S
C135 O119 1.245 . S
C135 O120 1.259 1_545 S
Tb136 O139 2.453 . S
Tb136 O140 2.596 . S
Tb136 O141 2.374 . S
Tb136 O149 2.343 . S
Tb136 O151 2.353 . S
Tb136 O153 2.427 . S
Tb136 O154 2.513 . S
C137 O141 1.251 . S
C137 O143 1.263 . S
Tb138 O140 2.343 . S
Tb138 O143 2.353 . S
Tb138 O146 2.427 . S
Tb138 O147 2.513 . S
Tb138 O148 2.453 . S
Tb138 O149 2.596 . S
Tb138 O150 2.374 . S
O139 Tb136 2.453 . S
O139 C155 1.245 . S
O140 Tb136 2.596 . S
O140 Tb138 2.343 . S
O140 C155 1.259 . S
O141 Tb136 2.374 . S
O141 C137 1.251 . S
C142 O146 1.275 . S
C142 O147 1.246 . S
O143 C137 1.263 . S
O143 Tb138 2.353 . S
C144 O148 1.245 . S
C144 O149 1.259 . S
C145 O150 1.250 . S
C145 O151 1.263 . S
O146 Tb138 2.427 . S
O146 C142 1.275 . S
O147 Tb138 2.513 . S
O147 C142 1.246 . S
O148 Tb138 2.453 . S
O148 C144 1.245 . S
O149 Tb136 2.343 . S
O149 Tb138 2.596 . S
O149 C144 1.259 . S
O150 Tb138 2.374 . S
O150 C145 1.250 . S
O151 Tb136 2.353 . S
O151 C145 1.263 . S
C152 O153 1.275 . S
C152 O154 1.246 . S
O153 Tb136 2.427 . S
O153 C152 1.275 . S
O154 Tb136 2.513 . S
O154 C152 1.246 . S
C155 O139 1.245 . S
C155 O140 1.259 . S
Tb156 O159 2.453 1_655 S
Tb156 O160 2.596 1_655 S
Tb156 O161 2.374 1_655 S
Tb156 O169 2.343 . S
Tb156 O171 2.353 1_655 S
Tb156 O173 2.427 . S
Tb156 O174 2.513 . S
C157 O161 1.251 . S
C157 O163 1.263 . S
Tb158 O160 2.343 . S
Tb158 O163 2.353 . S
Tb158 O166 2.427 . S
Tb158 O167 2.513 . S
Tb158 O168 2.453 1_455 S
Tb158 O169 2.596 1_455 S
Tb158 O170 2.374 . S
O159 Tb156 2.453 1_455 S
O159 C175 1.245 . S
O160 Tb156 2.596 1_455 S
O160 Tb158 2.343 . S
O160 C175 1.259 . S
O161 Tb156 2.374 1_455 S
O161 C157 1.251 . S
C162 O166 1.275 . S
C162 O167 1.246 . S
O163 C157 1.263 . S
O163 Tb158 2.353 . S
C164 O168 1.245 . S
C164 O169 1.259 . S
C165 O170 1.260 . S
C165 O171 1.263 . S
O166 Tb158 2.427 . S
O166 C162 1.275 . S
O167 Tb158 2.513 . S
O167 C162 1.246 . S
O168 Tb158 2.453 1_655 S
O168 C164 1.245 . S
O169 Tb156 2.343 . S
O169 Tb158 2.596 1_655 S
O169 C164 1.259 . S
O170 Tb158 2.374 . S
O170 C165 1.260 . S
O171 Tb156 2.353 1_455 S
O171 C165 1.263 . S
C172 O173 1.275 . S
C172 O174 1.246 . S
O173 Tb156 2.427 . S
O173 C172 1.275 . S
O174 Tb156 2.513 . S
O174 C172 1.246 . S
C175 O159 1.245 . S
C175 O160 1.259 . S
C176 C177 1.369 . S
C176 C178 1.419 . S
C176 H180 0.930 . S
C177 C176 1.369 . S
C177 C186 1.429 . S
C178 C176 1.419 . S
C178 C179 1.363 . S
C178 H181 0.929 . S
C179 C178 1.363 . S
C179 C185 1.428 . S
H180 C176 0.930 . S
H181 C178 0.929 . S
S182 N183 1.613 . S
S182 N184 1.610 . S
N183 S182 1.613 . S
N183 C186 1.350 . S
N184 S182 1.610 . S
N184 C185 1.351 . S
C185 C179 1.428 . S
C185 N184 1.351 . S
C185 C186 1.434 . S
C186 C177 1.429 . S
C186 N183 1.350 . S
C186 C185 1.434 . S
C187 C188 1.369 . S
C187 C189 1.419 . S
C187 H191 0.930 . S
C188 C187 1.369 . S
C188 C197 1.429 . S
C189 C187 1.419 . S
C189 C190 1.363 . S
C189 H192 0.929 . S
C190 C189 1.363 . S
C190 C196 1.428 . S
H191 C187 0.930 . S
H192 C189 0.929 . S
S193 N194 1.613 . S
S193 N195 1.610 . S
N194 S193 1.613 . S
N194 C197 1.350 . S
N195 S193 1.610 . S
N195 C196 1.351 . S
C196 C190 1.428 . S
C196 N195 1.351 . S
C196 C197 1.434 . S
C197 C188 1.429 . S
C197 N194 1.350 . S
C197 C196 1.434 . S
C198 C199 1.369 . S
C198 C200 1.419 . S
C198 H202 0.930 . S
C199 C198 1.369 . S
C199 C208 1.429 . S
C200 C198 1.419 . S
C200 C201 1.363 . S
C200 H203 0.929 . S
C201 C200 1.363 . S
C201 C207 1.428 . S
H202 C198 0.930 . S
H203 C200 0.929 . S
S204 N205 1.613 . S
S204 N206 1.610 . S
N205 S204 1.613 . S
N205 C208 1.350 . S
N206 S204 1.610 . S
N206 C207 1.351 . S
C207 C201 1.428 . S
C207 N206 1.351 . S
C207 C208 1.434 . S
C208 C199 1.429 . S
C208 N205 1.350 . S
C208 C207 1.434 . S
C209 C210 1.369 . S
C209 C211 1.419 . S
C209 H213 0.930 . S
C210 C209 1.369 . S
C210 C219 1.429 . S
C211 C209 1.419 . S
C211 C212 1.363 . S
C211 H214 0.929 . S
C212 C211 1.363 . S
C212 C218 1.428 . S
H213 C209 0.930 . S
H214 C211 0.929 . S
S215 N216 1.613 1_655 S
S215 N217 1.610 . S
N216 S215 1.613 1_455 S
N216 C219 1.350 . S
N217 S215 1.610 . S
N217 C218 1.351 1_655 S
C218 C212 1.428 . S
C218 N217 1.351 1_455 S
C218 C219 1.434 . S
C219 C210 1.429 . S
C219 N216 1.350 . S
C219 C218 1.434 . S
C220 C221 1.369 1_544 S
C220 C222 1.419 1_554 S
C220 H224 0.930 . S
C221 C220 1.369 1_566 S
C221 C230 1.429 . S
C222 C220 1.419 1_556 S
C222 C223 1.363 1_545 S
C222 H225 0.929 . S
C223 C222 1.363 1_565 S
C223 C229 1.428 . S
H224 C220 0.930 . S
H225 C222 0.929 . S
S226 N227 1.613 . S
S226 N228 1.610 . S
N227 S226 1.613 . S
N227 C230 1.350 . S
N228 S226 1.610 . S
N228 C229 1.351 . S
C229 C223 1.428 . S
C229 N228 1.351 . S
C229 C230 1.434 . S
C230 C221 1.429 . S
C230 N227 1.350 . S
C230 C229 1.434 . S
C231 C232 1.369 . S
C231 C233 1.419 . S
C231 H235 0.930 . S
C232 C231 1.369 . S
C232 C241 1.429 . S
C233 C231 1.419 . S
C233 C234 1.363 . S
C233 H236 0.929 . S
C234 C233 1.363 . S
C234 C240 1.428 . S
H235 C231 0.930 . S
H236 C233 0.929 . S
S237 N238 1.613 . S
S237 N239 1.610 . S
N238 S237 1.613 . S
N238 C241 1.350 . S
N239 S237 1.610 . S
N239 C240 1.351 . S
C240 C234 1.428 . S
C240 N239 1.351 . S
C240 C241 1.434 . S
C241 C232 1.429 . S
C241 N238 1.350 . S
C241 C240 1.434 . S
C242 C243 1.369 . S
C242 C244 1.419 . S
C242 H246 0.930 . S
C243 C242 1.369 . S
C243 C252 1.429 . S
C244 C242 1.419 . S
C244 C245 1.363 . S
C244 H247 0.929 . S
C245 C244 1.363 . S
C245 C251 1.428 . S
H246 C242 0.930 . S
H247 C244 0.929 . S
S248 N249 1.613 . S
S248 N250 1.610 1_554 S
N249 S248 1.613 . S
N249 C252 1.350 1_554 S
N250 S248 1.610 1_556 S
N250 C251 1.351 . S
C251 C245 1.428 . S
C251 N250 1.351 . S
C251 C252 1.434 . S
C252 C243 1.429 . S
C252 N249 1.350 1_556 S
C252 C251 1.434 . S
C253 C254 1.369 . S
C253 C255 1.419 1_655 S
C253 H257 0.930 1_655 S
C254 C253 1.369 . S
C254 C263 1.429 . S
C255 C253 1.419 1_455 S
C255 C256 1.363 1_455 S
C255 H258 0.929 . S
C256 C255 1.363 1_655 S
C256 C262 1.428 . S
H257 C253 0.930 1_455 S
H258 C255 0.929 . S
S259 N260 1.613 . S
S259 N261 1.610 1_554 S
N260 S259 1.613 . S
N260 C263 1.350 1_554 S
N261 S259 1.610 1_556 S
N261 C262 1.351 . S
C262 C256 1.428 . S
C262 N261 1.351 . S
C262 C263 1.434 . S
C263 C254 1.429 . S
C263 N260 1.350 1_556 S
C263 C262 1.434 . S
C264 C265 1.369 . S
C264 C266 1.419 . S
C264 H268 0.930 . S
C265 C264 1.369 . S
C265 C274 1.429 . S
C266 C264 1.419 . S
C266 C267 1.363 . S
C266 H269 0.929 . S
C267 C266 1.363 . S
C267 C273 1.428 . S
H268 C264 0.930 . S
H269 C266 0.929 . S
S270 N271 1.613 . S
S270 N272 1.610 . S
N271 S270 1.613 . S
N271 C274 1.350 . S
N272 S270 1.610 . S
N272 C273 1.351 . S
C273 C267 1.428 . S
C273 N272 1.351 . S
C273 C274 1.434 . S
C274 C265 1.429 . S
C274 N271 1.350 . S
C274 C273 1.434 . S
C275 C276 1.369 . S
C275 C277 1.419 . S
C275 H279 0.930 . S
C276 C275 1.369 . S
C276 C285 1.429 . S
C277 C275 1.419 . S
C277 C278 1.363 . S
C277 H280 0.929 . S
C278 C277 1.363 . S
C278 C284 1.428 . S
H279 C275 0.930 . S
H280 C277 0.929 . S
S281 N282 1.613 . S
S281 N283 1.610 . S
N282 S281 1.613 . S
N282 C285 1.350 1_565 S
N283 S281 1.610 . S
N283 C284 1.351 1_565 S
C284 C278 1.428 . S
C284 N283 1.351 1_545 S
C284 C285 1.434 . S
C285 C276 1.429 . S
C285 N282 1.350 1_545 S
C285 C284 1.434 . S
C286 C287 1.369 . S
C286 C288 1.419 . S
C286 H290 0.930 . S
C287 C286 1.369 . S
C287 C296 1.429 . S
C288 C286 1.419 . S
C288 C289 1.363 . S
C288 H291 0.929 . S
C289 C288 1.363 . S
C289 C295 1.428 . S
H290 C286 0.930 . S
H291 C288 0.929 . S
S292 N293 1.613 . S
S292 N294 1.610 . S
N293 S292 1.613 . S
N293 C296 1.350 . S
N294 S292 1.610 . S
N294 C295 1.351 . S
C295 C289 1.428 . S
C295 N294 1.351 . S
C295 C296 1.434 . S
C296 C287 1.429 . S
C296 N293 1.350 . S
C296 C295 1.434 . S
C297 C298 1.369 . S
C297 C299 1.419 . S
C297 H301 0.930 . S
C298 C297 1.369 . S
C298 C307 1.429 . S
C299 C297 1.419 . S
C299 C300 1.363 . S
C299 H302 0.929 . S
C300 C299 1.363 . S
C300 C306 1.428 . S
H301 C297 0.930 . S
H302 C299 0.929 . S
S303 N304 1.613 . S
S303 N305 1.610 . S
N304 S303 1.613 . S
N304 C307 1.350 . S
N305 S303 1.610 . S
N305 C306 1.351 . S
C306 C300 1.428 . S
C306 N305 1.351 . S
C306 C307 1.434 . S
C307 C298 1.429 . S
C307 N304 1.350 . S
C307 C306 1.434 . S
C308 C309 1.369 . S
C308 C310 1.419 1_655 S
C308 H312 0.930 1_655 S
C309 C308 1.369 . S
C309 C318 1.429 . S
C310 C308 1.419 1_455 S
C310 C311 1.363 1_455 S
C310 H313 0.929 . S
C311 C310 1.363 1_655 S
C311 C317 1.428 . S
H312 C308 0.930 1_455 S
H313 C310 0.929 . S
S314 N315 1.613 . S
S314 N316 1.610 . S
N315 S314 1.613 . S
N315 C318 1.350 . S
N316 S314 1.610 . S
N316 C317 1.351 . S
C317 C311 1.428 . S
C317 N316 1.351 . S
C317 C318 1.434 . S
C318 C309 1.429 . S
C318 N315 1.350 . S
C318 C317 1.434 . S
C319 C320 1.369 1_554 S
C319 C321 1.419 1_564 S
C319 H323 0.930 . S
C320 C319 1.369 1_556 S
C320 C329 1.429 . S
C321 C319 1.419 1_546 S
C321 C322 1.363 1_545 S
C321 H324 0.929 1_556 S
C322 C321 1.363 1_565 S
C322 C328 1.428 . S
H323 C319 0.930 . S
H324 C321 0.929 1_554 S
S325 N326 1.613 . S
S325 N327 1.610 . S
N326 S325 1.613 . S
N326 C329 1.350 . S
N327 S325 1.610 . S
N327 C328 1.351 . S
C328 C322 1.428 . S
C328 N327 1.351 . S
C328 C329 1.434 . S
C329 C320 1.429 . S
C329 N326 1.350 . S
C329 C328 1.434 . S
C330 C331 1.369 . S
C330 C332 1.419 . S
C330 H334 0.930 . S
C331 C330 1.369 . S
C331 C340 1.429 . S
C332 C330 1.419 . S
C332 C333 1.363 . S
C332 H335 0.929 . S
C333 C332 1.363 . S
C333 C339 1.428 . S
H334 C330 0.930 . S
H335 C332 0.929 . S
S336 N337 1.613 . S
S336 N338 1.610 1_554 S
N337 S336 1.613 . S
N337 C340 1.350 1_554 S
N338 S336 1.610 1_556 S
N338 C339 1.351 . S
C339 C333 1.428 . S
C339 N338 1.351 . S
C339 C340 1.434 . S
C340 C331 1.429 . S
C340 N337 1.350 1_556 S
C340 C339 1.434 . S
C341 C342 1.369 . S
C341 C343 1.419 . S
C341 H345 0.930 1_556 S
C342 C341 1.369 . S
C342 C351 1.429 . S
C343 C341 1.419 . S
C343 C344 1.363 . S
C343 H346 0.929 1_556 S
C344 C343 1.363 . S
C344 C350 1.428 . S
H345 C341 0.930 1_554 S
H346 C343 0.929 1_554 S
S347 N348 1.613 . S
S347 N349 1.610 . S
N348 S347 1.613 . S
N348 C351 1.350 . S
N349 S347 1.610 . S
N349 C350 1.351 . S
C350 C344 1.428 . S
C350 N349 1.351 . S
C350 C351 1.434 . S
C351 C342 1.429 . S
C351 N348 1.350 . S
C351 C350 1.434 . S
C352 C353 1.369 . S
C352 C354 1.419 . S
C352 H356 0.930 . S
C353 C352 1.369 . S
C353 C362 1.429 . S
C354 C352 1.419 . S
C354 C355 1.363 . S
C354 H357 0.929 1_455 S
C355 C354 1.363 . S
C355 C361 1.428 . S
H356 C352 0.930 . S
H357 C354 0.929 1_655 S
S358 N359 1.613 . S
S358 N360 1.610 . S
N359 S358 1.613 . S
N359 C362 1.350 . S
N360 S358 1.610 . S
N360 C361 1.351 . S
C361 C355 1.428 . S
C361 N360 1.351 . S
C361 C362 1.434 . S
C362 C353 1.429 . S
C362 N359 1.350 . S
C362 C361 1.434 . S
C363 C364 1.369 . S
C363 C365 1.419 1_554 S
C363 H367 0.930 . S
C364 C363 1.369 . S
C364 C373 1.429 . S
C365 C363 1.419 1_556 S
C365 C366 1.363 . S
C365 H368 0.929 . S
C366 C365 1.363 . S
C366 C372 1.428 1_556 S
H367 C363 0.930 . S
H368 C365 0.929 . S
S369 N370 1.613 . S
S369 N371 1.610 . S
N370 S369 1.613 . S
N370 C373 1.350 . S
N371 S369 1.610 . S
N371 C372 1.351 . S
C372 C366 1.428 1_554 S
C372 N371 1.351 . S
C372 C373 1.434 . S
C373 C364 1.429 . S
C373 N370 1.350 . S
C373 C372 1.434 . S
C374 C375 1.369 . S
C374 C376 1.419 1_554 S
C374 H378 0.930 1_554 S
C375 C374 1.369 . S
C375 C384 1.429 . S
C376 C374 1.419 1_556 S
C376 C377 1.363 1_556 S
C376 H379 0.929 . S
C377 C376 1.363 1_554 S
C377 C383 1.428 . S
H378 C374 0.930 1_556 S
H379 C376 0.929 . S
S380 N381 1.613 . S
S380 N382 1.610 . S
N381 S380 1.613 . S
N381 C384 1.350 . S
N382 S380 1.610 . S
N382 C383 1.351 . S
C383 C377 1.428 . S
C383 N382 1.351 . S
C383 C384 1.434 . S
C384 C375 1.429 . S
C384 N381 1.350 . S
C384 C383 1.434 . S
C385 C386 1.369 . S
C385 C387 1.419 . S
C385 H389 0.930 . S
C386 C385 1.369 . S
C386 C395 1.429 . S
C387 C385 1.419 . S
C387 C388 1.363 . S
C387 H390 0.929 . S
C388 C387 1.363 . S
C388 C394 1.428 . S
H389 C385 0.930 . S
H390 C387 0.929 . S
S391 N392 1.613 1_556 S
S391 N393 1.610 . S
N392 S391 1.613 1_554 S
N392 C395 1.350 . S
N393 S391 1.610 . S
N393 C394 1.351 1_556 S
C394 C388 1.428 . S
C394 N393 1.351 1_554 S
C394 C395 1.434 . S
C395 C386 1.429 . S
C395 N392 1.350 . S
C395 C394 1.434 . S
C396 C397 1.369 . S
C396 C398 1.419 . S
C396 H400 0.930 . S
C397 C396 1.369 . S
C397 C406 1.429 . S
C398 C396 1.419 . S
C398 C399 1.363 . S
C398 H401 0.929 1_655 S
C399 C398 1.363 . S
C399 C405 1.428 . S
H400 C396 0.930 . S
H401 C398 0.929 1_455 S
S402 N403 1.613 . S
S402 N404 1.610 . S
N403 S402 1.613 . S
N403 C406 1.350 . S
N404 S402 1.610 . S
N404 C405 1.351 . S
C405 C399 1.428 . S
C405 N404 1.351 . S
C405 C406 1.434 . S
C406 C397 1.429 . S
C406 N403 1.350 . S
C406 C405 1.434 . S
C407 C408 1.369 . S
C407 C409 1.419 1_565 S
C407 H411 0.930 1_565 S
C408 C407 1.369 . S
C408 C417 1.429 . S
C409 C407 1.419 1_545 S
C409 C410 1.363 1_545 S
C409 H412 0.929 . S
C410 C409 1.363 1_565 S
C410 C416 1.428 . S
H411 C407 0.930 1_545 S
H412 C409 0.929 . S
S413 N414 1.613 . S
S413 N415 1.610 . S
N414 S413 1.613 . S
N414 C417 1.350 . S
N415 S413 1.610 . S
N415 C416 1.351 . S
C416 C410 1.428 . S
C416 N415 1.351 . S
C416 C417 1.434 . S
C417 C408 1.429 . S
C417 N414 1.350 . S
C417 C416 1.434 . S
C418 C419 1.369 . S
C418 C420 1.419 . S
C418 H422 0.930 . S
C419 C418 1.369 . S
C419 C428 1.429 . S
C420 C418 1.419 . S
C420 C421 1.363 . S
C420 H423 0.929 . S
C421 C420 1.363 . S
C421 C427 1.428 . S
H422 C418 0.930 . S
H423 C420 0.929 . S
S424 N425 1.613 . S
S424 N426 1.610 . S
N425 S424 1.613 . S
N425 C428 1.350 . S
N426 S424 1.610 . S
N426 C427 1.351 . S
C427 C421 1.428 . S
C427 N426 1.351 . S
C427 C428 1.434 . S
C428 C419 1.429 . S
C428 N425 1.350 . S
C428 C427 1.434 . S
C429 C430 1.369 . S
C429 C431 1.419 . S
C429 H433 0.930 . S
C430 C429 1.369 . S
C430 C439 1.429 . S
C431 C429 1.419 . S
C431 C432 1.363 . S
C431 H434 0.929 . S
C432 C431 1.363 . S
C432 C438 1.428 . S
H433 C429 0.930 . S
H434 C431 0.929 . S
S435 N436 1.613 . S
S435 N437 1.610 . S
N436 S435 1.613 . S
N436 C439 1.350 . S
N437 S435 1.610 . S
N437 C438 1.351 . S
C438 C432 1.428 . S
C438 N437 1.351 . S
C438 C439 1.434 . S
C439 C430 1.429 . S
C439 N436 1.350 . S
C439 C438 1.434 . S
C177 C76 1.548 . S
C179 C97 1.602 . S
C190 C132 1.611 . S
C188 C88 1.520 . S
C201 C137 1.383 . S
C199 C52 1.344 . S
C212 C157 1.543 . S
C210 C64 1.504 . S
C223 C105 1.603 1_565 S
C221 C28 1.565 1_556 S
C232 C40 1.548 1_556 S
C234 C122 1.612 . S
C243 C4 1.357 . S
C245 C145 1.383 . S
C254 C16 1.520 . S
C256 C165 1.533 1_655 S
C267 C115 1.419 . S
C265 C69 1.368 . S
C278 C124 1.188 . S
C276 C81 1.165 . S
C289 C155 1.450 . S
C287 C93 1.403 . S
C298 C57 1.113 . S
C300 C175 1.121 . S
C309 C21 1.357 . S
C311 C104 1.419 1_655 S
C322 C135 1.190 1_565 S
C320 C33 1.160 1_556 S
C333 C144 1.449 . S
C331 C45 1.383 1_556 S
C342 C9 1.109 . S
C344 C164 1.121 . S
C353 C66 1.472 . S
C355 C102 1.477 1_554 S
C364 C78 1.506 . S
C366 C125 1.569 . S
C377 C142 1.573 1_554 S
C375 C90 1.529 . S
C388 C162 1.567 1_554 S
C386 C54 1.545 . S
C397 C18 1.455 . S
C399 C112 1.475 . S
C410 C117 1.575 . S
C408 C30 1.497 . S
C421 C152 1.577 . S
C419 C42 1.513 . S
C430 C6 1.542 . S
C432 C172 1.568 . S
