# Generated by pormake.
# Topology zzz, (3,6)-cn, num edge types: 1
# Building blocks:
#     Node 0, Type 0, BuildingBlock: ESEHIV_clean_linker_0, # of connection points: 3
#     Node 1, Type 0, BuildingBlock: ESEHIV_clean_linker_0, # of connection points: 3
#     Node 2, Type 0, BuildingBlock: ESEHIV_clean_linker_0, # of connection points: 3
#     Node 3, Type 0, BuildingBlock: ESEHIV_clean_linker_0, # of connection points: 3
#     Node 4, Type 0, BuildingBlock: ESEHIV_clean_linker_0, # of connection points: 3
#     Node 5, Type 0, BuildingBlock: ESEHIV_clean_linker_0, # of connection points: 3
#     Node 6, Type 0, BuildingBlock: ESEHIV_clean_linker_0, # of connection points: 3
#     Node 7, Type 0, BuildingBlock: ESEHIV_clean_linker_0, # of connection points: 3
#     Node 8, Type 1, BuildingBlock: HISSIN_clean_sbu_0, # of connection points: 6
#     Node 9, Type 1, BuildingBlock: HISSIN_clean_sbu_0, # of connection points: 6
#     Node 10, Type 1, BuildingBlock: HISSIN_clean_sbu_0, # of connection points: 6
#     Node 11, Type 1, BuildingBlock: HISSIN_clean_sbu_0, # of connection points: 6
#     Edge 12, Type (0, 1), BuildingBlock: EZIPEK_clean_linker_0, # of connection points: 2
#     Edge 13, Type (0, 1), BuildingBlock: EZIPEK_clean_linker_0, # of connection points: 2
#     Edge 14, Type (0, 1), BuildingBlock: EZIPEK_clean_linker_0, # of connection points: 2
#     Edge 15, Type (0, 1), BuildingBlock: EZIPEK_clean_linker_0, # of connection points: 2
#     Edge 16, Type (0, 1), BuildingBlock: EZIPEK_clean_linker_0, # of connection points: 2
#     Edge 17, Type (0, 1), BuildingBlock: EZIPEK_clean_linker_0, # of connection points: 2
#     Edge 18, Type (0, 1), BuildingBlock: EZIPEK_clean_linker_0, # of connection points: 2
#     Edge 19, Type (0, 1), BuildingBlock: EZIPEK_clean_linker_0, # of connection points: 2
#     Edge 20, Type (0, 1), BuildingBlock: EZIPEK_clean_linker_0, # of connection points: 2
#     Edge 21, Type (0, 1), BuildingBlock: EZIPEK_clean_linker_0, # of connection points: 2
#     Edge 22, Type (0, 1), BuildingBlock: EZIPEK_clean_linker_0, # of connection points: 2
#     Edge 23, Type (0, 1), BuildingBlock: EZIPEK_clean_linker_0, # of connection points: 2
#     Edge 24, Type (0, 1), BuildingBlock: EZIPEK_clean_linker_0, # of connection points: 2
#     Edge 25, Type (0, 1), BuildingBlock: EZIPEK_clean_linker_0, # of connection points: 2
#     Edge 26, Type (0, 1), BuildingBlock: EZIPEK_clean_linker_0, # of connection points: 2
#     Edge 27, Type (0, 1), BuildingBlock: EZIPEK_clean_linker_0, # of connection points: 2
#     Edge 28, Type (0, 1), BuildingBlock: EZIPEK_clean_linker_0, # of connection points: 2
#     Edge 29, Type (0, 1), BuildingBlock: EZIPEK_clean_linker_0, # of connection points: 2
#     Edge 30, Type (0, 1), BuildingBlock: EZIPEK_clean_linker_0, # of connection points: 2
#     Edge 31, Type (0, 1), BuildingBlock: EZIPEK_clean_linker_0, # of connection points: 2
#     Edge 32, Type (0, 1), BuildingBlock: EZIPEK_clean_linker_0, # of connection points: 2
#     Edge 33, Type (0, 1), BuildingBlock: EZIPEK_clean_linker_0, # of connection points: 2
#     Edge 34, Type (0, 1), BuildingBlock: EZIPEK_clean_linker_0, # of connection points: 2
#     Edge 35, Type (0, 1), BuildingBlock: EZIPEK_clean_linker_0, # of connection points: 2
# Relax obj value: 0.583
# Max RMSD: 0.268
# Mean RMSD: 0.200
data_MOF--net-zzz--node1-HISSIN_clean_sbu_0--node2-ESEHIV_clean_linker_0--edge1-EZIPEK_clean_linker_0
_symmetry_space_group_name_H-M    P1
_symmetry_Int_Tables_number       1
_symmetry_cell_setting            triclinic
loop_
_symmetry_equiv_pos_as_xyz
'x, y, z'
_cell_length_a     30.897799
_cell_length_b     30.925052
_cell_length_c     12.338446
_cell_angle_alpha  89.608652
_cell_angle_beta   91.951682
_cell_angle_gamma 90.59779
loop_
_atom_site_label
_atom_site_type_symbol
_atom_site_fract_x
_atom_site_fract_y
_atom_site_fract_z
_atom_type_partial_charge
H0 H 0.82634 0.4585 0.2962 0.0
H1 H 0.70483 0.46958 0.12166 0.0
H2 H 0.74355 0.56684 0.35599 0.0
C3 C 0.79623 0.47566 0.28167 0.0
C4 C 0.78758 0.51242 0.3432 0.0
C5 C 0.76669 0.46071 0.20133 0.0
C6 C 0.72751 0.48186 0.1835 0.0
C7 C 0.71952 0.52134 0.23294 0.0
C8 C 0.74939 0.53659 0.31569 0.0
H9 H 0.09583 0.82786 0.27555 0.0
H10 H 0.07364 0.71001 0.10289 0.0
H11 H 0.9827 0.74887 0.34108 0.0
C12 C 0.07604 0.79908 0.26251 0.0
C13 C 0.03921 0.79191 0.3255 0.0
C14 C 0.08764 0.76963 0.1826 0.0
C15 C 0.06359 0.73217 0.16509 0.0
C16 C 0.02476 0.72471 0.21597 0.0
C17 C 1.01241 0.75447 0.29895 0.0
H18 H 0.70836 0.08108 0.23815 0.0
H19 H 0.82476 0.07228 0.06219 0.0
H20 H 0.79917 0.97824 0.31338 0.0
C21 C 0.73838 0.06433 0.2249 0.0
C22 C 0.75 0.02888 0.29179 0.0
C23 C 0.76535 0.07973 0.14347 0.0
C24 C 0.80447 0.05948 0.1253 0.0
C25 C 0.81694 0.02186 0.18022 0.0
C26 C 0.7897 1.00654 0.26671 0.0
H27 H 0.4549 0.73087 0.35451 0.0
H28 H 0.57729 0.79733 0.32115 0.0
H29 H 0.47525 0.81272 0.07872 0.0
C30 C 0.47527 0.75363 0.31181 0.0
C31 C 0.4604 0.77034 0.21127 0.0
C32 C 0.51844 0.75934 0.34795 0.0
C33 C 0.54423 0.7911 0.29337 0.0
C34 C 0.52679 0.81344 0.19953 0.0
C35 C 0.48636 0.80006 0.15688 0.0
H36 H 0.21196 0.59876 0.26065 0.0
H37 H 0.33521 0.58251 0.42321 0.0
H38 H 0.29919 0.50032 0.15292 0.0
C39 C 0.24284 0.58239 0.26586 0.0
C40 C 0.25185 0.54972 0.19036 0.0
C41 C 0.27318 0.59445 0.34777 0.0
C42 C 0.31275 0.57353 0.35734 0.0
C43 C 0.32201 0.53833 0.29208 0.0
C44 C 0.29194 0.52693 0.20565 0.0
H45 H 0.97344 0.2155 0.1434 0.0
H46 H 0.96177 0.33853 0.29744 0.0
H47 H 0.08725 0.29367 0.20476 0.0
C48 C 0.98826 0.24512 0.17413 0.0
C49 C 0.03205 0.25201 0.15702 0.0
C50 C 0.96265 0.27562 0.22486 0.0
C51 C 0.98191 0.31388 0.26367 0.0
C52 C 0.0271 0.31953 0.26749 0.0
C53 C 0.05261 0.28893 0.20912 0.0
H54 H 0.33942 0.93378 0.20113 0.0
H55 H 0.22282 0.94258 0.37723 0.0
H56 H 0.26023 0.04804 0.16777 0.0
C57 C 0.31073 0.95183 0.21987 0.0
C58 C 0.3024 0.99123 0.16515 0.0
C59 C 0.28227 0.93439 0.29579 0.0
C60 C 0.24481 0.95682 0.31984 0.0
C61 C 0.23773 0.9991 0.28322 0.0
C62 C 0.26614 0.0162 0.20167 0.0
H63 H 0.58842 0.33153 0.22648 0.0
H64 H 0.4782 0.24879 0.14613 0.0
H65 H 0.57551 0.20858 0.38409 0.0
C66 C 0.57072 0.3013 0.23491 0.0
C67 C 0.58518 0.27091 0.31293 0.0
C68 C 0.53337 0.29336 0.1688 0.0
C69 C 0.50865 0.25451 0.18987 0.0
C70 C 0.52377 0.22368 0.27025 0.0
C71 C 0.56349 0.23158 0.32349 0.0
Eu72 Eu 1.00123 0.04255 0.67774 0.0
Eu73 Eu 0.0716 0.99959 0.83456 0.0
C74 C 0.04819 0.10024 0.87593 0.0
C75 C 0.91695 0.09911 0.46987 0.0
C76 C 0.87234 0.10568 0.47686 0.0
C77 C 0.91751 0.14458 0.30982 0.0
C78 C 0.85105 0.1341 0.40531 0.0
C79 C 0.9391 0.11716 0.38322 0.0
C80 C 0.87392 0.1557 0.32459 0.0
C81 C 0.94043 0.081 0.56431 0.0
O82 O 1.01111 1.00168 0.94169 0.0
O83 O 0.9591 0.01356 0.81008 0.0
C84 C 0.96958 1.00503 0.91241 0.0
O85 O 1.013 0.97756 0.59278 0.0
O86 O 0.09218 0.95525 0.96351 0.0
O87 O 0.13848 1.00056 0.8971 0.0
O88 O 0.0475 0.94121 0.732 0.0
C89 C 0.02964 0.94125 0.63266 0.0
O90 O 0.0633 0.05194 0.57959 0.0
O91 O 0.10746 1.00515 0.67466 0.0
O92 O 0.07891 0.07119 0.87825 0.0
O93 O 0.93867 0.03974 0.58684 0.0
O94 O 0.97639 0.09999 0.59754 0.0
O95 O 1.01339 0.09338 0.81301 0.0
C96 C 0.16454 0.93379 0.9638 0.0
C97 C 0.17673 0.91436 0.8673 0.0
C98 C 0.19403 0.87386 0.06644 0.0
C99 C 0.19466 0.87303 0.87047 0.0
C100 C 0.17681 0.91515 0.06324 0.0
C101 C 0.19835 0.85029 0.96969 0.0
C102 C 0.13253 0.96819 0.96313 0.0
C103 C 0.09979 0.02977 0.58839 0.0
H104 H 0.8548 0.09205 0.54383 0.0
H105 H 0.93637 0.16077 0.24909 0.0
H106 H 0.81792 0.14214 0.42003 0.0
H107 H 0.97361 0.11246 0.37662 0.0
H108 H 0.16872 0.92921 0.78954 0.0
H109 H 0.19788 0.8587 0.14545 0.0
H110 H 0.20003 0.85703 0.79457 0.0
H111 H 0.16859 0.93022 0.1387 0.0
Eu112 Eu 0.54378 0.05101 0.79947 0.0
Eu113 Eu 0.50349 0.97939 0.64344 0.0
C114 C 0.54319 0.95233 0.88834 0.0
C115 C 0.59411 0.15471 0.91096 0.0
C116 C 0.61618 0.16204 0.81528 0.0
C117 C 0.64813 0.1962 1.01063 0.0
C118 C 0.65666 0.18248 0.82021 0.0
C119 C 0.60788 0.17574 1.00574 0.0
C120 C 0.67584 0.19366 0.92183 0.0
C121 C 0.56567 0.11709 0.92013 0.0
O122 O 0.44395 0.99352 0.7468 0.0
O123 O 0.47927 0.03279 0.87868 0.0
C124 C 0.44384 1.01238 0.84314 0.0
O125 O 0.5285 0.08807 0.64128 0.0
O126 O 0.51566 0.91452 0.58342 0.0
O127 O 0.46015 0.95076 0.52127 0.0
O128 O 0.48756 0.03955 0.54218 0.0
C129 C 0.50476 0.07842 0.55388 0.0
O130 O 0.60394 0.03611 0.69918 0.0
O131 O 0.56955 0.99524 0.56868 0.0
O132 O 0.51826 0.94286 0.80274 0.0
O133 O 0.53102 0.11616 0.85684 0.0
O134 O 0.58579 0.08014 0.92366 0.0
O135 O 0.56144 0.99081 0.89783 0.0
C136 C 0.45332 0.87556 0.52469 0.0
C137 C 0.44528 0.85269 0.42915 0.0
C138 C 0.39142 0.84075 0.60381 0.0
C139 C 0.40835 0.82686 0.41804 0.0
C140 C 0.42869 0.86651 0.61527 0.0
C141 C 0.37759 0.82563 0.50013 0.0
C142 C 0.48079 0.91411 0.52088 0.0
C143 C 0.60488 0.0157 0.60497 0.0
H144 H 0.6048 0.14741 0.73992 0.0
H145 H 0.65962 0.20691 0.08978 0.0
H146 H 0.67473 0.18368 0.74698 0.0
H147 H 0.59061 0.17151 0.07994 0.0
H148 H 0.46485 0.85826 0.35918 0.0
H149 H 0.37112 0.83787 0.673 0.0
H150 H 0.40146 0.81339 0.33925 0.0
H151 H 0.43571 0.88276 0.69138 0.0
Eu152 Eu 0.48427 0.54267 0.80652 0.0
Eu153 Eu 0.56428 0.50526 0.68123 0.0
C154 C 0.58128 0.54341 0.92702 0.0
C155 C 0.3886 0.60983 0.86669 0.0
C156 C 0.40994 0.64827 0.83733 0.0
C157 C 0.32602 0.65159 0.91104 0.0
C158 C 0.39146 0.68788 0.86051 0.0
C159 C 0.34476 0.6114 0.89198 0.0
C160 C 0.35282 0.6884 0.91732 0.0
C161 C 0.41406 0.57088 0.89053 0.0
O162 O 0.55435 0.45316 0.81217 0.0
O163 O 0.48522 0.47013 0.85322 0.0
C164 C 0.51873 0.44398 0.86447 0.0
O165 O 0.46046 0.53968 0.63181 0.0
O166 O 0.63256 0.50715 0.63948 0.0
O167 O 0.58782 0.46314 0.55683 0.0
O168 O 0.50328 0.48514 0.57983 0.0
C169 C 0.46867 0.50915 0.56323 0.0
O170 O 0.50434 0.60281 0.70958 0.0
O171 O 0.56026 0.57475 0.61639 0.0
O172 O 0.59671 0.52466 0.84135 0.0
O173 O 0.4136 0.5413 0.8159 0.0
O174 O 0.45284 0.57802 0.9326 0.0
O175 O 0.54026 0.55492 0.92973 0.0
C176 C 0.65907 0.44052 0.57825 0.0
C177 C 0.67665 0.42605 0.48265 0.0
C178 C 0.67908 0.37331 0.66736 0.0
C179 C 0.6916 0.38397 0.47651 0.0
C180 C 0.66318 0.41536 0.6728 0.0
C181 C 0.68905 0.35548 0.56629 0.0
C182 C 0.62802 0.47569 0.57032 0.0
C183 C 0.53409 0.60706 0.6357 0.0
H184 H 0.44309 0.64786 0.81157 0.0
H185 H 0.2943 0.65255 0.94446 0.0
H186 H 0.41185 0.71655 0.85672 0.0
H187 H 0.3268 0.58204 0.90944 0.0
H188 H 0.6742 0.44532 0.40908 0.0
H189 H 0.67886 0.35372 0.74005 0.0
H190 H 0.6993 0.37265 0.39689 0.0
H191 H 0.65027 0.42654 0.74811 0.0
Eu192 Eu 0.03654 0.56153 0.68287 0.0
Eu193 Eu 1.00437 0.48543 0.83375 0.0
C194 C 0.10373 0.52638 0.87306 0.0
C195 C 0.09224 0.65974 0.56959 0.0
C196 C 0.11204 0.67025 0.67031 0.0
C197 C 0.1555 0.68462 0.47917 0.0
C198 C 0.15488 0.68526 0.67532 0.0
C199 C 0.1127 0.67076 0.47426 0.0
C200 C 0.17835 0.6882 0.57991 0.0
C201 C 0.05747 0.62753 0.56246 0.0
O202 O 0.983 0.54721 0.91923 0.0
O203 O 0.03189 0.59383 0.84747 0.0
C204 C 1.00415 0.58447 0.92264 0.0
O205 O 0.96336 0.55988 0.65543 0.0
O206 O 0.96427 0.46403 0.96428 0.0
O207 O 1.01048 0.41961 0.89889 0.0
O208 O 0.94961 0.49029 0.70317 0.0
C209 C 0.93844 0.52539 0.64806 0.0
O210 O 0.04302 0.50174 0.5722 0.0
O211 O 0.02374 0.44672 0.68603 0.0
O212 O 0.07158 0.50217 0.90776 0.0
O213 O 0.07063 0.58823 0.54624 0.0
O214 O 0.02811 0.62915 0.63547 0.0
O215 O 0.09929 0.54814 0.78092 0.0
C216 C 0.94619 0.39132 0.97314 0.0
C217 C 0.92241 0.37745 0.88093 0.0
C218 C 0.88999 0.36483 0.08697 0.0
C219 C 0.88102 0.35949 0.89194 0.0
C220 C 0.93125 0.38183 0.07582 0.0
C221 C 0.86247 0.35728 0.99475 0.0
C222 C 0.9794 0.42485 0.96626 0.0
C223 C 0.03645 0.45989 0.59021 0.0
H224 H 0.09613 0.66276 0.74511 0.0
H225 H 0.17196 0.68633 0.40333 0.0
H226 H 0.17057 0.69009 0.75398 0.0
H227 H 0.09783 0.66316 0.39583 0.0
H228 H 0.93403 0.38403 0.80055 0.0
H229 H 0.87849 0.36278 0.16871 0.0
H230 H 0.86282 0.35086 0.81917 0.0
H231 H 0.94919 0.39253 0.14781 0.0
C232 C 0.15827 0.01847 0.31178 0.0
C233 C 0.20261 0.023 0.34495 0.0
C234 C 0.17786 0.04396 0.52809 0.0
C235 C 0.13411 0.03205 0.50007 0.0
N236 N 0.08335 1.00638 0.36163 0.0
N237 N 0.2545 0.04194 0.48621 0.0
C238 C 0.12443 0.01967 0.39017 0.0
C239 C 0.2121 0.03695 0.45334 0.0
N240 N 0.14859 0.01323 0.20407 0.0
N241 N 0.1866 0.06318 0.6259 0.0
H242 H 0.2797 0.04004 0.43225 0.0
H243 H 0.26485 0.046 0.56668 0.0
H244 H 0.1626 0.06951 0.68094 0.0
H245 H 0.2166 0.07648 0.64863 0.0
H246 H 0.1172 0.01343 0.17069 0.0
H247 H 0.17277 0.01313 0.14698 0.0
H248 H 0.0749 0.99233 0.28736 0.0
H249 H 0.05801 1.00658 0.41517 0.0
C250 C 0.48098 0.18956 0.42015 0.0
C251 C 0.49934 0.18506 0.31657 0.0
C252 C 0.51306 0.10782 0.35939 0.0
C253 C 0.49782 0.11314 0.46653 0.0
N254 N 0.45647 0.15594 0.58703 0.0
N255 N 0.51853 0.13718 0.17576 0.0
C256 C 0.47825 0.1531 0.49283 0.0
C257 C 0.51038 0.14303 0.2825 0.0
N258 N 0.4683 0.22969 0.45087 0.0
N259 N 0.53276 0.07017 0.33289 0.0
H260 H 0.51559 0.1626 0.1199 0.0
H261 H 0.52347 0.10706 0.14135 0.0
H262 H 0.53569 0.04396 0.38604 0.0
H263 H 0.54876 0.06584 0.26093 0.0
H264 H 0.46002 0.23748 0.52935 0.0
H265 H 0.46765 0.25585 0.39691 0.0
H266 H 0.43831 0.18257 0.60797 0.0
H267 H 0.4535 0.12991 0.64062 0.0
C268 C 0.40313 0.52436 0.29763 0.0
C269 C 0.36103 0.51254 0.33098 0.0
C270 C 0.39307 0.4845 0.5035 0.0
C271 C 0.43462 0.50009 0.47463 0.0
N272 N 0.48131 0.52015 0.33086 0.0
N273 N 0.31792 0.46919 0.4484 0.0
C274 C 0.44034 0.51503 0.36677 0.0
C275 C 0.35699 0.48799 0.42791 0.0
N276 N 0.40711 0.54638 0.20223 0.0
N277 N 0.38787 0.46795 0.60522 0.0
H278 H 0.29147 0.47163 0.39379 0.0
H279 H 0.31272 0.44833 0.51331 0.0
H280 H 0.41399 0.46259 0.65936 0.0
H281 H 0.35788 0.46086 0.63732 0.0
H282 H 0.43595 0.56037 0.17744 0.0
H283 H 0.38058 0.55167 0.14928 0.0
H284 H 0.48822 0.52864 0.25151 0.0
H285 H 0.50838 0.51149 0.37873 0.0
C286 C 0.03595 0.40002 0.30901 0.0
C287 C 0.044 0.3565 0.34078 0.0
C288 C 0.0598 0.38398 0.52759 0.0
C289 C 0.04277 0.42575 0.50053 0.0
N290 N 1.00853 0.46987 0.35954 0.0
N291 N 0.06076 0.30702 0.48707 0.0
C292 C 0.02989 0.43301 0.38908 0.0
C293 C 0.05548 0.34864 0.45195 0.0
N294 N 0.03368 0.4098 0.20109 0.0
N295 N 0.08186 0.37817 0.62428 0.0
H296 H 0.0597 0.28077 0.43436 0.0
H297 H 0.06357 0.29853 0.56888 0.0
H298 H 0.09805 0.34974 0.64485 0.0
H299 H 0.08855 0.40344 0.67801 0.0
H300 H 0.03217 0.44142 0.17148 0.0
H301 H 0.03796 0.38631 0.14208 0.0
H302 H 0.99466 0.47483 0.28233 0.0
H303 H 1.00024 0.49336 0.41452 0.0
C304 C 0.89941 0.0157 0.17284 0.0
C305 C 0.85788 1.00138 0.13455 0.0
C306 C 0.89359 0.97718 0.96649 0.0
C307 C 0.93287 0.99995 0.99524 0.0
N308 N 0.96956 0.04562 0.12844 0.0
N309 N 0.81591 0.96812 0.99003 0.0
C310 C 0.93507 0.01971 0.10024 0.0
C311 C 0.85545 0.98153 0.03032 0.0
N312 N 0.90482 0.02576 0.27968 0.0
N313 N 0.89294 0.94996 0.87976 0.0
H314 H 0.78831 0.96833 0.03658 0.0
H315 H 0.8102 0.95891 0.90971 0.0
H316 H 0.92032 0.94412 0.83514 0.0
H317 H 0.86688 0.92956 0.85979 0.0
H318 H 0.93529 0.03056 0.31666 0.0
H319 H 0.87926 0.02372 0.33279 0.0
H320 H 0.97107 0.06407 0.19881 0.0
H321 H 0.99451 0.05237 0.07643 0.0
C322 C 0.54232 0.89291 0.16744 0.0
C323 C 0.54854 0.84944 0.13585 0.0
C324 C 0.56432 0.8762 0.95091 0.0
C325 C 0.54969 0.91829 0.97728 0.0
N326 N 0.52209 0.9658 0.11302 0.0
N327 N 0.56744 0.79954 0.99752 0.0
C328 C 0.53883 0.92664 0.08687 0.0
C329 C 0.56091 0.8413 0.02778 0.0
N330 N 0.53918 0.9018 0.27505 0.0
N331 N 0.58234 0.86978 0.85277 0.0
H332 H 0.56783 0.77404 0.05349 0.0
H333 H 0.57066 0.78996 0.91749 0.0
H334 H 0.58614 0.8946 0.79609 0.0
H335 H 0.59713 0.84112 0.8314 0.0
H336 H 0.53846 0.93304 0.30587 0.0
H337 H 0.54208 0.87774 0.33445 0.0
H338 H 0.50897 0.97225 0.18775 0.0
H339 H 0.51792 0.991 0.0574 0.0
C340 C 0.63946 0.53302 0.20896 0.0
C341 C 0.68187 0.54599 0.18233 0.0
C342 C 0.65235 0.57318 1.00612 0.0
C343 C 0.61243 0.55116 1.023 0.0
N344 N 0.56783 0.51022 0.14459 0.0
N345 N 0.72867 0.58185 0.05836 0.0
C346 C 0.60551 0.53208 0.12675 0.0
C347 C 0.68797 0.5681 0.08256 0.0
N348 N 0.63217 0.52085 0.31321 0.0
N349 N 0.65597 0.59925 0.91699 0.0
H350 H 0.75456 0.58035 0.11484 0.0
H351 H 0.73711 0.59299 0.98206 0.0
H352 H 0.63023 0.60414 0.86139 0.0
H353 H 0.68271 0.6191 0.90363 0.0
H354 H 0.6015 0.51422 0.34206 0.0
H355 H 0.65689 0.52204 0.37305 0.0
H356 H 0.56301 0.4909 0.21266 0.0
H357 H 0.54214 0.50931 0.0881 0.0
C358 C 1.00921 0.64458 0.19892 0.0
C359 C 0.99881 0.6873 0.16536 0.0
C360 C 0.97781 0.65829 0.98322 0.0
C361 C 0.99652 0.61761 1.01097 0.0
N362 N 0.02858 0.57127 0.14872 0.0
N363 N 0.96868 0.73436 0.02827 0.0
C364 C 1.01091 0.61025 0.12067 0.0
C365 C 0.98059 0.69355 0.05883 0.0
N366 N 0.01801 0.63734 0.30641 0.0
N367 N 0.95706 0.66302 0.88434 0.0
H368 H 0.96843 0.7597 0.08377 0.0
H369 H 0.9605 0.74349 0.94895 0.0
H370 H 0.95441 0.63794 0.82825 0.0
H371 H 0.93955 0.69028 0.86095 0.0
H372 H 0.02286 0.6068 0.34028 0.0
H373 H 1.01624 0.66224 0.36281 0.0
H374 H 0.04391 0.56492 0.22344 0.0
H375 H 0.02989 0.54557 0.09467 0.0
C376 C 0.89757 0.26089 0.3421 0.0
C377 C 0.91591 0.26461 0.23754 0.0
C378 C 0.86774 0.207 0.17095 0.0
C379 C 0.85833 0.19767 0.27941 0.0
N380 N 0.83552 0.23403 0.43837 0.0
N381 N 0.90282 0.25318 0.04423 0.0
C382 C 0.86231 0.23193 0.3534 0.0
C383 C 0.89415 0.24325 0.14885 0.0
N384 N 0.91584 0.27981 0.43244 0.0
N385 N 0.85657 0.17818 0.09192 0.0
H386 H 0.92315 0.27882 1.02289 0.0
H387 H 0.92315 0.27882 1.02289 0.0
H388 H 0.84023 0.14952 0.11024 0.0
H389 H 0.86443 0.18297 1.01105 0.0
H390 H 0.90502 0.27315 0.51001 0.0
H391 H 0.94329 0.29933 0.43326 0.0
H392 H 0.83665 0.25963 0.49302 0.0
H393 H 0.80923 0.21286 0.44486 0.0
C394 C 0.29305 0.89167 0.47154 0.0
C395 C 0.29265 0.89327 0.3555 0.0
C396 C 0.31897 0.81866 0.35752 0.0
C397 C 0.32996 0.82355 0.46856 0.0
N398 N 0.29137 0.84272 0.62589 0.0
N399 N 0.29547 0.85067 0.18974 0.0
C400 C 0.30376 0.85226 0.52373 0.0
C401 C 0.30165 0.85438 0.29878 0.0
N402 N 0.28774 0.92774 0.53251 0.0
N403 N 0.32794 0.78088 0.30762 0.0
H404 H 0.2823 0.87486 0.13989 0.0
H405 H 0.2823 0.87486 0.13989 0.0
H406 H 0.34202 0.75521 0.35112 0.0
H407 H 0.32001 0.77544 0.22602 0.0
H408 H 0.2907 0.92709 0.61701 0.0
H409 H 0.28572 0.95873 0.4996 0.0
H410 H 0.2705 0.86236 0.66792 0.0
H411 H 0.29938 0.81311 0.66232 0.0
C412 C 0.61057 0.28268 0.50654 0.0
C413 C 0.62032 0.28092 0.39433 0.0
C414 C 0.69658 0.293 0.44527 0.0
C415 C 0.68361 0.30786 0.5463 0.0
N416 N 0.64151 0.27946 0.68989 0.0
N417 N 0.67457 0.28156 0.25762 0.0
C418 C 0.64487 0.28988 0.58323 0.0
C419 C 0.66418 0.28401 0.36374 0.0
N420 N 0.56886 0.28036 0.53934 0.0
N421 N 0.73953 0.29027 0.42709 0.0
H422 H 0.65208 0.27329 0.19611 0.0
H423 H 0.70466 0.29169 0.23111 0.0
H424 H 0.76253 0.29906 0.48726 0.0
H425 H 0.75132 0.27615 0.35775 0.0
H426 H 0.56067 0.28364 0.62 0.0
H427 H 0.54225 0.27934 0.48528 0.0
H428 H 0.61457 0.26344 0.72011 0.0
H429 H 0.66813 0.28242 0.7439 0.0
C430 C 0.26368 0.67107 0.41465 0.0
C431 C 0.26204 0.62554 0.43345 0.0
C432 C 0.23853 0.63969 0.61674 0.0
C433 C 0.22601 0.68122 0.5816 0.0
N434 N 0.24585 0.74259 0.47691 0.0
N435 N 0.25096 0.56636 0.5603 0.0
C436 C 0.24752 0.69916 0.49343 0.0
C437 C 0.25136 0.6097 0.53803 0.0
N438 N 0.27779 0.68837 0.32058 0.0
N439 N 0.23741 0.62927 0.72398 0.0
H440 H 0.25917 0.54304 0.50421 0.0
H441 H 0.23939 0.55347 0.63211 0.0
H442 H 0.23029 0.65245 0.78151 0.0
H443 H 0.2485 0.59996 0.75589 0.0
H444 H 0.28875 0.66991 0.25691 0.0
H445 H 0.28875 0.66991 0.25691 0.0
H446 H 0.25845 0.75742 0.40883 0.0
H447 H 0.23191 0.76286 0.53324 0.0
C448 C 0.16692 0.77072 0.14235 0.0
C449 C 0.12329 0.77828 0.10825 0.0
C450 C 0.14837 0.79229 0.9261 0.0
C451 C 0.18926 0.80272 0.97251 0.0
N452 N 0.24226 0.77563 0.10119 0.0
N453 N 0.07185 0.7925 0.95899 0.0
C454 C 0.20021 0.78128 0.07057 0.0
C455 C 0.11353 0.78716 0.99658 0.0
N456 N 0.17685 0.75464 0.24293 0.0
N457 N 0.14312 0.78886 0.81656 0.0
H458 H 0.0454 0.79075 1.00916 0.0
H459 H 0.06417 0.8022 0.87962 0.0
H460 H 0.16964 0.7912 0.76651 0.0
H461 H 0.11397 0.77925 0.77851 0.0
H462 H 0.20867 0.74801 0.26778 0.0
H463 H 0.15332 0.74789 0.2994 0.0
H464 H 0.26737 0.78446 0.05079 0.0
H465 H 0.26737 0.78446 0.05079 0.0
C466 C 0.75087 0.15971 0.11971 0.0
C467 C 0.75324 0.11757 0.07413 0.0
C468 C 0.7406 0.14973 0.89486 0.0
C469 C 0.72335 0.18619 0.94449 0.0
N470 N 0.73944 0.23655 0.08438 0.0
N471 N 0.74997 0.07284 0.91252 0.0
C472 C 0.73914 0.19494 0.05023 0.0
C473 C 0.74889 0.11265 0.95943 0.0
N474 N 0.75828 0.16565 0.22829 0.0
N475 N 0.74976 0.15121 0.78783 0.0
H476 H 0.75304 0.04422 0.95711 0.0
H477 H 0.74351 0.06825 0.82985 0.0
H478 H 0.74646 0.1799 0.74324 0.0
H479 H 0.76499 0.12603 0.74882 0.0
H480 H 0.7532 0.19466 0.26793 0.0
H481 H 0.76817 0.14077 0.28018 0.0
H482 H 0.75208 0.24581 0.15966 0.0
H483 H 0.72913 0.26155 0.0325 0.0
C484 C 0.41389 0.70628 0.15551 0.0
C485 C 0.42075 0.75185 0.1552 0.0
C486 C 0.36232 0.75798 1.01609 0.0
C487 C 0.35598 0.71273 1.02077 0.0
N488 N 0.35977 0.65041 0.14105 0.0
N489 N 0.39036 0.82193 0.10061 0.0
C490 C 0.37518 0.68976 0.10918 0.0
C491 C 0.39126 0.77811 0.09214 0.0
N492 N 0.44591 0.67805 0.18565 0.0
N493 N 0.34187 0.7816 0.93653 0.0
H494 H 0.40884 0.8395 0.15766 0.0
H495 H 0.40884 0.8395 0.15766 0.0
H496 H 0.32005 0.76726 0.88069 0.0
H497 H 0.34669 0.81493 0.9283 0.0
H498 H 0.44185 0.6446 0.1794 0.0
H499 H 0.47803 0.68747 0.19974 0.0
H500 H 0.37325 0.63393 0.20792 0.0
H501 H 0.33038 0.63772 0.1118 0.0
C502 C 0.78089 0.42935 1.01725 0.0
C503 C 0.77751 0.42369 0.13158 0.0
C504 C 0.80027 0.3485 0.11167 0.0
C505 C 0.81436 0.35938 1.00758 0.0
N506 N 0.78783 0.39635 0.84556 0.0
N507 N 0.77834 0.37521 0.28609 0.0
C508 C 0.7938 0.39449 0.95498 0.0
C509 C 0.78442 0.38192 0.17826 0.0
N510 N 0.77436 0.46775 0.96487 0.0
N511 N 0.80841 0.30792 0.14932 0.0
H512 H 0.76529 0.39852 0.33564 0.0
H513 H 0.78795 0.34747 0.3277 0.0
H514 H 0.81996 0.28465 0.097 0.0
H515 H 0.80223 0.29703 0.22714 0.0
H516 H 0.76791 0.49681 1.00318 0.0
H517 H 0.76791 0.49681 1.00318 0.0
H518 H 0.79375 0.37018 0.79542 0.0
H519 H 0.79375 0.37018 0.79542 0.0
C520 C 0.0663 0.17845 0.12462 0.0
C521 C 0.05159 0.21863 0.08121 0.0
C522 C 0.04462 0.18323 0.89968 0.0
C523 C 0.05266 0.1415 0.94611 0.0
N524 N 0.07 0.10013 0.10876 0.0
N525 N 0.02497 0.25855 0.92558 0.0
C526 C 0.06399 0.13952 0.05997 0.0
C527 C 0.04086 0.22073 0.96778 0.0
N528 N 0.08208 0.17758 0.22932 0.0
N529 N 0.04213 0.18751 0.78936 0.0
H530 H 0.02429 0.28697 0.97069 0.0
H531 H 1.01058 0.26125 0.84831 0.0
H532 H 0.04605 0.16155 0.7372 0.0
H533 H 0.04064 0.21724 0.74939 0.0
H534 H 0.0973 0.15099 0.26524 0.0
H535 H 0.08355 0.2053 0.2772 0.0
H536 H 0.07303 0.09563 0.19231 0.0
H537 H 0.06866 0.07104 0.06695 0.0
C538 C 0.36239 0.03845 0.07344 0.0
C539 C 0.33291 1.00261 0.07078 0.0
C540 C 0.37641 0.97218 0.92207 0.0
C541 C 0.40374 1.00982 0.91724 0.0
N542 N 0.41187 0.08434 0.97364 0.0
N543 N 0.30599 0.94207 0.96597 0.0
C544 C 0.39348 0.04453 0.98881 0.0
C545 C 0.33808 0.97191 0.98607 0.0
N546 N 0.3622 0.06616 0.15895 0.0
N547 N 0.38832 0.93498 0.87276 0.0
H548 H 0.27723 0.94173 1.00804 0.0
H549 H 0.30585 0.9212 0.89994 0.0
H550 H 0.41766 0.93172 0.83494 0.0
H551 H 0.37178 0.9057 0.88196 0.0
H552 H 0.38601 0.08982 0.1724 0.0
H553 H 0.3403 0.06312 0.22104 0.0
H554 H 0.40317 0.11154 1.01692 0.0
H555 H 0.43157 0.09145 0.90884 0.0
C556 C 0.54311 0.32836 0.98112 0.0
C557 C 0.52183 0.32767 0.08184 0.0
C558 C 0.49707 0.40283 0.04138 0.0
C559 C 0.51668 0.40288 0.93726 0.0
N560 N 0.54812 0.35903 0.79993 0.0
N561 N 0.47166 0.36178 0.19725 0.0
C562 C 0.53681 0.36368 0.90523 0.0
C563 C 0.49647 0.36409 0.10782 0.0
N564 N 0.57044 0.29544 0.95837 0.0
N565 N 0.48134 0.4404 0.08147 0.0
H566 H 0.47124 0.33468 0.24807 0.0
H567 H 0.44859 0.38473 0.21531 0.0
H568 H 0.48094 0.46956 0.03932 0.0
H569 H 0.47211 0.44385 0.1613 0.0
H570 H 0.59172 0.29662 0.89474 0.0
H571 H 0.57393 0.2681 1.0078 0.0
H572 H 0.55987 0.33036 0.7693 0.0
H573 H 0.54105 0.382 0.73989 0.0
C574 C 0.20265 0.57673 0.03322 0.0
C575 C 0.21812 0.54129 0.09797 0.0
C576 C 0.16456 0.49463 0.99731 0.0
C577 C 0.145 0.53128 0.94503 0.0
N578 N 0.14182 0.60938 0.93615 0.0
N579 N 0.20657 0.46712 0.15267 0.0
C580 C 0.16331 0.57288 0.96859 0.0
C581 C 0.19727 0.50029 0.08244 0.0
N582 N 0.22578 0.61456 0.03281 0.0
N583 N 0.15289 0.45404 0.96374 0.0
H584 H 0.22883 0.47003 0.2176 0.0
H585 H 0.1891 0.43812 0.15282 0.0
H586 H 0.13068 0.4485 0.89967 0.0
H587 H 0.16873 0.42627 0.99123 0.0
H588 H 0.21838 0.64031 0.98081 0.0
H589 H 0.25496 0.61854 0.07657 0.0
H590 H 0.15097 0.64031 0.9616 0.0
H591 H 0.11209 0.60886 0.89428 0.0
C592 C 0.06424 0.83221 0.49916 0.0
C593 C 0.03138 0.82493 0.41658 0.0
C594 C 0.99339 0.88894 0.49016 0.0
C595 C 0.02946 0.89983 0.56159 0.0
N596 N 0.10249 0.88069 0.62164 0.0
N597 N 0.967 0.8523 0.32599 0.0
C598 C 0.06547 0.87098 0.56275 0.0
C599 C 0.99649 0.85487 0.41066 0.0
N600 N 0.09617 0.80278 0.51797 0.0
N601 N 0.95495 0.90955 0.50142 0.0
H602 H 0.96768 0.82814 0.26761 0.0
H603 H 0.94408 0.8761 0.30902 0.0
H604 H 0.95009 0.93209 0.56211 0.0
H605 H 0.9265 0.90052 0.4594 0.0
H606 H 0.09748 0.77298 0.479 0.0
H607 H 0.09748 0.77298 0.479 0.0
H608 H 0.10818 0.91038 0.65878 0.0
H609 H 0.12914 0.86018 0.62566 0.0
C610 C 0.68997 0.98349 0.38786 0.0
C611 C 0.71932 0.01939 0.38715 0.0
C612 C 0.67375 0.05358 0.52678 0.0
C613 C 0.64608 0.01627 0.53437 0.0
N614 N 0.63817 0.94059 0.48859 0.0
N615 N 0.74449 0.08279 0.48207 0.0
C616 C 0.65726 0.97979 0.46946 0.0
C617 C 0.71282 0.05229 0.46561 0.0
N618 N 0.69212 0.95326 0.3083 0.0
N619 N 0.66154 0.09179 0.57073 0.0
H620 H 0.77349 0.08175 0.44145 0.0
H621 H 0.74407 0.10551 0.54402 0.0
H622 H 0.63192 0.09597 0.60659 0.0
H623 H 0.67831 0.12078 0.55933 0.0
H624 H 0.6686 0.92925 0.29575 0.0
H625 H 0.71583 0.95423 0.25014 0.0
H626 H 0.64731 0.91224 0.45079 0.0
H627 H 0.61715 0.9353 0.55171 0.0
C628 C 0.52582 0.72789 0.54119 0.0
C629 C 0.53523 0.72541 0.4292 0.0
C630 C 0.54343 0.64622 0.45184 0.0
C631 C 0.53653 0.64851 0.56594 0.0
N632 N 0.53212 0.69524 0.72115 0.0
N633 N 0.56458 0.68315 0.28705 0.0
C634 C 0.53092 0.69052 0.61114 0.0
C635 C 0.5484 0.68494 0.38852 0.0
N636 N 0.51101 0.76591 0.58052 0.0
N637 N 0.54132 0.60724 0.40045 0.0
H638 H 0.5679 0.71051 0.23803 0.0
H639 H 0.57873 0.65552 0.25649 0.0
H640 H 0.53361 0.57846 0.4394 0.0
H641 H 0.54163 0.60407 0.31646 0.0
H642 H 0.49825 0.76886 0.65718 0.0
H643 H 0.50967 0.79407 0.53348 0.0
H644 H 0.53189 0.72523 0.75907 0.0
H645 H 0.53811 0.66957 0.77455 0.0
C646 C 0.86035 0.54558 0.39904 0.0
C647 C 0.82146 0.52482 0.4301 0.0
C648 C 0.85705 0.5098 0.61057 0.0
C649 C 0.89751 0.52646 0.57451 0.0
N650 N 0.93508 0.56057 0.42345 0.0
N651 N 0.78407 0.48341 0.56411 0.0
C652 C 0.89823 0.54471 0.4673 0.0
C653 C 0.82017 0.50617 0.53601 0.0
N654 N 0.86326 0.56524 0.30036 0.0
N655 N 0.85301 0.49945 0.71764 0.0
H656 H 0.75606 0.48211 0.51449 0.0
H657 H 0.78263 0.46402 0.63324 0.0
H658 H 0.87815 0.50342 0.77529 0.0
H659 H 0.82368 0.4911 0.75168 0.0
H660 H 0.83735 0.56796 0.24425 0.0
H661 H 0.83735 0.56796 0.24425 0.0
H662 H 0.96573 0.56013 0.46123 0.0
H663 H 0.96573 0.56013 0.46123 0.0
loop_
_geom_bond_atom_site_label_1
_geom_bond_atom_site_label_2
_geom_bond_distance
_geom_bond_site_symmetry_2
_ccdc_geom_bond_type
H0 C3 0.931 . S
H1 C6 0.928 . S
H2 C8 0.930 . S
C3 H0 0.931 . S
C3 C4 1.413 . S
C3 C5 1.360 . S
C4 C3 1.413 . S
C4 C8 1.429 . S
C5 C3 1.360 . S
C5 C6 1.372 . S
C6 H1 0.928 . S
C6 C5 1.372 . S
C6 C7 1.404 . S
C7 C6 1.404 . S
C7 C8 1.391 . S
C8 H2 0.930 . S
C8 C4 1.429 . S
C8 C7 1.391 . S
H9 C12 0.931 . S
H10 C15 0.928 . S
H11 C17 0.930 . S
C12 H9 0.931 . S
C12 C13 1.413 . S
C12 C14 1.360 . S
C13 C12 1.413 . S
C13 C17 1.429 . S
C14 C12 1.360 . S
C14 C15 1.372 . S
C15 H10 0.928 . S
C15 C14 1.372 . S
C15 C16 1.404 . S
C16 C15 1.404 . S
C16 C17 1.391 . S
C17 H11 0.930 . S
C17 C13 1.429 . S
C17 C16 1.391 . S
H18 C21 0.931 . S
H19 C24 0.928 . S
H20 C26 0.930 . S
C21 H18 0.931 . S
C21 C22 1.413 . S
C21 C23 1.360 . S
C22 C21 1.413 . S
C22 C26 1.429 . S
C23 C21 1.360 . S
C23 C24 1.372 . S
C24 H19 0.928 . S
C24 C23 1.372 . S
C24 C25 1.404 . S
C25 C24 1.404 . S
C25 C26 1.391 . S
C26 H20 0.930 . S
C26 C22 1.429 . S
C26 C25 1.391 . S
H27 C30 0.931 . S
H28 C33 0.928 . S
H29 C35 0.930 . S
C30 H27 0.931 . S
C30 C31 1.413 . S
C30 C32 1.360 . S
C31 C30 1.413 . S
C31 C35 1.429 . S
C32 C30 1.360 . S
C32 C33 1.372 . S
C33 H28 0.928 . S
C33 C32 1.372 . S
C33 C34 1.404 . S
C34 C33 1.404 . S
C34 C35 1.391 . S
C35 H29 0.930 . S
C35 C31 1.429 . S
C35 C34 1.391 . S
H36 C39 0.931 . S
H37 C42 0.928 . S
H38 C44 0.930 . S
C39 H36 0.931 . S
C39 C40 1.413 1_554 S
C39 C41 1.360 . S
C40 C39 1.413 1_556 S
C40 C44 1.429 . S
C41 C39 1.360 . S
C41 C42 1.372 . S
C42 H37 0.928 . S
C42 C41 1.372 . S
C42 C43 1.404 . S
C43 C42 1.404 . S
C43 C44 1.391 1_554 S
C44 H38 0.930 . S
C44 C40 1.429 . S
C44 C43 1.391 1_556 S
H45 C48 0.928 1_556 S
H46 C51 0.928 . S
H47 C53 0.930 . S
C48 H45 0.928 1_554 S
C48 C49 1.407 1_554 S
C48 C50 1.369 . S
C49 C48 1.407 1_556 S
C49 C53 1.429 . S
C50 C48 1.369 . S
C50 C51 1.372 . S
C51 H46 0.928 . S
C51 C50 1.372 . S
C51 C52 1.404 . S
C52 C51 1.404 . S
C52 C53 1.391 1_554 S
C53 H47 0.930 . S
C53 C49 1.429 . S
C53 C52 1.391 1_556 S
H54 C57 0.931 . S
H55 C60 0.928 . S
H56 C62 0.930 . S
C57 H54 0.931 . S
C57 C58 1.413 . S
C57 C59 1.360 1_556 S
C58 C57 1.413 . S
C58 C62 1.429 . S
C59 C57 1.360 1_554 S
C59 C60 1.372 . S
C60 H55 0.928 . S
C60 C59 1.372 . S
C60 C61 1.404 . S
C61 C60 1.404 . S
C61 C62 1.391 1_554 S
C62 H56 0.930 . S
C62 C58 1.429 . S
C62 C61 1.391 1_556 S
H63 C66 0.931 . S
H64 C69 0.928 . S
H65 C71 0.930 . S
C66 H63 0.931 . S
C66 C67 1.413 . S
C66 C68 1.360 1_554 S
C67 C66 1.413 . S
C67 C71 1.429 . S
C68 C66 1.360 1_556 S
C68 C69 1.372 . S
C69 H64 0.928 . S
C69 C68 1.372 . S
C69 C70 1.404 1_556 S
C70 C69 1.404 1_554 S
C70 C71 1.391 . S
C71 H65 0.930 . S
C71 C67 1.429 . S
C71 C70 1.391 . S
Eu72 C81 2.828 . S
Eu72 O83 2.392 . S
Eu72 O85 2.418 1_545 S
Eu72 O90 2.373 1_655 S
Eu72 O93 2.488 . S
Eu72 O94 2.471 . S
Eu72 O95 2.349 1_655 S
Eu73 O82 2.373 1_455 S
Eu73 O86 2.488 . S
Eu73 O87 2.471 . S
Eu73 O88 2.350 . S
Eu73 O91 2.392 1_565 S
Eu73 O92 2.418 1_565 S
Eu73 C102 2.828 . S
C74 O92 1.244 . S
C74 O95 1.265 . S
C75 C76 1.379 . S
C75 C79 1.373 . S
C75 C81 1.505 . S
C76 C75 1.379 . S
C76 C78 1.369 . S
C76 H104 0.930 1_655 S
C77 C79 1.383 . S
C77 C80 1.382 . S
C77 H105 0.930 . S
C78 C76 1.369 . S
C78 C80 1.392 . S
C78 H106 0.930 1_655 S
C79 C75 1.373 . S
C79 C77 1.383 . S
C79 H107 0.931 . S
C80 C77 1.382 . S
C80 C78 1.392 . S
C81 Eu72 2.828 . S
C81 C75 1.505 . S
C81 O93 1.249 . S
C81 O94 1.244 . S
O82 Eu73 2.373 1_655 S
O82 C84 1.258 . S
O83 Eu72 2.392 . S
O83 C84 1.242 1_545 S
C84 O82 1.258 . S
C84 O83 1.242 1_565 S
O85 Eu72 2.418 1_565 S
O85 C89 1.244 . S
O86 Eu73 2.488 . S
O86 C102 1.249 . S
O87 Eu73 2.471 . S
O87 C102 1.244 . S
O88 Eu73 2.350 . S
O88 C89 1.264 1_455 S
C89 O85 1.244 . S
C89 O88 1.264 1_655 S
O90 Eu72 2.373 1_455 S
O90 C103 1.258 . S
O91 Eu73 2.392 1_545 S
O91 C103 1.242 . S
O92 Eu73 2.418 1_545 S
O92 C74 1.244 . S
O93 Eu72 2.488 . S
O93 C81 1.249 . S
O94 Eu72 2.471 . S
O94 C81 1.244 . S
O95 Eu72 2.349 1_455 S
O95 C74 1.265 . S
C96 C97 1.379 . S
C96 C100 1.373 . S
C96 C102 1.505 1_554 S
C97 C96 1.379 . S
C97 C99 1.369 . S
C97 H108 0.930 . S
C98 C100 1.383 . S
C98 C101 1.382 . S
C98 H109 0.930 . S
C99 C97 1.369 . S
C99 C101 1.392 . S
C99 H110 0.930 . S
C100 C96 1.373 . S
C100 C98 1.383 . S
C100 H111 0.931 . S
C101 C98 1.382 . S
C101 C99 1.392 . S
C102 Eu73 2.828 . S
C102 O86 1.249 . S
C102 O87 1.244 . S
C102 C96 1.505 1_556 S
C103 O90 1.258 . S
C103 O91 1.242 . S
H104 C76 0.930 1_455 S
H105 C77 0.930 . S
H106 C78 0.930 1_455 S
H107 C79 0.931 . S
H108 C97 0.930 . S
H109 C98 0.930 . S
H110 C99 0.930 . S
H111 C100 0.931 . S
Eu112 C121 2.828 . S
Eu112 O123 2.392 . S
Eu112 O125 2.418 . S
Eu112 O130 2.373 . S
Eu112 O133 2.488 . S
Eu112 O134 2.471 . S
Eu112 O135 2.349 1_545 S
Eu113 O122 2.361 1_565 S
Eu113 O126 2.488 . S
Eu113 O127 2.471 . S
Eu113 O128 2.349 1_565 S
Eu113 O131 2.392 . S
Eu113 O132 2.418 . S
Eu113 C142 2.828 . S
C114 O132 1.244 . S
C114 O135 1.265 . S
C115 C116 1.379 1_556 S
C115 C119 1.373 . S
C115 C121 1.505 . S
C116 C115 1.379 1_554 S
C116 C118 1.369 . S
C116 H144 0.930 1_545 S
C117 C119 1.383 1_554 S
C117 C120 1.382 . S
C117 H145 0.930 . S
C118 C116 1.369 . S
C118 C120 1.392 . S
C118 H146 0.930 1_545 S
C119 C115 1.373 . S
C119 C117 1.383 1_556 S
C119 H147 0.931 . S
C120 C117 1.382 . S
C120 C118 1.392 . S
C121 Eu112 2.828 . S
C121 C115 1.505 . S
C121 O133 1.249 . S
C121 O134 1.244 . S
O122 Eu113 2.361 1_545 S
O122 C124 1.278 . S
O123 Eu112 2.392 . S
O123 C124 1.242 . S
C124 O122 1.278 . S
C124 O123 1.242 . S
O125 Eu112 2.418 . S
O125 C129 1.244 . S
O126 Eu113 2.488 . S
O126 C142 1.249 . S
O127 Eu113 2.471 . S
O127 C142 1.244 . S
O128 Eu113 2.349 1_545 S
O128 C129 1.265 . S
C129 O125 1.244 . S
C129 O128 1.265 . S
O130 Eu112 2.373 . S
O130 C143 1.258 1_545 S
O131 Eu113 2.392 . S
O131 C143 1.242 . S
O132 Eu113 2.418 . S
O132 C114 1.244 . S
O133 Eu112 2.488 . S
O133 C121 1.249 . S
O134 Eu112 2.471 . S
O134 C121 1.244 . S
O135 Eu112 2.349 1_565 S
O135 C114 1.265 . S
C136 C137 1.379 . S
C136 C140 1.373 . S
C136 C142 1.505 . S
C137 C136 1.379 . S
C137 C139 1.369 . S
C137 H148 0.930 1_565 S
C138 C140 1.383 . S
C138 C141 1.382 . S
C138 H149 0.930 . S
C139 C137 1.369 . S
C139 C141 1.392 . S
C139 H150 0.930 1_565 S
C140 C136 1.373 . S
C140 C138 1.383 . S
C140 H151 0.931 . S
C141 C138 1.382 . S
C141 C139 1.392 . S
C142 Eu113 2.828 . S
C142 O126 1.249 . S
C142 O127 1.244 . S
C142 C136 1.505 . S
C143 O130 1.258 1_565 S
C143 O131 1.242 . S
H144 C116 0.930 1_565 S
H145 C117 0.930 . S
H146 C118 0.930 1_565 S
H147 C119 0.931 . S
H148 C137 0.930 1_545 S
H149 C138 0.930 . S
H150 C139 0.930 1_545 S
H151 C140 0.931 . S
Eu152 C161 2.828 . S
Eu152 O163 2.392 . S
Eu152 O165 2.418 . S
Eu152 O170 2.373 . S
Eu152 O173 2.488 . S
Eu152 O174 2.471 . S
Eu152 O175 2.349 . S
Eu153 O162 2.373 . S
Eu153 O166 2.488 . S
Eu153 O167 2.471 . S
Eu153 O168 2.349 . S
Eu153 O171 2.392 . S
Eu153 O172 2.418 . S
Eu153 C182 2.828 . S
C154 O172 1.244 . S
C154 O175 1.265 . S
C155 C156 1.379 1_556 S
C155 C159 1.373 . S
C155 C161 1.505 . S
C156 C155 1.379 1_554 S
C156 C158 1.369 . S
C156 H184 0.930 . S
C157 C159 1.383 1_554 S
C157 C160 1.382 . S
C157 H185 0.930 . S
C158 C156 1.369 . S
C158 C160 1.392 . S
C158 H186 0.930 . S
C159 C155 1.373 . S
C159 C157 1.383 1_556 S
C159 H187 0.931 . S
C160 C157 1.382 . S
C160 C158 1.392 . S
C161 Eu152 2.828 . S
C161 C155 1.505 . S
C161 O173 1.249 . S
C161 O174 1.244 . S
O162 Eu153 2.373 . S
O162 C164 1.258 . S
O163 Eu152 2.392 . S
O163 C164 1.242 . S
C164 O162 1.258 . S
C164 O163 1.242 . S
O165 Eu152 2.418 . S
O165 C169 1.244 . S
O166 Eu153 2.488 . S
O166 C182 1.249 . S
O167 Eu153 2.471 . S
O167 C182 1.244 . S
O168 Eu153 2.349 . S
O168 C169 1.265 . S
C169 O165 1.244 . S
C169 O168 1.265 . S
O170 Eu152 2.373 . S
O170 C183 1.258 . S
O171 Eu153 2.392 . S
O171 C183 1.242 . S
O172 Eu153 2.418 . S
O172 C154 1.244 . S
O173 Eu152 2.488 . S
O173 C161 1.249 . S
O174 Eu152 2.471 . S
O174 C161 1.244 . S
O175 Eu152 2.349 . S
O175 C154 1.265 . S
C176 C177 1.379 . S
C176 C180 1.373 . S
C176 C182 1.505 . S
C177 C176 1.379 . S
C177 C179 1.369 . S
C177 H188 0.930 . S
C178 C180 1.383 . S
C178 C181 1.382 . S
C178 H189 0.930 . S
C179 C177 1.369 . S
C179 C181 1.392 . S
C179 H190 0.930 . S
C180 C176 1.373 . S
C180 C178 1.383 . S
C180 H191 0.931 . S
C181 C178 1.382 . S
C181 C179 1.392 . S
C182 Eu153 2.828 . S
C182 O166 1.249 . S
C182 O167 1.244 . S
C182 C176 1.505 . S
C183 O170 1.258 . S
C183 O171 1.242 . S
H184 C156 0.930 . S
H185 C157 0.930 . S
H186 C158 0.930 . S
H187 C159 0.931 . S
H188 C177 0.930 . S
H189 C178 0.930 . S
H190 C179 0.930 . S
H191 C180 0.931 . S
Eu192 C201 2.828 . S
Eu192 O203 2.392 . S
Eu192 O205 2.418 1_455 S
Eu192 O210 2.373 . S
Eu192 O213 2.488 . S
Eu192 O214 2.471 . S
Eu192 O215 2.349 . S
Eu193 O202 2.373 . S
Eu193 O206 2.488 . S
Eu193 O207 2.471 . S
Eu193 O208 2.349 . S
Eu193 O211 2.392 1_655 S
Eu193 O212 2.418 1_655 S
Eu193 C222 2.828 . S
C194 O212 1.244 . S
C194 O215 1.265 . S
C195 C196 1.379 . S
C195 C199 1.373 . S
C195 C201 1.505 . S
C196 C195 1.379 . S
C196 C198 1.369 . S
C196 H224 0.930 . S
C197 C199 1.383 . S
C197 C200 1.382 . S
C197 H225 0.930 . S
C198 C196 1.369 . S
C198 C200 1.392 . S
C198 H226 0.930 . S
C199 C195 1.373 . S
C199 C197 1.383 . S
C199 H227 0.931 . S
C200 C197 1.382 . S
C200 C198 1.392 . S
C201 Eu192 2.828 . S
C201 C195 1.505 . S
C201 O213 1.249 . S
C201 O214 1.244 . S
O202 Eu193 2.373 . S
O202 C204 1.258 . S
O203 Eu192 2.392 . S
O203 C204 1.242 1_455 S
C204 O202 1.258 . S
C204 O203 1.242 1_655 S
O205 Eu192 2.418 1_655 S
O205 C209 1.244 . S
O206 Eu193 2.488 . S
O206 C222 1.249 . S
O207 Eu193 2.471 . S
O207 C222 1.244 . S
O208 Eu193 2.349 . S
O208 C209 1.265 . S
C209 O205 1.244 . S
C209 O208 1.265 . S
O210 Eu192 2.373 . S
O210 C223 1.258 . S
O211 Eu193 2.392 1_455 S
O211 C223 1.242 . S
O212 Eu193 2.418 1_455 S
O212 C194 1.244 . S
O213 Eu192 2.488 . S
O213 C201 1.249 . S
O214 Eu192 2.471 . S
O214 C201 1.244 . S
O215 Eu192 2.349 . S
O215 C194 1.265 . S
C216 C217 1.379 . S
C216 C220 1.373 . S
C216 C222 1.505 1_554 S
C217 C216 1.379 . S
C217 C219 1.369 . S
C217 H228 0.930 1_554 S
C218 C220 1.383 . S
C218 C221 1.382 . S
C218 H229 0.930 . S
C219 C217 1.369 . S
C219 C221 1.392 . S
C219 H230 0.930 . S
C220 C216 1.373 . S
C220 C218 1.383 . S
C220 H231 0.931 . S
C221 C218 1.382 . S
C221 C219 1.392 . S
C222 Eu193 2.828 . S
C222 O206 1.249 . S
C222 O207 1.244 . S
C222 C216 1.505 1_556 S
C223 O210 1.258 . S
C223 O211 1.242 . S
H224 C196 0.930 . S
H225 C197 0.930 . S
H226 C198 0.930 . S
H227 C199 0.931 . S
H228 C217 0.930 1_556 S
H229 C218 0.930 . S
H230 C219 0.930 . S
H231 C220 0.931 . S
C232 C233 1.363 1_565 S
C232 C238 1.379 . S
C232 N240 1.356 . S
C233 C232 1.363 1_545 S
C233 C239 1.363 . S
C234 C235 1.363 . S
C234 C239 1.379 . S
C234 N241 1.356 . S
C235 C234 1.363 . S
C235 C238 1.363 1_545 S
N236 C238 1.356 . S
N236 H248 0.984 . S
N236 H249 0.985 . S
N237 C239 1.356 . S
N237 H242 0.984 . S
N237 H243 0.985 . S
C238 C232 1.379 . S
C238 C235 1.363 1_565 S
C238 N236 1.356 . S
C239 C233 1.363 . S
C239 C234 1.379 . S
C239 N237 1.356 . S
N240 C232 1.356 . S
N240 H246 0.984 . S
N240 H247 0.984 . S
N241 C234 1.356 . S
N241 H244 0.984 . S
N241 H245 0.985 . S
H242 N237 0.984 . S
H243 N237 0.985 . S
H244 N241 0.984 . S
H245 N241 0.985 . S
H246 N240 0.984 . S
H247 N240 0.984 . S
H248 N236 0.984 . S
H249 N236 0.985 . S
C250 C251 1.363 . S
C250 C256 1.379 . S
C250 N258 1.356 . S
C251 C250 1.363 . S
C251 C257 1.363 . S
C252 C253 1.363 . S
C252 C257 1.379 . S
C252 N259 1.356 . S
C253 C252 1.363 . S
C253 C256 1.363 . S
N254 C256 1.356 . S
N254 H266 0.984 . S
N254 H267 0.985 . S
N255 C257 1.356 . S
N255 H260 0.984 . S
N255 H261 0.985 . S
C256 C250 1.379 . S
C256 C253 1.363 . S
C256 N254 1.356 . S
C257 C251 1.363 . S
C257 C252 1.379 . S
C257 N255 1.356 . S
N258 C250 1.356 . S
N258 H264 0.984 . S
N258 H265 0.984 . S
N259 C252 1.356 . S
N259 H262 0.984 . S
N259 H263 0.985 . S
H260 N255 0.984 . S
H261 N255 0.985 . S
H262 N259 0.984 . S
H263 N259 0.985 . S
H264 N258 0.984 . S
H265 N258 0.984 . S
H266 N254 0.984 . S
H267 N254 0.985 . S
C268 C269 1.363 . S
C268 C274 1.379 . S
C268 N276 1.356 . S
C269 C268 1.363 . S
C269 C275 1.363 . S
C270 C271 1.363 . S
C270 C275 1.379 . S
C270 N277 1.356 . S
C271 C270 1.363 . S
C271 C274 1.363 . S
N272 C274 1.356 . S
N272 H284 0.984 . S
N272 H285 0.985 . S
N273 C275 1.356 . S
N273 H278 0.984 . S
N273 H279 0.985 . S
C274 C268 1.379 . S
C274 C271 1.363 . S
C274 N272 1.356 . S
C275 C269 1.363 . S
C275 C270 1.379 . S
C275 N273 1.356 . S
N276 C268 1.356 . S
N276 H282 0.984 . S
N276 H283 0.984 . S
N277 C270 1.356 . S
N277 H280 0.984 . S
N277 H281 0.985 . S
H278 N273 0.984 . S
H279 N273 0.985 . S
H280 N277 0.984 . S
H281 N277 0.985 . S
H282 N276 0.984 . S
H283 N276 0.984 . S
H284 N272 0.984 . S
H285 N272 0.985 . S
C286 C287 1.363 . S
C286 C292 1.379 . S
C286 N294 1.356 1_455 S
C287 C286 1.363 . S
C287 C293 1.363 . S
C288 C289 1.363 . S
C288 C293 1.379 . S
C288 N295 1.356 . S
C289 C288 1.363 . S
C289 C292 1.363 . S
N290 C292 1.356 1_655 S
N290 H302 0.984 . S
N290 H303 0.985 . S
N291 C293 1.356 . S
N291 H296 0.984 . S
N291 H297 0.985 . S
C292 C286 1.379 . S
C292 C289 1.363 . S
C292 N290 1.356 1_455 S
C293 C287 1.363 . S
C293 C288 1.379 . S
C293 N291 1.356 . S
N294 C286 1.356 1_655 S
N294 H300 0.984 . S
N294 H301 0.992 . S
N295 C288 1.356 . S
N295 H298 0.984 . S
N295 H299 0.985 . S
H296 N291 0.984 . S
H297 N291 0.985 . S
H298 N295 0.984 . S
H299 N295 0.985 . S
H300 N294 0.984 . S
H301 N294 0.992 . S
H302 N290 0.984 . S
H303 N290 0.985 . S
C304 C305 1.363 1_545 S
C304 C310 1.379 . S
C304 N312 1.356 . S
C305 C304 1.363 1_565 S
C305 C311 1.363 . S
C306 C307 1.363 . S
C306 C311 1.379 . S
C306 N313 1.356 . S
C307 C306 1.363 . S
C307 C310 1.363 1_565 S
N308 C310 1.356 . S
N308 H320 0.984 . S
N308 H321 0.985 1_554 S
N309 C311 1.356 . S
N309 H314 0.984 . S
N309 H315 0.985 . S
C310 C304 1.379 . S
C310 C307 1.363 1_545 S
C310 N308 1.356 . S
C311 C305 1.363 . S
C311 C306 1.379 . S
C311 N309 1.356 . S
N312 C304 1.356 . S
N312 H318 0.984 . S
N312 H319 0.984 . S
N313 C306 1.356 . S
N313 H316 0.984 1_554 S
N313 H317 0.985 . S
H314 N309 0.984 . S
H315 N309 0.985 . S
H316 N313 0.984 1_556 S
H317 N313 0.985 . S
H318 N312 0.984 . S
H319 N312 0.984 . S
H320 N308 0.984 . S
H321 N308 0.985 1_556 S
C322 C323 1.363 . S
C322 C328 1.379 . S
C322 N330 1.356 . S
C323 C322 1.363 . S
C323 C329 1.363 . S
C324 C325 1.363 . S
C324 C329 1.379 . S
C324 N331 1.356 1_554 S
C325 C324 1.363 . S
C325 C328 1.363 . S
N326 C328 1.356 1_556 S
N326 H338 0.984 1_556 S
N326 H339 0.985 . S
N327 C329 1.356 . S
N327 H332 0.984 . S
N327 H333 0.985 . S
C328 C322 1.379 . S
C328 C325 1.363 . S
C328 N326 1.356 1_554 S
C329 C323 1.363 . S
C329 C324 1.379 . S
C329 N327 1.356 . S
N330 C322 1.356 . S
N330 H336 0.984 . S
N330 H337 0.984 . S
N331 C324 1.356 1_556 S
N331 H334 0.984 . S
N331 H335 0.985 . S
H332 N327 0.984 . S
H333 N327 0.985 . S
H334 N331 0.984 . S
H335 N331 0.985 . S
H336 N330 0.984 . S
H337 N330 0.984 . S
H338 N326 0.984 1_554 S
H339 N326 0.985 . S
C340 C341 1.363 . S
C340 C346 1.379 . S
C340 N348 1.356 . S
C341 C340 1.363 . S
C341 C347 1.363 . S
C342 C343 1.363 . S
C342 C347 1.379 . S
C342 N349 1.356 . S
C343 C342 1.363 . S
C343 C346 1.363 . S
N344 C346 1.356 1_556 S
N344 H356 0.984 . S
N344 H357 0.985 . S
N345 C347 1.356 . S
N345 H350 0.984 . S
N345 H351 0.985 . S
C346 C340 1.379 . S
C346 C343 1.363 . S
C346 N344 1.356 1_554 S
C347 C341 1.363 . S
C347 C342 1.379 . S
C347 N345 1.356 . S
N348 C340 1.356 . S
N348 H354 0.984 . S
N348 H355 0.984 . S
N349 C342 1.356 . S
N349 H352 0.984 1_554 S
N349 H353 0.985 . S
H350 N345 0.984 . S
H351 N345 0.985 . S
H352 N349 0.984 1_556 S
H353 N349 0.985 . S
H354 N348 0.984 . S
H355 N348 0.984 . S
H356 N344 0.984 . S
H357 N344 0.985 . S
C358 C359 1.363 . S
C358 C364 1.377 1_655 S
C358 N366 1.356 1_655 S
C359 C358 1.363 . S
C359 C365 1.363 . S
C360 C361 1.363 . S
C360 C365 1.379 . S
C360 N367 1.356 1_554 S
C361 C360 1.363 . S
C361 C364 1.358 1_655 S
N362 C364 1.362 . S
N362 H374 0.984 . S
N362 H375 0.985 1_554 S
N363 C365 1.356 . S
N363 H368 0.984 . S
N363 H369 0.985 . S
C364 C358 1.377 1_455 S
C364 C361 1.358 1_455 S
C364 N362 1.362 . S
C365 C359 1.363 . S
C365 C360 1.379 . S
C365 N363 1.356 . S
N366 C358 1.356 1_455 S
N366 H372 0.984 . S
N366 H373 0.984 . S
N367 C360 1.356 1_556 S
N367 H370 0.984 . S
N367 H371 0.985 . S
H368 N363 0.984 . S
H369 N363 0.985 . S
H370 N367 0.984 . S
H371 N367 0.985 . S
H372 N366 0.984 . S
H373 N366 0.984 . S
H374 N362 0.984 . S
H375 N362 0.985 1_556 S
C376 C377 1.363 . S
C376 C382 1.379 . S
C376 N384 1.356 . S
C377 C376 1.363 . S
C377 C383 1.363 . S
C378 C379 1.363 . S
C378 C383 1.379 1_655 S
C378 N385 1.356 . S
C379 C378 1.363 . S
C379 C382 1.363 1_655 S
N380 C382 1.357 . S
N380 H392 0.986 . S
N380 H393 0.983 1_455 S
N381 C383 1.356 . S
N381 H386 0.984 . S
N381 H387 0.980 1_454 S
C382 C376 1.379 . S
C382 C379 1.363 1_455 S
C382 N380 1.357 . S
C383 C377 1.363 . S
C383 C378 1.379 1_455 S
C383 N381 1.356 . S
N384 C376 1.356 . S
N384 H390 0.984 . S
N384 H391 0.984 . S
N385 C378 1.356 . S
N385 H388 0.984 . S
N385 H389 0.985 1_554 S
H386 N381 0.984 . S
H387 N381 0.980 1_656 S
H388 N385 0.984 . S
H389 N385 0.985 1_556 S
H390 N384 0.984 . S
H391 N384 0.984 . S
H392 N380 0.986 . S
H393 N380 0.983 1_655 S
C394 C395 1.363 . S
C394 C400 1.376 1_545 S
C394 N402 1.356 . S
C395 C394 1.363 . S
C395 C401 1.363 1_545 S
C396 C397 1.363 . S
C396 C401 1.379 . S
C396 N403 1.356 . S
C397 C396 1.363 . S
C397 C400 1.367 . S
N398 C400 1.357 . S
N398 H410 0.984 1_565 S
N398 H411 0.985 . S
N399 C401 1.356 . S
N399 H404 0.984 1_565 S
N399 H405 0.985 . S
C400 C394 1.376 1_565 S
C400 C397 1.367 . S
C400 N398 1.357 . S
C401 C395 1.363 1_565 S
C401 C396 1.379 . S
C401 N399 1.356 . S
N402 C394 1.356 . S
N402 H408 0.984 . S
N402 H409 0.984 . S
N403 C396 1.356 . S
N403 H406 0.984 . S
N403 H407 0.985 . S
H404 N399 0.984 1_545 S
H405 N399 0.985 . S
H406 N403 0.984 . S
H407 N403 0.985 . S
H408 N402 0.984 . S
H409 N402 0.984 . S
H410 N398 0.984 1_545 S
H411 N398 0.985 . S
C412 C413 1.363 . S
C412 C418 1.379 . S
C412 N420 1.356 . S
C413 C412 1.363 . S
C413 C419 1.363 . S
C414 C415 1.363 . S
C414 C419 1.379 . S
C414 N421 1.356 . S
C415 C414 1.363 . S
C415 C418 1.363 . S
N416 C418 1.356 . S
N416 H428 0.984 . S
N416 H429 0.985 . S
N417 C419 1.356 . S
N417 H422 0.984 . S
N417 H423 0.985 . S
C418 C412 1.379 . S
C418 C415 1.363 . S
C418 N416 1.356 . S
C419 C413 1.363 . S
C419 C414 1.379 . S
C419 N417 1.356 . S
N420 C412 1.356 . S
N420 H426 0.984 . S
N420 H427 0.984 . S
N421 C414 1.356 . S
N421 H424 0.984 . S
N421 H425 0.985 . S
H422 N417 0.984 . S
H423 N417 0.985 . S
H424 N421 0.984 . S
H425 N421 0.985 . S
H426 N420 0.984 . S
H427 N420 0.984 . S
H428 N416 0.984 . S
H429 N416 0.985 . S
C430 C431 1.363 . S
C430 C436 1.379 . S
C430 N438 1.356 . S
C431 C430 1.363 . S
C431 C437 1.363 . S
C432 C433 1.363 . S
C432 C437 1.379 . S
C432 N439 1.356 . S
C433 C432 1.363 . S
C433 C436 1.363 . S
N434 C436 1.356 . S
N434 H446 0.984 1_554 S
N434 H447 0.985 . S
N435 C437 1.356 . S
N435 H440 0.984 . S
N435 H441 0.985 . S
C436 C430 1.379 . S
C436 C433 1.363 . S
C436 N434 1.356 . S
C437 C431 1.363 . S
C437 C432 1.379 . S
C437 N435 1.356 . S
N438 C430 1.356 . S
N438 H444 0.984 1_554 S
N438 H445 0.984 . S
N439 C432 1.356 . S
N439 H442 0.984 . S
N439 H443 0.985 . S
H440 N435 0.984 . S
H441 N435 0.985 . S
H442 N439 0.984 . S
H443 N439 0.985 . S
H444 N438 0.984 1_556 S
H445 N438 0.984 . S
H446 N434 0.984 1_556 S
H447 N434 0.985 . S
C448 C449 1.363 . S
C448 C454 1.379 1_655 S
C448 N456 1.356 . S
C449 C448 1.363 . S
C449 C455 1.363 1_655 S
C450 C451 1.363 . S
C450 C455 1.379 . S
C450 N457 1.356 . S
C451 C450 1.363 . S
C451 C454 1.363 . S
N452 C454 1.356 . S
N452 H464 0.984 . S
N452 H465 0.985 . S
N453 C455 1.356 1_655 S
N453 H458 0.984 . S
N453 H459 0.985 1_655 S
C454 C448 1.379 1_455 S
C454 C451 1.363 . S
C454 N452 1.356 . S
C455 C449 1.363 1_455 S
C455 C450 1.379 . S
C455 N453 1.356 1_455 S
N456 C448 1.356 . S
N456 H462 0.984 . S
N456 H463 0.984 . S
N457 C450 1.356 . S
N457 H460 0.984 . S
N457 H461 0.985 . S
H458 N453 0.984 . S
H459 N453 0.985 1_455 S
H460 N457 0.984 . S
H461 N457 0.985 . S
H462 N456 0.984 . S
H463 N456 0.984 . S
H464 N452 0.984 . S
H465 N452 0.985 . S
C466 C467 1.363 1_545 S
C466 C472 1.379 . S
C466 N474 1.356 . S
C467 C466 1.363 1_565 S
C467 C473 1.363 . S
C468 C469 1.363 . S
C468 C473 1.379 1_545 S
C468 N475 1.356 . S
C469 C468 1.363 . S
C469 C472 1.363 . S
N470 C472 1.356 . S
N470 H482 0.984 . S
N470 H483 0.985 . S
N471 C473 1.356 . S
N471 H476 0.984 . S
N471 H477 0.985 . S
C472 C466 1.379 . S
C472 C469 1.363 . S
C472 N470 1.356 . S
C473 C467 1.363 . S
C473 C468 1.379 1_565 S
C473 N471 1.356 . S
N474 C466 1.356 . S
N474 H480 0.984 . S
N474 H481 0.984 1_545 S
N475 C468 1.356 . S
N475 H478 0.984 1_554 S
N475 H479 0.985 1_554 S
H476 N471 0.984 . S
H477 N471 0.985 . S
H478 N475 0.984 1_556 S
H479 N475 0.985 1_556 S
H480 N474 0.984 . S
H481 N474 0.984 1_565 S
H482 N470 0.984 . S
H483 N470 0.985 . S
C484 C485 1.363 . S
C484 C490 1.379 . S
C484 N492 1.356 . S
C485 C484 1.363 . S
C485 C491 1.363 . S
C486 C487 1.363 . S
C486 C491 1.379 . S
C486 N493 1.356 . S
C487 C486 1.363 . S
C487 C490 1.363 . S
N488 C490 1.356 . S
N488 H500 0.984 . S
N488 H501 0.985 . S
N489 C491 1.356 . S
N489 H494 0.984 . S
N489 H495 0.985 . S
C490 C484 1.379 . S
C490 C487 1.363 . S
C490 N488 1.356 . S
C491 C485 1.363 . S
C491 C486 1.379 . S
C491 N489 1.356 . S
N492 C484 1.356 . S
N492 H498 0.984 . S
N492 H499 0.984 . S
N493 C486 1.356 . S
N493 H496 0.984 1_554 S
N493 H497 0.985 . S
H494 N489 0.984 . S
H495 N489 0.985 . S
H496 N493 0.984 1_556 S
H497 N493 0.985 . S
H498 N492 0.984 . S
H499 N492 0.984 . S
H500 N488 0.984 . S
H501 N488 0.985 . S
C502 C503 1.363 . S
C502 C508 1.379 . S
C502 N510 1.356 . S
C503 C502 1.363 . S
C503 C509 1.363 . S
C504 C505 1.363 . S
C504 C509 1.379 . S
C504 N511 1.356 . S
C505 C504 1.363 . S
C505 C508 1.363 . S
N506 C508 1.356 . S
N506 H518 0.984 . S
N506 H519 0.985 . S
N507 C509 1.356 . S
N507 H512 0.984 . S
N507 H513 0.985 . S
C508 C502 1.379 . S
C508 C505 1.363 . S
C508 N506 1.356 . S
C509 C503 1.363 . S
C509 C504 1.379 . S
C509 N507 1.356 . S
N510 C502 1.356 . S
N510 H516 0.984 . S
N510 H517 0.984 . S
N511 C504 1.356 . S
N511 H514 0.984 . S
N511 H515 0.985 . S
H512 N507 0.984 . S
H513 N507 0.985 . S
H514 N511 0.984 . S
H515 N511 0.985 . S
H516 N510 0.984 . S
H517 N510 0.984 . S
H518 N506 0.984 . S
H519 N506 0.985 . S
C520 C521 1.363 . S
C520 C526 1.379 . S
C520 N528 1.356 . S
C521 C520 1.363 . S
C521 C527 1.363 . S
C522 C523 1.363 . S
C522 C527 1.379 . S
C522 N529 1.349 1_455 S
C523 C522 1.363 . S
C523 C526 1.363 . S
N524 C526 1.356 . S
N524 H536 0.984 1_556 S
N524 H537 0.985 . S
N525 C527 1.356 . S
N525 H530 0.984 . S
N525 H531 0.985 1_455 S
C526 C520 1.379 . S
C526 C523 1.363 . S
C526 N524 1.356 . S
C527 C521 1.363 . S
C527 C522 1.379 . S
C527 N525 1.356 . S
N528 C520 1.356 . S
N528 H534 0.984 1_556 S
N528 H535 0.984 . S
N529 C522 1.349 1_655 S
N529 H532 0.982 1_655 S
N529 H533 0.994 . S
H530 N525 0.984 . S
H531 N525 0.985 1_655 S
H532 N529 0.982 1_455 S
H533 N529 0.994 . S
H534 N528 0.984 1_554 S
H535 N528 0.984 . S
H536 N524 0.984 1_554 S
H537 N524 0.985 . S
C538 C539 1.363 . S
C538 C544 1.379 . S
C538 N546 1.356 . S
C539 C538 1.363 . S
C539 C545 1.363 . S
C540 C541 1.363 . S
C540 C545 1.379 . S
C540 N547 1.356 1_545 S
C541 C540 1.363 . S
C541 C544 1.363 . S
N542 C544 1.356 . S
N542 H554 0.984 . S
N542 H555 0.985 . S
N543 C545 1.356 1_565 S
N543 H548 0.984 . S
N543 H549 0.985 . S
C544 C538 1.379 . S
C544 C541 1.363 . S
C544 N542 1.356 . S
C545 C539 1.363 . S
C545 C540 1.379 . S
C545 N543 1.356 1_545 S
N546 C538 1.356 . S
N546 H552 0.984 . S
N546 H553 0.984 . S
N547 C540 1.356 1_565 S
N547 H550 0.984 . S
N547 H551 0.985 . S
H548 N543 0.984 . S
H549 N543 0.985 . S
H550 N547 0.984 . S
H551 N547 0.985 . S
H552 N546 0.984 . S
H553 N546 0.984 . S
H554 N542 0.984 . S
H555 N542 0.985 . S
C556 C557 1.363 . S
C556 C562 1.379 . S
C556 N564 1.356 . S
C557 C556 1.363 . S
C557 C563 1.363 . S
C558 C559 1.363 . S
C558 C563 1.379 . S
C558 N565 1.356 . S
C559 C558 1.363 . S
C559 C562 1.363 . S
N560 C562 1.356 . S
N560 H572 0.984 . S
N560 H573 0.985 . S
N561 C563 1.356 1_554 S
N561 H566 0.984 . S
N561 H567 0.985 . S
C562 C556 1.379 . S
C562 C559 1.363 . S
C562 N560 1.356 . S
C563 C557 1.363 . S
C563 C558 1.379 . S
C563 N561 1.356 1_556 S
N564 C556 1.356 . S
N564 H570 0.984 . S
N564 H571 0.984 . S
N565 C558 1.356 . S
N565 H568 0.984 . S
N565 H569 0.985 1_556 S
H566 N561 0.984 . S
H567 N561 0.985 . S
H568 N565 0.984 . S
H569 N565 0.985 1_554 S
H570 N564 0.984 . S
H571 N564 0.984 . S
H572 N560 0.984 . S
H573 N560 0.985 . S
C574 C575 1.363 . S
C574 C580 1.379 . S
C574 N582 1.356 . S
C575 C574 1.363 . S
C575 C581 1.363 . S
C576 C577 1.363 . S
C576 C581 1.379 . S
C576 N583 1.356 . S
C577 C576 1.363 . S
C577 C580 1.363 . S
N578 C580 1.356 . S
N578 H590 0.984 . S
N578 H591 0.985 . S
N579 C581 1.356 . S
N579 H584 0.984 . S
N579 H585 0.985 . S
C580 C574 1.379 . S
C580 C577 1.363 . S
C580 N578 1.356 . S
C581 C575 1.363 . S
C581 C576 1.379 . S
C581 N579 1.356 . S
N582 C574 1.356 . S
N582 H588 0.984 1_556 S
N582 H589 0.984 . S
N583 C576 1.356 . S
N583 H586 0.984 . S
N583 H587 0.985 . S
H584 N579 0.984 . S
H585 N579 0.985 . S
H586 N583 0.984 . S
H587 N583 0.985 . S
H588 N582 0.984 1_554 S
H589 N582 0.984 . S
H590 N578 0.984 . S
H591 N578 0.985 . S
C592 C593 1.363 . S
C592 C598 1.379 . S
C592 N600 1.356 1_655 S
C593 C592 1.363 . S
C593 C599 1.363 . S
C594 C595 1.363 . S
C594 C599 1.379 . S
C594 N601 1.356 . S
C595 C594 1.363 . S
C595 C598 1.363 . S
N596 C598 1.356 1_455 S
N596 H608 0.984 . S
N596 H609 0.985 . S
N597 C599 1.356 . S
N597 H602 0.984 . S
N597 H603 0.985 . S
C598 C592 1.379 . S
C598 C595 1.363 . S
C598 N596 1.356 1_655 S
C599 C593 1.363 . S
C599 C594 1.379 . S
C599 N597 1.356 . S
N600 C592 1.356 1_455 S
N600 H606 0.984 . S
N600 H607 0.982 1_455 S
N601 C594 1.356 . S
N601 H604 0.984 . S
N601 H605 0.985 . S
H602 N597 0.984 . S
H603 N597 0.985 . S
H604 N601 0.984 . S
H605 N601 0.985 . S
H606 N600 0.984 . S
H607 N600 0.982 1_655 S
H608 N596 0.984 . S
H609 N596 0.985 . S
C610 C611 1.363 . S
C610 C616 1.379 . S
C610 N618 1.356 . S
C611 C610 1.363 . S
C611 C617 1.363 1_565 S
C612 C613 1.363 1_545 S
C612 C617 1.379 . S
C612 N619 1.356 . S
C613 C612 1.363 1_565 S
C613 C616 1.363 . S
N614 C616 1.356 . S
N614 H626 0.984 . S
N614 H627 0.985 . S
N615 C617 1.356 . S
N615 H620 0.984 . S
N615 H621 0.985 . S
C616 C610 1.379 . S
C616 C613 1.363 . S
C616 N614 1.356 . S
C617 C611 1.363 1_545 S
C617 C612 1.379 . S
C617 N615 1.356 . S
N618 C610 1.356 . S
N618 H624 0.984 . S
N618 H625 0.984 . S
N619 C612 1.356 . S
N619 H622 0.984 . S
N619 H623 0.985 . S
H620 N615 0.984 . S
H621 N615 0.985 . S
H622 N619 0.984 . S
H623 N619 0.985 . S
H624 N618 0.984 . S
H625 N618 0.984 . S
H626 N614 0.984 . S
H627 N614 0.985 . S
C628 C629 1.363 . S
C628 C634 1.379 . S
C628 N636 1.356 . S
C629 C628 1.363 . S
C629 C635 1.363 . S
C630 C631 1.363 . S
C630 C635 1.379 . S
C630 N637 1.356 . S
C631 C630 1.363 . S
C631 C634 1.363 . S
N632 C634 1.356 . S
N632 H644 0.984 . S
N632 H645 0.985 . S
N633 C635 1.356 . S
N633 H638 0.984 . S
N633 H639 0.985 . S
C634 C628 1.379 . S
C634 C631 1.363 . S
C634 N632 1.356 . S
C635 C629 1.363 . S
C635 C630 1.379 . S
C635 N633 1.356 . S
N636 C628 1.356 . S
N636 H642 0.984 . S
N636 H643 0.984 . S
N637 C630 1.356 . S
N637 H640 0.984 . S
N637 H641 0.985 . S
H638 N633 0.984 . S
H639 N633 0.985 . S
H640 N637 0.984 . S
H641 N637 0.985 . S
H642 N636 0.984 . S
H643 N636 0.984 . S
H644 N632 0.984 . S
H645 N632 0.985 . S
C646 C647 1.363 . S
C646 C652 1.379 . S
C646 N654 1.356 . S
C647 C646 1.363 . S
C647 C653 1.363 . S
C648 C649 1.363 . S
C648 C653 1.379 . S
C648 N655 1.356 . S
C649 C648 1.363 . S
C649 C652 1.363 . S
N650 C652 1.356 . S
N650 H662 0.984 . S
N650 H663 0.985 . S
N651 C653 1.356 . S
N651 H656 0.984 . S
N651 H657 0.985 . S
C652 C646 1.379 . S
C652 C649 1.363 . S
C652 N650 1.356 . S
C653 C647 1.363 . S
C653 C648 1.379 . S
C653 N651 1.356 . S
N654 C646 1.356 . S
N654 H660 0.984 . S
N654 H661 0.984 . S
N655 C648 1.356 . S
N655 H658 0.984 . S
N655 H659 0.985 . S
H656 N651 0.984 . S
H657 N651 0.985 . S
H658 N655 0.984 . S
H659 N655 0.985 . S
H660 N654 0.984 . S
H661 N654 0.984 . S
H662 N650 0.984 . S
H663 N650 0.985 . S
C233 C61 2.266 . S
C235 C103 2.517 . S
C253 C129 2.278 . S
C251 C70 1.992 . S
C271 C169 2.265 . S
C269 C43 2.007 . S
C289 C223 2.504 . S
C287 C52 2.279 . S
C307 C84 2.517 1_554 S
C305 C25 2.267 . S
C323 C34 1.995 . S
C325 C114 2.277 1_554 S
C341 C7 2.007 . S
C343 C154 2.265 1_554 S
C359 C16 2.281 . S
C361 C204 2.504 1_554 S
C379 C80 0.875 . S
C377 C50 0.874 . S
C397 C141 0.983 . S
C395 C59 1.011 . S
C415 C181 0.841 . S
C413 C67 0.864 . S
C431 C41 0.775 . S
C433 C200 0.774 . S
C449 C14 0.881 . S
C451 C101 0.875 . S
C469 C120 0.983 . S
C467 C23 1.022 . S
C487 C160 0.841 . S
C485 C31 0.862 . S
C503 C5 0.776 . S
C505 C221 0.774 . S
C521 C49 2.054 . S
C523 C74 2.404 . S
C539 C58 2.471 . S
C541 C124 2.750 . S
C559 C164 2.620 . S
C557 C68 2.348 . S
C577 C194 2.251 . S
C575 C40 1.925 . S
C593 C13 2.055 . S
C595 C89 2.404 . S
C613 C143 2.750 . S
C611 C22 2.470 . S
C631 C183 2.619 . S
C629 C32 2.354 . S
C647 C4 1.924 . S
C649 C209 2.251 . S
