# Generated by pormake.
# Topology rtl, (3,6)-cn, num edge types: 1
# Building blocks:
#     Node 0, Type 0, BuildingBlock: QEWDON_clean_linker_0, # of connection points: 3
#     Node 1, Type 0, BuildingBlock: QEWDON_clean_linker_0, # of connection points: 3
#     Node 2, Type 0, BuildingBlock: QEWDON_clean_linker_0, # of connection points: 3
#     Node 3, Type 0, BuildingBlock: QEWDON_clean_linker_0, # of connection points: 3
#     Node 4, Type 1, BuildingBlock: LEVNOQ01_clean_sbu_1, # of connection points: 6
#     Node 5, Type 1, BuildingBlock: LEVNOQ01_clean_sbu_1, # of connection points: 6
#     Edge 6, Type (0, 1), BuildingBlock: UVAHIK_clean_linker_0, # of connection points: 2
#     Edge 7, Type (0, 1), BuildingBlock: UVAHIK_clean_linker_0, # of connection points: 2
#     Edge 8, Type (0, 1), BuildingBlock: UVAHIK_clean_linker_0, # of connection points: 2
#     Edge 9, Type (0, 1), BuildingBlock: UVAHIK_clean_linker_0, # of connection points: 2
#     Edge 10, Type (0, 1), BuildingBlock: UVAHIK_clean_linker_0, # of connection points: 2
#     Edge 11, Type (0, 1), BuildingBlock: UVAHIK_clean_linker_0, # of connection points: 2
#     Edge 12, Type (0, 1), BuildingBlock: UVAHIK_clean_linker_0, # of connection points: 2
#     Edge 13, Type (0, 1), BuildingBlock: UVAHIK_clean_linker_0, # of connection points: 2
#     Edge 14, Type (0, 1), BuildingBlock: UVAHIK_clean_linker_0, # of connection points: 2
#     Edge 15, Type (0, 1), BuildingBlock: UVAHIK_clean_linker_0, # of connection points: 2
#     Edge 16, Type (0, 1), BuildingBlock: UVAHIK_clean_linker_0, # of connection points: 2
#     Edge 17, Type (0, 1), BuildingBlock: UVAHIK_clean_linker_0, # of connection points: 2
# Relax obj value: 0.039
# Max RMSD: 0.179
# Mean RMSD: 0.140
data_MOF--net-rtl--node1-LEVNOQ01_clean_sbu_1--node2-QEWDON_clean_linker_0--edge1-UVAHIK_clean_linker_0
_symmetry_space_group_name_H-M    P1
_symmetry_Int_Tables_number       1
_symmetry_cell_setting            triclinic
loop_
_symmetry_equiv_pos_as_xyz
'x, y, z'
_cell_length_a     48.362899
_cell_length_b     47.948857
_cell_length_c     28.234169
_cell_angle_alpha  91.364964
_cell_angle_beta   99.741006
_cell_angle_gamma 90.155942
loop_
_atom_site_label
_atom_site_type_symbol
_atom_site_fract_x
_atom_site_fract_y
_atom_site_fract_z
_atom_type_partial_charge
H0 H 0.231 0.86698 0.1687 0.0
C1 C 0.22047 0.86617 0.13157 0.0
C2 C 0.19333 0.87683 0.11979 0.0
C3 C 0.23486 0.85601 0.09567 0.0
H4 H 0.15964 0.88598 0.06248 0.0
C5 C 0.18029 0.87686 0.07149 0.0
C6 C 0.19408 0.86627 0.03481 0.0
C7 C 0.2215 0.85567 0.04737 0.0
C8 C 0.26498 0.84934 0.10908 0.0
H9 H 0.23282 0.84814 0.01967 0.0
C10 C 0.27505 0.822 0.10505 0.0
C11 C 0.30325 0.8159 0.1237 0.0
C12 C 0.28351 0.87056 0.12998 0.0
H13 H 0.27614 0.89172 0.1334 0.0
C14 C 0.31154 0.86465 0.14731 0.0
H15 H 0.26082 0.80543 0.08953 0.0
C16 C 0.32132 0.83746 0.14464 0.0
H17 H 0.34311 0.83322 0.15883 0.0
H18 H 0.32562 0.88114 0.16346 0.0
H19 H 0.71781 0.70216 0.53156 0.0
C20 C 0.70705 0.69921 0.56178 0.0
C21 C 0.6788 0.69037 0.55394 0.0
C22 C 0.72209 0.7023 0.60886 0.0
H23 H 0.6439 0.67932 0.58845 0.0
C24 C 0.66567 0.68595 0.594 0.0
C25 C 0.68057 0.68842 0.64112 0.0
C26 C 0.70886 0.6966 0.64821 0.0
C27 C 0.75255 0.70805 0.61741 0.0
H28 H 0.72077 0.69821 0.68434 0.0
C29 C 0.76314 0.73519 0.6142 0.0
C30 C 0.79223 0.74055 0.6263 0.0
C31 C 0.7711 0.68624 0.63179 0.0
H32 H 0.76324 0.66527 0.63468 0.0
C33 C 0.79988 0.69131 0.6428 0.0
H34 H 0.74874 0.75213 0.60392 0.0
C35 C 0.81042 0.71824 0.64026 0.0
H36 H 0.83288 0.72158 0.64891 0.0
H37 H 0.81409 0.67434 0.65367 0.0
H38 H 0.78287 0.20561 0.0599 0.0
C39 C 0.79251 0.19893 0.0296 0.0
C40 C 0.82024 0.18883 0.03726 0.0
C41 C 0.77683 0.1993 0.98291 0.0
H42 H 0.85309 0.17109 0.00292 0.0
C43 C 0.83215 0.17979 0.9974 0.0
C44 C 0.81646 0.17968 0.95079 0.0
C45 C 0.78886 0.1895 0.9439 0.0
C46 C 0.74689 0.20708 0.97436 0.0
H47 H 0.7765 0.18918 0.90804 0.0
C48 C 0.7385 0.23506 0.97778 0.0
C49 C 0.71017 0.24228 0.96311 0.0
C50 C 0.72668 0.1864 0.95798 0.0
H51 H 0.73281 0.1648 0.95485 0.0
C52 C 0.69855 0.19346 0.94464 0.0
H53 H 0.75405 0.25119 0.98961 0.0
C54 C 0.69034 0.22125 0.94672 0.0
H55 H 0.66843 0.22638 0.93554 0.0
H56 H 0.68312 0.1774 0.93191 0.0
H57 H 0.33116 0.28906 0.55437 0.0
C58 C 0.33357 0.30256 0.52508 0.0
C59 C 0.34378 0.33006 0.53478 0.0
C60 C 0.32749 0.29209 0.47753 0.0
H61 H 0.35631 0.36769 0.50313 0.0
C62 C 0.34732 0.34697 0.49605 0.0
C63 C 0.34131 0.33669 0.44841 0.0
C64 C 0.33118 0.3093 0.43961 0.0
C65 C 0.32044 0.26233 0.46676 0.0
H66 H 0.32665 0.30101 0.40303 0.0
C67 C 0.29468 0.25083 0.47394 0.0
C68 C 0.28737 0.22303 0.45888 0.0
C69 C 0.33917 0.2458 0.44566 0.0
H70 H 0.35903 0.25434 0.43971 0.0
C71 C 0.33232 0.21831 0.43138 0.0
H72 H 0.28031 0.26367 0.49033 0.0
C73 C 0.30659 0.20706 0.43745 0.0
H74 H 0.30157 0.18597 0.42423 0.0
H75 H 0.3468 0.20581 0.4147 0.0
O76 O 1.00049 0.06365 0.648 0.0
Mg77 Mg 0.0367 0.0551 0.6186 0.0
O78 O 0.97296 0.04174 0.58791 0.0
Mg79 Mg 1.00177 0.02257 0.5362 0.0
O80 O 0.03381 0.05984 0.54593 0.0
O81 O 0.05914 0.08807 0.60163 0.0
O82 O 0.03318 0.00533 0.48533 0.0
O83 O 0.9767 0.05017 0.47583 0.0
Mg84 Mg 0.98151 0.98706 0.46522 0.0
O85 O 0.96674 0.98631 0.52907 0.0
O86 O 0.01732 0.96368 0.46178 0.0
O87 O 0.97072 0.01946 0.41608 0.0
O88 O 0.94816 0.96181 0.46216 0.0
C89 C 0.04909 0.99605 0.62859 0.0
C90 C 0.97635 0.05576 0.62752 0.0
C91 C 0.05144 0.08049 0.55719 0.0
C92 C 0.03687 0.98141 0.46659 0.0
C93 C 0.96867 0.04424 0.43134 0.0
C94 C 0.9487 0.968 0.50697 0.0
O95 O 0.05958 0.01972 0.64169 0.0
O96 O 0.02739 0.99367 0.59575 0.0
O97 O 0.54425 0.52868 0.15967 0.0
Mg98 Mg 0.53475 0.49231 0.11754 0.0
O99 O 0.52101 0.55482 0.10319 0.0
Mg100 Mg 0.49922 0.52278 0.04298 0.0
O101 O 0.53832 0.49281 0.04608 0.0
O102 O 0.56856 0.47151 0.10333 0.0
O103 O 0.47825 0.48932 0.98349 0.0
O104 O 0.52096 0.5477 0.98846 0.0
Mg105 Mg 0.45501 0.54558 0.96795 0.0
O106 O 0.46138 0.55396 0.04026 0.0
O107 O 0.43853 0.50641 0.94573 0.0
O108 O 0.48639 0.5634 0.93436 0.0
O109 O 0.42628 0.57193 0.98752 0.0
C110 C 0.47862 0.47728 0.12269 0.0
C111 C 0.53626 0.5524 0.14448 0.0
C112 C 0.56014 0.477 0.05873 0.0
C113 C 0.45505 0.4862 0.95446 0.0
C114 C 0.5124 0.56139 0.95052 0.0
C115 C 0.43952 0.57004 0.03098 0.0
O116 O 0.50272 0.4668 0.13324 0.0
O117 O 0.47484 0.49844 0.09575 0.0
C118 C 0.23496 0.22678 0.45629 0.0
C119 C 0.25957 0.21067 0.46341 0.0
C120 C 0.20874 0.21444 0.45716 0.0
C121 C 0.17121 0.1477 0.4374 0.0
H122 H 0.12386 0.17655 0.52467 0.0
C123 C 0.08597 0.08129 0.50182 0.0
C124 C 0.06461 0.09475 0.52122 0.0
C125 C 0.10585 0.09693 0.4829 0.0
C126 C 0.13627 0.16849 0.49897 0.0
H127 H 0.27566 0.16904 0.47934 0.0
H128 H 0.23 0.14759 0.47906 0.0
H129 H 0.16646 0.20159 0.51636 0.0
H130 H 0.04545 0.13449 0.53235 0.0
H131 H 0.07866 0.16171 0.49601 0.0
H132 H 0.14114 0.11468 0.41958 0.0
C133 C 0.23105 0.16969 0.47233 0.0
C134 C 0.16088 0.18285 0.4946 0.0
C135 C 0.25723 0.18205 0.47236 0.0
C136 C 0.06168 0.1237 0.51712 0.0
C137 C 0.08109 0.13929 0.49718 0.0
C138 C 0.14632 0.13357 0.44105 0.0
C139 C 0.20654 0.18568 0.46436 0.0
C140 C 0.17893 0.17222 0.46473 0.0
C141 C 0.10446 0.12633 0.4825 0.0
C142 C 0.1288 0.14335 0.47285 0.0
H143 H 0.23579 0.24877 0.44872 0.0
H144 H 0.19011 0.22723 0.45104 0.0
H145 H 0.18465 0.13926 0.41361 0.0
H146 H 0.08893 0.059 0.50556 0.0
H147 H 0.12349 0.08602 0.47233 0.0
C148 C 0.31501 0.77317 0.07867 0.0
C149 C 0.3143 0.7872 0.1226 0.0
C150 C 0.32923 0.74782 0.07763 0.0
C151 C 0.35548 0.68728 0.14727 0.0
H152 H 0.41164 0.68425 0.06416 0.0
C153 C 0.40196 0.58782 0.07265 0.0
C154 C 0.43035 0.58833 0.06771 0.0
C155 C 0.38995 0.61079 0.09257 0.0
C156 C 0.39632 0.68491 0.08806 0.0
H157 H 0.32654 0.7854 0.19986 0.0
H158 H 0.35064 0.74057 0.19814 0.0
H159 H 0.38405 0.72655 0.06849 0.0
H160 H 0.46898 0.61219 0.08234 0.0
H161 H 0.44788 0.65277 0.11669 0.0
H162 H 0.36708 0.64513 0.16532 0.0
C163 C 0.34054 0.74929 0.16459 0.0
C164 C 0.38029 0.70897 0.09001 0.0
C165 C 0.32682 0.77487 0.16556 0.0
C166 C 0.44716 0.61116 0.08665 0.0
C167 C 0.43501 0.63445 0.10572 0.0
C168 C 0.37118 0.66295 0.1446 0.0
C169 C 0.34248 0.73587 0.12056 0.0
C170 C 0.35955 0.71031 0.11927 0.0
C171 C 0.40602 0.63492 0.10678 0.0
C172 C 0.39168 0.66151 0.11478 0.0
H173 H 0.30567 0.78241 0.04512 0.0
H174 H 0.33028 0.73775 0.04323 0.0
H175 H 0.33963 0.68785 0.17019 0.0
H176 H 0.38854 0.57057 0.05749 0.0
H177 H 0.36756 0.61061 0.09266 0.0
C178 C 0.8252 0.77901 0.66172 0.0
C179 C 0.80398 0.76916 0.62473 0.0
C180 C 0.83822 0.80479 0.65848 0.0
C181 C 0.83247 0.87096 0.59091 0.0
H182 H 0.91366 0.87118 0.62363 0.0
C183 C 0.90333 0.94331 0.50545 0.0
C184 C 0.92876 0.95326 0.53216 0.0
C185 C 0.88601 0.92555 0.52584 0.0
C186 C 0.89097 0.87175 0.61531 0.0
H187 H 0.77913 0.77914 0.55606 0.0
H188 H 0.80204 0.82404 0.54999 0.0
H189 H 0.8871 0.83065 0.64128 0.0
H190 H 0.95537 0.95353 0.60204 0.0
H191 H 0.92499 0.92194 0.63799 0.0
H192 H 0.83655 0.91169 0.56314 0.0
C193 C 0.80841 0.812 0.58192 0.0
C194 C 0.87568 0.84845 0.62534 0.0
C195 C 0.79528 0.78622 0.58528 0.0
C196 C 0.93584 0.94622 0.5807 0.0
C197 C 0.91857 0.92801 0.60108 0.0
C198 C 0.84777 0.89424 0.58077 0.0
C199 C 0.83041 0.82139 0.61808 0.0
C200 C 0.84627 0.84746 0.61222 0.0
C201 C 0.89375 0.917 0.57344 0.0
C202 C 0.87726 0.89461 0.59173 0.0
H203 H 0.832 0.76659 0.69306 0.0
H204 H 0.85465 0.81157 0.68747 0.0
H205 H 0.80982 0.87118 0.58122 0.0
H206 H 0.89723 0.9485 0.468 0.0
H207 H 0.86726 0.9173 0.50333 0.0
C208 C 0.6875 0.2835 0.92065 0.0
C209 C 0.70085 0.27163 0.9634 0.0
C210 C 0.67552 0.30998 0.92129 0.0
C211 C 0.67007 0.37289 1.00079 0.0
H212 H 0.59924 0.38207 0.91517 0.0
C213 C 0.60346 0.46854 0.02513 0.0
C214 C 0.57481 0.46313 0.02335 0.0
C215 C 0.62032 0.44927 0.00559 0.0
C216 C 0.61892 0.3799 0.93953 0.0
H217 H 0.71278 0.27808 0.04015 0.0
H218 H 0.69095 0.32384 0.04202 0.0
H219 H 0.62645 0.34018 0.90857 0.0
H220 H 0.54083 0.43433 0.99789 0.0
H221 H 0.57009 0.4002 0.9651 0.0
H222 H 0.66152 0.41145 0.03435 0.0
C223 C 0.69035 0.3133 0.00755 0.0
C224 C 0.63486 0.35593 0.93526 0.0
C225 C 0.70281 0.28699 0.00669 0.0
C226 C 0.5628 0.43921 0.99864 0.0
C227 C 0.57974 0.41958 0.98001 0.0
C228 C 0.65392 0.39661 0.00559 0.0
C229 C 0.67607 0.32499 0.96492 0.0
C230 C 0.66044 0.3518 0.96644 0.0
C231 C 0.60901 0.42372 0.98532 0.0
C232 C 0.62782 0.40027 0.97562 0.0
H233 H 0.68591 0.27203 0.88676 0.0
H234 H 0.66543 0.31844 0.88756 0.0
H235 H 0.68988 0.37089 0.02482 0.0
H236 H 0.61319 0.48676 0.04463 0.0
H237 H 0.64254 0.45372 0.00904 0.0
C238 C 0.16949 0.91719 0.15332 0.0
C239 C 0.1796 0.88981 0.15784 0.0
C240 C 0.15797 0.93006 0.1904 0.0
C241 C 0.15292 0.92294 0.3204 0.0
H242 H 0.0898 0.9727 0.28849 0.0
C243 C 0.07067 0.94773 0.44072 0.0
C244 C 0.06151 0.97539 0.44372 0.0
C245 C 0.0901 0.94057 0.41124 0.0
C246 C 0.10774 0.95923 0.29798 0.0
H247 H 0.1852 0.85416 0.20397 0.0
H248 H 0.16393 0.87597 0.26782 0.0
H249 H 0.11222 0.95283 0.22457 0.0
H250 H 0.06641 0.01753 0.42024 0.0
H251 H 0.10003 0.00478 0.3673 0.0
H252 H 0.14707 0.92821 0.39373 0.0
C253 C 0.16572 0.88804 0.23655 0.0
C254 C 0.12066 0.94781 0.26134 0.0
C255 C 0.17766 0.87537 0.19979 0.0
C256 C 0.07329 0.99609 0.41875 0.0
C257 C 0.09231 0.98878 0.3883 0.0
C258 C 0.13967 0.93401 0.35693 0.0
C259 C 0.1559 0.91567 0.23258 0.0
C260 C 0.1432 0.92918 0.27194 0.0
C261 C 0.10032 0.96082 0.38343 0.0
C262 C 0.11676 0.952 0.34598 0.0
H263 H 0.17115 0.92891 0.12157 0.0
H264 H 0.15114 0.95148 0.1862 0.0
H265 H 0.17064 0.90928 0.33025 0.0
H266 H 0.06188 0.9314 0.45964 0.0
H267 H 0.09578 0.91885 0.40794 0.0
C268 C 0.68059 0.66205 0.71714 0.0
C269 C 0.66689 0.67995 0.68199 0.0
C270 C 0.66612 0.65062 0.75117 0.0
C271 C 0.59438 0.63123 0.76226 0.0
H272 H 0.62301 0.62266 0.89793 0.0
C273 C 0.5224 0.59484 0.88916 0.0
C274 C 0.5325 0.57556 0.92462 0.0
C275 C 0.54053 0.60778 0.86298 0.0
C276 C 0.61489 0.62459 0.85999 0.0
H277 H 0.62799 0.70156 0.65739 0.0
H278 H 0.6028 0.68162 0.71651 0.0
H279 H 0.65183 0.64612 0.84702 0.0
H280 H 0.56988 0.55532 0.96117 0.0
H281 H 0.60176 0.57774 0.91439 0.0
H282 H 0.55776 0.60953 0.77443 0.0
C283 C 0.62453 0.67598 0.7172 0.0
C284 C 0.63134 0.6381 0.83093 0.0
C285 C 0.63897 0.68743 0.6834 0.0
C286 C 0.56144 0.57002 0.93401 0.0
C287 C 0.57969 0.58295 0.90737 0.0
C288 C 0.57811 0.61766 0.79104 0.0
C289 C 0.63767 0.65681 0.75054 0.0
C290 C 0.62101 0.64195 0.7819 0.0
C291 C 0.56932 0.60169 0.87103 0.0
C292 C 0.58789 0.61457 0.84044 0.0
H293 H 0.70203 0.6557 0.71678 0.0
H294 H 0.67677 0.63586 0.77632 0.0
H295 H 0.58613 0.63317 0.72436 0.0
H296 H 0.50034 0.60001 0.8814 0.0
H297 H 0.53189 0.62265 0.83623 0.0
C298 C 0.86477 0.191 0.09782 0.0
C299 C 0.83597 0.18467 0.08664 0.0
C300 C 0.88067 0.1827 0.14122 0.0
C301 C 0.9117 0.14241 0.2116 0.0
H302 H 0.88325 0.13484 0.33113 0.0
C303 C 0.95279 0.05935 0.34715 0.0
C304 C 0.95652 0.06564 0.39674 0.0
C305 C 0.94033 0.07844 0.31372 0.0
C306 C 0.89169 0.13717 0.29826 0.0
H307 H 0.80104 0.16585 0.11338 0.0
H308 H 0.82875 0.15107 0.18877 0.0
H309 H 0.85679 0.16175 0.2662 0.0
H310 H 0.95024 0.09726 0.44999 0.0
H311 H 0.92811 0.13084 0.39103 0.0
H312 H 0.94635 0.11763 0.24322 0.0
C313 C 0.83907 0.16283 0.16442 0.0
C314 C 0.87638 0.15233 0.26083 0.0
C315 C 0.82312 0.1713 0.1211 0.0
C316 C 0.94772 0.09179 0.41205 0.0
C317 C 0.93493 0.11094 0.37834 0.0
C318 C 0.92691 0.1273 0.24886 0.0
C319 C 0.86823 0.16764 0.1744 0.0
C320 C 0.88589 0.15463 0.2166 0.0
C321 C 0.93109 0.10441 0.32874 0.0
C322 C 0.91677 0.12385 0.29218 0.0
H323 H 0.8752 0.20162 0.07226 0.0
H324 H 0.90294 0.18735 0.1481 0.0
H325 H 0.91963 0.1434 0.17805 0.0
H326 H 0.95932 0.03946 0.33391 0.0
H327 H 0.93733 0.0725 0.27593 0.0
C328 C 0.34742 0.36855 0.59751 0.0
C329 C 0.35278 0.34077 0.58505 0.0
C330 C 0.35815 0.3796 0.64317 0.0
C331 C 0.41449 0.36927 0.74757 0.0
H332 H 0.37201 0.42458 0.80653 0.0
C333 C 0.46451 0.44863 0.89655 0.0
C334 C 0.44737 0.45981 0.92758 0.0
C335 C 0.4536 0.42881 0.86082 0.0
C336 C 0.38413 0.40881 0.79131 0.0
H337 H 0.37328 0.30265 0.61149 0.0
H338 H 0.39141 0.32176 0.69178 0.0
H339 H 0.35041 0.40035 0.73335 0.0
H340 H 0.40656 0.4575 0.94893 0.0
H341 H 0.38808 0.42184 0.88897 0.0
H342 H 0.44817 0.37765 0.80612 0.0
C343 C 0.37923 0.33513 0.66585 0.0
C344 C 0.37179 0.3952 0.74866 0.0
C345 C 0.36849 0.32405 0.62 0.0
C346 C 0.42014 0.44915 0.92527 0.0
C347 C 0.40946 0.42901 0.89041 0.0
C348 C 0.42684 0.38283 0.79057 0.0
C349 C 0.37446 0.36315 0.67785 0.0
C350 C 0.38694 0.37564 0.72566 0.0
C351 C 0.42549 0.41965 0.85602 0.0
C352 C 0.41193 0.40308 0.81271 0.0
H353 H 0.33521 0.38195 0.57164 0.0
H354 H 0.35429 0.40135 0.65075 0.0
H355 H 0.42689 0.35446 0.73073 0.0
H356 H 0.48546 0.45686 0.89729 0.0
H357 H 0.46661 0.42222 0.83501 0.0
C358 C 0.6453 0.65995 0.49767 0.0
C359 C 0.66333 0.68333 0.50469 0.0
C360 C 0.62943 0.65367 0.45278 0.0
C361 C 0.62589 0.65782 0.32493 0.0
H362 H 0.54743 0.63999 0.32335 0.0
C363 C 0.55594 0.601 0.16213 0.0
C364 C 0.54404 0.57668 0.17716 0.0
C365 C 0.56767 0.62149 0.19621 0.0
C366 C 0.56922 0.64514 0.32296 0.0
H367 H 0.67969 0.71763 0.46873 0.0
H368 H 0.65228 0.70587 0.38904 0.0
H369 H 0.5751 0.66169 0.39505 0.0
H370 H 0.53359 0.55528 0.23852 0.0
H371 H 0.55315 0.5909 0.29723 0.0
H372 H 0.62034 0.63954 0.25373 0.0
C373 C 0.65024 0.69292 0.41919 0.0
C374 C 0.58504 0.65755 0.36399 0.0
C375 C 0.66596 0.69954 0.46469 0.0
C376 C 0.5426 0.57388 0.22602 0.0
C377 C 0.55372 0.59439 0.25963 0.0
C378 C 0.61001 0.6452 0.28372 0.0
C379 C 0.63142 0.67021 0.41317 0.0
C380 C 0.61379 0.66294 0.36615 0.0
C381 C 0.56697 0.61814 0.24545 0.0
C382 C 0.58182 0.63762 0.2832 0.0
H383 H 0.64344 0.64628 0.52697 0.0
H384 H 0.61568 0.63557 0.44892 0.0
H385 H 0.64804 0.66173 0.32573 0.0
H386 H 0.55751 0.60345 0.12464 0.0
H387 H 0.57776 0.6396 0.18429 0.0
C388 C 0.81301 0.14649 0.8802 0.0
C389 C 0.82813 0.16725 0.90988 0.0
C390 C 0.82453 0.13358 0.84318 0.0
C391 C 0.87626 0.14178 0.76375 0.0
H392 H 0.88209 0.0611 0.76566 0.0
C393 C 0.95456 0.05832 0.70074 0.0
C394 C 0.95241 0.06286 0.65135 0.0
C395 C 0.9343 0.0687 0.72609 0.0
C396 C 0.88022 0.08359 0.7643 0.0
H397 H 0.86675 0.19128 0.9235 0.0
H398 H 0.88673 0.16904 0.85792 0.0
H399 H 0.85659 0.08546 0.82203 0.0
H400 H 0.92733 0.08121 0.58922 0.0
H401 H 0.89201 0.10044 0.6343 0.0
H402 H 0.90036 0.13989 0.70656 0.0
C403 C 0.86602 0.16273 0.86354 0.0
C404 C 0.86565 0.0975 0.79642 0.0
C405 C 0.85472 0.1753 0.90115 0.0
C406 C 0.92917 0.07722 0.62723 0.0
C407 C 0.90917 0.08831 0.65297 0.0
C408 C 0.89037 0.12781 0.73097 0.0
C409 C 0.85117 0.14152 0.83459 0.0
C410 C 0.8641 0.12676 0.7972 0.0
C411 C 0.91185 0.08444 0.70277 0.0
C412 C 0.89302 0.09865 0.73174 0.0
H413 H 0.79257 0.13974 0.88645 0.0
H414 H 0.81266 0.1173 0.82134 0.0
H415 H 0.87522 0.16434 0.76351 0.0
H416 H 0.97243 0.0474 0.72006 0.0
H417 H 0.93697 0.06564 0.7645 0.0
C418 C 0.34147 0.38219 0.40538 0.0
C419 C 0.34787 0.35361 0.40818 0.0
C420 C 0.34868 0.39804 0.36815 0.0
C421 C 0.37138 0.39084 0.24849 0.0
H422 H 0.40678 0.46293 0.28185 0.0
C423 C 0.45583 0.43668 0.15384 0.0
C424 C 0.45543 0.4652 0.14363 0.0
C425 C 0.43613 0.42535 0.17879 0.0
C426 C 0.3964 0.4431 0.2717 0.0
H427 H 0.36728 0.31945 0.37453 0.0
H428 H 0.37999 0.34688 0.31035 0.0
H429 H 0.38473 0.43868 0.34099 0.0
H430 H 0.43368 0.50417 0.15026 0.0
H431 H 0.39941 0.48432 0.19557 0.0
H432 H 0.38458 0.3946 0.18021 0.0
C433 C 0.36872 0.35703 0.3359 0.0
C434 C 0.38376 0.42918 0.30557 0.0
C435 C 0.36147 0.34125 0.37288 0.0
C436 C 0.43432 0.48208 0.1575 0.0
C437 C 0.41487 0.47079 0.18355 0.0
C438 C 0.38423 0.40462 0.21491 0.0
C439 C 0.36251 0.38564 0.33304 0.0
C440 C 0.37191 0.40244 0.2949 0.0
C441 C 0.41585 0.44236 0.19489 0.0
C442 C 0.39762 0.43049 0.22669 0.0
H443 H 0.33083 0.39226 0.43189 0.0
H444 H 0.3434 0.41997 0.36685 0.0
H445 H 0.3618 0.37062 0.23859 0.0
H446 H 0.47183 0.42319 0.14344 0.0
H447 H 0.43758 0.40345 0.18743 0.0
C448 C 0.19614 0.87856 0.94929 0.0
C449 C 0.18059 0.86902 0.98356 0.0
C450 C 0.18269 0.88546 0.90325 0.0
C451 C 0.1146 0.88181 0.8176 0.0
H452 H 0.13995 0.95304 0.77839 0.0
C453 C 0.04806 0.95395 0.67917 0.0
C454 C 0.0627 0.97158 0.65292 0.0
C455 C 0.06281 0.93575 0.71254 0.0
C456 C 0.13284 0.93283 0.78799 0.0
H457 H 0.13892 0.85714 0.99479 0.0
H458 H 0.11541 0.86986 0.91504 0.0
H459 H 0.16544 0.93145 0.84907 0.0
H460 H 0.1036 0.98245 0.63735 0.0
H461 H 0.12916 0.94992 0.69335 0.0
H462 H 0.0814 0.88384 0.75674 0.0
C463 C 0.13802 0.8719 0.92357 0.0
C464 C 0.14756 0.92039 0.82877 0.0
C465 C 0.15149 0.8649 0.96957 0.0
C466 C 0.0919 0.96909 0.65738 0.0
C467 C 0.10653 0.95067 0.6899 0.0
C468 C 0.0998 0.89432 0.77652 0.0
C469 C 0.15333 0.88312 0.89033 0.0
C470 C 0.13859 0.89483 0.84443 0.0
C471 C 0.09238 0.93481 0.71972 0.0
C472 C 0.10868 0.9201 0.76135 0.0
H473 H 0.21854 0.88212 0.95873 0.0
H474 H 0.19523 0.89353 0.87824 0.0
H475 H 0.10719 0.86201 0.82845 0.0
H476 H 0.02554 0.9558 0.67666 0.0
H477 H 0.05121 0.9239 0.73491 0.0
loop_
_geom_bond_atom_site_label_1
_geom_bond_atom_site_label_2
_geom_bond_distance
_geom_bond_site_symmetry_2
_ccdc_geom_bond_type
H0 C1 0.949 . S
C1 H0 0.949 . S
C1 C2 1.395 . S
C1 C3 1.391 . S
C2 C1 1.395 . S
C2 C5 1.390 . S
C3 C1 1.391 . S
C3 C7 1.387 . S
C3 C8 1.491 . S
H4 C5 0.950 . S
C5 C2 1.390 . S
C5 H4 0.950 . S
C5 C6 1.378 . S
C6 C5 1.378 . S
C6 C7 1.409 . S
C7 C3 1.387 . S
C7 C6 1.409 . S
C7 H9 0.951 1_554 S
C8 C3 1.491 . S
C8 C10 1.382 . S
C8 C12 1.404 . S
H9 C7 0.951 1_556 S
C10 C8 1.382 . S
C10 C11 1.390 . S
C10 H15 0.949 . S
C11 C10 1.390 . S
C11 C16 1.399 . S
C12 C8 1.404 . S
C12 H13 0.950 . S
C12 C14 1.375 . S
H13 C12 0.950 . S
C14 C12 1.375 . S
C14 C16 1.382 . S
C14 H18 0.950 . S
H15 C10 0.949 . S
C16 C11 1.399 . S
C16 C14 1.382 . S
C16 H17 0.952 . S
H17 C16 0.952 . S
H18 C14 0.950 . S
H19 C20 0.949 . S
C20 H19 0.949 . S
C20 C21 1.395 . S
C20 C22 1.391 . S
C21 C20 1.395 . S
C21 C24 1.390 . S
C22 C20 1.391 . S
C22 C26 1.387 . S
C22 C27 1.491 . S
H23 C24 0.950 . S
C24 C21 1.390 . S
C24 H23 0.950 . S
C24 C25 1.378 . S
C25 C24 1.378 . S
C25 C26 1.409 . S
C26 C22 1.387 . S
C26 C25 1.409 . S
C26 H28 0.951 . S
C27 C22 1.491 . S
C27 C29 1.382 . S
C27 C31 1.404 . S
H28 C26 0.951 . S
C29 C27 1.382 . S
C29 C30 1.390 . S
C29 H34 0.949 . S
C30 C29 1.390 . S
C30 C35 1.399 . S
C31 C27 1.404 . S
C31 H32 0.950 . S
C31 C33 1.375 . S
H32 C31 0.950 . S
C33 C31 1.375 . S
C33 C35 1.382 . S
C33 H37 0.950 . S
H34 C29 0.949 . S
C35 C30 1.399 . S
C35 C33 1.382 . S
C35 H36 0.952 . S
H36 C35 0.952 . S
H37 C33 0.950 . S
H38 C39 0.949 . S
C39 H38 0.949 . S
C39 C40 1.395 . S
C39 C41 1.391 1_554 S
C40 C39 1.395 . S
C40 C43 1.398 . S
C41 C39 1.391 1_556 S
C41 C45 1.387 . S
C41 C46 1.491 . S
H42 C43 0.951 . S
C43 C40 1.398 . S
C43 H42 0.951 . S
C43 C44 1.369 1_554 S
C44 C43 1.369 1_556 S
C44 C45 1.409 . S
C45 C41 1.387 . S
C45 C44 1.409 . S
C45 H47 0.951 . S
C46 C41 1.491 . S
C46 C48 1.391 . S
C46 C50 1.404 . S
H47 C45 0.951 . S
C48 C46 1.391 . S
C48 C49 1.391 . S
C48 H53 0.938 1_556 S
C49 C48 1.391 . S
C49 C54 1.399 . S
C50 C46 1.404 . S
C50 H51 0.950 . S
C50 C52 1.375 . S
H51 C50 0.950 . S
C52 C50 1.375 . S
C52 C54 1.382 . S
C52 H56 0.950 . S
H53 C48 0.938 1_554 S
C54 C49 1.399 . S
C54 C52 1.382 . S
C54 H55 0.952 . S
H55 C54 0.952 . S
H56 C52 0.950 . S
H57 C58 0.949 . S
C58 H57 0.949 . S
C58 C59 1.395 . S
C58 C60 1.391 . S
C59 C58 1.395 . S
C59 C62 1.390 . S
C60 C58 1.391 . S
C60 C64 1.387 . S
C60 C65 1.491 . S
H61 C62 0.950 . S
C62 C59 1.390 . S
C62 H61 0.950 . S
C62 C63 1.378 . S
C63 C62 1.378 . S
C63 C64 1.409 . S
C64 C60 1.387 . S
C64 C63 1.409 . S
C64 H66 0.951 . S
C65 C60 1.491 . S
C65 C67 1.382 . S
C65 C69 1.404 . S
H66 C64 0.951 . S
C67 C65 1.382 . S
C67 C68 1.390 . S
C67 H72 0.949 . S
C68 C67 1.390 . S
C68 C73 1.399 . S
C69 C65 1.404 . S
C69 H70 0.950 . S
C69 C71 1.375 . S
H70 C69 0.950 . S
C71 C69 1.375 . S
C71 C73 1.382 . S
C71 H75 0.950 . S
H72 C67 0.949 . S
C73 C68 1.399 . S
C73 C71 1.382 . S
C73 H74 0.952 . S
H74 C73 0.952 . S
H75 C71 0.950 . S
O76 Mg77 1.990 . S
O76 C90 1.253 1_455 S
Mg77 O76 1.990 . S
Mg77 O80 2.180 . S
Mg77 O81 2.117 . S
Mg77 O95 2.030 . S
O78 Mg79 2.072 1_655 S
O78 C90 1.260 . S
Mg79 O78 2.072 1_455 S
Mg79 O80 2.099 . S
Mg79 O82 2.079 1_545 S
Mg79 O83 2.072 1_455 S
Mg79 O85 2.099 1_445 S
Mg79 O96 2.079 1_545 S
O80 Mg77 2.180 . S
O80 Mg79 2.099 . S
O80 C91 1.279 . S
O81 Mg77 2.117 . S
O81 C91 1.250 . S
O82 Mg79 2.079 1_565 S
O82 C92 1.264 . S
O83 Mg79 2.072 1_655 S
O83 C93 1.260 . S
Mg84 O85 2.180 . S
Mg84 O86 2.030 1_655 S
Mg84 O87 1.990 1_565 S
Mg84 O88 2.117 . S
O85 Mg79 2.099 1_665 S
O85 Mg84 2.180 . S
O85 C94 1.279 . S
O86 Mg84 2.030 1_455 S
O86 C92 1.248 . S
O87 Mg84 1.990 1_545 S
O87 C93 1.253 . S
O88 Mg84 2.117 . S
O88 C94 1.250 . S
C89 O95 1.248 1_565 S
C89 O96 1.264 . S
C90 O76 1.253 1_655 S
C90 O78 1.260 . S
C91 O80 1.279 . S
C91 O81 1.250 . S
C92 O82 1.264 . S
C92 O86 1.248 . S
C93 O83 1.260 . S
C93 O87 1.253 . S
C94 O85 1.279 . S
C94 O88 1.250 . S
O95 Mg77 2.030 . S
O95 C89 1.248 1_545 S
O96 Mg79 2.079 1_565 S
O96 C89 1.264 . S
O97 Mg98 1.990 . S
O97 C111 1.253 . S
Mg98 O97 1.990 . S
Mg98 O101 2.180 . S
Mg98 O102 2.117 . S
Mg98 O116 2.030 . S
O99 Mg100 2.072 . S
O99 C111 1.260 . S
Mg100 O99 2.072 . S
Mg100 O101 2.099 . S
Mg100 O103 2.079 1_554 S
Mg100 O104 2.072 . S
Mg100 O106 2.099 . S
Mg100 O117 2.079 . S
O101 Mg98 2.180 . S
O101 Mg100 2.099 . S
O101 C112 1.279 . S
O102 Mg98 2.117 . S
O102 C112 1.250 . S
O103 Mg100 2.079 1_556 S
O103 C113 1.264 . S
O104 Mg100 2.072 . S
O104 C114 1.260 1_554 S
Mg105 O106 2.180 1_556 S
Mg105 O107 2.030 . S
Mg105 O108 1.990 . S
Mg105 O109 2.117 1_556 S
O106 Mg100 2.099 . S
O106 Mg105 2.180 1_554 S
O106 C115 1.279 . S
O107 Mg105 2.030 . S
O107 C113 1.248 . S
O108 Mg105 1.990 . S
O108 C114 1.253 . S
O109 Mg105 2.117 1_554 S
O109 C115 1.250 . S
C110 O116 1.248 . S
C110 O117 1.264 . S
C111 O97 1.253 . S
C111 O99 1.260 . S
C112 O101 1.279 . S
C112 O102 1.250 . S
C113 O103 1.264 . S
C113 O107 1.248 . S
C114 O104 1.260 1_556 S
C114 O108 1.253 . S
C115 O106 1.279 . S
C115 O109 1.250 . S
O116 Mg98 2.030 . S
O116 C110 1.248 . S
O117 Mg100 2.079 . S
O117 C110 1.264 . S
C118 C119 1.349 . S
C118 C120 1.327 . S
C118 H143 0.950 . S
C119 C118 1.349 . S
C119 C135 1.349 . S
C120 C118 1.327 . S
C120 C139 1.429 . S
C120 H144 0.950 . S
C121 C138 1.574 . S
C121 C140 1.368 . S
C121 H145 0.949 . S
H122 C126 0.949 . S
C123 C124 1.349 . S
C123 C125 1.327 . S
C123 H146 0.950 . S
C124 C123 1.349 . S
C124 C136 1.349 . S
C125 C123 1.327 . S
C125 C141 1.429 . S
C125 H147 0.950 . S
C126 H122 0.949 . S
C126 C134 1.574 . S
C126 C142 1.368 . S
H127 C135 0.950 . S
H128 C133 0.950 . S
H129 C134 0.949 . S
H130 C136 0.950 . S
H131 C137 0.950 . S
H132 C138 0.949 . S
C133 H128 0.950 . S
C133 C135 1.327 . S
C133 C139 1.429 . S
C134 C126 1.574 . S
C134 H129 0.949 . S
C134 C140 1.368 . S
C135 C119 1.349 . S
C135 H127 0.950 . S
C135 C133 1.327 . S
C136 C124 1.349 . S
C136 H130 0.950 . S
C136 C137 1.327 . S
C137 H131 0.950 . S
C137 C136 1.327 . S
C137 C141 1.429 . S
C138 C121 1.574 . S
C138 H132 0.949 . S
C138 C142 1.368 . S
C139 C120 1.429 . S
C139 C133 1.429 . S
C139 C140 1.523 . S
C140 C121 1.368 . S
C140 C134 1.368 . S
C140 C139 1.523 . S
C141 C125 1.429 . S
C141 C137 1.429 . S
C141 C142 1.523 . S
C142 C126 1.368 . S
C142 C138 1.368 . S
C142 C141 1.523 . S
H143 C118 0.950 . S
H144 C120 0.950 . S
H145 C121 0.949 . S
H146 C123 0.950 . S
H147 C125 0.950 . S
C148 C149 1.349 . S
C148 C150 1.327 . S
C148 H173 0.950 . S
C149 C148 1.349 . S
C149 C165 1.349 . S
C150 C148 1.327 . S
C150 C169 1.429 . S
C150 H174 0.950 . S
C151 C168 1.574 . S
C151 C170 1.368 . S
C151 H175 0.949 . S
H152 C156 0.949 . S
C153 C154 1.349 . S
C153 C155 1.327 . S
C153 H176 0.950 . S
C154 C153 1.349 . S
C154 C166 1.349 . S
C155 C153 1.327 . S
C155 C171 1.429 . S
C155 H177 0.950 . S
C156 H152 0.949 . S
C156 C164 1.574 . S
C156 C172 1.368 . S
H157 C165 0.950 . S
H158 C163 0.950 . S
H159 C164 0.949 . S
H160 C166 0.950 . S
H161 C167 0.950 . S
H162 C168 0.949 . S
C163 H158 0.950 . S
C163 C165 1.327 . S
C163 C169 1.429 . S
C164 C156 1.574 . S
C164 H159 0.949 . S
C164 C170 1.368 . S
C165 C149 1.349 . S
C165 H157 0.950 . S
C165 C163 1.327 . S
C166 C154 1.349 . S
C166 H160 0.950 . S
C166 C167 1.327 . S
C167 H161 0.950 . S
C167 C166 1.327 . S
C167 C171 1.429 . S
C168 C151 1.574 . S
C168 H162 0.949 . S
C168 C172 1.368 . S
C169 C150 1.429 . S
C169 C163 1.429 . S
C169 C170 1.523 . S
C170 C151 1.368 . S
C170 C164 1.368 . S
C170 C169 1.523 . S
C171 C155 1.429 . S
C171 C167 1.429 . S
C171 C172 1.523 . S
C172 C156 1.368 . S
C172 C168 1.368 . S
C172 C171 1.523 . S
H173 C148 0.950 . S
H174 C150 0.950 . S
H175 C151 0.949 . S
H176 C153 0.950 . S
H177 C155 0.950 . S
C178 C179 1.349 . S
C178 C180 1.327 . S
C178 H203 0.950 . S
C179 C178 1.349 . S
C179 C195 1.349 . S
C180 C178 1.327 . S
C180 C199 1.429 . S
C180 H204 0.950 . S
C181 C198 1.574 . S
C181 C200 1.368 . S
C181 H205 0.949 . S
H182 C186 0.949 . S
C183 C184 1.349 . S
C183 C185 1.327 . S
C183 H206 0.950 . S
C184 C183 1.349 . S
C184 C196 1.349 . S
C185 C183 1.327 . S
C185 C201 1.429 . S
C185 H207 0.950 . S
C186 H182 0.949 . S
C186 C194 1.574 . S
C186 C202 1.368 . S
H187 C195 0.950 . S
H188 C193 0.950 . S
H189 C194 0.949 . S
H190 C196 0.950 . S
H191 C197 0.950 . S
H192 C198 0.949 . S
C193 H188 0.950 . S
C193 C195 1.327 . S
C193 C199 1.429 . S
C194 C186 1.574 . S
C194 H189 0.949 . S
C194 C200 1.368 . S
C195 C179 1.349 . S
C195 H187 0.950 . S
C195 C193 1.327 . S
C196 C184 1.349 . S
C196 H190 0.950 . S
C196 C197 1.327 . S
C197 H191 0.950 . S
C197 C196 1.327 . S
C197 C201 1.429 . S
C198 C181 1.574 . S
C198 H192 0.949 . S
C198 C202 1.368 . S
C199 C180 1.429 . S
C199 C193 1.429 . S
C199 C200 1.523 . S
C200 C181 1.368 . S
C200 C194 1.368 . S
C200 C199 1.523 . S
C201 C185 1.429 . S
C201 C197 1.429 . S
C201 C202 1.523 . S
C202 C186 1.368 . S
C202 C198 1.368 . S
C202 C201 1.523 . S
H203 C178 0.950 . S
H204 C180 0.950 . S
H205 C181 0.949 . S
H206 C183 0.950 . S
H207 C185 0.950 . S
C208 C209 1.349 1_556 S
C208 C210 1.327 . S
C208 H233 0.950 . S
C209 C208 1.349 1_554 S
C209 C225 1.349 . S
C210 C208 1.327 . S
C210 C229 1.429 1_556 S
C210 H234 0.950 . S
C211 C228 1.574 . S
C211 C230 1.368 . S
C211 H235 0.949 . S
H212 C216 0.949 . S
C213 C214 1.349 . S
C213 C215 1.327 . S
C213 H236 0.950 . S
C214 C213 1.349 . S
C214 C226 1.349 1_554 S
C215 C213 1.327 . S
C215 C231 1.429 . S
C215 H237 0.950 . S
C216 H212 0.949 . S
C216 C224 1.574 . S
C216 C232 1.368 1_556 S
H217 C225 0.950 . S
H218 C223 0.950 . S
H219 C224 0.949 . S
H220 C226 0.950 . S
H221 C227 0.950 . S
H222 C228 0.949 . S
C223 H218 0.950 . S
C223 C225 1.327 . S
C223 C229 1.429 . S
C224 C216 1.574 . S
C224 H219 0.949 . S
C224 C230 1.368 1_556 S
C225 C209 1.349 . S
C225 H217 0.950 . S
C225 C223 1.327 . S
C226 C214 1.349 1_556 S
C226 H220 0.950 . S
C226 C227 1.327 . S
C227 H221 0.950 . S
C227 C226 1.327 . S
C227 C231 1.429 1_556 S
C228 C211 1.574 . S
C228 H222 0.949 . S
C228 C232 1.368 . S
C229 C210 1.429 1_554 S
C229 C223 1.429 . S
C229 C230 1.523 . S
C230 C211 1.368 . S
C230 C224 1.368 1_554 S
C230 C229 1.523 . S
C231 C215 1.429 . S
C231 C227 1.429 1_554 S
C231 C232 1.523 . S
C232 C216 1.368 1_554 S
C232 C228 1.368 . S
C232 C231 1.523 . S
H233 C208 0.950 . S
H234 C210 0.950 . S
H235 C211 0.949 . S
H236 C213 0.950 . S
H237 C215 0.950 . S
C238 C239 1.349 . S
C238 C240 1.327 . S
C238 H263 0.950 . S
C239 C238 1.349 . S
C239 C255 1.349 . S
C240 C238 1.327 . S
C240 C259 1.429 . S
C240 H264 0.950 . S
C241 C258 1.574 . S
C241 C260 1.368 . S
C241 H265 0.949 . S
H242 C246 0.949 . S
C243 C244 1.349 . S
C243 C245 1.327 . S
C243 H266 0.950 . S
C244 C243 1.349 . S
C244 C256 1.349 . S
C245 C243 1.327 . S
C245 C261 1.429 . S
C245 H267 0.950 . S
C246 H242 0.949 . S
C246 C254 1.574 . S
C246 C262 1.368 . S
H247 C255 0.950 . S
H248 C253 0.950 . S
H249 C254 0.949 . S
H250 C256 0.950 . S
H251 C257 0.950 . S
H252 C258 0.949 . S
C253 H248 0.950 . S
C253 C255 1.327 . S
C253 C259 1.429 . S
C254 C246 1.574 . S
C254 H249 0.949 . S
C254 C260 1.368 . S
C255 C239 1.349 . S
C255 H247 0.950 . S
C255 C253 1.327 . S
C256 C244 1.349 . S
C256 H250 0.950 . S
C256 C257 1.327 . S
C257 H251 0.950 . S
C257 C256 1.327 . S
C257 C261 1.429 . S
C258 C241 1.574 . S
C258 H252 0.949 . S
C258 C262 1.368 . S
C259 C240 1.429 . S
C259 C253 1.429 . S
C259 C260 1.523 . S
C260 C241 1.368 . S
C260 C254 1.368 . S
C260 C259 1.523 . S
C261 C245 1.429 . S
C261 C257 1.429 . S
C261 C262 1.523 . S
C262 C246 1.368 . S
C262 C258 1.368 . S
C262 C261 1.523 . S
H263 C238 0.950 . S
H264 C240 0.950 . S
H265 C241 0.949 . S
H266 C243 0.950 . S
H267 C245 0.950 . S
C268 C269 1.349 . S
C268 C270 1.327 . S
C268 H293 0.950 . S
C269 C268 1.349 . S
C269 C285 1.349 . S
C270 C268 1.327 . S
C270 C289 1.429 . S
C270 H294 0.950 . S
C271 C288 1.574 . S
C271 C290 1.368 . S
C271 H295 0.949 . S
H272 C276 0.949 . S
C273 C274 1.349 . S
C273 C275 1.327 . S
C273 H296 0.950 . S
C274 C273 1.349 . S
C274 C286 1.349 . S
C275 C273 1.327 . S
C275 C291 1.429 . S
C275 H297 0.950 . S
C276 H272 0.949 . S
C276 C284 1.574 . S
C276 C292 1.368 . S
H277 C285 0.950 . S
H278 C283 0.950 . S
H279 C284 0.949 . S
H280 C286 0.950 . S
H281 C287 0.950 . S
H282 C288 0.949 . S
C283 H278 0.950 . S
C283 C285 1.327 . S
C283 C289 1.429 . S
C284 C276 1.574 . S
C284 H279 0.949 . S
C284 C290 1.368 . S
C285 C269 1.349 . S
C285 H277 0.950 . S
C285 C283 1.327 . S
C286 C274 1.349 . S
C286 H280 0.950 . S
C286 C287 1.327 . S
C287 H281 0.950 . S
C287 C286 1.327 . S
C287 C291 1.429 . S
C288 C271 1.574 . S
C288 H282 0.949 . S
C288 C292 1.368 . S
C289 C270 1.429 . S
C289 C283 1.429 . S
C289 C290 1.523 . S
C290 C271 1.368 . S
C290 C284 1.368 . S
C290 C289 1.523 . S
C291 C275 1.429 . S
C291 C287 1.429 . S
C291 C292 1.523 . S
C292 C276 1.368 . S
C292 C288 1.368 . S
C292 C291 1.523 . S
H293 C268 0.950 . S
H294 C270 0.950 . S
H295 C271 0.949 . S
H296 C273 0.950 . S
H297 C275 0.950 . S
C298 C299 1.349 . S
C298 C300 1.327 . S
C298 H323 0.950 . S
C299 C298 1.349 . S
C299 C315 1.349 . S
C300 C298 1.327 . S
C300 C319 1.429 . S
C300 H324 0.950 . S
C301 C318 1.574 . S
C301 C320 1.368 . S
C301 H325 0.949 . S
H302 C306 0.949 . S
C303 C304 1.349 . S
C303 C305 1.327 . S
C303 H326 0.950 . S
C304 C303 1.349 . S
C304 C316 1.349 . S
C305 C303 1.327 . S
C305 C321 1.429 . S
C305 H327 0.950 . S
C306 H302 0.949 . S
C306 C314 1.574 . S
C306 C322 1.368 . S
H307 C315 0.950 . S
H308 C313 0.950 . S
H309 C314 0.949 . S
H310 C316 0.950 . S
H311 C317 0.950 . S
H312 C318 0.949 . S
C313 H308 0.950 . S
C313 C315 1.327 . S
C313 C319 1.429 . S
C314 C306 1.574 . S
C314 H309 0.949 . S
C314 C320 1.368 . S
C315 C299 1.349 . S
C315 H307 0.950 . S
C315 C313 1.327 . S
C316 C304 1.349 . S
C316 H310 0.950 . S
C316 C317 1.327 . S
C317 H311 0.950 . S
C317 C316 1.327 . S
C317 C321 1.429 . S
C318 C301 1.574 . S
C318 H312 0.949 . S
C318 C322 1.368 . S
C319 C300 1.429 . S
C319 C313 1.429 . S
C319 C320 1.523 . S
C320 C301 1.368 . S
C320 C314 1.368 . S
C320 C319 1.523 . S
C321 C305 1.429 . S
C321 C317 1.429 . S
C321 C322 1.523 . S
C322 C306 1.368 . S
C322 C318 1.368 . S
C322 C321 1.523 . S
H323 C298 0.950 . S
H324 C300 0.950 . S
H325 C301 0.949 . S
H326 C303 0.950 . S
H327 C305 0.950 . S
C328 C329 1.349 . S
C328 C330 1.327 . S
C328 H353 0.950 . S
C329 C328 1.349 . S
C329 C345 1.349 . S
C330 C328 1.327 . S
C330 C349 1.429 . S
C330 H354 0.950 . S
C331 C348 1.574 . S
C331 C350 1.368 . S
C331 H355 0.949 . S
H332 C336 0.949 . S
C333 C334 1.349 . S
C333 C335 1.327 . S
C333 H356 0.950 . S
C334 C333 1.349 . S
C334 C346 1.349 . S
C335 C333 1.327 . S
C335 C351 1.429 . S
C335 H357 0.950 . S
C336 H332 0.949 . S
C336 C344 1.574 . S
C336 C352 1.368 . S
H337 C345 0.950 . S
H338 C343 0.950 . S
H339 C344 0.949 . S
H340 C346 0.950 . S
H341 C347 0.950 . S
H342 C348 0.949 . S
C343 H338 0.950 . S
C343 C345 1.327 . S
C343 C349 1.429 . S
C344 C336 1.574 . S
C344 H339 0.949 . S
C344 C350 1.368 . S
C345 C329 1.349 . S
C345 H337 0.950 . S
C345 C343 1.327 . S
C346 C334 1.349 . S
C346 H340 0.950 . S
C346 C347 1.327 . S
C347 H341 0.950 . S
C347 C346 1.327 . S
C347 C351 1.429 . S
C348 C331 1.574 . S
C348 H342 0.949 . S
C348 C352 1.368 . S
C349 C330 1.429 . S
C349 C343 1.429 . S
C349 C350 1.523 . S
C350 C331 1.368 . S
C350 C344 1.368 . S
C350 C349 1.523 . S
C351 C335 1.429 . S
C351 C347 1.429 . S
C351 C352 1.523 . S
C352 C336 1.368 . S
C352 C348 1.368 . S
C352 C351 1.523 . S
H353 C328 0.950 . S
H354 C330 0.950 . S
H355 C331 0.949 . S
H356 C333 0.950 . S
H357 C335 0.950 . S
C358 C359 1.349 . S
C358 C360 1.327 . S
C358 H383 0.950 . S
C359 C358 1.349 . S
C359 C375 1.349 . S
C360 C358 1.327 . S
C360 C379 1.429 . S
C360 H384 0.950 . S
C361 C378 1.574 . S
C361 C380 1.368 . S
C361 H385 0.949 . S
H362 C366 0.949 . S
C363 C364 1.349 . S
C363 C365 1.327 . S
C363 H386 0.950 . S
C364 C363 1.349 . S
C364 C376 1.349 . S
C365 C363 1.327 . S
C365 C381 1.429 . S
C365 H387 0.950 . S
C366 H362 0.949 . S
C366 C374 1.574 . S
C366 C382 1.368 . S
H367 C375 0.950 . S
H368 C373 0.950 . S
H369 C374 0.949 . S
H370 C376 0.950 . S
H371 C377 0.950 . S
H372 C378 0.949 . S
C373 H368 0.950 . S
C373 C375 1.327 . S
C373 C379 1.429 . S
C374 C366 1.574 . S
C374 H369 0.949 . S
C374 C380 1.368 . S
C375 C359 1.349 . S
C375 H367 0.950 . S
C375 C373 1.327 . S
C376 C364 1.349 . S
C376 H370 0.950 . S
C376 C377 1.327 . S
C377 H371 0.950 . S
C377 C376 1.327 . S
C377 C381 1.429 . S
C378 C361 1.574 . S
C378 H372 0.949 . S
C378 C382 1.368 . S
C379 C360 1.429 . S
C379 C373 1.429 . S
C379 C380 1.523 . S
C380 C361 1.368 . S
C380 C374 1.368 . S
C380 C379 1.523 . S
C381 C365 1.429 . S
C381 C377 1.429 . S
C381 C382 1.523 . S
C382 C366 1.368 . S
C382 C378 1.368 . S
C382 C381 1.523 . S
H383 C358 0.950 . S
H384 C360 0.950 . S
H385 C361 0.949 . S
H386 C363 0.950 . S
H387 C365 0.950 . S
C388 C389 1.349 . S
C388 C390 1.327 . S
C388 H413 0.950 . S
C389 C388 1.349 . S
C389 C405 1.349 . S
C390 C388 1.327 . S
C390 C409 1.429 . S
C390 H414 0.950 . S
C391 C408 1.574 . S
C391 C410 1.368 . S
C391 H415 0.949 . S
H392 C396 0.949 . S
C393 C394 1.349 . S
C393 C395 1.327 . S
C393 H416 0.950 . S
C394 C393 1.349 . S
C394 C406 1.349 . S
C395 C393 1.327 . S
C395 C411 1.429 . S
C395 H417 0.950 . S
C396 H392 0.949 . S
C396 C404 1.574 . S
C396 C412 1.368 . S
H397 C405 0.950 . S
H398 C403 0.950 . S
H399 C404 0.949 . S
H400 C406 0.950 . S
H401 C407 0.950 . S
H402 C408 0.949 . S
C403 H398 0.950 . S
C403 C405 1.327 . S
C403 C409 1.429 . S
C404 C396 1.574 . S
C404 H399 0.949 . S
C404 C410 1.368 . S
C405 C389 1.349 . S
C405 H397 0.950 . S
C405 C403 1.327 . S
C406 C394 1.349 . S
C406 H400 0.950 . S
C406 C407 1.327 . S
C407 H401 0.950 . S
C407 C406 1.327 . S
C407 C411 1.429 . S
C408 C391 1.574 . S
C408 H402 0.949 . S
C408 C412 1.368 . S
C409 C390 1.429 . S
C409 C403 1.429 . S
C409 C410 1.523 . S
C410 C391 1.368 . S
C410 C404 1.368 . S
C410 C409 1.523 . S
C411 C395 1.429 . S
C411 C407 1.429 . S
C411 C412 1.523 . S
C412 C396 1.368 . S
C412 C408 1.368 . S
C412 C411 1.523 . S
H413 C388 0.950 . S
H414 C390 0.950 . S
H415 C391 0.949 . S
H416 C393 0.950 . S
H417 C395 0.950 . S
C418 C419 1.349 . S
C418 C420 1.327 . S
C418 H443 0.950 . S
C419 C418 1.349 . S
C419 C435 1.349 . S
C420 C418 1.327 . S
C420 C439 1.429 . S
C420 H444 0.950 . S
C421 C438 1.574 . S
C421 C440 1.368 . S
C421 H445 0.949 . S
H422 C426 0.949 . S
C423 C424 1.349 . S
C423 C425 1.327 . S
C423 H446 0.950 . S
C424 C423 1.349 . S
C424 C436 1.349 . S
C425 C423 1.327 . S
C425 C441 1.429 . S
C425 H447 0.950 . S
C426 H422 0.949 . S
C426 C434 1.574 . S
C426 C442 1.368 . S
H427 C435 0.950 . S
H428 C433 0.950 . S
H429 C434 0.949 . S
H430 C436 0.950 . S
H431 C437 0.950 . S
H432 C438 0.949 . S
C433 H428 0.950 . S
C433 C435 1.327 . S
C433 C439 1.429 . S
C434 C426 1.574 . S
C434 H429 0.949 . S
C434 C440 1.368 . S
C435 C419 1.349 . S
C435 H427 0.950 . S
C435 C433 1.327 . S
C436 C424 1.349 . S
C436 H430 0.950 . S
C436 C437 1.327 . S
C437 H431 0.950 . S
C437 C436 1.327 . S
C437 C441 1.429 . S
C438 C421 1.574 . S
C438 H432 0.949 . S
C438 C442 1.368 . S
C439 C420 1.429 . S
C439 C433 1.429 . S
C439 C440 1.523 . S
C440 C421 1.368 . S
C440 C434 1.368 . S
C440 C439 1.523 . S
C441 C425 1.429 . S
C441 C437 1.429 . S
C441 C442 1.523 . S
C442 C426 1.368 . S
C442 C438 1.368 . S
C442 C441 1.523 . S
H443 C418 0.950 . S
H444 C420 0.950 . S
H445 C421 0.949 . S
H446 C423 0.950 . S
H447 C425 0.950 . S
C448 C449 1.349 . S
C448 C450 1.327 . S
C448 H473 0.950 . S
C449 C448 1.349 . S
C449 C465 1.349 . S
C450 C448 1.327 . S
C450 C469 1.429 . S
C450 H474 0.950 . S
C451 C468 1.574 . S
C451 C470 1.368 . S
C451 H475 0.949 . S
H452 C456 0.949 . S
C453 C454 1.349 . S
C453 C455 1.327 . S
C453 H476 0.950 . S
C454 C453 1.349 . S
C454 C466 1.349 . S
C455 C453 1.327 . S
C455 C471 1.429 . S
C455 H477 0.950 . S
C456 H452 0.949 . S
C456 C464 1.574 . S
C456 C472 1.368 . S
H457 C465 0.950 . S
H458 C463 0.950 . S
H459 C464 0.949 . S
H460 C466 0.950 . S
H461 C467 0.950 . S
H462 C468 0.949 . S
C463 H458 0.950 . S
C463 C465 1.327 . S
C463 C469 1.429 . S
C464 C456 1.574 . S
C464 H459 0.949 . S
C464 C470 1.368 . S
C465 C449 1.349 . S
C465 H457 0.950 . S
C465 C463 1.327 . S
C466 C454 1.349 . S
C466 H460 0.950 . S
C466 C467 1.327 . S
C467 H461 0.950 . S
C467 C466 1.327 . S
C467 C471 1.429 . S
C468 C451 1.574 . S
C468 H462 0.949 . S
C468 C472 1.368 . S
C469 C450 1.429 . S
C469 C463 1.429 . S
C469 C470 1.523 . S
C470 C451 1.368 . S
C470 C464 1.368 . S
C470 C469 1.523 . S
C471 C455 1.429 . S
C471 C467 1.429 . S
C471 C472 1.523 . S
C472 C456 1.368 . S
C472 C468 1.368 . S
C472 C471 1.523 . S
H473 C448 0.950 . S
H474 C450 0.950 . S
H475 C451 0.949 . S
H476 C453 0.950 . S
H477 C455 0.950 . S
C124 C91 1.295 . S
C119 C68 1.396 . S
C149 C11 1.381 . S
C154 C115 1.333 . S
C179 C30 1.577 . S
C184 C94 1.473 . S
C209 C49 1.564 1_554 S
C214 C112 1.452 . S
C244 C92 1.573 . S
C239 C2 1.567 . S
C274 C114 1.625 . S
C269 C25 1.694 . S
C299 C40 1.648 . S
C304 C93 1.617 . S
C329 C59 1.561 . S
C334 C113 1.528 . S
C364 C111 1.504 . S
C359 C21 1.537 . S
C394 C90 1.518 . S
C389 C44 1.580 . S
C424 C110 1.458 . S
C419 C63 1.493 . S
C449 C6 1.493 1_556 S
C454 C89 1.441 . S
