# Generated by pormake.
# Topology pto, (3,4)-cn, num edge types: 1
# Building blocks:
#     Node 0, Type 0, BuildingBlock: WUSLED_clean_sbu_0, # of connection points: 3
#     Node 1, Type 0, BuildingBlock: WUSLED_clean_sbu_0, # of connection points: 3
#     Node 2, Type 0, BuildingBlock: WUSLED_clean_sbu_0, # of connection points: 3
#     Node 3, Type 0, BuildingBlock: WUSLED_clean_sbu_0, # of connection points: 3
#     Node 4, Type 0, BuildingBlock: WUSLED_clean_sbu_0, # of connection points: 3
#     Node 5, Type 0, BuildingBlock: WUSLED_clean_sbu_0, # of connection points: 3
#     Node 6, Type 0, BuildingBlock: WUSLED_clean_sbu_0, # of connection points: 3
#     Node 7, Type 0, BuildingBlock: WUSLED_clean_sbu_0, # of connection points: 3
#     Node 8, Type 1, BuildingBlock: NAWXER_clean_linker_0, # of connection points: 4
#     Node 9, Type 1, BuildingBlock: NAWXER_clean_linker_0, # of connection points: 4
#     Node 10, Type 1, BuildingBlock: NAWXER_clean_linker_0, # of connection points: 4
#     Node 11, Type 1, BuildingBlock: NAWXER_clean_linker_0, # of connection points: 4
#     Node 12, Type 1, BuildingBlock: NAWXER_clean_linker_0, # of connection points: 4
#     Node 13, Type 1, BuildingBlock: NAWXER_clean_linker_0, # of connection points: 4
#     Edge 14, Type (0, 1), BuildingBlock: UVAHIK_clean_linker_0, # of connection points: 2
#     Edge 15, Type (0, 1), BuildingBlock: UVAHIK_clean_linker_0, # of connection points: 2
#     Edge 16, Type (0, 1), BuildingBlock: UVAHIK_clean_linker_0, # of connection points: 2
#     Edge 17, Type (0, 1), BuildingBlock: UVAHIK_clean_linker_0, # of connection points: 2
#     Edge 18, Type (0, 1), BuildingBlock: UVAHIK_clean_linker_0, # of connection points: 2
#     Edge 19, Type (0, 1), BuildingBlock: UVAHIK_clean_linker_0, # of connection points: 2
#     Edge 20, Type (0, 1), BuildingBlock: UVAHIK_clean_linker_0, # of connection points: 2
#     Edge 21, Type (0, 1), BuildingBlock: UVAHIK_clean_linker_0, # of connection points: 2
#     Edge 22, Type (0, 1), BuildingBlock: UVAHIK_clean_linker_0, # of connection points: 2
#     Edge 23, Type (0, 1), BuildingBlock: UVAHIK_clean_linker_0, # of connection points: 2
#     Edge 24, Type (0, 1), BuildingBlock: UVAHIK_clean_linker_0, # of connection points: 2
#     Edge 25, Type (0, 1), BuildingBlock: UVAHIK_clean_linker_0, # of connection points: 2
#     Edge 26, Type (0, 1), BuildingBlock: UVAHIK_clean_linker_0, # of connection points: 2
#     Edge 27, Type (0, 1), BuildingBlock: UVAHIK_clean_linker_0, # of connection points: 2
#     Edge 28, Type (0, 1), BuildingBlock: UVAHIK_clean_linker_0, # of connection points: 2
#     Edge 29, Type (0, 1), BuildingBlock: UVAHIK_clean_linker_0, # of connection points: 2
#     Edge 30, Type (0, 1), BuildingBlock: UVAHIK_clean_linker_0, # of connection points: 2
#     Edge 31, Type (0, 1), BuildingBlock: UVAHIK_clean_linker_0, # of connection points: 2
#     Edge 32, Type (0, 1), BuildingBlock: UVAHIK_clean_linker_0, # of connection points: 2
#     Edge 33, Type (0, 1), BuildingBlock: UVAHIK_clean_linker_0, # of connection points: 2
#     Edge 34, Type (0, 1), BuildingBlock: UVAHIK_clean_linker_0, # of connection points: 2
#     Edge 35, Type (0, 1), BuildingBlock: UVAHIK_clean_linker_0, # of connection points: 2
#     Edge 36, Type (0, 1), BuildingBlock: UVAHIK_clean_linker_0, # of connection points: 2
#     Edge 37, Type (0, 1), BuildingBlock: UVAHIK_clean_linker_0, # of connection points: 2
# Relax obj value: 0.000
# Max RMSD: 0.010
# Mean RMSD: 0.005
data_MOF--net-pto--node1-WUSLED_clean_sbu_0--node2-NAWXER_clean_linker_0--edge1-UVAHIK_clean_linker_0
_symmetry_space_group_name_H-M    P1
_symmetry_Int_Tables_number       1
_symmetry_cell_setting            triclinic
loop_
_symmetry_equiv_pos_as_xyz
'x, y, z'
_cell_length_a     62.573129
_cell_length_b     85.33915
_cell_length_c     74.080218
_cell_angle_alpha  89.530712
_cell_angle_beta   90.650446
_cell_angle_gamma 90.555791
loop_
_atom_site_label
_atom_site_type_symbol
_atom_site_fract_x
_atom_site_fract_y
_atom_site_fract_z
_atom_type_partial_charge
C0 C 0.23999 0.23222 0.33311 0.0
C1 C 0.25526 0.22081 0.32932 0.0
C2 C 0.24283 0.20486 0.35466 0.0
C3 C 0.25667 0.20724 0.34 0.0
C4 C 0.2275 0.21635 0.35828 0.0
C5 C 0.22612 0.22989 0.34761 0.0
U6 U 0.25676 0.25763 0.29293 0.0
O7 O 0.23729 0.27199 0.2744 0.0
O8 O 0.26215 0.28313 0.29118 0.0
C9 C 0.24613 0.2852 0.27981 0.0
C10 C 0.23837 0.2466 0.32214 0.0
C11 C 0.23115 0.29767 0.28441 0.0
C12 C 0.20269 0.30794 0.30284 0.0
C13 C 0.21719 0.29605 0.29902 0.0
C14 C 0.21612 0.32317 0.27759 0.0
C15 C 0.20188 0.32161 0.29208 0.0
C16 C 0.23059 0.31131 0.2738 0.0
C17 C 0.29903 0.24305 0.26019 0.0
C18 C 0.32342 0.2583 0.24146 0.0
C19 C 0.31298 0.23204 0.23258 0.0
C20 C 0.30032 0.23064 0.24795 0.0
C21 C 0.32476 0.24585 0.2292 0.0
C22 C 0.31059 0.25695 0.25676 0.0
C23 C 0.28569 0.24113 0.2764 0.0
O24 O 0.25529 0.25585 0.32252 0.0
O25 O 0.23029 0.24479 0.30583 0.0
O26 O 0.26506 0.23944 0.27335 0.0
O27 O 0.29016 0.25039 0.29007 0.0
H28 H 0.26612 0.22244 0.31816 0.0
H29 H 0.2688 0.19872 0.33694 0.0
H30 H 0.21637 0.2148 0.36926 0.0
H31 H 0.21418 0.23856 0.35066 0.0
H32 H 0.19183 0.3063 0.314 0.0
H33 H 0.21741 0.28554 0.30733 0.0
H34 H 0.21619 0.33364 0.26921 0.0
H35 H 0.24131 0.31276 0.26251 0.0
H36 H 0.33213 0.26914 0.23911 0.0
H37 H 0.31385 0.22219 0.2235 0.0
H38 H 0.29157 0.21982 0.25034 0.0
H39 H 0.30976 0.26676 0.2659 0.0
C40 C 0.24151 0.78591 0.68383 0.0
C41 C 0.25281 0.79903 0.69031 0.0
C42 C 0.24462 0.8134 0.66253 0.0
C43 C 0.25431 0.81268 0.67977 0.0
C44 C 0.23339 0.80016 0.65613 0.0
C45 C 0.23185 0.78656 0.6667 0.0
U46 U 0.25785 0.76057 0.72431 0.0
O47 O 0.23829 0.7459 0.74234 0.0
O48 O 0.26318 0.73512 0.72604 0.0
C49 C 0.24701 0.73281 0.73694 0.0
C50 C 0.23972 0.77147 0.6947 0.0
C51 C 0.23202 0.7202 0.73175 0.0
C52 C 0.20004 0.711 0.71601 0.0
C53 C 0.21431 0.72314 0.72046 0.0
C54 C 0.22127 0.69283 0.73379 0.0
C55 C 0.20334 0.6957 0.72265 0.0
C56 C 0.23544 0.70498 0.7383 0.0
C57 C 0.30031 0.77549 0.75758 0.0
C58 C 0.30986 0.76121 0.78498 0.0
C59 C 0.329 0.78504 0.77701 0.0
C60 C 0.31631 0.78657 0.76145 0.0
C61 C 0.32589 0.77238 0.78902 0.0
C62 C 0.29717 0.76275 0.76939 0.0
C63 C 0.28701 0.77741 0.74124 0.0
O64 O 0.25658 0.76241 0.69466 0.0
O65 O 0.23153 0.77312 0.71083 0.0
O66 O 0.2664 0.7788 0.74398 0.0
O67 O 0.29141 0.76798 0.72788 0.0
H68 H 0.26048 0.79869 0.70349 0.0
H69 H 0.26327 0.8226 0.68501 0.0
H70 H 0.22552 0.80039 0.64304 0.0
H71 H 0.22305 0.77654 0.6615 0.0
H72 H 0.18652 0.71356 0.70724 0.0
H73 H 0.2115 0.73482 0.71516 0.0
H74 H 0.22414 0.68124 0.73931 0.0
H75 H 0.24902 0.7025 0.74703 0.0
H76 H 0.30688 0.75141 0.79402 0.0
H77 H 0.34141 0.79371 0.77952 0.0
H78 H 0.31901 0.79643 0.75243 0.0
H79 H 0.28485 0.75407 0.76658 0.0
C80 C 0.72772 0.77717 0.2649 0.0
C81 C 0.73147 0.76542 0.25222 0.0
C82 C 0.70136 0.77449 0.23387 0.0
C83 C 0.71842 0.7641 0.23682 0.0
C84 C 0.6976 0.78613 0.24679 0.0
C85 C 0.71068 0.78746 0.26214 0.0
U86 U 0.77093 0.76184 0.297 0.0
O87 O 0.79799 0.77416 0.30991 0.0
O88 O 0.77334 0.76302 0.32664 0.0
C89 C 0.79035 0.77217 0.32624 0.0
C90 C 0.74147 0.77888 0.28101 0.0
C91 C 0.78922 0.78641 0.33722 0.0
C92 C 0.77737 0.81315 0.34156 0.0
C93 C 0.77813 0.79964 0.33099 0.0
C94 C 0.79856 0.80024 0.36476 0.0
C95 C 0.78759 0.81361 0.35858 0.0
C96 C 0.79937 0.78678 0.35416 0.0
C97 C 0.79566 0.72177 0.28778 0.0
C98 C 0.82536 0.71104 0.30516 0.0
C99 C 0.80894 0.69585 0.28114 0.0
C100 C 0.79465 0.70801 0.27765 0.0
C101 C 0.82459 0.69724 0.29485 0.0
C102 C 0.81101 0.72322 0.30163 0.0
C103 C 0.78075 0.73451 0.28349 0.0
O104 O 0.73737 0.76912 0.29436 0.0
O105 O 0.76201 0.78054 0.27786 0.0
O106 O 0.78958 0.74778 0.27819 0.0
O107 O 0.7652 0.73642 0.29502 0.0
H108 H 0.74457 0.75735 0.25417 0.0
H109 H 0.72193 0.75511 0.22708 0.0
H110 H 0.68441 0.79416 0.24513 0.0
H111 H 0.70749 0.79654 0.27186 0.0
H112 H 0.76858 0.82316 0.33649 0.0
H113 H 0.77009 0.79952 0.31796 0.0
H114 H 0.80681 0.80026 0.37769 0.0
H115 H 0.80802 0.77667 0.35917 0.0
H116 H 0.83732 0.71255 0.3157 0.0
H117 H 0.80764 0.6853 0.27316 0.0
H118 H 0.78282 0.70667 0.26696 0.0
H119 H 0.812 0.7338 0.30959 0.0
C120 C 0.75813 0.21271 0.70715 0.0
C121 C 0.774 0.21487 0.69412 0.0
C122 C 0.76586 0.18912 0.68161 0.0
C123 C 0.77783 0.20318 0.68144 0.0
C124 C 0.74988 0.18711 0.69468 0.0
C125 C 0.74607 0.1988 0.70732 0.0
U126 U 0.76923 0.25289 0.72769 0.0
O127 O 0.74705 0.27016 0.73859 0.0
O128 O 0.77168 0.25983 0.75619 0.0
C129 C 0.75476 0.2688 0.7551 0.0
C130 C 0.75405 0.22477 0.72071 0.0
C131 C 0.73885 0.2664 0.76934 0.0
C132 C 0.70965 0.25153 0.78276 0.0
C133 C 0.72482 0.25347 0.76913 0.0
C134 C 0.72258 0.27534 0.79695 0.0
C135 C 0.70829 0.2625 0.7968 0.0
C136 C 0.73769 0.27726 0.78334 0.0
C137 C 0.81112 0.28013 0.70706 0.0
C138 C 0.81871 0.3059 0.71944 0.0
C139 C 0.83837 0.2968 0.69362 0.0
C140 C 0.82678 0.28272 0.694 0.0
C141 C 0.83449 0.30858 0.70633 0.0
C142 C 0.80712 0.2918 0.71979 0.0
C143 C 0.79913 0.26524 0.7073 0.0
O144 O 0.76977 0.2274 0.73224 0.0
O145 O 0.74522 0.23768 0.71453 0.0
O146 O 0.77862 0.2663 0.70352 0.0
O147 O 0.80322 0.25596 0.72113 0.0
H148 H 0.78349 0.22556 0.69382 0.0
H149 H 0.79039 0.20504 0.67169 0.0
H150 H 0.74013 0.17656 0.69504 0.0
H151 H 0.7337 0.19698 0.71726 0.0
H152 H 0.69878 0.2416 0.78213 0.0
H153 H 0.72553 0.24495 0.75839 0.0
H154 H 0.72226 0.28385 0.80771 0.0
H155 H 0.74849 0.28726 0.78375 0.0
H156 H 0.81514 0.31478 0.72929 0.0
H157 H 0.8506 0.29837 0.68351 0.0
H158 H 0.83011 0.2738 0.68411 0.0
H159 H 0.79502 0.28999 0.72997 0.0
C160 C 0.7923 0.71813 0.73562 0.0
C161 C 0.80687 0.71991 0.72147 0.0
C162 C 0.81918 0.69317 0.72633 0.0
C163 C 0.82024 0.70753 0.71688 0.0
C164 C 0.80447 0.6915 0.74046 0.0
C165 C 0.79117 0.70388 0.74505 0.0
U166 U 0.76954 0.75915 0.72835 0.0
O167 O 0.73674 0.76763 0.73137 0.0
O168 O 0.76256 0.77734 0.74833 0.0
C169 C 0.74186 0.77652 0.74521 0.0
C170 C 0.77827 0.73101 0.74081 0.0
C171 C 0.72835 0.77489 0.76133 0.0
C172 C 0.70382 0.75993 0.78022 0.0
C173 C 0.71693 0.761 0.76506 0.0
C174 C 0.71375 0.78646 0.78836 0.0
C175 C 0.70197 0.77268 0.79203 0.0
C176 C 0.72672 0.78755 0.77315 0.0
C177 C 0.78794 0.78429 0.68842 0.0
C178 C 0.77259 0.80971 0.68143 0.0
C179 C 0.80175 0.79996 0.66359 0.0
C180 C 0.80226 0.78634 0.67419 0.0
C181 C 0.78686 0.8118 0.66702 0.0
C182 C 0.77314 0.79607 0.69205 0.0
C183 C 0.78857 0.76979 0.69924 0.0
O184 O 0.78807 0.74378 0.74647 0.0
O185 O 0.76226 0.73389 0.72967 0.0
O186 O 0.77103 0.76119 0.69879 0.0
O187 O 0.7968 0.77116 0.71556 0.0
H188 H 0.80789 0.73087 0.71401 0.0
H189 H 0.83124 0.70915 0.70582 0.0
H190 H 0.80345 0.68071 0.7482 0.0
H191 H 0.78005 0.70233 0.75604 0.0
H192 H 0.69484 0.7492 0.78247 0.0
H193 H 0.71799 0.75101 0.75621 0.0
H194 H 0.71308 0.79641 0.79731 0.0
H195 H 0.73549 0.79834 0.77059 0.0
H196 H 0.76078 0.8185 0.68434 0.0
H197 H 0.81319 0.80127 0.65281 0.0
H198 H 0.81385 0.77738 0.67127 0.0
H199 H 0.76194 0.79465 0.70301 0.0
C200 C 0.72455 0.24027 0.26559 0.0
C201 C 0.7275 0.25291 0.25361 0.0
C202 C 0.69774 0.24361 0.23493 0.0
C203 C 0.71424 0.25455 0.23838 0.0
C204 C 0.69484 0.23101 0.24706 0.0
C205 C 0.70814 0.22936 0.26224 0.0
U206 U 0.76797 0.25555 0.29749 0.0
O207 O 0.77064 0.25393 0.3271 0.0
O208 O 0.79516 0.24343 0.3102 0.0
C209 C 0.78765 0.24505 0.32658 0.0
C210 C 0.73841 0.23834 0.28158 0.0
C211 C 0.78659 0.23061 0.33751 0.0
C212 C 0.77471 0.20364 0.34181 0.0
C213 C 0.77545 0.21733 0.33128 0.0
C214 C 0.79602 0.21646 0.36499 0.0
C215 C 0.785 0.20305 0.3588 0.0
C216 C 0.79681 0.2301 0.35442 0.0
C217 C 0.79233 0.29624 0.28812 0.0
C218 C 0.82257 0.30721 0.30478 0.0
C219 C 0.80471 0.32271 0.28169 0.0
C220 C 0.79054 0.31029 0.27837 0.0
C221 C 0.82101 0.3213 0.29483 0.0
C222 C 0.80833 0.29477 0.30143 0.0
C223 C 0.77751 0.28326 0.28398 0.0
O224 O 0.75892 0.23706 0.27829 0.0
O225 O 0.73444 0.24775 0.29506 0.0
O226 O 0.76208 0.2809 0.29562 0.0
O227 O 0.78639 0.27023 0.27862 0.0
H228 H 0.74006 0.26149 0.25606 0.0
H229 H 0.71675 0.26448 0.22944 0.0
H230 H 0.68248 0.22227 0.24468 0.0
H231 H 0.70567 0.21952 0.27134 0.0
H232 H 0.76588 0.19359 0.33675 0.0
H233 H 0.76735 0.21756 0.31827 0.0
H234 H 0.80432 0.21634 0.3779 0.0
H235 H 0.80549 0.24025 0.35943 0.0
H236 H 0.83502 0.30569 0.31489 0.0
H237 H 0.80279 0.33347 0.27401 0.0
H238 H 0.7782 0.31165 0.26811 0.0
H239 H 0.80991 0.28397 0.3091 0.0
C240 C 0.2432 0.23093 0.68221 0.0
C241 C 0.255 0.21814 0.68873 0.0
C242 C 0.24672 0.20361 0.66129 0.0
C243 C 0.25671 0.20457 0.67838 0.0
C244 C 0.23509 0.21655 0.65479 0.0
C245 C 0.23334 0.23008 0.66518 0.0
U246 U 0.25896 0.2563 0.72247 0.0
O247 O 0.26279 0.28185 0.7246 0.0
O248 O 0.23876 0.26957 0.74099 0.0
C249 C 0.24654 0.28316 0.73559 0.0
C250 C 0.24085 0.24515 0.69307 0.0
C251 C 0.23065 0.29539 0.73117 0.0
C252 C 0.21666 0.31596 0.71147 0.0
C253 C 0.23112 0.30382 0.71478 0.0
C254 C 0.20072 0.31121 0.74066 0.0
C255 C 0.2014 0.31991 0.72445 0.0
C256 C 0.21524 0.29915 0.74399 0.0
C257 C 0.30295 0.24269 0.75502 0.0
C258 C 0.30964 0.2542 0.78449 0.0
C259 C 0.33555 0.23668 0.77167 0.0
C260 C 0.32249 0.23487 0.75638 0.0
C261 C 0.32924 0.24631 0.78594 0.0
C262 C 0.29664 0.25246 0.76911 0.0
C263 C 0.28943 0.24051 0.73884 0.0
O264 O 0.23308 0.2429 0.7093 0.0
O265 O 0.25718 0.25494 0.69282 0.0
O266 O 0.29301 0.2504 0.7255 0.0
O267 O 0.26898 0.23804 0.74178 0.0
H268 H 0.26282 0.21865 0.70184 0.0
H269 H 0.26599 0.19489 0.68368 0.0
H270 H 0.227 0.21613 0.6418 0.0
H271 H 0.22414 0.23984 0.65996 0.0
H272 H 0.21782 0.3225 0.69893 0.0
H273 H 0.24284 0.30123 0.70461 0.0
H274 H 0.18896 0.31371 0.75082 0.0
H275 H 0.21454 0.29284 0.75673 0.0
H276 H 0.30446 0.26185 0.79515 0.0
H277 H 0.35042 0.2303 0.77246 0.0
H278 H 0.32762 0.22729 0.74562 0.0
H279 H 0.28167 0.25871 0.76823 0.0
C280 C 0.21529 0.73642 0.31413 0.0
C281 C 0.21886 0.7248 0.30124 0.0
C282 C 0.19095 0.7084 0.31453 0.0
C283 C 0.20681 0.7109 0.30145 0.0
C284 C 0.18752 0.72012 0.32742 0.0
C285 C 0.19959 0.73399 0.3272 0.0
U286 U 0.25742 0.76326 0.29325 0.0
O287 O 0.25757 0.78881 0.28913 0.0
O288 O 0.28227 0.7779 0.30618 0.0
C289 C 0.27373 0.79103 0.30034 0.0
C290 C 0.22774 0.75111 0.31402 0.0
C291 C 0.27055 0.80307 0.3141 0.0
C292 C 0.25174 0.81303 0.34008 0.0
C293 C 0.25476 0.80129 0.32728 0.0
C294 C 0.28036 0.82834 0.32669 0.0
C295 C 0.26445 0.82674 0.33988 0.0
C296 C 0.28336 0.81661 0.31393 0.0
C297 C 0.286 0.75003 0.25064 0.0
C298 C 0.31492 0.76489 0.2368 0.0
C299 C 0.3008 0.74162 0.22221 0.0
C300 C 0.28632 0.73949 0.23626 0.0
C301 C 0.31527 0.75435 0.22228 0.0
C302 C 0.30035 0.76277 0.25085 0.0
C303 C 0.27053 0.74755 0.26519 0.0
O304 O 0.24831 0.74964 0.31734 0.0
O305 O 0.22356 0.7607 0.3005 0.0
O306 O 0.25381 0.75675 0.26469 0.0
O307 O 0.27873 0.74582 0.2815 0.0
H308 H 0.2309 0.72653 0.291 0.0
H309 H 0.20969 0.70221 0.29121 0.0
H310 H 0.17566 0.71849 0.33782 0.0
H311 H 0.19668 0.74283 0.33728 0.0
H312 H 0.23921 0.81149 0.34992 0.0
H313 H 0.2447 0.79089 0.32757 0.0
H314 H 0.29066 0.8386 0.32632 0.0
H315 H 0.29568 0.81813 0.30389 0.0
H316 H 0.3257 0.77489 0.23717 0.0
H317 H 0.30084 0.73315 0.2114 0.0
H318 H 0.27537 0.72958 0.23591 0.0
H319 H 0.30024 0.77106 0.26185 0.0
C320 C 0.97995 0.45671 0.30481 0.0
C321 C 0.96354 0.45409 0.31733 0.0
C322 C 0.99299 0.47007 0.30592 0.0
C323 C 0.99012 0.481 0.31974 0.0
C324 C 0.96061 0.46511 0.33109 0.0
C325 C 0.97369 0.47847 0.3322 0.0
C326 C 1.00331 0.49551 0.32062 0.0
C327 C 0.04802 0.45519 0.33005 0.0
C328 C 0.06357 0.4537 0.31662 0.0
C329 C 0.03579 0.46879 0.33111 0.0
C330 C 0.03876 0.48113 0.31868 0.0
C331 C 0.06681 0.46623 0.30447 0.0
C332 C 0.05462 0.47982 0.30556 0.0
C333 C 0.02586 0.49559 0.31942 0.0
C334 C 0.0485 0.56362 0.33238 0.0
C335 C 0.0646 0.56575 0.31945 0.0
C336 C 0.03604 0.54992 0.33262 0.0
C337 C 0.03924 0.53815 0.31981 0.0
C338 C 0.06804 0.55379 0.30688 0.0
C339 C 0.05556 0.54011 0.30713 0.0
C340 C 0.02609 0.52359 0.3198 0.0
C341 C 0.98142 0.56272 0.30544 0.0
C342 C 0.96472 0.56495 0.31769 0.0
C343 C 0.99408 0.54934 0.30648 0.0
C344 C 0.99058 0.53798 0.31999 0.0
C345 C 0.9611 0.55347 0.33108 0.0
C346 C 0.97382 0.54008 0.33215 0.0
C347 C 1.00353 0.52351 0.32085 0.0
H348 H 0.98275 0.44843 0.29411 0.0
H349 H 1.00513 0.47194 0.2958 0.0
H350 H 0.94791 0.4636 0.34078 0.0
H351 H 0.97097 0.48686 0.34282 0.0
H352 H 0.04508 0.44575 0.3396 0.0
H353 H 0.02402 0.46967 0.34166 0.0
H354 H 0.07892 0.4656 0.29418 0.0
H355 H 0.0574 0.48925 0.29596 0.0
H356 H 0.04571 0.57244 0.34248 0.0
H357 H 0.02399 0.5485 0.3429 0.0
H358 H 0.08016 0.55509 0.29664 0.0
H359 H 0.05843 0.53115 0.29719 0.0
H360 H 0.98478 0.57135 0.29503 0.0
H361 H 0.00647 0.54781 0.29658 0.0
H362 H 0.94816 0.55467 0.34054 0.0
H363 H 0.9706 0.53137 0.3425 0.0
N364 N 0.99306 0.50947 0.32138 0.0
N365 N 0.03632 0.50963 0.31898 0.0
C366 C 0.97779 0.45276 0.68799 0.0
C367 C 0.9618 0.45074 0.70103 0.0
C368 C 0.99015 0.4665 0.68743 0.0
C369 C 0.98692 0.47845 0.70002 0.0
C370 C 0.9584 0.46285 0.71342 0.0
C371 C 0.97075 0.47658 0.71285 0.0
C372 C 0.9997 0.49319 0.69951 0.0
C373 C 0.04597 0.45523 0.71443 0.0
C374 C 0.06196 0.45271 0.70161 0.0
C375 C 0.03296 0.46841 0.71322 0.0
C376 C 0.0355 0.4793 0.69907 0.0
C377 C 0.06456 0.46367 0.6875 0.0
C378 C 0.05156 0.47691 0.68633 0.0
C379 C 0.0222 0.49357 0.69807 0.0
C380 C 0.04442 0.5611 0.71192 0.0
C381 C 0.06063 0.5635 0.69916 0.0
C382 C 0.03165 0.54756 0.71145 0.0
C383 C 0.03458 0.53626 0.69803 0.0
C384 C 0.06368 0.55208 0.68587 0.0
C385 C 0.05084 0.53858 0.68537 0.0
C386 C 0.0217 0.52158 0.69776 0.0
C387 C 0.97507 0.56092 0.68819 0.0
C388 C 0.95885 0.5618 0.70113 0.0
C389 C 0.98827 0.54779 0.68751 0.0
C390 C 0.98576 0.53541 0.69997 0.0
C391 C 0.95627 0.54932 0.71344 0.0
C392 C 0.96952 0.53626 0.71282 0.0
C393 C 0.99918 0.52119 0.69933 0.0
H394 H 0.9809 0.44365 0.67829 0.0
H395 H 1.00213 0.46781 0.67708 0.0
H396 H 0.94597 0.46181 0.72343 0.0
H397 H 0.96776 0.48571 0.72255 0.0
H398 H 0.04347 0.44697 0.7254 0.0
H399 H 0.02105 0.47018 0.72348 0.0
H400 H 0.07692 0.46218 0.67756 0.0
H401 H 0.05399 0.48527 0.67544 0.0
H402 H 0.04194 0.56949 0.72256 0.0
H403 H 0.01973 0.54582 0.72178 0.0
H404 H 0.07592 0.55362 0.67577 0.0
H405 H 0.05355 0.52996 0.675 0.0
H406 H 0.97725 0.57024 0.67834 0.0
H407 H 1.00024 0.54724 0.67709 0.0
H408 H 0.94411 0.54969 0.72372 0.0
H409 H 0.96716 0.52684 0.72251 0.0
N410 N 0.98913 0.507 0.70021 0.0
N411 N 0.03229 0.50774 0.69709 0.0
C412 C 0.23448 0.06318 0.48034 0.0
C413 C 0.24956 0.06536 0.46658 0.0
C414 C 0.23462 0.04961 0.49105 0.0
C415 C 0.25007 0.03803 0.48843 0.0
C416 C 0.26479 0.05363 0.46381 0.0
C417 C 0.26497 0.04008 0.47457 0.0
C418 C 0.2502 0.02341 0.49942 0.0
C419 C 0.26449 0.06269 0.53788 0.0
C420 C 0.24938 0.06444 0.55161 0.0
C421 C 0.26429 0.04932 0.52709 0.0
C422 C 0.24876 0.03751 0.52961 0.0
C423 C 0.2341 0.05247 0.55432 0.0
C424 C 0.23387 0.03913 0.54348 0.0
C425 C 0.24853 0.02316 0.51845 0.0
C426 C 0.26417 0.95542 0.53754 0.0
C427 C 0.24892 0.95324 0.55116 0.0
C428 C 0.26411 0.96897 0.52679 0.0
C429 C 0.24858 0.98052 0.52924 0.0
C430 C 0.2336 0.96494 0.55375 0.0
C431 C 0.2335 0.97846 0.54296 0.0
C432 C 0.24855 0.99514 0.51825 0.0
C433 C 0.23548 0.95592 0.47896 0.0
C434 C 0.25056 0.95473 0.4651 0.0
C435 C 0.23541 0.96902 0.49019 0.0
C436 C 0.25065 0.98108 0.48799 0.0
C437 C 0.2657 0.96686 0.4629 0.0
C438 C 0.26567 0.97991 0.47416 0.0
C439 C 0.25035 0.99539 0.49923 0.0
H440 H 0.22226 0.07183 0.4826 0.0
H441 H 0.22248 0.04809 0.50124 0.0
H442 H 0.27674 0.05498 0.45344 0.0
H443 H 0.27692 0.03126 0.47217 0.0
H444 H 0.27674 0.07153 0.53567 0.0
H445 H 0.27644 0.04813 0.51691 0.0
H446 H 0.22214 0.0535 0.56468 0.0
H447 H 0.22187 0.03012 0.5458 0.0
H448 H 0.27645 0.94678 0.53542 0.0
H449 H 0.27638 0.9705 0.51671 0.0
H450 H 0.22151 0.96358 0.56401 0.0
H451 H 0.22149 0.98726 0.54523 0.0
H452 H 0.22337 0.94691 0.48082 0.0
H453 H 0.2232 0.96985 0.50038 0.0
H454 H 0.27767 0.96624 0.45249 0.0
H455 H 0.27749 0.9891 0.4721 0.0
N456 N 0.25121 0.00952 0.49062 0.0
N457 N 0.2476 0.00903 0.52707 0.0
C458 C 0.47928 0.77523 0.94928 0.0
C459 C 0.46324 0.76374 0.94685 0.0
C460 C 0.49236 0.77509 0.96471 0.0
C461 C 0.48985 0.76336 0.97796 0.0
C462 C 0.46071 0.75205 0.96018 0.0
C463 C 0.47379 0.75194 0.97562 0.0
C464 C 0.50294 0.7635 0.99478 0.0
C465 C 0.54913 0.75448 0.94994 0.0
C466 C 0.56437 0.76651 0.94743 0.0
C467 C 0.5363 0.75418 0.96529 0.0
C468 C 0.53843 0.76591 0.97841 0.0
C469 C 0.56655 0.77816 0.96066 0.0
C470 C 0.55383 0.77779 0.97605 0.0
C471 C 0.52539 0.7655 0.99499 0.0
C472 C 0.54881 0.75516 0.07337 0.0
C473 C 0.56479 0.76675 0.07539 0.0
C474 C 0.53593 0.75471 0.05782 0.0
C475 C 0.53853 0.76598 0.04406 0.0
C476 C 0.56756 0.77786 0.06145 0.0
C477 C 0.55463 0.77743 0.04594 0.0
C478 C 0.52541 0.76549 0.02726 0.0
C479 C 0.47908 0.77429 0.07217 0.0
C480 C 0.46344 0.76249 0.07435 0.0
C481 C 0.49206 0.77462 0.05691 0.0
C482 C 0.4898 0.76306 0.04359 0.0
C483 C 0.46107 0.75106 0.06088 0.0
C484 C 0.47403 0.7514 0.04564 0.0
C485 C 0.50293 0.76347 0.02705 0.0
H486 H 0.48173 0.78434 0.93924 0.0
H487 H 0.50421 0.78431 0.96639 0.0
H488 H 0.44831 0.74318 0.95888 0.0
H489 H 0.47135 0.74291 0.98578 0.0
H490 H 0.54702 0.74537 0.93997 0.0
H491 H 0.52488 0.74468 0.96699 0.0
H492 H 0.57836 0.78744 0.95925 0.0
H493 H 0.55593 0.78685 0.98609 0.0
H494 H 0.54616 0.74646 0.08385 0.0
H495 H 0.52408 0.74545 0.05649 0.0
H496 H 0.57996 0.78676 0.06237 0.0
H497 H 0.55718 0.78611 0.03541 0.0
H498 H 0.48138 0.78325 0.08231 0.0
H499 H 0.50371 0.784 0.05544 0.0
H500 H 0.44893 0.74198 0.06195 0.0
H501 H 0.47177 0.7425 0.03543 0.0
N502 N 0.49264 0.76247 0.01082 0.0
N503 N 0.5357 0.76651 0.0112 0.0
C504 C 0.77233 0.06093 0.48392 0.0
C505 C 0.78748 0.06326 0.47025 0.0
C506 C 0.7727 0.04739 0.49468 0.0
C507 C 0.78846 0.03601 0.4922 0.0
C508 C 0.80304 0.05174 0.46764 0.0
C509 C 0.80346 0.03823 0.47845 0.0
C510 C 0.78873 0.02138 0.50316 0.0
C511 C 0.80096 0.06067 0.54258 0.0
C512 C 0.78587 0.06165 0.55645 0.0
C513 C 0.80129 0.0476 0.53129 0.0
C514 C 0.78629 0.03537 0.53346 0.0
C515 C 0.77098 0.04935 0.55863 0.0
C516 C 0.77125 0.03635 0.54731 0.0
C517 C 0.78683 0.02109 0.52218 0.0
C518 C 0.80212 0.95321 0.54119 0.0
C519 C 0.78686 0.95118 0.55484 0.0
C520 C 0.80226 0.96676 0.53043 0.0
C521 C 0.78693 0.97846 0.5329 0.0
C522 C 0.77173 0.96302 0.55744 0.0
C523 C 0.77184 0.97652 0.54663 0.0
C524 C 0.78709 0.99307 0.52192 0.0
C525 C 0.77308 0.95387 0.48329 0.0
C526 C 0.78835 0.9521 0.46969 0.0
C527 C 0.77319 0.96724 0.49409 0.0
C528 C 0.7888 0.97901 0.49172 0.0
C529 C 0.8037 0.96404 0.46712 0.0
C530 C 0.80385 0.97738 0.47798 0.0
C531 C 0.78894 0.99335 0.50291 0.0
H532 H 0.75987 0.06942 0.48605 0.0
H533 H 0.76047 0.04573 0.50476 0.0
H534 H 0.81505 0.05322 0.45733 0.0
H535 H 0.81563 0.02955 0.47616 0.0
H536 H 0.81287 0.06982 0.54074 0.0
H537 H 0.81351 0.04693 0.5211 0.0
H538 H 0.759 0.04981 0.56904 0.0
H539 H 0.75962 0.02703 0.54934 0.0
H540 H 0.81424 0.94446 0.53907 0.0
H541 H 0.81453 0.96817 0.52034 0.0
H542 H 0.75964 0.96178 0.56771 0.0
H543 H 0.75997 0.98543 0.54891 0.0
H544 H 0.76077 0.94506 0.48538 0.0
H545 H 0.76092 0.96844 0.50416 0.0
H546 H 0.81578 0.963 0.45686 0.0
H547 H 0.81591 0.98637 0.47576 0.0
N548 N 0.78984 0.0075 0.49432 0.0
N549 N 0.78598 0.00695 0.53074 0.0
C550 C 0.47985 0.26226 0.94809 0.0
C551 C 0.46324 0.2512 0.94586 0.0
C552 C 0.49258 0.26219 0.96373 0.0
C553 C 0.48922 0.25088 0.97733 0.0
C554 C 0.4597 0.24004 0.95961 0.0
C555 C 0.47251 0.23993 0.97519 0.0
C556 C 0.50217 0.25087 0.99423 0.0
C557 C 0.54816 0.24115 0.9495 0.0
C558 C 0.56399 0.25279 0.9472 0.0
C559 C 0.53533 0.24097 0.96485 0.0
C560 C 0.53797 0.2525 0.97815 0.0
C561 C 0.56679 0.26416 0.96069 0.0
C562 C 0.55401 0.26395 0.97605 0.0
C563 C 0.52472 0.25236 0.99462 0.0
C564 C 0.54676 0.24021 0.07273 0.0
C565 C 0.56299 0.25151 0.07542 0.0
C566 C 0.5341 0.24046 0.05707 0.0
C567 C 0.53721 0.25212 0.04383 0.0
C568 C 0.56619 0.26308 0.06207 0.0
C569 C 0.55352 0.26332 0.04639 0.0
C570 C 0.52436 0.25222 0.02689 0.0
C571 C 0.47783 0.26205 0.07132 0.0
C572 C 0.46198 0.2504 0.07357 0.0
C573 C 0.49095 0.26212 0.05614 0.0
C574 C 0.48859 0.25048 0.04295 0.0
C575 C 0.45966 0.2388 0.06027 0.0
C576 C 0.4727 0.23892 0.04507 0.0
C577 C 0.50184 0.2507 0.02649 0.0
H578 H 0.48271 0.27119 0.93791 0.0
H579 H 0.50483 0.27114 0.96529 0.0
H580 H 0.44715 0.23129 0.95825 0.0
H581 H 0.46946 0.23118 0.98556 0.0
H582 H 0.54553 0.23225 0.93935 0.0
H583 H 0.52344 0.23177 0.96637 0.0
H584 H 0.57908 0.27312 0.95949 0.0
H585 H 0.55654 0.27283 0.98624 0.0
H586 H 0.54379 0.23118 0.08278 0.0
H587 H 0.52203 0.23141 0.05522 0.0
H588 H 0.57876 0.2718 0.06357 0.0
H589 H 0.55643 0.27229 0.03626 0.0
H590 H 0.47982 0.27134 0.08108 0.0
H591 H 0.5027 0.27142 0.05458 0.0
H592 H 0.44785 0.22952 0.06164 0.0
H593 H 0.47051 0.22988 0.03502 0.0
N594 N 0.49168 0.25 0.01019 0.0
N595 N 0.53488 0.25308 0.01093 0.0
C596 C 0.17546 0.34172 0.28138 0.0
C597 C 0.18617 0.33416 0.29573 0.0
C598 C 0.1611 0.35377 0.28465 0.0
C599 C 0.14716 0.38325 0.31863 0.0
H600 H 0.09533 0.38686 0.28975 0.0
C601 C 0.08462 0.43166 0.3307 0.0
C602 C 0.07637 0.43916 0.31518 0.0
C603 C 0.09706 0.4182 0.32922 0.0
C604 C 0.10982 0.38609 0.29784 0.0
H605 H 0.19001 0.33333 0.32485 0.0
H606 H 0.16466 0.35426 0.3306 0.0
H607 H 0.11863 0.36447 0.28566 0.0
H608 H 0.07433 0.43814 0.28597 0.0
H609 H 0.09624 0.41486 0.28337 0.0
H610 H 0.13841 0.40496 0.33068 0.0
C611 C 0.16757 0.35094 0.31677 0.0
C612 C 0.12319 0.37325 0.2955 0.0
C613 C 0.18194 0.33883 0.31349 0.0
C614 C 0.08064 0.43277 0.29818 0.0
C615 C 0.093 0.4193 0.29671 0.0
C616 C 0.13376 0.39609 0.32099 0.0
C617 C 0.15703 0.35859 0.30238 0.0
C618 C 0.14216 0.37176 0.3057 0.0
C619 C 0.10144 0.41187 0.31219 0.0
C620 C 0.11506 0.39777 0.31046 0.0
H621 H 0.17812 0.33828 0.26755 0.0
H622 H 0.15347 0.35951 0.27323 0.0
H623 H 0.16177 0.38258 0.32656 0.0
H624 H 0.08177 0.43635 0.34399 0.0
H625 H 0.10317 0.41269 0.34142 0.0
C626 C 0.1955 0.66779 0.71402 0.0
C627 C 0.18804 0.68279 0.71827 0.0
C628 C 0.18116 0.65547 0.71064 0.0
C629 C 0.12608 0.64247 0.72002 0.0
H630 H 0.1363 0.61254 0.68205 0.0
C631 C 0.06606 0.59246 0.70373 0.0
C632 C 0.07464 0.57768 0.70001 0.0
C633 C 0.07933 0.60571 0.70494 0.0
C634 C 0.13331 0.6207 0.69283 0.0
H635 H 0.15959 0.69661 0.72215 0.0
H636 H 0.13452 0.67513 0.71609 0.0
H637 H 0.16045 0.6349 0.68587 0.0
H638 H 0.10396 0.56525 0.6948 0.0
H639 H 0.1271 0.58828 0.69702 0.0
H640 H 0.09916 0.62817 0.72719 0.0
C641 C 0.1515 0.67288 0.7155 0.0
C642 C 0.14715 0.63354 0.695 0.0
C643 C 0.16586 0.68523 0.71879 0.0
C644 C 0.09679 0.57649 0.6974 0.0
C645 C 0.11006 0.58972 0.69866 0.0
C646 C 0.11228 0.62961 0.7179 0.0
C647 C 0.15898 0.65783 0.71149 0.0
C648 C 0.14378 0.64452 0.70869 0.0
C649 C 0.10153 0.6045 0.70251 0.0
C650 C 0.11579 0.6185 0.70435 0.0
H651 H 0.21248 0.66556 0.71332 0.0
H652 H 0.18746 0.644 0.70774 0.0
H653 H 0.1232 0.65058 0.73087 0.0
H654 H 0.04903 0.59382 0.70555 0.0
H655 H 0.07216 0.61694 0.70764 0.0
C656 C 0.84601 0.67986 0.3158 0.0
C657 C 0.84013 0.68439 0.29814 0.0
C658 C 0.86027 0.66753 0.31876 0.0
C659 C 0.9017 0.64426 0.29594 0.0
H660 H 0.88991 0.61346 0.33339 0.0
C661 C 0.94445 0.58481 0.2992 0.0
C662 C 0.95091 0.57904 0.31622 0.0
C663 C 0.93158 0.59806 0.29773 0.0
C664 C 0.89358 0.62207 0.32302 0.0
H665 H 0.8451 0.67971 0.26977 0.0
H666 H 0.86951 0.65808 0.27491 0.0
H667 H 0.86648 0.63599 0.32957 0.0
H668 H 0.94893 0.58283 0.34507 0.0
H669 H 0.92635 0.60595 0.34249 0.0
H670 H 0.92863 0.63027 0.28925 0.0
C671 C 0.86328 0.66412 0.2865 0.0
C672 C 0.88016 0.63499 0.32084 0.0
C673 C 0.84904 0.67641 0.28355 0.0
C674 C 0.94404 0.58683 0.33176 0.0
C675 C 0.93111 0.60009 0.33028 0.0
C676 C 0.91507 0.63134 0.2981 0.0
C677 C 0.86905 0.65948 0.30413 0.0
C678 C 0.88392 0.64616 0.30714 0.0
C679 C 0.92479 0.60589 0.31324 0.0
C680 C 0.91106 0.62 0.31154 0.0
H681 H 0.83933 0.68567 0.32735 0.0
H682 H 0.86452 0.66436 0.33252 0.0
H683 H 0.90533 0.65279 0.28548 0.0
H684 H 0.94906 0.57894 0.28696 0.0
H685 H 0.92668 0.60203 0.28441 0.0
C686 C 0.85187 0.33091 0.68944 0.0
C687 C 0.84695 0.32354 0.70595 0.0
C688 C 0.86391 0.34479 0.68904 0.0
C689 C 0.90225 0.36815 0.71632 0.0
H690 H 0.88761 0.4014 0.68254 0.0
C691 C 0.94335 0.42911 0.71827 0.0
C692 C 0.94859 0.43615 0.70164 0.0
C693 C 0.93083 0.41545 0.71887 0.0
C694 C 0.89206 0.39216 0.69192 0.0
H695 H 0.85092 0.32505 0.73501 0.0
H696 H 0.87158 0.34943 0.73433 0.0
H697 H 0.86581 0.37758 0.68353 0.0
H698 H 0.94457 0.43437 0.67261 0.0
H699 H 0.92304 0.41041 0.67366 0.0
H700 H 0.92851 0.38273 0.7247 0.0
C701 C 0.86631 0.34436 0.72166 0.0
C702 C 0.87955 0.3785 0.69249 0.0
C703 C 0.85425 0.33048 0.72206 0.0
C704 C 0.94102 0.42918 0.68564 0.0
C705 C 0.92846 0.41554 0.68625 0.0
C706 C 0.91475 0.38182 0.71575 0.0
C707 C 0.87136 0.35167 0.70514 0.0
C708 C 0.88451 0.36631 0.70468 0.0
C709 C 0.9232 0.40851 0.70287 0.0
C710 C 0.90983 0.39399 0.70353 0.0
H711 H 0.84631 0.32599 0.67678 0.0
H712 H 0.86766 0.35001 0.67607 0.0
H713 H 0.90674 0.3589 0.72567 0.0
H714 H 0.9491 0.43407 0.73085 0.0
H715 H 0.92692 0.41044 0.73192 0.0
C716 C 0.24189 0.19138 0.38497 0.0
C717 C 0.24431 0.19049 0.36616 0.0
C718 C 0.24283 0.17788 0.39577 0.0
C719 C 0.26197 0.137 0.39647 0.0
H720 H 0.22117 0.13184 0.43513 0.0
C721 C 0.2526 0.0788 0.43635 0.0
C722 C 0.24928 0.07974 0.45505 0.0
C723 C 0.25222 0.09229 0.4255 0.0
C724 C 0.23285 0.13317 0.42454 0.0
H725 H 0.24958 0.17461 0.34397 0.0
H726 H 0.25128 0.15106 0.36282 0.0
H727 H 0.22023 0.15535 0.41625 0.0
H728 H 0.24335 0.09567 0.47704 0.0
H729 H 0.24276 0.1192 0.45815 0.0
H730 H 0.27461 0.11482 0.40478 0.0
C731 C 0.24889 0.16225 0.36924 0.0
C732 C 0.23231 0.14666 0.4137 0.0
C733 C 0.24793 0.17576 0.35843 0.0
C734 C 0.24564 0.0945 0.46265 0.0
C735 C 0.24529 0.108 0.45181 0.0
C736 C 0.26253 0.12351 0.40733 0.0
C737 C 0.24624 0.16314 0.38803 0.0
C738 C 0.24686 0.14875 0.39954 0.0
C739 C 0.24854 0.10707 0.43308 0.0
C740 C 0.24799 0.12143 0.42151 0.0
H741 H 0.23948 0.20256 0.39143 0.0
H742 H 0.2411 0.17903 0.41022 0.0
H743 H 0.2736 0.13833 0.38584 0.0
H744 H 0.25512 0.06759 0.43001 0.0
H745 H 0.25445 0.09109 0.4111 0.0
C746 C 0.34687 0.75625 0.81155 0.0
C747 C 0.33928 0.77092 0.8057 0.0
C748 C 0.35975 0.75499 0.82706 0.0
C749 C 0.37521 0.77616 0.86883 0.0
H750 H 0.42429 0.74876 0.86859 0.0
C751 C 0.44072 0.77847 0.92423 0.0
C752 C 0.44889 0.76416 0.93069 0.0
C753 C 0.42703 0.77889 0.9092 0.0
C754 C 0.41051 0.75633 0.86896 0.0
H755 H 0.339 0.79573 0.81186 0.0
H756 H 0.36178 0.79358 0.83859 0.0
H757 H 0.40085 0.75017 0.8421 0.0
H758 H 0.44923 0.73908 0.92621 0.0
H759 H 0.4251 0.7398 0.90008 0.0
H760 H 0.38497 0.78241 0.89563 0.0
C761 C 0.35762 0.78301 0.83131 0.0
C762 C 0.39705 0.75713 0.85377 0.0
C763 C 0.34476 0.78427 0.81583 0.0
C764 C 0.44307 0.75029 0.92169 0.0
C765 C 0.42942 0.75071 0.9066 0.0
C766 C 0.38868 0.77538 0.88399 0.0
C767 C 0.36533 0.76836 0.83711 0.0
C768 C 0.3793 0.76712 0.85347 0.0
C769 C 0.42118 0.76502 0.9002 0.0
C770 C 0.40657 0.76553 0.88421 0.0
H771 H 0.34312 0.74575 0.804 0.0
H772 H 0.36521 0.7435 0.83124 0.0
H773 H 0.36148 0.78376 0.86921 0.0
H774 H 0.44468 0.78936 0.93096 0.0
H775 H 0.42117 0.79013 0.90452 0.0
C776 C 0.78964 0.8429 0.36199 0.0
C777 C 0.78695 0.82796 0.36984 0.0
C778 C 0.78955 0.85636 0.37267 0.0
C779 C 0.79704 0.86937 0.41996 0.0
H780 H 0.76949 0.90721 0.40267 0.0
C781 C 0.78444 0.92296 0.46574 0.0
C782 C 0.78817 0.93789 0.45816 0.0
C783 C 0.78424 0.90961 0.45491 0.0
C784 C 0.77745 0.89679 0.40762 0.0
H785 H 0.78145 0.81552 0.39502 0.0
H786 H 0.78115 0.83895 0.41361 0.0
H787 H 0.769 0.88386 0.3839 0.0
H788 H 0.79438 0.95046 0.43317 0.0
H789 H 0.79431 0.92714 0.41432 0.0
H790 H 0.80542 0.88228 0.4437 0.0
C791 C 0.78378 0.84027 0.39925 0.0
C792 C 0.77718 0.88339 0.39685 0.0
C793 C 0.78393 0.82682 0.38859 0.0
C794 C 0.79167 0.93913 0.43947 0.0
C795 C 0.79139 0.92578 0.42864 0.0
C796 C 0.79727 0.88274 0.43074 0.0
C797 C 0.78671 0.85521 0.39145 0.0
C798 C 0.78696 0.8695 0.40289 0.0
C799 C 0.7877 0.91085 0.43622 0.0
C800 C 0.78747 0.89662 0.42471 0.0
H801 H 0.79229 0.84419 0.34763 0.0
H802 H 0.79215 0.86764 0.36623 0.0
H803 H 0.80506 0.85897 0.42492 0.0
H804 H 0.78189 0.92157 0.4801 0.0
H805 H 0.78115 0.89831 0.46117 0.0
C806 C 0.68741 0.24584 0.81878 0.0
C807 C 0.69207 0.26065 0.81126 0.0
C808 C 0.67261 0.24425 0.83273 0.0
C809 C 0.62798 0.26484 0.85482 0.0
H810 H 0.64124 0.23739 0.8953 0.0
C811 C 0.58263 0.26729 0.92216 0.0
C812 C 0.57766 0.25304 0.93088 0.0
C813 C 0.59573 0.2676 0.90699 0.0
C814 C 0.63715 0.24496 0.88399 0.0
H815 H 0.68431 0.28535 0.81222 0.0
H816 H 0.65896 0.28265 0.83673 0.0
H817 H 0.66553 0.23898 0.86982 0.0
H818 H 0.58265 0.22794 0.93049 0.0
H819 H 0.60535 0.22846 0.90388 0.0
H820 H 0.59975 0.27096 0.86911 0.0
C821 C 0.66657 0.27221 0.83177 0.0
C822 C 0.65108 0.24586 0.86936 0.0
C823 C 0.68134 0.27379 0.81785 0.0
C824 C 0.58602 0.23909 0.924 0.0
C825 C 0.59921 0.23941 0.90886 0.0
C826 C 0.61409 0.26396 0.86946 0.0
C827 C 0.66207 0.25744 0.83946 0.0
C828 C 0.64676 0.25591 0.85465 0.0
C829 C 0.60425 0.25367 0.9002 0.0
C830 C 0.61859 0.25411 0.88429 0.0
H831 H 0.69549 0.23548 0.81413 0.0
H832 H 0.66937 0.23268 0.8382 0.0
H833 H 0.62394 0.27248 0.84358 0.0
H834 H 0.57628 0.27822 0.92699 0.0
H835 H 0.59947 0.2788 0.90076 0.0
C836 C 0.24964 0.82695 0.63259 0.0
C837 C 0.24611 0.82789 0.65126 0.0
C838 C 0.25051 0.8405 0.62189 0.0
C839 C 0.25827 0.88359 0.62419 0.0
H840 H 0.23091 0.88302 0.57696 0.0
C841 C 0.24548 0.93983 0.58138 0.0
C842 C 0.24906 0.93887 0.56271 0.0
C843 C 0.24551 0.92633 0.59222 0.0
C844 C 0.23884 0.88333 0.59003 0.0
H845 H 0.24067 0.84388 0.6733 0.0
H846 H 0.24208 0.86754 0.65462 0.0
H847 H 0.23032 0.85949 0.59581 0.0
H848 H 0.25535 0.92292 0.54081 0.0
H849 H 0.2557 0.8994 0.55976 0.0
H850 H 0.26666 0.90749 0.61842 0.0
C851 C 0.24451 0.85632 0.64829 0.0
C852 C 0.23852 0.86983 0.60085 0.0
C853 C 0.24369 0.84275 0.659 0.0
C854 C 0.25273 0.92409 0.55516 0.0
C855 C 0.25269 0.91059 0.56599 0.0
C856 C 0.25855 0.89711 0.61338 0.0
C857 C 0.24782 0.85537 0.62957 0.0
C858 C 0.24824 0.86977 0.61807 0.0
C859 C 0.24907 0.91154 0.58466 0.0
C860 C 0.24885 0.89715 0.59616 0.0
H861 H 0.25193 0.81571 0.62624 0.0
H862 H 0.25349 0.83934 0.6076 0.0
H863 H 0.26618 0.88392 0.63726 0.0
H864 H 0.24283 0.95105 0.58767 0.0
H865 H 0.24247 0.92747 0.60651 0.0
C866 C 0.6806 0.78692 0.20834 0.0
C867 C 0.68762 0.77332 0.21736 0.0
C868 C 0.66758 0.78589 0.19293 0.0
C869 C 0.63083 0.75888 0.16856 0.0
H870 H 0.63958 0.78804 0.12885 0.0
C871 C 0.58629 0.75327 0.09983 0.0
C872 C 0.57869 0.7672 0.09185 0.0
C873 C 0.59963 0.75374 0.1151 0.0
C874 C 0.63679 0.77991 0.13989 0.0
H875 H 0.6863 0.74791 0.21717 0.0
H876 H 0.66402 0.74609 0.19003 0.0
H877 H 0.66296 0.78927 0.15533 0.0
H878 H 0.57885 0.79253 0.09406 0.0
H879 H 0.60221 0.79334 0.12058 0.0
H880 H 0.60468 0.74949 0.15301 0.0
C881 C 0.66837 0.75759 0.19504 0.0
C882 C 0.65019 0.78061 0.1551 0.0
C883 C 0.68137 0.75863 0.21049 0.0
C884 C 0.58469 0.78159 0.09962 0.0
C885 C 0.59809 0.78206 0.11485 0.0
C886 C 0.61746 0.75814 0.15331 0.0
C887 C 0.66129 0.77121 0.18607 0.0
C888 C 0.64732 0.77017 0.16968 0.0
C889 C 0.60577 0.76815 0.12274 0.0
C890 C 0.62021 0.76871 0.13884 0.0
H891 H 0.68531 0.79843 0.21309 0.0
H892 H 0.66225 0.79663 0.18651 0.0
H893 H 0.62794 0.7508 0.17963 0.0
H894 H 0.58227 0.74199 0.09406 0.0
H895 H 0.60549 0.74282 0.12072 0.0
C896 C 0.76965 0.16069 0.67372 0.0
C897 C 0.77 0.17653 0.66832 0.0
C898 C 0.77304 0.14881 0.66124 0.0
C899 C 0.77056 0.14058 0.61236 0.0
H900 H 0.80285 0.10377 0.62631 0.0
C901 C 0.78861 0.09065 0.56225 0.0
C902 C 0.78583 0.07528 0.56886 0.0
C903 C 0.78808 0.10344 0.57396 0.0
C904 C 0.79366 0.11392 0.62224 0.0
H905 H 0.77431 0.19224 0.64547 0.0
H906 H 0.78062 0.1715 0.62371 0.0
H907 H 0.79953 0.12531 0.64746 0.0
H908 H 0.78088 0.06129 0.59306 0.0
H909 H 0.77969 0.08353 0.6134 0.0
H910 H 0.76458 0.1291 0.58717 0.0
C911 C 0.77747 0.16828 0.63761 0.0
C912 C 0.79174 0.12627 0.63438 0.0
C913 C 0.77409 0.18018 0.65012 0.0
C914 C 0.78281 0.07299 0.58748 0.0
C915 C 0.78238 0.08574 0.59918 0.0
C916 C 0.77252 0.12822 0.6002 0.0
C917 C 0.77692 0.15244 0.643 0.0
C918 C 0.77995 0.13968 0.62968 0.0
C919 C 0.78492 0.10113 0.59257 0.0
C920 C 0.78387 0.11466 0.60508 0.0
H921 H 0.76682 0.15745 0.68766 0.0
H922 H 0.77226 0.13675 0.66584 0.0
H923 H 0.76116 0.15064 0.60837 0.0
H924 H 0.79083 0.09283 0.54797 0.0
H925 H 0.79027 0.11513 0.56846 0.0
C926 C 0.35938 0.25337 0.21443 0.0
C927 C 0.33855 0.24716 0.21303 0.0
C928 C 0.37259 0.25412 0.19933 0.0
C929 C 0.37892 0.23698 0.15377 0.0
H930 H 0.41789 0.27205 0.14676 0.0
C931 C 0.42602 0.24626 0.08786 0.0
C932 C 0.44776 0.25042 0.08959 0.0
C933 C 0.4127 0.24612 0.10289 0.0
C934 C 0.40722 0.26211 0.14862 0.0
H935 H 0.31502 0.2373 0.19456 0.0
H936 H 0.33786 0.23885 0.16816 0.0
H937 H 0.39443 0.27156 0.17285 0.0
H938 H 0.47247 0.25762 0.10867 0.0
H939 H 0.44911 0.25758 0.13482 0.0
H940 H 0.39157 0.22765 0.12941 0.0
C941 C 0.34425 0.24279 0.18101 0.0
C942 C 0.39378 0.26181 0.1636 0.0
C943 C 0.33111 0.24194 0.19613 0.0
C944 C 0.45576 0.25458 0.10675 0.0
C945 C 0.44239 0.25453 0.12176 0.0
C946 C 0.39223 0.23735 0.13874 0.0
C947 C 0.36524 0.24877 0.18242 0.0
C948 C 0.37946 0.24922 0.16639 0.0
C949 C 0.42073 0.25023 0.12002 0.0
C950 C 0.40656 0.24991 0.136 0.0
H951 H 0.36566 0.25732 0.22732 0.0
H952 H 0.38874 0.25857 0.20103 0.0
H953 H 0.36843 0.22694 0.15563 0.0
H954 H 0.41917 0.2433 0.07483 0.0
H955 H 0.39601 0.24298 0.10105 0.0
C956 C 0.85513 0.68265 0.71778 0.0
C957 C 0.83344 0.67996 0.72168 0.0
C958 C 0.86871 0.6701 0.71435 0.0
C959 C 0.87361 0.62763 0.723 0.0
H960 H 0.91684 0.62957 0.68593 0.0
C961 C 0.92249 0.57345 0.70468 0.0
C962 C 0.9445 0.57557 0.70181 0.0
C963 C 0.90904 0.58633 0.70613 0.0
C964 C 0.905 0.62891 0.69646 0.0
H965 H 0.80886 0.66201 0.72421 0.0
H966 H 0.83249 0.64019 0.71825 0.0
H967 H 0.89315 0.65183 0.69013 0.0
H968 H 0.96958 0.59294 0.69797 0.0
H969 H 0.94609 0.6155 0.70061 0.0
H970 H 0.88545 0.60484 0.72946 0.0
C971 C 0.83912 0.65196 0.71821 0.0
C972 C 0.89141 0.64166 0.69886 0.0
C973 C 0.82556 0.66448 0.72162 0.0
C974 C 0.95267 0.59091 0.70003 0.0
C975 C 0.93919 0.60383 0.70153 0.0
C976 C 0.88717 0.61493 0.72062 0.0
C977 C 0.86092 0.65459 0.71475 0.0
C978 C 0.87549 0.64114 0.71211 0.0
C979 C 0.91725 0.6017 0.7048 0.0
C980 C 0.90298 0.61536 0.70728 0.0
H981 H 0.86176 0.69442 0.71789 0.0
H982 H 0.88546 0.67253 0.71191 0.0
H983 H 0.86183 0.62695 0.73358 0.0
H984 H 0.91561 0.56179 0.70574 0.0
H985 H 0.89215 0.58424 0.70825 0.0
C986 C 0.84429 0.3432 0.2832 0.0
C987 C 0.83637 0.33448 0.2979 0.0
C988 C 0.85813 0.35592 0.28597 0.0
C989 C 0.89553 0.37371 0.31905 0.0
H990 H 0.88638 0.4112 0.29017 0.0
C991 C 0.94252 0.43178 0.33115 0.0
C992 C 0.94916 0.44015 0.31573 0.0
C993 C 0.92877 0.4188 0.32955 0.0
C994 C 0.88932 0.40077 0.29822 0.0
H995 H 0.83704 0.33225 0.32709 0.0
H996 H 0.86131 0.35448 0.33192 0.0
H997 H 0.86259 0.3887 0.28639 0.0
H998 H 0.94635 0.44146 0.28654 0.0
H999 H 0.92283 0.41872 0.28374 0.0
H1000 H 0.92236 0.38582 0.33082 0.0
C1001 C 0.85689 0.35137 0.31823 0.0
C1002 C 0.87567 0.38786 0.29605 0.0
C1003 C 0.84299 0.33862 0.31546 0.0
C1004 C 0.94177 0.43519 0.29869 0.0
C1005 C 0.92804 0.42226 0.2971 0.0
C1006 C 0.90924 0.38665 0.32121 0.0
C1007 C 0.86446 0.36026 0.30351 0.0
C1008 C 0.8787 0.37412 0.30633 0.0
C1009 C 0.92129 0.41393 0.31251 0.0
C1010 C 0.9064 0.40029 0.3107 0.0
H1011 H 0.83991 0.34014 0.26949 0.0
H1012 H 0.86401 0.3623 0.27431 0.0
H1013 H 0.89843 0.36325 0.32706 0.0
H1014 H 0.94806 0.43518 0.34446 0.0
H1015 H 0.92376 0.41273 0.34171 0.0
C1016 C 0.18139 0.34326 0.73563 0.0
C1017 C 0.18659 0.33328 0.72135 0.0
C1018 C 0.1675 0.35579 0.73286 0.0
C1019 C 0.14552 0.38197 0.6977 0.0
H1020 H 0.10238 0.39012 0.73351 0.0
C1021 C 0.08142 0.4301 0.68794 0.0
C1022 C 0.07611 0.43885 0.70322 0.0
C1023 C 0.09453 0.41694 0.68959 0.0
C1024 C 0.11449 0.38814 0.72347 0.0
H1025 H 0.18106 0.32871 0.69289 0.0
H1026 H 0.15698 0.35075 0.68803 0.0
H1027 H 0.12589 0.36774 0.73739 0.0
H1028 H 0.08092 0.4409 0.73213 0.0
H1029 H 0.10387 0.41813 0.73501 0.0
H1030 H 0.13431 0.40252 0.68391 0.0
C1031 C 0.16381 0.34887 0.70136 0.0
C1032 C 0.12794 0.37528 0.72569 0.0
C1033 C 0.17764 0.33626 0.70416 0.0
C1034 C 0.08438 0.43424 0.72014 0.0
C1035 C 0.09753 0.42116 0.72179 0.0
C1036 C 0.13211 0.39491 0.69552 0.0
C1037 C 0.15852 0.35874 0.71571 0.0
C1038 C 0.14372 0.37211 0.71291 0.0
C1039 C 0.10269 0.41228 0.70655 0.0
C1040 C 0.11653 0.39823 0.70846 0.0
H1041 H 0.18832 0.34156 0.74896 0.0
H1042 H 0.16405 0.36334 0.74412 0.0
H1043 H 0.15766 0.37993 0.68771 0.0
H1044 H 0.07513 0.43324 0.67473 0.0
H1045 H 0.09796 0.41028 0.6776 0.0
C1046 C 0.15598 0.69403 0.31822 0.0
C1047 C 0.17802 0.69366 0.31476 0.0
C1048 C 0.14384 0.6802 0.31865 0.0
C1049 C 0.14384 0.63888 0.30377 0.0
H1050 H 0.10062 0.63355 0.34047 0.0
C1051 C 0.09981 0.57985 0.31572 0.0
C1052 C 0.07775 0.58039 0.31906 0.0
C1053 C 0.11212 0.59361 0.31521 0.0
C1054 C 0.11246 0.63491 0.33001 0.0
H1055 H 0.20458 0.67838 0.30918 0.0
H1056 H 0.18342 0.65423 0.30996 0.0
H1057 H 0.12192 0.6576 0.33948 0.0
H1058 H 0.0513 0.59592 0.32422 0.0
H1059 H 0.07276 0.6199 0.32337 0.0
H1060 H 0.13437 0.61617 0.29432 0.0
C1061 C 0.17545 0.66526 0.31208 0.0
C1062 C 0.12468 0.64871 0.32944 0.0
C1063 C 0.18759 0.67911 0.31164 0.0
C1064 C 0.06831 0.59504 0.32191 0.0
C1065 C 0.08062 0.6088 0.32141 0.0
C1066 C 0.13162 0.62507 0.30435 0.0
C1067 C 0.15343 0.66562 0.31564 0.0
C1068 C 0.1405 0.65088 0.31629 0.0
C1069 C 0.10267 0.60826 0.31804 0.0
C1070 C 0.11576 0.62293 0.31747 0.0
H1071 H 0.14801 0.70506 0.32038 0.0
H1072 H 0.12685 0.68095 0.32112 0.0
H1073 H 0.15566 0.64025 0.29329 0.0
H1074 H 0.10767 0.56875 0.31375 0.0
H1075 H 0.12911 0.59275 0.31287 0.0
C1076 C 0.78895 0.82529 0.63677 0.0
C1077 C 0.78624 0.82621 0.65555 0.0
C1078 C 0.78869 0.83882 0.626 0.0
C1079 C 0.79581 0.88186 0.62819 0.0
H1080 H 0.76787 0.88115 0.5812 0.0
C1081 C 0.78332 0.93794 0.58512 0.0
C1082 C 0.78681 0.93686 0.56645 0.0
C1083 C 0.78316 0.92449 0.59604 0.0
C1084 C 0.77594 0.8815 0.59421 0.0
H1085 H 0.78115 0.84217 0.6777 0.0
H1086 H 0.78025 0.86573 0.65886 0.0
H1087 H 0.76744 0.85768 0.60019 0.0
H1088 H 0.79271 0.92076 0.54462 0.0
H1089 H 0.79271 0.89731 0.5637 0.0
H1090 H 0.80427 0.9057 0.6222 0.0
C1091 C 0.78284 0.85454 0.65248 0.0
C1092 C 0.7757 0.86804 0.6051 0.0
C1093 C 0.7831 0.84101 0.66327 0.0
C1094 C 0.79016 0.92201 0.55897 0.0
C1095 C 0.78993 0.90855 0.56988 0.0
C1096 C 0.79602 0.89533 0.6173 0.0
C1097 C 0.78568 0.85362 0.63371 0.0
C1098 C 0.78567 0.86803 0.62222 0.0
C1099 C 0.78642 0.90963 0.58855 0.0
C1100 C 0.78613 0.89531 0.60016 0.0
H1101 H 0.79114 0.81408 0.63034 0.0
H1102 H 0.79114 0.83767 0.61162 0.0
H1103 H 0.80394 0.88221 0.64117 0.0
H1104 H 0.78091 0.94921 0.59136 0.0
H1105 H 0.78021 0.92573 0.61033 0.0
C1106 C 0.69223 0.24955 0.20188 0.0
C1107 C 0.68367 0.24525 0.2187 0.0
C1108 C 0.67906 0.25068 0.18654 0.0
C1109 C 0.62678 0.23712 0.16841 0.0
H1110 H 0.63572 0.27012 0.13293 0.0
C1111 C 0.58425 0.23671 0.09886 0.0
C1112 C 0.57673 0.25106 0.09195 0.0
C1113 C 0.5972 0.23626 0.11435 0.0
C1114 C 0.63289 0.2609 0.14277 0.0
H1115 H 0.6544 0.23921 0.23264 0.0
H1116 H 0.63144 0.24124 0.20595 0.0
H1117 H 0.65812 0.26921 0.16007 0.0
H1118 H 0.57678 0.27618 0.09611 0.0
H1119 H 0.59933 0.2754 0.12318 0.0
H1120 H 0.60131 0.22897 0.15131 0.0
C1121 C 0.64841 0.24345 0.20452 0.0
C1122 C 0.64591 0.26027 0.15824 0.0
C1123 C 0.66158 0.24229 0.21984 0.0
C1124 C 0.58253 0.26495 0.10092 0.0
C1125 C 0.59547 0.2645 0.11644 0.0
C1126 C 0.61378 0.23774 0.15296 0.0
C1127 C 0.657 0.24756 0.18765 0.0
C1128 C 0.64303 0.24836 0.17125 0.0
C1129 C 0.60296 0.25014 0.12336 0.0
C1130 C 0.61669 0.24961 0.13991 0.0
H1131 H 0.70922 0.25171 0.20048 0.0
H1132 H 0.68627 0.25366 0.17373 0.0
H1133 H 0.62426 0.22768 0.17803 0.0
H1134 H 0.58041 0.22582 0.09211 0.0
H1135 H 0.60298 0.22502 0.11911 0.0
C1136 C 0.25137 0.19005 0.6316 0.0
C1137 C 0.24819 0.18912 0.65034 0.0
C1138 C 0.2522 0.17645 0.62123 0.0
C1139 C 0.23547 0.13488 0.62132 0.0
H1140 H 0.27687 0.13128 0.58306 0.0
C1141 C 0.24634 0.07739 0.58184 0.0
C1142 C 0.24964 0.07864 0.56314 0.0
C1143 C 0.2466 0.09074 0.59268 0.0
C1144 C 0.26504 0.13216 0.59356 0.0
H1145 H 0.24339 0.17312 0.67286 0.0
H1146 H 0.2451 0.14938 0.65479 0.0
H1147 H 0.27671 0.15474 0.60163 0.0
H1148 H 0.2555 0.09498 0.54114 0.0
H1149 H 0.25583 0.11827 0.56 0.0
H1150 H 0.22367 0.11237 0.61318 0.0
C1151 C 0.24679 0.16065 0.6481 0.0
C1152 C 0.26497 0.14561 0.60422 0.0
C1153 C 0.24604 0.17425 0.65849 0.0
C1154 C 0.25321 0.09358 0.55554 0.0
C1155 C 0.25343 0.10693 0.56636 0.0
C1156 C 0.2355 0.12144 0.61064 0.0
C1157 C 0.2498 0.16159 0.62933 0.0
C1158 C 0.25015 0.14715 0.6182 0.0
C1159 C 0.25012 0.10568 0.58508 0.0
C1160 C 0.25025 0.11992 0.59659 0.0
H1161 H 0.2533 0.20131 0.62493 0.0
H1162 H 0.25436 0.17761 0.60679 0.0
H1163 H 0.22362 0.13579 0.63181 0.0
H1164 H 0.24388 0.06604 0.58818 0.0
H1165 H 0.24434 0.0893 0.60707 0.0
C1166 C 0.32418 0.75382 0.1893 0.0
C1167 C 0.33067 0.75648 0.20726 0.0
C1168 C 0.33878 0.75512 0.17523 0.0
C1169 C 0.3917 0.77166 0.16303 0.0
H1170 H 0.38889 0.74017 0.12561 0.0
C1171 C 0.44074 0.77612 0.09716 0.0
C1172 C 0.44936 0.7622 0.09043 0.0
C1173 C 0.42684 0.77573 0.11182 0.0
C1174 C 0.39003 0.74899 0.13602 0.0
H1175 H 0.35764 0.76278 0.22444 0.0
H1176 H 0.38318 0.76503 0.19985 0.0
H1177 H 0.36365 0.73903 0.15035 0.0
H1178 H 0.45068 0.73701 0.0943 0.0
H1179 H 0.42648 0.73633 0.11985 0.0
H1180 H 0.41836 0.78145 0.14879 0.0
C1181 C 0.3667 0.7621 0.19665 0.0
C1182 C 0.37536 0.74845 0.15009 0.0
C1183 C 0.35206 0.76081 0.21075 0.0
C1184 C 0.44402 0.74792 0.09892 0.0
C1185 C 0.43014 0.74753 0.11357 0.0
C1186 C 0.40637 0.77221 0.1489 0.0
C1187 C 0.36028 0.75911 0.17873 0.0
C1188 C 0.37597 0.75978 0.16377 0.0
C1189 C 0.42121 0.76141 0.12011 0.0
C1190 C 0.40573 0.76087 0.13523 0.0
H1191 H 0.30773 0.75077 0.1861 0.0
H1192 H 0.33318 0.75305 0.16156 0.0
H1193 H 0.39252 0.78065 0.17326 0.0
H1194 H 0.4443 0.7873 0.0908 0.0
H1195 H 0.42005 0.78662 0.11637 0.0
C1196 C 0.78708 0.17373 0.36211 0.0
C1197 C 0.78437 0.1885 0.37002 0.0
C1198 C 0.78698 0.1601 0.37273 0.0
C1199 C 0.7696 0.14435 0.41692 0.0
H1200 H 0.81194 0.11248 0.40827 0.0
C1201 C 0.78291 0.09233 0.46611 0.0
C1202 C 0.78691 0.07757 0.45863 0.0
C1203 C 0.78236 0.10577 0.45518 0.0
C1204 C 0.79983 0.12116 0.41073 0.0
H1205 H 0.77899 0.20045 0.39526 0.0
H1206 H 0.77906 0.1767 0.4138 0.0
H1207 H 0.81114 0.13598 0.38935 0.0
H1208 H 0.7931 0.06536 0.4337 0.0
H1209 H 0.79203 0.08876 0.41463 0.0
H1210 H 0.75824 0.12954 0.43828 0.0
C1211 C 0.78115 0.17565 0.39937 0.0
C1212 C 0.79938 0.13465 0.39988 0.0
C1213 C 0.78134 0.18928 0.38877 0.0
C1214 C 0.79031 0.07658 0.43994 0.0
C1215 C 0.7897 0.09001 0.42901 0.0
C1216 C 0.77001 0.13085 0.42775 0.0
C1217 C 0.78407 0.1609 0.3915 0.0
C1218 C 0.7843 0.14643 0.40287 0.0
C1219 C 0.78573 0.10478 0.43648 0.0
C1220 C 0.78517 0.1191 0.42484 0.0
H1221 H 0.78963 0.17272 0.34773 0.0
H1222 H 0.78906 0.14891 0.36622 0.0
H1223 H 0.75756 0.15309 0.41942 0.0
H1224 H 0.78053 0.09354 0.48049 0.0
H1225 H 0.7796 0.11698 0.46145 0.0
C1226 C 0.33403 0.24744 0.81965 0.0
C1227 C 0.343 0.24794 0.80234 0.0
C1228 C 0.34706 0.24841 0.83508 0.0
C1229 C 0.40311 0.24287 0.85043 0.0
H1230 H 0.38463 0.26554 0.89254 0.0
C1231 C 0.45853 0.25363 0.9122 0.0
C1232 C 0.44951 0.25137 0.92933 0.0
C1233 C 0.44563 0.25364 0.89666 0.0
C1234 C 0.38994 0.25905 0.88094 0.0
H1235 H 0.37264 0.25036 0.78767 0.0
H1236 H 0.39535 0.25225 0.81453 0.0
H1237 H 0.362 0.26501 0.86551 0.0
H1238 H 0.41977 0.24764 0.94357 0.0
H1239 H 0.39729 0.24751 0.91644 0.0
H1240 H 0.43109 0.23697 0.86586 0.0
C1241 C 0.37829 0.25074 0.81623 0.0
C1242 C 0.37695 0.25873 0.86544 0.0
C1243 C 0.36527 0.24969 0.80082 0.0
C1244 C 0.42726 0.24924 0.93056 0.0
C1245 C 0.41434 0.24934 0.91503 0.0
C1246 C 0.41613 0.24326 0.86589 0.0
C1247 C 0.36938 0.24999 0.83357 0.0
C1248 C 0.38334 0.25059 0.85 0.0
C1249 C 0.42338 0.25148 0.89789 0.0
C1250 C 0.40967 0.25131 0.88135 0.0
H1251 H 0.31696 0.24591 0.82129 0.0
H1252 H 0.33966 0.24756 0.8482 0.0
H1253 H 0.4084 0.23625 0.83893 0.0
H1254 H 0.47563 0.25518 0.91078 0.0
H1255 H 0.45307 0.25546 0.88367 0.0
C1256 C 0.26218 0.85524 0.34783 0.0
C1257 C 0.26109 0.83942 0.35322 0.0
C1258 C 0.25949 0.86721 0.36034 0.0
C1259 C 0.26277 0.87541 0.40919 0.0
H1260 H 0.23199 0.91295 0.3954 0.0
C1261 C 0.24704 0.92576 0.45936 0.0
C1262 C 0.25028 0.94108 0.45272 0.0
C1263 C 0.2471 0.91296 0.44766 0.0
C1264 C 0.24078 0.90259 0.39942 0.0
H1265 H 0.25623 0.82381 0.37609 0.0
H1266 H 0.25117 0.84472 0.39791 0.0
H1267 H 0.23419 0.89132 0.37425 0.0
H1268 H 0.25564 0.95495 0.42851 0.0
H1269 H 0.25605 0.93267 0.40819 0.0
H1270 H 0.26947 0.88677 0.43434 0.0
C1271 C 0.25434 0.84785 0.38399 0.0
C1272 C 0.24205 0.89019 0.38729 0.0
C1273 C 0.25701 0.83587 0.37145 0.0
C1274 C 0.25335 0.9433 0.4341 0.0
C1275 C 0.25333 0.93053 0.42242 0.0
C1276 C 0.26147 0.88782 0.42135 0.0
C1277 C 0.25561 0.86368 0.3786 0.0
C1278 C 0.25327 0.87651 0.39193 0.0
C1279 C 0.25026 0.9152 0.42904 0.0
C1280 C 0.25067 0.90164 0.41653 0.0
H1281 H 0.26502 0.85842 0.33387 0.0
H1282 H 0.26082 0.87925 0.35574 0.0
H1283 H 0.27176 0.86513 0.41314 0.0
H1284 H 0.24477 0.92364 0.47365 0.0
H1285 H 0.24452 0.90131 0.45318 0.0
C1286 C 0.68573 0.75772 0.81809 0.0
C1287 C 0.6877 0.77171 0.80801 0.0
C1288 C 0.67233 0.75689 0.83309 0.0
C1289 C 0.6467 0.78155 0.867 0.0
H1290 H 0.60886 0.74581 0.87384 0.0
C1291 C 0.58202 0.78096 0.92188 0.0
C1292 C 0.57814 0.76683 0.9312 0.0
C1293 C 0.59524 0.78133 0.90679 0.0
C1294 C 0.61952 0.75578 0.87229 0.0
H1295 H 0.67662 0.79568 0.80571 0.0
H1296 H 0.65364 0.79427 0.83199 0.0
H1297 H 0.63243 0.74677 0.84783 0.0
H1298 H 0.58525 0.74203 0.93207 0.0
H1299 H 0.60858 0.74269 0.90591 0.0
H1300 H 0.6341 0.79051 0.89152 0.0
C1301 C 0.66264 0.784 0.82838 0.0
C1302 C 0.633 0.75633 0.85735 0.0
C1303 C 0.67589 0.78481 0.81333 0.0
C1304 C 0.58772 0.75306 0.92504 0.0
C1305 C 0.60106 0.75345 0.91001 0.0
C1306 C 0.63335 0.78096 0.882 0.0
C1307 C 0.66072 0.77004 0.83844 0.0
C1308 C 0.64666 0.76927 0.85449 0.0
C1309 C 0.60506 0.76761 0.9007 0.0
C1310 C 0.61948 0.76811 0.88481 0.0
H1311 H 0.6948 0.74746 0.8146 0.0
H1312 H 0.67137 0.74601 0.84069 0.0
H1313 H 0.65728 0.79157 0.86533 0.0
H1314 H 0.57463 0.79172 0.92613 0.0
H1315 H 0.59758 0.79239 0.89977 0.0
loop_
_geom_bond_atom_site_label_1
_geom_bond_atom_site_label_2
_geom_bond_distance
_geom_bond_site_symmetry_2
_ccdc_geom_bond_type
C0 C1 1.264 . S
C0 C5 1.479 . S
C0 C10 1.465 . S
C1 C0 1.264 . S
C1 C3 1.339 . S
C1 H28 0.931 . S
C2 C3 1.395 . S
C2 C4 1.320 . S
C3 C1 1.339 . S
C3 C2 1.395 . S
C3 H29 0.929 . S
C4 C2 1.320 . S
C4 C5 1.405 . S
C4 H30 0.930 . S
C5 C0 1.479 . S
C5 C4 1.405 . S
C5 H31 0.931 . S
U6 O7 2.454 . S
U6 O8 2.458 . S
U6 C9 2.984 . S
U6 C10 2.847 . S
U6 C23 2.882 . S
U6 O24 2.441 . S
U6 O25 2.420 . S
U6 O26 2.455 . S
U6 O27 2.449 . S
O7 U6 2.454 . S
O7 C9 1.353 . S
O8 U6 2.458 . S
O8 C9 1.286 . S
C9 U6 2.984 . S
C9 O7 1.353 . S
C9 O8 1.286 . S
C9 C11 1.363 . S
C10 C0 1.465 . S
C10 U6 2.847 . S
C10 O24 1.249 . S
C10 O25 1.202 . S
C11 C9 1.363 . S
C11 C13 1.408 . S
C11 C16 1.342 . S
C12 C13 1.310 . S
C12 C15 1.461 . S
C12 H32 0.932 . S
C13 C11 1.408 . S
C13 C12 1.310 . S
C13 H33 0.930 . S
C14 C15 1.474 . S
C14 C16 1.285 . S
C14 H34 0.929 . S
C15 C12 1.461 . S
C15 C14 1.474 . S
C16 C11 1.342 . S
C16 C14 1.285 . S
C16 H35 0.930 . S
C17 C20 1.424 . S
C17 C22 1.245 . S
C17 C23 1.428 . S
C18 C21 1.260 . S
C18 C22 1.477 . S
C18 H36 0.932 . S
C19 C20 1.384 . S
C19 C21 1.479 . S
C19 H37 0.929 . S
C20 C17 1.424 . S
C20 C19 1.384 . S
C20 H38 0.928 . S
C21 C18 1.260 . S
C21 C19 1.479 . S
C22 C17 1.245 . S
C22 C18 1.477 . S
C22 H39 0.932 . S
C23 U6 2.882 . S
C23 C17 1.428 . S
C23 O26 1.301 . S
C23 O27 1.282 . S
O24 U6 2.441 . S
O24 C10 1.249 . S
O25 U6 2.420 . S
O25 C10 1.202 . S
O26 U6 2.455 . S
O26 C23 1.301 . S
O27 U6 2.449 . S
O27 C23 1.282 . S
H28 C1 0.931 . S
H29 C3 0.929 . S
H30 C4 0.930 . S
H31 C5 0.931 . S
H32 C12 0.932 . S
H33 C13 0.930 . S
H34 C14 0.929 . S
H35 C16 0.930 . S
H36 C18 0.932 . S
H37 C19 0.929 . S
H38 C20 0.928 . S
H39 C22 0.932 . S
C40 C41 1.264 . S
C40 C45 1.479 . S
C40 C50 1.465 . S
C41 C40 1.264 . S
C41 C43 1.339 . S
C41 H68 0.931 . S
C42 C43 1.395 . S
C42 C44 1.320 . S
C43 C41 1.339 . S
C43 C42 1.395 . S
C43 H69 0.929 . S
C44 C42 1.320 . S
C44 C45 1.405 . S
C44 H70 0.930 . S
C45 C40 1.479 . S
C45 C44 1.405 . S
C45 H71 0.931 . S
U46 O47 2.454 . S
U46 O48 2.458 . S
U46 C49 2.984 . S
U46 C50 2.847 . S
U46 C63 2.882 . S
U46 O64 2.441 . S
U46 O65 2.420 . S
U46 O66 2.455 . S
U46 O67 2.449 . S
O47 U46 2.454 . S
O47 C49 1.353 . S
O48 U46 2.458 . S
O48 C49 1.286 . S
C49 U46 2.984 . S
C49 O47 1.353 . S
C49 O48 1.286 . S
C49 C51 1.363 . S
C50 C40 1.465 . S
C50 U46 2.847 . S
C50 O64 1.249 . S
C50 O65 1.202 . S
C51 C49 1.363 . S
C51 C53 1.408 . S
C51 C56 1.342 . S
C52 C53 1.310 . S
C52 C55 1.461 . S
C52 H72 0.932 . S
C53 C51 1.408 . S
C53 C52 1.310 . S
C53 H73 0.930 . S
C54 C55 1.474 . S
C54 C56 1.285 . S
C54 H74 0.929 . S
C55 C52 1.461 . S
C55 C54 1.474 . S
C56 C51 1.342 . S
C56 C54 1.285 . S
C56 H75 0.930 . S
C57 C60 1.424 . S
C57 C62 1.245 . S
C57 C63 1.428 . S
C58 C61 1.260 . S
C58 C62 1.477 . S
C58 H76 0.932 . S
C59 C60 1.384 . S
C59 C61 1.479 . S
C59 H77 0.929 . S
C60 C57 1.424 . S
C60 C59 1.384 . S
C60 H78 0.928 . S
C61 C58 1.260 . S
C61 C59 1.479 . S
C62 C57 1.245 . S
C62 C58 1.477 . S
C62 H79 0.932 . S
C63 U46 2.882 . S
C63 C57 1.428 . S
C63 O66 1.301 . S
C63 O67 1.282 . S
O64 U46 2.441 . S
O64 C50 1.249 . S
O65 U46 2.420 . S
O65 C50 1.202 . S
O66 U46 2.455 . S
O66 C63 1.301 . S
O67 U46 2.449 . S
O67 C63 1.282 . S
H68 C41 0.931 . S
H69 C43 0.929 . S
H70 C44 0.930 . S
H71 C45 0.931 . S
H72 C52 0.932 . S
H73 C53 0.930 . S
H74 C54 0.929 . S
H75 C56 0.930 . S
H76 C58 0.932 . S
H77 C59 0.929 . S
H78 C60 0.928 . S
H79 C62 0.932 . S
C80 C81 1.264 . S
C80 C85 1.479 . S
C80 C90 1.465 . S
C81 C80 1.264 . S
C81 C83 1.339 . S
C81 H108 0.931 . S
C82 C83 1.395 . S
C82 C84 1.320 . S
C83 C81 1.339 . S
C83 C82 1.395 . S
C83 H109 0.929 . S
C84 C82 1.320 . S
C84 C85 1.405 . S
C84 H110 0.930 . S
C85 C80 1.479 . S
C85 C84 1.405 . S
C85 H111 0.931 . S
U86 O87 2.454 . S
U86 O88 2.458 . S
U86 C89 2.984 . S
U86 C90 2.847 . S
U86 C103 2.882 . S
U86 O104 2.441 . S
U86 O105 2.420 . S
U86 O106 2.455 . S
U86 O107 2.449 . S
O87 U86 2.454 . S
O87 C89 1.353 . S
O88 U86 2.458 . S
O88 C89 1.286 . S
C89 U86 2.984 . S
C89 O87 1.353 . S
C89 O88 1.286 . S
C89 C91 1.363 . S
C90 C80 1.465 . S
C90 U86 2.847 . S
C90 O104 1.249 . S
C90 O105 1.202 . S
C91 C89 1.363 . S
C91 C93 1.408 . S
C91 C96 1.342 . S
C92 C93 1.310 . S
C92 C95 1.461 . S
C92 H112 0.932 . S
C93 C91 1.408 . S
C93 C92 1.310 . S
C93 H113 0.930 . S
C94 C95 1.474 . S
C94 C96 1.285 . S
C94 H114 0.929 . S
C95 C92 1.461 . S
C95 C94 1.474 . S
C96 C91 1.342 . S
C96 C94 1.285 . S
C96 H115 0.930 . S
C97 C100 1.424 . S
C97 C102 1.245 . S
C97 C103 1.428 . S
C98 C101 1.260 . S
C98 C102 1.477 . S
C98 H116 0.932 . S
C99 C100 1.384 . S
C99 C101 1.479 . S
C99 H117 0.929 . S
C100 C97 1.424 . S
C100 C99 1.384 . S
C100 H118 0.928 . S
C101 C98 1.260 . S
C101 C99 1.479 . S
C102 C97 1.245 . S
C102 C98 1.477 . S
C102 H119 0.932 . S
C103 U86 2.882 . S
C103 C97 1.428 . S
C103 O106 1.301 . S
C103 O107 1.282 . S
O104 U86 2.441 . S
O104 C90 1.249 . S
O105 U86 2.420 . S
O105 C90 1.202 . S
O106 U86 2.455 . S
O106 C103 1.301 . S
O107 U86 2.449 . S
O107 C103 1.282 . S
H108 C81 0.931 . S
H109 C83 0.929 . S
H110 C84 0.930 . S
H111 C85 0.931 . S
H112 C92 0.932 . S
H113 C93 0.930 . S
H114 C94 0.929 . S
H115 C96 0.930 . S
H116 C98 0.932 . S
H117 C99 0.929 . S
H118 C100 0.928 . S
H119 C102 0.932 . S
C120 C121 1.264 . S
C120 C125 1.479 . S
C120 C130 1.465 . S
C121 C120 1.264 . S
C121 C123 1.339 . S
C121 H148 0.931 . S
C122 C123 1.395 . S
C122 C124 1.320 . S
C123 C121 1.339 . S
C123 C122 1.395 . S
C123 H149 0.929 . S
C124 C122 1.320 . S
C124 C125 1.405 . S
C124 H150 0.930 . S
C125 C120 1.479 . S
C125 C124 1.405 . S
C125 H151 0.931 . S
U126 O127 2.454 . S
U126 O128 2.458 . S
U126 C129 2.984 . S
U126 C130 2.847 . S
U126 C143 2.882 . S
U126 O144 2.441 . S
U126 O145 2.420 . S
U126 O146 2.455 . S
U126 O147 2.449 . S
O127 U126 2.454 . S
O127 C129 1.353 . S
O128 U126 2.458 . S
O128 C129 1.286 . S
C129 U126 2.984 . S
C129 O127 1.353 . S
C129 O128 1.286 . S
C129 C131 1.363 . S
C130 C120 1.465 . S
C130 U126 2.847 . S
C130 O144 1.249 . S
C130 O145 1.202 . S
C131 C129 1.363 . S
C131 C133 1.408 . S
C131 C136 1.342 . S
C132 C133 1.310 . S
C132 C135 1.461 . S
C132 H152 0.932 . S
C133 C131 1.408 . S
C133 C132 1.310 . S
C133 H153 0.930 . S
C134 C135 1.474 . S
C134 C136 1.285 . S
C134 H154 0.929 . S
C135 C132 1.461 . S
C135 C134 1.474 . S
C136 C131 1.342 . S
C136 C134 1.285 . S
C136 H155 0.930 . S
C137 C140 1.424 . S
C137 C142 1.245 . S
C137 C143 1.428 . S
C138 C141 1.260 . S
C138 C142 1.477 . S
C138 H156 0.932 . S
C139 C140 1.384 . S
C139 C141 1.479 . S
C139 H157 0.929 . S
C140 C137 1.424 . S
C140 C139 1.384 . S
C140 H158 0.928 . S
C141 C138 1.260 . S
C141 C139 1.479 . S
C142 C137 1.245 . S
C142 C138 1.477 . S
C142 H159 0.932 . S
C143 U126 2.882 . S
C143 C137 1.428 . S
C143 O146 1.301 . S
C143 O147 1.282 . S
O144 U126 2.441 . S
O144 C130 1.249 . S
O145 U126 2.420 . S
O145 C130 1.202 . S
O146 U126 2.455 . S
O146 C143 1.301 . S
O147 U126 2.449 . S
O147 C143 1.282 . S
H148 C121 0.931 . S
H149 C123 0.929 . S
H150 C124 0.930 . S
H151 C125 0.931 . S
H152 C132 0.932 . S
H153 C133 0.930 . S
H154 C134 0.929 . S
H155 C136 0.930 . S
H156 C138 0.932 . S
H157 C139 0.929 . S
H158 C140 0.928 . S
H159 C142 0.932 . S
C160 C161 1.264 . S
C160 C165 1.479 . S
C160 C170 1.465 . S
C161 C160 1.264 . S
C161 C163 1.339 . S
C161 H188 0.931 . S
C162 C163 1.395 . S
C162 C164 1.320 . S
C163 C161 1.339 . S
C163 C162 1.395 . S
C163 H189 0.929 . S
C164 C162 1.320 . S
C164 C165 1.405 . S
C164 H190 0.930 . S
C165 C160 1.479 . S
C165 C164 1.405 . S
C165 H191 0.931 . S
U166 O167 2.454 . S
U166 O168 2.458 . S
U166 C169 2.984 . S
U166 C170 2.847 . S
U166 C183 2.882 . S
U166 O184 2.441 . S
U166 O185 2.420 . S
U166 O186 2.455 . S
U166 O187 2.449 . S
O167 U166 2.454 . S
O167 C169 1.353 . S
O168 U166 2.458 . S
O168 C169 1.286 . S
C169 U166 2.984 . S
C169 O167 1.353 . S
C169 O168 1.286 . S
C169 C171 1.363 . S
C170 C160 1.465 . S
C170 U166 2.847 . S
C170 O184 1.249 . S
C170 O185 1.202 . S
C171 C169 1.363 . S
C171 C173 1.408 . S
C171 C176 1.342 . S
C172 C173 1.310 . S
C172 C175 1.461 . S
C172 H192 0.932 . S
C173 C171 1.408 . S
C173 C172 1.310 . S
C173 H193 0.930 . S
C174 C175 1.474 . S
C174 C176 1.285 . S
C174 H194 0.929 . S
C175 C172 1.461 . S
C175 C174 1.474 . S
C176 C171 1.342 . S
C176 C174 1.285 . S
C176 H195 0.930 . S
C177 C180 1.424 . S
C177 C182 1.245 . S
C177 C183 1.428 . S
C178 C181 1.260 . S
C178 C182 1.477 . S
C178 H196 0.932 . S
C179 C180 1.384 . S
C179 C181 1.479 . S
C179 H197 0.929 . S
C180 C177 1.424 . S
C180 C179 1.384 . S
C180 H198 0.928 . S
C181 C178 1.260 . S
C181 C179 1.479 . S
C182 C177 1.245 . S
C182 C178 1.477 . S
C182 H199 0.932 . S
C183 U166 2.882 . S
C183 C177 1.428 . S
C183 O186 1.301 . S
C183 O187 1.282 . S
O184 U166 2.441 . S
O184 C170 1.249 . S
O185 U166 2.420 . S
O185 C170 1.202 . S
O186 U166 2.455 . S
O186 C183 1.301 . S
O187 U166 2.449 . S
O187 C183 1.282 . S
H188 C161 0.931 . S
H189 C163 0.929 . S
H190 C164 0.930 . S
H191 C165 0.931 . S
H192 C172 0.932 . S
H193 C173 0.930 . S
H194 C174 0.929 . S
H195 C176 0.930 . S
H196 C178 0.932 . S
H197 C179 0.929 . S
H198 C180 0.928 . S
H199 C182 0.932 . S
C200 C201 1.264 . S
C200 C205 1.479 . S
C200 C210 1.465 . S
C201 C200 1.264 . S
C201 C203 1.339 . S
C201 H228 0.931 . S
C202 C203 1.395 . S
C202 C204 1.320 . S
C203 C201 1.339 . S
C203 C202 1.395 . S
C203 H229 0.929 . S
C204 C202 1.320 . S
C204 C205 1.405 . S
C204 H230 0.930 . S
C205 C200 1.479 . S
C205 C204 1.405 . S
C205 H231 0.931 . S
U206 O207 2.454 . S
U206 O208 2.458 . S
U206 C209 2.984 . S
U206 C210 2.847 . S
U206 C223 2.882 . S
U206 O224 2.441 . S
U206 O225 2.420 . S
U206 O226 2.455 . S
U206 O227 2.449 . S
O207 U206 2.454 . S
O207 C209 1.353 . S
O208 U206 2.458 . S
O208 C209 1.286 . S
C209 U206 2.984 . S
C209 O207 1.353 . S
C209 O208 1.286 . S
C209 C211 1.363 . S
C210 C200 1.465 . S
C210 U206 2.847 . S
C210 O224 1.249 . S
C210 O225 1.202 . S
C211 C209 1.363 . S
C211 C213 1.408 . S
C211 C216 1.342 . S
C212 C213 1.310 . S
C212 C215 1.461 . S
C212 H232 0.932 . S
C213 C211 1.408 . S
C213 C212 1.310 . S
C213 H233 0.930 . S
C214 C215 1.474 . S
C214 C216 1.285 . S
C214 H234 0.929 . S
C215 C212 1.461 . S
C215 C214 1.474 . S
C216 C211 1.342 . S
C216 C214 1.285 . S
C216 H235 0.930 . S
C217 C220 1.424 . S
C217 C222 1.245 . S
C217 C223 1.428 . S
C218 C221 1.260 . S
C218 C222 1.477 . S
C218 H236 0.932 . S
C219 C220 1.384 . S
C219 C221 1.479 . S
C219 H237 0.929 . S
C220 C217 1.424 . S
C220 C219 1.384 . S
C220 H238 0.928 . S
C221 C218 1.260 . S
C221 C219 1.479 . S
C222 C217 1.245 . S
C222 C218 1.477 . S
C222 H239 0.932 . S
C223 U206 2.882 . S
C223 C217 1.428 . S
C223 O226 1.301 . S
C223 O227 1.282 . S
O224 U206 2.441 . S
O224 C210 1.249 . S
O225 U206 2.420 . S
O225 C210 1.202 . S
O226 U206 2.455 . S
O226 C223 1.301 . S
O227 U206 2.449 . S
O227 C223 1.282 . S
H228 C201 0.931 . S
H229 C203 0.929 . S
H230 C204 0.930 . S
H231 C205 0.931 . S
H232 C212 0.932 . S
H233 C213 0.930 . S
H234 C214 0.929 . S
H235 C216 0.930 . S
H236 C218 0.932 . S
H237 C219 0.929 . S
H238 C220 0.928 . S
H239 C222 0.932 . S
C240 C241 1.264 . S
C240 C245 1.479 . S
C240 C250 1.465 . S
C241 C240 1.264 . S
C241 C243 1.339 . S
C241 H268 0.931 . S
C242 C243 1.395 . S
C242 C244 1.320 . S
C243 C241 1.339 . S
C243 C242 1.395 . S
C243 H269 0.929 . S
C244 C242 1.320 . S
C244 C245 1.405 . S
C244 H270 0.930 . S
C245 C240 1.479 . S
C245 C244 1.405 . S
C245 H271 0.931 . S
U246 O247 2.454 . S
U246 O248 2.458 . S
U246 C249 2.984 . S
U246 C250 2.847 . S
U246 C263 2.882 . S
U246 O264 2.441 . S
U246 O265 2.420 . S
U246 O266 2.455 . S
U246 O267 2.449 . S
O247 U246 2.454 . S
O247 C249 1.353 . S
O248 U246 2.458 . S
O248 C249 1.286 . S
C249 U246 2.984 . S
C249 O247 1.353 . S
C249 O248 1.286 . S
C249 C251 1.363 . S
C250 C240 1.465 . S
C250 U246 2.847 . S
C250 O264 1.249 . S
C250 O265 1.202 . S
C251 C249 1.363 . S
C251 C253 1.408 . S
C251 C256 1.342 . S
C252 C253 1.310 . S
C252 C255 1.461 . S
C252 H272 0.932 . S
C253 C251 1.408 . S
C253 C252 1.310 . S
C253 H273 0.930 . S
C254 C255 1.474 . S
C254 C256 1.285 . S
C254 H274 0.929 . S
C255 C252 1.461 . S
C255 C254 1.474 . S
C256 C251 1.342 . S
C256 C254 1.285 . S
C256 H275 0.930 . S
C257 C260 1.424 . S
C257 C262 1.245 . S
C257 C263 1.428 . S
C258 C261 1.260 . S
C258 C262 1.477 . S
C258 H276 0.932 . S
C259 C260 1.384 . S
C259 C261 1.479 . S
C259 H277 0.929 . S
C260 C257 1.424 . S
C260 C259 1.384 . S
C260 H278 0.928 . S
C261 C258 1.260 . S
C261 C259 1.479 . S
C262 C257 1.245 . S
C262 C258 1.477 . S
C262 H279 0.932 . S
C263 U246 2.882 . S
C263 C257 1.428 . S
C263 O266 1.301 . S
C263 O267 1.282 . S
O264 U246 2.441 . S
O264 C250 1.249 . S
O265 U246 2.420 . S
O265 C250 1.202 . S
O266 U246 2.455 . S
O266 C263 1.301 . S
O267 U246 2.449 . S
O267 C263 1.282 . S
H268 C241 0.931 . S
H269 C243 0.929 . S
H270 C244 0.930 . S
H271 C245 0.931 . S
H272 C252 0.932 . S
H273 C253 0.930 . S
H274 C254 0.929 . S
H275 C256 0.930 . S
H276 C258 0.932 . S
H277 C259 0.929 . S
H278 C260 0.928 . S
H279 C262 0.932 . S
C280 C281 1.264 . S
C280 C285 1.479 . S
C280 C290 1.465 . S
C281 C280 1.264 . S
C281 C283 1.339 . S
C281 H308 0.931 . S
C282 C283 1.395 . S
C282 C284 1.320 . S
C283 C281 1.339 . S
C283 C282 1.395 . S
C283 H309 0.929 . S
C284 C282 1.320 . S
C284 C285 1.405 . S
C284 H310 0.930 . S
C285 C280 1.479 . S
C285 C284 1.405 . S
C285 H311 0.931 . S
U286 O287 2.454 . S
U286 O288 2.458 . S
U286 C289 2.984 . S
U286 C290 2.847 . S
U286 C303 2.882 . S
U286 O304 2.441 . S
U286 O305 2.420 . S
U286 O306 2.455 . S
U286 O307 2.449 . S
O287 U286 2.454 . S
O287 C289 1.353 . S
O288 U286 2.458 . S
O288 C289 1.286 . S
C289 U286 2.984 . S
C289 O287 1.353 . S
C289 O288 1.286 . S
C289 C291 1.363 . S
C290 C280 1.465 . S
C290 U286 2.847 . S
C290 O304 1.249 . S
C290 O305 1.202 . S
C291 C289 1.363 . S
C291 C293 1.408 . S
C291 C296 1.342 . S
C292 C293 1.310 . S
C292 C295 1.461 . S
C292 H312 0.932 . S
C293 C291 1.408 . S
C293 C292 1.310 . S
C293 H313 0.930 . S
C294 C295 1.474 . S
C294 C296 1.285 . S
C294 H314 0.929 . S
C295 C292 1.461 . S
C295 C294 1.474 . S
C296 C291 1.342 . S
C296 C294 1.285 . S
C296 H315 0.930 . S
C297 C300 1.424 . S
C297 C302 1.245 . S
C297 C303 1.428 . S
C298 C301 1.260 . S
C298 C302 1.477 . S
C298 H316 0.932 . S
C299 C300 1.384 . S
C299 C301 1.479 . S
C299 H317 0.929 . S
C300 C297 1.424 . S
C300 C299 1.384 . S
C300 H318 0.928 . S
C301 C298 1.260 . S
C301 C299 1.479 . S
C302 C297 1.245 . S
C302 C298 1.477 . S
C302 H319 0.932 . S
C303 U286 2.882 . S
C303 C297 1.428 . S
C303 O306 1.301 . S
C303 O307 1.282 . S
O304 U286 2.441 . S
O304 C290 1.249 . S
O305 U286 2.420 . S
O305 C290 1.202 . S
O306 U286 2.455 . S
O306 C303 1.301 . S
O307 U286 2.449 . S
O307 C303 1.282 . S
H308 C281 0.931 . S
H309 C283 0.929 . S
H310 C284 0.930 . S
H311 C285 0.931 . S
H312 C292 0.932 . S
H313 C293 0.930 . S
H314 C294 0.929 . S
H315 C296 0.930 . S
H316 C298 0.932 . S
H317 C299 0.929 . S
H318 C300 0.928 . S
H319 C302 0.932 . S
C320 C321 1.384 . S
C320 C322 1.384 . S
C320 H348 0.931 . S
C321 C320 1.384 . S
C321 C324 1.382 . S
C322 C320 1.384 . S
C322 C323 1.381 . S
C322 H349 0.930 . S
C323 C322 1.381 . S
C323 C325 1.381 . S
C323 C326 1.487 . S
C324 C321 1.382 . S
C324 C325 1.387 . S
C324 H350 0.930 . S
C325 C323 1.381 . S
C325 C324 1.387 . S
C325 H351 0.931 . S
C326 C323 1.487 . S
C326 C333 1.399 1_655 S
C326 N364 1.343 . S
C327 C328 1.384 . S
C327 C329 1.384 . S
C327 H352 0.931 . S
C328 C327 1.384 . S
C328 C331 1.382 . S
C329 C327 1.384 . S
C329 C330 1.381 . S
C329 H353 0.930 . S
C330 C329 1.381 . S
C330 C332 1.381 . S
C330 C333 1.487 . S
C331 C328 1.382 . S
C331 C332 1.387 . S
C331 H354 0.930 . S
C332 C330 1.381 . S
C332 C331 1.387 . S
C332 H355 0.931 . S
C333 C326 1.399 1_455 S
C333 C330 1.487 . S
C333 N365 1.343 . S
C334 C335 1.384 . S
C334 C336 1.384 . S
C334 H356 0.931 . S
C335 C334 1.384 . S
C335 C338 1.382 . S
C336 C334 1.384 . S
C336 C337 1.381 . S
C336 H357 0.930 . S
C337 C336 1.381 . S
C337 C339 1.381 . S
C337 C340 1.487 . S
C338 C335 1.382 . S
C338 C339 1.387 . S
C338 H358 0.930 . S
C339 C337 1.381 . S
C339 C338 1.387 . S
C339 H359 0.931 . S
C340 C337 1.487 . S
C340 C347 1.399 1_455 S
C340 N365 1.343 . S
C341 C342 1.384 . S
C341 C343 1.384 . S
C341 H360 0.931 . S
C342 C341 1.384 . S
C342 C345 1.382 . S
C343 C341 1.384 . S
C343 C344 1.381 . S
C343 H361 0.930 . S
C344 C343 1.381 . S
C344 C346 1.381 . S
C344 C347 1.487 . S
C345 C342 1.382 . S
C345 C346 1.387 . S
C345 H362 0.930 . S
C346 C344 1.381 . S
C346 C345 1.387 . S
C346 H363 0.931 . S
C347 C340 1.399 1_655 S
C347 C344 1.487 . S
C347 N364 1.343 . S
H348 C320 0.931 . S
H349 C322 0.930 . S
H350 C324 0.930 . S
H351 C325 0.931 . S
H352 C327 0.931 . S
H353 C329 0.930 . S
H354 C331 0.930 . S
H355 C332 0.931 . S
H356 C334 0.931 . S
H357 C336 0.930 . S
H358 C338 0.930 . S
H359 C339 0.931 . S
H360 C341 0.931 . S
H361 C343 0.930 . S
H362 C345 0.930 . S
H363 C346 0.931 . S
N364 C326 1.343 . S
N364 C347 1.343 . S
N365 C333 1.343 . S
N365 C340 1.343 . S
C366 C367 1.384 . S
C366 C368 1.384 . S
C366 H394 0.931 . S
C367 C366 1.384 . S
C367 C370 1.382 . S
C368 C366 1.384 . S
C368 C369 1.381 . S
C368 H395 0.930 . S
C369 C368 1.381 . S
C369 C371 1.381 . S
C369 C372 1.487 . S
C370 C367 1.382 . S
C370 C371 1.387 . S
C370 H396 0.930 . S
C371 C369 1.381 . S
C371 C370 1.387 . S
C371 H397 0.931 . S
C372 C369 1.487 . S
C372 C379 1.399 1_655 S
C372 N410 1.343 . S
C373 C374 1.384 . S
C373 C375 1.384 . S
C373 H398 0.931 . S
C374 C373 1.384 . S
C374 C377 1.382 . S
C375 C373 1.384 . S
C375 C376 1.381 . S
C375 H399 0.930 . S
C376 C375 1.381 . S
C376 C378 1.381 . S
C376 C379 1.487 . S
C377 C374 1.382 . S
C377 C378 1.387 . S
C377 H400 0.930 . S
C378 C376 1.381 . S
C378 C377 1.387 . S
C378 H401 0.931 . S
C379 C372 1.399 1_455 S
C379 C376 1.487 . S
C379 N411 1.343 . S
C380 C381 1.384 . S
C380 C382 1.384 . S
C380 H402 0.931 . S
C381 C380 1.384 . S
C381 C384 1.382 . S
C382 C380 1.384 . S
C382 C383 1.381 . S
C382 H403 0.930 . S
C383 C382 1.381 . S
C383 C385 1.381 . S
C383 C386 1.487 . S
C384 C381 1.382 . S
C384 C385 1.387 . S
C384 H404 0.930 . S
C385 C383 1.381 . S
C385 C384 1.387 . S
C385 H405 0.931 . S
C386 C383 1.487 . S
C386 C393 1.399 1_455 S
C386 N411 1.343 . S
C387 C388 1.384 . S
C387 C389 1.384 . S
C387 H406 0.931 . S
C388 C387 1.384 . S
C388 C391 1.382 . S
C389 C387 1.384 . S
C389 C390 1.381 . S
C389 H407 0.930 . S
C390 C389 1.381 . S
C390 C392 1.381 . S
C390 C393 1.487 . S
C391 C388 1.382 . S
C391 C392 1.387 . S
C391 H408 0.930 . S
C392 C390 1.381 . S
C392 C391 1.387 . S
C392 H409 0.931 . S
C393 C386 1.399 1_655 S
C393 C390 1.487 . S
C393 N410 1.343 . S
H394 C366 0.931 . S
H395 C368 0.930 . S
H396 C370 0.930 . S
H397 C371 0.931 . S
H398 C373 0.931 . S
H399 C375 0.930 . S
H400 C377 0.930 . S
H401 C378 0.931 . S
H402 C380 0.931 . S
H403 C382 0.930 . S
H404 C384 0.930 . S
H405 C385 0.931 . S
H406 C387 0.931 . S
H407 C389 0.930 . S
H408 C391 0.930 . S
H409 C392 0.931 . S
N410 C372 1.343 . S
N410 C393 1.343 . S
N411 C379 1.343 . S
N411 C386 1.343 . S
C412 C413 1.384 . S
C412 C414 1.384 . S
C412 H440 0.931 . S
C413 C412 1.384 . S
C413 C416 1.382 . S
C414 C412 1.384 . S
C414 C415 1.381 . S
C414 H441 0.930 . S
C415 C414 1.381 . S
C415 C417 1.381 . S
C415 C418 1.487 . S
C416 C413 1.382 . S
C416 C417 1.387 . S
C416 H442 0.930 . S
C417 C415 1.381 . S
C417 C416 1.387 . S
C417 H443 0.931 . S
C418 C415 1.487 . S
C418 C425 1.399 . S
C418 N456 1.343 . S
C419 C420 1.384 . S
C419 C421 1.384 . S
C419 H444 0.931 . S
C420 C419 1.384 . S
C420 C423 1.382 . S
C421 C419 1.384 . S
C421 C422 1.381 . S
C421 H445 0.930 . S
C422 C421 1.381 . S
C422 C424 1.381 . S
C422 C425 1.487 . S
C423 C420 1.382 . S
C423 C424 1.387 . S
C423 H446 0.930 . S
C424 C422 1.381 . S
C424 C423 1.387 . S
C424 H447 0.931 . S
C425 C418 1.399 . S
C425 C422 1.487 . S
C425 N457 1.343 . S
C426 C427 1.384 . S
C426 C428 1.384 . S
C426 H448 0.931 . S
C427 C426 1.384 . S
C427 C430 1.382 . S
C428 C426 1.384 . S
C428 C429 1.381 . S
C428 H449 0.930 . S
C429 C428 1.381 . S
C429 C431 1.381 . S
C429 C432 1.487 . S
C430 C427 1.382 . S
C430 C431 1.387 . S
C430 H450 0.930 . S
C431 C429 1.381 . S
C431 C430 1.387 . S
C431 H451 0.931 . S
C432 C429 1.487 . S
C432 C439 1.399 . S
C432 N457 1.343 1_565 S
C433 C434 1.384 . S
C433 C435 1.384 . S
C433 H452 0.931 . S
C434 C433 1.384 . S
C434 C437 1.382 . S
C435 C433 1.384 . S
C435 C436 1.381 . S
C435 H453 0.930 . S
C436 C435 1.381 . S
C436 C438 1.381 . S
C436 C439 1.487 . S
C437 C434 1.382 . S
C437 C438 1.387 . S
C437 H454 0.930 . S
C438 C436 1.381 . S
C438 C437 1.387 . S
C438 H455 0.931 . S
C439 C432 1.399 . S
C439 C436 1.487 . S
C439 N456 1.343 1_565 S
H440 C412 0.931 . S
H441 C414 0.930 . S
H442 C416 0.930 . S
H443 C417 0.931 . S
H444 C419 0.931 . S
H445 C421 0.930 . S
H446 C423 0.930 . S
H447 C424 0.931 . S
H448 C426 0.931 . S
H449 C428 0.930 . S
H450 C430 0.930 . S
H451 C431 0.931 . S
H452 C433 0.931 . S
H453 C435 0.930 . S
H454 C437 0.930 . S
H455 C438 0.931 . S
N456 C418 1.343 . S
N456 C439 1.343 1_545 S
N457 C425 1.343 . S
N457 C432 1.343 1_545 S
C458 C459 1.384 . S
C458 C460 1.384 . S
C458 H486 0.931 . S
C459 C458 1.384 . S
C459 C462 1.382 . S
C460 C458 1.384 . S
C460 C461 1.381 . S
C460 H487 0.930 . S
C461 C460 1.381 . S
C461 C463 1.381 . S
C461 C464 1.487 . S
C462 C459 1.382 . S
C462 C463 1.387 . S
C462 H488 0.930 . S
C463 C461 1.381 . S
C463 C462 1.387 . S
C463 H489 0.931 . S
C464 C461 1.487 . S
C464 C471 1.399 . S
C464 N502 1.343 1_556 S
C465 C466 1.384 . S
C465 C467 1.384 . S
C465 H490 0.931 . S
C466 C465 1.384 . S
C466 C469 1.382 . S
C467 C465 1.384 . S
C467 C468 1.381 . S
C467 H491 0.930 . S
C468 C467 1.381 . S
C468 C470 1.381 . S
C468 C471 1.487 . S
C469 C466 1.382 . S
C469 C470 1.387 . S
C469 H492 0.930 . S
C470 C468 1.381 . S
C470 C469 1.387 . S
C470 H493 0.931 . S
C471 C464 1.399 . S
C471 C468 1.487 . S
C471 N503 1.343 1_556 S
C472 C473 1.384 . S
C472 C474 1.384 . S
C472 H494 0.931 . S
C473 C472 1.384 . S
C473 C476 1.382 . S
C474 C472 1.384 . S
C474 C475 1.381 . S
C474 H495 0.930 . S
C475 C474 1.381 . S
C475 C477 1.381 . S
C475 C478 1.487 . S
C476 C473 1.382 . S
C476 C477 1.387 . S
C476 H496 0.930 . S
C477 C475 1.381 . S
C477 C476 1.387 . S
C477 H497 0.931 . S
C478 C475 1.487 . S
C478 C485 1.399 . S
C478 N503 1.343 . S
C479 C480 1.384 . S
C479 C481 1.384 . S
C479 H498 0.931 . S
C480 C479 1.384 . S
C480 C483 1.382 . S
C481 C479 1.384 . S
C481 C482 1.381 . S
C481 H499 0.930 . S
C482 C481 1.381 . S
C482 C484 1.381 . S
C482 C485 1.487 . S
C483 C480 1.382 . S
C483 C484 1.387 . S
C483 H500 0.930 . S
C484 C482 1.381 . S
C484 C483 1.387 . S
C484 H501 0.931 . S
C485 C478 1.399 . S
C485 C482 1.487 . S
C485 N502 1.343 . S
H486 C458 0.931 . S
H487 C460 0.930 . S
H488 C462 0.930 . S
H489 C463 0.931 . S
H490 C465 0.931 . S
H491 C467 0.930 . S
H492 C469 0.930 . S
H493 C470 0.931 . S
H494 C472 0.931 . S
H495 C474 0.930 . S
H496 C476 0.930 . S
H497 C477 0.931 . S
H498 C479 0.931 . S
H499 C481 0.930 . S
H500 C483 0.930 . S
H501 C484 0.931 . S
N502 C464 1.343 1_554 S
N502 C485 1.343 . S
N503 C471 1.343 1_554 S
N503 C478 1.343 . S
C504 C505 1.384 . S
C504 C506 1.384 . S
C504 H532 0.931 . S
C505 C504 1.384 . S
C505 C508 1.382 . S
C506 C504 1.384 . S
C506 C507 1.381 . S
C506 H533 0.930 . S
C507 C506 1.381 . S
C507 C509 1.381 . S
C507 C510 1.487 . S
C508 C505 1.382 . S
C508 C509 1.387 . S
C508 H534 0.930 . S
C509 C507 1.381 . S
C509 C508 1.387 . S
C509 H535 0.931 . S
C510 C507 1.487 . S
C510 C517 1.399 . S
C510 N548 1.394 . S
C511 C512 1.384 . S
C511 C513 1.384 . S
C511 H536 0.931 . S
C512 C511 1.384 . S
C512 C515 1.382 . S
C513 C511 1.384 . S
C513 C514 1.381 . S
C513 H537 0.930 . S
C514 C513 1.381 . S
C514 C516 1.381 . S
C514 C517 1.487 . S
C515 C512 1.382 . S
C515 C516 1.387 . S
C515 H538 0.930 . S
C516 C514 1.381 . S
C516 C515 1.387 . S
C516 H539 0.931 . S
C517 C510 1.399 . S
C517 C514 1.487 . S
C517 N549 1.374 . S
C518 C519 1.384 . S
C518 C520 1.384 . S
C518 H540 0.931 . S
C519 C518 1.384 . S
C519 C522 1.382 . S
C520 C518 1.384 . S
C520 C521 1.381 . S
C520 H541 0.930 . S
C521 C520 1.381 . S
C521 C523 1.381 . S
C521 C524 1.487 . S
C522 C519 1.382 . S
C522 C523 1.387 . S
C522 H542 0.930 . S
C523 C521 1.381 . S
C523 C522 1.387 . S
C523 H543 0.931 . S
C524 C521 1.487 . S
C524 C531 1.399 . S
C524 N549 1.312 1_565 S
C525 C526 1.384 . S
C525 C527 1.384 . S
C525 H544 0.931 . S
C526 C525 1.384 . S
C526 C529 1.382 . S
C527 C525 1.384 . S
C527 C528 1.381 . S
C527 H545 0.930 . S
C528 C527 1.381 . S
C528 C530 1.381 . S
C528 C531 1.487 . S
C529 C526 1.382 . S
C529 C530 1.387 . S
C529 H546 0.930 . S
C530 C528 1.381 . S
C530 C529 1.387 . S
C530 H547 0.931 . S
C531 C524 1.399 . S
C531 C528 1.487 . S
C531 N548 1.293 1_565 S
H532 C504 0.931 . S
H533 C506 0.930 . S
H534 C508 0.930 . S
H535 C509 0.931 . S
H536 C511 0.931 . S
H537 C513 0.930 . S
H538 C515 0.930 . S
H539 C516 0.931 . S
H540 C518 0.931 . S
H541 C520 0.930 . S
H542 C522 0.930 . S
H543 C523 0.931 . S
H544 C525 0.931 . S
H545 C527 0.930 . S
H546 C529 0.930 . S
H547 C530 0.931 . S
N548 C510 1.394 . S
N548 C531 1.293 1_545 S
N549 C517 1.374 . S
N549 C524 1.312 1_545 S
C550 C551 1.384 . S
C550 C552 1.384 . S
C550 H578 0.931 . S
C551 C550 1.384 . S
C551 C554 1.382 . S
C552 C550 1.384 . S
C552 C553 1.381 . S
C552 H579 0.930 . S
C553 C552 1.381 . S
C553 C555 1.381 . S
C553 C556 1.487 . S
C554 C551 1.382 . S
C554 C555 1.387 . S
C554 H580 0.930 . S
C555 C553 1.381 . S
C555 C554 1.387 . S
C555 H581 0.931 . S
C556 C553 1.487 . S
C556 C563 1.399 . S
C556 N594 1.343 1_556 S
C557 C558 1.384 . S
C557 C559 1.384 . S
C557 H582 0.931 . S
C558 C557 1.384 . S
C558 C561 1.382 . S
C559 C557 1.384 . S
C559 C560 1.381 . S
C559 H583 0.930 . S
C560 C559 1.381 . S
C560 C562 1.381 . S
C560 C563 1.487 . S
C561 C558 1.382 . S
C561 C562 1.387 . S
C561 H584 0.930 . S
C562 C560 1.381 . S
C562 C561 1.387 . S
C562 H585 0.931 . S
C563 C556 1.399 . S
C563 C560 1.487 . S
C563 N595 1.343 1_556 S
C564 C565 1.384 . S
C564 C566 1.384 . S
C564 H586 0.931 . S
C565 C564 1.384 . S
C565 C568 1.382 . S
C566 C564 1.384 . S
C566 C567 1.381 . S
C566 H587 0.930 . S
C567 C566 1.381 . S
C567 C569 1.381 . S
C567 C570 1.487 . S
C568 C565 1.382 . S
C568 C569 1.387 . S
C568 H588 0.930 . S
C569 C567 1.381 . S
C569 C568 1.387 . S
C569 H589 0.931 . S
C570 C567 1.487 . S
C570 C577 1.399 . S
C570 N595 1.343 . S
C571 C572 1.384 . S
C571 C573 1.384 . S
C571 H590 0.931 . S
C572 C571 1.384 . S
C572 C575 1.382 . S
C573 C571 1.384 . S
C573 C574 1.381 . S
C573 H591 0.930 . S
C574 C573 1.381 . S
C574 C576 1.381 . S
C574 C577 1.487 . S
C575 C572 1.382 . S
C575 C576 1.387 . S
C575 H592 0.930 . S
C576 C574 1.381 . S
C576 C575 1.387 . S
C576 H593 0.931 . S
C577 C570 1.399 . S
C577 C574 1.487 . S
C577 N594 1.343 . S
H578 C550 0.931 . S
H579 C552 0.930 . S
H580 C554 0.930 . S
H581 C555 0.931 . S
H582 C557 0.931 . S
H583 C559 0.930 . S
H584 C561 0.930 . S
H585 C562 0.931 . S
H586 C564 0.931 . S
H587 C566 0.930 . S
H588 C568 0.930 . S
H589 C569 0.931 . S
H590 C571 0.931 . S
H591 C573 0.930 . S
H592 C575 0.930 . S
H593 C576 0.931 . S
N594 C556 1.343 1_554 S
N594 C577 1.343 . S
N595 C563 1.343 1_554 S
N595 C570 1.343 . S
C596 C597 1.349 . S
C596 C598 1.327 . S
C596 H621 0.950 . S
C597 C596 1.349 . S
C597 C613 1.349 . S
C598 C596 1.327 . S
C598 C617 1.429 . S
C598 H622 0.950 . S
C599 C616 1.574 . S
C599 C618 1.368 . S
C599 H623 0.949 . S
H600 C604 0.949 . S
C601 C602 1.349 . S
C601 C603 1.327 . S
C601 H624 0.950 . S
C602 C601 1.349 . S
C602 C614 1.349 . S
C603 C601 1.327 . S
C603 C619 1.429 . S
C603 H625 0.950 . S
C604 H600 0.949 . S
C604 C612 1.574 . S
C604 C620 1.368 . S
H605 C613 0.950 . S
H606 C611 0.950 . S
H607 C612 0.949 . S
H608 C614 0.950 . S
H609 C615 0.950 . S
H610 C616 0.949 . S
C611 H606 0.950 . S
C611 C613 1.327 . S
C611 C617 1.429 . S
C612 C604 1.574 . S
C612 H607 0.949 . S
C612 C618 1.368 . S
C613 C597 1.349 . S
C613 H605 0.950 . S
C613 C611 1.327 . S
C614 C602 1.349 . S
C614 H608 0.950 . S
C614 C615 1.327 . S
C615 H609 0.950 . S
C615 C614 1.327 . S
C615 C619 1.429 . S
C616 C599 1.574 . S
C616 H610 0.949 . S
C616 C620 1.368 . S
C617 C598 1.429 . S
C617 C611 1.429 . S
C617 C618 1.523 . S
C618 C599 1.368 . S
C618 C612 1.368 . S
C618 C617 1.523 . S
C619 C603 1.429 . S
C619 C615 1.429 . S
C619 C620 1.523 . S
C620 C604 1.368 . S
C620 C616 1.368 . S
C620 C619 1.523 . S
H621 C596 0.950 . S
H622 C598 0.950 . S
H623 C599 0.949 . S
H624 C601 0.950 . S
H625 C603 0.950 . S
C626 C627 1.349 . S
C626 C628 1.327 . S
C626 H651 0.950 . S
C627 C626 1.349 . S
C627 C643 1.349 . S
C628 C626 1.327 . S
C628 C647 1.429 . S
C628 H652 0.950 . S
C629 C646 1.574 . S
C629 C648 1.368 . S
C629 H653 0.949 . S
H630 C634 0.949 . S
C631 C632 1.349 . S
C631 C633 1.327 . S
C631 H654 0.950 . S
C632 C631 1.349 . S
C632 C644 1.349 . S
C633 C631 1.327 . S
C633 C649 1.429 . S
C633 H655 0.950 . S
C634 H630 0.949 . S
C634 C642 1.574 . S
C634 C650 1.368 . S
H635 C643 0.950 . S
H636 C641 0.950 . S
H637 C642 0.949 . S
H638 C644 0.950 . S
H639 C645 0.950 . S
H640 C646 0.949 . S
C641 H636 0.950 . S
C641 C643 1.327 . S
C641 C647 1.429 . S
C642 C634 1.574 . S
C642 H637 0.949 . S
C642 C648 1.368 . S
C643 C627 1.349 . S
C643 H635 0.950 . S
C643 C641 1.327 . S
C644 C632 1.349 . S
C644 H638 0.950 . S
C644 C645 1.327 . S
C645 H639 0.950 . S
C645 C644 1.327 . S
C645 C649 1.429 . S
C646 C629 1.574 . S
C646 H640 0.949 . S
C646 C650 1.368 . S
C647 C628 1.429 . S
C647 C641 1.429 . S
C647 C648 1.523 . S
C648 C629 1.368 . S
C648 C642 1.368 . S
C648 C647 1.523 . S
C649 C633 1.429 . S
C649 C645 1.429 . S
C649 C650 1.523 . S
C650 C634 1.368 . S
C650 C646 1.368 . S
C650 C649 1.523 . S
H651 C626 0.950 . S
H652 C628 0.950 . S
H653 C629 0.949 . S
H654 C631 0.950 . S
H655 C633 0.950 . S
C656 C657 1.349 . S
C656 C658 1.327 . S
C656 H681 0.950 . S
C657 C656 1.349 . S
C657 C673 1.349 . S
C658 C656 1.327 . S
C658 C677 1.429 . S
C658 H682 0.950 . S
C659 C676 1.574 . S
C659 C678 1.368 . S
C659 H683 0.949 . S
H660 C664 0.949 . S
C661 C662 1.349 . S
C661 C663 1.327 . S
C661 H684 0.950 . S
C662 C661 1.349 . S
C662 C674 1.349 . S
C663 C661 1.327 . S
C663 C679 1.429 . S
C663 H685 0.950 . S
C664 H660 0.949 . S
C664 C672 1.574 . S
C664 C680 1.368 . S
H665 C673 0.950 . S
H666 C671 0.950 . S
H667 C672 0.949 . S
H668 C674 0.950 . S
H669 C675 0.950 . S
H670 C676 0.949 . S
C671 H666 0.950 . S
C671 C673 1.327 . S
C671 C677 1.429 . S
C672 C664 1.574 . S
C672 H667 0.949 . S
C672 C678 1.368 . S
C673 C657 1.349 . S
C673 H665 0.950 . S
C673 C671 1.327 . S
C674 C662 1.349 . S
C674 H668 0.950 . S
C674 C675 1.327 . S
C675 H669 0.950 . S
C675 C674 1.327 . S
C675 C679 1.429 . S
C676 C659 1.574 . S
C676 H670 0.949 . S
C676 C680 1.368 . S
C677 C658 1.429 . S
C677 C671 1.429 . S
C677 C678 1.523 . S
C678 C659 1.368 . S
C678 C672 1.368 . S
C678 C677 1.523 . S
C679 C663 1.429 . S
C679 C675 1.429 . S
C679 C680 1.523 . S
C680 C664 1.368 . S
C680 C676 1.368 . S
C680 C679 1.523 . S
H681 C656 0.950 . S
H682 C658 0.950 . S
H683 C659 0.949 . S
H684 C661 0.950 . S
H685 C663 0.950 . S
C686 C687 1.349 . S
C686 C688 1.327 . S
C686 H711 0.950 . S
C687 C686 1.349 . S
C687 C703 1.349 . S
C688 C686 1.327 . S
C688 C707 1.429 . S
C688 H712 0.950 . S
C689 C706 1.574 . S
C689 C708 1.368 . S
C689 H713 0.949 . S
H690 C694 0.949 . S
C691 C692 1.349 . S
C691 C693 1.327 . S
C691 H714 0.950 . S
C692 C691 1.349 . S
C692 C704 1.349 . S
C693 C691 1.327 . S
C693 C709 1.429 . S
C693 H715 0.950 . S
C694 H690 0.949 . S
C694 C702 1.574 . S
C694 C710 1.368 . S
H695 C703 0.950 . S
H696 C701 0.950 . S
H697 C702 0.949 . S
H698 C704 0.950 . S
H699 C705 0.950 . S
H700 C706 0.949 . S
C701 H696 0.950 . S
C701 C703 1.327 . S
C701 C707 1.429 . S
C702 C694 1.574 . S
C702 H697 0.949 . S
C702 C708 1.368 . S
C703 C687 1.349 . S
C703 H695 0.950 . S
C703 C701 1.327 . S
C704 C692 1.349 . S
C704 H698 0.950 . S
C704 C705 1.327 . S
C705 H699 0.950 . S
C705 C704 1.327 . S
C705 C709 1.429 . S
C706 C689 1.574 . S
C706 H700 0.949 . S
C706 C710 1.368 . S
C707 C688 1.429 . S
C707 C701 1.429 . S
C707 C708 1.523 . S
C708 C689 1.368 . S
C708 C702 1.368 . S
C708 C707 1.523 . S
C709 C693 1.429 . S
C709 C705 1.429 . S
C709 C710 1.523 . S
C710 C694 1.368 . S
C710 C706 1.368 . S
C710 C709 1.523 . S
H711 C686 0.950 . S
H712 C688 0.950 . S
H713 C689 0.949 . S
H714 C691 0.950 . S
H715 C693 0.950 . S
C716 C717 1.349 . S
C716 C718 1.327 . S
C716 H741 0.950 . S
C717 C716 1.349 . S
C717 C733 1.349 . S
C718 C716 1.327 . S
C718 C737 1.429 . S
C718 H742 0.950 . S
C719 C736 1.574 . S
C719 C738 1.368 . S
C719 H743 0.949 . S
H720 C724 0.949 . S
C721 C722 1.349 . S
C721 C723 1.327 . S
C721 H744 0.950 . S
C722 C721 1.349 . S
C722 C734 1.349 . S
C723 C721 1.327 . S
C723 C739 1.429 . S
C723 H745 0.950 . S
C724 H720 0.949 . S
C724 C732 1.574 . S
C724 C740 1.368 . S
H725 C733 0.950 . S
H726 C731 0.950 . S
H727 C732 0.949 . S
H728 C734 0.950 . S
H729 C735 0.950 . S
H730 C736 0.949 . S
C731 H726 0.950 . S
C731 C733 1.327 . S
C731 C737 1.429 . S
C732 C724 1.574 . S
C732 H727 0.949 . S
C732 C738 1.368 . S
C733 C717 1.349 . S
C733 H725 0.950 . S
C733 C731 1.327 . S
C734 C722 1.349 . S
C734 H728 0.950 . S
C734 C735 1.327 . S
C735 H729 0.950 . S
C735 C734 1.327 . S
C735 C739 1.429 . S
C736 C719 1.574 . S
C736 H730 0.949 . S
C736 C740 1.368 . S
C737 C718 1.429 . S
C737 C731 1.429 . S
C737 C738 1.523 . S
C738 C719 1.368 . S
C738 C732 1.368 . S
C738 C737 1.523 . S
C739 C723 1.429 . S
C739 C735 1.429 . S
C739 C740 1.523 . S
C740 C724 1.368 . S
C740 C736 1.368 . S
C740 C739 1.523 . S
H741 C716 0.950 . S
H742 C718 0.950 . S
H743 C719 0.949 . S
H744 C721 0.950 . S
H745 C723 0.950 . S
C746 C747 1.349 . S
C746 C748 1.327 . S
C746 H771 0.950 . S
C747 C746 1.349 . S
C747 C763 1.349 . S
C748 C746 1.327 . S
C748 C767 1.429 . S
C748 H772 0.950 . S
C749 C766 1.574 . S
C749 C768 1.368 . S
C749 H773 0.949 . S
H750 C754 0.949 . S
C751 C752 1.349 . S
C751 C753 1.327 . S
C751 H774 0.950 . S
C752 C751 1.349 . S
C752 C764 1.349 . S
C753 C751 1.327 . S
C753 C769 1.429 . S
C753 H775 0.950 . S
C754 H750 0.949 . S
C754 C762 1.574 . S
C754 C770 1.368 . S
H755 C763 0.950 . S
H756 C761 0.950 . S
H757 C762 0.949 . S
H758 C764 0.950 . S
H759 C765 0.950 . S
H760 C766 0.949 . S
C761 H756 0.950 . S
C761 C763 1.327 . S
C761 C767 1.429 . S
C762 C754 1.574 . S
C762 H757 0.949 . S
C762 C768 1.368 . S
C763 C747 1.349 . S
C763 H755 0.950 . S
C763 C761 1.327 . S
C764 C752 1.349 . S
C764 H758 0.950 . S
C764 C765 1.327 . S
C765 H759 0.950 . S
C765 C764 1.327 . S
C765 C769 1.429 . S
C766 C749 1.574 . S
C766 H760 0.949 . S
C766 C770 1.368 . S
C767 C748 1.429 . S
C767 C761 1.429 . S
C767 C768 1.523 . S
C768 C749 1.368 . S
C768 C762 1.368 . S
C768 C767 1.523 . S
C769 C753 1.429 . S
C769 C765 1.429 . S
C769 C770 1.523 . S
C770 C754 1.368 . S
C770 C766 1.368 . S
C770 C769 1.523 . S
H771 C746 0.950 . S
H772 C748 0.950 . S
H773 C749 0.949 . S
H774 C751 0.950 . S
H775 C753 0.950 . S
C776 C777 1.349 . S
C776 C778 1.327 . S
C776 H801 0.950 . S
C777 C776 1.349 . S
C777 C793 1.349 . S
C778 C776 1.327 . S
C778 C797 1.429 . S
C778 H802 0.950 . S
C779 C796 1.574 . S
C779 C798 1.368 . S
C779 H803 0.949 . S
H780 C784 0.949 . S
C781 C782 1.349 . S
C781 C783 1.327 . S
C781 H804 0.950 . S
C782 C781 1.349 . S
C782 C794 1.349 . S
C783 C781 1.327 . S
C783 C799 1.429 . S
C783 H805 0.950 . S
C784 H780 0.949 . S
C784 C792 1.574 . S
C784 C800 1.368 . S
H785 C793 0.950 . S
H786 C791 0.950 . S
H787 C792 0.949 . S
H788 C794 0.950 . S
H789 C795 0.950 . S
H790 C796 0.949 . S
C791 H786 0.950 . S
C791 C793 1.327 . S
C791 C797 1.429 . S
C792 C784 1.574 . S
C792 H787 0.949 . S
C792 C798 1.368 . S
C793 C777 1.349 . S
C793 H785 0.950 . S
C793 C791 1.327 . S
C794 C782 1.349 . S
C794 H788 0.950 . S
C794 C795 1.327 . S
C795 H789 0.950 . S
C795 C794 1.327 . S
C795 C799 1.429 . S
C796 C779 1.574 . S
C796 H790 0.949 . S
C796 C800 1.368 . S
C797 C778 1.429 . S
C797 C791 1.429 . S
C797 C798 1.523 . S
C798 C779 1.368 . S
C798 C792 1.368 . S
C798 C797 1.523 . S
C799 C783 1.429 . S
C799 C795 1.429 . S
C799 C800 1.523 . S
C800 C784 1.368 . S
C800 C796 1.368 . S
C800 C799 1.523 . S
H801 C776 0.950 . S
H802 C778 0.950 . S
H803 C779 0.949 . S
H804 C781 0.950 . S
H805 C783 0.950 . S
C806 C807 1.349 . S
C806 C808 1.327 . S
C806 H831 0.950 . S
C807 C806 1.349 . S
C807 C823 1.349 . S
C808 C806 1.327 . S
C808 C827 1.429 . S
C808 H832 0.950 . S
C809 C826 1.574 . S
C809 C828 1.368 . S
C809 H833 0.949 . S
H810 C814 0.949 . S
C811 C812 1.349 . S
C811 C813 1.327 . S
C811 H834 0.950 . S
C812 C811 1.349 . S
C812 C824 1.349 . S
C813 C811 1.327 . S
C813 C829 1.429 . S
C813 H835 0.950 . S
C814 H810 0.949 . S
C814 C822 1.574 . S
C814 C830 1.368 . S
H815 C823 0.950 . S
H816 C821 0.950 . S
H817 C822 0.949 . S
H818 C824 0.950 . S
H819 C825 0.950 . S
H820 C826 0.949 . S
C821 H816 0.950 . S
C821 C823 1.327 . S
C821 C827 1.429 . S
C822 C814 1.574 . S
C822 H817 0.949 . S
C822 C828 1.368 . S
C823 C807 1.349 . S
C823 H815 0.950 . S
C823 C821 1.327 . S
C824 C812 1.349 . S
C824 H818 0.950 . S
C824 C825 1.327 . S
C825 H819 0.950 . S
C825 C824 1.327 . S
C825 C829 1.429 . S
C826 C809 1.574 . S
C826 H820 0.949 . S
C826 C830 1.368 . S
C827 C808 1.429 . S
C827 C821 1.429 . S
C827 C828 1.523 . S
C828 C809 1.368 . S
C828 C822 1.368 . S
C828 C827 1.523 . S
C829 C813 1.429 . S
C829 C825 1.429 . S
C829 C830 1.523 . S
C830 C814 1.368 . S
C830 C826 1.368 . S
C830 C829 1.523 . S
H831 C806 0.950 . S
H832 C808 0.950 . S
H833 C809 0.949 . S
H834 C811 0.950 . S
H835 C813 0.950 . S
C836 C837 1.349 . S
C836 C838 1.327 . S
C836 H861 0.950 . S
C837 C836 1.349 . S
C837 C853 1.349 . S
C838 C836 1.327 . S
C838 C857 1.429 . S
C838 H862 0.950 . S
C839 C856 1.574 . S
C839 C858 1.368 . S
C839 H863 0.949 . S
H840 C844 0.949 . S
C841 C842 1.349 . S
C841 C843 1.327 . S
C841 H864 0.950 . S
C842 C841 1.349 . S
C842 C854 1.349 . S
C843 C841 1.327 . S
C843 C859 1.429 . S
C843 H865 0.950 . S
C844 H840 0.949 . S
C844 C852 1.574 . S
C844 C860 1.368 . S
H845 C853 0.950 . S
H846 C851 0.950 . S
H847 C852 0.949 . S
H848 C854 0.950 . S
H849 C855 0.950 . S
H850 C856 0.949 . S
C851 H846 0.950 . S
C851 C853 1.327 . S
C851 C857 1.429 . S
C852 C844 1.574 . S
C852 H847 0.949 . S
C852 C858 1.368 . S
C853 C837 1.349 . S
C853 H845 0.950 . S
C853 C851 1.327 . S
C854 C842 1.349 . S
C854 H848 0.950 . S
C854 C855 1.327 . S
C855 H849 0.950 . S
C855 C854 1.327 . S
C855 C859 1.429 . S
C856 C839 1.574 . S
C856 H850 0.949 . S
C856 C860 1.368 . S
C857 C838 1.429 . S
C857 C851 1.429 . S
C857 C858 1.523 . S
C858 C839 1.368 . S
C858 C852 1.368 . S
C858 C857 1.523 . S
C859 C843 1.429 . S
C859 C855 1.429 . S
C859 C860 1.523 . S
C860 C844 1.368 . S
C860 C856 1.368 . S
C860 C859 1.523 . S
H861 C836 0.950 . S
H862 C838 0.950 . S
H863 C839 0.949 . S
H864 C841 0.950 . S
H865 C843 0.950 . S
C866 C867 1.349 . S
C866 C868 1.327 . S
C866 H891 0.950 . S
C867 C866 1.349 . S
C867 C883 1.349 . S
C868 C866 1.327 . S
C868 C887 1.429 . S
C868 H892 0.950 . S
C869 C886 1.574 . S
C869 C888 1.368 . S
C869 H893 0.949 . S
H870 C874 0.949 . S
C871 C872 1.349 . S
C871 C873 1.327 . S
C871 H894 0.950 . S
C872 C871 1.349 . S
C872 C884 1.349 . S
C873 C871 1.327 . S
C873 C889 1.429 . S
C873 H895 0.950 . S
C874 H870 0.949 . S
C874 C882 1.574 . S
C874 C890 1.368 . S
H875 C883 0.950 . S
H876 C881 0.950 . S
H877 C882 0.949 . S
H878 C884 0.950 . S
H879 C885 0.950 . S
H880 C886 0.949 . S
C881 H876 0.950 . S
C881 C883 1.327 . S
C881 C887 1.429 . S
C882 C874 1.574 . S
C882 H877 0.949 . S
C882 C888 1.368 . S
C883 C867 1.349 . S
C883 H875 0.950 . S
C883 C881 1.327 . S
C884 C872 1.349 . S
C884 H878 0.950 . S
C884 C885 1.327 . S
C885 H879 0.950 . S
C885 C884 1.327 . S
C885 C889 1.429 . S
C886 C869 1.574 . S
C886 H880 0.949 . S
C886 C890 1.368 . S
C887 C868 1.429 . S
C887 C881 1.429 . S
C887 C888 1.523 . S
C888 C869 1.368 . S
C888 C882 1.368 . S
C888 C887 1.523 . S
C889 C873 1.429 . S
C889 C885 1.429 . S
C889 C890 1.523 . S
C890 C874 1.368 . S
C890 C886 1.368 . S
C890 C889 1.523 . S
H891 C866 0.950 . S
H892 C868 0.950 . S
H893 C869 0.949 . S
H894 C871 0.950 . S
H895 C873 0.950 . S
C896 C897 1.349 . S
C896 C898 1.327 . S
C896 H921 0.950 . S
C897 C896 1.349 . S
C897 C913 1.349 . S
C898 C896 1.327 . S
C898 C917 1.429 . S
C898 H922 0.950 . S
C899 C916 1.574 . S
C899 C918 1.368 . S
C899 H923 0.949 . S
H900 C904 0.949 . S
C901 C902 1.349 . S
C901 C903 1.327 . S
C901 H924 0.950 . S
C902 C901 1.349 . S
C902 C914 1.349 . S
C903 C901 1.327 . S
C903 C919 1.429 . S
C903 H925 0.950 . S
C904 H900 0.949 . S
C904 C912 1.574 . S
C904 C920 1.368 . S
H905 C913 0.950 . S
H906 C911 0.950 . S
H907 C912 0.949 . S
H908 C914 0.950 . S
H909 C915 0.950 . S
H910 C916 0.949 . S
C911 H906 0.950 . S
C911 C913 1.327 . S
C911 C917 1.429 . S
C912 C904 1.574 . S
C912 H907 0.949 . S
C912 C918 1.368 . S
C913 C897 1.349 . S
C913 H905 0.950 . S
C913 C911 1.327 . S
C914 C902 1.349 . S
C914 H908 0.950 . S
C914 C915 1.327 . S
C915 H909 0.950 . S
C915 C914 1.327 . S
C915 C919 1.429 . S
C916 C899 1.574 . S
C916 H910 0.949 . S
C916 C920 1.368 . S
C917 C898 1.429 . S
C917 C911 1.429 . S
C917 C918 1.523 . S
C918 C899 1.368 . S
C918 C912 1.368 . S
C918 C917 1.523 . S
C919 C903 1.429 . S
C919 C915 1.429 . S
C919 C920 1.523 . S
C920 C904 1.368 . S
C920 C916 1.368 . S
C920 C919 1.523 . S
H921 C896 0.950 . S
H922 C898 0.950 . S
H923 C899 0.949 . S
H924 C901 0.950 . S
H925 C903 0.950 . S
C926 C927 1.349 . S
C926 C928 1.327 . S
C926 H951 0.950 . S
C927 C926 1.349 . S
C927 C943 1.349 . S
C928 C926 1.327 . S
C928 C947 1.429 . S
C928 H952 0.950 . S
C929 C946 1.574 . S
C929 C948 1.368 . S
C929 H953 0.949 . S
H930 C934 0.949 . S
C931 C932 1.349 . S
C931 C933 1.327 . S
C931 H954 0.950 . S
C932 C931 1.349 . S
C932 C944 1.349 . S
C933 C931 1.327 . S
C933 C949 1.429 . S
C933 H955 0.950 . S
C934 H930 0.949 . S
C934 C942 1.574 . S
C934 C950 1.368 . S
H935 C943 0.950 . S
H936 C941 0.950 . S
H937 C942 0.949 . S
H938 C944 0.950 . S
H939 C945 0.950 . S
H940 C946 0.949 . S
C941 H936 0.950 . S
C941 C943 1.327 . S
C941 C947 1.429 . S
C942 C934 1.574 . S
C942 H937 0.949 . S
C942 C948 1.368 . S
C943 C927 1.349 . S
C943 H935 0.950 . S
C943 C941 1.327 . S
C944 C932 1.349 . S
C944 H938 0.950 . S
C944 C945 1.327 . S
C945 H939 0.950 . S
C945 C944 1.327 . S
C945 C949 1.429 . S
C946 C929 1.574 . S
C946 H940 0.949 . S
C946 C950 1.368 . S
C947 C928 1.429 . S
C947 C941 1.429 . S
C947 C948 1.523 . S
C948 C929 1.368 . S
C948 C942 1.368 . S
C948 C947 1.523 . S
C949 C933 1.429 . S
C949 C945 1.429 . S
C949 C950 1.523 . S
C950 C934 1.368 . S
C950 C946 1.368 . S
C950 C949 1.523 . S
H951 C926 0.950 . S
H952 C928 0.950 . S
H953 C929 0.949 . S
H954 C931 0.950 . S
H955 C933 0.950 . S
C956 C957 1.349 . S
C956 C958 1.327 . S
C956 H981 0.950 . S
C957 C956 1.349 . S
C957 C973 1.349 . S
C958 C956 1.327 . S
C958 C977 1.429 . S
C958 H982 0.950 . S
C959 C976 1.574 . S
C959 C978 1.368 . S
C959 H983 0.949 . S
H960 C964 0.949 . S
C961 C962 1.349 . S
C961 C963 1.327 . S
C961 H984 0.950 . S
C962 C961 1.349 . S
C962 C974 1.349 . S
C963 C961 1.327 . S
C963 C979 1.429 . S
C963 H985 0.950 . S
C964 H960 0.949 . S
C964 C972 1.574 . S
C964 C980 1.368 . S
H965 C973 0.950 . S
H966 C971 0.950 . S
H967 C972 0.949 . S
H968 C974 0.950 . S
H969 C975 0.950 . S
H970 C976 0.949 . S
C971 H966 0.950 . S
C971 C973 1.327 . S
C971 C977 1.429 . S
C972 C964 1.574 . S
C972 H967 0.949 . S
C972 C978 1.368 . S
C973 C957 1.349 . S
C973 H965 0.950 . S
C973 C971 1.327 . S
C974 C962 1.349 . S
C974 H968 0.950 . S
C974 C975 1.327 . S
C975 H969 0.950 . S
C975 C974 1.327 . S
C975 C979 1.429 . S
C976 C959 1.574 . S
C976 H970 0.949 . S
C976 C980 1.368 . S
C977 C958 1.429 . S
C977 C971 1.429 . S
C977 C978 1.523 . S
C978 C959 1.368 . S
C978 C972 1.368 . S
C978 C977 1.523 . S
C979 C963 1.429 . S
C979 C975 1.429 . S
C979 C980 1.523 . S
C980 C964 1.368 . S
C980 C976 1.368 . S
C980 C979 1.523 . S
H981 C956 0.950 . S
H982 C958 0.950 . S
H983 C959 0.949 . S
H984 C961 0.950 . S
H985 C963 0.950 . S
C986 C987 1.349 . S
C986 C988 1.327 . S
C986 H1011 0.950 . S
C987 C986 1.349 . S
C987 C1003 1.349 . S
C988 C986 1.327 . S
C988 C1007 1.429 . S
C988 H1012 0.950 . S
C989 C1006 1.574 . S
C989 C1008 1.368 . S
C989 H1013 0.949 . S
H990 C994 0.949 . S
C991 C992 1.349 . S
C991 C993 1.327 . S
C991 H1014 0.950 . S
C992 C991 1.349 . S
C992 C1004 1.349 . S
C993 C991 1.327 . S
C993 C1009 1.429 . S
C993 H1015 0.950 . S
C994 H990 0.949 . S
C994 C1002 1.574 . S
C994 C1010 1.368 . S
H995 C1003 0.950 . S
H996 C1001 0.950 . S
H997 C1002 0.949 . S
H998 C1004 0.950 . S
H999 C1005 0.950 . S
H1000 C1006 0.949 . S
C1001 H996 0.950 . S
C1001 C1003 1.327 . S
C1001 C1007 1.429 . S
C1002 C994 1.574 . S
C1002 H997 0.949 . S
C1002 C1008 1.368 . S
C1003 C987 1.349 . S
C1003 H995 0.950 . S
C1003 C1001 1.327 . S
C1004 C992 1.349 . S
C1004 H998 0.950 . S
C1004 C1005 1.327 . S
C1005 H999 0.950 . S
C1005 C1004 1.327 . S
C1005 C1009 1.429 . S
C1006 C989 1.574 . S
C1006 H1000 0.949 . S
C1006 C1010 1.368 . S
C1007 C988 1.429 . S
C1007 C1001 1.429 . S
C1007 C1008 1.523 . S
C1008 C989 1.368 . S
C1008 C1002 1.368 . S
C1008 C1007 1.523 . S
C1009 C993 1.429 . S
C1009 C1005 1.429 . S
C1009 C1010 1.523 . S
C1010 C994 1.368 . S
C1010 C1006 1.368 . S
C1010 C1009 1.523 . S
H1011 C986 0.950 . S
H1012 C988 0.950 . S
H1013 C989 0.949 . S
H1014 C991 0.950 . S
H1015 C993 0.950 . S
C1016 C1017 1.349 . S
C1016 C1018 1.327 . S
C1016 H1041 0.950 . S
C1017 C1016 1.349 . S
C1017 C1033 1.349 . S
C1018 C1016 1.327 . S
C1018 C1037 1.429 . S
C1018 H1042 0.950 . S
C1019 C1036 1.574 . S
C1019 C1038 1.368 . S
C1019 H1043 0.949 . S
H1020 C1024 0.949 . S
C1021 C1022 1.349 . S
C1021 C1023 1.327 . S
C1021 H1044 0.950 . S
C1022 C1021 1.349 . S
C1022 C1034 1.349 . S
C1023 C1021 1.327 . S
C1023 C1039 1.429 . S
C1023 H1045 0.950 . S
C1024 H1020 0.949 . S
C1024 C1032 1.574 . S
C1024 C1040 1.368 . S
H1025 C1033 0.950 . S
H1026 C1031 0.950 . S
H1027 C1032 0.949 . S
H1028 C1034 0.950 . S
H1029 C1035 0.950 . S
H1030 C1036 0.949 . S
C1031 H1026 0.950 . S
C1031 C1033 1.327 . S
C1031 C1037 1.429 . S
C1032 C1024 1.574 . S
C1032 H1027 0.949 . S
C1032 C1038 1.368 . S
C1033 C1017 1.349 . S
C1033 H1025 0.950 . S
C1033 C1031 1.327 . S
C1034 C1022 1.349 . S
C1034 H1028 0.950 . S
C1034 C1035 1.327 . S
C1035 H1029 0.950 . S
C1035 C1034 1.327 . S
C1035 C1039 1.429 . S
C1036 C1019 1.574 . S
C1036 H1030 0.949 . S
C1036 C1040 1.368 . S
C1037 C1018 1.429 . S
C1037 C1031 1.429 . S
C1037 C1038 1.523 . S
C1038 C1019 1.368 . S
C1038 C1032 1.368 . S
C1038 C1037 1.523 . S
C1039 C1023 1.429 . S
C1039 C1035 1.429 . S
C1039 C1040 1.523 . S
C1040 C1024 1.368 . S
C1040 C1036 1.368 . S
C1040 C1039 1.523 . S
H1041 C1016 0.950 . S
H1042 C1018 0.950 . S
H1043 C1019 0.949 . S
H1044 C1021 0.950 . S
H1045 C1023 0.950 . S
C1046 C1047 1.349 . S
C1046 C1048 1.327 . S
C1046 H1071 0.950 . S
C1047 C1046 1.349 . S
C1047 C1063 1.349 . S
C1048 C1046 1.327 . S
C1048 C1067 1.429 . S
C1048 H1072 0.950 . S
C1049 C1066 1.574 . S
C1049 C1068 1.368 . S
C1049 H1073 0.949 . S
H1050 C1054 0.949 . S
C1051 C1052 1.349 . S
C1051 C1053 1.327 . S
C1051 H1074 0.950 . S
C1052 C1051 1.349 . S
C1052 C1064 1.349 . S
C1053 C1051 1.327 . S
C1053 C1069 1.429 . S
C1053 H1075 0.950 . S
C1054 H1050 0.949 . S
C1054 C1062 1.574 . S
C1054 C1070 1.368 . S
H1055 C1063 0.950 . S
H1056 C1061 0.950 . S
H1057 C1062 0.949 . S
H1058 C1064 0.950 . S
H1059 C1065 0.950 . S
H1060 C1066 0.949 . S
C1061 H1056 0.950 . S
C1061 C1063 1.327 . S
C1061 C1067 1.429 . S
C1062 C1054 1.574 . S
C1062 H1057 0.949 . S
C1062 C1068 1.368 . S
C1063 C1047 1.349 . S
C1063 H1055 0.950 . S
C1063 C1061 1.327 . S
C1064 C1052 1.349 . S
C1064 H1058 0.950 . S
C1064 C1065 1.327 . S
C1065 H1059 0.950 . S
C1065 C1064 1.327 . S
C1065 C1069 1.429 . S
C1066 C1049 1.574 . S
C1066 H1060 0.949 . S
C1066 C1070 1.368 . S
C1067 C1048 1.429 . S
C1067 C1061 1.429 . S
C1067 C1068 1.523 . S
C1068 C1049 1.368 . S
C1068 C1062 1.368 . S
C1068 C1067 1.523 . S
C1069 C1053 1.429 . S
C1069 C1065 1.429 . S
C1069 C1070 1.523 . S
C1070 C1054 1.368 . S
C1070 C1066 1.368 . S
C1070 C1069 1.523 . S
H1071 C1046 0.950 . S
H1072 C1048 0.950 . S
H1073 C1049 0.949 . S
H1074 C1051 0.950 . S
H1075 C1053 0.950 . S
C1076 C1077 1.349 . S
C1076 C1078 1.327 . S
C1076 H1101 0.950 . S
C1077 C1076 1.349 . S
C1077 C1093 1.349 . S
C1078 C1076 1.327 . S
C1078 C1097 1.429 . S
C1078 H1102 0.950 . S
C1079 C1096 1.574 . S
C1079 C1098 1.368 . S
C1079 H1103 0.949 . S
H1080 C1084 0.949 . S
C1081 C1082 1.349 . S
C1081 C1083 1.327 . S
C1081 H1104 0.950 . S
C1082 C1081 1.349 . S
C1082 C1094 1.349 . S
C1083 C1081 1.327 . S
C1083 C1099 1.429 . S
C1083 H1105 0.950 . S
C1084 H1080 0.949 . S
C1084 C1092 1.574 . S
C1084 C1100 1.368 . S
H1085 C1093 0.950 . S
H1086 C1091 0.950 . S
H1087 C1092 0.949 . S
H1088 C1094 0.950 . S
H1089 C1095 0.950 . S
H1090 C1096 0.949 . S
C1091 H1086 0.950 . S
C1091 C1093 1.327 . S
C1091 C1097 1.429 . S
C1092 C1084 1.574 . S
C1092 H1087 0.949 . S
C1092 C1098 1.368 . S
C1093 C1077 1.349 . S
C1093 H1085 0.950 . S
C1093 C1091 1.327 . S
C1094 C1082 1.349 . S
C1094 H1088 0.950 . S
C1094 C1095 1.327 . S
C1095 H1089 0.950 . S
C1095 C1094 1.327 . S
C1095 C1099 1.429 . S
C1096 C1079 1.574 . S
C1096 H1090 0.949 . S
C1096 C1100 1.368 . S
C1097 C1078 1.429 . S
C1097 C1091 1.429 . S
C1097 C1098 1.523 . S
C1098 C1079 1.368 . S
C1098 C1092 1.368 . S
C1098 C1097 1.523 . S
C1099 C1083 1.429 . S
C1099 C1095 1.429 . S
C1099 C1100 1.523 . S
C1100 C1084 1.368 . S
C1100 C1096 1.368 . S
C1100 C1099 1.523 . S
H1101 C1076 0.950 . S
H1102 C1078 0.950 . S
H1103 C1079 0.949 . S
H1104 C1081 0.950 . S
H1105 C1083 0.950 . S
C1106 C1107 1.349 . S
C1106 C1108 1.327 . S
C1106 H1131 0.950 . S
C1107 C1106 1.349 . S
C1107 C1123 1.349 . S
C1108 C1106 1.327 . S
C1108 C1127 1.429 . S
C1108 H1132 0.950 . S
C1109 C1126 1.574 . S
C1109 C1128 1.368 . S
C1109 H1133 0.949 . S
H1110 C1114 0.949 . S
C1111 C1112 1.349 . S
C1111 C1113 1.327 . S
C1111 H1134 0.950 . S
C1112 C1111 1.349 . S
C1112 C1124 1.349 . S
C1113 C1111 1.327 . S
C1113 C1129 1.429 . S
C1113 H1135 0.950 . S
C1114 H1110 0.949 . S
C1114 C1122 1.574 . S
C1114 C1130 1.368 . S
H1115 C1123 0.950 . S
H1116 C1121 0.950 . S
H1117 C1122 0.949 . S
H1118 C1124 0.950 . S
H1119 C1125 0.950 . S
H1120 C1126 0.949 . S
C1121 H1116 0.950 . S
C1121 C1123 1.327 . S
C1121 C1127 1.429 . S
C1122 C1114 1.574 . S
C1122 H1117 0.949 . S
C1122 C1128 1.368 . S
C1123 C1107 1.349 . S
C1123 H1115 0.950 . S
C1123 C1121 1.327 . S
C1124 C1112 1.349 . S
C1124 H1118 0.950 . S
C1124 C1125 1.327 . S
C1125 H1119 0.950 . S
C1125 C1124 1.327 . S
C1125 C1129 1.429 . S
C1126 C1109 1.574 . S
C1126 H1120 0.949 . S
C1126 C1130 1.368 . S
C1127 C1108 1.429 . S
C1127 C1121 1.429 . S
C1127 C1128 1.523 . S
C1128 C1109 1.368 . S
C1128 C1122 1.368 . S
C1128 C1127 1.523 . S
C1129 C1113 1.429 . S
C1129 C1125 1.429 . S
C1129 C1130 1.523 . S
C1130 C1114 1.368 . S
C1130 C1126 1.368 . S
C1130 C1129 1.523 . S
H1131 C1106 0.950 . S
H1132 C1108 0.950 . S
H1133 C1109 0.949 . S
H1134 C1111 0.950 . S
H1135 C1113 0.950 . S
C1136 C1137 1.349 . S
C1136 C1138 1.327 . S
C1136 H1161 0.950 . S
C1137 C1136 1.349 . S
C1137 C1153 1.349 . S
C1138 C1136 1.327 . S
C1138 C1157 1.429 . S
C1138 H1162 0.950 . S
C1139 C1156 1.574 . S
C1139 C1158 1.368 . S
C1139 H1163 0.949 . S
H1140 C1144 0.949 . S
C1141 C1142 1.349 . S
C1141 C1143 1.327 . S
C1141 H1164 0.950 . S
C1142 C1141 1.349 . S
C1142 C1154 1.349 . S
C1143 C1141 1.327 . S
C1143 C1159 1.429 . S
C1143 H1165 0.950 . S
C1144 H1140 0.949 . S
C1144 C1152 1.574 . S
C1144 C1160 1.368 . S
H1145 C1153 0.950 . S
H1146 C1151 0.950 . S
H1147 C1152 0.949 . S
H1148 C1154 0.950 . S
H1149 C1155 0.950 . S
H1150 C1156 0.949 . S
C1151 H1146 0.950 . S
C1151 C1153 1.327 . S
C1151 C1157 1.429 . S
C1152 C1144 1.574 . S
C1152 H1147 0.949 . S
C1152 C1158 1.368 . S
C1153 C1137 1.349 . S
C1153 H1145 0.950 . S
C1153 C1151 1.327 . S
C1154 C1142 1.349 . S
C1154 H1148 0.950 . S
C1154 C1155 1.327 . S
C1155 H1149 0.950 . S
C1155 C1154 1.327 . S
C1155 C1159 1.429 . S
C1156 C1139 1.574 . S
C1156 H1150 0.949 . S
C1156 C1160 1.368 . S
C1157 C1138 1.429 . S
C1157 C1151 1.429 . S
C1157 C1158 1.523 . S
C1158 C1139 1.368 . S
C1158 C1152 1.368 . S
C1158 C1157 1.523 . S
C1159 C1143 1.429 . S
C1159 C1155 1.429 . S
C1159 C1160 1.523 . S
C1160 C1144 1.368 . S
C1160 C1156 1.368 . S
C1160 C1159 1.523 . S
H1161 C1136 0.950 . S
H1162 C1138 0.950 . S
H1163 C1139 0.949 . S
H1164 C1141 0.950 . S
H1165 C1143 0.950 . S
C1166 C1167 1.349 . S
C1166 C1168 1.327 . S
C1166 H1191 0.950 . S
C1167 C1166 1.349 . S
C1167 C1183 1.349 . S
C1168 C1166 1.327 . S
C1168 C1187 1.429 . S
C1168 H1192 0.950 . S
C1169 C1186 1.574 . S
C1169 C1188 1.368 . S
C1169 H1193 0.949 . S
H1170 C1174 0.949 . S
C1171 C1172 1.349 . S
C1171 C1173 1.327 . S
C1171 H1194 0.950 . S
C1172 C1171 1.349 . S
C1172 C1184 1.349 . S
C1173 C1171 1.327 . S
C1173 C1189 1.429 . S
C1173 H1195 0.950 . S
C1174 H1170 0.949 . S
C1174 C1182 1.574 . S
C1174 C1190 1.368 . S
H1175 C1183 0.950 . S
H1176 C1181 0.950 . S
H1177 C1182 0.949 . S
H1178 C1184 0.950 . S
H1179 C1185 0.950 . S
H1180 C1186 0.949 . S
C1181 H1176 0.950 . S
C1181 C1183 1.327 . S
C1181 C1187 1.429 . S
C1182 C1174 1.574 . S
C1182 H1177 0.949 . S
C1182 C1188 1.368 . S
C1183 C1167 1.349 . S
C1183 H1175 0.950 . S
C1183 C1181 1.327 . S
C1184 C1172 1.349 . S
C1184 H1178 0.950 . S
C1184 C1185 1.327 . S
C1185 H1179 0.950 . S
C1185 C1184 1.327 . S
C1185 C1189 1.429 . S
C1186 C1169 1.574 . S
C1186 H1180 0.949 . S
C1186 C1190 1.368 . S
C1187 C1168 1.429 . S
C1187 C1181 1.429 . S
C1187 C1188 1.523 . S
C1188 C1169 1.368 . S
C1188 C1182 1.368 . S
C1188 C1187 1.523 . S
C1189 C1173 1.429 . S
C1189 C1185 1.429 . S
C1189 C1190 1.523 . S
C1190 C1174 1.368 . S
C1190 C1186 1.368 . S
C1190 C1189 1.523 . S
H1191 C1166 0.950 . S
H1192 C1168 0.950 . S
H1193 C1169 0.949 . S
H1194 C1171 0.950 . S
H1195 C1173 0.950 . S
C1196 C1197 1.349 . S
C1196 C1198 1.327 . S
C1196 H1221 0.950 . S
C1197 C1196 1.349 . S
C1197 C1213 1.349 . S
C1198 C1196 1.327 . S
C1198 C1217 1.429 . S
C1198 H1222 0.950 . S
C1199 C1216 1.574 . S
C1199 C1218 1.368 . S
C1199 H1223 0.949 . S
H1200 C1204 0.949 . S
C1201 C1202 1.349 . S
C1201 C1203 1.327 . S
C1201 H1224 0.950 . S
C1202 C1201 1.349 . S
C1202 C1214 1.349 . S
C1203 C1201 1.327 . S
C1203 C1219 1.429 . S
C1203 H1225 0.950 . S
C1204 H1200 0.949 . S
C1204 C1212 1.574 . S
C1204 C1220 1.368 . S
H1205 C1213 0.950 . S
H1206 C1211 0.950 . S
H1207 C1212 0.949 . S
H1208 C1214 0.950 . S
H1209 C1215 0.950 . S
H1210 C1216 0.949 . S
C1211 H1206 0.950 . S
C1211 C1213 1.327 . S
C1211 C1217 1.429 . S
C1212 C1204 1.574 . S
C1212 H1207 0.949 . S
C1212 C1218 1.368 . S
C1213 C1197 1.349 . S
C1213 H1205 0.950 . S
C1213 C1211 1.327 . S
C1214 C1202 1.349 . S
C1214 H1208 0.950 . S
C1214 C1215 1.327 . S
C1215 H1209 0.950 . S
C1215 C1214 1.327 . S
C1215 C1219 1.429 . S
C1216 C1199 1.574 . S
C1216 H1210 0.949 . S
C1216 C1220 1.368 . S
C1217 C1198 1.429 . S
C1217 C1211 1.429 . S
C1217 C1218 1.523 . S
C1218 C1199 1.368 . S
C1218 C1212 1.368 . S
C1218 C1217 1.523 . S
C1219 C1203 1.429 . S
C1219 C1215 1.429 . S
C1219 C1220 1.523 . S
C1220 C1204 1.368 . S
C1220 C1216 1.368 . S
C1220 C1219 1.523 . S
H1221 C1196 0.950 . S
H1222 C1198 0.950 . S
H1223 C1199 0.949 . S
H1224 C1201 0.950 . S
H1225 C1203 0.950 . S
C1226 C1227 1.349 . S
C1226 C1228 1.327 . S
C1226 H1251 0.950 . S
C1227 C1226 1.349 . S
C1227 C1243 1.349 . S
C1228 C1226 1.327 . S
C1228 C1247 1.429 . S
C1228 H1252 0.950 . S
C1229 C1246 1.574 . S
C1229 C1248 1.368 . S
C1229 H1253 0.949 . S
H1230 C1234 0.949 . S
C1231 C1232 1.349 . S
C1231 C1233 1.327 . S
C1231 H1254 0.950 . S
C1232 C1231 1.349 . S
C1232 C1244 1.349 . S
C1233 C1231 1.327 . S
C1233 C1249 1.429 . S
C1233 H1255 0.950 . S
C1234 H1230 0.949 . S
C1234 C1242 1.574 . S
C1234 C1250 1.368 . S
H1235 C1243 0.950 . S
H1236 C1241 0.950 . S
H1237 C1242 0.949 . S
H1238 C1244 0.950 . S
H1239 C1245 0.950 . S
H1240 C1246 0.949 . S
C1241 H1236 0.950 . S
C1241 C1243 1.327 . S
C1241 C1247 1.429 . S
C1242 C1234 1.574 . S
C1242 H1237 0.949 . S
C1242 C1248 1.368 . S
C1243 C1227 1.349 . S
C1243 H1235 0.950 . S
C1243 C1241 1.327 . S
C1244 C1232 1.349 . S
C1244 H1238 0.950 . S
C1244 C1245 1.327 . S
C1245 H1239 0.950 . S
C1245 C1244 1.327 . S
C1245 C1249 1.429 . S
C1246 C1229 1.574 . S
C1246 H1240 0.949 . S
C1246 C1250 1.368 . S
C1247 C1228 1.429 . S
C1247 C1241 1.429 . S
C1247 C1248 1.523 . S
C1248 C1229 1.368 . S
C1248 C1242 1.368 . S
C1248 C1247 1.523 . S
C1249 C1233 1.429 . S
C1249 C1245 1.429 . S
C1249 C1250 1.523 . S
C1250 C1234 1.368 . S
C1250 C1246 1.368 . S
C1250 C1249 1.523 . S
H1251 C1226 0.950 . S
H1252 C1228 0.950 . S
H1253 C1229 0.949 . S
H1254 C1231 0.950 . S
H1255 C1233 0.950 . S
C1256 C1257 1.349 . S
C1256 C1258 1.327 . S
C1256 H1281 0.950 . S
C1257 C1256 1.349 . S
C1257 C1273 1.349 . S
C1258 C1256 1.327 . S
C1258 C1277 1.429 . S
C1258 H1282 0.950 . S
C1259 C1276 1.574 . S
C1259 C1278 1.368 . S
C1259 H1283 0.949 . S
H1260 C1264 0.949 . S
C1261 C1262 1.349 . S
C1261 C1263 1.327 . S
C1261 H1284 0.950 . S
C1262 C1261 1.349 . S
C1262 C1274 1.349 . S
C1263 C1261 1.327 . S
C1263 C1279 1.429 . S
C1263 H1285 0.950 . S
C1264 H1260 0.949 . S
C1264 C1272 1.574 . S
C1264 C1280 1.368 . S
H1265 C1273 0.950 . S
H1266 C1271 0.950 . S
H1267 C1272 0.949 . S
H1268 C1274 0.950 . S
H1269 C1275 0.950 . S
H1270 C1276 0.949 . S
C1271 H1266 0.950 . S
C1271 C1273 1.327 . S
C1271 C1277 1.429 . S
C1272 C1264 1.574 . S
C1272 H1267 0.949 . S
C1272 C1278 1.368 . S
C1273 C1257 1.349 . S
C1273 H1265 0.950 . S
C1273 C1271 1.327 . S
C1274 C1262 1.349 . S
C1274 H1268 0.950 . S
C1274 C1275 1.327 . S
C1275 H1269 0.950 . S
C1275 C1274 1.327 . S
C1275 C1279 1.429 . S
C1276 C1259 1.574 . S
C1276 H1270 0.949 . S
C1276 C1280 1.368 . S
C1277 C1258 1.429 . S
C1277 C1271 1.429 . S
C1277 C1278 1.523 . S
C1278 C1259 1.368 . S
C1278 C1272 1.368 . S
C1278 C1277 1.523 . S
C1279 C1263 1.429 . S
C1279 C1275 1.429 . S
C1279 C1280 1.523 . S
C1280 C1264 1.368 . S
C1280 C1276 1.368 . S
C1280 C1279 1.523 . S
H1281 C1256 0.950 . S
H1282 C1258 0.950 . S
H1283 C1259 0.949 . S
H1284 C1261 0.950 . S
H1285 C1263 0.950 . S
C1286 C1287 1.349 . S
C1286 C1288 1.327 . S
C1286 H1311 0.950 . S
C1287 C1286 1.349 . S
C1287 C1303 1.349 . S
C1288 C1286 1.327 . S
C1288 C1307 1.429 . S
C1288 H1312 0.950 . S
C1289 C1306 1.574 . S
C1289 C1308 1.368 . S
C1289 H1313 0.949 . S
H1290 C1294 0.949 . S
C1291 C1292 1.349 . S
C1291 C1293 1.327 . S
C1291 H1314 0.950 . S
C1292 C1291 1.349 . S
C1292 C1304 1.349 . S
C1293 C1291 1.327 . S
C1293 C1309 1.429 . S
C1293 H1315 0.950 . S
C1294 H1290 0.949 . S
C1294 C1302 1.574 . S
C1294 C1310 1.368 . S
H1295 C1303 0.950 . S
H1296 C1301 0.950 . S
H1297 C1302 0.949 . S
H1298 C1304 0.950 . S
H1299 C1305 0.950 . S
H1300 C1306 0.949 . S
C1301 H1296 0.950 . S
C1301 C1303 1.327 . S
C1301 C1307 1.429 . S
C1302 C1294 1.574 . S
C1302 H1297 0.949 . S
C1302 C1308 1.368 . S
C1303 C1287 1.349 . S
C1303 H1295 0.950 . S
C1303 C1301 1.327 . S
C1304 C1292 1.349 . S
C1304 H1298 0.950 . S
C1304 C1305 1.327 . S
C1305 H1299 0.950 . S
C1305 C1304 1.327 . S
C1305 C1309 1.429 . S
C1306 C1289 1.574 . S
C1306 H1300 0.949 . S
C1306 C1310 1.368 . S
C1307 C1288 1.429 . S
C1307 C1301 1.429 . S
C1307 C1308 1.523 . S
C1308 C1289 1.368 . S
C1308 C1302 1.368 . S
C1308 C1307 1.523 . S
C1309 C1293 1.429 . S
C1309 C1305 1.429 . S
C1309 C1310 1.523 . S
C1310 C1294 1.368 . S
C1310 C1306 1.368 . S
C1310 C1309 1.523 . S
H1311 C1286 0.950 . S
H1312 C1288 0.950 . S
H1313 C1289 0.949 . S
H1314 C1291 0.950 . S
H1315 C1293 0.950 . S
C602 C328 1.541 . S
C597 C15 1.547 . S
C632 C381 1.559 . S
C627 C55 1.562 . S
C662 C342 1.588 . S
C657 C101 1.570 . S
C692 C367 1.599 . S
C687 C141 1.600 . S
C722 C413 1.516 . S
C717 C2 1.498 . S
C752 C459 1.520 . S
C747 C61 1.504 . S
C777 C95 1.621 . S
C782 C526 1.619 . S
C812 C558 1.517 . S
C807 C135 1.521 . S
C842 C427 1.511 . S
C837 C42 1.489 . S
C867 C82 1.516 . S
C872 C473 1.541 . S
C902 C512 1.604 . S
C897 C122 1.616 . S
C932 C572 1.532 . S
C927 C21 1.513 . S
C957 C162 1.596 . S
C962 C388 1.594 . S
C992 C321 1.582 . S
C987 C221 1.578 . S
C1017 C255 1.563 . S
C1022 C374 1.559 . S
C1047 C282 1.528 . S
C1052 C335 1.540 . S
C1082 C519 1.616 . S
C1077 C181 1.629 . S
C1112 C565 1.531 . S
C1107 C202 1.529 . S
C1142 C420 1.516 . S
C1137 C242 1.510 . S
C1167 C301 1.514 . S
C1172 C480 1.528 . S
C1202 C505 1.618 . S
C1197 C215 1.623 . S
C1232 C551 1.526 . S
C1227 C261 1.522 . S
C1262 C434 1.514 . S
C1257 C295 1.518 . S
C1287 C175 1.525 . S
C1292 C466 1.524 . S
