# Generated by pormake.
# Topology pyr, (3,6)-cn, num edge types: 1
# Building blocks:
#     Node 0, Type 0, BuildingBlock: QEWDON_clean_linker_0, # of connection points: 3
#     Node 1, Type 0, BuildingBlock: QEWDON_clean_linker_0, # of connection points: 3
#     Node 2, Type 0, BuildingBlock: QEWDON_clean_linker_0, # of connection points: 3
#     Node 3, Type 0, BuildingBlock: QEWDON_clean_linker_0, # of connection points: 3
#     Node 4, Type 0, BuildingBlock: QEWDON_clean_linker_0, # of connection points: 3
#     Node 5, Type 0, BuildingBlock: QEWDON_clean_linker_0, # of connection points: 3
#     Node 6, Type 0, BuildingBlock: QEWDON_clean_linker_0, # of connection points: 3
#     Node 7, Type 0, BuildingBlock: QEWDON_clean_linker_0, # of connection points: 3
#     Node 8, Type 1, BuildingBlock: MIFKUJ_clean_sbu_0, # of connection points: 6
#     Node 9, Type 1, BuildingBlock: MIFKUJ_clean_sbu_0, # of connection points: 6
#     Node 10, Type 1, BuildingBlock: MIFKUJ_clean_sbu_0, # of connection points: 6
#     Node 11, Type 1, BuildingBlock: MIFKUJ_clean_sbu_0, # of connection points: 6
#     Edge 12, Type (0, 1), BuildingBlock: EZIPEK_clean_linker_0, # of connection points: 2
#     Edge 13, Type (0, 1), BuildingBlock: EZIPEK_clean_linker_0, # of connection points: 2
#     Edge 14, Type (0, 1), BuildingBlock: EZIPEK_clean_linker_0, # of connection points: 2
#     Edge 15, Type (0, 1), BuildingBlock: EZIPEK_clean_linker_0, # of connection points: 2
#     Edge 16, Type (0, 1), BuildingBlock: EZIPEK_clean_linker_0, # of connection points: 2
#     Edge 17, Type (0, 1), BuildingBlock: EZIPEK_clean_linker_0, # of connection points: 2
#     Edge 18, Type (0, 1), BuildingBlock: EZIPEK_clean_linker_0, # of connection points: 2
#     Edge 19, Type (0, 1), BuildingBlock: EZIPEK_clean_linker_0, # of connection points: 2
#     Edge 20, Type (0, 1), BuildingBlock: EZIPEK_clean_linker_0, # of connection points: 2
#     Edge 21, Type (0, 1), BuildingBlock: EZIPEK_clean_linker_0, # of connection points: 2
#     Edge 22, Type (0, 1), BuildingBlock: EZIPEK_clean_linker_0, # of connection points: 2
#     Edge 23, Type (0, 1), BuildingBlock: EZIPEK_clean_linker_0, # of connection points: 2
#     Edge 24, Type (0, 1), BuildingBlock: EZIPEK_clean_linker_0, # of connection points: 2
#     Edge 25, Type (0, 1), BuildingBlock: EZIPEK_clean_linker_0, # of connection points: 2
#     Edge 26, Type (0, 1), BuildingBlock: EZIPEK_clean_linker_0, # of connection points: 2
#     Edge 27, Type (0, 1), BuildingBlock: EZIPEK_clean_linker_0, # of connection points: 2
#     Edge 28, Type (0, 1), BuildingBlock: EZIPEK_clean_linker_0, # of connection points: 2
#     Edge 29, Type (0, 1), BuildingBlock: EZIPEK_clean_linker_0, # of connection points: 2
#     Edge 30, Type (0, 1), BuildingBlock: EZIPEK_clean_linker_0, # of connection points: 2
#     Edge 31, Type (0, 1), BuildingBlock: EZIPEK_clean_linker_0, # of connection points: 2
#     Edge 32, Type (0, 1), BuildingBlock: EZIPEK_clean_linker_0, # of connection points: 2
#     Edge 33, Type (0, 1), BuildingBlock: EZIPEK_clean_linker_0, # of connection points: 2
#     Edge 34, Type (0, 1), BuildingBlock: EZIPEK_clean_linker_0, # of connection points: 2
#     Edge 35, Type (0, 1), BuildingBlock: EZIPEK_clean_linker_0, # of connection points: 2
# Relax obj value: 0.099
# Max RMSD: 0.267
# Mean RMSD: 0.177
data_MOF--net-pyr--node1-MIFKUJ_clean_sbu_0--node2-QEWDON_clean_linker_0--edge1-EZIPEK_clean_linker_0
_symmetry_space_group_name_H-M    P1
_symmetry_Int_Tables_number       1
_symmetry_cell_setting            triclinic
loop_
_symmetry_equiv_pos_as_xyz
'x, y, z'
_cell_length_a     29.39701
_cell_length_b     26.708651
_cell_length_c     30.259046
_cell_angle_alpha  83.924456
_cell_angle_beta   86.610833
_cell_angle_gamma 108.63486
loop_
_atom_site_label
_atom_site_type_symbol
_atom_site_fract_x
_atom_site_fract_y
_atom_site_fract_z
_atom_type_partial_charge
H0 H 0.29223 0.26737 0.19961 0.0
C1 C 0.2657 0.24157 0.22569 0.0
C2 C 0.26833 0.19086 0.24185 0.0
C3 C 0.22862 0.25865 0.24337 0.0
H4 H 0.23881 0.12284 0.2934 0.0
C5 C 0.23571 0.16027 0.27872 0.0
C6 C 0.19963 0.1785 0.29714 0.0
C7 C 0.19494 0.2259 0.27733 0.0
C8 C 0.22669 0.31303 0.23253 0.0
H9 H 0.16679 0.23967 0.29111 0.0
C10 C 0.20376 0.32635 0.19567 0.0
C11 C 0.19068 0.37288 0.19288 0.0
C12 C 0.23742 0.34714 0.26561 0.0
H13 H 0.25373 0.33668 0.29486 0.0
C14 C 0.22446 0.39308 0.26277 0.0
H15 H 0.19486 0.30008 0.17022 0.0
C16 C 0.20086 0.40569 0.22686 0.0
H17 H 0.1912 0.44172 0.22507 0.0
H18 H 0.23207 0.41857 0.28883 0.0
H19 H 0.32441 0.90742 0.78632 0.0
C20 C 0.34091 0.88022 0.77359 0.0
C21 C 0.37817 0.8682 0.79532 0.0
C22 C 0.32152 0.85306 0.73811 0.0
H23 H 0.42583 0.82051 0.79398 0.0
C24 C 0.39803 0.83181 0.77775 0.0
C25 C 0.38326 0.81088 0.73839 0.0
C26 C 0.3441 0.82037 0.71953 0.0
C27 C 0.27204 0.84778 0.72771 0.0
H28 H 0.32982 0.80035 0.69147 0.0
C29 C 0.26172 0.88525 0.69725 0.0
C30 C 0.2136 0.87762 0.6883 0.0
C31 C 0.23462 0.80213 0.74776 0.0
H32 H 0.24224 0.77245 0.77068 0.0
C33 C 0.18725 0.79418 0.73831 0.0
H34 H 0.29058 0.92002 0.681 0.0
C35 C 0.17669 0.83182 0.70902 0.0
H36 H 0.13953 0.82518 0.70236 0.0
H37 H 0.15864 0.75881 0.7538 0.0
H38 H 0.71671 0.43491 0.8512 0.0
C39 C 0.702 0.39371 0.86658 0.0
C40 C 0.73147 0.37007 0.8894 0.0
C41 C 0.65301 0.36607 0.86611 0.0
H42 H 0.73532 0.29791 0.9261 0.0
C43 C 0.71206 0.31654 0.90945 0.0
C44 C 0.66195 0.28899 0.91159 0.0
C45 C 0.63283 0.31484 0.88998 0.0
C46 C 0.62229 0.39341 0.84456 0.0
H47 H 0.59417 0.29513 0.89179 0.0
C48 C 0.63217 0.41446 0.79902 0.0
C49 C 0.60384 0.44266 0.77973 0.0
C50 C 0.58404 0.40053 0.87026 0.0
H51 H 0.5762 0.38482 0.90538 0.0
C52 C 0.55637 0.4291 0.85111 0.0
H53 H 0.66097 0.40813 0.77868 0.0
C54 C 0.56626 0.4502 0.80618 0.0
H55 H 0.54379 0.4715 0.79162 0.0
H56 H 0.52705 0.43474 0.87107 0.0
H57 H 0.88714 0.77504 0.25535 0.0
C58 C 0.85491 0.75693 0.2783 0.0
C59 C 0.85486 0.77062 0.32178 0.0
C60 C 0.81211 0.72378 0.26371 0.0
H61 H 0.81616 0.75333 0.38668 0.0
C62 C 0.81457 0.74547 0.35224 0.0
C63 C 0.77035 0.71784 0.33794 0.0
C64 C 0.76907 0.70808 0.2931 0.0
C65 C 0.8123 0.70555 0.21847 0.0
H66 H 0.73475 0.68696 0.28195 0.0
C67 C 0.85391 0.6979 0.19834 0.0
C68 C 0.85221 0.67449 0.1586 0.0
C69 C 0.77008 0.69229 0.19615 0.0
H70 H 0.73791 0.69949 0.20886 0.0
C71 C 0.76852 0.66928 0.15674 0.0
H72 H 0.88712 0.70766 0.21425 0.0
C73 C 0.80903 0.65975 0.13838 0.0
H74 H 0.80696 0.64142 0.10794 0.0
H75 H 0.73559 0.65855 0.14043 0.0
H76 H 0.79213 0.78588 0.85559 0.0
C77 C 0.80871 0.80488 0.82247 0.0
C78 C 0.85543 0.80564 0.80862 0.0
C79 C 0.78256 0.8263 0.79299 0.0
H80 H 0.91419 0.8342 0.75629 0.0
C81 C 0.8774 0.83171 0.76618 0.0
C82 C 0.85169 0.85352 0.7362 0.0
C83 C 0.80353 0.84843 0.7494 0.0
C84 C 0.73354 0.82642 0.80746 0.0
H85 H 0.78326 0.8646 0.7264 0.0
C86 C 0.72536 0.85021 0.84528 0.0
C87 C 0.67971 0.85474 0.85613 0.0
C88 C 0.69533 0.80595 0.78161 0.0
H89 H 0.70086 0.78774 0.75231 0.0
C90 C 0.64975 0.8091 0.79317 0.0
H91 H 0.75479 0.86736 0.86487 0.0
C92 C 0.64197 0.83353 0.8301 0.0
H93 H 0.60673 0.837 0.83785 0.0
H94 H 0.62057 0.79344 0.77296 0.0
H95 H 0.71812 0.19252 0.43352 0.0
C96 C 0.71023 0.18762 0.3994 0.0
C97 C 0.73905 0.16776 0.37152 0.0
C98 C 0.67001 0.1989 0.38353 0.0
H99 H 0.75035 0.14738 0.30513 0.0
C100 C 0.728 0.16151 0.32706 0.0
C101 C 0.68651 0.17033 0.3119 0.0
C102 C 0.65826 0.18885 0.3405 0.0
C103 C 0.63727 0.21878 0.4107 0.0
H104 H 0.62656 0.19624 0.32865 0.0
C105 C 0.65393 0.26789 0.42792 0.0
C106 C 0.62039 0.29146 0.44362 0.0
C107 C 0.58721 0.1926 0.4121 0.0
H108 H 0.57344 0.15484 0.3992 0.0
C109 C 0.55439 0.21602 0.42748 0.0
H110 H 0.69229 0.28861 0.42724 0.0
C111 C 0.57083 0.26538 0.44259 0.0
H112 H 0.54468 0.28319 0.4541 0.0
H113 H 0.51608 0.19622 0.42702 0.0
H114 H 0.38593 0.75839 0.28681 0.0
C115 C 0.356 0.74506 0.26684 0.0
C116 C 0.35328 0.7783 0.2285 0.0
C117 C 0.32341 0.69241 0.27581 0.0
H118 H 0.31547 0.78442 0.17045 0.0
C119 C 0.31668 0.75985 0.20107 0.0
C120 C 0.28184 0.7101 0.21177 0.0
C121 C 0.28436 0.67652 0.24963 0.0
C122 C 0.33625 0.65129 0.3046 0.0
H123 H 0.25832 0.63667 0.2564 0.0
C124 C 0.35664 0.66152 0.34514 0.0
C125 C 0.37647 0.6253 0.36712 0.0
C126 C 0.33354 0.60312 0.28807 0.0
H127 H 0.31894 0.59423 0.25671 0.0
C128 C 0.35207 0.56688 0.31037 0.0
H129 H 0.35819 0.69783 0.35888 0.0
C130 C 0.37407 0.5782 0.34916 0.0
H131 H 0.38913 0.54983 0.36548 0.0
H132 H 0.35036 0.53039 0.29695 0.0
H133 H 0.22932 0.41304 0.78928 0.0
C134 C 0.21417 0.38082 0.76993 0.0
C135 C 0.24193 0.37535 0.73219 0.0
C136 C 0.16783 0.34366 0.78331 0.0
H137 H 0.24378 0.32841 0.67861 0.0
C138 C 0.22279 0.3329 0.70773 0.0
C139 C 0.17567 0.29829 0.71892 0.0
C140 C 0.1485 0.30357 0.75644 0.0
C141 C 0.13962 0.34449 0.82572 0.0
H142 H 0.11192 0.27634 0.7643 0.0
C143 C 0.13992 0.3926 0.84145 0.0
C144 C 0.11323 0.39231 0.88234 0.0
C145 C 0.11097 0.29585 0.85034 0.0
H146 H 0.11118 0.25807 0.84057 0.0
C147 C 0.07988 0.29504 0.88675 0.0
H148 H 0.15915 0.42913 0.82022 0.0
C149 C 0.07958 0.34244 0.90143 0.0
H150 H 0.05228 0.33901 0.92812 0.0
H151 H 0.05552 0.25738 0.90361 0.0
Zn152 Zn 0.05959 0.05733 0.55397 0.0
Zn153 Zn 0.948 0.02744 0.47013 0.0
C154 C 0.11014 0.1453 0.59748 0.0
O155 O 0.14697 0.14101 0.57337 0.0
C156 C 0.90948 0.92795 0.43097 0.0
O157 O 0.878 0.91044 0.46642 0.0
O158 O 0.10964 0.02217 0.56589 0.0
O159 O 0.99447 0.00388 0.57334 0.0
O160 O 0.93188 0.98511 0.53278 0.0
C161 C 0.10882 -0.00254 0.60418 0.0
O162 O 0.07472 -0.00591 0.63549 0.0
O163 O 0.06792 0.1147 0.59387 0.0
C164 C 0.89646 0.09239 0.42203 0.0
O165 O 0.92901 0.09785 0.38864 0.0
O166 O 0.89802 0.06563 0.45905 0.0
O167 O 0.01644 0.07248 0.44707 0.0
O168 O 0.0768 0.08802 0.49017 0.0
O169 O 0.9403 0.97415 0.4272 0.0
C170 C 0.95103 0.97805 0.56858 0.0
C171 C 0.06077 0.09296 0.45261 0.0
Zn172 Zn 0.52091 0.98602 0.01993 0.0
Zn173 Zn 0.49245 0.08462 0.1171 0.0
C174 C 0.44785 0.93914 0.96204 0.0
O175 O 0.43235 0.9022 0.99678 0.0
C176 C 0.58049 0.13299 0.15774 0.0
O177 O 0.59065 0.16741 0.1213 0.0
O178 O 0.57584 0.95696 0.00631 0.0
O179 O 0.54678 0.05821 0.04137 0.0
O180 O 0.52633 0.12612 0.05705 0.0
C181 C 0.59357 0.96426 0.96586 0.0
O182 O 0.57887 -0.00571 0.93666 0.0
O183 O 0.48347 0.98086 0.96464 0.0
C184 C 0.40086 0.09094 0.1661 0.0
O185 O 0.39047 0.04015 0.1807 0.0
O186 O 0.43892 0.11449 0.1395 0.0
O187 O 0.47497 0.00602 0.1099 0.0
O188 O 0.47743 0.93942 0.07316 0.0
O189 O 0.54059 0.09502 0.16346 0.0
C190 C 0.54448 0.1041 0.02859 0.0
C191 C 0.46299 0.95627 0.10747 0.0
Zn192 Zn 0.56114 0.5505 0.5263 0.0
Zn193 Zn 0.50625 0.60842 0.60863 0.0
C194 C 0.6289 0.65312 0.49013 0.0
O195 O 0.59425 0.67266 0.49859 0.0
C196 C 0.42684 0.53625 0.66931 0.0
O197 O 0.44233 0.57253 0.69597 0.0
O198 O 0.57136 0.48934 0.49788 0.0
O199 O 0.55017 0.52117 0.5897 0.0
O200 O 0.56736 0.59287 0.62381 0.0
C201 C 0.60579 0.47525 0.51265 0.0
O202 O 0.63019 0.50032 0.54329 0.0
O203 O 0.62516 0.60677 0.5082 0.0
C204 C 0.4645 0.68647 0.63319 0.0
O205 O 0.44262 0.67467 0.59722 0.0
O206 O 0.49596 0.66522 0.64435 0.0
O207 O 0.49422 0.62933 0.54519 0.0
O208 O 0.50847 0.5736 0.50048 0.0
O209 O 0.45018 0.54136 0.63139 0.0
C210 C 0.56825 0.54597 0.62112 0.0
C211 C 0.49041 0.6095 0.50865 0.0
Zn212 Zn 0.98431 0.6054 0.94959 0.0
Zn213 Zn 0.07754 0.57415 0.04627 0.0
C214 C 0.91881 0.51124 0.92022 0.0
O215 O 0.95789 0.50938 0.89816 0.0
C216 C 0.14232 0.64059 0.09302 0.0
O217 O 0.10379 0.61846 0.12148 0.0
O218 O 0.97745 0.67173 0.91542 0.0
O219 O 0.99085 0.61004 0.01682 0.0
O220 O 0.02712 0.59821 0.07712 0.0
C221 C 0.94237 0.68657 0.92827 0.0
O222 O 0.91551 0.66207 0.96543 0.0
O223 O 0.9215 0.54739 0.94514 0.0
C224 C 0.11076 0.48438 0.06236 0.0
O225 O 0.13365 0.5051 0.02272 0.0
O226 O 0.07991 0.50378 0.07806 0.0
O227 O 0.06169 0.57674 0.98314 0.0
O228 O 0.03573 0.58134 0.91805 0.0
O229 O 0.14137 0.62847 0.05353 0.0
C230 C 0.99497 0.61287 0.05839 0.0
C231 C 0.06179 0.56483 0.94377 0.0
C232 C 0.134 0.10043 0.34232 0.0
C233 C 0.16833 0.15224 0.33946 0.0
C234 C 0.12886 0.16674 0.40859 0.0
C235 C 0.09659 0.11392 0.41292 0.0
N236 N 0.07755 0.02572 0.39071 0.0
N237 N 0.20658 0.22822 0.37689 0.0
C238 C 0.10182 0.07924 0.38182 0.0
C239 C 0.1683 0.18332 0.37494 0.0
N240 N 0.13034 0.07228 0.30679 0.0
N241 N 0.12102 0.20161 0.43567 0.0
H242 H 0.23716 0.24022 0.35391 0.0
H243 H 0.21023 0.2501 0.40377 0.0
H244 H 0.09213 0.19084 0.46046 0.0
H245 H 0.14042 0.24225 0.43075 0.0
H246 H 0.10256 0.03671 0.30563 0.0
H247 H 0.15249 0.0865 0.27692 0.0
H248 H 0.08428 -0.00189 0.37162 0.0
H249 H 0.05424 0.00819 0.41953 0.0
C250 C 0.44604 0.90671 0.84285 0.0
C251 C 0.39599 0.89192 0.83685 0.0
C252 C 0.38316 0.9225 0.90918 0.0
C253 C 0.43077 0.92641 0.91806 0.0
N254 N 0.502 0.90444 0.89737 0.0
N255 N 0.31505 0.87333 0.87316 0.0
C256 C 0.46078 0.91345 0.88609 0.0
C257 C 0.36378 0.89692 0.87221 0.0
N258 N 0.47991 0.91617 0.80739 0.0
N259 N 0.35619 0.94233 0.93621 0.0
H260 H 0.29915 0.84712 0.85103 0.0
H261 H 0.29099 0.87384 0.8997 0.0
H262 H 0.36946 0.96087 0.96368 0.0
H263 H 0.32281 0.9449 0.92853 0.0
H264 H 0.51684 0.92937 0.81072 0.0
H265 H 0.47131 0.91744 0.77445 0.0
H266 H 0.52269 0.89048 0.87569 0.0
H267 H 0.51176 0.90436 0.92992 0.0
C268 C 0.64081 0.51049 0.7123 0.0
C269 C 0.6083 0.46007 0.73114 0.0
C270 C 0.55252 0.46403 0.67618 0.0
C271 C 0.58341 0.51599 0.658 0.0
N272 N 0.66367 0.5805 0.64892 0.0
N273 N 0.54687 0.38013 0.71905 0.0
C274 C 0.62994 0.53679 0.67286 0.0
C275 C 0.56922 0.43371 0.70828 0.0
N276 N 0.68088 0.53358 0.7329 0.0
N277 N 0.50588 0.44516 0.66605 0.0
H278 H 0.55905 0.35766 0.74305 0.0
H279 H 0.52032 0.35787 0.70091 0.0
H280 H 0.49004 0.46733 0.64564 0.0
H281 H 0.48113 0.4096 0.6821 0.0
H282 H 0.70366 0.5726 0.72351 0.0
H283 H 0.6904 0.51353 0.76045 0.0
H284 H 0.69946 0.5946 0.65593 0.0
H285 H 0.65691 0.5999 0.61951 0.0
C286 C 0.90913 0.62143 0.15507 0.0
C287 C 0.89512 0.66488 0.13705 0.0
C288 C 0.954 0.68052 0.07162 0.0
C289 C 0.96147 0.63159 0.08592 0.0
N290 N 0.94097 0.55158 0.13922 0.0
N291 N 0.90354 0.73611 0.07781 0.0
C292 C 0.93829 0.60139 0.12746 0.0
C293 C 0.91752 0.69461 0.09522 0.0
N294 N 0.89405 0.59857 0.19827 0.0
N295 N 0.98329 0.71478 0.03686 0.0
H296 H 0.88004 0.75057 0.09566 0.0
H297 H 0.91338 0.75445 0.04494 0.0
H298 H 0.01161 0.70693 0.01981 0.0
H299 H 0.98261 0.75319 0.02761 0.0
H300 H 0.90849 0.57181 0.21485 0.0
H301 H 0.87028 0.60955 0.21893 0.0
H302 H 0.9211 0.52584 0.16702 0.0
H303 H 0.95876 0.53319 0.11885 0.0
C304 C 0.30885 0.16509 0.17479 0.0
C305 C 0.30574 0.17003 0.22126 0.0
C306 C 0.3656 0.12374 0.23123 0.0
C307 C 0.37066 0.1215 0.18445 0.0
N308 N 0.35481 0.15132 0.11062 0.0
N309 N 0.34206 0.16751 0.29052 0.0
C310 C 0.34514 0.14631 0.15589 0.0
C311 C 0.3372 0.15306 0.24859 0.0
N312 N 0.27509 0.17465 0.14903 0.0
N313 N 0.38821 0.09819 0.25942 0.0
H314 H 0.32428 0.19167 0.30344 0.0
H315 H 0.36765 0.16066 0.31055 0.0
H316 H 0.41323 0.08092 0.24836 0.0
H317 H 0.38016 0.0918 0.29398 0.0
H318 H 0.27279 0.16685 0.11609 0.0
H319 H 0.24606 0.185 0.16162 0.0
H320 H 0.34202 0.17505 0.08844 0.0
H321 H 0.3787 0.13537 0.09524 0.0
C322 C 0.17568 0.89782 0.61991 0.0
C323 C 0.20008 0.91626 0.6572 0.0
C324 C 0.1815 -0.00113 0.64256 0.0
C325 C 0.14683 0.97414 0.61442 0.0
N326 N 0.112 0.90096 0.57332 0.0
N327 N 0.2251 0.98523 0.70523 0.0
C328 C 0.1448 0.9242 0.60144 0.0
C329 C 0.20369 0.96761 0.66839 0.0
N330 N 0.18199 0.85503 0.60264 0.0
N331 N 0.19366 0.05236 0.64389 0.0
H332 H 0.24108 0.96342 0.72591 0.0
H333 H 0.22366 0.01994 0.71719 0.0
H334 H 0.17975 0.07612 0.62284 0.0
H335 H 0.22148 0.07352 0.66135 0.0
H336 H 0.16821 0.84222 0.57335 0.0
H337 H 0.20523 0.83585 0.61537 0.0
H338 H 0.10514 0.86188 0.56668 0.0
H339 H 0.0898 0.92006 0.55838 0.0
C340 C 0.81493 0.43214 0.86043 0.0
C341 C 0.78057 0.40451 0.89711 0.0
C342 C 0.83899 0.44297 0.94886 0.0
C343 C 0.87131 0.47463 0.9124 0.0
N344 N 0.88392 0.51028 0.83419 0.0
N345 N 0.75498 0.40146 0.97502 0.0
C346 C 0.85768 0.47236 0.86824 0.0
C347 C 0.79117 0.41455 0.94117 0.0
N348 N 0.80707 0.41976 0.81827 0.0
N349 N 0.85375 0.43953 0.9907 0.0
H350 H 0.71873 0.38817 0.96925 0.0
H351 H 0.76074 0.41126 0.00714 0.0
H352 H 0.88885 0.45932 0.99762 0.0
H353 H 0.8323 0.41287 0.01739 0.0
H354 H 0.8329 0.43586 0.79096 0.0
H355 H 0.77656 0.38974 0.8114 0.0
H356 H 0.87248 0.51368 0.8024 0.0
H357 H 0.91425 0.54192 0.83889 0.0
C358 C 0.72285 0.74193 0.39925 0.0
C359 C 0.72642 0.70378 0.37071 0.0
C360 C 0.65358 0.64059 0.41283 0.0
C361 C 0.65986 0.67318 0.44764 0.0
N362 N 0.70392 0.7545 0.47522 0.0
N363 N 0.69509 0.61261 0.35421 0.0
C364 C 0.69525 0.72404 0.44119 0.0
C365 C 0.69124 0.65204 0.37792 0.0
N366 N 0.74522 0.79515 0.38598 0.0
N367 N 0.61177 0.59912 0.41301 0.0
H368 H 0.72538 0.61601 0.33303 0.0
H369 H 0.67028 0.57424 0.3592 0.0
H370 H 0.58294 0.59062 0.43753 0.0
H371 H 0.60371 0.5773 0.38624 0.0
H372 H 0.74135 0.82434 0.40478 0.0
H373 H 0.76295 0.80987 0.35403 0.0
H374 H 0.73319 0.78959 0.47311 0.0
H375 H 0.68433 0.74232 0.5066 0.0
C376 C 0.20121 0.43769 0.12533 0.0
C377 C 0.17075 0.39188 0.15287 0.0
C378 C 0.10094 0.40039 0.11543 0.0
C379 C 0.13073 0.45072 0.09272 0.0
N380 N 0.20773 0.52137 0.08296 0.0
N381 N 0.09241 0.32631 0.17354 0.0
C382 C 0.18061 0.47009 0.09901 0.0
C383 C 0.12077 0.37178 0.14738 0.0
N384 N 0.25018 0.45059 0.12499 0.0
N385 N 0.05405 0.38022 0.10631 0.0
H386 H 0.1065 0.30406 0.1959 0.0
H387 H 0.05508 0.31104 0.17415 0.0
H388 H 0.03851 0.40089 0.08403 0.0
H389 H 0.03111 0.34215 0.11873 0.0
H390 H 0.27462 0.4806 0.10239 0.0
H391 H 0.2664 0.42754 0.14422 0.0
H392 H 0.24291 0.53913 0.09038 0.0
H393 H 0.19363 0.54829 0.06639 0.0
C394 C 0.64868 0.22326 0.98308 0.0
C395 C 0.63847 0.23471 0.93833 0.0
C396 C 0.5692 0.15151 0.94974 0.0
C397 C 0.58097 0.14043 0.9935 0.0
N398 N 0.64365 0.15387 0.04307 0.0
N399 N 0.59959 0.19775 0.87526 0.0
C400 C 0.62507 0.17199 0.00685 0.0
C401 C 0.60208 0.19486 0.92031 0.0
N402 N 0.67657 0.26207 0.00511 0.0
N403 N 0.52636 0.12179 0.93665 0.0
H404 H 0.62499 0.22709 0.85272 0.0
H405 H 0.57586 0.16782 0.86036 0.0
H406 H 0.50241 0.08902 0.95725 0.0
H407 H 0.51373 0.13174 0.9066 0.0
H408 H 0.68139 0.2556 0.03884 0.0
H409 H 0.68906 0.30196 0.99202 0.0
H410 H 0.67779 0.17415 0.05197 0.0
H411 H 0.62714 0.11611 0.06105 0.0
C412 C 0.88749 0.86867 0.32287 0.0
C413 C 0.89125 0.81755 0.33584 0.0
C414 C 0.91913 0.84447 0.40704 0.0
C415 C 0.91026 0.89331 0.39604 0.0
N416 N 0.90201 0.95914 0.33848 0.0
N417 N 0.9249 0.76278 0.3819 0.0
C418 C 0.90035 0.90805 0.35211 0.0
C419 C 0.91295 0.80816 0.37496 0.0
N420 N 0.86711 0.87801 0.28474 0.0
N421 N 0.93206 0.83235 0.44846 0.0
H422 H 0.91966 0.73604 0.35835 0.0
H423 H 0.94311 0.75381 0.40848 0.0
H424 H 0.93983 0.85948 0.47162 0.0
H425 H 0.9338 0.79512 0.46051 0.0
H426 H 0.85544 0.91064 0.27755 0.0
H427 H 0.86022 0.85226 0.26065 0.0
H428 H 0.90087 0.97349 0.30534 0.0
H429 H 0.9085 0.98879 0.35924 0.0
C430 C 0.3839 0.72238 0.71878 0.0
C431 C 0.40786 0.77787 0.71664 0.0
C432 C 0.4737 0.77121 0.66623 0.0
C433 C 0.44661 0.71722 0.66393 0.0
N434 N 0.37278 0.64285 0.68332 0.0
N435 N 0.47275 0.8571 0.68474 0.0
C436 C 0.40087 0.6931 0.68902 0.0
C437 C 0.45233 0.80284 0.68975 0.0
N438 N 0.34522 0.69762 0.74973 0.0
N439 N 0.51956 0.79236 0.64551 0.0
H440 H 0.45827 0.88163 0.7014 0.0
H441 H 0.50201 0.87831 0.66163 0.0
H442 H 0.53557 0.77088 0.6266 0.0
H443 H 0.54298 0.82973 0.64971 0.0
H444 H 0.32921 0.65639 0.75614 0.0
H445 H 0.33197 0.71808 0.77204 0.0
H446 H 0.33703 0.6256 0.69684 0.0
H447 H 0.38371 0.61967 0.66213 0.0
C448 C 0.89937 0.86086 0.6614 0.0
C449 C 0.87551 0.88386 0.6917 0.0
C450 C 0.89158 0.96243 0.63541 0.0
C451 C 0.92115 0.94281 0.60821 0.0
N452 N 0.95965 0.87682 0.59858 0.0
N453 N 0.86048 0.96333 0.71083 0.0
C454 C 0.92711 0.89308 0.62225 0.0
C455 C 0.87445 0.93642 0.67951 0.0
N456 N 0.89386 0.8078 0.66879 0.0
N457 N 0.8805 0.00654 0.61961 0.0
H458 H 0.85185 0.94804 0.74453 0.0
H459 H 0.8631 0.00332 0.70449 0.0
H460 H 0.89359 0.02785 0.58802 0.0
H461 H 0.85479 0.01891 0.63634 0.0
H462 H 0.90725 0.78824 0.64585 0.0
H463 H 0.87155 0.78211 0.69551 0.0
H464 H 0.96975 0.84418 0.61031 0.0
H465 H 0.97904 0.89818 0.56871 0.0
C466 C 0.65531 0.11023 0.25221 0.0
C467 C 0.67054 0.16182 0.26628 0.0
C468 C 0.62488 0.19248 0.2106 0.0
C469 C 0.61244 0.14259 0.19431 0.0
N470 N 0.62521 0.05791 0.19275 0.0
N471 N 0.68252 0.25559 0.24823 0.0
C472 C 0.63074 0.10266 0.21287 0.0
C473 C 0.6599 0.20415 0.24144 0.0
N474 N 0.66143 0.0678 0.27745 0.0
N475 N 0.60079 0.22737 0.19938 0.0
H476 H 0.70927 0.2655 0.27006 0.0
H477 H 0.67829 0.28816 0.22882 0.0
H478 H 0.57251 0.21914 0.17911 0.0
H479 H 0.60514 0.26172 0.21447 0.0
H480 H 0.64626 0.02857 0.27122 0.0
H481 H 0.67855 0.071 0.30658 0.0
H482 H 0.64206 0.03008 0.20214 0.0
H483 H 0.60746 0.05118 0.16399 0.0
C484 C 0.37987 0.5923 0.44607 0.0
C485 C 0.39883 0.63345 0.40982 0.0
C486 C 0.47025 0.67012 0.44914 0.0
C487 C 0.45662 0.62146 0.47832 0.0
N488 N 0.39793 0.53519 0.50486 0.0
N489 N 0.46274 0.71348 0.37678 0.0
C490 C 0.41096 0.58248 0.47729 0.0
C491 C 0.4438 0.67379 0.41168 0.0
N492 N 0.33218 0.56227 0.45 0.0
N493 N 0.50831 0.71235 0.45702 0.0
H494 H 0.44478 0.71777 0.34874 0.0
H495 H 0.49768 0.74037 0.37437 0.0
H496 H 0.52743 0.71093 0.48476 0.0
H497 H 0.51737 0.75023 0.43902 0.0
H498 H 0.31531 0.53436 0.47769 0.0
H499 H 0.30865 0.5696 0.42759 0.0
H500 H 0.36763 0.50291 0.5015 0.0
H501 H 0.41893 0.52689 0.52939 0.0
C502 C 0.13714 0.4953 0.88237 0.0
C503 C 0.11509 0.44216 0.90386 0.0
C504 C 0.06745 0.47319 0.95646 0.0
C505 C 0.08278 0.52426 0.93087 0.0
N506 N 0.13329 0.58513 0.86908 0.0
N507 N 0.09333 0.39853 0.97947 0.0
C508 C 0.11802 0.53579 0.89361 0.0
C509 C 0.09048 0.43627 0.94668 0.0
N510 N 0.18106 0.50906 0.85842 0.0
N511 N 0.02969 0.45855 0.989 0.0
H512 H 0.11559 0.37554 0.9746 0.0
H513 H 0.07809 0.39455 0.01214 0.0
H514 H 0.00983 0.4832 0.99647 0.0
H515 H 0.01539 0.41969 0.00544 0.0
H516 H 0.20058 0.54783 0.84412 0.0
H517 H 0.20153 0.48351 0.86008 0.0
H518 H 0.15457 0.59377 0.83868 0.0
H519 H 0.12242 0.61656 0.87797 0.0
C520 C 0.68206 0.94114 0.88319 0.0
C521 C 0.67119 0.88524 0.89238 0.0
C522 C 0.62182 0.88319 0.96141 0.0
C523 C 0.6287 0.93851 0.94952 0.0
N524 N 0.6807 0.0226 0.91101 0.0
N525 N 0.64492 0.80631 0.9459 0.0
C526 C 0.66411 0.96823 0.91429 0.0
C527 C 0.64584 0.85739 0.93362 0.0
N528 N 0.70734 0.96795 0.84368 0.0
N529 N 0.59089 0.85459 0.99752 0.0
H530 H 0.6623 0.78706 0.92586 0.0
H531 H 0.63106 0.7848 0.97721 0.0
H532 H 0.57583 0.87166 0.02118 0.0
H533 H 0.57944 0.8132 0.00407 0.0
H534 H 0.7111 0.00744 0.83253 0.0
H535 H 0.72252 0.94985 0.82074 0.0
H536 H 0.70911 0.04675 0.88817 0.0
H537 H 0.6694 0.0431 0.9346 0.0
C538 C 0.81903 0.18266 0.40584 0.0
C539 C 0.77767 0.14791 0.38958 0.0
C540 C 0.81385 0.07647 0.39616 0.0
C541 C 0.85415 0.11032 0.41409 0.0
N542 N 0.88992 0.19101 0.4459 0.0
N543 N 0.7298 0.05725 0.38369 0.0
C544 C 0.85499 0.16196 0.42222 0.0
C545 C 0.7734 0.09345 0.38893 0.0
N546 N 0.82527 0.23582 0.40361 0.0
N547 N 0.81431 0.0282 0.38541 0.0
H548 H 0.69849 0.06746 0.38182 0.0
H549 H 0.72345 0.01632 0.38658 0.0
H550 H 0.84203 0.01298 0.39233 0.0
H551 H 0.78877 0.00501 0.36693 0.0
H552 H 0.85679 0.26387 0.41092 0.0
H553 H 0.80056 0.25272 0.39085 0.0
H554 H 0.88957 0.22643 0.45715 0.0
H555 H 0.91692 0.17714 0.45776 0.0
C556 C 0.25438 0.66265 0.14663 0.0
C557 C 0.24586 0.69354 0.1796 0.0
C558 C 0.1807 0.70967 0.1397 0.0
C559 C 0.18629 0.67413 0.11014 0.0
N560 N 0.24363 0.64406 0.0708 0.0
N561 N 0.20411 0.75052 0.2066 0.0
C562 C 0.22766 0.65847 0.10906 0.0
C563 C 0.21027 0.71901 0.17549 0.0
N564 N 0.2875 0.63685 0.15129 0.0
N565 N 0.1476 0.73493 0.13219 0.0
H566 H 0.22407 0.75634 0.23412 0.0
H567 H 0.17826 0.76949 0.20658 0.0
H568 H 0.12772 0.72954 0.10453 0.0
H569 H 0.14202 0.76345 0.15069 0.0
H570 H 0.29106 0.60933 0.13052 0.0
H571 H 0.30892 0.63975 0.17776 0.0
H572 H 0.27662 0.63747 0.06658 0.0
H573 H 0.22658 0.64509 0.04164 0.0
C574 C 0.29635 0.44546 0.67301 0.0
C575 C 0.29012 0.41547 0.71597 0.0
C576 C 0.37531 0.46091 0.72616 0.0
C577 C 0.38116 0.49131 0.68339 0.0
N578 N 0.34985 0.50578 0.61263 0.0
N579 N 0.32242 0.39408 0.78416 0.0
C580 C 0.34268 0.48108 0.65562 0.0
C581 C 0.32931 0.42311 0.7428 0.0
N582 N 0.25695 0.44341 0.65031 0.0
N583 N 0.41479 0.46585 0.7494 0.0
H584 H 0.2912 0.3622 0.79545 0.0
H585 H 0.34673 0.40192 0.80815 0.0
H586 H 0.44955 0.49002 0.73673 0.0
H587 H 0.4146 0.44353 0.77972 0.0
H588 H 0.25806 0.46812 0.62099 0.0
H589 H 0.22172 0.42079 0.66281 0.0
H590 H 0.3267 0.49219 0.5885 0.0
H591 H 0.37981 0.53841 0.60001 0.0
C592 C 0.91779 0.80351 0.86203 0.0
C593 C 0.88 0.77571 0.83756 0.0
C594 C 0.88559 0.68991 0.87059 0.0
C595 C 0.92277 0.71777 0.89564 0.0
N596 N 0.98029 0.79976 0.91037 0.0
N597 N 0.82691 0.69335 0.81797 0.0
C598 C 0.94069 0.77428 0.88989 0.0
C599 C 0.8638 0.71908 0.84155 0.0
N600 N 0.93005 0.85765 0.86019 0.0
N601 N 0.87262 0.63554 0.87342 0.0
H602 H 0.81259 0.71319 0.79387 0.0
H603 H 0.8091 0.65247 0.82265 0.0
H604 H 0.88777 0.61288 0.89421 0.0
H605 H 0.84879 0.61226 0.85379 0.0
H606 H 0.95363 0.88015 0.88049 0.0
H607 H 0.91417 0.88023 0.84008 0.0
H608 H 0.99861 0.84055 0.9042 0.0
H609 H 0.9971 0.77936 0.9316 0.0
C610 C 0.43628 0.83631 0.19469 0.0
C611 C 0.38916 0.83159 0.21275 0.0
C612 C 0.39239 0.91261 0.16501 0.0
C613 C 0.43941 0.91758 0.14722 0.0
N614 N 0.51194 0.89516 0.15591 0.0
N615 N 0.32987 0.87429 0.22635 0.0
C616 C 0.4634 0.88317 0.16586 0.0
C617 C 0.37045 0.87377 0.20229 0.0
N618 N 0.45384 0.79485 0.2017 0.0
N619 N 0.36709 0.9415 0.14418 0.0
H620 H 0.31306 0.84546 0.25361 0.0
H621 H 0.31608 0.9057 0.22188 0.0
H622 H 0.38159 0.9695 0.11595 0.0
H623 H 0.33058 0.93466 0.15291 0.0
H624 H 0.48541 0.79427 0.18452 0.0
H625 H 0.43561 0.75944 0.22225 0.0
H626 H 0.53188 0.87386 0.17178 0.0
H627 H 0.53298 0.92971 0.13534 0.0
C628 C 0.12776 0.26903 0.65496 0.0
C629 C 0.15396 0.25711 0.69028 0.0
C630 C 0.13728 0.16666 0.67168 0.0
C631 C 0.11873 0.18142 0.63208 0.0
N632 N 0.09316 0.24463 0.5861 0.0
N633 N 0.18595 0.1959 0.73177 0.0
C634 C 0.11246 0.2319 0.62398 0.0
C635 C 0.1592 0.20617 0.69867 0.0
N636 N 0.11739 0.31562 0.65138 0.0
N637 N 0.13176 0.11432 0.68445 0.0
H638 H 0.20123 0.22334 0.75331 0.0
H639 H 0.19573 0.16162 0.73593 0.0
H640 H 0.11295 0.0843 0.66656 0.0
H641 H 0.1409 0.1001 0.71488 0.0
H642 H 0.09431 0.32446 0.62936 0.0
H643 H 0.12936 0.34439 0.67266 0.0
H644 H 0.09197 0.28253 0.57561 0.0
H645 H 0.07985 0.21737 0.56386 0.0
C646 C 0.64827 0.3918 0.4353 0.0
C647 C 0.63435 0.34232 0.46335 0.0
C648 C 0.6089 0.38228 0.52539 0.0
C649 C 0.61844 0.43057 0.49635 0.0
N650 N 0.65579 0.486 0.42737 0.0
N651 N 0.61778 0.29458 0.53729 0.0
C652 C 0.64122 0.43691 0.4524 0.0
C653 C 0.62039 0.33928 0.50934 0.0
N654 N 0.66733 0.39489 0.39239 0.0
N655 N 0.5861 0.37639 0.5673 0.0
H656 H 0.6266 0.26299 0.5258 0.0
H657 H 0.6116 0.29083 0.57189 0.0
H658 H 0.57684 0.40686 0.58031 0.0
H659 H 0.57327 0.3403 0.58824 0.0
H660 H 0.6772 0.42879 0.36894 0.0
H661 H 0.6741 0.36271 0.38007 0.0
H662 H 0.67361 0.49442 0.39546 0.0
H663 H 0.65191 0.51968 0.43952 0.0
loop_
_geom_bond_atom_site_label_1
_geom_bond_atom_site_label_2
_geom_bond_distance
_geom_bond_site_symmetry_2
_ccdc_geom_bond_type
H0 C1 0.949 . S
C1 H0 0.949 . S
C1 C2 1.395 . S
C1 C3 1.391 . S
C2 C1 1.395 . S
C2 C5 1.390 . S
C3 C1 1.391 . S
C3 C7 1.387 . S
C3 C8 1.491 . S
H4 C5 0.950 . S
C5 C2 1.390 . S
C5 H4 0.950 . S
C5 C6 1.378 . S
C6 C5 1.378 . S
C6 C7 1.409 . S
C7 C3 1.387 . S
C7 C6 1.409 . S
C7 H9 0.951 . S
C8 C3 1.491 . S
C8 C10 1.382 . S
C8 C12 1.404 . S
H9 C7 0.951 . S
C10 C8 1.382 . S
C10 C11 1.390 . S
C10 H15 0.949 . S
C11 C10 1.390 . S
C11 C16 1.399 . S
C12 C8 1.404 . S
C12 H13 0.950 . S
C12 C14 1.375 . S
H13 C12 0.950 . S
C14 C12 1.375 . S
C14 C16 1.382 . S
C14 H18 0.950 . S
H15 C10 0.949 . S
C16 C11 1.399 . S
C16 C14 1.382 . S
C16 H17 0.952 . S
H17 C16 0.952 . S
H18 C14 0.950 . S
H19 C20 0.949 . S
C20 H19 0.949 . S
C20 C21 1.395 . S
C20 C22 1.391 . S
C21 C20 1.395 . S
C21 C24 1.390 . S
C22 C20 1.391 . S
C22 C26 1.387 . S
C22 C27 1.491 . S
H23 C24 0.950 . S
C24 C21 1.390 . S
C24 H23 0.950 . S
C24 C25 1.378 . S
C25 C24 1.378 . S
C25 C26 1.409 . S
C26 C22 1.387 . S
C26 C25 1.409 . S
C26 H28 0.951 . S
C27 C22 1.491 . S
C27 C29 1.382 . S
C27 C31 1.404 . S
H28 C26 0.951 . S
C29 C27 1.382 . S
C29 C30 1.390 . S
C29 H34 0.949 . S
C30 C29 1.390 . S
C30 C35 1.399 . S
C31 C27 1.404 . S
C31 H32 0.950 . S
C31 C33 1.375 . S
H32 C31 0.950 . S
C33 C31 1.375 . S
C33 C35 1.382 . S
C33 H37 0.950 . S
H34 C29 0.949 . S
C35 C30 1.399 . S
C35 C33 1.382 . S
C35 H36 0.952 . S
H36 C35 0.952 . S
H37 C33 0.950 . S
H38 C39 0.949 . S
C39 H38 0.949 . S
C39 C40 1.395 . S
C39 C41 1.391 . S
C40 C39 1.395 . S
C40 C43 1.390 . S
C41 C39 1.391 . S
C41 C45 1.387 . S
C41 C46 1.491 . S
H42 C43 0.950 . S
C43 C40 1.390 . S
C43 H42 0.950 . S
C43 C44 1.378 . S
C44 C43 1.378 . S
C44 C45 1.409 . S
C45 C41 1.387 . S
C45 C44 1.409 . S
C45 H47 0.951 . S
C46 C41 1.491 . S
C46 C48 1.382 . S
C46 C50 1.404 . S
H47 C45 0.951 . S
C48 C46 1.382 . S
C48 C49 1.390 . S
C48 H53 0.949 . S
C49 C48 1.390 . S
C49 C54 1.399 . S
C50 C46 1.404 . S
C50 H51 0.950 . S
C50 C52 1.375 . S
H51 C50 0.950 . S
C52 C50 1.375 . S
C52 C54 1.382 . S
C52 H56 0.950 . S
H53 C48 0.949 . S
C54 C49 1.399 . S
C54 C52 1.382 . S
C54 H55 0.952 . S
H55 C54 0.952 . S
H56 C52 0.950 . S
H57 C58 0.949 . S
C58 H57 0.949 . S
C58 C59 1.395 . S
C58 C60 1.391 . S
C59 C58 1.395 . S
C59 C62 1.390 . S
C60 C58 1.391 . S
C60 C64 1.387 . S
C60 C65 1.491 . S
H61 C62 0.950 . S
C62 C59 1.390 . S
C62 H61 0.950 . S
C62 C63 1.378 . S
C63 C62 1.378 . S
C63 C64 1.409 . S
C64 C60 1.387 . S
C64 C63 1.409 . S
C64 H66 0.951 . S
C65 C60 1.491 . S
C65 C67 1.382 . S
C65 C69 1.404 . S
H66 C64 0.951 . S
C67 C65 1.382 . S
C67 C68 1.390 . S
C67 H72 0.949 . S
C68 C67 1.390 . S
C68 C73 1.399 . S
C69 C65 1.404 . S
C69 H70 0.950 . S
C69 C71 1.375 . S
H70 C69 0.950 . S
C71 C69 1.375 . S
C71 C73 1.382 . S
C71 H75 0.950 . S
H72 C67 0.949 . S
C73 C68 1.399 . S
C73 C71 1.382 . S
C73 H74 0.952 . S
H74 C73 0.952 . S
H75 C71 0.950 . S
H76 C77 0.949 . S
C77 H76 0.949 . S
C77 C78 1.395 . S
C77 C79 1.391 . S
C78 C77 1.395 . S
C78 C81 1.390 . S
C79 C77 1.391 . S
C79 C83 1.387 . S
C79 C84 1.491 . S
H80 C81 0.950 . S
C81 C78 1.390 . S
C81 H80 0.950 . S
C81 C82 1.378 . S
C82 C81 1.378 . S
C82 C83 1.409 . S
C83 C79 1.387 . S
C83 C82 1.409 . S
C83 H85 0.951 . S
C84 C79 1.491 . S
C84 C86 1.382 . S
C84 C88 1.404 . S
H85 C83 0.951 . S
C86 C84 1.382 . S
C86 C87 1.390 . S
C86 H91 0.949 . S
C87 C86 1.390 . S
C87 C92 1.399 . S
C88 C84 1.404 . S
C88 H89 0.950 . S
C88 C90 1.375 . S
H89 C88 0.950 . S
C90 C88 1.375 . S
C90 C92 1.382 . S
C90 H94 0.950 . S
H91 C86 0.949 . S
C92 C87 1.399 . S
C92 C90 1.382 . S
C92 H93 0.952 . S
H93 C92 0.952 . S
H94 C90 0.950 . S
H95 C96 0.949 . S
C96 H95 0.949 . S
C96 C97 1.395 . S
C96 C98 1.391 . S
C97 C96 1.395 . S
C97 C100 1.390 . S
C98 C96 1.391 . S
C98 C102 1.387 . S
C98 C103 1.491 . S
H99 C100 0.950 . S
C100 C97 1.390 . S
C100 H99 0.950 . S
C100 C101 1.378 . S
C101 C100 1.378 . S
C101 C102 1.409 . S
C102 C98 1.387 . S
C102 C101 1.409 . S
C102 H104 0.951 . S
C103 C98 1.491 . S
C103 C105 1.382 . S
C103 C107 1.404 . S
H104 C102 0.951 . S
C105 C103 1.382 . S
C105 C106 1.390 . S
C105 H110 0.949 . S
C106 C105 1.390 . S
C106 C111 1.399 . S
C107 C103 1.404 . S
C107 H108 0.950 . S
C107 C109 1.375 . S
H108 C107 0.950 . S
C109 C107 1.375 . S
C109 C111 1.382 . S
C109 H113 0.950 . S
H110 C105 0.949 . S
C111 C106 1.399 . S
C111 C109 1.382 . S
C111 H112 0.952 . S
H112 C111 0.952 . S
H113 C109 0.950 . S
H114 C115 0.949 . S
C115 H114 0.949 . S
C115 C116 1.395 . S
C115 C117 1.391 . S
C116 C115 1.395 . S
C116 C119 1.390 . S
C117 C115 1.391 . S
C117 C121 1.387 . S
C117 C122 1.491 . S
H118 C119 0.950 . S
C119 C116 1.390 . S
C119 H118 0.950 . S
C119 C120 1.378 . S
C120 C119 1.378 . S
C120 C121 1.409 . S
C121 C117 1.387 . S
C121 C120 1.409 . S
C121 H123 0.951 . S
C122 C117 1.491 . S
C122 C124 1.382 . S
C122 C126 1.404 . S
H123 C121 0.951 . S
C124 C122 1.382 . S
C124 C125 1.390 . S
C124 H129 0.949 . S
C125 C124 1.390 . S
C125 C130 1.399 . S
C126 C122 1.404 . S
C126 H127 0.950 . S
C126 C128 1.375 . S
H127 C126 0.950 . S
C128 C126 1.375 . S
C128 C130 1.382 . S
C128 H132 0.950 . S
H129 C124 0.949 . S
C130 C125 1.399 . S
C130 C128 1.382 . S
C130 H131 0.952 . S
H131 C130 0.952 . S
H132 C128 0.950 . S
H133 C134 0.949 . S
C134 H133 0.949 . S
C134 C135 1.395 . S
C134 C136 1.391 . S
C135 C134 1.395 . S
C135 C138 1.390 . S
C136 C134 1.391 . S
C136 C140 1.387 . S
C136 C141 1.491 . S
H137 C138 0.950 . S
C138 C135 1.390 . S
C138 H137 0.950 . S
C138 C139 1.378 . S
C139 C138 1.378 . S
C139 C140 1.409 . S
C140 C136 1.387 . S
C140 C139 1.409 . S
C140 H142 0.951 . S
C141 C136 1.491 . S
C141 C143 1.382 . S
C141 C145 1.404 . S
H142 C140 0.951 . S
C143 C141 1.382 . S
C143 C144 1.390 . S
C143 H148 0.949 . S
C144 C143 1.390 . S
C144 C149 1.399 . S
C145 C141 1.404 . S
C145 H146 0.950 . S
C145 C147 1.375 . S
H146 C145 0.950 . S
C147 C145 1.375 . S
C147 C149 1.382 . S
C147 H151 0.950 . S
H148 C143 0.949 . S
C149 C144 1.399 . S
C149 C147 1.382 . S
C149 H150 0.952 . S
H150 C149 0.952 . S
H151 C147 0.950 . S
Zn152 O158 1.969 . S
Zn152 O159 1.965 1_545 S
Zn152 O163 2.024 . S
Zn152 O168 1.969 . S
Zn153 O160 1.969 1_545 S
Zn153 O166 1.969 . S
Zn153 O167 1.965 1_655 S
Zn153 O169 2.024 1_545 S
C154 O155 1.229 . S
C154 O163 1.058 . S
O155 C154 1.229 . S
C156 O157 1.229 . S
C156 O169 1.058 . S
O157 C156 1.229 . S
O158 Zn152 1.969 . S
O158 C161 1.267 1_545 S
O159 Zn152 1.965 1_565 S
O159 C170 1.260 1_455 S
O160 Zn153 1.969 1_565 S
O160 C170 1.258 . S
C161 O158 1.267 1_565 S
C161 O162 1.232 . S
O162 C161 1.232 . S
O163 Zn152 2.024 . S
O163 C154 1.058 . S
C164 O165 1.228 . S
C164 O166 1.267 . S
O165 C164 1.228 . S
O166 Zn153 1.969 . S
O166 C164 1.267 . S
O167 Zn153 1.965 1_455 S
O167 C171 1.260 . S
O168 Zn152 1.969 . S
O168 C171 1.258 . S
O169 Zn153 2.024 1_565 S
O169 C156 1.058 . S
C170 O159 1.260 1_655 S
C170 O160 1.258 . S
C171 O167 1.260 . S
C171 O168 1.258 . S
Zn172 O178 1.969 . S
Zn172 O179 1.965 1_565 S
Zn172 O183 2.024 1_554 S
Zn172 O188 1.969 . S
Zn173 O180 1.969 . S
Zn173 O186 1.969 . S
Zn173 O187 1.965 1_545 S
Zn173 O189 2.024 . S
C174 O175 1.229 . S
C174 O183 1.058 . S
O175 C174 1.229 . S
C176 O177 1.229 . S
C176 O189 1.058 . S
O177 C176 1.229 . S
O178 Zn172 1.969 . S
O178 C181 1.267 1_554 S
O179 Zn172 1.965 1_545 S
O179 C190 1.260 . S
O180 Zn173 1.969 . S
O180 C190 1.258 . S
C181 O178 1.267 1_556 S
C181 O182 1.228 . S
O182 C181 1.228 . S
O183 Zn172 2.024 1_556 S
O183 C174 1.058 . S
C184 O185 1.228 . S
C184 O186 1.267 . S
O185 C184 1.228 . S
O186 Zn173 1.969 . S
O186 C184 1.267 . S
O187 Zn173 1.965 1_565 S
O187 C191 1.260 . S
O188 Zn172 1.969 . S
O188 C191 1.258 . S
O189 Zn173 2.024 . S
O189 C176 1.058 . S
C190 O179 1.260 . S
C190 O180 1.258 . S
C191 O187 1.260 . S
C191 O188 1.258 . S
Zn192 O198 1.969 . S
Zn192 O199 1.965 . S
Zn192 O203 2.024 . S
Zn192 O208 1.969 . S
Zn193 O200 1.969 . S
Zn193 O206 1.969 . S
Zn193 O207 1.965 . S
Zn193 O209 2.024 . S
C194 O195 1.229 . S
C194 O203 1.058 . S
O195 C194 1.229 . S
C196 O197 1.229 . S
C196 O209 1.058 . S
O197 C196 1.229 . S
O198 Zn192 1.969 . S
O198 C201 1.267 . S
O199 Zn192 1.965 . S
O199 C210 1.260 . S
O200 Zn193 1.969 . S
O200 C210 1.258 . S
C201 O198 1.267 . S
C201 O202 1.228 . S
O202 C201 1.228 . S
O203 Zn192 2.024 . S
O203 C194 1.058 . S
C204 O205 1.228 . S
C204 O206 1.267 . S
O205 C204 1.228 . S
O206 Zn193 1.969 . S
O206 C204 1.267 . S
O207 Zn193 1.965 . S
O207 C211 1.260 . S
O208 Zn192 1.969 . S
O208 C211 1.258 . S
O209 Zn193 2.024 . S
O209 C196 1.058 . S
C210 O199 1.260 . S
C210 O200 1.258 . S
C211 O207 1.260 . S
C211 O208 1.258 . S
Zn212 O218 1.971 1_655 S
Zn212 O219 1.965 1_656 S
Zn212 O223 2.024 . S
Zn212 O228 1.969 1_655 S
Zn213 O220 1.969 . S
Zn213 O226 1.969 . S
Zn213 O227 1.965 1_554 S
Zn213 O229 2.024 . S
C214 O215 1.229 . S
C214 O223 1.058 . S
O215 C214 1.229 . S
C216 O217 1.229 . S
C216 O229 1.058 . S
O217 C216 1.229 . S
O218 Zn212 1.971 1_455 S
O218 C221 1.246 1_455 S
O219 Zn212 1.965 1_454 S
O219 C230 1.260 . S
O220 Zn213 1.969 . S
O220 C230 1.279 . S
C221 O218 1.246 1_655 S
C221 O222 1.228 . S
O222 C221 1.228 . S
O223 Zn212 2.024 . S
O223 C214 1.058 . S
C224 O225 1.228 . S
C224 O226 1.267 . S
O225 C224 1.228 . S
O226 Zn213 1.969 . S
O226 C224 1.267 . S
O227 Zn213 1.965 1_556 S
O227 C231 1.260 . S
O228 Zn212 1.969 1_455 S
O228 C231 1.258 . S
O229 Zn213 2.024 . S
O229 C216 1.058 . S
C230 O219 1.260 . S
C230 O220 1.279 . S
C231 O227 1.260 . S
C231 O228 1.258 . S
C232 C233 1.363 . S
C232 C238 1.379 . S
C232 N240 1.356 . S
C233 C232 1.363 . S
C233 C239 1.363 . S
C234 C235 1.363 . S
C234 C239 1.379 . S
C234 N241 1.356 . S
C235 C234 1.363 . S
C235 C238 1.363 . S
N236 C238 1.356 . S
N236 H248 0.984 . S
N236 H249 0.985 . S
N237 C239 1.356 . S
N237 H242 0.984 . S
N237 H243 0.985 . S
C238 C232 1.379 . S
C238 C235 1.363 . S
C238 N236 1.356 . S
C239 C233 1.363 . S
C239 C234 1.379 . S
C239 N237 1.356 . S
N240 C232 1.356 . S
N240 H246 0.984 . S
N240 H247 0.984 . S
N241 C234 1.356 . S
N241 H244 0.984 . S
N241 H245 0.985 . S
H242 N237 0.984 . S
H243 N237 0.985 . S
H244 N241 0.984 . S
H245 N241 0.985 . S
H246 N240 0.984 . S
H247 N240 0.984 . S
H248 N236 0.984 . S
H249 N236 0.985 . S
C250 C251 1.363 . S
C250 C256 1.379 . S
C250 N258 1.356 . S
C251 C250 1.363 . S
C251 C257 1.363 . S
C252 C253 1.363 . S
C252 C257 1.379 . S
C252 N259 1.356 . S
C253 C252 1.363 . S
C253 C256 1.363 . S
N254 C256 1.356 . S
N254 H266 0.984 . S
N254 H267 0.985 . S
N255 C257 1.356 . S
N255 H260 0.984 . S
N255 H261 0.985 . S
C256 C250 1.379 . S
C256 C253 1.363 . S
C256 N254 1.356 . S
C257 C251 1.363 . S
C257 C252 1.379 . S
C257 N255 1.356 . S
N258 C250 1.356 . S
N258 H264 0.984 . S
N258 H265 0.984 . S
N259 C252 1.356 . S
N259 H262 0.984 . S
N259 H263 0.985 . S
H260 N255 0.984 . S
H261 N255 0.985 . S
H262 N259 0.984 . S
H263 N259 0.985 . S
H264 N258 0.984 . S
H265 N258 0.984 . S
H266 N254 0.984 . S
H267 N254 0.985 . S
C268 C269 1.363 . S
C268 C274 1.379 . S
C268 N276 1.356 . S
C269 C268 1.363 . S
C269 C275 1.363 . S
C270 C271 1.363 . S
C270 C275 1.379 . S
C270 N277 1.356 . S
C271 C270 1.363 . S
C271 C274 1.363 . S
N272 C274 1.356 . S
N272 H284 0.984 . S
N272 H285 0.985 . S
N273 C275 1.356 . S
N273 H278 0.984 . S
N273 H279 0.985 . S
C274 C268 1.379 . S
C274 C271 1.363 . S
C274 N272 1.356 . S
C275 C269 1.363 . S
C275 C270 1.379 . S
C275 N273 1.356 . S
N276 C268 1.356 . S
N276 H282 0.984 . S
N276 H283 0.984 . S
N277 C270 1.356 . S
N277 H280 0.984 . S
N277 H281 0.985 . S
H278 N273 0.984 . S
H279 N273 0.985 . S
H280 N277 0.984 . S
H281 N277 0.985 . S
H282 N276 0.984 . S
H283 N276 0.984 . S
H284 N272 0.984 . S
H285 N272 0.985 . S
C286 C287 1.363 . S
C286 C292 1.379 . S
C286 N294 1.356 . S
C287 C286 1.363 . S
C287 C293 1.363 . S
C288 C289 1.363 . S
C288 C293 1.379 . S
C288 N295 1.356 . S
C289 C288 1.363 . S
C289 C292 1.363 . S
N290 C292 1.356 . S
N290 H302 0.984 . S
N290 H303 0.985 . S
N291 C293 1.356 . S
N291 H296 0.984 . S
N291 H297 0.985 . S
C292 C286 1.379 . S
C292 C289 1.363 . S
C292 N290 1.356 . S
C293 C287 1.363 . S
C293 C288 1.379 . S
C293 N291 1.356 . S
N294 C286 1.356 . S
N294 H300 0.984 . S
N294 H301 0.984 . S
N295 C288 1.356 . S
N295 H298 0.984 . S
N295 H299 0.985 . S
H296 N291 0.984 . S
H297 N291 0.985 . S
H298 N295 0.984 . S
H299 N295 0.985 . S
H300 N294 0.984 . S
H301 N294 0.984 . S
H302 N290 0.984 . S
H303 N290 0.985 . S
C304 C305 1.363 . S
C304 C310 1.379 . S
C304 N312 1.356 . S
C305 C304 1.363 . S
C305 C311 1.363 . S
C306 C307 1.363 . S
C306 C311 1.379 . S
C306 N313 1.356 . S
C307 C306 1.363 . S
C307 C310 1.363 . S
N308 C310 1.356 . S
N308 H320 0.984 . S
N308 H321 0.985 . S
N309 C311 1.356 . S
N309 H314 0.984 . S
N309 H315 0.985 . S
C310 C304 1.379 . S
C310 C307 1.363 . S
C310 N308 1.356 . S
C311 C305 1.363 . S
C311 C306 1.379 . S
C311 N309 1.356 . S
N312 C304 1.356 . S
N312 H318 0.984 . S
N312 H319 0.984 . S
N313 C306 1.356 . S
N313 H316 0.984 . S
N313 H317 0.985 . S
H314 N309 0.984 . S
H315 N309 0.985 . S
H316 N313 0.984 . S
H317 N313 0.985 . S
H318 N312 0.984 . S
H319 N312 0.984 . S
H320 N308 0.984 . S
H321 N308 0.985 . S
C322 C323 1.363 . S
C322 C328 1.379 . S
C322 N330 1.356 . S
C323 C322 1.363 . S
C323 C329 1.363 . S
C324 C325 1.363 1_545 S
C324 C329 1.379 1_545 S
C324 N331 1.356 . S
C325 C324 1.363 1_565 S
C325 C328 1.363 . S
N326 C328 1.356 . S
N326 H338 0.984 . S
N326 H339 0.985 . S
N327 C329 1.356 1_545 S
N327 H332 0.984 1_545 S
N327 H333 0.985 . S
C328 C322 1.379 . S
C328 C325 1.363 . S
C328 N326 1.356 . S
C329 C323 1.363 . S
C329 C324 1.379 1_565 S
C329 N327 1.356 1_565 S
N330 C322 1.356 . S
N330 H336 0.984 . S
N330 H337 0.984 . S
N331 C324 1.356 . S
N331 H334 0.984 . S
N331 H335 0.985 . S
H332 N327 0.984 1_565 S
H333 N327 0.985 . S
H334 N331 0.984 . S
H335 N331 0.985 . S
H336 N330 0.984 . S
H337 N330 0.984 . S
H338 N326 0.984 . S
H339 N326 0.985 . S
C340 C341 1.363 . S
C340 C346 1.379 . S
C340 N348 1.356 . S
C341 C340 1.363 . S
C341 C347 1.363 . S
C342 C343 1.363 . S
C342 C347 1.379 . S
C342 N349 1.356 . S
C343 C342 1.363 . S
C343 C346 1.363 . S
N344 C346 1.356 . S
N344 H356 0.984 . S
N344 H357 0.985 . S
N345 C347 1.356 . S
N345 H350 0.984 . S
N345 H351 0.985 . S
C346 C340 1.379 . S
C346 C343 1.363 . S
C346 N344 1.356 . S
C347 C341 1.363 . S
C347 C342 1.379 . S
C347 N345 1.356 . S
N348 C340 1.356 . S
N348 H354 0.984 . S
N348 H355 0.984 . S
N349 C342 1.356 . S
N349 H352 0.984 . S
N349 H353 0.985 1_556 S
H350 N345 0.984 . S
H351 N345 0.985 . S
H352 N349 0.984 . S
H353 N349 0.985 1_554 S
H354 N348 0.984 . S
H355 N348 0.984 . S
H356 N344 0.984 . S
H357 N344 0.985 . S
C358 C359 1.363 . S
C358 C364 1.379 . S
C358 N366 1.356 . S
C359 C358 1.363 . S
C359 C365 1.363 . S
C360 C361 1.363 . S
C360 C365 1.379 . S
C360 N367 1.356 . S
C361 C360 1.363 . S
C361 C364 1.363 . S
N362 C364 1.356 . S
N362 H374 0.984 . S
N362 H375 0.985 . S
N363 C365 1.356 . S
N363 H368 0.984 . S
N363 H369 0.985 . S
C364 C358 1.379 . S
C364 C361 1.363 . S
C364 N362 1.356 . S
C365 C359 1.363 . S
C365 C360 1.379 . S
C365 N363 1.356 . S
N366 C358 1.356 . S
N366 H372 0.984 . S
N366 H373 0.984 . S
N367 C360 1.356 . S
N367 H370 0.984 . S
N367 H371 0.985 . S
H368 N363 0.984 . S
H369 N363 0.985 . S
H370 N367 0.984 . S
H371 N367 0.985 . S
H372 N366 0.984 . S
H373 N366 0.984 . S
H374 N362 0.984 . S
H375 N362 0.985 . S
C376 C377 1.363 . S
C376 C382 1.379 . S
C376 N384 1.356 . S
C377 C376 1.363 . S
C377 C383 1.363 . S
C378 C379 1.363 . S
C378 C383 1.379 . S
C378 N385 1.356 . S
C379 C378 1.363 . S
C379 C382 1.363 . S
N380 C382 1.356 . S
N380 H392 0.984 . S
N380 H393 0.985 . S
N381 C383 1.356 . S
N381 H386 0.984 . S
N381 H387 0.985 . S
C382 C376 1.379 . S
C382 C379 1.363 . S
C382 N380 1.356 . S
C383 C377 1.363 . S
C383 C378 1.379 . S
C383 N381 1.356 . S
N384 C376 1.356 . S
N384 H390 0.984 . S
N384 H391 0.984 . S
N385 C378 1.356 . S
N385 H388 0.984 . S
N385 H389 0.985 . S
H386 N381 0.984 . S
H387 N381 0.985 . S
H388 N385 0.984 . S
H389 N385 0.985 . S
H390 N384 0.984 . S
H391 N384 0.984 . S
H392 N380 0.984 . S
H393 N380 0.985 . S
C394 C395 1.363 . S
C394 C400 1.379 1_556 S
C394 N402 1.356 . S
C395 C394 1.363 . S
C395 C401 1.363 . S
C396 C397 1.363 . S
C396 C401 1.379 . S
C396 N403 1.356 . S
C397 C396 1.363 . S
C397 C400 1.363 1_556 S
N398 C400 1.356 . S
N398 H410 0.984 . S
N398 H411 0.985 . S
N399 C401 1.356 . S
N399 H404 0.984 . S
N399 H405 0.985 . S
C400 C394 1.379 1_554 S
C400 C397 1.363 1_554 S
C400 N398 1.356 . S
C401 C395 1.363 . S
C401 C396 1.379 . S
C401 N399 1.356 . S
N402 C394 1.356 . S
N402 H408 0.984 1_556 S
N402 H409 0.984 . S
N403 C396 1.356 . S
N403 H406 0.984 . S
N403 H407 0.985 . S
H404 N399 0.984 . S
H405 N399 0.985 . S
H406 N403 0.984 . S
H407 N403 0.985 . S
H408 N402 0.984 1_554 S
H409 N402 0.984 . S
H410 N398 0.984 . S
H411 N398 0.985 . S
C412 C413 1.363 . S
C412 C418 1.379 . S
C412 N420 1.356 . S
C413 C412 1.363 . S
C413 C419 1.363 . S
C414 C415 1.363 . S
C414 C419 1.379 . S
C414 N421 1.356 . S
C415 C414 1.363 . S
C415 C418 1.363 . S
N416 C418 1.356 . S
N416 H428 0.984 . S
N416 H429 0.985 . S
N417 C419 1.356 . S
N417 H422 0.984 . S
N417 H423 0.985 . S
C418 C412 1.379 . S
C418 C415 1.363 . S
C418 N416 1.356 . S
C419 C413 1.363 . S
C419 C414 1.379 . S
C419 N417 1.356 . S
N420 C412 1.356 . S
N420 H426 0.984 . S
N420 H427 0.984 . S
N421 C414 1.356 . S
N421 H424 0.984 . S
N421 H425 0.985 . S
H422 N417 0.984 . S
H423 N417 0.985 . S
H424 N421 0.984 . S
H425 N421 0.985 . S
H426 N420 0.984 . S
H427 N420 0.984 . S
H428 N416 0.984 . S
H429 N416 0.985 . S
C430 C431 1.363 . S
C430 C436 1.379 . S
C430 N438 1.356 . S
C431 C430 1.363 . S
C431 C437 1.363 . S
C432 C433 1.363 . S
C432 C437 1.379 . S
C432 N439 1.356 . S
C433 C432 1.363 . S
C433 C436 1.363 . S
N434 C436 1.356 . S
N434 H446 0.984 . S
N434 H447 0.985 . S
N435 C437 1.356 . S
N435 H440 0.984 . S
N435 H441 0.985 . S
C436 C430 1.379 . S
C436 C433 1.363 . S
C436 N434 1.356 . S
C437 C431 1.363 . S
C437 C432 1.379 . S
C437 N435 1.356 . S
N438 C430 1.356 . S
N438 H444 0.984 . S
N438 H445 0.984 . S
N439 C432 1.356 . S
N439 H442 0.984 . S
N439 H443 0.985 . S
H440 N435 0.984 . S
H441 N435 0.985 . S
H442 N439 0.984 . S
H443 N439 0.985 . S
H444 N438 0.984 . S
H445 N438 0.984 . S
H446 N434 0.984 . S
H447 N434 0.985 . S
C448 C449 1.363 . S
C448 C454 1.379 . S
C448 N456 1.356 . S
C449 C448 1.363 . S
C449 C455 1.363 . S
C450 C451 1.363 . S
C450 C455 1.379 . S
C450 N457 1.356 1_565 S
C451 C450 1.363 . S
C451 C454 1.363 . S
N452 C454 1.356 . S
N452 H464 0.984 . S
N452 H465 0.985 . S
N453 C455 1.356 . S
N453 H458 0.984 . S
N453 H459 0.985 . S
C454 C448 1.379 . S
C454 C451 1.363 . S
C454 N452 1.356 . S
C455 C449 1.363 . S
C455 C450 1.379 . S
C455 N453 1.356 . S
N456 C448 1.356 . S
N456 H462 0.984 . S
N456 H463 0.984 . S
N457 C450 1.356 1_545 S
N457 H460 0.984 . S
N457 H461 0.985 . S
H458 N453 0.984 . S
H459 N453 0.985 . S
H460 N457 0.984 . S
H461 N457 0.985 . S
H462 N456 0.984 . S
H463 N456 0.984 . S
H464 N452 0.984 . S
H465 N452 0.985 . S
C466 C467 1.363 . S
C466 C472 1.379 . S
C466 N474 1.356 . S
C467 C466 1.363 . S
C467 C473 1.363 . S
C468 C469 1.363 . S
C468 C473 1.379 . S
C468 N475 1.356 . S
C469 C468 1.363 . S
C469 C472 1.363 . S
N470 C472 1.356 . S
N470 H482 0.984 . S
N470 H483 0.985 . S
N471 C473 1.356 . S
N471 H476 0.984 . S
N471 H477 0.985 . S
C472 C466 1.379 . S
C472 C469 1.363 . S
C472 N470 1.356 . S
C473 C467 1.363 . S
C473 C468 1.379 . S
C473 N471 1.356 . S
N474 C466 1.356 . S
N474 H480 0.984 . S
N474 H481 0.984 . S
N475 C468 1.356 . S
N475 H478 0.984 . S
N475 H479 0.985 . S
H476 N471 0.984 . S
H477 N471 0.985 . S
H478 N475 0.984 . S
H479 N475 0.985 . S
H480 N474 0.984 . S
H481 N474 0.984 . S
H482 N470 0.984 . S
H483 N470 0.985 . S
C484 C485 1.363 . S
C484 C490 1.379 . S
C484 N492 1.356 . S
C485 C484 1.363 . S
C485 C491 1.363 . S
C486 C487 1.363 . S
C486 C491 1.379 . S
C486 N493 1.356 . S
C487 C486 1.363 . S
C487 C490 1.363 . S
N488 C490 1.356 . S
N488 H500 0.984 . S
N488 H501 0.985 . S
N489 C491 1.356 . S
N489 H494 0.984 . S
N489 H495 0.985 . S
C490 C484 1.379 . S
C490 C487 1.363 . S
C490 N488 1.356 . S
C491 C485 1.363 . S
C491 C486 1.379 . S
C491 N489 1.356 . S
N492 C484 1.356 . S
N492 H498 0.984 . S
N492 H499 0.984 . S
N493 C486 1.356 . S
N493 H496 0.984 . S
N493 H497 0.985 . S
H494 N489 0.984 . S
H495 N489 0.985 . S
H496 N493 0.984 . S
H497 N493 0.985 . S
H498 N492 0.984 . S
H499 N492 0.984 . S
H500 N488 0.984 . S
H501 N488 0.985 . S
C502 C503 1.363 . S
C502 C508 1.379 . S
C502 N510 1.356 . S
C503 C502 1.363 . S
C503 C509 1.363 . S
C504 C505 1.363 . S
C504 C509 1.379 . S
C504 N511 1.356 . S
C505 C504 1.363 . S
C505 C508 1.363 . S
N506 C508 1.356 . S
N506 H518 0.984 . S
N506 H519 0.985 . S
N507 C509 1.356 . S
N507 H512 0.984 . S
N507 H513 0.985 . S
C508 C502 1.379 . S
C508 C505 1.363 . S
C508 N506 1.356 . S
C509 C503 1.363 . S
C509 C504 1.379 . S
C509 N507 1.356 . S
N510 C502 1.356 . S
N510 H516 0.984 . S
N510 H517 0.984 . S
N511 C504 1.356 . S
N511 H514 0.984 . S
N511 H515 0.985 1_556 S
H512 N507 0.984 . S
H513 N507 0.985 . S
H514 N511 0.984 . S
H515 N511 0.985 1_554 S
H516 N510 0.984 . S
H517 N510 0.984 . S
H518 N506 0.984 . S
H519 N506 0.985 . S
C520 C521 1.363 . S
C520 C526 1.379 . S
C520 N528 1.356 . S
C521 C520 1.363 . S
C521 C527 1.363 . S
C522 C523 1.363 . S
C522 C527 1.379 . S
C522 N529 1.356 1_556 S
C523 C522 1.363 . S
C523 C526 1.363 . S
N524 C526 1.356 1_545 S
N524 H536 0.984 . S
N524 H537 0.985 . S
N525 C527 1.356 . S
N525 H530 0.984 . S
N525 H531 0.985 . S
C526 C520 1.379 . S
C526 C523 1.363 . S
C526 N524 1.356 1_565 S
C527 C521 1.363 . S
C527 C522 1.379 . S
C527 N525 1.356 . S
N528 C520 1.356 . S
N528 H534 0.984 . S
N528 H535 0.984 . S
N529 C522 1.356 1_554 S
N529 H532 0.984 . S
N529 H533 0.985 . S
H530 N525 0.984 . S
H531 N525 0.985 . S
H532 N529 0.984 . S
H533 N529 0.985 . S
H534 N528 0.984 . S
H535 N528 0.984 . S
H536 N524 0.984 . S
H537 N524 0.985 . S
C538 C539 1.363 . S
C538 C544 1.379 . S
C538 N546 1.356 . S
C539 C538 1.363 . S
C539 C545 1.363 . S
C540 C541 1.363 . S
C540 C545 1.379 . S
C540 N547 1.356 . S
C541 C540 1.363 . S
C541 C544 1.363 . S
N542 C544 1.356 . S
N542 H554 0.984 . S
N542 H555 0.985 . S
N543 C545 1.356 . S
N543 H548 0.984 . S
N543 H549 0.985 . S
C544 C538 1.379 . S
C544 C541 1.363 . S
C544 N542 1.356 . S
C545 C539 1.363 . S
C545 C540 1.379 . S
C545 N543 1.356 . S
N546 C538 1.356 . S
N546 H552 0.984 . S
N546 H553 0.984 . S
N547 C540 1.356 . S
N547 H550 0.984 . S
N547 H551 0.985 . S
H548 N543 0.984 . S
H549 N543 0.985 . S
H550 N547 0.984 . S
H551 N547 0.985 . S
H552 N546 0.984 . S
H553 N546 0.984 . S
H554 N542 0.984 . S
H555 N542 0.985 . S
C556 C557 1.363 . S
C556 C562 1.379 . S
C556 N564 1.356 . S
C557 C556 1.363 . S
C557 C563 1.363 . S
C558 C559 1.363 . S
C558 C563 1.379 . S
C558 N565 1.356 . S
C559 C558 1.363 . S
C559 C562 1.363 . S
N560 C562 1.356 . S
N560 H572 0.984 . S
N560 H573 0.985 . S
N561 C563 1.356 . S
N561 H566 0.984 . S
N561 H567 0.985 . S
C562 C556 1.379 . S
C562 C559 1.363 . S
C562 N560 1.356 . S
C563 C557 1.363 . S
C563 C558 1.379 . S
C563 N561 1.356 . S
N564 C556 1.356 . S
N564 H570 0.984 . S
N564 H571 0.984 . S
N565 C558 1.356 . S
N565 H568 0.984 . S
N565 H569 0.985 . S
H566 N561 0.984 . S
H567 N561 0.985 . S
H568 N565 0.984 . S
H569 N565 0.985 . S
H570 N564 0.984 . S
H571 N564 0.984 . S
H572 N560 0.984 . S
H573 N560 0.985 . S
C574 C575 1.363 . S
C574 C580 1.379 . S
C574 N582 1.356 . S
C575 C574 1.363 . S
C575 C581 1.363 . S
C576 C577 1.363 . S
C576 C581 1.379 . S
C576 N583 1.356 . S
C577 C576 1.363 . S
C577 C580 1.363 . S
N578 C580 1.356 . S
N578 H590 0.984 . S
N578 H591 0.985 . S
N579 C581 1.356 . S
N579 H584 0.984 . S
N579 H585 0.985 . S
C580 C574 1.379 . S
C580 C577 1.363 . S
C580 N578 1.356 . S
C581 C575 1.363 . S
C581 C576 1.379 . S
C581 N579 1.356 . S
N582 C574 1.356 . S
N582 H588 0.984 . S
N582 H589 0.984 . S
N583 C576 1.356 . S
N583 H586 0.984 . S
N583 H587 0.985 . S
H584 N579 0.984 . S
H585 N579 0.985 . S
H586 N583 0.984 . S
H587 N583 0.985 . S
H588 N582 0.984 . S
H589 N582 0.984 . S
H590 N578 0.984 . S
H591 N578 0.985 . S
C592 C593 1.363 . S
C592 C598 1.379 . S
C592 N600 1.356 . S
C593 C592 1.363 . S
C593 C599 1.363 . S
C594 C595 1.363 . S
C594 C599 1.379 . S
C594 N601 1.356 . S
C595 C594 1.363 . S
C595 C598 1.363 . S
N596 C598 1.356 . S
N596 H608 0.984 1_655 S
N596 H609 0.985 1_655 S
N597 C599 1.356 . S
N597 H602 0.984 . S
N597 H603 0.985 . S
C598 C592 1.379 . S
C598 C595 1.363 . S
C598 N596 1.356 . S
C599 C593 1.363 . S
C599 C594 1.379 . S
C599 N597 1.356 . S
N600 C592 1.356 . S
N600 H606 0.984 . S
N600 H607 0.984 . S
N601 C594 1.356 . S
N601 H604 0.984 . S
N601 H605 0.985 . S
H602 N597 0.984 . S
H603 N597 0.985 . S
H604 N601 0.984 . S
H605 N601 0.985 . S
H606 N600 0.984 . S
H607 N600 0.984 . S
H608 N596 0.984 1_455 S
H609 N596 0.985 1_455 S
C610 C611 1.363 . S
C610 C616 1.379 . S
C610 N618 1.356 . S
C611 C610 1.363 . S
C611 C617 1.363 . S
C612 C613 1.363 . S
C612 C617 1.379 . S
C612 N619 1.356 . S
C613 C612 1.363 . S
C613 C616 1.363 . S
N614 C616 1.356 . S
N614 H626 0.984 . S
N614 H627 0.985 . S
N615 C617 1.356 . S
N615 H620 0.984 . S
N615 H621 0.985 . S
C616 C610 1.379 . S
C616 C613 1.363 . S
C616 N614 1.356 . S
C617 C611 1.363 . S
C617 C612 1.379 . S
C617 N615 1.356 . S
N618 C610 1.356 . S
N618 H624 0.984 . S
N618 H625 0.984 . S
N619 C612 1.356 . S
N619 H622 0.984 . S
N619 H623 0.985 . S
H620 N615 0.984 . S
H621 N615 0.985 . S
H622 N619 0.984 . S
H623 N619 0.985 . S
H624 N618 0.984 . S
H625 N618 0.984 . S
H626 N614 0.984 . S
H627 N614 0.985 . S
C628 C629 1.363 . S
C628 C634 1.379 . S
C628 N636 1.356 . S
C629 C628 1.363 . S
C629 C635 1.363 . S
C630 C631 1.363 . S
C630 C635 1.379 . S
C630 N637 1.356 . S
C631 C630 1.363 . S
C631 C634 1.363 . S
N632 C634 1.356 . S
N632 H644 0.984 . S
N632 H645 0.985 . S
N633 C635 1.356 . S
N633 H638 0.984 . S
N633 H639 0.985 . S
C634 C628 1.379 . S
C634 C631 1.363 . S
C634 N632 1.356 . S
C635 C629 1.363 . S
C635 C630 1.379 . S
C635 N633 1.356 . S
N636 C628 1.356 . S
N636 H642 0.984 . S
N636 H643 0.984 . S
N637 C630 1.356 . S
N637 H640 0.984 . S
N637 H641 0.985 . S
H638 N633 0.984 . S
H639 N633 0.985 . S
H640 N637 0.984 . S
H641 N637 0.985 . S
H642 N636 0.984 . S
H643 N636 0.984 . S
H644 N632 0.984 . S
H645 N632 0.985 . S
C646 C647 1.363 . S
C646 C652 1.379 . S
C646 N654 1.356 . S
C647 C646 1.363 . S
C647 C653 1.363 . S
C648 C649 1.363 . S
C648 C653 1.379 . S
C648 N655 1.356 . S
C649 C648 1.363 . S
C649 C652 1.363 . S
N650 C652 1.356 . S
N650 H662 0.984 . S
N650 H663 0.985 . S
N651 C653 1.356 . S
N651 H656 0.984 . S
N651 H657 0.985 . S
C652 C646 1.379 . S
C652 C649 1.363 . S
C652 N650 1.356 . S
C653 C647 1.363 . S
C653 C648 1.379 . S
C653 N651 1.356 . S
N654 C646 1.356 . S
N654 H660 0.984 . S
N654 H661 0.984 . S
N655 C648 1.356 . S
N655 H658 0.984 . S
N655 H659 0.985 . S
H656 N651 0.984 . S
H657 N651 0.985 . S
H658 N655 0.984 . S
H659 N655 0.985 . S
H660 N654 0.984 . S
H661 N654 0.984 . S
H662 N650 0.984 . S
H663 N650 0.985 . S
C233 C6 1.731 . S
C235 C171 1.734 . S
C251 C21 1.656 . S
C253 C174 1.592 . S
C271 C210 1.309 . S
C269 C49 1.221 . S
C287 C68 1.527 . S
C289 C230 1.539 1_655 S
C307 C184 2.193 . S
C305 C2 2.197 . S
C325 C161 1.236 . S
C323 C30 1.178 . S
C343 C214 1.467 . S
C341 C40 1.509 . S
C361 C194 1.279 . S
C359 C63 1.442 . S
C377 C11 1.334 . S
C379 C224 1.361 . S
C397 C190 1.828 1_556 S
C395 C44 1.850 . S
C413 C59 1.395 . S
C415 C156 1.377 . S
C431 C25 1.595 . S
C433 C204 1.510 . S
C451 C170 1.796 . S
C449 C82 1.799 . S
C467 C101 1.476 . S
C469 C176 1.469 . S
C485 C125 1.573 . S
C487 C211 1.674 . S
C503 C144 1.408 . S
C505 C231 1.356 . S
C521 C87 1.432 . S
C523 C181 1.433 . S
C541 C164 2.069 . S
C539 C97 2.042 . S
C559 C216 1.380 . S
C557 C120 1.612 . S
C577 C196 1.350 . S
C575 C135 1.367 . S
C593 C78 1.743 . S
C595 C221 1.606 . S
C613 C191 1.426 . S
C611 C116 1.419 . S
C631 C154 1.740 . S
C629 C139 1.802 . S
C647 C106 1.178 . S
C649 C201 1.279 . S
