# Generated by pormake.
# Topology pto, (3,4)-cn, num edge types: 1
# Building blocks:
#     Node 0, Type 0, BuildingBlock: CUQRIR_clean_linker_1, # of connection points: 3
#     Node 1, Type 0, BuildingBlock: CUQRIR_clean_linker_1, # of connection points: 3
#     Node 2, Type 0, BuildingBlock: CUQRIR_clean_linker_1, # of connection points: 3
#     Node 3, Type 0, BuildingBlock: CUQRIR_clean_linker_1, # of connection points: 3
#     Node 4, Type 0, BuildingBlock: CUQRIR_clean_linker_1, # of connection points: 3
#     Node 5, Type 0, BuildingBlock: CUQRIR_clean_linker_1, # of connection points: 3
#     Node 6, Type 0, BuildingBlock: CUQRIR_clean_linker_1, # of connection points: 3
#     Node 7, Type 0, BuildingBlock: CUQRIR_clean_linker_1, # of connection points: 3
#     Node 8, Type 1, BuildingBlock: NAWXER_clean_sbu_0, # of connection points: 4
#     Node 9, Type 1, BuildingBlock: NAWXER_clean_sbu_0, # of connection points: 4
#     Node 10, Type 1, BuildingBlock: NAWXER_clean_sbu_0, # of connection points: 4
#     Node 11, Type 1, BuildingBlock: NAWXER_clean_sbu_0, # of connection points: 4
#     Node 12, Type 1, BuildingBlock: NAWXER_clean_sbu_0, # of connection points: 4
#     Node 13, Type 1, BuildingBlock: NAWXER_clean_sbu_0, # of connection points: 4
#     Edge 14, Type (0, 1), BuildingBlock: XUDNAN_clean_linker_2, # of connection points: 2
#     Edge 15, Type (0, 1), BuildingBlock: XUDNAN_clean_linker_2, # of connection points: 2
#     Edge 16, Type (0, 1), BuildingBlock: XUDNAN_clean_linker_2, # of connection points: 2
#     Edge 17, Type (0, 1), BuildingBlock: XUDNAN_clean_linker_2, # of connection points: 2
#     Edge 18, Type (0, 1), BuildingBlock: XUDNAN_clean_linker_2, # of connection points: 2
#     Edge 19, Type (0, 1), BuildingBlock: XUDNAN_clean_linker_2, # of connection points: 2
#     Edge 20, Type (0, 1), BuildingBlock: XUDNAN_clean_linker_2, # of connection points: 2
#     Edge 21, Type (0, 1), BuildingBlock: XUDNAN_clean_linker_2, # of connection points: 2
#     Edge 22, Type (0, 1), BuildingBlock: XUDNAN_clean_linker_2, # of connection points: 2
#     Edge 23, Type (0, 1), BuildingBlock: XUDNAN_clean_linker_2, # of connection points: 2
#     Edge 24, Type (0, 1), BuildingBlock: XUDNAN_clean_linker_2, # of connection points: 2
#     Edge 25, Type (0, 1), BuildingBlock: XUDNAN_clean_linker_2, # of connection points: 2
#     Edge 26, Type (0, 1), BuildingBlock: XUDNAN_clean_linker_2, # of connection points: 2
#     Edge 27, Type (0, 1), BuildingBlock: XUDNAN_clean_linker_2, # of connection points: 2
#     Edge 28, Type (0, 1), BuildingBlock: XUDNAN_clean_linker_2, # of connection points: 2
#     Edge 29, Type (0, 1), BuildingBlock: XUDNAN_clean_linker_2, # of connection points: 2
#     Edge 30, Type (0, 1), BuildingBlock: XUDNAN_clean_linker_2, # of connection points: 2
#     Edge 31, Type (0, 1), BuildingBlock: XUDNAN_clean_linker_2, # of connection points: 2
#     Edge 32, Type (0, 1), BuildingBlock: XUDNAN_clean_linker_2, # of connection points: 2
#     Edge 33, Type (0, 1), BuildingBlock: XUDNAN_clean_linker_2, # of connection points: 2
#     Edge 34, Type (0, 1), BuildingBlock: XUDNAN_clean_linker_2, # of connection points: 2
#     Edge 35, Type (0, 1), BuildingBlock: XUDNAN_clean_linker_2, # of connection points: 2
#     Edge 36, Type (0, 1), BuildingBlock: XUDNAN_clean_linker_2, # of connection points: 2
#     Edge 37, Type (0, 1), BuildingBlock: XUDNAN_clean_linker_2, # of connection points: 2
# Relax obj value: 0.020
# Max RMSD: 0.156
# Mean RMSD: 0.074
data_MOF--net-pto--node1-NAWXER_clean_sbu_0--node2-CUQRIR_clean_linker_1--edge1-XUDNAN_clean_linker_2
_symmetry_space_group_name_H-M    P1
_symmetry_Int_Tables_number       1
_symmetry_cell_setting            triclinic
loop_
_symmetry_equiv_pos_as_xyz
'x, y, z'
_cell_length_a     39.459095
_cell_length_b     36.380775
_cell_length_c     34.310277
_cell_angle_alpha  78.73285
_cell_angle_beta   95.586864
_cell_angle_gamma 95.321627
loop_
_atom_site_label
_atom_site_type_symbol
_atom_site_fract_x
_atom_site_fract_y
_atom_site_fract_z
_atom_type_partial_charge
C0 C 0.28188 0.33243 0.21943 0.0
N1 N 0.31026 0.31431 0.21856 0.0
N2 N 0.27536 0.35639 0.18435 0.0
C3 C 0.26359 0.33055 0.25642 0.0
C4 C 0.3009 0.35191 0.16233 0.0
N5 N 0.32241 0.32695 0.18322 0.0
C6 C 0.30459 0.37091 0.1197 0.0
H7 H 0.2407 0.31044 0.25575 0.0
H8 H 0.25521 0.35846 0.25797 0.0
H9 H 0.28018 0.32082 0.28381 0.0
H10 H 0.32245 0.3964 0.11894 0.0
H11 H 0.27958 0.37909 0.10437 0.0
H12 H 0.31556 0.35188 0.10342 0.0
C13 C 0.26826 0.75578 0.74543 0.0
N14 N 0.29981 0.77238 0.75257 0.0
N15 N 0.26332 0.72332 0.77188 0.0
C16 C 0.24287 0.77071 0.71164 0.0
C17 C 0.29296 0.72068 0.79533 0.0
N18 N 0.31528 0.75042 0.78346 0.0
C19 C 0.30029 0.68823 0.82873 0.0
H20 H 0.21991 0.75111 0.70909 0.0
H21 H 0.25525 0.77665 0.68314 0.0
H22 H 0.23441 0.79756 0.71654 0.0
H23 H 0.29134 0.66132 0.81909 0.0
H24 H 0.28582 0.69029 0.85427 0.0
H25 H 0.32783 0.68802 0.83889 0.0
C26 C 0.86677 0.79218 0.26906 0.0
N27 N 0.84897 0.77163 0.24391 0.0
N28 N 0.84599 0.81313 0.28349 0.0
C29 C 0.90444 0.79032 0.28076 0.0
C30 C 0.8148 0.80507 0.26547 0.0
N31 N 0.81663 0.77988 0.24162 0.0
C32 C 0.78193 0.81833 0.2747 0.0
H33 H 0.90873 0.76419 0.30288 0.0
H34 H 0.91518 0.81499 0.29369 0.0
H35 H 0.91822 0.78923 0.25437 0.0
H36 H 0.77911 0.84733 0.25785 0.0
H37 H 0.78224 0.81883 0.30696 0.0
H38 H 0.75941 0.80014 0.26613 0.0
C39 C 0.74859 0.23801 0.73497 0.0
N40 N 0.77315 0.24388 0.70895 0.0
N41 N 0.75458 0.26167 0.76124 0.0
C42 C 0.72039 0.20702 0.73677 0.0
C43 C 0.78395 0.28172 0.75074 0.0
N44 N 0.79541 0.27077 0.71913 0.0
C45 C 0.80229 0.3106 0.77277 0.0
H46 H 0.70569 0.20465 0.7632 0.0
H47 H 0.73128 0.17986 0.73725 0.0
H48 H 0.70258 0.2127 0.7096 0.0
H49 H 0.82097 0.29666 0.79596 0.0
H50 H 0.78412 0.32363 0.7877 0.0
H51 H 0.81638 0.33283 0.75218 0.0
C52 C 0.81365 0.65062 0.85456 0.0
N53 N 0.8335 0.66616 0.82454 0.0
N54 N 0.78959 0.67389 0.85795 0.0
C55 C 0.81655 0.61171 0.87901 0.0
C56 C 0.79568 0.70432 0.829 0.0
N57 N 0.82224 0.69967 0.80864 0.0
C58 C 0.7737 0.73716 0.81843 0.0
H59 H 0.80697 0.59072 0.86025 0.0
H60 H 0.80181 0.60717 0.90568 0.0
H61 H 0.84359 0.60697 0.88909 0.0
H62 H 0.78066 0.75618 0.84006 0.0
H63 H 0.74635 0.72733 0.82049 0.0
H64 H 0.7772 0.75354 0.78808 0.0
C65 C 0.82767 0.24121 0.30751 0.0
N66 N 0.85848 0.25388 0.32326 0.0
N67 N 0.81432 0.26808 0.27854 0.0
C68 C 0.80895 0.20403 0.32306 0.0
C69 C 0.83799 0.29768 0.2773 0.0
N70 N 0.86476 0.28918 0.30444 0.0
C71 C 0.83466 0.33525 0.25014 0.0
H72 H 0.81541 0.18282 0.30627 0.0
H73 H 0.78091 0.20607 0.3189 0.0
H74 H 0.81636 0.1942 0.35518 0.0
H75 H 0.82497 0.35477 0.26684 0.0
H76 H 0.81667 0.33281 0.22367 0.0
H77 H 0.85979 0.34754 0.24 0.0
C78 C 0.29882 0.24317 0.81133 0.0
N79 N 0.32203 0.2216 0.80219 0.0
N80 N 0.27471 0.25114 0.78069 0.0
C81 C 0.30112 0.25894 0.84899 0.0
C82 C 0.28427 0.23369 0.75238 0.0
N83 N 0.31288 0.21538 0.76555 0.0
C84 C 0.26711 0.23681 0.71081 0.0
H85 H 0.27533 0.26232 0.85742 0.0
H86 H 0.31525 0.28706 0.84385 0.0
H87 H 0.31489 0.24052 0.87397 0.0
H88 H 0.28653 0.24358 0.68864 0.0
H89 H 0.24816 0.25829 0.70422 0.0
H90 H 0.25351 0.20938 0.70752 0.0
C91 C 0.33284 0.79859 0.30542 0.0
N92 N 0.33043 0.77326 0.28089 0.0
N93 N 0.36554 0.81344 0.31022 0.0
C94 C 0.30273 0.81108 0.32181 0.0
C95 C 0.38282 0.79564 0.2879 0.0
N96 N 0.36153 0.7714 0.26991 0.0
C97 C 0.42046 0.80257 0.2826 0.0
H98 H 0.2785 0.80473 0.30429 0.0
H99 H 0.30596 0.84169 0.32189 0.0
H100 H 0.3009 0.79592 0.35299 0.0
H101 H 0.43429 0.81526 0.30705 0.0
H102 H 0.42419 0.82167 0.25365 0.0
H103 H 0.43173 0.77591 0.282 0.0
C104 C 0.03839 0.49873 0.28089 0.0
C105 C 0.12076 0.60861 0.25661 0.0
O106 O 0.05927 0.51226 0.30602 0.0
Zn107 Zn 0.07802 0.55427 0.26925 0.0
O108 O 0.03649 0.5152 0.24407 0.0
Zn109 Zn 0.0609 0.5654 0.2083 0.0
O110 O 0.08128 0.54465 0.16945 0.0
O111 O 0.10328 0.52643 0.23134 0.0
O112 O 0.10217 0.60383 0.22493 0.0
O113 O 0.11503 0.58677 0.28936 0.0
O114 O 0.03421 0.58717 0.25486 0.0
O115 O 0.02354 0.59717 0.18949 0.0
C116 C 0.10205 0.52548 0.19406 0.0
C117 C 0.01609 0.60146 0.22339 0.0
C118 C 1.00209 0.42554 0.70039 0.0
C119 C 0.08206 0.52852 0.73471 0.0
O120 O 1.01007 0.42375 0.73778 0.0
Zn121 Zn 0.04133 0.45307 0.77748 0.0
O122 O 0.01561 0.45215 0.67546 0.0
Zn123 Zn 0.04345 0.47755 0.71427 0.0
O124 O 0.08143 0.43991 0.73816 0.0
O125 O 0.0752 0.41652 0.80162 0.0
O126 O 0.07203 0.5244 0.69925 0.0
O127 O 0.07232 0.50395 0.76433 0.0
O128 O 1.00725 0.47044 0.80703 0.0
O129 O 1.00491 0.49656 0.74311 0.0
C130 C 0.09141 0.41865 0.77079 0.0
C131 C 0.9936 0.49273 0.77751 0.0
C132 C 0.34131 0.99456 0.54904 0.0
C133 C 0.34933 0.10881 0.44562 0.0
O134 O 0.31567 0.00999 0.52911 0.0
Zn135 Zn 0.34242 0.05171 0.49838 0.0
O136 O 0.37156 0.00979 0.54432 0.0
Zn137 Zn 0.39749 0.05761 0.51033 0.0
O138 O 0.41595 0.08602 0.55204 0.0
O139 O 0.35969 0.08204 0.54447 0.0
O140 O 0.37786 0.09946 0.46423 0.0
O141 O 0.32202 0.08914 0.4554 0.0
O142 O 0.37036 0.02066 0.46728 0.0
O143 O 0.42579 0.03211 0.48131 0.0
C144 C 0.38754 0.09305 0.56265 0.0
C145 C 0.40127 0.01513 0.46319 0.0
C146 C 0.60125 0.74617 0.08216 0.0
C147 C 0.51669 0.75383 0.9665 0.0
O148 O 0.58446 0.71488 0.07899 0.0
Zn149 Zn 0.54432 0.69307 0.0416 0.0
O150 O 0.59337 0.77598 0.05798 0.0
Zn151 Zn 0.55748 0.75249 0.02535 0.0
O152 O 0.51594 0.73791 0.06217 0.0
O153 O 0.50789 0.67611 0.07754 0.0
O154 O 0.53501 0.78129 0.97737 0.0
O155 O 0.51825 0.72068 0.98751 0.0
O156 O 0.56887 0.65754 0.02116 0.0
O157 O 0.58729 0.71694 1.00166 0.0
C158 C 0.49952 0.70842 0.0801 0.0
C159 C 0.58966 0.68193 1.00227 0.0
C160 C 0.85867 0.93137 0.61611 0.0
C161 C 0.89843 0.0463 0.52592 0.0
O162 O 0.83598 0.944 0.58862 0.0
Zn163 Zn 0.83011 0.99214 0.54178 0.0
O164 O 0.88678 0.95088 0.62034 0.0
Zn165 Zn 0.87888 0.99131 0.57397 0.0
O166 O 0.84504 0.0268 0.59194 0.0
O167 O 0.79612 0.02082 0.55623 0.0
O168 O 0.91563 0.0293 0.55636 0.0
O169 O 0.86729 0.035 0.51806 0.0
O170 O 0.81928 0.96884 0.49619 0.0
O171 O 0.87151 0.96055 0.52489 0.0
C172 C 0.81434 0.03602 0.5822 0.0
C173 C 0.84781 0.95474 0.49781 0.0
C174 C 0.61086 0.23746 0.09836 0.0
C175 C 0.52231 0.21431 0.99246 0.0
O176 O 0.59659 0.20547 0.09415 0.0
Zn177 Zn 0.56713 0.22328 0.04582 0.0
O178 O 0.60325 0.26684 0.07292 0.0
Zn179 Zn 0.57131 0.28212 0.0196 0.0
O180 O 0.54315 0.31617 0.03585 0.0
O181 O 0.53317 0.25726 0.06633 0.0
O182 O 0.53421 0.24858 0.98997 0.0
O183 O 0.53441 0.18931 0.02038 0.0
O184 O 0.60379 0.23943 1.00261 0.0
O185 O 0.60334 0.30033 0.97902 0.0
C186 C 0.52662 0.2919 0.06034 0.0
C187 C 0.61524 0.26896 0.97932 0.0
H188 H 0.20839 0.34907 0.19999 0.0
H189 H 0.28861 0.42979 0.15169 0.0
H190 H 0.24876 0.47969 0.13861 0.0
H191 H 0.13371 0.39098 0.14113 0.0
H192 H 0.1084 0.38286 0.18342 0.0
H193 H 0.14065 0.3515 0.18112 0.0
H194 H 0.16903 0.36306 0.24949 0.0
H195 H 0.13678 0.39418 0.25207 0.0
H196 H 0.18129 0.41053 0.25625 0.0
H197 H 0.20146 0.52168 0.13386 0.0
H198 H 0.15343 0.55492 0.14821 0.0
H199 H 0.10741 0.44976 0.21039 0.0
C200 C 0.21741 0.37716 0.18629 0.0
C201 C 0.25135 0.38516 0.17552 0.0
C202 C 0.26234 0.42248 0.15829 0.0
C203 C 0.23992 0.45115 0.15107 0.0
C204 C 0.20677 0.44239 0.16237 0.0
C205 C 0.19575 0.40649 0.18049 0.0
C206 C 0.16077 0.40585 0.19548 0.0
C207 C 0.13432 0.38134 0.17399 0.0
C208 C 0.16206 0.39264 0.24102 0.0
C209 C 0.15417 0.44707 0.18349 0.0
C210 C 0.18057 0.4674 0.16325 0.0
C211 C 0.18057 0.5061 0.14954 0.0
C212 C 0.15324 0.52469 0.15762 0.0
C213 C 0.12696 0.50466 0.18001 0.0
C214 C 0.12721 0.46541 0.1928 0.0
H215 H 0.24082 0.68317 0.71474 0.0
H216 H 0.22148 0.70241 0.83083 0.0
H217 H 0.17072 0.65664 0.83193 0.0
H218 H 0.15213 0.67381 0.67591 0.0
H219 H 0.15845 0.63727 0.64921 0.0
H220 H 0.19299 0.67165 0.65743 0.0
H221 H 0.23142 0.61845 0.69117 0.0
H222 H 0.19711 0.58392 0.68282 0.0
H223 H 0.21668 0.58402 0.73252 0.0
H224 H 0.12345 0.60898 0.82083 0.0
H225 H 0.08306 0.55934 0.8003 0.0
H226 H 0.13173 0.57098 0.68991 0.0
C227 C 0.22563 0.67764 0.74018 0.0
C228 C 0.23449 0.69615 0.77268 0.0
C229 C 0.21472 0.68828 0.80585 0.0
C230 C 0.18593 0.66261 0.80653 0.0
C231 C 0.17746 0.64518 0.77373 0.0
C232 C 0.19675 0.65217 0.74121 0.0
C233 C 0.18238 0.62899 0.71027 0.0
C234 C 0.1708 0.65446 0.67087 0.0
C235 C 0.20845 0.60225 0.70384 0.0
C236 C 0.15213 0.60756 0.73066 0.0
C237 C 0.14982 0.61759 0.76714 0.0
C238 C 0.1249 0.60098 0.7923 0.0
C239 C 0.10211 0.57277 0.78034 0.0
C240 C 0.10425 0.56138 0.74348 0.0
C241 C 0.12922 0.57952 0.71795 0.0
H242 H 0.88907 0.76553 0.18618 0.0
H243 H 0.83942 0.70336 0.28829 0.0
H244 H 0.87277 0.64915 0.28887 0.0
H245 H 0.90141 0.68098 0.13896 0.0
H246 H 0.94276 0.70095 0.12405 0.0
H247 H 0.90957 0.73128 0.12602 0.0
H248 H 0.95011 0.76623 0.173 0.0
H249 H 0.98314 0.73557 0.17211 0.0
H250 H 0.96859 0.74006 0.21905 0.0
H251 H 0.91919 0.60836 0.2879 0.0
H252 H 0.9713 0.57891 0.27976 0.0
H253 H 0.99129 0.66536 0.17647 0.0
C254 C 0.88398 0.73956 0.20698 0.0
C255 C 0.86057 0.73769 0.23605 0.0
C256 C 0.85586 0.70433 0.26458 0.0
C257 C 0.87511 0.6737 0.26545 0.0
C258 C 0.89904 0.67688 0.23746 0.0
C259 C 0.90313 0.70861 0.20814 0.0
C260 C 0.93315 0.70621 0.1844 0.0
C261 C 0.92099 0.70476 0.14076 0.0
C262 C 0.96034 0.73896 0.18734 0.0
C263 C 0.94606 0.66899 0.20603 0.0
C264 C 0.92593 0.65264 0.23654 0.0
C265 C 0.9346 0.6203 0.26344 0.0
C266 C 0.96439 0.60398 0.25883 0.0
C267 C 0.98499 0.61969 0.2273 0.0
C268 C 0.97552 0.65241 0.20033 0.0
H269 H 0.85852 0.26521 0.75512 0.0
H270 H 0.80201 0.31 0.6446 0.0
H271 H 0.85427 0.34791 0.62081 0.0
H272 H 0.8989 0.34659 0.76971 0.0
H273 H 0.939 0.32886 0.79155 0.0
H274 H 0.90055 0.29834 0.79489 0.0
H275 H 0.92757 0.25134 0.76147 0.0
H276 H 0.9665 0.28156 0.75843 0.0
H277 H 0.9453 0.26756 0.7141 0.0
H278 H 0.9096 0.39014 0.61575 0.0
H279 H 0.9614 0.43119 0.62952 0.0
H280 H 0.98066 0.35849 0.74426 0.0
C281 C 0.8578 0.28179 0.72524 0.0
C282 C 0.82675 0.28466 0.70134 0.0
C283 C 0.82597 0.30717 0.6628 0.0
C284 C 0.85546 0.32878 0.64926 0.0
C285 C 0.88549 0.32703 0.67457 0.0
C286 C 0.88688 0.30352 0.7116 0.0
C287 C 0.92028 0.3103 0.73561 0.0
C288 C 0.9143 0.32172 0.77524 0.0
C289 C 0.94115 0.27563 0.74281 0.0
C290 C 0.93685 0.34262 0.70736 0.0
C291 C 0.9169 0.3515 0.6719 0.0
C292 C 0.92577 0.38282 0.64302 0.0
C293 C 0.95526 0.406 0.65103 0.0
C294 C 0.97513 0.398 0.6879 0.0
C295 C 0.96618 0.36524 0.71565 0.0
H296 H 0.27593 0.25083 0.25329 0.0
H297 H 0.37448 0.31389 0.25531 0.0
H298 H 0.39562 0.26673 0.31264 0.0
H299 H 0.27255 0.22774 0.35822 0.0
H300 H 0.25153 0.18152 0.35864 0.0
H301 H 0.24525 0.21815 0.31554 0.0
H302 H 0.26545 0.1762 0.27071 0.0
H303 H 0.27153 0.13928 0.3136 0.0
H304 H 0.30635 0.15668 0.28302 0.0
H305 H 0.40477 0.21461 0.3715 0.0
H306 H 0.40249 0.16065 0.42714 0.0
H307 H 0.29668 0.1322 0.38912 0.0
C308 C 0.30209 0.25428 0.26565 0.0
C309 C 0.32383 0.28554 0.24967 0.0
C310 C 0.35778 0.28962 0.26653 0.0
C311 C 0.36982 0.26317 0.29929 0.0
C312 C 0.34746 0.23302 0.31484 0.0
C313 C 0.31432 0.22838 0.29852 0.0
C314 C 0.29503 0.19445 0.32188 0.0
C315 C 0.26427 0.20618 0.33962 0.0
C316 C 0.28395 0.1649 0.29574 0.0
C317 C 0.32244 0.18078 0.35418 0.0
C318 C 0.35249 0.20339 0.34937 0.0
C319 C 0.38143 0.19666 0.37545 0.0
C320 C 0.3798 0.16586 0.40705 0.0
C321 C 0.34937 0.14204 0.41264 0.0
C322 C 0.32025 0.14988 0.38584 0.0
H323 H 0.33943 0.79094 0.83974 0.0
H324 H 0.36846 0.71832 0.76491 0.0
H325 H 0.42705 0.71911 0.79822 0.0
H326 H 0.4242 0.84632 0.84944 0.0
H327 H 0.42034 0.84748 0.9011 0.0
H328 H 0.38262 0.84635 0.86703 0.0
H329 H 0.35761 0.78709 0.91322 0.0
H330 H 0.39519 0.78794 0.94729 0.0
H331 H 0.38199 0.74632 0.92691 0.0
H332 H 0.47888 0.72018 0.84524 0.0
H333 H 0.52122 0.72152 0.9031 0.0
H334 H 0.46001 0.79418 0.94837 0.0
C335 C 0.3587 0.77645 0.82966 0.0
C336 C 0.3502 0.75554 0.79906 0.0
C337 C 0.37518 0.73534 0.78751 0.0
C338 C 0.40833 0.7356 0.80634 0.0
C339 C 0.41598 0.75606 0.83688 0.0
C340 C 0.39195 0.77626 0.84847 0.0
C341 C 0.40579 0.79258 0.88488 0.0
C342 C 0.40839 0.83575 0.87501 0.0
C343 C 0.38384 0.77757 0.92015 0.0
C344 C 0.44092 0.77751 0.8926 0.0
C345 C 0.44631 0.75681 0.86425 0.0
C346 C 0.47535 0.73708 0.86702 0.0
C347 C 0.49925 0.73799 0.89989 0.0
C348 C 0.49419 0.75878 0.92932 0.0
C349 C 0.46496 0.77927 0.92535 0.0
H350 H 0.82749 0.88134 0.29127 0.0
H351 H 0.8785 0.78388 0.35423 0.0
H352 H 0.88873 0.81244 0.41419 0.0
H353 H 0.87644 0.95302 0.33921 0.0
H354 H 0.83944 0.97743 0.34262 0.0
H355 H 0.84044 0.95198 0.30269 0.0
H356 H 0.78419 0.91355 0.32313 0.0
H357 H 0.78302 0.93884 0.36309 0.0
H358 H 0.78179 0.88823 0.37361 0.0
H359 H 0.89259 0.85077 0.46751 0.0
H360 H 0.88448 0.89328 0.51335 0.0
H361 H 0.82401 0.96185 0.41913 0.0
C362 C 0.8411 0.86631 0.3176 0.0
C363 C 0.85324 0.83097 0.31772 0.0
C364 C 0.87036 0.8117 0.35294 0.0
C365 C 0.87598 0.82754 0.38725 0.0
C366 C 0.86351 0.86228 0.38624 0.0
C367 C 0.84595 0.88122 0.35257 0.0
C368 C 0.83222 0.91628 0.36076 0.0
C369 C 0.84809 0.95177 0.33477 0.0
C370 C 0.79298 0.91407 0.3548 0.0
C371 C 0.84466 0.9139 0.40432 0.0
C372 C 0.86327 0.88293 0.41813 0.0
C373 C 0.87797 0.87504 0.45714 0.0
C374 C 0.8733 0.89933 0.48289 0.0
C375 C 0.85347 0.93053 0.46972 0.0
C376 C 0.839 0.9379 0.42994 0.0
H377 H 0.71132 0.30894 0.77811 0.0
H378 H 0.76309 0.2082 0.8263 0.0
H379 H 0.73562 0.2016 0.88957 0.0
H380 H 0.71557 0.34478 0.87167 0.0
H381 H 0.67373 0.36229 0.86147 0.0
H382 H 0.69882 0.3602 0.82088 0.0
H383 H 0.64936 0.32014 0.79024 0.0
H384 H 0.62412 0.32214 0.83065 0.0
H385 H 0.63227 0.27728 0.8201 0.0
H386 H 0.7005 0.20387 0.94507 0.0
H387 H 0.65943 0.21427 0.99069 0.0
H388 H 0.63026 0.31473 0.90782 0.0
C389 C 0.71689 0.28582 0.80233 0.0
C390 C 0.73912 0.25895 0.79795 0.0
C391 C 0.74602 0.22882 0.82967 0.0
C392 C 0.73065 0.22501 0.86549 0.0
C393 C 0.70861 0.25178 0.869 0.0
C394 C 0.70173 0.28168 0.8384 0.0
C395 C 0.67606 0.30564 0.84962 0.0
C396 C 0.69201 0.3456 0.851 0.0
C397 C 0.64353 0.30632 0.82095 0.0
C398 C 0.6692 0.28417 0.89102 0.0
C399 C 0.68842 0.25332 0.90153 0.0
C400 C 0.68553 0.2281 0.93738 0.0
C401 C 0.66205 0.23422 0.96304 0.0
C402 C 0.64176 0.2654 0.9529 0.0
C403 C 0.64579 0.291 0.91662 0.0
H404 H 0.27876 0.84268 0.73451 0.0
H405 H 0.35361 0.77224 0.71013 0.0
H406 H 0.37318 0.82274 0.65602 0.0
H407 H 0.25336 0.87672 0.63443 0.0
H408 H 0.2465 0.92356 0.64037 0.0
H409 H 0.24202 0.88475 0.68155 0.0
H410 H 0.28658 0.9185 0.7258 0.0
H411 H 0.29069 0.95784 0.68506 0.0
H412 H 0.32798 0.93472 0.70833 0.0
H413 H 0.38126 0.87806 0.60178 0.0
H414 H 0.3801 0.93703 0.55221 0.0
H415 H 0.29636 0.9704 0.60726 0.0
C416 C 0.29984 0.8385 0.71828 0.0
C417 C 0.31538 0.8041 0.72688 0.0
C418 C 0.34243 0.79896 0.70488 0.0
C419 C 0.35327 0.82727 0.67376 0.0
C420 C 0.33645 0.86029 0.66491 0.0
C421 C 0.31048 0.86625 0.68665 0.0
C422 C 0.29502 0.90315 0.66907 0.0
C423 C 0.25697 0.89664 0.65556 0.0
C424 C 0.3004 0.93015 0.69884 0.0
C425 C 0.31612 0.91682 0.63373 0.0
C426 C 0.34 0.89167 0.6322 0.0
C427 C 0.36277 0.89801 0.60271 0.0
C428 C 0.3618 0.93143 0.57464 0.0
C429 C 0.33794 0.95786 0.57588 0.0
C430 C 0.3144 0.95024 0.60537 0.0
H431 H 0.78396 0.81761 0.17577 0.0
H432 H 0.78347 0.71091 0.25756 0.0
H433 H 0.72822 0.69044 0.2248 0.0
H434 H 0.69716 0.82956 0.17598 0.0
H435 H 0.69065 0.85085 0.12404 0.0
H436 H 0.73218 0.85547 0.15021 0.0
H437 H 0.75917 0.82689 0.09811 0.0
H438 H 0.71784 0.82299 0.0712 0.0
H439 H 0.74178 0.78208 0.08715 0.0
H440 H 0.67112 0.68402 0.18708 0.0
H441 H 0.61781 0.68926 0.14343 0.0
H442 H 0.65407 0.80136 0.08623 0.0
C443 C 0.77262 0.78946 0.18559 0.0
C444 C 0.78838 0.76514 0.21806 0.0
C445 C 0.77246 0.72913 0.23163 0.0
C446 C 0.74087 0.71759 0.21355 0.0
C447 C 0.72554 0.74261 0.18214 0.0
C448 C 0.74103 0.77765 0.16792 0.0
C449 C 0.71832 0.79987 0.13515 0.0
C450 C 0.70903 0.83608 0.14708 0.0
C451 C 0.73529 0.80845 0.09555 0.0
C452 C 0.68739 0.77202 0.13347 0.0
C453 C 0.69218 0.73921 0.16086 0.0
C454 C 0.6672 0.70944 0.16532 0.0
C455 C 0.6369 0.71282 0.14043 0.0
C456 C 0.63163 0.74576 0.11135 0.0
C457 C 0.65713 0.77596 0.10833 0.0
H458 H 0.8246 0.19932 0.71034 0.0
H459 H 0.72983 0.23437 0.64566 0.0
H460 H 0.73002 0.18471 0.60549 0.0
H461 H 0.86223 0.17407 0.62409 0.0
H462 H 0.882 0.13467 0.65516 0.0
H463 H 0.87577 0.17537 0.67556 0.0
H464 H 0.84291 0.13253 0.73129 0.0
H465 H 0.84829 0.09183 0.71057 0.0
H466 H 0.80607 0.10298 0.71792 0.0
H467 H 0.73745 0.12728 0.57783 0.0
H468 H 0.75503 0.07061 0.55815 0.0
H469 H 0.84611 0.07338 0.63984 0.0
C470 C 0.80465 0.1972 0.68672 0.0
C471 C 0.77727 0.22056 0.68063 0.0
C472 C 0.75096 0.21661 0.65037 0.0
C473 C 0.75087 0.18849 0.62764 0.0
C474 C 0.7775 0.16481 0.63539 0.0
C475 C 0.80429 0.1693 0.66363 0.0
C476 C 0.82914 0.13923 0.66695 0.0
C477 C 0.86437 0.15689 0.6547 0.0
C478 C 0.83173 0.11523 0.70919 0.0
C479 C 0.81174 0.11669 0.63683 0.0
C480 C 0.78197 0.13189 0.61904 0.0
C481 C 0.76093 0.11536 0.59119 0.0
C482 C 0.77101 0.08296 0.58045 0.0
C483 C 0.80195 0.06743 0.5974 0.0
C484 C 0.82231 0.08447 0.62629 0.0
H485 H 0.35026 0.268 0.16342 0.0
H486 H 0.3713 0.38295 0.18014 0.0
H487 H 0.42759 0.38571 0.15328 0.0
H488 H 0.44028 0.24092 0.18821 0.0
H489 H 0.43675 0.21153 0.15114 0.0
H490 H 0.39962 0.21749 0.17535 0.0
H491 H 0.36769 0.2397 0.10632 0.0
H492 H 0.40481 0.23434 0.08192 0.0
H493 H 0.38614 0.27894 0.07231 0.0
H494 H 0.47751 0.37895 0.11681 0.0
H495 H 0.52187 0.36051 0.07975 0.0
H496 H 0.47074 0.24862 0.08938 0.0
C497 C 0.36732 0.29319 0.16235 0.0
C498 C 0.3569 0.32529 0.1738 0.0
C499 C 0.37928 0.3582 0.1715 0.0
C500 C 0.41112 0.35999 0.15627 0.0
C501 C 0.42039 0.32838 0.1439 0.0
C502 C 0.39952 0.29533 0.14742 0.0
C503 C 0.41533 0.26602 0.13045 0.0
C504 C 0.42349 0.23197 0.16325 0.0
C505 C 0.3921 0.25406 0.09569 0.0
C506 C 0.44773 0.28815 0.11598 0.0
C507 C 0.45004 0.3241 0.12394 0.0
C508 C 0.47639 0.35064 0.11105 0.0
C509 C 0.50132 0.34004 0.08981 0.0
C510 C 0.49991 0.30311 0.08208 0.0
C511 C 0.47277 0.27688 0.09549 0.0
H512 H 0.89441 0.64211 0.85867 0.0
H513 H 0.82263 0.64138 0.75519 0.0
H514 H 0.85621 0.59693 0.73215 0.0
H515 H 0.97246 0.63057 0.81166 0.0
H516 H 0.98949 0.59951 0.85523 0.0
H517 H 0.96228 0.63507 0.86054 0.0
H518 H 0.92223 0.58368 0.89999 0.0
H519 H 0.94888 0.54784 0.8941 0.0
H520 H 0.90409 0.54466 0.87758 0.0
H521 H 0.89514 0.54995 0.72253 0.0
H522 H 0.93909 0.50558 0.72439 0.0
H523 H 0.98439 0.53196 0.83694 0.0
C524 C 0.88653 0.63331 0.83059 0.0
C525 C 0.85662 0.64616 0.80781 0.0
C526 C 0.84625 0.63326 0.77194 0.0
C527 C 0.86489 0.60749 0.75908 0.0
C528 C 0.89364 0.59444 0.7828 0.0
C529 C 0.90463 0.60703 0.81769 0.0
C530 C 0.93527 0.58676 0.83872 0.0
C531 C 0.96674 0.61464 0.8417 0.0
C532 C 0.92712 0.56441 0.88005 0.0
C533 C 0.93966 0.56066 0.81027 0.0
C534 C 0.91534 0.5658 0.77819 0.0
C535 C 0.91428 0.54568 0.74748 0.0
C536 C 0.93925 0.52041 0.74892 0.0
C537 C 0.96483 0.51498 0.78102 0.0
C538 C 0.96468 0.53494 0.8125 0.0
H539 H 0.91868 0.31211 0.2606 0.0
H540 H 0.87084 0.32956 0.36277 0.0
H541 H 0.91533 0.38007 0.37295 0.0
H542 H 1.00915 0.33967 0.29086 0.0
H543 H 0.01688 0.36535 0.24164 0.0
H544 H 0.98615 0.3252 0.24768 0.0
H545 H 0.93984 0.36623 0.20703 0.0
H546 H 0.97029 0.40653 0.20108 0.0
H547 H 0.93083 0.40854 0.22275 0.0
H548 H 0.96361 0.43032 0.37026 0.0
H549 H 1.0065 0.48281 0.3496 0.0
H550 H 0.01711 0.4402 0.24223 0.0
C551 C 0.91872 0.32565 0.28603 0.0
C552 C 0.89313 0.31507 0.313 0.0
C553 C 0.89193 0.33527 0.34399 0.0
C554 C 0.91678 0.36435 0.34953 0.0
C555 C 0.94183 0.37409 0.32257 0.0
C556 C 0.94256 0.35588 0.29088 0.0
C557 C 0.96864 0.37576 0.2626 0.0
C558 C 0.99688 0.34995 0.26059 0.0
C559 C 0.95136 0.39012 0.22091 0.0
C560 C 0.98227 0.40804 0.28322 0.0
C561 C 0.96708 0.40591 0.31832 0.0
C562 C 0.97564 0.43232 0.34281 0.0
C563 C 1.00005 0.46196 0.33092 0.0
C564 C 0.01491 0.46555 0.29432 0.0
C565 C 1.00595 0.43814 0.27028 0.0
H566 H 0.21627 0.24919 0.81757 0.0
H567 H 0.28092 0.31862 0.73279 0.0
H568 H 0.2419 0.36972 0.72366 0.0
H569 H 0.13569 0.27827 0.76779 0.0
H570 H 0.11589 0.27825 0.81298 0.0
H571 H 0.14903 0.24728 0.81333 0.0
H572 H 0.18358 0.27516 0.87028 0.0
H573 H 0.15058 0.30634 0.87 0.0
H574 H 0.194 0.32518 0.86366 0.0
H575 H 0.1959 0.41183 0.72195 0.0
H576 H 0.14489 0.44395 0.72712 0.0
H577 H 0.10906 0.34917 0.81504 0.0
C578 C 0.22197 0.27527 0.79717 0.0
C579 C 0.25128 0.28018 0.77545 0.0
C580 C 0.25833 0.31451 0.74918 0.0
C581 C 0.23644 0.34358 0.74402 0.0
C582 C 0.2077 0.33797 0.76571 0.0
C583 C 0.20032 0.30479 0.79184 0.0
C584 C 0.16743 0.30631 0.81109 0.0
C585 C 0.14041 0.27571 0.80066 0.0
C586 C 0.17432 0.30306 0.85646 0.0
C587 C 0.15733 0.34537 0.79131 0.0
C588 C 0.18111 0.36294 0.76532 0.0
C589 C 0.1772 0.39848 0.74234 0.0
C590 C 0.14803 0.41645 0.74546 0.0
C591 C 0.12298 0.39917 0.77154 0.0
C592 C 0.12797 0.36329 0.79527 0.0
H593 H 0.30151 0.70933 0.32262 0.0
H594 H 0.28873 0.79184 0.21406 0.0
H595 H 0.23387 0.75819 0.19546 0.0
H596 H 0.26314 0.62729 0.28351 0.0
H597 H 0.2423 0.60722 0.32813 0.0
H598 H 0.28156 0.63642 0.33119 0.0
H599 H 0.25201 0.67959 0.367 0.0
H600 H 0.21258 0.65073 0.36374 0.0
H601 H 0.21363 0.7004 0.34358 0.0
H602 H 0.18017 0.71575 0.18926 0.0
H603 H 0.13096 0.66852 0.19599 0.0
H604 H 0.17646 0.61506 0.31099 0.0
C605 C 0.28728 0.71966 0.29462 0.0
C606 C 0.29977 0.75218 0.26882 0.0
C607 C 0.2802 0.76602 0.23314 0.0
C608 C 0.24886 0.74732 0.22269 0.0
C609 C 0.23718 0.71519 0.24869 0.0
C610 C 0.2557 0.70152 0.28403 0.0
C611 C 0.23667 0.66738 0.30744 0.0
C612 C 0.25714 0.63251 0.31288 0.0
C613 C 0.22822 0.675 0.34783 0.0
C614 C 0.20459 0.66391 0.27973 0.0
C615 C 0.20551 0.6917 0.24594 0.0
C616 C 0.17914 0.69396 0.21566 0.0
C617 C 0.15124 0.66697 0.21978 0.0
C618 C 0.14962 0.63816 0.25412 0.0
C619 C 0.17666 0.63694 0.28459 0.0
H620 H 0.86703 0.76092 0.80467 0.0
H621 H 0.79629 0.6976 0.73393 0.0
H622 H 0.80213 0.74848 0.67518 0.0
H623 H 0.83511 0.84682 0.76745 0.0
H624 H 0.87514 0.8751 0.76681 0.0
H625 H 0.87091 0.83122 0.8015 0.0
H626 H 0.92225 0.80762 0.77451 0.0
H627 H 0.92717 0.85178 0.74021 0.0
H628 H 0.92219 0.80828 0.72183 0.0
H629 H 0.80811 0.80924 0.62801 0.0
H630 H 0.81813 0.87428 0.59222 0.0
H631 H 0.88617 0.90044 0.69201 0.0
C632 C 0.8543 0.75722 0.77614 0.0
C633 C 0.83261 0.72455 0.77304 0.0
C634 C 0.8145 0.72139 0.7361 0.0
C635 C 0.81728 0.75047 0.70283 0.0
C636 C 0.83817 0.78276 0.70702 0.0
C637 C 0.85684 0.78621 0.74253 0.0
C638 C 0.87505 0.82528 0.73977 0.0
C639 C 0.86334 0.8458 0.77072 0.0
C640 C 0.91398 0.8231 0.74434 0.0
C641 C 0.86293 0.84351 0.6976 0.0
C642 C 0.84166 0.81833 0.67942 0.0
C643 C 0.82521 0.82899 0.64165 0.0
C644 C 0.83086 0.86619 0.62169 0.0
C645 C 0.85299 0.89254 0.6392 0.0
C646 C 0.86943 0.88086 0.67766 0.0
H647 H 0.78791 0.21731 0.2331 0.0
H648 H 0.76555 0.3157 0.27653 0.0
H649 H 0.70874 0.31506 0.23898 0.0
H650 H 0.74827 0.24255 0.13522 0.0
H651 H 0.73147 0.19559 0.13095 0.0
H652 H 0.76954 0.20259 0.16289 0.0
H653 H 0.74127 0.16013 0.22255 0.0
H654 H 0.70302 0.15309 0.19076 0.0
H655 H 0.70074 0.17106 0.23574 0.0
H656 H 0.6569 0.30678 0.19342 0.0
H657 H 0.61232 0.29144 0.1423 0.0
H658 H 0.66589 0.19615 0.1297 0.0
C659 C 0.77074 0.23837 0.23487 0.0
C660 C 0.78098 0.26681 0.25731 0.0
C661 C 0.75818 0.29412 0.25899 0.0
C662 C 0.72587 0.29375 0.23804 0.0
C663 C 0.71659 0.26557 0.21589 0.0
C664 C 0.73822 0.23825 0.21422 0.0
C665 C 0.72226 0.21197 0.18694 0.0
C666 C 0.74419 0.21327 0.15192 0.0
C667 C 0.71648 0.17167 0.21041 0.0
C668 C 0.68858 0.22928 0.1729 0.0
C669 C 0.68592 0.26009 0.19022 0.0
C670 C 0.65841 0.2824 0.18014 0.0
C671 C 0.63324 0.27348 0.15109 0.0
C672 C 0.63544 0.24232 0.13264 0.0
C673 C 0.66317 0.2195 0.14419 0.0
H674 H 0.28991 0.15902 0.7266 0.0
H675 H 0.37939 0.23195 0.75026 0.0
H676 H 0.41084 0.2052 0.7045 0.0
H677 H 0.33347 0.078 0.71359 0.0
H678 H 0.30324 0.06825 0.67333 0.0
H679 H 0.28987 0.08971 0.71181 0.0
H680 H 0.26825 0.14497 0.65819 0.0
H681 H 0.28163 0.12378 0.61959 0.0
H682 H 0.29718 0.17121 0.6235 0.0
H683 H 0.43113 0.17226 0.65188 0.0
H684 H 0.4373 0.13839 0.59698 0.0
H685 H 0.33263 0.09117 0.60541 0.0
C686 C 0.31622 0.16904 0.72236 0.0
C687 C 0.33238 0.19722 0.74221 0.0
C688 C 0.36685 0.20971 0.73604 0.0
C689 C 0.38478 0.19486 0.70987 0.0
C690 C 0.36777 0.16767 0.68991 0.0
C691 C 0.33419 0.15495 0.69594 0.0
C692 C 0.32069 0.12774 0.66891 0.0
C693 C 0.31127 0.08861 0.69337 0.0
C694 C 0.29014 0.14284 0.64089 0.0
C695 C 0.35166 0.12748 0.64621 0.0
C696 C 0.37882 0.15018 0.65898 0.0
C697 C 0.41 0.15435 0.64178 0.0
C698 C 0.41332 0.13503 0.61065 0.0
C699 C 0.38543 0.11236 0.59664 0.0
C700 C 0.35441 0.10852 0.61508 0.0
H701 H 0.40098 0.71399 0.27038 0.0
H702 H 0.34357 0.79925 0.19346 0.0
H703 H 0.36603 0.78384 0.1345 0.0
H704 H 0.47419 0.73656 0.22261 0.0
H705 H 0.4875 0.68964 0.22788 0.0
H706 H 0.46088 0.70034 0.26322 0.0
H707 H 0.41594 0.6472 0.24863 0.0
H708 H 0.44262 0.63595 0.21346 0.0
H709 H 0.39905 0.64649 0.19802 0.0
H710 H 0.40209 0.76847 0.08618 0.0
H711 H 0.44847 0.75263 0.05055 0.0
H712 H 0.48475 0.67703 0.1572 0.0
C713 C 0.3921 0.728 0.24085 0.0
C714 C 0.3693 0.75661 0.23606 0.0
C715 C 0.35943 0.77591 0.19737 0.0
C716 C 0.37246 0.76761 0.16382 0.0
C717 C 0.39568 0.74005 0.16946 0.0
C718 C 0.40533 0.72025 0.20696 0.0
C719 C 0.43403 0.69563 0.20511 0.0
C720 C 0.46603 0.70619 0.23124 0.0
C721 C 0.4222 0.65383 0.21701 0.0
C722 C 0.4399 0.70587 0.16105 0.0
C723 C 0.41713 0.73124 0.14109 0.0
C724 C 0.41947 0.74791 0.1012 0.0
C725 C 0.44595 0.73887 0.08124 0.0
C726 C 0.46966 0.71315 0.10097 0.0
C727 C 0.46625 0.69588 0.14119 0.0
H728 H 0.87962 0.18572 0.32348 0.0
H729 H 0.88173 0.27102 0.39549 0.0
H730 H 0.90889 0.22914 0.45243 0.0
H731 H 0.84634 0.1187 0.39427 0.0
H732 H 0.86678 0.07984 0.38366 0.0
H733 H 0.85959 0.12008 0.34515 0.0
H734 H 0.92415 0.12852 0.33424 0.0
H735 H 0.93157 0.08812 0.37298 0.0
H736 H 0.95503 0.13259 0.37579 0.0
H737 H 0.92571 0.1745 0.5051 0.0
H738 H 0.92224 0.11189 0.54921 0.0
H739 H 0.90068 0.05932 0.44589 0.0
C740 C 0.88727 0.19597 0.35083 0.0
C741 C 0.88013 0.23247 0.35428 0.0
C742 C 0.88895 0.24444 0.39101 0.0
C743 C 0.90405 0.22039 0.42388 0.0
C744 C 0.90945 0.18397 0.41997 0.0
C745 C 0.90089 0.17168 0.38432 0.0
C746 C 0.90168 0.1294 0.38987 0.0
C747 C 0.86652 0.11095 0.37754 0.0
C748 C 0.92979 0.11906 0.36685 0.0
C749 C 0.91046 0.1196 0.43448 0.0
C750 C 0.91627 0.15155 0.4511 0.0
C751 C 0.92197 0.14934 0.49231 0.0
C752 C 0.92023 0.1137 0.51719 0.0
C753 C 0.91199 0.081 0.50073 0.0
C754 C 0.90808 0.08398 0.45894 0.0
H755 H 0.37377 0.26884 0.82327 0.0
H756 H 0.33923 0.15128 0.83514 0.0
H757 H 0.38935 0.13448 0.88334 0.0
H758 H 0.46605 0.25675 0.83161 0.0
H759 H 0.47591 0.29433 0.85917 0.0
H760 H 0.43933 0.29559 0.82327 0.0
H761 H 0.40044 0.30225 0.87786 0.0
H762 H 0.43678 0.30074 0.91396 0.0
H763 H 0.40025 0.26761 0.92328 0.0
H764 H 0.44114 0.13242 0.93597 0.0
H765 H 0.49018 0.1448 0.98404 0.0
H766 H 0.48946 0.26413 0.93499 0.0
C767 C 0.37726 0.23957 0.83563 0.0
C768 C 0.35301 0.21123 0.82592 0.0
C769 C 0.35792 0.17317 0.84237 0.0
C770 C 0.38616 0.16353 0.86972 0.0
C771 C 0.40928 0.1924 0.87971 0.0
C772 C 0.40521 0.22963 0.86261 0.0
C773 C 0.43241 0.25571 0.87917 0.0
C774 C 0.45475 0.27683 0.84635 0.0
C775 C 0.41652 0.28318 0.89979 0.0
C776 C 0.45214 0.22759 0.90898 0.0
C777 C 0.43869 0.19115 0.909 0.0
C778 C 0.45209 0.16085 0.93574 0.0
C779 C 0.47988 0.16811 0.96301 0.0
C780 C 0.49389 0.20538 0.96325 0.0
C781 C 0.47974 0.23521 0.93555 0.0
H782 H 0.35386 0.82384 0.38418 0.0
H783 H 0.40353 0.87597 0.2778 0.0
H784 H 0.42473 0.93018 0.30922 0.0
H785 H 0.32272 0.90909 0.39744 0.0
H786 H 0.32669 0.8974 0.45114 0.0
H787 H 0.3197 0.86059 0.42237 0.0
H788 H 0.37404 0.83079 0.45884 0.0
H789 H 0.38139 0.86785 0.48738 0.0
H790 H 0.41427 0.8587 0.45833 0.0
H791 H 0.43969 0.97986 0.35231 0.0
H792 H 0.43948 0.02438 0.39879 0.0
H793 H 0.37411 0.94324 0.47285 0.0
C794 C 0.36931 0.8466 0.36761 0.0
C795 C 0.37788 0.8451 0.32894 0.0
C796 C 0.39779 0.87577 0.30803 0.0
C797 C 0.40978 0.90681 0.32557 0.0
C798 C 0.40101 0.90733 0.36382 0.0
C799 C 0.38064 0.87833 0.38426 0.0
C800 C 0.37177 0.88753 0.42309 0.0
C801 C 0.33292 0.88874 0.42351 0.0
C802 C 0.38624 0.85955 0.45903 0.0
C803 C 0.39006 0.92631 0.42112 0.0
C804 C 0.40751 0.93693 0.38721 0.0
C805 C 0.42614 0.97179 0.37898 0.0
C806 C 0.42613 0.9968 0.40558 0.0
C807 C 0.40702 0.98699 0.43933 0.0
C808 C 0.38918 0.95117 0.44733 0.0
H809 H 0.76801 0.71689 0.90532 0.0
H810 H 0.74388 0.61327 0.86096 0.0
H811 H 0.69143 0.60101 0.89718 0.0
H812 H 0.73404 0.68672 1.00271 0.0
H813 H 0.71693 0.73123 1.00143 0.0
H814 H 0.75426 0.72934 0.97574 0.0
H815 H 0.724 0.76343 0.9099 0.0
H816 H 0.68662 0.76539 0.93537 0.0
H817 H 0.68312 0.74402 0.89182 0.0
H818 H 0.6402 0.60151 0.93716 0.0
H819 H 0.59342 0.61686 0.97335 0.0
H820 H 0.64968 0.7226 0.98634 0.0
C821 C 0.75178 0.69149 0.90363 0.0
C822 C 0.76023 0.66562 0.88109 0.0
C823 C 0.73826 0.63285 0.87906 0.0
C824 C 0.70837 0.62582 0.89932 0.0
C825 C 0.70057 0.65211 0.92105 0.0
C826 C 0.7216 0.68443 0.92307 0.0
C827 C 0.70634 0.70963 0.94585 0.0
C828 C 0.72926 0.7145 0.98368 0.0
C829 C 0.69961 0.74787 0.91914 0.0
C830 C 0.67332 0.68666 0.95605 0.0
C831 C 0.67056 0.6533 0.94208 0.0
C832 C 0.6421 0.6276 0.94819 0.0
C833 C 0.6157 0.63646 0.96879 0.0
C834 C 0.61777 0.671 0.98231 0.0
C835 C 0.64713 0.69612 0.97598 0.0
loop_
_geom_bond_atom_site_label_1
_geom_bond_atom_site_label_2
_geom_bond_distance
_geom_bond_site_symmetry_2
_ccdc_geom_bond_type
C0 N1 1.317 . S
C0 N2 1.348 . S
C0 C3 1.485 . S
N1 C0 1.317 . S
N1 N5 1.370 . S
N2 C0 1.348 . S
N2 C4 1.346 . S
C3 C0 1.485 . S
C3 H7 0.960 . S
C3 H8 0.961 . S
C3 H9 0.960 . S
C4 N2 1.346 . S
C4 N5 1.307 . S
C4 C6 1.486 . S
N5 N1 1.370 . S
N5 C4 1.307 . S
C6 C4 1.486 . S
C6 H10 0.960 . S
C6 H11 0.960 . S
C6 H12 0.959 . S
H7 C3 0.960 . S
H8 C3 0.961 . S
H9 C3 0.960 . S
H10 C6 0.960 . S
H11 C6 0.960 . S
H12 C6 0.959 . S
C13 N14 1.317 . S
C13 N15 1.348 . S
C13 C16 1.485 . S
N14 C13 1.317 . S
N14 N18 1.370 . S
N15 C13 1.348 . S
N15 C17 1.346 . S
C16 C13 1.485 . S
C16 H20 0.960 . S
C16 H21 0.961 . S
C16 H22 0.960 . S
C17 N15 1.346 . S
C17 N18 1.307 . S
C17 C19 1.486 . S
N18 N14 1.370 . S
N18 C17 1.307 . S
C19 C17 1.486 . S
C19 H23 0.960 . S
C19 H24 0.960 . S
C19 H25 0.959 . S
H20 C16 0.960 . S
H21 C16 0.961 . S
H22 C16 0.960 . S
H23 C19 0.960 . S
H24 C19 0.960 . S
H25 C19 0.959 . S
C26 N27 1.317 . S
C26 N28 1.348 . S
C26 C29 1.485 . S
N27 C26 1.317 . S
N27 N31 1.370 . S
N28 C26 1.348 . S
N28 C30 1.346 . S
C29 C26 1.485 . S
C29 H33 0.960 . S
C29 H34 0.961 . S
C29 H35 0.960 . S
C30 N28 1.346 . S
C30 N31 1.307 . S
C30 C32 1.486 . S
N31 N27 1.370 . S
N31 C30 1.307 . S
C32 C30 1.486 . S
C32 H36 0.960 . S
C32 H37 0.960 . S
C32 H38 0.959 . S
H33 C29 0.960 . S
H34 C29 0.961 . S
H35 C29 0.960 . S
H36 C32 0.960 . S
H37 C32 0.960 . S
H38 C32 0.959 . S
C39 N40 1.317 . S
C39 N41 1.348 . S
C39 C42 1.485 . S
N40 C39 1.317 . S
N40 N44 1.370 . S
N41 C39 1.348 . S
N41 C43 1.346 . S
C42 C39 1.485 . S
C42 H46 0.960 . S
C42 H47 0.961 . S
C42 H48 0.960 . S
C43 N41 1.346 . S
C43 N44 1.307 . S
C43 C45 1.486 . S
N44 N40 1.370 . S
N44 C43 1.307 . S
C45 C43 1.486 . S
C45 H49 0.960 . S
C45 H50 0.960 . S
C45 H51 0.959 . S
H46 C42 0.960 . S
H47 C42 0.961 . S
H48 C42 0.960 . S
H49 C45 0.960 . S
H50 C45 0.960 . S
H51 C45 0.959 . S
C52 N53 1.317 . S
C52 N54 1.348 . S
C52 C55 1.485 . S
N53 C52 1.317 . S
N53 N57 1.370 . S
N54 C52 1.348 . S
N54 C56 1.346 . S
C55 C52 1.485 . S
C55 H59 0.960 . S
C55 H60 0.961 . S
C55 H61 0.960 . S
C56 N54 1.346 . S
C56 N57 1.307 . S
C56 C58 1.486 . S
N57 N53 1.370 . S
N57 C56 1.307 . S
C58 C56 1.486 . S
C58 H62 0.960 . S
C58 H63 0.960 . S
C58 H64 0.959 . S
H59 C55 0.960 . S
H60 C55 0.961 . S
H61 C55 0.960 . S
H62 C58 0.960 . S
H63 C58 0.960 . S
H64 C58 0.959 . S
C65 N66 1.317 . S
C65 N67 1.348 . S
C65 C68 1.485 . S
N66 C65 1.317 . S
N66 N70 1.370 . S
N67 C65 1.348 . S
N67 C69 1.346 . S
C68 C65 1.485 . S
C68 H72 0.960 . S
C68 H73 0.961 . S
C68 H74 0.960 . S
C69 N67 1.346 . S
C69 N70 1.307 . S
C69 C71 1.486 . S
N70 N66 1.370 . S
N70 C69 1.307 . S
C71 C69 1.486 . S
C71 H75 0.960 . S
C71 H76 0.960 . S
C71 H77 0.959 . S
H72 C68 0.960 . S
H73 C68 0.961 . S
H74 C68 0.960 . S
H75 C71 0.960 . S
H76 C71 0.960 . S
H77 C71 0.959 . S
C78 N79 1.317 . S
C78 N80 1.348 . S
C78 C81 1.485 . S
N79 C78 1.317 . S
N79 N83 1.370 . S
N80 C78 1.348 . S
N80 C82 1.346 . S
C81 C78 1.485 . S
C81 H85 0.960 . S
C81 H86 0.961 . S
C81 H87 0.960 . S
C82 N80 1.346 . S
C82 N83 1.307 . S
C82 C84 1.486 . S
N83 N79 1.370 . S
N83 C82 1.307 . S
C84 C82 1.486 . S
C84 H88 0.960 . S
C84 H89 0.960 . S
C84 H90 0.959 . S
H85 C81 0.960 . S
H86 C81 0.961 . S
H87 C81 0.960 . S
H88 C84 0.960 . S
H89 C84 0.960 . S
H90 C84 0.959 . S
C91 N92 1.317 . S
C91 N93 1.348 . S
C91 C94 1.485 . S
N92 C91 1.317 . S
N92 N96 1.370 . S
N93 C91 1.348 . S
N93 C95 1.346 . S
C94 C91 1.485 . S
C94 H98 0.960 . S
C94 H99 0.961 . S
C94 H100 0.960 . S
C95 N93 1.346 . S
C95 N96 1.307 . S
C95 C97 1.486 . S
N96 N92 1.370 . S
N96 C95 1.307 . S
C97 C95 1.486 . S
C97 H101 0.960 . S
C97 H102 0.960 . S
C97 H103 0.959 . S
H98 C94 0.960 . S
H99 C94 0.961 . S
H100 C94 0.960 . S
H101 C97 0.960 . S
H102 C97 0.960 . S
H103 C97 0.959 . S
C104 O106 1.247 . S
C104 O108 1.258 . S
C105 O112 1.247 . S
C105 O113 1.258 . S
O106 C104 1.247 . S
O106 Zn107 2.028 . S
Zn107 O106 2.028 . S
Zn107 O111 2.035 . S
Zn107 O113 2.035 . S
Zn107 O114 2.028 . S
O108 C104 1.258 . S
O108 Zn109 2.035 . S
Zn109 O108 2.035 . S
Zn109 O110 2.028 . S
Zn109 O112 2.028 . S
Zn109 O115 2.035 . S
O110 Zn109 2.028 . S
O110 C116 1.247 . S
O111 Zn107 2.035 . S
O111 C116 1.258 . S
O112 C105 1.247 . S
O112 Zn109 2.028 . S
O113 C105 1.258 . S
O113 Zn107 2.035 . S
O114 Zn107 2.028 . S
O114 C117 1.247 . S
O115 Zn109 2.035 . S
O115 C117 1.258 . S
C116 O110 1.247 . S
C116 O111 1.258 . S
C117 O114 1.247 . S
C117 O115 1.258 . S
C118 O120 1.247 . S
C118 O122 1.258 . S
C119 O126 1.247 . S
C119 O127 1.258 . S
O120 C118 1.247 . S
O120 Zn121 2.028 1_655 S
Zn121 O120 2.028 1_455 S
Zn121 O125 2.035 . S
Zn121 O127 2.035 . S
Zn121 O128 2.028 1_455 S
O122 C118 1.258 . S
O122 Zn123 2.035 1_655 S
Zn123 O122 2.035 1_455 S
Zn123 O124 2.028 . S
Zn123 O126 2.028 . S
Zn123 O129 2.035 1_455 S
O124 Zn123 2.028 . S
O124 C130 1.247 . S
O125 Zn121 2.035 . S
O125 C130 1.258 . S
O126 C119 1.247 . S
O126 Zn123 2.028 . S
O127 C119 1.258 . S
O127 Zn121 2.035 . S
O128 Zn121 2.028 1_655 S
O128 C131 1.247 . S
O129 Zn123 2.035 1_655 S
O129 C131 1.258 . S
C130 O124 1.247 . S
C130 O125 1.258 . S
C131 O128 1.247 . S
C131 O129 1.258 . S
C132 O134 1.247 . S
C132 O136 1.258 . S
C133 O140 1.247 . S
C133 O141 1.258 . S
O134 C132 1.247 . S
O134 Zn135 2.028 1_565 S
Zn135 O134 2.028 1_545 S
Zn135 O139 2.035 . S
Zn135 O141 2.035 . S
Zn135 O142 2.028 1_545 S
O136 C132 1.258 . S
O136 Zn137 2.035 1_565 S
Zn137 O136 2.035 1_545 S
Zn137 O138 2.028 . S
Zn137 O140 2.028 . S
Zn137 O143 2.035 1_545 S
O138 Zn137 2.028 . S
O138 C144 1.247 . S
O139 Zn135 2.035 . S
O139 C144 1.258 . S
O140 C133 1.247 . S
O140 Zn137 2.028 . S
O141 C133 1.258 . S
O141 Zn135 2.035 . S
O142 Zn135 2.028 1_565 S
O142 C145 1.247 . S
O143 Zn137 2.035 1_565 S
O143 C145 1.258 . S
C144 O138 1.247 . S
C144 O139 1.258 . S
C145 O142 1.247 . S
C145 O143 1.258 . S
C146 O148 1.247 . S
C146 O150 1.258 . S
C147 O154 1.247 . S
C147 O155 1.258 . S
O148 C146 1.247 . S
O148 Zn149 2.028 . S
Zn149 O148 2.028 . S
Zn149 O153 2.035 . S
Zn149 O155 2.035 . S
Zn149 O156 2.028 . S
O150 C146 1.258 . S
O150 Zn151 2.035 . S
Zn151 O150 2.035 . S
Zn151 O152 2.028 . S
Zn151 O154 2.028 . S
Zn151 O157 2.035 . S
O152 Zn151 2.028 . S
O152 C158 1.247 . S
O153 Zn149 2.035 . S
O153 C158 1.258 . S
O154 C147 1.247 . S
O154 Zn151 2.028 . S
O155 C147 1.258 . S
O155 Zn149 2.035 . S
O156 Zn149 2.028 . S
O156 C159 1.247 . S
O157 Zn151 2.035 . S
O157 C159 1.258 . S
C158 O152 1.247 . S
C158 O153 1.258 . S
C159 O156 1.247 . S
C159 O157 1.258 . S
C160 O162 1.247 . S
C160 O164 1.258 . S
C161 O168 1.247 . S
C161 O169 1.258 . S
O162 C160 1.247 . S
O162 Zn163 2.028 1_565 S
Zn163 O162 2.028 1_545 S
Zn163 O167 2.035 . S
Zn163 O169 2.035 . S
Zn163 O170 2.028 1_545 S
O164 C160 1.258 . S
O164 Zn165 2.035 1_565 S
Zn165 O164 2.035 1_545 S
Zn165 O166 2.028 . S
Zn165 O168 2.028 . S
Zn165 O171 2.042 . S
O166 Zn165 2.028 . S
O166 C172 1.247 . S
O167 Zn163 2.035 . S
O167 C172 1.258 . S
O168 C161 1.247 . S
O168 Zn165 2.028 . S
O169 C161 1.258 . S
O169 Zn163 2.035 . S
O170 Zn163 2.028 1_565 S
O170 C173 1.247 . S
O171 Zn165 2.042 . S
O171 C173 1.254 1_545 S
C172 O166 1.247 . S
C172 O167 1.258 . S
C173 O170 1.247 . S
C173 O171 1.254 1_565 S
C174 O176 1.247 . S
C174 O178 1.258 . S
C175 O182 1.247 . S
C175 O183 1.258 . S
O176 C174 1.247 . S
O176 Zn177 2.028 . S
Zn177 O176 2.028 . S
Zn177 O181 2.035 . S
Zn177 O183 2.035 1_554 S
Zn177 O184 2.028 1_554 S
O178 C174 1.258 . S
O178 Zn179 2.035 1_554 S
Zn179 O178 2.035 1_556 S
Zn179 O180 2.028 1_556 S
Zn179 O182 2.028 . S
Zn179 O185 2.035 . S
O180 Zn179 2.028 1_554 S
O180 C186 1.247 . S
O181 Zn177 2.035 . S
O181 C186 1.258 . S
O182 C175 1.247 . S
O182 Zn179 2.028 . S
O183 C175 1.258 . S
O183 Zn177 2.035 1_556 S
O184 Zn177 2.028 1_556 S
O184 C187 1.247 . S
O185 Zn179 2.035 . S
O185 C187 1.258 . S
C186 O180 1.247 . S
C186 O181 1.258 . S
C187 O184 1.247 . S
C187 O185 1.258 . S
H188 C200 0.930 . S
H189 C202 0.930 . S
H190 C203 0.930 . S
H191 C207 0.959 . S
H192 C207 0.959 . S
H193 C207 0.961 . S
H194 C208 0.960 . S
H195 C208 0.961 . S
H196 C208 0.959 . S
H197 C211 0.929 . S
H198 C212 0.931 . S
H199 C214 0.930 . S
C200 H188 0.930 . S
C200 C201 1.399 . S
C200 C205 1.399 . S
C201 C200 1.399 . S
C201 C202 1.376 . S
C202 H189 0.930 . S
C202 C201 1.376 . S
C202 C203 1.388 . S
C203 H190 0.930 . S
C203 C202 1.388 . S
C203 C204 1.390 . S
C204 C203 1.390 . S
C204 C205 1.394 . S
C204 C210 1.465 . S
C205 C200 1.399 . S
C205 C204 1.394 . S
C205 C206 1.516 . S
C206 C205 1.516 . S
C206 C207 1.502 . S
C206 C208 1.561 . S
C206 C209 1.526 . S
C207 H191 0.959 . S
C207 H192 0.959 . S
C207 H193 0.961 . S
C207 C206 1.502 . S
C208 H194 0.960 . S
C208 H195 0.961 . S
C208 H196 0.959 . S
C208 C206 1.561 . S
C209 C206 1.526 . S
C209 C210 1.396 . S
C209 C214 1.390 . S
C210 C204 1.465 . S
C210 C209 1.396 . S
C210 C211 1.399 . S
C211 H197 0.929 . S
C211 C210 1.399 . S
C211 C212 1.385 . S
C212 H198 0.931 . S
C212 C211 1.385 . S
C212 C213 1.389 . S
C213 C212 1.389 . S
C213 C214 1.387 . S
C214 H199 0.930 . S
C214 C209 1.390 . S
C214 C213 1.387 . S
H215 C227 0.930 . S
H216 C229 0.930 . S
H217 C230 0.930 . S
H218 C234 0.959 . S
H219 C234 0.959 . S
H220 C234 0.961 . S
H221 C235 0.960 . S
H222 C235 0.961 . S
H223 C235 0.959 . S
H224 C238 0.929 . S
H225 C239 0.931 . S
H226 C241 0.930 . S
C227 H215 0.930 . S
C227 C228 1.399 . S
C227 C232 1.399 . S
C228 C227 1.399 . S
C228 C229 1.376 . S
C229 H216 0.930 . S
C229 C228 1.376 . S
C229 C230 1.388 . S
C230 H217 0.930 . S
C230 C229 1.388 . S
C230 C231 1.390 . S
C231 C230 1.390 . S
C231 C232 1.394 . S
C231 C237 1.465 . S
C232 C227 1.399 . S
C232 C231 1.394 . S
C232 C233 1.516 . S
C233 C232 1.516 . S
C233 C234 1.502 . S
C233 C235 1.561 . S
C233 C236 1.526 . S
C234 H218 0.959 . S
C234 H219 0.959 . S
C234 H220 0.961 . S
C234 C233 1.502 . S
C235 H221 0.960 . S
C235 H222 0.961 . S
C235 H223 0.959 . S
C235 C233 1.561 . S
C236 C233 1.526 . S
C236 C237 1.396 . S
C236 C241 1.390 . S
C237 C231 1.465 . S
C237 C236 1.396 . S
C237 C238 1.399 . S
C238 H224 0.929 . S
C238 C237 1.399 . S
C238 C239 1.385 . S
C239 H225 0.931 . S
C239 C238 1.385 . S
C239 C240 1.389 . S
C240 C239 1.389 . S
C240 C241 1.387 . S
C241 H226 0.930 . S
C241 C236 1.390 . S
C241 C240 1.387 . S
H242 C254 0.930 . S
H243 C256 0.930 . S
H244 C257 0.930 . S
H245 C261 0.959 . S
H246 C261 0.959 . S
H247 C261 0.961 . S
H248 C262 0.960 . S
H249 C262 0.961 . S
H250 C262 0.959 . S
H251 C265 0.929 . S
H252 C266 0.931 1_455 S
H253 C268 0.930 . S
C254 H242 0.930 . S
C254 C255 1.399 . S
C254 C259 1.399 . S
C255 C254 1.399 . S
C255 C256 1.376 . S
C256 H243 0.930 . S
C256 C255 1.376 . S
C256 C257 1.388 . S
C257 H244 0.930 . S
C257 C256 1.388 . S
C257 C258 1.390 . S
C258 C257 1.390 . S
C258 C259 1.394 . S
C258 C264 1.465 . S
C259 C254 1.399 . S
C259 C258 1.394 . S
C259 C260 1.516 . S
C260 C259 1.516 . S
C260 C261 1.502 . S
C260 C262 1.561 . S
C260 C263 1.526 . S
C261 H245 0.959 . S
C261 H246 0.959 . S
C261 H247 0.961 . S
C261 C260 1.502 . S
C262 H248 0.960 . S
C262 H249 0.961 . S
C262 H250 0.959 . S
C262 C260 1.561 . S
C263 C260 1.526 . S
C263 C264 1.396 . S
C263 C268 1.390 . S
C264 C258 1.465 . S
C264 C263 1.396 . S
C264 C265 1.399 . S
C265 H251 0.929 . S
C265 C264 1.399 . S
C265 C266 1.385 . S
C266 H252 0.931 1_655 S
C266 C265 1.385 . S
C266 C267 1.389 . S
C267 C266 1.389 . S
C267 C268 1.387 . S
C268 H253 0.930 . S
C268 C263 1.390 . S
C268 C267 1.387 . S
H269 C281 0.930 . S
H270 C283 0.930 . S
H271 C284 0.930 . S
H272 C288 0.959 . S
H273 C288 0.959 . S
H274 C288 0.961 . S
H275 C289 0.960 . S
H276 C289 0.961 . S
H277 C289 0.959 . S
H278 C292 0.929 . S
H279 C293 0.931 . S
H280 C295 0.930 . S
C281 H269 0.930 . S
C281 C282 1.399 . S
C281 C286 1.399 . S
C282 C281 1.399 . S
C282 C283 1.376 . S
C283 H270 0.930 . S
C283 C282 1.376 . S
C283 C284 1.388 . S
C284 H271 0.930 . S
C284 C283 1.388 . S
C284 C285 1.390 . S
C285 C284 1.390 . S
C285 C286 1.394 . S
C285 C291 1.465 . S
C286 C281 1.399 . S
C286 C285 1.394 . S
C286 C287 1.516 . S
C287 C286 1.516 . S
C287 C288 1.502 . S
C287 C289 1.561 . S
C287 C290 1.526 . S
C288 H272 0.959 . S
C288 H273 0.959 . S
C288 H274 0.961 . S
C288 C287 1.502 . S
C289 H275 0.960 . S
C289 H276 0.961 . S
C289 H277 0.959 . S
C289 C287 1.561 . S
C290 C287 1.526 . S
C290 C291 1.396 . S
C290 C295 1.390 . S
C291 C285 1.465 . S
C291 C290 1.396 . S
C291 C292 1.399 . S
C292 H278 0.929 . S
C292 C291 1.399 . S
C292 C293 1.385 . S
C293 H279 0.931 . S
C293 C292 1.385 . S
C293 C294 1.389 . S
C294 C293 1.389 . S
C294 C295 1.387 . S
C295 H280 0.930 . S
C295 C290 1.390 . S
C295 C294 1.387 . S
H296 C308 0.930 . S
H297 C310 0.930 . S
H298 C311 0.930 . S
H299 C315 0.959 . S
H300 C315 0.959 . S
H301 C315 0.961 . S
H302 C316 0.960 . S
H303 C316 0.961 . S
H304 C316 0.959 . S
H305 C319 0.929 . S
H306 C320 0.931 . S
H307 C322 0.930 . S
C308 H296 0.930 . S
C308 C309 1.399 . S
C308 C313 1.399 . S
C309 C308 1.399 . S
C309 C310 1.376 . S
C310 H297 0.930 . S
C310 C309 1.376 . S
C310 C311 1.388 . S
C311 H298 0.930 . S
C311 C310 1.388 . S
C311 C312 1.390 . S
C312 C311 1.390 . S
C312 C313 1.394 . S
C312 C318 1.465 . S
C313 C308 1.399 . S
C313 C312 1.394 . S
C313 C314 1.516 . S
C314 C313 1.516 . S
C314 C315 1.502 . S
C314 C316 1.561 . S
C314 C317 1.526 . S
C315 H299 0.959 . S
C315 H300 0.959 . S
C315 H301 0.961 . S
C315 C314 1.502 . S
C316 H302 0.960 . S
C316 H303 0.961 . S
C316 H304 0.959 . S
C316 C314 1.561 . S
C317 C314 1.526 . S
C317 C318 1.396 . S
C317 C322 1.390 . S
C318 C312 1.465 . S
C318 C317 1.396 . S
C318 C319 1.399 . S
C319 H305 0.929 . S
C319 C318 1.399 . S
C319 C320 1.385 . S
C320 H306 0.931 . S
C320 C319 1.385 . S
C320 C321 1.389 . S
C321 C320 1.389 . S
C321 C322 1.387 . S
C322 H307 0.930 . S
C322 C317 1.390 . S
C322 C321 1.387 . S
H323 C335 0.930 . S
H324 C337 0.930 . S
H325 C338 0.930 . S
H326 C342 0.959 . S
H327 C342 0.959 . S
H328 C342 0.961 . S
H329 C343 0.960 . S
H330 C343 0.961 . S
H331 C343 0.959 . S
H332 C346 0.929 . S
H333 C347 0.931 . S
H334 C349 0.930 . S
C335 H323 0.930 . S
C335 C336 1.399 . S
C335 C340 1.399 . S
C336 C335 1.399 . S
C336 C337 1.376 . S
C337 H324 0.930 . S
C337 C336 1.376 . S
C337 C338 1.388 . S
C338 H325 0.930 . S
C338 C337 1.388 . S
C338 C339 1.390 . S
C339 C338 1.390 . S
C339 C340 1.394 . S
C339 C345 1.465 . S
C340 C335 1.399 . S
C340 C339 1.394 . S
C340 C341 1.516 . S
C341 C340 1.516 . S
C341 C342 1.502 . S
C341 C343 1.561 . S
C341 C344 1.526 . S
C342 H326 0.959 . S
C342 H327 0.959 . S
C342 H328 0.961 . S
C342 C341 1.502 . S
C343 H329 0.960 . S
C343 H330 0.961 . S
C343 H331 0.959 . S
C343 C341 1.561 . S
C344 C341 1.526 . S
C344 C345 1.396 . S
C344 C349 1.390 . S
C345 C339 1.465 . S
C345 C344 1.396 . S
C345 C346 1.399 . S
C346 H332 0.929 . S
C346 C345 1.399 . S
C346 C347 1.385 . S
C347 H333 0.931 . S
C347 C346 1.385 . S
C347 C348 1.389 . S
C348 C347 1.389 . S
C348 C349 1.387 . S
C349 H334 0.930 . S
C349 C344 1.390 . S
C349 C348 1.387 . S
H350 C362 0.930 . S
H351 C364 0.930 . S
H352 C365 0.930 . S
H353 C369 0.959 . S
H354 C369 0.959 . S
H355 C369 0.961 . S
H356 C370 0.960 . S
H357 C370 0.961 . S
H358 C370 0.959 . S
H359 C373 0.929 . S
H360 C374 0.931 . S
H361 C376 0.930 . S
C362 H350 0.930 . S
C362 C363 1.399 . S
C362 C367 1.399 . S
C363 C362 1.399 . S
C363 C364 1.376 . S
C364 H351 0.930 . S
C364 C363 1.376 . S
C364 C365 1.388 . S
C365 H352 0.930 . S
C365 C364 1.388 . S
C365 C366 1.390 . S
C366 C365 1.390 . S
C366 C367 1.394 . S
C366 C372 1.465 . S
C367 C362 1.399 . S
C367 C366 1.394 . S
C367 C368 1.516 . S
C368 C367 1.516 . S
C368 C369 1.502 . S
C368 C370 1.561 . S
C368 C371 1.526 . S
C369 H353 0.959 . S
C369 H354 0.959 . S
C369 H355 0.961 . S
C369 C368 1.502 . S
C370 H356 0.960 . S
C370 H357 0.961 . S
C370 H358 0.959 . S
C370 C368 1.561 . S
C371 C368 1.526 . S
C371 C372 1.396 . S
C371 C376 1.390 . S
C372 C366 1.465 . S
C372 C371 1.396 . S
C372 C373 1.399 . S
C373 H359 0.929 . S
C373 C372 1.399 . S
C373 C374 1.385 . S
C374 H360 0.931 . S
C374 C373 1.385 . S
C374 C375 1.389 . S
C375 C374 1.389 . S
C375 C376 1.387 . S
C376 H361 0.930 . S
C376 C371 1.390 . S
C376 C375 1.387 . S
H377 C389 0.930 . S
H378 C391 0.930 . S
H379 C392 0.930 . S
H380 C396 0.959 . S
H381 C396 0.959 . S
H382 C396 0.961 . S
H383 C397 0.960 . S
H384 C397 0.961 . S
H385 C397 0.959 . S
H386 C400 0.929 . S
H387 C401 0.931 . S
H388 C403 0.930 . S
C389 H377 0.930 . S
C389 C390 1.399 . S
C389 C394 1.399 . S
C390 C389 1.399 . S
C390 C391 1.376 . S
C391 H378 0.930 . S
C391 C390 1.376 . S
C391 C392 1.388 . S
C392 H379 0.930 . S
C392 C391 1.388 . S
C392 C393 1.390 . S
C393 C392 1.390 . S
C393 C394 1.394 . S
C393 C399 1.465 . S
C394 C389 1.399 . S
C394 C393 1.394 . S
C394 C395 1.516 . S
C395 C394 1.516 . S
C395 C396 1.502 . S
C395 C397 1.561 . S
C395 C398 1.526 . S
C396 H380 0.959 . S
C396 H381 0.959 . S
C396 H382 0.961 . S
C396 C395 1.502 . S
C397 H383 0.960 . S
C397 H384 0.961 . S
C397 H385 0.959 . S
C397 C395 1.561 . S
C398 C395 1.526 . S
C398 C399 1.396 . S
C398 C403 1.390 . S
C399 C393 1.465 . S
C399 C398 1.396 . S
C399 C400 1.399 . S
C400 H386 0.929 . S
C400 C399 1.399 . S
C400 C401 1.385 . S
C401 H387 0.931 . S
C401 C400 1.385 . S
C401 C402 1.389 . S
C402 C401 1.389 . S
C402 C403 1.387 . S
C403 H388 0.930 . S
C403 C398 1.390 . S
C403 C402 1.387 . S
H404 C416 0.930 . S
H405 C418 0.930 . S
H406 C419 0.930 . S
H407 C423 0.959 . S
H408 C423 0.959 . S
H409 C423 0.961 . S
H410 C424 0.960 . S
H411 C424 0.961 . S
H412 C424 0.959 . S
H413 C427 0.929 . S
H414 C428 0.931 . S
H415 C430 0.930 . S
C416 H404 0.930 . S
C416 C417 1.399 . S
C416 C421 1.399 . S
C417 C416 1.399 . S
C417 C418 1.376 . S
C418 H405 0.930 . S
C418 C417 1.376 . S
C418 C419 1.388 . S
C419 H406 0.930 . S
C419 C418 1.388 . S
C419 C420 1.390 . S
C420 C419 1.390 . S
C420 C421 1.394 . S
C420 C426 1.465 . S
C421 C416 1.399 . S
C421 C420 1.394 . S
C421 C422 1.516 . S
C422 C421 1.516 . S
C422 C423 1.502 . S
C422 C424 1.561 . S
C422 C425 1.526 . S
C423 H407 0.959 . S
C423 H408 0.959 . S
C423 H409 0.961 . S
C423 C422 1.502 . S
C424 H410 0.960 . S
C424 H411 0.961 . S
C424 H412 0.959 . S
C424 C422 1.561 . S
C425 C422 1.526 . S
C425 C426 1.396 . S
C425 C430 1.390 . S
C426 C420 1.465 . S
C426 C425 1.396 . S
C426 C427 1.399 . S
C427 H413 0.929 . S
C427 C426 1.399 . S
C427 C428 1.385 . S
C428 H414 0.931 . S
C428 C427 1.385 . S
C428 C429 1.389 . S
C429 C428 1.389 . S
C429 C430 1.387 . S
C430 H415 0.930 . S
C430 C425 1.390 . S
C430 C429 1.387 . S
H431 C443 0.930 . S
H432 C445 0.930 . S
H433 C446 0.930 . S
H434 C450 0.959 . S
H435 C450 0.959 . S
H436 C450 0.961 . S
H437 C451 0.960 . S
H438 C451 0.961 . S
H439 C451 0.959 . S
H440 C454 0.929 . S
H441 C455 0.931 . S
H442 C457 0.930 . S
C443 H431 0.930 . S
C443 C444 1.399 . S
C443 C448 1.399 . S
C444 C443 1.399 . S
C444 C445 1.376 . S
C445 H432 0.930 . S
C445 C444 1.376 . S
C445 C446 1.388 . S
C446 H433 0.930 . S
C446 C445 1.388 . S
C446 C447 1.390 . S
C447 C446 1.390 . S
C447 C448 1.394 . S
C447 C453 1.465 . S
C448 C443 1.399 . S
C448 C447 1.394 . S
C448 C449 1.516 . S
C449 C448 1.516 . S
C449 C450 1.502 . S
C449 C451 1.561 . S
C449 C452 1.526 . S
C450 H434 0.959 . S
C450 H435 0.959 . S
C450 H436 0.961 . S
C450 C449 1.502 . S
C451 H437 0.960 . S
C451 H438 0.961 . S
C451 H439 0.959 . S
C451 C449 1.561 . S
C452 C449 1.526 . S
C452 C453 1.396 . S
C452 C457 1.390 . S
C453 C447 1.465 . S
C453 C452 1.396 . S
C453 C454 1.399 . S
C454 H440 0.929 . S
C454 C453 1.399 . S
C454 C455 1.385 . S
C455 H441 0.931 . S
C455 C454 1.385 . S
C455 C456 1.389 . S
C456 C455 1.389 . S
C456 C457 1.387 . S
C457 H442 0.930 . S
C457 C452 1.390 . S
C457 C456 1.387 . S
H458 C470 0.930 . S
H459 C472 0.930 . S
H460 C473 0.930 . S
H461 C477 0.959 . S
H462 C477 0.959 . S
H463 C477 0.961 . S
H464 C478 0.960 . S
H465 C478 0.961 . S
H466 C478 0.959 . S
H467 C481 0.929 . S
H468 C482 0.931 . S
H469 C484 0.930 . S
C470 H458 0.930 . S
C470 C471 1.399 . S
C470 C475 1.399 . S
C471 C470 1.399 . S
C471 C472 1.376 . S
C472 H459 0.930 . S
C472 C471 1.376 . S
C472 C473 1.388 . S
C473 H460 0.930 . S
C473 C472 1.388 . S
C473 C474 1.390 . S
C474 C473 1.390 . S
C474 C475 1.394 . S
C474 C480 1.465 . S
C475 C470 1.399 . S
C475 C474 1.394 . S
C475 C476 1.516 . S
C476 C475 1.516 . S
C476 C477 1.502 . S
C476 C478 1.561 . S
C476 C479 1.526 . S
C477 H461 0.959 . S
C477 H462 0.959 . S
C477 H463 0.961 . S
C477 C476 1.502 . S
C478 H464 0.960 . S
C478 H465 0.961 . S
C478 H466 0.959 . S
C478 C476 1.561 . S
C479 C476 1.526 . S
C479 C480 1.396 . S
C479 C484 1.390 . S
C480 C474 1.465 . S
C480 C479 1.396 . S
C480 C481 1.399 . S
C481 H467 0.929 . S
C481 C480 1.399 . S
C481 C482 1.385 . S
C482 H468 0.931 . S
C482 C481 1.385 . S
C482 C483 1.389 . S
C483 C482 1.389 . S
C483 C484 1.387 . S
C484 H469 0.930 . S
C484 C479 1.390 . S
C484 C483 1.387 . S
H485 C497 0.930 . S
H486 C499 0.930 . S
H487 C500 0.930 . S
H488 C504 0.959 . S
H489 C504 0.959 . S
H490 C504 0.961 . S
H491 C505 0.960 . S
H492 C505 0.961 . S
H493 C505 0.959 . S
H494 C508 0.929 . S
H495 C509 0.931 . S
H496 C511 0.930 . S
C497 H485 0.930 . S
C497 C498 1.399 . S
C497 C502 1.399 . S
C498 C497 1.399 . S
C498 C499 1.376 . S
C499 H486 0.930 . S
C499 C498 1.376 . S
C499 C500 1.388 . S
C500 H487 0.930 . S
C500 C499 1.388 . S
C500 C501 1.390 . S
C501 C500 1.390 . S
C501 C502 1.394 . S
C501 C507 1.465 . S
C502 C497 1.399 . S
C502 C501 1.394 . S
C502 C503 1.516 . S
C503 C502 1.516 . S
C503 C504 1.502 . S
C503 C505 1.561 . S
C503 C506 1.526 . S
C504 H488 0.959 . S
C504 H489 0.959 . S
C504 H490 0.961 . S
C504 C503 1.502 . S
C505 H491 0.960 . S
C505 H492 0.961 . S
C505 H493 0.959 . S
C505 C503 1.561 . S
C506 C503 1.526 . S
C506 C507 1.396 . S
C506 C511 1.390 . S
C507 C501 1.465 . S
C507 C506 1.396 . S
C507 C508 1.399 . S
C508 H494 0.929 . S
C508 C507 1.399 . S
C508 C509 1.385 . S
C509 H495 0.931 . S
C509 C508 1.385 . S
C509 C510 1.389 . S
C510 C509 1.389 . S
C510 C511 1.387 . S
C511 H496 0.930 . S
C511 C506 1.390 . S
C511 C510 1.387 . S
H512 C524 0.930 . S
H513 C526 0.930 . S
H514 C527 0.930 . S
H515 C531 0.959 . S
H516 C531 0.959 . S
H517 C531 0.961 . S
H518 C532 0.960 . S
H519 C532 0.961 . S
H520 C532 0.959 . S
H521 C535 0.929 . S
H522 C536 0.931 . S
H523 C538 0.930 . S
C524 H512 0.930 . S
C524 C525 1.399 . S
C524 C529 1.399 . S
C525 C524 1.399 . S
C525 C526 1.376 . S
C526 H513 0.930 . S
C526 C525 1.376 . S
C526 C527 1.388 . S
C527 H514 0.930 . S
C527 C526 1.388 . S
C527 C528 1.390 . S
C528 C527 1.390 . S
C528 C529 1.394 . S
C528 C534 1.465 . S
C529 C524 1.399 . S
C529 C528 1.394 . S
C529 C530 1.516 . S
C530 C529 1.516 . S
C530 C531 1.502 . S
C530 C532 1.561 . S
C530 C533 1.526 . S
C531 H515 0.959 . S
C531 H516 0.959 . S
C531 H517 0.961 . S
C531 C530 1.502 . S
C532 H518 0.960 . S
C532 H519 0.961 . S
C532 H520 0.959 . S
C532 C530 1.561 . S
C533 C530 1.526 . S
C533 C534 1.396 . S
C533 C538 1.390 . S
C534 C528 1.465 . S
C534 C533 1.396 . S
C534 C535 1.399 . S
C535 H521 0.929 . S
C535 C534 1.399 . S
C535 C536 1.385 . S
C536 H522 0.931 . S
C536 C535 1.385 . S
C536 C537 1.389 . S
C537 C536 1.389 . S
C537 C538 1.387 . S
C538 H523 0.930 . S
C538 C533 1.390 . S
C538 C537 1.387 . S
H539 C551 0.930 . S
H540 C553 0.930 . S
H541 C554 0.930 . S
H542 C558 0.959 . S
H543 C558 0.959 . S
H544 C558 0.961 . S
H545 C559 0.960 . S
H546 C559 0.961 . S
H547 C559 0.959 . S
H548 C562 0.929 . S
H549 C563 0.931 . S
H550 C565 0.930 . S
C551 H539 0.930 . S
C551 C552 1.399 . S
C551 C556 1.399 . S
C552 C551 1.399 . S
C552 C553 1.376 . S
C553 H540 0.930 . S
C553 C552 1.376 . S
C553 C554 1.388 . S
C554 H541 0.930 . S
C554 C553 1.388 . S
C554 C555 1.390 . S
C555 C554 1.390 . S
C555 C556 1.394 . S
C555 C561 1.465 . S
C556 C551 1.399 . S
C556 C555 1.394 . S
C556 C557 1.516 . S
C557 C556 1.516 . S
C557 C558 1.502 . S
C557 C559 1.561 . S
C557 C560 1.526 . S
C558 H542 0.959 . S
C558 H543 0.959 . S
C558 H544 0.961 . S
C558 C557 1.502 . S
C559 H545 0.960 . S
C559 H546 0.961 . S
C559 H547 0.959 . S
C559 C557 1.561 . S
C560 C557 1.526 . S
C560 C561 1.396 . S
C560 C565 1.390 . S
C561 C555 1.465 . S
C561 C560 1.396 . S
C561 C562 1.399 . S
C562 H548 0.929 . S
C562 C561 1.399 . S
C562 C563 1.385 . S
C563 H549 0.931 . S
C563 C562 1.385 . S
C563 C564 1.389 . S
C564 C563 1.389 . S
C564 C565 1.387 . S
C565 H550 0.930 . S
C565 C560 1.390 . S
C565 C564 1.387 . S
H566 C578 0.930 . S
H567 C580 0.930 . S
H568 C581 0.930 . S
H569 C585 0.959 . S
H570 C585 0.959 . S
H571 C585 0.961 . S
H572 C586 0.960 . S
H573 C586 0.961 . S
H574 C586 0.959 . S
H575 C589 0.929 . S
H576 C590 0.931 . S
H577 C592 0.930 . S
C578 H566 0.930 . S
C578 C579 1.399 . S
C578 C583 1.399 . S
C579 C578 1.399 . S
C579 C580 1.376 . S
C580 H567 0.930 . S
C580 C579 1.376 . S
C580 C581 1.388 . S
C581 H568 0.930 . S
C581 C580 1.388 . S
C581 C582 1.390 . S
C582 C581 1.390 . S
C582 C583 1.394 . S
C582 C588 1.465 . S
C583 C578 1.399 . S
C583 C582 1.394 . S
C583 C584 1.516 . S
C584 C583 1.516 . S
C584 C585 1.502 . S
C584 C586 1.561 . S
C584 C587 1.526 . S
C585 H569 0.959 . S
C585 H570 0.959 . S
C585 H571 0.961 . S
C585 C584 1.502 . S
C586 H572 0.960 . S
C586 H573 0.961 . S
C586 H574 0.959 . S
C586 C584 1.561 . S
C587 C584 1.526 . S
C587 C588 1.396 . S
C587 C592 1.390 . S
C588 C582 1.465 . S
C588 C587 1.396 . S
C588 C589 1.399 . S
C589 H575 0.929 . S
C589 C588 1.399 . S
C589 C590 1.385 . S
C590 H576 0.931 . S
C590 C589 1.385 . S
C590 C591 1.389 . S
C591 C590 1.389 . S
C591 C592 1.387 . S
C592 H577 0.930 . S
C592 C587 1.390 . S
C592 C591 1.387 . S
H593 C605 0.930 . S
H594 C607 0.930 . S
H595 C608 0.930 . S
H596 C612 0.959 . S
H597 C612 0.959 . S
H598 C612 0.961 . S
H599 C613 0.960 . S
H600 C613 0.961 . S
H601 C613 0.959 . S
H602 C616 0.929 . S
H603 C617 0.931 . S
H604 C619 0.930 . S
C605 H593 0.930 . S
C605 C606 1.399 . S
C605 C610 1.399 . S
C606 C605 1.399 . S
C606 C607 1.376 . S
C607 H594 0.930 . S
C607 C606 1.376 . S
C607 C608 1.388 . S
C608 H595 0.930 . S
C608 C607 1.388 . S
C608 C609 1.390 . S
C609 C608 1.390 . S
C609 C610 1.394 . S
C609 C615 1.465 . S
C610 C605 1.399 . S
C610 C609 1.394 . S
C610 C611 1.516 . S
C611 C610 1.516 . S
C611 C612 1.502 . S
C611 C613 1.561 . S
C611 C614 1.526 . S
C612 H596 0.959 . S
C612 H597 0.959 . S
C612 H598 0.961 . S
C612 C611 1.502 . S
C613 H599 0.960 . S
C613 H600 0.961 . S
C613 H601 0.959 . S
C613 C611 1.561 . S
C614 C611 1.526 . S
C614 C615 1.396 . S
C614 C619 1.390 . S
C615 C609 1.465 . S
C615 C614 1.396 . S
C615 C616 1.399 . S
C616 H602 0.929 . S
C616 C615 1.399 . S
C616 C617 1.385 . S
C617 H603 0.931 . S
C617 C616 1.385 . S
C617 C618 1.389 . S
C618 C617 1.389 . S
C618 C619 1.387 . S
C619 H604 0.930 . S
C619 C614 1.390 . S
C619 C618 1.387 . S
H620 C632 0.930 . S
H621 C634 0.930 . S
H622 C635 0.930 . S
H623 C639 0.959 . S
H624 C639 0.959 . S
H625 C639 0.961 . S
H626 C640 0.960 . S
H627 C640 0.961 . S
H628 C640 0.959 . S
H629 C643 0.929 . S
H630 C644 0.931 . S
H631 C646 0.930 . S
C632 H620 0.930 . S
C632 C633 1.399 . S
C632 C637 1.399 . S
C633 C632 1.399 . S
C633 C634 1.376 . S
C634 H621 0.930 . S
C634 C633 1.376 . S
C634 C635 1.388 . S
C635 H622 0.930 . S
C635 C634 1.388 . S
C635 C636 1.390 . S
C636 C635 1.390 . S
C636 C637 1.394 . S
C636 C642 1.465 . S
C637 C632 1.399 . S
C637 C636 1.394 . S
C637 C638 1.516 . S
C638 C637 1.516 . S
C638 C639 1.502 . S
C638 C640 1.561 . S
C638 C641 1.526 . S
C639 H623 0.959 . S
C639 H624 0.959 . S
C639 H625 0.961 . S
C639 C638 1.502 . S
C640 H626 0.960 . S
C640 H627 0.961 . S
C640 H628 0.959 . S
C640 C638 1.561 . S
C641 C638 1.526 . S
C641 C642 1.396 . S
C641 C646 1.390 . S
C642 C636 1.465 . S
C642 C641 1.396 . S
C642 C643 1.399 . S
C643 H629 0.929 . S
C643 C642 1.399 . S
C643 C644 1.385 . S
C644 H630 0.931 . S
C644 C643 1.385 . S
C644 C645 1.389 . S
C645 C644 1.389 . S
C645 C646 1.387 . S
C646 H631 0.930 . S
C646 C641 1.390 . S
C646 C645 1.387 . S
H647 C659 0.930 . S
H648 C661 0.930 . S
H649 C662 0.930 . S
H650 C666 0.959 . S
H651 C666 0.959 . S
H652 C666 0.961 . S
H653 C667 0.960 . S
H654 C667 0.961 . S
H655 C667 0.959 . S
H656 C670 0.929 . S
H657 C671 0.931 . S
H658 C673 0.930 . S
C659 H647 0.930 . S
C659 C660 1.399 . S
C659 C664 1.399 . S
C660 C659 1.399 . S
C660 C661 1.376 . S
C661 H648 0.930 . S
C661 C660 1.376 . S
C661 C662 1.388 . S
C662 H649 0.930 . S
C662 C661 1.388 . S
C662 C663 1.390 . S
C663 C662 1.390 . S
C663 C664 1.394 . S
C663 C669 1.465 . S
C664 C659 1.399 . S
C664 C663 1.394 . S
C664 C665 1.516 . S
C665 C664 1.516 . S
C665 C666 1.502 . S
C665 C667 1.561 . S
C665 C668 1.526 . S
C666 H650 0.959 . S
C666 H651 0.959 . S
C666 H652 0.961 . S
C666 C665 1.502 . S
C667 H653 0.960 . S
C667 H654 0.961 . S
C667 H655 0.959 . S
C667 C665 1.561 . S
C668 C665 1.526 . S
C668 C669 1.396 . S
C668 C673 1.390 . S
C669 C663 1.465 . S
C669 C668 1.396 . S
C669 C670 1.399 . S
C670 H656 0.929 . S
C670 C669 1.399 . S
C670 C671 1.385 . S
C671 H657 0.931 . S
C671 C670 1.385 . S
C671 C672 1.389 . S
C672 C671 1.389 . S
C672 C673 1.387 . S
C673 H658 0.930 . S
C673 C668 1.390 . S
C673 C672 1.387 . S
H674 C686 0.930 . S
H675 C688 0.930 . S
H676 C689 0.930 . S
H677 C693 0.959 . S
H678 C693 0.959 . S
H679 C693 0.961 . S
H680 C694 0.960 . S
H681 C694 0.961 . S
H682 C694 0.959 . S
H683 C697 0.929 . S
H684 C698 0.931 . S
H685 C700 0.930 . S
C686 H674 0.930 . S
C686 C687 1.399 . S
C686 C691 1.399 . S
C687 C686 1.399 . S
C687 C688 1.376 . S
C688 H675 0.930 . S
C688 C687 1.376 . S
C688 C689 1.388 . S
C689 H676 0.930 . S
C689 C688 1.388 . S
C689 C690 1.390 . S
C690 C689 1.390 . S
C690 C691 1.394 . S
C690 C696 1.465 . S
C691 C686 1.399 . S
C691 C690 1.394 . S
C691 C692 1.516 . S
C692 C691 1.516 . S
C692 C693 1.502 . S
C692 C694 1.561 . S
C692 C695 1.526 . S
C693 H677 0.959 . S
C693 H678 0.959 . S
C693 H679 0.961 . S
C693 C692 1.502 . S
C694 H680 0.960 . S
C694 H681 0.961 . S
C694 H682 0.959 . S
C694 C692 1.561 . S
C695 C692 1.526 . S
C695 C696 1.396 . S
C695 C700 1.390 . S
C696 C690 1.465 . S
C696 C695 1.396 . S
C696 C697 1.399 . S
C697 H683 0.929 . S
C697 C696 1.399 . S
C697 C698 1.385 . S
C698 H684 0.931 . S
C698 C697 1.385 . S
C698 C699 1.389 . S
C699 C698 1.389 . S
C699 C700 1.387 . S
C700 H685 0.930 . S
C700 C695 1.390 . S
C700 C699 1.387 . S
H701 C713 0.930 . S
H702 C715 0.930 . S
H703 C716 0.930 . S
H704 C720 0.959 . S
H705 C720 0.959 . S
H706 C720 0.961 . S
H707 C721 0.960 . S
H708 C721 0.961 . S
H709 C721 0.959 . S
H710 C724 0.929 . S
H711 C725 0.931 . S
H712 C727 0.930 . S
C713 H701 0.930 . S
C713 C714 1.399 . S
C713 C718 1.399 . S
C714 C713 1.399 . S
C714 C715 1.376 . S
C715 H702 0.930 . S
C715 C714 1.376 . S
C715 C716 1.388 . S
C716 H703 0.930 . S
C716 C715 1.388 . S
C716 C717 1.390 . S
C717 C716 1.390 . S
C717 C718 1.394 . S
C717 C723 1.465 . S
C718 C713 1.399 . S
C718 C717 1.394 . S
C718 C719 1.516 . S
C719 C718 1.516 . S
C719 C720 1.502 . S
C719 C721 1.561 . S
C719 C722 1.526 . S
C720 H704 0.959 . S
C720 H705 0.959 . S
C720 H706 0.961 . S
C720 C719 1.502 . S
C721 H707 0.960 . S
C721 H708 0.961 . S
C721 H709 0.959 . S
C721 C719 1.561 . S
C722 C719 1.526 . S
C722 C723 1.396 . S
C722 C727 1.390 . S
C723 C717 1.465 . S
C723 C722 1.396 . S
C723 C724 1.399 . S
C724 H710 0.929 . S
C724 C723 1.399 . S
C724 C725 1.385 . S
C725 H711 0.931 . S
C725 C724 1.385 . S
C725 C726 1.389 . S
C726 C725 1.389 . S
C726 C727 1.387 . S
C727 H712 0.930 . S
C727 C722 1.390 . S
C727 C726 1.387 . S
H728 C740 0.930 . S
H729 C742 0.930 . S
H730 C743 0.930 . S
H731 C747 0.959 . S
H732 C747 0.959 . S
H733 C747 0.961 . S
H734 C748 0.960 . S
H735 C748 0.961 . S
H736 C748 0.959 . S
H737 C751 0.929 . S
H738 C752 0.931 . S
H739 C754 0.930 . S
C740 H728 0.930 . S
C740 C741 1.399 . S
C740 C745 1.399 . S
C741 C740 1.399 . S
C741 C742 1.376 . S
C742 H729 0.930 . S
C742 C741 1.376 . S
C742 C743 1.388 . S
C743 H730 0.930 . S
C743 C742 1.388 . S
C743 C744 1.390 . S
C744 C743 1.390 . S
C744 C745 1.394 . S
C744 C750 1.465 . S
C745 C740 1.399 . S
C745 C744 1.394 . S
C745 C746 1.516 . S
C746 C745 1.516 . S
C746 C747 1.502 . S
C746 C748 1.561 . S
C746 C749 1.526 . S
C747 H731 0.959 . S
C747 H732 0.959 . S
C747 H733 0.961 . S
C747 C746 1.502 . S
C748 H734 0.960 . S
C748 H735 0.961 . S
C748 H736 0.959 . S
C748 C746 1.561 . S
C749 C746 1.526 . S
C749 C750 1.396 . S
C749 C754 1.390 . S
C750 C744 1.465 . S
C750 C749 1.396 . S
C750 C751 1.399 . S
C751 H737 0.929 . S
C751 C750 1.399 . S
C751 C752 1.385 . S
C752 H738 0.931 . S
C752 C751 1.385 . S
C752 C753 1.389 . S
C753 C752 1.389 . S
C753 C754 1.387 . S
C754 H739 0.930 . S
C754 C749 1.390 . S
C754 C753 1.387 . S
H755 C767 0.930 . S
H756 C769 0.930 . S
H757 C770 0.930 . S
H758 C774 0.959 . S
H759 C774 0.959 . S
H760 C774 0.961 . S
H761 C775 0.960 . S
H762 C775 0.961 . S
H763 C775 0.959 . S
H764 C778 0.929 . S
H765 C779 0.931 . S
H766 C781 0.930 . S
C767 H755 0.930 . S
C767 C768 1.399 . S
C767 C772 1.399 . S
C768 C767 1.399 . S
C768 C769 1.376 . S
C769 H756 0.930 . S
C769 C768 1.376 . S
C769 C770 1.388 . S
C770 H757 0.930 . S
C770 C769 1.388 . S
C770 C771 1.390 . S
C771 C770 1.390 . S
C771 C772 1.394 . S
C771 C777 1.465 . S
C772 C767 1.399 . S
C772 C771 1.394 . S
C772 C773 1.516 . S
C773 C772 1.516 . S
C773 C774 1.502 . S
C773 C775 1.561 . S
C773 C776 1.526 . S
C774 H758 0.959 . S
C774 H759 0.959 . S
C774 H760 0.961 . S
C774 C773 1.502 . S
C775 H761 0.960 . S
C775 H762 0.961 . S
C775 H763 0.959 . S
C775 C773 1.561 . S
C776 C773 1.526 . S
C776 C777 1.396 . S
C776 C781 1.390 . S
C777 C771 1.465 . S
C777 C776 1.396 . S
C777 C778 1.399 . S
C778 H764 0.929 . S
C778 C777 1.399 . S
C778 C779 1.385 . S
C779 H765 0.931 . S
C779 C778 1.385 . S
C779 C780 1.389 . S
C780 C779 1.389 . S
C780 C781 1.387 . S
C781 H766 0.930 . S
C781 C776 1.390 . S
C781 C780 1.387 . S
H782 C794 0.930 . S
H783 C796 0.930 . S
H784 C797 0.930 . S
H785 C801 0.959 . S
H786 C801 0.959 . S
H787 C801 0.961 . S
H788 C802 0.960 . S
H789 C802 0.961 . S
H790 C802 0.959 . S
H791 C805 0.929 . S
H792 C806 0.931 . S
H793 C808 0.930 . S
C794 H782 0.930 . S
C794 C795 1.399 . S
C794 C799 1.399 . S
C795 C794 1.399 . S
C795 C796 1.376 . S
C796 H783 0.930 . S
C796 C795 1.376 . S
C796 C797 1.388 . S
C797 H784 0.930 . S
C797 C796 1.388 . S
C797 C798 1.390 . S
C798 C797 1.390 . S
C798 C799 1.394 . S
C798 C804 1.465 . S
C799 C794 1.399 . S
C799 C798 1.394 . S
C799 C800 1.516 . S
C800 C799 1.516 . S
C800 C801 1.502 . S
C800 C802 1.561 . S
C800 C803 1.526 . S
C801 H785 0.959 . S
C801 H786 0.959 . S
C801 H787 0.961 . S
C801 C800 1.502 . S
C802 H788 0.960 . S
C802 H789 0.961 . S
C802 H790 0.959 . S
C802 C800 1.561 . S
C803 C800 1.526 . S
C803 C804 1.396 . S
C803 C808 1.390 . S
C804 C798 1.465 . S
C804 C803 1.396 . S
C804 C805 1.399 . S
C805 H791 0.929 . S
C805 C804 1.399 . S
C805 C806 1.385 . S
C806 H792 0.931 . S
C806 C805 1.385 . S
C806 C807 1.389 . S
C807 C806 1.389 . S
C807 C808 1.387 . S
C808 H793 0.930 . S
C808 C803 1.390 . S
C808 C807 1.387 . S
H809 C821 0.930 . S
H810 C823 0.930 . S
H811 C824 0.930 . S
H812 C828 0.959 . S
H813 C828 0.959 . S
H814 C828 0.961 . S
H815 C829 0.960 . S
H816 C829 0.961 . S
H817 C829 0.959 . S
H818 C832 0.929 . S
H819 C833 0.931 . S
H820 C835 0.930 . S
C821 H809 0.930 . S
C821 C822 1.399 . S
C821 C826 1.399 . S
C822 C821 1.399 . S
C822 C823 1.376 . S
C823 H810 0.930 . S
C823 C822 1.376 . S
C823 C824 1.388 . S
C824 H811 0.930 . S
C824 C823 1.388 . S
C824 C825 1.390 . S
C825 C824 1.390 . S
C825 C826 1.394 . S
C825 C831 1.465 . S
C826 C821 1.399 . S
C826 C825 1.394 . S
C826 C827 1.516 . S
C827 C826 1.516 . S
C827 C828 1.502 . S
C827 C829 1.561 . S
C827 C830 1.526 . S
C828 H812 0.959 . S
C828 H813 0.959 . S
C828 H814 0.961 . S
C828 C827 1.502 . S
C829 H815 0.960 . S
C829 H816 0.961 . S
C829 H817 0.959 . S
C829 C827 1.561 . S
C830 C827 1.526 . S
C830 C831 1.396 . S
C830 C835 1.390 . S
C831 C825 1.465 . S
C831 C830 1.396 . S
C831 C832 1.399 . S
C832 H818 0.929 . S
C832 C831 1.399 . S
C832 C833 1.385 . S
C833 H819 0.931 . S
C833 C832 1.385 . S
C833 C834 1.389 . S
C834 C833 1.389 . S
C834 C835 1.387 . S
C835 H820 0.930 . S
C835 C830 1.390 . S
C835 C834 1.387 . S
C213 C116 1.438 . S
C201 N2 1.431 . S
C240 C119 1.439 . S
C228 N15 1.470 . S
C267 C117 1.659 1_655 S
C255 N27 1.662 . S
C294 C118 1.483 . S
C282 N44 1.478 . S
C321 C133 1.660 . S
C309 N1 1.688 . S
C348 C147 1.691 1_556 S
C336 N18 1.653 . S
C363 N28 1.680 . S
C375 C173 1.681 . S
C402 C187 1.513 . S
C390 N41 1.507 . S
C429 C132 1.626 . S
C417 N14 1.615 . S
C444 N31 1.772 . S
C456 C146 1.774 . S
C483 C172 1.724 . S
C471 N40 1.762 . S
C510 C186 1.569 . S
C498 N5 1.583 . S
C525 N53 1.653 . S
C537 C131 1.655 . S
C564 C104 1.635 1_655 S
C552 N70 1.636 . S
C579 N80 1.492 . S
C591 C130 1.518 . S
C606 N92 1.759 . S
C618 C105 1.769 . S
C645 C160 1.719 . S
C633 N57 1.747 . S
C672 C174 1.408 . S
C660 N67 1.437 . S
C699 C144 1.649 . S
C687 N83 1.699 . S
C714 N96 1.697 . S
C726 C158 1.684 . S
C753 C161 1.657 . S
C741 N66 1.672 . S
C780 C175 1.436 . S
C768 N79 1.439 . S
C807 C145 1.647 . S
C795 N93 1.662 . S
C822 N54 1.479 . S
C834 C159 1.480 1_556 S
