# Generated by pormake.
# Topology nom, (4,4)-cn, num edge types: 1
# Building blocks:
#     Node 0, Type 0, BuildingBlock: GIZVER_clean_linker_0, # of connection points: 4
#     Node 1, Type 0, BuildingBlock: GIZVER_clean_linker_0, # of connection points: 4
#     Node 2, Type 0, BuildingBlock: GIZVER_clean_linker_0, # of connection points: 4
#     Node 3, Type 0, BuildingBlock: GIZVER_clean_linker_0, # of connection points: 4
#     Node 4, Type 0, BuildingBlock: GIZVER_clean_linker_0, # of connection points: 4
#     Node 5, Type 0, BuildingBlock: GIZVER_clean_linker_0, # of connection points: 4
#     Node 6, Type 1, BuildingBlock: TATPOV_clean_sbu_0, # of connection points: 4
#     Node 7, Type 1, BuildingBlock: TATPOV_clean_sbu_0, # of connection points: 4
#     Node 8, Type 1, BuildingBlock: TATPOV_clean_sbu_0, # of connection points: 4
#     Node 9, Type 1, BuildingBlock: TATPOV_clean_sbu_0, # of connection points: 4
#     Node 10, Type 1, BuildingBlock: TATPOV_clean_sbu_0, # of connection points: 4
#     Node 11, Type 1, BuildingBlock: TATPOV_clean_sbu_0, # of connection points: 4
#     Edge 12, Type (0, 1), BuildingBlock: UVAHIK_clean_linker_0, # of connection points: 2
#     Edge 13, Type (0, 1), BuildingBlock: UVAHIK_clean_linker_0, # of connection points: 2
#     Edge 14, Type (0, 1), BuildingBlock: UVAHIK_clean_linker_0, # of connection points: 2
#     Edge 15, Type (0, 1), BuildingBlock: UVAHIK_clean_linker_0, # of connection points: 2
#     Edge 16, Type (0, 1), BuildingBlock: UVAHIK_clean_linker_0, # of connection points: 2
#     Edge 17, Type (0, 1), BuildingBlock: UVAHIK_clean_linker_0, # of connection points: 2
#     Edge 18, Type (0, 1), BuildingBlock: UVAHIK_clean_linker_0, # of connection points: 2
#     Edge 19, Type (0, 1), BuildingBlock: UVAHIK_clean_linker_0, # of connection points: 2
#     Edge 20, Type (0, 1), BuildingBlock: UVAHIK_clean_linker_0, # of connection points: 2
#     Edge 21, Type (0, 1), BuildingBlock: UVAHIK_clean_linker_0, # of connection points: 2
#     Edge 22, Type (0, 1), BuildingBlock: UVAHIK_clean_linker_0, # of connection points: 2
#     Edge 23, Type (0, 1), BuildingBlock: UVAHIK_clean_linker_0, # of connection points: 2
#     Edge 24, Type (0, 1), BuildingBlock: UVAHIK_clean_linker_0, # of connection points: 2
#     Edge 25, Type (0, 1), BuildingBlock: UVAHIK_clean_linker_0, # of connection points: 2
#     Edge 26, Type (0, 1), BuildingBlock: UVAHIK_clean_linker_0, # of connection points: 2
#     Edge 27, Type (0, 1), BuildingBlock: UVAHIK_clean_linker_0, # of connection points: 2
#     Edge 28, Type (0, 1), BuildingBlock: UVAHIK_clean_linker_0, # of connection points: 2
#     Edge 29, Type (0, 1), BuildingBlock: UVAHIK_clean_linker_0, # of connection points: 2
#     Edge 30, Type (0, 1), BuildingBlock: UVAHIK_clean_linker_0, # of connection points: 2
#     Edge 31, Type (0, 1), BuildingBlock: UVAHIK_clean_linker_0, # of connection points: 2
#     Edge 32, Type (0, 1), BuildingBlock: UVAHIK_clean_linker_0, # of connection points: 2
#     Edge 33, Type (0, 1), BuildingBlock: UVAHIK_clean_linker_0, # of connection points: 2
#     Edge 34, Type (0, 1), BuildingBlock: UVAHIK_clean_linker_0, # of connection points: 2
#     Edge 35, Type (0, 1), BuildingBlock: UVAHIK_clean_linker_0, # of connection points: 2
# Relax obj value: 0.020
# Max RMSD: 0.118
# Mean RMSD: 0.090
data_MOF--net-nom--node1-TATPOV_clean_sbu_0--node2-GIZVER_clean_linker_0--edge1-UVAHIK_clean_linker_0
_symmetry_space_group_name_H-M    P1
_symmetry_Int_Tables_number       1
_symmetry_cell_setting            triclinic
loop_
_symmetry_equiv_pos_as_xyz
'x, y, z'
_cell_length_a     59.048347
_cell_length_b     59.76484
_cell_length_c     59.248638
_cell_angle_alpha  90.703115
_cell_angle_beta   90.623859
_cell_angle_gamma 120.07366
loop_
_atom_site_label
_atom_site_type_symbol
_atom_site_fract_x
_atom_site_fract_y
_atom_site_fract_z
_atom_type_partial_charge
H0 H 0.97155 0.50519 0.34793 0.0
H1 H 0.99327 0.50288 0.27939 0.0
H2 H 0.91956 0.4427 0.30318 0.0
H3 H 1.00463 0.54374 0.3315 0.0
H4 H 0.00738 0.54472 0.30162 0.0
H5 H 0.02697 0.52204 0.35335 0.0
H6 H 0.10663 0.55651 0.33121 0.0
H7 H 0.04732 0.55239 0.28651 0.0
C8 C 0.96755 0.49507 0.33179 0.0
C9 C 0.94368 0.47194 0.32804 0.0
C10 C 0.98542 0.50635 0.31426 0.0
C11 C 0.97991 0.49371 0.29312 0.0
C12 C 0.95628 0.4705 0.2891 0.0
C13 C 0.93855 0.45955 0.30675 0.0
C14 C 0.00757 0.53388 0.31671 0.0
C15 C 0.03393 0.53583 0.31933 0.0
C16 C 0.04138 0.53038 0.34025 0.0
C17 C 0.06765 0.53761 0.34485 0.0
C18 C 0.08603 0.54928 0.32773 0.0
C19 C 0.07876 0.55427 0.30666 0.0
C20 C 0.05262 0.54717 0.30235 0.0
H21 H 0.46681 0.98521 0.5051 0.0
H22 H 0.4915 0.01145 0.43795 0.0
H23 H 0.48469 0.93998 0.45933 0.0
H24 H 0.46714 0.02284 0.49323 0.0
H25 H 0.46282 0.02392 0.46348 0.0
H26 H 0.5164 0.04276 0.50745 0.0
H27 H 0.56375 0.11809 0.4793 0.0
H28 H 0.49214 0.06298 0.44592 0.0
C29 C 0.47412 0.98282 0.48911 0.0
C30 C 0.47519 0.9602 0.48448 0.0
C31 C 0.4806 1.00164 0.47253 0.0
C32 C 0.48787 0.99761 0.45106 0.0
C33 C 0.48895 0.97515 0.44608 0.0
C34 C 0.48383 0.95728 0.4632 0.0
C35 C 0.47654 0.02432 0.47672 0.0
C36 C 0.502 0.04969 0.4763 0.0
C37 C 0.52034 0.05642 0.49411 0.0
C38 C 0.54282 0.08111 0.49541 0.0
C39 C 0.54728 0.09853 0.47801 0.0
C40 C 0.52922 0.09214 0.46013 0.0
C41 C 0.50655 0.06768 0.45934 0.0
H42 H 0.43087 0.48642 0.61769 0.0
H43 H 0.46362 0.50501 0.68502 0.0
H44 H 0.45708 0.56202 0.64619 0.0
H45 H 0.4303 0.45319 0.64017 0.0
H46 H 0.4349 0.45878 0.67003 0.0
H47 H 0.47337 0.47424 0.61622 0.0
H48 H 0.53325 0.46303 0.64642 0.0
H49 H 0.47028 0.45651 0.68682 0.0
C50 C 0.44025 0.50043 0.63138 0.0
C51 C 0.44322 0.52515 0.62962 0.0
C52 C 0.44849 0.49347 0.65111 0.0
C53 C 0.459 0.51118 0.66937 0.0
C54 C 0.46181 0.53594 0.66796 0.0
C55 C 0.45501 0.54303 0.64757 0.0
C56 C 0.44407 0.46646 0.65349 0.0
C57 C 0.46955 0.46646 0.65192 0.0
C58 C 0.48203 0.47079 0.63105 0.0
C59 C 0.50526 0.47001 0.62915 0.0
C60 C 0.51605 0.46497 0.64824 0.0
C61 C 0.50344 0.45974 0.66904 0.0
C62 C 0.48028 0.46079 0.67086 0.0
H63 H 0.95759 0.41668 0.76997 0.0
H64 H 0.98284 0.44255 0.8387 0.0
H65 H 0.90968 0.43245 0.81401 0.0
H66 H 0.99561 0.41673 0.78485 0.0
H67 H 1.0005 0.41862 0.81478 0.0
H68 H 0.01662 0.45686 0.76212 0.0
H69 H 0.08527 0.5212 0.79158 0.0
H70 H 0.03264 0.45872 0.8335 0.0
C71 C 0.95471 0.42352 0.78611 0.0
C72 C 0.93167 0.42438 0.78972 0.0
C73 C 0.97364 0.43073 0.80358 0.0
C74 C 0.96899 0.43816 0.82486 0.0
C75 C 0.94613 0.43922 0.82849 0.0
C76 C 0.92794 0.43286 0.81077 0.0
C77 C 0.99779 0.42864 0.80018 0.0
C78 C 0.02171 0.45508 0.79815 0.0
C79 C 0.02857 0.46676 0.77695 0.0
C80 C 0.05122 0.4909 0.77481 0.0
C81 C 0.06699 0.50333 0.79386 0.0
C82 C 0.06079 0.49195 0.81516 0.0
C83 C 0.03776 0.46787 0.81723 0.0
H84 H 0.61245 0.06328 -0.00454 0.0
H85 H 0.5685 0.02548 0.9345 0.0
H86 H 0.58418 0.10181 0.95262 0.0
H87 H 0.60893 0.02327 0.98343 0.0
H88 H 0.60155 0.01467 0.95417 0.0
H89 H 0.56779 0.01054 0.00921 0.0
H90 H 0.507 0.93241 -0.00447 0.0
H91 H 0.56574 0.9727 0.94602 0.0
C92 C 0.60125 0.06307 0.98077 0.0
C93 C 0.59955 0.08513 0.97582 0.0
C94 C 0.58984 0.04133 0.96596 0.0
C95 C 0.57651 0.04178 0.9463 0.0
C96 C 0.57418 0.06348 0.94153 0.0
C97 C 0.58533 0.08473 0.95657 0.0
C98 C 0.59394 0.01867 0.96989 0.0
C99 C 0.56883 0.99485 0.97635 0.0
C100 C 0.55822 0.99402 -0.0023 0.0
C101 C 0.53569 0.97161 0.00441 0.0
C102 C 0.52399 0.94996 -0.01008 0.0
C103 C 0.53495 0.94986 0.9691 0.0
C104 C 0.55702 0.97265 0.96203 0.0
H105 H 0.57268 0.54891 0.13407 0.0
H106 H 0.53687 0.53776 0.19887 0.0
H107 H 0.55344 0.48071 0.17145 0.0
H108 H 0.57181 0.58428 0.15205 0.0
H109 H 0.56822 0.58289 0.18197 0.0
H110 H 0.52777 0.55963 0.12798 0.0
H111 H 0.47081 0.57814 0.15243 0.0
H112 H 0.53425 0.5889 0.196 0.0
C113 C 0.5638 0.53686 0.14853 0.0
C114 C 0.56321 0.51311 0.15018 0.0
C115 C 0.55423 0.54578 0.16604 0.0
C116 C 0.54351 0.53051 0.18511 0.0
C117 C 0.54283 0.50677 0.18706 0.0
C118 C 0.55229 0.49811 0.16935 0.0
C119 C 0.55845 0.57288 0.16579 0.0
C120 C 0.53301 0.57279 0.16276 0.0
C121 C 0.51985 0.56558 0.14172 0.0
C122 C 0.49722 0.5672 0.13806 0.0
C123 C 0.48752 0.57563 0.15567 0.0
C124 C 0.50087 0.58378 0.17652 0.0
C125 C 0.52355 0.58213 0.18008 0.0
Zn126 Zn 0.67165 0.45469 0.40729 0.0
Zn127 Zn 0.64282 0.40299 0.40596 0.0
O128 O 0.68143 0.41131 0.40414 0.0
O129 O 0.70492 0.45378 0.40423 0.0
O130 O 0.62197 0.36386 0.40602 0.0
O131 O 0.65819 0.45572 0.43804 0.0
O132 O 0.63208 0.41349 0.43552 0.0
C133 C 0.70364 0.43201 0.40349 0.0
C134 C 0.63308 0.43425 0.37082 0.0
O135 O 0.6281 0.41242 0.37841 0.0
O136 O 0.65092 0.45496 0.38006 0.0
C137 C 0.62913 0.3501 0.39505 0.0
O138 O 0.65045 0.36155 0.38306 0.0
C139 C 0.6401 0.43498 0.44606 0.0
Zn140 Zn 0.243 0.69054 0.57618 0.0
Zn141 Zn 0.26968 0.66492 0.57434 0.0
O142 O 0.29762 0.70386 0.57471 0.0
O143 O 0.27625 0.72494 0.57931 0.0
O144 O 0.29186 0.64811 0.57251 0.0
O145 O 0.22517 0.67034 0.6039 0.0
O146 O 0.24742 0.6498 0.60252 0.0
C147 C 0.29762 0.72507 0.57729 0.0
C148 C 0.2308 0.65726 0.53665 0.0
O149 O 0.2464 0.65125 0.54613 0.0
O150 O 0.22709 0.67466 0.54529 0.0
C151 C 0.28229 0.62374 0.57161 0.0
O152 O 0.25679 0.60852 0.57229 0.0
C153 C 0.23024 0.65366 0.61173 0.0
Zn154 Zn 0.55781 0.22762 0.71783 0.0
Zn155 Zn 0.60893 0.25678 0.72924 0.0
O156 O 0.59502 0.28242 0.73043 0.0
O157 O 0.55278 0.25818 0.72317 0.0
O158 O 0.64766 0.27964 0.73553 0.0
O159 O 0.55445 0.20423 0.7436 0.0
O160 O 0.59575 0.22952 0.75396 0.0
C161 C 0.57241 0.28005 0.72813 0.0
C162 C 0.59123 0.22749 0.68351 0.0
O163 O 0.60874 0.24087 0.69837 0.0
O164 O 0.56747 0.22041 0.68699 0.0
C165 C 0.66314 0.27083 0.73309 0.0
O166 O 0.6534 0.24628 0.72762 0.0
C167 C 0.57353 0.20936 0.75684 0.0
Zn168 Zn 0.35932 0.58218 0.89521 0.0
Zn169 Zn 0.37776 0.63175 0.89981 0.0
O170 O 0.338 0.61739 0.89374 0.0
O171 O 0.32521 0.57724 0.88326 0.0
O172 O 0.39305 0.67024 0.90505 0.0
O173 O 0.36399 0.57808 0.92811 0.0
O174 O 0.38708 0.62058 0.92982 0.0
C175 C 0.32025 0.59535 0.88611 0.0
C176 C 0.40207 0.61114 0.86633 0.0
O177 O 0.3987 0.62964 0.87288 0.0
O178 O 0.38865 0.58888 0.87448 0.0
C179 C 0.39871 0.68652 0.88941 0.0
O180 O 0.39375 0.67826 0.8683 0.0
C181 C 0.37911 0.59873 0.93896 0.0
Zn182 Zn 0.79486 0.44902 0.06199 0.0
Zn183 Zn 0.76064 0.39847 0.05906 0.0
O184 O 0.73686 0.4144 0.06498 0.0
O185 O 0.76582 0.45574 0.06972 0.0
O186 O 0.73568 0.36014 0.05381 0.0
O187 O 0.80545 0.4506 0.02989 0.0
O188 O 0.78136 0.40813 0.02931 0.0
C189 C 0.74224 0.43757 0.06923 0.0
C190 C 0.80522 0.41883 0.09371 0.0
O191 O 0.78357 0.40021 0.08617 0.0
O192 O 0.81462 0.44124 0.08572 0.0
C193 C 0.72801 0.3429 0.06882 0.0
O194 O 0.73549 0.34987 0.08995 0.0
C195 C 0.79759 0.4291 0.01985 0.0
Zn196 Zn 0.34776 0.79996 0.21436 0.0
Zn197 Zn 0.37462 0.77482 0.21804 0.0
O198 O 0.33533 0.74604 0.2167 0.0
O199 O 0.31353 0.76676 0.21275 0.0
O200 O 0.3943 0.75513 0.22003 0.0
O201 O 0.36644 0.81644 0.18595 0.0
O202 O 0.38996 0.79743 0.18993 0.0
C203 C 0.31367 0.74575 0.2144 0.0
C204 C 0.38087 0.81418 0.25448 0.0
O205 O 0.38655 0.79767 0.24669 0.0
O206 O 0.36432 0.81812 0.24415 0.0
C207 C 0.38465 0.73302 0.22895 0.0
O208 O 0.36106 0.72234 0.23731 0.0
C209 C 0.38468 0.8128 0.17937 0.0
C210 C 0.11722 0.59682 0.29851 0.0
C211 C 0.09954 0.57143 0.29125 0.0
C212 C 0.13805 0.61315 0.28506 0.0
C213 C 0.17101 0.64776 0.24796 0.0
H214 H 0.2187 0.62562 0.22668 0.0
C215 C 0.26563 0.72028 0.20643 0.0
C216 C 0.28836 0.72127 0.21513 0.0
C217 C 0.24103 0.69891 0.21014 0.0
C218 C 0.2055 0.63203 0.23244 0.0
H219 H 0.08937 0.54299 0.26435 0.0
H220 H 0.12646 0.57178 0.24057 0.0
H221 H 0.17753 0.59433 0.24412 0.0
H222 H 0.30327 0.69989 0.23319 0.0
H223 H 0.2601 0.66271 0.24027 0.0
H224 H 0.1991 0.68554 0.23747 0.0
C225 C 0.124 0.57895 0.2567 0.0
C226 C 0.18185 0.61408 0.2422 0.0
C227 C 0.1028 0.5626 0.27014 0.0
C228 C 0.28608 0.69967 0.22632 0.0
C229 C 0.26134 0.67832 0.23028 0.0
C230 C 0.19445 0.66559 0.23819 0.0
C231 C 0.1418 0.60439 0.2641 0.0
C232 C 0.16474 0.62199 0.25059 0.0
C233 C 0.23849 0.67814 0.22292 0.0
C234 C 0.21228 0.65812 0.23073 0.0
H235 H 0.11505 0.60395 0.31478 0.0
H236 H 0.15162 0.63252 0.29135 0.0
H237 H 0.15809 0.65434 0.25414 0.0
H238 H 0.26678 0.73644 0.19738 0.0
H239 H 0.22388 0.69911 0.20373 0.0
C240 C 0.5569 0.12756 0.43386 0.0
C241 C 0.53282 0.11275 0.44447 0.0
C242 C 0.5627 0.15059 0.42334 0.0
C243 C 0.54902 0.20271 0.43077 0.0
H244 H 0.58747 0.22883 0.37557 0.0
C245 C 0.58924 0.3088 0.40587 0.0
C246 C 0.61434 0.32156 0.39663 0.0
C247 C 0.57582 0.28195 0.40825 0.0
C248 C 0.57694 0.22193 0.39114 0.0
H249 H 0.49542 0.10957 0.45147 0.0
H250 H 0.50563 0.15003 0.43319 0.0
H251 H 0.56972 0.18343 0.38492 0.0
H252 H 0.64492 0.31608 0.38234 0.0
H253 H 0.62207 0.26954 0.38721 0.0
H254 H 0.55733 0.24123 0.4378 0.0
C255 C 0.51995 0.14376 0.43294 0.0
C256 C 0.56663 0.19587 0.39638 0.0
C257 C 0.51401 0.12052 0.44319 0.0
C258 C 0.62555 0.30684 0.38945 0.0
C259 C 0.6123 0.28004 0.39209 0.0
C260 C 0.5596 0.2288 0.42571 0.0
C261 C 0.54466 0.15941 0.42354 0.0
C262 C 0.55286 0.18609 0.4164 0.0
C263 C 0.58734 0.26722 0.40172 0.0
C264 C 0.57408 0.2389 0.406 0.0
H265 H 0.57175 0.122 0.43474 0.0
H266 H 0.58196 0.16232 0.41637 0.0
H267 H 0.53888 0.19582 0.44653 0.0
H268 H 0.57995 0.31958 0.41136 0.0
H269 H 0.55645 0.27277 0.41532 0.0
C270 C 0.40311 0.51517 0.60725 0.0
C271 C 0.4301 0.53133 0.61127 0.0
C272 C 0.3888 0.52426 0.59543 0.0
C273 C 0.39256 0.58652 0.58803 0.0
H274 H 0.32766 0.54613 0.55397 0.0
C275 C 0.32678 0.62898 0.56684 0.0
C276 C 0.29986 0.61277 0.57028 0.0
C277 C 0.34363 0.61892 0.56661 0.0
C278 C 0.34571 0.55763 0.56354 0.0
H279 H 0.46382 0.5684 0.60389 0.0
H280 H 0.43899 0.58411 0.58276 0.0
H281 H 0.3562 0.52814 0.56104 0.0
H282 H 0.26942 0.57312 0.57553 0.0
H283 H 0.29893 0.55567 0.57572 0.0
H284 H 0.38181 0.61555 0.59138 0.0
C285 C 0.42871 0.56471 0.58928 0.0
C286 C 0.36209 0.54735 0.56751 0.0
C287 C 0.44297 0.55567 0.6012 0.0
C288 C 0.29006 0.58615 0.57287 0.0
C289 C 0.30697 0.5761 0.57279 0.0
C290 C 0.37622 0.59673 0.58412 0.0
C291 C 0.40128 0.54965 0.58734 0.0
C292 C 0.38552 0.56153 0.58014 0.0
C293 C 0.33403 0.59244 0.56999 0.0
C294 C 0.35237 0.58227 0.57216 0.0
H295 H 0.39264 0.49641 0.61499 0.0
H296 H 0.36771 0.51216 0.59434 0.0
H297 H 0.41012 0.59779 0.59827 0.0
H298 H 0.33494 0.64954 0.56451 0.0
H299 H 0.36428 0.632 0.56401 0.0
C300 C 0.89874 0.38719 0.76593 0.0
C301 C 0.90944 0.41302 0.77328 0.0
C302 C 0.87359 0.37388 0.75616 0.0
C303 C 0.81264 0.3753 0.76047 0.0
H304 H 0.78604 0.31952 0.71584 0.0
C305 C 0.70252 0.31506 0.73823 0.0
C306 C 0.69184 0.28824 0.73527 0.0
C307 C 0.72962 0.33153 0.7398 0.0
C308 C 0.79316 0.33493 0.72847 0.0
H309 H 0.9036 0.44601 0.77405 0.0
H310 H 0.85997 0.423 0.75654 0.0
H311 H 0.83329 0.34685 0.722 0.0
H312 H 0.70133 0.25771 0.73162 0.0
H313 H 0.74854 0.28636 0.73492 0.0
H314 H 0.77275 0.36307 0.76754 0.0
C315 C 0.87062 0.41278 0.75885 0.0
C316 C 0.82023 0.35064 0.73191 0.0
C317 C 0.89567 0.42602 0.76867 0.0
C318 C 0.7089 0.27829 0.73388 0.0
C319 C 0.73601 0.29475 0.73557 0.0
C320 C 0.78567 0.35959 0.75711 0.0
C321 C 0.85878 0.38623 0.75353 0.0
C322 C 0.83027 0.3709 0.74809 0.0
C323 C 0.74672 0.32159 0.73859 0.0
C324 C 0.77554 0.33904 0.74122 0.0
H325 H 0.90883 0.37664 0.76949 0.0
H326 H 0.86503 0.35343 0.75232 0.0
H327 H 0.81964 0.39033 0.77345 0.0
H328 H 0.68996 0.32341 0.73917 0.0
H329 H 0.73717 0.35213 0.7418 0.0
C330 C 0.52007 0.90287 0.96839 0.0
C331 C 0.52445 0.92487 0.95653 0.0
C332 C 0.50659 0.8784 0.95824 0.0
C333 C 0.48602 0.8407 0.90593 0.0
H334 H 0.42905 0.79127 0.94236 0.0
C335 C 0.41793 0.73292 0.87802 0.0
C336 C 0.41171 0.71458 0.89501 0.0
C337 C 0.43074 0.75942 0.88345 0.0
C338 C 0.44499 0.80471 0.93203 0.0
H339 H 0.51984 0.93871 0.92417 0.0
H340 H 0.49632 0.89535 0.90603 0.0
H341 H 0.4544 0.83625 0.95491 0.0
H342 H 0.41423 0.70983 0.93103 0.0
H343 H 0.43675 0.75573 0.9404 0.0
H344 H 0.47711 0.80883 0.8834 0.0
C345 C 0.50317 0.89731 0.92337 0.0
C346 C 0.45943 0.83052 0.93918 0.0
C347 C 0.51664 0.92204 0.93368 0.0
C348 C 0.41854 0.72335 0.91751 0.0
C349 C 0.43134 0.74974 0.92291 0.0
C350 C 0.47164 0.81467 0.89881 0.0
C351 C 0.49732 0.87523 0.93587 0.0
C352 C 0.48046 0.84867 0.92651 0.0
C353 C 0.43757 0.76815 0.90599 0.0
C354 C 0.45133 0.79626 0.91209 0.0
H355 H 0.52638 0.90452 0.98587 0.0
H356 H 0.5029 0.86179 0.9681 0.0
H357 H 0.50217 0.85432 0.89588 0.0
H358 H 0.41295 0.72683 0.8605 0.0
H359 H 0.43505 0.77303 0.87002 0.0
C360 C 0.60285 0.52399 0.12741 0.0
C361 C 0.57756 0.50558 0.1341 0.0
C362 C 0.61873 0.51623 0.11653 0.0
C363 C 0.6206 0.461 0.08864 0.0
H364 H 0.69045 0.49444 0.11537 0.0
C365 C 0.69511 0.42457 0.0764 0.0
C366 C 0.72137 0.4439 0.07369 0.0
C367 C 0.6761 0.43127 0.08164 0.0
C368 C 0.67114 0.48509 0.1075 0.0
H369 H 0.54831 0.4648 0.13274 0.0
H370 H 0.57624 0.4512 0.11413 0.0
H371 H 0.66002 0.50836 0.12669 0.0
H372 H 0.74791 0.48544 0.07339 0.0
H373 H 0.71504 0.49691 0.08219 0.0
H374 H 0.63194 0.43748 0.06962 0.0
C375 C 0.58379 0.47164 0.11726 0.0
C376 C 0.65369 0.49315 0.11393 0.0
C377 C 0.56784 0.47943 0.12808 0.0
C378 C 0.72799 0.46997 0.07566 0.0
C379 C 0.70912 0.47661 0.08081 0.0
C380 C 0.63818 0.45289 0.08215 0.0
C381 C 0.60978 0.48987 0.11218 0.0
C382 C 0.62826 0.48138 0.1045 0.0
C383 C 0.68305 0.45741 0.08426 0.0
C384 C 0.66374 0.46503 0.0914 0.0
H385 H 0.61108 0.54426 0.13186 0.0
H386 H 0.63848 0.53083 0.11238 0.0
H387 H 0.60115 0.45153 0.08106 0.0
H388 H 0.68936 0.40431 0.07492 0.0
H389 H 0.65617 0.41602 0.08427 0.0
C390 C 0.4507 0.91248 0.492 0.0
C391 C 0.46412 0.93817 0.50047 0.0
C392 C 0.43881 0.8917 0.50649 0.0
C393 C 0.39997 0.87012 0.55279 0.0
H394 H 0.417 0.8155 0.55705 0.0
C395 C 0.32473 0.77195 0.58774 0.0
C396 C 0.32227 0.75009 0.57635 0.0
C397 C 0.34663 0.79633 0.58463 0.0
C398 C 0.41181 0.83044 0.55596 0.0
H399 H 0.47553 0.96167 0.5313 0.0
H400 H 0.45298 0.92495 0.55657 0.0
H401 H 0.44772 0.85633 0.53969 0.0
H402 H 0.34112 0.73631 0.55344 0.0
H403 H 0.37853 0.77884 0.54689 0.0
H404 H 0.36314 0.8439 0.56682 0.0
C405 C 0.4526 0.92135 0.53857 0.0
C406 C 0.42961 0.85393 0.54631 0.0
C407 C 0.46523 0.9423 0.52405 0.0
C408 C 0.34261 0.75285 0.56253 0.0
C409 C 0.3642 0.77734 0.55892 0.0
C410 C 0.3819 0.84647 0.56195 0.0
C411 C 0.4393 0.89595 0.5298 0.0
C412 C 0.42354 0.87368 0.54423 0.0
C413 C 0.36624 0.79956 0.56951 0.0
C414 C 0.38721 0.82598 0.56309 0.0
H415 H 0.44835 0.9082 0.47405 0.0
H416 H 0.42814 0.87224 0.49939 0.0
H417 H 0.39476 0.88501 0.55097 0.0
H418 H 0.30945 0.77027 0.59877 0.0
H419 H 0.34775 0.81272 0.59366 0.0
C420 C 0.49537 0.42538 0.69663 0.0
C421 C 0.51272 0.44939 0.68733 0.0
C422 C 0.50495 0.41197 0.70894 0.0
C423 C 0.52932 0.38725 0.73721 0.0
H424 H 0.58636 0.38756 0.70509 0.0
C425 C 0.59037 0.32809 0.73168 0.0
C426 C 0.56882 0.30279 0.73063 0.0
C427 C 0.58655 0.3494 0.73231 0.0
C428 C 0.57082 0.38758 0.71463 0.0
H429 H 0.55337 0.47951 0.68565 0.0
H430 H 0.57011 0.4564 0.70762 0.0
H431 H 0.57409 0.41979 0.69669 0.0
H432 H 0.52637 0.28007 0.73048 0.0
H433 H 0.51978 0.31703 0.73146 0.0
H434 H 0.52529 0.35409 0.7543 0.0
C435 C 0.54918 0.44755 0.70488 0.0
C436 C 0.56378 0.40614 0.70985 0.0
C437 C 0.5396 0.46087 0.69245 0.0
C438 C 0.54344 0.29928 0.73114 0.0
C439 C 0.53964 0.32051 0.73194 0.0
C440 C 0.53632 0.36861 0.74194 0.0
C441 C 0.53208 0.42239 0.71231 0.0
C442 C 0.54241 0.40573 0.72057 0.0
C443 C 0.5611 0.34582 0.73215 0.0
C444 C 0.55662 0.36808 0.73017 0.0
H445 H 0.47459 0.41595 0.69277 0.0
H446 H 0.49118 0.39259 0.71425 0.0
H447 H 0.51308 0.38664 0.74606 0.0
H448 H 0.61018 0.33145 0.73139 0.0
H449 H 0.60348 0.36869 0.73261 0.0
C450 C 0.09664 0.53096 0.83566 0.0
C451 C 0.08055 0.50391 0.83394 0.0
C452 C 0.12007 0.54208 0.84818 0.0
C453 C 0.16751 0.52231 0.86609 0.0
H454 H 0.20931 0.5949 0.88301 0.0
C455 C 0.27829 0.57167 0.86452 0.0
C456 C 0.29327 0.58977 0.88156 0.0
C457 C 0.25165 0.56291 0.86206 0.0
C458 C 0.19786 0.57451 0.87865 0.0
H459 H 0.07457 0.46763 0.84703 0.0
H460 H 0.11422 0.48706 0.87024 0.0
H461 H 0.16216 0.57556 0.87716 0.0
H462 H 0.29246 0.61376 0.90886 0.0
H463 H 0.24535 0.59783 0.905 0.0
H464 H 0.20284 0.52095 0.86817 0.0
C465 C 0.10969 0.49969 0.86068 0.0
C466 C 0.17079 0.56342 0.87504 0.0
C467 C 0.08656 0.4885 0.84766 0.0
C468 C 0.28132 0.59988 0.89549 0.0
C469 C 0.25436 0.59071 0.89329 0.0
C470 C 0.19433 0.53323 0.87003 0.0
C471 C 0.12766 0.52644 0.85985 0.0
C472 C 0.15535 0.53733 0.86797 0.0
C473 C 0.23907 0.57153 0.87692 0.0
C474 C 0.21006 0.55968 0.8755 0.0
H475 H 0.09214 0.54352 0.82594 0.0
H476 H 0.13305 0.56274 0.84713 0.0
H477 H 0.15669 0.50229 0.86043 0.0
H478 H 0.28711 0.56381 0.85335 0.0
H479 H 0.24079 0.54891 0.8487 0.0
C480 C 0.61288 0.11059 0.01277 0.0
C481 C 0.61427 0.10971 0.98911 0.0
C482 C 0.62427 0.13452 0.02444 0.0
C483 C 0.6403 0.20099 0.01481 0.0
H484 H 0.68966 0.22213 0.06516 0.0
C485 C 0.70606 0.3078 0.03932 0.0
C486 C 0.71222 0.31514 0.06218 0.0
C487 C 0.69228 0.28172 0.03278 0.0
C488 C 0.67554 0.21639 0.05138 0.0
H489 H 0.63058 0.133 0.95944 0.0
H490 H 0.64988 0.17431 0.97962 0.0
H491 H 0.66938 0.17773 0.04999 0.0
H492 H 0.70838 0.30066 0.09616 0.0
H493 H 0.6839 0.25499 0.0847 0.0
H494 H 0.64623 0.23929 0.01593 0.0
C495 C 0.63961 0.15671 0.98913 0.0
C496 C 0.66399 0.19099 0.0427 0.0
C497 C 0.62853 0.13303 0.97759 0.0
C498 C 0.70397 0.29569 0.07839 0.0
C499 C 0.69008 0.2695 0.07182 0.0
C500 C 0.65158 0.22616 0.02355 0.0
C501 C 0.63703 0.15777 0.01256 0.0
C502 C 0.64683 0.18332 0.02392 0.0
C503 C 0.68412 0.26219 0.0489 0.0
C504 C 0.66993 0.23446 0.04152 0.0
H505 H 0.60209 0.09291 0.02206 0.0
H506 H 0.62217 0.13487 0.04256 0.0
H507 H 0.62674 0.19542 0.00058 0.0
H508 H 0.71223 0.32221 0.02635 0.0
H509 H 0.68852 0.2769 0.01494 0.0
C510 C 0.46664 0.58719 0.19832 0.0
C511 C 0.49305 0.59774 0.19263 0.0
C512 C 0.45792 0.60268 0.20847 0.0
C513 C 0.47288 0.66906 0.20645 0.0
H514 H 0.41984 0.64923 0.25195 0.0
C515 C 0.42645 0.73205 0.22522 0.0
C516 C 0.39946 0.71904 0.22928 0.0
C517 C 0.44019 0.71861 0.22486 0.0
C518 C 0.43447 0.65498 0.23905 0.0
H519 H 0.53133 0.63223 0.19434 0.0
H520 H 0.51607 0.6594 0.21202 0.0
H521 H 0.43995 0.62267 0.24527 0.0
H522 H 0.36577 0.68174 0.23638 0.0
H523 H 0.38937 0.65814 0.23485 0.0
H524 H 0.46656 0.7004 0.19916 0.0
C525 C 0.50215 0.63915 0.20865 0.0
C526 C 0.44612 0.63984 0.23538 0.0
C527 C 0.51092 0.62355 0.19876 0.0
C528 C 0.38659 0.69237 0.23329 0.0
C529 C 0.40023 0.67885 0.2326 0.0
C530 C 0.46101 0.68397 0.20987 0.0
C531 C 0.4754 0.6291 0.21282 0.0
C532 C 0.46522 0.64657 0.21885 0.0
C533 C 0.42721 0.69173 0.22821 0.0
C534 C 0.44135 0.67696 0.22599 0.0
H535 H 0.45248 0.56735 0.19367 0.0
H536 H 0.43719 0.59442 0.21138 0.0
H537 H 0.4872 0.67448 0.1933 0.0
H538 H 0.43699 0.75266 0.22232 0.0
H539 H 0.46102 0.72935 0.22189 0.0
C540 C 0.90415 0.43663 0.34714 0.0
C541 C 0.92216 0.46312 0.34459 0.0
C542 C 0.88114 0.42861 0.35915 0.0
C543 C 0.82675 0.42127 0.36667 0.0
H544 H 0.82226 0.45791 0.41932 0.0
C545 C 0.75245 0.45402 0.40366 0.0
C546 C 0.72815 0.43103 0.40168 0.0
C547 C 0.77574 0.45375 0.40108 0.0
C548 C 0.82318 0.44745 0.40463 0.0
H549 H 0.93052 0.50186 0.35377 0.0
H550 H 0.89094 0.48792 0.37494 0.0
H551 H 0.86483 0.4649 0.40774 0.0
H552 H 0.70936 0.38957 0.3959 0.0
H553 H 0.75033 0.38914 0.39126 0.0
H554 H 0.78526 0.40472 0.36294 0.0
C555 C 0.8946 0.47329 0.36779 0.0
C556 C 0.84754 0.45142 0.39803 0.0
C557 C 0.91744 0.4813 0.35566 0.0
C558 C 0.72775 0.40762 0.39748 0.0
C559 C 0.75119 0.40738 0.39476 0.0
C560 C 0.80236 0.41732 0.37325 0.0
C561 C 0.87579 0.44691 0.36906 0.0
C562 C 0.84971 0.43904 0.37854 0.0
C563 C 0.77544 0.43051 0.39641 0.0
C564 C 0.80042 0.43106 0.39184 0.0
H565 H 0.90736 0.4221 0.3391 0.0
H566 H 0.86716 0.40813 0.3601 0.0
H567 H 0.82777 0.41161 0.35145 0.0
H568 H 0.75355 0.47242 0.40693 0.0
H569 H 0.79401 0.47198 0.40205 0.0
C570 C 0.09945 0.53513 0.37184 0.0
C571 C 0.07719 0.53755 0.36825 0.0
C572 C 0.11302 0.54247 0.39252 0.0
C573 C 0.12134 0.58605 0.441 0.0
H574 H 0.17291 0.56775 0.45978 0.0
C575 C 0.20524 0.65301 0.50143 0.0
C576 C 0.21478 0.64205 0.51695 0.0
C577 C 0.18781 0.63781 0.48416 0.0
C578 C 0.15839 0.57293 0.45508 0.0
H579 H 0.04975 0.54617 0.38492 0.0
H580 H 0.07188 0.55651 0.42134 0.0
H581 H 0.14039 0.54164 0.43106 0.0
H582 H 0.21385 0.60674 0.52658 0.0
H583 H 0.18244 0.57989 0.49724 0.0
H584 H 0.13828 0.61639 0.46582 0.0
C585 C 0.08002 0.55073 0.4077 0.0
C586 C 0.13988 0.5581 0.43827 0.0
C587 C 0.06689 0.54416 0.3868 0.0
C588 C 0.20699 0.61574 0.51464 0.0
C589 C 0.189 0.60036 0.49774 0.0
C590 C 0.13937 0.60043 0.45816 0.0
C591 C 0.10418 0.55161 0.41043 0.0
C592 C 0.12147 0.56482 0.43057 0.0
C593 C 0.17885 0.6111 0.48242 0.0
C594 C 0.15863 0.59456 0.46505 0.0
H595 H 0.10748 0.52924 0.35818 0.0
H596 H 0.13139 0.54261 0.39376 0.0
H597 H 0.10794 0.59233 0.43547 0.0
H598 H 0.21112 0.67331 0.50275 0.0
H599 H 0.18122 0.64708 0.4723 0.0
C600 C 0.54731 0.08487 0.5376 0.0
C601 C 0.55926 0.09069 0.51641 0.0
C602 C 0.56098 0.09928 0.55681 0.0
C603 C 0.5967 0.13248 0.59615 0.0
H604 H 0.61421 0.20253 0.58199 0.0
C605 C 0.61818 0.21175 0.6642 0.0
C606 C 0.59805 0.21782 0.6632 0.0
C607 C 0.62186 0.19867 0.64615 0.0
C608 C 0.60997 0.18322 0.58613 0.0
H609 H 0.59605 0.11382 0.49944 0.0
H610 H 0.61954 0.13972 0.53294 0.0
H611 H 0.60636 0.17152 0.55141 0.0
H612 H 0.56713 0.21651 0.64221 0.0
H613 H 0.57426 0.19457 0.61031 0.0
H614 H 0.59907 0.14402 0.63092 0.0
C615 C 0.59957 0.12406 0.53454 0.0
C616 C 0.60564 0.16552 0.5687 0.0
C617 C 0.58604 0.10933 0.51538 0.0
C618 C 0.58275 0.21203 0.64338 0.0
C619 C 0.58689 0.1996 0.62516 0.0
C620 C 0.60155 0.15037 0.61362 0.0
C621 C 0.58674 0.11995 0.55516 0.0
C622 C 0.59789 0.13971 0.57354 0.0
C623 C 0.60598 0.19221 0.62664 0.0
C624 C 0.60715 0.17554 0.60867 0.0
H625 H 0.52672 0.07083 0.53912 0.0
H626 H 0.55057 0.09581 0.57249 0.0
H627 H 0.59068 0.11268 0.60027 0.0
H628 H 0.63012 0.21584 0.67938 0.0
H629 H 0.63662 0.19304 0.64761 0.0
C630 C 0.45569 0.56746 0.69181 0.0
C631 C 0.46832 0.553 0.68845 0.0
C632 C 0.45933 0.58138 0.71184 0.0
C633 C 0.46773 0.57564 0.77061 0.0
H634 H 0.4726 0.64272 0.77533 0.0
C635 C 0.43709 0.60385 0.85184 0.0
C636 C 0.42122 0.61493 0.84901 0.0
C637 C 0.45216 0.6033 0.83412 0.0
C638 C 0.47113 0.62393 0.77434 0.0
H639 H 0.49566 0.54296 0.70351 0.0
H640 H 0.5009 0.5664 0.73918 0.0
H641 H 0.48264 0.62883 0.73971 0.0
H642 H 0.40953 0.63536 0.82612 0.0
H643 H 0.43459 0.63313 0.79455 0.0
H644 H 0.4541 0.56947 0.80429 0.0
C645 C 0.48854 0.56711 0.7259 0.0
C646 C 0.47713 0.61612 0.754 0.0
C647 C 0.48532 0.55353 0.70557 0.0
C648 C 0.42175 0.6268 0.82864 0.0
C649 C 0.43628 0.62561 0.81062 0.0
C650 C 0.46133 0.58322 0.79078 0.0
C651 C 0.47522 0.58082 0.7293 0.0
C652 C 0.47471 0.59158 0.75179 0.0
C653 C 0.45096 0.613 0.8129 0.0
C654 C 0.46215 0.60715 0.79274 0.0
H655 H 0.44181 0.56704 0.6795 0.0
H656 H 0.44836 0.59129 0.7142 0.0
H657 H 0.46533 0.55647 0.76926 0.0
H658 H 0.43721 0.59488 0.8676 0.0
H659 H 0.46386 0.59423 0.83683 0.0
C660 C 0.93098 0.46157 0.85492 0.0
C661 C 0.93885 0.44323 0.85129 0.0
C662 C 0.91827 0.46136 0.87472 0.0
C663 C 0.8733 0.41535 0.9138 0.0
H664 H 0.88706 0.47508 0.95057 0.0
C665 C 0.81305 0.40747 -0.00725 0.0
C666 C 0.80988 0.42859 -0.00154 0.0
C667 C 0.82883 0.40899 0.97474 0.0
C668 C 0.88264 0.45825 0.94024 0.0
H669 H 0.94073 0.41105 0.86565 0.0
H670 H 0.91816 0.41048 0.9003 0.0
H671 H 0.91705 0.47972 0.92064 0.0
H672 H 0.81909 0.46709 0.9889 0.0
H673 H 0.84542 0.46928 0.95681 0.0
H674 H 0.83838 0.394 0.93258 0.0
C675 C 0.92201 0.42509 0.8879 0.0
C676 C 0.90001 0.46092 0.92328 0.0
C677 C 0.93513 0.42559 0.86826 0.0
C678 C 0.82141 0.4506 0.985 0.0
C679 C 0.83677 0.45195 0.96677 0.0
C680 C 0.85568 0.41274 0.93052 0.0
C681 C 0.91282 0.44249 0.89098 0.0
C682 C 0.89548 0.4395 0.90991 0.0
C683 C 0.84141 0.43152 0.96183 0.0
C684 C 0.86006 0.43418 0.94392 0.0
H685 H 0.93348 0.47519 0.84193 0.0
H686 H 0.91127 0.47491 0.87667 0.0
H687 H 0.86915 0.39862 0.90342 0.0
H688 H 0.80457 0.39034 0.00298 0.0
H689 H 0.83206 0.39293 0.97161 0.0
C690 C 0.4996 0.96113 0.03096 0.0
C691 C 0.52589 0.96849 0.02759 0.0
C692 C 0.4875 0.94959 0.05105 0.0
C693 C 0.4907 0.90587 0.09048 0.0
H694 H 0.43683 0.91214 0.12183 0.0
C695 C 0.42783 0.83507 0.16004 0.0
C696 C 0.40161 0.82901 0.16115 0.0
C697 C 0.44497 0.85398 0.14532 0.0
C698 C 0.45163 0.90994 0.11307 0.0
H699 H 0.56075 0.97145 0.04288 0.0
H700 H 0.53956 0.95118 0.07816 0.0
H701 H 0.46448 0.94515 0.09519 0.0
H702 H 0.37235 0.83673 0.14676 0.0
H703 H 0.40181 0.86877 0.1205 0.0
H704 H 0.47717 0.87011 0.10742 0.0
C705 C 0.52835 0.95437 0.06531 0.0
C706 C 0.4676 0.92901 0.098 0.0
C707 C 0.54054 0.96624 0.0453 0.0
C708 C 0.39253 0.84116 0.14642 0.0
C709 C 0.40952 0.85978 0.13156 0.0
C710 C 0.47455 0.88665 0.10536 0.0
C711 C 0.50143 0.94489 0.06792 0.0
C712 C 0.48704 0.92696 0.08631 0.0
C713 C 0.43613 0.86698 0.13126 0.0
C714 C 0.45448 0.8882 0.11653 0.0
H715 H 0.48791 0.9624 0.01735 0.0
H716 H 0.4667 0.94235 0.05253 0.0
H717 H 0.50523 0.90354 0.08139 0.0
H718 H 0.43544 0.82619 0.17135 0.0
H719 H 0.46534 0.85908 0.14562 0.0
C720 C 0.54776 0.50731 0.22905 0.0
C721 C 0.53686 0.49312 0.20888 0.0
C722 C 0.54804 0.49483 0.2487 0.0
C723 C 0.55257 0.43841 0.26364 0.0
H724 H 0.55655 0.46543 0.32427 0.0
C725 C 0.5976 0.41356 0.3408 0.0
C726 C 0.61667 0.43583 0.35254 0.0
C727 C 0.58114 0.41536 0.3246 0.0
C728 C 0.55531 0.45753 0.30745 0.0
H729 H 0.51518 0.45446 0.19413 0.0
H730 H 0.51577 0.4326 0.22855 0.0
H731 H 0.53653 0.47726 0.29389 0.0
H732 H 0.63344 0.4774 0.35633 0.0
H733 H 0.6049 0.48041 0.3283 0.0
H734 H 0.57237 0.41956 0.27712 0.0
C735 C 0.5245 0.45344 0.22901 0.0
C736 C 0.54386 0.46429 0.29008 0.0
C737 C 0.52413 0.46595 0.20934 0.0
C738 C 0.61903 0.45984 0.34762 0.0
C739 C 0.60246 0.46156 0.33173 0.0
C740 C 0.56391 0.43154 0.28107 0.0
C741 C 0.53746 0.46786 0.24863 0.0
C742 C 0.54343 0.45575 0.2678 0.0
C743 C 0.58324 0.43937 0.32016 0.0
C744 C 0.56641 0.44198 0.30291 0.0
H745 H 0.55801 0.52825 0.22929 0.0
H746 H 0.55843 0.5066 0.26342 0.0
H747 H 0.55277 0.43164 0.24665 0.0
H748 H 0.59527 0.39477 0.34424 0.0
H749 H 0.56655 0.39799 0.31579 0.0
C750 C 0.50305 0.95378 0.41702 0.0
C751 C 0.49016 0.96753 0.42235 0.0
C752 C 0.49831 0.94067 0.39626 0.0
C753 C 0.46426 0.89711 0.36307 0.0
H754 H 0.44784 0.91913 0.307 0.0
C755 C 0.3905 0.85037 0.28158 0.0
C756 C 0.39549 0.83083 0.27423 0.0
C757 C 0.40618 0.86818 0.29835 0.0
C758 C 0.45232 0.91271 0.32257 0.0
H759 H 0.46387 0.97998 0.40926 0.0
H760 H 0.45592 0.95753 0.3732 0.0
H761 H 0.47109 0.95083 0.3373 0.0
H762 H 0.42038 0.81415 0.27936 0.0
H763 H 0.44766 0.84525 0.30897 0.0
H764 H 0.44479 0.85884 0.34852 0.0
C765 C 0.46975 0.95686 0.38494 0.0
C766 C 0.4657 0.93086 0.33987 0.0
C767 C 0.4744 0.96987 0.40568 0.0
C768 C 0.41598 0.82894 0.28466 0.0
C769 C 0.43163 0.84676 0.30158 0.0
C770 C 0.45094 0.87895 0.34571 0.0
C771 C 0.48073 0.94119 0.38039 0.0
C772 C 0.47112 0.92313 0.36058 0.0
C773 C 0.42718 0.86685 0.30825 0.0
C774 C 0.44412 0.88645 0.32557 0.0
H775 H 0.51564 0.95197 0.4294 0.0
H776 H 0.50746 0.92915 0.39304 0.0
H777 H 0.46782 0.89043 0.37891 0.0
H778 H 0.37483 0.85236 0.27402 0.0
H779 H 0.40188 0.88308 0.30353 0.0
C780 C 0.54383 0.48714 0.604 0.0
C781 C 0.51684 0.471 0.60695 0.0
C782 C 0.5558 0.48436 0.58483 0.0
C783 C 0.54903 0.43416 0.54597 0.0
H784 H 0.602 0.49058 0.51167 0.0
C785 C 0.60036 0.41774 0.47 0.0
C786 C 0.62653 0.43654 0.46629 0.0
C787 C 0.58624 0.42155 0.48694 0.0
C788 C 0.58754 0.47462 0.5213 0.0
H789 H 0.48096 0.44007 0.59194 0.0
H790 H 0.50198 0.43504 0.55836 0.0
H791 H 0.57798 0.49945 0.54026 0.0
H792 H 0.65898 0.47317 0.47831 0.0
H793 H 0.63482 0.47928 0.50842 0.0
H794 H 0.55912 0.4094 0.52773 0.0
C795 C 0.5138 0.44987 0.57085 0.0
C796 C 0.57365 0.47972 0.53752 0.0
C797 C 0.50176 0.45293 0.58989 0.0
C798 C 0.63874 0.45846 0.48064 0.0
C799 C 0.62478 0.46209 0.49774 0.0
C800 C 0.56315 0.42907 0.52995 0.0
C801 C 0.54102 0.46511 0.56846 0.0
C802 C 0.55437 0.45957 0.55007 0.0
C803 C 0.59814 0.44407 0.50069 0.0
C804 C 0.58274 0.44927 0.51753 0.0
H805 H 0.55582 0.50112 0.61703 0.0
H806 H 0.57683 0.49626 0.58344 0.0
H807 H 0.53452 0.41832 0.5557 0.0
H808 H 0.59037 0.40075 0.45907 0.0
H809 H 0.56573 0.40733 0.4886 0.0
C810 C 0.06926 0.49037 0.73715 0.0
C811 C 0.06077 0.50247 0.75261 0.0
C812 C 0.0849 0.50419 0.71911 0.0
C813 C 0.10884 0.56378 0.68627 0.0
H814 H 0.17434 0.5634 0.68546 0.0
C815 C 0.19825 0.64372 0.64252 0.0
C816 C 0.21364 0.63662 0.62974 0.0
C817 C 0.17928 0.6261 0.65686 0.0
C818 C 0.15604 0.56348 0.68518 0.0
H819 H 0.06031 0.53762 0.76074 0.0
H820 H 0.08701 0.56161 0.7289 0.0
H821 H 0.13891 0.5331 0.70912 0.0
H822 H 0.22196 0.60581 0.62267 0.0
H823 H 0.18851 0.57483 0.64749 0.0
H824 H 0.12582 0.59413 0.66243 0.0
C825 C 0.08173 0.54156 0.73066 0.0
C826 C 0.13572 0.54606 0.6987 0.0
C827 C 0.06643 0.52787 0.74883 0.0
C828 C 0.21052 0.61191 0.63243 0.0
C829 C 0.19131 0.59414 0.64663 0.0
C830 C 0.12904 0.58103 0.67262 0.0
C831 C 0.09197 0.53019 0.71615 0.0
C832 C 0.11208 0.54635 0.69966 0.0
C833 C 0.175 0.60083 0.65857 0.0
C834 C 0.1531 0.58146 0.67225 0.0
H835 H 0.06541 0.4709 0.73997 0.0
H836 H 0.09237 0.49493 0.70804 0.0
H837 H 0.09074 0.56425 0.68655 0.0
H838 H 0.20035 0.66271 0.64098 0.0
H839 H 0.16764 0.63219 0.66631 0.0
C840 C 0.57298 0.06195 0.89931 0.0
C841 C 0.56351 0.06617 0.91961 0.0
C842 C 0.56901 0.0714 0.87907 0.0
C843 C 0.53512 0.10368 0.85291 0.0
H844 H 0.60044 0.14164 0.82123 0.0
C845 C 0.54646 0.16741 0.77633 0.0
C846 C 0.5701 0.19103 0.77487 0.0
C847 C 0.54352 0.14937 0.79248 0.0
C848 C 0.58209 0.13128 0.82997 0.0
H849 H 0.54002 0.08092 0.93432 0.0
H850 H 0.53347 0.09779 0.89926 0.0
H851 H 0.59684 0.11262 0.8511 0.0
H852 H 0.60902 0.2144 0.78959 0.0
H853 H 0.60369 0.18318 0.81814 0.0
H854 H 0.52087 0.12347 0.83251 0.0
C855 C 0.54391 0.0872 0.89875 0.0
C856 C 0.57984 0.11423 0.84684 0.0
C857 C 0.54778 0.07766 0.91892 0.0
C858 C 0.59059 0.19637 0.7902 0.0
C859 C 0.5876 0.17835 0.80644 0.0
C860 C 0.53741 0.12085 0.83608 0.0
C861 C 0.55555 0.08529 0.87879 0.0
C862 C 0.55647 0.10052 0.8588 0.0
C863 C 0.56409 0.15454 0.80765 0.0
C864 C 0.56109 0.1352 0.82468 0.0
H865 H 0.5852 0.05319 0.89933 0.0
H866 H 0.57771 0.06907 0.86387 0.0
H867 H 0.51677 0.09327 0.86163 0.0
H868 H 0.53028 0.16258 0.76472 0.0
H869 H 0.52526 0.13114 0.79276 0.0
C870 C 0.50177 0.58058 0.09803 0.0
C871 C 0.48597 0.56447 0.11515 0.0
C872 C 0.49041 0.58282 0.07802 0.0
C873 C 0.43235 0.5535 0.04137 0.0
H874 H 0.44875 0.62396 0.03078 0.0
C875 C 0.37546 0.57487 0.97418 0.0
C876 C 0.38956 0.59697 0.96116 0.0
C877 C 0.38681 0.57118 -0.0065 0.0
C878 C 0.44422 0.60423 0.0332 0.0
H879 H 0.4463 0.53685 0.12441 0.0
H880 H 0.42643 0.5401 0.08896 0.0
H881 H 0.47066 0.61517 0.0616 0.0
H882 H 0.42626 0.63295 0.95842 0.0
H883 H 0.44654 0.62616 -0.00835 0.0
H884 H 0.40653 0.54245 0.01269 0.0
C885 C 0.44752 0.55115 0.09115 0.0
C886 C 0.45676 0.59923 0.05089 0.0
C887 C 0.45883 0.54925 0.11133 0.0
C888 C 0.41486 0.61584 0.96829 0.0
C889 C 0.42645 0.61191 0.98739 0.0
C890 C 0.42014 0.55853 0.02341 0.0
C891 C 0.46314 0.56865 0.07471 0.0
C892 C 0.45083 0.57383 0.05518 0.0
C893 C 0.41276 0.58925 -3e-05 0.0
C894 C 0.42576 0.58395 0.01918 0.0
H895 H 0.5227 0.59276 0.10073 0.0
H896 H 0.50282 0.59632 0.06548 0.0
H897 H 0.42756 0.53377 0.04436 0.0
H898 H 0.3558 0.56012 0.96914 0.0
H899 H 0.37535 0.55389 0.00311 0.0
C900 C 0.94986 0.47728 0.24862 0.0
C901 C 0.94763 0.4603 0.26574 0.0
C902 C 0.93746 0.46773 0.22771 0.0
C903 C 0.88075 0.40983 0.2027 0.0
H904 H 0.90572 0.45045 0.14874 0.0
C905 C 0.8109 0.40684 0.13265 0.0
C906 C 0.82051 0.41444 0.11091 0.0
C907 C 0.82737 0.40686 0.14984 0.0
C908 C 0.89845 0.43836 0.16337 0.0
H909 H 0.9321 0.42004 0.27392 0.0
H910 H 0.91084 0.40322 0.23703 0.0
H911 H 0.93508 0.46071 0.18085 0.0
H912 H 0.85369 0.426 0.0893 0.0
H913 H 0.88193 0.42441 0.11874 0.0
H914 H 0.84421 0.38714 0.18501 0.0
C915 C 0.9217 0.42395 0.23998 0.0
C916 C 0.9153 0.44459 0.18202 0.0
C917 C 0.934 0.43355 0.26104 0.0
C918 C 0.84607 0.42033 0.10611 0.0
C919 C 0.86227 0.41965 0.12306 0.0
C920 C 0.86397 0.40329 0.18386 0.0
C921 C 0.92264 0.44092 0.22329 0.0
C922 C 0.90638 0.43108 0.20222 0.0
C923 C 0.85354 0.41397 0.14539 0.0
C924 C 0.87232 0.41804 0.1642 0.0
H925 H 0.95975 0.49796 0.25183 0.0
H926 H 0.93827 0.48144 0.21551 0.0
H927 H 0.87311 0.39901 0.21798 0.0
H928 H 0.79122 0.40237 0.13663 0.0
H929 H 0.81992 0.40266 0.1668 0.0
loop_
_geom_bond_atom_site_label_1
_geom_bond_atom_site_label_2
_geom_bond_distance
_geom_bond_site_symmetry_2
_ccdc_geom_bond_type
H0 C8 0.930 . S
H1 C11 0.930 . S
H2 C13 0.930 . S
H3 C14 0.979 . S
H4 C14 0.970 . S
H5 C16 0.930 . S
H6 C18 0.930 . S
H7 C20 0.930 . S
C8 H0 0.930 . S
C8 C9 1.382 . S
C8 C10 1.426 . S
C9 C8 1.382 . S
C9 C13 1.389 . S
C10 C8 1.426 . S
C10 C11 1.375 . S
C10 C14 1.532 1_655 S
C11 H1 0.930 . S
C11 C10 1.375 . S
C11 C12 1.416 . S
C12 C11 1.416 . S
C12 C13 1.371 . S
C13 H2 0.930 . S
C13 C9 1.389 . S
C13 C12 1.371 . S
C14 H3 0.979 . S
C14 H4 0.970 . S
C14 C10 1.532 1_455 S
C14 C15 1.499 . S
C15 C14 1.499 . S
C15 C16 1.370 . S
C15 C20 1.415 . S
C16 H5 0.930 . S
C16 C15 1.370 . S
C16 C17 1.407 . S
C17 C16 1.407 . S
C17 C18 1.365 . S
C18 H6 0.930 . S
C18 C17 1.365 . S
C18 C19 1.393 . S
C19 C18 1.393 . S
C19 C20 1.387 . S
C20 H7 0.930 . S
C20 C15 1.415 . S
C20 C19 1.387 . S
H21 C29 0.930 . S
H22 C32 0.930 . S
H23 C34 0.930 . S
H24 C35 0.970 . S
H25 C35 0.970 . S
H26 C37 0.930 . S
H27 C39 0.930 . S
H28 C41 0.930 . S
C29 H21 0.930 . S
C29 C30 1.382 . S
C29 C31 1.426 . S
C30 C29 1.382 . S
C30 C34 1.389 . S
C31 C29 1.426 . S
C31 C32 1.375 . S
C31 C35 1.532 1_565 S
C32 H22 0.930 . S
C32 C31 1.375 . S
C32 C33 1.416 . S
C33 C32 1.416 . S
C33 C34 1.371 . S
C34 H23 0.930 . S
C34 C30 1.389 . S
C34 C33 1.371 . S
C35 H24 0.970 . S
C35 H25 0.970 . S
C35 C31 1.532 1_545 S
C35 C36 1.499 . S
C36 C35 1.499 . S
C36 C37 1.370 . S
C36 C41 1.415 . S
C37 H26 0.930 . S
C37 C36 1.370 . S
C37 C38 1.407 . S
C38 C37 1.407 . S
C38 C39 1.365 . S
C39 H27 0.930 . S
C39 C38 1.365 . S
C39 C40 1.393 . S
C40 C39 1.393 . S
C40 C41 1.387 . S
C41 H28 0.930 . S
C41 C36 1.415 . S
C41 C40 1.387 . S
H42 C50 0.930 . S
H43 C53 0.930 . S
H44 C55 0.930 . S
H45 C56 0.970 . S
H46 C56 0.970 . S
H47 C58 0.930 . S
H48 C60 0.930 . S
H49 C62 0.930 . S
C50 H42 0.930 . S
C50 C51 1.382 . S
C50 C52 1.426 . S
C51 C50 1.382 . S
C51 C55 1.389 . S
C52 C50 1.426 . S
C52 C53 1.375 . S
C52 C56 1.532 . S
C53 H43 0.930 . S
C53 C52 1.375 . S
C53 C54 1.416 . S
C54 C53 1.416 . S
C54 C55 1.371 . S
C55 H44 0.930 . S
C55 C51 1.389 . S
C55 C54 1.371 . S
C56 H45 0.970 . S
C56 H46 0.970 . S
C56 C52 1.532 . S
C56 C57 1.499 . S
C57 C56 1.499 . S
C57 C58 1.370 . S
C57 C62 1.415 . S
C58 H47 0.930 . S
C58 C57 1.370 . S
C58 C59 1.407 . S
C59 C58 1.407 . S
C59 C60 1.365 . S
C60 H48 0.930 . S
C60 C59 1.365 . S
C60 C61 1.393 . S
C61 C60 1.393 . S
C61 C62 1.387 . S
C62 H49 0.930 . S
C62 C57 1.415 . S
C62 C61 1.387 . S
H63 C71 0.930 . S
H64 C74 0.930 . S
H65 C76 0.930 . S
H66 C77 0.970 . S
H67 C77 0.970 . S
H68 C79 0.930 . S
H69 C81 0.930 . S
H70 C83 0.930 . S
C71 H63 0.930 . S
C71 C72 1.382 . S
C71 C73 1.426 . S
C72 C71 1.382 . S
C72 C76 1.389 . S
C73 C71 1.426 . S
C73 C74 1.375 . S
C73 C77 1.532 1_655 S
C74 H64 0.930 . S
C74 C73 1.375 . S
C74 C75 1.416 . S
C75 C74 1.416 . S
C75 C76 1.371 . S
C76 H65 0.930 . S
C76 C72 1.389 . S
C76 C75 1.371 . S
C77 H66 0.970 . S
C77 H67 0.970 . S
C77 C73 1.532 1_455 S
C77 C78 1.499 . S
C78 C77 1.499 . S
C78 C79 1.370 . S
C78 C83 1.415 . S
C79 H68 0.930 . S
C79 C78 1.370 . S
C79 C80 1.407 . S
C80 C79 1.407 . S
C80 C81 1.365 . S
C81 H69 0.930 . S
C81 C80 1.365 . S
C81 C82 1.393 . S
C82 C81 1.393 . S
C82 C83 1.387 . S
C83 H70 0.930 . S
C83 C78 1.415 . S
C83 C82 1.387 . S
H84 C92 0.930 . S
H85 C95 0.930 . S
H86 C97 0.930 . S
H87 C98 0.970 1_554 S
H88 C98 0.970 . S
H89 C100 0.930 . S
H90 C102 0.930 . S
H91 C104 0.930 . S
C92 H84 0.930 . S
C92 C93 1.382 1_554 S
C92 C94 1.426 1_554 S
C93 C92 1.382 1_556 S
C93 C97 1.389 . S
C94 C92 1.426 1_556 S
C94 C95 1.375 . S
C94 C98 1.532 . S
C95 H85 0.930 . S
C95 C94 1.375 . S
C95 C96 1.416 . S
C96 C95 1.416 . S
C96 C97 1.371 . S
C97 H86 0.930 . S
C97 C93 1.389 . S
C97 C96 1.371 . S
C98 H87 0.970 1_556 S
C98 H88 0.970 . S
C98 C94 1.532 . S
C98 C99 1.499 1_545 S
C99 C98 1.499 1_565 S
C99 C100 1.370 1_556 S
C99 C104 1.415 . S
C100 H89 0.930 . S
C100 C99 1.370 1_554 S
C100 C101 1.407 . S
C101 C100 1.407 . S
C101 C102 1.365 . S
C102 H90 0.930 . S
C102 C101 1.365 . S
C102 C103 1.393 1_554 S
C103 C102 1.393 1_556 S
C103 C104 1.387 . S
C104 H91 0.930 . S
C104 C99 1.415 . S
C104 C103 1.387 . S
H105 C113 0.930 . S
H106 C116 0.930 . S
H107 C118 0.930 . S
H108 C119 0.970 . S
H109 C119 0.970 . S
H110 C121 0.930 . S
H111 C123 0.930 . S
H112 C125 0.930 . S
C113 H105 0.930 . S
C113 C114 1.382 . S
C113 C115 1.426 . S
C114 C113 1.382 . S
C114 C118 1.389 . S
C115 C113 1.426 . S
C115 C116 1.375 . S
C115 C119 1.532 . S
C116 H106 0.930 . S
C116 C115 1.375 . S
C116 C117 1.416 . S
C117 C116 1.416 . S
C117 C118 1.371 . S
C118 H107 0.930 . S
C118 C114 1.389 . S
C118 C117 1.371 . S
C119 H108 0.970 . S
C119 H109 0.970 . S
C119 C115 1.532 . S
C119 C120 1.499 . S
C120 C119 1.499 . S
C120 C121 1.370 . S
C120 C125 1.415 . S
C121 H110 0.930 . S
C121 C120 1.370 . S
C121 C122 1.407 . S
C122 C121 1.407 . S
C122 C123 1.365 . S
C123 H111 0.930 . S
C123 C122 1.365 . S
C123 C124 1.393 . S
C124 C123 1.393 . S
C124 C125 1.387 . S
C125 H112 0.930 . S
C125 C120 1.415 . S
C125 C124 1.387 . S
Zn126 O129 2.031 . S
Zn126 O131 2.049 . S
Zn126 O136 2.067 . S
Zn127 O128 1.962 . S
Zn127 O130 1.986 . S
Zn127 O132 1.996 . S
Zn127 O135 1.943 . S
O128 Zn127 1.962 . S
O128 C133 1.254 . S
O129 Zn126 2.031 . S
O129 C133 1.269 . S
O130 Zn127 1.986 . S
O130 C137 1.262 . S
O131 Zn126 2.049 . S
O131 C139 1.260 . S
O132 Zn127 1.996 . S
O132 C139 1.257 . S
C133 O128 1.254 . S
C133 O129 1.269 . S
C134 O135 1.249 . S
C134 O136 1.270 . S
O135 Zn127 1.943 . S
O135 C134 1.249 . S
O136 Zn126 2.067 . S
O136 C134 1.270 . S
C137 O130 1.262 . S
C137 O138 1.232 . S
O138 C137 1.232 . S
C139 O131 1.260 . S
C139 O132 1.257 . S
Zn140 O143 2.031 . S
Zn140 O145 2.049 . S
Zn140 O150 2.067 . S
Zn141 O142 1.962 . S
Zn141 O144 1.986 . S
Zn141 O146 1.996 . S
Zn141 O149 1.943 . S
O142 Zn141 1.962 . S
O142 C147 1.254 . S
O143 Zn140 2.031 . S
O143 C147 1.269 . S
O144 Zn141 1.986 . S
O144 C151 1.262 . S
O145 Zn140 2.049 . S
O145 C153 1.260 . S
O146 Zn141 1.996 . S
O146 C153 1.257 . S
C147 O142 1.254 . S
C147 O143 1.269 . S
C148 O149 1.249 . S
C148 O150 1.270 . S
O149 Zn141 1.943 . S
O149 C148 1.249 . S
O150 Zn140 2.067 . S
O150 C148 1.270 . S
C151 O144 1.262 . S
C151 O152 1.232 . S
O152 C151 1.232 . S
C153 O145 1.260 . S
C153 O146 1.257 . S
Zn154 O157 2.031 . S
Zn154 O159 2.049 . S
Zn154 O164 2.067 . S
Zn155 O156 1.962 . S
Zn155 O158 1.986 . S
Zn155 O160 1.996 . S
Zn155 O163 1.943 . S
O156 Zn155 1.962 . S
O156 C161 1.254 . S
O157 Zn154 2.031 . S
O157 C161 1.269 . S
O158 Zn155 1.986 . S
O158 C165 1.262 . S
O159 Zn154 2.049 . S
O159 C167 1.260 . S
O160 Zn155 1.996 . S
O160 C167 1.257 . S
C161 O156 1.254 . S
C161 O157 1.269 . S
C162 O163 1.249 . S
C162 O164 1.270 . S
O163 Zn155 1.943 . S
O163 C162 1.249 . S
O164 Zn154 2.067 . S
O164 C162 1.270 . S
C165 O158 1.262 . S
C165 O166 1.232 . S
O166 C165 1.232 . S
C167 O159 1.260 . S
C167 O160 1.257 . S
Zn168 O171 2.031 . S
Zn168 O173 2.049 . S
Zn168 O178 2.067 . S
Zn169 O170 1.962 . S
Zn169 O172 1.986 . S
Zn169 O174 1.996 . S
Zn169 O177 1.943 . S
O170 Zn169 1.962 . S
O170 C175 1.254 . S
O171 Zn168 2.031 . S
O171 C175 1.269 . S
O172 Zn169 1.986 . S
O172 C179 1.262 . S
O173 Zn168 2.049 . S
O173 C181 1.260 . S
O174 Zn169 1.996 . S
O174 C181 1.257 . S
C175 O170 1.254 . S
C175 O171 1.269 . S
C176 O177 1.249 . S
C176 O178 1.270 . S
O177 Zn169 1.943 . S
O177 C176 1.249 . S
O178 Zn168 2.067 . S
O178 C176 1.270 . S
C179 O172 1.262 . S
C179 O180 1.232 . S
O180 C179 1.232 . S
C181 O173 1.260 . S
C181 O174 1.257 . S
Zn182 O185 2.031 . S
Zn182 O187 2.049 . S
Zn182 O192 2.067 . S
Zn183 O184 1.962 . S
Zn183 O186 1.986 . S
Zn183 O188 1.996 . S
Zn183 O191 1.943 . S
O184 Zn183 1.962 . S
O184 C189 1.254 . S
O185 Zn182 2.031 . S
O185 C189 1.269 . S
O186 Zn183 1.986 . S
O186 C193 1.262 . S
O187 Zn182 2.049 . S
O187 C195 1.260 . S
O188 Zn183 1.996 . S
O188 C195 1.257 . S
C189 O184 1.254 . S
C189 O185 1.269 . S
C190 O191 1.249 . S
C190 O192 1.270 . S
O191 Zn183 1.943 . S
O191 C190 1.249 . S
O192 Zn182 2.067 . S
O192 C190 1.270 . S
C193 O186 1.262 . S
C193 O194 1.232 . S
O194 C193 1.232 . S
C195 O187 1.260 . S
C195 O188 1.257 . S
Zn196 O199 2.031 . S
Zn196 O201 2.049 . S
Zn196 O206 2.067 . S
Zn197 O198 1.962 . S
Zn197 O200 1.986 . S
Zn197 O202 1.996 . S
Zn197 O205 1.943 . S
O198 Zn197 1.962 . S
O198 C203 1.254 . S
O199 Zn196 2.031 . S
O199 C203 1.269 . S
O200 Zn197 1.986 . S
O200 C207 1.262 . S
O201 Zn196 2.049 . S
O201 C209 1.260 . S
O202 Zn197 1.996 . S
O202 C209 1.257 . S
C203 O198 1.254 . S
C203 O199 1.269 . S
C204 O205 1.249 . S
C204 O206 1.270 . S
O205 Zn197 1.943 . S
O205 C204 1.249 . S
O206 Zn196 2.067 . S
O206 C204 1.270 . S
C207 O200 1.262 . S
C207 O208 1.232 . S
O208 C207 1.232 . S
C209 O201 1.260 . S
C209 O202 1.257 . S
C210 C211 1.349 . S
C210 C212 1.327 . S
C210 H235 0.950 . S
C211 C210 1.349 . S
C211 C227 1.349 . S
C212 C210 1.327 . S
C212 C231 1.429 . S
C212 H236 0.950 . S
C213 C230 1.574 . S
C213 C232 1.368 . S
C213 H237 0.949 . S
H214 C218 0.949 . S
C215 C216 1.349 . S
C215 C217 1.327 . S
C215 H238 0.950 . S
C216 C215 1.349 . S
C216 C228 1.349 . S
C217 C215 1.327 . S
C217 C233 1.429 . S
C217 H239 0.950 . S
C218 H214 0.949 . S
C218 C226 1.574 . S
C218 C234 1.368 . S
H219 C227 0.950 . S
H220 C225 0.950 . S
H221 C226 0.949 . S
H222 C228 0.950 . S
H223 C229 0.950 . S
H224 C230 0.949 . S
C225 H220 0.950 . S
C225 C227 1.327 . S
C225 C231 1.429 . S
C226 C218 1.574 . S
C226 H221 0.949 . S
C226 C232 1.368 . S
C227 C211 1.349 . S
C227 H219 0.950 . S
C227 C225 1.327 . S
C228 C216 1.349 . S
C228 H222 0.950 . S
C228 C229 1.327 . S
C229 H223 0.950 . S
C229 C228 1.327 . S
C229 C233 1.429 . S
C230 C213 1.574 . S
C230 H224 0.949 . S
C230 C234 1.368 . S
C231 C212 1.429 . S
C231 C225 1.429 . S
C231 C232 1.523 . S
C232 C213 1.368 . S
C232 C226 1.368 . S
C232 C231 1.523 . S
C233 C217 1.429 . S
C233 C229 1.429 . S
C233 C234 1.523 . S
C234 C218 1.368 . S
C234 C230 1.368 . S
C234 C233 1.523 . S
H235 C210 0.950 . S
H236 C212 0.950 . S
H237 C213 0.949 . S
H238 C215 0.950 . S
H239 C217 0.950 . S
C240 C241 1.349 . S
C240 C242 1.327 . S
C240 H265 0.950 . S
C241 C240 1.349 . S
C241 C257 1.349 . S
C242 C240 1.327 . S
C242 C261 1.429 . S
C242 H266 0.950 . S
C243 C260 1.574 . S
C243 C262 1.368 . S
C243 H267 0.949 . S
H244 C248 0.949 . S
C245 C246 1.349 . S
C245 C247 1.327 . S
C245 H268 0.950 . S
C246 C245 1.349 . S
C246 C258 1.349 . S
C247 C245 1.327 . S
C247 C263 1.429 . S
C247 H269 0.950 . S
C248 H244 0.949 . S
C248 C256 1.574 . S
C248 C264 1.368 . S
H249 C257 0.950 . S
H250 C255 0.950 . S
H251 C256 0.949 . S
H252 C258 0.950 . S
H253 C259 0.950 . S
H254 C260 0.949 . S
C255 H250 0.950 . S
C255 C257 1.327 . S
C255 C261 1.429 . S
C256 C248 1.574 . S
C256 H251 0.949 . S
C256 C262 1.368 . S
C257 C241 1.349 . S
C257 H249 0.950 . S
C257 C255 1.327 . S
C258 C246 1.349 . S
C258 H252 0.950 . S
C258 C259 1.327 . S
C259 H253 0.950 . S
C259 C258 1.327 . S
C259 C263 1.429 . S
C260 C243 1.574 . S
C260 H254 0.949 . S
C260 C264 1.368 . S
C261 C242 1.429 . S
C261 C255 1.429 . S
C261 C262 1.523 . S
C262 C243 1.368 . S
C262 C256 1.368 . S
C262 C261 1.523 . S
C263 C247 1.429 . S
C263 C259 1.429 . S
C263 C264 1.523 . S
C264 C248 1.368 . S
C264 C260 1.368 . S
C264 C263 1.523 . S
H265 C240 0.950 . S
H266 C242 0.950 . S
H267 C243 0.949 . S
H268 C245 0.950 . S
H269 C247 0.950 . S
C270 C271 1.349 . S
C270 C272 1.327 . S
C270 H295 0.950 . S
C271 C270 1.349 . S
C271 C287 1.349 . S
C272 C270 1.327 . S
C272 C291 1.429 . S
C272 H296 0.950 . S
C273 C290 1.574 . S
C273 C292 1.368 . S
C273 H297 0.949 . S
H274 C278 0.949 . S
C275 C276 1.349 . S
C275 C277 1.327 . S
C275 H298 0.950 . S
C276 C275 1.349 . S
C276 C288 1.349 . S
C277 C275 1.327 . S
C277 C293 1.429 . S
C277 H299 0.950 . S
C278 H274 0.949 . S
C278 C286 1.574 . S
C278 C294 1.368 . S
H279 C287 0.950 . S
H280 C285 0.950 . S
H281 C286 0.949 . S
H282 C288 0.950 . S
H283 C289 0.950 . S
H284 C290 0.949 . S
C285 H280 0.950 . S
C285 C287 1.327 . S
C285 C291 1.429 . S
C286 C278 1.574 . S
C286 H281 0.949 . S
C286 C292 1.368 . S
C287 C271 1.349 . S
C287 H279 0.950 . S
C287 C285 1.327 . S
C288 C276 1.349 . S
C288 H282 0.950 . S
C288 C289 1.327 . S
C289 H283 0.950 . S
C289 C288 1.327 . S
C289 C293 1.429 . S
C290 C273 1.574 . S
C290 H284 0.949 . S
C290 C294 1.368 . S
C291 C272 1.429 . S
C291 C285 1.429 . S
C291 C292 1.523 . S
C292 C273 1.368 . S
C292 C286 1.368 . S
C292 C291 1.523 . S
C293 C277 1.429 . S
C293 C289 1.429 . S
C293 C294 1.523 . S
C294 C278 1.368 . S
C294 C290 1.368 . S
C294 C293 1.523 . S
H295 C270 0.950 . S
H296 C272 0.950 . S
H297 C273 0.949 . S
H298 C275 0.950 . S
H299 C277 0.950 . S
C300 C301 1.349 . S
C300 C302 1.327 . S
C300 H325 0.950 . S
C301 C300 1.349 . S
C301 C317 1.349 . S
C302 C300 1.327 . S
C302 C321 1.429 . S
C302 H326 0.950 . S
C303 C320 1.574 . S
C303 C322 1.368 . S
C303 H327 0.949 . S
H304 C308 0.949 . S
C305 C306 1.349 . S
C305 C307 1.327 . S
C305 H328 0.950 . S
C306 C305 1.349 . S
C306 C318 1.349 . S
C307 C305 1.327 . S
C307 C323 1.429 . S
C307 H329 0.950 . S
C308 H304 0.949 . S
C308 C316 1.574 . S
C308 C324 1.368 . S
H309 C317 0.950 . S
H310 C315 0.950 . S
H311 C316 0.949 . S
H312 C318 0.950 . S
H313 C319 0.950 . S
H314 C320 0.949 . S
C315 H310 0.950 . S
C315 C317 1.327 . S
C315 C321 1.429 . S
C316 C308 1.574 . S
C316 H311 0.949 . S
C316 C322 1.368 . S
C317 C301 1.349 . S
C317 H309 0.950 . S
C317 C315 1.327 . S
C318 C306 1.349 . S
C318 H312 0.950 . S
C318 C319 1.327 . S
C319 H313 0.950 . S
C319 C318 1.327 . S
C319 C323 1.429 . S
C320 C303 1.574 . S
C320 H314 0.949 . S
C320 C324 1.368 . S
C321 C302 1.429 . S
C321 C315 1.429 . S
C321 C322 1.523 . S
C322 C303 1.368 . S
C322 C316 1.368 . S
C322 C321 1.523 . S
C323 C307 1.429 . S
C323 C319 1.429 . S
C323 C324 1.523 . S
C324 C308 1.368 . S
C324 C320 1.368 . S
C324 C323 1.523 . S
H325 C300 0.950 . S
H326 C302 0.950 . S
H327 C303 0.949 . S
H328 C305 0.950 . S
H329 C307 0.950 . S
C330 C331 1.349 . S
C330 C332 1.327 . S
C330 H355 0.950 1_556 S
C331 C330 1.349 . S
C331 C347 1.349 . S
C332 C330 1.327 . S
C332 C351 1.429 . S
C332 H356 0.950 . S
C333 C350 1.574 . S
C333 C352 1.368 . S
C333 H357 0.949 . S
H334 C338 0.949 . S
C335 C336 1.349 . S
C335 C337 1.327 . S
C335 H358 0.950 . S
C336 C335 1.349 . S
C336 C348 1.349 . S
C337 C335 1.327 . S
C337 C353 1.429 . S
C337 H359 0.950 . S
C338 H334 0.949 . S
C338 C346 1.574 . S
C338 C354 1.368 . S
H339 C347 0.950 . S
H340 C345 0.950 . S
H341 C346 0.949 . S
H342 C348 0.950 . S
H343 C349 0.950 . S
H344 C350 0.949 . S
C345 H340 0.950 . S
C345 C347 1.327 . S
C345 C351 1.429 . S
C346 C338 1.574 . S
C346 H341 0.949 . S
C346 C352 1.368 . S
C347 C331 1.349 . S
C347 H339 0.950 . S
C347 C345 1.327 . S
C348 C336 1.349 . S
C348 H342 0.950 . S
C348 C349 1.327 . S
C349 H343 0.950 . S
C349 C348 1.327 . S
C349 C353 1.429 . S
C350 C333 1.574 . S
C350 H344 0.949 . S
C350 C354 1.368 . S
C351 C332 1.429 . S
C351 C345 1.429 . S
C351 C352 1.523 . S
C352 C333 1.368 . S
C352 C346 1.368 . S
C352 C351 1.523 . S
C353 C337 1.429 . S
C353 C349 1.429 . S
C353 C354 1.523 . S
C354 C338 1.368 . S
C354 C350 1.368 . S
C354 C353 1.523 . S
H355 C330 0.950 1_554 S
H356 C332 0.950 . S
H357 C333 0.949 . S
H358 C335 0.950 . S
H359 C337 0.950 . S
C360 C361 1.349 . S
C360 C362 1.327 . S
C360 H385 0.950 . S
C361 C360 1.349 . S
C361 C377 1.349 . S
C362 C360 1.327 . S
C362 C381 1.429 . S
C362 H386 0.950 . S
C363 C380 1.574 . S
C363 C382 1.368 . S
C363 H387 0.949 . S
H364 C368 0.949 . S
C365 C366 1.349 . S
C365 C367 1.327 . S
C365 H388 0.950 . S
C366 C365 1.349 . S
C366 C378 1.349 . S
C367 C365 1.327 . S
C367 C383 1.429 . S
C367 H389 0.950 . S
C368 H364 0.949 . S
C368 C376 1.574 . S
C368 C384 1.368 . S
H369 C377 0.950 . S
H370 C375 0.950 . S
H371 C376 0.949 . S
H372 C378 0.950 . S
H373 C379 0.950 . S
H374 C380 0.949 . S
C375 H370 0.950 . S
C375 C377 1.327 . S
C375 C381 1.429 . S
C376 C368 1.574 . S
C376 H371 0.949 . S
C376 C382 1.368 . S
C377 C361 1.349 . S
C377 H369 0.950 . S
C377 C375 1.327 . S
C378 C366 1.349 . S
C378 H372 0.950 . S
C378 C379 1.327 . S
C379 H373 0.950 . S
C379 C378 1.327 . S
C379 C383 1.429 . S
C380 C363 1.574 . S
C380 H374 0.949 . S
C380 C384 1.368 . S
C381 C362 1.429 . S
C381 C375 1.429 . S
C381 C382 1.523 . S
C382 C363 1.368 . S
C382 C376 1.368 . S
C382 C381 1.523 . S
C383 C367 1.429 . S
C383 C379 1.429 . S
C383 C384 1.523 . S
C384 C368 1.368 . S
C384 C380 1.368 . S
C384 C383 1.523 . S
H385 C360 0.950 . S
H386 C362 0.950 . S
H387 C363 0.949 . S
H388 C365 0.950 . S
H389 C367 0.950 . S
C390 C391 1.349 . S
C390 C392 1.327 . S
C390 H415 0.950 . S
C391 C390 1.349 . S
C391 C407 1.349 . S
C392 C390 1.327 . S
C392 C411 1.429 . S
C392 H416 0.950 . S
C393 C410 1.574 . S
C393 C412 1.368 . S
C393 H417 0.949 . S
H394 C398 0.949 . S
C395 C396 1.349 . S
C395 C397 1.327 . S
C395 H418 0.950 . S
C396 C395 1.349 . S
C396 C408 1.349 . S
C397 C395 1.327 . S
C397 C413 1.429 . S
C397 H419 0.950 . S
C398 H394 0.949 . S
C398 C406 1.574 . S
C398 C414 1.368 . S
H399 C407 0.950 . S
H400 C405 0.950 . S
H401 C406 0.949 . S
H402 C408 0.950 . S
H403 C409 0.950 . S
H404 C410 0.949 . S
C405 H400 0.950 . S
C405 C407 1.327 . S
C405 C411 1.429 . S
C406 C398 1.574 . S
C406 H401 0.949 . S
C406 C412 1.368 . S
C407 C391 1.349 . S
C407 H399 0.950 . S
C407 C405 1.327 . S
C408 C396 1.349 . S
C408 H402 0.950 . S
C408 C409 1.327 . S
C409 H403 0.950 . S
C409 C408 1.327 . S
C409 C413 1.429 . S
C410 C393 1.574 . S
C410 H404 0.949 . S
C410 C414 1.368 . S
C411 C392 1.429 . S
C411 C405 1.429 . S
C411 C412 1.523 . S
C412 C393 1.368 . S
C412 C406 1.368 . S
C412 C411 1.523 . S
C413 C397 1.429 . S
C413 C409 1.429 . S
C413 C414 1.523 . S
C414 C398 1.368 . S
C414 C410 1.368 . S
C414 C413 1.523 . S
H415 C390 0.950 . S
H416 C392 0.950 . S
H417 C393 0.949 . S
H418 C395 0.950 . S
H419 C397 0.950 . S
C420 C421 1.349 . S
C420 C422 1.327 . S
C420 H445 0.950 . S
C421 C420 1.349 . S
C421 C437 1.349 . S
C422 C420 1.327 . S
C422 C441 1.429 . S
C422 H446 0.950 . S
C423 C440 1.574 . S
C423 C442 1.368 . S
C423 H447 0.949 . S
H424 C428 0.949 . S
C425 C426 1.349 . S
C425 C427 1.327 . S
C425 H448 0.950 . S
C426 C425 1.349 . S
C426 C438 1.349 . S
C427 C425 1.327 . S
C427 C443 1.429 . S
C427 H449 0.950 . S
C428 H424 0.949 . S
C428 C436 1.574 . S
C428 C444 1.368 . S
H429 C437 0.950 . S
H430 C435 0.950 . S
H431 C436 0.949 . S
H432 C438 0.950 . S
H433 C439 0.950 . S
H434 C440 0.949 . S
C435 H430 0.950 . S
C435 C437 1.327 . S
C435 C441 1.429 . S
C436 C428 1.574 . S
C436 H431 0.949 . S
C436 C442 1.368 . S
C437 C421 1.349 . S
C437 H429 0.950 . S
C437 C435 1.327 . S
C438 C426 1.349 . S
C438 H432 0.950 . S
C438 C439 1.327 . S
C439 H433 0.950 . S
C439 C438 1.327 . S
C439 C443 1.429 . S
C440 C423 1.574 . S
C440 H434 0.949 . S
C440 C444 1.368 . S
C441 C422 1.429 . S
C441 C435 1.429 . S
C441 C442 1.523 . S
C442 C423 1.368 . S
C442 C436 1.368 . S
C442 C441 1.523 . S
C443 C427 1.429 . S
C443 C439 1.429 . S
C443 C444 1.523 . S
C444 C428 1.368 . S
C444 C440 1.368 . S
C444 C443 1.523 . S
H445 C420 0.950 . S
H446 C422 0.950 . S
H447 C423 0.949 . S
H448 C425 0.950 . S
H449 C427 0.950 . S
C450 C451 1.349 . S
C450 C452 1.327 . S
C450 H475 0.950 . S
C451 C450 1.349 . S
C451 C467 1.349 . S
C452 C450 1.327 . S
C452 C471 1.429 . S
C452 H476 0.950 . S
C453 C470 1.574 . S
C453 C472 1.368 . S
C453 H477 0.949 . S
H454 C458 0.949 . S
C455 C456 1.349 . S
C455 C457 1.327 . S
C455 H478 0.950 . S
C456 C455 1.349 . S
C456 C468 1.349 . S
C457 C455 1.327 . S
C457 C473 1.429 . S
C457 H479 0.950 . S
C458 H454 0.949 . S
C458 C466 1.574 . S
C458 C474 1.368 . S
H459 C467 0.950 . S
H460 C465 0.950 . S
H461 C466 0.949 . S
H462 C468 0.950 . S
H463 C469 0.950 . S
H464 C470 0.949 . S
C465 H460 0.950 . S
C465 C467 1.327 . S
C465 C471 1.429 . S
C466 C458 1.574 . S
C466 H461 0.949 . S
C466 C472 1.368 . S
C467 C451 1.349 . S
C467 H459 0.950 . S
C467 C465 1.327 . S
C468 C456 1.349 . S
C468 H462 0.950 . S
C468 C469 1.327 . S
C469 H463 0.950 . S
C469 C468 1.327 . S
C469 C473 1.429 . S
C470 C453 1.574 . S
C470 H464 0.949 . S
C470 C474 1.368 . S
C471 C452 1.429 . S
C471 C465 1.429 . S
C471 C472 1.523 . S
C472 C453 1.368 . S
C472 C466 1.368 . S
C472 C471 1.523 . S
C473 C457 1.429 . S
C473 C469 1.429 . S
C473 C474 1.523 . S
C474 C458 1.368 . S
C474 C470 1.368 . S
C474 C473 1.523 . S
H475 C450 0.950 . S
H476 C452 0.950 . S
H477 C453 0.949 . S
H478 C455 0.950 . S
H479 C457 0.950 . S
C480 C481 1.349 . S
C480 C482 1.327 . S
C480 H505 0.950 . S
C481 C480 1.349 . S
C481 C497 1.349 1_554 S
C482 C480 1.327 . S
C482 C501 1.429 . S
C482 H506 0.950 . S
C483 C500 1.574 . S
C483 C502 1.368 . S
C483 H507 0.949 1_554 S
H484 C488 0.949 . S
C485 C486 1.349 . S
C485 C487 1.327 . S
C485 H508 0.950 . S
C486 C485 1.349 . S
C486 C498 1.349 . S
C487 C485 1.327 . S
C487 C503 1.429 . S
C487 H509 0.950 . S
C488 H484 0.949 . S
C488 C496 1.574 . S
C488 C504 1.368 . S
H489 C497 0.950 . S
H490 C495 0.976 . S
H491 C496 0.949 . S
H492 C498 0.950 . S
H493 C499 0.950 . S
H494 C500 0.949 . S
C495 H490 0.976 . S
C495 C497 1.337 . S
C495 C501 1.394 1_556 S
C496 C488 1.574 . S
C496 H491 0.949 . S
C496 C502 1.368 . S
C497 C481 1.349 1_556 S
C497 H489 0.950 . S
C497 C495 1.337 . S
C498 C486 1.349 . S
C498 H492 0.950 . S
C498 C499 1.327 . S
C499 H493 0.950 . S
C499 C498 1.327 . S
C499 C503 1.429 . S
C500 C483 1.574 . S
C500 H494 0.949 . S
C500 C504 1.368 . S
C501 C482 1.429 . S
C501 C495 1.394 1_554 S
C501 C502 1.523 . S
C502 C483 1.368 . S
C502 C496 1.368 . S
C502 C501 1.523 . S
C503 C487 1.429 . S
C503 C499 1.429 . S
C503 C504 1.523 . S
C504 C488 1.368 . S
C504 C500 1.368 . S
C504 C503 1.523 . S
H505 C480 0.950 . S
H506 C482 0.950 . S
H507 C483 0.949 1_556 S
H508 C485 0.950 . S
H509 C487 0.950 . S
C510 C511 1.349 . S
C510 C512 1.327 . S
C510 H535 0.950 . S
C511 C510 1.349 . S
C511 C527 1.349 . S
C512 C510 1.327 . S
C512 C531 1.429 . S
C512 H536 0.950 . S
C513 C530 1.574 . S
C513 C532 1.368 . S
C513 H537 0.949 . S
H514 C518 0.949 . S
C515 C516 1.349 . S
C515 C517 1.327 . S
C515 H538 0.950 . S
C516 C515 1.349 . S
C516 C528 1.349 . S
C517 C515 1.327 . S
C517 C533 1.429 . S
C517 H539 0.950 . S
C518 H514 0.949 . S
C518 C526 1.574 . S
C518 C534 1.368 . S
H519 C527 0.950 . S
H520 C525 0.950 . S
H521 C526 0.949 . S
H522 C528 0.950 . S
H523 C529 0.950 . S
H524 C530 0.949 . S
C525 H520 0.950 . S
C525 C527 1.327 . S
C525 C531 1.429 . S
C526 C518 1.574 . S
C526 H521 0.949 . S
C526 C532 1.368 . S
C527 C511 1.349 . S
C527 H519 0.950 . S
C527 C525 1.327 . S
C528 C516 1.349 . S
C528 H522 0.950 . S
C528 C529 1.327 . S
C529 H523 0.950 . S
C529 C528 1.327 . S
C529 C533 1.429 . S
C530 C513 1.574 . S
C530 H524 0.949 . S
C530 C534 1.368 . S
C531 C512 1.429 . S
C531 C525 1.429 . S
C531 C532 1.523 . S
C532 C513 1.368 . S
C532 C526 1.368 . S
C532 C531 1.523 . S
C533 C517 1.429 . S
C533 C529 1.429 . S
C533 C534 1.523 . S
C534 C518 1.368 . S
C534 C530 1.368 . S
C534 C533 1.523 . S
H535 C510 0.950 . S
H536 C512 0.950 . S
H537 C513 0.949 . S
H538 C515 0.950 . S
H539 C517 0.950 . S
C540 C541 1.349 . S
C540 C542 1.327 . S
C540 H565 0.950 . S
C541 C540 1.349 . S
C541 C557 1.349 . S
C542 C540 1.327 . S
C542 C561 1.429 . S
C542 H566 0.950 . S
C543 C560 1.574 . S
C543 C562 1.368 . S
C543 H567 0.949 . S
H544 C548 0.949 . S
C545 C546 1.349 . S
C545 C547 1.327 . S
C545 H568 0.950 . S
C546 C545 1.349 . S
C546 C558 1.349 . S
C547 C545 1.327 . S
C547 C563 1.429 . S
C547 H569 0.950 . S
C548 H544 0.949 . S
C548 C556 1.574 . S
C548 C564 1.368 . S
H549 C557 0.950 . S
H550 C555 0.950 . S
H551 C556 0.949 . S
H552 C558 0.950 . S
H553 C559 0.950 . S
H554 C560 0.949 . S
C555 H550 0.950 . S
C555 C557 1.327 . S
C555 C561 1.429 . S
C556 C548 1.574 . S
C556 H551 0.949 . S
C556 C562 1.368 . S
C557 C541 1.349 . S
C557 H549 0.950 . S
C557 C555 1.327 . S
C558 C546 1.349 . S
C558 H552 0.950 . S
C558 C559 1.327 . S
C559 H553 0.950 . S
C559 C558 1.327 . S
C559 C563 1.429 . S
C560 C543 1.574 . S
C560 H554 0.949 . S
C560 C564 1.368 . S
C561 C542 1.429 . S
C561 C555 1.429 . S
C561 C562 1.523 . S
C562 C543 1.368 . S
C562 C556 1.368 . S
C562 C561 1.523 . S
C563 C547 1.429 . S
C563 C559 1.429 . S
C563 C564 1.523 . S
C564 C548 1.368 . S
C564 C560 1.368 . S
C564 C563 1.523 . S
H565 C540 0.950 . S
H566 C542 0.950 . S
H567 C543 0.949 . S
H568 C545 0.950 . S
H569 C547 0.950 . S
C570 C571 1.349 . S
C570 C572 1.327 . S
C570 H595 0.950 . S
C571 C570 1.349 . S
C571 C587 1.349 . S
C572 C570 1.327 . S
C572 C591 1.429 . S
C572 H596 0.950 . S
C573 C590 1.574 . S
C573 C592 1.368 . S
C573 H597 0.949 . S
H574 C578 0.949 . S
C575 C576 1.349 . S
C575 C577 1.327 . S
C575 H598 0.950 . S
C576 C575 1.349 . S
C576 C588 1.349 . S
C577 C575 1.327 . S
C577 C593 1.429 . S
C577 H599 0.950 . S
C578 H574 0.949 . S
C578 C586 1.574 . S
C578 C594 1.368 . S
H579 C587 0.950 . S
H580 C585 0.950 . S
H581 C586 0.949 . S
H582 C588 0.950 . S
H583 C589 0.950 . S
H584 C590 0.949 . S
C585 H580 0.950 . S
C585 C587 1.327 . S
C585 C591 1.429 . S
C586 C578 1.574 . S
C586 H581 0.949 . S
C586 C592 1.368 . S
C587 C571 1.349 . S
C587 H579 0.950 . S
C587 C585 1.327 . S
C588 C576 1.349 . S
C588 H582 0.950 . S
C588 C589 1.327 . S
C589 H583 0.950 . S
C589 C588 1.327 . S
C589 C593 1.429 . S
C590 C573 1.574 . S
C590 H584 0.949 . S
C590 C594 1.368 . S
C591 C572 1.429 . S
C591 C585 1.429 . S
C591 C592 1.523 . S
C592 C573 1.368 . S
C592 C586 1.368 . S
C592 C591 1.523 . S
C593 C577 1.429 . S
C593 C589 1.429 . S
C593 C594 1.523 . S
C594 C578 1.368 . S
C594 C590 1.368 . S
C594 C593 1.523 . S
H595 C570 0.950 . S
H596 C572 0.950 . S
H597 C573 0.949 . S
H598 C575 0.950 . S
H599 C577 0.950 . S
C600 C601 1.349 . S
C600 C602 1.327 . S
C600 H625 0.950 . S
C601 C600 1.349 . S
C601 C617 1.349 . S
C602 C600 1.327 . S
C602 C621 1.429 . S
C602 H626 0.950 . S
C603 C620 1.574 . S
C603 C622 1.368 . S
C603 H627 0.949 . S
H604 C608 0.949 . S
C605 C606 1.349 . S
C605 C607 1.327 . S
C605 H628 0.950 . S
C606 C605 1.349 . S
C606 C618 1.349 . S
C607 C605 1.327 . S
C607 C623 1.429 . S
C607 H629 0.950 . S
C608 H604 0.949 . S
C608 C616 1.574 . S
C608 C624 1.368 . S
H609 C617 0.950 . S
H610 C615 0.950 . S
H611 C616 0.949 . S
H612 C618 0.950 . S
H613 C619 0.950 . S
H614 C620 0.949 . S
C615 H610 0.950 . S
C615 C617 1.327 . S
C615 C621 1.429 . S
C616 C608 1.574 . S
C616 H611 0.949 . S
C616 C622 1.368 . S
C617 C601 1.349 . S
C617 H609 0.950 . S
C617 C615 1.327 . S
C618 C606 1.349 . S
C618 H612 0.950 . S
C618 C619 1.327 . S
C619 H613 0.950 . S
C619 C618 1.327 . S
C619 C623 1.429 . S
C620 C603 1.574 . S
C620 H614 0.949 . S
C620 C624 1.368 . S
C621 C602 1.429 . S
C621 C615 1.429 . S
C621 C622 1.523 . S
C622 C603 1.368 . S
C622 C616 1.368 . S
C622 C621 1.523 . S
C623 C607 1.429 . S
C623 C619 1.429 . S
C623 C624 1.523 . S
C624 C608 1.368 . S
C624 C620 1.368 . S
C624 C623 1.523 . S
H625 C600 0.950 . S
H626 C602 0.950 . S
H627 C603 0.949 . S
H628 C605 0.950 . S
H629 C607 0.950 . S
C630 C631 1.349 . S
C630 C632 1.327 . S
C630 H655 0.950 . S
C631 C630 1.349 . S
C631 C647 1.349 . S
C632 C630 1.327 . S
C632 C651 1.429 . S
C632 H656 0.950 . S
C633 C650 1.574 . S
C633 C652 1.368 . S
C633 H657 0.949 . S
H634 C638 0.949 . S
C635 C636 1.349 . S
C635 C637 1.327 . S
C635 H658 0.950 . S
C636 C635 1.349 . S
C636 C648 1.349 . S
C637 C635 1.327 . S
C637 C653 1.429 . S
C637 H659 0.950 . S
C638 H634 0.949 . S
C638 C646 1.574 . S
C638 C654 1.368 . S
H639 C647 0.950 . S
H640 C645 0.950 . S
H641 C646 0.949 . S
H642 C648 0.950 . S
H643 C649 0.950 . S
H644 C650 0.949 . S
C645 H640 0.950 . S
C645 C647 1.327 . S
C645 C651 1.429 . S
C646 C638 1.574 . S
C646 H641 0.949 . S
C646 C652 1.368 . S
C647 C631 1.349 . S
C647 H639 0.950 . S
C647 C645 1.327 . S
C648 C636 1.349 . S
C648 H642 0.950 . S
C648 C649 1.327 . S
C649 H643 0.950 . S
C649 C648 1.327 . S
C649 C653 1.429 . S
C650 C633 1.574 . S
C650 H644 0.949 . S
C650 C654 1.368 . S
C651 C632 1.429 . S
C651 C645 1.429 . S
C651 C652 1.523 . S
C652 C633 1.368 . S
C652 C646 1.368 . S
C652 C651 1.523 . S
C653 C637 1.429 . S
C653 C649 1.429 . S
C653 C654 1.523 . S
C654 C638 1.368 . S
C654 C650 1.368 . S
C654 C653 1.523 . S
H655 C630 0.950 . S
H656 C632 0.950 . S
H657 C633 0.949 . S
H658 C635 0.950 . S
H659 C637 0.950 . S
C660 C661 1.349 . S
C660 C662 1.327 . S
C660 H685 0.950 . S
C661 C660 1.349 . S
C661 C677 1.349 . S
C662 C660 1.327 . S
C662 C681 1.429 . S
C662 H686 0.950 . S
C663 C680 1.574 . S
C663 C682 1.368 . S
C663 H687 0.949 . S
H664 C668 0.949 . S
C665 C666 1.349 . S
C665 C667 1.327 1_554 S
C665 H688 0.950 . S
C666 C665 1.349 . S
C666 C678 1.349 . S
C667 C665 1.327 1_556 S
C667 C683 1.429 . S
C667 H689 0.950 . S
C668 H664 0.949 . S
C668 C676 1.574 . S
C668 C684 1.368 . S
H669 C677 0.950 . S
H670 C675 0.950 . S
H671 C676 0.949 . S
H672 C678 0.950 . S
H673 C679 0.950 . S
H674 C680 0.949 . S
C675 H670 0.950 . S
C675 C677 1.327 . S
C675 C681 1.429 . S
C676 C668 1.574 . S
C676 H671 0.949 . S
C676 C682 1.368 . S
C677 C661 1.349 . S
C677 H669 0.950 . S
C677 C675 1.327 . S
C678 C666 1.349 . S
C678 H672 0.950 . S
C678 C679 1.327 1_554 S
C679 H673 0.950 . S
C679 C678 1.327 1_556 S
C679 C683 1.429 . S
C680 C663 1.574 . S
C680 H674 0.949 . S
C680 C684 1.368 . S
C681 C662 1.429 . S
C681 C675 1.429 . S
C681 C682 1.523 . S
C682 C663 1.368 . S
C682 C676 1.368 . S
C682 C681 1.523 . S
C683 C667 1.429 . S
C683 C679 1.429 . S
C683 C684 1.523 . S
C684 C668 1.368 . S
C684 C680 1.368 . S
C684 C683 1.523 . S
H685 C660 0.950 . S
H686 C662 0.950 . S
H687 C663 0.949 . S
H688 C665 0.950 . S
H689 C667 0.950 . S
C690 C691 1.349 . S
C690 C692 1.327 . S
C690 H715 0.950 . S
C691 C690 1.349 . S
C691 C707 1.349 . S
C692 C690 1.327 . S
C692 C711 1.429 . S
C692 H716 0.950 . S
C693 C710 1.574 . S
C693 C712 1.368 . S
C693 H717 0.949 . S
H694 C698 0.949 . S
C695 C696 1.349 . S
C695 C697 1.327 . S
C695 H718 0.950 . S
C696 C695 1.349 . S
C696 C708 1.349 . S
C697 C695 1.327 . S
C697 C713 1.429 . S
C697 H719 0.950 . S
C698 H694 0.949 . S
C698 C706 1.574 . S
C698 C714 1.368 . S
H699 C707 0.950 . S
H700 C705 0.950 . S
H701 C706 0.949 . S
H702 C708 0.950 . S
H703 C709 0.950 . S
H704 C710 0.949 . S
C705 H700 0.950 . S
C705 C707 1.327 . S
C705 C711 1.429 . S
C706 C698 1.574 . S
C706 H701 0.949 . S
C706 C712 1.368 . S
C707 C691 1.349 . S
C707 H699 0.950 . S
C707 C705 1.327 . S
C708 C696 1.349 . S
C708 H702 0.950 . S
C708 C709 1.327 . S
C709 H703 0.950 . S
C709 C708 1.327 . S
C709 C713 1.429 . S
C710 C693 1.574 . S
C710 H704 0.949 . S
C710 C714 1.368 . S
C711 C692 1.429 . S
C711 C705 1.429 . S
C711 C712 1.523 . S
C712 C693 1.368 . S
C712 C706 1.368 . S
C712 C711 1.523 . S
C713 C697 1.429 . S
C713 C709 1.429 . S
C713 C714 1.523 . S
C714 C698 1.368 . S
C714 C710 1.368 . S
C714 C713 1.523 . S
H715 C690 0.950 . S
H716 C692 0.950 . S
H717 C693 0.949 . S
H718 C695 0.950 . S
H719 C697 0.950 . S
C720 C721 1.349 . S
C720 C722 1.327 . S
C720 H745 0.950 . S
C721 C720 1.349 . S
C721 C737 1.349 . S
C722 C720 1.327 . S
C722 C741 1.429 . S
C722 H746 0.950 . S
C723 C740 1.574 . S
C723 C742 1.368 . S
C723 H747 0.949 . S
H724 C728 0.949 . S
C725 C726 1.349 . S
C725 C727 1.327 . S
C725 H748 0.950 . S
C726 C725 1.349 . S
C726 C738 1.349 . S
C727 C725 1.327 . S
C727 C743 1.429 . S
C727 H749 0.950 . S
C728 H724 0.949 . S
C728 C736 1.574 . S
C728 C744 1.368 . S
H729 C737 0.950 . S
H730 C735 0.950 . S
H731 C736 0.949 . S
H732 C738 0.950 . S
H733 C739 0.950 . S
H734 C740 0.949 . S
C735 H730 0.950 . S
C735 C737 1.327 . S
C735 C741 1.429 . S
C736 C728 1.574 . S
C736 H731 0.949 . S
C736 C742 1.368 . S
C737 C721 1.349 . S
C737 H729 0.950 . S
C737 C735 1.327 . S
C738 C726 1.349 . S
C738 H732 0.950 . S
C738 C739 1.327 . S
C739 H733 0.950 . S
C739 C738 1.327 . S
C739 C743 1.429 . S
C740 C723 1.574 . S
C740 H734 0.949 . S
C740 C744 1.368 . S
C741 C722 1.429 . S
C741 C735 1.429 . S
C741 C742 1.523 . S
C742 C723 1.368 . S
C742 C736 1.368 . S
C742 C741 1.523 . S
C743 C727 1.429 . S
C743 C739 1.429 . S
C743 C744 1.523 . S
C744 C728 1.368 . S
C744 C740 1.368 . S
C744 C743 1.523 . S
H745 C720 0.950 . S
H746 C722 0.950 . S
H747 C723 0.949 . S
H748 C725 0.950 . S
H749 C727 0.950 . S
C750 C751 1.349 . S
C750 C752 1.327 . S
C750 H775 0.950 . S
C751 C750 1.349 . S
C751 C767 1.349 . S
C752 C750 1.327 . S
C752 C771 1.429 . S
C752 H776 0.950 . S
C753 C770 1.574 . S
C753 C772 1.368 . S
C753 H777 0.949 . S
H754 C758 0.949 . S
C755 C756 1.349 . S
C755 C757 1.327 . S
C755 H778 0.950 . S
C756 C755 1.349 . S
C756 C768 1.349 . S
C757 C755 1.327 . S
C757 C773 1.429 . S
C757 H779 0.950 . S
C758 H754 0.949 . S
C758 C766 1.574 . S
C758 C774 1.368 . S
H759 C767 0.950 . S
H760 C765 0.950 . S
H761 C766 0.949 . S
H762 C768 0.950 . S
H763 C769 0.950 . S
H764 C770 0.949 . S
C765 H760 0.950 . S
C765 C767 1.327 . S
C765 C771 1.429 . S
C766 C758 1.574 . S
C766 H761 0.949 . S
C766 C772 1.368 . S
C767 C751 1.349 . S
C767 H759 0.950 . S
C767 C765 1.327 . S
C768 C756 1.349 . S
C768 H762 0.950 . S
C768 C769 1.327 . S
C769 H763 0.950 . S
C769 C768 1.327 . S
C769 C773 1.429 . S
C770 C753 1.574 . S
C770 H764 0.949 . S
C770 C774 1.368 . S
C771 C752 1.429 . S
C771 C765 1.429 . S
C771 C772 1.523 . S
C772 C753 1.368 . S
C772 C766 1.368 . S
C772 C771 1.523 . S
C773 C757 1.429 . S
C773 C769 1.429 . S
C773 C774 1.523 . S
C774 C758 1.368 . S
C774 C770 1.368 . S
C774 C773 1.523 . S
H775 C750 0.950 . S
H776 C752 0.950 . S
H777 C753 0.949 . S
H778 C755 0.950 . S
H779 C757 0.950 . S
C780 C781 1.349 . S
C780 C782 1.327 . S
C780 H805 0.950 . S
C781 C780 1.349 . S
C781 C797 1.349 . S
C782 C780 1.327 . S
C782 C801 1.429 . S
C782 H806 0.950 . S
C783 C800 1.574 . S
C783 C802 1.368 . S
C783 H807 0.949 . S
H784 C788 0.949 . S
C785 C786 1.349 . S
C785 C787 1.327 . S
C785 H808 0.950 . S
C786 C785 1.349 . S
C786 C798 1.349 . S
C787 C785 1.327 . S
C787 C803 1.429 . S
C787 H809 0.950 . S
C788 H784 0.949 . S
C788 C796 1.574 . S
C788 C804 1.368 . S
H789 C797 0.950 . S
H790 C795 0.950 . S
H791 C796 0.949 . S
H792 C798 0.950 . S
H793 C799 0.950 . S
H794 C800 0.949 . S
C795 H790 0.950 . S
C795 C797 1.327 . S
C795 C801 1.429 . S
C796 C788 1.574 . S
C796 H791 0.949 . S
C796 C802 1.368 . S
C797 C781 1.349 . S
C797 H789 0.950 . S
C797 C795 1.327 . S
C798 C786 1.349 . S
C798 H792 0.950 . S
C798 C799 1.327 . S
C799 H793 0.950 . S
C799 C798 1.327 . S
C799 C803 1.429 . S
C800 C783 1.574 . S
C800 H794 0.949 . S
C800 C804 1.368 . S
C801 C782 1.429 . S
C801 C795 1.429 . S
C801 C802 1.523 . S
C802 C783 1.368 . S
C802 C796 1.368 . S
C802 C801 1.523 . S
C803 C787 1.429 . S
C803 C799 1.429 . S
C803 C804 1.523 . S
C804 C788 1.368 . S
C804 C800 1.368 . S
C804 C803 1.523 . S
H805 C780 0.950 . S
H806 C782 0.950 . S
H807 C783 0.949 . S
H808 C785 0.950 . S
H809 C787 0.950 . S
C810 C811 1.349 . S
C810 C812 1.327 . S
C810 H835 0.950 . S
C811 C810 1.349 . S
C811 C827 1.349 . S
C812 C810 1.327 . S
C812 C831 1.429 . S
C812 H836 0.950 . S
C813 C830 1.574 . S
C813 C832 1.368 . S
C813 H837 0.949 . S
H814 C818 0.949 . S
C815 C816 1.349 . S
C815 C817 1.327 . S
C815 H838 0.950 . S
C816 C815 1.349 . S
C816 C828 1.349 . S
C817 C815 1.327 . S
C817 C833 1.429 . S
C817 H839 0.950 . S
C818 H814 0.949 . S
C818 C826 1.574 . S
C818 C834 1.368 . S
H819 C827 0.950 . S
H820 C825 0.950 . S
H821 C826 0.949 . S
H822 C828 0.950 . S
H823 C829 0.950 . S
H824 C830 0.949 . S
C825 H820 0.950 . S
C825 C827 1.327 . S
C825 C831 1.429 . S
C826 C818 1.574 . S
C826 H821 0.949 . S
C826 C832 1.368 . S
C827 C811 1.349 . S
C827 H819 0.950 . S
C827 C825 1.327 . S
C828 C816 1.349 . S
C828 H822 0.950 . S
C828 C829 1.327 . S
C829 H823 0.950 . S
C829 C828 1.327 . S
C829 C833 1.429 . S
C830 C813 1.574 . S
C830 H824 0.949 . S
C830 C834 1.368 . S
C831 C812 1.429 . S
C831 C825 1.429 . S
C831 C832 1.523 . S
C832 C813 1.368 . S
C832 C826 1.368 . S
C832 C831 1.523 . S
C833 C817 1.429 . S
C833 C829 1.429 . S
C833 C834 1.523 . S
C834 C818 1.368 . S
C834 C830 1.368 . S
C834 C833 1.523 . S
H835 C810 0.950 . S
H836 C812 0.950 . S
H837 C813 0.949 . S
H838 C815 0.950 . S
H839 C817 0.950 . S
C840 C841 1.349 . S
C840 C842 1.327 . S
C840 H865 0.950 . S
C841 C840 1.349 . S
C841 C857 1.349 . S
C842 C840 1.327 . S
C842 C861 1.429 . S
C842 H866 0.950 . S
C843 C860 1.574 . S
C843 C862 1.368 . S
C843 H867 0.949 . S
H844 C848 0.949 . S
C845 C846 1.349 . S
C845 C847 1.327 . S
C845 H868 0.950 . S
C846 C845 1.349 . S
C846 C858 1.349 . S
C847 C845 1.327 . S
C847 C863 1.429 . S
C847 H869 0.950 . S
C848 H844 0.949 . S
C848 C856 1.574 . S
C848 C864 1.368 . S
H849 C857 0.950 . S
H850 C855 0.950 . S
H851 C856 0.949 . S
H852 C858 0.950 . S
H853 C859 0.950 . S
H854 C860 0.949 . S
C855 H850 0.950 . S
C855 C857 1.327 . S
C855 C861 1.429 . S
C856 C848 1.574 . S
C856 H851 0.949 . S
C856 C862 1.368 . S
C857 C841 1.349 . S
C857 H849 0.950 . S
C857 C855 1.327 . S
C858 C846 1.349 . S
C858 H852 0.950 . S
C858 C859 1.327 . S
C859 H853 0.950 . S
C859 C858 1.327 . S
C859 C863 1.429 . S
C860 C843 1.574 . S
C860 H854 0.949 . S
C860 C864 1.368 . S
C861 C842 1.429 . S
C861 C855 1.429 . S
C861 C862 1.523 . S
C862 C843 1.368 . S
C862 C856 1.368 . S
C862 C861 1.523 . S
C863 C847 1.429 . S
C863 C859 1.429 . S
C863 C864 1.523 . S
C864 C848 1.368 . S
C864 C860 1.368 . S
C864 C863 1.523 . S
H865 C840 0.950 . S
H866 C842 0.950 . S
H867 C843 0.949 . S
H868 C845 0.950 . S
H869 C847 0.950 . S
C870 C871 1.349 . S
C870 C872 1.327 . S
C870 H895 0.950 . S
C871 C870 1.349 . S
C871 C887 1.349 . S
C872 C870 1.327 . S
C872 C891 1.429 . S
C872 H896 0.950 . S
C873 C890 1.574 . S
C873 C892 1.368 . S
C873 H897 0.949 . S
H874 C878 0.949 . S
C875 C876 1.349 . S
C875 C877 1.327 . S
C875 H898 0.950 . S
C876 C875 1.349 . S
C876 C888 1.349 . S
C877 C875 1.327 . S
C877 C893 1.429 1_556 S
C877 H899 0.950 . S
C878 H874 0.949 . S
C878 C886 1.574 . S
C878 C894 1.368 . S
H879 C887 0.950 . S
H880 C885 0.950 . S
H881 C886 0.949 . S
H882 C888 0.950 . S
H883 C889 0.950 . S
H884 C890 0.949 . S
C885 H880 0.950 . S
C885 C887 1.327 . S
C885 C891 1.429 . S
C886 C878 1.574 . S
C886 H881 0.949 . S
C886 C892 1.368 . S
C887 C871 1.349 . S
C887 H879 0.950 . S
C887 C885 1.327 . S
C888 C876 1.349 . S
C888 H882 0.950 . S
C888 C889 1.327 . S
C889 H883 0.950 . S
C889 C888 1.327 . S
C889 C893 1.429 1_556 S
C890 C873 1.574 . S
C890 H884 0.949 . S
C890 C894 1.368 . S
C891 C872 1.429 . S
C891 C885 1.429 . S
C891 C892 1.523 . S
C892 C873 1.368 . S
C892 C886 1.368 . S
C892 C891 1.523 . S
C893 C877 1.429 1_554 S
C893 C889 1.429 1_554 S
C893 C894 1.522 . S
C894 C878 1.368 . S
C894 C890 1.368 . S
C894 C893 1.522 . S
H895 C870 0.950 . S
H896 C872 0.950 . S
H897 C873 0.949 . S
H898 C875 0.950 . S
H899 C877 0.950 . S
C900 C901 1.349 . S
C900 C902 1.327 . S
C900 H925 0.950 . S
C901 C900 1.349 . S
C901 C917 1.349 . S
C902 C900 1.327 . S
C902 C921 1.429 . S
C902 H926 0.950 . S
C903 C920 1.574 . S
C903 C922 1.368 . S
C903 H927 0.949 . S
H904 C908 0.949 . S
C905 C906 1.349 . S
C905 C907 1.327 . S
C905 H928 0.950 . S
C906 C905 1.349 . S
C906 C918 1.349 . S
C907 C905 1.327 . S
C907 C923 1.429 . S
C907 H929 0.950 . S
C908 H904 0.949 . S
C908 C916 1.574 . S
C908 C924 1.368 . S
H909 C917 0.950 . S
H910 C915 0.950 . S
H911 C916 0.949 . S
H912 C918 0.950 . S
H913 C919 0.950 . S
H914 C920 0.949 . S
C915 H910 0.950 . S
C915 C917 1.327 . S
C915 C921 1.429 . S
C916 C908 1.574 . S
C916 H911 0.949 . S
C916 C922 1.368 . S
C917 C901 1.349 . S
C917 H909 0.950 . S
C917 C915 1.327 . S
C918 C906 1.349 . S
C918 H912 0.950 . S
C918 C919 1.327 . S
C919 H913 0.950 . S
C919 C918 1.327 . S
C919 C923 1.429 . S
C920 C903 1.574 . S
C920 H914 0.949 . S
C920 C924 1.368 . S
C921 C902 1.429 . S
C921 C915 1.429 . S
C921 C922 1.523 . S
C922 C903 1.368 . S
C922 C916 1.368 . S
C922 C921 1.523 . S
C923 C907 1.429 . S
C923 C919 1.429 . S
C923 C924 1.523 . S
C924 C908 1.368 . S
C924 C920 1.368 . S
C924 C923 1.523 . S
H925 C900 0.950 . S
H926 C902 0.950 . S
H927 C903 0.949 . S
H928 C905 0.950 . S
H929 C907 0.950 . S
C216 C203 1.576 . S
C211 C19 1.498 . S
C241 C40 1.394 . S
C246 C137 1.462 . S
C271 C51 1.315 . S
C276 C151 1.395 . S
C301 C72 1.362 . S
C306 C165 1.451 . S
C336 C179 1.465 . S
C331 C103 1.390 . S
C361 C114 1.421 . S
C366 C189 1.517 . S
C391 C30 1.486 . S
C396 C147 1.584 . S
C421 C61 1.547 . S
C426 C161 1.641 . S
C451 C82 1.468 . S
C456 C175 1.559 . S
C486 C193 1.454 . S
C481 C93 1.363 1_554 S
C516 C207 1.506 . S
C511 C124 1.430 . S
C546 C133 1.561 . S
C541 C9 1.469 . S
C571 C17 1.450 . S
C576 C148 1.466 . S
C601 C38 1.520 . S
C606 C162 1.544 . S
C636 C176 1.547 . S
C631 C54 1.518 . S
C661 C75 1.411 . S
C666 C195 1.425 . S
C696 C209 1.396 . S
C691 C101 1.387 . S
C726 C134 1.442 . S
C721 C117 1.417 . S
C756 C204 1.437 . S
C751 C33 1.413 . S
C781 C59 1.311 . S
C786 C139 1.321 . S
C816 C153 1.335 . S
C811 C80 1.322 . S
C841 C96 1.384 . S
C846 C167 1.403 . S
C871 C122 1.410 . S
C876 C181 1.417 . S
C901 C12 1.450 . S
C906 C190 1.469 . S
