# Generated by pormake.
# Topology ant, (3,6)-cn, num edge types: 1
# Building blocks:
#     Node 0, Type 0, BuildingBlock: INOVEN_clean_linker_0, # of connection points: 3
#     Node 1, Type 0, BuildingBlock: INOVEN_clean_linker_0, # of connection points: 3
#     Node 2, Type 0, BuildingBlock: INOVEN_clean_linker_0, # of connection points: 3
#     Node 3, Type 0, BuildingBlock: INOVEN_clean_linker_0, # of connection points: 3
#     Node 4, Type 0, BuildingBlock: INOVEN_clean_linker_0, # of connection points: 3
#     Node 5, Type 0, BuildingBlock: INOVEN_clean_linker_0, # of connection points: 3
#     Node 6, Type 0, BuildingBlock: INOVEN_clean_linker_0, # of connection points: 3
#     Node 7, Type 0, BuildingBlock: INOVEN_clean_linker_0, # of connection points: 3
#     Node 8, Type 1, BuildingBlock: MIDCAF_clean_sbu_0, # of connection points: 6
#     Node 9, Type 1, BuildingBlock: MIDCAF_clean_sbu_0, # of connection points: 6
#     Node 10, Type 1, BuildingBlock: MIDCAF_clean_sbu_0, # of connection points: 6
#     Node 11, Type 1, BuildingBlock: MIDCAF_clean_sbu_0, # of connection points: 6
#     Edge 12, Type (0, 1), BuildingBlock: XIVTED_clean_linker_0, # of connection points: 2
#     Edge 13, Type (0, 1), BuildingBlock: XIVTED_clean_linker_0, # of connection points: 2
#     Edge 14, Type (0, 1), BuildingBlock: XIVTED_clean_linker_0, # of connection points: 2
#     Edge 15, Type (0, 1), BuildingBlock: XIVTED_clean_linker_0, # of connection points: 2
#     Edge 16, Type (0, 1), BuildingBlock: XIVTED_clean_linker_0, # of connection points: 2
#     Edge 17, Type (0, 1), BuildingBlock: XIVTED_clean_linker_0, # of connection points: 2
#     Edge 18, Type (0, 1), BuildingBlock: XIVTED_clean_linker_0, # of connection points: 2
#     Edge 19, Type (0, 1), BuildingBlock: XIVTED_clean_linker_0, # of connection points: 2
#     Edge 20, Type (0, 1), BuildingBlock: XIVTED_clean_linker_0, # of connection points: 2
#     Edge 21, Type (0, 1), BuildingBlock: XIVTED_clean_linker_0, # of connection points: 2
#     Edge 22, Type (0, 1), BuildingBlock: XIVTED_clean_linker_0, # of connection points: 2
#     Edge 23, Type (0, 1), BuildingBlock: XIVTED_clean_linker_0, # of connection points: 2
#     Edge 24, Type (0, 1), BuildingBlock: XIVTED_clean_linker_0, # of connection points: 2
#     Edge 25, Type (0, 1), BuildingBlock: XIVTED_clean_linker_0, # of connection points: 2
#     Edge 26, Type (0, 1), BuildingBlock: XIVTED_clean_linker_0, # of connection points: 2
#     Edge 27, Type (0, 1), BuildingBlock: XIVTED_clean_linker_0, # of connection points: 2
#     Edge 28, Type (0, 1), BuildingBlock: XIVTED_clean_linker_0, # of connection points: 2
#     Edge 29, Type (0, 1), BuildingBlock: XIVTED_clean_linker_0, # of connection points: 2
#     Edge 30, Type (0, 1), BuildingBlock: XIVTED_clean_linker_0, # of connection points: 2
#     Edge 31, Type (0, 1), BuildingBlock: XIVTED_clean_linker_0, # of connection points: 2
#     Edge 32, Type (0, 1), BuildingBlock: XIVTED_clean_linker_0, # of connection points: 2
#     Edge 33, Type (0, 1), BuildingBlock: XIVTED_clean_linker_0, # of connection points: 2
#     Edge 34, Type (0, 1), BuildingBlock: XIVTED_clean_linker_0, # of connection points: 2
#     Edge 35, Type (0, 1), BuildingBlock: XIVTED_clean_linker_0, # of connection points: 2
# Relax obj value: 0.055
# Max RMSD: 0.147
# Mean RMSD: 0.088
data_MOF--net-ant--node1-MIDCAF_clean_sbu_0--node2-INOVEN_clean_linker_0--edge1-XIVTED_clean_linker_0
_symmetry_space_group_name_H-M    P1
_symmetry_Int_Tables_number       1
_symmetry_cell_setting            triclinic
loop_
_symmetry_equiv_pos_as_xyz
'x, y, z'
_cell_length_a     28.685994
_cell_length_b     28.651878
_cell_length_c     70.970692
_cell_angle_alpha  94.658633
_cell_angle_beta   98.018406
_cell_angle_gamma 89.725463
loop_
_atom_site_label
_atom_site_type_symbol
_atom_site_fract_x
_atom_site_fract_y
_atom_site_fract_z
_atom_type_partial_charge
H0 H 0.26069 0.28645 0.08891 0.0
H1 H 0.18441 0.31852 0.03466 0.0
H2 H 0.22437 0.1772 0.04416 0.0
N3 N 0.2669 0.19477 0.08005 0.0
N4 N 0.2816 0.1568 0.07327 0.0
C5 C 0.24478 0.2758 0.07446 0.0
C6 C 0.22267 0.30913 0.06261 0.0
C7 C 0.24636 0.22838 0.06775 0.0
C8 C 0.22465 0.21394 0.04921 0.0
C9 C 0.20115 0.24608 0.03748 0.0
C10 C 0.20081 0.29356 0.04415 0.0
H11 H 0.08517 0.80344 0.33114 0.0
H12 H 0.16028 0.80903 0.28297 0.0
H13 H 0.0103 0.78916 0.27397 0.0
N14 N 1.00008 0.79207 0.31137 0.0
N15 N 0.96097 0.8012 0.30236 0.0
C16 C 0.0853 0.80301 0.31587 0.0
C17 C 0.12794 0.80857 0.30858 0.0
C18 C 0.04257 0.79733 0.30352 0.0
C19 C 0.04282 0.79525 0.28363 0.0
C20 C 0.08528 0.79969 0.27617 0.0
C21 C 0.12732 0.80725 0.28874 0.0
H22 H 0.7954 0.7369 0.59363 0.0
H23 H 0.71751 0.7765 0.54082 0.0
H24 H 0.7579 0.63365 0.54667 0.0
N25 N 0.80225 0.64649 0.58246 0.0
N26 N 0.81737 0.6101 0.57454 0.0
C27 C 0.77892 0.72818 0.57909 0.0
C28 C 0.75645 0.76315 0.5682 0.0
C29 C 0.78045 0.68169 0.57126 0.0
C30 C 0.75812 0.66974 0.55259 0.0
C31 C 0.73433 0.70352 0.54178 0.0
C32 C 0.73405 0.75013 0.54958 0.0
H33 H 0.58458 0.36369 0.83151 0.0
H34 H 0.64871 0.34518 0.78003 0.0
H35 H 0.50225 0.31422 0.77811 0.0
N36 N 0.49833 0.33767 0.81558 0.0
N37 N 0.46149 0.31703 0.80787 0.0
C38 C 0.58202 0.35447 0.81628 0.0
C39 C 0.62217 0.357 0.80702 0.0
C40 C 0.53852 0.33934 0.80596 0.0
C41 C 0.53538 0.32635 0.78624 0.0
C42 C 0.57488 0.32957 0.77685 0.0
C43 C 0.61783 0.34503 0.78727 0.0
H44 H 0.95519 0.73384 0.88589 0.0
H45 H 0.01055 0.64231 0.92871 0.0
H46 H 0.04891 0.78777 0.93556 0.0
N47 N 0.99801 0.81153 0.90298 0.0
N48 N 0.02148 0.84526 0.91165 0.0
C49 C 0.97658 0.72844 0.89936 0.0
C50 C 0.97898 0.68382 0.90633 0.0
C51 C 1.00166 0.76623 0.90989 0.0
C52 C 0.0299 0.75872 0.92724 0.0
C53 C 0.03322 0.71415 0.93415 0.0
C54 C 0.00735 0.67708 0.92368 0.0
H55 H 0.69073 0.77013 0.15103 0.0
H56 H 0.62609 0.77524 0.20238 0.0
H57 H 0.77632 0.77523 0.20625 0.0
N58 N 0.77957 0.77114 0.16832 0.0
N59 N 0.81953 0.77585 0.17783 0.0
C60 C 0.69374 0.77288 0.16647 0.0
C61 C 0.65299 0.77307 0.17544 0.0
C62 C 0.73855 0.77411 0.17749 0.0
C63 C 0.74217 0.77569 0.19754 0.0
C64 C 0.70176 0.77665 0.20647 0.0
C65 C 0.65742 0.77585 0.19541 0.0
H66 H 0.496 0.19946 0.39724 0.0
H67 H 0.52967 0.11154 0.44368 0.0
H68 H 0.56784 0.25699 0.45144 0.0
N69 N 0.53206 0.27824 0.41597 0.0
N70 N 0.55353 0.31249 0.42523 0.0
C71 C 0.51139 0.19492 0.4118 0.0
C72 C 0.5099 0.15075 0.41909 0.0
C73 C 0.53222 0.23353 0.42339 0.0
C74 C 0.55185 0.22751 0.44234 0.0
C75 C 0.55095 0.18357 0.44969 0.0
C76 C 0.5302 0.14549 0.43798 0.0
H77 H 0.2052 0.3107 0.65149 0.0
H78 H 0.13812 0.32509 0.70235 0.0
H79 H 0.28664 0.3025 0.707 0.0
N80 N 0.2927 0.30107 0.66953 0.0
N81 N 0.33188 0.31205 0.67882 0.0
C82 C 0.20717 0.31215 0.66689 0.0
C83 C 0.16615 0.31998 0.67555 0.0
C84 C 0.25109 0.30729 0.67821 0.0
C85 C 0.25338 0.30798 0.69818 0.0
C86 C 0.21277 0.31477 0.70683 0.0
C87 C 0.16966 0.3214 0.69553 0.0
Zn88 Zn 0.27987 0.65019 0.14272 0.0
Zn89 Zn 0.16529 0.80618 0.09626 0.0
Zn90 Zn 0.21478 0.75036 0.10988 0.0
C91 C 0.18222 0.74662 0.06617 0.0
C92 C 0.2417 0.85677 0.11262 0.0
O93 O 0.19635 0.72913 0.13847 0.0
O94 O 0.22706 0.67321 0.15767 0.0
C95 C 0.23488 0.65589 0.10083 0.0
O96 O 0.19172 0.72102 0.08028 0.0
O97 O 0.17586 0.79 0.06935 0.0
O98 O 0.19769 0.86256 0.1103 0.0
O99 O 0.25824 0.81505 0.11065 0.0
O100 O 0.25339 0.67173 0.11727 0.0
O101 O 0.21379 0.6862 0.09061 0.0
O102 O 0.28679 0.77606 0.11626 0.0
O103 O 0.28604 0.71073 0.12919 0.0
C104 C 0.30997 0.74518 0.12553 0.0
O105 O 0.15742 0.75774 0.12702 0.0
O106 O 0.10617 0.78404 0.10434 0.0
C107 C 0.19797 0.70639 0.15375 0.0
C108 C 0.11488 0.76756 0.12039 0.0
Zn109 Zn 0.52387 0.67522 0.3399 0.0
Zn110 Zn 0.61798 0.79648 0.3917 0.0
Zn111 Zn 0.56733 0.73319 0.36756 0.0
C112 C 0.53003 0.83599 0.38089 0.0
C113 C 0.6705 0.78008 0.36278 0.0
O114 O 0.56181 0.66406 0.37996 0.0
O115 O 0.5308 0.61957 0.35438 0.0
C116 C 0.45847 0.74352 0.3494 0.0
O117 O 0.52229 0.79581 0.37141 0.0
O118 O 0.56914 0.84513 0.39101 0.0
O119 O 0.6726 0.80601 0.3781 0.0
O120 O 0.63461 0.75279 0.35726 0.0
O121 O 0.46154 0.706 0.33903 0.0
O122 O 0.49498 0.7609 0.36033 0.0
O123 O 0.60453 0.72871 0.34241 0.0
O124 O 0.56403 0.68188 0.31964 0.0
C125 C 0.59866 0.70887 0.32529 0.0
O126 O 0.58507 0.69763 0.39392 0.0
O127 O 0.62474 0.75421 0.4126 0.0
C128 C 0.5466 0.62388 0.37195 0.0
C129 C 0.60786 0.71321 0.41011 0.0
Zn130 Zn 0.67081 0.29047 0.58888 0.0
Zn131 Zn 0.77644 0.17135 0.6506 0.0
Zn132 Zn 0.73251 0.21092 0.62101 0.0
C133 C 0.83619 0.24121 0.64087 0.0
C134 C 0.76052 0.10146 0.61944 0.0
O135 O 0.66263 0.24129 0.62733 0.0
O136 O 0.62658 0.2943 0.6084 0.0
C137 C 0.76963 0.31223 0.60612 0.0
O138 O 0.80192 0.24473 0.6273 0.0
O139 O 0.83321 0.21355 0.65366 0.0
O140 O 0.77959 0.10823 0.63662 0.0
O141 O 0.74019 0.13561 0.61082 0.0
O142 O 0.73162 0.32492 0.59645 0.0
O143 O 0.77357 0.27336 0.61442 0.0
O144 O 0.71559 0.15922 0.59599 0.0
O145 O 0.69365 0.22876 0.59203 0.0
C146 C 0.69324 0.18733 0.58518 0.0
O147 O 0.68971 0.22149 0.64402 0.0
O148 O 0.72675 0.18353 0.66755 0.0
C149 C 0.62818 0.26961 0.62261 0.0
C150 C 0.69256 0.20817 0.661 0.0
Zn151 Zn 0.00934 0.21869 0.83309 0.0
Zn152 Zn 0.10154 0.32829 0.89053 0.0
Zn153 Zn 0.05502 0.26979 0.86354 0.0
C154 C 0.08642 0.24243 0.90602 0.0
C155 C 0.01707 0.37103 0.87945 0.0
O156 O 0.09714 0.26639 0.83973 0.0
O157 O 0.05875 0.21999 0.81619 0.0
C158 C 0.02164 0.16319 0.86485 0.0
O159 O 0.06627 0.22947 0.88904 0.0
O160 O 0.10385 0.28296 0.91 0.0
O161 O 0.05418 0.37828 0.89111 0.0
O162 O 0.01184 0.33307 0.8683 0.0
O163 O 1.00351 0.16313 0.84756 0.0
O164 O 0.04314 0.19999 0.87349 0.0
O165 O 0.98584 0.30241 0.85464 0.0
O166 O 0.95399 0.26051 0.82844 0.0
C167 C 0.95192 0.29444 0.8408 0.0
O168 O 0.12569 0.28753 0.85611 0.0
O169 O 0.15977 0.33784 0.87916 0.0
C170 C 0.09361 0.24601 0.82271 0.0
C171 C 0.16138 0.31322 0.86369 0.0
H172 H 0.15286 0.37419 0.05479 0.0
H173 H 0.29118 0.58834 0.11668 0.0
H174 H 0.29288 0.36123 0.08534 0.0
H175 H 0.17681 0.60753 0.0717 0.0
H176 H 0.28779 0.50401 0.10793 0.0
H177 H 0.15638 0.4584 0.06349 0.0
C178 C 0.18449 0.38888 0.06326 0.0
C179 C 0.22288 0.36016 0.06912 0.0
C180 C 0.26349 0.52663 0.09994 0.0
C181 C 0.22652 0.45701 0.0795 0.0
C182 C 0.26528 0.5748 0.10496 0.0
C183 C 0.23409 0.60504 0.09495 0.0
C184 C 0.22984 0.50829 0.08493 0.0
C185 C 0.20157 0.58551 0.07977 0.0
C186 C 0.18631 0.43709 0.06827 0.0
C187 C 0.2622 0.38153 0.08059 0.0
N188 N 0.20006 0.53832 0.07531 0.0
N189 N 0.26298 0.42854 0.08538 0.0
H190 H 0.94336 0.74018 0.32806 0.0
H191 H 0.71028 0.85713 0.35158 0.0
H192 H 0.8813 0.84734 0.29354 0.0
H193 H 0.71979 0.70663 0.34852 0.0
H194 H 0.77942 0.85995 0.33477 0.0
H195 H 0.86829 0.732 0.34066 0.0
C196 C 0.91394 0.76207 0.32322 0.0
C197 C 0.91828 0.79494 0.30991 0.0
C198 C 0.76608 0.82635 0.33766 0.0
C199 C 0.83325 0.7861 0.32434 0.0
C200 C 0.72692 0.82472 0.34727 0.0
C201 C 0.70958 0.78159 0.35137 0.0
C202 C 0.78904 0.78468 0.3328 0.0
C203 C 0.7322 0.74051 0.34552 0.0
C204 C 0.87119 0.75712 0.33026 0.0
C205 C 0.87906 0.82193 0.30386 0.0
N206 N 0.77142 0.74305 0.3368 0.0
N207 N 0.83831 0.81757 0.31136 0.0
H208 H 0.81103 0.59384 0.61157 0.0
H209 H 0.83417 0.32525 0.58252 0.0
H210 H 0.85988 0.53661 0.5599 0.0
H211 H 0.78746 0.3802 0.63489 0.0
H212 H 0.86813 0.40172 0.57919 0.0
H213 H 0.82402 0.51773 0.62489 0.0
C214 C 0.82578 0.56557 0.60326 0.0
C215 C 0.83403 0.57098 0.58451 0.0
C216 C 0.85194 0.39685 0.59179 0.0
C217 C 0.84824 0.48387 0.59947 0.0
C218 C 0.83324 0.35291 0.59382 0.0
C219 C 0.80809 0.34671 0.60897 0.0
C220 C 0.84407 0.43498 0.60474 0.0
C221 C 0.80686 0.38379 0.62304 0.0
C222 C 0.83311 0.52206 0.61082 0.0
C223 C 0.85291 0.53336 0.57434 0.0
N224 N 0.82336 0.42681 0.62033 0.0
N225 N 0.85865 0.49119 0.58179 0.0
H226 H 0.66282 0.32438 0.84084 0.0
H227 H 0.90894 0.33514 0.80992 0.0
H228 H 0.69093 0.41251 0.79719 0.0
H229 H 0.89661 0.31611 0.86861 0.0
H230 H 0.8295 0.36747 0.80581 0.0
H231 H 0.74713 0.32514 0.85303 0.0
C232 C 0.68644 0.34507 0.83418 0.0
C233 C 0.66992 0.36751 0.81768 0.0
C234 C 0.84442 0.35728 0.81974 0.0
C235 C 0.76631 0.36753 0.83125 0.0
C236 C 0.88969 0.33882 0.82205 0.0
C237 C 0.90895 0.32295 0.83957 0.0
C238 C 0.81756 0.35821 0.83488 0.0
C239 C 0.88273 0.32817 0.85488 0.0
C240 C 0.73462 0.34531 0.8411 0.0
C241 C 0.7023 0.39361 0.80961 0.0
N242 N 0.83772 0.34427 0.85206 0.0
N243 N 0.74901 0.39196 0.81617 0.0
H244 H 0.98822 0.64891 0.87008 0.0
H245 H 0.98092 0.41376 0.84759 0.0
H246 H 0.91827 0.62364 0.91821 0.0
H247 H 0.9766 0.41505 0.90805 0.0
H248 H 0.94599 0.49233 0.84787 0.0
H249 H 0.97276 0.56775 0.85746 0.0
C250 C 0.9676 0.62678 0.8775 0.0
C251 C 0.95523 0.64245 0.89534 0.0
C252 C 0.95175 0.47502 0.86099 0.0
C253 C 0.93767 0.54956 0.88121 0.0
C254 C 0.97101 0.43 0.86077 0.0
C255 C 0.98227 0.40873 0.87791 0.0
C256 C 0.94395 0.49827 0.8785 0.0
C257 C 0.96897 0.43085 0.89461 0.0
C258 C 0.95868 0.58028 0.8703 0.0
C259 C 0.92902 0.61243 0.90453 0.0
N260 N 0.95108 0.4747 0.89455 0.0
N261 N 0.92225 0.56706 0.89763 0.0
H262 H 0.82972 0.74432 0.14127 0.0
H263 H 0.10151 0.81018 0.15481 0.0
H264 H 0.90498 0.79636 0.19568 0.0
H265 H 0.03659 0.71511 0.1087 0.0
H266 H 0.03027 0.80724 0.17016 0.0
H267 H 0.90467 0.73667 0.12842 0.0
C268 C 0.86209 0.75429 0.15046 0.0
C269 C 0.86162 0.77144 0.16952 0.0
C270 C 0.03194 0.78614 0.15691 0.0
C271 C 0.94703 0.76267 0.15501 0.0
C272 C 0.07297 0.78704 0.14843 0.0
C273 C 0.07547 0.76108 0.13106 0.0
C274 C 0.99267 0.76042 0.14749 0.0
C275 C 0.03612 0.73476 0.12237 0.0
C276 C 0.90483 0.74962 0.14319 0.0
C277 C 0.90436 0.78335 0.18089 0.0
N278 N 0.99612 0.73532 0.13061 0.0
N279 N 0.94545 0.7791 0.17345 0.0
H280 H 0.60372 0.38654 0.44157 0.0
H281 H 0.4826 0.55406 0.36434 0.0
H282 H 0.50053 0.34186 0.39348 0.0
H283 H 0.60698 0.59673 0.40326 0.0
H284 H 0.48348 0.47941 0.37818 0.0
H285 H 0.60156 0.46605 0.43057 0.0
C286 C 0.58076 0.39363 0.42868 0.0
C287 C 0.55255 0.35781 0.41838 0.0
C288 C 0.51057 0.50498 0.38385 0.0
C289 C 0.54927 0.44811 0.40586 0.0
C290 C 0.51005 0.54782 0.37598 0.0
C291 C 0.54498 0.5817 0.38259 0.0
C292 C 0.54642 0.49534 0.39852 0.0
C293 C 0.5792 0.57179 0.39787 0.0
C294 C 0.5795 0.4388 0.42244 0.0
C295 C 0.5231 0.36837 0.40182 0.0
N296 N 0.57933 0.52921 0.40526 0.0
N297 N 0.52221 0.41255 0.39613 0.0
H298 H 0.09707 0.38254 0.68223 0.0
H299 H 0.891 0.24565 0.61248 0.0
H300 H 0.12619 0.26508 0.64372 0.0
H301 H 0.88222 0.29482 0.67088 0.0
H302 H 0.97249 0.27606 0.61635 0.0
H303 H 0.01338 0.37471 0.66981 0.0
C304 C 0.08599 0.35575 0.67083 0.0
C305 C 0.11854 0.32362 0.66434 0.0
C306 C 0.95216 0.28104 0.62811 0.0
C307 C 0.02287 0.31502 0.64994 0.0
C308 C 0.90581 0.26406 0.6259 0.0
C309 C 0.88033 0.26766 0.64145 0.0
C310 C 0.97221 0.30279 0.64581 0.0
C311 C 0.90096 0.29126 0.65861 0.0
C312 C 0.03827 0.35138 0.66378 0.0
C313 C 0.10228 0.29034 0.64924 0.0
N314 N 0.94572 0.3079 0.66035 0.0
N315 N 0.05533 0.28635 0.64273 0.0
H316 H 0.41124 0.35853 0.69089 0.0
H317 H 0.57694 0.19861 0.63336 0.0
H318 H 0.35069 0.2475 0.65048 0.0
H319 H 0.58796 0.34906 0.63602 0.0
H320 H 0.50395 0.20675 0.64808 0.0
H321 H 0.48733 0.34624 0.67897 0.0
C322 C 0.4142 0.33166 0.67948 0.0
C323 C 0.3749 0.30471 0.67136 0.0
C324 C 0.52279 0.23779 0.64556 0.0
C325 C 0.46131 0.28927 0.65824 0.0
C326 C 0.56434 0.23322 0.63734 0.0
C327 C 0.58811 0.27328 0.63352 0.0
C328 C 0.506 0.28266 0.65036 0.0
C329 C 0.57038 0.31742 0.63873 0.0
C330 C 0.45731 0.32463 0.67276 0.0
C331 C 0.38015 0.26963 0.65681 0.0
N332 N 0.5305 0.32099 0.64703 0.0
N333 N 0.42285 0.26268 0.65075 0.0
H334 H 0.60575 0.8285 0.14923 0.0
H335 H 0.36578 0.68304 0.14499 0.0
H336 H 0.59204 0.70271 0.17746 0.0
H337 H 0.3711 0.81499 0.12001 0.0
H338 H 0.45046 0.68747 0.15461 0.0
H339 H 0.52202 0.82134 0.13545 0.0
C340 C 0.58526 0.79898 0.1522 0.0
C341 C 0.60544 0.7662 0.16449 0.0
C342 C 0.4333 0.71557 0.14703 0.0
C343 C 0.51032 0.75803 0.14914 0.0
C344 C 0.38478 0.71312 0.14159 0.0
C345 C 0.36126 0.74886 0.1318 0.0
C346 C 0.45882 0.75409 0.14271 0.0
C347 C 0.38788 0.78679 0.12764 0.0
C348 C 0.53755 0.79509 0.1445 0.0
C349 C 0.57756 0.72881 0.16811 0.0
N350 N 0.43533 0.78849 0.13315 0.0
N351 N 0.53149 0.72589 0.16056 0.0
H352 H 0.44208 0.37022 0.8395 0.0
H353 H 0.19613 0.2431 0.84103 0.0
H354 H 0.38656 0.26302 0.7962 0.0
H355 H 0.22797 0.38233 0.86739 0.0
H356 H 0.26949 0.24404 0.82704 0.0
H357 H 0.368 0.36901 0.85305 0.0
C358 C 0.41437 0.34619 0.83295 0.0
C359 C 0.42016 0.31636 0.81676 0.0
C360 C 0.26019 0.2745 0.83577 0.0
C361 C 0.33573 0.31482 0.83215 0.0
C362 C 0.21808 0.2742 0.84356 0.0
C363 C 0.20515 0.31329 0.85484 0.0
C364 C 0.29032 0.31361 0.83983 0.0
C365 C 0.23627 0.35167 0.85855 0.0
C366 C 0.37207 0.34568 0.84061 0.0
C367 C 0.38313 0.28627 0.80873 0.0
N368 N 0.27745 0.35083 0.85111 0.0
N369 N 0.34247 0.28602 0.81654 0.0
H370 H 0.15879 0.7545 0.33785 0.0
H371 H 0.42834 0.83316 0.34301 0.0
H372 H 0.20265 0.8674 0.30752 0.0
H373 H 0.38152 0.69868 0.35643 0.0
H374 H 0.34557 0.85901 0.33829 0.0
H375 H 0.23981 0.74777 0.35351 0.0
C376 C 0.1852 0.77869 0.33485 0.0
C377 C 0.1741 0.81105 0.32114 0.0
C378 C 0.35365 0.82419 0.34265 0.0
C379 C 0.26707 0.80308 0.33878 0.0
C380 C 0.40073 0.80964 0.34543 0.0
C381 C 0.41133 0.76372 0.34994 0.0
C382 C 0.3175 0.79264 0.34468 0.0
C383 C 0.37452 0.73426 0.35278 0.0
C384 C 0.23155 0.77459 0.34367 0.0
C385 C 0.20994 0.84134 0.31775 0.0
N386 N 0.32931 0.74909 0.35 0.0
N387 N 0.25496 0.83622 0.3263 0.0
H388 H 0.82816 0.81188 0.59125 0.0
H389 H 0.70168 0.06174 0.5881 0.0
H390 H 0.68707 0.82977 0.56246 0.0
H391 H 0.8209 0.03134 0.62939 0.0
H392 H 0.70069 0.97943 0.57509 0.0
H393 H 0.83013 0.89466 0.60255 0.0
C394 C 0.79738 0.83294 0.58742 0.0
C395 C 0.75737 0.81339 0.57586 0.0
C396 C 0.72712 0.991 0.58695 0.0
C397 C 0.75994 0.909 0.58842 0.0
C398 C 0.72791 0.038 0.59428 0.0
C399 C 0.76125 0.05343 0.60993 0.0
C400 C 0.76031 0.95953 0.59517 0.0
C401 C 0.79427 0.02099 0.61743 0.0
C402 C 0.79871 0.88043 0.59376 0.0
C403 C 0.71904 0.84317 0.57107 0.0
N404 N 0.79295 0.97577 0.61 0.0
N405 N 0.72133 0.8894 0.57731 0.0
H406 H 0.27042 0.14707 0.11036 0.0
H407 H 0.3172 0.87342 0.09437 0.0
H408 H 0.32493 0.0804 0.06147 0.0
H409 H 0.23169 0.93693 0.13463 0.0
H410 H 0.34561 0.9516 0.08936 0.0
H411 H 0.2808 0.07372 0.12596 0.0
C412 C 0.28586 0.11735 0.10315 0.0
C413 C 0.29657 0.11931 0.08453 0.0
C414 C 0.32174 0.94827 0.09973 0.0
C415 C 0.30795 0.0354 0.10214 0.0
C416 C 0.306 0.90364 0.10275 0.0
C417 C 0.27167 0.89902 0.11472 0.0
C418 C 0.30305 0.98814 0.10886 0.0
C419 C 0.25782 0.93924 0.1251 0.0
C420 C 0.29161 0.07543 0.11201 0.0
C421 C 0.31617 0.07983 0.0758 0.0
N422 N 0.27291 0.98219 0.1217 0.0
N423 N 0.32064 0.03923 0.08453 0.0
H424 H 0.52455 0.1191 0.38284 0.0
H425 H 0.46731 0.86498 0.4046 0.0
H426 H 0.44862 0.08672 0.4285 0.0
H427 H 0.5219 0.89704 0.35364 0.0
H428 H 0.44065 0.94585 0.40878 0.0
H429 H 0.5061 0.04057 0.36735 0.0
C430 C 0.50286 0.09593 0.38932 0.0
C431 C 0.48913 0.10891 0.40721 0.0
C432 C 0.45695 0.93502 0.39627 0.0
C433 C 0.4686 0.01881 0.38982 0.0
C434 C 0.47158 0.88863 0.39379 0.0
C435 C 0.49655 0.87462 0.37874 0.0
C436 C 0.46898 0.96777 0.38396 0.0
C437 C 0.50238 0.90671 0.36536 0.0
C438 C 0.49246 0.05097 0.38053 0.0
C439 C 0.461 0.07755 0.41496 0.0
N440 N 0.48987 0.95219 0.36854 0.0
N441 N 0.45252 0.03368 0.40644 0.0
H442 H 0.96269 0.87671 0.88174 0.0
H443 H 0.08036 0.13224 0.8954 0.0
H444 H 0.07333 0.9181 0.9275 0.0
H445 H 0.95675 0.09359 0.85534 0.0
H446 H 0.07805 0.05536 0.90817 0.0
H447 H 0.96029 0.95675 0.87201 0.0
C448 C 0.98649 0.90276 0.88972 0.0
C449 C 0.01853 0.89112 0.90541 0.0
C450 C 0.05114 0.06399 0.89673 0.0
C451 C 0.016 0.98266 0.89441 0.0
C452 C 0.05218 0.10809 0.88961 0.0
C453 C 0.01859 0.1195 0.87439 0.0
C454 C 0.01644 0.03109 0.88842 0.0
C455 C 0.98359 0.08622 0.86701 0.0
C456 C 0.98506 0.9485 0.88423 0.0
C457 C 0.04838 0.92612 0.9153 0.0
N458 N 0.98362 0.04356 0.874 0.0
N459 N 0.04662 0.97035 0.90962 0.0
H460 H 0.11223 0.26754 0.02153 0.0
H461 H 0.15764 0.18483 0.91785 0.0
H462 H 0.23425 0.18773 0.00982 0.0
H463 H 0.02452 0.23798 0.93115 0.0
H464 H 0.18007 0.17001 0.95135 0.0
H465 H 0.07447 0.24562 0.98901 0.0
C466 C 0.13095 0.24521 0.01209 0.0
C467 C 0.1767 0.23009 0.01823 0.0
C468 C 0.14521 0.18326 0.94688 0.0
C469 C 0.13375 0.20467 0.98097 0.0
C470 C 0.13215 0.19096 0.92769 0.0
C471 C 0.08915 0.21237 0.92184 0.0
C472 C 0.11544 0.19838 0.96028 0.0
C473 C 0.05783 0.22098 0.93516 0.0
C474 C 0.10924 0.23228 -0.00642 0.0
C475 C 0.19902 0.20037 0.00559 0.0
N476 N 0.07205 0.21513 0.95389 0.0
N477 N 0.17765 0.18927 0.98745 0.0
H478 H 0.04803 0.7269 0.25138 0.0
H479 H 0.19502 0.79516 0.16955 0.0
H480 H 0.12917 0.85412 0.25402 0.0
H481 H 0.14018 0.65663 0.17247 0.0
H482 H 0.15677 0.82283 0.1971 0.0
H483 H 0.06602 0.70691 0.2189 0.0
C484 C 0.06863 0.75116 0.24492 0.0
C485 C 0.08751 0.79202 0.2554 0.0
C486 C 0.15251 0.7865 0.1916 0.0
C487 C 0.10876 0.76914 0.21851 0.0
C488 C 0.17415 0.77081 0.17586 0.0
C489 C 0.17012 0.7238 0.16871 0.0
C490 C 0.12691 0.75481 0.20034 0.0
C491 C 0.1436 0.6933 0.17754 0.0
C492 C 0.07926 0.73954 0.22649 0.0
C493 C 0.11439 0.82203 0.24647 0.0
N494 N 0.12298 0.70931 0.19295 0.0
N495 N 0.12456 0.8098 0.22861 0.0
H496 H 0.76743 0.6485 0.51319 0.0
H497 H 0.54902 0.70633 0.43636 0.0
H498 H 0.64594 0.72779 0.52601 0.0
H499 H 0.68428 0.66226 0.42206 0.0
H500 H 0.57464 0.68961 0.46953 0.0
H501 H 0.72875 0.63145 0.48035 0.0
C502 C 0.73236 0.66179 0.50914 0.0
C503 C 0.7101 0.69021 0.52223 0.0
C504 C 0.59821 0.68209 0.45902 0.0
C505 C 0.66565 0.67064 0.48479 0.0
C506 C 0.5833 0.6909 0.44007 0.0
C507 C 0.61457 0.68518 0.42659 0.0
C508 C 0.64482 0.668 0.46442 0.0
C509 C 0.65912 0.66654 0.4321 0.0
C510 C 0.71034 0.65207 0.49042 0.0
C511 C 0.6647 0.70657 0.51624 0.0
N512 N 0.67329 0.65928 0.4507 0.0
N513 N 0.64411 0.69684 0.49792 0.0
H514 H 0.54761 0.24412 0.75896 0.0
H515 H 0.66056 0.29698 0.66617 0.0
H516 H 0.60008 0.37908 0.74867 0.0
H517 H 0.65097 0.15915 0.68557 0.0
H518 H 0.61472 0.32798 0.69097 0.0
H519 H 0.56178 0.2139 0.72688 0.0
C520 C 0.56085 0.26765 0.74971 0.0
C521 C 0.57321 0.31392 0.75641 0.0
C522 C 0.62185 0.2908 0.68957 0.0
C523 C 0.58971 0.27981 0.72 0.0
C524 C 0.64758 0.27307 0.67534 0.0
C525 C 0.65903 0.22548 0.6738 0.0
C526 C 0.6081 0.26073 0.7025 0.0
C527 C 0.64271 0.19611 0.68636 0.0
C528 C 0.56921 0.25038 0.73151 0.0
C529 C 0.5906 0.34303 0.74401 0.0
N530 N 0.61832 0.21427 0.70031 0.0
N531 N 0.59879 0.32537 0.72645 0.0
H532 H 0.01401 0.66131 0.96279 0.0
H533 H 0.21689 0.78063 0.03659 0.0
H534 H 0.12158 0.74927 0.94697 0.0
H535 H 0.13074 0.66934 0.0507 0.0
H536 H 0.18964 0.76097 0.00281 0.0
H537 H 0.06142 0.65552 -0.0061 0.0
C538 C 0.04792 0.67883 0.96574 0.0
C539 C 0.06344 0.70659 0.95238 0.0
C540 C 0.17734 0.74002 0.01318 0.0
C541 C 0.11763 0.70043 0.98802 0.0
C542 C 0.19306 0.75118 0.03245 0.0
C543 C 0.17569 0.72668 0.04629 0.0
C544 C 0.14288 0.70502 0.00778 0.0
C545 C 0.14493 0.68888 0.04034 0.0
C546 C 0.07497 0.67551 0.98352 0.0
C547 C 0.10759 0.7286 0.95703 0.0
N548 N 0.12853 0.67982 0.02146 0.0
N549 N 0.13282 0.72552 0.97453 0.0
H550 H 0.74192 0.70709 0.22685 0.0
H551 H 0.62967 0.79548 0.31997 0.0
H552 H 0.66714 0.83714 0.23265 0.0
H553 H 0.6364 0.65018 0.29939 0.0
H554 H 0.67174 0.81683 0.29408 0.0
H555 H 0.73153 0.69288 0.25969 0.0
C556 C 0.7246 0.73325 0.23529 0.0
C557 C 0.70496 0.77311 0.22718 0.0
C558 C 0.66483 0.78024 0.29551 0.0
C559 C 0.69313 0.75725 0.26437 0.0
C560 C 0.64113 0.76804 0.31026 0.0
C561 C 0.62971 0.72108 0.31166 0.0
C562 C 0.67713 0.74512 0.28219 0.0
C563 C 0.64446 0.6868 0.29862 0.0
C564 C 0.7185 0.72504 0.25389 0.0
C565 C 0.68242 0.80587 0.23849 0.0
N566 N 0.66728 0.69953 0.28429 0.0
N567 N 0.67673 0.79704 0.25654 0.0
H568 H 0.61017 0.11532 0.46405 0.0
H569 H 0.61044 0.22356 0.5714 0.0
H570 H 0.53416 0.2383 0.48111 0.0
H571 H 0.71404 0.12282 0.55644 0.0
H572 H 0.57188 0.21633 0.5386 0.0
H573 H 0.6404 0.10709 0.49781 0.0
C574 C 0.59976 0.14043 0.47492 0.0
C575 C 0.56997 0.17781 0.46984 0.0
C576 C 0.60279 0.19539 0.5424 0.0
C577 C 0.60373 0.16827 0.50821 0.0
C578 C 0.62467 0.19932 0.56116 0.0
C579 C 0.66574 0.17421 0.56647 0.0
C580 C 0.62239 0.16655 0.52868 0.0
C581 C 0.68241 0.14282 0.55278 0.0
C582 C 0.61701 0.13572 0.4941 0.0
C583 C 0.55759 0.20943 0.48438 0.0
N584 N 0.661 0.14036 0.53431 0.0
N585 N 0.57448 0.20389 0.50286 0.0
H586 H 0.18239 0.37824 0.73309 0.0
H587 H 0.13216 0.18483 0.79801 0.0
H588 H 0.24321 0.24096 0.72697 0.0
H589 H 0.13029 0.33091 0.81792 0.0
H590 H 0.17784 0.20462 0.77305 0.0
H591 H 0.16827 0.36357 0.76535 0.0
C592 C 0.19375 0.34546 0.73879 0.0
C593 C 0.21366 0.3106 0.72746 0.0
C594 C 0.16839 0.23227 0.78313 0.0
C595 C 0.19664 0.29307 0.76395 0.0
C596 C 0.14219 0.22097 0.79728 0.0
C597 C 0.12748 0.25637 0.80987 0.0
C598 C 0.1785 0.27944 0.78124 0.0
C599 C 0.14115 0.3027 0.80842 0.0
C600 C 0.18579 0.33708 0.75716 0.0
C601 C 0.22779 0.26866 0.73536 0.0
N602 N 0.16519 0.31308 0.79409 0.0
N603 N 0.21804 0.26059 0.753 0.0
loop_
_geom_bond_atom_site_label_1
_geom_bond_atom_site_label_2
_geom_bond_distance
_geom_bond_site_symmetry_2
_ccdc_geom_bond_type
H0 C5 0.929 . S
H1 C10 0.931 . S
H2 C8 0.930 . S
N3 N4 1.234 . S
N3 C7 1.453 . S
N4 N3 1.234 . S
C5 H0 0.929 . S
C5 C6 1.373 . S
C5 C7 1.368 . S
C6 C5 1.373 . S
C6 C10 1.397 . S
C7 N3 1.453 . S
C7 C5 1.368 . S
C7 C8 1.373 . S
C8 H2 0.930 . S
C8 C7 1.373 . S
C8 C9 1.371 . S
C9 C8 1.371 . S
C9 C10 1.383 . S
C10 H1 0.931 . S
C10 C6 1.397 . S
C10 C9 1.383 . S
H11 C16 0.929 . S
H12 C21 0.931 . S
H13 C19 0.930 . S
N14 N15 1.234 . S
N14 C18 1.453 . S
N15 N14 1.234 . S
C16 H11 0.929 . S
C16 C17 1.373 . S
C16 C18 1.368 . S
C17 C16 1.373 . S
C17 C21 1.397 . S
C18 N14 1.453 . S
C18 C16 1.368 . S
C18 C19 1.373 . S
C19 H13 0.930 . S
C19 C18 1.373 . S
C19 C20 1.371 . S
C20 C19 1.371 . S
C20 C21 1.383 . S
C21 H12 0.931 . S
C21 C17 1.397 . S
C21 C20 1.383 . S
H22 C27 0.929 . S
H23 C32 0.931 . S
H24 C30 0.930 . S
N25 N26 1.234 . S
N25 C29 1.453 . S
N26 N25 1.234 . S
C27 H22 0.929 . S
C27 C28 1.373 . S
C27 C29 1.368 . S
C28 C27 1.373 . S
C28 C32 1.397 . S
C29 N25 1.453 . S
C29 C27 1.368 . S
C29 C30 1.373 . S
C30 H24 0.930 . S
C30 C29 1.373 . S
C30 C31 1.371 . S
C31 C30 1.371 . S
C31 C32 1.383 . S
C32 H23 0.931 . S
C32 C28 1.397 . S
C32 C31 1.383 . S
H33 C38 0.929 . S
H34 C43 0.931 . S
H35 C41 0.930 . S
N36 N37 1.234 . S
N36 C40 1.453 . S
N37 N36 1.234 . S
C38 H33 0.929 . S
C38 C39 1.373 . S
C38 C40 1.368 . S
C39 C38 1.373 . S
C39 C43 1.397 . S
C40 N36 1.453 . S
C40 C38 1.368 . S
C40 C41 1.373 . S
C41 H35 0.930 . S
C41 C40 1.373 . S
C41 C42 1.371 . S
C42 C41 1.371 . S
C42 C43 1.383 . S
C43 H34 0.931 . S
C43 C39 1.397 . S
C43 C42 1.383 . S
H44 C49 0.929 . S
H45 C54 0.931 . S
H46 C52 0.930 . S
N47 N48 1.234 . S
N47 C51 1.453 . S
N48 N47 1.234 . S
C49 H44 0.929 . S
C49 C50 1.373 . S
C49 C51 1.368 . S
C50 C49 1.373 . S
C50 C54 1.397 . S
C51 N47 1.453 . S
C51 C49 1.368 . S
C51 C52 1.373 . S
C52 H46 0.930 . S
C52 C51 1.373 . S
C52 C53 1.371 . S
C53 C52 1.371 . S
C53 C54 1.383 . S
C54 H45 0.931 . S
C54 C50 1.397 . S
C54 C53 1.383 . S
H55 C60 0.929 . S
H56 C65 0.931 . S
H57 C63 0.930 . S
N58 N59 1.234 . S
N58 C62 1.453 . S
N59 N58 1.234 . S
C60 H55 0.929 . S
C60 C61 1.373 . S
C60 C62 1.368 . S
C61 C60 1.373 . S
C61 C65 1.397 . S
C62 N58 1.453 . S
C62 C60 1.368 . S
C62 C63 1.373 . S
C63 H57 0.930 . S
C63 C62 1.373 . S
C63 C64 1.371 . S
C64 C63 1.371 . S
C64 C65 1.383 . S
C65 H56 0.931 . S
C65 C61 1.397 . S
C65 C64 1.383 . S
H66 C71 0.929 . S
H67 C76 0.931 . S
H68 C74 0.930 . S
N69 N70 1.234 . S
N69 C73 1.453 . S
N70 N69 1.234 . S
C71 H66 0.929 . S
C71 C72 1.373 . S
C71 C73 1.368 . S
C72 C71 1.373 . S
C72 C76 1.397 . S
C73 N69 1.453 . S
C73 C71 1.368 . S
C73 C74 1.373 . S
C74 H68 0.930 . S
C74 C73 1.373 . S
C74 C75 1.371 . S
C75 C74 1.371 . S
C75 C76 1.383 . S
C76 H67 0.931 . S
C76 C72 1.397 . S
C76 C75 1.383 . S
H77 C82 0.929 . S
H78 C87 0.931 . S
H79 C85 0.930 . S
N80 N81 1.234 . S
N80 C84 1.453 . S
N81 N80 1.234 . S
C82 H77 0.929 . S
C82 C83 1.373 . S
C82 C84 1.368 . S
C83 C82 1.373 . S
C83 C87 1.397 . S
C84 N80 1.453 . S
C84 C82 1.368 . S
C84 C85 1.373 . S
C85 H79 0.930 . S
C85 C84 1.373 . S
C85 C86 1.371 . S
C86 C85 1.371 . S
C86 C87 1.383 . S
C87 H78 0.931 . S
C87 C83 1.397 . S
C87 C86 1.383 . S
Zn88 O94 1.920 . S
Zn88 O100 1.898 . S
Zn88 O103 1.905 . S
Zn89 O97 1.905 . S
Zn89 O98 1.898 . S
Zn89 O106 1.920 . S
Zn90 O93 2.080 . S
Zn90 O96 2.114 . S
Zn90 O99 2.120 . S
Zn90 O101 2.120 . S
Zn90 O102 2.114 . S
Zn90 O105 2.080 . S
C91 O96 1.166 . S
C91 O97 1.182 . S
C92 O98 1.167 . S
C92 O99 1.299 . S
O93 Zn90 2.080 . S
O93 C107 1.305 . S
O94 Zn88 1.920 . S
O94 C107 1.234 . S
C95 O100 1.167 . S
C95 O101 1.299 . S
O96 Zn90 2.114 . S
O96 C91 1.166 . S
O97 Zn89 1.905 . S
O97 C91 1.182 . S
O98 Zn89 1.898 . S
O98 C92 1.167 . S
O99 Zn90 2.120 . S
O99 C92 1.299 . S
O100 Zn88 1.898 . S
O100 C95 1.167 . S
O101 Zn90 2.120 . S
O101 C95 1.299 . S
O102 Zn90 2.114 . S
O102 C104 1.166 . S
O103 Zn88 1.905 . S
O103 C104 1.182 . S
C104 O102 1.166 . S
C104 O103 1.182 . S
O105 Zn90 2.080 . S
O105 C108 1.305 . S
O106 Zn89 1.920 . S
O106 C108 1.234 . S
C107 O93 1.305 . S
C107 O94 1.234 . S
C108 O105 1.305 . S
C108 O106 1.234 . S
Zn109 O115 1.920 . S
Zn109 O121 1.898 . S
Zn109 O124 1.905 . S
Zn110 O118 1.905 . S
Zn110 O119 1.898 . S
Zn110 O127 1.920 . S
Zn111 O114 2.080 . S
Zn111 O117 2.114 . S
Zn111 O120 2.120 . S
Zn111 O122 2.120 . S
Zn111 O123 2.114 . S
Zn111 O126 2.080 . S
C112 O117 1.166 . S
C112 O118 1.182 . S
C113 O119 1.167 . S
C113 O120 1.299 . S
O114 Zn111 2.080 . S
O114 C128 1.305 . S
O115 Zn109 1.920 . S
O115 C128 1.234 . S
C116 O121 1.167 . S
C116 O122 1.299 . S
O117 Zn111 2.114 . S
O117 C112 1.166 . S
O118 Zn110 1.905 . S
O118 C112 1.182 . S
O119 Zn110 1.898 . S
O119 C113 1.167 . S
O120 Zn111 2.120 . S
O120 C113 1.299 . S
O121 Zn109 1.898 . S
O121 C116 1.167 . S
O122 Zn111 2.120 . S
O122 C116 1.299 . S
O123 Zn111 2.114 . S
O123 C125 1.166 . S
O124 Zn109 1.905 . S
O124 C125 1.182 . S
C125 O123 1.166 . S
C125 O124 1.182 . S
O126 Zn111 2.080 . S
O126 C129 1.305 . S
O127 Zn110 1.920 . S
O127 C129 1.234 . S
C128 O114 1.305 . S
C128 O115 1.234 . S
C129 O126 1.305 . S
C129 O127 1.234 . S
Zn130 O136 1.920 . S
Zn130 O142 1.898 . S
Zn130 O145 1.905 . S
Zn131 O139 1.905 . S
Zn131 O140 1.898 . S
Zn131 O148 1.920 . S
Zn132 O135 2.080 . S
Zn132 O138 2.114 . S
Zn132 O141 2.120 . S
Zn132 O143 2.120 . S
Zn132 O144 2.114 . S
Zn132 O147 2.080 . S
C133 O138 1.166 . S
C133 O139 1.182 . S
C134 O140 1.167 . S
C134 O141 1.299 . S
O135 Zn132 2.080 . S
O135 C149 1.305 . S
O136 Zn130 1.920 . S
O136 C149 1.234 . S
C137 O142 1.167 . S
C137 O143 1.299 . S
O138 Zn132 2.114 . S
O138 C133 1.166 . S
O139 Zn131 1.905 . S
O139 C133 1.182 . S
O140 Zn131 1.898 . S
O140 C134 1.167 . S
O141 Zn132 2.120 . S
O141 C134 1.299 . S
O142 Zn130 1.898 . S
O142 C137 1.167 . S
O143 Zn132 2.120 . S
O143 C137 1.299 . S
O144 Zn132 2.114 . S
O144 C146 1.166 . S
O145 Zn130 1.905 . S
O145 C146 1.182 . S
C146 O144 1.166 . S
C146 O145 1.182 . S
O147 Zn132 2.080 . S
O147 C150 1.305 . S
O148 Zn131 1.920 . S
O148 C150 1.234 . S
C149 O135 1.305 . S
C149 O136 1.234 . S
C150 O147 1.305 . S
C150 O148 1.234 . S
Zn151 O157 1.920 . S
Zn151 O163 1.898 . S
Zn151 O166 1.905 1_455 S
Zn152 O160 1.905 . S
Zn152 O161 1.898 . S
Zn152 O169 1.920 . S
Zn153 O156 2.080 . S
Zn153 O159 2.114 . S
Zn153 O162 2.120 . S
Zn153 O164 2.120 . S
Zn153 O165 2.114 . S
Zn153 O168 2.080 . S
C154 O159 1.166 . S
C154 O160 1.182 . S
C155 O161 1.167 . S
C155 O162 1.299 . S
O156 Zn153 2.080 . S
O156 C170 1.305 . S
O157 Zn151 1.920 . S
O157 C170 1.234 . S
C158 O163 1.167 . S
C158 O164 1.299 . S
O159 Zn153 2.114 . S
O159 C154 1.166 . S
O160 Zn152 1.905 . S
O160 C154 1.182 . S
O161 Zn152 1.898 . S
O161 C155 1.167 . S
O162 Zn153 2.120 . S
O162 C155 1.299 . S
O163 Zn151 1.898 . S
O163 C158 1.167 . S
O164 Zn153 2.120 . S
O164 C158 1.299 . S
O165 Zn153 2.114 . S
O165 C167 1.166 . S
O166 Zn151 1.905 1_655 S
O166 C167 1.182 1_655 S
C167 O165 1.166 . S
C167 O166 1.182 1_455 S
O168 Zn153 2.080 . S
O168 C171 1.305 . S
O169 Zn152 1.920 . S
O169 C171 1.234 . S
C170 O156 1.305 . S
C170 O157 1.234 . S
C171 O168 1.305 . S
C171 O169 1.234 . S
H172 C178 0.930 . S
H173 C182 0.930 . S
H174 C187 0.929 . S
H175 C185 0.929 . S
H176 C180 0.929 . S
H177 C186 0.929 . S
C178 H172 0.930 . S
C178 C179 1.367 . S
C178 C186 1.378 . S
C179 C178 1.367 . S
C179 C187 1.433 . S
C180 H176 0.929 . S
C180 C182 1.378 . S
C180 C184 1.350 . S
C181 C184 1.463 . S
C181 C186 1.350 . S
C181 N189 1.427 . S
C182 H173 0.930 . S
C182 C180 1.378 . S
C182 C183 1.367 . S
C183 C182 1.367 . S
C183 C185 1.433 . S
C184 C180 1.350 . S
C184 C181 1.463 . S
C184 N188 1.427 . S
C185 H175 0.929 . S
C185 C183 1.433 . S
C185 N188 1.384 . S
C186 H177 0.929 . S
C186 C178 1.378 . S
C186 C181 1.350 . S
C187 H174 0.929 . S
C187 C179 1.433 . S
C187 N189 1.384 . S
N188 C184 1.427 . S
N188 C185 1.384 . S
N189 C181 1.427 . S
N189 C187 1.384 . S
H190 C196 0.930 . S
H191 C200 0.930 . S
H192 C205 0.929 . S
H193 C203 0.929 . S
H194 C198 0.929 . S
H195 C204 0.929 . S
C196 H190 0.930 . S
C196 C197 1.367 . S
C196 C204 1.378 . S
C197 C196 1.367 . S
C197 C205 1.433 . S
C198 H194 0.929 . S
C198 C200 1.378 . S
C198 C202 1.350 . S
C199 C202 1.463 . S
C199 C204 1.350 . S
C199 N207 1.427 . S
C200 H191 0.930 . S
C200 C198 1.378 . S
C200 C201 1.367 . S
C201 C200 1.367 . S
C201 C203 1.433 . S
C202 C198 1.350 . S
C202 C199 1.463 . S
C202 N206 1.427 . S
C203 H193 0.929 . S
C203 C201 1.433 . S
C203 N206 1.384 . S
C204 H195 0.929 . S
C204 C196 1.378 . S
C204 C199 1.350 . S
C205 H192 0.929 . S
C205 C197 1.433 . S
C205 N207 1.384 . S
N206 C202 1.427 . S
N206 C203 1.384 . S
N207 C199 1.427 . S
N207 C205 1.384 . S
H208 C214 0.930 . S
H209 C218 0.930 . S
H210 C223 0.929 . S
H211 C221 0.929 . S
H212 C216 0.929 . S
H213 C222 0.929 . S
C214 H208 0.930 . S
C214 C215 1.367 . S
C214 C222 1.378 . S
C215 C214 1.367 . S
C215 C223 1.433 . S
C216 H212 0.929 . S
C216 C218 1.378 . S
C216 C220 1.350 . S
C217 C220 1.463 . S
C217 C222 1.350 . S
C217 N225 1.427 . S
C218 H209 0.930 . S
C218 C216 1.378 . S
C218 C219 1.367 . S
C219 C218 1.367 . S
C219 C221 1.433 . S
C220 C216 1.350 . S
C220 C217 1.463 . S
C220 N224 1.427 . S
C221 H211 0.929 . S
C221 C219 1.433 . S
C221 N224 1.384 . S
C222 H213 0.929 . S
C222 C214 1.378 . S
C222 C217 1.350 . S
C223 H210 0.929 . S
C223 C215 1.433 . S
C223 N225 1.384 . S
N224 C220 1.427 . S
N224 C221 1.384 . S
N225 C217 1.427 . S
N225 C223 1.384 . S
H226 C232 0.930 . S
H227 C236 0.930 . S
H228 C241 0.929 . S
H229 C239 0.929 . S
H230 C234 0.929 . S
H231 C240 0.929 . S
C232 H226 0.930 . S
C232 C233 1.367 . S
C232 C240 1.378 . S
C233 C232 1.367 . S
C233 C241 1.433 . S
C234 H230 0.929 . S
C234 C236 1.378 . S
C234 C238 1.350 . S
C235 C238 1.463 . S
C235 C240 1.350 . S
C235 N243 1.427 . S
C236 H227 0.930 . S
C236 C234 1.378 . S
C236 C237 1.367 . S
C237 C236 1.367 . S
C237 C239 1.433 . S
C238 C234 1.350 . S
C238 C235 1.463 . S
C238 N242 1.427 . S
C239 H229 0.929 . S
C239 C237 1.433 . S
C239 N242 1.384 . S
C240 H231 0.929 . S
C240 C232 1.378 . S
C240 C235 1.350 . S
C241 H228 0.929 . S
C241 C233 1.433 . S
C241 N243 1.384 . S
N242 C238 1.427 . S
N242 C239 1.384 . S
N243 C235 1.427 . S
N243 C241 1.384 . S
H244 C250 0.930 . S
H245 C254 0.930 . S
H246 C259 0.929 1_655 S
H247 C257 0.929 . S
H248 C252 0.929 . S
H249 C258 0.929 . S
C250 H244 0.930 . S
C250 C251 1.367 . S
C250 C258 1.378 . S
C251 C250 1.367 . S
C251 C259 1.433 . S
C252 H248 0.929 . S
C252 C254 1.378 . S
C252 C256 1.350 . S
C253 C256 1.463 . S
C253 C258 1.350 . S
C253 N261 1.427 . S
C254 H245 0.930 . S
C254 C252 1.378 . S
C254 C255 1.367 . S
C255 C254 1.367 . S
C255 C257 1.433 . S
C256 C252 1.350 . S
C256 C253 1.463 . S
C256 N260 1.427 . S
C257 H247 0.929 . S
C257 C255 1.433 . S
C257 N260 1.384 . S
C258 H249 0.929 . S
C258 C250 1.378 . S
C258 C253 1.350 . S
C259 H246 0.929 1_455 S
C259 C251 1.433 . S
C259 N261 1.384 . S
N260 C256 1.427 . S
N260 C257 1.384 . S
N261 C253 1.427 . S
N261 C259 1.384 . S
H262 C268 0.930 . S
H263 C272 0.930 1_455 S
H264 C277 0.929 . S
H265 C275 0.929 1_455 S
H266 C270 0.929 . S
H267 C276 0.929 . S
C268 H262 0.930 . S
C268 C269 1.367 . S
C268 C276 1.378 . S
C269 C268 1.367 . S
C269 C277 1.433 . S
C270 H266 0.929 . S
C270 C272 1.378 . S
C270 C274 1.350 . S
C271 C274 1.463 . S
C271 C276 1.350 . S
C271 N279 1.427 . S
C272 H263 0.930 1_655 S
C272 C270 1.378 . S
C272 C273 1.367 1_655 S
C273 C272 1.367 1_455 S
C273 C275 1.433 1_455 S
C274 C270 1.350 . S
C274 C271 1.463 . S
C274 N278 1.427 . S
C275 H265 0.929 1_655 S
C275 C273 1.433 1_655 S
C275 N278 1.384 . S
C276 H267 0.929 . S
C276 C268 1.378 . S
C276 C271 1.350 . S
C277 H264 0.929 . S
C277 C269 1.433 . S
C277 N279 1.384 . S
N278 C274 1.427 . S
N278 C275 1.384 . S
N279 C271 1.427 . S
N279 C277 1.384 . S
H280 C286 0.930 . S
H281 C290 0.930 . S
H282 C295 0.929 . S
H283 C293 0.929 . S
H284 C288 0.929 . S
H285 C294 0.929 . S
C286 H280 0.930 . S
C286 C287 1.367 . S
C286 C294 1.378 . S
C287 C286 1.367 . S
C287 C295 1.433 . S
C288 H284 0.929 . S
C288 C290 1.378 . S
C288 C292 1.350 . S
C289 C292 1.463 . S
C289 C294 1.350 . S
C289 N297 1.427 . S
C290 H281 0.930 . S
C290 C288 1.378 . S
C290 C291 1.367 . S
C291 C290 1.367 . S
C291 C293 1.433 . S
C292 C288 1.350 . S
C292 C289 1.463 . S
C292 N296 1.427 . S
C293 H283 0.929 . S
C293 C291 1.433 . S
C293 N296 1.384 . S
C294 H285 0.929 . S
C294 C286 1.378 . S
C294 C289 1.350 . S
C295 H282 0.929 . S
C295 C287 1.433 . S
C295 N297 1.384 . S
N296 C292 1.427 . S
N296 C293 1.384 . S
N297 C289 1.427 . S
N297 C295 1.384 . S
H298 C304 0.930 . S
H299 C308 0.930 . S
H300 C313 0.929 . S
H301 C311 0.929 . S
H302 C306 0.929 . S
H303 C312 0.929 . S
C304 H298 0.930 . S
C304 C305 1.367 . S
C304 C312 1.378 1_455 S
C305 C304 1.367 . S
C305 C313 1.433 . S
C306 H302 0.929 . S
C306 C308 1.378 . S
C306 C310 1.350 . S
C307 C310 1.463 . S
C307 C312 1.350 . S
C307 N315 1.427 . S
C308 H299 0.930 . S
C308 C306 1.378 . S
C308 C309 1.367 . S
C309 C308 1.367 . S
C309 C311 1.433 . S
C310 C306 1.350 . S
C310 C307 1.463 . S
C310 N314 1.427 . S
C311 H301 0.929 . S
C311 C309 1.433 . S
C311 N314 1.384 . S
C312 H303 0.929 . S
C312 C304 1.378 1_655 S
C312 C307 1.350 . S
C313 H300 0.929 . S
C313 C305 1.433 . S
C313 N315 1.384 1_455 S
N314 C310 1.427 . S
N314 C311 1.384 . S
N315 C307 1.427 . S
N315 C313 1.384 1_655 S
H316 C322 0.930 . S
H317 C326 0.930 . S
H318 C331 0.929 . S
H319 C329 0.929 . S
H320 C324 0.929 . S
H321 C330 0.929 . S
C322 H316 0.930 . S
C322 C323 1.367 . S
C322 C330 1.378 . S
C323 C322 1.367 . S
C323 C331 1.433 . S
C324 H320 0.929 . S
C324 C326 1.378 . S
C324 C328 1.350 . S
C325 C328 1.463 . S
C325 C330 1.350 . S
C325 N333 1.427 . S
C326 H317 0.930 . S
C326 C324 1.378 . S
C326 C327 1.367 . S
C327 C326 1.367 . S
C327 C329 1.433 . S
C328 C324 1.350 . S
C328 C325 1.463 . S
C328 N332 1.427 . S
C329 H319 0.929 . S
C329 C327 1.433 . S
C329 N332 1.384 . S
C330 H321 0.929 . S
C330 C322 1.378 . S
C330 C325 1.350 . S
C331 H318 0.929 . S
C331 C323 1.433 . S
C331 N333 1.384 . S
N332 C328 1.427 . S
N332 C329 1.384 . S
N333 C325 1.427 . S
N333 C331 1.384 . S
H334 C340 0.930 . S
H335 C344 0.930 . S
H336 C349 0.929 . S
H337 C347 0.929 . S
H338 C342 0.929 . S
H339 C348 0.929 . S
C340 H334 0.930 . S
C340 C341 1.367 . S
C340 C348 1.378 . S
C341 C340 1.367 . S
C341 C349 1.433 . S
C342 H338 0.929 . S
C342 C344 1.378 . S
C342 C346 1.350 . S
C343 C346 1.463 . S
C343 C348 1.350 . S
C343 N351 1.427 . S
C344 H335 0.930 . S
C344 C342 1.378 . S
C344 C345 1.367 . S
C345 C344 1.367 . S
C345 C347 1.433 . S
C346 C342 1.350 . S
C346 C343 1.463 . S
C346 N350 1.427 . S
C347 H337 0.929 . S
C347 C345 1.433 . S
C347 N350 1.384 . S
C348 H339 0.929 . S
C348 C340 1.378 . S
C348 C343 1.350 . S
C349 H336 0.929 . S
C349 C341 1.433 . S
C349 N351 1.384 . S
N350 C346 1.427 . S
N350 C347 1.384 . S
N351 C343 1.427 . S
N351 C349 1.384 . S
H352 C358 0.930 . S
H353 C362 0.930 . S
H354 C367 0.929 . S
H355 C365 0.929 . S
H356 C360 0.929 . S
H357 C366 0.929 . S
C358 H352 0.930 . S
C358 C359 1.367 . S
C358 C366 1.378 . S
C359 C358 1.367 . S
C359 C367 1.433 . S
C360 H356 0.929 . S
C360 C362 1.378 . S
C360 C364 1.350 . S
C361 C364 1.463 . S
C361 C366 1.350 . S
C361 N369 1.427 . S
C362 H353 0.930 . S
C362 C360 1.378 . S
C362 C363 1.367 . S
C363 C362 1.367 . S
C363 C365 1.433 . S
C364 C360 1.350 . S
C364 C361 1.463 . S
C364 N368 1.427 . S
C365 H355 0.929 . S
C365 C363 1.433 . S
C365 N368 1.384 . S
C366 H357 0.929 . S
C366 C358 1.378 . S
C366 C361 1.350 . S
C367 H354 0.929 . S
C367 C359 1.433 . S
C367 N369 1.384 . S
N368 C364 1.427 . S
N368 C365 1.384 . S
N369 C361 1.427 . S
N369 C367 1.384 . S
H370 C376 0.930 . S
H371 C380 0.930 . S
H372 C385 0.929 . S
H373 C383 0.929 . S
H374 C378 0.929 . S
H375 C384 0.929 . S
C376 H370 0.930 . S
C376 C377 1.367 . S
C376 C384 1.378 . S
C377 C376 1.367 . S
C377 C385 1.433 . S
C378 H374 0.929 . S
C378 C380 1.378 . S
C378 C382 1.350 . S
C379 C382 1.463 . S
C379 C384 1.350 . S
C379 N387 1.427 . S
C380 H371 0.930 . S
C380 C378 1.378 . S
C380 C381 1.367 . S
C381 C380 1.367 . S
C381 C383 1.433 . S
C382 C378 1.350 . S
C382 C379 1.463 . S
C382 N386 1.427 . S
C383 H373 0.929 . S
C383 C381 1.433 . S
C383 N386 1.384 . S
C384 H375 0.929 . S
C384 C376 1.378 . S
C384 C379 1.350 . S
C385 H372 0.929 . S
C385 C377 1.433 . S
C385 N387 1.384 . S
N386 C382 1.427 . S
N386 C383 1.384 . S
N387 C379 1.427 . S
N387 C385 1.384 . S
H388 C394 0.930 . S
H389 C398 0.930 . S
H390 C403 0.929 . S
H391 C401 0.929 . S
H392 C396 0.929 . S
H393 C402 0.929 . S
C394 H388 0.930 . S
C394 C395 1.367 . S
C394 C402 1.378 . S
C395 C394 1.367 . S
C395 C403 1.433 . S
C396 H392 0.929 . S
C396 C398 1.378 1_565 S
C396 C400 1.350 . S
C397 C400 1.463 . S
C397 C402 1.350 . S
C397 N405 1.427 . S
C398 H389 0.930 . S
C398 C396 1.378 1_545 S
C398 C399 1.367 . S
C399 C398 1.367 . S
C399 C401 1.433 . S
C400 C396 1.350 . S
C400 C397 1.463 . S
C400 N404 1.427 1_565 S
C401 H391 0.929 . S
C401 C399 1.433 . S
C401 N404 1.384 . S
C402 H393 0.929 . S
C402 C394 1.378 . S
C402 C397 1.350 . S
C403 H390 0.929 . S
C403 C395 1.433 . S
C403 N405 1.384 . S
N404 C400 1.427 1_545 S
N404 C401 1.384 . S
N405 C397 1.427 . S
N405 C403 1.384 . S
H406 C412 0.930 . S
H407 C416 0.930 . S
H408 C421 0.929 . S
H409 C419 0.929 . S
H410 C414 0.929 . S
H411 C420 0.929 . S
C412 H406 0.930 . S
C412 C413 1.367 . S
C412 C420 1.378 . S
C413 C412 1.367 . S
C413 C421 1.433 . S
C414 H410 0.929 . S
C414 C416 1.378 . S
C414 C418 1.350 . S
C415 C418 1.463 1_545 S
C415 C420 1.350 . S
C415 N423 1.427 . S
C416 H407 0.930 . S
C416 C414 1.378 . S
C416 C417 1.367 . S
C417 C416 1.367 . S
C417 C419 1.433 . S
C418 C414 1.350 . S
C418 C415 1.463 1_565 S
C418 N422 1.427 . S
C419 H409 0.929 . S
C419 C417 1.433 . S
C419 N422 1.384 . S
C420 H411 0.929 . S
C420 C412 1.378 . S
C420 C415 1.350 . S
C421 H408 0.929 . S
C421 C413 1.433 . S
C421 N423 1.384 . S
N422 C418 1.427 . S
N422 C419 1.384 . S
N423 C415 1.427 . S
N423 C421 1.384 . S
H424 C430 0.930 . S
H425 C434 0.930 . S
H426 C439 0.929 . S
H427 C437 0.929 . S
H428 C432 0.929 . S
H429 C438 0.929 . S
C430 H424 0.930 . S
C430 C431 1.367 . S
C430 C438 1.378 . S
C431 C430 1.367 . S
C431 C439 1.433 . S
C432 H428 0.929 . S
C432 C434 1.378 . S
C432 C436 1.350 . S
C433 C436 1.463 1_545 S
C433 C438 1.350 . S
C433 N441 1.427 . S
C434 H425 0.930 . S
C434 C432 1.378 . S
C434 C435 1.367 . S
C435 C434 1.367 . S
C435 C437 1.433 . S
C436 C432 1.350 . S
C436 C433 1.463 1_565 S
C436 N440 1.427 . S
C437 H427 0.929 . S
C437 C435 1.433 . S
C437 N440 1.384 . S
C438 H429 0.929 . S
C438 C430 1.378 . S
C438 C433 1.350 . S
C439 H426 0.929 . S
C439 C431 1.433 . S
C439 N441 1.384 . S
N440 C436 1.427 . S
N440 C437 1.384 . S
N441 C433 1.427 . S
N441 C439 1.384 . S
H442 C448 0.930 1_655 S
H443 C452 0.930 . S
H444 C457 0.929 . S
H445 C455 0.929 . S
H446 C450 0.929 . S
H447 C456 0.929 . S
C448 H442 0.930 1_455 S
C448 C449 1.367 . S
C448 C456 1.378 . S
C449 C448 1.367 . S
C449 C457 1.433 . S
C450 H446 0.929 . S
C450 C452 1.378 . S
C450 C454 1.350 . S
C451 C454 1.463 1_565 S
C451 C456 1.350 . S
C451 N459 1.427 . S
C452 H443 0.930 . S
C452 C450 1.378 . S
C452 C453 1.367 . S
C453 C452 1.367 . S
C453 C455 1.433 . S
C454 C450 1.350 . S
C454 C451 1.463 1_545 S
C454 N458 1.427 . S
C455 H445 0.929 . S
C455 C453 1.433 . S
C455 N458 1.384 . S
C456 H447 0.929 . S
C456 C448 1.378 . S
C456 C451 1.350 . S
C457 H444 0.929 . S
C457 C449 1.433 . S
C457 N459 1.384 . S
N458 C454 1.427 . S
N458 C455 1.384 . S
N459 C451 1.427 . S
N459 C457 1.384 . S
H460 C466 0.930 . S
H461 C470 0.930 . S
H462 C475 0.929 . S
H463 C473 0.929 . S
H464 C468 0.929 . S
H465 C474 0.929 1_556 S
C466 H460 0.930 . S
C466 C467 1.367 . S
C466 C474 1.378 . S
C467 C466 1.367 . S
C467 C475 1.433 . S
C468 H464 0.929 . S
C468 C470 1.378 . S
C468 C472 1.350 . S
C469 C472 1.463 . S
C469 C474 1.350 1_556 S
C469 N477 1.427 1_556 S
C470 H461 0.930 . S
C470 C468 1.378 . S
C470 C471 1.367 . S
C471 C470 1.367 . S
C471 C473 1.433 . S
C472 C468 1.350 . S
C472 C469 1.463 . S
C472 N476 1.427 . S
C473 H463 0.929 . S
C473 C471 1.433 . S
C473 N476 1.384 . S
C474 H465 0.929 1_554 S
C474 C466 1.378 . S
C474 C469 1.350 1_554 S
C475 H462 0.929 . S
C475 C467 1.433 . S
C475 N477 1.384 . S
N476 C472 1.427 . S
N476 C473 1.384 . S
N477 C469 1.427 1_554 S
N477 C475 1.384 . S
H478 C484 0.930 . S
H479 C488 0.930 . S
H480 C493 0.929 . S
H481 C491 0.929 . S
H482 C486 0.929 . S
H483 C492 0.929 . S
C484 H478 0.930 . S
C484 C485 1.367 . S
C484 C492 1.378 . S
C485 C484 1.367 . S
C485 C493 1.433 . S
C486 H482 0.929 . S
C486 C488 1.378 . S
C486 C490 1.350 . S
C487 C490 1.463 . S
C487 C492 1.350 . S
C487 N495 1.427 . S
C488 H479 0.930 . S
C488 C486 1.378 . S
C488 C489 1.367 . S
C489 C488 1.367 . S
C489 C491 1.433 . S
C490 C486 1.350 . S
C490 C487 1.463 . S
C490 N494 1.427 . S
C491 H481 0.929 . S
C491 C489 1.433 . S
C491 N494 1.384 . S
C492 H483 0.929 . S
C492 C484 1.378 . S
C492 C487 1.350 . S
C493 H480 0.929 . S
C493 C485 1.433 . S
C493 N495 1.384 . S
N494 C490 1.427 . S
N494 C491 1.384 . S
N495 C487 1.427 . S
N495 C493 1.384 . S
H496 C502 0.930 . S
H497 C506 0.930 . S
H498 C511 0.929 . S
H499 C509 0.929 . S
H500 C504 0.929 . S
H501 C510 0.929 . S
C502 H496 0.930 . S
C502 C503 1.367 . S
C502 C510 1.378 . S
C503 C502 1.367 . S
C503 C511 1.433 . S
C504 H500 0.929 . S
C504 C506 1.378 . S
C504 C508 1.350 . S
C505 C508 1.463 . S
C505 C510 1.350 . S
C505 N513 1.427 . S
C506 H497 0.930 . S
C506 C504 1.378 . S
C506 C507 1.367 . S
C507 C506 1.367 . S
C507 C509 1.433 . S
C508 C504 1.350 . S
C508 C505 1.463 . S
C508 N512 1.427 . S
C509 H499 0.929 . S
C509 C507 1.433 . S
C509 N512 1.384 . S
C510 H501 0.929 . S
C510 C502 1.378 . S
C510 C505 1.350 . S
C511 H498 0.929 . S
C511 C503 1.433 . S
C511 N513 1.384 . S
N512 C508 1.427 . S
N512 C509 1.384 . S
N513 C505 1.427 . S
N513 C511 1.384 . S
H514 C520 0.930 . S
H515 C524 0.930 . S
H516 C529 0.929 . S
H517 C527 0.929 . S
H518 C522 0.929 . S
H519 C528 0.929 . S
C520 H514 0.930 . S
C520 C521 1.367 . S
C520 C528 1.378 . S
C521 C520 1.367 . S
C521 C529 1.433 . S
C522 H518 0.929 . S
C522 C524 1.378 . S
C522 C526 1.350 . S
C523 C526 1.463 . S
C523 C528 1.350 . S
C523 N531 1.427 . S
C524 H515 0.930 . S
C524 C522 1.378 . S
C524 C525 1.367 . S
C525 C524 1.367 . S
C525 C527 1.433 . S
C526 C522 1.350 . S
C526 C523 1.463 . S
C526 N530 1.427 . S
C527 H517 0.929 . S
C527 C525 1.433 . S
C527 N530 1.384 . S
C528 H519 0.929 . S
C528 C520 1.378 . S
C528 C523 1.350 . S
C529 H516 0.929 . S
C529 C521 1.433 . S
C529 N531 1.384 . S
N530 C526 1.427 . S
N530 C527 1.384 . S
N531 C523 1.427 . S
N531 C529 1.384 . S
H532 C538 0.930 1_655 S
H533 C542 0.930 . S
H534 C547 0.929 . S
H535 C545 0.929 . S
H536 C540 0.929 . S
H537 C546 0.929 1_554 S
C538 H532 0.930 1_455 S
C538 C539 1.367 . S
C538 C546 1.378 . S
C539 C538 1.367 . S
C539 C547 1.433 . S
C540 H536 0.929 . S
C540 C542 1.378 . S
C540 C544 1.350 . S
C541 C544 1.463 . S
C541 C546 1.350 1_554 S
C541 N549 1.427 1_554 S
C542 H533 0.930 . S
C542 C540 1.378 . S
C542 C543 1.367 . S
C543 C542 1.367 . S
C543 C545 1.433 . S
C544 C540 1.350 . S
C544 C541 1.463 . S
C544 N548 1.427 . S
C545 H535 0.929 . S
C545 C543 1.433 . S
C545 N548 1.384 . S
C546 H537 0.929 1_556 S
C546 C538 1.378 . S
C546 C541 1.350 1_556 S
C547 H534 0.929 . S
C547 C539 1.433 . S
C547 N549 1.384 . S
N548 C544 1.427 . S
N548 C545 1.384 . S
N549 C541 1.427 1_556 S
N549 C547 1.384 . S
H550 C556 0.930 . S
H551 C560 0.930 . S
H552 C565 0.929 . S
H553 C563 0.929 . S
H554 C558 0.929 . S
H555 C564 0.929 . S
C556 H550 0.930 . S
C556 C557 1.367 . S
C556 C564 1.378 . S
C557 C556 1.367 . S
C557 C565 1.433 . S
C558 H554 0.929 . S
C558 C560 1.378 . S
C558 C562 1.350 . S
C559 C562 1.463 . S
C559 C564 1.350 . S
C559 N567 1.427 . S
C560 H551 0.930 . S
C560 C558 1.378 . S
C560 C561 1.367 . S
C561 C560 1.367 . S
C561 C563 1.433 . S
C562 C558 1.350 . S
C562 C559 1.463 . S
C562 N566 1.427 . S
C563 H553 0.929 . S
C563 C561 1.433 . S
C563 N566 1.384 . S
C564 H555 0.929 . S
C564 C556 1.378 . S
C564 C559 1.350 . S
C565 H552 0.929 . S
C565 C557 1.433 . S
C565 N567 1.384 . S
N566 C562 1.427 . S
N566 C563 1.384 . S
N567 C559 1.427 . S
N567 C565 1.384 . S
H568 C574 0.930 . S
H569 C578 0.930 . S
H570 C583 0.929 . S
H571 C581 0.929 . S
H572 C576 0.929 . S
H573 C582 0.929 . S
C574 H568 0.930 . S
C574 C575 1.367 . S
C574 C582 1.378 . S
C575 C574 1.367 . S
C575 C583 1.433 . S
C576 H572 0.929 . S
C576 C578 1.378 . S
C576 C580 1.350 . S
C577 C580 1.463 . S
C577 C582 1.350 . S
C577 N585 1.427 . S
C578 H569 0.930 . S
C578 C576 1.378 . S
C578 C579 1.367 . S
C579 C578 1.367 . S
C579 C581 1.433 . S
C580 C576 1.350 . S
C580 C577 1.463 . S
C580 N584 1.427 . S
C581 H571 0.929 . S
C581 C579 1.433 . S
C581 N584 1.384 . S
C582 H573 0.929 . S
C582 C574 1.378 . S
C582 C577 1.350 . S
C583 H570 0.929 . S
C583 C575 1.433 . S
C583 N585 1.384 . S
N584 C580 1.427 . S
N584 C581 1.384 . S
N585 C577 1.427 . S
N585 C583 1.384 . S
H586 C592 0.930 . S
H587 C596 0.930 . S
H588 C601 0.929 . S
H589 C599 0.929 . S
H590 C594 0.929 . S
H591 C600 0.929 . S
C592 H586 0.930 . S
C592 C593 1.367 . S
C592 C600 1.378 . S
C593 C592 1.367 . S
C593 C601 1.433 . S
C594 H590 0.929 . S
C594 C596 1.378 . S
C594 C598 1.350 . S
C595 C598 1.463 . S
C595 C600 1.350 . S
C595 N603 1.427 . S
C596 H587 0.930 . S
C596 C594 1.378 . S
C596 C597 1.367 . S
C597 C596 1.367 . S
C597 C599 1.433 . S
C598 C594 1.350 . S
C598 C595 1.463 . S
C598 N602 1.427 . S
C599 H589 0.929 . S
C599 C597 1.433 . S
C599 N602 1.384 . S
C600 H591 0.929 . S
C600 C592 1.378 . S
C600 C595 1.350 . S
C601 H588 0.929 . S
C601 C593 1.433 . S
C601 N603 1.384 . S
N602 C598 1.427 . S
N602 C599 1.384 . S
N603 C595 1.427 . S
N603 C601 1.384 . S
C183 C95 1.418 . S
C179 C6 1.560 . S
C201 C113 1.360 . S
C197 N15 1.436 1_655 S
C215 N26 1.391 . S
C219 C137 1.284 . S
C237 C167 1.274 1_655 S
C233 C39 1.422 . S
C255 C155 1.257 . S
C251 C50 1.340 . S
C269 N59 1.453 . S
C273 C108 1.380 . S
C287 N70 1.585 . S
C291 C128 1.489 . S
C305 C83 1.425 . S
C309 C133 1.278 . S
C323 N81 1.443 . S
C327 C149 1.380 . S
C341 C61 1.429 . S
C345 C104 1.281 . S
C363 C171 1.393 . S
C359 N37 1.452 . S
C381 C116 1.278 . S
C377 C17 1.414 . S
C395 C28 1.562 . S
C399 C134 1.436 . S
C413 N4 1.400 . S
C417 C92 1.294 . S
C435 C112 1.244 . S
C431 C72 1.340 . S
C453 C158 1.503 . S
C449 N48 1.597 . S
C471 C154 1.364 . S
C467 C9 1.518 . S
C489 C107 1.453 . S
C485 C20 1.508 . S
C503 C31 1.498 . S
C507 C129 1.366 . S
C521 C42 1.527 . S
C525 C150 1.468 . S
C543 C91 1.352 . S
C539 C53 1.568 . S
C557 C64 1.507 . S
C561 C125 1.440 . S
C579 C146 1.348 . S
C575 C75 1.578 . S
C597 C170 1.418 . S
C593 C86 1.483 . S
