# Generated by pormake.
# Topology pyr, (3,6)-cn, num edge types: 1
# Building blocks:
#     Node 0, Type 0, BuildingBlock: PAMTOO_clean_linker_0, # of connection points: 3
#     Node 1, Type 0, BuildingBlock: PAMTOO_clean_linker_0, # of connection points: 3
#     Node 2, Type 0, BuildingBlock: PAMTOO_clean_linker_0, # of connection points: 3
#     Node 3, Type 0, BuildingBlock: PAMTOO_clean_linker_0, # of connection points: 3
#     Node 4, Type 0, BuildingBlock: PAMTOO_clean_linker_0, # of connection points: 3
#     Node 5, Type 0, BuildingBlock: PAMTOO_clean_linker_0, # of connection points: 3
#     Node 6, Type 0, BuildingBlock: PAMTOO_clean_linker_0, # of connection points: 3
#     Node 7, Type 0, BuildingBlock: PAMTOO_clean_linker_0, # of connection points: 3
#     Node 8, Type 1, BuildingBlock: PAMTOO_clean_sbu_0, # of connection points: 6
#     Node 9, Type 1, BuildingBlock: PAMTOO_clean_sbu_0, # of connection points: 6
#     Node 10, Type 1, BuildingBlock: PAMTOO_clean_sbu_0, # of connection points: 6
#     Node 11, Type 1, BuildingBlock: PAMTOO_clean_sbu_0, # of connection points: 6
#     Edge 12, Type (0, 1), BuildingBlock: CIFDUS_clean_linker_0, # of connection points: 2
#     Edge 13, Type (0, 1), BuildingBlock: CIFDUS_clean_linker_0, # of connection points: 2
#     Edge 14, Type (0, 1), BuildingBlock: CIFDUS_clean_linker_0, # of connection points: 2
#     Edge 15, Type (0, 1), BuildingBlock: CIFDUS_clean_linker_0, # of connection points: 2
#     Edge 16, Type (0, 1), BuildingBlock: CIFDUS_clean_linker_0, # of connection points: 2
#     Edge 17, Type (0, 1), BuildingBlock: CIFDUS_clean_linker_0, # of connection points: 2
#     Edge 18, Type (0, 1), BuildingBlock: CIFDUS_clean_linker_0, # of connection points: 2
#     Edge 19, Type (0, 1), BuildingBlock: CIFDUS_clean_linker_0, # of connection points: 2
#     Edge 20, Type (0, 1), BuildingBlock: CIFDUS_clean_linker_0, # of connection points: 2
#     Edge 21, Type (0, 1), BuildingBlock: CIFDUS_clean_linker_0, # of connection points: 2
#     Edge 22, Type (0, 1), BuildingBlock: CIFDUS_clean_linker_0, # of connection points: 2
#     Edge 23, Type (0, 1), BuildingBlock: CIFDUS_clean_linker_0, # of connection points: 2
#     Edge 24, Type (0, 1), BuildingBlock: CIFDUS_clean_linker_0, # of connection points: 2
#     Edge 25, Type (0, 1), BuildingBlock: CIFDUS_clean_linker_0, # of connection points: 2
#     Edge 26, Type (0, 1), BuildingBlock: CIFDUS_clean_linker_0, # of connection points: 2
#     Edge 27, Type (0, 1), BuildingBlock: CIFDUS_clean_linker_0, # of connection points: 2
#     Edge 28, Type (0, 1), BuildingBlock: CIFDUS_clean_linker_0, # of connection points: 2
#     Edge 29, Type (0, 1), BuildingBlock: CIFDUS_clean_linker_0, # of connection points: 2
#     Edge 30, Type (0, 1), BuildingBlock: CIFDUS_clean_linker_0, # of connection points: 2
#     Edge 31, Type (0, 1), BuildingBlock: CIFDUS_clean_linker_0, # of connection points: 2
#     Edge 32, Type (0, 1), BuildingBlock: CIFDUS_clean_linker_0, # of connection points: 2
#     Edge 33, Type (0, 1), BuildingBlock: CIFDUS_clean_linker_0, # of connection points: 2
#     Edge 34, Type (0, 1), BuildingBlock: CIFDUS_clean_linker_0, # of connection points: 2
#     Edge 35, Type (0, 1), BuildingBlock: CIFDUS_clean_linker_0, # of connection points: 2
# Relax obj value: 0.192
# Max RMSD: 0.273
# Mean RMSD: 0.145
data_MOF--net-pyr--node1-PAMTOO_clean_sbu_0--node2-PAMTOO_clean_linker_0--edge1-CIFDUS_clean_linker_0
_symmetry_space_group_name_H-M    P1
_symmetry_Int_Tables_number       1
_symmetry_cell_setting            triclinic
loop_
_symmetry_equiv_pos_as_xyz
'x, y, z'
_cell_length_a     31.734848
_cell_length_b     34.885766
_cell_length_c     34.015834
_cell_angle_alpha  91.283047
_cell_angle_beta   90.051096
_cell_angle_gamma 109.28644
loop_
_atom_site_label
_atom_site_type_symbol
_atom_site_fract_x
_atom_site_fract_y
_atom_site_fract_z
_atom_type_partial_charge
H0 H 0.31387 0.29117 0.26697 0.0
H1 H 0.44128 0.27406 0.25438 0.0
H2 H 0.40113 0.34772 0.17268 0.0
H3 H 0.49003 0.32147 0.13659 0.0
C4 C 0.46545 0.29927 0.15524 0.0
O5 O 0.46357 0.31784 0.19114 0.0
H6 H 0.43296 0.29121 0.13913 0.0
C7 C 0.34542 0.29786 0.2518 0.0
C8 C 0.35317 0.3215 0.21806 0.0
C9 C 0.37724 0.28139 0.26567 0.0
C10 C 0.41666 0.28711 0.24444 0.0
C11 C 0.42506 0.31113 0.21099 0.0
C12 C 0.39383 0.32888 0.19835 0.0
H13 H 0.21819 0.87589 0.72101 0.0
H14 H 0.17574 0.79272 0.62219 0.0
H15 H 0.26983 0.77685 0.70567 0.0
H16 H 0.2608 0.78209 0.59576 0.0
C17 C 0.25247 0.75153 0.60897 0.0
O18 O 0.2246 0.74832 0.64081 0.0
H19 H 0.23438 0.72907 0.58592 0.0
C20 C 0.21914 0.84914 0.70467 0.0
C21 C 0.24699 0.82792 0.71764 0.0
C22 C 0.19338 0.83684 0.67031 0.0
C23 C 0.19517 0.80251 0.649 0.0
C24 C 0.22268 0.78098 0.66183 0.0
C25 C 0.24835 0.79349 0.69621 0.0
H26 H 0.71966 0.31904 0.95222 0.0
H27 H 0.61645 0.31097 0.86661 0.0
H28 H 0.73652 0.41526 0.87109 0.0
H29 H 0.63784 0.42164 0.8599 0.0
C30 C 0.63185 0.40236 0.83256 0.0
O31 O 0.66131 0.3803 0.83187 0.0
H32 H 0.59722 0.38072 0.83414 0.0
C33 C 0.70617 0.33192 0.92861 0.0
C34 C 0.73258 0.36965 0.91431 0.0
C35 C 0.66362 0.31034 0.91289 0.0
C36 C 0.64847 0.3271 0.88015 0.0
C37 C 0.6746 0.3652 0.86491 0.0
C38 C 0.7162 0.38648 0.88282 0.0
H39 H 0.87321 0.75021 0.46353 0.0
H40 H 0.86451 0.65251 0.38075 0.0
H41 H 0.96116 0.77141 0.36433 0.0
H42 H 0.94548 0.6481 0.34962 0.0
C43 C 0.9563 0.67439 0.32971 0.0
O44 O 0.92666 0.69623 0.33316 0.0
H45 H 0.98993 0.69404 0.33996 0.0
C46 C 0.8853 0.73866 0.43758 0.0
C47 C 0.91982 0.76571 0.41613 0.0
C48 C 0.86533 0.69763 0.42592 0.0
C49 C 0.87999 0.68372 0.39078 0.0
C50 C 0.91499 0.70984 0.36845 0.0
C51 C 0.93512 0.75088 0.38166 0.0
H52 H 0.67116 0.86142 0.88224 0.0
H53 H 0.67595 0.79567 0.98696 0.0
H54 H 0.72718 0.76452 0.8793 0.0
H55 H 0.68619 0.69797 0.92846 0.0
C56 C 0.70191 0.71169 0.957 0.0
O57 O 0.72052 0.75319 0.95457 0.0
H58 H 0.67574 0.70412 0.97999 0.0
C59 C 0.6777 0.83646 0.89647 0.0
C60 C 0.69816 0.81249 0.87508 0.0
C61 C 0.66966 0.83098 0.93698 0.0
C62 C 0.68105 0.80019 0.95568 0.0
C63 C 0.70209 0.77682 0.93485 0.0
C64 C 0.71009 0.78253 0.8947 0.0
H65 H 0.93105 0.23768 0.39305 0.0
H66 H 0.88763 0.34234 0.39216 0.0
H67 H 0.96126 0.32291 0.491 0.0
H68 H 0.90665 0.39137 0.51458 0.0
C69 C 0.89078 0.36657 0.49281 0.0
O70 O 0.92004 0.36943 0.46207 0.0
H71 H 0.88484 0.33765 0.50867 0.0
C72 C 0.93076 0.26606 0.40651 0.0
C73 C 0.94895 0.27724 0.44436 0.0
C74 C 0.90898 0.28952 0.38714 0.0
C75 C 0.90519 0.32437 0.40618 0.0
C76 C 0.92433 0.33634 0.44342 0.0
C77 C 0.94703 0.31341 0.46197 0.0
H78 H 0.35223 0.72796 0.18573 0.0
H79 H 0.34815 0.64175 0.27556 0.0
H80 H 0.45698 0.7549 0.27291 0.0
H81 H 0.48023 0.67881 0.29949 0.0
C82 C 0.44778 0.66252 0.31349 0.0
O83 O 0.42076 0.68688 0.31261 0.0
H84 H 0.43178 0.63434 0.29557 0.0
C85 C 0.36735 0.71871 0.21075 0.0
C86 C 0.40794 0.74562 0.22599 0.0
C87 C 0.34536 0.68083 0.22753 0.0
C88 C 0.36422 0.67055 0.26179 0.0
C89 C 0.40434 0.69703 0.27848 0.0
C90 C 0.42605 0.73461 0.26038 0.0
H91 H 0.08817 0.32048 0.81219 0.0
H92 H 0.19479 0.43592 0.81223 0.0
H93 H 0.19131 0.34637 0.72375 0.0
H94 H 0.27756 0.3921 0.77268 0.0
C95 C 0.27732 0.421 0.75951 0.0
O96 O 0.23422 0.41861 0.74933 0.0
H97 H 0.29014 0.44523 0.78253 0.0
C98 C 0.11848 0.34049 0.79943 0.0
C99 C 0.13785 0.3267 0.76633 0.0
C100 C 0.13898 0.38004 0.81674 0.0
C101 C 0.1788 0.40558 0.80007 0.0
C102 C 0.19736 0.393 0.76675 0.0
C103 C 0.17676 0.3543 0.75016 0.0
Dy104 Dy 0.10124 0.06366 0.56298 0.0
Dy105 Dy 1.00081 0.03693 0.60148 0.0
C106 C 0.07877 0.11986 0.6317 0.0
O107 O 0.10462 1.03122 0.61773 0.0
O108 O 0.0312 0.99191 0.6231 0.0
O109 O 0.17292 0.09124 0.5683 0.0
O110 O 0.14307 0.06009 0.51421 0.0
O111 O 0.99417 0.99524 0.54777 0.0
O112 O 0.06724 0.99871 0.54349 0.0
O113 O 1.00733 0.09171 0.56674 0.0
O114 O 0.06227 0.09024 0.52355 0.0
O115 O 0.92901 1.01792 0.59408 0.0
O116 O 0.95905 1.02833 0.6524 0.0
C117 C 0.07366 0.99885 0.63031 0.0
O118 O 0.10246 0.11812 0.60027 0.0
O119 O 0.04245 0.08956 0.64042 0.0
C120 C 0.21012 0.11419 0.50904 0.0
C121 C 0.26616 0.17162 0.45877 0.0
C122 C 0.22413 0.17387 0.46938 0.0
C123 C 0.19631 0.14534 0.49434 0.0
C124 C 0.2524 0.11247 0.49959 0.0
C125 C 0.28028 0.14099 0.47464 0.0
C126 C 0.17978 0.08185 0.53212 0.0
C127 C 0.02492 0.98047 0.5345 0.0
C128 C 0.03021 0.10399 0.53467 0.0
C129 C 0.88867 0.97898 0.64624 0.0
C130 C 0.83312 0.91339 0.68858 0.0
C131 C 0.86896 0.9091 0.66661 0.0
C132 C 0.8967 0.94179 0.64569 0.0
C133 C 0.8512 0.98245 0.66558 0.0
C134 C 0.8236 0.94995 0.68658 0.0
C135 C 0.92207 1.01577 0.6319 0.0
H136 H 0.212 0.19673 0.45722 0.0
H137 H 0.16357 0.14688 0.50129 0.0
H138 H 0.26345 0.08852 0.51081 0.0
H139 H 0.31262 0.13875 0.46736 0.0
H140 H 0.87684 0.88119 0.66716 0.0
H141 H 0.92568 0.93875 0.63086 0.0
H142 H 0.84479 1.01111 0.66645 0.0
H143 H 0.79678 0.95464 0.70354 0.0
Dy144 Dy 0.4912 1.02257 0.06107 0.0
Dy145 Dy 0.58312 0.05002 0.1134 0.0
C146 C 0.50494 0.96904 0.13281 0.0
O147 O 0.47901 0.05481 0.1153 0.0
O148 O 0.55057 0.09589 0.12749 0.0
O149 O 0.43173 0.97347 1.04388 0.0
O150 O 0.43987 1.03477 1.02677 0.0
O151 O 0.59644 0.0993 0.06892 0.0
O152 O 0.53069 0.08169 1.03296 0.0
O153 O 0.58421 0.99899 0.07297 0.0
O154 O 0.53977 1.00645 1.02279 0.0
O155 O 0.65499 0.06628 0.11673 0.0
O156 O 0.61546 0.05803 0.16997 0.0
C157 C 0.50748 0.08863 0.12995 0.0
O158 O 0.49166 0.96833 0.09611 0.0
O159 O 0.53271 1.00265 0.14835 0.0
C160 C 0.40167 0.98096 0.98292 0.0
C161 C 0.37382 0.94744 0.90752 0.0
C162 C 0.34573 0.93484 0.94003 0.0
C163 C 0.35956 0.95154 0.9774 0.0
C164 C 0.43005 0.99352 0.95065 0.0
C165 C 0.41606 0.97706 0.91311 0.0
C166 C 0.41613 0.99648 1.02283 0.0
C167 C 0.57127 0.10667 1.04111 0.0
C168 C 0.56986 0.99188 1.03643 0.0
C169 C 0.68762 0.10552 0.17319 0.0
C170 C 0.74471 0.17148 0.21727 0.0
C171 C 0.70704 0.17507 0.19788 0.0
C172 C 0.67866 0.14227 0.17593 0.0
C173 C 0.72605 0.10239 0.19095 0.0
C174 C 0.75438 0.13505 0.2128 0.0
C175 C 0.65546 0.06911 0.15508 0.0
H176 H 0.31279 0.91245 0.93645 0.0
H177 H 0.33742 0.94133 1.00209 0.0
H178 H 0.46302 1.0158 0.9545 0.0
H179 H 0.43842 0.98709 0.88856 0.0
H180 H 0.69893 0.20283 0.20049 0.0
H181 H 0.649 0.14508 0.16225 0.0
H182 H 0.73323 0.07411 0.18922 0.0
H183 H 0.78262 0.13094 0.22784 0.0
Dy184 Dy 0.54473 0.4925 0.54505 0.0
Dy185 Dy 0.56836 0.57942 0.59079 0.0
C186 C 0.59395 0.50568 0.62894 0.0
O187 O 0.48988 0.48298 0.5896 0.0
O188 O 0.49463 0.54955 0.59728 0.0
O189 O 0.53167 0.42757 0.54579 0.0
O190 O 0.53752 0.45786 0.49048 0.0
O191 O 0.54306 0.58852 0.53028 0.0
O192 O 0.50161 0.52267 0.5145 0.0
O193 O 0.63401 0.57954 0.56597 0.0
O194 O 0.60335 0.53624 0.51469 0.0
O195 O 0.59868 0.64478 0.59211 0.0
O196 O 0.56315 0.61427 0.64281 0.0
C197 C 0.47372 0.51084 0.60327 0.0
O198 O 0.59362 0.49159 0.59271 0.0
O199 O 0.58061 0.53716 0.63595 0.0
C200 C 0.57505 0.41078 0.49717 0.0
C201 C 0.64828 0.38404 0.48176 0.0
C202 C 0.65505 0.42419 0.49468 0.0
C203 C 0.6189 0.43733 0.50235 0.0
C204 C 0.56777 0.37081 0.48374 0.0
C205 C 0.6042 0.35746 0.47612 0.0
C206 C 0.53795 0.4252 0.50809 0.0
C207 C 0.513 0.56185 0.50773 0.0
C208 C 0.63739 0.56493 0.53063 0.0
C209 C 0.5519 0.67529 0.62589 0.0
C210 C 0.48718 0.71469 0.62511 0.0
C211 C 0.51032 0.7114 0.59069 0.0
C212 C 0.54222 0.69179 0.59101 0.0
C213 C 0.53052 0.68054 0.66075 0.0
C214 C 0.4983 0.69987 0.66034 0.0
C215 C 0.58004 0.64886 0.62541 0.0
H216 H 0.68835 0.44521 0.50033 0.0
H217 H 0.62525 0.46813 0.51326 0.0
H218 H 0.5341 0.34985 0.4798 0.0
H219 H 0.59792 0.32635 0.46617 0.0
H220 H 0.50219 0.72217 0.56302 0.0
H221 H 0.55788 0.68816 0.56354 0.0
H222 H 0.53742 0.6682 0.68803 0.0
H223 H 0.48131 0.70237 0.68739 0.0
Dy224 Dy 0.04376 0.56552 1.04451 0.0
Dy225 Dy 0.03341 0.48623 0.09424 0.0
C226 C 1.00225 0.55729 0.13241 0.0
O227 O 0.11383 0.57446 0.06465 0.0
O228 O 0.09548 0.53381 0.11811 0.0
O229 O 0.05796 0.6303 1.03954 0.0
O230 O 0.03803 0.59088 0.98822 0.0
O231 O 0.08121 0.4847 0.04569 0.0
O232 O 0.05381 0.5183 1.00134 0.0
O233 O 0.9758 0.46826 0.05093 0.0
O234 O 0.97059 0.53128 1.04516 0.0
O235 O 0.02294 0.42189 0.09625 0.0
O236 O 0.03177 0.45769 0.15019 0.0
C237 C 0.12444 0.56311 0.09887 0.0
O238 O 0.02766 0.58196 0.10656 0.0
O239 O 0.99202 0.51767 0.12729 0.0
C240 C 1.00555 0.64131 0.99638 0.0
C241 C 0.92841 0.66064 0.97798 0.0
C242 C 0.92825 0.63467 1.00904 0.0
C243 C 0.96647 0.62537 1.01828 0.0
C244 C 1.00638 0.66768 0.96576 0.0
C245 C 0.96815 0.67751 0.95675 0.0
C246 C 0.04322 0.62674 1.00341 0.0
C247 C 0.07504 0.49255 1.00893 0.0
C248 C 0.95365 0.49193 1.03933 0.0
C249 C 0.06735 0.40897 0.14602 0.0
C250 C 0.14017 0.38731 0.17268 0.0
C251 C 0.14489 0.41288 0.14049 0.0
C252 C 0.10886 0.42375 0.1274 0.0
C253 C 0.06222 0.3831 0.17786 0.0
C254 C 0.09842 0.37234 0.19115 0.0
C255 C 0.03085 0.42327 0.13396 0.0
H256 H 0.89822 0.62047 1.0256 0.0
H257 H 0.96512 0.60477 1.04194 0.0
H258 H 0.03622 0.68003 0.9484 0.0
H259 H 0.96966 0.69808 0.93302 0.0
H260 H 0.17677 0.42537 0.12607 0.0
H261 H 0.11365 0.44437 0.10318 0.0
H262 H 0.03049 0.37178 0.19276 0.0
H263 H 0.0938 0.35234 0.21586 0.0
H264 H 0.35229 0.30544 0.33494 0.0
H265 H 0.38088 0.20531 0.27796 0.0
H266 H 0.35274 0.16315 0.33523 0.0
H267 H 0.31157 0.15277 0.39759 0.0
H268 H 0.28209 0.25318 0.45359 0.0
H269 H 0.31868 0.2973 0.40026 0.0
C270 C 0.35284 0.27451 0.33537 0.0
C271 C 0.36801 0.25818 0.30232 0.0
C272 C 0.33588 0.25046 0.36785 0.0
C273 C 0.36933 0.2184 0.30321 0.0
C274 C 0.35294 0.19428 0.33575 0.0
C275 C 0.31405 0.18454 0.39861 0.0
C276 C 0.29363 0.19956 0.42928 0.0
C277 C 0.33492 0.20967 0.36771 0.0
C278 C 0.29677 0.2407 0.42993 0.0
C279 C 0.31783 0.26597 0.39955 0.0
H280 H 0.30058 0.90457 0.73449 0.0
H281 H 0.25503 0.78385 0.7808 0.0
H282 H 0.29327 0.80994 0.84333 0.0
H283 H 0.33423 0.8681 0.88634 0.0
H284 H 0.37847 0.98886 0.83989 0.0
H285 H 0.34635 0.96176 0.77568 0.0
C286 C 0.29929 0.884 0.75826 0.0
C287 C 0.27465 0.84251 0.75343 0.0
C288 C 0.32086 0.89926 0.79403 0.0
C289 C 0.27387 0.81592 0.78398 0.0
C290 C 0.29545 0.83086 0.81974 0.0
C291 C 0.33693 0.88838 0.86205 0.0
C292 C 0.35823 0.93041 0.86783 0.0
C293 C 0.31814 0.87261 0.82535 0.0
C294 C 0.36234 0.95638 0.83605 0.0
C295 C 0.34379 0.94094 0.79944 0.0
H296 H 0.62621 0.38171 0.75223 0.0
H297 H 0.63995 0.483 0.83184 0.0
H298 H 0.63067 0.5239 0.77735 0.0
H299 H 0.61347 0.53023 0.70707 0.0
H300 H 0.60222 0.42989 0.6267 0.0
H301 H 0.61576 0.39027 0.68057 0.0
C302 C 0.62829 0.41305 0.7575 0.0
C303 C 0.63457 0.42912 0.79649 0.0
C304 C 0.62273 0.43682 0.72559 0.0
C305 C 0.63598 0.46968 0.80243 0.0
C306 C 0.63028 0.49319 0.77113 0.0
C307 C 0.6144 0.49986 0.70116 0.0
C308 C 0.60653 0.48343 0.66235 0.0
C309 C 0.62282 0.47698 0.73257 0.0
C310 C 0.60817 0.44384 0.65585 0.0
C311 C 0.61584 0.42087 0.68689 0.0
H312 H 0.93243 0.59529 0.30035 0.0
H313 H 0.9924 0.71883 0.26427 0.0
H314 H 1.01083 0.69462 0.20026 0.0
H315 H 0.01443 0.63772 0.15556 0.0
H316 H 0.95396 0.51437 0.19318 0.0
H317 H 0.9316 0.53896 0.25459 0.0
C318 C 0.94877 0.61702 0.27825 0.0
C319 C 0.96055 0.65909 0.28741 0.0
C320 C 0.95985 0.60274 0.24151 0.0
C321 C 0.98232 0.68644 0.25818 0.0
C322 C 0.99324 0.67248 0.22155 0.0
C323 C 0.99605 0.61612 0.17699 0.0
C324 C 0.9863 0.57388 0.16907 0.0
C325 C 0.98293 0.63062 0.21298 0.0
C326 C 0.96228 0.54686 0.19776 0.0
C327 C 0.94936 0.56096 0.23325 0.0
H328 H 0.41266 0.21965 0.15368 0.0
H329 H 0.54939 0.29704 0.16811 0.0
H330 H 0.57411 0.23752 0.16712 0.0
H331 H 0.5575 0.16479 0.15412 0.0
H332 H 0.42087 0.08723 0.13649 0.0
H333 H 0.3953 0.14539 0.1474 0.0
C334 C 0.44777 0.22325 0.15704 0.0
C335 C 0.47942 0.26243 0.16006 0.0
C336 C 0.46167 0.18897 0.1557 0.0
C337 C 0.52471 0.26702 0.16516 0.0
C338 C 0.53876 0.23308 0.16453 0.0
C339 C 0.52202 0.16033 0.15333 0.0
C340 C 0.49121 0.1217 0.14399 0.0
C341 C 0.50766 0.19404 0.15859 0.0
C342 C 0.44538 0.11663 0.14335 0.0
C343 C 0.43071 0.14993 0.1494 0.0
H344 H 0.13488 0.86477 0.71054 0.0
H345 H 0.19559 0.86616 0.59692 0.0
H346 H 0.16234 0.91583 0.57442 0.0
H347 H 0.12127 0.96271 0.58879 0.0
H348 H 0.05746 0.96033 0.7008 0.0
H349 H 0.08691 0.90721 0.72268 0.0
C350 C 0.14033 0.87573 0.68075 0.0
C351 C 0.16779 0.86214 0.65542 0.0
C352 C 0.12116 0.90434 0.66808 0.0
C353 C 0.17432 0.87604 0.61677 0.0
C354 C 0.15567 0.90465 0.60404 0.0
C355 C 0.11376 0.95034 0.61794 0.0
C356 C 0.0882 0.96554 0.64361 0.0
C357 C 0.12994 0.91962 0.62972 0.0
C358 C 0.07758 0.94905 0.68093 0.0
C359 C 0.09436 0.91883 0.69329 0.0
H360 H 0.76882 0.44708 0.946 0.0
H361 H 0.79778 0.33619 0.92423 0.0
H362 H 0.86734 0.36317 0.96174 0.0
H363 H 0.91912 0.41719 1.003 0.0
H364 H 0.89174 0.529 1.02416 0.0
H365 H 0.82296 0.50288 0.98523 0.0
C366 C 0.79079 0.42919 0.94894 0.0
C367 C 0.7779 0.38957 0.93232 0.0
C368 C 0.83091 0.44483 0.97111 0.0
C369 C 0.80667 0.36666 0.93683 0.0
C370 C 0.84646 0.38201 0.95845 0.0
C371 C 0.89797 0.43576 0.99938 0.0
C372 C 0.91057 0.47487 1.01708 0.0
C373 C 0.85863 0.42078 0.97632 0.0
C374 C 0.88293 0.49867 1.01127 0.0
C375 C 0.84353 0.48379 0.9888 0.0
H376 H 0.78619 0.63898 0.4024 0.0
H377 H 0.86146 0.69524 0.50628 0.0
H378 H 0.79878 0.65968 0.54762 0.0
H379 H 0.72052 0.61533 0.55472 0.0
H380 H 0.64643 0.55604 0.45138 0.0
H381 H 0.71027 0.58933 0.41012 0.0
C382 C 0.78926 0.64295 0.43409 0.0
C383 C 0.82859 0.67068 0.45081 0.0
C384 C 0.75287 0.62191 0.45813 0.0
C385 C 0.83144 0.67512 0.49217 0.0
C386 C 0.79552 0.65459 0.51605 0.0
C387 C 0.71838 0.60947 0.52322 0.0
C388 C 0.67825 0.58333 0.50642 0.0
C389 C 0.75566 0.6285 0.49939 0.0
C390 C 0.67661 0.57596 0.46542 0.0
C391 C 0.71324 0.59512 0.44161 0.0
H392 H 0.29756 0.35128 0.2605 0.0
H393 H 0.3287 0.32526 0.14139 0.0
H394 H 0.26635 0.34444 0.11686 0.0
H395 H 0.20043 0.3648 0.1295 0.0
H396 H 0.16733 0.38756 0.2488 0.0
H397 H 0.23211 0.37186 0.27312 0.0
C398 C 0.29061 0.34952 0.22916 0.0
C399 C 0.31776 0.33664 0.20289 0.0
C400 C 0.25392 0.35935 0.21535 0.0
C401 C 0.3088 0.33555 0.1623 0.0
C402 C 0.27283 0.34609 0.14825 0.0
C403 C 0.20762 0.36659 0.1608 0.0
C404 C 0.1791 0.37718 0.18734 0.0
C405 C 0.24484 0.3575 0.17455 0.0
C406 C 0.18846 0.37892 0.22785 0.0
C407 C 0.22564 0.37025 0.24173 0.0
H408 H 0.66093 0.28908 0.99044 0.0
H409 H 0.60567 0.23992 0.87697 0.0
H410 H 0.57 0.17343 0.90625 0.0
H411 H 0.55847 0.12739 0.96417 0.0
H412 H 0.62234 0.17772 0.07455 0.0
H413 H 0.65161 0.24461 0.04609 0.0
C414 C 0.64182 0.26391 0.97154 0.0
C415 C 0.63717 0.27013 0.93097 0.0
C416 C 0.62317 0.2253 0.98817 0.0
C417 C 0.61015 0.2368 0.90814 0.0
C418 C 0.59 0.1984 0.9249 0.0
C419 C 0.5788 0.15304 0.98191 0.0
C420 C 0.58836 0.14708 1.0216 0.0
C421 C 0.59688 0.19198 0.96485 0.0
C422 C 0.61484 0.1809 1.04395 0.0
C423 C 0.63148 0.21942 1.02771 0.0
H424 H 1.00342 0.81187 0.44446 0.0
H425 H 0.872 0.81725 0.42188 0.0
H426 H 0.89181 0.88341 0.45588 0.0
H427 H 0.94512 0.93862 0.49606 0.0
H428 H 0.07687 0.93328 0.51847 0.0
H429 H 0.05841 0.86929 0.48126 0.0
C430 C 0.97956 0.82803 0.44612 0.0
C431 C 0.93635 0.80955 0.43002 0.0
C432 C 0.99102 0.86621 0.46653 0.0
C433 C 0.90561 0.83077 0.43347 0.0
C434 C 0.91683 0.8686 0.45329 0.0
C435 C 0.96989 0.92359 0.49273 0.0
C436 C 0.01243 0.9413 0.51048 0.0
C437 C 0.95917 0.88641 0.47069 0.0
C438 C 0.04389 0.92096 0.50534 0.0
C439 C 0.03336 0.88406 0.4839 0.0
H440 H 0.33821 0.79215 0.5879 0.0
H441 H 0.25913 0.68957 0.65386 0.0
H442 H 0.32562 0.67112 0.66748 0.0
H443 H 0.40507 0.6815 0.65665 0.0
H444 H 0.48376 0.78264 0.58857 0.0
H445 H 0.41866 0.80446 0.57975 0.0
C446 C 0.33578 0.76613 0.60573 0.0
C447 C 0.2941 0.74258 0.62041 0.0
C448 C 0.37397 0.75535 0.6128 0.0
C449 C 0.29107 0.70846 0.64281 0.0
C450 C 0.329 0.69784 0.65044 0.0
C451 C 0.40817 0.70878 0.64056 0.0
C452 C 0.44915 0.73046 0.62332 0.0
C453 C 0.37049 0.72075 0.63514 0.0
C454 C 0.45246 0.7653 0.60188 0.0
C455 C 0.41529 0.77779 0.59686 0.0
H456 H 0.77721 0.81573 0.84235 0.0
H457 H 0.65188 0.83317 0.81564 0.0
H458 H 0.68075 0.8608 0.75192 0.0
H459 H 0.74464 0.88734 0.70771 0.0
H460 H 0.87047 0.87194 0.73691 0.0
H461 H 0.83742 0.83413 0.79468 0.0
C462 C 0.7556 0.82437 0.82221 0.0
C463 C 0.71257 0.82274 0.83397 0.0
C464 C 0.7725 0.84053 0.78592 0.0
C465 C 0.68542 0.83478 0.80759 0.0
C466 C 0.70185 0.85046 0.77111 0.0
C467 C 0.76465 0.87526 0.72647 0.0
C468 C 0.81012 0.88297 0.71814 0.0
C469 C 0.74587 0.85473 0.76058 0.0
C470 C 0.83533 0.8663 0.74228 0.0
C471 C 0.81661 0.84506 0.7757 0.0
H472 H 0.82476 0.28315 0.36476 0.0
H473 H 0.94443 0.26319 0.32334 0.0
H474 H 0.9052 0.22948 0.26368 0.0
H475 H 0.83494 0.19898 0.2273 0.0
H476 H 0.71421 0.21541 0.27086 0.0
H477 H 0.75613 0.25854 0.32478 0.0
C478 C 0.84248 0.27228 0.34221 0.0
C479 C 0.88723 0.27523 0.34853 0.0
C480 C 0.81949 0.25224 0.3084 0.0
C481 C 0.90975 0.26071 0.31928 0.0
C482 C 0.88738 0.2415 0.2852 0.0
C483 C 0.81789 0.2123 0.24841 0.0
C484 C 0.77144 0.20353 0.24531 0.0
C485 C 0.84189 0.23594 0.2801 0.0
C486 C 0.74997 0.22179 0.27237 0.0
C487 C 0.77385 0.24614 0.3035 0.0
H488 H 0.42304 0.58684 0.34676 0.0
H489 H 0.49593 0.71255 0.37356 0.0
H490 H 0.52129 0.69357 0.43622 0.0
H491 H 0.527 0.64023 0.48174 0.0
H492 H 0.45373 0.51452 0.45338 0.0
H493 H 0.42466 0.53444 0.39378 0.0
C494 C 0.44382 0.61023 0.36661 0.0
C495 C 0.4572 0.65128 0.35529 0.0
C496 C 0.45883 0.59893 0.40244 0.0
C497 C 0.48463 0.68089 0.38148 0.0
C498 C 0.49945 0.66992 0.41727 0.0
C499 C 0.5044 0.61715 0.46274 0.0
C500 C 0.49304 0.57564 0.47255 0.0
C501 C 0.48748 0.62889 0.42786 0.0
C502 C 0.46348 0.54656 0.44713 0.0
C503 C 0.4467 0.55796 0.41274 0.0
H504 H 0.176 0.40867 0.88948 0.0
H505 H 0.05692 0.39022 0.82036 0.0
H506 H 0.02754 0.42488 0.87169 0.0
H507 H 0.03636 0.46249 0.93642 0.0
H508 H 0.15249 0.4747 1.00785 0.0
H509 H 0.182 0.44098 0.95613 0.0
C510 C 0.14333 0.41176 0.88586 0.0
C511 C 0.11872 0.39646 0.85082 0.0
C512 C 0.12619 0.43121 0.91607 0.0
C513 C 0.07647 0.40102 0.84694 0.0
C514 C 0.05978 0.42124 0.87631 0.0
C515 C 0.06824 0.45795 0.94059 0.0
C516 C 0.09243 0.47202 0.97612 0.0
C517 C 0.08445 0.4369 0.91096 0.0
C518 C 0.13318 0.46474 0.98101 0.0
C519 C 0.15012 0.44529 0.95131 0.0
H520 H 0.60672 0.86531 0.91711 0.0
H521 H 0.69983 0.86397 1.00937 0.0
H522 H 0.67749 0.91365 0.04756 0.0
H523 H 0.63248 0.95791 0.05484 0.0
H524 H 0.5406 0.96164 0.96245 0.0
H525 H 0.56252 0.91144 0.92383 0.0
C526 C 0.62226 0.87603 0.94549 0.0
C527 C 0.65449 0.86038 0.96047 0.0
C528 C 0.6099 0.90537 0.96713 0.0
C529 C 0.67408 0.87452 0.99745 0.0
C530 C 0.66172 0.90336 1.0192 0.0
C531 C 0.61726 0.94794 1.0262 0.0
C532 C 0.58492 0.96355 1.01164 0.0
C533 C 0.62976 0.919 1.00432 0.0
C534 C 0.56572 0.95025 0.97438 0.0
C535 C 0.57809 0.9214 0.95233 0.0
H536 H 1.00144 0.23317 0.41921 0.0
H537 H 0.93089 0.25652 0.52054 0.0
H538 H 0.95059 0.20567 0.55713 0.0
H539 H 0.98461 0.15276 0.55973 0.0
H540 H 0.05559 0.12808 0.45939 0.0
H541 H 0.03855 0.18105 0.42287 0.0
C542 C 0.99055 0.22715 0.44934 0.0
C543 C 0.96488 0.24879 0.46713 0.0
C544 C 1.00161 0.19739 0.47023 0.0
C545 C 0.95132 0.24091 0.50632 0.0
C546 C 0.96218 0.21151 0.52718 0.0
C547 C 0.99627 0.15872 0.52979 0.0
C548 C 0.0208 0.13608 0.51211 0.0
C549 C 0.98677 0.18927 0.50928 0.0
C550 C 0.03638 0.14489 0.47358 0.0
C551 C 0.02667 0.17518 0.45273 0.0
H552 H 0.32166 0.66972 0.14907 0.0
H553 H 0.27135 0.62861 0.26406 0.0
H554 H 0.20044 0.58689 0.23442 0.0
H555 H 0.15063 0.5648 0.17611 0.0
H556 H 0.19964 0.61067 0.06225 0.0
H557 H 0.27234 0.64835 0.09139 0.0
C558 C 0.29519 0.65215 0.16799 0.0
C559 C 0.30244 0.65303 0.20914 0.0
C560 C 0.25376 0.62912 0.15086 0.0
C561 C 0.26758 0.62862 0.23243 0.0
C562 C 0.22661 0.60489 0.21546 0.0
C563 C 0.17728 0.58282 0.15757 0.0
C564 C 0.16936 0.58473 0.11685 0.0
C565 C 0.21906 0.60525 0.17474 0.0
C566 C 0.20443 0.60861 0.09357 0.0
C567 C 0.24616 0.6302 0.11026 0.0
H568 H 0.31954 0.49491 0.72689 0.0
H569 H 0.30441 0.36804 0.71321 0.0
H570 H 0.36157 0.38378 0.66208 0.0
H571 H 0.42048 0.43448 0.62493 0.0
H572 H 0.43476 0.56152 0.63885 0.0
H573 H 0.37372 0.54489 0.6856 0.0
C574 C 0.32843 0.47073 0.7123 0.0
C575 C 0.30822 0.43043 0.72426 0.0
C576 C 0.36162 0.48009 0.68305 0.0
C577 C 0.31977 0.39933 0.70484 0.0
C578 C 0.35259 0.40837 0.67566 0.0
C579 C 0.40993 0.45851 0.63779 0.0
C580 C 0.43279 0.49929 0.62827 0.0
C581 C 0.37452 0.44876 0.66508 0.0
C582 C 0.41824 0.52986 0.64541 0.0
C583 C 0.38321 0.52041 0.67238 0.0
H584 H 0.76018 0.69479 0.90698 0.0
H585 H 0.72825 0.69674 1.0299 0.0
H586 H 0.79583 0.68153 0.04731 0.0
H587 H 0.86573 0.67161 1.02762 0.0
H588 H 0.89721 0.6682 0.90436 0.0
H589 H 0.82857 0.68111 0.88702 0.0
C590 C 0.76766 0.69087 0.93746 0.0
C591 C 0.73894 0.69574 0.96712 0.0
C592 C 0.80685 0.68282 0.94718 0.0
C593 C 0.74944 0.69204 1.00663 0.0
C594 C 0.78822 0.68377 1.01655 0.0
C595 C 0.85737 0.67305 0.9969 0.0
C596 C 0.88685 0.66904 0.9674 0.0
C597 C 0.81743 0.67964 0.98708 0.0
C598 C 0.8757 0.67193 0.92778 0.0
C599 C 0.83618 0.67888 0.91778 0.0
H600 H 0.44664 0.82477 0.25532 0.0
H601 H 0.41967 0.75387 0.147 0.0
H602 H 0.44552 0.81555 0.10918 0.0
H603 H 0.47307 0.89007 0.10586 0.0
H604 H 0.50422 0.96217 0.21318 0.0
H605 H 0.47978 0.90033 0.25182 0.0
C606 C 0.44707 0.8228 0.22349 0.0
C607 C 0.43035 0.78429 0.20429 0.0
C608 C 0.46236 0.85892 0.20144 0.0
C609 C 0.43136 0.78279 0.16284 0.0
C610 C 0.44623 0.81821 0.141 0.0
C611 C 0.47442 0.89236 0.13772 0.0
C612 C 0.49005 0.93106 0.15639 0.0
C613 C 0.46108 0.85651 0.15985 0.0
C614 C 0.49221 0.93302 0.1978 0.0
C615 C 0.47823 0.89752 0.22002 0.0
H616 H 0.18265 0.28034 0.72977 0.0
H617 H 0.04902 0.27627 0.75928 0.0
H618 H 0.01888 0.21126 0.72303 0.0
H619 H 0.03032 0.15684 0.67866 0.0
H620 H 0.16462 0.1673 0.64486 0.0
H621 H 0.194 0.22866 0.68573 0.0
C622 C 0.14676 0.26601 0.72798 0.0
C623 C 0.11848 0.28452 0.74718 0.0
C624 C 0.1295 0.2294 0.70566 0.0
C625 C 0.07213 0.26345 0.74533 0.0
C626 C 0.05472 0.22617 0.72412 0.0
C627 C 0.06602 0.17245 0.68044 0.0
C628 C 0.09511 0.157 0.65841 0.0
C629 C 0.08302 0.20901 0.70356 0.0
C630 C 0.14125 0.17819 0.66102 0.0
C631 C 0.1582 0.21343 0.6846 0.0
H632 H 0.80613 0.31496 0.50427 0.0
H633 H 0.87916 0.42876 0.45178 0.0
H634 H 0.80921 0.4417 0.4386 0.0
H635 H 0.72856 0.42413 0.44892 0.0
H636 H 0.6562 0.31226 0.50542 0.0
H637 H 0.72427 0.29439 0.50901 0.0
C638 C 0.80654 0.3422 0.48928 0.0
C639 C 0.84754 0.37097 0.47899 0.0
C640 C 0.76633 0.34976 0.48265 0.0
C641 C 0.84784 0.40623 0.45977 0.0
C642 C 0.80794 0.41366 0.45242 0.0
C643 C 0.72762 0.39568 0.46175 0.0
C644 C 0.68743 0.36986 0.47738 0.0
C645 C 0.76715 0.38621 0.46482 0.0
C646 C 0.68655 0.33265 0.49303 0.0
C647 C 0.7256 0.32259 0.49546 0.0
loop_
_geom_bond_atom_site_label_1
_geom_bond_atom_site_label_2
_geom_bond_distance
_geom_bond_site_symmetry_2
_ccdc_geom_bond_type
H0 C7 0.929 . S
H1 C10 0.930 . S
H2 C12 0.929 . S
H3 C4 0.969 . S
C4 H3 0.969 . S
C4 O5 1.550 . S
C4 H6 0.973 . S
O5 C4 1.550 . S
O5 C11 1.412 . S
H6 C4 0.973 . S
C7 H0 0.929 . S
C7 C8 1.400 . S
C7 C9 1.364 . S
C8 C7 1.400 . S
C8 C12 1.377 . S
C9 C7 1.364 . S
C9 C10 1.374 . S
C10 H1 0.930 . S
C10 C9 1.374 . S
C10 C11 1.383 . S
C11 O5 1.412 . S
C11 C10 1.383 . S
C11 C12 1.394 . S
C12 H2 0.929 . S
C12 C8 1.377 . S
C12 C11 1.394 . S
H13 C20 0.929 . S
H14 C23 0.930 . S
H15 C25 0.929 . S
H16 C17 0.969 . S
C17 H16 0.969 . S
C17 O18 1.550 . S
C17 H19 0.973 . S
O18 C17 1.550 . S
O18 C24 1.412 . S
H19 C17 0.973 . S
C20 H13 0.929 . S
C20 C21 1.400 . S
C20 C22 1.364 . S
C21 C20 1.400 . S
C21 C25 1.377 . S
C22 C20 1.364 . S
C22 C23 1.374 . S
C23 H14 0.930 . S
C23 C22 1.374 . S
C23 C24 1.383 . S
C24 O18 1.412 . S
C24 C23 1.383 . S
C24 C25 1.394 . S
C25 H15 0.929 . S
C25 C21 1.377 . S
C25 C24 1.394 . S
H26 C33 0.929 . S
H27 C36 0.930 . S
H28 C38 0.929 . S
H29 C30 0.969 . S
C30 H29 0.969 . S
C30 O31 1.550 . S
C30 H32 0.973 . S
O31 C30 1.550 . S
O31 C37 1.412 . S
H32 C30 0.973 . S
C33 H26 0.929 . S
C33 C34 1.400 . S
C33 C35 1.364 . S
C34 C33 1.400 . S
C34 C38 1.377 . S
C35 C33 1.364 . S
C35 C36 1.374 . S
C36 H27 0.930 . S
C36 C35 1.374 . S
C36 C37 1.383 . S
C37 O31 1.412 . S
C37 C36 1.383 . S
C37 C38 1.394 . S
C38 H28 0.929 . S
C38 C34 1.377 . S
C38 C37 1.394 . S
H39 C46 0.929 . S
H40 C49 0.930 . S
H41 C51 0.929 . S
H42 C43 0.969 . S
C43 H42 0.969 . S
C43 O44 1.550 . S
C43 H45 0.973 . S
O44 C43 1.550 . S
O44 C50 1.412 . S
H45 C43 0.973 . S
C46 H39 0.929 . S
C46 C47 1.400 . S
C46 C48 1.364 . S
C47 C46 1.400 . S
C47 C51 1.377 . S
C48 C46 1.364 . S
C48 C49 1.374 . S
C49 H40 0.930 . S
C49 C48 1.374 . S
C49 C50 1.383 . S
C50 O44 1.412 . S
C50 C49 1.383 . S
C50 C51 1.394 . S
C51 H41 0.929 . S
C51 C47 1.377 . S
C51 C50 1.394 . S
H52 C59 0.929 . S
H53 C62 0.930 . S
H54 C64 0.929 . S
H55 C56 0.969 . S
C56 H55 0.969 . S
C56 O57 1.550 . S
C56 H58 0.973 . S
O57 C56 1.550 . S
O57 C63 1.412 . S
H58 C56 0.973 . S
C59 H52 0.929 . S
C59 C60 1.400 . S
C59 C61 1.364 . S
C60 C59 1.400 . S
C60 C64 1.377 . S
C61 C59 1.364 . S
C61 C62 1.374 . S
C62 H53 0.930 . S
C62 C61 1.374 . S
C62 C63 1.383 . S
C63 O57 1.412 . S
C63 C62 1.383 . S
C63 C64 1.394 . S
C64 H54 0.929 . S
C64 C60 1.377 . S
C64 C63 1.394 . S
H65 C72 0.929 . S
H66 C75 0.930 . S
H67 C77 0.929 . S
H68 C69 0.969 . S
C69 H68 0.969 . S
C69 O70 1.550 . S
C69 H71 0.973 . S
O70 C69 1.550 . S
O70 C76 1.412 . S
H71 C69 0.973 . S
C72 H65 0.929 . S
C72 C73 1.400 . S
C72 C74 1.364 . S
C73 C72 1.400 . S
C73 C77 1.377 . S
C74 C72 1.364 . S
C74 C75 1.374 . S
C75 H66 0.930 . S
C75 C74 1.374 . S
C75 C76 1.383 . S
C76 O70 1.412 . S
C76 C75 1.383 . S
C76 C77 1.394 . S
C77 H67 0.929 . S
C77 C73 1.377 . S
C77 C76 1.394 . S
H78 C85 0.929 . S
H79 C88 0.930 . S
H80 C90 0.929 . S
H81 C82 0.969 . S
C82 H81 0.969 . S
C82 O83 1.550 . S
C82 H84 0.973 . S
O83 C82 1.550 . S
O83 C89 1.412 . S
H84 C82 0.973 . S
C85 H78 0.929 . S
C85 C86 1.400 . S
C85 C87 1.364 . S
C86 C85 1.400 . S
C86 C90 1.377 . S
C87 C85 1.364 . S
C87 C88 1.374 . S
C88 H79 0.930 . S
C88 C87 1.374 . S
C88 C89 1.383 . S
C89 O83 1.412 . S
C89 C88 1.383 . S
C89 C90 1.394 . S
C90 H80 0.929 . S
C90 C86 1.377 . S
C90 C89 1.394 . S
H91 C98 0.929 . S
H92 C101 0.930 . S
H93 C103 0.929 . S
H94 C95 0.969 . S
C95 H94 0.969 . S
C95 O96 1.550 . S
C95 H97 0.973 . S
O96 C95 1.550 . S
O96 C102 1.412 . S
H97 C95 0.973 . S
C98 H91 0.929 . S
C98 C99 1.400 . S
C98 C100 1.364 . S
C99 C98 1.400 . S
C99 C103 1.377 . S
C100 C98 1.364 . S
C100 C101 1.374 . S
C101 H92 0.930 . S
C101 C100 1.374 . S
C101 C102 1.383 . S
C102 O96 1.412 . S
C102 C101 1.383 . S
C102 C103 1.394 . S
C103 H93 0.929 . S
C103 C99 1.377 . S
C103 C102 1.394 . S
Dy104 O107 2.307 1_545 S
Dy104 O109 2.395 . S
Dy104 O110 2.379 . S
Dy104 O112 2.339 1_545 S
Dy104 O114 2.298 . S
Dy104 O118 2.275 . S
Dy104 C126 2.738 . S
Dy105 O108 2.298 1_645 S
Dy105 O111 2.275 1_545 S
Dy105 O113 2.307 . S
Dy105 O115 2.395 1_545 S
Dy105 O116 2.379 1_545 S
Dy105 O119 2.339 1_655 S
Dy105 C135 2.738 1_545 S
C106 O118 1.254 . S
C106 O119 1.257 . S
O107 Dy104 2.307 1_565 S
O107 C117 1.266 . S
O108 Dy105 2.298 1_465 S
O108 C117 1.236 . S
O109 Dy104 2.395 . S
O109 C126 1.255 . S
O110 Dy104 2.379 . S
O110 C126 1.249 . S
O111 Dy105 2.275 1_565 S
O111 C127 1.254 . S
O112 Dy104 2.339 1_565 S
O112 C127 1.257 1_455 S
O113 Dy105 2.307 . S
O113 C128 1.266 . S
O114 Dy104 2.298 . S
O114 C128 1.236 1_455 S
O115 Dy105 2.395 1_565 S
O115 C135 1.255 . S
O116 Dy105 2.379 1_565 S
O116 C135 1.249 . S
C117 O107 1.266 . S
C117 O108 1.236 . S
O118 Dy104 2.275 . S
O118 C106 1.254 . S
O119 Dy105 2.339 1_455 S
O119 C106 1.257 . S
C120 C123 1.344 . S
C120 C124 1.328 . S
C120 C126 1.516 . S
C121 C122 1.304 . S
C121 C125 1.323 . S
C122 C121 1.304 . S
C122 C123 1.371 . S
C122 H136 0.930 . S
C123 C120 1.344 . S
C123 C122 1.371 . S
C123 H137 0.931 . S
C124 C120 1.328 . S
C124 C125 1.433 . S
C124 H138 0.931 . S
C125 C121 1.323 . S
C125 C124 1.433 . S
C125 H139 0.933 . S
C126 Dy104 2.738 . S
C126 O109 1.255 . S
C126 O110 1.249 . S
C126 C120 1.516 . S
C127 O111 1.254 . S
C127 O112 1.257 1_655 S
C128 O113 1.266 . S
C128 O114 1.236 1_655 S
C129 C132 1.344 . S
C129 C133 1.328 . S
C129 C135 1.516 . S
C130 C131 1.304 . S
C130 C134 1.323 . S
C131 C130 1.304 . S
C131 C132 1.371 . S
C131 H140 0.930 . S
C132 C129 1.344 . S
C132 C131 1.371 . S
C132 H141 0.931 . S
C133 C129 1.328 . S
C133 C134 1.433 . S
C133 H142 0.931 . S
C134 C130 1.323 . S
C134 C133 1.433 . S
C134 H143 0.933 . S
C135 Dy105 2.738 1_565 S
C135 O115 1.255 . S
C135 O116 1.249 . S
C135 C129 1.516 . S
H136 C122 0.930 . S
H137 C123 0.931 . S
H138 C124 0.931 . S
H139 C125 0.933 . S
H140 C131 0.930 . S
H141 C132 0.931 . S
H142 C133 0.931 . S
H143 C134 0.933 . S
Dy144 O147 2.323 1_556 S
Dy144 O149 2.377 1_545 S
Dy144 O150 2.376 1_545 S
Dy144 O152 2.355 . S
Dy144 O154 2.284 1_545 S
Dy144 O158 2.262 1_546 S
Dy144 C166 2.727 1_545 S
Dy145 O148 2.298 . S
Dy145 O151 2.275 1_554 S
Dy145 O153 2.307 1_544 S
Dy145 O155 2.395 . S
Dy145 O156 2.379 . S
Dy145 O159 2.339 1_545 S
Dy145 C175 2.738 . S
C146 O158 1.254 . S
C146 O159 1.257 . S
O147 Dy144 2.323 1_554 S
O147 C157 1.266 . S
O148 Dy145 2.298 . S
O148 C157 1.236 . S
O149 Dy144 2.377 1_565 S
O149 C166 1.255 . S
O150 Dy144 2.376 1_565 S
O150 C166 1.249 . S
O151 Dy145 2.275 1_556 S
O151 C167 1.254 . S
O152 Dy144 2.355 . S
O152 C167 1.257 . S
O153 Dy145 2.307 1_566 S
O153 C168 1.266 . S
O154 Dy144 2.284 1_565 S
O154 C168 1.236 . S
O155 Dy145 2.395 . S
O155 C175 1.255 . S
O156 Dy145 2.379 . S
O156 C175 1.249 . S
C157 O147 1.266 . S
C157 O148 1.236 . S
O158 Dy144 2.262 1_564 S
O158 C146 1.254 . S
O159 Dy145 2.339 1_565 S
O159 C146 1.257 . S
C160 C163 1.344 . S
C160 C164 1.328 . S
C160 C166 1.516 . S
C161 C162 1.304 . S
C161 C165 1.323 . S
C162 C161 1.304 . S
C162 C163 1.371 . S
C162 H176 0.930 . S
C163 C160 1.344 . S
C163 C162 1.371 . S
C163 H177 0.931 . S
C164 C160 1.328 . S
C164 C165 1.433 . S
C164 H178 0.931 . S
C165 C161 1.323 . S
C165 C164 1.433 . S
C165 H179 0.933 . S
C166 Dy144 2.727 1_565 S
C166 O149 1.255 . S
C166 O150 1.249 . S
C166 C160 1.516 . S
C167 O151 1.254 . S
C167 O152 1.257 . S
C168 O153 1.266 . S
C168 O154 1.236 . S
C169 C172 1.344 . S
C169 C173 1.328 . S
C169 C175 1.516 . S
C170 C171 1.304 . S
C170 C174 1.323 . S
C171 C170 1.304 . S
C171 C172 1.371 . S
C171 H180 0.930 . S
C172 C169 1.344 . S
C172 C171 1.371 . S
C172 H181 0.931 . S
C173 C169 1.328 . S
C173 C174 1.433 . S
C173 H182 0.931 . S
C174 C170 1.323 . S
C174 C173 1.433 . S
C174 H183 0.933 . S
C175 Dy145 2.738 . S
C175 O155 1.255 . S
C175 O156 1.249 . S
C175 C169 1.516 . S
H176 C162 0.930 . S
H177 C163 0.931 . S
H178 C164 0.931 . S
H179 C165 0.933 . S
H180 C171 0.930 . S
H181 C172 0.931 . S
H182 C173 0.931 . S
H183 C174 0.933 . S
Dy184 O187 2.307 . S
Dy184 O189 2.395 . S
Dy184 O190 2.379 . S
Dy184 O192 2.339 . S
Dy184 O194 2.298 . S
Dy184 O198 2.275 . S
Dy184 C206 2.738 . S
Dy185 O188 2.298 . S
Dy185 O191 2.275 . S
Dy185 O193 2.307 . S
Dy185 O195 2.395 . S
Dy185 O196 2.379 . S
Dy185 O199 2.339 . S
Dy185 C215 2.738 . S
C186 O198 1.254 . S
C186 O199 1.257 . S
O187 Dy184 2.307 . S
O187 C197 1.266 . S
O188 Dy185 2.298 . S
O188 C197 1.236 . S
O189 Dy184 2.395 . S
O189 C206 1.255 . S
O190 Dy184 2.379 . S
O190 C206 1.249 . S
O191 Dy185 2.275 . S
O191 C207 1.254 . S
O192 Dy184 2.339 . S
O192 C207 1.257 . S
O193 Dy185 2.307 . S
O193 C208 1.266 . S
O194 Dy184 2.298 . S
O194 C208 1.236 . S
O195 Dy185 2.395 . S
O195 C215 1.255 . S
O196 Dy185 2.379 . S
O196 C215 1.249 . S
C197 O187 1.266 . S
C197 O188 1.236 . S
O198 Dy184 2.275 . S
O198 C186 1.254 . S
O199 Dy185 2.339 . S
O199 C186 1.257 . S
C200 C203 1.344 . S
C200 C204 1.328 . S
C200 C206 1.516 . S
C201 C202 1.304 . S
C201 C205 1.323 . S
C202 C201 1.304 . S
C202 C203 1.371 . S
C202 H216 0.930 . S
C203 C200 1.344 . S
C203 C202 1.371 . S
C203 H217 0.931 . S
C204 C200 1.328 . S
C204 C205 1.433 . S
C204 H218 0.931 . S
C205 C201 1.323 . S
C205 C204 1.433 . S
C205 H219 0.933 . S
C206 Dy184 2.738 . S
C206 O189 1.255 . S
C206 O190 1.249 . S
C206 C200 1.516 . S
C207 O191 1.254 . S
C207 O192 1.257 . S
C208 O193 1.266 . S
C208 O194 1.236 . S
C209 C212 1.344 . S
C209 C213 1.328 . S
C209 C215 1.516 . S
C210 C211 1.304 . S
C210 C214 1.323 . S
C211 C210 1.304 . S
C211 C212 1.371 . S
C211 H220 0.930 . S
C212 C209 1.344 . S
C212 C211 1.371 . S
C212 H221 0.931 . S
C213 C209 1.328 . S
C213 C214 1.433 . S
C213 H222 0.931 . S
C214 C210 1.323 . S
C214 C213 1.433 . S
C214 H223 0.933 . S
C215 Dy185 2.738 . S
C215 O195 1.255 . S
C215 O196 1.249 . S
C215 C209 1.516 . S
H216 C202 0.930 . S
H217 C203 0.931 . S
H218 C204 0.931 . S
H219 C205 0.933 . S
H220 C211 0.930 . S
H221 C212 0.931 . S
H222 C213 0.931 . S
H223 C214 0.933 . S
Dy224 O227 2.307 . S
Dy224 O229 2.395 1_455 S
Dy224 O230 2.379 1_454 S
Dy224 O232 2.339 1_554 S
Dy224 O234 2.298 1_455 S
Dy224 O238 2.275 1_455 S
Dy224 C246 2.738 1_454 S
Dy225 O228 2.298 . S
Dy225 O231 2.275 . S
Dy225 O233 2.307 1_455 S
Dy225 O235 2.395 . S
Dy225 O236 2.379 . S
Dy225 O239 2.339 1_455 S
Dy225 C255 2.738 . S
C226 O238 1.254 . S
C226 O239 1.257 . S
O227 Dy224 2.307 . S
O227 C237 1.266 . S
O228 Dy225 2.298 . S
O228 C237 1.236 . S
O229 Dy224 2.395 1_655 S
O229 C246 1.255 1_554 S
O230 Dy224 2.379 1_656 S
O230 C246 1.249 . S
O231 Dy225 2.275 . S
O231 C247 1.254 1_554 S
O232 Dy224 2.339 1_556 S
O232 C247 1.257 . S
O233 Dy225 2.307 1_655 S
O233 C248 1.266 . S
O234 Dy224 2.298 1_655 S
O234 C248 1.236 . S
O235 Dy225 2.395 . S
O235 C255 1.255 . S
O236 Dy225 2.379 . S
O236 C255 1.249 . S
C237 O227 1.266 . S
C237 O228 1.236 . S
O238 Dy224 2.275 1_655 S
O238 C226 1.254 . S
O239 Dy225 2.339 1_655 S
O239 C226 1.257 . S
C240 C243 1.344 . S
C240 C244 1.328 . S
C240 C246 1.516 . S
C241 C242 1.304 . S
C241 C245 1.323 . S
C242 C241 1.304 . S
C242 C243 1.371 . S
C242 H256 0.930 . S
C243 C240 1.344 . S
C243 C242 1.371 . S
C243 H257 0.931 1_556 S
C244 C240 1.328 . S
C244 C245 1.433 . S
C244 H258 0.931 . S
C245 C241 1.323 . S
C245 C244 1.433 . S
C245 H259 0.933 . S
C246 Dy224 2.738 1_656 S
C246 O229 1.255 1_556 S
C246 O230 1.249 . S
C246 C240 1.516 . S
C247 O231 1.254 1_556 S
C247 O232 1.257 . S
C248 O233 1.266 . S
C248 O234 1.236 . S
C249 C252 1.344 . S
C249 C253 1.328 . S
C249 C255 1.516 . S
C250 C251 1.304 . S
C250 C254 1.323 . S
C251 C250 1.304 . S
C251 C252 1.371 . S
C251 H260 0.930 . S
C252 C249 1.344 . S
C252 C251 1.371 . S
C252 H261 0.931 . S
C253 C249 1.328 . S
C253 C254 1.433 . S
C253 H262 0.931 . S
C254 C250 1.323 . S
C254 C253 1.433 . S
C254 H263 0.933 . S
C255 Dy225 2.738 . S
C255 O235 1.255 . S
C255 O236 1.249 . S
C255 C249 1.516 . S
H256 C242 0.930 . S
H257 C243 0.931 1_554 S
H258 C244 0.931 . S
H259 C245 0.933 . S
H260 C251 0.930 . S
H261 C252 0.931 . S
H262 C253 0.931 . S
H263 C254 0.933 . S
H264 C270 0.930 . S
H265 C273 0.930 . S
H266 C274 0.930 . S
H267 C275 0.930 . S
H268 C278 0.930 . S
H269 C279 0.930 . S
C270 H264 0.930 . S
C270 C271 1.355 . S
C270 C272 1.415 . S
C271 C270 1.355 . S
C271 C273 1.419 . S
C272 C270 1.415 . S
C272 C277 1.425 . S
C272 C279 1.409 . S
C273 H265 0.930 . S
C273 C271 1.419 . S
C273 C274 1.362 . S
C274 H266 0.930 . S
C274 C273 1.362 . S
C274 C277 1.409 . S
C275 H267 0.930 . S
C275 C276 1.355 . S
C275 C277 1.415 . S
C276 C275 1.355 . S
C276 C278 1.419 . S
C277 C272 1.425 . S
C277 C274 1.409 . S
C277 C275 1.415 . S
C278 H268 0.930 . S
C278 C276 1.419 . S
C278 C279 1.362 . S
C279 H269 0.930 . S
C279 C272 1.409 . S
C279 C278 1.362 . S
H280 C286 0.930 . S
H281 C289 0.930 . S
H282 C290 0.930 . S
H283 C291 0.930 . S
H284 C294 0.930 . S
H285 C295 0.930 . S
C286 H280 0.930 . S
C286 C287 1.355 . S
C286 C288 1.415 . S
C287 C286 1.355 . S
C287 C289 1.419 . S
C288 C286 1.415 . S
C288 C293 1.425 . S
C288 C295 1.409 . S
C289 H281 0.930 . S
C289 C287 1.419 . S
C289 C290 1.362 . S
C290 H282 0.930 . S
C290 C289 1.362 . S
C290 C293 1.409 . S
C291 H283 0.930 . S
C291 C292 1.355 . S
C291 C293 1.415 . S
C292 C291 1.355 . S
C292 C294 1.419 . S
C293 C288 1.425 . S
C293 C290 1.409 . S
C293 C291 1.415 . S
C294 H284 0.930 . S
C294 C292 1.419 . S
C294 C295 1.362 . S
C295 H285 0.930 . S
C295 C288 1.409 . S
C295 C294 1.362 . S
H296 C302 0.930 . S
H297 C305 0.930 . S
H298 C306 0.930 . S
H299 C307 0.930 . S
H300 C310 0.930 . S
H301 C311 0.930 . S
C302 H296 0.930 . S
C302 C303 1.355 . S
C302 C304 1.415 . S
C303 C302 1.355 . S
C303 C305 1.419 . S
C304 C302 1.415 . S
C304 C309 1.425 . S
C304 C311 1.409 . S
C305 H297 0.930 . S
C305 C303 1.419 . S
C305 C306 1.362 . S
C306 H298 0.930 . S
C306 C305 1.362 . S
C306 C309 1.409 . S
C307 H299 0.930 . S
C307 C308 1.355 . S
C307 C309 1.415 . S
C308 C307 1.355 . S
C308 C310 1.419 . S
C309 C304 1.425 . S
C309 C306 1.409 . S
C309 C307 1.415 . S
C310 H300 0.930 . S
C310 C308 1.419 . S
C310 C311 1.362 . S
C311 H301 0.930 . S
C311 C304 1.409 . S
C311 C310 1.362 . S
H312 C318 0.930 1_455 S
H313 C321 0.930 . S
H314 C322 0.930 . S
H315 C323 0.930 . S
H316 C326 0.930 . S
H317 C327 0.930 . S
C318 H312 0.930 1_655 S
C318 C319 1.355 . S
C318 C320 1.415 . S
C319 C318 1.355 . S
C319 C321 1.419 . S
C320 C318 1.415 . S
C320 C325 1.425 . S
C320 C327 1.409 1_655 S
C321 H313 0.930 . S
C321 C319 1.419 . S
C321 C322 1.362 . S
C322 H314 0.930 . S
C322 C321 1.362 . S
C322 C325 1.409 . S
C323 H315 0.930 . S
C323 C324 1.355 . S
C323 C325 1.415 . S
C324 C323 1.355 . S
C324 C326 1.419 1_655 S
C325 C320 1.425 . S
C325 C322 1.409 . S
C325 C323 1.415 . S
C326 H316 0.930 . S
C326 C324 1.419 1_455 S
C326 C327 1.362 . S
C327 H317 0.930 . S
C327 C320 1.409 1_455 S
C327 C326 1.362 . S
H328 C334 0.930 . S
H329 C337 0.930 . S
H330 C338 0.930 . S
H331 C339 0.930 . S
H332 C342 0.930 . S
H333 C343 0.930 . S
C334 H328 0.930 . S
C334 C335 1.355 . S
C334 C336 1.415 . S
C335 C334 1.355 . S
C335 C337 1.419 . S
C336 C334 1.415 . S
C336 C341 1.425 . S
C336 C343 1.409 . S
C337 H329 0.930 . S
C337 C335 1.419 . S
C337 C338 1.362 . S
C338 H330 0.930 . S
C338 C337 1.362 . S
C338 C341 1.409 . S
C339 H331 0.930 . S
C339 C340 1.355 . S
C339 C341 1.415 . S
C340 C339 1.355 . S
C340 C342 1.419 . S
C341 C336 1.425 . S
C341 C338 1.409 . S
C341 C339 1.415 . S
C342 H332 0.930 . S
C342 C340 1.419 . S
C342 C343 1.362 . S
C343 H333 0.930 . S
C343 C336 1.409 . S
C343 C342 1.362 . S
H344 C350 0.930 . S
H345 C353 0.930 . S
H346 C354 0.930 . S
H347 C355 0.930 . S
H348 C358 0.930 1_655 S
H349 C359 0.930 1_655 S
C350 H344 0.930 . S
C350 C351 1.355 . S
C350 C352 1.415 . S
C351 C350 1.355 . S
C351 C353 1.419 . S
C352 C350 1.415 . S
C352 C357 1.425 . S
C352 C359 1.409 . S
C353 H345 0.930 . S
C353 C351 1.419 . S
C353 C354 1.362 . S
C354 H346 0.930 . S
C354 C353 1.362 . S
C354 C357 1.409 . S
C355 H347 0.930 . S
C355 C356 1.355 . S
C355 C357 1.415 . S
C356 C355 1.355 . S
C356 C358 1.419 . S
C357 C352 1.425 . S
C357 C354 1.409 . S
C357 C355 1.415 . S
C358 H348 0.930 1_455 S
C358 C356 1.419 . S
C358 C359 1.362 . S
C359 H349 0.930 1_455 S
C359 C352 1.409 . S
C359 C358 1.362 . S
H360 C366 0.930 . S
H361 C369 0.930 . S
H362 C370 0.930 . S
H363 C371 0.930 1_554 S
H364 C374 0.930 . S
H365 C375 0.930 . S
C366 H360 0.930 . S
C366 C367 1.355 . S
C366 C368 1.415 . S
C367 C366 1.355 . S
C367 C369 1.419 . S
C368 C366 1.415 . S
C368 C373 1.425 . S
C368 C375 1.409 . S
C369 H361 0.930 . S
C369 C367 1.419 . S
C369 C370 1.362 . S
C370 H362 0.930 . S
C370 C369 1.362 . S
C370 C373 1.409 . S
C371 H363 0.930 1_556 S
C371 C372 1.355 1_556 S
C371 C373 1.415 . S
C372 C371 1.355 1_554 S
C372 C374 1.419 1_554 S
C373 C368 1.425 . S
C373 C370 1.409 . S
C373 C371 1.415 . S
C374 H364 0.930 . S
C374 C372 1.419 1_556 S
C374 C375 1.362 . S
C375 H365 0.930 . S
C375 C368 1.409 . S
C375 C374 1.362 . S
H376 C382 0.930 . S
H377 C385 0.930 . S
H378 C386 0.930 . S
H379 C387 0.930 . S
H380 C390 0.930 . S
H381 C391 0.930 . S
C382 H376 0.930 . S
C382 C383 1.355 . S
C382 C384 1.415 . S
C383 C382 1.355 . S
C383 C385 1.419 . S
C384 C382 1.415 . S
C384 C389 1.425 . S
C384 C391 1.409 . S
C385 H377 0.930 . S
C385 C383 1.419 . S
C385 C386 1.362 . S
C386 H378 0.930 . S
C386 C385 1.362 . S
C386 C389 1.409 . S
C387 H379 0.930 . S
C387 C388 1.355 . S
C387 C389 1.415 . S
C388 C387 1.355 . S
C388 C390 1.419 . S
C389 C384 1.425 . S
C389 C386 1.409 . S
C389 C387 1.415 . S
C390 H380 0.930 . S
C390 C388 1.419 . S
C390 C391 1.362 . S
C391 H381 0.930 . S
C391 C384 1.409 . S
C391 C390 1.362 . S
H392 C398 0.930 . S
H393 C401 0.930 . S
H394 C402 0.930 . S
H395 C403 0.930 . S
H396 C406 0.930 . S
H397 C407 0.930 . S
C398 H392 0.930 . S
C398 C399 1.355 . S
C398 C400 1.415 . S
C399 C398 1.355 . S
C399 C401 1.419 . S
C400 C398 1.415 . S
C400 C405 1.425 . S
C400 C407 1.409 . S
C401 H393 0.930 . S
C401 C399 1.419 . S
C401 C402 1.362 . S
C402 H394 0.930 . S
C402 C401 1.362 . S
C402 C405 1.409 . S
C403 H395 0.930 . S
C403 C404 1.355 . S
C403 C405 1.415 . S
C404 C403 1.355 . S
C404 C406 1.419 . S
C405 C400 1.425 . S
C405 C402 1.409 . S
C405 C403 1.415 . S
C406 H396 0.930 . S
C406 C404 1.419 . S
C406 C407 1.362 . S
C407 H397 0.930 . S
C407 C400 1.409 . S
C407 C406 1.362 . S
H408 C414 0.930 . S
H409 C417 0.930 . S
H410 C418 0.930 . S
H411 C419 0.930 . S
H412 C422 0.930 . S
H413 C423 0.930 . S
C414 H408 0.930 . S
C414 C415 1.355 . S
C414 C416 1.415 . S
C415 C414 1.355 . S
C415 C417 1.419 . S
C416 C414 1.415 . S
C416 C421 1.425 . S
C416 C423 1.409 . S
C417 H409 0.930 . S
C417 C415 1.419 . S
C417 C418 1.362 . S
C418 H410 0.930 . S
C418 C417 1.362 . S
C418 C421 1.409 . S
C419 H411 0.930 . S
C419 C420 1.355 . S
C419 C421 1.415 . S
C420 C419 1.355 . S
C420 C422 1.419 . S
C421 C416 1.425 . S
C421 C418 1.409 . S
C421 C419 1.415 . S
C422 H412 0.930 . S
C422 C420 1.419 . S
C422 C423 1.362 . S
C423 H413 0.930 . S
C423 C416 1.409 . S
C423 C422 1.362 . S
H424 C430 0.930 . S
H425 C433 0.930 . S
H426 C434 0.930 . S
H427 C435 0.930 . S
H428 C438 0.930 . S
H429 C439 0.930 . S
C430 H424 0.930 . S
C430 C431 1.355 . S
C430 C432 1.415 . S
C431 C430 1.355 . S
C431 C433 1.419 . S
C432 C430 1.415 . S
C432 C437 1.425 . S
C432 C439 1.409 1_655 S
C433 H425 0.930 . S
C433 C431 1.419 . S
C433 C434 1.362 . S
C434 H426 0.930 . S
C434 C433 1.362 . S
C434 C437 1.409 . S
C435 H427 0.930 . S
C435 C436 1.355 . S
C435 C437 1.415 . S
C436 C435 1.355 . S
C436 C438 1.419 1_655 S
C437 C432 1.425 . S
C437 C434 1.409 . S
C437 C435 1.415 . S
C438 H428 0.930 . S
C438 C436 1.419 1_455 S
C438 C439 1.362 . S
C439 H429 0.930 . S
C439 C432 1.409 1_455 S
C439 C438 1.362 . S
H440 C446 0.930 . S
H441 C449 0.930 . S
H442 C450 0.930 . S
H443 C451 0.930 . S
H444 C454 0.930 . S
H445 C455 0.930 . S
C446 H440 0.930 . S
C446 C447 1.355 . S
C446 C448 1.415 . S
C447 C446 1.355 . S
C447 C449 1.419 . S
C448 C446 1.415 . S
C448 C453 1.425 . S
C448 C455 1.409 . S
C449 H441 0.930 . S
C449 C447 1.419 . S
C449 C450 1.362 . S
C450 H442 0.930 . S
C450 C449 1.362 . S
C450 C453 1.409 . S
C451 H443 0.930 . S
C451 C452 1.355 . S
C451 C453 1.415 . S
C452 C451 1.355 . S
C452 C454 1.419 . S
C453 C448 1.425 . S
C453 C450 1.409 . S
C453 C451 1.415 . S
C454 H444 0.930 . S
C454 C452 1.419 . S
C454 C455 1.362 . S
C455 H445 0.930 . S
C455 C448 1.409 . S
C455 C454 1.362 . S
H456 C462 0.930 . S
H457 C465 0.930 . S
H458 C466 0.930 . S
H459 C467 0.930 . S
H460 C470 0.930 . S
H461 C471 0.930 . S
C462 H456 0.930 . S
C462 C463 1.355 . S
C462 C464 1.415 . S
C463 C462 1.355 . S
C463 C465 1.419 . S
C464 C462 1.415 . S
C464 C469 1.425 . S
C464 C471 1.409 . S
C465 H457 0.930 . S
C465 C463 1.419 . S
C465 C466 1.362 . S
C466 H458 0.930 . S
C466 C465 1.362 . S
C466 C469 1.409 . S
C467 H459 0.930 . S
C467 C468 1.355 . S
C467 C469 1.415 . S
C468 C467 1.355 . S
C468 C470 1.419 . S
C469 C464 1.425 . S
C469 C466 1.409 . S
C469 C467 1.415 . S
C470 H460 0.930 . S
C470 C468 1.419 . S
C470 C471 1.362 . S
C471 H461 0.930 . S
C471 C464 1.409 . S
C471 C470 1.362 . S
H472 C478 0.930 . S
H473 C481 0.930 . S
H474 C482 0.930 . S
H475 C483 0.930 . S
H476 C486 0.930 . S
H477 C487 0.930 . S
C478 H472 0.930 . S
C478 C479 1.355 . S
C478 C480 1.415 . S
C479 C478 1.355 . S
C479 C481 1.419 . S
C480 C478 1.415 . S
C480 C485 1.425 . S
C480 C487 1.409 . S
C481 H473 0.930 . S
C481 C479 1.419 . S
C481 C482 1.362 . S
C482 H474 0.930 . S
C482 C481 1.362 . S
C482 C485 1.409 . S
C483 H475 0.930 . S
C483 C484 1.355 . S
C483 C485 1.415 . S
C484 C483 1.355 . S
C484 C486 1.419 . S
C485 C480 1.425 . S
C485 C482 1.409 . S
C485 C483 1.415 . S
C486 H476 0.930 . S
C486 C484 1.419 . S
C486 C487 1.362 . S
C487 H477 0.930 . S
C487 C480 1.409 . S
C487 C486 1.362 . S
H488 C494 0.930 . S
H489 C497 0.930 . S
H490 C498 0.930 . S
H491 C499 0.930 . S
H492 C502 0.930 . S
H493 C503 0.930 . S
C494 H488 0.930 . S
C494 C495 1.355 . S
C494 C496 1.415 . S
C495 C494 1.355 . S
C495 C497 1.419 . S
C496 C494 1.415 . S
C496 C501 1.425 . S
C496 C503 1.409 . S
C497 H489 0.930 . S
C497 C495 1.419 . S
C497 C498 1.362 . S
C498 H490 0.930 . S
C498 C497 1.362 . S
C498 C501 1.409 . S
C499 H491 0.930 . S
C499 C500 1.355 . S
C499 C501 1.415 . S
C500 C499 1.355 . S
C500 C502 1.419 . S
C501 C496 1.425 . S
C501 C498 1.409 . S
C501 C499 1.415 . S
C502 H492 0.930 . S
C502 C500 1.419 . S
C502 C503 1.362 . S
C503 H493 0.930 . S
C503 C496 1.409 . S
C503 C502 1.362 . S
H504 C510 0.930 . S
H505 C513 0.930 . S
H506 C514 0.930 . S
H507 C515 0.930 . S
H508 C518 0.930 . S
H509 C519 0.930 . S
C510 H504 0.930 . S
C510 C511 1.355 . S
C510 C512 1.415 . S
C511 C510 1.355 . S
C511 C513 1.419 . S
C512 C510 1.415 . S
C512 C517 1.425 . S
C512 C519 1.409 . S
C513 H505 0.930 . S
C513 C511 1.419 . S
C513 C514 1.362 . S
C514 H506 0.930 . S
C514 C513 1.362 . S
C514 C517 1.409 . S
C515 H507 0.930 . S
C515 C516 1.355 . S
C515 C517 1.415 . S
C516 C515 1.355 . S
C516 C518 1.419 . S
C517 C512 1.425 . S
C517 C514 1.409 . S
C517 C515 1.415 . S
C518 H508 0.930 . S
C518 C516 1.419 . S
C518 C519 1.362 . S
C519 H509 0.930 . S
C519 C512 1.409 . S
C519 C518 1.362 . S
H520 C526 0.930 . S
H521 C529 0.930 . S
H522 C530 0.930 . S
H523 C531 0.930 . S
H524 C534 0.930 . S
H525 C535 0.930 . S
C526 H520 0.930 . S
C526 C527 1.355 . S
C526 C528 1.415 . S
C527 C526 1.355 . S
C527 C529 1.419 . S
C528 C526 1.415 . S
C528 C533 1.425 . S
C528 C535 1.409 . S
C529 H521 0.930 . S
C529 C527 1.419 . S
C529 C530 1.362 . S
C530 H522 0.930 . S
C530 C529 1.362 . S
C530 C533 1.409 . S
C531 H523 0.930 . S
C531 C532 1.355 . S
C531 C533 1.415 . S
C532 C531 1.355 . S
C532 C534 1.419 . S
C533 C528 1.425 . S
C533 C530 1.409 . S
C533 C531 1.415 . S
C534 H524 0.930 . S
C534 C532 1.419 . S
C534 C535 1.362 . S
C535 H525 0.930 . S
C535 C528 1.409 . S
C535 C534 1.362 . S
H536 C542 0.930 . S
H537 C545 0.930 . S
H538 C546 0.930 . S
H539 C547 0.930 . S
H540 C550 0.930 . S
H541 C551 0.930 . S
C542 H536 0.930 . S
C542 C543 1.355 . S
C542 C544 1.415 . S
C543 C542 1.355 . S
C543 C545 1.419 . S
C544 C542 1.415 . S
C544 C549 1.425 . S
C544 C551 1.409 . S
C545 H537 0.930 . S
C545 C543 1.419 . S
C545 C546 1.362 . S
C546 H538 0.930 . S
C546 C545 1.362 . S
C546 C549 1.409 . S
C547 H539 0.930 . S
C547 C548 1.355 . S
C547 C549 1.415 . S
C548 C547 1.355 . S
C548 C550 1.419 . S
C549 C544 1.425 . S
C549 C546 1.409 . S
C549 C547 1.415 . S
C550 H540 0.930 . S
C550 C548 1.419 . S
C550 C551 1.362 . S
C551 H541 0.930 . S
C551 C544 1.409 . S
C551 C550 1.362 . S
H552 C558 0.930 . S
H553 C561 0.930 . S
H554 C562 0.930 . S
H555 C563 0.930 . S
H556 C566 0.930 . S
H557 C567 0.930 . S
C558 H552 0.930 . S
C558 C559 1.355 . S
C558 C560 1.415 . S
C559 C558 1.355 . S
C559 C561 1.419 . S
C560 C558 1.415 . S
C560 C565 1.425 . S
C560 C567 1.409 . S
C561 H553 0.930 . S
C561 C559 1.419 . S
C561 C562 1.362 . S
C562 H554 0.930 . S
C562 C561 1.362 . S
C562 C565 1.409 . S
C563 H555 0.930 . S
C563 C564 1.355 . S
C563 C565 1.415 . S
C564 C563 1.355 . S
C564 C566 1.419 . S
C565 C560 1.425 . S
C565 C562 1.409 . S
C565 C563 1.415 . S
C566 H556 0.930 . S
C566 C564 1.419 . S
C566 C567 1.362 . S
C567 H557 0.930 . S
C567 C560 1.409 . S
C567 C566 1.362 . S
H568 C574 0.930 . S
H569 C577 0.930 . S
H570 C578 0.930 . S
H571 C579 0.930 . S
H572 C582 0.930 . S
H573 C583 0.930 . S
C574 H568 0.930 . S
C574 C575 1.355 . S
C574 C576 1.415 . S
C575 C574 1.355 . S
C575 C577 1.419 . S
C576 C574 1.415 . S
C576 C581 1.425 . S
C576 C583 1.409 . S
C577 H569 0.930 . S
C577 C575 1.419 . S
C577 C578 1.362 . S
C578 H570 0.930 . S
C578 C577 1.362 . S
C578 C581 1.409 . S
C579 H571 0.930 . S
C579 C580 1.355 . S
C579 C581 1.415 . S
C580 C579 1.355 . S
C580 C582 1.419 . S
C581 C576 1.425 . S
C581 C578 1.409 . S
C581 C579 1.415 . S
C582 H572 0.930 . S
C582 C580 1.419 . S
C582 C583 1.362 . S
C583 H573 0.930 . S
C583 C576 1.409 . S
C583 C582 1.362 . S
H584 C590 0.930 . S
H585 C593 0.930 . S
H586 C594 0.930 . S
H587 C595 0.930 . S
H588 C598 0.930 . S
H589 C599 0.930 . S
C590 H584 0.930 . S
C590 C591 1.355 . S
C590 C592 1.415 . S
C591 C590 1.355 . S
C591 C593 1.419 . S
C592 C590 1.415 . S
C592 C597 1.425 . S
C592 C599 1.409 . S
C593 H585 0.930 . S
C593 C591 1.419 . S
C593 C594 1.362 . S
C594 H586 0.930 . S
C594 C593 1.362 . S
C594 C597 1.409 . S
C595 H587 0.930 . S
C595 C596 1.355 . S
C595 C597 1.415 . S
C596 C595 1.355 . S
C596 C598 1.419 . S
C597 C592 1.425 . S
C597 C594 1.409 . S
C597 C595 1.415 . S
C598 H588 0.930 . S
C598 C596 1.419 . S
C598 C599 1.362 . S
C599 H589 0.930 . S
C599 C592 1.409 . S
C599 C598 1.362 . S
H600 C606 0.930 . S
H601 C609 0.930 . S
H602 C610 0.930 . S
H603 C611 0.930 . S
H604 C614 0.930 . S
H605 C615 0.930 . S
C606 H600 0.930 . S
C606 C607 1.355 . S
C606 C608 1.415 . S
C607 C606 1.355 . S
C607 C609 1.419 . S
C608 C606 1.415 . S
C608 C613 1.425 . S
C608 C615 1.409 . S
C609 H601 0.930 . S
C609 C607 1.419 . S
C609 C610 1.362 . S
C610 H602 0.930 . S
C610 C609 1.362 . S
C610 C613 1.409 . S
C611 H603 0.930 . S
C611 C612 1.355 . S
C611 C613 1.415 . S
C612 C611 1.355 . S
C612 C614 1.419 . S
C613 C608 1.425 . S
C613 C610 1.409 . S
C613 C611 1.415 . S
C614 H604 0.930 . S
C614 C612 1.419 . S
C614 C615 1.362 . S
C615 H605 0.930 . S
C615 C608 1.409 . S
C615 C614 1.362 . S
H616 C622 0.930 . S
H617 C625 0.930 . S
H618 C626 0.930 . S
H619 C627 0.930 . S
H620 C630 0.930 . S
H621 C631 0.930 . S
C622 H616 0.930 . S
C622 C623 1.355 . S
C622 C624 1.415 . S
C623 C622 1.355 . S
C623 C625 1.419 . S
C624 C622 1.415 . S
C624 C629 1.425 . S
C624 C631 1.409 . S
C625 H617 0.930 . S
C625 C623 1.419 . S
C625 C626 1.362 . S
C626 H618 0.930 . S
C626 C625 1.362 . S
C626 C629 1.409 . S
C627 H619 0.930 . S
C627 C628 1.355 . S
C627 C629 1.415 . S
C628 C627 1.355 . S
C628 C630 1.419 . S
C629 C624 1.425 . S
C629 C626 1.409 . S
C629 C627 1.415 . S
C630 H620 0.930 . S
C630 C628 1.419 . S
C630 C631 1.362 . S
C631 H621 0.930 . S
C631 C624 1.409 . S
C631 C630 1.362 . S
H632 C638 0.930 . S
H633 C641 0.930 . S
H634 C642 0.930 . S
H635 C643 0.930 . S
H636 C646 0.930 . S
H637 C647 0.930 . S
C638 H632 0.930 . S
C638 C639 1.355 . S
C638 C640 1.415 . S
C639 C638 1.355 . S
C639 C641 1.419 . S
C640 C638 1.415 . S
C640 C645 1.425 . S
C640 C647 1.409 . S
C641 H633 0.930 . S
C641 C639 1.419 . S
C641 C642 1.362 . S
C642 H634 0.930 . S
C642 C641 1.362 . S
C642 C645 1.409 . S
C643 H635 0.930 . S
C643 C644 1.355 . S
C643 C645 1.415 . S
C644 C643 1.355 . S
C644 C646 1.419 . S
C645 C640 1.425 . S
C645 C642 1.409 . S
C645 C643 1.415 . S
C646 H636 0.930 . S
C646 C644 1.419 . S
C646 C647 1.362 . S
C647 H637 0.930 . S
C647 C640 1.409 . S
C647 C646 1.362 . S
C271 C9 1.349 . S
C276 C121 1.423 . S
C287 C21 1.023 . S
C292 C161 1.090 . S
C308 C186 2.181 . S
C303 C30 2.207 . S
C319 C43 2.213 . S
C324 C226 2.308 . S
C340 C157 1.634 . S
C335 C4 1.450 . S
C356 C117 2.162 . S
C351 C22 2.057 . S
C372 C248 1.432 . S
C367 C34 1.482 . S
C388 C208 1.603 . S
C383 C48 1.623 . S
C399 C8 1.390 . S
C404 C250 1.428 . S
C420 C167 2.118 . S
C415 C35 2.142 . S
C431 C47 2.380 . S
C436 C127 2.314 . S
C447 C17 1.364 . S
C452 C210 1.350 . S
C468 C130 0.981 . S
C463 C60 0.993 . S
C479 C74 1.128 . S
C484 C170 1.121 . S
C495 C82 1.904 . S
C500 C207 1.918 . S
C511 C100 2.858 . S
C516 C247 2.798 . S
C527 C61 1.858 . S
C532 C168 1.955 . S
C548 C128 1.583 . S
C543 C73 1.489 . S
C564 C237 1.918 . S
C559 C87 1.928 . S
C580 C197 1.508 . S
C575 C95 1.592 . S
C591 C56 1.287 . S
C596 C241 1.262 . S
C612 C146 2.316 . S
C607 C86 2.353 . S
C628 C106 2.314 . S
C623 C99 2.344 . S
C639 C69 1.127 . S
C644 C201 1.240 . S
