# Generated by pormake.
# Topology pth, (4,4)-cn, num edge types: 1
# Building blocks:
#     Node 0, Type 0, BuildingBlock: GALJAG_clean_sbu_0, # of connection points: 4
#     Node 1, Type 0, BuildingBlock: GALJAG_clean_sbu_0, # of connection points: 4
#     Node 2, Type 0, BuildingBlock: GALJAG_clean_sbu_0, # of connection points: 4
#     Node 3, Type 1, BuildingBlock: AZAVOO_clean_linker_0, # of connection points: 4
#     Node 4, Type 1, BuildingBlock: AZAVOO_clean_linker_0, # of connection points: 4
#     Node 5, Type 1, BuildingBlock: AZAVOO_clean_linker_0, # of connection points: 4
#     Edge 6, Type (0, 1), BuildingBlock: CIFDUS_clean_linker_0, # of connection points: 2
#     Edge 7, Type (0, 1), BuildingBlock: CIFDUS_clean_linker_0, # of connection points: 2
#     Edge 8, Type (0, 1), BuildingBlock: CIFDUS_clean_linker_0, # of connection points: 2
#     Edge 9, Type (0, 1), BuildingBlock: CIFDUS_clean_linker_0, # of connection points: 2
#     Edge 10, Type (0, 1), BuildingBlock: CIFDUS_clean_linker_0, # of connection points: 2
#     Edge 11, Type (0, 1), BuildingBlock: CIFDUS_clean_linker_0, # of connection points: 2
#     Edge 12, Type (0, 1), BuildingBlock: CIFDUS_clean_linker_0, # of connection points: 2
#     Edge 13, Type (0, 1), BuildingBlock: CIFDUS_clean_linker_0, # of connection points: 2
#     Edge 14, Type (0, 1), BuildingBlock: CIFDUS_clean_linker_0, # of connection points: 2
#     Edge 15, Type (0, 1), BuildingBlock: CIFDUS_clean_linker_0, # of connection points: 2
#     Edge 16, Type (0, 1), BuildingBlock: CIFDUS_clean_linker_0, # of connection points: 2
#     Edge 17, Type (0, 1), BuildingBlock: CIFDUS_clean_linker_0, # of connection points: 2
# Relax obj value: 0.135
# Max RMSD: 0.233
# Mean RMSD: 0.162
data_MOF--net-pth--node1-GALJAG_clean_sbu_0--node2-AZAVOO_clean_linker_0--edge1-CIFDUS_clean_linker_0
_symmetry_space_group_name_H-M    P1
_symmetry_Int_Tables_number       1
_symmetry_cell_setting            triclinic
loop_
_symmetry_equiv_pos_as_xyz
'x, y, z'
_cell_length_a     24.059223
_cell_length_b     24.390237
_cell_length_c     62.39743
_cell_angle_alpha  93.098535
_cell_angle_beta   89.018836
_cell_angle_gamma 119.91627
loop_
_atom_site_label
_atom_site_type_symbol
_atom_site_fract_x
_atom_site_fract_y
_atom_site_fract_z
_atom_type_partial_charge
In0 In 0.06912 0.04157 0.05564 0.0
O1 O 0.00757 0.0793 0.07136 0.0
O2 O 0.08679 0.08916 0.08915 0.0
C3 C 0.98919 0.9719 0.02295 0.0
C4 C 0.16071 0.14022 0.03493 0.0
C5 C 0.08387 0.95448 0.07567 0.0
O6 O 0.97008 0.98789 0.03987 0.0
O7 O 0.04843 0.99056 0.02266 0.0
O8 O 0.13086 0.00752 0.0713 0.0
O9 O 0.02995 0.94531 0.06968 0.0
C10 C 0.04007 0.09883 0.08855 0.0
O11 O 0.16926 0.09671 0.04134 0.0
O12 O 0.10664 0.13416 0.03924 0.0
In13 In 0.00589 0.02826 0.38704 0.0
O14 O 0.05815 0.12194 0.37015 0.0
O15 O 0.95729 0.06464 0.36561 0.0
C16 C 0.09568 0.03783 0.41442 0.0
C17 C 0.9243 0.02733 0.41702 0.0
C18 C 0.99466 0.92985 0.3617 0.0
O19 O 0.10874 0.07868 0.40065 0.0
O20 O 0.03847 0.99303 0.41403 0.0
O21 O 0.95262 0.92403 0.37517 0.0
O22 O 0.04059 0.98563 0.36037 0.0
C23 C 0.00775 0.11532 0.36163 0.0
O24 O 0.90617 0.98628 0.40154 0.0
O25 O 0.98282 0.06937 0.41694 0.0
In26 In 0.04026 0.06212 0.72508 0.0
O27 O 0.98672 0.96256 0.7377 0.0
O28 O 0.96404 0.03118 0.75083 0.0
C29 C 0.12477 0.04752 0.69996 0.0
C30 C 0.96473 0.08213 0.69871 0.0
C31 C 0.12793 0.14671 0.75346 0.0
O32 O 0.07345 0.00065 0.70599 0.0
O33 O 0.13201 0.10084 0.70598 0.0
O34 O 0.10505 0.16315 0.73862 0.0
O35 O 0.10505 0.08769 0.75429 0.0
C36 C 0.95335 0.97502 0.75075 0.0
O37 O 0.99286 0.11825 0.71493 0.0
O38 O 0.97594 0.03712 0.69557 0.0
H39 H 0.95715 0.35075 0.08852 0.0
H40 H 0.15075 0.93811 0.25464 0.0
H41 H 0.93959 0.37129 0.20358 0.0
H42 H 0.93546 0.27754 0.18579 0.0
H43 H 0.13998 0.36156 0.19567 0.0
H44 H 0.14297 0.45408 0.21409 0.0
H45 H 0.94282 0.46616 0.17158 0.0
H46 H 0.93076 0.41524 0.13572 0.0
H47 H 0.12831 0.45898 0.13849 0.0
H48 H 0.13981 0.51034 0.17422 0.0
H49 H 0.9546 0.59559 0.19099 0.0
H50 H 0.95263 0.65919 0.16243 0.0
H51 H 0.14343 0.70143 0.14383 0.0
H52 H 0.14573 0.63955 0.17316 0.0
H53 H 0.96149 0.6278 0.23325 0.0
H54 H 0.97367 0.73106 0.24434 0.0
H55 H 0.17847 0.81828 0.23527 0.0
H56 H 0.16552 0.71456 0.22431 0.0
H57 H 0.95139 0.54208 0.26442 0.0
H58 H 0.94927 0.6164 0.29161 0.0
H59 H 0.15671 0.7196 0.29353 0.0
H60 H 0.15786 0.64679 0.26536 0.0
H61 H 0.95351 0.39 0.24756 0.0
H62 H 0.95718 0.32047 0.27331 0.0
H63 H 0.14874 0.46664 0.29264 0.0
H64 H 0.14624 0.53366 0.26539 0.0
O65 O 0.96347 0.3727 0.10243 0.0
O66 O 0.06531 0.39645 0.10466 0.0
O67 O 0.03861 0.85016 0.25356 0.0
O68 O 0.14434 0.89708 0.24963 0.0
C69 C 0.04665 0.48158 0.21509 0.0
C70 C 0.04747 0.51753 0.19791 0.0
C71 C 0.05189 0.57684 0.20213 0.0
C72 C 0.05602 0.60047 0.22349 0.0
C73 C 0.05489 0.56441 0.24072 0.0
C74 C 0.05042 0.50488 0.23658 0.0
C75 C 0.04161 0.4193 0.21 0.0
C76 C 0.98296 0.36819 0.20261 0.0
C77 C 0.98088 0.31512 0.19225 0.0
C78 C 0.03761 0.31274 0.18892 0.0
C79 C 0.09538 0.36173 0.19806 0.0
C80 C 0.09727 0.41464 0.2086 0.0
C81 C 0.04214 0.49185 0.17544 0.0
C82 C 0.98361 0.46538 0.16427 0.0
C83 C 0.9768 0.43604 0.14385 0.0
C84 C 0.02848 0.43271 0.13428 0.0
C85 C 0.0875 0.46055 0.14541 0.0
C86 C 0.09426 0.49002 0.16579 0.0
C87 C 0.05049 0.61358 0.18422 0.0
C88 C 0.996 0.61882 0.18078 0.0
C89 C 0.99476 0.65459 0.1643 0.0
C90 C 0.04786 0.68532 0.15079 0.0
C91 C 0.10208 0.67901 0.1541 0.0
C92 C 0.10339 0.64346 0.17072 0.0
C93 C 0.06264 0.66389 0.228 0.0
C94 C 0.00882 0.66942 0.23345 0.0
C95 C 0.01596 0.72839 0.23984 0.0
C96 C 0.07712 0.78292 0.24079 0.0
C97 C 0.13074 0.77727 0.23477 0.0
C98 C 0.12349 0.71821 0.22839 0.0
C99 C 0.05472 0.58934 0.26285 0.0
C100 C 0.9963 0.57892 0.27149 0.0
C101 C 0.99529 0.62191 0.287 0.0
C102 C 0.0529 0.67531 0.29431 0.0
C103 C 0.11143 0.68024 0.28772 0.0
C104 C 0.11232 0.63784 0.27196 0.0
C105 C 0.04973 0.46674 0.25445 0.0
C106 C 0.99623 0.40697 0.25738 0.0
C107 C -0.00174 0.36751 0.27236 0.0
C108 C 0.05341 0.38755 0.28517 0.0
C109 C 0.10593 0.44886 0.28282 0.0
C110 C 0.10427 0.48779 0.26748 0.0
C111 C 0.02049 0.39969 0.1129 0.0
C112 C 0.08524 0.84529 0.24833 0.0
H113 H 0.63406 0.97982 0.42574 0.0
H114 H 0.21947 0.15503 0.58329 0.0
H115 H 0.5934 0.96087 0.54046 0.0
H116 H 0.67691 0.95292 0.51993 0.0
H117 H 0.79925 0.15604 0.52757 0.0
H118 H 0.71576 0.16323 0.54827 0.0
H119 H 0.50595 0.96614 0.50742 0.0
H120 H 0.54444 0.95364 0.47193 0.0
H121 H 0.68664 0.15295 0.47523 0.0
H122 H 0.64727 0.16475 0.51066 0.0
H123 H 0.39329 0.97763 0.52127 0.0
H124 H 0.32503 0.97851 0.49289 0.0
H125 H 0.45191 0.18007 0.48832 0.0
H126 H 0.52125 0.17782 0.5162 0.0
H127 H 0.36788 0.98565 0.57336 0.0
H128 H 0.27234 0.99248 0.5829 0.0
H129 H 0.37051 0.18865 0.5664 0.0
H130 H 0.46607 0.18138 0.55726 0.0
H131 H 0.45835 0.98164 0.60393 0.0
H132 H 0.39721 0.98226 0.63564 0.0
H133 H 0.47028 0.1828 0.63021 0.0
H134 H 0.53274 0.18186 0.59923 0.0
H135 H 0.55984 0.96806 0.59082 0.0
H136 H 0.63346 0.96172 0.61584 0.0
H137 H 0.75419 0.16542 0.6168 0.0
H138 H 0.67902 0.17111 0.59227 0.0
O139 O 0.61786 0.98635 0.43938 0.0
O140 O 0.69 0.0891 0.44184 0.0
O141 O 0.20858 0.05026 0.58816 0.0
O142 O 0.2564 0.15087 0.57947 0.0
C143 C 0.59232 0.06941 0.55104 0.0
C144 C 0.55564 0.07178 0.53405 0.0
C145 C 0.50103 0.07701 0.53855 0.0
C146 C 0.48269 0.07954 0.55998 0.0
C147 C 0.51986 0.07785 0.57703 0.0
C148 C 0.57472 0.07268 0.57253 0.0
C149 C 0.64873 0.06262 0.54572 0.0
C150 C 0.63937 0.00319 0.5385 0.0
C151 C 0.68671 -0.00112 0.52656 0.0
C152 C 0.74397 0.05401 0.52179 0.0
C153 C 0.75572 0.11274 0.53105 0.0
C154 C 0.70826 0.11698 0.54295 0.0
C155 C 0.57372 0.06635 0.5115 0.0
C156 C 0.54463 0.00721 0.50025 0.0
C157 C 0.56703 0.00016 0.48006 0.0
C158 C 0.6189 0.05223 0.47079 0.0
C159 C 0.64671 0.11186 0.48192 0.0
C160 C 0.62415 0.11883 0.50209 0.0
C161 C 0.46168 0.07768 0.52077 0.0
C162 C 0.40642 0.02175 0.51397 0.0
C163 C 0.3674 0.02256 0.49789 0.0
C164 C 0.38259 0.07958 0.48851 0.0
C165 C 0.4391 0.13534 0.49507 0.0
C166 C 0.4785 0.13429 0.51105 0.0
C167 C 0.42375 0.08302 0.56465 0.0
C168 C 0.36853 0.02999 0.57179 0.0
C169 C 0.31408 0.03403 0.57723 0.0
C170 C 0.31381 0.09117 0.57544 0.0
C171 C 0.36909 0.14397 0.56798 0.0
C172 C 0.42362 0.13991 0.56265 0.0
C173 C 0.5 0.08175 0.59937 0.0
C174 C 0.46333 0.02614 0.61025 0.0
C175 C 0.42759 0.02644 0.62812 0.0
C176 C 0.42785 0.08233 0.63524 0.0
C177 C 0.46921 0.13899 0.62535 0.0
C178 C 0.50516 0.13869 0.60762 0.0
C179 C 0.61396 0.07005 0.58997 0.0
C180 C 0.60143 0.01132 0.59688 0.0
C181 C 0.64394 0.00782 0.61095 0.0
C182 C 0.70009 0.06304 0.61817 0.0
C183 C 0.71114 0.12208 0.61175 0.0
C184 C 0.66837 0.12549 0.59774 0.0
C185 C 0.64446 0.04397 0.44979 0.0
C186 C 0.25632 0.09593 0.58142 0.0
H187 H 0.74778 0.73041 0.01688 0.0
H188 H 0.2333 0.16554 0.85168 0.0
H189 H 0.6531 0.71065 0.89767 0.0
H190 H 0.74308 0.8022 0.91634 0.0
H191 H 0.84094 0.69524 0.92078 0.0
H192 H 0.75074 0.60398 0.90228 0.0
H193 H 0.59975 0.64892 0.93673 0.0
H194 H 0.65335 0.69421 0.97139 0.0
H195 H 0.71438 0.55476 0.97137 0.0
H196 H 0.66134 0.51056 0.93645 0.0
H197 H 0.48056 0.52298 0.94063 0.0
H198 H 0.42007 0.4554 0.96978 0.0
H199 H 0.46502 0.3132 0.94488 0.0
H200 H 0.52787 0.38255 0.91646 0.0
H201 H 0.39768 0.46344 0.89246 0.0
H202 H 0.29471 0.36946 0.88262 0.0
H203 H 0.39396 0.26855 0.8629 0.0
H204 H 0.49637 0.3627 0.87292 0.0
H205 H 0.46616 0.54796 0.85355 0.0
H206 H 0.38976 0.49049 0.82406 0.0
H207 H 0.48271 0.38035 0.81016 0.0
H208 H 0.55981 0.43898 0.83947 0.0
H209 H 0.58436 0.65092 0.85105 0.0
H210 H 0.649 0.71878 0.82242 0.0
H211 H 0.7813 0.64855 0.82752 0.0
H212 H 0.71531 0.5797 0.85564 0.0
O213 O 0.72501 0.71026 0.00354 0.0
O214 O 0.75064 0.63438 0.00377 0.0
O215 O 0.22409 0.25611 0.86709 0.0
O216 O 0.27305 0.20265 0.85636 0.0
C217 C 0.63432 0.59133 0.89448 0.0
C218 C 0.60076 0.55445 0.91196 0.0
C219 C 0.54268 0.49723 0.90831 0.0
C220 C 0.51675 0.47845 0.88736 0.0
C221 C 0.54917 0.51665 0.87003 0.0
C222 C 0.60869 0.57239 0.87349 0.0
C223 C 0.69553 0.65086 0.89878 0.0
C224 C 0.69521 0.70804 0.90185 0.0
C225 C 0.74621 0.75991 0.91266 0.0
C226 C 0.79835 0.75528 0.92021 0.0
C227 C 0.80146 0.70011 0.91504 0.0
C228 C 0.75016 0.64807 0.90444 0.0
C229 C 0.62692 0.57666 0.93409 0.0
C230 C 0.62432 0.62794 0.94433 0.0
C231 C 0.65509 0.65379 0.9641 0.0
C232 C 0.6885 0.62836 0.9741 0.0
C233 C 0.68922 0.57559 0.96407 0.0
C234 C 0.6587 0.55 0.94421 0.0
C235 C 0.50825 0.45743 0.92643 0.0
C236 C 0.47794 0.47757 0.94169 0.0
C237 C 0.44304 0.43868 0.95821 0.0
C238 C 0.43736 0.37867 0.95961 0.0
C239 C 0.46904 0.35937 0.94447 0.0
C240 C 0.50439 0.39857 0.92809 0.0
C241 C 0.45422 0.41964 0.88343 0.0
C242 C 0.39686 0.42066 0.88629 0.0
C243 C 0.33824 0.36706 0.88055 0.0
C244 C 0.33614 0.31155 0.87187 0.0
C245 C 0.39382 0.31047 0.86949 0.0
C246 C 0.45234 0.36406 0.87527 0.0
C247 C 0.51847 0.49765 0.84853 0.0
C248 C 0.4719 0.51358 0.84346 0.0
C249 C 0.42815 0.48052 0.82673 0.0
C250 C 0.43008 0.43061 0.81509 0.0
C251 C 0.48015 0.41843 0.81905 0.0
C252 C 0.52448 0.45218 0.83558 0.0
C253 C 0.64512 0.61033 0.85528 0.0
C254 C 0.62676 0.64958 0.8457 0.0
C255 C 0.66403 0.68864 0.82951 0.0
C256 C 0.72041 0.68918 0.82273 0.0
C257 C 0.73777 0.64867 0.83215 0.0
C258 C 0.70041 0.6096 0.84828 0.0
C259 C 0.72317 0.65754 0.99471 0.0
C260 C 0.27428 0.25523 0.86503 0.0
H261 H 0.09076 0.128 0.12879 0.0
H262 H 0.95986 0.1473 0.08762 0.0
H263 H 0.94474 0.21229 0.11571 0.0
H264 H 0.97457 0.26938 0.15078 0.0
H265 H 0.10348 0.24862 0.1925 0.0
H266 H 0.11381 0.17842 0.16523 0.0
C267 C 0.05853 0.14605 0.12606 0.0
C268 C 0.02683 0.13338 0.10615 0.0
C269 C 0.04996 0.18319 0.14228 0.0
C270 C 0.98483 0.15652 0.10283 0.0
C271 C 0.97627 0.19375 0.11885 0.0
C272 C 0.00362 0.24823 0.1542 0.0
C273 C 0.03809 0.26411 0.17369 0.0
C274 C 0.00924 0.20802 0.13851 0.0
C275 C 0.07688 0.23756 0.17755 0.0
C276 C 0.08271 0.19737 0.162 0.0
H277 H 0.95944 0.08857 0.45603 0.0
H278 H 0.79354 0.9596 0.41743 0.0
H279 H 0.72309 0.95471 0.44694 0.0
H280 H 0.70907 0.98903 0.48329 0.0
H281 H 0.87513 0.11559 0.52227 0.0
H282 H 0.94551 0.1195 0.49291 0.0
C283 C 0.90784 0.05956 0.45406 0.0
C284 C 0.88154 0.02484 0.43459 0.0
C285 C 0.8679 0.05631 0.47115 0.0
C286 C 0.81474 0.98682 0.4323 0.0
C287 C 0.77454 0.98397 0.44914 0.0
C288 C 0.7607 0.0164 0.48554 0.0
C289 C 0.78697 0.05159 0.50498 0.0
C290 C 0.80066 0.01848 0.46863 0.0
C291 C 0.85389 0.08823 0.50743 0.0
C292 C 0.89405 0.09049 0.49067 0.0
H293 H 0.91602 0.84997 0.75162 0.0
H294 H 0.88476 0.99527 0.78212 0.0
H295 H 0.80857 0.91921 0.80661 0.0
H296 H 0.75358 0.81258 0.82013 0.0
H297 H 0.78285 0.66631 0.78939 0.0
H298 H 0.85743 0.74173 0.76433 0.0
C299 C 0.89239 0.86487 0.7636 0.0
C300 C 0.90617 0.92816 0.76512 0.0
C301 C 0.84848 0.82084 0.77763 0.0
C302 C 0.87503 0.9468 0.78065 0.0
C303 C 0.83147 0.90337 0.79467 0.0
C304 C 0.77544 0.79688 0.80773 0.0
C305 C 0.76268 0.7339 0.80667 0.0
C306 C 0.81807 0.84038 0.79336 0.0
C307 C 0.79243 0.71472 0.79074 0.0
C308 C 0.83489 0.75775 0.77635 0.0
H309 H 0.99248 0.83394 0.08252 0.0
H310 H 0.1901 0.97206 0.09699 0.0
H311 H 0.19758 0.89927 0.12069 0.0
H312 H 0.14532 0.79974 0.13934 0.0
H313 H 0.94824 0.66088 0.12411 0.0
H314 H 0.94311 0.73097 0.09877 0.0
C315 C 0.03735 0.84788 0.09072 0.0
C316 C 0.09048 0.90838 0.08818 0.0
C317 C 0.04121 0.80597 0.10433 0.0
C318 C 0.14848 0.92569 0.09874 0.0
C319 C 0.15272 0.88421 0.11234 0.0
C320 C 0.10161 0.78424 0.13018 0.0
C321 C 0.04702 0.7254 0.13384 0.0
C322 C 0.09904 0.82465 0.11553 0.0
C323 C 0.99057 0.70646 0.12197 0.0
C324 C 0.98765 0.74636 0.10738 0.0
H325 H 0.22635 0.10869 0.41352 0.0
H326 H 0.06883 0.9753 0.45099 0.0
H327 H 0.14365 0.97815 0.47738 0.0
H328 H 0.25296 0.01727 0.48974 0.0
H329 H 0.41218 0.1458 0.45179 0.0
H330 H 0.33764 0.14703 0.42588 0.0
C331 C 0.20866 0.08052 0.42751 0.0
C332 C 0.14231 0.04179 0.4303 0.0
C333 C 0.25212 0.08155 0.44254 0.0
C334 C 0.11977 0.00521 0.44842 0.0
C335 C 0.16246 0.00684 0.46355 0.0
C336 C 0.27153 0.0449 0.47565 0.0
C337 C 0.33805 0.08094 0.47265 0.0
C338 C 0.22862 0.04442 0.46069 0.0
C339 C 0.36116 0.11792 0.45459 0.0
C340 C 0.31857 0.11839 0.43971 0.0
H341 H 0.19497 0.27494 0.75155 0.0
H342 H 0.18108 0.1213 0.78689 0.0
H343 H 0.27448 0.19574 0.80862 0.0
H344 H 0.36098 0.304 0.81724 0.0
H345 H 0.37525 0.45842 0.78247 0.0
H346 H 0.2808 0.38415 0.76074 0.0
C347 C 0.21213 0.25789 0.76412 0.0
C348 C 0.18121 0.19275 0.7676 0.0
C349 C 0.2662 0.30094 0.77647 0.0
C350 C 0.20405 0.17124 0.7839 0.0
C351 C 0.25756 0.21371 0.79628 0.0
C352 C 0.34383 0.32116 0.80468 0.0
C353 C 0.37537 0.38618 0.80112 0.0
C354 C 0.28934 0.27849 0.79256 0.0
C355 C 0.3518 0.40834 0.7853 0.0
C356 C 0.29786 0.36599 0.77295 0.0
H357 H 0.89768 0.00783 0.6641 0.0
H358 H 0.92952 0.17273 0.70308 0.0
H359 H 0.85024 0.18142 0.68168 0.0
H360 H 0.76989 0.14037 0.65242 0.0
H361 H 0.74001 0.97625 0.61326 0.0
H362 H 0.8197 0.9685 0.63445 0.0
C363 C 0.88753 0.04588 0.66785 0.0
C364 C 0.91942 0.08958 0.68513 0.0
C365 C 0.84172 0.05033 0.6556 0.0
C366 C 0.90567 0.13855 0.68982 0.0
C367 C 0.86023 0.14344 0.67763 0.0
C368 C 0.78116 0.1032 0.64842 0.0
C369 C 0.74849 0.05867 0.63137 0.0
C370 C 0.82768 0.09936 0.66055 0.0
C371 C 0.76334 0.01042 0.62656 0.0
C372 C 0.80936 0.00623 0.63856 0.0
H373 H 0.02095 0.93695 0.98476 0.0
H374 H 0.85963 0.92181 0.02085 0.0
H375 H 0.78696 0.85689 0.99143 0.0
H376 H 0.76888 0.80103 0.95618 0.0
H377 H 0.92926 0.81367 0.9203 0.0
H378 H 0.00309 0.88357 0.94891 0.0
C379 C 0.96991 0.91962 0.98614 0.0
C380 C 0.94562 0.93395 0.00496 0.0
C381 C 0.92845 0.88223 0.9692 0.0
C382 C 0.87945 0.91133 0.00653 0.0
C383 C 0.8379 0.87429 0.98972 0.0
C384 C 0.82016 0.82025 0.95444 0.0
C385 C 0.84392 0.80308 0.93611 0.0
C386 C 0.86186 0.85922 0.97105 0.0
C387 C 0.91016 0.82666 0.93427 0.0
C388 C 0.9522 0.86637 0.95062 0.0
H389 H 0.07809 0.93283 0.33151 0.0
H390 H 0.91005 0.80418 0.36604 0.0
H391 H 0.91478 0.71386 0.34905 0.0
H392 H 0.96852 0.67179 0.32508 0.0
H393 H 0.13356 0.80146 0.28934 0.0
H394 H 0.12904 0.89082 0.30658 0.0
C395 C 0.04221 0.885 0.3352 0.0
C396 C 0.9938 0.87518 0.34998 0.0
C397 C 0.04536 0.83345 0.32546 0.0
C398 C 0.94765 0.81296 0.35461 0.0
C399 C 0.95055 0.76133 0.34501 0.0
C400 C 0.0034 0.71953 0.32099 0.0
C401 C 0.05189 0.72949 0.30614 0.0
C402 C -0.00045 0.77104 0.33054 0.0
C403 C 0.09684 0.792 0.30119 0.0
C404 C 0.09384 0.84335 0.31082 0.0
H405 H 0.25126 0.13168 0.69979 0.0
H406 H 0.1089 0.94902 0.67277 0.0
H407 H 0.19135 0.94189 0.65113 0.0
H408 H 0.30252 0.99093 0.63849 0.0
H409 H 0.44572 0.17086 0.66739 0.0
H410 H 0.364 0.17573 0.68977 0.0
C411 C 0.23838 0.09029 0.68916 0.0
C412 C 0.17419 0.04133 0.68756 0.0
C413 C 0.28604 0.08609 0.67717 0.0
C414 C 0.1581 0.98738 0.67412 0.0
C415 C 0.20515 0.98335 0.66178 0.0
C416 C 0.31633 0.03048 0.65006 0.0
C417 C 0.38028 0.08071 0.65111 0.0
C418 C 0.26919 0.03275 0.66304 0.0
C419 C 0.39678 0.13206 0.66597 0.0
C420 C 0.3501 0.13486 0.67881 0.0
H421 H 0.28206 0.16691 0.02526 0.0
H422 H 0.14565 0.22974 0.01598 0.0
H423 H 0.22041 0.3108 0.99261 0.0
H424 H 0.32131 0.35928 0.97309 0.0
H425 H 0.45962 0.29912 0.98285 0.0
H426 H 0.38695 0.22108 0.00759 0.0
C427 C 0.26899 0.19869 0.01823 0.0
C428 C 0.20834 0.19211 0.02222 0.0
C429 C 0.31222 0.24526 0.00477 0.0
C430 C 0.19205 0.23377 0.01312 0.0
C431 C 0.23469 0.28006 -0.00028 0.0
C432 C 0.33625 0.33007 0.98094 0.0
C433 C 0.39575 0.33492 0.97601 0.0
C434 C 0.29452 0.28568 0.99522 0.0
C435 C 0.41365 0.2957 0.98607 0.0
C436 C 0.37227 0.25126 0.0003 0.0
H437 H 0.10844 0.21142 0.34194 0.0
H438 H 0.90481 0.12714 0.35202 0.0
H439 H 0.90179 0.20628 0.33051 0.0
H440 H 0.9564 0.29841 0.30864 0.0
H441 H 0.15822 0.37693 0.29554 0.0
H442 H 0.16277 0.30247 0.31893 0.0
C443 C 0.06352 0.21058 0.33943 0.0
C444 C 0.00696 0.16356 0.34852 0.0
C445 C 0.06184 0.25554 0.32666 0.0
C446 C 0.94896 0.16268 0.34507 0.0
C447 C 0.9472 0.20802 0.33283 0.0
C448 C 0.00135 0.29898 0.3106 0.0
C449 C 0.05679 0.34366 0.30021 0.0
C450 C 0.00325 0.25442 0.32344 0.0
C451 C 0.11483 0.34419 0.30356 0.0
C452 C 0.11744 0.30103 0.31679 0.0
loop_
_geom_bond_atom_site_label_1
_geom_bond_atom_site_label_2
_geom_bond_distance
_geom_bond_site_symmetry_2
_ccdc_geom_bond_type
In0 O1 2.294 . S
In0 O2 2.326 . S
In0 O6 2.266 1_445 S
In0 O7 2.326 1_545 S
In0 O8 2.266 1_545 S
In0 O9 2.326 1_545 S
In0 O11 2.294 . S
In0 O12 2.326 . S
O1 In0 2.294 . S
O1 C10 1.240 . S
O2 In0 2.326 . S
O2 C10 1.252 . S
C3 O6 1.252 . S
C3 O7 1.260 1_655 S
C4 O11 1.240 . S
C4 O12 1.252 . S
C5 O8 1.252 . S
C5 O9 1.260 . S
O6 In0 2.266 1_665 S
O6 C3 1.252 . S
O7 In0 2.326 1_565 S
O7 C3 1.260 1_455 S
O8 In0 2.266 1_565 S
O8 C5 1.252 . S
O9 In0 2.326 1_565 S
O9 C5 1.260 . S
C10 O1 1.240 . S
C10 O2 1.252 . S
O11 In0 2.294 . S
O11 C4 1.240 . S
O12 In0 2.326 . S
O12 C4 1.252 . S
In13 O14 2.294 . S
In13 O15 2.326 1_455 S
In13 O19 2.266 . S
In13 O20 2.326 1_545 S
In13 O21 2.266 1_445 S
In13 O22 2.326 1_545 S
In13 O24 2.294 1_445 S
In13 O25 2.324 1_455 S
O14 In13 2.294 . S
O14 C23 1.240 . S
O15 In13 2.326 1_655 S
O15 C23 1.252 1_655 S
C16 O19 1.252 . S
C16 O20 1.260 1_545 S
C17 O24 1.240 1_545 S
C17 O25 1.255 . S
C18 O21 1.252 1_455 S
C18 O22 1.260 . S
O19 In13 2.266 . S
O19 C16 1.252 . S
O20 In13 2.326 1_565 S
O20 C16 1.260 1_565 S
O21 In13 2.266 1_665 S
O21 C18 1.252 1_655 S
O22 In13 2.326 1_565 S
O22 C18 1.260 . S
C23 O14 1.240 . S
C23 O15 1.252 1_455 S
O24 In13 2.294 1_665 S
O24 C17 1.240 1_565 S
O25 In13 2.324 1_655 S
O25 C17 1.255 . S
In26 O27 2.294 1_545 S
In26 O28 2.326 . S
In26 O32 2.266 . S
In26 O33 2.326 . S
In26 O34 2.266 . S
In26 O35 2.326 . S
In26 O37 2.294 . S
In26 O38 2.326 . S
O27 In26 2.294 1_565 S
O27 C36 1.240 . S
O28 In26 2.326 . S
O28 C36 1.252 1_545 S
C29 O32 1.252 . S
C29 O33 1.260 . S
C30 O37 1.240 1_655 S
C30 O38 1.252 1_655 S
C31 O34 1.252 . S
C31 O35 1.260 . S
O32 In26 2.266 . S
O32 C29 1.252 . S
O33 In26 2.326 . S
O33 C29 1.260 . S
O34 In26 2.266 . S
O34 C31 1.252 . S
O35 In26 2.326 . S
O35 C31 1.260 . S
C36 O27 1.240 . S
C36 O28 1.252 1_565 S
O37 In26 2.294 . S
O37 C30 1.240 1_455 S
O38 In26 2.326 . S
O38 C30 1.252 1_455 S
H39 O65 0.856 . S
H40 O68 0.854 . S
H41 C76 0.930 . S
H42 C77 0.930 . S
H43 C79 0.930 . S
H44 C80 0.930 . S
H45 C82 0.931 1_655 S
H46 C83 0.930 1_655 S
H47 C85 0.930 . S
H48 C86 0.929 . S
H49 C88 0.930 1_655 S
H50 C89 0.931 1_655 S
H51 C91 0.930 . S
H52 C92 0.929 . S
H53 C94 0.931 . S
H54 C95 0.929 1_655 S
H55 C97 0.930 . S
H56 C98 0.932 . S
H57 C100 0.930 . S
H58 C101 0.929 . S
H59 C103 0.931 . S
H60 C104 0.930 . S
H61 C106 0.929 . S
H62 C107 0.931 . S
H63 C109 0.930 . S
H64 C110 0.929 . S
O65 H39 0.856 . S
O65 C111 1.300 . S
O66 C111 1.209 . S
O67 C112 1.199 . S
O68 H40 0.854 . S
O68 C112 1.297 . S
C69 C70 1.404 . S
C69 C74 1.397 . S
C69 C75 1.492 . S
C70 C69 1.404 . S
C70 C71 1.396 . S
C70 C81 1.492 . S
C71 C70 1.396 . S
C71 C72 1.397 . S
C71 C87 1.509 . S
C72 C71 1.397 . S
C72 C73 1.412 . S
C72 C93 1.485 . S
C73 C72 1.412 . S
C73 C74 1.388 . S
C73 C99 1.490 . S
C74 C69 1.397 . S
C74 C73 1.388 . S
C74 C105 1.519 . S
C75 C69 1.492 . S
C75 C76 1.363 1_455 S
C75 C80 1.390 . S
C76 H41 0.930 . S
C76 C75 1.363 1_655 S
C76 C77 1.372 . S
C77 H42 0.930 . S
C77 C76 1.372 . S
C77 C78 1.383 1_655 S
C78 C77 1.383 1_455 S
C78 C79 1.395 . S
C79 H43 0.930 . S
C79 C78 1.395 . S
C79 C80 1.362 . S
C80 H44 0.930 . S
C80 C75 1.390 . S
C80 C79 1.362 . S
C81 C70 1.492 . S
C81 C82 1.377 . S
C81 C86 1.397 . S
C82 H45 0.931 1_455 S
C82 C81 1.377 . S
C82 C83 1.376 . S
C83 H46 0.930 1_455 S
C83 C82 1.376 . S
C83 C84 1.376 . S
C84 C83 1.376 . S
C84 C85 1.378 . S
C84 C111 1.486 . S
C85 H47 0.930 . S
C85 C84 1.378 . S
C85 C86 1.376 . S
C86 H48 0.929 . S
C86 C81 1.397 . S
C86 C85 1.376 . S
C87 C71 1.509 . S
C87 C88 1.391 . S
C87 C92 1.386 . S
C88 H49 0.930 1_455 S
C88 C87 1.391 . S
C88 C89 1.375 . S
C89 H50 0.931 1_455 S
C89 C88 1.375 . S
C89 C90 1.375 . S
C90 C89 1.375 . S
C90 C91 1.361 . S
C91 H51 0.930 . S
C91 C90 1.361 . S
C91 C92 1.399 . S
C92 H52 0.929 . S
C92 C87 1.386 . S
C92 C91 1.399 . S
C93 C72 1.485 . S
C93 C94 1.394 1_455 S
C93 C98 1.360 . S
C94 H53 0.931 . S
C94 C93 1.394 1_655 S
C94 C95 1.372 1_655 S
C95 H54 0.929 1_455 S
C95 C94 1.372 1_455 S
C95 C96 1.397 . S
C96 C95 1.397 . S
C96 C97 1.390 . S
C96 C112 1.476 . S
C97 H55 0.930 . S
C97 C96 1.390 . S
C97 C98 1.366 . S
C98 H56 0.932 . S
C98 C93 1.360 . S
C98 C97 1.366 . S
C99 C73 1.490 . S
C99 C100 1.380 1_455 S
C99 C104 1.386 . S
C100 H57 0.930 . S
C100 C99 1.380 1_655 S
C100 C101 1.381 . S
C101 H58 0.929 . S
C101 C100 1.381 . S
C101 C102 1.371 1_655 S
C102 C101 1.371 1_455 S
C102 C103 1.380 . S
C103 H59 0.931 . S
C103 C102 1.380 . S
C103 C104 1.387 . S
C104 H60 0.930 . S
C104 C99 1.386 . S
C104 C103 1.387 . S
C105 C74 1.519 . S
C105 C106 1.377 1_455 S
C105 C110 1.361 . S
C106 H61 0.929 . S
C106 C105 1.377 1_655 S
C106 C107 1.386 . S
C107 H62 0.931 . S
C107 C106 1.386 . S
C107 C108 1.363 1_655 S
C108 C107 1.363 1_455 S
C108 C109 1.385 . S
C109 H63 0.930 . S
C109 C108 1.385 . S
C109 C110 1.396 . S
C110 H64 0.929 . S
C110 C105 1.361 . S
C110 C109 1.396 . S
C111 O65 1.300 . S
C111 O66 1.209 . S
C111 C84 1.486 . S
C112 O67 1.199 . S
C112 O68 1.297 . S
C112 C96 1.476 . S
H113 O139 0.856 . S
H114 O142 0.854 . S
H115 C150 0.930 . S
H116 C151 0.930 . S
H117 C153 0.930 . S
H118 C154 0.930 . S
H119 C156 0.931 1_565 S
H120 C157 0.930 1_565 S
H121 C159 0.930 . S
H122 C160 0.929 . S
H123 C162 0.930 1_565 S
H124 C163 0.931 1_565 S
H125 C165 0.930 . S
H126 C166 0.929 . S
H127 C168 0.931 1_565 S
H128 C169 0.930 1_565 S
H129 C171 0.930 . S
H130 C172 0.932 . S
H131 C174 0.930 1_565 S
H132 C175 0.929 . S
H133 C177 0.931 . S
H134 C178 0.930 . S
H135 C180 0.929 1_565 S
H136 C181 0.931 1_565 S
H137 C183 0.930 . S
H138 C184 0.929 . S
O139 H113 0.856 . S
O139 C185 1.300 . S
O140 C185 1.209 . S
O141 C186 1.199 . S
O142 H114 0.854 . S
O142 C186 1.297 . S
C143 C144 1.404 . S
C143 C148 1.397 . S
C143 C149 1.492 . S
C144 C143 1.404 . S
C144 C145 1.396 . S
C144 C155 1.492 . S
C145 C144 1.396 . S
C145 C146 1.397 . S
C145 C161 1.509 . S
C146 C145 1.397 . S
C146 C147 1.412 . S
C146 C167 1.485 . S
C147 C146 1.412 . S
C147 C148 1.388 . S
C147 C173 1.490 . S
C148 C143 1.397 . S
C148 C147 1.388 . S
C148 C179 1.519 . S
C149 C143 1.492 . S
C149 C150 1.363 1_545 S
C149 C154 1.390 . S
C150 H115 0.930 . S
C150 C149 1.363 1_565 S
C150 C151 1.372 . S
C151 H116 0.930 . S
C151 C150 1.372 . S
C151 C152 1.383 1_565 S
C152 C151 1.383 1_545 S
C152 C153 1.395 . S
C153 H117 0.930 . S
C153 C152 1.395 . S
C153 C154 1.362 . S
C154 H118 0.930 . S
C154 C149 1.390 . S
C154 C153 1.362 . S
C155 C144 1.492 . S
C155 C156 1.377 . S
C155 C160 1.397 . S
C156 H119 0.931 1_545 S
C156 C155 1.377 . S
C156 C157 1.376 . S
C157 H120 0.930 1_545 S
C157 C156 1.376 . S
C157 C158 1.376 . S
C158 C157 1.376 . S
C158 C159 1.378 . S
C158 C185 1.486 . S
C159 H121 0.930 . S
C159 C158 1.378 . S
C159 C160 1.376 . S
C160 H122 0.929 . S
C160 C155 1.397 . S
C160 C159 1.376 . S
C161 C145 1.509 . S
C161 C162 1.391 . S
C161 C166 1.386 . S
C162 H123 0.930 1_545 S
C162 C161 1.391 . S
C162 C163 1.375 . S
C163 H124 0.931 1_545 S
C163 C162 1.375 . S
C163 C164 1.375 . S
C164 C163 1.375 . S
C164 C165 1.361 . S
C165 H125 0.930 . S
C165 C164 1.361 . S
C165 C166 1.399 . S
C166 H126 0.929 . S
C166 C161 1.386 . S
C166 C165 1.399 . S
C167 C146 1.485 . S
C167 C168 1.394 . S
C167 C172 1.360 . S
C168 H127 0.931 1_545 S
C168 C167 1.394 . S
C168 C169 1.372 . S
C169 H128 0.930 1_545 S
C169 C168 1.372 . S
C169 C170 1.397 . S
C170 C169 1.397 . S
C170 C171 1.390 . S
C170 C186 1.476 . S
C171 H129 0.930 . S
C171 C170 1.390 . S
C171 C172 1.366 . S
C172 H130 0.932 . S
C172 C167 1.360 . S
C172 C171 1.366 . S
C173 C147 1.490 . S
C173 C174 1.380 . S
C173 C178 1.386 . S
C174 H131 0.930 1_545 S
C174 C173 1.380 . S
C174 C175 1.381 1_545 S
C175 H132 0.929 . S
C175 C174 1.381 1_565 S
C175 C176 1.371 1_565 S
C176 C175 1.371 1_545 S
C176 C177 1.380 . S
C177 H133 0.931 . S
C177 C176 1.380 . S
C177 C178 1.387 . S
C178 H134 0.930 . S
C178 C173 1.386 . S
C178 C177 1.387 . S
C179 C148 1.519 . S
C179 C180 1.377 . S
C179 C184 1.361 . S
C180 H135 0.929 1_545 S
C180 C179 1.377 . S
C180 C181 1.386 . S
C181 H136 0.931 1_545 S
C181 C180 1.386 . S
C181 C182 1.363 . S
C182 C181 1.363 . S
C182 C183 1.385 . S
C183 H137 0.930 . S
C183 C182 1.385 . S
C183 C184 1.396 . S
C184 H138 0.929 . S
C184 C179 1.361 . S
C184 C183 1.396 . S
C185 O139 1.300 . S
C185 O140 1.209 . S
C185 C158 1.486 . S
C186 O141 1.199 . S
C186 O142 1.297 . S
C186 C170 1.476 . S
H187 O213 0.856 . S
H188 O216 0.854 . S
H189 C224 0.930 . S
H190 C225 0.930 . S
H191 C227 0.930 . S
H192 C228 0.930 . S
H193 C230 0.931 . S
H194 C231 0.904 1_554 S
H195 C233 0.930 . S
H196 C234 0.929 . S
H197 C236 0.930 . S
H198 C237 0.931 . S
H199 C239 0.930 . S
H200 C240 0.929 . S
H201 C242 0.931 . S
H202 C243 0.930 . S
H203 C245 0.930 . S
H204 C246 0.932 . S
H205 C248 0.930 . S
H206 C249 0.929 . S
H207 C251 0.931 . S
H208 C252 0.930 . S
H209 C254 0.929 . S
H210 C255 0.931 . S
H211 C257 0.930 . S
H212 C258 0.929 . S
O213 H187 0.856 . S
O213 C259 1.300 . S
O214 C259 1.209 . S
O215 C260 1.199 . S
O216 H188 0.854 . S
O216 C260 1.297 . S
C217 C218 1.404 . S
C217 C222 1.397 . S
C217 C223 1.492 . S
C218 C217 1.404 . S
C218 C219 1.396 . S
C218 C229 1.492 . S
C219 C218 1.396 . S
C219 C220 1.397 . S
C219 C235 1.509 . S
C220 C219 1.397 . S
C220 C221 1.412 . S
C220 C241 1.485 . S
C221 C220 1.412 . S
C221 C222 1.388 . S
C221 C247 1.490 . S
C222 C217 1.397 . S
C222 C221 1.388 . S
C222 C253 1.519 . S
C223 C217 1.492 . S
C223 C224 1.363 . S
C223 C228 1.390 . S
C224 H189 0.930 . S
C224 C223 1.363 . S
C224 C225 1.372 . S
C225 H190 0.930 . S
C225 C224 1.372 . S
C225 C226 1.383 . S
C226 C225 1.383 . S
C226 C227 1.395 . S
C227 H191 0.930 . S
C227 C226 1.395 . S
C227 C228 1.362 . S
C228 H192 0.930 . S
C228 C223 1.390 . S
C228 C227 1.362 . S
C229 C218 1.492 . S
C229 C230 1.377 . S
C229 C234 1.397 . S
C230 H193 0.931 . S
C230 C229 1.377 . S
C230 C231 1.376 . S
C231 H194 0.904 1_556 S
C231 C230 1.376 . S
C231 C232 1.376 . S
C232 C231 1.376 . S
C232 C233 1.378 . S
C232 C259 1.486 1_556 S
C233 H195 0.930 . S
C233 C232 1.378 . S
C233 C234 1.376 . S
C234 H196 0.929 . S
C234 C229 1.397 . S
C234 C233 1.376 . S
C235 C219 1.509 . S
C235 C236 1.391 . S
C235 C240 1.386 . S
C236 H197 0.930 . S
C236 C235 1.391 . S
C236 C237 1.375 . S
C237 H198 0.931 . S
C237 C236 1.375 . S
C237 C238 1.375 . S
C238 C237 1.375 . S
C238 C239 1.361 . S
C239 H199 0.930 . S
C239 C238 1.361 . S
C239 C240 1.399 . S
C240 H200 0.929 . S
C240 C235 1.386 . S
C240 C239 1.399 . S
C241 C220 1.485 . S
C241 C242 1.394 . S
C241 C246 1.360 . S
C242 H201 0.931 . S
C242 C241 1.394 . S
C242 C243 1.372 . S
C243 H202 0.930 . S
C243 C242 1.372 . S
C243 C244 1.397 . S
C244 C243 1.397 . S
C244 C245 1.390 . S
C244 C260 1.476 . S
C245 H203 0.930 . S
C245 C244 1.390 . S
C245 C246 1.366 . S
C246 H204 0.932 . S
C246 C241 1.360 . S
C246 C245 1.366 . S
C247 C221 1.490 . S
C247 C248 1.380 . S
C247 C252 1.386 . S
C248 H205 0.930 . S
C248 C247 1.380 . S
C248 C249 1.381 . S
C249 H206 0.929 . S
C249 C248 1.381 . S
C249 C250 1.371 . S
C250 C249 1.371 . S
C250 C251 1.380 . S
C251 H207 0.931 . S
C251 C250 1.380 . S
C251 C252 1.387 . S
C252 H208 0.930 . S
C252 C247 1.386 . S
C252 C251 1.387 . S
C253 C222 1.519 . S
C253 C254 1.377 . S
C253 C258 1.361 . S
C254 H209 0.929 . S
C254 C253 1.377 . S
C254 C255 1.386 . S
C255 H210 0.931 . S
C255 C254 1.386 . S
C255 C256 1.363 . S
C256 C255 1.363 . S
C256 C257 1.385 . S
C257 H211 0.930 . S
C257 C256 1.385 . S
C257 C258 1.396 . S
C258 H212 0.929 . S
C258 C253 1.361 . S
C258 C257 1.396 . S
C259 O213 1.300 . S
C259 O214 1.209 . S
C259 C232 1.486 1_554 S
C260 O215 1.199 . S
C260 O216 1.297 . S
C260 C244 1.476 . S
H261 C267 0.930 . S
H262 C270 0.930 . S
H263 C271 0.930 1_655 S
H264 C272 0.930 1_655 S
H265 C275 0.930 . S
H266 C276 0.930 . S
C267 H261 0.930 . S
C267 C268 1.355 . S
C267 C269 1.415 . S
C268 C267 1.355 . S
C268 C270 1.419 . S
C269 C267 1.415 . S
C269 C274 1.425 . S
C269 C276 1.409 . S
C270 H262 0.930 . S
C270 C268 1.419 . S
C270 C271 1.362 . S
C271 H263 0.930 1_455 S
C271 C270 1.362 . S
C271 C274 1.409 . S
C272 H264 0.930 1_455 S
C272 C273 1.355 . S
C272 C274 1.415 . S
C273 C272 1.355 . S
C273 C275 1.419 . S
C274 C269 1.425 . S
C274 C271 1.409 . S
C274 C272 1.415 . S
C275 H265 0.930 . S
C275 C273 1.419 . S
C275 C276 1.362 . S
C276 H266 0.930 . S
C276 C269 1.409 . S
C276 C275 1.362 . S
H277 C283 0.930 . S
H278 C286 0.930 . S
H279 C287 0.930 . S
H280 C288 0.930 1_565 S
H281 C291 0.930 . S
H282 C292 0.930 . S
C283 H277 0.930 . S
C283 C284 1.355 . S
C283 C285 1.415 . S
C284 C283 1.355 . S
C284 C286 1.419 1_545 S
C285 C283 1.415 . S
C285 C290 1.425 . S
C285 C292 1.409 . S
C286 H278 0.930 . S
C286 C284 1.419 1_565 S
C286 C287 1.362 . S
C287 H279 0.930 . S
C287 C286 1.362 . S
C287 C290 1.409 1_565 S
C288 H280 0.930 1_545 S
C288 C289 1.355 . S
C288 C290 1.415 . S
C289 C288 1.355 . S
C289 C291 1.419 . S
C290 C285 1.425 . S
C290 C287 1.409 1_545 S
C290 C288 1.415 . S
C291 H281 0.930 . S
C291 C289 1.419 . S
C291 C292 1.362 . S
C292 H282 0.930 . S
C292 C285 1.409 . S
C292 C291 1.362 . S
H293 C299 0.930 . S
H294 C302 0.930 . S
H295 C303 0.930 . S
H296 C304 0.930 . S
H297 C307 0.930 . S
H298 C308 0.930 . S
C299 H293 0.930 . S
C299 C300 1.355 . S
C299 C301 1.415 . S
C300 C299 1.355 . S
C300 C302 1.419 . S
C301 C299 1.415 . S
C301 C306 1.425 . S
C301 C308 1.409 . S
C302 H294 0.930 . S
C302 C300 1.419 . S
C302 C303 1.362 . S
C303 H295 0.930 . S
C303 C302 1.362 . S
C303 C306 1.409 . S
C304 H296 0.930 . S
C304 C305 1.355 . S
C304 C306 1.415 . S
C305 C304 1.355 . S
C305 C307 1.419 . S
C306 C301 1.425 . S
C306 C303 1.409 . S
C306 C304 1.415 . S
C307 H297 0.930 . S
C307 C305 1.419 . S
C307 C308 1.362 . S
C308 H298 0.930 . S
C308 C301 1.409 . S
C308 C307 1.362 . S
H309 C315 0.930 1_655 S
H310 C318 0.930 1_545 S
H311 C319 0.930 . S
H312 C320 0.930 . S
H313 C323 0.930 1_655 S
H314 C324 0.930 1_655 S
C315 H309 0.930 1_455 S
C315 C316 1.355 . S
C315 C317 1.415 . S
C316 C315 1.355 . S
C316 C318 1.419 . S
C317 C315 1.415 . S
C317 C322 1.425 . S
C317 C324 1.409 . S
C318 H310 0.930 1_565 S
C318 C316 1.419 . S
C318 C319 1.362 . S
C319 H311 0.930 . S
C319 C318 1.362 . S
C319 C322 1.409 . S
C320 H312 0.930 . S
C320 C321 1.355 . S
C320 C322 1.415 . S
C321 C320 1.355 . S
C321 C323 1.419 . S
C322 C317 1.425 . S
C322 C319 1.409 . S
C322 C320 1.415 . S
C323 H313 0.930 1_455 S
C323 C321 1.419 . S
C323 C324 1.362 . S
C324 H314 0.930 1_455 S
C324 C317 1.409 . S
C324 C323 1.362 . S
H325 C331 0.930 . S
H326 C334 0.930 . S
H327 C335 0.930 . S
H328 C336 0.930 . S
H329 C339 0.930 . S
H330 C340 0.930 . S
C331 H325 0.930 . S
C331 C332 1.355 . S
C331 C333 1.415 . S
C332 C331 1.355 . S
C332 C334 1.419 . S
C333 C331 1.415 . S
C333 C338 1.425 . S
C333 C340 1.409 . S
C334 H326 0.930 . S
C334 C332 1.419 . S
C334 C335 1.362 . S
C335 H327 0.930 . S
C335 C334 1.362 . S
C335 C338 1.409 . S
C336 H328 0.930 . S
C336 C337 1.355 . S
C336 C338 1.415 . S
C337 C336 1.355 . S
C337 C339 1.419 . S
C338 C333 1.425 . S
C338 C335 1.409 . S
C338 C336 1.415 . S
C339 H329 0.930 . S
C339 C337 1.419 . S
C339 C340 1.362 . S
C340 H330 0.930 . S
C340 C333 1.409 . S
C340 C339 1.362 . S
H341 C347 0.930 . S
H342 C350 0.930 . S
H343 C351 0.930 . S
H344 C352 0.930 . S
H345 C355 0.930 . S
H346 C356 0.930 . S
C347 H341 0.930 . S
C347 C348 1.355 . S
C347 C349 1.415 . S
C348 C347 1.355 . S
C348 C350 1.419 . S
C349 C347 1.415 . S
C349 C354 1.425 . S
C349 C356 1.409 . S
C350 H342 0.930 . S
C350 C348 1.419 . S
C350 C351 1.362 . S
C351 H343 0.930 . S
C351 C350 1.362 . S
C351 C354 1.409 . S
C352 H344 0.930 . S
C352 C353 1.355 . S
C352 C354 1.415 . S
C353 C352 1.355 . S
C353 C355 1.419 . S
C354 C349 1.425 . S
C354 C351 1.409 . S
C354 C352 1.415 . S
C355 H345 0.930 . S
C355 C353 1.419 . S
C355 C356 1.362 . S
C356 H346 0.930 . S
C356 C349 1.409 . S
C356 C355 1.362 . S
H357 C363 0.930 . S
H358 C366 0.930 . S
H359 C367 0.930 . S
H360 C368 0.930 . S
H361 C371 0.930 . S
H362 C372 0.930 1_565 S
C363 H357 0.930 . S
C363 C364 1.355 . S
C363 C365 1.415 . S
C364 C363 1.355 . S
C364 C366 1.419 . S
C365 C363 1.415 . S
C365 C370 1.425 . S
C365 C372 1.409 . S
C366 H358 0.930 . S
C366 C364 1.419 . S
C366 C367 1.362 . S
C367 H359 0.930 . S
C367 C366 1.362 . S
C367 C370 1.409 . S
C368 H360 0.930 . S
C368 C369 1.355 . S
C368 C370 1.415 . S
C369 C368 1.355 . S
C369 C371 1.419 . S
C370 C365 1.425 . S
C370 C367 1.409 . S
C370 C368 1.415 . S
C371 H361 0.930 . S
C371 C369 1.419 . S
C371 C372 1.362 . S
C372 H362 0.930 1_545 S
C372 C365 1.409 . S
C372 C371 1.362 . S
H373 C379 0.930 . S
H374 C382 0.930 . S
H375 C383 0.930 . S
H376 C384 0.930 . S
H377 C387 0.930 . S
H378 C388 0.930 . S
C379 H373 0.930 . S
C379 C380 1.355 1_556 S
C379 C381 1.415 . S
C380 C379 1.355 1_554 S
C380 C382 1.419 . S
C381 C379 1.415 . S
C381 C386 1.425 . S
C381 C388 1.409 . S
C382 H374 0.930 . S
C382 C380 1.419 . S
C382 C383 1.362 . S
C383 H375 0.930 . S
C383 C382 1.362 . S
C383 C386 1.409 1_554 S
C384 H376 0.930 . S
C384 C385 1.355 . S
C384 C386 1.415 . S
C385 C384 1.355 . S
C385 C387 1.419 . S
C386 C381 1.425 . S
C386 C383 1.409 1_556 S
C386 C384 1.415 . S
C387 H377 0.930 . S
C387 C385 1.419 . S
C387 C388 1.362 . S
C388 H378 0.930 . S
C388 C381 1.409 . S
C388 C387 1.362 . S
H389 C395 0.930 . S
H390 C398 0.930 . S
H391 C399 0.930 1_655 S
H392 C400 0.933 1_655 S
H393 C403 0.930 . S
H394 C404 0.930 . S
C395 H389 0.930 . S
C395 C396 1.355 . S
C395 C397 1.415 . S
C396 C395 1.355 . S
C396 C398 1.419 . S
C397 C395 1.415 . S
C397 C402 1.425 . S
C397 C404 1.409 . S
C398 H390 0.930 . S
C398 C396 1.419 . S
C398 C399 1.362 . S
C399 H391 0.930 1_455 S
C399 C398 1.362 . S
C399 C402 1.409 . S
C400 H392 0.933 1_455 S
C400 C401 1.355 . S
C400 C402 1.415 . S
C401 C400 1.355 . S
C401 C403 1.419 . S
C402 C397 1.425 . S
C402 C399 1.409 . S
C402 C400 1.415 . S
C403 H393 0.930 . S
C403 C401 1.419 . S
C403 C404 1.362 . S
C404 H394 0.930 . S
C404 C397 1.409 . S
C404 C403 1.362 . S
H405 C411 0.930 . S
H406 C414 0.930 . S
H407 C415 0.930 1_565 S
H408 C416 0.930 1_565 S
H409 C419 0.930 . S
H410 C420 0.930 . S
C411 H405 0.930 . S
C411 C412 1.355 . S
C411 C413 1.415 . S
C412 C411 1.355 . S
C412 C414 1.419 . S
C413 C411 1.415 . S
C413 C418 1.425 . S
C413 C420 1.409 . S
C414 H406 0.930 . S
C414 C412 1.419 . S
C414 C415 1.362 . S
C415 H407 0.930 1_545 S
C415 C414 1.362 . S
C415 C418 1.409 . S
C416 H408 0.930 1_545 S
C416 C417 1.355 . S
C416 C418 1.415 . S
C417 C416 1.355 . S
C417 C419 1.419 . S
C418 C413 1.425 . S
C418 C415 1.409 . S
C418 C416 1.415 . S
C419 H409 0.930 . S
C419 C417 1.419 . S
C419 C420 1.362 . S
C420 H410 0.930 . S
C420 C413 1.409 . S
C420 C419 1.362 . S
H421 C427 0.930 . S
H422 C430 0.930 . S
H423 C431 0.930 . S
H424 C432 0.930 . S
H425 C435 0.930 . S
H426 C436 0.930 . S
C427 H421 0.930 . S
C427 C428 1.355 . S
C427 C429 1.415 . S
C428 C427 1.355 . S
C428 C430 1.419 . S
C429 C427 1.415 . S
C429 C434 1.425 1_554 S
C429 C436 1.409 . S
C430 H422 0.930 . S
C430 C428 1.419 . S
C430 C431 1.362 1_554 S
C431 H423 0.930 . S
C431 C430 1.362 1_556 S
C431 C434 1.409 . S
C432 H424 0.930 . S
C432 C433 1.355 . S
C432 C434 1.415 . S
C433 C432 1.355 . S
C433 C435 1.419 1_556 S
C434 C429 1.425 1_556 S
C434 C431 1.409 . S
C434 C432 1.415 . S
C435 H425 0.930 . S
C435 C433 1.419 1_554 S
C435 C436 1.362 . S
C436 H426 0.930 . S
C436 C429 1.409 . S
C436 C435 1.362 . S
H437 C443 0.930 . S
H438 C446 0.930 . S
H439 C447 0.930 . S
H440 C448 0.922 1_655 S
H441 C451 0.930 . S
H442 C452 0.930 . S
C443 H437 0.930 . S
C443 C444 1.355 . S
C443 C445 1.415 . S
C444 C443 1.355 . S
C444 C446 1.419 1_455 S
C445 C443 1.415 . S
C445 C450 1.425 . S
C445 C452 1.409 . S
C446 H438 0.930 . S
C446 C444 1.419 1_655 S
C446 C447 1.362 . S
C447 H439 0.930 . S
C447 C446 1.362 . S
C447 C450 1.409 1_655 S
C448 H440 0.922 1_455 S
C448 C449 1.359 . S
C448 C450 1.418 . S
C449 C448 1.359 . S
C449 C451 1.419 . S
C450 C445 1.425 . S
C450 C447 1.409 1_455 S
C450 C448 1.418 . S
C451 H441 0.930 . S
C451 C449 1.419 . S
C451 C452 1.362 . S
C452 H442 0.930 . S
C452 C445 1.409 . S
C452 C451 1.362 . S
C273 C78 1.483 . S
C268 C10 1.569 . S
C284 C17 1.507 . S
C289 C152 1.429 . S
C300 C36 2.139 1_655 S
C305 C256 2.137 . S
C316 C5 0.932 . S
C321 C90 0.929 . S
C337 C164 0.949 . S
C332 C16 0.933 . S
C348 C31 1.725 . S
C353 C250 1.603 . S
C369 C182 2.097 . S
C364 C30 2.113 . S
C380 C3 1.570 . S
C385 C226 1.502 . S
C401 C102 1.532 . S
C396 C18 1.732 . S
C417 C176 1.565 . S
C412 C29 1.684 . S
C433 C238 0.946 . S
C428 C4 0.927 . S
C444 C23 2.181 . S
C449 C108 2.178 . S
