# Generated by pormake.
# Topology zzz, (3,6)-cn, num edge types: 1
# Building blocks:
#     Node 0, Type 0, BuildingBlock: KAKCAD_clean_linker_0, # of connection points: 3
#     Node 1, Type 0, BuildingBlock: KAKCAD_clean_linker_0, # of connection points: 3
#     Node 2, Type 0, BuildingBlock: KAKCAD_clean_linker_0, # of connection points: 3
#     Node 3, Type 0, BuildingBlock: KAKCAD_clean_linker_0, # of connection points: 3
#     Node 4, Type 0, BuildingBlock: KAKCAD_clean_linker_0, # of connection points: 3
#     Node 5, Type 0, BuildingBlock: KAKCAD_clean_linker_0, # of connection points: 3
#     Node 6, Type 0, BuildingBlock: KAKCAD_clean_linker_0, # of connection points: 3
#     Node 7, Type 0, BuildingBlock: KAKCAD_clean_linker_0, # of connection points: 3
#     Node 8, Type 1, BuildingBlock: BETDAH_clean_sbu_0, # of connection points: 6
#     Node 9, Type 1, BuildingBlock: BETDAH_clean_sbu_0, # of connection points: 6
#     Node 10, Type 1, BuildingBlock: BETDAH_clean_sbu_0, # of connection points: 6
#     Node 11, Type 1, BuildingBlock: BETDAH_clean_sbu_0, # of connection points: 6
#     Edge 12, Type (0, 1), BuildingBlock: MIFKUJ_clean_linker_0, # of connection points: 2
#     Edge 13, Type (0, 1), BuildingBlock: MIFKUJ_clean_linker_0, # of connection points: 2
#     Edge 14, Type (0, 1), BuildingBlock: MIFKUJ_clean_linker_0, # of connection points: 2
#     Edge 15, Type (0, 1), BuildingBlock: MIFKUJ_clean_linker_0, # of connection points: 2
#     Edge 16, Type (0, 1), BuildingBlock: MIFKUJ_clean_linker_0, # of connection points: 2
#     Edge 17, Type (0, 1), BuildingBlock: MIFKUJ_clean_linker_0, # of connection points: 2
#     Edge 18, Type (0, 1), BuildingBlock: MIFKUJ_clean_linker_0, # of connection points: 2
#     Edge 19, Type (0, 1), BuildingBlock: MIFKUJ_clean_linker_0, # of connection points: 2
#     Edge 20, Type (0, 1), BuildingBlock: MIFKUJ_clean_linker_0, # of connection points: 2
#     Edge 21, Type (0, 1), BuildingBlock: MIFKUJ_clean_linker_0, # of connection points: 2
#     Edge 22, Type (0, 1), BuildingBlock: MIFKUJ_clean_linker_0, # of connection points: 2
#     Edge 23, Type (0, 1), BuildingBlock: MIFKUJ_clean_linker_0, # of connection points: 2
#     Edge 24, Type (0, 1), BuildingBlock: MIFKUJ_clean_linker_0, # of connection points: 2
#     Edge 25, Type (0, 1), BuildingBlock: MIFKUJ_clean_linker_0, # of connection points: 2
#     Edge 26, Type (0, 1), BuildingBlock: MIFKUJ_clean_linker_0, # of connection points: 2
#     Edge 27, Type (0, 1), BuildingBlock: MIFKUJ_clean_linker_0, # of connection points: 2
#     Edge 28, Type (0, 1), BuildingBlock: MIFKUJ_clean_linker_0, # of connection points: 2
#     Edge 29, Type (0, 1), BuildingBlock: MIFKUJ_clean_linker_0, # of connection points: 2
#     Edge 30, Type (0, 1), BuildingBlock: MIFKUJ_clean_linker_0, # of connection points: 2
#     Edge 31, Type (0, 1), BuildingBlock: MIFKUJ_clean_linker_0, # of connection points: 2
#     Edge 32, Type (0, 1), BuildingBlock: MIFKUJ_clean_linker_0, # of connection points: 2
#     Edge 33, Type (0, 1), BuildingBlock: MIFKUJ_clean_linker_0, # of connection points: 2
#     Edge 34, Type (0, 1), BuildingBlock: MIFKUJ_clean_linker_0, # of connection points: 2
#     Edge 35, Type (0, 1), BuildingBlock: MIFKUJ_clean_linker_0, # of connection points: 2
# Relax obj value: 0.408
# Max RMSD: 0.275
# Mean RMSD: 0.253
data_MOF--net-zzz--node1-BETDAH_clean_sbu_0--node2-KAKCAD_clean_linker_0--edge1-MIFKUJ_clean_linker_0
_symmetry_space_group_name_H-M    P1
_symmetry_Int_Tables_number       1
_symmetry_cell_setting            triclinic
loop_
_symmetry_equiv_pos_as_xyz
'x, y, z'
_cell_length_a     75.378407
_cell_length_b     75.349307
_cell_length_c     22.620783
_cell_angle_alpha  89.948668
_cell_angle_beta   89.961446
_cell_angle_gamma 90.221861
loop_
_atom_site_label
_atom_site_type_symbol
_atom_site_fract_x
_atom_site_fract_y
_atom_site_fract_z
_atom_type_partial_charge
C0 C 0.75262 0.48651 0.03359 0.0
C1 C 0.76217 0.47048 0.03266 0.0
C2 C 0.74342 0.49169 0.08401 0.0
C3 C 0.74373 0.48113 0.13501 0.0
C4 C 0.75219 0.46462 0.13347 0.0
C5 C 0.76108 0.45919 0.08232 0.0
C6 C 0.73654 0.48837 0.19055 0.0
C7 C 0.71925 0.49488 0.19181 0.0
C8 C 0.71309 0.50479 0.2399 0.0
C9 C 0.72463 0.50834 0.28782 0.0
C10 C 0.74203 0.5013 0.28761 0.0
C11 C 0.74772 0.49121 0.23903 0.0
C12 C 0.75533 0.50529 0.33431 0.0
C13 C 0.76549 0.52091 0.33088 0.0
C14 C 0.76069 0.49186 0.37352 0.0
C15 C 0.77624 0.49375 0.40709 0.0
C16 C 0.78701 0.50897 0.40123 0.0
C17 C 0.69488 0.51196 0.23469 0.0
C18 C 0.69239 0.52846 0.20709 0.0
C19 C 0.68042 0.5002 0.23862 0.0
C20 C 0.66421 0.50424 0.21149 0.0
C21 C 0.66217 0.52008 0.17919 0.0
C22 C 0.6762 0.5325 0.17971 0.0
C23 C 0.78117 0.52272 0.36385 0.0
H24 H 0.75331 0.49584 0.99726 0.0
H25 H 0.73704 0.50456 0.08443 0.0
H26 H 0.75239 0.45621 0.17232 0.0
H27 H 0.76788 0.44656 0.08293 0.0
H28 H 0.71069 0.49279 0.15384 0.0
H29 H 0.7613 0.4865 0.23736 0.0
H30 H 0.7202 0.51649 0.32434 0.0
H31 H 0.76189 0.53127 0.29993 0.0
H32 H 0.75334 0.47949 0.37579 0.0
H33 H 0.7804 0.48282 0.43488 0.0
H34 H 0.70345 0.53757 0.20211 0.0
H35 H 0.68216 0.48718 0.25812 0.0
H36 H 0.78905 0.53467 0.35856 0.0
H37 H 0.67503 0.54494 0.15606 0.0
H38 H 0.65382 0.49428 0.21174 0.0
C39 C 0.03435 0.75415 0.01245 0.0
C40 C 0.04823 0.76628 0.02218 0.0
C41 C 0.02597 0.74582 0.05999 0.0
C42 C 0.03135 0.74938 0.11831 0.0
C43 C 0.04605 0.76054 0.12777 0.0
C44 C 0.05442 0.76892 0.08013 0.0
C45 C 0.02068 0.74263 0.16875 0.0
C46 C 0.01353 0.72549 0.16737 0.0
C47 C 1.0017 0.71961 0.2111 0.0
C48 C 0.99698 0.73116 0.25773 0.0
C49 C 0.00475 0.74827 0.26104 0.0
C50 C 0.01645 0.75379 0.21617 0.0
C51 C 1.00082 0.76113 0.30927 0.0
C52 C 0.98364 0.76783 0.31758 0.0
C53 C 0.01497 0.76915 0.33986 0.0
C54 C 0.01222 0.78412 0.37517 0.0
C55 C 0.99523 0.79161 0.38076 0.0
C56 C 0.99448 0.70138 0.20424 0.0
C57 C 0.9774 0.69879 0.18103 0.0
C58 C 0.00632 0.68704 0.20481 0.0
C59 C 1.00173 0.67086 0.17857 0.0
C60 C 0.98514 0.66858 0.1509 0.0
C61 C 0.97275 0.68253 0.15476 0.0
C62 C 0.98087 0.78295 0.35283 0.0
H63 H 0.02941 0.75176 0.9682 0.0
H64 H 0.01463 0.73737 0.0511 0.0
H65 H 0.05068 0.76331 0.17214 0.0
H66 H 0.06501 0.77829 0.08909 0.0
H67 H 0.01695 0.71668 0.13123 0.0
H68 H 0.02169 0.76721 0.21703 0.0
H69 H 0.98774 0.72679 0.29146 0.0
H70 H 0.97252 0.76205 0.29402 0.0
H71 H 0.02838 0.76435 0.33391 0.0
H72 H 0.02366 0.79042 0.39526 0.0
H73 H 0.96816 0.70974 0.179 0.0
H74 H 0.0197 0.68883 0.22128 0.0
H75 H 0.96756 0.78816 0.35674 0.0
H76 H 0.95975 0.68121 0.13495 0.0
H77 H 0.01176 0.66064 0.17614 0.0
C78 C 0.74852 0.02942 0.03045 0.0
C79 C 0.73794 0.04471 0.03406 0.0
C80 C 0.75761 0.02326 0.08 0.0
C81 C 0.75618 0.03215 0.13429 0.0
C82 C 0.7465 0.04798 0.13727 0.0
C83 C 0.73759 0.0543 0.08744 0.0
C84 C 0.76364 0.02404 0.18828 0.0
C85 C 0.78094 0.01753 0.18816 0.0
C86 C 0.78762 0.00809 0.23659 0.0
C87 C 0.77658 0.00486 0.28607 0.0
C88 C 0.75915 0.01183 0.28725 0.0
C89 C 0.75296 0.02146 0.23823 0.0
C90 C 0.74657 0.00887 0.33712 0.0
C91 C 0.74036 0.99175 0.35071 0.0
C92 C 0.73812 0.02351 0.36321 0.0
C93 C 0.7232 0.0212 0.39933 0.0
C94 C 0.71618 0.00416 0.41 0.0
C95 C 0.80615 1.00179 0.23163 0.0
C96 C 0.80952 0.9848 0.20901 0.0
C97 C 0.81992 0.01441 0.23147 0.0
C98 C 0.83626 0.01061 0.20499 0.0
C99 C 0.83921 0.99409 0.17769 0.0
C100 C 0.82591 0.98095 0.18254 0.0
C101 C 0.72528 0.98941 0.38661 0.0
H102 H 0.74888 0.02151 0.99053 0.0
H103 H 0.76491 0.01094 0.0767 0.0
H104 H 0.74543 0.05518 0.17854 0.0
H105 H 0.72982 0.0663 0.09143 0.0
H106 H 0.78926 0.01965 0.14958 0.0
H107 H 0.7394 0.02625 0.23784 0.0
H108 H 0.78153 0.9973 0.32328 0.0
H109 H 0.74645 0.98024 0.33056 0.0
H110 H 0.74251 0.03688 0.35297 0.0
H111 H 0.71654 0.03289 0.41591 0.0
H112 H 0.799 0.97497 0.20737 0.0
H113 H 0.81748 0.02776 0.24721 0.0
H114 H 0.72041 0.97608 0.39446 0.0
H115 H 0.82779 0.96797 0.16305 0.0
H116 H 0.846 0.02117 0.20181 0.0
C117 C 0.49234 0.72839 0.37907 0.0
C118 C 0.50635 0.72347 0.41668 0.0
C119 C 0.4941 0.74299 0.34104 0.0
C120 C 0.50977 0.75315 0.34035 0.0
C121 C 0.52321 0.74913 0.38108 0.0
C122 C 0.52153 0.73442 0.41882 0.0
C123 C 0.51398 0.76419 0.28778 0.0
C124 C 0.51524 0.78288 0.28945 0.0
C125 C 0.5202 0.79228 0.23796 0.0
C126 C 0.52418 0.78292 0.18605 0.0
C127 C 0.52237 0.76443 0.18324 0.0
C128 C 0.51717 0.75525 0.23449 0.0
C129 C 0.5248 0.75476 0.1263 0.0
C130 C 0.5201 0.76265 0.07212 0.0
C131 C 0.53067 0.73708 0.12593 0.0
C132 C 0.53017 0.72708 0.07416 0.0
C133 C 0.5244 0.73463 0.02052 0.0
C134 C 0.52017 0.81191 0.23387 0.0
C135 C 0.50401 0.82082 0.22618 0.0
C136 C 0.53603 0.82084 0.22025 0.0
C137 C 0.5357 0.83778 0.19488 0.0
C138 C 0.51947 0.8461 0.18181 0.0
C139 C 0.50365 0.83777 0.20043 0.0
C140 C 0.52022 0.75282 0.01983 0.0
H141 H 0.48053 0.72022 0.37581 0.0
H142 H 0.48372 0.74558 0.3091 0.0
H143 H 0.53557 0.75652 0.38055 0.0
H144 H 0.53249 0.73114 0.44774 0.0
H145 H 0.51231 0.78997 0.3299 0.0
H146 H 0.51536 0.74099 0.23331 0.0
H147 H 0.52829 0.79028 0.14717 0.0
H148 H 0.51546 0.77621 0.07004 0.0
H149 H 0.53506 0.73066 0.16614 0.0
H150 H 0.53342 0.71315 0.07758 0.0
H151 H 0.49158 0.81405 0.235 0.0
H152 H 0.54865 0.81414 0.22495 0.0
H153 H 0.51631 0.75939 0.97938 0.0
H154 H 0.4909 0.84368 0.19085 0.0
H155 H 0.54816 0.84394 0.18239 0.0
C156 C 0.24706 0.48703 0.32233 0.0
C157 C 0.2353 0.47265 0.33008 0.0
C158 C 0.25625 0.48924 0.26941 0.0
C159 C 0.25372 0.47732 0.2226 0.0
C160 C 0.24261 0.46256 0.2306 0.0
C161 C 0.23365 0.4601 0.28419 0.0
C162 C 0.26193 0.48117 0.16474 0.0
C163 C 0.28004 0.48491 0.16162 0.0
C164 C 0.28776 0.49129 0.10944 0.0
C165 C 0.27706 0.49379 0.05873 0.0
C166 C 0.25867 0.48988 0.06141 0.0
C167 C 0.25137 0.4834 0.11444 0.0
C168 C 0.24614 0.49392 0.01244 0.0
C169 C 0.23372 0.50758 0.02014 0.0
C170 C 0.24396 0.48219 0.96469 0.0
C171 C 0.2291 0.48357 0.92728 0.0
C172 C 0.21605 0.49659 0.93736 0.0
C173 C 0.30673 0.49647 0.11321 0.0
C174 C 0.31119 0.51171 0.14576 0.0
C175 C 0.31993 0.4838 0.10236 0.0
C176 C 0.3369 0.48573 0.12719 0.0
C177 C 0.34095 0.50022 0.16439 0.0
C178 C 0.32805 0.51357 0.17107 0.0
C179 C 0.21893 0.50894 0.98305 0.0
H180 H 0.24842 0.49726 0.35561 0.0
H181 H 0.26464 0.50084 0.26396 0.0
H182 H 0.24062 0.45312 0.19508 0.0
H183 H 0.22495 0.44872 0.28882 0.0
H184 H 0.28814 0.48342 0.20099 0.0
H185 H 0.2372 0.48097 0.11742 0.0
H186 H 0.28278 0.49926 0.01872 0.0
H187 H 0.23497 0.51665 0.05705 0.0
H188 H 0.25314 0.47133 0.95855 0.0
H189 H 0.2273 0.47378 0.89276 0.0
H190 H 0.3011 0.52141 0.15625 0.0
H191 H 0.31671 0.47173 0.07862 0.0
H192 H 0.20937 0.51932 0.99158 0.0
H193 H 0.33038 0.52483 0.1997 0.0
H194 H 0.34654 0.47536 0.11966 0.0
C195 C 0.99708 0.25118 0.31225 0.0
C196 C 0.01017 0.23926 0.33173 0.0
C197 C 0.99899 0.26009 0.25856 0.0
C198 C 0.01387 0.25708 0.22276 0.0
C199 C 0.02726 0.2457 0.24271 0.0
C200 C 0.02553 0.23704 0.29704 0.0
C201 C 0.01494 0.26534 0.16373 0.0
C202 C 0.0128 0.28362 0.15778 0.0
C203 C 0.01252 0.29164 0.10195 0.0
C204 C 0.01405 0.281 0.05068 0.0
C205 C 0.01639 0.2624 0.05637 0.0
C206 C 0.017 0.25486 0.11322 0.0
C207 C 0.01752 0.25011 0.00486 0.0
C208 C 0.00316 0.24806 0.96582 0.0
C209 C 0.03157 0.23794 1.00165 0.0
C210 C 0.03088 0.22348 0.96286 0.0
C211 C 0.01604 0.22069 0.92623 0.0
C212 C 0.01052 0.31121 0.10121 0.0
C213 C 0.99381 0.31845 0.11385 0.0
C214 C 0.02566 0.32191 0.1086 0.0
C215 C 0.02424 0.33899 0.13288 0.0
C216 C 0.00765 0.34562 0.15082 0.0
C217 C 0.99238 0.33548 0.1382 0.0
C218 C 1.0024 0.23347 0.92706 0.0
H219 H 0.98491 0.25303 0.3369 0.0
H220 H 0.98845 0.26877 0.24376 0.0
H221 H 0.03896 0.2434 0.21599 0.0
H222 H 0.03607 0.22827 0.31113 0.0
H223 H 0.01135 0.29172 0.19714 0.0
H224 H 0.0183 0.2406 0.11815 0.0
H225 H 0.01355 0.28706 0.00728 0.0
H226 H 0.99203 0.25709 0.96785 0.0
H227 H 0.04273 0.23908 0.03162 0.0
H228 H 0.04157 0.21394 0.96424 0.0
H229 H 0.98198 0.31033 0.10995 0.0
H230 H 0.03873 0.31645 0.1009 0.0
H231 H 0.99087 0.23193 0.89899 0.0
H232 H 0.97936 0.34027 0.15053 0.0
H233 H 0.03629 0.34633 0.14219 0.0
C234 C 0.24494 0.03273 0.30008 0.0
C235 C 0.26093 0.04236 0.30143 0.0
C236 C 0.23597 0.03017 0.24679 0.0
C237 C 0.2427 0.03736 0.19384 0.0
C238 C 0.25781 0.04826 0.19611 0.0
C239 C 0.26686 0.05069 0.24922 0.0
C240 C 0.23485 0.03226 0.13615 0.0
C241 C 0.2165 0.03047 0.13027 0.0
C242 C 0.2089 0.02378 0.07832 0.0
C243 C 0.21997 0.01919 0.03016 0.0
C244 C 0.23858 0.02141 0.03507 0.0
C245 C 0.24577 0.02783 0.08818 0.0
C246 C 0.25131 0.01663 0.98743 0.0
C247 C 0.26255 1.00201 0.99562 0.0
C248 C 0.2553 0.02878 0.94215 0.0
C249 C 0.27078 0.02687 0.90794 0.0
C250 C 0.28268 0.01284 0.91872 0.0
C251 C 0.18943 0.02093 0.0797 0.0
C252 C 0.18278 0.00441 0.09844 0.0
C253 C 0.17836 0.03584 0.08339 0.0
C254 C 0.16171 0.03463 0.11064 0.0
C255 C 0.15577 0.01847 0.13498 0.0
C256 C 0.16606 1.00317 0.12562 0.0
C257 C 0.27797 1.00009 0.96158 0.0
H258 H 0.2399 0.02633 0.33958 0.0
H259 H 0.22436 0.02166 0.24665 0.0
H260 H 0.26311 0.05428 0.1563 0.0
H261 H 0.27922 0.05806 0.24818 0.0
H262 H 0.20796 0.03392 0.16713 0.0
H263 H 0.26006 0.02886 0.09258 0.0
H264 H 0.21425 0.01382 0.99004 0.0
H265 H 0.25996 0.99262 0.03093 0.0
H266 H 0.24711 0.04042 0.93595 0.0
H267 H 0.27397 0.03703 0.8757 0.0
H268 H 0.19123 0.99281 0.09763 0.0
H269 H 0.18331 0.0488 0.07046 0.0
H270 H 0.28658 0.98893 0.97052 0.0
H271 H 0.16195 0.99052 0.14396 0.0
H272 H 0.154 0.04662 0.11619 0.0
C273 C 0.48913 0.28008 0.9401 0.0
C274 C 0.50261 0.29301 0.94503 0.0
C275 C 0.48916 0.26493 0.97666 0.0
C276 C 0.50273 0.26243 0.01848 0.0
C277 C 0.51688 0.27464 0.0198 0.0
C278 C 0.51682 0.2897 0.98367 0.0
C279 C 0.50063 0.2496 0.06826 0.0
C280 C 0.49882 0.23103 0.0602 0.0
C281 C 0.49712 0.21979 0.11008 0.0
C282 C 0.49689 0.22716 0.16689 0.0
C283 C 0.49903 0.24535 0.17519 0.0
C284 C 0.50084 0.25648 0.12604 0.0
C285 C 0.50064 0.25255 0.23553 0.0
C286 C 0.48736 0.24941 0.27793 0.0
C287 C 0.51569 0.26246 0.25106 0.0
C288 C 0.51731 0.26949 0.30772 0.0
C289 C 0.50377 0.26695 0.34965 0.0
C290 C 0.49739 0.20016 0.10724 0.0
C291 C 0.48171 0.19067 0.11925 0.0
C292 C 0.51375 0.19157 0.11441 0.0
C293 C 0.51449 0.17449 0.13872 0.0
C294 C 0.49887 0.16559 0.15584 0.0
C295 C 0.48243 0.17346 0.14282 0.0
C296 C 0.48882 0.25676 0.33448 0.0
H297 H 0.47799 0.28222 0.91078 0.0
H298 H 0.47799 0.25586 0.97513 0.0
H299 H 0.52754 0.27305 0.05144 0.0
H300 H 0.52759 0.29918 0.98778 0.0
H301 H 0.4992 0.22542 0.01616 0.0
H302 H 0.50236 0.27065 0.13291 0.0
H303 H 0.49597 0.21852 0.20523 0.0
H304 H 0.47567 0.24171 0.26673 0.0
H305 H 0.52617 0.26485 0.21917 0.0
H306 H 0.52881 0.2776 0.31792 0.0
H307 H 0.46897 0.19719 0.11579 0.0
H308 H 0.52603 0.19876 0.10702 0.0
H309 H 0.47815 0.25478 0.36596 0.0
H310 H 0.47017 0.167 0.1558 0.0
H311 H 0.52735 0.1687 0.14777 0.0
Ho312 Ho 0.01012 1.00093 0.70545 0.0
Ho313 Ho 0.98469 0.01123 0.61278 0.0
C314 C 0.994 0.97055 0.61524 0.0
C315 C 0.02639 0.9852 0.79113 0.0
C316 C 0.03207 0.96672 0.79954 0.0
C317 C 0.02156 0.9527 0.77843 0.0
C318 C 0.02757 0.93529 0.78177 0.0
C319 C 0.04407 0.93141 0.80762 0.0
C320 C 0.05445 0.94548 0.82982 0.0
C321 C 0.04852 0.96302 0.82545 0.0
C322 C 0.02568 0.01199 0.6038 0.0
C323 C 1.00149 0.0415 0.70011 0.0
C324 C 0.96784 0.02797 0.53084 0.0
C325 C 0.96598 0.04724 0.52228 0.0
C326 C 0.9808 0.05842 0.52902 0.0
C327 C 0.97864 0.0767 0.53294 0.0
C328 C 0.96168 0.08417 0.53004 0.0
C329 C 0.94692 0.07322 0.51972 0.0
C330 C 0.94905 0.05479 0.51625 0.0
C331 C 0.96936 0.99968 0.71409 0.0
O332 O 1.00184 0.97426 0.66627 0.0
O333 O 0.98741 0.98325 0.58172 0.0
O334 O 0.03465 0.99388 0.74932 0.0
O335 O 0.00926 0.98786 0.79041 0.0
O336 O 0.03129 0.01608 0.65627 0.0
O337 O 0.01226 1.00199 0.60787 0.0
O338 O 0.99538 0.0377 0.64669 0.0
O339 O 0.006 0.02872 0.73683 0.0
O340 O 0.96012 0.0218 0.57831 0.0
O341 O 0.98376 0.02145 0.52341 0.0
O342 O 0.96383 0.99558 0.66157 0.0
O343 O 0.98255 0.01 0.71025 0.0
H344 H 0.00875 0.95518 0.75859 0.0
H345 H 0.01932 0.92491 0.76321 0.0
H346 H 0.06708 0.94298 0.85095 0.0
H347 H 0.05683 0.97368 0.84196 0.0
H348 H 0.99402 0.05303 0.53391 0.0
H349 H 0.99021 0.08504 0.53963 0.0
H350 H 0.93374 0.07884 0.51681 0.0
H351 H 0.93744 0.04639 0.51146 0.0
Ho352 Ho 0.50364 0.01527 0.71423 0.0
Ho353 Ho 0.49492 0.99126 0.61422 0.0
C354 C 0.53585 0.99961 0.63097 0.0
C355 C 0.51908 0.02907 0.80438 0.0
C356 C 0.53803 0.03383 0.81035 0.0
C357 C 0.54968 0.02189 0.8379 0.0
C358 C 0.56797 0.02409 0.83253 0.0
C359 C 0.57498 0.03843 0.80031 0.0
C360 C 0.56343 0.05104 0.77613 0.0
C361 C 0.54509 0.04874 0.78093 0.0
C362 C 0.49548 0.03248 0.61275 0.0
C363 C 0.46325 0.00741 0.69675 0.0
C364 C 0.48051 0.97783 0.52125 0.0
C365 C 0.46358 0.98279 0.49426 0.0
C366 C 0.45722 1.0001 0.50211 0.0
C367 C 0.4402 0.00453 0.48409 0.0
C368 C 0.42918 0.9918 0.45729 0.0
C369 C 0.43571 0.97454 0.44809 0.0
C370 C 0.45283 0.97005 0.46667 0.0
C371 C 0.50393 0.97427 0.7149 0.0
O372 O 0.53102 0.00777 0.68024 0.0
O373 O 0.52398 0.9927 0.59468 0.0
O374 O 0.50978 0.03846 0.76691 0.0
O375 O 0.51586 0.01205 0.79978 0.0
O376 O 0.49077 0.03784 0.66498 0.0
O377 O 0.50475 0.01866 0.61739 0.0
O378 O 0.46816 1.00283 0.64251 0.0
O379 O 0.47527 0.01064 0.73769 0.0
O380 O 0.47914 0.97054 0.57352 0.0
O381 O 0.49286 0.99006 0.51912 0.0
O382 O 0.50842 0.96889 0.66253 0.0
O383 O 0.49418 0.98776 0.71081 0.0
H384 H 0.54465 0.01034 0.86118 0.0
H385 H 0.57665 0.01441 0.85279 0.0
H386 H 0.56856 0.06227 0.75143 0.0
H387 H 0.53651 0.05823 0.75926 0.0
H388 H 0.46519 0.0101 0.52412 0.0
H389 H 0.43546 0.01779 0.49332 0.0
H390 H 0.42753 0.96449 0.42729 0.0
H391 H 0.45749 0.95658 0.46093 0.0
Ho392 Ho 0.48829 0.51332 0.73133 0.0
Ho393 Ho 0.5123 0.50253 0.6209 0.0
C394 C 0.50339 0.54404 0.64487 0.0
C395 C 0.47384 0.52293 0.82857 0.0
C396 C 0.46575 0.54027 0.84072 0.0
C397 C 0.47147 0.54999 0.88996 0.0
C398 C 0.46916 0.56836 0.89167 0.0
C399 C 0.46108 0.57725 0.84407 0.0
C400 C 0.45368 0.56722 0.79793 0.0
C401 C 0.45605 0.54889 0.79613 0.0
C402 C 0.47192 0.51093 0.62539 0.0
C403 C 0.49923 0.47195 0.71296 0.0
C404 C 0.52159 0.49021 0.51977 0.0
C405 C 0.51818 0.47236 0.49674 0.0
C406 C 0.50347 0.46287 0.51815 0.0
C407 C 0.5028 0.44449 0.51321 0.0
C408 C 0.51689 0.4353 0.48705 0.0
C409 C 0.53087 0.44486 0.46081 0.0
C410 C 0.53156 0.46335 0.46593 0.0
C411 C 0.53249 0.51132 0.71712 0.0
O412 O 0.49732 0.54005 0.69839 0.0
O413 O 0.50837 0.53187 0.60584 0.0
O414 O 0.46563 0.51276 0.79012 0.0
O415 O 0.491 0.52382 0.81945 0.0
O416 O 0.46786 0.5224 0.66577 0.0
O417 O 0.48387 0.50065 0.6443 0.0
O418 O 0.50557 0.47571 0.65964 0.0
O419 O 0.49321 0.48429 0.74961 0.0
O420 O 0.53207 0.49024 0.56587 0.0
O421 O 0.5077 0.50048 0.52661 0.0
O422 O 0.5391 0.50724 0.66597 0.0
O423 O 0.51597 0.51082 0.71154 0.0
H424 H 0.47917 0.54364 0.9244 0.0
H425 H 0.47511 0.5757 0.92774 0.0
H426 H 0.44711 0.57367 0.7612 0.0
H427 H 0.45155 0.54175 0.75738 0.0
H428 H 0.49322 0.46947 0.54316 0.0
H429 H 0.49181 0.43734 0.53312 0.0
H430 H 0.54188 0.43796 0.44048 0.0
H431 H 0.54316 0.47043 0.45006 0.0
Ho432 Ho 0.99773 0.4946 0.71535 0.0
Ho433 Ho 0.00798 0.51854 0.60465 0.0
C434 C 0.96764 0.50711 0.62006 0.0
C435 C 0.98473 0.48711 0.81726 0.0
C436 C 0.96761 0.49285 0.84074 0.0
C437 C 0.95976 0.50837 0.81854 0.0
C438 C 0.94197 0.51196 0.82976 0.0
C439 C 0.93172 0.50011 0.86354 0.0
C440 C 0.93992 0.48503 0.88819 0.0
C441 C 0.95773 0.48143 0.87675 0.0
C442 C 0.00452 0.47409 0.61862 0.0
C443 C 0.03896 0.50192 0.69357 0.0
C444 C 0.02369 0.53288 0.51566 0.0
C445 C 0.04245 0.53167 0.4987 0.0
C446 C 0.0515 0.51555 0.50602 0.0
C447 C 0.06993 0.51517 0.50446 0.0
C448 C 0.07961 0.53086 0.49603 0.0
C449 C 0.0707 0.54681 0.48491 0.0
C450 C 0.05214 0.54721 0.48638 0.0
C451 C 0.99478 0.53545 0.70053 0.0
O452 O 0.97151 0.5035 0.67611 0.0
O453 O 0.9801 0.51102 0.5806 0.0
O454 O 0.98347 0.4764 0.772 0.0
O455 O 0.99653 0.49967 0.80929 0.0
O456 O 1.0005 0.4677 0.67031 0.0
O457 O 0.00522 0.49067 0.62375 0.0
O458 O 0.03473 0.51009 0.64318 0.0
O459 O 0.02694 0.49524 0.73015 0.0
O460 O 0.02108 0.54121 0.56562 0.0
O461 O 0.01424 0.51826 0.51128 0.0
O462 O 0.99166 0.54032 0.64646 0.0
O463 O 0.00526 0.52247 0.70026 0.0
H464 H 0.9671 0.51724 0.78981 0.0
H465 H 0.93613 0.5237 0.81035 0.0
H466 H 0.93234 0.47542 0.91345 0.0
H467 H 0.9635 0.46923 0.8932 0.0
H468 H 0.04443 0.50342 0.51657 0.0
H469 H 0.0767 0.50273 0.51258 0.0
H470 H 0.07807 0.55901 0.47813 0.0
H471 H 0.0454 0.5598 0.48145 0.0
H472 H 0.12865 0.99379 0.1433 0.0
H473 H 0.1049 0.9925 0.21783 0.0
H474 H 0.12476 0.0407 0.29663 0.0
H475 H 0.14837 0.04207 0.22285 0.0
H476 H 0.11905 0.01349 0.37853 0.0
H477 H 0.0878 0.04199 0.21793 0.0
H478 H 0.07648 0.04425 0.11596 0.0
H479 H 0.04684 0.99598 0.13955 0.0
H480 H 0.05819 0.9933 0.24147 0.0
H481 H 0.05341 0.0346 0.58601 0.0
H482 H 0.07367 0.03574 0.50161 0.0
H483 H 0.0442 0.99362 0.41706 0.0
H484 H 0.02341 0.99303 0.50057 0.0
H485 H 0.05454 0.01563 0.33593 0.0
H486 H 0.08448 0.98633 0.49335 0.0
H487 H 0.09594 0.9821 0.59445 0.0
H488 H 0.12846 0.02869 0.57618 0.0
H489 H 0.11701 0.03335 0.47521 0.0
C490 C 0.12785 0.00418 0.17622 0.0
C491 C 0.14035 0.01812 0.17664 0.0
C492 C 0.11424 0.00346 0.21868 0.0
C493 C 0.113 0.01654 0.26282 0.0
C494 C 0.12539 0.03048 0.26303 0.0
C495 C 0.13881 0.03133 0.22035 0.0
C496 C 0.09928 0.0155 0.31034 0.0
C497 C 0.10494 0.01416 0.36927 0.0
C498 C 0.08085 0.0157 0.29825 0.0
C499 C 0.074 0.01734 0.23708 0.0
C500 C 0.079 0.03177 0.2012 0.0
C501 C 0.07255 0.03315 0.14345 0.0
C502 C 0.06099 0.02024 0.12123 0.0
C503 C 0.05582 0.00595 0.15678 0.0
C504 C 0.06224 0.0045 0.21455 0.0
C505 C 0.05116 0.02571 0.54915 0.0
C506 C 0.03692 0.01363 0.55016 0.0
C507 C 0.06283 0.02626 0.501 0.0
C508 C 0.06084 0.01443 0.4533 0.0
C509 C 0.04617 1.00282 0.45326 0.0
C510 C 0.03429 1.00247 0.50109 0.0
C511 C 0.0743 0.01394 0.40455 0.0
C512 C 0.06862 0.0149 0.34539 0.0
C513 C 0.09277 0.01306 0.41629 0.0
C514 C 0.09977 0.01027 0.4769 0.0
C515 C 0.09399 0.99574 0.51103 0.0
C516 C 0.10049 0.99326 0.56829 0.0
C517 C 0.11289 0.00514 0.59177 0.0
C518 C 0.11884 0.01951 0.55796 0.0
C519 C 0.11237 0.02207 0.50069 0.0
H520 H 0.11791 1.0032 0.63611 0.0
H521 H 0.05601 0.02133 0.07651 0.0
H522 H 0.51868 0.16126 0.25521 0.0
H523 H 0.51842 0.13648 0.32447 0.0
H524 H 0.48084 0.10875 0.21373 0.0
H525 H 0.48048 0.1341 0.1455 0.0
H526 H 0.47083 0.10412 0.31777 0.0
H527 H 0.52707 0.09662 0.22848 0.0
H528 H 0.5568 0.1048 0.19177 0.0
H529 H 0.57323 0.11777 0.36828 0.0
H530 H 0.54351 0.10991 0.40598 0.0
H531 H 0.51237 0.02712 0.50707 0.0
H532 H 0.51344 0.04716 0.42156 0.0
H533 H 0.47939 0.08395 0.51297 0.0
H534 H 0.47826 0.06397 0.59829 0.0
H535 H 0.52575 0.08017 0.40794 0.0
H536 H 0.45161 0.10338 0.41535 0.0
H537 H 0.42249 0.09015 0.43995 0.0
H538 H 0.4431 0.03816 0.40401 0.0
H539 H 0.47193 0.05104 0.37817 0.0
C540 C 0.51058 0.14975 0.24506 0.0
C541 C 0.49976 0.14956 0.19442 0.0
C542 C 0.51047 0.13551 0.28475 0.0
C543 C 0.49988 0.12043 0.2742 0.0
C544 C 0.48917 0.12014 0.22317 0.0
C545 C 0.48902 0.1346 0.18396 0.0
C546 C 0.49942 0.10544 0.31785 0.0
C547 C 0.48289 0.09894 0.33721 0.0
C548 C 0.51509 0.09805 0.3424 0.0
C549 C 0.533 0.10281 0.31998 0.0
C550 C 0.53698 0.10134 0.25942 0.0
C551 C 0.55384 0.1059 0.23844 0.0
C552 C 0.56689 0.11184 0.27765 0.0
C553 C 0.56311 0.11319 0.33795 0.0
C554 C 0.54626 0.10866 0.35917 0.0
C555 C 0.50501 0.03943 0.5087 0.0
C556 C 0.49521 0.04397 0.55942 0.0
C557 C 0.50573 0.05093 0.45993 0.0
C558 C 0.49648 0.0671 0.46056 0.0
C559 C 0.48652 0.07151 0.51103 0.0
C560 C 0.48589 0.06008 0.55986 0.0
C561 C 0.49722 0.07946 0.40887 0.0
C562 C 0.51376 0.08542 0.38818 0.0
C563 C 0.48164 0.08581 0.38128 0.0
C564 C 0.464 0.07817 0.39553 0.0
C565 C 0.44983 0.08913 0.41243 0.0
C566 C 0.43334 0.08168 0.4266 0.0
C567 C 0.43087 0.0633 0.42379 0.0
C568 C 0.44487 0.05237 0.40646 0.0
C569 C 0.4613 0.05974 0.39205 0.0
H570 H 0.41812 0.05754 0.43493 0.0
H571 H 0.57993 0.11536 0.26131 0.0
H572 H 0.36081 0.52923 0.20044 0.0
H573 H 0.38521 0.52981 0.27097 0.0
H574 H 0.38404 0.47266 0.2808 0.0
H575 H 0.35881 0.47201 0.21374 0.0
H576 H 0.3866 0.48425 0.38552 0.0
H577 H 0.41858 0.49795 0.20934 0.0
H578 H 0.42561 0.51375 0.11668 0.0
H579 H 0.43235 0.56241 0.21288 0.0
H580 H 0.42513 0.54695 0.30607 0.0
H581 H 0.46501 0.48057 0.56233 0.0
H582 H 0.44583 0.47752 0.47504 0.0
H583 H 0.43618 0.5339 0.47731 0.0
H584 H 0.45544 0.53694 0.56396 0.0
H585 H 0.44095 0.52094 0.36278 0.0
H586 H 0.40668 0.50655 0.53763 0.0
H587 H 0.40045 0.48996 0.62941 0.0
H588 H 0.39921 0.4411 0.53187 0.0
H589 H 0.40568 0.4574 0.43958 0.0
C590 C 0.36567 0.51673 0.21752 0.0
C591 C 0.3576 0.50057 0.20098 0.0
C592 C 0.37989 0.51708 0.25748 0.0
C593 C 0.38676 0.50126 0.28117 0.0
C594 C 0.3791 0.48509 0.26339 0.0
C595 C 0.36473 0.48473 0.22409 0.0
C596 C 0.40115 0.50161 0.32697 0.0
C597 C 0.39862 0.49201 0.37972 0.0
C598 C 0.41682 0.51196 0.3206 0.0
C599 C 0.42116 0.52131 0.26465 0.0
C600 C 0.42143 0.51205 0.21069 0.0
C601 C 0.42547 0.52094 0.15808 0.0
C602 C 0.42938 0.53908 0.15887 0.0
C603 C 0.4293 0.54836 0.21232 0.0
C604 C 0.42525 0.53954 0.26507 0.0
C605 C 0.4592 0.49234 0.54308 0.0
C606 C 0.46189 0.50901 0.5694 0.0
C607 C 0.44807 0.49058 0.49365 0.0
C608 C 0.43945 0.50548 0.46965 0.0
C609 C 0.44268 0.52222 0.49478 0.0
C610 C 0.45363 0.52393 0.54443 0.0
C611 C 0.42627 0.50363 0.42072 0.0
C612 C 0.429 0.51301 0.36777 0.0
C613 C 0.41088 0.49294 0.42651 0.0
C614 C 0.40686 0.48316 0.48186 0.0
C615 C 0.40521 0.49225 0.53585 0.0
C616 C 0.40162 0.48291 0.58793 0.0
C617 C 0.39949 0.46448 0.5865 0.0
C618 C 0.4009 0.45537 0.53293 0.0
C619 C 0.40452 0.46465 0.48072 0.0
H620 H 0.39671 0.45727 0.62688 0.0
H621 H 0.43251 0.54594 0.11809 0.0
H622 H 0.02566 0.37748 0.1401 0.0
H623 H 0.02529 0.40269 0.20865 0.0
H624 H 0.98729 0.3751 0.31825 0.0
H625 H 0.98736 0.35019 0.24975 0.0
H626 H 0.97861 0.40817 0.31542 0.0
H627 H 0.03368 0.37703 0.34808 0.0
H628 H 0.06262 0.36449 0.3196 0.0
H629 H 0.08092 0.41623 0.26745 0.0
H630 H 0.05198 0.42904 0.29494 0.0
H631 H 0.99381 0.44014 0.60373 0.0
H632 H 0.99458 0.42217 0.51396 0.0
H633 H 0.01925 0.46543 0.41957 0.0
H634 H 0.01814 0.48374 0.50983 0.0
H635 H 0.03517 0.42892 0.40427 0.0
H636 H 0.98033 0.46018 0.38682 0.0
H637 H 0.9517 0.47168 0.42264 0.0
H638 H 0.93311 0.41847 0.45202 0.0
H639 H 0.96177 0.40664 0.41747 0.0
C640 C 0.01714 0.37686 0.17862 0.0
C641 C 0.00649 0.36178 0.18912 0.0
C642 C 0.01698 0.39127 0.21799 0.0
C643 C 0.00644 0.3908 0.26941 0.0
C644 C 0.99549 0.37593 0.279 0.0
C645 C 0.99551 0.36166 0.23948 0.0
C646 C 0.00706 0.40537 0.31446 0.0
C647 C 0.99101 0.41262 0.33482 0.0
C648 C 0.02321 0.41163 0.33928 0.0
C649 C 0.0406 0.40395 0.32285 0.0
C650 C 0.04383 0.38571 0.33011 0.0
C651 C 0.06024 0.37856 0.31422 0.0
C652 C 0.07358 0.38955 0.29154 0.0
C653 C 0.07056 0.40773 0.28488 0.0
C654 C 0.05416 0.41494 0.30062 0.0
C655 C 0.99944 0.44586 0.56395 0.0
C656 C 0.00585 0.46341 0.56375 0.0
C657 C 0.99984 0.43557 0.51262 0.0
C658 C 0.00688 0.44247 0.45996 0.0
C659 C 0.01372 0.45986 0.45974 0.0
C660 C 0.01303 0.47033 0.51115 0.0
C661 C 0.00675 0.43132 0.40559 0.0
C662 C 0.02284 0.42468 0.38383 0.0
C663 C 0.99065 0.42548 0.37991 0.0
C664 C 0.97327 0.43252 0.39994 0.0
C665 C 0.9702 0.45092 0.40137 0.0
C666 C 0.95395 0.45751 0.42139 0.0
C667 C 0.9406 0.44582 0.43967 0.0
C668 C 0.94346 0.42751 0.43786 0.0
C669 C 0.95971 0.42086 0.41801 0.0
H670 H 0.92804 0.45094 0.45516 0.0
H671 H 0.08628 0.38399 0.27927 0.0
H672 H 0.87354 0.00605 0.19422 0.0
H673 H 0.89813 0.00515 0.12359 0.0
H674 H 0.86557 0.97552 1.00179 0.0
H675 H 0.84087 0.9766 0.07139 0.0
H676 H 0.89946 0.96301 0.00294 0.0
H677 H 0.87075 0.01997 0.98663 0.0
H678 H 0.85953 0.04851 0.02424 0.0
H679 H 0.91211 0.06318 0.07897 0.0
H680 H 0.9236 0.03458 0.04241 0.0
H681 H 0.93889 0.98047 0.72493 0.0
H682 H 0.9197 0.97764 0.8115 0.0
H683 H 0.95606 0.00986 0.91265 0.0
H684 H 0.97526 0.01294 0.82539 0.0
H685 H 0.9228 0.02064 0.92977 0.0
H686 H 0.95215 0.96487 0.93727 0.0
H687 H 0.9634 0.93644 0.89895 0.0
H688 H 0.91017 0.91944 0.86115 0.0
H689 H 0.8986 0.94789 0.89842 0.0
C690 C 0.87159 0.99926 0.15253 0.0
C691 C 0.85508 0.99148 0.13869 0.0
C692 C 0.88571 0.99874 0.11216 0.0
C693 C 0.88367 0.99047 0.05689 0.0
C694 C 0.86752 0.98196 0.0441 0.0
C695 C 0.85339 0.98251 0.08431 0.0
C696 C 0.89793 0.99142 0.01109 0.0
C697 C 0.90448 0.97561 0.98666 0.0
C698 C 0.90486 0.00784 0.99073 0.0
C699 C 0.89799 0.02506 0.01243 0.0
C700 C 0.87989 0.02922 0.00711 0.0
C701 C 0.87349 0.04542 0.02817 0.0
C702 C 0.88509 0.05763 0.05414 0.0
C703 C 0.90314 0.05369 0.05895 0.0
C704 C 0.9096 0.03749 0.03806 0.0
C705 C 0.9429 0.98682 0.76574 0.0
C706 C 0.95859 0.99694 0.7683 0.0
C707 C 0.93194 0.98513 0.81541 0.0
C708 C 0.93646 0.99338 0.86906 0.0
C709 C 0.95227 0.00334 0.87191 0.0
C710 C 0.96327 0.00503 0.82209 0.0
C711 C 0.92424 0.99222 0.92101 0.0
C712 C 0.918 0.00801 0.94651 0.0
C713 C 0.91763 0.97578 0.94239 0.0
C714 C 0.92452 0.95859 0.92025 0.0
C715 C 0.94284 0.95513 0.9204 0.0
C716 C 0.94928 0.93899 0.89892 0.0
C717 C 0.93751 0.92615 0.87753 0.0
C718 C 0.91928 0.9294 0.8777 0.0
C719 C 0.91277 0.94553 0.89907 0.0
H720 H 0.94252 0.91367 0.86091 0.0
H721 H 0.88011 0.07016 0.0704 0.0
H722 H 0.49763 0.87536 0.18937 0.0
H723 H 0.49536 0.90009 0.11927 0.0
H724 H 0.53756 0.87757 0.01501 0.0
H725 H 0.53991 0.85299 0.08444 0.0
H726 H 0.54151 0.91239 0.01931 0.0
H727 H 0.49306 0.87212 0.97885 0.0
H728 H 0.46624 0.85472 0.00305 0.0
H729 H 0.43876 0.90254 0.04951 0.0
H730 H 0.46551 0.92021 0.02631 0.0
H731 H 0.52573 0.94597 0.73089 0.0
H732 H 0.52877 0.92743 0.81925 0.0
H733 H 0.49037 0.95977 0.91013 0.0
H734 H 0.48742 0.97852 0.82181 0.0
H735 H 0.48375 0.92313 0.92079 0.0
H736 H 0.53174 0.96362 0.94872 0.0
H737 H 0.55841 0.98052 0.91952 0.0
H738 H 0.58685 0.93189 0.8932 0.0
H739 H 0.56023 0.91467 0.92118 0.0
C740 C 0.50648 0.87573 0.15167 0.0
C741 C 0.51898 0.86214 0.14284 0.0
C742 C 0.50517 0.88988 0.11154 0.0
C743 C 0.51616 0.89064 0.06128 0.0
C744 C 0.52897 0.87739 0.05343 0.0
C745 C 0.53035 0.86332 0.09353 0.0
C746 C 0.51397 0.90473 0.01537 0.0
C747 C 0.5289 0.91464 0.9976 0.0
C748 C 0.49743 0.90805 0.98769 0.0
C749 C 0.48134 0.89746 1.00155 0.0
C750 C 0.48134 0.87891 0.99468 0.0
C751 C 0.46614 0.869 0.00814 0.0
C752 C 0.45082 0.87751 0.02799 0.0
C753 C 0.45065 0.89596 0.03426 0.0
C754 C 0.46582 0.90593 0.02095 0.0
C755 C 0.51803 0.9492 0.76984 0.0
C756 C 0.50633 0.96367 0.76946 0.0
C757 C 0.5198 0.93862 0.82035 0.0
C758 C 0.50984 0.94223 0.87145 0.0
C759 C 0.49818 0.95673 0.87125 0.0
C760 C 0.49656 0.96747 0.82088 0.0
C761 C 0.51134 0.93051 0.92425 0.0
C762 C 0.4963 0.92104 0.94314 0.0
C763 C 0.52779 0.92753 0.95269 0.0
C764 C 0.54392 0.93784 0.93663 0.0
C765 C 0.54363 0.95651 0.93628 0.0
C766 C 0.55875 0.96616 0.91999 0.0
C767 C 0.5743 0.95728 0.90442 0.0
C768 C 0.57478 0.93874 0.90524 0.0
C769 C 0.55969 0.92903 0.92136 0.0
H770 H 0.58599 0.96477 0.8918 0.0
H771 H 0.43907 0.86982 0.03837 0.0
H772 H 0.62698 0.51219 0.20123 0.0
H773 H 0.60211 0.51337 0.13166 0.0
H774 H 0.63704 0.53411 0.99702 0.0
H775 H 0.66181 0.53312 0.0662 0.0
H776 H 0.60645 0.55025 0.98928 0.0
H777 H 0.62465 0.48915 0.00547 0.0
H778 H 0.63104 0.46117 0.05779 0.0
H779 H 0.57717 0.45865 0.11926 0.0
H780 H 0.57053 0.48677 0.0679 0.0
H781 H 0.56659 0.52251 0.72134 0.0
H782 H 0.5853 0.52691 0.80839 0.0
H783 H 0.54135 0.5128 0.92142 0.0
H784 H 0.52247 0.50845 0.83373 0.0
H785 H 0.57298 0.49474 0.94896 0.0
H786 H 0.55433 0.55448 0.91979 0.0
H787 H 0.5486 0.58186 0.86332 0.0
H788 H 0.60405 0.5864 0.82207 0.0
H789 H 0.61008 0.55888 0.87756 0.0
C790 C 0.62934 0.51712 0.15692 0.0
C791 C 0.64647 0.52256 0.13953 0.0
C792 C 0.61509 0.51774 0.11704 0.0
C793 C 0.61767 0.52357 0.05851 0.0
C794 C 0.63461 0.52959 0.04179 0.0
C795 C 0.6488 0.52909 0.08167 0.0
C796 C 0.60304 0.52281 0.01381 0.0
C797 C 0.59923 0.53807 0.98034 0.0
C798 C 0.5932 0.50707 0.00271 0.0
C799 C 0.59716 0.49016 0.03347 0.0
C800 C 0.61421 0.4827 0.03052 0.0
C801 C 0.61787 0.4668 0.05994 0.0
C802 C 0.60453 0.45816 0.09199 0.0
C803 C 0.5875 0.46538 0.09453 0.0
C804 C 0.58378 0.48129 0.06527 0.0
C805 C 0.56083 0.52059 0.76478 0.0
C806 C 0.543 0.51537 0.77081 0.0
C807 C 0.57153 0.52314 0.81455 0.0
C808 C 0.56473 0.52034 0.87162 0.0
C809 C 0.54687 0.51516 0.87789 0.0
C810 C 0.53604 0.51285 0.82787 0.0
C811 C 0.57666 0.52207 0.92397 0.0
C812 C 0.58001 0.50699 0.95865 0.0
C813 C 0.58618 0.53792 0.93579 0.0
C814 C 0.58263 0.55453 0.90253 0.0
C815 C 0.56529 0.56123 0.8983 0.0
C816 C 0.56199 0.5768 0.86653 0.0
C817 C 0.57595 0.58585 0.83904 0.0
C818 C 0.59324 0.57937 0.84337 0.0
C819 C 0.59661 0.5638 0.87505 0.0
H820 H 0.57337 0.5979 0.81448 0.0
H821 H 0.60739 0.44586 0.11472 0.0
H822 H 0.99558 0.63396 0.16959 0.0
H823 H 0.99426 0.60925 0.09974 0.0
H824 H 0.96566 0.64195 0.97618 0.0
H825 H 0.96737 0.66691 0.04478 0.0
H826 H 0.95296 0.60627 0.98074 0.0
H827 H 0.00842 0.63815 0.95896 0.0
H828 H 0.03645 0.65116 0.99508 0.0
H829 H 0.05371 0.59978 0.05315 0.0
H830 H 0.02564 0.5865 0.01817 0.0
H831 H 0.97168 0.56315 0.70769 0.0
H832 H 0.96682 0.58305 0.79154 0.0
H833 H 0.00339 0.55236 0.89638 0.0
H834 H 0.00869 0.5328 0.81192 0.0
H835 H 0.01131 0.58572 0.90637 0.0
H836 H 0.95696 0.55344 0.93514 0.0
H837 H 0.92853 0.53939 0.9077 0.0
H838 H 0.90969 0.58906 0.83977 0.0
H839 H 0.93781 0.60357 0.86873 0.0
C840 C 0.98893 0.63594 0.12772 0.0
C841 C 0.98177 0.65262 0.11291 0.0
C842 C 0.98811 0.62173 0.08789 0.0
C843 C 0.98004 0.62378 0.03236 0.0
C844 C 0.97193 0.64002 0.01877 0.0
C845 C 0.97286 0.6543 0.05839 0.0
C846 C 0.98129 0.60954 0.98679 0.0
C847 C 0.9657 0.60187 0.96409 0.0
C848 C 0.99791 0.60343 0.96602 0.0
C849 C 0.01486 0.61137 0.98653 0.0
C850 C 0.01813 0.62965 0.97985 0.0
C851 C 0.03403 0.63707 1.00006 0.0
C852 C 0.04683 0.62631 0.02655 0.0
C853 C 0.04377 0.6081 0.03272 0.0
C854 C 0.02787 0.60062 0.01269 0.0
C855 C 0.97852 0.56053 0.74887 0.0
C856 C 0.99052 0.54636 0.75323 0.0
C857 C 0.97561 0.57184 0.79706 0.0
C858 C 0.98458 0.56918 0.85086 0.0
C859 C 0.99625 0.55472 0.8556 0.0
C860 C 0.99918 0.54344 0.80736 0.0
C861 C 0.98297 0.5823 0.90013 0.0
C862 C 0.99853 0.58991 0.92331 0.0
C863 C 0.96634 0.58816 0.9218 0.0
C864 C 0.94952 0.57953 0.90358 0.0
C865 C 0.94678 0.56134 0.91408 0.0
C866 C 0.93071 0.55331 0.89844 0.0
C867 C 0.9174 0.56326 0.87133 0.0
C868 C 0.92003 0.58135 0.8606 0.0
C869 C 0.93597 0.58952 0.87708 0.0
H870 H 0.90501 0.55697 0.85896 0.0
H871 H 0.05913 0.63208 0.04216 0.0
H872 H 0.99271 0.24771 0.43528 0.0
H873 H 0.98231 0.22693 0.51124 0.0
H874 H 0.00982 0.18435 0.42342 0.0
H875 H 0.01951 0.20454 0.34661 0.0
H876 H 0.96051 0.19918 0.48596 0.0
H877 H 0.02363 0.15435 0.51806 0.0
H878 H 0.05549 0.15852 0.53798 0.0
H879 H 0.0453 0.21043 0.60796 0.0
H880 H 0.01333 0.20652 0.58923 0.0
H881 H 0.94968 0.10859 0.45142 0.0
H882 H 0.95358 0.14076 0.45824 0.0
H883 H 0.97345 0.13507 0.63594 0.0
H884 H 0.97022 0.10279 0.62828 0.0
H885 H 0.9963 0.15137 0.57704 0.0
H886 H 0.93582 0.16047 0.60486 0.0
H887 H 0.90352 0.15725 0.59236 0.0
H888 H 0.9074 0.17806 0.41607 0.0
H889 H 0.93976 0.1812 0.42714 0.0
C890 C 0.99669 0.23394 0.43245 0.0
C891 C 0.00681 0.22781 0.38422 0.0
C892 C 0.99086 0.22216 0.47623 0.0
C893 C 0.99539 0.20416 0.47315 0.0
C894 C 0.00645 0.19827 0.42735 0.0
C895 C 0.01204 0.20992 0.38331 0.0
C896 C 0.98669 0.1908 0.51137 0.0
C897 C 0.96822 0.18881 0.50691 0.0
C898 C 0.99672 0.17773 0.54091 0.0
C899 C 0.01601 0.18013 0.55217 0.0
C900 C 0.02813 0.16661 0.53812 0.0
C901 C 0.04624 0.16894 0.54908 0.0
C902 C 0.05242 0.18473 0.5742 0.0
C903 C 0.0405 0.19822 0.5884 0.0
C904 C 0.02238 0.19597 0.5775 0.0
C905 C 0.95431 0.11432 0.49254 0.0
C906 C 0.9598 0.10339 0.53912 0.0
C907 C 0.95644 0.1327 0.49672 0.0
C908 C 0.96378 0.14035 0.54794 0.0
C909 C 0.96781 0.12943 0.59626 0.0
C910 C 0.96596 0.11107 0.59179 0.0
C911 C 0.9703 0.15893 0.54638 0.0
C912 C 0.98838 0.1619 0.55791 0.0
C913 C 0.95982 0.17298 0.52428 0.0
C914 C 0.94029 0.17113 0.51703 0.0
C915 C 0.92982 0.16433 0.56336 0.0
C916 C 0.91148 0.1625 0.5565 0.0
C917 C 0.9034 0.16747 0.50348 0.0
C918 C 0.91366 0.17427 0.4572 0.0
C919 C 0.93202 0.17612 0.46382 0.0
H920 H 0.8892 0.16604 0.49824 0.0
H921 H 0.06645 0.1865 0.58265 0.0
H922 H 0.26698 0.01329 0.37079 0.0
H923 H 0.29391 0.00766 0.4263 0.0
H924 H 0.31035 0.06198 0.40109 0.0
H925 H 0.28296 0.06804 0.34725 0.0
H926 H 0.32808 0.03482 0.33262 0.0
H927 H 0.3117 0.04834 0.53017 0.0
H928 H 0.29494 0.04735 0.6236 0.0
H929 H 0.30732 0.99213 0.6438 0.0
H930 H 0.32379 0.9926 0.5497 0.0
H931 H 0.41737 0.02264 0.40857 0.0
H932 H 0.38693 0.03259 0.39934 0.0
H933 H 0.36834 0.98126 0.45749 0.0
H934 H 0.39906 0.97172 0.4724 0.0
H935 H 0.35187 0.0082 0.51651 0.0
H936 H 0.36438 0.99317 0.31565 0.0
H937 H 0.38109 0.99307 0.22193 0.0
H938 H 0.37509 0.04955 0.20759 0.0
H939 H 0.35856 0.05003 0.30173 0.0
C940 C 0.27573 0.02438 0.37989 0.0
C941 C 0.2731 0.041 0.35279 0.0
C942 C 0.29118 0.02109 0.41188 0.0
C943 C 0.30418 0.03432 0.41679 0.0
C944 C 0.30043 0.05159 0.39742 0.0
C945 C 0.28487 0.05497 0.36606 0.0
C946 C 0.3228 0.02889 0.42424 0.0
C947 C 0.33342 0.02936 0.37329 0.0
C948 C 0.3293 0.02097 0.47651 0.0
C949 C 0.31879 0.02046 0.53211 0.0
C950 C 0.31059 0.03588 0.55383 0.0
C951 C 0.30119 0.03543 0.60713 0.0
C952 C 0.29998 0.01967 0.63945 0.0
C953 C 0.30819 0.00431 0.61857 0.0
C954 C 0.31755 0.00466 0.5652 0.0
C955 C 0.40687 0.01352 0.42013 0.0
C956 C 0.41068 0.99655 0.44238 0.0
C957 C 0.38944 0.01915 0.41415 0.0
C958 C 0.37541 0.0077 0.42847 0.0
C959 C 0.37906 0.99039 0.44763 0.0
C960 C 0.39659 0.98486 0.45496 0.0
C961 C 0.35699 0.01414 0.42491 0.0
C962 C 0.34646 0.01375 0.47614 0.0
C963 C 0.35033 0.02187 0.37263 0.0
C964 C 0.36037 0.02165 0.31609 0.0
C965 C 0.36676 0.00559 0.29281 0.0
C966 C 0.37618 0.00546 0.23955 0.0
C967 C 0.37919 0.0213 0.2089 0.0
C968 C 0.37277 0.0373 0.23142 0.0
C969 C 0.36336 0.0375 0.28471 0.0
H970 H 0.38646 0.02117 0.16763 0.0
H971 H 0.29275 0.01937 0.68078 0.0
H972 H 0.53087 0.26875 0.42961 0.0
H973 H 0.53552 0.29264 0.50117 0.0
H974 H 0.48322 0.31276 0.46235 0.0
H975 H 0.4784 0.28864 0.39323 0.0
H976 H 0.53962 0.32267 0.46112 0.0
H977 H 0.46813 0.34248 0.54825 0.0
H978 H 0.44445 0.32897 0.60875 0.0
H979 H 0.48148 0.29123 0.67863 0.0
H980 H 0.50544 0.3046 0.619 0.0
H981 H 0.52132 0.41042 0.40083 0.0
H982 H 0.52224 0.37815 0.41372 0.0
H983 H 0.51649 0.38459 0.6025 0.0
H984 H 0.51522 0.4168 0.58921 0.0
H985 H 0.49577 0.3594 0.56859 0.0
H986 H 0.55627 0.37108 0.54515 0.0
H987 H 0.58347 0.38441 0.50352 0.0
H988 H 0.57421 0.35759 0.33895 0.0
H989 H 0.54681 0.34431 0.37924 0.0
C990 C 0.52011 0.27785 0.43865 0.0
C991 C 0.5044 0.27711 0.40538 0.0
C992 C 0.52276 0.29149 0.4795 0.0
C993 C 0.50986 0.30473 0.48671 0.0
C994 C 0.49334 0.30267 0.45857 0.0
C995 C 0.4906 0.28889 0.41852 0.0
C996 C 0.51492 0.32249 0.50966 0.0
C997 C 0.53019 0.33055 0.48589 0.0
C998 C 0.50313 0.33279 0.54398 0.0
C999 C 0.48859 0.32449 0.57878 0.0
C1000 C 0.47126 0.33133 0.57663 0.0
C1001 C 0.45777 0.32368 0.61073 0.0
C1002 C 0.46145 0.30923 0.64741 0.0
C1003 C 0.47863 0.30238 0.64999 0.0
C1004 C 0.49215 0.30994 0.61586 0.0
C1005 C 0.52033 0.40487 0.4449 0.0
C1006 C 0.51795 0.41592 0.49398 0.0
C1007 C 0.52096 0.3865 0.45241 0.0
C1008 C 0.51963 0.37898 0.50922 0.0
C1009 C 0.51748 0.39008 0.55834 0.0
C1010 C 0.51667 0.40842 0.55072 0.0
C1011 C 0.5197 0.35947 0.51645 0.0
C1012 C 0.50541 0.35128 0.54563 0.0
C1013 C 0.53291 0.34888 0.48992 0.0
C1014 C 0.54944 0.35674 0.46524 0.0
C1015 C 0.55998 0.36811 0.49996 0.0
C1016 C 0.57544 0.37565 0.47661 0.0
C1017 C 0.58056 0.37186 0.41862 0.0
C1018 C 0.57023 0.3605 0.38388 0.0
C1019 C 0.55475 0.35293 0.40701 0.0
H1020 H 0.59253 0.37772 0.40061 0.0
H1021 H 0.451 0.30336 0.67388 0.0
H1022 H 0.20055 0.46199 0.3322 0.0
H1023 H 0.17847 0.47037 0.40451 0.0
H1024 H 0.21921 0.4927 0.51578 0.0
H1025 H 0.24181 0.48341 0.44477 0.0
H1026 H 0.17001 0.4705 0.53053 0.0
H1027 H 0.20519 0.53561 0.53047 0.0
H1028 H 0.23003 0.55108 0.48072 0.0
H1029 H 0.21718 0.52485 0.31766 0.0
H1030 H 0.19213 0.50951 0.3663 0.0
H1031 H 0.09764 0.52712 0.59808 0.0
H1032 H 0.1289 0.51869 0.60824 0.0
H1033 H 0.13583 0.5245 0.41986 0.0
H1034 H 0.10457 0.53282 0.40987 0.0
H1035 H 0.1657 0.53467 0.48257 0.0
H1036 H 0.12133 0.48617 0.48306 0.0
H1037 H 0.09647 0.46942 0.52736 0.0
H1038 H 0.12715 0.46089 0.68474 0.0
H1039 H 0.15203 0.47781 0.64173 0.0
C1040 C 0.20509 0.46777 0.37329 0.0
C1041 C 0.22299 0.47251 0.38157 0.0
C1042 C 0.19235 0.47257 0.41483 0.0
C1043 C 0.19721 0.48243 0.4648 0.0
C1044 C 0.21522 0.4852 0.47712 0.0
C1045 C 0.22807 0.4801 0.43598 0.0
C1046 C 0.18342 0.49322 0.4937 0.0
C1047 C 0.16924 0.48465 0.52198 0.0
C1048 C 0.18246 0.51166 0.48231 0.0
C1049 C 0.19697 0.52134 0.45208 0.0
C1050 C 0.20764 0.53325 0.48393 0.0
C1051 C 0.22174 0.54199 0.45595 0.0
C1052 C 0.22521 0.53892 0.39611 0.0
C1053 C 0.2145 0.52721 0.364 0.0
C1054 C 0.20034 0.51852 0.39171 0.0
C1055 C 0.10608 0.527 0.55932 0.0
C1056 C 0.09892 0.53036 0.50319 0.0
C1057 C 0.12385 0.52226 0.56517 0.0
C1058 C 0.13458 0.52076 0.51482 0.0
C1059 C 0.12775 0.52563 0.45931 0.0
C1060 C 0.10996 0.53036 0.45348 0.0
C1061 C 0.15197 0.51184 0.51754 0.0
C1062 C 0.16678 0.52078 0.49468 0.0
C1063 C 0.15345 0.49373 0.53401 0.0
C1064 C 0.13842 0.48355 0.5596 0.0
C1065 C 0.12269 0.48087 0.52733 0.0
C1066 C 0.10861 0.4713 0.55215 0.0
C1067 C 0.11021 0.4641 0.60884 0.0
C1068 C 0.12589 0.46649 0.64087 0.0
C1069 C 0.13997 0.47611 0.61634 0.0
H1070 H 0.09929 0.45669 0.62796 0.0
H1071 H 0.23617 0.54563 0.3746 0.0
H1072 H 0.02764 0.78334 0.94238 0.0
H1073 H 0.0362 0.80732 0.87716 0.0
H1074 H 0.09103 0.80068 0.9275 0.0
H1075 H 0.0823 0.77665 0.99489 0.0
H1076 H 0.08264 0.83274 0.94334 0.0
H1077 H 0.07627 0.79615 0.77736 0.0
H1078 H 0.06369 0.77343 0.71105 0.0
H1079 H 0.01692 0.80497 0.68735 0.0
H1080 H 0.02903 0.82774 0.75434 0.0
H1081 H 0.07805 0.9184 0.79676 0.0
H1082 H 0.08765 0.88748 0.80708 0.0
H1083 H 0.03342 0.87128 0.83608 0.0
H1084 H 0.02382 0.90193 0.82914 0.0
H1085 H 0.0536 0.84911 0.75448 0.0
H1086 H 0.05739 0.87795 0.95097 0.0
H1087 H 0.06976 0.90059 0.01824 0.0
H1088 H 0.12252 0.88264 0.97956 0.0
H1089 H 0.11042 0.86003 0.91146 0.0
C1090 C 0.04162 0.78648 0.93806 0.0
C1091 C 0.0543 0.77813 0.97388 0.0
C1092 C 0.04655 0.80021 0.90025 0.0
C1093 C 0.06434 0.80574 0.89652 0.0
C1094 C 0.07724 0.79662 0.92941 0.0
C1095 C 0.07225 0.78295 0.96798 0.0
C1096 C 0.06854 0.82285 0.86695 0.0
C1097 C 0.07687 0.83609 0.90087 0.0
C1098 C 0.06107 0.82739 0.81148 0.0
C1099 C 0.05362 0.81371 0.771 0.0
C1100 C 0.06326 0.79821 0.75833 0.0
C1101 C 0.0562 0.78532 0.72057 0.0
C1102 C 0.03952 0.78776 0.69499 0.0
C1103 C 0.02985 0.80311 0.70711 0.0
C1104 C 0.03683 0.81604 0.74489 0.0
C1105 C 0.06818 0.90827 0.80577 0.0
C1106 C 0.05013 0.91271 0.81204 0.0
C1107 C 0.07369 0.89062 0.81087 0.0
C1108 C 0.06119 0.87717 0.82158 0.0
C1109 C 0.04321 0.88149 0.82673 0.0
C1110 C 0.03775 0.89906 0.82262 0.0
C1111 C 0.06659 0.85868 0.83278 0.0
C1112 C 0.0601 0.84535 0.79536 0.0
C1113 C 0.07584 0.85398 0.88465 0.0
C1114 C 0.08304 0.86751 0.92563 0.0
C1115 C 0.07163 0.87895 0.95647 0.0
C1116 C 0.07859 0.89175 0.9948 0.0
C1117 C 0.09692 0.8931 0.003 0.0
C1118 C 0.10833 0.88162 0.97303 0.0
C1119 C 0.10143 0.86881 0.93457 0.0
H1120 H 0.10228 0.90301 0.03271 0.0
H1121 H 0.03409 0.77776 0.66577 0.0
H1122 H 0.70376 0.05571 0.04528 0.0
H1123 H 0.68108 0.05601 0.96934 0.0
H1124 H 0.71994 0.04226 0.83747 0.0
H1125 H 0.74318 0.04247 0.9135 0.0
H1126 H 0.68768 0.06812 0.8049 0.0
H1127 H 0.70331 0.0094 0.86695 0.0
H1128 H 0.71274 0.98714 0.94042 0.0
H1129 H 0.66533 0.99633 0.04102 0.0
H1130 H 0.65579 0.01888 0.96867 0.0
H1131 H 0.59781 0.01271 0.76441 0.0
H1132 H 0.63018 0.01416 0.76316 0.0
H1133 H 0.628 0.06903 0.81788 0.0
H1134 H 0.59567 0.06768 0.81754 0.0
H1135 H 0.6481 0.01751 0.85523 0.0
H1136 H 0.66471 0.09162 0.793 0.0
H1137 H 0.65626 0.1133 0.7165 0.0
H1138 H 0.64032 0.07091 0.60125 0.0
H1139 H 0.6489 0.04897 0.6766 0.0
C1140 C 0.70778 0.05351 0.99992 0.0
C1141 C 0.72531 0.04889 0.98569 0.0
C1142 C 0.69472 0.05361 0.95654 0.0
C1143 C 0.69889 0.049 0.89821 0.0
C1144 C 0.71656 0.04586 0.88242 0.0
C1145 C 0.72974 0.04582 0.926 0.0
C1146 C 0.68419 0.04466 0.85782 0.0
C1147 C 0.67905 0.05694 0.81466 0.0
C1148 C 0.67344 0.02969 0.86949 0.0
C1149 C 0.6789 0.01588 0.91257 0.0
C1150 C 0.69496 0.00675 0.90496 0.0
C1151 C 0.70032 0.99408 0.94637 0.0
C1152 C 0.68965 0.99034 0.9954 0.0
C1153 C 0.67358 0.99924 0.00302 0.0
C1154 C 0.66818 0.01195 0.96179 0.0
C1155 C 0.60431 0.02517 0.77494 0.0
C1156 C 0.59434 0.04003 0.79187 0.0
C1157 C 0.62278 0.02604 0.77368 0.0
C1158 C 0.63161 0.04174 0.78991 0.0
C1159 C 0.62157 0.05688 0.80367 0.0
C1160 C 0.60308 0.05607 0.80412 0.0
C1161 C 0.65084 0.04148 0.80347 0.0
C1162 C 0.65682 0.02837 0.8427 0.0
C1163 C 0.66248 0.0554 0.7865 0.0
C1164 C 0.65743 0.0686 0.7407 0.0
C1165 C 0.65954 0.08689 0.7512 0.0
C1166 C 0.65468 0.09925 0.70804 0.0
C1167 C 0.64774 0.09349 0.65408 0.0
C1168 C 0.64566 0.07536 0.64312 0.0
C1169 C 0.65049 0.06296 0.68611 0.0
H1170 H 0.64399 0.10308 0.62074 0.0
H1171 H 0.69382 0.98053 0.02743 0.0
H1172 H 0.54077 0.70333 0.9879 0.0
H1173 H 0.52871 0.6809 0.92288 0.0
H1174 H 0.48898 0.71777 0.86215 0.0
H1175 H 0.49923 0.73938 0.9333 0.0
H1176 H 0.47284 0.69162 0.89118 0.0
H1177 H 0.52373 0.69791 0.77684 0.0
H1178 H 0.55483 0.70032 0.74507 0.0
H1179 H 0.56438 0.64688 0.80221 0.0
H1180 H 0.53338 0.64412 0.8349 0.0
H1181 H 0.46979 0.59611 0.74524 0.0
H1182 H 0.47788 0.62746 0.73913 0.0
H1183 H 0.46592 0.63356 0.92458 0.0
H1184 H 0.45722 0.6024 0.93039 0.0
H1185 H 0.50457 0.64246 0.79211 0.0
H1186 H 0.45345 0.67366 0.95811 0.0
H1187 H 0.42138 0.6716 0.97831 0.0
H1188 H 0.41223 0.65252 0.80212 0.0
H1189 H 0.44421 0.65469 0.78049 0.0
C1190 C 0.5294 0.70675 0.96113 0.0
C1191 C 0.52063 0.72308 0.96829 0.0
C1192 C 0.52276 0.69395 0.92244 0.0
C1193 C 0.50777 0.6975 0.88755 0.0
C1194 C 0.50037 0.71455 0.88922 0.0
C1195 C 0.50651 0.72709 0.92973 0.0
C1196 C 0.49817 0.68272 0.85779 0.0
C1197 C 0.47986 0.68104 0.86879 0.0
C1198 C 0.50705 0.66907 0.82646 0.0
C1199 C 0.52597 0.67074 0.80776 0.0
C1200 C 0.53238 0.68662 0.78262 0.0
C1201 C 0.55005 0.68807 0.76449 0.0
C1202 C 0.56156 0.67374 0.77139 0.0
C1203 C 0.55542 0.65795 0.79659 0.0
C1204 C 0.53775 0.65642 0.81473 0.0
C1205 C 0.46829 0.60427 0.78421 0.0
C1206 C 0.46287 0.59677 0.83838 0.0
C1207 C 0.47309 0.62215 0.78071 0.0
C1208 C 0.47246 0.63287 0.83124 0.0
C1209 C 0.46625 0.62561 0.8847 0.0
C1210 C 0.46143 0.60776 0.88819 0.0
C1211 C 0.47997 0.65104 0.83061 0.0
C1212 C 0.49773 0.65335 0.81344 0.0
C1213 C 0.47061 0.66545 0.85507 0.0
C1214 C 0.45129 0.66432 0.86771 0.0
C1215 C 0.4446 0.66916 0.92347 0.0
C1216 C 0.42643 0.66794 0.93523 0.0
C1217 C 0.41478 0.66193 0.89155 0.0
C1218 C 0.42127 0.65715 0.83597 0.0
C1219 C 0.43943 0.65835 0.82396 0.0
H1220 H 0.40071 0.66098 0.90077 0.0
H1221 H 0.57525 0.6749 0.75736 0.0
H1222 H 0.79468 0.4547 0.0442 0.0
H1223 H 0.82016 0.46037 0.98243 0.0
H1224 H 0.78717 0.48679 0.85457 0.0
H1225 H 0.76096 0.47999 0.91433 0.0
H1226 H 0.82407 0.47024 0.81366 0.0
H1227 H 0.79662 0.51367 0.94186 0.0
H1228 H 0.7804 0.52153 0.03282 0.0
H1229 H 0.82374 0.50256 0.1382 0.0
H1230 H 0.84006 0.49424 0.0478 0.0
H1231 H 0.90844 0.51186 0.7788 0.0
H1232 H 0.8761 0.5112 0.78361 0.0
H1233 H 0.87876 0.49185 0.96287 0.0
H1234 H 0.91093 0.49362 0.96001 0.0
H1235 H 0.8521 0.5127 0.95357 0.0
H1236 H 0.87609 0.46438 0.82294 0.0
H1237 H 0.89211 0.45617 0.73173 0.0
H1238 H 0.85504 0.48609 0.62804 0.0
H1239 H 0.83896 0.49465 0.71872 0.0
C1240 C 0.79241 0.46072 1.00145 0.0
C1241 C 0.77573 0.46758 0.98572 0.0
C1242 C 0.80716 0.464 0.96603 0.0
C1243 C 0.80554 0.47447 0.91513 0.0
C1244 C 0.78865 0.47886 0.89422 0.0
C1245 C 0.77374 0.47522 0.9291 0.0
C1246 C 0.82127 0.48455 0.89544 0.0
C1247 C 0.83009 0.47982 0.84335 0.0
C1248 C 0.82883 0.49734 0.93369 0.0
C1249 C 0.81952 0.50327 0.98807 0.0
C1250 C 0.80267 0.51114 0.98444 0.0
C1251 C 0.79345 0.51566 0.03588 0.0
C1252 C 0.80102 0.51253 0.09126 0.0
C1253 C 0.81789 0.50498 0.09527 0.0
C1254 C 0.82714 0.50038 0.04394 0.0
C1255 C 0.90215 0.50802 0.81994 0.0
C1256 C 0.91228 0.50246 0.86884 0.0
C1257 C 0.88364 0.50749 0.82227 0.0
C1258 C 0.875 0.50109 0.87292 0.0
C1259 C 0.8851 0.49671 0.92298 0.0
C1260 C 0.90353 0.49752 0.92112 0.0
C1261 C 0.85566 0.4975 0.87377 0.0
C1262 C 0.84595 0.5036 0.92251 0.0
C1263 C 0.84729 0.48621 0.83189 0.0
C1264 C 0.85641 0.4802 0.7775 0.0
C1265 C 0.87134 0.46914 0.78063 0.0
C1266 C 0.88046 0.46449 0.72907 0.0
C1267 C 0.87463 0.47067 0.67414 0.0
C1268 C 0.85957 0.48137 0.6706 0.0
C1269 C 0.85044 0.4861 0.72203 0.0
H1270 H 0.88176 0.46715 0.63431 0.0
H1271 H 0.79384 0.51597 0.13104 0.0
H1272 H 0.04206 0.20262 0.86562 0.0
H1273 H 0.03996 0.17345 0.81884 0.0
H1274 H 0.98424 0.17103 0.86136 0.0
H1275 H 0.98626 0.20012 0.90856 0.0
H1276 H 0.03288 0.14258 0.86558 0.0
H1277 H 0.96217 0.1452 0.763 0.0
H1278 H 0.94254 0.16668 0.71352 0.0
H1279 H 0.98774 0.19772 0.66093 0.0
H1280 H 0.00769 0.17627 0.70915 0.0
H1281 H 0.00366 0.05455 0.81295 0.0
H1282 H 0.00621 0.08551 0.84421 0.0
H1283 H 0.00619 0.10224 0.66173 0.0
H1284 H 0.00326 0.07125 0.63054 0.0
H1285 H 0.98711 0.12417 0.72069 0.0
H1286 H 0.04521 0.10065 0.75065 0.0
H1287 H 0.06748 0.07966 0.78877 0.0
H1288 H 0.05241 0.09223 0.96693 0.0
H1289 H 0.02988 0.11313 0.92984 0.0
C1290 C 0.02931 0.19595 0.86486 0.0
C1291 C 0.01435 0.20383 0.89128 0.0
C1292 C 0.02813 0.17922 0.83791 0.0
C1293 C 0.01193 0.16992 0.83624 0.0
C1294 C 0.99685 0.17796 0.86105 0.0
C1295 C 0.99802 0.1947 0.88802 0.0
C1296 C 0.01105 0.15144 0.81185 0.0
C1297 C 0.0229 0.13863 0.83361 0.0
C1298 C 0.99829 0.14617 0.76924 0.0
C1299 C 0.9864 0.15921 0.74035 0.0
C1300 C 0.96793 0.1566 0.74084 0.0
C1301 C 0.95675 0.16875 0.71289 0.0
C1302 C 0.96389 0.18356 0.68412 0.0
C1303 C 0.98223 0.18627 0.68341 0.0
C1304 C 0.99348 0.17412 0.71106 0.0
C1305 C 0.00425 0.06481 0.77942 0.0
C1306 C 0.00321 0.06039 0.7191 0.0
C1307 C 0.00578 0.08257 0.79738 0.0
C1308 C 0.0067 0.09637 0.75549 0.0
C1309 C 0.00551 0.09195 0.69517 0.0
C1310 C 0.00379 0.0742 0.67726 0.0
C1311 C 0.00885 0.11535 0.77448 0.0
C1312 C 0.99718 0.12822 0.75203 0.0
C1313 C 0.02215 0.12081 0.81497 0.0
C1314 C 0.03576 0.10834 0.83744 0.0
C1315 C 0.04657 0.09885 0.79795 0.0
C1316 C 0.05925 0.08698 0.81937 0.0
C1317 C 0.06133 0.08459 0.88023 0.0
C1318 C 0.05077 0.09409 0.9198 0.0
C1319 C 0.03806 0.10597 0.8986 0.0
H1320 H 0.07115 0.07539 0.89673 0.0
H1321 H 0.95522 0.1929 0.66221 0.0
H1322 H 0.31461 0.0044 0.96899 0.0
H1323 H 0.34396 0.00432 0.92369 0.0
H1324 H 0.32125 0.02054 0.7575 0.0
H1325 H 0.29155 0.02031 0.80249 0.0
H1326 H 0.3467 0.99433 0.74339 0.0
H1327 H 0.34276 0.05057 0.84139 0.0
H1328 H 0.33691 0.07046 0.92563 0.0
H1329 H 0.37764 0.04469 0.02636 0.0
H1330 H 0.3836 0.02449 0.94295 0.0
H1331 H 0.43412 0.01102 0.62346 0.0
H1332 H 0.40279 0.0131 0.65241 0.0
H1333 H 0.41772 0.00715 0.83553 0.0
H1334 H 0.44882 0.006 0.80709 0.0
H1335 H 0.39463 0.03062 0.83286 0.0
H1336 H 0.39876 0.97393 0.73638 0.0
H1337 H 0.40329 0.9524 0.65589 0.0
H1338 H 0.36093 0.97617 0.5573 0.0
H1339 H 0.35689 0.99853 0.63518 0.0
C1340 C 0.31572 0.00771 0.92255 0.0
C1341 C 0.30057 0.01229 0.88949 0.0
C1342 C 0.33262 0.00785 0.89679 0.0
C1343 C 0.33495 0.01263 0.83723 0.0
C1344 C 0.31985 0.01687 0.80357 0.0
C1345 C 0.30288 0.01683 0.82949 0.0
C1346 C 0.35318 0.0133 0.81085 0.0
C1347 C 0.35717 1.00247 0.76219 0.0
C1348 C 0.36693 0.02365 0.83609 0.0
C1349 C 0.36354 0.03594 0.88604 0.0
C1350 C 0.3504 0.04908 0.88162 0.0
C1351 C 0.34708 0.06042 0.9292 0.0
C1352 C 0.35688 0.05882 0.98134 0.0
C1353 C 0.37006 0.04591 0.98594 0.0
C1354 C 0.37344 0.03453 0.93849 0.0
C1355 C 0.43068 0.01019 0.66988 0.0
C1356 C 0.44406 0.00843 0.71292 0.0
C1357 C 0.4127 0.01127 0.68648 0.0
C1358 C 0.40762 0.01011 0.74642 0.0
C1359 C 0.42106 0.00822 0.78907 0.0
C1360 C 0.43896 0.00752 0.77267 0.0
C1361 C 0.38853 0.01117 0.76587 0.0
C1362 C 0.38428 0.02247 0.81337 0.0
C1363 C 0.37461 1.00107 0.73973 0.0
C1364 C 0.37777 0.98817 0.69131 0.0
C1365 C 0.39071 0.97487 0.69687 0.0
C1366 C 0.39323 0.96252 0.65154 0.0
C1367 C 0.38259 0.96307 0.60102 0.0
C1368 C 0.36943 0.97598 0.59572 0.0
C1369 C 0.3671 0.98856 0.64032 0.0
H1370 H 0.38443 0.9534 0.56623 0.0
H1371 H 0.35427 0.06761 0.01815 0.0
H1372 H 0.49397 0.30042 0.8287 0.0
H1373 H 0.49195 0.32981 0.78141 0.0
H1374 H 0.50572 0.3547 0.94679 0.0
H1375 H 0.50778 0.32563 0.9938 0.0
H1376 H 0.47679 0.37061 0.89183 0.0
H1377 H 0.53625 0.35114 0.84098 0.0
H1378 H 0.55791 0.33069 0.79629 0.0
H1379 H 0.53321 0.33723 0.62689 0.0
H1380 H 0.5111 0.35749 0.67097 0.0
H1381 H 0.49953 0.45894 0.82597 0.0
H1382 H 0.49892 0.42797 0.85789 0.0
H1383 H 0.49616 0.41102 0.67604 0.0
H1384 H 0.49778 0.44208 0.64386 0.0
H1385 H 0.51686 0.38961 0.7295 0.0
H1386 H 0.459 0.41034 0.77404 0.0
H1387 H 0.43618 0.43021 0.81505 0.0
H1388 H 0.45547 0.42034 0.99055 0.0
H1389 H 0.47857 0.4006 0.95053 0.0
C1390 C 0.49654 0.31218 0.85486 0.0
C1391 C 0.50122 0.31064 0.91492 0.0
C1392 C 0.49546 0.32897 0.82776 0.0
C1393 C 0.49877 0.34452 0.86048 0.0
C1394 C 0.50313 0.34295 0.92054 0.0
C1395 C 0.50444 0.32627 0.94728 0.0
C1396 C 0.4977 0.36255 0.8331 0.0
C1397 C 0.48564 0.37482 0.85661 0.0
C1398 C 0.50876 0.36789 0.78564 0.0
C1399 C 0.52195 0.35569 0.75928 0.0
C1400 C 0.53532 0.34809 0.7943 0.0
C1401 C 0.54767 0.33655 0.76909 0.0
C1402 C 0.54687 0.33263 0.70879 0.0
C1403 C 0.53373 0.34026 0.67357 0.0
C1404 C 0.52131 0.35176 0.69861 0.0
C1405 C 0.49878 0.44863 0.79271 0.0
C1406 C 0.49865 0.45303 0.73229 0.0
C1407 C 0.49833 0.43086 0.81103 0.0
C1408 C 0.49717 0.41697 0.76953 0.0
C1409 C 0.49712 0.42137 0.70908 0.0
C1410 C 0.49798 0.43916 0.69069 0.0
C1411 C 0.49622 0.39797 0.78935 0.0
C1412 C 0.50785 0.38546 0.76432 0.0
C1413 C 0.48453 0.39229 0.83485 0.0
C1414 C 0.47061 0.40409 0.85921 0.0
C1415 C 0.45845 0.4125 0.82135 0.0
C1416 C 0.44545 0.42373 0.84442 0.0
C1417 C 0.4444 0.42656 0.90535 0.0
C1418 C 0.45631 0.41814 0.94335 0.0
C1419 C 0.46934 0.40691 0.92051 0.0
H1420 H 0.43433 0.43527 0.92313 0.0
H1421 H 0.55646 0.32371 0.68932 0.0
H1422 H 0.21012 0.49153 0.81773 0.0
H1423 H 0.18146 0.49091 0.76572 0.0
H1424 H 0.15438 0.50054 0.93045 0.0
H1425 H 0.18272 0.50101 0.98235 0.0
H1426 H 0.13898 0.47339 0.86684 0.0
H1427 H 0.15923 0.53438 0.82838 0.0
H1428 H 0.18083 0.55616 0.78947 0.0
H1429 H 0.17781 0.53193 0.61798 0.0
H1430 H 0.15638 0.50993 0.65622 0.0
H1431 H 0.05231 0.49957 0.80518 0.0
H1432 H 0.08318 0.49754 0.83596 0.0
H1433 H 0.09983 0.49866 0.6536 0.0
H1434 H 0.06874 0.50152 0.62262 0.0
H1435 H 0.12233 0.51701 0.71252 0.0
H1436 H 0.09866 0.4594 0.7425 0.0
H1437 H 0.07797 0.43628 0.77736 0.0
H1438 H 0.08884 0.45061 0.95743 0.0
H1439 H 0.10947 0.47398 0.92364 0.0
C1440 C 0.19805 0.49351 0.8428 0.0
C1441 C 0.19881 0.49648 0.90426 0.0
C1442 C 0.18166 0.49325 0.81295 0.0
C1443 C 0.16569 0.49579 0.84403 0.0
C1444 C 0.16646 0.49859 0.90533 0.0
C1445 C 0.18275 0.49901 0.93495 0.0
C1446 C 0.14803 0.49532 0.81381 0.0
C1447 C 0.13529 0.48298 0.83326 0.0
C1448 C 0.14341 0.50724 0.76799 0.0
C1449 C 0.15623 0.52051 0.7451 0.0
C1450 C 0.16323 0.53368 0.78244 0.0
C1451 C 0.17544 0.54607 0.76052 0.0
C1452 C 0.18068 0.54544 0.70127 0.0
C1453 C 0.17371 0.53243 0.66381 0.0
C1454 C 0.16151 0.52003 0.68556 0.0
C1455 C 0.0625 0.49931 0.77143 0.0
C1456 C 0.05798 0.50057 0.71126 0.0
C1457 C 0.08024 0.49805 0.78913 0.0
C1458 C 0.09403 0.49743 0.74719 0.0
C1459 C 0.08956 0.49897 0.68698 0.0
C1460 C 0.07175 0.5006 0.66922 0.0
C1461 C 0.11296 0.49538 0.76679 0.0
C1462 C 0.12599 0.50716 0.74522 0.0
C1463 C 0.11799 0.48262 0.80981 0.0
C1464 C 0.10561 0.46851 0.83042 0.0
C1465 C 0.09662 0.45768 0.78951 0.0
C1466 C 0.08488 0.44452 0.8091 0.0
C1467 C 0.08208 0.44198 0.86957 0.0
C1468 C 0.09103 0.45258 0.91059 0.0
C1469 C 0.10277 0.46577 0.89122 0.0
H1470 H 0.07298 0.43179 0.88466 0.0
H1471 H 0.19014 0.55503 0.68439 0.0
H1472 H 0.0116 0.80364 0.48222 0.0
H1473 H 0.01044 0.83337 0.52509 0.0
H1474 H 0.97247 0.84908 0.39268 0.0
H1475 H 0.97407 0.81959 0.3482 0.0
H1476 H 0.99763 0.87347 0.40208 0.0
H1477 H 0.96117 0.84152 0.54112 0.0
H1478 H 0.95412 0.81786 0.61282 0.0
H1479 H 0.99731 0.83481 0.72301 0.0
H1480 H 0.00488 0.85835 0.65136 0.0
H1481 H 0.97444 0.95681 0.52366 0.0
H1482 H 0.97361 0.92618 0.48821 0.0
H1483 H 0.0111 0.91109 0.62299 0.0
H1484 H 0.01185 0.94166 0.65887 0.0
H1485 H 0.98634 0.88626 0.61378 0.0
H1486 H 0.0237 0.91708 0.47738 0.0
H1487 H 0.03208 0.94068 0.40702 0.0
H1488 H 0.98895 0.92569 0.2934 0.0
H1489 H 0.98015 0.90215 0.36358 0.0
C1490 C 1.00295 0.81338 0.46219 0.0
C1491 C 0.99295 0.8091 0.4115 0.0
C1492 C 1.00218 0.8304 0.48718 0.0
C1493 C 0.99127 0.84356 0.46252 0.0
C1494 C 0.98099 0.83922 0.41272 0.0
C1495 C 0.98177 0.82222 0.38764 0.0
C1496 C 0.99117 0.86206 0.48676 0.0
C1497 C 0.99486 0.87625 0.44821 0.0
C1498 C 0.98821 0.86578 0.54743 0.0
C1499 C 0.9837 0.85159 0.59051 0.0
C1500 C 0.96928 0.8401 0.58034 0.0
C1501 C 0.96518 0.82671 0.621 0.0
C1502 C 0.97532 0.82478 0.6723 0.0
C1503 C 0.98953 0.83627 0.68313 0.0
C1504 C 0.99373 0.84964 0.64251 0.0
C1505 C 0.9825 0.94699 0.54589 0.0
C1506 C 0.99318 0.95178 0.59439 0.0
C1507 C 0.98206 0.92944 0.52539 0.0
C1508 C 0.99246 0.91624 0.55233 0.0
C1509 C 1.00291 0.92093 0.60136 0.0
C1510 C 0.00331 0.93848 0.622 0.0
C1511 C 0.9926 0.89765 0.52893 0.0
C1512 C 0.98902 0.88346 0.56761 0.0
C1513 C 0.99586 0.89388 0.4685 0.0
C1514 C 1.00116 0.90797 0.42604 0.0
C1515 C 0.01592 0.9189 0.43761 0.0
C1516 C 0.02076 0.93226 0.39773 0.0
C1517 C 0.01103 0.93471 0.34585 0.0
C1518 C 0.99646 0.92379 0.33366 0.0
C1519 C 0.99155 0.91043 0.37346 0.0
H1520 H 0.0148 0.94505 0.31502 0.0
H1521 H 0.97212 0.81442 0.70375 0.0
H1522 H 0.70362 0.02228 0.50719 0.0
H1523 H 0.67382 0.02108 0.55009 0.0
H1524 H 0.65915 0.98022 0.42592 0.0
H1525 H 0.68874 0.98167 0.38183 0.0
H1526 H 0.63448 0.00602 0.42974 0.0
H1527 H 0.66532 0.97043 0.57595 0.0
H1528 H 0.6892 0.96488 0.64813 0.0
H1529 H 0.67397 0.01121 0.74568 0.0
H1530 H 0.64993 0.01698 0.67416 0.0
H1531 H 0.5516 0.9802 0.54309 0.0
H1532 H 0.58267 0.98051 0.5126 0.0
H1533 H 0.5947 0.01859 0.64912 0.0
H1534 H 0.56367 0.01785 0.68145 0.0
H1535 H 0.62106 0.99582 0.64186 0.0
H1536 H 0.58989 0.03117 0.50286 0.0
H1537 H 0.56646 0.03872 0.4312 0.0
H1538 H 0.58312 0.99602 0.31878 0.0
H1539 H 0.6065 0.98804 0.39023 0.0
C1540 C 0.6941 0.01296 0.48914 0.0
C1541 C 0.69869 1.00207 0.44091 0.0
C1542 C 0.67706 0.01219 0.51409 0.0
C1543 C 0.66416 1.00048 0.4916 0.0
C1544 C 0.66881 0.98935 0.44425 0.0
C1545 C 0.68585 0.99008 0.4194 0.0
C1546 C 0.64561 1.00037 0.51527 0.0
C1547 C 0.63154 0.00348 0.47595 0.0
C1548 C 0.64172 0.99785 0.57602 0.0
C1549 C 0.6559 0.99418 0.61966 0.0
C1550 C 0.66708 0.97944 0.61281 0.0
C1551 C 0.68061 0.97623 0.65366 0.0
C1552 C 0.68306 0.98767 0.70157 0.0
C1553 C 0.67196 1.00231 0.70881 0.0
C1554 C 0.65836 0.00553 0.66825 0.0
C1555 C 0.56084 0.98858 0.567 0.0
C1556 C 0.55502 0.99909 0.61453 0.0
C1557 C 0.57865 0.98881 0.54928 0.0
C1558 C 0.5911 0.99982 0.5778 0.0
C1559 C 0.58544 0.00997 0.62635 0.0
C1560 C 0.56763 0.00958 0.64464 0.0
C1561 C 0.60985 1.00096 0.5559 0.0
C1562 C 0.62395 0.99824 0.59556 0.0
C1563 C 0.61383 0.00411 0.49548 0.0
C1564 C 0.59984 0.0089 0.45219 0.0
C1565 C 0.58848 0.02331 0.46306 0.0
C1566 C 0.57522 0.02768 0.42245 0.0
C1567 C 0.57328 0.01783 0.37054 0.0
C1568 C 0.58463 0.00362 0.35905 0.0
C1569 C 0.5979 0.99918 0.39957 0.0
H1570 H 0.56301 0.02123 0.33915 0.0
H1571 H 0.69358 0.98521 0.73306 0.0
H1572 H 0.4786 0.708 0.47764 0.0
H1573 H 0.47746 0.67816 0.52137 0.0
H1574 H 0.53173 0.66942 0.46917 0.0
H1575 H 0.53294 0.69904 0.42524 0.0
H1576 H 0.50823 0.64174 0.43697 0.0
H1577 H 0.52084 0.67876 0.60781 0.0
H1578 H 0.51324 0.7035 0.67399 0.0
H1579 H 0.46523 0.67679 0.72513 0.0
H1580 H 0.47209 0.65223 0.65699 0.0
H1581 H 0.5274 0.56037 0.57227 0.0
H1582 H 0.52786 0.59139 0.54047 0.0
H1583 H 0.48041 0.6013 0.64194 0.0
H1584 H 0.48074 0.57054 0.67724 0.0
H1585 H 0.4986 0.62891 0.64968 0.0
H1586 H 0.48123 0.59487 0.48349 0.0
H1587 H 0.48256 0.57115 0.40859 0.0
H1588 H 0.53204 0.592 0.34426 0.0
H1589 H 0.53113 0.61571 0.41935 0.0
C1590 C 0.49032 0.69976 0.47584 0.0
C1591 C 0.5059 0.70601 0.44822 0.0
C1592 C 0.48967 0.68272 0.501 0.0
C1593 C 0.50454 0.67154 0.49873 0.0
C1594 C 0.52011 0.6778 0.4716 0.0
C1595 C 0.52083 0.69484 0.44701 0.0
C1596 C 0.50387 0.6531 0.52288 0.0
C1597 C 0.50635 0.63892 0.4836 0.0
C1598 C 0.50051 0.64938 0.5833 0.0
C1599 C 0.49688 0.66373 0.62656 0.0
C1600 C 0.50857 0.67821 0.63267 0.0
C1601 C 0.50436 0.69224 0.67044 0.0
C1602 C 0.48878 0.6917 0.70388 0.0
C1603 C 0.4773 0.67718 0.69924 0.0
C1604 C 0.48131 0.66323 0.66082 0.0
C1605 C 0.51714 0.56922 0.58808 0.0
C1606 C 0.504 0.56301 0.62702 0.0
C1607 C 0.51731 0.58696 0.56951 0.0
C1608 C 0.5039 0.59877 0.58742 0.0
C1609 C 0.49094 0.5926 0.62734 0.0
C1610 C 0.49109 0.57497 0.64737 0.0
C1611 C 0.50325 0.61738 0.56379 0.0
C1612 C 0.50048 0.63162 0.60301 0.0
C1613 C 0.50557 0.62118 0.50278 0.0
C1614 C 0.50619 0.60696 0.45744 0.0
C1615 C 0.49246 0.59432 0.45364 0.0
C1616 C 0.49313 0.58089 0.41112 0.0
C1617 C 0.5074 0.58004 0.37179 0.0
C1618 C 0.52101 0.59266 0.37481 0.0
C1619 C 0.52041 0.60611 0.41732 0.0
H1620 H 0.5079 0.56964 0.33889 0.0
H1621 H 0.48564 0.7025 0.73357 0.0
H1622 H 0.81841 0.51952 0.3514 0.0
H1623 H 0.8481 0.51897 0.39491 0.0
H1624 H 0.82626 0.49944 0.55871 0.0
H1625 H 0.79636 0.49987 0.51518 0.0
H1626 H 0.85313 0.52723 0.57192 0.0
H1627 H 0.84499 0.47074 0.4772 0.0
H1628 H 0.83715 0.45087 0.39462 0.0
H1629 H 0.87819 0.47429 0.288 0.0
H1630 H 0.8861 0.4945 0.36969 0.0
H1631 H 0.93793 0.502 0.68909 0.0
H1632 H 0.90683 0.50196 0.65812 0.0
H1633 H 0.92297 0.51235 0.47839 0.0
H1634 H 0.95406 0.51213 0.50873 0.0
H1635 H 0.8979 0.48792 0.47942 0.0
H1636 H 0.90659 0.54426 0.57147 0.0
H1637 H 0.91455 0.56505 0.65123 0.0
H1638 H 0.87257 0.54411 0.75927 0.0
H1639 H 0.8647 0.52274 0.68085 0.0
C1640 C 0.81984 0.51535 0.39698 0.0
C1641 C 0.80493 0.50978 0.42977 0.0
C1642 C 0.83687 0.51494 0.42171 0.0
C1643 C 0.83948 0.50909 0.48005 0.0
C1644 C 0.8246 0.50401 0.51364 0.0
C1645 C 0.80753 0.50418 0.48859 0.0
C1646 C 0.85782 0.50765 0.50462 0.0
C1647 C 0.86288 0.51844 0.55241 0.0
C1648 C 0.87065 0.49646 0.47842 0.0
C1649 C 0.86602 0.48425 0.42937 0.0
C1650 C 0.85224 0.47175 0.43597 0.0
C1651 C 0.84781 0.46041 0.38936 0.0
C1652 C 0.85713 0.46135 0.33604 0.0
C1653 C 0.87096 0.47359 0.32929 0.0
C1654 C 0.87543 0.48499 0.37576 0.0
C1655 C 0.9349 0.50428 0.64291 0.0
C1656 C 0.94862 0.50715 0.60149 0.0
C1657 C 0.91704 0.50433 0.62529 0.0
C1658 C 0.91243 0.50735 0.56589 0.0
C1659 C 0.9261 0.51001 0.52446 0.0
C1660 C 0.94394 0.50996 0.54199 0.0
C1661 C 0.89343 0.5077 0.54643 0.0
C1662 C 0.88821 0.49667 0.49946 0.0
C1663 C 0.88054 0.51881 0.57321 0.0
C1664 C 0.88527 0.53163 0.62058 0.0
C1665 C 0.89922 0.54387 0.61255 0.0
C1666 C 0.90371 0.55578 0.65753 0.0
C1667 C 0.89416 0.5558 0.71046 0.0
C1668 C 0.88004 0.54397 0.71838 0.0
C1669 C 0.87559 0.53192 0.67374 0.0
H1670 H 0.89762 0.56507 0.74515 0.0
H1671 H 0.85368 0.45255 0.3 0.0
loop_
_geom_bond_atom_site_label_1
_geom_bond_atom_site_label_2
_geom_bond_distance
_geom_bond_site_symmetry_2
_ccdc_geom_bond_type
C0 C1 1.386 . S
C0 C2 1.397 . S
C0 H24 0.931 . S
C1 C0 1.386 . S
C1 C5 1.397 . S
C2 C0 1.397 . S
C2 C3 1.384 . S
C2 H25 0.930 . S
C3 C2 1.384 . S
C3 C4 1.377 . S
C3 C6 1.481 . S
C4 C3 1.377 . S
C4 C5 1.389 . S
C4 H26 0.929 . S
C5 C1 1.397 . S
C5 C4 1.389 . S
C5 H27 0.931 . S
C6 C3 1.481 . S
C6 C7 1.387 . S
C6 C11 1.390 . S
C7 C6 1.387 . S
C7 C8 1.401 . S
C7 H28 0.930 . S
C8 C7 1.401 . S
C8 C9 1.376 . S
C8 C17 1.511 . S
C9 C8 1.376 . S
C9 C10 1.392 . S
C9 H30 0.931 . S
C10 C9 1.392 . S
C10 C11 1.361 . S
C10 C12 1.500 . S
C11 C6 1.390 . S
C11 C10 1.361 . S
C11 H29 0.931 . S
C12 C10 1.500 . S
C12 C13 1.371 . S
C12 C14 1.365 . S
C13 C12 1.371 . S
C13 C23 1.386 . S
C13 H31 0.931 . S
C14 C12 1.365 . S
C14 C15 1.409 . S
C14 H32 0.929 . S
C15 C14 1.409 . S
C15 C16 1.380 . S
C15 H33 0.930 . S
C16 C15 1.380 . S
C16 C23 1.357 . S
C17 C8 1.511 . S
C17 C18 1.341 . S
C17 C19 1.371 . S
C18 C17 1.341 . S
C18 C22 1.394 . S
C18 H34 0.930 . S
C19 C17 1.371 . S
C19 C20 1.392 . S
C19 H35 0.931 . S
C20 C19 1.392 . S
C20 C21 1.331 . S
C20 H38 0.932 . S
C21 C20 1.331 . S
C21 C22 1.336 . S
C22 C18 1.394 . S
C22 C21 1.336 . S
C22 H37 0.929 . S
C23 C13 1.386 . S
C23 C16 1.357 . S
C23 H36 0.928 . S
H24 C0 0.931 . S
H25 C2 0.930 . S
H26 C4 0.929 . S
H27 C5 0.931 . S
H28 C7 0.930 . S
H29 C11 0.931 . S
H30 C9 0.931 . S
H31 C13 0.931 . S
H32 C14 0.929 . S
H33 C15 0.930 . S
H34 C18 0.930 . S
H35 C19 0.931 . S
H36 C23 0.928 . S
H37 C22 0.929 . S
H38 C20 0.932 . S
C39 C40 1.394 . S
C39 C41 1.397 . S
C39 H63 0.931 . S
C40 C39 1.394 . S
C40 C44 1.389 1_655 S
C41 C39 1.397 . S
C41 C42 1.389 . S
C41 H64 0.930 . S
C42 C41 1.389 . S
C42 C43 1.373 1_655 S
C42 C45 1.480 . S
C43 C42 1.373 1_455 S
C43 C44 1.389 . S
C43 H65 0.929 . S
C44 C40 1.389 1_455 S
C44 C43 1.389 . S
C44 H66 0.931 . S
C45 C42 1.480 . S
C45 C46 1.388 . S
C45 C50 1.390 . S
C46 C45 1.388 . S
C46 C47 1.402 . S
C46 H67 0.930 . S
C47 C46 1.402 . S
C47 C48 1.376 . S
C47 C56 1.513 . S
C48 C47 1.376 . S
C48 C49 1.392 . S
C48 H69 0.934 . S
C49 C48 1.392 . S
C49 C50 1.361 . S
C49 C51 1.499 1_655 S
C50 C45 1.390 . S
C50 C49 1.361 . S
C50 H68 0.931 . S
C51 C49 1.499 1_455 S
C51 C52 1.364 1_455 S
C51 C53 1.373 . S
C52 C51 1.364 1_655 S
C52 C62 1.386 . S
C52 H70 0.931 . S
C53 C51 1.373 . S
C53 C54 1.409 . S
C53 H71 0.929 . S
C54 C53 1.409 . S
C54 C55 1.378 . S
C54 H72 0.930 . S
C55 C54 1.378 . S
C55 C62 1.360 1_455 S
C56 C47 1.513 . S
C56 C57 1.341 . S
C56 C58 1.371 1_655 S
C57 C56 1.341 . S
C57 C61 1.394 . S
C57 H73 0.930 . S
C58 C56 1.371 1_455 S
C58 C59 1.392 . S
C58 H74 0.931 . S
C59 C58 1.392 . S
C59 C60 1.322 1_455 S
C59 H77 0.932 . S
C60 C59 1.322 1_655 S
C60 C61 1.345 . S
C61 C57 1.394 . S
C61 C60 1.345 . S
C61 H76 0.929 . S
C62 C52 1.386 . S
C62 C55 1.360 1_655 S
C62 H75 0.928 . S
H63 C39 0.931 . S
H64 C41 0.930 . S
H65 C43 0.929 . S
H66 C44 0.931 . S
H67 C46 0.930 . S
H68 C50 0.931 . S
H69 C48 0.934 . S
H70 C52 0.931 . S
H71 C53 0.929 . S
H72 C54 0.930 . S
H73 C57 0.930 . S
H74 C58 0.931 . S
H75 C62 0.928 . S
H76 C61 0.929 . S
H77 C59 0.932 . S
C78 C79 1.386 . S
C78 C80 1.397 . S
C78 H102 0.931 . S
C79 C78 1.386 . S
C79 C83 1.397 1_565 S
C80 C78 1.397 . S
C80 C81 1.384 . S
C80 H103 0.930 . S
C81 C80 1.384 . S
C81 C82 1.377 1_565 S
C81 C84 1.481 . S
C82 C81 1.377 1_545 S
C82 C83 1.389 . S
C82 H104 0.929 . S
C83 C79 1.397 1_545 S
C83 C82 1.389 . S
C83 H105 0.931 . S
C84 C81 1.481 . S
C84 C85 1.387 . S
C84 C89 1.390 . S
C85 C84 1.387 . S
C85 C86 1.401 . S
C85 H106 0.930 . S
C86 C85 1.401 . S
C86 C87 1.376 . S
C86 C95 1.511 . S
C87 C86 1.376 . S
C87 C88 1.392 . S
C87 H108 0.931 . S
C88 C87 1.392 . S
C88 C89 1.361 . S
C88 C90 1.500 . S
C89 C84 1.390 . S
C89 C88 1.361 . S
C89 H107 0.931 . S
C90 C88 1.500 . S
C90 C91 1.371 . S
C90 C92 1.365 1_565 S
C91 C90 1.371 . S
C91 C101 1.386 . S
C91 H109 0.931 . S
C92 C90 1.365 1_545 S
C92 C93 1.409 . S
C92 H110 0.929 . S
C93 C92 1.409 . S
C93 C94 1.380 1_545 S
C93 H111 0.930 . S
C94 C93 1.380 1_565 S
C94 C101 1.357 . S
C95 C86 1.511 . S
C95 C96 1.341 . S
C95 C97 1.371 . S
C96 C95 1.341 . S
C96 C100 1.394 . S
C96 H112 0.930 . S
C97 C95 1.371 . S
C97 C98 1.394 . S
C97 H113 0.931 1_565 S
C98 C97 1.394 . S
C98 C99 1.341 . S
C98 H116 0.921 1_565 S
C99 C98 1.341 . S
C99 C100 1.336 . S
C100 C96 1.394 . S
C100 C99 1.336 . S
C100 H115 0.929 . S
C101 C91 1.386 . S
C101 C94 1.357 . S
C101 H114 0.928 . S
H102 C78 0.931 . S
H103 C80 0.930 . S
H104 C82 0.929 . S
H105 C83 0.931 . S
H106 C85 0.930 . S
H107 C89 0.931 . S
H108 C87 0.931 . S
H109 C91 0.931 . S
H110 C92 0.929 . S
H111 C93 0.930 . S
H112 C96 0.930 . S
H113 C97 0.931 1_545 S
H114 C101 0.928 . S
H115 C100 0.929 . S
H116 C98 0.921 1_545 S
C117 C118 1.386 . S
C117 C119 1.397 . S
C117 H141 0.931 . S
C118 C117 1.386 . S
C118 C122 1.397 . S
C119 C117 1.397 . S
C119 C120 1.384 . S
C119 H142 0.930 . S
C120 C119 1.384 . S
C120 C121 1.377 . S
C120 C123 1.481 . S
C121 C120 1.377 . S
C121 C122 1.389 . S
C121 H143 0.929 . S
C122 C118 1.397 . S
C122 C121 1.389 . S
C122 H144 0.931 . S
C123 C120 1.481 . S
C123 C124 1.387 . S
C123 C128 1.390 . S
C124 C123 1.387 . S
C124 C125 1.401 . S
C124 H145 0.930 . S
C125 C124 1.401 . S
C125 C126 1.376 . S
C125 C134 1.511 . S
C126 C125 1.376 . S
C126 C127 1.392 . S
C126 H147 0.931 . S
C127 C126 1.392 . S
C127 C128 1.361 . S
C127 C129 1.500 . S
C128 C123 1.390 . S
C128 C127 1.361 . S
C128 H146 0.931 . S
C129 C127 1.500 . S
C129 C130 1.371 . S
C129 C131 1.365 . S
C130 C129 1.371 . S
C130 C140 1.386 . S
C130 H148 0.931 . S
C131 C129 1.365 . S
C131 C132 1.409 . S
C131 H149 0.929 . S
C132 C131 1.409 . S
C132 C133 1.380 . S
C132 H150 0.930 . S
C133 C132 1.380 . S
C133 C140 1.357 . S
C134 C125 1.511 . S
C134 C135 1.341 . S
C134 C136 1.371 . S
C135 C134 1.341 . S
C135 C139 1.394 . S
C135 H151 0.930 . S
C136 C134 1.371 . S
C136 C137 1.392 . S
C136 H152 0.931 . S
C137 C136 1.392 . S
C137 C138 1.331 . S
C137 H155 0.932 . S
C138 C137 1.331 . S
C138 C139 1.336 . S
C139 C135 1.394 . S
C139 C138 1.336 . S
C139 H154 0.929 . S
C140 C130 1.386 . S
C140 C133 1.357 . S
C140 H153 0.928 . S
H141 C117 0.931 . S
H142 C119 0.930 . S
H143 C121 0.929 . S
H144 C122 0.931 . S
H145 C124 0.930 . S
H146 C128 0.931 . S
H147 C126 0.931 . S
H148 C130 0.931 . S
H149 C131 0.929 . S
H150 C132 0.930 . S
H151 C135 0.930 . S
H152 C136 0.931 . S
H153 C140 0.928 . S
H154 C139 0.929 . S
H155 C137 0.932 . S
C156 C157 1.386 . S
C156 C158 1.397 . S
C156 H180 0.931 . S
C157 C156 1.386 . S
C157 C161 1.397 . S
C158 C156 1.397 . S
C158 C159 1.384 . S
C158 H181 0.930 . S
C159 C158 1.384 . S
C159 C160 1.377 . S
C159 C162 1.481 . S
C160 C159 1.377 . S
C160 C161 1.389 . S
C160 H182 0.929 . S
C161 C157 1.397 . S
C161 C160 1.389 . S
C161 H183 0.931 . S
C162 C159 1.481 . S
C162 C163 1.387 . S
C162 C167 1.390 . S
C163 C162 1.387 . S
C163 C164 1.401 . S
C163 H184 0.930 . S
C164 C163 1.401 . S
C164 C165 1.376 1_554 S
C164 C173 1.511 . S
C165 C164 1.376 1_556 S
C165 C166 1.392 . S
C165 H186 0.931 . S
C166 C165 1.392 . S
C166 C167 1.361 1_556 S
C166 C168 1.500 . S
C167 C162 1.390 . S
C167 C166 1.361 1_554 S
C167 H185 0.931 . S
C168 C166 1.500 . S
C168 C169 1.371 . S
C168 C170 1.365 . S
C169 C168 1.371 . S
C169 C179 1.386 . S
C169 H187 0.931 . S
C170 C168 1.365 . S
C170 C171 1.409 . S
C170 H188 0.929 . S
C171 C170 1.409 . S
C171 C172 1.380 . S
C171 H189 0.930 . S
C172 C171 1.380 . S
C172 C179 1.357 . S
C173 C164 1.511 . S
C173 C174 1.341 . S
C173 C175 1.371 . S
C174 C173 1.341 . S
C174 C178 1.394 . S
C174 H190 0.930 . S
C175 C173 1.371 . S
C175 C176 1.392 . S
C175 H191 0.931 1_554 S
C176 C175 1.392 . S
C176 C177 1.331 . S
C176 H194 0.932 . S
C177 C176 1.331 . S
C177 C178 1.336 . S
C178 C174 1.394 . S
C178 C177 1.336 . S
C178 H193 0.929 . S
C179 C169 1.386 . S
C179 C172 1.357 . S
C179 H192 0.928 . S
H180 C156 0.931 . S
H181 C158 0.930 . S
H182 C160 0.929 . S
H183 C161 0.931 . S
H184 C163 0.930 . S
H185 C167 0.931 . S
H186 C165 0.931 . S
H187 C169 0.931 . S
H188 C170 0.929 . S
H189 C171 0.930 . S
H190 C174 0.930 . S
H191 C175 0.931 1_556 S
H192 C179 0.928 . S
H193 C178 0.929 . S
H194 C176 0.932 . S
C195 C196 1.385 . S
C195 C197 1.397 . S
C195 H219 0.931 . S
C196 C195 1.385 . S
C196 C200 1.398 1_655 S
C197 C195 1.397 . S
C197 C198 1.389 1_655 S
C197 H220 0.930 . S
C198 C197 1.389 1_455 S
C198 C199 1.373 . S
C198 C201 1.480 1_455 S
C199 C198 1.373 . S
C199 C200 1.389 . S
C199 H221 0.929 . S
C200 C196 1.398 1_455 S
C200 C199 1.389 . S
C200 H222 0.931 . S
C201 C198 1.480 1_655 S
C201 C202 1.386 . S
C201 C206 1.390 . S
C202 C201 1.386 . S
C202 C203 1.400 . S
C202 H223 0.935 . S
C203 C202 1.400 . S
C203 C204 1.376 1_554 S
C203 C212 1.512 . S
C204 C203 1.376 1_556 S
C204 C205 1.392 1_655 S
C204 H225 0.933 . S
C205 C204 1.392 1_455 S
C205 C206 1.361 1_456 S
C205 C207 1.499 . S
C206 C201 1.390 . S
C206 C205 1.361 1_654 S
C206 H224 0.931 1_655 S
C207 C205 1.499 . S
C207 C208 1.357 1_455 S
C207 C209 1.380 . S
C208 C207 1.357 1_655 S
C208 C218 1.386 . S
C208 H226 0.931 . S
C209 C207 1.380 . S
C209 C210 1.409 . S
C209 H227 0.929 . S
C210 C209 1.409 . S
C210 C211 1.384 . S
C210 H228 0.930 . S
C211 C210 1.384 . S
C211 C218 1.353 1_455 S
C212 C203 1.512 . S
C212 C213 1.341 . S
C212 C214 1.371 1_655 S
C213 C212 1.341 . S
C213 C217 1.394 . S
C213 H229 0.930 . S
C214 C212 1.371 1_455 S
C214 C215 1.392 . S
C214 H230 0.931 1_554 S
C215 C214 1.392 . S
C215 C216 1.327 1_455 S
C215 H233 0.932 . S
C216 C215 1.327 1_655 S
C216 C217 1.340 . S
C217 C213 1.394 . S
C217 C216 1.340 . S
C217 H232 0.929 . S
C218 C208 1.386 . S
C218 C211 1.353 1_655 S
C218 H231 0.928 . S
H219 C195 0.931 . S
H220 C197 0.930 . S
H221 C199 0.929 . S
H222 C200 0.931 . S
H223 C202 0.935 . S
H224 C206 0.931 1_455 S
H225 C204 0.933 . S
H226 C208 0.931 . S
H227 C209 0.929 . S
H228 C210 0.930 . S
H229 C213 0.930 . S
H230 C214 0.931 1_556 S
H231 C218 0.928 . S
H232 C217 0.929 . S
H233 C215 0.932 . S
C234 C235 1.386 . S
C234 C236 1.397 . S
C234 H258 0.931 1_545 S
C235 C234 1.386 . S
C235 C239 1.397 . S
C236 C234 1.397 . S
C236 C237 1.384 . S
C236 H259 0.930 1_545 S
C237 C236 1.384 . S
C237 C238 1.377 . S
C237 C240 1.481 . S
C238 C237 1.377 . S
C238 C239 1.389 . S
C238 H260 0.929 . S
C239 C235 1.397 . S
C239 C238 1.389 . S
C239 H261 0.931 . S
C240 C237 1.481 . S
C240 C241 1.387 . S
C240 C245 1.390 . S
C241 C240 1.387 . S
C241 C242 1.401 . S
C241 H262 0.930 . S
C242 C241 1.401 . S
C242 C243 1.376 1_554 S
C242 C251 1.511 . S
C243 C242 1.376 1_556 S
C243 C244 1.392 . S
C243 H264 0.931 . S
C244 C243 1.392 . S
C244 C245 1.361 1_556 S
C244 C246 1.500 . S
C245 C240 1.390 . S
C245 C244 1.361 1_554 S
C245 H263 0.931 . S
C246 C244 1.500 . S
C246 C247 1.371 . S
C246 C248 1.365 . S
C247 C246 1.371 . S
C247 C257 1.386 . S
C247 H265 0.920 1_545 S
C248 C246 1.365 . S
C248 C249 1.409 . S
C248 H266 0.929 . S
C249 C248 1.409 . S
C249 C250 1.380 . S
C249 H267 0.930 . S
C250 C249 1.380 . S
C250 C257 1.357 . S
C251 C242 1.511 . S
C251 C252 1.341 . S
C251 C253 1.371 . S
C252 C251 1.341 . S
C252 C256 1.394 . S
C252 H268 0.930 . S
C253 C251 1.371 . S
C253 C254 1.392 . S
C253 H269 0.931 1_554 S
C254 C253 1.392 . S
C254 C255 1.331 . S
C254 H272 0.932 . S
C255 C254 1.331 . S
C255 C256 1.336 . S
C256 C252 1.394 . S
C256 C255 1.336 . S
C256 H271 0.929 . S
C257 C247 1.386 . S
C257 C250 1.357 . S
C257 H270 0.927 1_545 S
H258 C234 0.931 1_565 S
H259 C236 0.930 1_565 S
H260 C238 0.929 . S
H261 C239 0.931 . S
H262 C241 0.930 . S
H263 C245 0.931 . S
H264 C243 0.931 . S
H265 C247 0.920 1_565 S
H266 C248 0.929 . S
H267 C249 0.930 . S
H268 C252 0.930 . S
H269 C253 0.931 1_556 S
H270 C257 0.927 1_565 S
H271 C256 0.929 . S
H272 C254 0.932 . S
C273 C274 1.386 . S
C273 C275 1.397 . S
C273 H297 0.931 . S
C274 C273 1.386 . S
C274 C278 1.397 . S
C275 C273 1.397 . S
C275 C276 1.384 . S
C275 H298 0.930 . S
C276 C275 1.384 . S
C276 C277 1.377 . S
C276 C279 1.481 . S
C277 C276 1.377 . S
C277 C278 1.389 . S
C277 H299 0.929 . S
C278 C274 1.397 . S
C278 C277 1.389 . S
C278 H300 0.931 . S
C279 C276 1.481 . S
C279 C280 1.387 . S
C279 C284 1.390 1_556 S
C280 C279 1.387 . S
C280 C281 1.401 1_556 S
C280 H301 0.930 . S
C281 C280 1.401 1_554 S
C281 C282 1.376 . S
C281 C290 1.511 . S
C282 C281 1.376 . S
C282 C283 1.392 . S
C282 H303 0.931 . S
C283 C282 1.392 . S
C283 C284 1.361 . S
C283 C285 1.500 . S
C284 C279 1.390 1_554 S
C284 C283 1.361 . S
C284 H302 0.931 . S
C285 C283 1.500 . S
C285 C286 1.371 . S
C285 C287 1.365 . S
C286 C285 1.371 . S
C286 C296 1.386 . S
C286 H304 0.931 . S
C287 C285 1.365 . S
C287 C288 1.409 . S
C287 H305 0.929 . S
C288 C287 1.409 . S
C288 C289 1.380 . S
C288 H306 0.930 . S
C289 C288 1.380 . S
C289 C296 1.357 . S
C290 C281 1.511 . S
C290 C291 1.341 . S
C290 C292 1.371 . S
C291 C290 1.341 . S
C291 C295 1.394 . S
C291 H307 0.930 1_554 S
C292 C290 1.371 . S
C292 C293 1.392 . S
C292 H308 0.931 . S
C293 C292 1.392 . S
C293 C294 1.331 . S
C293 H311 0.932 . S
C294 C293 1.331 . S
C294 C295 1.336 . S
C295 C291 1.394 . S
C295 C294 1.336 . S
C295 H310 0.929 . S
C296 C286 1.386 . S
C296 C289 1.357 . S
C296 H309 0.928 . S
H297 C273 0.931 . S
H298 C275 0.930 . S
H299 C277 0.929 . S
H300 C278 0.931 . S
H301 C280 0.930 . S
H302 C284 0.931 . S
H303 C282 0.931 . S
H304 C286 0.931 . S
H305 C287 0.929 . S
H306 C288 0.930 . S
H307 C291 0.930 1_556 S
H308 C292 0.931 . S
H309 C296 0.928 . S
H310 C295 0.929 . S
H311 C293 0.932 . S
Ho312 C315 2.811 . S
Ho312 O332 2.322 . S
Ho312 O334 2.378 . S
Ho312 O335 2.538 . S
Ho312 O336 2.381 . S
Ho312 O337 2.669 1_565 S
Ho312 O339 2.346 1_565 S
Ho312 O343 2.314 1_455 S
Ho313 C324 2.811 . S
Ho313 O333 2.346 1_545 S
Ho313 O337 2.305 1_655 S
Ho313 O338 2.322 . S
Ho313 O340 2.378 . S
Ho313 O341 2.532 . S
Ho313 O342 2.381 . S
Ho313 O343 2.648 1_545 S
C314 O332 1.259 1_655 S
C314 O333 1.268 . S
C315 Ho312 2.811 . S
C315 C316 1.488 . S
C315 O334 1.215 . S
C315 O335 1.322 . S
C316 C315 1.488 . S
C316 C317 1.348 . S
C316 C321 1.413 . S
C317 C316 1.348 . S
C317 C318 1.442 . S
C317 H344 0.930 1_455 S
C318 C317 1.442 . S
C318 C319 1.381 . S
C318 H345 0.931 1_455 S
C319 C318 1.381 . S
C319 C320 1.321 . S
C320 C319 1.321 . S
C320 C321 1.403 . S
C320 H346 0.934 . S
C321 C316 1.413 . S
C321 C320 1.403 . S
C321 H347 0.930 . S
C322 O336 1.275 1_545 S
C322 O337 1.256 . S
C323 O338 1.259 1_455 S
C323 O339 1.268 . S
C324 Ho313 2.811 . S
C324 C325 1.488 . S
C324 O340 1.215 . S
C324 O341 1.308 . S
C325 C324 1.488 . S
C325 C326 1.348 . S
C325 C330 1.413 . S
C326 C325 1.348 . S
C326 C327 1.442 . S
C326 H348 0.930 1_655 S
C327 C326 1.442 . S
C327 C328 1.381 . S
C327 H349 0.931 1_655 S
C328 C327 1.381 . S
C328 C329 1.321 . S
C329 C328 1.321 . S
C329 C330 1.403 . S
C329 H350 0.934 . S
C330 C325 1.413 . S
C330 C329 1.403 . S
C330 H351 0.930 . S
C331 O342 1.275 . S
C331 O343 1.242 1_545 S
O332 Ho312 2.322 . S
O332 C314 1.259 1_455 S
O333 Ho313 2.346 1_565 S
O333 C314 1.268 . S
O334 Ho312 2.378 . S
O334 C315 1.215 . S
O335 Ho312 2.538 . S
O335 C315 1.322 . S
O336 Ho312 2.381 . S
O336 C322 1.275 1_565 S
O337 Ho312 2.669 1_545 S
O337 Ho313 2.305 1_455 S
O337 C322 1.256 . S
O338 Ho313 2.322 . S
O338 C323 1.259 1_655 S
O339 Ho312 2.346 1_545 S
O339 C323 1.268 . S
O340 Ho313 2.378 . S
O340 C324 1.215 . S
O341 Ho313 2.532 . S
O341 C324 1.308 . S
O342 Ho313 2.381 . S
O342 C331 1.275 . S
O343 Ho312 2.314 1_655 S
O343 Ho313 2.648 1_565 S
O343 C331 1.242 1_565 S
H344 C317 0.930 1_655 S
H345 C318 0.931 1_655 S
H346 C320 0.934 . S
H347 C321 0.930 . S
H348 C326 0.930 1_455 S
H349 C327 0.931 1_455 S
H350 C329 0.934 . S
H351 C330 0.930 . S
Ho352 C355 2.811 . S
Ho352 O372 2.322 . S
Ho352 O374 2.378 . S
Ho352 O375 2.524 . S
Ho352 O376 2.381 . S
Ho352 O377 2.669 . S
Ho352 O379 2.346 . S
Ho352 O383 2.305 1_545 S
Ho353 C364 2.811 . S
Ho353 O373 2.346 . S
Ho353 O377 2.305 1_565 S
Ho353 O378 2.322 . S
Ho353 O380 2.378 . S
Ho353 O381 2.524 1_565 S
Ho353 O382 2.381 . S
Ho353 O383 2.669 . S
C354 O372 1.259 1_565 S
C354 O373 1.268 . S
C355 Ho352 2.811 . S
C355 C356 1.488 . S
C355 O374 1.215 . S
C355 O375 1.289 . S
C356 C355 1.488 . S
C356 C357 1.348 . S
C356 C361 1.413 . S
C357 C356 1.348 . S
C357 C358 1.442 . S
C357 H384 0.930 1_545 S
C358 C357 1.442 . S
C358 C359 1.381 . S
C358 H385 0.931 1_545 S
C359 C358 1.381 . S
C359 C360 1.321 . S
C360 C359 1.321 . S
C360 C361 1.403 . S
C360 H386 0.934 . S
C361 C356 1.413 . S
C361 C360 1.403 . S
C361 H387 0.930 . S
C362 O376 1.275 . S
C362 O377 1.256 . S
C363 O378 1.259 1_545 S
C363 O379 1.268 . S
C364 Ho353 2.811 . S
C364 C365 1.488 . S
C364 O380 1.215 . S
C364 O381 1.289 1_565 S
C365 C364 1.488 . S
C365 C366 1.348 1_565 S
C365 C370 1.413 . S
C366 C365 1.348 1_545 S
C366 C367 1.442 . S
C366 H388 0.930 . S
C367 C366 1.442 . S
C367 C368 1.374 1_545 S
C367 H389 0.936 . S
C368 C367 1.374 1_565 S
C368 C369 1.321 . S
C369 C368 1.321 . S
C369 C370 1.403 . S
C369 H390 0.934 . S
C370 C365 1.413 . S
C370 C369 1.403 . S
C370 H391 0.930 . S
C371 O382 1.275 . S
C371 O383 1.256 . S
O372 Ho352 2.322 . S
O372 C354 1.259 1_545 S
O373 Ho353 2.346 . S
O373 C354 1.268 . S
O374 Ho352 2.378 . S
O374 C355 1.215 . S
O375 Ho352 2.524 . S
O375 C355 1.289 . S
O376 Ho352 2.381 . S
O376 C362 1.275 . S
O377 Ho352 2.669 . S
O377 Ho353 2.305 1_545 S
O377 C362 1.256 . S
O378 Ho353 2.322 . S
O378 C363 1.259 1_565 S
O379 Ho352 2.346 . S
O379 C363 1.268 . S
O380 Ho353 2.378 . S
O380 C364 1.215 . S
O381 Ho353 2.524 1_545 S
O381 C364 1.289 1_545 S
O382 Ho353 2.381 . S
O382 C371 1.275 . S
O383 Ho352 2.305 1_565 S
O383 Ho353 2.669 . S
O383 C371 1.256 . S
H384 C357 0.930 1_565 S
H385 C358 0.931 1_565 S
H386 C360 0.934 . S
H387 C361 0.930 . S
H388 C366 0.930 . S
H389 C367 0.936 . S
H390 C369 0.934 . S
H391 C370 0.930 . S
Ho392 C395 2.811 . S
Ho392 O412 2.322 . S
Ho392 O414 2.378 . S
Ho392 O415 2.524 . S
Ho392 O416 2.381 . S
Ho392 O417 2.669 . S
Ho392 O419 2.346 . S
Ho392 O423 2.305 . S
Ho393 C404 2.811 . S
Ho393 O413 2.346 . S
Ho393 O417 2.305 . S
Ho393 O418 2.322 . S
Ho393 O420 2.378 . S
Ho393 O421 2.524 . S
Ho393 O422 2.381 . S
Ho393 O423 2.669 . S
C394 O412 1.259 . S
C394 O413 1.268 . S
C395 Ho392 2.811 . S
C395 C396 1.488 . S
C395 O414 1.215 . S
C395 O415 1.289 . S
C396 C395 1.488 . S
C396 C397 1.348 . S
C396 C401 1.413 . S
C397 C396 1.348 . S
C397 C398 1.442 . S
C397 H424 0.930 . S
C398 C397 1.442 . S
C398 C399 1.381 . S
C398 H425 0.931 . S
C399 C398 1.381 . S
C399 C400 1.321 . S
C400 C399 1.321 . S
C400 C401 1.403 . S
C400 H426 0.934 . S
C401 C396 1.413 . S
C401 C400 1.403 . S
C401 H427 0.930 . S
C402 O416 1.275 . S
C402 O417 1.256 . S
C403 O418 1.259 . S
C403 O419 1.268 . S
C404 Ho393 2.811 . S
C404 C405 1.488 . S
C404 O420 1.215 . S
C404 O421 1.289 . S
C405 C404 1.488 . S
C405 C406 1.348 . S
C405 C410 1.413 . S
C406 C405 1.348 . S
C406 C407 1.442 . S
C406 H428 0.930 . S
C407 C406 1.442 . S
C407 C408 1.381 . S
C407 H429 0.931 . S
C408 C407 1.381 . S
C408 C409 1.321 . S
C409 C408 1.321 . S
C409 C410 1.403 . S
C409 H430 0.934 . S
C410 C405 1.413 . S
C410 C409 1.403 . S
C410 H431 0.930 . S
C411 O422 1.275 . S
C411 O423 1.256 . S
O412 Ho392 2.322 . S
O412 C394 1.259 . S
O413 Ho393 2.346 . S
O413 C394 1.268 . S
O414 Ho392 2.378 . S
O414 C395 1.215 . S
O415 Ho392 2.524 . S
O415 C395 1.289 . S
O416 Ho392 2.381 . S
O416 C402 1.275 . S
O417 Ho392 2.669 . S
O417 Ho393 2.305 . S
O417 C402 1.256 . S
O418 Ho393 2.322 . S
O418 C403 1.259 . S
O419 Ho392 2.346 . S
O419 C403 1.268 . S
O420 Ho393 2.378 . S
O420 C404 1.215 . S
O421 Ho393 2.524 . S
O421 C404 1.289 . S
O422 Ho393 2.381 . S
O422 C411 1.275 . S
O423 Ho392 2.305 . S
O423 Ho393 2.669 . S
O423 C411 1.256 . S
H424 C397 0.930 . S
H425 C398 0.931 . S
H426 C400 0.934 . S
H427 C401 0.930 . S
H428 C406 0.930 . S
H429 C407 0.931 . S
H430 C409 0.934 . S
H431 C410 0.930 . S
Ho432 C435 2.811 . S
Ho432 O452 2.322 . S
Ho432 O454 2.378 . S
Ho432 O455 2.524 . S
Ho432 O456 2.381 . S
Ho432 O457 2.669 1_655 S
Ho432 O459 2.346 1_655 S
Ho432 O463 2.305 . S
Ho433 C444 2.811 . S
Ho433 O453 2.346 1_455 S
Ho433 O457 2.305 . S
Ho433 O458 2.322 . S
Ho433 O460 2.378 . S
Ho433 O461 2.524 . S
Ho433 O462 2.381 . S
Ho433 O463 2.669 1_455 S
C434 O452 1.259 . S
C434 O453 1.268 . S
C435 Ho432 2.811 . S
C435 C436 1.488 . S
C435 O454 1.215 . S
C435 O455 1.289 . S
C436 C435 1.488 . S
C436 C437 1.348 . S
C436 C441 1.413 . S
C437 C436 1.348 . S
C437 C438 1.442 . S
C437 H464 0.930 . S
C438 C437 1.442 . S
C438 C439 1.381 . S
C438 H465 0.931 . S
C439 C438 1.381 . S
C439 C440 1.321 . S
C440 C439 1.321 . S
C440 C441 1.403 . S
C440 H466 0.934 . S
C441 C436 1.413 . S
C441 C440 1.403 . S
C441 H467 0.930 . S
C442 O456 1.275 . S
C442 O457 1.256 1_655 S
C443 O458 1.259 . S
C443 O459 1.268 . S
C444 Ho433 2.811 . S
C444 C445 1.488 . S
C444 O460 1.215 . S
C444 O461 1.289 . S
C445 C444 1.488 . S
C445 C446 1.348 . S
C445 C450 1.413 . S
C446 C445 1.348 . S
C446 C447 1.442 . S
C446 H468 0.930 . S
C447 C446 1.442 . S
C447 C448 1.381 . S
C447 H469 0.931 . S
C448 C447 1.381 . S
C448 C449 1.321 . S
C449 C448 1.321 . S
C449 C450 1.403 . S
C449 H470 0.934 . S
C450 C445 1.413 . S
C450 C449 1.403 . S
C450 H471 0.930 . S
C451 O462 1.275 . S
C451 O463 1.256 1_455 S
O452 Ho432 2.322 . S
O452 C434 1.259 . S
O453 Ho433 2.346 1_655 S
O453 C434 1.268 . S
O454 Ho432 2.378 . S
O454 C435 1.215 . S
O455 Ho432 2.524 . S
O455 C435 1.289 . S
O456 Ho432 2.381 . S
O456 C442 1.275 . S
O457 Ho432 2.669 1_455 S
O457 Ho433 2.305 . S
O457 C442 1.256 1_455 S
O458 Ho433 2.322 . S
O458 C443 1.259 . S
O459 Ho432 2.346 1_455 S
O459 C443 1.268 . S
O460 Ho433 2.378 . S
O460 C444 1.215 . S
O461 Ho433 2.524 . S
O461 C444 1.289 . S
O462 Ho433 2.381 . S
O462 C451 1.275 . S
O463 Ho432 2.305 . S
O463 Ho433 2.669 1_655 S
O463 C451 1.256 1_655 S
H464 C437 0.930 . S
H465 C438 0.931 . S
H466 C440 0.934 . S
H467 C441 0.930 . S
H468 C446 0.930 . S
H469 C447 0.931 . S
H470 C449 0.934 . S
H471 C450 0.930 . S
H472 C490 0.951 1_565 S
H473 C492 0.951 1_565 S
H474 C494 0.950 . S
H475 C495 0.950 . S
H476 C497 0.950 . S
H477 C500 0.950 . S
H478 C501 0.950 . S
H479 C503 0.950 . S
H480 C504 0.950 1_565 S
H481 C505 0.951 . S
H482 C507 0.951 . S
H483 C509 0.950 . S
H484 C510 0.950 . S
H485 C512 0.950 . S
H486 C515 0.950 . S
H487 C516 0.950 . S
H488 C518 0.950 . S
H489 C519 0.950 . S
C490 H472 0.951 1_545 S
C490 C491 1.366 . S
C490 C492 1.388 . S
C491 C490 1.366 . S
C491 C495 1.385 . S
C492 H473 0.951 1_545 S
C492 C490 1.388 . S
C492 C493 1.366 . S
C493 C492 1.366 . S
C493 C494 1.414 . S
C493 C496 1.499 . S
C494 H474 0.950 . S
C494 C493 1.414 . S
C494 C495 1.374 . S
C495 H475 0.950 . S
C495 C491 1.385 . S
C495 C494 1.374 . S
C496 C493 1.499 . S
C496 C497 1.373 . S
C496 C498 1.389 . S
C497 H476 0.950 . S
C497 C496 1.373 . S
C497 C513 1.377 . S
C498 C496 1.389 . S
C498 C499 1.524 . S
C498 C512 1.377 . S
C499 C498 1.524 . S
C499 C500 1.397 . S
C499 C504 1.363 . S
C500 H477 0.950 . S
C500 C499 1.397 . S
C500 C501 1.334 . S
C501 H478 0.950 . S
C501 C500 1.334 . S
C501 C502 1.287 . S
C502 C501 1.287 . S
C502 C503 1.524 . S
C502 H521 0.913 . S
C503 H479 0.950 . S
C503 C502 1.524 . S
C503 C504 1.415 . S
C504 H480 0.950 1_545 S
C504 C499 1.363 . S
C504 C503 1.415 . S
C505 H481 0.951 . S
C505 C506 1.366 . S
C505 C507 1.388 . S
C506 C505 1.366 . S
C506 C510 1.385 1_545 S
C507 H482 0.951 . S
C507 C505 1.388 . S
C507 C508 1.366 . S
C508 C507 1.366 . S
C508 C509 1.414 1_545 S
C508 C511 1.499 . S
C509 H483 0.950 . S
C509 C508 1.414 1_565 S
C509 C510 1.374 . S
C510 H484 0.950 . S
C510 C506 1.385 1_565 S
C510 C509 1.374 . S
C511 C508 1.499 . S
C511 C512 1.373 . S
C511 C513 1.389 . S
C512 H485 0.950 . S
C512 C498 1.377 . S
C512 C511 1.373 . S
C513 C497 1.377 . S
C513 C511 1.389 . S
C513 C514 1.524 . S
C514 C513 1.524 . S
C514 C515 1.397 1_545 S
C514 C519 1.363 . S
C515 H486 0.950 . S
C515 C514 1.397 1_565 S
C515 C516 1.334 . S
C516 H487 0.950 . S
C516 C515 1.334 . S
C516 C517 1.287 . S
C517 C516 1.287 . S
C517 C518 1.524 1_565 S
C517 H520 0.999 . S
C518 H488 0.950 . S
C518 C517 1.524 1_545 S
C518 C519 1.415 . S
C519 H489 0.950 . S
C519 C514 1.363 . S
C519 C518 1.415 . S
H520 C517 0.999 . S
H521 C502 0.913 . S
H522 C540 0.951 . S
H523 C542 0.951 . S
H524 C544 0.950 . S
H525 C545 0.950 . S
H526 C547 0.950 . S
H527 C550 0.950 . S
H528 C551 0.950 . S
H529 C553 0.950 . S
H530 C554 0.950 . S
H531 C555 0.951 . S
H532 C557 0.951 . S
H533 C559 0.950 . S
H534 C560 0.950 . S
H535 C562 0.950 . S
H536 C565 0.950 . S
H537 C566 0.950 . S
H538 C568 0.950 . S
H539 C569 0.950 . S
C540 H522 0.951 . S
C540 C541 1.366 . S
C540 C542 1.388 . S
C541 C540 1.366 . S
C541 C545 1.385 . S
C542 H523 0.951 . S
C542 C540 1.388 . S
C542 C543 1.366 . S
C543 C542 1.366 . S
C543 C544 1.414 . S
C543 C546 1.499 . S
C544 H524 0.950 . S
C544 C543 1.414 . S
C544 C545 1.374 . S
C545 H525 0.950 . S
C545 C541 1.385 . S
C545 C544 1.374 . S
C546 C543 1.499 . S
C546 C547 1.373 . S
C546 C548 1.389 . S
C547 H526 0.950 . S
C547 C546 1.373 . S
C547 C563 1.377 . S
C548 C546 1.389 . S
C548 C549 1.524 . S
C548 C562 1.377 . S
C549 C548 1.524 . S
C549 C550 1.397 . S
C549 C554 1.363 . S
C550 H527 0.950 . S
C550 C549 1.397 . S
C550 C551 1.334 . S
C551 H528 0.950 . S
C551 C550 1.334 . S
C551 C552 1.287 . S
C552 C551 1.287 . S
C552 C553 1.524 . S
C552 H571 0.913 . S
C553 H529 0.950 . S
C553 C552 1.524 . S
C553 C554 1.415 . S
C554 H530 0.950 . S
C554 C549 1.363 . S
C554 C553 1.415 . S
C555 H531 0.951 . S
C555 C556 1.366 . S
C555 C557 1.388 . S
C556 C555 1.366 . S
C556 C560 1.385 . S
C557 H532 0.951 . S
C557 C555 1.388 . S
C557 C558 1.366 . S
C558 C557 1.366 . S
C558 C559 1.414 . S
C558 C561 1.499 . S
C559 H533 0.950 . S
C559 C558 1.414 . S
C559 C560 1.374 . S
C560 H534 0.950 . S
C560 C556 1.385 . S
C560 C559 1.374 . S
C561 C558 1.499 . S
C561 C562 1.373 . S
C561 C563 1.389 . S
C562 H535 0.950 . S
C562 C548 1.377 . S
C562 C561 1.373 . S
C563 C547 1.377 . S
C563 C561 1.389 . S
C563 C564 1.524 . S
C564 C563 1.524 . S
C564 C565 1.397 . S
C564 C569 1.363 . S
C565 H536 0.950 . S
C565 C564 1.397 . S
C565 C566 1.334 . S
C566 H537 0.950 . S
C566 C565 1.334 . S
C566 C567 1.287 . S
C567 C566 1.287 . S
C567 C568 1.524 . S
C567 H570 0.999 . S
C568 H538 0.950 . S
C568 C567 1.524 . S
C568 C569 1.415 . S
C569 H539 0.950 . S
C569 C564 1.363 . S
C569 C568 1.415 . S
H570 C567 0.999 . S
H571 C552 0.913 . S
H572 C590 0.951 . S
H573 C592 0.951 . S
H574 C594 0.950 . S
H575 C595 0.950 . S
H576 C597 0.950 . S
H577 C600 0.950 . S
H578 C601 0.950 . S
H579 C603 0.950 . S
H580 C604 0.950 . S
H581 C605 0.951 . S
H582 C607 0.951 . S
H583 C609 0.950 . S
H584 C610 0.950 . S
H585 C612 0.950 . S
H586 C615 0.950 . S
H587 C616 0.950 . S
H588 C618 0.950 . S
H589 C619 0.950 . S
C590 H572 0.951 . S
C590 C591 1.366 . S
C590 C592 1.388 . S
C591 C590 1.366 . S
C591 C595 1.385 . S
C592 H573 0.951 . S
C592 C590 1.388 . S
C592 C593 1.366 . S
C593 C592 1.366 . S
C593 C594 1.414 . S
C593 C596 1.499 . S
C594 H574 0.950 . S
C594 C593 1.414 . S
C594 C595 1.374 . S
C595 H575 0.950 . S
C595 C591 1.385 . S
C595 C594 1.374 . S
C596 C593 1.499 . S
C596 C597 1.373 . S
C596 C598 1.389 . S
C597 H576 0.950 . S
C597 C596 1.373 . S
C597 C613 1.377 . S
C598 C596 1.389 . S
C598 C599 1.524 . S
C598 C612 1.377 . S
C599 C598 1.524 . S
C599 C600 1.397 . S
C599 C604 1.363 . S
C600 H577 0.950 . S
C600 C599 1.397 . S
C600 C601 1.334 . S
C601 H578 0.950 . S
C601 C600 1.334 . S
C601 C602 1.287 . S
C602 C601 1.287 . S
C602 C603 1.524 . S
C602 H621 0.913 . S
C603 H579 0.950 . S
C603 C602 1.524 . S
C603 C604 1.415 . S
C604 H580 0.950 . S
C604 C599 1.363 . S
C604 C603 1.415 . S
C605 H581 0.951 . S
C605 C606 1.366 . S
C605 C607 1.388 . S
C606 C605 1.366 . S
C606 C610 1.385 . S
C607 H582 0.951 . S
C607 C605 1.388 . S
C607 C608 1.366 . S
C608 C607 1.366 . S
C608 C609 1.414 . S
C608 C611 1.499 . S
C609 H583 0.950 . S
C609 C608 1.414 . S
C609 C610 1.374 . S
C610 H584 0.950 . S
C610 C606 1.385 . S
C610 C609 1.374 . S
C611 C608 1.499 . S
C611 C612 1.373 . S
C611 C613 1.389 . S
C612 H585 0.950 . S
C612 C598 1.377 . S
C612 C611 1.373 . S
C613 C597 1.377 . S
C613 C611 1.389 . S
C613 C614 1.524 . S
C614 C613 1.524 . S
C614 C615 1.397 . S
C614 C619 1.363 . S
C615 H586 0.950 . S
C615 C614 1.397 . S
C615 C616 1.334 . S
C616 H587 0.950 . S
C616 C615 1.334 . S
C616 C617 1.287 . S
C617 C616 1.287 . S
C617 C618 1.524 . S
C617 H620 0.999 . S
C618 H588 0.950 . S
C618 C617 1.524 . S
C618 C619 1.415 . S
C619 H589 0.950 . S
C619 C614 1.363 . S
C619 C618 1.415 . S
H620 C617 0.999 . S
H621 C602 0.913 . S
H622 C640 0.951 . S
H623 C642 0.951 . S
H624 C644 0.950 . S
H625 C645 0.950 . S
H626 C647 0.950 . S
H627 C650 0.950 . S
H628 C651 0.950 . S
H629 C653 0.950 . S
H630 C654 0.950 . S
H631 C655 0.951 . S
H632 C657 0.951 . S
H633 C659 0.950 . S
H634 C660 0.950 . S
H635 C662 0.950 . S
H636 C665 0.950 . S
H637 C666 0.950 . S
H638 C668 0.950 . S
H639 C669 0.950 . S
C640 H622 0.951 . S
C640 C641 1.368 . S
C640 C642 1.388 . S
C641 C640 1.368 . S
C641 C645 1.382 1_455 S
C642 H623 0.951 . S
C642 C640 1.388 . S
C642 C643 1.404 . S
C643 C642 1.404 . S
C643 C644 1.375 1_455 S
C643 C646 1.498 . S
C644 H624 0.950 . S
C644 C643 1.375 1_655 S
C644 C645 1.374 . S
C645 H625 0.950 . S
C645 C641 1.382 1_655 S
C645 C644 1.374 . S
C646 C643 1.498 . S
C646 C647 1.345 1_455 S
C646 C648 1.417 . S
C647 H626 0.950 . S
C647 C646 1.345 1_655 S
C647 C663 1.377 . S
C648 C646 1.417 . S
C648 C649 1.524 . S
C648 C662 1.377 . S
C649 C648 1.524 . S
C649 C650 1.397 . S
C649 C654 1.363 . S
C650 H627 0.950 . S
C650 C649 1.397 . S
C650 C651 1.334 . S
C651 H628 0.950 . S
C651 C650 1.334 . S
C651 C652 1.287 . S
C652 C651 1.287 . S
C652 C653 1.524 . S
C652 H671 0.913 . S
C653 H629 0.950 . S
C653 C652 1.524 . S
C653 C654 1.415 . S
C654 H630 0.950 . S
C654 C649 1.363 . S
C654 C653 1.415 . S
C655 H631 0.951 . S
C655 C656 1.331 1_655 S
C655 C657 1.388 . S
C656 C655 1.331 1_455 S
C656 C660 1.420 . S
C657 H632 0.951 . S
C657 C655 1.388 . S
C657 C658 1.366 1_655 S
C658 C657 1.366 1_455 S
C658 C659 1.413 . S
C658 C661 1.498 . S
C659 H633 0.950 . S
C659 C658 1.413 . S
C659 C660 1.374 . S
C660 H634 0.950 . S
C660 C656 1.420 . S
C660 C659 1.374 . S
C661 C658 1.498 . S
C661 C662 1.392 . S
C661 C663 1.371 1_455 S
C662 H635 0.950 . S
C662 C648 1.377 . S
C662 C661 1.392 . S
C663 C647 1.377 . S
C663 C661 1.371 1_655 S
C663 C664 1.524 . S
C664 C663 1.524 . S
C664 C665 1.397 . S
C664 C669 1.363 . S
C665 H636 0.950 . S
C665 C664 1.397 . S
C665 C666 1.334 . S
C666 H637 0.950 . S
C666 C665 1.334 . S
C666 C667 1.287 . S
C667 C666 1.287 . S
C667 C668 1.524 . S
C667 H670 0.999 . S
C668 H638 0.950 . S
C668 C667 1.524 . S
C668 C669 1.415 . S
C669 H639 0.950 . S
C669 C664 1.363 . S
C669 C668 1.415 . S
H670 C667 0.999 . S
H671 C652 0.913 . S
H672 C690 0.951 . S
H673 C692 0.951 . S
H674 C694 0.950 . S
H675 C695 0.950 . S
H676 C697 0.950 . S
H677 C700 0.950 . S
H678 C701 0.950 . S
H679 C703 0.950 . S
H680 C704 0.950 . S
H681 C705 0.951 . S
H682 C707 0.951 . S
H683 C709 0.950 . S
H684 C710 0.950 . S
H685 C712 0.950 . S
H686 C715 0.950 . S
H687 C716 0.950 . S
H688 C718 0.950 . S
H689 C719 0.950 . S
C690 H672 0.951 . S
C690 C691 1.366 1_545 S
C690 C692 1.388 . S
C691 C690 1.366 1_565 S
C691 C695 1.385 . S
C692 H673 0.951 . S
C692 C690 1.388 . S
C692 C693 1.366 1_545 S
C693 C692 1.366 1_565 S
C693 C694 1.414 . S
C693 C696 1.499 . S
C694 H674 0.950 . S
C694 C693 1.414 . S
C694 C695 1.374 . S
C695 H675 0.950 . S
C695 C691 1.385 . S
C695 C694 1.374 . S
C696 C693 1.499 . S
C696 C697 1.373 . S
C696 C698 1.389 1_565 S
C697 H676 0.950 . S
C697 C696 1.373 . S
C697 C713 1.377 1_554 S
C698 C696 1.389 1_545 S
C698 C699 1.524 . S
C698 C712 1.377 1_554 S
C699 C698 1.524 . S
C699 C700 1.397 . S
C699 C704 1.363 . S
C700 H677 0.950 . S
C700 C699 1.397 . S
C700 C701 1.334 . S
C701 H678 0.950 . S
C701 C700 1.334 . S
C701 C702 1.287 . S
C702 C701 1.287 . S
C702 C703 1.524 . S
C702 H721 0.913 . S
C703 H679 0.950 . S
C703 C702 1.524 . S
C703 C704 1.415 . S
C704 H680 0.950 . S
C704 C699 1.363 . S
C704 C703 1.415 . S
C705 H681 0.951 . S
C705 C706 1.366 1_565 S
C705 C707 1.388 . S
C706 C705 1.366 1_545 S
C706 C710 1.385 . S
C707 H682 0.951 . S
C707 C705 1.388 . S
C707 C708 1.366 . S
C708 C707 1.366 . S
C708 C709 1.414 1_565 S
C708 C711 1.499 . S
C709 H683 0.950 . S
C709 C708 1.414 1_545 S
C709 C710 1.374 . S
C710 H684 0.950 . S
C710 C706 1.385 . S
C710 C709 1.374 . S
C711 C708 1.499 . S
C711 C712 1.373 1_565 S
C711 C713 1.389 . S
C712 H685 0.950 . S
C712 C698 1.377 1_556 S
C712 C711 1.373 1_545 S
C713 C697 1.377 1_556 S
C713 C711 1.389 . S
C713 C714 1.524 . S
C714 C713 1.524 . S
C714 C715 1.397 . S
C714 C719 1.363 . S
C715 H686 0.950 . S
C715 C714 1.397 . S
C715 C716 1.334 . S
C716 H687 0.950 . S
C716 C715 1.334 . S
C716 C717 1.287 . S
C717 C716 1.287 . S
C717 C718 1.524 . S
C717 H720 0.999 . S
C718 H688 0.950 . S
C718 C717 1.524 . S
C718 C719 1.415 . S
C719 H689 0.950 . S
C719 C714 1.363 . S
C719 C718 1.415 . S
H720 C717 0.999 . S
H721 C702 0.913 . S
H722 C740 0.951 . S
H723 C742 0.951 . S
H724 C744 0.950 . S
H725 C745 0.950 . S
H726 C747 0.950 . S
H727 C750 0.950 . S
H728 C751 0.950 . S
H729 C753 0.950 . S
H730 C754 0.950 . S
H731 C755 0.951 . S
H732 C757 0.951 . S
H733 C759 0.950 . S
H734 C760 0.950 . S
H735 C762 0.950 . S
H736 C765 0.950 . S
H737 C766 0.950 . S
H738 C768 0.950 . S
H739 C769 0.950 . S
C740 H722 0.951 . S
C740 C741 1.366 . S
C740 C742 1.388 . S
C741 C740 1.366 . S
C741 C745 1.385 . S
C742 H723 0.951 . S
C742 C740 1.388 . S
C742 C743 1.366 . S
C743 C742 1.366 . S
C743 C744 1.414 . S
C743 C746 1.499 . S
C744 H724 0.950 . S
C744 C743 1.414 . S
C744 C745 1.374 . S
C745 H725 0.950 . S
C745 C741 1.385 . S
C745 C744 1.374 . S
C746 C743 1.499 . S
C746 C747 1.373 1_554 S
C746 C748 1.389 . S
C747 H726 0.950 . S
C747 C746 1.373 1_556 S
C747 C763 1.377 . S
C748 C746 1.389 . S
C748 C749 1.524 . S
C748 C762 1.377 1_554 S
C749 C748 1.524 . S
C749 C750 1.397 . S
C749 C754 1.363 . S
C750 H727 0.950 . S
C750 C749 1.397 . S
C750 C751 1.334 . S
C751 H728 0.950 . S
C751 C750 1.334 . S
C751 C752 1.287 . S
C752 C751 1.287 . S
C752 C753 1.524 . S
C752 H771 0.913 . S
C753 H729 0.950 . S
C753 C752 1.524 . S
C753 C754 1.415 . S
C754 H730 0.950 . S
C754 C749 1.363 . S
C754 C753 1.415 . S
C755 H731 0.951 . S
C755 C756 1.366 . S
C755 C757 1.388 . S
C756 C755 1.366 . S
C756 C760 1.385 . S
C757 H732 0.951 . S
C757 C755 1.388 . S
C757 C758 1.366 . S
C758 C757 1.366 . S
C758 C759 1.414 . S
C758 C761 1.499 . S
C759 H733 0.950 . S
C759 C758 1.414 . S
C759 C760 1.374 . S
C760 H734 0.950 . S
C760 C756 1.385 . S
C760 C759 1.374 . S
C761 C758 1.499 . S
C761 C762 1.373 . S
C761 C763 1.389 . S
C762 H735 0.950 . S
C762 C748 1.377 1_556 S
C762 C761 1.373 . S
C763 C747 1.377 . S
C763 C761 1.389 . S
C763 C764 1.524 . S
C764 C763 1.524 . S
C764 C765 1.397 . S
C764 C769 1.363 . S
C765 H736 0.950 . S
C765 C764 1.397 . S
C765 C766 1.334 . S
C766 H737 0.950 . S
C766 C765 1.334 . S
C766 C767 1.287 . S
C767 C766 1.287 . S
C767 C768 1.524 . S
C767 H770 0.999 . S
C768 H738 0.950 . S
C768 C767 1.524 . S
C768 C769 1.415 . S
C769 H739 0.950 . S
C769 C764 1.363 . S
C769 C768 1.415 . S
H770 C767 0.999 . S
H771 C752 0.913 . S
H772 C790 0.951 . S
H773 C792 0.951 . S
H774 C794 0.950 . S
H775 C795 0.950 . S
H776 C797 0.950 . S
H777 C800 0.950 . S
H778 C801 0.950 . S
H779 C803 0.950 . S
H780 C804 0.950 . S
H781 C805 0.951 . S
H782 C807 0.951 . S
H783 C809 0.950 . S
H784 C810 0.950 . S
H785 C812 0.950 . S
H786 C815 0.950 . S
H787 C816 0.950 . S
H788 C818 0.950 . S
H789 C819 0.950 . S
C790 H772 0.951 . S
C790 C791 1.366 . S
C790 C792 1.388 . S
C791 C790 1.366 . S
C791 C795 1.385 . S
C792 H773 0.951 . S
C792 C790 1.388 . S
C792 C793 1.366 . S
C793 C792 1.366 . S
C793 C794 1.414 . S
C793 C796 1.499 . S
C794 H774 0.950 . S
C794 C793 1.414 . S
C794 C795 1.374 . S
C795 H775 0.950 . S
C795 C791 1.385 . S
C795 C794 1.374 . S
C796 C793 1.499 . S
C796 C797 1.373 1_554 S
C796 C798 1.389 . S
C797 H776 0.950 . S
C797 C796 1.373 1_556 S
C797 C813 1.377 . S
C798 C796 1.389 . S
C798 C799 1.524 . S
C798 C812 1.377 1_554 S
C799 C798 1.524 . S
C799 C800 1.397 . S
C799 C804 1.363 . S
C800 H777 0.950 . S
C800 C799 1.397 . S
C800 C801 1.334 . S
C801 H778 0.950 . S
C801 C800 1.334 . S
C801 C802 1.287 . S
C802 C801 1.287 . S
C802 C803 1.524 . S
C802 H821 0.913 . S
C803 H779 0.950 . S
C803 C802 1.524 . S
C803 C804 1.415 . S
C804 H780 0.950 . S
C804 C799 1.363 . S
C804 C803 1.415 . S
C805 H781 0.951 . S
C805 C806 1.366 . S
C805 C807 1.388 . S
C806 C805 1.366 . S
C806 C810 1.385 . S
C807 H782 0.951 . S
C807 C805 1.388 . S
C807 C808 1.366 . S
C808 C807 1.366 . S
C808 C809 1.414 . S
C808 C811 1.499 . S
C809 H783 0.950 . S
C809 C808 1.414 . S
C809 C810 1.374 . S
C810 H784 0.950 . S
C810 C806 1.385 . S
C810 C809 1.374 . S
C811 C808 1.499 . S
C811 C812 1.373 . S
C811 C813 1.389 . S
C812 H785 0.950 . S
C812 C798 1.377 1_556 S
C812 C811 1.373 . S
C813 C797 1.377 . S
C813 C811 1.389 . S
C813 C814 1.524 . S
C814 C813 1.524 . S
C814 C815 1.397 . S
C814 C819 1.363 . S
C815 H786 0.950 . S
C815 C814 1.397 . S
C815 C816 1.334 . S
C816 H787 0.950 . S
C816 C815 1.334 . S
C816 C817 1.287 . S
C817 C816 1.287 . S
C817 C818 1.524 . S
C817 H820 0.999 . S
C818 H788 0.950 . S
C818 C817 1.524 . S
C818 C819 1.415 . S
C819 H789 0.950 . S
C819 C814 1.363 . S
C819 C818 1.415 . S
H820 C817 0.999 . S
H821 C802 0.913 . S
H822 C840 0.951 . S
H823 C842 0.951 . S
H824 C844 0.950 . S
H825 C845 0.950 . S
H826 C847 0.950 . S
H827 C850 0.950 . S
H828 C851 0.950 . S
H829 C853 0.950 . S
H830 C854 0.950 . S
H831 C855 0.951 . S
H832 C857 0.951 . S
H833 C859 0.950 . S
H834 C860 0.950 . S
H835 C862 0.950 . S
H836 C865 0.950 . S
H837 C866 0.950 . S
H838 C868 0.950 . S
H839 C869 0.950 . S
C840 H822 0.951 . S
C840 C841 1.362 1_455 S
C840 C842 1.388 . S
C841 C840 1.362 1_655 S
C841 C845 1.388 . S
C842 H823 0.951 . S
C842 C840 1.388 . S
C842 C843 1.377 . S
C843 C842 1.377 . S
C843 C844 1.401 1_455 S
C843 C846 1.498 . S
C844 H824 0.950 . S
C844 C843 1.401 1_655 S
C844 C845 1.374 . S
C845 H825 0.950 . S
C845 C841 1.388 . S
C845 C844 1.374 . S
C846 C843 1.498 . S
C846 C847 1.377 1_455 S
C846 C848 1.386 . S
C847 H826 0.950 . S
C847 C846 1.377 1_655 S
C847 C863 1.377 1_554 S
C848 C846 1.386 . S
C848 C849 1.524 . S
C848 C862 1.377 1_554 S
C849 C848 1.524 . S
C849 C850 1.397 . S
C849 C854 1.363 . S
C850 H827 0.950 . S
C850 C849 1.397 . S
C850 C851 1.334 . S
C851 H828 0.950 . S
C851 C850 1.334 . S
C851 C852 1.287 . S
C852 C851 1.287 . S
C852 C853 1.524 . S
C852 H871 0.913 . S
C853 H829 0.950 . S
C853 C852 1.524 . S
C853 C854 1.415 . S
C854 H830 0.950 . S
C854 C849 1.363 . S
C854 C853 1.415 . S
C855 H831 0.951 . S
C855 C856 1.392 . S
C855 C857 1.388 . S
C856 C855 1.392 . S
C856 C860 1.360 1_655 S
C857 H832 0.951 . S
C857 C855 1.388 . S
C857 C858 1.366 . S
C858 C857 1.366 . S
C858 C859 1.414 1_655 S
C858 C861 1.501 . S
C859 H833 0.950 . S
C859 C858 1.414 1_455 S
C859 C860 1.374 . S
C860 H834 0.950 . S
C860 C856 1.360 1_455 S
C860 C859 1.374 . S
C861 C858 1.501 . S
C861 C862 1.316 1_655 S
C861 C863 1.445 . S
C862 H835 0.950 . S
C862 C848 1.377 1_556 S
C862 C861 1.316 1_455 S
C863 C847 1.377 1_556 S
C863 C861 1.445 . S
C863 C864 1.524 . S
C864 C863 1.524 . S
C864 C865 1.397 . S
C864 C869 1.363 . S
C865 H836 0.950 . S
C865 C864 1.397 . S
C865 C866 1.334 . S
C866 H837 0.950 . S
C866 C865 1.334 . S
C866 C867 1.287 . S
C867 C866 1.287 . S
C867 C868 1.524 . S
C867 H870 0.999 . S
C868 H838 0.950 . S
C868 C867 1.524 . S
C868 C869 1.415 . S
C869 H839 0.950 . S
C869 C864 1.363 . S
C869 C868 1.415 . S
H870 C867 0.999 . S
H871 C852 0.913 . S
H872 C890 0.951 . S
H873 C892 0.951 . S
H874 C894 0.950 . S
H875 C895 0.950 . S
H876 C897 0.950 . S
H877 C900 0.950 . S
H878 C901 0.950 . S
H879 C903 0.950 . S
H880 C904 0.950 . S
H881 C905 0.951 . S
H882 C907 0.951 . S
H883 C909 0.950 . S
H884 C910 0.950 . S
H885 C912 0.976 . S
H886 C915 0.950 . S
H887 C916 0.950 . S
H888 C918 0.950 . S
H889 C919 0.950 . S
C890 H872 0.951 . S
C890 C891 1.366 . S
C890 C892 1.388 . S
C891 C890 1.366 . S
C891 C895 1.385 1_455 S
C892 H873 0.951 . S
C892 C890 1.388 . S
C892 C893 1.366 1_455 S
C893 C892 1.366 1_655 S
C893 C894 1.414 . S
C893 C896 1.499 . S
C894 H874 0.950 . S
C894 C893 1.414 . S
C894 C895 1.374 . S
C895 H875 0.950 . S
C895 C891 1.385 1_655 S
C895 C894 1.374 . S
C896 C893 1.499 . S
C896 C897 1.373 . S
C896 C898 1.389 1_655 S
C897 H876 0.950 . S
C897 C896 1.373 . S
C897 C913 1.377 . S
C898 C896 1.389 1_455 S
C898 C899 1.524 . S
C898 C912 1.384 . S
C899 C898 1.524 . S
C899 C900 1.397 . S
C899 C904 1.363 . S
C900 H877 0.950 . S
C900 C899 1.397 . S
C900 C901 1.334 . S
C901 H878 0.950 . S
C901 C900 1.334 . S
C901 C902 1.287 . S
C902 C901 1.287 . S
C902 C903 1.524 . S
C902 H921 0.913 . S
C903 H879 0.950 . S
C903 C902 1.524 . S
C903 C904 1.415 . S
C904 H880 0.950 . S
C904 C899 1.363 . S
C904 C903 1.415 . S
C905 H881 0.951 . S
C905 C906 1.366 . S
C905 C907 1.388 . S
C906 C905 1.366 . S
C906 C910 1.385 . S
C907 H882 0.951 . S
C907 C905 1.388 . S
C907 C908 1.366 . S
C908 C907 1.366 . S
C908 C909 1.414 . S
C908 C911 1.499 . S
C909 H883 0.950 . S
C909 C908 1.414 . S
C909 C910 1.374 . S
C910 H884 0.950 . S
C910 C906 1.385 . S
C910 C909 1.374 . S
C911 C908 1.499 . S
C911 C912 1.340 1_655 S
C911 C913 1.389 . S
C912 H885 0.976 . S
C912 C898 1.384 . S
C912 C911 1.340 1_455 S
C913 C897 1.377 . S
C913 C911 1.389 . S
C913 C914 1.524 . S
C914 C913 1.524 . S
C914 C915 1.397 . S
C914 C919 1.363 . S
C915 H886 0.950 . S
C915 C914 1.397 . S
C915 C916 1.334 . S
C916 H887 0.950 . S
C916 C915 1.334 . S
C916 C917 1.287 . S
C917 C916 1.287 . S
C917 C918 1.524 . S
C917 H920 0.999 . S
C918 H888 0.950 . S
C918 C917 1.524 . S
C918 C919 1.415 . S
C919 H889 0.950 . S
C919 C914 1.363 . S
C919 C918 1.415 . S
H920 C917 0.999 . S
H921 C902 0.913 . S
H922 C940 0.951 1_565 S
H923 C942 0.951 . S
H924 C944 0.950 . S
H925 C945 0.950 . S
H926 C947 0.955 . S
H927 C950 0.950 . S
H928 C951 0.950 . S
H929 C953 0.950 . S
H930 C954 0.950 . S
H931 C955 0.940 1_545 S
H932 C957 0.951 1_545 S
H933 C959 0.950 . S
H934 C960 0.950 . S
H935 C962 0.950 . S
H936 C965 0.950 . S
H937 C966 0.950 . S
H938 C968 0.925 1_545 S
H939 C969 0.950 . S
C940 H922 0.951 1_545 S
C940 C941 1.366 . S
C940 C942 1.388 1_545 S
C941 C940 1.366 . S
C941 C945 1.385 . S
C942 H923 0.951 . S
C942 C940 1.388 1_565 S
C942 C943 1.366 1_565 S
C943 C942 1.366 1_545 S
C943 C944 1.414 . S
C943 C946 1.499 . S
C944 H924 0.950 . S
C944 C943 1.414 . S
C944 C945 1.374 . S
C945 H925 0.950 . S
C945 C941 1.385 . S
C945 C944 1.374 . S
C946 C943 1.499 . S
C946 C947 1.377 . S
C946 C948 1.389 . S
C947 H926 0.955 . S
C947 C946 1.377 . S
C947 C963 1.369 1_545 S
C948 C946 1.389 . S
C948 C949 1.524 . S
C948 C962 1.377 1_545 S
C949 C948 1.524 . S
C949 C950 1.397 . S
C949 C954 1.363 1_545 S
C950 H927 0.950 . S
C950 C949 1.397 . S
C950 C951 1.334 . S
C951 H928 0.950 . S
C951 C950 1.334 . S
C951 C952 1.287 . S
C952 C951 1.287 . S
C952 C953 1.524 1_545 S
C952 H971 0.913 . S
C953 H929 0.950 . S
C953 C952 1.524 1_565 S
C953 C954 1.415 . S
C954 H930 0.950 . S
C954 C949 1.363 1_565 S
C954 C953 1.415 . S
C955 H931 0.940 1_565 S
C955 C956 1.366 . S
C955 C957 1.388 . S
C956 C955 1.366 . S
C956 C960 1.385 . S
C957 H932 0.951 1_565 S
C957 C955 1.388 . S
C957 C958 1.366 . S
C958 C957 1.366 . S
C958 C959 1.414 . S
C958 C961 1.499 . S
C959 H933 0.950 . S
C959 C958 1.414 . S
C959 C960 1.374 . S
C960 H934 0.950 . S
C960 C956 1.385 . S
C960 C959 1.374 . S
C961 C958 1.499 . S
C961 C962 1.373 . S
C961 C963 1.389 . S
C962 H935 0.950 . S
C962 C948 1.377 1_565 S
C962 C961 1.373 . S
C963 C947 1.369 1_565 S
C963 C961 1.389 . S
C963 C964 1.524 . S
C964 C963 1.524 . S
C964 C965 1.397 . S
C964 C969 1.363 1_565 S
C965 H936 0.950 . S
C965 C964 1.397 . S
C965 C966 1.334 . S
C966 H937 0.950 . S
C966 C965 1.334 . S
C966 C967 1.287 . S
C967 C966 1.287 . S
C967 C968 1.561 . S
C967 H970 0.999 . S
C968 H938 0.925 1_565 S
C968 C967 1.561 . S
C968 C969 1.407 1_565 S
C969 H939 0.950 . S
C969 C964 1.363 1_545 S
C969 C968 1.407 1_545 S
H970 C967 0.999 . S
H971 C952 0.913 . S
H972 C990 0.951 . S
H973 C992 0.951 . S
H974 C994 0.950 . S
H975 C995 0.950 . S
H976 C997 0.950 . S
H977 C1000 0.950 . S
H978 C1001 0.950 . S
H979 C1003 0.950 . S
H980 C1004 0.950 . S
H981 C1005 0.951 . S
H982 C1007 0.951 . S
H983 C1009 0.950 . S
H984 C1010 0.950 . S
H985 C1012 0.950 . S
H986 C1015 0.950 . S
H987 C1016 0.950 . S
H988 C1018 0.950 . S
H989 C1019 0.950 . S
C990 H972 0.951 . S
C990 C991 1.366 . S
C990 C992 1.388 . S
C991 C990 1.366 . S
C991 C995 1.385 . S
C992 H973 0.951 . S
C992 C990 1.388 . S
C992 C993 1.366 . S
C993 C992 1.366 . S
C993 C994 1.414 . S
C993 C996 1.499 . S
C994 H974 0.950 . S
C994 C993 1.414 . S
C994 C995 1.374 . S
C995 H975 0.950 . S
C995 C991 1.385 . S
C995 C994 1.374 . S
C996 C993 1.499 . S
C996 C997 1.373 . S
C996 C998 1.389 . S
C997 H976 0.950 . S
C997 C996 1.373 . S
C997 C1013 1.377 . S
C998 C996 1.389 . S
C998 C999 1.524 . S
C998 C1012 1.377 . S
C999 C998 1.524 . S
C999 C1000 1.397 . S
C999 C1004 1.363 . S
C1000 H977 0.950 . S
C1000 C999 1.397 . S
C1000 C1001 1.334 . S
C1001 H978 0.950 . S
C1001 C1000 1.334 . S
C1001 C1002 1.287 . S
C1002 C1001 1.287 . S
C1002 C1003 1.524 . S
C1002 H1021 0.913 . S
C1003 H979 0.950 . S
C1003 C1002 1.524 . S
C1003 C1004 1.415 . S
C1004 H980 0.950 . S
C1004 C999 1.363 . S
C1004 C1003 1.415 . S
C1005 H981 0.951 . S
C1005 C1006 1.366 . S
C1005 C1007 1.388 . S
C1006 C1005 1.366 . S
C1006 C1010 1.385 . S
C1007 H982 0.951 . S
C1007 C1005 1.388 . S
C1007 C1008 1.366 . S
C1008 C1007 1.366 . S
C1008 C1009 1.414 . S
C1008 C1011 1.499 . S
C1009 H983 0.950 . S
C1009 C1008 1.414 . S
C1009 C1010 1.374 . S
C1010 H984 0.950 . S
C1010 C1006 1.385 . S
C1010 C1009 1.374 . S
C1011 C1008 1.499 . S
C1011 C1012 1.373 . S
C1011 C1013 1.389 . S
C1012 H985 0.950 . S
C1012 C998 1.377 . S
C1012 C1011 1.373 . S
C1013 C997 1.377 . S
C1013 C1011 1.389 . S
C1013 C1014 1.524 . S
C1014 C1013 1.524 . S
C1014 C1015 1.397 . S
C1014 C1019 1.363 . S
C1015 H986 0.950 . S
C1015 C1014 1.397 . S
C1015 C1016 1.334 . S
C1016 H987 0.950 . S
C1016 C1015 1.334 . S
C1016 C1017 1.287 . S
C1017 C1016 1.287 . S
C1017 C1018 1.524 . S
C1017 H1020 0.999 . S
C1018 H988 0.950 . S
C1018 C1017 1.524 . S
C1018 C1019 1.415 . S
C1019 H989 0.950 . S
C1019 C1014 1.363 . S
C1019 C1018 1.415 . S
H1020 C1017 0.999 . S
H1021 C1002 0.913 . S
H1022 C1040 0.951 . S
H1023 C1042 0.951 . S
H1024 C1044 0.950 . S
H1025 C1045 0.950 . S
H1026 C1047 0.950 . S
H1027 C1050 0.950 . S
H1028 C1051 0.950 . S
H1029 C1053 0.950 . S
H1030 C1054 0.950 . S
H1031 C1055 0.951 . S
H1032 C1057 0.951 . S
H1033 C1059 0.950 . S
H1034 C1060 0.950 . S
H1035 C1062 0.950 . S
H1036 C1065 0.950 . S
H1037 C1066 0.950 . S
H1038 C1068 0.950 . S
H1039 C1069 0.950 . S
C1040 H1022 0.951 . S
C1040 C1041 1.366 . S
C1040 C1042 1.388 . S
C1041 C1040 1.366 . S
C1041 C1045 1.385 . S
C1042 H1023 0.951 . S
C1042 C1040 1.388 . S
C1042 C1043 1.366 . S
C1043 C1042 1.366 . S
C1043 C1044 1.414 . S
C1043 C1046 1.499 . S
C1044 H1024 0.950 . S
C1044 C1043 1.414 . S
C1044 C1045 1.374 . S
C1045 H1025 0.950 . S
C1045 C1041 1.385 . S
C1045 C1044 1.374 . S
C1046 C1043 1.499 . S
C1046 C1047 1.373 . S
C1046 C1048 1.389 . S
C1047 H1026 0.950 . S
C1047 C1046 1.373 . S
C1047 C1063 1.377 . S
C1048 C1046 1.389 . S
C1048 C1049 1.524 . S
C1048 C1062 1.377 . S
C1049 C1048 1.524 . S
C1049 C1050 1.397 . S
C1049 C1054 1.363 . S
C1050 H1027 0.950 . S
C1050 C1049 1.397 . S
C1050 C1051 1.334 . S
C1051 H1028 0.950 . S
C1051 C1050 1.334 . S
C1051 C1052 1.287 . S
C1052 C1051 1.287 . S
C1052 C1053 1.524 . S
C1052 H1071 0.913 . S
C1053 H1029 0.950 . S
C1053 C1052 1.524 . S
C1053 C1054 1.415 . S
C1054 H1030 0.950 . S
C1054 C1049 1.363 . S
C1054 C1053 1.415 . S
C1055 H1031 0.951 . S
C1055 C1056 1.366 . S
C1055 C1057 1.388 . S
C1056 C1055 1.366 . S
C1056 C1060 1.385 . S
C1057 H1032 0.951 . S
C1057 C1055 1.388 . S
C1057 C1058 1.366 . S
C1058 C1057 1.366 . S
C1058 C1059 1.414 . S
C1058 C1061 1.499 . S
C1059 H1033 0.950 . S
C1059 C1058 1.414 . S
C1059 C1060 1.374 . S
C1060 H1034 0.950 . S
C1060 C1056 1.385 . S
C1060 C1059 1.374 . S
C1061 C1058 1.499 . S
C1061 C1062 1.373 . S
C1061 C1063 1.389 . S
C1062 H1035 0.950 . S
C1062 C1048 1.377 . S
C1062 C1061 1.373 . S
C1063 C1047 1.377 . S
C1063 C1061 1.389 . S
C1063 C1064 1.524 . S
C1064 C1063 1.524 . S
C1064 C1065 1.397 . S
C1064 C1069 1.363 . S
C1065 H1036 0.950 . S
C1065 C1064 1.397 . S
C1065 C1066 1.334 . S
C1066 H1037 0.950 . S
C1066 C1065 1.334 . S
C1066 C1067 1.287 . S
C1067 C1066 1.287 . S
C1067 C1068 1.524 . S
C1067 H1070 0.999 . S
C1068 H1038 0.950 . S
C1068 C1067 1.524 . S
C1068 C1069 1.415 . S
C1069 H1039 0.950 . S
C1069 C1064 1.363 . S
C1069 C1068 1.415 . S
H1070 C1067 0.999 . S
H1071 C1052 0.913 . S
H1072 C1090 0.951 . S
H1073 C1092 0.951 . S
H1074 C1094 0.950 . S
H1075 C1095 0.950 . S
H1076 C1097 0.950 . S
H1077 C1100 0.950 1_455 S
H1078 C1101 0.950 . S
H1079 C1103 0.950 . S
H1080 C1104 0.950 . S
H1081 C1105 0.951 . S
H1082 C1107 0.951 . S
H1083 C1109 0.950 1_655 S
H1084 C1110 0.970 . S
H1085 C1112 0.950 1_655 S
H1086 C1115 0.950 . S
H1087 C1116 0.950 . S
H1088 C1118 0.950 . S
H1089 C1119 0.950 . S
C1090 H1072 0.951 . S
C1090 C1091 1.366 . S
C1090 C1092 1.388 . S
C1091 C1090 1.366 . S
C1091 C1095 1.385 1_655 S
C1092 H1073 0.951 . S
C1092 C1090 1.388 . S
C1092 C1093 1.366 1_655 S
C1093 C1092 1.366 1_455 S
C1093 C1094 1.414 . S
C1093 C1096 1.499 . S
C1094 H1074 0.950 . S
C1094 C1093 1.414 . S
C1094 C1095 1.374 . S
C1095 H1075 0.950 . S
C1095 C1091 1.385 1_455 S
C1095 C1094 1.374 . S
C1096 C1093 1.499 . S
C1096 C1097 1.373 . S
C1096 C1098 1.382 1_454 S
C1097 H1076 0.950 . S
C1097 C1096 1.373 . S
C1097 C1113 1.373 1_554 S
C1098 C1096 1.382 1_656 S
C1098 C1099 1.533 . S
C1098 C1112 1.374 1_655 S
C1099 C1098 1.533 . S
C1099 C1100 1.397 . S
C1099 C1104 1.363 . S
C1100 H1077 0.950 1_655 S
C1100 C1099 1.397 . S
C1100 C1101 1.334 . S
C1101 H1078 0.950 . S
C1101 C1100 1.334 . S
C1101 C1102 1.287 . S
C1102 C1101 1.287 . S
C1102 C1103 1.524 . S
C1102 H1121 0.913 . S
C1103 H1079 0.950 . S
C1103 C1102 1.524 . S
C1103 C1104 1.415 . S
C1104 H1080 0.950 . S
C1104 C1099 1.363 . S
C1104 C1103 1.415 . S
C1105 H1081 0.951 . S
C1105 C1106 1.366 . S
C1105 C1107 1.388 . S
C1106 C1105 1.366 . S
C1106 C1110 1.385 . S
C1107 H1082 0.951 . S
C1107 C1105 1.388 . S
C1107 C1108 1.366 . S
C1108 C1107 1.366 . S
C1108 C1109 1.414 . S
C1108 C1111 1.499 . S
C1109 H1083 0.950 1_455 S
C1109 C1108 1.414 . S
C1109 C1110 1.374 . S
C1110 H1084 0.970 . S
C1110 C1106 1.385 . S
C1110 C1109 1.374 . S
C1111 C1108 1.499 . S
C1111 C1112 1.373 . S
C1111 C1113 1.395 . S
C1112 H1085 0.950 1_455 S
C1112 C1098 1.374 1_455 S
C1112 C1111 1.373 . S
C1113 C1097 1.373 1_556 S
C1113 C1111 1.395 . S
C1113 C1114 1.521 1_556 S
C1114 C1113 1.521 1_554 S
C1114 C1115 1.397 . S
C1114 C1119 1.363 . S
C1115 H1086 0.950 . S
C1115 C1114 1.397 . S
C1115 C1116 1.334 . S
C1116 H1087 0.950 . S
C1116 C1115 1.334 . S
C1116 C1117 1.287 . S
C1117 C1116 1.287 . S
C1117 C1118 1.524 . S
C1117 H1120 0.999 . S
C1118 H1088 0.950 . S
C1118 C1117 1.524 . S
C1118 C1119 1.415 . S
C1119 H1089 0.950 . S
C1119 C1114 1.363 . S
C1119 C1118 1.415 . S
H1120 C1117 0.999 . S
H1121 C1102 0.913 . S
H1122 C1140 0.951 . S
H1123 C1142 0.951 . S
H1124 C1144 0.950 1_556 S
H1125 C1145 0.950 . S
H1126 C1147 0.950 . S
H1127 C1150 0.950 . S
H1128 C1151 0.950 . S
H1129 C1153 0.950 . S
H1130 C1154 0.950 1_545 S
H1131 C1155 0.951 . S
H1132 C1157 0.951 . S
H1133 C1159 0.950 . S
H1134 C1160 0.950 . S
H1135 C1162 0.950 . S
H1136 C1165 0.950 . S
H1137 C1166 0.950 . S
H1138 C1168 0.950 . S
H1139 C1169 0.950 . S
C1140 H1122 0.951 . S
C1140 C1141 1.365 1_545 S
C1140 C1142 1.388 . S
C1141 C1140 1.365 1_565 S
C1141 C1145 1.385 . S
C1142 H1123 0.951 . S
C1142 C1140 1.388 . S
C1142 C1143 1.371 . S
C1143 C1142 1.371 . S
C1143 C1144 1.404 1_545 S
C1143 C1146 1.505 . S
C1144 H1124 0.950 1_554 S
C1144 C1143 1.404 1_565 S
C1144 C1145 1.374 . S
C1145 H1125 0.950 . S
C1145 C1141 1.385 . S
C1145 C1144 1.374 . S
C1146 C1143 1.505 . S
C1146 C1147 1.373 1_554 S
C1146 C1148 1.394 . S
C1147 H1126 0.950 . S
C1147 C1146 1.373 1_556 S
C1147 C1163 1.377 . S
C1148 C1146 1.394 . S
C1148 C1149 1.513 1_545 S
C1148 C1162 1.383 . S
C1149 C1148 1.513 1_565 S
C1149 C1150 1.397 . S
C1149 C1154 1.363 . S
C1150 H1127 0.950 . S
C1150 C1149 1.397 . S
C1150 C1151 1.334 . S
C1151 H1128 0.950 . S
C1151 C1150 1.334 . S
C1151 C1152 1.287 . S
C1152 C1151 1.287 . S
C1152 C1153 1.524 . S
C1152 H1171 0.913 . S
C1153 H1129 0.950 . S
C1153 C1152 1.524 . S
C1153 C1154 1.415 . S
C1154 H1130 0.950 1_565 S
C1154 C1149 1.363 . S
C1154 C1153 1.415 . S
C1155 H1131 0.951 . S
C1155 C1156 1.366 . S
C1155 C1157 1.388 . S
C1156 C1155 1.366 . S
C1156 C1160 1.385 . S
C1157 H1132 0.951 . S
C1157 C1155 1.388 . S
C1157 C1158 1.366 . S
C1158 C1157 1.366 . S
C1158 C1159 1.414 . S
C1158 C1161 1.499 . S
C1159 H1133 0.950 . S
C1159 C1158 1.414 . S
C1159 C1160 1.374 . S
C1160 H1134 0.950 . S
C1160 C1156 1.385 . S
C1160 C1159 1.374 . S
C1161 C1158 1.499 . S
C1161 C1162 1.373 1_556 S
C1161 C1163 1.389 . S
C1162 H1135 0.950 . S
C1162 C1148 1.383 . S
C1162 C1161 1.373 1_554 S
C1163 C1147 1.377 . S
C1163 C1161 1.389 . S
C1163 C1164 1.524 . S
C1164 C1163 1.524 . S
C1164 C1165 1.397 . S
C1164 C1169 1.363 . S
C1165 H1136 0.950 . S
C1165 C1164 1.397 . S
C1165 C1166 1.334 . S
C1166 H1137 0.950 . S
C1166 C1165 1.334 . S
C1166 C1167 1.287 . S
C1167 C1166 1.287 . S
C1167 C1168 1.524 . S
C1167 H1170 0.999 . S
C1168 H1138 0.950 . S
C1168 C1167 1.524 . S
C1168 C1169 1.415 . S
C1169 H1139 0.950 . S
C1169 C1164 1.363 . S
C1169 C1168 1.415 . S
H1170 C1167 0.999 . S
H1171 C1152 0.913 . S
H1172 C1190 0.951 . S
H1173 C1192 0.951 . S
H1174 C1194 0.950 . S
H1175 C1195 0.950 . S
H1176 C1197 0.950 . S
H1177 C1200 0.950 . S
H1178 C1201 0.950 . S
H1179 C1203 0.950 . S
H1180 C1204 0.950 . S
H1181 C1205 0.951 . S
H1182 C1207 0.951 . S
H1183 C1209 0.950 . S
H1184 C1210 0.950 . S
H1185 C1212 0.950 . S
H1186 C1215 0.950 . S
H1187 C1216 0.950 . S
H1188 C1218 0.950 . S
H1189 C1219 0.950 . S
C1190 H1172 0.951 . S
C1190 C1191 1.366 . S
C1190 C1192 1.388 . S
C1191 C1190 1.366 . S
C1191 C1195 1.385 . S
C1192 H1173 0.951 . S
C1192 C1190 1.388 . S
C1192 C1193 1.366 . S
C1193 C1192 1.366 . S
C1193 C1194 1.414 . S
C1193 C1196 1.499 . S
C1194 H1174 0.950 . S
C1194 C1193 1.414 . S
C1194 C1195 1.374 . S
C1195 H1175 0.950 . S
C1195 C1191 1.385 . S
C1195 C1194 1.374 . S
C1196 C1193 1.499 . S
C1196 C1197 1.373 . S
C1196 C1198 1.389 1_554 S
C1197 H1176 0.950 . S
C1197 C1196 1.373 . S
C1197 C1213 1.377 1_554 S
C1198 C1196 1.389 1_556 S
C1198 C1199 1.524 . S
C1198 C1212 1.377 . S
C1199 C1198 1.524 . S
C1199 C1200 1.397 . S
C1199 C1204 1.363 . S
C1200 H1177 0.950 . S
C1200 C1199 1.397 . S
C1200 C1201 1.334 . S
C1201 H1178 0.950 . S
C1201 C1200 1.334 . S
C1201 C1202 1.287 . S
C1202 C1201 1.287 . S
C1202 C1203 1.524 . S
C1202 H1221 0.913 . S
C1203 H1179 0.950 . S
C1203 C1202 1.524 . S
C1203 C1204 1.415 . S
C1204 H1180 0.950 . S
C1204 C1199 1.363 . S
C1204 C1203 1.415 . S
C1205 H1181 0.951 . S
C1205 C1206 1.366 . S
C1205 C1207 1.388 . S
C1206 C1205 1.366 . S
C1206 C1210 1.385 . S
C1207 H1182 0.951 . S
C1207 C1205 1.388 . S
C1207 C1208 1.366 . S
C1208 C1207 1.366 . S
C1208 C1209 1.414 . S
C1208 C1211 1.499 . S
C1209 H1183 0.950 . S
C1209 C1208 1.414 . S
C1209 C1210 1.374 . S
C1210 H1184 0.950 . S
C1210 C1206 1.385 . S
C1210 C1209 1.374 . S
C1211 C1208 1.499 . S
C1211 C1212 1.373 . S
C1211 C1213 1.389 . S
C1212 H1185 0.950 . S
C1212 C1198 1.377 . S
C1212 C1211 1.373 . S
C1213 C1197 1.377 1_556 S
C1213 C1211 1.389 . S
C1213 C1214 1.524 . S
C1214 C1213 1.524 . S
C1214 C1215 1.397 1_556 S
C1214 C1219 1.363 . S
C1215 H1186 0.950 . S
C1215 C1214 1.397 1_554 S
C1215 C1216 1.334 . S
C1216 H1187 0.950 . S
C1216 C1215 1.334 . S
C1216 C1217 1.287 . S
C1217 C1216 1.287 . S
C1217 C1218 1.524 1_554 S
C1217 H1220 0.999 . S
C1218 H1188 0.950 . S
C1218 C1217 1.524 1_556 S
C1218 C1219 1.415 . S
C1219 H1189 0.950 . S
C1219 C1214 1.363 . S
C1219 C1218 1.415 . S
H1220 C1217 0.999 . S
H1221 C1202 0.913 . S
H1222 C1240 0.951 . S
H1223 C1242 0.951 . S
H1224 C1244 0.950 1_556 S
H1225 C1245 0.950 . S
H1226 C1247 0.950 . S
H1227 C1250 0.950 . S
H1228 C1251 0.950 . S
H1229 C1253 0.950 . S
H1230 C1254 0.950 . S
H1231 C1255 0.951 . S
H1232 C1257 0.951 . S
H1233 C1259 0.950 . S
H1234 C1260 0.950 . S
H1235 C1262 0.950 1_554 S
H1236 C1265 0.950 . S
H1237 C1266 0.950 . S
H1238 C1268 0.950 . S
H1239 C1269 0.950 . S
C1240 H1222 0.951 . S
C1240 C1241 1.366 . S
C1240 C1242 1.388 . S
C1241 C1240 1.366 . S
C1241 C1245 1.385 . S
C1242 H1223 0.951 . S
C1242 C1240 1.388 . S
C1242 C1243 1.366 . S
C1243 C1242 1.366 . S
C1243 C1244 1.414 . S
C1243 C1246 1.499 . S
C1244 H1224 0.950 1_554 S
C1244 C1243 1.414 . S
C1244 C1245 1.374 . S
C1245 H1225 0.950 . S
C1245 C1241 1.385 . S
C1245 C1244 1.374 . S
C1246 C1243 1.499 . S
C1246 C1247 1.373 1_554 S
C1246 C1248 1.389 . S
C1247 H1226 0.950 . S
C1247 C1246 1.373 1_556 S
C1247 C1263 1.377 . S
C1248 C1246 1.389 . S
C1248 C1249 1.524 . S
C1248 C1262 1.377 1_554 S
C1249 C1248 1.524 . S
C1249 C1250 1.397 . S
C1249 C1254 1.363 . S
C1250 H1227 0.950 . S
C1250 C1249 1.397 . S
C1250 C1251 1.334 . S
C1251 H1228 0.950 . S
C1251 C1250 1.334 . S
C1251 C1252 1.287 . S
C1252 C1251 1.287 . S
C1252 C1253 1.524 . S
C1252 H1271 0.913 . S
C1253 H1229 0.950 . S
C1253 C1252 1.524 . S
C1253 C1254 1.415 . S
C1254 H1230 0.950 . S
C1254 C1249 1.363 . S
C1254 C1253 1.415 . S
C1255 H1231 0.951 . S
C1255 C1256 1.366 . S
C1255 C1257 1.388 . S
C1256 C1255 1.366 . S
C1256 C1260 1.385 . S
C1257 H1232 0.951 . S
C1257 C1255 1.388 . S
C1257 C1258 1.366 . S
C1258 C1257 1.366 . S
C1258 C1259 1.414 . S
C1258 C1261 1.499 . S
C1259 H1233 0.950 . S
C1259 C1258 1.414 . S
C1259 C1260 1.374 . S
C1260 H1234 0.950 . S
C1260 C1256 1.385 . S
C1260 C1259 1.374 . S
C1261 C1258 1.499 . S
C1261 C1262 1.373 . S
C1261 C1263 1.389 . S
C1262 H1235 0.950 1_556 S
C1262 C1248 1.377 1_556 S
C1262 C1261 1.373 . S
C1263 C1247 1.377 . S
C1263 C1261 1.389 . S
C1263 C1264 1.524 . S
C1264 C1263 1.524 . S
C1264 C1265 1.397 . S
C1264 C1269 1.363 . S
C1265 H1236 0.950 . S
C1265 C1264 1.397 . S
C1265 C1266 1.334 . S
C1266 H1237 0.950 . S
C1266 C1265 1.334 . S
C1266 C1267 1.287 . S
C1267 C1266 1.287 . S
C1267 C1268 1.524 . S
C1267 H1270 0.999 . S
C1268 H1238 0.950 . S
C1268 C1267 1.524 . S
C1268 C1269 1.415 . S
C1269 H1239 0.950 . S
C1269 C1264 1.363 . S
C1269 C1268 1.415 . S
H1270 C1267 0.999 . S
H1271 C1252 0.913 . S
H1272 C1290 0.951 . S
H1273 C1292 0.951 . S
H1274 C1294 0.950 . S
H1275 C1295 0.950 . S
H1276 C1297 0.950 . S
H1277 C1300 0.950 . S
H1278 C1301 0.950 . S
H1279 C1303 0.950 . S
H1280 C1304 0.950 . S
H1281 C1305 0.951 . S
H1282 C1307 0.951 . S
H1283 C1309 0.950 . S
H1284 C1310 0.950 . S
H1285 C1312 0.950 . S
H1286 C1315 0.950 . S
H1287 C1316 0.950 . S
H1288 C1318 0.950 . S
H1289 C1319 0.950 . S
C1290 H1272 0.951 . S
C1290 C1291 1.366 . S
C1290 C1292 1.388 . S
C1291 C1290 1.366 . S
C1291 C1295 1.385 . S
C1292 H1273 0.951 . S
C1292 C1290 1.388 . S
C1292 C1293 1.366 . S
C1293 C1292 1.366 . S
C1293 C1294 1.414 . S
C1293 C1296 1.499 . S
C1294 H1274 0.950 . S
C1294 C1293 1.414 . S
C1294 C1295 1.374 . S
C1295 H1275 0.950 . S
C1295 C1291 1.385 . S
C1295 C1294 1.374 . S
C1296 C1293 1.499 . S
C1296 C1297 1.373 . S
C1296 C1298 1.389 1_455 S
C1297 H1276 0.950 . S
C1297 C1296 1.373 . S
C1297 C1313 1.377 . S
C1298 C1296 1.389 1_655 S
C1298 C1299 1.524 . S
C1298 C1312 1.377 . S
C1299 C1298 1.524 . S
C1299 C1300 1.397 . S
C1299 C1304 1.363 . S
C1300 H1277 0.950 . S
C1300 C1299 1.397 . S
C1300 C1301 1.334 . S
C1301 H1278 0.950 . S
C1301 C1300 1.334 . S
C1301 C1302 1.287 . S
C1302 C1301 1.287 . S
C1302 C1303 1.524 . S
C1302 H1321 0.913 . S
C1303 H1279 0.950 . S
C1303 C1302 1.524 . S
C1303 C1304 1.415 . S
C1304 H1280 0.950 . S
C1304 C1299 1.363 . S
C1304 C1303 1.415 . S
C1305 H1281 0.951 . S
C1305 C1306 1.366 . S
C1305 C1307 1.388 . S
C1306 C1305 1.366 . S
C1306 C1310 1.385 . S
C1307 H1282 0.951 . S
C1307 C1305 1.388 . S
C1307 C1308 1.366 . S
C1308 C1307 1.366 . S
C1308 C1309 1.414 . S
C1308 C1311 1.499 . S
C1309 H1283 0.950 . S
C1309 C1308 1.414 . S
C1309 C1310 1.374 . S
C1310 H1284 0.950 . S
C1310 C1306 1.385 . S
C1310 C1309 1.374 . S
C1311 C1308 1.499 . S
C1311 C1312 1.373 1_455 S
C1311 C1313 1.389 . S
C1312 H1285 0.950 . S
C1312 C1298 1.377 . S
C1312 C1311 1.373 1_655 S
C1313 C1297 1.377 . S
C1313 C1311 1.389 . S
C1313 C1314 1.524 . S
C1314 C1313 1.524 . S
C1314 C1315 1.397 . S
C1314 C1319 1.363 . S
C1315 H1286 0.950 . S
C1315 C1314 1.397 . S
C1315 C1316 1.334 . S
C1316 H1287 0.950 . S
C1316 C1315 1.334 . S
C1316 C1317 1.287 . S
C1317 C1316 1.287 . S
C1317 C1318 1.524 . S
C1317 H1320 0.999 . S
C1318 H1288 0.950 . S
C1318 C1317 1.524 . S
C1318 C1319 1.415 . S
C1319 H1289 0.950 . S
C1319 C1314 1.363 . S
C1319 C1318 1.415 . S
H1320 C1317 0.999 . S
H1321 C1302 0.913 . S
H1322 C1340 0.951 . S
H1323 C1342 0.951 . S
H1324 C1344 0.950 . S
H1325 C1345 0.950 . S
H1326 C1347 0.976 . S
H1327 C1350 0.950 . S
H1328 C1351 0.950 . S
H1329 C1353 0.950 . S
H1330 C1354 0.950 . S
H1331 C1355 0.951 . S
H1332 C1357 0.951 . S
H1333 C1359 0.950 . S
H1334 C1360 0.950 . S
H1335 C1362 0.950 . S
H1336 C1365 0.950 . S
H1337 C1366 0.950 . S
H1338 C1368 0.950 . S
H1339 C1369 0.950 1_545 S
C1340 H1322 0.951 . S
C1340 C1341 1.366 . S
C1340 C1342 1.388 . S
C1341 C1340 1.366 . S
C1341 C1345 1.385 . S
C1342 H1323 0.951 . S
C1342 C1340 1.388 . S
C1342 C1343 1.366 . S
C1343 C1342 1.366 . S
C1343 C1344 1.414 . S
C1343 C1346 1.499 . S
C1344 H1324 0.950 . S
C1344 C1343 1.414 . S
C1344 C1345 1.374 . S
C1345 H1325 0.950 . S
C1345 C1341 1.385 . S
C1345 C1344 1.374 . S
C1346 C1343 1.499 . S
C1346 C1347 1.373 . S
C1346 C1348 1.389 . S
C1347 H1326 0.976 . S
C1347 C1346 1.373 . S
C1347 C1363 1.377 . S
C1348 C1346 1.389 . S
C1348 C1349 1.524 . S
C1348 C1362 1.377 . S
C1349 C1348 1.524 . S
C1349 C1350 1.397 . S
C1349 C1354 1.363 . S
C1350 H1327 0.950 . S
C1350 C1349 1.397 . S
C1350 C1351 1.334 . S
C1351 H1328 0.950 . S
C1351 C1350 1.334 . S
C1351 C1352 1.287 . S
C1352 C1351 1.287 . S
C1352 C1353 1.524 . S
C1352 H1371 0.913 . S
C1353 H1329 0.950 . S
C1353 C1352 1.524 . S
C1353 C1354 1.415 . S
C1354 H1330 0.950 . S
C1354 C1349 1.363 . S
C1354 C1353 1.415 . S
C1355 H1331 0.951 . S
C1355 C1356 1.366 . S
C1355 C1357 1.388 . S
C1356 C1355 1.366 . S
C1356 C1360 1.385 . S
C1357 H1332 0.951 . S
C1357 C1355 1.388 . S
C1357 C1358 1.366 . S
C1358 C1357 1.366 . S
C1358 C1359 1.414 . S
C1358 C1361 1.499 . S
C1359 H1333 0.950 . S
C1359 C1358 1.414 . S
C1359 C1360 1.374 . S
C1360 H1334 0.950 . S
C1360 C1356 1.385 . S
C1360 C1359 1.374 . S
C1361 C1358 1.499 . S
C1361 C1362 1.373 . S
C1361 C1363 1.389 . S
C1362 H1335 0.950 . S
C1362 C1348 1.377 . S
C1362 C1361 1.373 . S
C1363 C1347 1.377 . S
C1363 C1361 1.389 . S
C1363 C1364 1.524 1_545 S
C1364 C1363 1.524 1_565 S
C1364 C1365 1.397 . S
C1364 C1369 1.363 . S
C1365 H1336 0.950 . S
C1365 C1364 1.397 . S
C1365 C1366 1.334 . S
C1366 H1337 0.950 . S
C1366 C1365 1.334 . S
C1366 C1367 1.287 . S
C1367 C1366 1.287 . S
C1367 C1368 1.524 . S
C1367 H1370 0.999 . S
C1368 H1338 0.950 . S
C1368 C1367 1.524 . S
C1368 C1369 1.415 . S
C1369 H1339 0.950 1_565 S
C1369 C1364 1.363 . S
C1369 C1368 1.415 . S
H1370 C1367 0.999 . S
H1371 C1352 0.913 . S
H1372 C1390 0.951 . S
H1373 C1392 0.951 . S
H1374 C1394 0.950 . S
H1375 C1395 0.950 . S
H1376 C1397 0.950 . S
H1377 C1400 0.950 . S
H1378 C1401 0.950 . S
H1379 C1403 0.950 . S
H1380 C1404 0.950 . S
H1381 C1405 0.951 . S
H1382 C1407 0.951 . S
H1383 C1409 0.950 . S
H1384 C1410 0.950 . S
H1385 C1412 0.950 . S
H1386 C1415 0.950 . S
H1387 C1416 0.950 . S
H1388 C1418 0.950 . S
H1389 C1419 0.950 . S
C1390 H1372 0.951 . S
C1390 C1391 1.366 . S
C1390 C1392 1.388 . S
C1391 C1390 1.366 . S
C1391 C1395 1.385 . S
C1392 H1373 0.951 . S
C1392 C1390 1.388 . S
C1392 C1393 1.366 . S
C1393 C1392 1.366 . S
C1393 C1394 1.414 . S
C1393 C1396 1.499 . S
C1394 H1374 0.950 . S
C1394 C1393 1.414 . S
C1394 C1395 1.374 . S
C1395 H1375 0.950 . S
C1395 C1391 1.385 . S
C1395 C1394 1.374 . S
C1396 C1393 1.499 . S
C1396 C1397 1.373 . S
C1396 C1398 1.389 . S
C1397 H1376 0.950 . S
C1397 C1396 1.373 . S
C1397 C1413 1.377 . S
C1398 C1396 1.389 . S
C1398 C1399 1.524 . S
C1398 C1412 1.377 . S
C1399 C1398 1.524 . S
C1399 C1400 1.397 . S
C1399 C1404 1.363 . S
C1400 H1377 0.950 . S
C1400 C1399 1.397 . S
C1400 C1401 1.334 . S
C1401 H1378 0.950 . S
C1401 C1400 1.334 . S
C1401 C1402 1.287 . S
C1402 C1401 1.287 . S
C1402 C1403 1.524 . S
C1402 H1421 0.913 . S
C1403 H1379 0.950 . S
C1403 C1402 1.524 . S
C1403 C1404 1.415 . S
C1404 H1380 0.950 . S
C1404 C1399 1.363 . S
C1404 C1403 1.415 . S
C1405 H1381 0.951 . S
C1405 C1406 1.366 . S
C1405 C1407 1.388 . S
C1406 C1405 1.366 . S
C1406 C1410 1.385 . S
C1407 H1382 0.951 . S
C1407 C1405 1.388 . S
C1407 C1408 1.366 . S
C1408 C1407 1.366 . S
C1408 C1409 1.414 . S
C1408 C1411 1.499 . S
C1409 H1383 0.950 . S
C1409 C1408 1.414 . S
C1409 C1410 1.374 . S
C1410 H1384 0.950 . S
C1410 C1406 1.385 . S
C1410 C1409 1.374 . S
C1411 C1408 1.499 . S
C1411 C1412 1.373 . S
C1411 C1413 1.389 . S
C1412 H1385 0.950 . S
C1412 C1398 1.377 . S
C1412 C1411 1.373 . S
C1413 C1397 1.377 . S
C1413 C1411 1.389 . S
C1413 C1414 1.524 . S
C1414 C1413 1.524 . S
C1414 C1415 1.397 . S
C1414 C1419 1.363 . S
C1415 H1386 0.950 . S
C1415 C1414 1.397 . S
C1415 C1416 1.334 . S
C1416 H1387 0.950 . S
C1416 C1415 1.334 . S
C1416 C1417 1.287 . S
C1417 C1416 1.287 . S
C1417 C1418 1.524 . S
C1417 H1420 0.999 . S
C1418 H1388 0.950 . S
C1418 C1417 1.524 . S
C1418 C1419 1.415 . S
C1419 H1389 0.950 . S
C1419 C1414 1.363 . S
C1419 C1418 1.415 . S
H1420 C1417 0.999 . S
H1421 C1402 0.913 . S
H1422 C1440 0.951 . S
H1423 C1442 0.951 . S
H1424 C1444 0.950 . S
H1425 C1445 0.950 . S
H1426 C1447 0.950 . S
H1427 C1450 0.950 . S
H1428 C1451 0.950 . S
H1429 C1453 0.950 . S
H1430 C1454 0.950 . S
H1431 C1455 0.951 . S
H1432 C1457 0.951 . S
H1433 C1459 0.950 . S
H1434 C1460 0.950 . S
H1435 C1462 0.950 . S
H1436 C1465 0.950 . S
H1437 C1466 0.950 . S
H1438 C1468 0.950 . S
H1439 C1469 0.950 . S
C1440 H1422 0.951 . S
C1440 C1441 1.366 . S
C1440 C1442 1.388 . S
C1441 C1440 1.366 . S
C1441 C1445 1.385 . S
C1442 H1423 0.951 . S
C1442 C1440 1.388 . S
C1442 C1443 1.366 . S
C1443 C1442 1.366 . S
C1443 C1444 1.414 . S
C1443 C1446 1.499 . S
C1444 H1424 0.950 . S
C1444 C1443 1.414 . S
C1444 C1445 1.374 . S
C1445 H1425 0.950 . S
C1445 C1441 1.385 . S
C1445 C1444 1.374 . S
C1446 C1443 1.499 . S
C1446 C1447 1.373 . S
C1446 C1448 1.389 . S
C1447 H1426 0.950 . S
C1447 C1446 1.373 . S
C1447 C1463 1.377 . S
C1448 C1446 1.389 . S
C1448 C1449 1.524 . S
C1448 C1462 1.377 . S
C1449 C1448 1.524 . S
C1449 C1450 1.397 . S
C1449 C1454 1.363 . S
C1450 H1427 0.950 . S
C1450 C1449 1.397 . S
C1450 C1451 1.334 . S
C1451 H1428 0.950 . S
C1451 C1450 1.334 . S
C1451 C1452 1.287 . S
C1452 C1451 1.287 . S
C1452 C1453 1.524 . S
C1452 H1471 0.913 . S
C1453 H1429 0.950 . S
C1453 C1452 1.524 . S
C1453 C1454 1.415 . S
C1454 H1430 0.950 . S
C1454 C1449 1.363 . S
C1454 C1453 1.415 . S
C1455 H1431 0.951 . S
C1455 C1456 1.366 . S
C1455 C1457 1.388 . S
C1456 C1455 1.366 . S
C1456 C1460 1.385 . S
C1457 H1432 0.951 . S
C1457 C1455 1.388 . S
C1457 C1458 1.366 . S
C1458 C1457 1.366 . S
C1458 C1459 1.414 . S
C1458 C1461 1.499 . S
C1459 H1433 0.950 . S
C1459 C1458 1.414 . S
C1459 C1460 1.374 . S
C1460 H1434 0.950 . S
C1460 C1456 1.385 . S
C1460 C1459 1.374 . S
C1461 C1458 1.499 . S
C1461 C1462 1.373 . S
C1461 C1463 1.389 . S
C1462 H1435 0.950 . S
C1462 C1448 1.377 . S
C1462 C1461 1.373 . S
C1463 C1447 1.377 . S
C1463 C1461 1.389 . S
C1463 C1464 1.524 . S
C1464 C1463 1.524 . S
C1464 C1465 1.397 . S
C1464 C1469 1.363 . S
C1465 H1436 0.950 . S
C1465 C1464 1.397 . S
C1465 C1466 1.334 . S
C1466 H1437 0.950 . S
C1466 C1465 1.334 . S
C1466 C1467 1.287 . S
C1467 C1466 1.287 . S
C1467 C1468 1.524 . S
C1467 H1470 0.999 . S
C1468 H1438 0.950 . S
C1468 C1467 1.524 . S
C1468 C1469 1.415 . S
C1469 H1439 0.950 . S
C1469 C1464 1.363 . S
C1469 C1468 1.415 . S
H1470 C1467 0.999 . S
H1471 C1452 0.913 . S
H1472 C1490 0.951 . S
H1473 C1492 0.951 . S
H1474 C1494 0.950 . S
H1475 C1495 0.950 . S
H1476 C1497 0.950 1_455 S
H1477 C1500 0.950 . S
H1478 C1501 0.950 . S
H1479 C1503 0.950 . S
H1480 C1504 0.972 . S
H1481 C1505 0.951 . S
H1482 C1507 0.951 . S
H1483 C1509 0.950 . S
H1484 C1510 0.950 . S
H1485 C1512 0.950 . S
H1486 C1515 0.950 . S
H1487 C1516 0.950 . S
H1488 C1518 0.950 . S
H1489 C1519 0.914 1_655 S
C1490 H1472 0.951 . S
C1490 C1491 1.366 1_455 S
C1490 C1492 1.388 . S
C1491 C1490 1.366 1_655 S
C1491 C1495 1.385 . S
C1492 H1473 0.951 . S
C1492 C1490 1.388 . S
C1492 C1493 1.366 1_455 S
C1493 C1492 1.366 1_655 S
C1493 C1494 1.414 . S
C1493 C1496 1.499 . S
C1494 H1474 0.950 . S
C1494 C1493 1.414 . S
C1494 C1495 1.374 . S
C1495 H1475 0.950 . S
C1495 C1491 1.385 . S
C1495 C1494 1.374 . S
C1496 C1493 1.499 . S
C1496 C1497 1.374 . S
C1496 C1498 1.389 . S
C1497 H1476 0.950 1_655 S
C1497 C1496 1.374 . S
C1497 C1513 1.376 1_655 S
C1498 C1496 1.389 . S
C1498 C1499 1.524 . S
C1498 C1512 1.377 . S
C1499 C1498 1.524 . S
C1499 C1500 1.397 . S
C1499 C1504 1.363 . S
C1500 H1477 0.950 . S
C1500 C1499 1.397 . S
C1500 C1501 1.334 . S
C1501 H1478 0.950 . S
C1501 C1500 1.334 . S
C1501 C1502 1.287 . S
C1502 C1501 1.287 . S
C1502 C1503 1.524 . S
C1502 H1521 0.913 . S
C1503 H1479 0.950 . S
C1503 C1502 1.524 . S
C1503 C1504 1.415 . S
C1504 H1480 0.972 . S
C1504 C1499 1.363 . S
C1504 C1503 1.415 . S
C1505 H1481 0.951 . S
C1505 C1506 1.366 . S
C1505 C1507 1.388 . S
C1506 C1505 1.366 . S
C1506 C1510 1.385 1_655 S
C1507 H1482 0.951 . S
C1507 C1505 1.388 . S
C1507 C1508 1.366 . S
C1508 C1507 1.366 . S
C1508 C1509 1.414 1_655 S
C1508 C1511 1.499 . S
C1509 H1483 0.950 . S
C1509 C1508 1.414 1_455 S
C1509 C1510 1.374 . S
C1510 H1484 0.950 . S
C1510 C1506 1.385 1_455 S
C1510 C1509 1.374 . S
C1511 C1508 1.499 . S
C1511 C1512 1.373 . S
C1511 C1513 1.385 1_655 S
C1512 H1485 0.950 . S
C1512 C1498 1.377 . S
C1512 C1511 1.373 . S
C1513 C1497 1.376 1_455 S
C1513 C1511 1.385 1_455 S
C1513 C1514 1.531 . S
C1514 C1513 1.531 . S
C1514 C1515 1.397 . S
C1514 C1519 1.382 . S
C1515 H1486 0.950 . S
C1515 C1514 1.397 . S
C1515 C1516 1.334 . S
C1516 H1487 0.950 . S
C1516 C1515 1.334 . S
C1516 C1517 1.287 . S
C1517 C1516 1.287 . S
C1517 C1518 1.524 . S
C1517 H1520 0.999 . S
C1518 H1488 0.950 . S
C1518 C1517 1.524 . S
C1518 C1519 1.434 . S
C1519 H1489 0.914 1_455 S
C1519 C1514 1.382 . S
C1519 C1518 1.434 . S
H1520 C1517 0.999 . S
H1521 C1502 0.913 . S
H1522 C1540 0.954 . S
H1523 C1542 0.951 . S
H1524 C1544 0.950 . S
H1525 C1545 0.950 . S
H1526 C1547 0.950 . S
H1527 C1550 0.950 . S
H1528 C1551 0.950 . S
H1529 C1553 0.950 . S
H1530 C1554 0.950 . S
H1531 C1555 0.951 . S
H1532 C1557 0.951 . S
H1533 C1559 0.958 . S
H1534 C1560 0.963 . S
H1535 C1562 0.950 . S
H1536 C1565 0.950 . S
H1537 C1566 0.950 . S
H1538 C1568 0.950 . S
H1539 C1569 0.950 . S
C1540 H1522 0.954 . S
C1540 C1541 1.366 . S
C1540 C1542 1.388 . S
C1541 C1540 1.366 . S
C1541 C1545 1.385 . S
C1542 H1523 0.951 . S
C1542 C1540 1.388 . S
C1542 C1543 1.366 . S
C1543 C1542 1.366 . S
C1543 C1544 1.414 . S
C1543 C1546 1.499 . S
C1544 H1524 0.950 . S
C1544 C1543 1.414 . S
C1544 C1545 1.374 . S
C1545 H1525 0.950 . S
C1545 C1541 1.385 . S
C1545 C1544 1.374 . S
C1546 C1543 1.499 . S
C1546 C1547 1.373 1_565 S
C1546 C1548 1.389 . S
C1547 H1526 0.950 . S
C1547 C1546 1.373 1_545 S
C1547 C1563 1.377 . S
C1548 C1546 1.389 . S
C1548 C1549 1.524 . S
C1548 C1562 1.377 . S
C1549 C1548 1.524 . S
C1549 C1550 1.397 . S
C1549 C1554 1.363 . S
C1550 H1527 0.950 . S
C1550 C1549 1.397 . S
C1550 C1551 1.334 . S
C1551 H1528 0.950 . S
C1551 C1550 1.334 . S
C1551 C1552 1.287 . S
C1552 C1551 1.287 . S
C1552 C1553 1.524 . S
C1552 H1571 0.913 . S
C1553 H1529 0.950 . S
C1553 C1552 1.524 . S
C1553 C1554 1.415 . S
C1554 H1530 0.950 . S
C1554 C1549 1.363 . S
C1554 C1553 1.415 . S
C1555 H1531 0.951 . S
C1555 C1556 1.366 . S
C1555 C1557 1.388 . S
C1556 C1555 1.366 . S
C1556 C1560 1.385 . S
C1557 H1532 0.951 . S
C1557 C1555 1.388 . S
C1557 C1558 1.366 . S
C1558 C1557 1.366 . S
C1558 C1559 1.414 . S
C1558 C1561 1.499 . S
C1559 H1533 0.958 . S
C1559 C1558 1.414 . S
C1559 C1560 1.374 . S
C1560 H1534 0.963 . S
C1560 C1556 1.385 . S
C1560 C1559 1.374 . S
C1561 C1558 1.499 . S
C1561 C1562 1.373 . S
C1561 C1563 1.389 1_565 S
C1562 H1535 0.950 . S
C1562 C1548 1.377 . S
C1562 C1561 1.373 . S
C1563 C1547 1.377 . S
C1563 C1561 1.389 1_545 S
C1563 C1564 1.524 . S
C1564 C1563 1.524 . S
C1564 C1565 1.397 . S
C1564 C1569 1.363 . S
C1565 H1536 0.950 . S
C1565 C1564 1.397 . S
C1565 C1566 1.334 . S
C1566 H1537 0.950 . S
C1566 C1565 1.334 . S
C1566 C1567 1.287 . S
C1567 C1566 1.287 . S
C1567 C1568 1.524 . S
C1567 H1570 0.999 . S
C1568 H1538 0.950 . S
C1568 C1567 1.524 . S
C1568 C1569 1.415 . S
C1569 H1539 0.950 . S
C1569 C1564 1.363 . S
C1569 C1568 1.415 . S
H1570 C1567 0.999 . S
H1571 C1552 0.913 . S
H1572 C1590 0.951 . S
H1573 C1592 0.951 . S
H1574 C1594 0.950 . S
H1575 C1595 0.950 . S
H1576 C1597 0.950 . S
H1577 C1600 0.950 . S
H1578 C1601 0.950 . S
H1579 C1603 0.950 . S
H1580 C1604 0.950 . S
H1581 C1605 0.951 . S
H1582 C1607 0.951 . S
H1583 C1609 0.950 . S
H1584 C1610 0.950 . S
H1585 C1612 0.950 . S
H1586 C1615 0.950 . S
H1587 C1616 0.950 . S
H1588 C1618 0.950 . S
H1589 C1619 0.950 . S
C1590 H1572 0.951 . S
C1590 C1591 1.366 . S
C1590 C1592 1.388 . S
C1591 C1590 1.366 . S
C1591 C1595 1.385 . S
C1592 H1573 0.951 . S
C1592 C1590 1.388 . S
C1592 C1593 1.366 . S
C1593 C1592 1.366 . S
C1593 C1594 1.414 . S
C1593 C1596 1.499 . S
C1594 H1574 0.950 . S
C1594 C1593 1.414 . S
C1594 C1595 1.374 . S
C1595 H1575 0.950 . S
C1595 C1591 1.385 . S
C1595 C1594 1.374 . S
C1596 C1593 1.499 . S
C1596 C1597 1.373 . S
C1596 C1598 1.389 . S
C1597 H1576 0.950 . S
C1597 C1596 1.373 . S
C1597 C1613 1.377 . S
C1598 C1596 1.389 . S
C1598 C1599 1.524 . S
C1598 C1612 1.377 . S
C1599 C1598 1.524 . S
C1599 C1600 1.397 . S
C1599 C1604 1.363 . S
C1600 H1577 0.950 . S
C1600 C1599 1.397 . S
C1600 C1601 1.334 . S
C1601 H1578 0.950 . S
C1601 C1600 1.334 . S
C1601 C1602 1.287 . S
C1602 C1601 1.287 . S
C1602 C1603 1.524 . S
C1602 H1621 0.913 . S
C1603 H1579 0.950 . S
C1603 C1602 1.524 . S
C1603 C1604 1.415 . S
C1604 H1580 0.950 . S
C1604 C1599 1.363 . S
C1604 C1603 1.415 . S
C1605 H1581 0.951 . S
C1605 C1606 1.366 . S
C1605 C1607 1.388 . S
C1606 C1605 1.366 . S
C1606 C1610 1.385 . S
C1607 H1582 0.951 . S
C1607 C1605 1.388 . S
C1607 C1608 1.366 . S
C1608 C1607 1.366 . S
C1608 C1609 1.414 . S
C1608 C1611 1.499 . S
C1609 H1583 0.950 . S
C1609 C1608 1.414 . S
C1609 C1610 1.374 . S
C1610 H1584 0.950 . S
C1610 C1606 1.385 . S
C1610 C1609 1.374 . S
C1611 C1608 1.499 . S
C1611 C1612 1.373 . S
C1611 C1613 1.389 . S
C1612 H1585 0.950 . S
C1612 C1598 1.377 . S
C1612 C1611 1.373 . S
C1613 C1597 1.377 . S
C1613 C1611 1.389 . S
C1613 C1614 1.524 . S
C1614 C1613 1.524 . S
C1614 C1615 1.397 . S
C1614 C1619 1.363 . S
C1615 H1586 0.950 . S
C1615 C1614 1.397 . S
C1615 C1616 1.334 . S
C1616 H1587 0.950 . S
C1616 C1615 1.334 . S
C1616 C1617 1.287 . S
C1617 C1616 1.287 . S
C1617 C1618 1.524 . S
C1617 H1620 0.999 . S
C1618 H1588 0.950 . S
C1618 C1617 1.524 . S
C1618 C1619 1.415 . S
C1619 H1589 0.950 . S
C1619 C1614 1.363 . S
C1619 C1618 1.415 . S
H1620 C1617 0.999 . S
H1621 C1602 0.913 . S
H1622 C1640 0.951 . S
H1623 C1642 0.951 . S
H1624 C1644 0.950 . S
H1625 C1645 0.950 . S
H1626 C1647 0.950 . S
H1627 C1650 0.950 . S
H1628 C1651 0.950 . S
H1629 C1653 0.950 . S
H1630 C1654 0.950 . S
H1631 C1655 0.951 . S
H1632 C1657 0.951 . S
H1633 C1659 0.950 . S
H1634 C1660 0.950 . S
H1635 C1662 0.950 . S
H1636 C1665 0.950 . S
H1637 C1666 0.950 . S
H1638 C1668 0.950 . S
H1639 C1669 0.950 . S
C1640 H1622 0.951 . S
C1640 C1641 1.366 . S
C1640 C1642 1.388 . S
C1641 C1640 1.366 . S
C1641 C1645 1.385 . S
C1642 H1623 0.951 . S
C1642 C1640 1.388 . S
C1642 C1643 1.366 . S
C1643 C1642 1.366 . S
C1643 C1644 1.414 . S
C1643 C1646 1.499 . S
C1644 H1624 0.950 . S
C1644 C1643 1.414 . S
C1644 C1645 1.374 . S
C1645 H1625 0.950 . S
C1645 C1641 1.385 . S
C1645 C1644 1.374 . S
C1646 C1643 1.499 . S
C1646 C1647 1.373 . S
C1646 C1648 1.389 . S
C1647 H1626 0.950 . S
C1647 C1646 1.373 . S
C1647 C1663 1.377 . S
C1648 C1646 1.389 . S
C1648 C1649 1.524 . S
C1648 C1662 1.377 . S
C1649 C1648 1.524 . S
C1649 C1650 1.397 . S
C1649 C1654 1.363 . S
C1650 H1627 0.950 . S
C1650 C1649 1.397 . S
C1650 C1651 1.334 . S
C1651 H1628 0.950 . S
C1651 C1650 1.334 . S
C1651 C1652 1.287 . S
C1652 C1651 1.287 . S
C1652 C1653 1.524 . S
C1652 H1671 0.913 . S
C1653 H1629 0.950 . S
C1653 C1652 1.524 . S
C1653 C1654 1.415 . S
C1654 H1630 0.950 . S
C1654 C1649 1.363 . S
C1654 C1653 1.415 . S
C1655 H1631 0.951 . S
C1655 C1656 1.366 . S
C1655 C1657 1.388 . S
C1656 C1655 1.366 . S
C1656 C1660 1.385 . S
C1657 H1632 0.951 . S
C1657 C1655 1.388 . S
C1657 C1658 1.366 . S
C1658 C1657 1.366 . S
C1658 C1659 1.414 . S
C1658 C1661 1.499 . S
C1659 H1633 0.950 . S
C1659 C1658 1.414 . S
C1659 C1660 1.374 . S
C1660 H1634 0.950 . S
C1660 C1656 1.385 . S
C1660 C1659 1.374 . S
C1661 C1658 1.499 . S
C1661 C1662 1.373 . S
C1661 C1663 1.389 . S
C1662 H1635 0.950 . S
C1662 C1648 1.377 . S
C1662 C1661 1.373 . S
C1663 C1647 1.377 . S
C1663 C1661 1.389 . S
C1663 C1664 1.524 . S
C1664 C1663 1.524 . S
C1664 C1665 1.397 . S
C1664 C1669 1.363 . S
C1665 H1636 0.950 . S
C1665 C1664 1.397 . S
C1665 C1666 1.334 . S
C1666 H1637 0.950 . S
C1666 C1665 1.334 . S
C1666 C1667 1.287 . S
C1667 C1666 1.287 . S
C1667 C1668 1.524 . S
C1667 H1670 0.999 . S
C1668 H1638 0.950 . S
C1668 C1667 1.524 . S
C1668 C1669 1.415 . S
C1669 H1639 0.950 . S
C1669 C1664 1.363 . S
C1669 C1668 1.415 . S
H1670 C1667 0.999 . S
H1671 C1652 0.913 . S
C491 C255 1.905 . S
C506 C322 2.013 . S
C556 C362 2.022 . S
C541 C294 1.891 . S
C606 C402 2.018 . S
C591 C177 1.906 . S
C656 C442 2.015 1_455 S
C641 C216 1.909 1_455 S
C706 C331 2.017 . S
C691 C99 1.912 . S
C741 C138 1.892 . S
C756 C371 2.022 . S
C791 C21 1.908 . S
C806 C411 2.018 . S
C841 C60 1.909 . S
C856 C451 2.016 1_655 S
C906 C328 0.260 . S
C891 C196 0.268 1_455 S
C956 C368 0.273 . S
C941 C235 0.285 . S
C1006 C408 0.257 . S
C991 C289 0.265 . S
C1041 C157 0.288 . S
C1056 C448 0.275 . S
C1091 C40 0.259 . S
C1106 C319 0.248 . S
C1156 C359 0.272 . S
C1141 C79 0.272 . S
C1206 C399 0.257 . S
C1191 C133 0.256 . S
C1241 C1 0.270 . S
C1256 C439 0.276 . S
C1291 C211 2.525 . S
C1306 C323 2.836 . S
C1341 C250 2.513 . S
C1356 C363 2.824 . S
C1406 C403 2.830 . S
C1391 C274 2.524 . S
C1456 C443 2.832 . S
C1441 C172 2.514 . S
C1491 C55 2.525 1_655 S
C1506 C314 2.837 . S
C1556 C354 2.824 . S
C1541 C94 2.512 . S
C1606 C394 2.830 . S
C1591 C118 2.525 . S
C1641 C16 2.522 . S
C1656 C434 2.840 . S
