# Generated by pormake.
# Topology sit, (3,6)-cn, num edge types: 1
# Building blocks:
#     Node 0, Type 0, BuildingBlock: BETDAH_clean_linker_0, # of connection points: 3
#     Node 1, Type 0, BuildingBlock: BETDAH_clean_linker_0, # of connection points: 3
#     Node 2, Type 0, BuildingBlock: BETDAH_clean_linker_0, # of connection points: 3
#     Node 3, Type 0, BuildingBlock: BETDAH_clean_linker_0, # of connection points: 3
#     Node 4, Type 1, BuildingBlock: MIDCAF_clean_sbu_0, # of connection points: 6
#     Node 5, Type 1, BuildingBlock: MIDCAF_clean_sbu_0, # of connection points: 6
#     Edge 6, Type (0, 1), BuildingBlock: XIVTED_clean_linker_0, # of connection points: 2
#     Edge 7, Type (0, 1), BuildingBlock: XIVTED_clean_linker_0, # of connection points: 2
#     Edge 8, Type (0, 1), BuildingBlock: XIVTED_clean_linker_0, # of connection points: 2
#     Edge 9, Type (0, 1), BuildingBlock: XIVTED_clean_linker_0, # of connection points: 2
#     Edge 10, Type (0, 1), BuildingBlock: XIVTED_clean_linker_0, # of connection points: 2
#     Edge 11, Type (0, 1), BuildingBlock: XIVTED_clean_linker_0, # of connection points: 2
#     Edge 12, Type (0, 1), BuildingBlock: XIVTED_clean_linker_0, # of connection points: 2
#     Edge 13, Type (0, 1), BuildingBlock: XIVTED_clean_linker_0, # of connection points: 2
#     Edge 14, Type (0, 1), BuildingBlock: XIVTED_clean_linker_0, # of connection points: 2
#     Edge 15, Type (0, 1), BuildingBlock: XIVTED_clean_linker_0, # of connection points: 2
#     Edge 16, Type (0, 1), BuildingBlock: XIVTED_clean_linker_0, # of connection points: 2
#     Edge 17, Type (0, 1), BuildingBlock: XIVTED_clean_linker_0, # of connection points: 2
# Relax obj value: 0.072
# Max RMSD: 0.181
# Mean RMSD: 0.109
data_MOF--net-sit--node1-MIDCAF_clean_sbu_0--node2-BETDAH_clean_linker_0--edge1-XIVTED_clean_linker_0
_symmetry_space_group_name_H-M    P1
_symmetry_Int_Tables_number       1
_symmetry_cell_setting            triclinic
loop_
_symmetry_equiv_pos_as_xyz
'x, y, z'
_cell_length_a     22.767333
_cell_length_b     30.485286
_cell_length_c     37.33804
_cell_angle_alpha  90.11147
_cell_angle_beta   86.666344
_cell_angle_gamma 81.767441
loop_
_atom_site_label
_atom_site_type_symbol
_atom_site_fract_x
_atom_site_fract_y
_atom_site_fract_z
_atom_type_partial_charge
H0 H 0.05846 0.46209 0.0013 0.0
H1 H 0.20238 0.36436 0.03116 0.0
H2 H 0.02469 0.33233 0.03397 0.0
C3 C 0.07422 0.42955 0.01155 0.0
C4 C 0.0343 0.39886 0.01737 0.0
C5 C 0.13499 0.4176 0.01636 0.0
C6 C 0.15533 0.37476 0.02836 0.0
C7 C 0.1159 0.34425 0.0355 0.0
C8 C 0.05517 0.35634 0.02996 0.0
N9 N 0.13948 0.3009 0.04604 0.0
C10 C 0.10617 0.27233 0.06424 0.0
H11 H 0.05887 0.68509 0.99704 0.0
H12 H 0.0792 0.82281 0.00827 0.0
H13 H 0.90517 0.78479 0.01039 0.0
C14 C 0.03973 0.71931 0.00219 0.0
C15 C -0.02226 0.7305 0.00512 0.0
C16 C 0.07691 0.7523 0.00283 0.0
C17 C 0.05133 0.79681 0.00839 0.0
C18 C -0.0106 0.80823 0.01163 0.0
C19 C -0.04705 0.7752 0.00977 0.0
N20 N -0.0368 0.85317 0.01215 0.0
C21 C -0.03437 0.88048 0.04158 0.0
H22 H 0.50587 0.94193 0.47631 0.0
H23 H 0.59939 0.82554 0.52458 0.0
H24 H 0.42879 0.82194 0.48249 0.0
C25 C 0.50781 0.90827 0.48589 0.0
C26 C 0.46066 0.88521 0.47926 0.0
C27 C 0.55895 0.8872 0.50168 0.0
C28 C 0.56074 0.84256 0.51228 0.0
C29 C 0.51381 0.81904 0.50499 0.0
C30 C 0.46454 0.84039 0.48823 0.0
N31 N 0.51629 0.77312 0.51182 0.0
C32 C 0.54338 0.75184 0.54062 0.0
H33 H 0.45871 0.17351 0.50911 0.0
H34 H 0.49629 0.2942 0.55668 0.0
H35 H 0.31554 0.27536 0.5433 0.0
C36 C 0.44317 0.20518 0.52217 0.0
C37 C 0.38207 0.22061 0.52541 0.0
C38 C 0.48462 0.23166 0.53303 0.0
C39 C 0.46434 0.27335 0.54897 0.0
C40 C 0.40302 0.28871 0.55327 0.0
C41 C 0.36247 0.26229 0.54139 0.0
N42 N 0.38039 0.33149 0.56734 0.0
C43 C 0.41427 0.35965 0.58333 0.0
Zn44 Zn -0.03881 0.16015 0.35172 0.0
Zn45 Zn -0.01703 0.99309 0.34535 0.0
Zn46 Zn -0.02823 0.07405 0.35077 0.0
C47 C -0.0478 1.01856 0.27989 0.0
C48 C 0.89754 1.01368 0.3995 0.0
O49 O 0.0491 0.09171 0.37732 0.0
O50 O 0.02964 0.16492 0.38117 0.0
C51 C -0.03081 0.13799 0.28048 0.0
O52 O -0.03326 1.05405 0.29362 0.0
O53 O -0.05291 0.98545 0.29934 0.0
O54 O 0.93642 0.98165 0.38951 0.0
O55 O 0.89846 1.0521 0.38522 0.0
O56 O -0.03392 0.17206 0.30007 0.0
O57 O -0.02924 0.09926 0.29461 0.0
O58 O 0.88974 0.09914 0.38451 0.0
O59 O 0.88253 0.17158 0.37637 0.0
C60 C 0.86202 0.13875 0.39003 0.0
O61 O 0.0585 1.04585 0.37099 0.0
O62 O 0.07029 0.97896 0.34653 0.0
C63 C 0.06206 0.12914 0.38796 0.0
C64 C 0.09094 1.00832 0.36378 0.0
Zn65 Zn 0.58174 0.64827 0.84935 0.0
Zn66 Zn 0.57329 0.48074 0.84984 0.0
Zn67 Zn 0.57399 0.56643 0.85004 0.0
C68 C 0.56529 0.50632 0.77919 0.0
C69 C 0.47336 0.52122 0.89187 0.0
O70 O 0.65302 0.57633 0.8792 0.0
O71 O 0.63807 0.64909 0.88713 0.0
C72 C 0.60106 0.62295 0.77926 0.0
O73 O 0.56943 0.5443 0.79339 0.0
O74 O 0.5652 0.47236 0.79837 0.0
O75 O 0.50225 0.48372 0.88365 0.0
O76 O 0.49158 0.55697 0.88041 0.0
O77 O 0.61153 0.654 0.7992 0.0
O78 O 0.58233 0.58841 0.79323 0.0
O79 O 0.49332 0.60287 0.87866 0.0
O80 O 0.49826 0.67221 0.86307 0.0
C81 C 0.47059 0.64413 0.87889 0.0
O82 O 0.65115 0.53055 0.8779 0.0
O83 O 0.65 0.45886 0.86895 0.0
C84 C 0.66701 0.61175 0.89329 0.0
C85 C 0.67389 0.48966 0.8819 0.0
H86 H 0.15031 0.1899 0.08411 0.0
H87 H 0.89702 0.19348 0.24029 0.0
H88 H -0.00422 0.28946 0.09609 0.0
H89 H 0.05694 0.09881 0.23349 0.0
H90 H 0.92074 0.21777 0.17946 0.0
H91 H 0.10609 0.14567 0.13046 0.0
C92 C 0.10643 0.20186 0.0961 0.0
C93 C 0.0764 0.24312 0.08674 0.0
C94 C -0.05003 0.19086 0.19079 0.0
C95 C 0.02607 0.19354 0.1398 0.0
C96 C 0.9362 0.17685 0.22538 0.0
C97 C -0.02518 0.14379 0.24149 0.0
C98 C 0.00355 0.17238 0.17258 0.0
C99 C 0.02542 0.12362 0.22149 0.0
C100 C 0.08127 0.17677 0.12253 0.0
C101 C 0.02005 0.25765 0.10286 0.0
N102 N 0.03893 0.13874 0.18821 0.0
N103 N -0.00312 0.23308 0.12898 0.0
H104 H 0.05253 0.922 0.06705 0.0
H105 H 0.85762 0.99647 0.24706 0.0
H106 H 0.86983 0.90245 0.08655 0.0
H107 H 0.03606 1.02507 0.22616 0.0
H108 H 0.85719 0.97059 0.18508 0.0
H109 H 0.04483 0.96715 0.12226 0.0
C110 C 0.01077 0.92758 0.08298 0.0
C111 C -0.03819 0.90858 0.07285 0.0
C112 C 0.89603 0.98352 0.19365 0.0
C113 C -0.04758 0.95971 0.13545 0.0
C114 C 0.89601 0.99858 0.22891 0.0
C115 C -0.05354 1.01376 0.24122 0.0
C116 C -0.05244 0.98257 0.17085 0.0
C117 C -0.00431 1.01497 0.21715 0.0
C118 C 0.00624 0.95336 0.11431 0.0
C119 C 0.90855 0.91655 0.0939 0.0
N120 N -0.00461 0.99896 0.18315 0.0
N121 N 0.90532 0.94131 0.1244 0.0
H122 H 0.63161 0.76506 0.58354 0.0
H123 H 0.52876 0.59792 0.72985 0.0
H124 H 0.4976 0.68181 0.56722 0.0
H125 H 0.67864 0.66729 0.74079 0.0
H126 H 0.52424 0.62128 0.6674 0.0
H127 H 0.65633 0.72465 0.63886 0.0
C128 C 0.60802 0.73787 0.59154 0.0
C129 C 0.56259 0.72651 0.57133 0.0
C130 C 0.55907 0.6306 0.68312 0.0
C131 C 0.58974 0.68063 0.63413 0.0
C132 C 0.56225 0.61641 0.71857 0.0
C133 C 0.60479 0.62975 0.74015 0.0
C134 C 0.59809 0.65917 0.66946 0.0
C135 C 0.64515 0.65618 0.72492 0.0
C136 C 0.62202 0.71481 0.62297 0.0
C137 C 0.53291 0.69135 0.58245 0.0
N138 N 0.64042 0.67045 0.69063 0.0
N139 N 0.54664 0.66982 0.61332 0.0
H140 H 0.36722 0.44126 0.60664 0.0
H141 H 0.63857 0.45842 0.72923 0.0
H142 H 0.52724 0.34667 0.60434 0.0
H143 H 0.46683 0.53807 0.7447 0.0
H144 H 0.60861 0.43038 0.67253 0.0
H145 H 0.41257 0.48914 0.64653 0.0
C146 C 0.41237 0.43107 0.61417 0.0
C147 C 0.44372 0.39019 0.60267 0.0
C148 C 0.57803 0.45498 0.68775 0.0
C149 C 0.49557 0.44413 0.64823 0.0
C150 C 0.59538 0.4713 0.71983 0.0
C151 C 0.55543 0.50119 0.74105 0.0
C152 C 0.51988 0.46806 0.67731 0.0
C153 C 0.4993 0.51586 0.72852 0.0
C154 C 0.43819 0.45827 0.63689 0.0
C155 C 0.50185 0.37808 0.61293 0.0
N156 N 0.48287 0.49878 0.69761 0.0
N157 N 0.52583 0.40479 0.6355 0.0
H158 H 0.23402 0.43349 0.04988 0.0
H159 H 0.35957 0.559 0.88074 0.0
H160 H 0.13455 0.47027 0.95688 0.0
H161 H 0.46763 0.48538 0.95748 0.0
H162 H 0.27 0.54767 0.91783 0.0
H163 H 0.31282 0.47347 0.02544 0.0
C164 C 0.22842 0.45041 0.02456 0.0
C165 C 0.17813 0.44781 0.00511 0.0
C166 C 0.31343 0.53481 0.92685 0.0
C167 C 0.26776 0.49378 0.97715 0.0
C168 C 0.36422 0.54138 0.90582 0.0
C169 C 0.42036 0.52268 0.9162 0.0
C170 C 0.31949 0.50948 0.95823 0.0
C171 C 0.42473 0.49994 0.94866 0.0
C172 C 0.27321 0.47338 0.01072 0.0
C173 C 0.17249 0.47134 0.97285 0.0
N174 N 0.37489 0.49365 0.96843 0.0
N175 N 0.21721 0.49282 0.95961 0.0
H176 H 0.87325 0.71854 0.04137 0.0
H177 H 0.78304 0.57398 0.88146 0.0
H178 H -0.0066 0.66605 0.95292 0.0
H179 H 0.66025 0.64727 0.95962 0.0
H180 H 0.86575 0.58728 0.91772 0.0
H181 H 0.80098 0.67261 0.02219 0.0
C182 C 0.88474 0.69681 0.01826 0.0
C183 C 0.93883 0.69675 -0.00169 0.0
C184 C 0.82058 0.59956 0.92731 0.0
C185 C 0.85646 0.64442 0.97604 0.0
C186 C 0.77364 0.59186 0.90672 0.0
C187 C 0.71541 0.61016 0.91759 0.0
C188 C 0.80861 0.62589 0.95862 0.0
C189 C 0.70492 0.63315 0.95033 0.0
C190 C 0.84364 0.6705 0.00737 0.0
C191 C -0.04789 0.66726 0.96903 0.0
N192 N 0.75116 0.64085 0.96951 0.0
N193 N 0.91071 0.64288 0.95836 0.0
H194 H -0.04498 0.47484 0.02969 0.0
H195 H 0.76302 0.4218 0.86849 0.0
H196 H -0.02323 0.34811 0.97518 0.0
H197 H 0.70081 0.52733 0.94434 0.0
H198 H 0.84573 0.39724 0.90583 0.0
H199 H 0.86392 0.49727 -0.00165 0.0
C200 C 0.93994 0.45148 0.01164 0.0
C201 C -0.02656 0.40961 0.00491 0.0
C202 C 0.81428 0.42599 0.91425 0.0
C203 C 0.87042 0.43522 0.9687 0.0
C204 C 0.7674 0.44017 0.89283 0.0
C205 C 0.72637 0.47751 0.90286 0.0
C206 C 0.82016 0.44928 0.946 0.0
C207 C 0.73321 0.49966 0.93493 0.0
C208 C 0.88814 0.4643 0.99378 0.0
C209 C -0.04796 0.38053 0.98139 0.0
N210 N 0.7796 0.4854 0.95536 0.0
N211 N 0.90232 0.39412 0.96376 0.0
H212 H 0.15538 0.68099 0.02346 0.0
H213 H 0.39111 0.71547 0.86319 0.0
H214 H 0.14284 0.79573 0.95528 0.0
H215 H 0.42212 0.61057 0.94006 0.0
H216 H 0.29961 0.74494 0.89742 0.0
H217 H 0.25387 0.6548 0.99499 0.0
C218 C 0.1738 0.70102 0.00294 0.0
C219 C 0.14076 0.74052 0.99162 0.0
C220 C 0.32613 0.71533 0.90682 0.0
C221 C 0.25279 0.71061 0.95877 0.0
C222 C 0.37824 0.69838 0.88717 0.0
C223 C 0.41336 0.6599 0.89839 0.0
C224 C 0.30892 0.69373 0.93805 0.0
C225 C 0.39506 0.63935 0.92984 0.0
C226 C 0.22989 0.68604 0.98669 0.0
C227 C 0.16684 0.76535 0.96514 0.0
N228 N 0.34383 0.65643 0.94858 0.0
N229 N 0.22097 0.74973 0.94936 0.0
H230 H 0.56429 0.97664 0.51112 0.0
H231 H 0.90891 0.95453 0.45343 0.0
H232 H 0.67679 0.851 0.4921 0.0
H233 H 0.77965 1.05022 0.40512 0.0
H234 H 0.82879 0.92831 0.49015 0.0
H235 H 0.64938 1.01469 0.49448 0.0
C236 C 0.6068 0.9569 0.50402 0.0
C237 C 0.61249 0.91029 0.50187 0.0
C238 C 0.81828 0.95583 0.4722 0.0
C239 C 0.71016 0.95392 0.48457 0.0
C240 C 0.86374 0.97081 0.45124 0.0
C241 C 0.85073 1.00471 0.4263 0.0
C242 C 0.75943 0.97507 0.4684 0.0
C243 C 0.79155 1.02457 0.42447 0.0
C244 C 0.65523 0.97879 0.49477 0.0
C245 C 0.66958 0.88678 0.49411 0.0
N246 N 0.74776 1.00922 0.44514 0.0
N247 N 0.71603 0.90888 0.48539 0.0
H248 H 0.39597 0.17676 0.46059 0.0
H249 H 0.05299 0.15788 0.45633 0.0
H250 H 0.27032 0.20831 0.55128 0.0
H251 H 0.18131 0.10606 0.37193 0.0
H252 H 0.13389 0.17003 0.49364 0.0
H253 H 0.32109 0.14367 0.43008 0.0
C254 C 0.35302 0.17595 0.47445 0.0
C255 C 0.3393 0.19569 0.50854 0.0
C256 C 0.14468 0.15542 0.46719 0.0
C257 C 0.25284 0.15874 0.47322 0.0
C258 C 0.09855 0.14857 0.44597 0.0
C259 C 0.11106 0.13104 0.41128 0.0
C260 C 0.20373 0.14555 0.45324 0.0
C261 C 0.17037 0.1196 0.39871 0.0
C262 C 0.31013 0.15725 0.45685 0.0
C263 C 0.2825 0.19426 0.52478 0.0
N264 N 0.21478 0.12752 0.41961 0.0
N265 N 0.24118 0.17658 0.50681 0.0
H266 H 0.39447 0.96558 0.49559 0.0
H267 H 0.18411 0.95294 0.33305 0.0
H268 H 0.41024 0.85558 0.42112 0.0
H269 H 0.13207 1.03718 0.42576 0.0
H270 H 0.27836 0.92677 0.35928 0.0
H271 H 0.30821 1.00152 0.46479 0.0
C272 C 0.37978 0.94915 0.47269 0.0
C273 C 0.40887 0.90744 0.461 0.0
C274 C 0.24667 0.95143 0.37369 0.0
C275 C 0.31134 0.94827 0.42568 0.0
C276 C 0.19306 0.96646 0.35871 0.0
C277 C 0.15069 0.99756 0.37718 0.0
C278 C 0.25789 0.96745 0.40749 0.0
C279 C 0.16426 1.01398 0.41033 0.0
C280 C 0.3307 0.96956 0.45524 0.0
C281 C 0.38836 0.88743 0.43127 0.0
N282 N 0.21676 0.99854 0.4246 0.0
N283 N 0.34084 0.90807 0.41459 0.0
H284 H 0.55391 0.15088 0.5403 0.0
H285 H 0.76872 0.20075 0.37854 0.0
H286 H 0.55818 0.2821 0.49807 0.0
H287 H 0.83162 0.10028 0.45389 0.0
H288 H 0.68243 0.22439 0.41916 0.0
H289 H 0.65018 0.12595 0.50793 0.0
C290 C 0.57582 0.17462 0.52493 0.0
C291 C 0.54806 0.21857 0.52166 0.0
C292 C 0.71485 0.19696 0.42678 0.0
C293 C 0.65643 0.19016 0.48425 0.0
C294 C 0.76374 0.18319 0.4035 0.0
C295 C 0.80652 0.14791 0.41263 0.0
C296 C 0.70829 0.1752 0.45948 0.0
C297 C 0.7984 0.12662 0.44544 0.0
C298 C 0.63047 0.16038 0.50652 0.0
C299 C 0.57812 0.24806 0.50151 0.0
N300 N 0.74975 0.14043 0.46779 0.0
N301 N 0.63016 0.23311 0.48302 0.0
loop_
_geom_bond_atom_site_label_1
_geom_bond_atom_site_label_2
_geom_bond_distance
_geom_bond_site_symmetry_2
_ccdc_geom_bond_type
H0 C3 0.929 . S
H1 C6 0.929 . S
H2 C8 0.930 . S
C3 H0 0.929 . S
C3 C4 1.398 . S
C3 C5 1.396 . S
C4 C3 1.398 . S
C4 C8 1.407 1_556 S
C5 C3 1.396 . S
C5 C6 1.394 1_556 S
C6 H1 0.929 . S
C6 C5 1.394 1_554 S
C6 C7 1.382 . S
C7 C6 1.382 . S
C7 C8 1.392 . S
C7 N9 1.420 . S
C8 H2 0.930 . S
C8 C4 1.407 1_554 S
C8 C7 1.392 . S
N9 C7 1.420 . S
N9 C10 1.244 . S
C10 N9 1.244 . S
H11 C14 0.929 . S
H12 C17 0.929 . S
H13 C19 0.930 . S
C14 H11 0.929 . S
C14 C15 1.398 1_455 S
C14 C16 1.396 . S
C15 C14 1.398 1_655 S
C15 C19 1.407 1_556 S
C16 C14 1.396 . S
C16 C17 1.394 1_556 S
C17 H12 0.929 . S
C17 C16 1.394 1_554 S
C17 C18 1.382 1_455 S
C18 C17 1.382 1_655 S
C18 C19 1.392 . S
C18 N20 1.420 . S
C19 H13 0.930 . S
C19 C15 1.407 1_554 S
C19 C18 1.392 . S
N20 C18 1.420 . S
N20 C21 1.244 1_655 S
C21 N20 1.244 1_455 S
H22 C25 0.929 . S
H23 C28 0.929 . S
H24 C30 0.930 . S
C25 H22 0.929 . S
C25 C26 1.398 . S
C25 C27 1.396 . S
C26 C25 1.398 . S
C26 C30 1.407 . S
C27 C25 1.396 . S
C27 C28 1.394 . S
C28 H23 0.929 . S
C28 C27 1.394 . S
C28 C29 1.382 . S
C29 C28 1.382 . S
C29 C30 1.392 . S
C29 N31 1.420 . S
C30 H24 0.930 . S
C30 C26 1.407 . S
C30 C29 1.392 . S
N31 C29 1.420 . S
N31 C32 1.244 . S
C32 N31 1.244 . S
H33 C36 0.929 . S
H34 C39 0.929 . S
H35 C41 0.930 . S
C36 H33 0.929 . S
C36 C37 1.398 . S
C36 C38 1.396 . S
C37 C36 1.398 . S
C37 C41 1.407 . S
C38 C36 1.396 . S
C38 C39 1.394 . S
C39 H34 0.929 . S
C39 C38 1.394 . S
C39 C40 1.382 . S
C40 C39 1.382 . S
C40 C41 1.392 . S
C40 N42 1.420 . S
C41 H35 0.930 . S
C41 C37 1.407 . S
C41 C40 1.392 . S
N42 C40 1.420 . S
N42 C43 1.244 . S
C43 N42 1.244 . S
Zn44 O50 1.920 . S
Zn44 O56 1.898 . S
Zn44 O59 1.905 1_455 S
Zn45 O53 1.905 . S
Zn45 O54 1.898 . S
Zn45 O62 1.920 . S
Zn46 O49 2.080 . S
Zn46 O52 2.114 1_545 S
Zn46 O55 2.120 1_545 S
Zn46 O57 2.120 . S
Zn46 O58 2.114 1_455 S
Zn46 O61 2.080 1_545 S
C47 O52 1.166 . S
C47 O53 1.182 . S
C48 O54 1.167 . S
C48 O55 1.299 . S
O49 Zn46 2.080 . S
O49 C63 1.305 . S
O50 Zn44 1.920 . S
O50 C63 1.234 . S
C51 O56 1.167 . S
C51 O57 1.299 . S
O52 Zn46 2.114 1_565 S
O52 C47 1.166 . S
O53 Zn45 1.905 . S
O53 C47 1.182 . S
O54 Zn45 1.898 . S
O54 C48 1.167 . S
O55 Zn46 2.120 1_565 S
O55 C48 1.299 . S
O56 Zn44 1.898 . S
O56 C51 1.167 . S
O57 Zn46 2.120 . S
O57 C51 1.299 . S
O58 Zn46 2.114 1_655 S
O58 C60 1.166 . S
O59 Zn44 1.905 1_655 S
O59 C60 1.182 . S
C60 O58 1.166 . S
C60 O59 1.182 . S
O61 Zn46 2.080 1_565 S
O61 C64 1.305 . S
O62 Zn45 1.920 . S
O62 C64 1.234 . S
C63 O49 1.305 . S
C63 O50 1.234 . S
C64 O61 1.305 . S
C64 O62 1.234 . S
Zn65 O71 1.920 . S
Zn65 O77 1.898 . S
Zn65 O80 1.905 . S
Zn66 O74 1.905 . S
Zn66 O75 1.898 . S
Zn66 O83 1.920 . S
Zn67 O70 2.080 . S
Zn67 O73 2.114 . S
Zn67 O76 2.120 . S
Zn67 O78 2.120 . S
Zn67 O79 2.114 . S
Zn67 O82 2.080 . S
C68 O73 1.166 . S
C68 O74 1.182 . S
C69 O75 1.167 . S
C69 O76 1.299 . S
O70 Zn67 2.080 . S
O70 C84 1.305 . S
O71 Zn65 1.920 . S
O71 C84 1.234 . S
C72 O77 1.167 . S
C72 O78 1.299 . S
O73 Zn67 2.114 . S
O73 C68 1.166 . S
O74 Zn66 1.905 . S
O74 C68 1.182 . S
O75 Zn66 1.898 . S
O75 C69 1.167 . S
O76 Zn67 2.120 . S
O76 C69 1.299 . S
O77 Zn65 1.898 . S
O77 C72 1.167 . S
O78 Zn67 2.120 . S
O78 C72 1.299 . S
O79 Zn67 2.114 . S
O79 C81 1.166 . S
O80 Zn65 1.905 . S
O80 C81 1.182 . S
C81 O79 1.166 . S
C81 O80 1.182 . S
O82 Zn67 2.080 . S
O82 C85 1.305 . S
O83 Zn66 1.920 . S
O83 C85 1.234 . S
C84 O70 1.305 . S
C84 O71 1.234 . S
C85 O82 1.305 . S
C85 O83 1.234 . S
H86 C92 0.930 . S
H87 C96 0.930 . S
H88 C101 0.929 . S
H89 C99 0.929 . S
H90 C94 0.929 . S
H91 C100 0.929 . S
C92 H86 0.930 . S
C92 C93 1.367 . S
C92 C100 1.378 . S
C93 C92 1.367 . S
C93 C101 1.433 . S
C94 H90 0.929 . S
C94 C96 1.378 . S
C94 C98 1.350 . S
C95 C98 1.463 . S
C95 C100 1.350 . S
C95 N103 1.427 . S
C96 H87 0.930 . S
C96 C94 1.378 . S
C96 C97 1.367 . S
C97 C96 1.367 . S
C97 C99 1.433 . S
C98 C94 1.350 . S
C98 C95 1.463 . S
C98 N102 1.427 . S
C99 H89 0.929 . S
C99 C97 1.433 . S
C99 N102 1.384 . S
C100 H91 0.929 . S
C100 C92 1.378 . S
C100 C95 1.350 . S
C101 H88 0.929 . S
C101 C93 1.433 . S
C101 N103 1.384 . S
N102 C98 1.427 . S
N102 C99 1.384 . S
N103 C95 1.427 . S
N103 C101 1.384 . S
H104 C110 0.930 1_655 S
H105 C114 0.930 . S
H106 C119 0.929 . S
H107 C117 0.929 . S
H108 C112 0.929 . S
H109 C118 0.929 . S
C110 H104 0.930 1_455 S
C110 C111 1.367 . S
C110 C118 1.378 . S
C111 C110 1.367 . S
C111 C119 1.433 . S
C112 H108 0.929 . S
C112 C114 1.378 . S
C112 C116 1.350 . S
C113 C116 1.463 . S
C113 C118 1.350 . S
C113 N121 1.427 . S
C114 H105 0.930 . S
C114 C112 1.378 . S
C114 C115 1.367 . S
C115 C114 1.367 . S
C115 C117 1.433 . S
C116 C112 1.350 . S
C116 C113 1.463 . S
C116 N120 1.427 . S
C117 H107 0.929 . S
C117 C115 1.433 . S
C117 N120 1.384 . S
C118 H109 0.929 . S
C118 C110 1.378 . S
C118 C113 1.350 . S
C119 H106 0.929 . S
C119 C111 1.433 . S
C119 N121 1.384 . S
N120 C116 1.427 . S
N120 C117 1.384 . S
N121 C113 1.427 . S
N121 C119 1.384 . S
H122 C128 0.930 . S
H123 C132 0.930 . S
H124 C137 0.929 . S
H125 C135 0.929 . S
H126 C130 0.929 . S
H127 C136 0.929 . S
C128 H122 0.930 . S
C128 C129 1.367 . S
C128 C136 1.378 . S
C129 C128 1.367 . S
C129 C137 1.433 . S
C130 H126 0.929 . S
C130 C132 1.378 . S
C130 C134 1.350 . S
C131 C134 1.463 . S
C131 C136 1.350 . S
C131 N139 1.427 . S
C132 H123 0.930 . S
C132 C130 1.378 . S
C132 C133 1.367 . S
C133 C132 1.367 . S
C133 C135 1.433 . S
C134 C130 1.350 . S
C134 C131 1.463 . S
C134 N138 1.427 . S
C135 H125 0.929 . S
C135 C133 1.433 . S
C135 N138 1.384 . S
C136 H127 0.929 . S
C136 C128 1.378 . S
C136 C131 1.350 . S
C137 H124 0.929 . S
C137 C129 1.433 . S
C137 N139 1.384 . S
N138 C134 1.427 . S
N138 C135 1.384 . S
N139 C131 1.427 . S
N139 C137 1.384 . S
H140 C146 0.930 . S
H141 C150 0.930 . S
H142 C155 0.929 . S
H143 C153 0.929 . S
H144 C148 0.929 . S
H145 C154 0.929 . S
C146 H140 0.930 . S
C146 C147 1.367 . S
C146 C154 1.378 . S
C147 C146 1.367 . S
C147 C155 1.433 . S
C148 H144 0.929 . S
C148 C150 1.378 . S
C148 C152 1.350 . S
C149 C152 1.463 . S
C149 C154 1.350 . S
C149 N157 1.427 . S
C150 H141 0.930 . S
C150 C148 1.378 . S
C150 C151 1.367 . S
C151 C150 1.367 . S
C151 C153 1.433 . S
C152 C148 1.350 . S
C152 C149 1.463 . S
C152 N156 1.427 . S
C153 H143 0.929 . S
C153 C151 1.433 . S
C153 N156 1.384 . S
C154 H145 0.929 . S
C154 C146 1.378 . S
C154 C149 1.350 . S
C155 H142 0.929 . S
C155 C147 1.433 . S
C155 N157 1.384 . S
N156 C152 1.427 . S
N156 C153 1.384 . S
N157 C149 1.427 . S
N157 C155 1.384 . S
H158 C164 0.930 . S
H159 C168 0.930 . S
H160 C173 0.929 . S
H161 C171 0.929 . S
H162 C166 0.929 . S
H163 C172 0.929 1_554 S
C164 H158 0.930 . S
C164 C165 1.367 1_554 S
C164 C172 1.378 1_554 S
C165 C164 1.367 1_556 S
C165 C173 1.433 . S
C166 H162 0.929 . S
C166 C168 1.378 . S
C166 C170 1.350 . S
C167 C170 1.463 . S
C167 C172 1.350 . S
C167 N175 1.427 . S
C168 H159 0.930 . S
C168 C166 1.378 . S
C168 C169 1.367 . S
C169 C168 1.367 . S
C169 C171 1.433 . S
C170 C166 1.350 . S
C170 C167 1.463 . S
C170 N174 1.427 . S
C171 H161 0.929 . S
C171 C169 1.433 . S
C171 N174 1.384 . S
C172 H163 0.929 1_556 S
C172 C164 1.378 1_556 S
C172 C167 1.350 . S
C173 H160 0.929 . S
C173 C165 1.433 . S
C173 N175 1.384 . S
N174 C170 1.427 . S
N174 C171 1.384 . S
N175 C167 1.427 . S
N175 C173 1.384 . S
H176 C182 0.930 . S
H177 C186 0.930 . S
H178 C191 0.929 . S
H179 C189 0.929 . S
H180 C184 0.929 . S
H181 C190 0.929 1_554 S
C182 H176 0.930 . S
C182 C183 1.367 1_554 S
C182 C190 1.378 1_554 S
C183 C182 1.367 1_556 S
C183 C191 1.433 . S
C184 H180 0.929 . S
C184 C186 1.378 . S
C184 C188 1.350 . S
C185 C188 1.463 . S
C185 C190 1.350 . S
C185 N193 1.427 . S
C186 H177 0.930 . S
C186 C184 1.378 . S
C186 C187 1.367 . S
C187 C186 1.367 . S
C187 C189 1.433 . S
C188 C184 1.350 . S
C188 C185 1.463 . S
C188 N192 1.427 . S
C189 H179 0.929 . S
C189 C187 1.433 . S
C189 N192 1.384 . S
C190 H181 0.929 1_556 S
C190 C182 1.378 1_556 S
C190 C185 1.350 . S
C191 H178 0.929 . S
C191 C183 1.433 . S
C191 N193 1.384 . S
N192 C188 1.427 . S
N192 C189 1.384 . S
N193 C185 1.427 . S
N193 C191 1.384 . S
H194 C200 0.925 1_454 S
H195 C204 0.930 . S
H196 C209 0.929 1_455 S
H197 C207 0.929 . S
H198 C202 0.929 . S
H199 C208 0.929 . S
C200 H194 0.925 1_656 S
C200 C201 1.367 1_655 S
C200 C208 1.378 . S
C201 C200 1.367 1_455 S
C201 C209 1.433 1_455 S
C202 H198 0.929 . S
C202 C204 1.378 . S
C202 C206 1.350 . S
C203 C206 1.463 . S
C203 C208 1.350 . S
C203 N211 1.427 . S
C204 H195 0.930 . S
C204 C202 1.378 . S
C204 C205 1.367 . S
C205 C204 1.367 . S
C205 C207 1.433 . S
C206 C202 1.350 . S
C206 C203 1.463 . S
C206 N210 1.427 . S
C207 H197 0.929 . S
C207 C205 1.433 . S
C207 N210 1.384 . S
C208 H199 0.929 . S
C208 C200 1.378 . S
C208 C203 1.350 . S
C209 H196 0.929 1_655 S
C209 C201 1.433 1_655 S
C209 N211 1.384 . S
N210 C206 1.427 . S
N210 C207 1.384 . S
N211 C203 1.427 . S
N211 C209 1.384 . S
H212 C218 0.919 1_554 S
H213 C222 0.930 . S
H214 C227 0.929 . S
H215 C225 0.929 . S
H216 C220 0.929 . S
H217 C226 0.929 . S
C218 H212 0.919 1_556 S
C218 C219 1.367 . S
C218 C226 1.378 . S
C219 C218 1.367 . S
C219 C227 1.433 . S
C220 H216 0.929 . S
C220 C222 1.378 . S
C220 C224 1.350 . S
C221 C224 1.463 . S
C221 C226 1.350 . S
C221 N229 1.427 . S
C222 H213 0.930 . S
C222 C220 1.378 . S
C222 C223 1.367 . S
C223 C222 1.367 . S
C223 C225 1.433 . S
C224 C220 1.350 . S
C224 C221 1.463 . S
C224 N228 1.427 . S
C225 H215 0.929 . S
C225 C223 1.433 . S
C225 N228 1.384 . S
C226 H217 0.929 . S
C226 C218 1.378 . S
C226 C221 1.350 . S
C227 H214 0.929 . S
C227 C219 1.433 . S
C227 N229 1.384 . S
N228 C224 1.427 . S
N228 C225 1.384 . S
N229 C221 1.427 . S
N229 C227 1.384 . S
H230 C236 0.930 . S
H231 C240 0.930 1_455 S
H232 C245 0.929 . S
H233 C243 0.929 . S
H234 C238 0.929 . S
H235 C244 0.929 . S
C236 H230 0.930 . S
C236 C237 1.367 . S
C236 C244 1.378 . S
C237 C236 1.367 . S
C237 C245 1.433 . S
C238 H234 0.929 . S
C238 C240 1.378 . S
C238 C242 1.350 . S
C239 C242 1.463 . S
C239 C244 1.350 . S
C239 N247 1.427 . S
C240 H231 0.930 1_655 S
C240 C238 1.378 . S
C240 C241 1.367 . S
C241 C240 1.367 . S
C241 C243 1.433 . S
C242 C238 1.350 . S
C242 C239 1.463 . S
C242 N246 1.427 . S
C243 H233 0.929 . S
C243 C241 1.433 . S
C243 N246 1.384 . S
C244 H235 0.929 . S
C244 C236 1.378 . S
C244 C239 1.350 . S
C245 H232 0.929 . S
C245 C237 1.433 . S
C245 N247 1.384 . S
N246 C242 1.427 . S
N246 C243 1.384 . S
N247 C239 1.427 . S
N247 C245 1.384 . S
H248 C254 0.930 . S
H249 C258 0.930 . S
H250 C263 0.929 . S
H251 C261 0.929 . S
H252 C256 0.929 . S
H253 C262 0.929 . S
C254 H248 0.930 . S
C254 C255 1.367 . S
C254 C262 1.378 . S
C255 C254 1.367 . S
C255 C263 1.433 . S
C256 H252 0.929 . S
C256 C258 1.378 . S
C256 C260 1.350 . S
C257 C260 1.463 . S
C257 C262 1.350 . S
C257 N265 1.427 . S
C258 H249 0.930 . S
C258 C256 1.378 . S
C258 C259 1.367 . S
C259 C258 1.367 . S
C259 C261 1.433 . S
C260 C256 1.350 . S
C260 C257 1.463 . S
C260 N264 1.427 . S
C261 H251 0.929 . S
C261 C259 1.433 . S
C261 N264 1.384 . S
C262 H253 0.929 . S
C262 C254 1.378 . S
C262 C257 1.350 . S
C263 H250 0.929 . S
C263 C255 1.433 . S
C263 N265 1.384 . S
N264 C260 1.427 . S
N264 C261 1.384 . S
N265 C257 1.427 . S
N265 C263 1.384 . S
H266 C272 0.930 . S
H267 C276 0.930 . S
H268 C281 0.929 . S
H269 C279 0.929 . S
H270 C274 0.929 . S
H271 C280 0.929 . S
C272 H266 0.930 . S
C272 C273 1.367 . S
C272 C280 1.378 . S
C273 C272 1.367 . S
C273 C281 1.433 . S
C274 H270 0.929 . S
C274 C276 1.378 . S
C274 C278 1.350 . S
C275 C278 1.463 . S
C275 C280 1.350 . S
C275 N283 1.427 . S
C276 H267 0.930 . S
C276 C274 1.378 . S
C276 C277 1.367 . S
C277 C276 1.367 . S
C277 C279 1.433 . S
C278 C274 1.350 . S
C278 C275 1.463 . S
C278 N282 1.427 . S
C279 H269 0.929 . S
C279 C277 1.433 . S
C279 N282 1.384 . S
C280 H271 0.929 . S
C280 C272 1.378 . S
C280 C275 1.350 . S
C281 H268 0.929 . S
C281 C273 1.433 . S
C281 N283 1.384 . S
N282 C278 1.427 . S
N282 C279 1.384 . S
N283 C275 1.427 . S
N283 C281 1.384 . S
H284 C290 0.930 . S
H285 C294 0.930 . S
H286 C299 0.929 . S
H287 C297 0.929 . S
H288 C292 0.929 . S
H289 C298 0.929 . S
C290 H284 0.930 . S
C290 C291 1.367 . S
C290 C298 1.378 . S
C291 C290 1.367 . S
C291 C299 1.433 . S
C292 H288 0.929 . S
C292 C294 1.378 . S
C292 C296 1.350 . S
C293 C296 1.463 . S
C293 C298 1.350 . S
C293 N301 1.427 . S
C294 H285 0.930 . S
C294 C292 1.378 . S
C294 C295 1.367 . S
C295 C294 1.367 . S
C295 C297 1.433 . S
C296 C292 1.350 . S
C296 C293 1.463 . S
C296 N300 1.427 . S
C297 H287 0.929 . S
C297 C295 1.433 . S
C297 N300 1.384 . S
C298 H289 0.929 . S
C298 C290 1.378 . S
C298 C293 1.350 . S
C299 H286 0.929 . S
C299 C291 1.433 . S
C299 N301 1.384 . S
N300 C296 1.427 . S
N300 C297 1.384 . S
N301 C293 1.427 . S
N301 C299 1.384 . S
C97 C51 1.402 . S
C93 C10 1.535 . S
C115 C47 1.392 . S
C111 C21 1.506 . S
C133 C72 1.422 . S
C129 C32 1.532 . S
C147 C43 1.507 . S
C151 C68 1.393 . S
C165 C5 1.250 . S
C169 C69 1.113 . S
C187 C84 1.129 . S
C183 C15 1.270 . S
C201 C4 1.722 . S
C205 C85 1.576 . S
C223 C81 1.608 . S
C219 C16 1.744 . S
C241 C48 1.122 1_655 S
C237 C27 1.248 . S
C255 C37 1.270 . S
C259 C63 1.145 . S
C277 C64 1.582 . S
C273 C26 1.724 . S
C295 C60 1.607 . S
C291 C38 1.743 . S
