# Generated by pormake.
# Topology anh, (6,3)-cn, num edge types: 1
# Building blocks:
#     Node 0, Type 0, BuildingBlock: GEDQOX_clean_sbu_0, # of connection points: 6
#     Node 1, Type 0, BuildingBlock: GEDQOX_clean_sbu_0, # of connection points: 6
#     Node 2, Type 0, BuildingBlock: GEDQOX_clean_sbu_0, # of connection points: 6
#     Node 3, Type 1, BuildingBlock: CUQRIR_clean_linker_1, # of connection points: 3
#     Node 4, Type 1, BuildingBlock: CUQRIR_clean_linker_1, # of connection points: 3
#     Node 5, Type 1, BuildingBlock: CUQRIR_clean_linker_1, # of connection points: 3
#     Node 6, Type 1, BuildingBlock: CUQRIR_clean_linker_1, # of connection points: 3
#     Node 7, Type 1, BuildingBlock: CUQRIR_clean_linker_1, # of connection points: 3
#     Node 8, Type 1, BuildingBlock: CUQRIR_clean_linker_1, # of connection points: 3
#     Edge 9, Type (0, 1), BuildingBlock: XUDNAN_clean_linker_2, # of connection points: 2
#     Edge 10, Type (0, 1), BuildingBlock: XUDNAN_clean_linker_2, # of connection points: 2
#     Edge 11, Type (0, 1), BuildingBlock: XUDNAN_clean_linker_2, # of connection points: 2
#     Edge 12, Type (0, 1), BuildingBlock: XUDNAN_clean_linker_2, # of connection points: 2
#     Edge 13, Type (0, 1), BuildingBlock: XUDNAN_clean_linker_2, # of connection points: 2
#     Edge 14, Type (0, 1), BuildingBlock: XUDNAN_clean_linker_2, # of connection points: 2
#     Edge 15, Type (0, 1), BuildingBlock: XUDNAN_clean_linker_2, # of connection points: 2
#     Edge 16, Type (0, 1), BuildingBlock: XUDNAN_clean_linker_2, # of connection points: 2
#     Edge 17, Type (0, 1), BuildingBlock: XUDNAN_clean_linker_2, # of connection points: 2
#     Edge 18, Type (0, 1), BuildingBlock: XUDNAN_clean_linker_2, # of connection points: 2
#     Edge 19, Type (0, 1), BuildingBlock: XUDNAN_clean_linker_2, # of connection points: 2
#     Edge 20, Type (0, 1), BuildingBlock: XUDNAN_clean_linker_2, # of connection points: 2
#     Edge 21, Type (0, 1), BuildingBlock: XUDNAN_clean_linker_2, # of connection points: 2
#     Edge 22, Type (0, 1), BuildingBlock: XUDNAN_clean_linker_2, # of connection points: 2
#     Edge 23, Type (0, 1), BuildingBlock: XUDNAN_clean_linker_2, # of connection points: 2
#     Edge 24, Type (0, 1), BuildingBlock: XUDNAN_clean_linker_2, # of connection points: 2
#     Edge 25, Type (0, 1), BuildingBlock: XUDNAN_clean_linker_2, # of connection points: 2
#     Edge 26, Type (0, 1), BuildingBlock: XUDNAN_clean_linker_2, # of connection points: 2
# Relax obj value: 0.201
# Max RMSD: 0.215
# Mean RMSD: 0.168
data_MOF--net-anh--node1-GEDQOX_clean_sbu_0--node2-CUQRIR_clean_linker_1--edge1-XUDNAN_clean_linker_2
_symmetry_space_group_name_H-M    P1
_symmetry_Int_Tables_number       1
_symmetry_cell_setting            triclinic
loop_
_symmetry_equiv_pos_as_xyz
'x, y, z'
_cell_length_a     28.341357
_cell_length_b     27.351076
_cell_length_c     46.571714
_cell_angle_alpha  87.302369
_cell_angle_beta   90.002495
_cell_angle_gamma 101.99121
loop_
_atom_site_label
_atom_site_type_symbol
_atom_site_fract_x
_atom_site_fract_y
_atom_site_fract_z
_atom_type_partial_charge
Nd0 Nd 1.05967 0.59276 0.14674 0.0
Nd1 Nd 1.03773 0.4822 0.15648 0.0
C2 C 0.09549 0.68731 0.1305 0.0
C3 C 0.14031 0.72407 0.13595 0.0
C4 C 0.18484 0.70948 0.13882 0.0
C5 C 0.22636 0.74419 0.14592 0.0
C6 C 0.22423 0.7943 0.15018 0.0
C7 C 0.17963 0.80884 0.14689 0.0
C8 C 0.13813 0.77405 0.13991 0.0
C9 C 1.04541 0.56135 0.2033 0.0
C10 C 0.15386 0.53436 0.15147 0.0
C11 C 1.00758 0.38978 0.17858 0.0
C12 C 0.96458 0.35079 0.18628 0.0
C13 C 0.92133 0.36262 0.19558 0.0
C14 C 0.88248 0.32447 0.20488 0.0
C15 C 0.88632 0.27389 0.20512 0.0
C16 C 0.92936 0.26244 0.19502 0.0
C17 C 0.96801 0.30047 0.18575 0.0
C18 C 1.05069 0.51249 0.09985 0.0
C19 C 0.94429 0.54133 0.14588 0.0
O20 O 0.09918 0.64959 0.11493 0.0
O21 O 1.06653 0.67396 0.15261 0.0
O22 O 1.02871 0.59805 0.19156 0.0
O23 O 1.06996 0.54328 0.18555 0.0
O24 O 0.13775 0.57607 0.14594 0.0
O25 O 0.12245 0.49184 0.15784 0.0
O26 O 1.01623 0.42945 0.19396 0.0
O27 O 1.01751 0.40003 0.15128 0.0
O28 O 1.06556 0.47418 0.11125 0.0
O29 O 1.02761 0.53182 0.11779 0.0
O30 O 0.95834 0.49982 0.15557 0.0
O31 O 0.97749 0.58152 0.13788 0.0
H32 H 0.18751 0.67118 0.1358 0.0
H33 H 0.26017 0.73182 0.14795 0.0
H34 H 0.1765 0.84691 0.15038 0.0
H35 H 0.1041 0.78603 0.13802 0.0
H36 H 0.9179 0.40129 0.19615 0.0
H37 H 0.84999 0.33468 0.21264 0.0
H38 H 0.93329 0.22396 0.19432 0.0
H39 H 1.00102 0.29056 0.17858 0.0
Nd40 Nd 0.57406 0.97382 0.54069 0.0
Nd41 Nd 0.68732 1.00573 0.52519 0.0
C42 C 0.49022 0.93541 0.56526 0.0
C43 C 0.45092 0.8944 0.55669 0.0
C44 C 0.4302 0.85631 0.57688 0.0
C45 C 0.39718 0.81421 0.56817 0.0
C46 C 0.3842 0.80956 0.53909 0.0
C47 C 0.40406 0.84846 0.51908 0.0
C48 C 0.43719 0.89028 0.52775 0.0
C49 C 0.58994 0.98242 0.48175 0.0
C50 C 0.6366 0.88735 0.52738 0.0
C51 C 0.77189 0.04789 0.5021 0.0
C52 C 0.79677 0.09861 0.49203 0.0
C53 C 0.82549 0.10509 0.46708 0.0
C54 C 0.85034 0.15284 0.45765 0.0
C55 C 0.84704 0.19504 0.4731 0.0
C56 C 0.81779 0.18833 0.49798 0.0
C57 C 0.79266 0.14069 0.50725 0.0
C58 C 0.66459 0.97689 0.58152 0.0
C59 C 0.6231 0.09278 0.53667 0.0
O60 O 0.53024 0.92182 0.57317 0.0
O61 O 0.49774 0.97659 0.54873 0.0
O62 O 0.54709 0.96947 0.49302 0.0
O63 O 0.61965 0.98851 0.50167 0.0
O64 O 0.59839 0.89909 0.53934 0.0
O65 O 0.67416 0.92127 0.51733 0.0
O66 O 0.73519 0.02634 0.48683 0.0
O67 O 0.76435 0.04042 0.52988 0.0
O68 O 0.70145 0.96725 0.56788 0.0
O69 O 0.64213 1.00316 0.56566 0.0
O70 O 0.6637 0.08188 0.52718 0.0
O71 O 0.5854 0.05815 0.54554 0.0
H72 H 0.44055 0.8585 0.59925 0.0
H73 H 0.38217 0.78506 0.58414 0.0
H74 H 0.39542 0.84574 0.49648 0.0
H75 H 0.4531 0.91867 0.51158 0.0
H76 H 0.82889 0.07313 0.45494 0.0
H77 H 0.87203 0.1567 0.43821 0.0
H78 H 0.81519 0.21975 0.51074 0.0
H79 H 0.77056 0.13673 0.52653 0.0
Nd80 Nd 0.57375 0.5651 0.84003 0.0
Nd81 Nd 0.68253 0.58703 0.84486 0.0
C82 C 0.48391 0.57185 0.83071 0.0
C83 C 0.45759 0.60747 0.84207 0.0
C84 C 0.47564 0.63505 0.86583 0.0
C85 C 0.44898 0.66618 0.87828 0.0
C86 C 0.40364 0.66972 0.86729 0.0
C87 C 0.38734 0.64437 0.84226 0.0
C88 C 0.41421 0.61355 0.82975 0.0
C89 C 0.60715 0.54769 0.89403 0.0
C90 C 0.63254 0.68327 0.84562 0.0
C91 C 0.76905 0.58096 0.86111 0.0
C92 C 0.79871 0.55168 0.84594 0.0
C93 C 0.78075 0.50055 0.84171 0.0
C94 C 0.80221 0.47551 0.82163 0.0
C95 C 0.84255 0.5007 0.80556 0.0
C96 C 0.8619 0.55126 0.81088 0.0
C97 C 0.84007 0.57648 0.83072 0.0
C98 C 0.66239 0.58435 0.78697 0.0
C99 C 0.62215 0.47283 0.8304 0.0
O100 O 0.51898 0.5913 0.81279 0.0
O101 O 0.49593 0.54021 0.84985 0.0
O102 O 0.57202 0.51785 0.88199 0.0
O103 O 0.62368 0.58587 0.8778 0.0
O104 O 0.59166 0.65053 0.84286 0.0
O105 O 0.6742 0.66892 0.84816 0.0
O106 O 0.73049 0.55505 0.87453 0.0
O107 O 0.76072 0.62024 0.84629 0.0
O108 O 0.70556 0.59365 0.79715 0.0
O109 O 0.63194 0.57771 0.80717 0.0
O110 O 0.66012 0.5001 0.84286 0.0
O111 O 0.58528 0.49244 0.82232 0.0
H112 H 0.50953 0.63106 0.87543 0.0
H113 H 0.46251 0.68519 0.89742 0.0
H114 H 0.35214 0.64524 0.83347 0.0
H115 H 0.40012 0.59283 0.81126 0.0
H116 H 0.74896 0.48012 0.85314 0.0
H117 H 0.78682 0.4366 0.81844 0.0
H118 H 0.89424 0.57151 0.79986 0.0
H119 H 0.85452 0.61588 0.83341 0.0
C120 C 0.55663 0.01837 0.22796 0.0
N121 N 0.58572 0.03185 0.25061 0.0
N122 N 0.51322 0.99125 0.23703 0.0
C123 C 0.57174 0.02856 0.19691 0.0
C124 C 0.51682 0.98877 0.26604 0.0
N125 N 0.56122 1.01281 0.2744 0.0
C126 C 0.47498 0.96791 0.28607 0.0
H127 H 0.55198 0.99881 0.18339 0.0
H128 H 0.6111 0.03104 0.19428 0.0
H129 H 0.56334 0.06478 0.18923 0.0
H130 H 0.47394 0.92764 0.29106 0.0
H131 H 0.44031 0.97124 0.2759 0.0
H132 H 0.47843 0.98772 0.30646 0.0
C133 C 0.64059 0.49304 0.5415 0.0
N134 N 0.64369 0.53244 0.55859 0.0
N135 N 0.64809 0.45196 0.5568 0.0
C136 C 0.63021 0.4942 0.50987 0.0
C137 C 0.65548 0.46769 0.58389 0.0
N138 N 0.65319 0.51658 0.58495 0.0
C139 C 0.65893 0.43399 0.61002 0.0
H140 H 0.5906 0.48471 0.50676 0.0
H141 H 0.64632 0.46615 0.49907 0.0
H142 H 0.64449 0.53197 0.49981 0.0
H143 H 0.69606 0.44353 0.6186 0.0
H144 H 0.65062 0.39386 0.60515 0.0
H145 H 0.63385 0.44031 0.6271 0.0
C146 C 0.11675 0.52001 0.85432 0.0
N147 N 0.11477 0.53971 0.88028 0.0
N148 N 1.07498 0.48735 0.84903 0.0
C149 C 0.16078 0.53005 0.83514 0.0
C150 C 1.04769 0.48829 0.87301 0.0
N151 N 1.07219 0.51965 0.89192 0.0
C152 C 0.99506 0.46459 0.87649 0.0
H153 H 0.16191 0.56506 0.8219 0.0
H154 H 0.16024 0.49887 0.82066 0.0
H155 H 0.194 0.53526 0.84826 0.0
H156 H 0.99095 0.4238 0.88118 0.0
H157 H 0.97571 0.47092 0.85641 0.0
H158 H 0.97824 0.4804 0.89442 0.0
C159 C 0.12145 0.51303 0.45202 0.0
N160 N 0.09238 0.49609 0.43005 0.0
N161 N 0.15932 0.54883 0.44234 0.0
C162 C 0.11161 0.49648 0.4831 0.0
C163 C 0.15216 0.55278 0.41358 0.0
N164 N 0.11153 0.52044 0.4061 0.0
C165 C 0.18345 0.58987 0.39306 0.0
H166 H 1.07289 0.47985 0.48705 0.0
H167 H 0.12295 0.52844 0.49713 0.0
H168 H 0.1328 0.46773 0.48902 0.0
H169 H 0.22 0.60293 0.40191 0.0
H170 H 0.16637 0.62255 0.38913 0.0
H171 H 0.18692 0.57325 0.37213 0.0
C172 C 0.64958 0.08233 0.82316 0.0
N173 N 0.65595 0.04448 0.8067 0.0
N174 N 0.65732 0.12656 0.8076 0.0
C175 C 0.63296 0.0757 0.85396 0.0
C176 C 0.66759 0.11396 0.78089 0.0
N177 N 0.66621 0.06412 0.78018 0.0
C178 C 0.67542 0.15001 0.75506 0.0
H179 H 0.59298 0.06539 0.85463 0.0
H180 H 0.64467 0.11099 0.86523 0.0
H181 H 0.64717 0.04514 0.86518 0.0
H182 H 0.69684 0.18684 0.7609 0.0
H183 H 0.63992 0.1558 0.74721 0.0
H184 H 0.69438 0.13566 0.73748 0.0
C185 C 0.54967 0.53402 0.14122 0.0
N186 N 0.58716 0.52846 0.12368 0.0
N187 N 0.50595 0.52539 0.12731 0.0
C188 C 0.55568 0.54754 0.17201 0.0
C189 C 0.51901 0.51576 0.10041 0.0
N190 N 0.56735 0.51772 0.09821 0.0
C191 C 0.48454 0.50763 0.07559 0.0
H192 H 0.58576 0.5326 0.18188 0.0
H193 H 0.52185 0.53292 0.18441 0.0
H194 H 0.5645 0.58889 0.17292 0.0
H195 H 0.45995 0.53433 0.0759 0.0
H196 H 0.46221 0.4692 0.07788 0.0
H197 H 0.50331 0.51169 0.05448 0.0
H198 H 0.21117 0.4643 0.13644 0.0
H199 H 0.22325 0.61363 0.16697 0.0
H200 H 0.31186 0.62564 0.16628 0.0
H201 H 0.31573 0.43401 0.17527 0.0
H202 H 0.33538 0.40166 0.14616 0.0
H203 H 0.27242 0.40315 0.15014 0.0
H204 H 0.27175 0.44048 0.09817 0.0
H205 H 0.33468 0.43906 0.09404 0.0
H206 H 0.31462 0.49695 0.08765 0.0
H207 H 0.40226 0.62267 0.16209 0.0
H208 H 0.4833 0.60645 0.15173 0.0
H209 H 0.41681 0.46027 0.12267 0.0
C210 C 0.23238 0.49933 0.1433 0.0
C211 C 0.20882 0.53799 0.1519 0.0
C212 C 0.23914 0.58333 0.16011 0.0
C213 C 0.2901 0.59052 0.15992 0.0
C214 C 0.31205 0.55229 0.15118 0.0
C215 C 0.28413 0.50756 0.1428 0.0
C216 C 0.31745 0.47352 0.13314 0.0
C217 C 0.30977 0.42521 0.15232 0.0
C218 C 0.30911 0.4618 0.10136 0.0
C219 C 0.36803 0.50586 0.13744 0.0
C220 C 0.36396 0.55107 0.14812 0.0
C221 C 0.40547 0.5872 0.15378 0.0
C222 C 0.45182 0.57751 0.14806 0.0
C223 C 0.45765 0.53201 0.1365 0.0
C224 C 0.41445 0.49563 0.13141 0.0
H225 H 0.93986 0.22024 0.45181 0.0
H226 H 0.81772 0.28466 0.47392 0.0
H227 H 0.86595 0.36912 0.46171 0.0
H228 H 1.0295 0.31216 0.48042 0.0
H229 H 1.07346 0.3121 0.45246 0.0
H230 H 1.02827 0.25656 0.46086 0.0
H231 H 1.00102 0.25477 0.40771 0.0
H232 H 1.04626 0.31038 0.39913 0.0
H233 H 0.98389 0.30915 0.39091 0.0
H234 H 0.92955 0.4469 0.45097 0.0
H235 H 1.00412 0.51184 0.442 0.0
H236 H 1.08325 0.39712 0.42491 0.0
C237 C 0.92281 0.25195 0.45346 0.0
C238 C 0.87491 0.24567 0.46385 0.0
C239 C 0.85449 0.28844 0.46635 0.0
C240 C 0.88147 0.33658 0.45923 0.0
C241 C 0.92872 0.34139 0.44939 0.0
C242 C 0.94913 0.30021 0.44633 0.0
C243 C 1.00136 0.3157 0.43664 0.0
C244 C 1.03512 0.29809 0.45893 0.0
C245 C 1.00854 0.29635 0.40682 0.0
C246 C 1.00749 0.37207 0.43534 0.0
C247 C 0.96505 0.38617 0.4426 0.0
C248 C 0.96267 0.43631 0.4447 0.0
C249 C 1.00485 0.47286 0.43949 0.0
C250 C 1.04841 0.45899 0.43212 0.0
C251 C 1.04972 0.40817 0.42981 0.0
H252 H 0.70604 0.76881 0.83713 0.0
H253 H 0.55144 0.7207 0.85103 0.0
H254 H 0.54172 0.80728 0.84394 0.0
H255 H 0.71772 0.88875 0.87308 0.0
H256 H 0.76216 0.92246 0.84769 0.0
H257 H 0.75812 0.85652 0.85543 0.0
H258 H 0.74784 0.84076 0.80114 0.0
H259 H 0.75134 0.90657 0.79331 0.0
H260 H 0.6999 0.86153 0.7818 0.0
H261 H 0.54643 0.89778 0.83153 0.0
H262 H 0.56752 0.98845 0.81773 0.0
H263 H 0.71859 0.98177 0.81465 0.0
C264 C 0.67033 0.77665 0.83922 0.0
C265 C 0.62955 0.73732 0.84466 0.0
C266 C 0.58339 0.74955 0.84683 0.0
C267 C 0.57734 0.79891 0.84282 0.0
C268 C 0.61778 0.83645 0.83679 0.0
C269 C 0.66353 0.82629 0.83534 0.0
C270 C 0.70057 0.87413 0.82798 0.0
C271 C 0.73678 0.88617 0.85251 0.0
C272 C 0.72644 0.8705 0.79936 0.0
C273 C 0.66832 0.91219 0.82519 0.0
C274 C 0.62063 0.88943 0.83025 0.0
C275 C 0.58373 0.91613 0.8278 0.0
C276 C 0.59585 0.96744 0.81996 0.0
C277 C 0.64438 0.99164 0.81479 0.0
C278 C 0.6811 0.96376 0.81786 0.0
H279 H 0.85824 0.46836 0.13498 0.0
H280 H 0.90775 0.62438 0.15369 0.0
H281 H 0.8241 0.63662 0.15152 0.0
H282 H 0.76685 0.4915 0.08321 0.0
H283 H 0.72332 0.43536 0.09334 0.0
H284 H 0.78684 0.43706 0.09773 0.0
H285 H 0.77243 0.41088 0.15157 0.0
H286 H 0.70886 0.40901 0.14732 0.0
H287 H 0.74243 0.44727 0.17396 0.0
H288 H 0.73289 0.63297 0.14823 0.0
H289 H 0.64454 0.61468 0.14034 0.0
H290 H 0.65017 0.46313 0.1202 0.0
C291 C 0.85149 0.50502 0.13886 0.0
C292 C 0.89093 0.54535 0.14483 0.0
C293 C 0.87934 0.59265 0.14914 0.0
C294 C 0.8314 0.60006 0.148 0.0
C295 C 0.79375 0.56013 0.14197 0.0
C296 C 0.80316 0.51352 0.13711 0.0
C297 C 0.75569 0.47779 0.12968 0.0
C298 C 0.75835 0.45932 0.09918 0.0
C299 C 0.74418 0.4336 0.15196 0.0
C300 C 0.71846 0.51134 0.13136 0.0
C301 C 0.74139 0.55863 0.13882 0.0
C302 C 0.71491 0.59601 0.14228 0.0
C303 C 0.66434 0.58527 0.13788 0.0
C304 C 0.63949 0.53758 0.12966 0.0
C305 C 0.66756 0.50016 0.12634 0.0
H306 H 0.31042 0.80238 0.50018 0.0
H307 H 0.38598 0.71234 0.5553 0.0
H308 H 0.33594 0.63546 0.53681 0.0
H309 H 0.19243 0.72032 0.50688 0.0
H310 H 0.17698 0.73155 0.46996 0.0
H311 H 0.21771 0.77927 0.4883 0.0
H312 H 0.28187 0.78257 0.4482 0.0
H313 H 0.24148 0.7346 0.42985 0.0
H314 H 0.30085 0.72597 0.4396 0.0
H315 H 0.28 0.56832 0.51058 0.0
H316 H 0.21957 0.51625 0.48007 0.0
H317 H 0.17987 0.64994 0.443 0.0
C318 C 0.3164 0.76649 0.5084 0.0
C319 C 0.35205 0.76339 0.52926 0.0
C320 C 0.35843 0.71566 0.53964 0.0
C321 C 0.33043 0.67179 0.52911 0.0
C322 C 0.29603 0.67624 0.50831 0.0
C323 C 0.28868 0.72237 0.49821 0.0
C324 C 0.24957 0.71692 0.47572 0.0
C325 C 0.20663 0.73827 0.48583 0.0
C326 C 0.26966 0.74147 0.44662 0.0
C327 C 0.2363 0.66051 0.47457 0.0
C328 C 0.26357 0.63769 0.49346 0.0
C329 C 0.25825 0.5858 0.49585 0.0
C330 C 0.22394 0.55656 0.47856 0.0
C331 C 0.19545 0.57926 0.45929 0.0
C332 C 0.20172 0.63186 0.45736 0.0
H333 H 0.69594 0.42176 0.82397 0.0
H334 H 0.54033 0.40002 0.83055 0.0
H335 H 0.53314 0.30884 0.82806 0.0
H336 H 0.69604 0.32598 0.77268 0.0
H337 H 0.74845 0.30714 0.78776 0.0
H338 H 0.74082 0.37044 0.79062 0.0
H339 H 0.74877 0.36059 0.84642 0.0
H340 H 0.75598 0.29725 0.84292 0.0
H341 H 0.70903 0.30984 0.8658 0.0
H342 H 0.54246 0.21964 0.82552 0.0
H343 H 0.56768 0.13942 0.81843 0.0
H344 H 0.71674 0.21778 0.81193 0.0
C345 C 0.66049 0.39775 0.82514 0.0
C346 C 0.61875 0.41816 0.82773 0.0
C347 C 0.57283 0.38544 0.82848 0.0
C348 C 0.56839 0.33348 0.82726 0.0
C349 C 0.61016 0.31453 0.82495 0.0
C350 C 0.65536 0.34564 0.8235 0.0
C351 C 0.69428 0.3156 0.81968 0.0
C352 C 0.72151 0.3307 0.79099 0.0
C353 C 0.72908 0.32117 0.84522 0.0
C354 C 0.66389 0.26283 0.81937 0.0
C355 C 0.61547 0.26309 0.82271 0.0
C356 C 0.58027 0.21902 0.82292 0.0
C357 C 0.5948 0.17366 0.81908 0.0
C358 C 0.64396 0.17263 0.8149 0.0
C359 C 0.67895 0.21775 0.81531 0.0
H360 H 0.70252 0.8319 0.54663 0.0
H361 H 0.56447 0.82085 0.50467 0.0
H362 H 0.55265 0.72875 0.5068 0.0
H363 H 0.73724 0.72316 0.51421 0.0
H364 H 0.76327 0.70356 0.547 0.0
H365 H 0.76345 0.76885 0.53948 0.0
H366 H 0.7201 0.77169 0.58815 0.0
H367 H 0.7192 0.70628 0.59564 0.0
H368 H 0.6637 0.72861 0.59591 0.0
H369 H 0.55258 0.63832 0.51634 0.0
H370 H 0.56584 0.55435 0.53152 0.0
H371 H 0.70284 0.62172 0.56837 0.0
C372 C 0.67064 0.80995 0.53713 0.0
C373 C 0.63482 0.83332 0.52487 0.0
C374 C 0.59259 0.80352 0.51369 0.0
C375 C 0.5855 0.75122 0.5149 0.0
C376 C 0.62077 0.72907 0.5277 0.0
C377 C 0.66261 0.75729 0.53857 0.0
C378 C 0.69312 0.72359 0.55284 0.0
C379 C 0.74218 0.73018 0.53745 0.0
C380 C 0.69939 0.73313 0.58504 0.0
C381 C 0.66185 0.67229 0.54828 0.0
C382 C 0.62034 0.67646 0.53367 0.0
C383 C 0.58526 0.63455 0.52745 0.0
C384 C 0.5931 0.58705 0.53601 0.0
C385 C 0.63565 0.58171 0.55057 0.0
C386 C 0.67016 0.62497 0.55707 0.0
H387 H 0.85636 0.40535 0.81262 0.0
H388 H 0.88696 0.53507 0.75394 0.0
H389 H 0.95917 0.50952 0.73703 0.0
H390 H 0.92573 0.39599 0.84409 0.0
H391 H 0.94943 0.33965 0.84356 0.0
H392 H 0.88924 0.33903 0.83196 0.0
H393 H 0.90565 0.30647 0.78371 0.0
H394 H 0.96622 0.30497 0.79507 0.0
H395 H 0.95638 0.3375 0.76183 0.0
H396 H 1.03699 0.51334 0.75538 0.0
H397 H 1.08837 0.53464 0.79645 0.0
H398 H 1.02315 0.39496 0.84061 0.0
C399 C 0.87649 0.42597 0.79462 0.0
C400 C 0.86821 0.47354 0.78584 0.0
C401 C 0.89427 0.49966 0.76208 0.0
C402 C 0.93513 0.48473 0.75196 0.0
C403 C 0.94902 0.4434 0.76563 0.0
C404 C 0.91767 0.41089 0.78439 0.0
C405 C 0.94496 0.37649 0.80084 0.0
C406 C 0.92642 0.36222 0.83199 0.0
C407 C 0.94324 0.32861 0.78436 0.0
C408 C 0.99523 0.40906 0.79856 0.0
C409 C 0.99806 0.44348 0.77524 0.0
C410 C 1.0355 0.48582 0.773 0.0
C411 C 1.06502 0.49796 0.79669 0.0
C412 C 1.05866 0.46669 0.82194 0.0
C413 C 1.02738 0.41945 0.82149 0.0
H414 H 0.29416 0.7801 0.18892 0.0
H415 H 0.25331 0.89207 0.13038 0.0
H416 H 0.32408 0.95421 0.14544 0.0
H417 H 0.33464 0.8609 0.24546 0.0
H418 H 0.38435 0.83199 0.25529 0.0
H419 H 0.33145 0.79573 0.23923 0.0
H420 H 0.38435 0.77156 0.19905 0.0
H421 H 0.43747 0.80756 0.21507 0.0
H422 H 0.424 0.82016 0.17797 0.0
H423 H 0.39822 1.00502 0.16794 0.0
H424 H 0.47006 0.0403 0.1965 0.0
H425 H 0.46361 0.89516 0.23939 0.0
C426 C 0.30044 0.81747 0.17894 0.0
C427 C 0.26804 0.83115 0.15845 0.0
C428 C 0.27722 0.8808 0.14634 0.0
C429 C 0.31751 0.9163 0.15464 0.0
C430 C 0.34844 0.90167 0.17504 0.0
C431 C 0.34045 0.85341 0.187 0.0
C432 C 0.37859 0.84762 0.209 0.0
C433 C 0.35589 0.83322 0.23902 0.0
C434 C 0.40783 0.80946 0.19971 0.0
C435 C 0.40904 0.90024 0.20771 0.0
C436 C 0.39116 0.93083 0.18791 0.0
C437 C 0.41272 0.9813 0.18334 0.0
C438 C 0.45351 1.00099 0.19949 0.0
C439 C 0.47223 0.97032 0.21992 0.0
C440 C 0.44976 0.91931 0.22393 0.0
H441 H 0.6954 0.17679 0.54234 0.0
H442 H 0.54087 0.12893 0.53143 0.0
H443 H 0.53204 0.21674 0.53148 0.0
H444 H 0.68748 0.27061 0.59188 0.0
H445 H 0.74057 0.31401 0.57853 0.0
H446 H 0.73562 0.24781 0.57522 0.0
H447 H 0.74953 0.26198 0.52019 0.0
H448 H 0.75481 0.32827 0.52343 0.0
H449 H 0.71133 0.29475 0.49929 0.0
H450 H 0.5392 0.30925 0.53336 0.0
H451 H 0.56127 0.39992 0.54187 0.0
H452 H 0.70995 0.38862 0.55432 0.0
C453 C 0.65982 0.18493 0.53969 0.0
C454 C 0.61881 0.14595 0.53674 0.0
C455 C 0.57276 0.15807 0.53382 0.0
C456 C 0.5674 0.2079 0.53362 0.0
C457 C 0.60837 0.24541 0.53668 0.0
C458 C 0.65366 0.23461 0.54 0.0
C459 C 0.69119 0.28182 0.54492 0.0
C460 C 0.71511 0.27834 0.57439 0.0
C461 C 0.72895 0.29234 0.5205 0.0
C462 C 0.65983 0.32062 0.54413 0.0
C463 C 0.61229 0.29883 0.53883 0.0
C464 C 0.57632 0.32675 0.53741 0.0
C465 C 0.58908 0.3781 0.54209 0.0
C466 C 0.63717 0.40084 0.54841 0.0
C467 C 0.67306 0.37186 0.54917 0.0
H468 H 0.33826 0.72411 0.84889 0.0
H469 H 0.38874 0.6558 0.9252 0.0
H470 H 0.30912 0.64427 0.94717 0.0
H471 H 0.21918 0.75832 0.88936 0.0
H472 H 0.18656 0.74284 0.85669 0.0
H473 H 0.24838 0.77681 0.85503 0.0
H474 H 0.26922 0.70997 0.82263 0.0
H475 H 0.20851 0.67573 0.82469 0.0
H476 H 0.25669 0.64514 0.8355 0.0
H477 H 0.22893 0.59639 0.94795 0.0
H478 H 0.15912 0.53535 0.93138 0.0
H479 H 0.15037 0.6298 0.85561 0.0
C480 C 0.33268 0.7098 0.87096 0.0
C481 C 0.36869 0.68921 0.88488 0.0
C482 C 0.36157 0.67151 0.91387 0.0
C483 C 0.31591 0.66459 0.92658 0.0
C484 C 0.27813 0.67587 0.91008 0.0
C485 C 0.2864 0.70083 0.88326 0.0
C486 C 0.2397 0.69706 0.86677 0.0
C487 C 0.22243 0.7467 0.867 0.0
C488 C 0.24388 0.6809 0.83563 0.0
C489 C 0.20702 0.6572 0.88534 0.0
C490 C 0.22872 0.64781 0.91112 0.0
C491 C 0.21051 0.60508 0.92863 0.0
C492 C 0.17105 0.57024 0.91902 0.0
C493 C 0.15005 0.57856 0.8923 0.0
C494 C 0.16644 0.62355 0.87616 0.0
H495 H 0.78846 0.26457 0.19697 0.0
H496 H 0.89337 0.19073 0.23883 0.0
H497 H 0.82769 0.12166 0.25625 0.0
H498 H 0.69566 0.23065 0.25266 0.0
H499 H 0.64692 0.22167 0.22731 0.0
H500 H 0.70221 0.26589 0.21868 0.0
H501 H 0.71076 0.22073 0.17186 0.0
H502 H 0.65563 0.17629 0.18039 0.0
H503 H 0.71037 0.15465 0.17387 0.0
H504 H 0.75023 0.05878 0.26796 0.0
H505 H 0.66689 1.00777 0.2726 0.0
H506 H 0.61295 0.1238 0.22476 0.0
C507 C 0.79763 0.23423 0.21011 0.0
C508 C 0.84625 0.23311 0.21636 0.0
C509 C 0.85656 0.19218 0.23331 0.0
C510 C 0.81944 0.15287 0.24351 0.0
C511 C 0.77202 0.15497 0.23674 0.0
C512 C 0.761 0.19467 0.2205 0.0
C513 C 0.70716 0.1874 0.21575 0.0
C514 C 0.6868 0.22887 0.22942 0.0
C515 C 0.69531 0.18459 0.18356 0.0
C516 C 0.68969 0.13728 0.23165 0.0
C517 C 0.72758 0.11916 0.24369 0.0
C518 C 0.72027 0.07281 0.25879 0.0
C519 C 0.67302 0.04417 0.26142 0.0
C520 C 0.63391 0.0621 0.24908 0.0
C521 C 0.64246 0.10937 0.23426 0.0
H522 H 1.06405 0.45109 0.05774 0.0
H523 H 1.03335 0.59699 0.0719 0.0
H524 H 1.03034 0.61369 0.0192 0.0
H525 H 0.13912 0.48573 0.99591 0.0
H526 H 0.11623 0.42831 0.97841 0.0
H527 H 0.1159 0.42884 0.01703 0.0
H528 H 1.02378 0.3918 0.01765 0.0
H529 H 1.02385 0.39182 0.97897 0.0
H530 H 0.98417 0.42385 0.99739 0.0
H531 H 1.03703 0.6161 0.96472 0.0
H532 H 1.04945 0.60209 0.91309 0.0
H533 H 1.068 0.45225 0.93554 0.0
C534 C 1.05676 0.48658 0.04974 0.0
C535 C 1.0493 0.523 0.06867 0.0
C536 C 1.03931 0.56877 0.05755 0.0
C537 C 1.03743 0.57847 0.02775 0.0
C538 C 1.04472 0.54155 0.00959 0.0
C539 C 1.05375 0.49637 0.02022 0.0
C540 C 1.06014 0.46274 0.99633 0.0
C541 C 0.11086 0.45073 0.99697 0.0
C542 C 1.02062 0.41472 0.99768 0.0
C543 C 1.05407 0.49628 0.97053 0.0
C544 C 1.04549 0.54177 0.9785 0.0
C545 C 1.04269 0.58027 0.95822 0.0
C546 C 1.04955 0.57213 0.92912 0.0
C547 C 1.05834 0.5258 0.92086 0.0
C548 C 1.05973 0.48728 0.94166 0.0
H549 H 0.56008 0.92181 0.43789 0.0
H550 H 0.64208 0.06862 0.45668 0.0
H551 H 0.64925 0.09206 0.40445 0.0
H552 H 0.63196 0.90999 0.37214 0.0
H553 H 0.57974 0.87579 0.35436 0.0
H554 H 0.58398 0.87041 0.39295 0.0
H555 H 0.50179 0.89694 0.39775 0.0
H556 H 0.49756 0.90298 0.35926 0.0
H557 H 0.49397 0.95527 0.3807 0.0
H558 H 0.63396 0.10305 0.35069 0.0
H559 H 0.60904 0.09654 0.29982 0.0
H560 H 0.55081 0.93813 0.31558 0.0
C561 C 0.58042 0.95846 0.43085 0.0
C562 C 0.60051 0.99359 0.45097 0.0
C563 C 0.62683 0.04125 0.44133 0.0
C564 C 0.63088 0.05485 0.4118 0.0
C565 C 0.60978 0.01963 0.39234 0.0
C566 C 0.58639 0.97187 0.40149 0.0
C567 C 0.56695 0.94092 0.37635 0.0
C568 C 0.59218 0.89666 0.3738 0.0
C569 C 0.51181 0.923 0.37867 0.0
C570 C 0.58106 0.9793 0.35173 0.0
C571 C 0.60528 0.02468 0.36131 0.0
C572 C 0.61657 0.06722 0.3428 0.0
C573 C 0.60257 0.06316 0.31388 0.0
C574 C 0.5786 0.01666 0.3036 0.0
C575 C 0.56897 0.97418 0.32279 0.0
H576 H 0.72513 0.57787 0.74415 0.0
H577 H 0.57578 0.5837 0.76014 0.0
H578 H 0.55963 0.57843 0.70785 0.0
H579 H 0.74046 0.64792 0.67468 0.0
H580 H 0.77703 0.60824 0.66011 0.0
H581 H 0.77768 0.61797 0.69814 0.0
H582 H 0.75407 0.52207 0.70905 0.0
H583 H 0.75389 0.51213 0.67115 0.0
H584 H 0.70096 0.48649 0.69272 0.0
H585 H 0.55959 0.56792 0.65384 0.0
H586 H 0.5732 0.54334 0.60435 0.0
H587 H 0.72163 0.54182 0.62471 0.0
C588 C 0.68916 0.5788 0.7366 0.0
C589 C 0.65174 0.58174 0.75601 0.0
C590 C 0.60492 0.58172 0.74549 0.0
C591 C 0.59559 0.57907 0.71586 0.0
C592 C 0.63345 0.57622 0.69722 0.0
C593 C 0.6792 0.57556 0.7073 0.0
C594 C 0.71265 0.56758 0.68345 0.0
C595 C 0.75442 0.61316 0.67883 0.0
C596 C 0.73147 0.5192 0.68946 0.0
C597 C 0.67848 0.56289 0.65834 0.0
C598 C 0.63318 0.56896 0.66652 0.0
C599 C 0.59505 0.56371 0.64718 0.0
C600 C 0.60307 0.5502 0.61914 0.0
C601 C 0.64857 0.54161 0.61095 0.0
C602 C 0.6869 0.54925 0.63054 0.0
H603 H 0.60552 1.01611 0.61711 0.0
H604 H 0.718 0.93001 0.61756 0.0
H605 H 0.72399 0.9346 0.67016 0.0
H606 H 0.65572 0.09944 0.66711 0.0
H607 H 0.60045 0.1034 0.68511 0.0
H608 H 0.59938 0.08726 0.64809 0.0
H609 H 0.53668 1.00555 0.66053 0.0
H610 H 0.53718 0.02173 0.69764 0.0
H611 H 0.54965 0.96238 0.6884 0.0
H612 H 0.72912 0.96219 0.72052 0.0
H613 H 0.72683 1.00433 0.76612 0.0
H614 H 0.60552 0.06458 0.73543 0.0
C615 C 0.63031 0.99698 0.62843 0.0
C616 C 0.66139 0.97283 0.61327 0.0
C617 C 0.69389 0.94879 0.62874 0.0
C618 C 0.69752 0.9511 0.65866 0.0
C619 C 0.66778 0.9768 0.67292 0.0
C620 C 0.63408 0.9985 0.65846 0.0
C621 C 0.60883 0.0267 0.67877 0.0
C622 C 0.61658 0.08249 0.66919 0.0
C623 C 0.55488 1.00264 0.6815 0.0
C624 C 0.6351 0.01927 0.70649 0.0
C625 C 0.66889 0.99025 0.70267 0.0
C626 C 0.70153 0.98331 0.72416 0.0
C627 C 0.69974 1.00689 0.75013 0.0
C628 C 0.66506 0.03618 0.75459 0.0
C629 C 0.63183 0.04158 0.73264 0.0
H630 H 0.61462 0.61417 0.93716 0.0
H631 H 0.62325 0.46226 0.91961 0.0
H632 H 0.62959 0.44251 0.97162 0.0
H633 H 0.69222 0.62735 0.00378 0.0
H634 H 0.65309 0.66109 0.02138 0.0
H635 H 0.6601 0.66671 0.9828 0.0
H636 H 0.56748 0.63939 0.97723 0.0
H637 H 0.56031 0.63382 0.01566 0.0
H638 H 0.53636 0.58112 0.99439 0.0
H639 H 0.62169 0.43502 0.02513 0.0
H640 H 0.59623 0.43988 0.0757 0.0
H641 H 0.591 0.59544 0.05964 0.0
C642 C 0.62001 0.57751 0.94434 0.0
C643 C 0.61983 0.54001 0.92446 0.0
C644 C 0.62431 0.49164 0.93456 0.0
C645 C 0.62801 0.48016 0.96405 0.0
C646 C 0.62667 0.51736 0.98332 0.0
C647 C 0.62275 0.56514 0.97391 0.0
C648 C 0.61503 0.59595 0.99913 0.0
C649 C 0.65766 0.64041 0.00193 0.0
C650 C 0.56695 0.61357 0.99643 0.0
C651 C 0.61358 0.55762 0.02398 0.0
C652 C 0.62131 0.51279 0.01446 0.0
C653 C 0.61685 0.4703 0.03296 0.0
C654 C 0.60271 0.4733 0.06164 0.0
C655 C 0.59324 0.51832 0.07152 0.0
C656 C 0.59997 0.56125 0.05266 0.0
H657 H 0.10409 0.51314 0.23628 0.0
H658 H 0.98023 0.58282 0.24057 0.0
H659 H 0.97806 0.56998 0.29337 0.0
H660 H 1.06948 0.42097 0.29842 0.0
H661 H 0.13088 0.42835 0.31048 0.0
H662 H 0.11855 0.43607 0.27274 0.0
H663 H 0.17397 0.5244 0.27112 0.0
H664 H 0.1863 0.51702 0.30878 0.0
H665 H 0.16245 0.56988 0.29556 0.0
H666 H 0.9945 0.55899 0.34535 0.0
H667 H 1.03001 0.55174 0.39351 0.0
H668 H 0.14298 0.489 0.35669 0.0
C669 C 1.07585 0.52447 0.24837 0.0
C670 C 1.04209 0.54866 0.23446 0.0
C671 C 1.00633 0.56412 0.2509 0.0
C672 C 1.00467 0.55678 0.28087 0.0
C673 C 1.03909 0.53394 0.29409 0.0
C674 C 1.07402 0.51789 0.27845 0.0
C675 C 0.10945 0.49879 0.29823 0.0
C676 C 0.10692 0.4427 0.29476 0.0
C677 C 0.16108 0.52936 0.29311 0.0
C678 C 1.08984 0.50812 0.32731 0.0
C679 C 1.04878 0.52771 0.3244 0.0
C680 C 1.026 0.5427 0.34798 0.0
C681 C 1.04612 0.53827 0.37521 0.0
C682 C 1.08846 0.51912 0.37859 0.0
C683 C 0.11013 0.50311 0.35446 0.0
loop_
_geom_bond_atom_site_label_1
_geom_bond_atom_site_label_2
_geom_bond_distance
_geom_bond_site_symmetry_2
_ccdc_geom_bond_type
Nd0 C2 2.836 . S
Nd0 O20 2.500 . S
Nd0 O21 2.492 . S
Nd0 O22 2.487 . S
Nd0 O23 2.682 1_455 S
Nd0 O24 2.410 . S
Nd0 O29 2.414 . S
Nd0 O31 2.424 1_455 S
Nd1 C11 2.836 . S
Nd1 O23 2.414 . S
Nd1 O25 2.424 1_655 S
Nd1 O26 2.500 . S
Nd1 O27 2.492 . S
Nd1 O28 2.487 . S
Nd1 O29 2.682 1_655 S
Nd1 O30 2.410 . S
C2 Nd0 2.836 . S
C2 C3 1.498 . S
C2 O20 1.258 . S
C2 O21 1.239 . S
C3 C2 1.498 . S
C3 C4 1.366 . S
C3 C8 1.407 . S
C4 C3 1.366 . S
C4 C5 1.392 . S
C4 H32 0.930 . S
C5 C4 1.392 . S
C5 C6 1.398 . S
C5 H33 0.929 . S
C6 C5 1.398 . S
C6 C7 1.352 . S
C7 C6 1.352 . S
C7 C8 1.384 . S
C7 H34 0.930 . S
C8 C3 1.407 . S
C8 C7 1.384 . S
C8 H35 0.929 . S
C9 O22 1.241 1_655 S
C9 O23 1.273 . S
C10 O24 1.251 . S
C10 O25 1.268 . S
C11 Nd1 2.836 . S
C11 C12 1.498 . S
C11 O26 1.258 . S
C11 O27 1.239 . S
C12 C11 1.498 . S
C12 C13 1.366 . S
C12 C17 1.407 . S
C13 C12 1.366 . S
C13 C14 1.392 . S
C13 H36 0.930 . S
C14 C13 1.392 . S
C14 C15 1.398 . S
C14 H37 0.929 . S
C15 C14 1.398 . S
C15 C16 1.352 . S
C16 C15 1.352 . S
C16 C17 1.384 . S
C16 H38 0.930 . S
C17 C12 1.407 . S
C17 C16 1.384 . S
C17 H39 0.929 . S
C18 O28 1.241 1_455 S
C18 O29 1.273 . S
C19 O30 1.251 . S
C19 O31 1.268 . S
O20 Nd0 2.500 . S
O20 C2 1.258 . S
O21 Nd0 2.492 . S
O21 C2 1.239 . S
O22 Nd0 2.487 . S
O22 C9 1.241 1_455 S
O23 Nd0 2.682 1_655 S
O23 Nd1 2.414 . S
O23 C9 1.273 . S
O24 Nd0 2.410 . S
O24 C10 1.251 . S
O25 Nd1 2.424 1_455 S
O25 C10 1.268 . S
O26 Nd1 2.500 . S
O26 C11 1.258 . S
O27 Nd1 2.492 . S
O27 C11 1.239 . S
O28 Nd1 2.487 . S
O28 C18 1.241 1_655 S
O29 Nd0 2.414 . S
O29 Nd1 2.682 1_455 S
O29 C18 1.273 . S
O30 Nd1 2.410 . S
O30 C19 1.251 . S
O31 Nd0 2.424 1_655 S
O31 C19 1.268 . S
H32 C4 0.930 . S
H33 C5 0.929 . S
H34 C7 0.930 . S
H35 C8 0.929 . S
H36 C13 0.930 . S
H37 C14 0.929 . S
H38 C16 0.930 . S
H39 C17 0.929 . S
Nd40 C42 2.836 . S
Nd40 O60 2.500 . S
Nd40 O61 2.492 . S
Nd40 O62 2.487 . S
Nd40 O63 2.682 1_565 S
Nd40 O64 2.410 . S
Nd40 O69 2.414 1_565 S
Nd40 O71 2.424 1_565 S
Nd41 C51 2.836 . S
Nd41 O63 2.414 . S
Nd41 O65 2.424 1_545 S
Nd41 O66 2.500 . S
Nd41 O67 2.492 . S
Nd41 O68 2.487 . S
Nd41 O69 2.682 . S
Nd41 O70 2.410 . S
C42 Nd40 2.836 . S
C42 C43 1.498 . S
C42 O60 1.258 . S
C42 O61 1.239 . S
C43 C42 1.498 . S
C43 C44 1.366 . S
C43 C48 1.407 . S
C44 C43 1.366 . S
C44 C45 1.392 . S
C44 H72 0.930 . S
C45 C44 1.392 . S
C45 C46 1.398 . S
C45 H73 0.929 . S
C46 C45 1.398 . S
C46 C47 1.352 . S
C47 C46 1.352 . S
C47 C48 1.384 . S
C47 H74 0.930 . S
C48 C43 1.407 . S
C48 C47 1.384 . S
C48 H75 0.929 . S
C49 O62 1.241 1_545 S
C49 O63 1.273 . S
C50 O64 1.251 . S
C50 O65 1.268 . S
C51 Nd41 2.836 . S
C51 C52 1.498 . S
C51 O66 1.258 . S
C51 O67 1.239 . S
C52 C51 1.498 . S
C52 C53 1.366 . S
C52 C57 1.407 . S
C53 C52 1.366 . S
C53 C54 1.392 . S
C53 H76 0.930 . S
C54 C53 1.392 . S
C54 C55 1.398 . S
C54 H77 0.929 . S
C55 C54 1.398 . S
C55 C56 1.352 . S
C56 C55 1.352 . S
C56 C57 1.384 . S
C56 H78 0.930 . S
C57 C52 1.407 . S
C57 C56 1.384 . S
C57 H79 0.929 . S
C58 O68 1.241 . S
C58 O69 1.273 . S
C59 O70 1.251 . S
C59 O71 1.268 . S
O60 Nd40 2.500 . S
O60 C42 1.258 . S
O61 Nd40 2.492 . S
O61 C42 1.239 . S
O62 Nd40 2.487 . S
O62 C49 1.241 1_565 S
O63 Nd40 2.682 1_545 S
O63 Nd41 2.414 . S
O63 C49 1.273 . S
O64 Nd40 2.410 . S
O64 C50 1.251 . S
O65 Nd41 2.424 1_565 S
O65 C50 1.268 . S
O66 Nd41 2.500 . S
O66 C51 1.258 . S
O67 Nd41 2.492 . S
O67 C51 1.239 . S
O68 Nd41 2.487 . S
O68 C58 1.241 . S
O69 Nd40 2.414 1_545 S
O69 Nd41 2.682 . S
O69 C58 1.273 . S
O70 Nd41 2.410 . S
O70 C59 1.251 . S
O71 Nd40 2.424 1_545 S
O71 C59 1.268 . S
H72 C44 0.930 . S
H73 C45 0.929 . S
H74 C47 0.930 . S
H75 C48 0.929 . S
H76 C53 0.930 . S
H77 C54 0.929 . S
H78 C56 0.930 . S
H79 C57 0.929 . S
Nd80 C82 2.836 . S
Nd80 O100 2.500 . S
Nd80 O101 2.492 . S
Nd80 O102 2.487 . S
Nd80 O103 2.682 . S
Nd80 O104 2.410 . S
Nd80 O109 2.414 . S
Nd80 O111 2.424 . S
Nd81 C91 2.836 . S
Nd81 O103 2.414 . S
Nd81 O105 2.424 . S
Nd81 O106 2.500 . S
Nd81 O107 2.492 . S
Nd81 O108 2.487 . S
Nd81 O109 2.682 . S
Nd81 O110 2.410 . S
C82 Nd80 2.836 . S
C82 C83 1.498 . S
C82 O100 1.258 . S
C82 O101 1.239 . S
C83 C82 1.498 . S
C83 C84 1.366 . S
C83 C88 1.407 . S
C84 C83 1.366 . S
C84 C85 1.392 . S
C84 H112 0.930 . S
C85 C84 1.392 . S
C85 C86 1.398 . S
C85 H113 0.929 . S
C86 C85 1.398 . S
C86 C87 1.352 . S
C87 C86 1.352 . S
C87 C88 1.384 . S
C87 H114 0.930 . S
C88 C83 1.407 . S
C88 C87 1.384 . S
C88 H115 0.929 . S
C89 O102 1.241 . S
C89 O103 1.273 . S
C90 O104 1.251 . S
C90 O105 1.268 . S
C91 Nd81 2.836 . S
C91 C92 1.498 . S
C91 O106 1.258 . S
C91 O107 1.239 . S
C92 C91 1.498 . S
C92 C93 1.366 . S
C92 C97 1.407 . S
C93 C92 1.366 . S
C93 C94 1.392 . S
C93 H116 0.930 . S
C94 C93 1.392 . S
C94 C95 1.398 . S
C94 H117 0.929 . S
C95 C94 1.398 . S
C95 C96 1.352 . S
C96 C95 1.352 . S
C96 C97 1.384 . S
C96 H118 0.930 . S
C97 C92 1.407 . S
C97 C96 1.384 . S
C97 H119 0.929 . S
C98 O108 1.241 . S
C98 O109 1.273 . S
C99 O110 1.251 . S
C99 O111 1.268 . S
O100 Nd80 2.500 . S
O100 C82 1.258 . S
O101 Nd80 2.492 . S
O101 C82 1.239 . S
O102 Nd80 2.487 . S
O102 C89 1.241 . S
O103 Nd80 2.682 . S
O103 Nd81 2.414 . S
O103 C89 1.273 . S
O104 Nd80 2.410 . S
O104 C90 1.251 . S
O105 Nd81 2.424 . S
O105 C90 1.268 . S
O106 Nd81 2.500 . S
O106 C91 1.258 . S
O107 Nd81 2.492 . S
O107 C91 1.239 . S
O108 Nd81 2.487 . S
O108 C98 1.241 . S
O109 Nd80 2.414 . S
O109 Nd81 2.682 . S
O109 C98 1.273 . S
O110 Nd81 2.410 . S
O110 C99 1.251 . S
O111 Nd80 2.424 . S
O111 C99 1.268 . S
H112 C84 0.930 . S
H113 C85 0.929 . S
H114 C87 0.930 . S
H115 C88 0.929 . S
H116 C93 0.930 . S
H117 C94 0.929 . S
H118 C96 0.930 . S
H119 C97 0.929 . S
C120 N121 1.317 1_565 S
C120 N122 1.348 . S
C120 C123 1.484 1_565 S
N121 C120 1.317 1_545 S
N121 N125 1.370 . S
N122 C120 1.348 . S
N122 C124 1.346 . S
C123 C120 1.484 1_545 S
C123 H127 0.967 . S
C123 H128 0.954 1_545 S
C123 H129 0.961 . S
C124 N122 1.346 . S
C124 N125 1.307 1_565 S
C124 C126 1.486 . S
N125 N121 1.370 . S
N125 C124 1.307 1_545 S
C126 C124 1.486 . S
C126 H130 0.960 . S
C126 H131 0.960 . S
C126 H132 0.959 . S
H127 C123 0.967 . S
H128 C123 0.954 1_565 S
H129 C123 0.961 . S
H130 C126 0.960 . S
H131 C126 0.960 . S
H132 C126 0.959 . S
C133 N134 1.317 . S
C133 N135 1.348 . S
C133 C136 1.485 . S
N134 C133 1.317 . S
N134 N138 1.370 . S
N135 C133 1.348 . S
N135 C137 1.346 . S
C136 C133 1.485 . S
C136 H140 0.960 . S
C136 H141 0.961 . S
C136 H142 0.960 . S
C137 N135 1.346 . S
C137 N138 1.307 . S
C137 C139 1.486 . S
N138 N134 1.370 . S
N138 C137 1.307 . S
C139 C137 1.486 . S
C139 H143 0.960 . S
C139 H144 0.960 . S
C139 H145 0.959 . S
H140 C136 0.960 . S
H141 C136 0.961 . S
H142 C136 0.960 . S
H143 C139 0.960 . S
H144 C139 0.960 . S
H145 C139 0.959 . S
C146 N147 1.317 . S
C146 N148 1.348 1_455 S
C146 C149 1.485 . S
N147 C146 1.317 . S
N147 N151 1.370 . S
N148 C146 1.348 1_655 S
N148 C150 1.346 . S
C149 C146 1.485 . S
C149 H153 0.960 . S
C149 H154 0.979 . S
C149 H155 0.960 . S
C150 N148 1.346 . S
C150 N151 1.307 1_655 S
C150 C152 1.486 . S
N151 N147 1.370 . S
N151 C150 1.307 1_455 S
C152 C150 1.486 . S
C152 H156 0.960 . S
C152 H157 0.960 . S
C152 H158 0.959 . S
H153 C149 0.960 . S
H154 C149 0.979 . S
H155 C149 0.960 . S
H156 C152 0.960 . S
H157 C152 0.960 . S
H158 C152 0.959 . S
C159 N160 1.317 1_455 S
C159 N161 1.348 . S
C159 C162 1.485 . S
N160 C159 1.317 1_655 S
N160 N164 1.370 1_655 S
N161 C159 1.348 . S
N161 C163 1.346 . S
C162 C159 1.485 . S
C162 H166 0.960 1_455 S
C162 H167 0.961 . S
C162 H168 0.960 1_455 S
C163 N161 1.346 . S
C163 N164 1.307 . S
C163 C165 1.486 . S
N164 N160 1.370 1_455 S
N164 C163 1.307 . S
C165 C163 1.486 . S
C165 H169 0.960 . S
C165 H170 0.960 . S
C165 H171 0.959 . S
H166 C162 0.960 1_655 S
H167 C162 0.961 . S
H168 C162 0.960 1_655 S
H169 C165 0.960 . S
H170 C165 0.960 . S
H171 C165 0.959 . S
C172 N173 1.317 . S
C172 N174 1.348 . S
C172 C175 1.485 . S
N173 C172 1.317 . S
N173 N177 1.370 . S
N174 C172 1.348 . S
N174 C176 1.346 . S
C175 C172 1.485 . S
C175 H179 0.960 . S
C175 H180 0.961 . S
C175 H181 0.960 . S
C176 N174 1.346 . S
C176 N177 1.307 . S
C176 C178 1.486 . S
N177 N173 1.370 . S
N177 C176 1.307 . S
C178 C176 1.486 . S
C178 H182 0.960 . S
C178 H183 0.960 . S
C178 H184 0.959 . S
H179 C175 0.960 . S
H180 C175 0.961 . S
H181 C175 0.960 . S
H182 C178 0.960 . S
H183 C178 0.960 . S
H184 C178 0.959 . S
C185 N186 1.317 . S
C185 N187 1.348 . S
C185 C188 1.485 . S
N186 C185 1.317 . S
N186 N190 1.370 . S
N187 C185 1.348 . S
N187 C189 1.346 . S
C188 C185 1.485 . S
C188 H192 0.960 . S
C188 H193 0.961 . S
C188 H194 0.960 . S
C189 N187 1.346 . S
C189 N190 1.307 . S
C189 C191 1.486 . S
N190 N186 1.370 . S
N190 C189 1.307 . S
C191 C189 1.486 . S
C191 H195 0.960 . S
C191 H196 0.960 . S
C191 H197 0.959 . S
H192 C188 0.960 . S
H193 C188 0.961 . S
H194 C188 0.960 . S
H195 C191 0.960 . S
H196 C191 0.960 . S
H197 C191 0.959 . S
H198 C210 0.930 . S
H199 C212 0.930 . S
H200 C213 0.930 . S
H201 C217 0.959 . S
H202 C217 0.959 . S
H203 C217 0.961 . S
H204 C218 0.960 . S
H205 C218 0.961 . S
H206 C218 0.959 . S
H207 C221 0.929 . S
H208 C222 0.931 . S
H209 C224 0.930 . S
C210 H198 0.930 . S
C210 C211 1.399 . S
C210 C215 1.399 . S
C211 C210 1.399 . S
C211 C212 1.376 . S
C212 H199 0.930 . S
C212 C211 1.376 . S
C212 C213 1.388 . S
C213 H200 0.930 . S
C213 C212 1.388 . S
C213 C214 1.390 . S
C214 C213 1.390 . S
C214 C215 1.394 . S
C214 C220 1.465 . S
C215 C210 1.399 . S
C215 C214 1.394 . S
C215 C216 1.516 . S
C216 C215 1.516 . S
C216 C217 1.502 . S
C216 C218 1.561 . S
C216 C219 1.526 . S
C217 H201 0.959 . S
C217 H202 0.959 . S
C217 H203 0.961 . S
C217 C216 1.502 . S
C218 H204 0.960 . S
C218 H205 0.961 . S
C218 H206 0.959 . S
C218 C216 1.561 . S
C219 C216 1.526 . S
C219 C220 1.396 . S
C219 C224 1.390 . S
C220 C214 1.465 . S
C220 C219 1.396 . S
C220 C221 1.399 . S
C221 H207 0.929 . S
C221 C220 1.399 . S
C221 C222 1.385 . S
C222 H208 0.931 . S
C222 C221 1.385 . S
C222 C223 1.389 . S
C223 C222 1.389 . S
C223 C224 1.387 . S
C224 H209 0.930 . S
C224 C219 1.390 . S
C224 C223 1.387 . S
H225 C237 0.930 . S
H226 C239 0.930 . S
H227 C240 0.930 . S
H228 C244 0.959 . S
H229 C244 0.959 . S
H230 C244 0.961 . S
H231 C245 0.960 . S
H232 C245 0.961 . S
H233 C245 0.959 . S
H234 C248 0.929 . S
H235 C249 0.931 . S
H236 C251 0.930 . S
C237 H225 0.930 . S
C237 C238 1.399 . S
C237 C242 1.399 . S
C238 C237 1.399 . S
C238 C239 1.376 . S
C239 H226 0.930 . S
C239 C238 1.376 . S
C239 C240 1.388 . S
C240 H227 0.930 . S
C240 C239 1.388 . S
C240 C241 1.390 . S
C241 C240 1.390 . S
C241 C242 1.394 . S
C241 C247 1.465 . S
C242 C237 1.399 . S
C242 C241 1.394 . S
C242 C243 1.516 . S
C243 C242 1.516 . S
C243 C244 1.502 . S
C243 C245 1.561 . S
C243 C246 1.526 . S
C244 H228 0.959 . S
C244 H229 0.959 . S
C244 H230 0.961 . S
C244 C243 1.502 . S
C245 H231 0.960 . S
C245 H232 0.961 . S
C245 H233 0.959 . S
C245 C243 1.561 . S
C246 C243 1.526 . S
C246 C247 1.396 . S
C246 C251 1.390 . S
C247 C241 1.465 . S
C247 C246 1.396 . S
C247 C248 1.399 . S
C248 H234 0.929 . S
C248 C247 1.399 . S
C248 C249 1.385 . S
C249 H235 0.931 . S
C249 C248 1.385 . S
C249 C250 1.389 . S
C250 C249 1.389 . S
C250 C251 1.387 . S
C251 H236 0.930 . S
C251 C246 1.390 . S
C251 C250 1.387 . S
H252 C264 0.930 . S
H253 C266 0.930 . S
H254 C267 0.930 . S
H255 C271 0.959 . S
H256 C271 0.959 . S
H257 C271 0.961 . S
H258 C272 0.960 . S
H259 C272 0.961 . S
H260 C272 0.959 . S
H261 C275 0.929 . S
H262 C276 0.931 . S
H263 C278 0.930 . S
C264 H252 0.930 . S
C264 C265 1.399 . S
C264 C269 1.399 . S
C265 C264 1.399 . S
C265 C266 1.376 . S
C266 H253 0.930 . S
C266 C265 1.376 . S
C266 C267 1.388 . S
C267 H254 0.930 . S
C267 C266 1.388 . S
C267 C268 1.390 . S
C268 C267 1.390 . S
C268 C269 1.394 . S
C268 C274 1.465 . S
C269 C264 1.399 . S
C269 C268 1.394 . S
C269 C270 1.516 . S
C270 C269 1.516 . S
C270 C271 1.502 . S
C270 C272 1.561 . S
C270 C273 1.526 . S
C271 H255 0.959 . S
C271 H256 0.959 . S
C271 H257 0.961 . S
C271 C270 1.502 . S
C272 H258 0.960 . S
C272 H259 0.961 . S
C272 H260 0.959 . S
C272 C270 1.561 . S
C273 C270 1.526 . S
C273 C274 1.396 . S
C273 C278 1.390 . S
C274 C268 1.465 . S
C274 C273 1.396 . S
C274 C275 1.399 . S
C275 H261 0.929 . S
C275 C274 1.399 . S
C275 C276 1.385 . S
C276 H262 0.931 . S
C276 C275 1.385 . S
C276 C277 1.389 . S
C277 C276 1.389 . S
C277 C278 1.387 . S
C278 H263 0.930 . S
C278 C273 1.390 . S
C278 C277 1.387 . S
H279 C291 0.930 . S
H280 C293 0.930 . S
H281 C294 0.930 . S
H282 C298 0.959 . S
H283 C298 0.959 . S
H284 C298 0.961 . S
H285 C299 0.960 . S
H286 C299 0.961 . S
H287 C299 0.959 . S
H288 C302 0.929 . S
H289 C303 0.931 . S
H290 C305 0.930 . S
C291 H279 0.930 . S
C291 C292 1.399 . S
C291 C296 1.399 . S
C292 C291 1.399 . S
C292 C293 1.376 . S
C293 H280 0.930 . S
C293 C292 1.376 . S
C293 C294 1.388 . S
C294 H281 0.930 . S
C294 C293 1.388 . S
C294 C295 1.390 . S
C295 C294 1.390 . S
C295 C296 1.394 . S
C295 C301 1.465 . S
C296 C291 1.399 . S
C296 C295 1.394 . S
C296 C297 1.516 . S
C297 C296 1.516 . S
C297 C298 1.502 . S
C297 C299 1.561 . S
C297 C300 1.526 . S
C298 H282 0.959 . S
C298 H283 0.959 . S
C298 H284 0.961 . S
C298 C297 1.502 . S
C299 H285 0.960 . S
C299 H286 0.961 . S
C299 H287 0.959 . S
C299 C297 1.561 . S
C300 C297 1.526 . S
C300 C301 1.396 . S
C300 C305 1.390 . S
C301 C295 1.465 . S
C301 C300 1.396 . S
C301 C302 1.399 . S
C302 H288 0.929 . S
C302 C301 1.399 . S
C302 C303 1.385 . S
C303 H289 0.931 . S
C303 C302 1.385 . S
C303 C304 1.389 . S
C304 C303 1.389 . S
C304 C305 1.387 . S
C305 H290 0.930 . S
C305 C300 1.390 . S
C305 C304 1.387 . S
H306 C318 0.930 . S
H307 C320 0.930 . S
H308 C321 0.930 . S
H309 C325 0.959 . S
H310 C325 0.959 . S
H311 C325 0.961 . S
H312 C326 0.960 . S
H313 C326 0.961 . S
H314 C326 0.959 . S
H315 C329 0.929 . S
H316 C330 0.931 . S
H317 C332 0.930 . S
C318 H306 0.930 . S
C318 C319 1.399 . S
C318 C323 1.399 . S
C319 C318 1.399 . S
C319 C320 1.376 . S
C320 H307 0.930 . S
C320 C319 1.376 . S
C320 C321 1.388 . S
C321 H308 0.930 . S
C321 C320 1.388 . S
C321 C322 1.390 . S
C322 C321 1.390 . S
C322 C323 1.394 . S
C322 C328 1.465 . S
C323 C318 1.399 . S
C323 C322 1.394 . S
C323 C324 1.516 . S
C324 C323 1.516 . S
C324 C325 1.502 . S
C324 C326 1.561 . S
C324 C327 1.526 . S
C325 H309 0.959 . S
C325 H310 0.959 . S
C325 H311 0.961 . S
C325 C324 1.502 . S
C326 H312 0.960 . S
C326 H313 0.961 . S
C326 H314 0.959 . S
C326 C324 1.561 . S
C327 C324 1.526 . S
C327 C328 1.396 . S
C327 C332 1.390 . S
C328 C322 1.465 . S
C328 C327 1.396 . S
C328 C329 1.399 . S
C329 H315 0.929 . S
C329 C328 1.399 . S
C329 C330 1.385 . S
C330 H316 0.931 . S
C330 C329 1.385 . S
C330 C331 1.389 . S
C331 C330 1.389 . S
C331 C332 1.387 . S
C332 H317 0.930 . S
C332 C327 1.390 . S
C332 C331 1.387 . S
H333 C345 0.930 . S
H334 C347 0.930 . S
H335 C348 0.930 . S
H336 C352 0.959 . S
H337 C352 0.959 . S
H338 C352 0.961 . S
H339 C353 0.960 . S
H340 C353 0.961 . S
H341 C353 0.959 . S
H342 C356 0.929 . S
H343 C357 0.931 . S
H344 C359 0.930 . S
C345 H333 0.930 . S
C345 C346 1.399 . S
C345 C350 1.399 . S
C346 C345 1.399 . S
C346 C347 1.376 . S
C347 H334 0.930 . S
C347 C346 1.376 . S
C347 C348 1.388 . S
C348 H335 0.930 . S
C348 C347 1.388 . S
C348 C349 1.390 . S
C349 C348 1.390 . S
C349 C350 1.394 . S
C349 C355 1.465 . S
C350 C345 1.399 . S
C350 C349 1.394 . S
C350 C351 1.516 . S
C351 C350 1.516 . S
C351 C352 1.502 . S
C351 C353 1.561 . S
C351 C354 1.526 . S
C352 H336 0.959 . S
C352 H337 0.959 . S
C352 H338 0.961 . S
C352 C351 1.502 . S
C353 H339 0.960 . S
C353 H340 0.961 . S
C353 H341 0.959 . S
C353 C351 1.561 . S
C354 C351 1.526 . S
C354 C355 1.396 . S
C354 C359 1.390 . S
C355 C349 1.465 . S
C355 C354 1.396 . S
C355 C356 1.399 . S
C356 H342 0.929 . S
C356 C355 1.399 . S
C356 C357 1.385 . S
C357 H343 0.931 . S
C357 C356 1.385 . S
C357 C358 1.389 . S
C358 C357 1.389 . S
C358 C359 1.387 . S
C359 H344 0.930 . S
C359 C354 1.390 . S
C359 C358 1.387 . S
H360 C372 0.930 . S
H361 C374 0.930 . S
H362 C375 0.930 . S
H363 C379 0.959 . S
H364 C379 0.959 . S
H365 C379 0.961 . S
H366 C380 0.960 . S
H367 C380 0.961 . S
H368 C380 0.959 . S
H369 C383 0.929 . S
H370 C384 0.931 . S
H371 C386 0.930 . S
C372 H360 0.930 . S
C372 C373 1.399 . S
C372 C377 1.399 . S
C373 C372 1.399 . S
C373 C374 1.376 . S
C374 H361 0.930 . S
C374 C373 1.376 . S
C374 C375 1.388 . S
C375 H362 0.930 . S
C375 C374 1.388 . S
C375 C376 1.390 . S
C376 C375 1.390 . S
C376 C377 1.394 . S
C376 C382 1.465 . S
C377 C372 1.399 . S
C377 C376 1.394 . S
C377 C378 1.516 . S
C378 C377 1.516 . S
C378 C379 1.502 . S
C378 C380 1.561 . S
C378 C381 1.526 . S
C379 H363 0.959 . S
C379 H364 0.959 . S
C379 H365 0.961 . S
C379 C378 1.502 . S
C380 H366 0.960 . S
C380 H367 0.961 . S
C380 H368 0.959 . S
C380 C378 1.561 . S
C381 C378 1.526 . S
C381 C382 1.396 . S
C381 C386 1.390 . S
C382 C376 1.465 . S
C382 C381 1.396 . S
C382 C383 1.399 . S
C383 H369 0.929 . S
C383 C382 1.399 . S
C383 C384 1.385 . S
C384 H370 0.931 . S
C384 C383 1.385 . S
C384 C385 1.389 . S
C385 C384 1.389 . S
C385 C386 1.387 . S
C386 H371 0.930 . S
C386 C381 1.390 . S
C386 C385 1.387 . S
H387 C399 0.930 . S
H388 C401 0.930 . S
H389 C402 0.930 . S
H390 C406 0.959 . S
H391 C406 0.959 . S
H392 C406 0.961 . S
H393 C407 0.960 . S
H394 C407 0.961 . S
H395 C407 0.959 . S
H396 C410 0.929 . S
H397 C411 0.931 . S
H398 C413 0.930 . S
C399 H387 0.930 . S
C399 C400 1.399 . S
C399 C404 1.399 . S
C400 C399 1.399 . S
C400 C401 1.376 . S
C401 H388 0.930 . S
C401 C400 1.376 . S
C401 C402 1.388 . S
C402 H389 0.930 . S
C402 C401 1.388 . S
C402 C403 1.390 . S
C403 C402 1.390 . S
C403 C404 1.394 . S
C403 C409 1.465 . S
C404 C399 1.399 . S
C404 C403 1.394 . S
C404 C405 1.516 . S
C405 C404 1.516 . S
C405 C406 1.502 . S
C405 C407 1.561 . S
C405 C408 1.526 . S
C406 H390 0.959 . S
C406 H391 0.959 . S
C406 H392 0.961 . S
C406 C405 1.502 . S
C407 H393 0.960 . S
C407 H394 0.961 . S
C407 H395 0.959 . S
C407 C405 1.561 . S
C408 C405 1.526 . S
C408 C409 1.396 . S
C408 C413 1.390 . S
C409 C403 1.465 . S
C409 C408 1.396 . S
C409 C410 1.399 . S
C410 H396 0.929 . S
C410 C409 1.399 . S
C410 C411 1.385 . S
C411 H397 0.931 . S
C411 C410 1.385 . S
C411 C412 1.389 . S
C412 C411 1.389 . S
C412 C413 1.387 . S
C413 H398 0.930 . S
C413 C408 1.390 . S
C413 C412 1.387 . S
H414 C426 0.930 . S
H415 C428 0.930 . S
H416 C429 0.930 . S
H417 C433 0.959 . S
H418 C433 0.959 . S
H419 C433 0.961 . S
H420 C434 0.960 . S
H421 C434 0.961 . S
H422 C434 0.959 . S
H423 C437 0.929 . S
H424 C438 0.931 . S
H425 C440 0.930 . S
C426 H414 0.930 . S
C426 C427 1.399 . S
C426 C431 1.399 . S
C427 C426 1.399 . S
C427 C428 1.376 . S
C428 H415 0.930 . S
C428 C427 1.376 . S
C428 C429 1.388 . S
C429 H416 0.930 . S
C429 C428 1.388 . S
C429 C430 1.390 . S
C430 C429 1.390 . S
C430 C431 1.394 . S
C430 C436 1.465 . S
C431 C426 1.399 . S
C431 C430 1.394 . S
C431 C432 1.516 . S
C432 C431 1.516 . S
C432 C433 1.502 . S
C432 C434 1.561 . S
C432 C435 1.526 . S
C433 H417 0.959 . S
C433 H418 0.959 . S
C433 H419 0.961 . S
C433 C432 1.502 . S
C434 H420 0.960 . S
C434 H421 0.961 . S
C434 H422 0.959 . S
C434 C432 1.561 . S
C435 C432 1.526 . S
C435 C436 1.396 . S
C435 C440 1.390 . S
C436 C430 1.465 . S
C436 C435 1.396 . S
C436 C437 1.399 . S
C437 H423 0.929 . S
C437 C436 1.399 . S
C437 C438 1.385 . S
C438 H424 0.931 . S
C438 C437 1.385 . S
C438 C439 1.389 . S
C439 C438 1.389 . S
C439 C440 1.387 . S
C440 H425 0.930 . S
C440 C435 1.390 . S
C440 C439 1.387 . S
H441 C453 0.930 . S
H442 C455 0.930 . S
H443 C456 0.930 . S
H444 C460 0.959 . S
H445 C460 0.959 . S
H446 C460 0.961 . S
H447 C461 0.960 . S
H448 C461 0.961 . S
H449 C461 0.959 . S
H450 C464 0.929 . S
H451 C465 0.931 . S
H452 C467 0.930 . S
C453 H441 0.930 . S
C453 C454 1.399 . S
C453 C458 1.399 . S
C454 C453 1.399 . S
C454 C455 1.376 . S
C455 H442 0.930 . S
C455 C454 1.376 . S
C455 C456 1.388 . S
C456 H443 0.930 . S
C456 C455 1.388 . S
C456 C457 1.390 . S
C457 C456 1.390 . S
C457 C458 1.394 . S
C457 C463 1.465 . S
C458 C453 1.399 . S
C458 C457 1.394 . S
C458 C459 1.516 . S
C459 C458 1.516 . S
C459 C460 1.502 . S
C459 C461 1.561 . S
C459 C462 1.526 . S
C460 H444 0.959 . S
C460 H445 0.959 . S
C460 H446 0.961 . S
C460 C459 1.502 . S
C461 H447 0.960 . S
C461 H448 0.961 . S
C461 H449 0.959 . S
C461 C459 1.561 . S
C462 C459 1.526 . S
C462 C463 1.396 . S
C462 C467 1.390 . S
C463 C457 1.465 . S
C463 C462 1.396 . S
C463 C464 1.399 . S
C464 H450 0.929 . S
C464 C463 1.399 . S
C464 C465 1.385 . S
C465 H451 0.931 . S
C465 C464 1.385 . S
C465 C466 1.389 . S
C466 C465 1.389 . S
C466 C467 1.387 . S
C467 H452 0.930 . S
C467 C462 1.390 . S
C467 C466 1.387 . S
H468 C480 0.930 . S
H469 C482 0.930 . S
H470 C483 0.930 . S
H471 C487 0.959 . S
H472 C487 0.959 . S
H473 C487 0.961 . S
H474 C488 0.960 . S
H475 C488 0.961 . S
H476 C488 0.959 . S
H477 C491 0.929 . S
H478 C492 0.931 . S
H479 C494 0.930 . S
C480 H468 0.930 . S
C480 C481 1.399 . S
C480 C485 1.399 . S
C481 C480 1.399 . S
C481 C482 1.376 . S
C482 H469 0.930 . S
C482 C481 1.376 . S
C482 C483 1.388 . S
C483 H470 0.930 . S
C483 C482 1.388 . S
C483 C484 1.390 . S
C484 C483 1.390 . S
C484 C485 1.394 . S
C484 C490 1.465 . S
C485 C480 1.399 . S
C485 C484 1.394 . S
C485 C486 1.516 . S
C486 C485 1.516 . S
C486 C487 1.502 . S
C486 C488 1.561 . S
C486 C489 1.526 . S
C487 H471 0.959 . S
C487 H472 0.959 . S
C487 H473 0.961 . S
C487 C486 1.502 . S
C488 H474 0.960 . S
C488 H475 0.961 . S
C488 H476 0.959 . S
C488 C486 1.561 . S
C489 C486 1.526 . S
C489 C490 1.396 . S
C489 C494 1.390 . S
C490 C484 1.465 . S
C490 C489 1.396 . S
C490 C491 1.399 . S
C491 H477 0.929 . S
C491 C490 1.399 . S
C491 C492 1.385 . S
C492 H478 0.931 . S
C492 C491 1.385 . S
C492 C493 1.389 . S
C493 C492 1.389 . S
C493 C494 1.387 . S
C494 H479 0.930 . S
C494 C489 1.390 . S
C494 C493 1.387 . S
H495 C507 0.930 . S
H496 C509 0.930 . S
H497 C510 0.930 . S
H498 C514 0.959 . S
H499 C514 0.959 . S
H500 C514 0.961 . S
H501 C515 0.960 . S
H502 C515 0.961 . S
H503 C515 0.959 . S
H504 C518 0.929 . S
H505 C519 0.931 . S
H506 C521 0.930 . S
C507 H495 0.930 . S
C507 C508 1.399 . S
C507 C512 1.399 . S
C508 C507 1.399 . S
C508 C509 1.376 . S
C509 H496 0.930 . S
C509 C508 1.376 . S
C509 C510 1.388 . S
C510 H497 0.930 . S
C510 C509 1.388 . S
C510 C511 1.390 . S
C511 C510 1.390 . S
C511 C512 1.394 . S
C511 C517 1.465 . S
C512 C507 1.399 . S
C512 C511 1.394 . S
C512 C513 1.516 . S
C513 C512 1.516 . S
C513 C514 1.502 . S
C513 C515 1.561 . S
C513 C516 1.526 . S
C514 H498 0.959 . S
C514 H499 0.959 . S
C514 H500 0.961 . S
C514 C513 1.502 . S
C515 H501 0.960 . S
C515 H502 0.961 . S
C515 H503 0.959 . S
C515 C513 1.561 . S
C516 C513 1.526 . S
C516 C517 1.396 . S
C516 C521 1.390 . S
C517 C511 1.465 . S
C517 C516 1.396 . S
C517 C518 1.399 . S
C518 H504 0.929 . S
C518 C517 1.399 . S
C518 C519 1.385 . S
C519 H505 0.931 . S
C519 C518 1.385 . S
C519 C520 1.389 . S
C520 C519 1.389 . S
C520 C521 1.387 . S
C521 H506 0.930 . S
C521 C516 1.390 . S
C521 C520 1.387 . S
H522 C534 0.930 . S
H523 C536 0.930 . S
H524 C537 0.930 . S
H525 C541 0.959 . S
H526 C541 0.959 . S
H527 C541 0.961 1_554 S
H528 C542 0.985 . S
H529 C542 0.929 1_556 S
H530 C542 0.962 . S
H531 C545 0.929 . S
H532 C546 0.931 . S
H533 C548 0.930 . S
C534 H522 0.930 . S
C534 C535 1.399 . S
C534 C539 1.399 . S
C535 C534 1.399 . S
C535 C536 1.376 . S
C536 H523 0.930 . S
C536 C535 1.376 . S
C536 C537 1.388 . S
C537 H524 0.930 . S
C537 C536 1.388 . S
C537 C538 1.390 . S
C538 C537 1.390 . S
C538 C539 1.394 . S
C538 C544 1.492 . S
C539 C534 1.399 . S
C539 C538 1.394 . S
C539 C540 1.516 . S
C540 C539 1.516 . S
C540 C541 1.502 1_554 S
C540 C542 1.566 1_455 S
C540 C543 1.526 1_554 S
C541 H525 0.959 . S
C541 H526 0.959 . S
C541 H527 0.961 1_556 S
C541 C540 1.502 1_556 S
C542 H528 0.985 . S
C542 H529 0.929 1_554 S
C542 H530 0.962 . S
C542 C540 1.566 1_655 S
C543 C540 1.526 1_556 S
C543 C544 1.381 1_556 S
C543 C548 1.390 . S
C544 C538 1.492 . S
C544 C543 1.381 1_554 S
C544 C545 1.387 1_554 S
C545 H531 0.929 . S
C545 C544 1.387 1_556 S
C545 C546 1.385 . S
C546 H532 0.931 . S
C546 C545 1.385 . S
C546 C547 1.389 . S
C547 C546 1.389 . S
C547 C548 1.387 . S
C548 H533 0.930 . S
C548 C543 1.390 . S
C548 C547 1.387 . S
H549 C561 0.930 . S
H550 C563 0.930 . S
H551 C564 0.930 . S
H552 C568 0.959 . S
H553 C568 0.959 . S
H554 C568 0.961 . S
H555 C569 0.960 . S
H556 C569 0.961 . S
H557 C569 0.959 . S
H558 C572 0.929 . S
H559 C573 0.931 . S
H560 C575 0.930 . S
C561 H549 0.930 . S
C561 C562 1.399 1_565 S
C561 C566 1.399 . S
C562 C561 1.399 1_545 S
C562 C563 1.376 . S
C563 H550 0.930 . S
C563 C562 1.376 . S
C563 C564 1.388 . S
C564 H551 0.930 . S
C564 C563 1.388 . S
C564 C565 1.390 . S
C565 C564 1.390 . S
C565 C566 1.394 1_545 S
C565 C571 1.465 . S
C566 C561 1.399 . S
C566 C565 1.394 1_565 S
C566 C567 1.516 . S
C567 C566 1.516 . S
C567 C568 1.502 . S
C567 C569 1.561 . S
C567 C570 1.526 . S
C568 H552 0.959 . S
C568 H553 0.959 . S
C568 H554 0.961 . S
C568 C567 1.502 . S
C569 H555 0.960 . S
C569 H556 0.961 . S
C569 H557 0.959 . S
C569 C567 1.561 . S
C570 C567 1.526 . S
C570 C571 1.396 1_565 S
C570 C575 1.390 . S
C571 C565 1.465 . S
C571 C570 1.396 1_545 S
C571 C572 1.399 . S
C572 H558 0.929 . S
C572 C571 1.399 . S
C572 C573 1.385 . S
C573 H559 0.931 . S
C573 C572 1.385 . S
C573 C574 1.389 . S
C574 C573 1.389 . S
C574 C575 1.387 1_545 S
C575 H560 0.930 . S
C575 C570 1.390 . S
C575 C574 1.387 1_565 S
H576 C588 0.930 . S
H577 C590 0.930 . S
H578 C591 0.930 . S
H579 C595 0.959 . S
H580 C595 0.959 . S
H581 C595 0.961 . S
H582 C596 0.960 . S
H583 C596 0.961 . S
H584 C596 0.959 . S
H585 C599 0.929 . S
H586 C600 0.931 . S
H587 C602 0.930 . S
C588 H576 0.930 . S
C588 C589 1.399 . S
C588 C593 1.399 . S
C589 C588 1.399 . S
C589 C590 1.376 . S
C590 H577 0.930 . S
C590 C589 1.376 . S
C590 C591 1.388 . S
C591 H578 0.930 . S
C591 C590 1.388 . S
C591 C592 1.390 . S
C592 C591 1.390 . S
C592 C593 1.394 . S
C592 C598 1.465 . S
C593 C588 1.399 . S
C593 C592 1.394 . S
C593 C594 1.516 . S
C594 C593 1.516 . S
C594 C595 1.502 . S
C594 C596 1.561 . S
C594 C597 1.526 . S
C595 H579 0.959 . S
C595 H580 0.959 . S
C595 H581 0.961 . S
C595 C594 1.502 . S
C596 H582 0.960 . S
C596 H583 0.961 . S
C596 H584 0.959 . S
C596 C594 1.561 . S
C597 C594 1.526 . S
C597 C598 1.396 . S
C597 C602 1.390 . S
C598 C592 1.465 . S
C598 C597 1.396 . S
C598 C599 1.399 . S
C599 H585 0.929 . S
C599 C598 1.399 . S
C599 C600 1.385 . S
C600 H586 0.931 . S
C600 C599 1.385 . S
C600 C601 1.389 . S
C601 C600 1.389 . S
C601 C602 1.387 . S
C602 H587 0.930 . S
C602 C597 1.390 . S
C602 C601 1.387 . S
H603 C615 0.930 . S
H604 C617 0.930 . S
H605 C618 0.930 . S
H606 C622 0.959 . S
H607 C622 0.959 . S
H608 C622 0.961 . S
H609 C623 0.960 . S
H610 C623 0.961 . S
H611 C623 0.959 . S
H612 C626 0.929 . S
H613 C627 0.931 . S
H614 C629 0.930 . S
C615 H603 0.930 . S
C615 C616 1.399 1_565 S
C615 C620 1.399 . S
C616 C615 1.399 1_545 S
C616 C617 1.376 . S
C617 H604 0.930 . S
C617 C616 1.376 . S
C617 C618 1.388 . S
C618 H605 0.930 . S
C618 C617 1.388 . S
C618 C619 1.390 . S
C619 C618 1.390 . S
C619 C620 1.394 1_545 S
C619 C625 1.465 . S
C620 C615 1.399 . S
C620 C619 1.394 1_565 S
C620 C621 1.516 . S
C621 C620 1.516 . S
C621 C622 1.502 . S
C621 C623 1.561 . S
C621 C624 1.526 . S
C622 H606 0.959 . S
C622 H607 0.959 . S
C622 H608 0.961 . S
C622 C621 1.502 . S
C623 H609 0.960 . S
C623 H610 0.961 . S
C623 H611 0.959 . S
C623 C621 1.561 . S
C624 C621 1.526 . S
C624 C625 1.396 1_565 S
C624 C629 1.390 . S
C625 C619 1.465 . S
C625 C624 1.396 1_545 S
C625 C626 1.399 . S
C626 H612 0.929 . S
C626 C625 1.399 . S
C626 C627 1.385 . S
C627 H613 0.931 . S
C627 C626 1.385 . S
C627 C628 1.389 . S
C628 C627 1.389 . S
C628 C629 1.387 1_545 S
C629 H614 0.930 . S
C629 C624 1.390 . S
C629 C628 1.387 1_565 S
H630 C642 0.930 . S
H631 C644 0.930 . S
H632 C645 0.930 . S
H633 C649 0.957 1_556 S
H634 C649 0.959 . S
H635 C649 0.961 1_556 S
H636 C650 0.960 1_556 S
H637 C650 0.961 . S
H638 C650 0.959 . S
H639 C653 0.929 . S
H640 C654 0.931 . S
H641 C656 0.930 . S
C642 H630 0.930 . S
C642 C643 1.399 . S
C642 C647 1.399 . S
C643 C642 1.399 . S
C643 C644 1.376 . S
C644 H631 0.930 . S
C644 C643 1.376 . S
C644 C645 1.388 . S
C645 H632 0.930 . S
C645 C644 1.388 . S
C645 C646 1.390 . S
C646 C645 1.390 . S
C646 C647 1.394 . S
C646 C652 1.465 1_556 S
C647 C642 1.399 . S
C647 C646 1.394 . S
C647 C648 1.516 1_556 S
C648 C647 1.516 1_554 S
C648 C649 1.502 . S
C648 C650 1.561 . S
C648 C651 1.526 . S
C649 H633 0.957 1_554 S
C649 H634 0.959 . S
C649 H635 0.961 1_554 S
C649 C648 1.502 . S
C650 H636 0.960 1_554 S
C650 H637 0.961 . S
C650 H638 0.959 . S
C650 C648 1.561 . S
C651 C648 1.526 . S
C651 C652 1.396 . S
C651 C656 1.390 . S
C652 C646 1.465 1_554 S
C652 C651 1.396 . S
C652 C653 1.399 . S
C653 H639 0.929 . S
C653 C652 1.399 . S
C653 C654 1.385 . S
C654 H640 0.931 . S
C654 C653 1.385 . S
C654 C655 1.389 . S
C655 C654 1.389 . S
C655 C656 1.387 . S
C656 H641 0.930 . S
C656 C651 1.390 . S
C656 C655 1.387 . S
H657 C669 0.930 . S
H658 C671 0.930 . S
H659 C672 0.930 . S
H660 C676 0.959 . S
H661 C676 0.959 . S
H662 C676 0.961 . S
H663 C677 0.960 . S
H664 C677 0.961 . S
H665 C677 0.959 1_455 S
H666 C680 0.929 . S
H667 C681 0.931 . S
H668 C683 0.930 . S
C669 H657 0.930 . S
C669 C670 1.399 . S
C669 C674 1.399 . S
C670 C669 1.399 . S
C670 C671 1.376 1_655 S
C671 H658 0.930 . S
C671 C670 1.376 1_455 S
C671 C672 1.388 . S
C672 H659 0.930 . S
C672 C671 1.388 . S
C672 C673 1.390 . S
C673 C672 1.390 . S
C673 C674 1.394 1_455 S
C673 C679 1.465 . S
C674 C669 1.399 . S
C674 C673 1.394 1_655 S
C674 C675 1.516 . S
C675 C674 1.516 . S
C675 C676 1.502 . S
C675 C677 1.561 . S
C675 C678 1.526 . S
C676 H660 0.959 . S
C676 H661 0.959 . S
C676 H662 0.961 . S
C676 C675 1.502 . S
C677 H663 0.960 . S
C677 H664 0.961 . S
C677 H665 0.959 1_655 S
C677 C675 1.561 . S
C678 C675 1.526 . S
C678 C679 1.396 1_655 S
C678 C683 1.390 . S
C679 C673 1.465 . S
C679 C678 1.396 1_455 S
C679 C680 1.399 . S
C680 H666 0.929 . S
C680 C679 1.399 . S
C680 C681 1.385 . S
C681 H667 0.931 . S
C681 C680 1.385 . S
C681 C682 1.389 . S
C682 C681 1.389 . S
C682 C683 1.387 1_455 S
C683 H668 0.930 . S
C683 C678 1.390 . S
C683 C682 1.387 1_655 S
C211 C10 2.836 . S
C223 N187 2.775 . S
C238 C55 1.106 . S
C250 N160 1.087 . S
C265 C90 1.810 . S
C277 N173 1.818 1_565 S
C292 C19 3.224 . S
C304 N186 3.264 . S
C331 N161 1.417 . S
C319 C46 1.422 . S
C358 N174 2.025 . S
C346 C99 1.986 . S
C373 C50 1.811 . S
C385 N134 1.807 . S
C400 C95 0.465 . S
C412 N148 0.436 . S
C427 C6 1.309 . S
C439 N122 1.354 . S
C466 N135 1.970 . S
C454 C59 1.956 . S
C493 N147 0.802 . S
C481 C86 0.645 . S
C508 C15 1.214 . S
C520 N121 1.166 . S
C547 N151 1.263 . S
C535 C18 1.284 . S
C562 C49 1.456 . S
C574 N125 1.550 . S
C589 C98 1.461 . S
C601 N138 1.487 . S
C628 N177 1.455 . S
C616 C58 1.424 . S
C655 N190 1.713 . S
C643 C89 1.680 . S
C670 C9 1.455 . S
C682 N164 1.559 . S
