# Generated by pormake.
# Topology bwt, (3,3)-cn, num edge types: 1
# Building blocks:
#     Node 0, Type 0, BuildingBlock: OLANEW_clean_sbu_2, # of connection points: 3
#     Node 1, Type 0, BuildingBlock: OLANEW_clean_sbu_2, # of connection points: 3
#     Node 2, Type 0, BuildingBlock: OLANEW_clean_sbu_2, # of connection points: 3
#     Node 3, Type 0, BuildingBlock: OLANEW_clean_sbu_2, # of connection points: 3
#     Node 4, Type 0, BuildingBlock: OLANEW_clean_sbu_2, # of connection points: 3
#     Node 5, Type 0, BuildingBlock: OLANEW_clean_sbu_2, # of connection points: 3
#     Node 6, Type 0, BuildingBlock: OLANEW_clean_sbu_2, # of connection points: 3
#     Node 7, Type 0, BuildingBlock: OLANEW_clean_sbu_2, # of connection points: 3
#     Node 8, Type 0, BuildingBlock: OLANEW_clean_sbu_2, # of connection points: 3
#     Node 9, Type 0, BuildingBlock: OLANEW_clean_sbu_2, # of connection points: 3
#     Node 10, Type 0, BuildingBlock: OLANEW_clean_sbu_2, # of connection points: 3
#     Node 11, Type 0, BuildingBlock: OLANEW_clean_sbu_2, # of connection points: 3
#     Node 12, Type 0, BuildingBlock: OLANEW_clean_sbu_2, # of connection points: 3
#     Node 13, Type 0, BuildingBlock: OLANEW_clean_sbu_2, # of connection points: 3
#     Node 14, Type 0, BuildingBlock: OLANEW_clean_sbu_2, # of connection points: 3
#     Node 15, Type 0, BuildingBlock: OLANEW_clean_sbu_2, # of connection points: 3
#     Node 16, Type 0, BuildingBlock: OLANEW_clean_sbu_2, # of connection points: 3
#     Node 17, Type 0, BuildingBlock: OLANEW_clean_sbu_2, # of connection points: 3
#     Node 18, Type 0, BuildingBlock: OLANEW_clean_sbu_2, # of connection points: 3
#     Node 19, Type 0, BuildingBlock: OLANEW_clean_sbu_2, # of connection points: 3
#     Node 20, Type 0, BuildingBlock: OLANEW_clean_sbu_2, # of connection points: 3
#     Node 21, Type 0, BuildingBlock: OLANEW_clean_sbu_2, # of connection points: 3
#     Node 22, Type 0, BuildingBlock: OLANEW_clean_sbu_2, # of connection points: 3
#     Node 23, Type 0, BuildingBlock: OLANEW_clean_sbu_2, # of connection points: 3
#     Node 24, Type 1, BuildingBlock: VETTIZ_charged_linker_0, # of connection points: 3
#     Node 25, Type 1, BuildingBlock: VETTIZ_charged_linker_0, # of connection points: 3
#     Node 26, Type 1, BuildingBlock: VETTIZ_charged_linker_0, # of connection points: 3
#     Node 27, Type 1, BuildingBlock: VETTIZ_charged_linker_0, # of connection points: 3
#     Node 28, Type 1, BuildingBlock: VETTIZ_charged_linker_0, # of connection points: 3
#     Node 29, Type 1, BuildingBlock: VETTIZ_charged_linker_0, # of connection points: 3
#     Node 30, Type 1, BuildingBlock: VETTIZ_charged_linker_0, # of connection points: 3
#     Node 31, Type 1, BuildingBlock: VETTIZ_charged_linker_0, # of connection points: 3
#     Node 32, Type 1, BuildingBlock: VETTIZ_charged_linker_0, # of connection points: 3
#     Node 33, Type 1, BuildingBlock: VETTIZ_charged_linker_0, # of connection points: 3
#     Node 34, Type 1, BuildingBlock: VETTIZ_charged_linker_0, # of connection points: 3
#     Node 35, Type 1, BuildingBlock: VETTIZ_charged_linker_0, # of connection points: 3
#     Node 36, Type 1, BuildingBlock: VETTIZ_charged_linker_0, # of connection points: 3
#     Node 37, Type 1, BuildingBlock: VETTIZ_charged_linker_0, # of connection points: 3
#     Node 38, Type 1, BuildingBlock: VETTIZ_charged_linker_0, # of connection points: 3
#     Node 39, Type 1, BuildingBlock: VETTIZ_charged_linker_0, # of connection points: 3
#     Node 40, Type 1, BuildingBlock: VETTIZ_charged_linker_0, # of connection points: 3
#     Node 41, Type 1, BuildingBlock: VETTIZ_charged_linker_0, # of connection points: 3
#     Node 42, Type 1, BuildingBlock: VETTIZ_charged_linker_0, # of connection points: 3
#     Node 43, Type 1, BuildingBlock: VETTIZ_charged_linker_0, # of connection points: 3
#     Node 44, Type 1, BuildingBlock: VETTIZ_charged_linker_0, # of connection points: 3
#     Node 45, Type 1, BuildingBlock: VETTIZ_charged_linker_0, # of connection points: 3
#     Node 46, Type 1, BuildingBlock: VETTIZ_charged_linker_0, # of connection points: 3
#     Node 47, Type 1, BuildingBlock: VETTIZ_charged_linker_0, # of connection points: 3
#     Edge 48, Type (0, 1), BuildingBlock: AJUNOK_clean_linker_0, # of connection points: 2
#     Edge 49, Type (0, 1), BuildingBlock: AJUNOK_clean_linker_0, # of connection points: 2
#     Edge 50, Type (0, 1), BuildingBlock: AJUNOK_clean_linker_0, # of connection points: 2
#     Edge 51, Type (0, 1), BuildingBlock: AJUNOK_clean_linker_0, # of connection points: 2
#     Edge 52, Type (0, 1), BuildingBlock: AJUNOK_clean_linker_0, # of connection points: 2
#     Edge 53, Type (0, 1), BuildingBlock: AJUNOK_clean_linker_0, # of connection points: 2
#     Edge 54, Type (0, 1), BuildingBlock: AJUNOK_clean_linker_0, # of connection points: 2
#     Edge 55, Type (0, 1), BuildingBlock: AJUNOK_clean_linker_0, # of connection points: 2
#     Edge 56, Type (0, 1), BuildingBlock: AJUNOK_clean_linker_0, # of connection points: 2
#     Edge 57, Type (0, 1), BuildingBlock: AJUNOK_clean_linker_0, # of connection points: 2
#     Edge 58, Type (0, 1), BuildingBlock: AJUNOK_clean_linker_0, # of connection points: 2
#     Edge 59, Type (0, 1), BuildingBlock: AJUNOK_clean_linker_0, # of connection points: 2
#     Edge 60, Type (0, 1), BuildingBlock: AJUNOK_clean_linker_0, # of connection points: 2
#     Edge 61, Type (0, 1), BuildingBlock: AJUNOK_clean_linker_0, # of connection points: 2
#     Edge 62, Type (0, 1), BuildingBlock: AJUNOK_clean_linker_0, # of connection points: 2
#     Edge 63, Type (0, 1), BuildingBlock: AJUNOK_clean_linker_0, # of connection points: 2
#     Edge 64, Type (0, 1), BuildingBlock: AJUNOK_clean_linker_0, # of connection points: 2
#     Edge 65, Type (0, 1), BuildingBlock: AJUNOK_clean_linker_0, # of connection points: 2
#     Edge 66, Type (0, 1), BuildingBlock: AJUNOK_clean_linker_0, # of connection points: 2
#     Edge 67, Type (0, 1), BuildingBlock: AJUNOK_clean_linker_0, # of connection points: 2
#     Edge 68, Type (0, 1), BuildingBlock: AJUNOK_clean_linker_0, # of connection points: 2
#     Edge 69, Type (0, 1), BuildingBlock: AJUNOK_clean_linker_0, # of connection points: 2
#     Edge 70, Type (0, 1), BuildingBlock: AJUNOK_clean_linker_0, # of connection points: 2
#     Edge 71, Type (0, 1), BuildingBlock: AJUNOK_clean_linker_0, # of connection points: 2
#     Edge 72, Type (0, 1), BuildingBlock: AJUNOK_clean_linker_0, # of connection points: 2
#     Edge 73, Type (0, 1), BuildingBlock: AJUNOK_clean_linker_0, # of connection points: 2
#     Edge 74, Type (0, 1), BuildingBlock: AJUNOK_clean_linker_0, # of connection points: 2
#     Edge 75, Type (0, 1), BuildingBlock: AJUNOK_clean_linker_0, # of connection points: 2
#     Edge 76, Type (0, 1), BuildingBlock: AJUNOK_clean_linker_0, # of connection points: 2
#     Edge 77, Type (0, 1), BuildingBlock: AJUNOK_clean_linker_0, # of connection points: 2
#     Edge 78, Type (0, 1), BuildingBlock: AJUNOK_clean_linker_0, # of connection points: 2
#     Edge 79, Type (0, 1), BuildingBlock: AJUNOK_clean_linker_0, # of connection points: 2
#     Edge 80, Type (0, 1), BuildingBlock: AJUNOK_clean_linker_0, # of connection points: 2
#     Edge 81, Type (0, 1), BuildingBlock: AJUNOK_clean_linker_0, # of connection points: 2
#     Edge 82, Type (0, 1), BuildingBlock: AJUNOK_clean_linker_0, # of connection points: 2
#     Edge 83, Type (0, 1), BuildingBlock: AJUNOK_clean_linker_0, # of connection points: 2
#     Edge 84, Type (0, 1), BuildingBlock: AJUNOK_clean_linker_0, # of connection points: 2
#     Edge 85, Type (0, 1), BuildingBlock: AJUNOK_clean_linker_0, # of connection points: 2
#     Edge 86, Type (0, 1), BuildingBlock: AJUNOK_clean_linker_0, # of connection points: 2
#     Edge 87, Type (0, 1), BuildingBlock: AJUNOK_clean_linker_0, # of connection points: 2
#     Edge 88, Type (0, 1), BuildingBlock: AJUNOK_clean_linker_0, # of connection points: 2
#     Edge 89, Type (0, 1), BuildingBlock: AJUNOK_clean_linker_0, # of connection points: 2
#     Edge 90, Type (0, 1), BuildingBlock: AJUNOK_clean_linker_0, # of connection points: 2
#     Edge 91, Type (0, 1), BuildingBlock: AJUNOK_clean_linker_0, # of connection points: 2
#     Edge 92, Type (0, 1), BuildingBlock: AJUNOK_clean_linker_0, # of connection points: 2
#     Edge 93, Type (0, 1), BuildingBlock: AJUNOK_clean_linker_0, # of connection points: 2
#     Edge 94, Type (0, 1), BuildingBlock: AJUNOK_clean_linker_0, # of connection points: 2
#     Edge 95, Type (0, 1), BuildingBlock: AJUNOK_clean_linker_0, # of connection points: 2
#     Edge 96, Type (0, 1), BuildingBlock: AJUNOK_clean_linker_0, # of connection points: 2
#     Edge 97, Type (0, 1), BuildingBlock: AJUNOK_clean_linker_0, # of connection points: 2
#     Edge 98, Type (0, 1), BuildingBlock: AJUNOK_clean_linker_0, # of connection points: 2
#     Edge 99, Type (0, 1), BuildingBlock: AJUNOK_clean_linker_0, # of connection points: 2
#     Edge 100, Type (0, 1), BuildingBlock: AJUNOK_clean_linker_0, # of connection points: 2
#     Edge 101, Type (0, 1), BuildingBlock: AJUNOK_clean_linker_0, # of connection points: 2
#     Edge 102, Type (0, 1), BuildingBlock: AJUNOK_clean_linker_0, # of connection points: 2
#     Edge 103, Type (0, 1), BuildingBlock: AJUNOK_clean_linker_0, # of connection points: 2
#     Edge 104, Type (0, 1), BuildingBlock: AJUNOK_clean_linker_0, # of connection points: 2
#     Edge 105, Type (0, 1), BuildingBlock: AJUNOK_clean_linker_0, # of connection points: 2
#     Edge 106, Type (0, 1), BuildingBlock: AJUNOK_clean_linker_0, # of connection points: 2
#     Edge 107, Type (0, 1), BuildingBlock: AJUNOK_clean_linker_0, # of connection points: 2
#     Edge 108, Type (0, 1), BuildingBlock: AJUNOK_clean_linker_0, # of connection points: 2
#     Edge 109, Type (0, 1), BuildingBlock: AJUNOK_clean_linker_0, # of connection points: 2
#     Edge 110, Type (0, 1), BuildingBlock: AJUNOK_clean_linker_0, # of connection points: 2
#     Edge 111, Type (0, 1), BuildingBlock: AJUNOK_clean_linker_0, # of connection points: 2
#     Edge 112, Type (0, 1), BuildingBlock: AJUNOK_clean_linker_0, # of connection points: 2
#     Edge 113, Type (0, 1), BuildingBlock: AJUNOK_clean_linker_0, # of connection points: 2
#     Edge 114, Type (0, 1), BuildingBlock: AJUNOK_clean_linker_0, # of connection points: 2
#     Edge 115, Type (0, 1), BuildingBlock: AJUNOK_clean_linker_0, # of connection points: 2
#     Edge 116, Type (0, 1), BuildingBlock: AJUNOK_clean_linker_0, # of connection points: 2
#     Edge 117, Type (0, 1), BuildingBlock: AJUNOK_clean_linker_0, # of connection points: 2
#     Edge 118, Type (0, 1), BuildingBlock: AJUNOK_clean_linker_0, # of connection points: 2
#     Edge 119, Type (0, 1), BuildingBlock: AJUNOK_clean_linker_0, # of connection points: 2
# Relax obj value: 0.147
# Max RMSD: 0.145
# Mean RMSD: 0.094
data_MOF--net-bwt--node1-OLANEW_clean_sbu_2--node2-VETTIZ_charged_linker_0--edge1-AJUNOK_clean_linker_0
_symmetry_space_group_name_H-M    P1
_symmetry_Int_Tables_number       1
_symmetry_cell_setting            triclinic
loop_
_symmetry_equiv_pos_as_xyz
'x, y, z'
_cell_length_a     56.076456
_cell_length_b     56.08844
_cell_length_c     56.086149
_cell_angle_alpha  93.623449
_cell_angle_beta   93.634567
_cell_angle_gamma 93.635527
loop_
_atom_site_label
_atom_site_type_symbol
_atom_site_fract_x
_atom_site_fract_y
_atom_site_fract_z
_atom_type_partial_charge
O0 O 0.30064 0.60961 0.31796 0.0
Cd1 Cd 0.30431 0.61309 0.27515 0.0
O2 O 0.31028 0.57221 0.31508 0.0
Cd3 Cd 0.32746 0.57533 0.28155 0.0
O4 O 0.36507 0.57152 0.27539 0.0
C5 C 0.37862 0.57604 0.29439 0.0
O6 O 0.36894 0.5836 0.31398 0.0
C7 C 0.30262 0.58967 0.32726 0.0
C8 C 0.2621 0.59165 0.25212 0.0
O9 O 0.28001 0.5794 0.25734 0.0
O10 O 0.26441 0.61434 0.25703 0.0
O11 O 0.19034 0.39358 0.70921 0.0
Cd12 Cd 0.18524 0.38021 0.66675 0.0
O13 O 0.17381 0.36119 0.72321 0.0
Cd14 Cd 0.15586 0.34893 0.68858 0.0
O15 O 0.11842 0.35124 0.67648 0.0
C16 C 0.11221 0.36723 0.66275 0.0
O17 O 0.12899 0.38031 0.65333 0.0
C18 C 0.18544 0.38143 0.72685 0.0
C19 C 0.22636 0.39939 0.64761 0.0
O20 O 0.2069 0.41021 0.6465 0.0
O21 O 0.22588 0.37884 0.65639 0.0
O22 O 0.75471 0.95968 0.66974 0.0
Cd23 Cd 0.76499 0.96071 0.71272 0.0
O24 O 0.77541 0.99274 0.66239 0.0
Cd25 Cd 0.79611 0.99782 0.69684 0.0
O26 O 0.83197 0.01001 0.71221 0.0
C27 C 0.84904 0.00395 0.69974 0.0
O28 O 0.84384 0.99005 0.6801 0.0
C29 C 0.76058 0.97526 0.6553 0.0
C30 C 0.72832 0.982 0.73556 0.0
O31 O 0.74827 0.99381 0.73328 0.0
O32 O 0.72592 0.95997 0.72774 0.0
O33 O 0.75469 0.02525 0.31519 0.0
Cd34 Cd 0.76502 0.01646 0.3565 0.0
O35 O 0.71871 0.0097 0.32009 0.0
Cd36 Cd 0.68144 0.99785 0.30934 0.0
O37 O 0.64438 0.98433 0.30042 0.0
C38 C 0.63885 0.96989 0.28225 0.0
O39 O 0.65584 0.96336 0.26864 0.0
C40 C 0.73363 0.01884 0.30649 0.0
C41 C 0.8064 0.99129 0.35917 0.0
O42 O 0.78599 0.98061 0.35251 0.0
O43 O 0.80728 0.01389 0.36456 0.0
O44 O 0.32972 0.2886 0.60458 0.0
Cd45 Cd 0.28826 0.29079 0.61507 0.0
O46 O 0.32181 0.3055 0.57095 0.0
Cd47 Cd 0.28873 0.32061 0.58111 0.0
O48 O 0.27431 0.35571 0.57879 0.0
C49 C 0.28897 0.37346 0.58541 0.0
O50 O 0.31021 0.36924 0.59486 0.0
C51 C 0.33611 0.29475 0.58437 0.0
C52 C 0.26535 0.24644 0.5998 0.0
O53 O 0.26763 0.26324 0.58549 0.0
O54 O 0.27307 0.25087 0.62173 0.0
O55 O 0.3058 0.76027 0.02636 0.0
Cd56 Cd 0.34709 0.76427 0.0148 0.0
O57 O 0.30592 0.72201 0.01615 0.0
Cd58 Cd 0.2897 0.68578 0.00773 0.0
O59 O 0.27906 0.64798 0.99928 0.0
C60 C 0.26186 0.64099 0.9841 0.0
O61 O 0.24977 0.65708 0.97343 0.0
C62 C 0.29474 0.73972 0.02366 0.0
C63 C 0.35315 0.80448 0.98849 0.0
O64 O 0.34481 0.78429 0.97834 0.0
O65 O 0.35897 0.80555 0.01102 0.0
O66 O 0.737 0.19193 0.39101 0.0
Cd67 Cd 0.6954 0.18782 0.37468 0.0
O68 O 0.75109 0.19841 0.35615 0.0
Cd69 Cd 0.71933 0.17754 0.34011 0.0
O70 O 0.71193 0.14425 0.35717 0.0
C71 C 0.70851 0.12314 0.34744 0.0
O72 O 0.70671 0.11976 0.32399 0.0
C73 C 0.75432 0.19851 0.37883 0.0
C74 C 0.67679 0.23186 0.38547 0.0
O75 O 0.67445 0.21463 0.39929 0.0
O76 O 0.68705 0.22786 0.36597 0.0
O77 O 0.67641 0.75962 0.95352 0.0
Cd78 Cd 0.71934 0.77045 0.95958 0.0
O79 O 0.67013 0.77237 0.99029 0.0
Cd80 Cd 0.70428 0.79321 0.99712 0.0
O81 O 0.71498 0.83069 0.00748 0.0
C82 C 0.69963 0.84494 0.00049 0.0
O83 O 0.68064 0.83593 0.98723 0.0
C84 C 0.66237 0.76177 0.97035 0.0
C85 C 0.74069 0.73441 0.98366 0.0
O86 O 0.73273 0.75242 0.99508 0.0
O87 O 0.73905 0.73372 0.96073 0.0
O88 O 0.5756 0.29279 0.31248 0.0
Cd89 Cd 0.58707 0.25139 0.30834 0.0
O90 O 0.61311 0.30618 0.31131 0.0
Cd91 Cd 0.62326 0.27326 0.32652 0.0
O92 O 0.61245 0.26502 0.36198 0.0
C93 C 0.60561 0.28322 0.3737 0.0
O94 O 0.60677 0.30391 0.36394 0.0
C95 C 0.591 0.31011 0.31056 0.0
C96 C 0.57918 0.23529 0.26027 0.0
O97 O 0.56385 0.23026 0.27551 0.0
O98 O 0.59865 0.24733 0.26788 0.0
O99 O 0.01857 0.32496 0.77174 0.0
Cd100 Cd 0.01579 0.36639 0.78684 0.0
O101 O 0.00303 0.33216 0.73631 0.0
Cd102 Cd 0.99256 0.32258 0.69857 0.0
O103 O 0.98393 0.30904 0.66154 0.0
C104 C 0.99436 0.31847 0.64466 0.0
O105 O 0.01008 0.33672 0.64991 0.0
C106 C 0.01159 0.31751 0.75044 0.0
C107 C 0.98897 0.36727 0.82701 0.0
O108 O 0.97915 0.37021 0.80624 0.0
O109 O 0.01147 0.36428 0.82876 0.0
O110 O 0.39288 0.70079 0.19819 0.0
Cd111 Cd 0.38591 0.65725 0.19248 0.0
O112 O 0.36428 0.71024 0.17254 0.0
Cd113 Cd 0.35973 0.67459 0.15431 0.0
O114 O 0.36846 0.66265 0.11832 0.0
C115 C 0.36105 0.6754 0.10178 0.0
O116 O 0.34713 0.69262 0.10732 0.0
C117 C 0.3806 0.71653 0.18889 0.0
C118 C 0.4009 0.63985 0.23613 0.0
O119 O 0.41494 0.64088 0.21901 0.0
O120 O 0.37942 0.64586 0.23213 0.0
O121 O 0.94257 0.6678 0.74918 0.0
Cd122 Cd 0.94269 0.71064 0.76014 0.0
O123 O 0.97717 0.66181 0.76775 0.0
Cd124 Cd 0.98212 0.69625 0.78841 0.0
O125 O 0.9959 0.70932 0.82451 0.0
C126 C 0.99328 0.69399 0.84008 0.0
O127 O 0.98187 0.67326 0.83325 0.0
C128 C 0.95908 0.65401 0.75404 0.0
C129 C 0.96203 0.73534 0.72355 0.0
O130 O 0.97459 0.73281 0.74301 0.0
O131 O 0.94027 0.72666 0.72155 0.0
O132 O 0.68905 0.37761 0.67926 0.0
Cd133 Cd 0.70533 0.36142 0.71582 0.0
O134 O 0.65969 0.39563 0.69545 0.0
Cd135 Cd 0.62917 0.41784 0.69235 0.0
O136 O 0.5953 0.43279 0.68237 0.0
C137 C 0.57902 0.43291 0.6971 0.0
O138 O 0.58359 0.42539 0.71851 0.0
C139 C 0.67098 0.39008 0.67718 0.0
C140 C 0.75507 0.36942 0.7187 0.0
O141 O 0.74476 0.35104 0.70663 0.0
O142 O 0.74188 0.38372 0.72972 0.0
O143 O 0.78989 0.61973 0.28973 0.0
Cd144 Cd 0.78359 0.63466 0.33044 0.0
O145 O 0.82829 0.61459 0.29575 0.0
Cd146 Cd 0.86219 0.6012 0.28515 0.0
O147 O 0.89633 0.58708 0.27662 0.0
C148 C 0.90849 0.59572 0.26043 0.0
O149 O 0.90013 0.61332 0.24875 0.0
C150 C 0.80925 0.6127 0.282 0.0
C151 C 0.7396 0.61347 0.34124 0.0
O152 O 0.74098 0.63453 0.3336 0.0
O153 O 0.75906 0.60295 0.34454 0.0
O154 O 0.26438 0.08645 0.29969 0.0
Cd155 Cd 0.27157 0.08733 0.25734 0.0
O156 O 0.22889 0.06939 0.28855 0.0
Cd157 Cd 0.19502 0.05053 0.29523 0.0
O158 O 0.16163 0.02992 0.29987 0.0
C159 C 0.14994 0.0336 0.31826 0.0
O160 O 0.15831 0.05025 0.33475 0.0
C161 C 0.24456 0.07679 0.30518 0.0
C162 C 0.30542 0.05449 0.24785 0.0
O163 O 0.31167 0.07686 0.2516 0.0
O164 O 0.28314 0.04784 0.24774 0.0
O165 O 0.25515 0.99867 0.70574 0.0
Cd166 Cd 0.23999 0.00886 0.66613 0.0
O167 O 0.29235 0.00949 0.69921 0.0
Cd168 Cd 0.32995 0.01943 0.71088 0.0
O169 O 0.36728 0.03117 0.72166 0.0
C170 C 0.37939 0.02065 0.73725 0.0
O171 O 0.36914 0.0023 0.74703 0.0
C172 C 0.27703 0.00203 0.71328 0.0
C173 C 0.1994 0.03458 0.67161 0.0
O174 O 0.1974 0.01202 0.66588 0.0
O175 O 0.22049 0.04502 0.67405 0.0
O176 O 0.71594 0.71358 0.38757 0.0
Cd177 Cd 0.75564 0.7248 0.37461 0.0
O178 O 0.72337 0.67647 0.39401 0.0
Cd179 Cd 0.71159 0.63939 0.39967 0.0
O180 O 0.6924 0.60602 0.40756 0.0
C181 C 0.70246 0.58637 0.40685 0.0
O182 O 0.72493 0.58638 0.40145 0.0
C183 C 0.70893 0.69308 0.39387 0.0
C184 C 0.76138 0.7746 0.37806 0.0
O185 O 0.75102 0.76331 0.35926 0.0
O186 O 0.76957 0.76228 0.39485 0.0
O187 O 0.69313 0.25713 0.99148 0.0
Cd188 Cd 0.65291 0.23757 0.99033 0.0
O189 O 0.68378 0.29424 0.99878 0.0
Cd190 Cd 0.69375 0.33212 0.00874 0.0
O191 O 0.70816 0.36881 0.01848 0.0
C192 C 0.69689 0.38646 0.01183 0.0
O193 O 0.67645 0.38221 0.99903 0.0
C194 C 0.69953 0.27922 0.99555 0.0
C195 C 0.6577 0.19542 0.01356 0.0
O196 O 0.66155 0.19649 0.99138 0.0
O197 O 0.65059 0.21407 0.02466 0.0
O198 O 0.28328 0.78579 0.65962 0.0
Cd199 Cd 0.32325 0.77516 0.6728 0.0
O200 O 0.29325 0.82024 0.64486 0.0
Cd201 Cd 0.28392 0.85011 0.62346 0.0
O202 O 0.27285 0.87862 0.6011 0.0
C203 C 0.28439 0.89897 0.60289 0.0
O204 O 0.30305 0.90252 0.61839 0.0
C205 C 0.27749 0.80376 0.64838 0.0
C206 C 0.32485 0.72987 0.65018 0.0
O207 O 0.32017 0.73207 0.67225 0.0
O208 O 0.33044 0.74884 0.63964 0.0
O209 O 0.30387 0.26573 0.08022 0.0
Cd210 Cd 0.26403 0.27452 0.09194 0.0
O211 O 0.29107 0.2293 0.0668 0.0
Cd212 Cd 0.29587 0.19451 0.04864 0.0
O213 O 0.30141 0.16054 0.02941 0.0
C214 C 0.32015 0.14959 0.034 0.0
O215 O 0.33608 0.15903 0.05068 0.0
C216 C 0.30798 0.24558 0.07025 0.0
C217 C 0.24541 0.30601 0.06041 0.0
O218 O 0.25867 0.31368 0.07911 0.0
O219 O 0.24047 0.28339 0.05691 0.0
O220 O 0.37264 0.71737 0.69603 0.0
Cd221 Cd 0.36521 0.75807 0.70994 0.0
O222 O 0.38969 0.72678 0.66333 0.0
Cd223 Cd 0.41012 0.71663 0.6328 0.0
O224 O 0.42945 0.70132 0.60358 0.0
C225 C 0.42065 0.70119 0.58214 0.0
O226 O 0.40007 0.71066 0.578 0.0
C227 C 0.3834 0.71119 0.6776 0.0
C228 C 0.37833 0.76019 0.75876 0.0
O229 O 0.35626 0.75652 0.75122 0.0
O230 O 0.39382 0.76401 0.74336 0.0
O231 O 0.98736 0.70608 0.26167 0.0
Cd232 Cd 0.98595 0.666 0.24161 0.0
O233 O 0.99855 0.69627 0.29786 0.0
Cd234 Cd 0.0118 0.70574 0.33512 0.0
O235 O 0.02766 0.71623 0.37124 0.0
C236 C 0.01953 0.73295 0.38407 0.0
O237 O 0.00115 0.74383 0.37536 0.0
C238 C 0.99314 0.71214 0.2836 0.0
C239 C 0.00228 0.67026 0.19591 0.0
O240 O 0.98039 0.67306 0.20002 0.0
O241 O 0.0164 0.66477 0.2133 0.0
O242 O 0.64221 0.29052 0.79108 0.0
Cd243 Cd 0.66502 0.32624 0.77995 0.0
O244 O 0.63992 0.29883 0.82975 0.0
Cd245 Cd 0.62614 0.29044 0.86421 0.0
O246 O 0.61001 0.28138 0.89729 0.0
C247 C 0.61338 0.26151 0.90629 0.0
O248 O 0.62686 0.24652 0.89542 0.0
C249 C 0.63482 0.28493 0.81108 0.0
C250 C 0.6467 0.33325 0.73366 0.0
O251 O 0.66475 0.32066 0.73705 0.0
O252 O 0.63832 0.34348 0.75212 0.0
O253 O 0.10039 0.3012 0.25816 0.0
Cd254 Cd 0.11173 0.26303 0.27245 0.0
O255 O 0.0775 0.28452 0.22754 0.0
Cd256 Cd 0.05136 0.28795 0.19758 0.0
O257 O 0.02635 0.2943 0.16759 0.0
C258 C 0.02082 0.31546 0.16399 0.0
O259 O 0.03017 0.33326 0.17867 0.0
C260 C 0.08625 0.30316 0.23989 0.0
C261 C 0.0837 0.25292 0.31019 0.0
O262 O 0.10326 0.26612 0.31371 0.0
O263 O 0.07784 0.24379 0.28894 0.0
C264 C 0.27995 0.48907 0.56639 0.0
C265 C 0.27564 0.46775 0.55187 0.0
C266 C 0.27167 0.46881 0.52693 0.0
C267 C 0.27856 0.51204 0.53109 0.0
C268 C 0.28104 0.51096 0.55568 0.0
C269 C 0.28621 0.53529 0.56844 0.0
H270 H 0.32137 0.65205 0.56236 0.0
C271 C 0.28368 0.53722 0.5256 0.0
C272 C 0.28833 0.5509 0.54748 0.0
H273 H 0.30126 0.6167 0.62518 0.0
H274 H 0.29343 0.57928 0.6012 0.0
H275 H 0.34667 0.60806 0.5344 0.0
H276 H 0.27625 0.63392 0.53356 0.0
H277 H 0.27886 0.62187 0.50435 0.0
H278 H 0.29893 0.64685 0.51629 0.0
H279 H 0.33902 0.63588 0.52277 0.0
H280 H 0.33585 0.60826 0.50425 0.0
C281 C 0.3101 0.53527 0.5837 0.0
C282 C 0.26449 0.54111 0.58302 0.0
C283 C 0.28622 0.55969 0.43908 0.0
C284 C 0.29244 0.58136 0.42892 0.0
C285 C 0.3 0.60174 0.44413 0.0
C286 C 0.30099 0.60075 0.469 0.0
C287 C 0.29446 0.57911 0.47893 0.0
C288 C 0.28734 0.55899 0.46408 0.0
C289 C 0.28196 0.5374 0.47802 0.0
C290 C 0.28617 0.54818 0.50363 0.0
C291 C 0.29362 0.57256 0.50393 0.0
C292 C 0.30022 0.51868 0.47193 0.0
C293 C 0.25546 0.52844 0.47203 0.0
C294 C 0.31494 0.63642 0.57105 0.0
C295 C 0.31144 0.63762 0.59568 0.0
C296 C 0.30405 0.61641 0.60624 0.0
C297 C 0.29919 0.59476 0.59223 0.0
C298 C 0.30142 0.59435 0.56736 0.0
C299 C 0.30899 0.61506 0.55723 0.0
C300 C 0.30783 0.61225 0.53038 0.0
C301 C 0.29859 0.58627 0.52599 0.0
C302 C 0.29545 0.57567 0.54766 0.0
C303 C 0.3336 0.61645 0.52232 0.0
C304 C 0.28971 0.62964 0.52046 0.0
H305 H 0.27061 0.49053 0.49729 0.0
H306 H 0.28301 0.48867 0.58561 0.0
H307 H 0.2475 0.53251 0.57414 0.0
H308 H 0.26161 0.56045 0.5844 0.0
H309 H 0.26646 0.53457 0.60128 0.0
H310 H 0.32353 0.52568 0.57369 0.0
H311 H 0.30748 0.5262 0.60044 0.0
H312 H 0.31838 0.55342 0.58837 0.0
H313 H 0.28064 0.54364 0.42782 0.0
H314 H 0.30567 0.6184 0.43676 0.0
H315 H 0.30704 0.61686 0.47951 0.0
H316 H 0.31795 0.5276 0.46883 0.0
H317 H 0.29403 0.5074 0.45544 0.0
H318 H 0.30398 0.50699 0.48662 0.0
H319 H 0.24395 0.54381 0.47067 0.0
H320 H 0.248 0.51779 0.48605 0.0
H321 H 0.25324 0.51762 0.45466 0.0
H322 H 0.2684 0.45248 0.51548 0.0
C323 C 0.27317 0.49086 0.51643 0.0
C324 C 0.22181 0.39543 0.99181 0.0
C325 C 0.22128 0.37052 0.98677 0.0
C326 C 0.21847 0.36129 0.96271 0.0
C327 C 0.2174 0.40148 0.94933 0.0
C328 C 0.22004 0.41049 0.97291 0.0
C329 C 0.22212 0.43741 0.97516 0.0
H330 H 0.23315 0.54219 0.92228 0.0
C331 C 0.21732 0.42196 0.93401 0.0
C332 C 0.22017 0.44306 0.94902 0.0
H333 H 0.23569 0.53065 0.99784 0.0
H334 H 0.22702 0.48831 0.98888 0.0
H335 H 0.26169 0.49616 0.90548 0.0
H336 H 0.18635 0.50616 0.90849 0.0
H337 H 0.18954 0.48701 0.88308 0.0
H338 H 0.20319 0.51718 0.88486 0.0
H339 H 0.24592 0.51571 0.88686 0.0
H340 H 0.24657 0.48432 0.87838 0.0
C341 C 0.24708 0.44561 0.98755 0.0
C342 C 0.20065 0.44605 0.98866 0.0
C343 C 0.20807 0.40675 0.84367 0.0
C344 C 0.2067 0.42193 0.8247 0.0
C345 C 0.20866 0.44694 0.82997 0.0
C346 C 0.21211 0.45663 0.85371 0.0
C347 C 0.21345 0.44117 0.87246 0.0
C348 C 0.21128 0.41669 0.86725 0.0
C349 C 0.21242 0.40294 0.88938 0.0
C350 C 0.21537 0.4232 0.90878 0.0
C351 C 0.21623 0.44557 0.8988 0.0
C352 C 0.23473 0.38797 0.88894 0.0
C353 C 0.1883 0.38799 0.89017 0.0
C354 C 0.23169 0.53047 0.93682 0.0
C355 C 0.23566 0.5396 0.96079 0.0
C356 C 0.23335 0.5239 0.97926 0.0
C357 C 0.22823 0.49933 0.97401 0.0
C358 C 0.22536 0.49027 0.95 0.0
C359 C 0.22662 0.50577 0.93185 0.0
C360 C 0.22256 0.49282 0.90743 0.0
C361 C 0.21952 0.46696 0.91398 0.0
C362 C 0.22126 0.46565 0.93894 0.0
C363 C 0.24524 0.4975 0.8936 0.0
C364 C 0.19933 0.50123 0.8951 0.0
H365 H 0.21454 0.36846 0.9261 0.0
H366 H 0.22407 0.40311 0.01009 0.0
H367 H 0.18425 0.43407 0.98378 0.0
H368 H 0.19564 0.464 0.98398 0.0
H369 H 0.20438 0.44616 0.00835 0.0
H370 H 0.26073 0.43296 0.98253 0.0
H371 H 0.24663 0.44644 0.00736 0.0
H372 H 0.25422 0.46308 0.9821 0.0
H373 H 0.20664 0.38747 0.84024 0.0
H374 H 0.20704 0.45904 0.81574 0.0
H375 H 0.21344 0.47577 0.85657 0.0
H376 H 0.24939 0.39725 0.87985 0.0
H377 H 0.23039 0.37022 0.87918 0.0
H378 H 0.24272 0.38537 0.90703 0.0
H379 H 0.17309 0.3982 0.88365 0.0
H380 H 0.1842 0.38361 0.90844 0.0
H381 H 0.188 0.37112 0.87863 0.0
H382 H 0.21871 0.34224 0.95825 0.0
C383 C 0.21637 0.3766 0.94401 0.0
C384 C 0.71573 0.01893 0.39709 0.0
C385 C 0.71038 0.04157 0.40679 0.0
C386 C 0.70617 0.0444 0.4313 0.0
C387 C 0.71555 0.00349 0.4366 0.0
C388 C 0.71803 0.00015 0.41227 0.0
C389 C 0.72398 0.97501 0.40511 0.0
H390 H 0.75175 0.8657 0.43885 0.0
C391 C 0.72081 0.98107 0.44767 0.0
C392 C 0.72569 0.96423 0.42928 0.0
H393 H 0.74714 0.88957 0.36706 0.0
H394 H 0.73612 0.92852 0.38243 0.0
H395 H 0.77968 0.91336 0.46269 0.0
H396 H 0.70557 0.88787 0.45596 0.0
H397 H 0.71044 0.90248 0.48463 0.0
H398 H 0.7268 0.87666 0.47702 0.0
H399 H 0.76778 0.89022 0.48011 0.0
H400 H 0.768 0.92144 0.49007 0.0
C401 C 0.74822 0.97609 0.39333 0.0
C402 C 0.70277 0.96301 0.3887 0.0
C403 C 0.72729 0.97864 0.53849 0.0
C404 C 0.73293 0.96045 0.55364 0.0
C405 C 0.73636 0.93742 0.54349 0.0
C406 C 0.73473 0.93263 0.51866 0.0
C407 C 0.72981 0.95111 0.50369 0.0
C408 C 0.7257 0.97354 0.51361 0.0
C409 C 0.7203 0.99077 0.49474 0.0
C410 C 0.72263 0.97511 0.47194 0.0
C411 C 0.7284 0.95203 0.47741 0.0
C412 C 0.73972 0.01182 0.49793 0.0
C413 C 0.69437 0.99832 0.49699 0.0
C414 C 0.74878 0.87943 0.42644 0.0
C415 C 0.75078 0.8748 0.40179 0.0
C416 C 0.74587 0.89286 0.38616 0.0
C417 C 0.73945 0.91538 0.39512 0.0
C418 C 0.7378 0.91976 0.41994 0.0
C419 C 0.74244 0.90186 0.43506 0.0
C420 C 0.74011 0.90947 0.46087 0.0
C421 C 0.73303 0.93491 0.45887 0.0
C422 C 0.73172 0.94093 0.43492 0.0
C423 C 0.76503 0.90849 0.47435 0.0
C424 C 0.71983 0.89328 0.47034 0.0
H425 H 0.706 0.02906 0.46483 0.0
H426 H 0.71879 0.01606 0.37828 0.0
H427 H 0.68539 0.96767 0.39565 0.0
H428 H 0.70229 0.94328 0.38782 0.0
H429 H 0.70326 0.9691 0.37026 0.0
H430 H 0.76021 0.99157 0.40114 0.0
H431 H 0.74542 0.97807 0.3738 0.0
H432 H 0.75849 0.96024 0.39621 0.0
H433 H 0.72448 0.99648 0.54586 0.0
H434 H 0.74113 0.92324 0.55479 0.0
H435 H 0.73789 0.91481 0.51211 0.0
H436 H 0.75781 0.00501 0.50092 0.0
H437 H 0.73666 0.02406 0.51363 0.0
H438 H 0.74068 0.02241 0.48208 0.0
H439 H 0.68307 0.98434 0.50505 0.0
H440 H 0.685 0.00053 0.47937 0.0
H441 H 0.6941 0.01516 0.50846 0.0
H442 H 0.70105 0.06136 0.43903 0.0
C443 C 0.70888 0.02558 0.44625 0.0
C444 C 0.67933 0.08923 0.05475 0.0
C445 C 0.6777 0.11194 0.06645 0.0
C446 C 0.6814 0.11454 0.09162 0.0
C447 C 0.68907 0.07252 0.09278 0.0
C448 C 0.68533 0.07 0.06814 0.0
C449 C 0.68909 0.04511 0.05818 0.0
H450 H 0.71152 0.93065 0.07747 0.0
C451 C 0.69529 0.04906 0.10119 0.0
C452 C 0.69552 0.03301 0.08093 0.0
H453 H 0.6987 0.96181 0.00967 0.0
H454 H 0.69599 0.0006 0.03015 0.0
H455 H 0.7485 0.97336 0.10007 0.0
H456 H 0.67303 0.95806 0.10555 0.0
H457 H 0.68539 0.96781 0.13434 0.0
H458 H 0.69542 0.94112 0.11962 0.0
H459 H 0.73716 0.95098 0.11868 0.0
H460 H 0.74272 0.98194 0.12966 0.0
C461 C 0.71022 0.04654 0.04165 0.0
C462 C 0.66508 0.03433 0.04559 0.0
C463 C 0.7092 0.0382 0.19041 0.0
C464 C 0.71516 0.01841 0.20328 0.0
C465 C 0.71812 0.99641 0.19057 0.0
C466 C 0.71526 0.9941 0.16556 0.0
C467 C 0.70934 0.01398 0.15293 0.0
C468 C 0.70648 0.0356 0.16532 0.0
C469 C 0.70053 0.05482 0.14874 0.0
C470 C 0.7002 0.04109 0.12445 0.0
C471 C 0.70531 0.01718 0.12709 0.0
C472 C 0.72094 0.07494 0.15206 0.0
C473 C 0.67551 0.06313 0.15414 0.0
C474 C 0.7084 0.9459 0.06704 0.0
C475 C 0.70487 0.9431 0.04196 0.0
C476 C 0.70087 0.9634 0.02904 0.0
C477 C 0.69942 0.98593 0.04098 0.0
C478 C 0.70216 0.98828 0.06612 0.0
C479 C 0.70699 0.96854 0.07868 0.0
C480 C 0.70982 0.97446 0.10527 0.0
C481 C 0.70556 0.00096 0.10662 0.0
C482 C 0.70091 0.0089 0.08367 0.0
C483 C 0.73579 0.96985 0.1141 0.0
C484 C 0.69007 0.95956 0.11702 0.0
H485 H 0.6898 0.09815 0.1239 0.0
H486 H 0.6761 0.08644 0.03551 0.0
H487 H 0.64979 0.03911 0.05625 0.0
H488 H 0.66387 0.01459 0.04368 0.0
H489 H 0.66207 0.04126 0.0276 0.0
H490 H 0.72328 0.06186 0.04759 0.0
H491 H 0.70382 0.04899 0.02287 0.0
H492 H 0.7209 0.03064 0.04202 0.0
H493 H 0.7065 0.05526 0.19964 0.0
H494 H 0.72295 0.98098 0.20004 0.0
H495 H 0.71781 0.97688 0.15703 0.0
H496 H 0.73854 0.06745 0.15614 0.0
H497 H 0.71789 0.08804 0.16707 0.0
H498 H 0.72331 0.08454 0.13569 0.0
H499 H 0.66313 0.04757 0.15746 0.0
H500 H 0.66667 0.07169 0.1391 0.0
H501 H 0.67663 0.07573 0.17033 0.0
H502 H 0.68036 0.13185 0.10108 0.0
C503 C 0.68703 0.09497 0.10483 0.0
C504 C 0.55301 0.27843 0.47604 0.0
C505 C 0.57715 0.28208 0.47133 0.0
C506 C 0.59446 0.28802 0.49037 0.0
C507 C 0.56336 0.28761 0.51852 0.0
C508 C 0.54652 0.28126 0.4997 0.0
C509 C 0.52149 0.27878 0.50773 0.0
H510 H 0.44629 0.2901 0.59672 0.0
C511 C 0.55057 0.28976 0.54076 0.0
C512 C 0.52602 0.28442 0.53449 0.0
H513 H 0.42788 0.27083 0.5217 0.0
H514 H 0.46988 0.27175 0.51406 0.0
H515 H 0.48683 0.25528 0.60248 0.0
H516 H 0.48805 0.32985 0.5896 0.0
H517 H 0.51071 0.32629 0.61201 0.0
H518 H 0.48015 0.3176 0.61708 0.0
H519 H 0.48748 0.27777 0.62669 0.0
H520 H 0.5147 0.26726 0.61538 0.0
C521 C 0.51147 0.25257 0.5017 0.0
C522 C 0.50675 0.29778 0.49572 0.0
C523 C 0.59573 0.31561 0.62124 0.0
C524 C 0.58807 0.31793 0.6447 0.0
C525 C 0.56387 0.31195 0.64843 0.0
C526 C 0.54734 0.30495 0.62927 0.0
C527 C 0.55497 0.30345 0.60594 0.0
C528 C 0.57887 0.30819 0.60215 0.0
C529 C 0.58366 0.30373 0.57611 0.0
C530 C 0.55858 0.29611 0.56506 0.0
C531 C 0.54194 0.29638 0.58269 0.0
C532 C 0.60077 0.28318 0.57406 0.0
C533 C 0.59358 0.32757 0.56689 0.0
C534 C 0.45131 0.28579 0.57869 0.0
C535 C 0.43379 0.28079 0.55973 0.0
C536 C 0.44107 0.27528 0.53652 0.0
C537 C 0.46547 0.27576 0.53215 0.0
C538 C 0.48278 0.28178 0.5512 0.0
C539 C 0.47553 0.28623 0.57404 0.0
C540 C 0.49623 0.29213 0.59218 0.0
C541 C 0.51717 0.29122 0.57636 0.0
C542 C 0.50924 0.28519 0.5524 0.0
C543 C 0.49637 0.27227 0.61027 0.0
C544 C 0.49377 0.31773 0.60353 0.0
H545 H 0.60162 0.2958 0.52776 0.0
H546 H 0.53943 0.27403 0.46154 0.0
H547 H 0.51802 0.31462 0.49424 0.0
H548 H 0.49174 0.30328 0.50612 0.0
H549 H 0.49969 0.29124 0.47736 0.0
H550 H 0.52577 0.23992 0.50426 0.0
H551 H 0.50412 0.24988 0.48279 0.0
H552 H 0.49752 0.24682 0.51356 0.0
H553 H 0.61431 0.31957 0.61783 0.0
H554 H 0.55766 0.3124 0.66635 0.0
H555 H 0.52921 0.30096 0.63344 0.0
H556 H 0.59735 0.26994 0.58761 0.0
H557 H 0.61979 0.29014 0.57701 0.0
H558 H 0.59822 0.27266 0.55666 0.0
H559 H 0.58353 0.34275 0.57376 0.0
H560 H 0.59179 0.32781 0.54721 0.0
H561 H 0.61272 0.33141 0.57304 0.0
H562 H 0.61317 0.29076 0.48683 0.0
C563 C 0.5877 0.29088 0.514 0.0
C564 C 0.17717 0.72585 0.01544 0.0
C565 C 0.19286 0.72498 0.03584 0.0
C566 C 0.18352 0.71901 0.05758 0.0
C567 C 0.14326 0.71529 0.03845 0.0
C568 C 0.15259 0.72089 0.01711 0.0
C569 C 0.13365 0.72035 0.99687 0.0
H570 H 0.01758 0.69992 0.95624 0.0
C571 C 0.11702 0.71072 0.0339 0.0
C572 C 0.11135 0.71353 0.00953 0.0
H573 H 0.07846 0.71899 0.91608 0.0
H574 H 0.10441 0.72145 0.95222 0.0
H575 H 0.04247 0.66259 0.98601 0.0
H576 H 0.03367 0.73719 0.0036 0.0
H577 H 0.02706 0.72127 0.02867 0.0
H578 H 0.00922 0.7147 0.0009 0.0
H579 H 0.01454 0.67291 0.99495 0.0
H580 H 0.03757 0.66534 0.01662 0.0
C581 C 0.13912 0.70069 0.97765 0.0
C582 C 0.13316 0.74587 0.98782 0.0
C583 C 0.06511 0.69127 0.10225 0.0
C584 C 0.04038 0.68567 0.1033 0.0
C585 C 0.0256 0.68396 0.08187 0.0
C586 C 0.03507 0.6886 0.05997 0.0
C587 C 0.05969 0.69474 0.05932 0.0
C588 C 0.07434 0.69562 0.08016 0.0
C589 C 0.10023 0.7014 0.07582 0.0
C590 C 0.09857 0.70448 0.04907 0.0
C591 C 0.07475 0.70069 0.03954 0.0
C592 C 0.11455 0.67966 0.08223 0.0
C593 C 0.10879 0.72507 0.09043 0.0
C594 C 0.03652 0.70454 0.95526 0.0
C595 C 0.04604 0.70904 0.93324 0.0
C596 C 0.07069 0.71554 0.93283 0.0
C597 C 0.08577 0.71676 0.95382 0.0
C598 C 0.07615 0.71139 0.97555 0.0
C599 C 0.05186 0.70567 0.97607 0.0
C600 C 0.04489 0.70024 0.00073 0.0
C601 C 0.06904 0.70342 0.01485 0.0
C602 C 0.08724 0.70995 -0.0 0.0
C603 C 0.03413 0.674 0.99969 0.0
C604 C 0.02768 0.71916 0.00903 0.0
H605 H 0.1527 0.70999 0.07611 0.0
H606 H 0.18394 0.72989 0.99837 0.0
H607 H 0.1366 0.75971 0.00297 0.0
H608 H 0.11556 0.74956 0.9794 0.0
H609 H 0.14711 0.749 0.97495 0.0
H610 H 0.14733 0.68546 0.98608 0.0
H611 H 0.15182 0.70783 0.96502 0.0
H612 H 0.12288 0.6925 0.96738 0.0
H613 H 0.07701 0.69254 0.11833 0.0
H614 H 0.00666 0.67885 0.08198 0.0
H615 H 0.02282 0.68717 0.04439 0.0
H616 H 0.10326 0.66258 0.07895 0.0
H617 H 0.12114 0.68116 0.1014 0.0
H618 H 0.12984 0.67731 0.07101 0.0
H619 H 0.09485 0.73828 0.08919 0.0
H620 H 0.12495 0.73395 0.0838 0.0
H621 H 0.11242 0.72199 0.10966 0.0
H622 H 0.19538 0.71819 0.07348 0.0
C623 C 0.15878 0.71428 0.05903 0.0
C624 C 0.95341 0.27641 0.53466 0.0
C625 C 0.97671 0.28231 0.54498 0.0
C626 C 0.9963 0.28004 0.53065 0.0
C627 C 0.96939 0.26613 0.49639 0.0
C628 C 0.95018 0.2683 0.51047 0.0
C629 C 0.92662 0.26119 0.49673 0.0
H630 H 0.86628 0.21977 0.39231 0.0
C631 C 0.95992 0.25755 0.47196 0.0
C632 C 0.93485 0.25455 0.47205 0.0
H633 H 0.83692 0.23871 0.45984 0.0
H634 H 0.87672 0.24965 0.47783 0.0
H635 H 0.90114 0.26504 0.39327 0.0
H636 H 0.91222 0.19389 0.41383 0.0
H637 H 0.93646 0.20308 0.39736 0.0
H638 H 0.90652 0.20126 0.3834 0.0
H639 H 0.90603 0.24126 0.37162 0.0
H640 H 0.9306 0.25989 0.38669 0.0
C641 C 0.91141 0.28331 0.49674 0.0
C642 C 0.91489 0.2393 0.50813 0.0
C643 C 0.01671 0.24757 0.40536 0.0
C644 C 0.01279 0.24205 0.38053 0.0
C645 C 0.98927 0.23563 0.37085 0.0
C646 C 0.96995 0.23534 0.38545 0.0
C647 C 0.97404 0.24175 0.41004 0.0
C648 C 0.99711 0.24763 0.41966 0.0
C649 C 0.99784 0.25498 0.44599 0.0
C650 C 0.97138 0.25268 0.45049 0.0
C651 C 0.95762 0.24475 0.42939 0.0
C652 C 0.00842 0.28127 0.44978 0.0
C653 C 0.01219 0.23682 0.45968 0.0
C654 C 0.86842 0.22635 0.41096 0.0
C655 C 0.84849 0.228 0.42477 0.0
C656 C 0.85205 0.2367 0.44897 0.0
C657 C 0.87516 0.2432 0.45934 0.0
C658 C 0.89495 0.24116 0.44532 0.0
C659 C 0.89132 0.23302 0.42151 0.0
C660 C 0.91425 0.23266 0.4091 0.0
C661 C 0.93234 0.24147 0.42949 0.0
C662 C 0.92099 0.24639 0.45068 0.0
C663 C 0.91306 0.25045 0.389 0.0
C664 C 0.91764 0.20644 0.40024 0.0
H665 H 0.00843 0.27055 0.49655 0.0
H666 H 0.93796 0.27835 0.54511 0.0
H667 H 0.92865 0.22699 0.51385 0.0
H668 H 0.90217 0.22821 0.49556 0.0
H669 H 0.90554 0.24499 0.5242 0.0
H670 H 0.92297 0.30007 0.49584 0.0
H671 H 0.90161 0.2851 0.51329 0.0
H672 H 0.8985 0.28293 0.481 0.0
H673 H 0.03458 0.25213 0.41349 0.0
H674 H 0.98569 0.23148 0.35178 0.0
H675 H 0.95251 0.23056 0.37689 0.0
H676 H 0.00285 0.29177 0.43444 0.0
H677 H 0.02831 0.28217 0.45136 0.0
H678 H 0.00198 0.29098 0.46559 0.0
H679 H 0.00852 0.21839 0.45113 0.0
H680 H 0.0072 0.23552 0.4783 0.0
H681 H 0.03177 0.24137 0.45975 0.0
H682 H 0.01442 0.28438 0.53826 0.0
C683 C 0.99278 0.27194 0.50647 0.0
C684 C 0.54544 0.72471 0.96457 0.0
C685 C 0.56079 0.73579 0.94906 0.0
C686 C 0.55106 0.7434 0.92727 0.0
C687 C 0.5112 0.72997 0.93714 0.0
C688 C 0.52078 0.72212 0.95832 0.0
C689 C 0.50177 0.71182 0.97324 0.0
H690 H 0.38417 0.689 0.98986 0.0
C691 C 0.48495 0.72523 0.93631 0.0
C692 C 0.47926 0.71453 0.95734 0.0
H693 H 0.44548 0.67901 0.03804 0.0
H694 H 0.47209 0.69125 0.00844 0.0
H695 H 0.40493 0.73972 0.97068 0.0
H696 H 0.40575 0.66644 0.94268 0.0
H697 H 0.40342 0.68406 0.91798 0.0
H698 H 0.37976 0.68315 0.93841 0.0
H699 H 0.37844 0.7212 0.96061 0.0
H700 H 0.39529 0.7374 0.93996 0.0
C701 C 0.50242 0.72752 0.99709 0.0
C702 C 0.50626 0.68517 0.97623 0.0
C703 C 0.43424 0.74804 0.8644 0.0
C704 C 0.40988 0.74365 0.85685 0.0
C705 C 0.39443 0.73235 0.87226 0.0
C706 C 0.40315 0.72551 0.89468 0.0
C707 C 0.42768 0.72961 0.90164 0.0
C708 C 0.44275 0.74052 0.88645 0.0
C709 C 0.46855 0.74165 0.89567 0.0
C710 C 0.46651 0.72973 0.91902 0.0
C711 C 0.44252 0.72307 0.92268 0.0
C712 C 0.47754 0.76838 0.89987 0.0
C713 C 0.48259 0.72689 0.8776 0.0
C714 C 0.40335 0.68933 0.99388 0.0
C715 C 0.41273 0.68277 0.01621 0.0
C716 C 0.43778 0.68339 0.0208 0.0
C717 C 0.45323 0.69085 0.00369 0.0
C718 C 0.44363 0.69805 0.98177 0.0
C719 C 0.41908 0.6969 0.97697 0.0
C720 C 0.4122 0.70523 0.95262 0.0
C721 C 0.43666 0.71242 0.94407 0.0
C722 C 0.45496 0.70814 0.96125 0.0
C723 C 0.39679 0.72698 0.95595 0.0
C724 C 0.39946 0.68377 0.93703 0.0
H725 H 0.52013 0.74704 0.90455 0.0
H726 H 0.55242 0.71839 0.9813 0.0
H727 H 0.51245 0.67666 0.95946 0.0
H728 H 0.48991 0.6743 0.97976 0.0
H729 H 0.52025 0.68336 0.99082 0.0
H730 H 0.50782 0.74655 0.9944 0.0
H731 H 0.51544 0.72129 0.0107 0.0
H732 H 0.48472 0.72813 0.00461 0.0
H733 H 0.44669 0.7566 0.85308 0.0
H734 H 0.37574 0.72801 0.86671 0.0
H735 H 0.39058 0.71685 0.90552 0.0
H736 H 0.46343 0.77915 0.90736 0.0
H737 H 0.48231 0.77595 0.88284 0.0
H738 H 0.49305 0.77143 0.91309 0.0
H739 H 0.47089 0.71213 0.86793 0.0
H740 H 0.49733 0.71774 0.88636 0.0
H741 H 0.48992 0.73829 0.86393 0.0
H742 H 0.56251 0.75213 0.91513 0.0
C743 C 0.5264 0.74056 0.92124 0.0
C744 C 0.62649 0.56788 0.34178 0.0
C745 C 0.6483 0.56057 0.35199 0.0
C746 C 0.64821 0.53814 0.36214 0.0
C747 C 0.60692 0.52924 0.34782 0.0
C748 C 0.60592 0.55221 0.34062 0.0
C749 C 0.58089 0.5573 0.33183 0.0
H750 H 0.46717 0.514 0.29811 0.0
C751 C 0.58374 0.51616 0.34085 0.0
C752 C 0.56805 0.53261 0.33219 0.0
H753 H 0.49392 0.58795 0.30923 0.0
H754 H 0.53396 0.57566 0.31924 0.0
H755 H 0.51213 0.49584 0.27134 0.0
H756 H 0.49411 0.49531 0.34466 0.0
H757 H 0.50381 0.46698 0.33566 0.0
H758 H 0.4779 0.4777 0.32028 0.0
H759 H 0.49255 0.47255 0.28129 0.0
H760 H 0.52463 0.47056 0.2825 0.0
C761 C 0.5814 0.56574 0.30613 0.0
C762 C 0.57132 0.57576 0.35005 0.0
C763 C 0.58089 0.42559 0.33133 0.0
C764 C 0.56394 0.40836 0.31995 0.0
C765 C 0.54116 0.41541 0.31235 0.0
C766 C 0.5358 0.43948 0.31501 0.0
C767 C 0.55345 0.45671 0.32522 0.0
C768 C 0.57548 0.44959 0.3334 0.0
C769 C 0.59256 0.47036 0.34259 0.0
C770 C 0.5772 0.49124 0.33813 0.0
C771 C 0.55435 0.48313 0.32803 0.0
C772 C 0.6144 0.47035 0.327 0.0
C773 C 0.59913 0.46824 0.36965 0.0
C774 C 0.4818 0.52745 0.30245 0.0
C775 C 0.47774 0.55188 0.30291 0.0
C776 C 0.49692 0.56904 0.30885 0.0
C777 C 0.51994 0.5619 0.31487 0.0
C778 C 0.52361 0.53737 0.31526 0.0
C779 C 0.50478 0.52059 0.3089 0.0
C780 C 0.51197 0.49535 0.31084 0.0
C781 C 0.53773 0.49985 0.32095 0.0
C782 C 0.54454 0.52446 0.3231 0.0
C783 C 0.51014 0.48273 0.28529 0.0
C784 C 0.4961 0.48298 0.32868 0.0
H785 H 0.62881 0.50548 0.36765 0.0
H786 H 0.62545 0.58487 0.33385 0.0
H787 H 0.58147 0.57647 0.36782 0.0
H788 H 0.55251 0.57107 0.35385 0.0
H789 H 0.57272 0.59411 0.34367 0.0
H790 H 0.59158 0.55353 0.29483 0.0
H791 H 0.59014 0.58408 0.30624 0.0
H792 H 0.56335 0.56584 0.29709 0.0
H793 H 0.59827 0.42055 0.33804 0.0
H794 H 0.52774 0.40238 0.30372 0.0
H795 H 0.51829 0.44384 0.30857 0.0
H796 H 0.6084 0.46975 0.30766 0.0
H797 H 0.62483 0.45448 0.32997 0.0
H798 H 0.62688 0.48627 0.33062 0.0
H799 H 0.58681 0.45508 0.3776 0.0
H800 H 0.59772 0.4854 0.38027 0.0
H801 H 0.61757 0.4624 0.37273 0.0
H802 H 0.66426 0.53229 0.37109 0.0
C803 C 0.62766 0.5225 0.36013 0.0
C804 C 0.09228 0.07183 0.6928 0.0
C805 C 0.11371 0.08508 0.68895 0.0
C806 C 0.1137 0.11024 0.68913 0.0
C807 C 0.07202 0.10859 0.69838 0.0
C808 C 0.07172 0.08389 0.6973 0.0
C809 C 0.04731 0.07251 0.70098 0.0
H810 H 0.93047 0.08563 0.71932 0.0
C811 C 0.04784 0.11556 0.70376 0.0
C812 C 0.03321 0.09447 0.70509 0.0
H813 H 0.96523 0.01974 0.70732 0.0
H814 H 0.00332 0.04214 0.70567 0.0
H815 H 0.97172 0.11059 0.75692 0.0
H816 H 0.95682 0.11475 0.68121 0.0
H817 H 0.96441 0.14403 0.69364 0.0
H818 H 0.93861 0.12743 0.70329 0.0
H819 H 0.94875 0.12828 0.74517 0.0
H820 H 0.97938 0.14031 0.75089 0.0
C821 C 0.04929 0.058 0.72353 0.0
C822 C 0.03819 0.05744 0.67769 0.0
C823 C 0.03245 0.20361 0.71819 0.0
C824 C 0.01224 0.21536 0.72497 0.0
C825 C 0.99068 0.20164 0.72734 0.0
C826 C 0.98936 0.17666 0.72353 0.0
C827 C 0.00983 0.16513 0.71731 0.0
C828 C 0.03089 0.17858 0.71466 0.0
C829 C 0.0509 0.16316 0.70832 0.0
C830 C 0.03843 0.13827 0.70798 0.0
C831 C 0.01436 0.13958 0.71314 0.0
C832 C 0.07111 0.16736 0.72857 0.0
C833 C 0.05864 0.1692 0.68322 0.0
C834 C 0.94637 0.07599 0.71685 0.0
C835 C 0.94489 0.05087 0.71363 0.0
C836 C 0.96593 0.03909 0.7098 0.0
C837 C 0.988 0.05213 0.7088 0.0
C838 C 0.98906 0.07728 0.7115 0.0
C839 C 0.9685 0.08875 0.71577 0.0
C840 C 0.97293 0.11554 0.71817 0.0
C841 C 0.99939 0.1183 0.71394 0.0
C842 C 0.00877 0.09587 0.71006 0.0
C843 C 0.96782 0.12434 0.74401 0.0
C844 C 0.95734 0.1262 0.69821 0.0
H845 H 0.09432 0.1412 0.69399 0.0
H846 H 0.09155 0.05247 0.69254 0.0
H847 H 0.04496 0.06562 0.66164 0.0
H848 H 0.0185 0.05648 0.67456 0.0
H849 H 0.04431 0.03899 0.67776 0.0
H850 H 0.06138 0.06789 0.73784 0.0
H851 H 0.05672 0.04043 0.71938 0.0
H852 H 0.03202 0.05495 0.73163 0.0
H853 H 0.04916 0.21366 0.71576 0.0
H854 H 0.9749 0.21023 0.73266 0.0
H855 H 0.97247 0.16729 0.7258 0.0
H856 H 0.06347 0.16823 0.74641 0.0
H857 H 0.08173 0.18452 0.72694 0.0
H858 H 0.08341 0.1528 0.72906 0.0
H859 H 0.04337 0.17514 0.67194 0.0
H860 H 0.06462 0.15349 0.67287 0.0
H861 H 0.07308 0.18381 0.68456 0.0
H862 H 0.12964 0.12087 0.68532 0.0
C863 C 0.09307 0.12204 0.69395 0.0
C864 C 0.52188 0.94802 0.25641 0.0
C865 C 0.5405 0.93241 0.25707 0.0
C866 C 0.53515 0.90782 0.25089 0.0
C867 C 0.49299 0.91464 0.24447 0.0
C868 C 0.4984 0.9388 0.25016 0.0
C869 C 0.47656 0.95299 0.24901 0.0
H870 H 0.35703 0.95606 0.22613 0.0
C871 C 0.4668 0.91096 0.23906 0.0
C872 C 0.45713 0.9334 0.24163 0.0
H873 H 0.4081 0.01456 0.25168 0.0
H874 H 0.44015 0.98793 0.25067 0.0
H875 H 0.39047 0.92935 0.18846 0.0
H876 H 0.37636 0.92084 0.262 0.0
H877 H 0.37987 0.892 0.24935 0.0
H878 H 0.35576 0.90881 0.23783 0.0
H879 H 0.36221 0.91767 0.19769 0.0
H880 H 0.38613 0.89848 0.19213 0.0
C881 C 0.47947 0.97106 0.22945 0.0
C882 C 0.47361 0.96462 0.2744 0.0
C883 C 0.42805 0.82713 0.21804 0.0
C884 C 0.40414 0.81831 0.21265 0.0
C885 C 0.38603 0.83459 0.21174 0.0
C886 C 0.39156 0.85921 0.21638 0.0
C887 C 0.41548 0.86773 0.22204 0.0
C888 C 0.43328 0.8518 0.22277 0.0
C889 C 0.45767 0.86416 0.22918 0.0
C890 C 0.45151 0.8901 0.23244 0.0
C891 C 0.42678 0.89204 0.22816 0.0
C892 C 0.47337 0.85992 0.20775 0.0
C893 C 0.4677 0.8547 0.25289 0.0
C894 C 0.37506 0.96313 0.23176 0.0
C895 C 0.37995 0.98747 0.23919 0.0
C896 C 0.40383 0.99594 0.24572 0.0
C897 C 0.42242 0.98039 0.24531 0.0
C898 C 0.41712 0.956 0.23846 0.0
C899 C 0.39375 0.94774 0.23191 0.0
C900 C 0.39126 0.92109 0.22638 0.0
C901 C 0.41705 0.91476 0.23043 0.0
C902 C 0.43213 0.93529 0.23729 0.0
C903 C 0.38188 0.91618 0.19984 0.0
C904 C 0.37487 0.90994 0.24462 0.0
H905 H 0.50853 0.87994 0.24028 0.0
H906 H 0.52552 0.96707 0.26059 0.0
H907 H 0.48059 0.95333 0.28853 0.0
H908 H 0.45467 0.96643 0.27814 0.0
H909 H 0.48351 0.98247 0.27716 0.0
H910 H 0.48771 0.96271 0.21371 0.0
H911 H 0.49122 0.98702 0.23634 0.0
H912 H 0.46225 0.97704 0.22221 0.0
H913 H 0.44244 0.81513 0.21834 0.0
H914 H 0.36748 0.82822 0.20765 0.0
H915 H 0.37695 0.87064 0.21545 0.0
H916 H 0.46244 0.85953 0.19044 0.0
H917 H 0.48181 0.84257 0.20848 0.0
H918 H 0.48745 0.87442 0.20666 0.0
H919 H 0.45324 0.8521 0.26538 0.0
H920 H 0.48128 0.86727 0.26283 0.0
H921 H 0.47551 0.83717 0.2496 0.0
H922 H 0.54925 0.89548 0.25125 0.0
C923 C 0.5115 0.89885 0.24462 0.0
C924 C 0.99916 0.40041 0.67304 0.0
C925 C 0.02211 0.41097 0.66989 0.0
C926 C 0.02596 0.4361 0.67266 0.0
C927 C 0.98501 0.43967 0.68287 0.0
C928 C 0.98096 0.41507 0.67964 0.0
C929 C 0.9558 0.40687 0.68472 0.0
H930 H 0.84663 0.43615 0.71834 0.0
C931 C 0.96283 0.44972 0.69056 0.0
C932 C 0.94554 0.43061 0.69161 0.0
H933 H 0.86917 0.36533 0.70051 0.0
H934 H 0.90857 0.38234 0.69279 0.0
H935 H 0.89372 0.45393 0.75039 0.0
H936 H 0.87092 0.462 0.67693 0.0
H937 H 0.88519 0.4896 0.68802 0.0
H938 H 0.85875 0.47818 0.70144 0.0
H939 H 0.87186 0.47438 0.74194 0.0
H940 H 0.90349 0.48312 0.74443 0.0
C941 C 0.95717 0.39049 0.70592 0.0
C942 C 0.94318 0.39463 0.66137 0.0
C943 C 0.96167 0.53923 0.71172 0.0
C944 C 0.94392 0.5535 0.72036 0.0
C945 C 0.92087 0.54285 0.72286 0.0
C946 C 0.91571 0.51829 0.71752 0.0
C947 C 0.93381 0.5041 0.70963 0.0
C948 C 0.95625 0.51463 0.70657 0.0
C949 C 0.97321 0.49666 0.69808 0.0
C950 C 0.95729 0.47357 0.69689 0.0
C951 C 0.93432 0.4781 0.70374 0.0
C952 C 0.9943 0.49674 0.71735 0.0
C953 C 0.98066 0.50308 0.673 0.0
C954 C 0.86015 0.42421 0.71322 0.0
C955 C 0.85495 0.39934 0.71048 0.0
C956 C 0.87283 0.38456 0.70288 0.0
C957 C 0.89567 0.39447 0.69845 0.0
C958 C 0.90064 0.41943 0.70162 0.0
C959 C 0.88295 0.43377 0.70892 0.0
C960 C 0.8912 0.45981 0.71171 0.0
C961 C 0.91677 0.4589 0.70468 0.0
C962 C 0.92229 0.43526 0.69873 0.0
C963 C 0.88992 0.4685 0.7384 0.0
C964 C 0.87571 0.4733 0.69379 0.0
H965 H 0.01183 0.46942 0.68113 0.0
H966 H 0.99549 0.3812 0.6707 0.0
H967 H 0.94832 0.40436 0.64558 0.0
H968 H 0.92349 0.39466 0.66099 0.0
H969 H 0.94827 0.37588 0.65853 0.0
H970 H 0.97177 0.39731 0.71947 0.0
H971 H 0.96089 0.37197 0.69973 0.0
H972 H 0.94076 0.38985 0.71579 0.0
H973 H 0.97944 0.54699 0.70919 0.0
H974 H 0.90693 0.55347 0.72955 0.0
H975 H 0.89789 0.51128 0.72009 0.0
H976 H 0.98789 0.49919 0.73567 0.0
H977 H 0.00795 0.51157 0.71527 0.0
H978 H 0.00311 0.47969 0.71721 0.0
H979 H 0.96583 0.51106 0.66279 0.0
H980 H 0.98466 0.48724 0.66158 0.0
H981 H 0.99638 0.51629 0.67444 0.0
H982 H 0.04349 0.44469 0.67057 0.0
C983 C 0.00758 0.45046 0.67903 0.0
C984 C 0.65602 0.47711 0.42908 0.0
C985 C 0.65752 0.50011 0.44079 0.0
C986 C 0.65247 0.50274 0.46505 0.0
C987 C 0.64722 0.45966 0.46638 0.0
C988 C 0.6506 0.45715 0.44215 0.0
C989 C 0.64865 0.43126 0.43277 0.0
H990 H 0.65625 0.31639 0.4582 0.0
C991 C 0.64435 0.43553 0.47535 0.0
C992 C 0.64476 0.41874 0.45566 0.0
H993 H 0.64532 0.34338 0.38796 0.0
H994 H 0.64079 0.38286 0.40626 0.0
H995 H 0.68639 0.36181 0.48708 0.0
H996 H 0.6126 0.33739 0.47598 0.0
H997 H 0.6132 0.35726 0.50159 0.0
H998 H 0.62981 0.33076 0.50239 0.0
H999 H 0.67249 0.33476 0.49704 0.0
H1000 H 0.67303 0.36243 0.51483 0.0
C1001 C 0.67262 0.42548 0.42225 0.0
C1002 C 0.62667 0.42701 0.41444 0.0
C1003 C 0.64794 0.42538 0.56537 0.0
C1004 C 0.64684 0.40482 0.57847 0.0
C1005 C 0.64309 0.3821 0.56629 0.0
C1006 C 0.6412 0.37967 0.54134 0.0
C1007 C 0.6432 0.40017 0.52833 0.0
C1008 C 0.64569 0.42261 0.54023 0.0
C1009 C 0.64601 0.44224 0.52303 0.0
C1010 C 0.64381 0.42771 0.49898 0.0
C1011 C 0.64286 0.40314 0.50242 0.0
C1012 C 0.67042 0.45687 0.52736 0.0
C1013 C 0.62401 0.45713 0.52671 0.0
C1014 C 0.6528 0.33058 0.44652 0.0
C1015 C 0.65257 0.32671 0.42146 0.0
C1016 C 0.64731 0.34594 0.40728 0.0
C1017 C 0.64428 0.36883 0.4179 0.0
C1018 C 0.64592 0.37249 0.44296 0.0
C1019 C 0.64886 0.35323 0.45673 0.0
C1020 C 0.64699 0.35958 0.4829 0.0
C1021 C 0.64376 0.38623 0.4827 0.0
C1022 C 0.64391 0.39387 0.45936 0.0
C1023 C 0.67089 0.35435 0.49634 0.0
C1024 C 0.62461 0.34551 0.49125 0.0
H1025 H 0.64418 0.48574 0.49646 0.0
H1026 H 0.65953 0.47475 0.41033 0.0
H1027 H 0.61348 0.44079 0.41711 0.0
H1028 H 0.61652 0.40972 0.41636 0.0
H1029 H 0.63209 0.42757 0.39576 0.0
H1030 H 0.68792 0.43115 0.43541 0.0
H1031 H 0.67522 0.43504 0.40576 0.0
H1032 H 0.67386 0.40624 0.41762 0.0
H1033 H 0.65063 0.44305 0.57448 0.0
H1034 H 0.6424 0.36613 0.5762 0.0
H1035 H 0.6389 0.36185 0.53323 0.0
H1036 H 0.6853 0.44468 0.52858 0.0
H1037 H 0.67117 0.46821 0.5444 0.0
H1038 H 0.67446 0.4685 0.51284 0.0
H1039 H 0.60915 0.4463 0.53396 0.0
H1040 H 0.61619 0.46316 0.50969 0.0
H1041 H 0.62866 0.47294 0.53948 0.0
H1042 H 0.65361 0.52034 0.47436 0.0
C1043 C 0.64727 0.48264 0.47788 0.0
C1044 C 0.76509 0.63145 0.02859 0.0
C1045 C 0.7727 0.6551 0.03683 0.0
C1046 C 0.78521 0.65928 0.05945 0.0
C1047 C 0.78066 0.61702 0.066 0.0
C1048 C 0.76939 0.61273 0.04337 0.0
C1049 C 0.76201 0.5866 0.03771 0.0
H1050 H 0.74794 0.47472 0.07582 0.0
C1051 C 0.78069 0.59407 0.07754 0.0
C1052 C 0.77009 0.57609 0.06096 0.0
H1053 H 0.73052 0.4979 0.00514 0.0
H1054 H 0.74647 0.53802 0.01782 0.0
H1055 H 0.80015 0.50332 0.08317 0.0
H1056 H 0.73055 0.52052 0.10464 0.0
H1057 H 0.7513 0.52943 0.12878 0.0
H1058 H 0.74736 0.49827 0.11842 0.0
H1059 H 0.78611 0.48911 0.10694 0.0
H1060 H 0.80411 0.517 0.11234 0.0
C1061 C 0.77608 0.57739 0.01646 0.0
C1062 C 0.73443 0.58399 0.03293 0.0
C1063 C 0.80538 0.59433 0.16613 0.0
C1064 C 0.80426 0.57652 0.18258 0.0
C1065 C 0.79842 0.55254 0.17411 0.0
C1066 C 0.79249 0.54659 0.1497 0.0
C1067 C 0.79222 0.56485 0.13363 0.0
C1068 C 0.79917 0.58816 0.14187 0.0
C1069 C 0.79728 0.60532 0.12242 0.0
C1070 C 0.78763 0.58854 0.10123 0.0
C1071 C 0.78456 0.5649 0.10791 0.0
C1072 C 0.82275 0.61638 0.11887 0.0
C1073 C 0.77909 0.62379 0.12956 0.0
C1074 C 0.74773 0.48843 0.06306 0.0
C1075 C 0.7376 0.48327 0.03958 0.0
C1076 C 0.73769 0.50159 0.02349 0.0
C1077 C 0.74711 0.52483 0.03084 0.0
C1078 C 0.75658 0.52987 0.05456 0.0
C1079 C 0.75709 0.51173 0.07012 0.0
C1080 C 0.76797 0.52035 0.0946 0.0
C1081 C 0.77408 0.5466 0.0911 0.0
C1082 C 0.76712 0.55213 0.06769 0.0
C1083 C 0.7907 0.50671 0.09978 0.0
C1084 C 0.74849 0.5169 0.11273 0.0
H1085 H 0.79858 0.64482 0.09119 0.0
H1086 H 0.75521 0.62766 0.01141 0.0
H1087 H 0.72569 0.59568 0.04607 0.0
H1088 H 0.72667 0.56573 0.03489 0.0
H1089 H 0.72902 0.58929 0.01471 0.0
H1090 H 0.79383 0.58741 0.01633 0.0
H1091 H 0.76614 0.5795 0.99903 0.0
H1092 H 0.78028 0.55847 0.01754 0.0
H1093 H 0.80969 0.61292 0.17221 0.0
H1094 H 0.79779 0.5385 0.18651 0.0
H1095 H 0.78766 0.52812 0.14441 0.0
H1096 H 0.83663 0.60371 0.12322 0.0
H1097 H 0.82701 0.633 0.1306 0.0
H1098 H 0.82522 0.62028 0.10006 0.0
H1099 H 0.76374 0.61492 0.13799 0.0
H1100 H 0.7709 0.63236 0.1142 0.0
H1101 H 0.78759 0.63798 0.14265 0.0
H1102 H 0.7915 0.6773 0.06605 0.0
C1103 C 0.78931 0.64039 0.07401 0.0
C1104 C 0.2562 0.00012 0.55614 0.0
C1105 C 0.25794 0.97723 0.54491 0.0
C1106 C 0.25416 0.97399 0.51979 0.0
C1107 C 0.24689 0.01598 0.51757 0.0
C1108 C 0.25055 0.01912 0.54221 0.0
C1109 C 0.24812 0.04461 0.55134 0.0
H1110 H 0.22506 0.15801 0.52752 0.0
C1111 C 0.24118 0.03926 0.50844 0.0
C1112 C 0.24151 0.05602 0.5282 0.0
H1113 H 0.25156 0.13245 0.59473 0.0
H1114 H 0.24854 0.09199 0.57706 0.0
H1115 H 0.26041 0.1327 0.49953 0.0
H1116 H 0.18687 0.11172 0.50911 0.0
H1117 H 0.1916 0.10495 0.47878 0.0
H1118 H 0.19595 0.13557 0.49109 0.0
H1119 H 0.23626 0.14489 0.48285 0.0
H1120 H 0.24936 0.11798 0.4723 0.0
C1121 C 0.27277 0.0549 0.56303 0.0
C1122 C 0.22755 0.04489 0.56847 0.0
C1123 C 0.23292 0.04942 0.41881 0.0
C1124 C 0.22795 0.06922 0.40557 0.0
C1125 C 0.22085 0.09016 0.41751 0.0
C1126 C 0.22012 0.09195 0.44244 0.0
C1127 C 0.22666 0.07262 0.45562 0.0
C1128 C 0.23206 0.05148 0.4438 0.0
C1129 C 0.2375 0.03256 0.4609 0.0
C1130 C 0.23602 0.04643 0.48491 0.0
C1131 C 0.22992 0.06993 0.48161 0.0
C1132 C 0.26314 0.0249 0.45729 0.0
C1133 C 0.21772 0.01186 0.45659 0.0
C1134 C 0.22996 0.1437 0.53858 0.0
C1135 C 0.23825 0.14859 0.5627 0.0
C1136 C 0.24448 0.1293 0.57632 0.0
C1137 C 0.24315 0.10579 0.56588 0.0
C1138 C 0.23607 0.1015 0.54141 0.0
C1139 C 0.22956 0.12033 0.52824 0.0
C1140 C 0.22514 0.11312 0.502 0.0
C1141 C 0.23002 0.08681 0.50156 0.0
C1142 C 0.23605 0.07999 0.52471 0.0
C1143 C 0.24351 0.12792 0.48827 0.0
C1144 C 0.19857 0.11662 0.49463 0.0
H1145 H 0.24606 0.98966 0.48705 0.0
H1146 H 0.25904 0.00316 0.57541 0.0
H1147 H 0.21182 0.03324 0.56069 0.0
H1148 H 0.22094 0.06284 0.57171 0.0
H1149 H 0.23328 0.03814 0.58599 0.0
H1150 H 0.28777 0.04553 0.55543 0.0
H1151 H 0.27399 0.05299 0.58265 0.0
H1152 H 0.27664 0.07392 0.55961 0.0
H1153 H 0.23789 0.03292 0.40995 0.0
H1154 H 0.21682 0.10556 0.40761 0.0
H1155 H 0.21525 0.10862 0.45054 0.0
H1156 H 0.27564 0.04088 0.45583 0.0
H1157 H 0.26352 0.01317 0.44062 0.0
H1158 H 0.27072 0.01547 0.47237 0.0
H1159 H 0.20054 0.01838 0.44941 0.0
H1160 H 0.21327 0.00367 0.47332 0.0
H1161 H 0.22294 0.99775 0.44351 0.0
H1162 H 0.25587 0.95662 0.51069 0.0
C1163 C 0.24859 0.99321 0.50608 0.0
C1164 C 0.34994 0.91349 0.95196 0.0
C1165 C 0.35121 0.89186 0.93812 0.0
C1166 C 0.34864 0.89197 0.91295 0.0
C1167 C 0.34298 0.93455 0.91592 0.0
C1168 C 0.34611 0.93452 0.94056 0.0
C1169 C 0.34461 0.95897 0.95274 0.0
H1170 H 0.32381 0.07576 0.94477 0.0
C1171 C 0.33839 0.9592 0.90987 0.0
C1172 C 0.33963 0.97363 0.9314 0.0
H1173 H 0.34146 0.03936 0.00854 0.0
H1174 H 0.34461 0.0025 0.98454 0.0
H1175 H 0.36218 0.05193 0.91233 0.0
H1176 H 0.28757 0.03473 0.92073 0.0
H1177 H 0.29164 0.02938 0.89018 0.0
H1178 H 0.29776 0.05922 0.90407 0.0
H1179 H 0.33897 0.06911 0.90014 0.0
H1180 H 0.34894 0.04335 0.8836 0.0
C1181 C 0.36923 0.96665 0.96609 0.0
C1182 C 0.32333 0.9579 0.96906 0.0
C1183 C 0.31503 0.97671 0.82378 0.0
C1184 C 0.30796 0.99757 0.81348 0.0
C1185 C 0.30875 0.01918 0.8278 0.0
C1186 C 0.31567 0.01991 0.85223 0.0
C1187 C 0.32181 0.99878 0.86256 0.0
C1188 C 0.32174 0.97769 0.84838 0.0
C1189 C 0.32865 0.95704 0.86268 0.0
C1190 C 0.33246 0.9692 0.88777 0.0
C1191 C 0.32836 0.99361 0.88751 0.0
C1192 C 0.35217 0.94795 0.85356 0.0
C1193 C 0.30728 0.93797 0.86048 0.0
C1194 C 0.32837 0.05982 0.95352 0.0
C1195 C 0.33257 0.06044 0.97851 0.0
C1196 C 0.33854 0.03938 0.98926 0.0
C1197 C 0.3402 0.01798 0.9753 0.0
C1198 C 0.33576 0.0176 0.95031 0.0
C1199 C 0.3301 0.03835 0.93984 0.0
C1200 C 0.32577 0.03464 0.91312 0.0
C1201 C 0.32992 0.00825 0.90921 0.0
C1202 C 0.33563 0.99834 0.93102 0.0
C1203 C 0.34476 0.05064 0.90151 0.0
C1204 C 0.29942 0.03988 0.90645 0.0
H1205 H 0.3426 0.91206 0.88259 0.0
H1206 H 0.35129 0.91402 0.97133 0.0
H1207 H 0.30796 0.94642 0.96023 0.0
H1208 H 0.31616 0.9755 0.97288 0.0
H1209 H 0.32849 0.95026 0.98629 0.0
H1210 H 0.3841 0.9591 0.95648 0.0
H1211 H 0.37026 0.96028 0.98446 0.0
H1212 H 0.37338 0.98622 0.96712 0.0
H1213 H 0.31465 0.9599 0.81309 0.0
H1214 H 0.30381 0.03553 0.82005 0.0
H1215 H 0.31563 0.03687 0.86217 0.0
H1216 H 0.36374 0.96292 0.84743 0.0
H1217 H 0.34846 0.93443 0.83821 0.0
H1218 H 0.36335 0.9403 0.86771 0.0
H1219 H 0.29005 0.94665 0.8617 0.0
H1220 H 0.30771 0.92556 0.87495 0.0
H1221 H 0.3065 0.92736 0.84301 0.0
H1222 H 0.34969 0.87558 0.90187 0.0
C1223 C 0.34456 0.91317 0.90179 0.0
C1224 C 0.59537 0.66917 0.42156 0.0
C1225 C 0.60786 0.66759 0.4006 0.0
C1226 C 0.59533 0.6594 0.37876 0.0
C1227 C 0.55829 0.65559 0.39856 0.0
C1228 C 0.57067 0.66297 0.42013 0.0
C1229 C 0.55444 0.66415 0.44048 0.0
H1230 H 0.442 0.65584 0.47818 0.0
C1231 C 0.53274 0.65141 0.403 0.0
C1232 C 0.53035 0.65604 0.42757 0.0
H1233 H 0.50809 0.67865 0.51953 0.0
H1234 H 0.53054 0.66998 0.48514 0.0
H1235 H 0.45574 0.68348 0.43049 0.0
H1236 H 0.46092 0.61074 0.44989 0.0
H1237 H 0.45433 0.60951 0.41878 0.0
H1238 H 0.43308 0.62121 0.43865 0.0
H1239 H 0.43033 0.66367 0.43543 0.0
H1240 H 0.44294 0.66354 0.40687 0.0
C1241 C 0.55523 0.69052 0.45083 0.0
C1242 C 0.56249 0.64617 0.45874 0.0
C1243 C 0.47129 0.63444 0.33268 0.0
C1244 C 0.44624 0.62982 0.33087 0.0
C1245 C 0.43454 0.62624 0.35208 0.0
C1246 C 0.44714 0.62935 0.37459 0.0
C1247 C 0.47184 0.63573 0.37602 0.0
C1248 C 0.48366 0.63696 0.35525 0.0
C1249 C 0.51025 0.64174 0.36018 0.0
C1250 C 0.5122 0.64488 0.3873 0.0
C1251 C 0.4896 0.64166 0.3965 0.0
C1252 C 0.51803 0.66506 0.3485 0.0
C1253 C 0.52255 0.61927 0.35103 0.0
C1254 C 0.46133 0.65888 0.47978 0.0
C1255 C 0.47329 0.66776 0.50164 0.0
C1256 C 0.49847 0.67137 0.50306 0.0
C1257 C 0.51146 0.66658 0.48296 0.0
C1258 C 0.49919 0.65839 0.46107 0.0
C1259 C 0.47454 0.65443 0.45979 0.0
C1260 C 0.46446 0.64624 0.4349 0.0
C1261 C 0.48709 0.64636 0.42138 0.0
C1262 C 0.50737 0.65352 0.43681 0.0
C1263 C 0.44735 0.66505 0.42633 0.0
C1264 C 0.45239 0.62067 0.43544 0.0
H1265 H 0.56218 0.64765 0.36037 0.0
H1266 H 0.60446 0.67569 0.43855 0.0
H1267 H 0.56794 0.62951 0.44935 0.0
H1268 H 0.54802 0.64019 0.4699 0.0
H1269 H 0.57805 0.65391 0.47058 0.0
H1270 H 0.55781 0.70316 0.43654 0.0
H1271 H 0.57022 0.69446 0.46471 0.0
H1272 H 0.53834 0.69526 0.45843 0.0
H1273 H 0.48113 0.63689 0.31692 0.0
H1274 H 0.41555 0.62119 0.3514 0.0
H1275 H 0.43713 0.62702 0.39005 0.0
H1276 H 0.50463 0.67867 0.35093 0.0
H1277 H 0.51964 0.6616 0.32897 0.0
H1278 H 0.53509 0.67377 0.35655 0.0
H1279 H 0.51073 0.60271 0.35202 0.0
H1280 H 0.53884 0.61612 0.36222 0.0
H1281 H 0.52709 0.62044 0.33214 0.0
H1282 H 0.60466 0.65781 0.36245 0.0
C1283 C 0.57068 0.65338 0.37762 0.0
C1284 C 0.93716 0.33004 0.07695 0.0
C1285 C 0.96204 0.3354 0.07938 0.0
C1286 C 0.97363 0.34503 0.06025 0.0
C1287 C 0.93605 0.34188 0.03602 0.0
C1288 C 0.92456 0.33346 0.05521 0.0
C1289 C 0.89812 0.32822 0.04945 0.0
H1290 H 0.80359 0.31706 0.96747 0.0
C1291 C 0.9181 0.34184 0.01556 0.0
C1292 C 0.8958 0.33405 0.02336 0.0
H1293 H 0.80422 0.30646 0.04316 0.0
H1294 H 0.84647 0.31806 0.0478 0.0
H1295 H 0.83917 0.36712 0.97343 0.0
H1296 H 0.85092 0.29273 0.95819 0.0
H1297 H 0.8705 0.30922 0.94127 0.0
H1298 H 0.83857 0.31067 0.93571 0.0
H1299 H 0.82831 0.35057 0.94602 0.0
H1300 H 0.8581 0.36492 0.94961 0.0
C1301 C 0.88455 0.34543 0.06565 0.0
C1302 C 0.89211 0.30128 0.05249 0.0
C1303 C 0.94509 0.36065 0.93373 0.0
C1304 C 0.93335 0.35897 0.91071 0.0
C1305 C 0.90853 0.35259 0.90821 0.0
C1306 C 0.89569 0.34788 0.92826 0.0
C1307 C 0.90783 0.34915 0.95106 0.0
C1308 C 0.93212 0.35545 0.95348 0.0
C1309 C 0.9424 0.35443 0.97878 0.0
C1310 C 0.92023 0.34665 0.99121 0.0
C1311 C 0.90001 0.3437 0.97493 0.0
C1312 C 0.9525 0.37993 0.98799 0.0
C1313 C 0.96115 0.33524 0.97888 0.0
C1314 C 0.81287 0.31746 0.98504 0.0
C1315 C 0.80073 0.3105 0.00492 0.0
C1316 C 0.81335 0.31125 0.02751 0.0
C1317 C 0.83786 0.31811 0.03019 0.0
C1318 C 0.84995 0.32433 0.01006 0.0
C1319 C 0.83743 0.32427 0.98802 0.0
C1320 C 0.85333 0.33153 0.9687 0.0
C1321 C 0.87736 0.33617 0.98288 0.0
C1322 C 0.87526 0.33166 0.00703 0.0
C1323 C 0.84431 0.35467 0.95868 0.0
C1324 C 0.85333 0.31011 0.94981 0.0
H1325 H 0.97067 0.3553 0.02452 0.0
H1326 H 0.92776 0.32311 0.09161 0.0
H1327 H 0.90607 0.29029 0.04501 0.0
H1328 H 0.87513 0.29424 0.04284 0.0
H1329 H 0.8913 0.29777 0.0717 0.0
H1330 H 0.89555 0.36238 0.07092 0.0
H1331 H 0.87989 0.33714 0.08236 0.0
H1332 H 0.86809 0.35122 0.05642 0.0
H1333 H 0.96414 0.36544 0.93631 0.0
H1334 H 0.89912 0.35046 0.89067 0.0
H1335 H 0.87691 0.34291 0.92514 0.0
H1336 H 0.94121 0.39375 0.98069 0.0
H1337 H 0.97096 0.38364 0.98245 0.0
H1338 H 0.95248 0.383 0.00765 0.0
H1339 H 0.95551 0.32003 0.9656 0.0
H1340 H 0.96334 0.32693 0.99612 0.0
H1341 H 0.97887 0.34288 0.97419 0.0
H1342 H 0.99279 0.34938 0.06186 0.0
C1343 C 0.96078 0.3483 0.03858 0.0
C1344 C 0.16863 0.79831 0.59061 0.0
C1345 C 0.17791 0.80353 0.61438 0.0
C1346 C 0.16209 0.80622 0.63269 0.0
C1347 C 0.12826 0.79648 0.60396 0.0
C1348 C 0.14375 0.79511 0.58579 0.0
C1349 C 0.13062 0.78939 0.56163 0.0
H1350 H 0.02607 0.75836 0.49637 0.0
C1351 C 0.10367 0.79083 0.59331 0.0
C1352 C 0.10479 0.78713 0.56844 0.0
H1353 H 0.09683 0.76901 0.47086 0.0
H1354 H 0.1132 0.78022 0.51118 0.0
H1355 H 0.04315 0.73167 0.54428 0.0
H1356 H 0.02952 0.80493 0.53241 0.0
H1357 H 0.01926 0.79883 0.56049 0.0
H1358 H 0.00558 0.78237 0.53384 0.0
H1359 H 0.01396 0.74106 0.53578 0.0
H1360 H 0.02517 0.74255 0.56659 0.0
C1361 C 0.13886 0.76531 0.55112 0.0
C1362 C 0.13537 0.81082 0.54604 0.0
C1363 C 0.03636 0.77666 0.64798 0.0
C1364 C 0.0116 0.77089 0.64388 0.0
C1365 C 0.0014 0.76973 0.62012 0.0
C1366 C 0.01572 0.77337 0.60085 0.0
C1367 C 0.04055 0.77829 0.60531 0.0
C1368 C 0.05029 0.78068 0.62863 0.0
C1369 C 0.07673 0.78736 0.63021 0.0
C1370 C 0.08149 0.78744 0.60387 0.0
C1371 C 0.06033 0.78171 0.58934 0.0
C1372 C 0.08964 0.76746 0.64275 0.0
C1373 C 0.08121 0.81268 0.64321 0.0
C1374 C 0.04507 0.76325 0.49952 0.0
C1375 C 0.06026 0.76249 0.48052 0.0
C1376 C 0.08487 0.76898 0.48529 0.0
C1377 C 0.09431 0.77561 0.50869 0.0
C1378 C 0.079 0.77571 0.5276 0.0
C1379 C 0.05478 0.76981 0.52282 0.0
C1380 C 0.04124 0.7708 0.54514 0.0
C1381 C 0.06131 0.77836 0.5641 0.0
C1382 C 0.08341 0.78107 0.55372 0.0
C1383 C 0.0301 0.74529 0.54822 0.0
C1384 C 0.02277 0.79008 0.54296 0.0
H1385 H 0.12624 0.80436 0.64242 0.0
H1386 H 0.18051 0.79644 0.57621 0.0
H1387 H 0.13768 0.82802 0.55723 0.0
H1388 H 0.12022 0.81318 0.53301 0.0
H1389 H 0.15189 0.80894 0.53635 0.0
H1390 H 0.14062 0.75238 0.56528 0.0
H1391 H 0.15657 0.76787 0.54348 0.0
H1392 H 0.126 0.75627 0.53724 0.0
H1393 H 0.04504 0.77725 0.66582 0.0
H1394 H 0.98234 0.76567 0.61639 0.0
H1395 H 0.00695 0.77187 0.5832 0.0
H1396 H 0.08209 0.74945 0.63547 0.0
H1397 H 0.08744 0.7688 0.66232 0.0
H1398 H 0.10895 0.7678 0.64002 0.0
H1399 H 0.06484 0.82291 0.64237 0.0
H1400 H 0.09477 0.82398 0.63476 0.0
H1401 H 0.08687 0.81162 0.66243 0.0
H1402 H 0.16897 0.8102 0.6511 0.0
C1403 C 0.13733 0.8027 0.62762 0.0
C1404 C 0.5417 0.24016 0.99303 0.0
C1405 C 0.5667 0.23954 0.99304 0.0
C1406 C 0.57981 0.23438 0.01414 0.0
C1407 C 0.54317 0.23112 0.03486 0.0
C1408 C 0.53032 0.23571 0.01397 0.0
C1409 C 0.5038 0.23525 0.01686 0.0
H1410 H 0.41192 0.22279 0.08896 0.0
C1411 C 0.52599 0.2276 0.05349 0.0
C1412 C 0.50283 0.22969 0.04292 0.0
H1413 H 0.40787 0.23871 0.01456 0.0
H1414 H 0.45087 0.23648 0.01348 0.0
H1415 H 0.4511 0.1822 0.08478 0.0
H1416 H 0.4538 0.25752 0.10409 0.0
H1417 H 0.47724 0.24702 0.12174 0.0
H1418 H 0.44685 0.23578 0.12514 0.0
H1419 H 0.44109 0.19471 0.11234 0.0
H1420 H 0.47176 0.18747 0.10974 0.0
C1421 C 0.49133 0.21481 0.99975 0.0
C1422 C 0.49532 0.26043 0.01236 0.0
C1423 C 0.55574 0.21892 0.1402 0.0
C1424 C 0.54355 0.2172 0.16132 0.0
C1425 C 0.51832 0.2148 0.15958 0.0
C1426 C 0.5054 0.21497 0.1375 0.0
C1427 C 0.51771 0.21787 0.11675 0.0
C1428 C 0.54245 0.21936 0.11815 0.0
C1429 C 0.55222 0.22251 0.094 0.0
C1430 C 0.52922 0.22349 0.07822 0.0
C1431 C 0.50917 0.22078 0.09177 0.0
C1432 C 0.56596 0.20025 0.08712 0.0
C1433 C 0.56769 0.24649 0.09552 0.0
C1434 C 0.42026 0.22537 0.07232 0.0
C1435 C 0.40663 0.23083 0.05181 0.0
C1436 C 0.41814 0.2346 0.03062 0.0
C1437 C 0.44306 0.23328 0.03006 0.0
C1438 C 0.45657 0.22833 0.05099 0.0
C1439 C 0.44502 0.2244 0.07157 0.0
C1440 C 0.46205 0.22055 0.09247 0.0
C1441 C 0.48581 0.2225 0.08105 0.0
C1442 C 0.48259 0.22699 0.05677 0.0
C1443 C 0.45624 0.195 0.10051 0.0
C1444 C 0.45991 0.24107 0.11203 0.0
H1445 H 0.57912 0.2265 0.05061 0.0
H1446 H 0.53119 0.24387 0.97696 0.0
H1447 H 0.5091 0.27465 0.01955 0.0
H1448 H 0.47907 0.26444 0.02155 0.0
H1449 H 0.49196 0.26258 0.99291 0.0
H1450 H 0.50235 0.19899 0.99898 0.0
H1451 H 0.48867 0.22064 0.98126 0.0
H1452 H 0.47392 0.20804 0.00567 0.0
H1453 H 0.57511 0.2203 0.14085 0.0
H1454 H 0.50843 0.21364 0.17549 0.0
H1455 H 0.48627 0.21348 0.1376 0.0
H1456 H 0.558 0.18395 0.09471 0.0
H1457 H 0.58504 0.20271 0.09397 0.0
H1458 H 0.565 0.19582 0.06758 0.0
H1459 H 0.5586 0.26077 0.10538 0.0
H1460 H 0.57071 0.25326 0.07786 0.0
H1461 H 0.58535 0.24477 0.10517 0.0
H1462 H 0.59913 0.23399 0.01455 0.0
C1463 C 0.56818 0.23016 0.03505 0.0
C1464 C 0.38463 0.59506 0.65679 0.0
C1465 C 0.40415 0.61171 0.66257 0.0
C1466 C 0.42731 0.60367 0.66594 0.0
C1467 C 0.41122 0.56255 0.65813 0.0
C1468 C 0.38854 0.57065 0.6549 0.0
C1469 C 0.36958 0.55051 0.64999 0.0
H1470 H 0.33956 0.43185 0.63264 0.0
C1471 C 0.40896 0.5361 0.65503 0.0
C1472 C 0.38462 0.52898 0.65006 0.0
H1473 H 0.29258 0.49008 0.63777 0.0
H1474 H 0.32666 0.51857 0.64125 0.0
H1475 H 0.38235 0.45891 0.60254 0.0
H1476 H 0.37102 0.45053 0.67681 0.0
H1477 H 0.40199 0.45047 0.6743 0.0
H1478 H 0.3824 0.42719 0.65832 0.0
H1479 H 0.38266 0.43073 0.61606 0.0
H1480 H 0.4092 0.45072 0.61697 0.0
C1481 C 0.35701 0.55311 0.62505 0.0
C1482 C 0.35274 0.55109 0.6709 0.0
C1483 C 0.48241 0.48872 0.66739 0.0
C1484 C 0.48555 0.46408 0.66704 0.0
C1485 C 0.46593 0.44765 0.6601 0.0
C1486 C 0.44327 0.45567 0.65419 0.0
C1487 C 0.44015 0.48038 0.65549 0.0
C1488 C 0.45961 0.49645 0.66173 0.0
C1489 C 0.45287 0.522 0.66262 0.0
C1490 C 0.4261 0.51859 0.65634 0.0
C1491 C 0.41875 0.49419 0.65213 0.0
C1492 C 0.46613 0.53499 0.64323 0.0
C1493 C 0.4587 0.53313 0.68851 0.0
C1494 C 0.33648 0.45069 0.63485 0.0
C1495 C 0.31311 0.45849 0.63546 0.0
C1496 C 0.31022 0.48335 0.63724 0.0
C1497 C 0.33011 0.49996 0.63963 0.0
C1498 C 0.35326 0.49176 0.64074 0.0
C1499 C 0.35618 0.46749 0.6382 0.0
C1500 C 0.38205 0.46198 0.64183 0.0
C1501 C 0.39413 0.48699 0.64678 0.0
C1502 C 0.37718 0.50433 0.64587 0.0
C1503 C 0.3896 0.44979 0.61822 0.0
C1504 C 0.38468 0.44662 0.6638 0.0
H1505 H 0.44903 0.57407 0.66635 0.0
H1506 H 0.36662 0.6009 0.65444 0.0
H1507 H 0.36262 0.55798 0.68804 0.0
H1508 H 0.34517 0.53312 0.67456 0.0
H1509 H 0.33788 0.56288 0.66747 0.0
H1510 H 0.36985 0.56027 0.6125 0.0
H1511 H 0.34241 0.56555 0.62619 0.0
H1512 H 0.34979 0.53572 0.61641 0.0
H1513 H 0.49723 0.5017 0.67273 0.0
H1514 H 0.46814 0.42857 0.65941 0.0
H1515 H 0.42898 0.44232 0.64918 0.0
H1516 H 0.46757 0.52272 0.62708 0.0
H1517 H 0.48458 0.54153 0.65 0.0
H1518 H 0.45657 0.55013 0.63659 0.0
H1519 H 0.45497 0.51972 0.70182 0.0
H1520 H 0.44756 0.54803 0.69321 0.0
H1521 H 0.47788 0.53953 0.69141 0.0
H1522 H 0.44252 0.6164 0.67049 0.0
C1523 C 0.43099 0.57915 0.66356 0.0
C1524 C 0.97664 0.82355 0.32337 0.0
C1525 C 0.99733 0.81265 0.31668 0.0
C1526 C 0.01918 0.82655 0.31725 0.0
C1527 C 0.99928 0.86209 0.32896 0.0
C1528 C 0.978 0.84829 0.32932 0.0
C1529 C 0.95756 0.86316 0.33565 0.0
H1530 H 0.91605 0.9732 0.35372 0.0
C1531 C 0.99442 0.88733 0.3344 0.0
C1532 C 0.97003 0.88816 0.33845 0.0
H1533 H 0.87682 0.90453 0.35573 0.0
H1534 H 0.9129 0.88438 0.34903 0.0
H1535 H 0.9609 0.95955 0.38684 0.0
H1536 H 0.94789 0.95934 0.31038 0.0
H1537 H 0.97708 0.97205 0.31786 0.0
H1538 H 0.95202 0.98631 0.32961 0.0
H1539 H 0.96266 0.98663 0.37146 0.0
H1540 H 0.98819 0.96885 0.37553 0.0
C1541 C 0.9484 0.85518 0.35958 0.0
C1542 C 0.93842 0.8604 0.31434 0.0
C1543 C 0.06098 0.95225 0.33002 0.0
C1544 C 0.0617 0.97737 0.33246 0.0
C1545 C 0.04097 0.98864 0.33856 0.0
C1546 C 0.01961 0.97507 0.3415 0.0
C1547 C 0.01899 0.94995 0.33835 0.0
C1548 C 0.03954 0.93898 0.33296 0.0
C1549 C 0.03559 0.91218 0.33013 0.0
C1550 C 0.00927 0.90883 0.33479 0.0
C1551 C 0.99962 0.93098 0.33945 0.0
C1552 C 0.05177 0.90147 0.3496 0.0
C1553 C 0.0404 0.90405 0.30401 0.0
C1554 C 0.91525 0.95384 0.35322 0.0
C1555 C 0.89353 0.94048 0.35544 0.0
C1556 C 0.89328 0.91525 0.35395 0.0
C1557 C 0.91426 0.90358 0.35012 0.0
C1558 C 0.93576 0.91725 0.3477 0.0
C1559 C 0.93605 0.94195 0.34968 0.0
C1560 C 0.96059 0.95365 0.34746 0.0
C1561 C 0.97496 0.93191 0.34348 0.0
C1562 C 0.9603 0.91061 0.34331 0.0
C1563 C 0.96861 0.96811 0.37142 0.0
C1564 C 0.95951 0.96881 0.3253 0.0
H1565 H 0.0374 0.86079 0.32316 0.0
H1566 H 0.95964 0.81319 0.32313 0.0
H1567 H 0.94706 0.861 0.29704 0.0
H1568 H 0.92607 0.87492 0.31433 0.0
H1569 H 0.92772 0.84302 0.31414 0.0
H1570 H 0.96326 0.84921 0.37138 0.0
H1571 H 0.9346 0.84001 0.35646 0.0
H1572 H 0.94106 0.86991 0.37024 0.0
H1573 H 0.07678 0.9431 0.32579 0.0
H1574 H 0.04119 0.00799 0.34056 0.0
H1575 H 0.00434 0.98469 0.3458 0.0
H1576 H 0.05374 0.91338 0.36635 0.0
H1577 H 0.07 0.89917 0.34351 0.0
H1578 H 0.0442 0.88417 0.35514 0.0
H1579 H 0.03468 0.91745 0.29137 0.0
H1580 H 0.03014 0.88726 0.29735 0.0
H1581 H 0.05977 0.90191 0.30215 0.0
H1582 H 0.0354 0.81836 0.31261 0.0
C1583 C 0.02028 0.85116 0.32341 0.0
C1584 C 0.62779 0.02959 0.77056 0.0
C1585 C 0.65226 0.0373 0.77095 0.0
C1586 C 0.65922 0.06146 0.778 0.0
C1587 C 0.6179 0.06995 0.78246 0.0
C1588 C 0.61096 0.04626 0.77591 0.0
C1589 C 0.58409 0.04175 0.77384 0.0
H1590 H 0.47468 0.08687 0.77377 0.0
C1591 C 0.59611 0.08298 0.78542 0.0
C1592 C 0.57617 0.06667 0.78022 0.0
H1593 H 0.49114 0.01352 0.75817 0.0
H1594 H 0.53325 0.02436 0.76752 0.0
H1595 H 0.51233 0.09661 0.82077 0.0
H1596 H 0.51726 0.11083 0.74654 0.0
H1597 H 0.53017 0.13601 0.76403 0.0
H1598 H 0.49891 0.12722 0.76594 0.0
H1599 H 0.49654 0.11969 0.80722 0.0
H1600 H 0.52698 0.12514 0.81976 0.0
C1601 C 0.57704 0.02387 0.79253 0.0
C1602 C 0.57638 0.03299 0.74755 0.0
C1603 C 0.60463 0.17231 0.80713 0.0
C1604 C 0.58809 0.18996 0.80882 0.0
C1605 C 0.5634 0.18315 0.80608 0.0
C1606 C 0.55534 0.15901 0.80116 0.0
C1607 C 0.57218 0.14159 0.79868 0.0
C1608 C 0.59635 0.14842 0.80188 0.0
C1609 C 0.61178 0.1279 0.79747 0.0
C1610 C 0.59293 0.10746 0.79147 0.0
C1611 C 0.56977 0.11551 0.79213 0.0
C1612 C 0.62675 0.12457 0.82106 0.0
C1613 C 0.62683 0.13319 0.77583 0.0
C1614 C 0.48741 0.07321 0.7722 0.0
C1615 C 0.47968 0.0494 0.76483 0.0
C1616 C 0.49671 0.03199 0.76371 0.0
C1617 C 0.52115 0.03836 0.76899 0.0
C1618 C 0.52871 0.06241 0.77542 0.0
C1619 C 0.51189 0.0793 0.77734 0.0
C1620 C 0.52315 0.10394 0.78468 0.0
C1621 C 0.54952 0.09915 0.78645 0.0
C1622 C 0.55269 0.0748 0.78084 0.0
C1623 C 0.51427 0.11201 0.80931 0.0
C1624 C 0.51703 0.12057 0.76443 0.0
H1625 H 0.64884 0.09579 0.78893 0.0
H1626 H 0.62174 0.01109 0.76581 0.0
H1627 H 0.58766 0.04235 0.73492 0.0
H1628 H 0.55788 0.03689 0.74205 0.0
H1629 H 0.57829 0.01347 0.74444 0.0
H1630 H 0.58864 0.02736 0.80939 0.0
H1631 H 0.57904 0.00513 0.78572 0.0
H1632 H 0.55859 0.02549 0.79795 0.0
H1633 H 0.62371 0.17716 0.80871 0.0
H1634 H 0.55039 0.19657 0.80737 0.0
H1635 H 0.53634 0.15491 0.79896 0.0
H1636 H 0.61568 0.12685 0.83672 0.0
H1637 H 0.64227 0.138 0.82372 0.0
H1638 H 0.63331 0.10648 0.8219 0.0
H1639 H 0.61804 0.14561 0.76389 0.0
H1640 H 0.62884 0.117 0.764 0.0
H1641 H 0.64487 0.14156 0.78186 0.0
H1642 H 0.67779 0.06811 0.77824 0.0
C1643 C 0.64227 0.07768 0.78396 0.0
C1644 C 0.14826 0.55315 0.22642 0.0
C1645 C 0.16966 0.54255 0.22128 0.0
C1646 C 0.16837 0.51848 0.21211 0.0
C1647 C 0.12569 0.51509 0.21649 0.0
C1648 C 0.12649 0.53918 0.22353 0.0
C1649 C 0.10197 0.54738 0.22797 0.0
H1650 H 0.984 0.5188 0.2389 0.0
C1651 C 0.10094 0.50497 0.21787 0.0
C1652 C 0.08676 0.52384 0.22405 0.0
H1653 H 0.02047 0.58931 0.2424 0.0
H1654 H 0.05779 0.57182 0.23484 0.0
H1655 H 0.01075 0.49577 0.19327 0.0
H1656 H 0.02365 0.49566 0.2697 0.0
H1657 H 0.03257 0.46821 0.25785 0.0
H1658 H 0.00164 0.47516 0.25354 0.0
H1659 H 0.99094 0.48088 0.21238 0.0
H1660 H 0.01591 0.46636 0.2008 0.0
C1661 C 0.09532 0.56526 0.20902 0.0
C1662 C 0.10228 0.55789 0.25419 0.0
C1663 C 0.08534 0.4148 0.215 0.0
C1664 C 0.06555 0.39999 0.22028 0.0
C1665 C 0.04379 0.41019 0.22457 0.0
C1666 C 0.04194 0.435 0.22405 0.0
C1667 C 0.06221 0.44975 0.21967 0.0
C1668 C 0.08339 0.43953 0.21506 0.0
C1669 C 0.10356 0.45793 0.21249 0.0
C1670 C 0.09109 0.48094 0.21652 0.0
C1671 C 0.06687 0.47607 0.22058 0.0
C1672 C 0.11192 0.45475 0.18671 0.0
C1673 C 0.12327 0.45493 0.23256 0.0
C1674 C 1.00005 0.53044 0.23801 0.0
C1675 C 0.99925 0.55546 0.2409 0.0
C1676 C 0.02053 0.57002 0.2397 0.0
C1677 C 0.04219 0.55983 0.23541 0.0
C1678 C 0.04265 0.53481 0.2324 0.0
C1679 C 0.02181 0.52055 0.2337 0.0
C1680 C 0.02576 0.4943 0.23032 0.0
C1681 C 0.05219 0.49521 0.22576 0.0
C1682 C 0.06205 0.51897 0.22731 0.0
C1683 C 0.00996 0.48356 0.20812 0.0
C1684 C 0.02053 0.48253 0.25391 0.0
H1685 H 0.14691 0.48638 0.2032 0.0
H1686 H 0.1485 0.57158 0.23348 0.0
H1687 H 0.11149 0.54609 0.2665 0.0
H1688 H 0.08419 0.5594 0.26056 0.0
H1689 H 0.11195 0.57588 0.25638 0.0
H1690 H 0.10497 0.56217 0.19248 0.0
H1691 H 0.09996 0.58406 0.21599 0.0
H1692 H 0.07613 0.56321 0.20281 0.0
H1693 H 0.1024 0.40739 0.21216 0.0
H1694 H 0.02837 0.39898 0.22878 0.0
H1695 H 0.02498 0.44179 0.22766 0.0
H1696 H 0.09726 0.44649 0.17394 0.0
H1697 H 0.12714 0.44304 0.18597 0.0
H1698 H 0.11708 0.47206 0.17938 0.0
H1699 H 0.11514 0.45206 0.24983 0.0
H1700 H 0.13592 0.47074 0.23627 0.0
H1701 H 0.13368 0.43923 0.22812 0.0
H1702 H 0.18443 0.51004 0.20738 0.0
C1703 C 0.14656 0.50474 0.20967 0.0
C1704 C 0.23406 0.55524 0.24616 0.0
C1705 C 0.23895 0.57955 0.24242 0.0
C1706 C 0.21176 0.54354 0.23899 0.0
C1707 C 0.19346 0.55552 0.22742 0.0
H1708 H 0.24729 0.54527 0.25541 0.0
H1709 H 0.20867 0.52505 0.24316 0.0
S1710 S 0.198 0.61872 0.21125 0.0
N1711 N 0.22415 0.61502 0.22531 0.0
N1712 N 0.1824 0.59272 0.21102 0.0
C1713 C 0.19835 0.57967 0.22286 0.0
C1714 C 0.22105 0.59173 0.23051 0.0
C1715 C 0.24883 0.43131 0.62723 0.0
C1716 C 0.24918 0.41159 0.64148 0.0
C1717 C 0.26971 0.44571 0.62456 0.0
C1718 C 0.29184 0.44111 0.63613 0.0
H1719 H 0.23214 0.4361 0.61858 0.0
H1720 H 0.26831 0.46088 0.61369 0.0
S1721 S 0.30234 0.39114 0.67523 0.0
N1722 N 0.27362 0.38748 0.66652 0.0
N1723 N 0.31262 0.41498 0.66235 0.0
C1724 C 0.29255 0.42087 0.64979 0.0
C1725 C 0.27131 0.406 0.65221 0.0
C1726 C 0.71217 0.00963 0.76618 0.0
C1727 C 0.70819 0.99391 0.74565 0.0
C1728 C 0.69364 0.02261 0.77491 0.0
C1729 C 0.67061 0.02094 0.763 0.0
H1730 H 0.72977 0.01201 0.77549 0.0
H1731 H 0.69757 0.03441 0.79091 0.0
S1732 S 0.65161 0.98272 0.70764 0.0
N1733 N 0.67979 0.97699 0.71366 0.0
N1734 N 0.64529 0.00246 0.72902 0.0
C1735 C 0.66644 0.005 0.74247 0.0
C1736 C 0.68517 0.99128 0.73402 0.0
C1737 C 0.82911 0.95682 0.34502 0.0
C1738 C 0.82836 0.97798 0.35974 0.0
C1739 C 0.85008 0.94455 0.34413 0.0
C1740 C 0.87104 0.9528 0.35814 0.0
H1741 H 0.81359 0.95002 0.33353 0.0
H1742 H 0.85005 0.92886 0.33183 0.0
S1743 S 0.8774 0.00557 0.40206 0.0
N1744 N 0.84977 0.00568 0.39 0.0
N1745 N 0.88895 0.98218 0.38897 0.0
C1746 C 0.87018 0.97338 0.37373 0.0
C1747 C 0.84892 0.98606 0.37438 0.0
C1748 C 0.25977 0.21441 0.56685 0.0
C1749 C 0.25622 0.22205 0.59061 0.0
C1750 C 0.25358 0.19081 0.55805 0.0
C1751 C 0.24307 0.1739 0.57247 0.0
H1752 H 0.2683 0.2265 0.55515 0.0
H1753 H 0.2578 0.18565 0.53994 0.0
S1754 S 0.2275 0.18577 0.63529 0.0
N1755 N 0.24036 0.21142 0.62814 0.0
N1756 N 0.22758 0.1672 0.61124 0.0
C1757 C 0.23854 0.1816 0.59605 0.0
C1758 C 0.24534 0.20562 0.60518 0.0
C1759 C 0.33943 0.82754 0.95412 0.0
C1760 C 0.35467 0.82619 0.97483 0.0
C1761 C 0.33891 0.84862 0.942 0.0
C1762 C 0.35381 0.86909 0.94996 0.0
H1763 H 0.32715 0.81249 0.94768 0.0
H1764 H 0.32613 0.84912 0.92676 0.0
S1765 S 0.39943 0.87364 0.00127 0.0
N1766 N 0.38648 0.84641 0.00161 0.0
N1767 N 0.38608 0.88577 0.97837 0.0
C1768 C 0.37001 0.86756 0.96995 0.0
C1769 C 0.3703 0.84618 0.98249 0.0
C1770 C 0.65609 0.25905 0.41311 0.0
C1771 C 0.66919 0.25599 0.39273 0.0
C1772 C 0.65048 0.28178 0.42183 0.0
C1773 C 0.6577 0.30263 0.41064 0.0
H1774 H 0.65023 0.24377 0.42264 0.0
H1775 H 0.64009 0.28284 0.43743 0.0
S1776 S 0.6931 0.30439 0.35685 0.0
N1777 N 0.68927 0.27566 0.36137 0.0
N1778 N 0.67946 0.3185 0.37822 0.0
C1779 C 0.67071 0.29979 0.39005 0.0
C1780 C 0.67624 0.2765 0.381 0.0
C1781 C 0.74827 0.71421 0.02158 0.0
C1782 C 0.75043 0.71457 0.99674 0.0
C1783 C 0.7559 0.69512 0.03435 0.0
C1784 C 0.76609 0.6756 0.02285 0.0
H1785 H 0.74013 0.72855 0.03127 0.0
H1786 H 0.75321 0.69539 0.05332 0.0
S1787 S 0.7777 0.66858 0.95851 0.0
N1788 N 0.76472 0.69414 0.9613 0.0
N1789 N 0.77935 0.65841 0.98551 0.0
C1790 C 0.76898 0.67595 0.99816 0.0
C1791 C 0.76113 0.6954 0.98507 0.0
C1792 C 0.55709 0.20928 0.2273 0.0
C1793 C 0.57362 0.22869 0.23445 0.0
C1794 C 0.54881 0.20464 0.20327 0.0
C1795 C 0.55639 0.21949 0.18548 0.0
H1796 H 0.54997 0.19795 0.24047 0.0
H1797 H 0.53559 0.18985 0.19873 0.0
S1798 S 0.6004 0.27206 0.19478 0.0
N1799 N 0.59844 0.26204 0.22168 0.0
N1800 N 0.58219 0.25388 0.17662 0.0
C1801 C 0.5738 0.23829 0.19222 0.0
C1802 C 0.58255 0.24279 0.21669 0.0
C1803 C 0.98291 0.35389 0.86787 0.0
C1804 C 0.97471 0.3663 0.84829 0.0
C1805 C 0.96946 0.35174 0.8879 0.0
C1806 C 0.94738 0.3622 0.88935 0.0
H1807 H 0.99964 0.34525 0.86754 0.0
H1808 H 0.97626 0.34137 0.90218 0.0
S1809 S 0.91896 0.39848 0.84372 0.0
N1810 N 0.94362 0.39013 0.83194 0.0
N1811 N 0.91869 0.38681 0.87001 0.0
C1812 C 0.93923 0.37519 0.87012 0.0
C1813 C 0.95281 0.37709 0.84952 0.0
C1814 C 0.43171 0.62305 0.26336 0.0
C1815 C 0.41005 0.63417 0.26039 0.0
C1816 C 0.44266 0.62075 0.28619 0.0
C1817 C 0.4326 0.62976 0.30706 0.0
H1818 H 0.44059 0.61649 0.2479 0.0
H1819 H 0.45938 0.61212 0.28738 0.0
S1820 S 0.37541 0.65978 0.30894 0.0
N1821 N 0.37814 0.65312 0.28021 0.0
N1822 N 0.39919 0.64991 0.32299 0.0
C1823 C 0.41043 0.64018 0.30432 0.0
C1824 C 0.39906 0.6421 0.28104 0.0
C1825 C 0.96819 0.73568 0.68003 0.0
C1826 C 0.97287 0.74641 0.7033 0.0
C1827 C 0.9802 0.74423 0.6608 0.0
C1828 C 0.99696 0.76417 0.66402 0.0
H1829 H 0.95599 0.71987 0.67684 0.0
H1830 H 0.977 0.73447 0.64348 0.0
S1831 S 0.01222 0.801 0.72102 0.0
N1832 N 0.99355 0.77913 0.72835 0.0
N1833 N 0.01505 0.79627 0.692 0.0
C1834 C 0.00054 0.77598 0.68705 0.0
C1835 C 0.98877 0.76683 0.70674 0.0
C1836 C 0.79381 0.36593 0.69936 0.0
C1837 C 0.78126 0.37484 0.71861 0.0
C1838 C 0.818 0.3731 0.69736 0.0
C1839 C 0.83053 0.38926 0.71464 0.0
H1840 H 0.78464 0.35417 0.68516 0.0
H1841 H 0.8266 0.36676 0.68163 0.0
S1842 S 0.80701 0.41456 0.77052 0.0
N1843 N 0.7839 0.39863 0.75657 0.0
N1844 N 0.82947 0.41155 0.75315 0.0
C1845 C 0.81861 0.39705 0.73476 0.0
C1846 C 0.79395 0.38998 0.73665 0.0
C1847 C 0.71428 0.57578 0.34397 0.0
C1848 C 0.71621 0.60091 0.34489 0.0
C1849 C 0.69238 0.56313 0.34638 0.0
C1850 C 0.67144 0.575 0.3505 0.0
H1851 H 0.72973 0.56567 0.34074 0.0
H1852 H 0.6919 0.54377 0.34447 0.0
S1853 S 0.66729 0.64091 0.35558 0.0
N1854 N 0.69544 0.63742 0.35 0.0
N1855 N 0.65461 0.61371 0.3567 0.0
C1856 C 0.67327 0.60025 0.35202 0.0
C1857 C 0.69553 0.61316 0.34872 0.0
C1858 C 0.34525 0.04333 0.23478 0.0
C1859 C 0.32359 0.03679 0.24472 0.0
C1860 C 0.36316 0.02715 0.23265 0.0
C1861 C 0.36026 0.00394 0.24075 0.0
H1862 H 0.34835 0.06107 0.22852 0.0
H1863 H 0.37944 0.03288 0.2246 0.0
S1864 S 0.30749 0.97881 0.26992 0.0
N1865 N 0.30042 0.00588 0.26339 0.0
N1866 N 0.33443 0.9758 0.26034 0.0
C1867 C 0.33872 0.9973 0.25096 0.0
C1868 C 0.32032 0.01364 0.25273 0.0
C1869 C 0.15549 0.03964 0.66493 0.0
C1870 C 0.17799 0.04803 0.67585 0.0
C1871 C 0.13488 0.0518 0.66909 0.0
C1872 C 0.13591 0.07267 0.68458 0.0
H1873 H 0.15379 0.02364 0.6529 0.0
H1874 H 0.11803 0.04486 0.65996 0.0
S1875 S 0.19022 0.10082 0.71921 0.0
N1876 N 0.19996 0.07795 0.70352 0.0
N1877 N 0.16118 0.1003 0.712 0.0
C1878 C 0.15828 0.08101 0.69591 0.0
C1879 C 0.1793 0.06883 0.69139 0.0
C1880 C 0.74437 0.8134 0.36891 0.0
C1881 C 0.76182 0.80102 0.38131 0.0
C1882 C 0.74179 0.83777 0.3746 0.0
C1883 C 0.7567 0.85062 0.39273 0.0
H1884 H 0.7317 0.80392 0.35568 0.0
H1885 H 0.72717 0.84623 0.36569 0.0
S1886 S 0.80811 0.82773 0.42714 0.0
N1887 N 0.79622 0.80423 0.41028 0.0
N1888 N 0.79169 0.85014 0.42056 0.0
C1889 C 0.77544 0.83894 0.40385 0.0
C1890 C 0.77792 0.81411 0.39824 0.0
C1891 C 0.65099 0.1691 0.04731 0.0
C1892 C 0.66238 0.17365 0.02627 0.0
C1893 C 0.65588 0.14905 0.0601 0.0
C1894 C 0.67255 0.13293 0.05246 0.0
H1895 H 0.63809 0.18106 0.05391 0.0
H1896 H 0.64643 0.1461 0.07602 0.0
S1897 S 0.70871 0.13793 0.99956 0.0
N1898 N 0.69172 0.16089 0.99885 0.0
N1899 N 0.70149 0.12375 0.02325 0.0
C1900 C 0.68431 0.1375 0.03161 0.0
C1901 C 0.67909 0.1577 0.01843 0.0
C1902 C 0.32801 0.68537 0.64664 0.0
C1903 C 0.32147 0.70646 0.63645 0.0
C1904 C 0.32491 0.66315 0.63339 0.0
C1905 C 0.31426 0.66117 0.60983 0.0
H1906 H 0.33599 0.68611 0.66478 0.0
H1907 H 0.33116 0.64751 0.64158 0.0
S1908 S 0.28907 0.71069 0.57735 0.0
N1909 N 0.30149 0.72379 0.60268 0.0
N1910 N 0.29373 0.68203 0.57854 0.0
C1911 C 0.30616 0.68207 0.60017 0.0
C1912 C 0.31019 0.70469 0.6133 0.0
C1913 C 0.25008 0.34512 0.04185 0.0
C1914 C 0.23744 0.32274 0.04262 0.0
C1915 C 0.24438 0.36059 0.02403 0.0
C1916 C 0.22563 0.35442 0.00641 0.0
H1917 H 0.26505 0.35047 0.05464 0.0
H1918 H 0.25526 0.37721 0.02366 0.0
S1919 S 0.18514 0.29915 0.00223 0.0
N1920 N 0.20423 0.29587 0.02525 0.0
N1921 N 0.19306 0.32532 0.99212 0.0
C1922 C 0.2122 0.33252 0.00755 0.0
C1923 C 0.21819 0.31661 0.02557 0.0
C1924 C 0.4084 0.74854 0.78954 0.0
C1925 C 0.38612 0.75772 0.78409 0.0
C1926 C 0.41576 0.74408 0.81302 0.0
C1927 C 0.40138 0.74909 0.83219 0.0
H1928 H 0.41998 0.744 0.77542 0.0
H1929 H 0.43271 0.73614 0.81604 0.0
S1930 S 0.34227 0.77538 0.82758 0.0
N1931 N 0.35002 0.77255 0.79966 0.0
N1932 N 0.36436 0.7653 0.84417 0.0
C1933 C 0.37928 0.75892 0.82706 0.0
C1934 C 0.37155 0.76299 0.80295 0.0
C1935 C 0.0324 0.66378 0.16541 0.0
C1936 C 0.01121 0.67385 0.17198 0.0
C1937 C 0.04158 0.6675 0.14315 0.0
C1938 C 0.03006 0.68163 0.12665 0.0
H1939 H 0.04193 0.65281 0.17751 0.0
H1940 H 0.05777 0.65912 0.13877 0.0
S1941 S 0.97498 0.71349 0.13591 0.0
N1942 N 0.97937 0.6992 0.16048 0.0
N1943 N 0.99699 0.70677 0.11902 0.0
C1944 C 0.00899 0.69202 0.13312 0.0
C1945 C 0.99949 0.688 0.15567 0.0
C1946 C 0.6413 0.31889 0.69025 0.0
C1947 C 0.63411 0.33347 0.70955 0.0
C1948 C 0.62703 0.31501 0.6687 0.0
C1949 C 0.60503 0.32552 0.66568 0.0
H1950 H 0.65745 0.30937 0.69219 0.0
H1951 H 0.63262 0.30259 0.65488 0.0
S1952 S 0.58009 0.3685 0.70891 0.0
N1953 N 0.605 0.36095 0.72287 0.0
N1954 N 0.57835 0.35368 0.68246 0.0
C1955 C 0.59858 0.34158 0.6841 0.0
C1956 C 0.61311 0.34561 0.70596 0.0
C1957 C 0.0512 0.2292 0.32841 0.0
C1958 C 0.06759 0.24935 0.32973 0.0
C1959 C 0.03422 0.2265 0.34548 0.0
C1960 C 0.03272 0.24403 0.36434 0.0
H1961 H 0.05129 0.21552 0.31389 0.0
H1962 H 0.02187 0.21074 0.34364 0.0
S1963 S 0.07127 0.30045 0.37548 0.0
N1964 N 0.08152 0.28701 0.35155 0.0
N1965 N 0.04903 0.28242 0.38311 0.0
C1966 C 0.04929 0.2641 0.36609 0.0
C1967 C 0.06685 0.26664 0.3489 0.0
C1968 C 0.30644 0.5675 0.36447 0.0
C1969 C 0.2977 0.58696 0.35266 0.0
C1970 C 0.30393 0.56539 0.38894 0.0
C1971 C 0.29251 0.5826 0.40258 0.0
H1972 H 0.31602 0.55413 0.35494 0.0
H1973 H 0.31177 0.55063 0.39741 0.0
S1974 S 0.26371 0.63522 0.37982 0.0
N1975 N 0.27535 0.62268 0.3562 0.0
N1976 N 0.27033 0.61845 0.40215 0.0
C1977 C 0.2827 0.60152 0.39084 0.0
C1978 C 0.28536 0.60376 0.36592 0.0
C1979 C 0.17955 0.38288 0.77072 0.0
C1980 C 0.19208 0.3914 0.75168 0.0
C1981 C 0.18446 0.39282 0.79419 0.0
C1982 C 0.20225 0.41156 0.79964 0.0
H1983 H 0.1654 0.36876 0.76743 0.0
H1984 H 0.17391 0.38603 0.80812 0.0
S1985 S 0.24181 0.43881 0.7567 0.0
N1986 N 0.224 0.41887 0.74008 0.0
N1987 N 0.23358 0.43715 0.78433 0.0
C1988 C 0.21536 0.41985 0.7809 0.0
C1989 C 0.21023 0.40986 0.75692 0.0
C1990 C 0.76042 0.98798 0.61327 0.0
C1991 C 0.75117 0.97254 0.62982 0.0
C1992 C 0.75355 0.98462 0.58877 0.0
C1993 C 0.73718 0.96567 0.57985 0.0
H1994 H 0.77368 0.00241 0.6191 0.0
H1995 H 0.76189 0.99633 0.57661 0.0
S1996 S 0.70526 0.92203 0.61563 0.0
N1997 N 0.72297 0.93882 0.63553 0.0
N1998 N 0.71013 0.93265 0.58945 0.0
C1999 C 0.72687 0.95081 0.59621 0.0
C2000 C 0.73382 0.95421 0.62118 0.0
C2001 C 0.71234 0.00242 0.26787 0.0
C2002 C 0.72731 0.02057 0.28064 0.0
C2003 C 0.70791 0.00235 0.24301 0.0
C2004 C 0.71846 0.02029 0.22986 0.0
H2005 H 0.70485 0.9875 0.2769 0.0
H2006 H 0.6965 0.9878 0.23393 0.0
S2007 S 0.75909 0.07188 0.2548 0.0
N2008 N 0.75242 0.0572 0.27838 0.0
N2009 N 0.74455 0.05677 0.23151 0.0
C2010 C 0.73319 0.03877 0.24243 0.0
C2011 C 0.73762 0.03888 0.26781 0.0
C2012 C 0.37519 0.27577 0.5901 0.0
C2013 C 0.36036 0.29006 0.57668 0.0
C2014 C 0.39862 0.27216 0.58401 0.0
C2015 C 0.40816 0.28268 0.56425 0.0
H2016 H 0.36882 0.26751 0.60565 0.0
H2017 H 0.40949 0.2613 0.59506 0.0
S2018 S 0.37698 0.3217 0.5232 0.0
N2019 N 0.357 0.31456 0.54238 0.0
N2020 N 0.4011 0.30802 0.53131 0.0
C2021 C 0.39345 0.29662 0.55039 0.0
C2022 C 0.36956 0.30026 0.55652 0.0
C2023 C 0.25951 0.71608 0.03773 0.0
C2024 C 0.26897 0.73682 0.02788 0.0
C2025 C 0.23493 0.71265 0.0409 0.0
C2026 C 0.21897 0.72976 0.03415 0.0
H2027 H 0.27117 0.70245 0.04314 0.0
H2028 H 0.22828 0.69625 0.04816 0.0
S2029 S 0.23482 0.7877 0.00884 0.0
N2030 N 0.26057 0.77516 0.01239 0.0
N2031 N 0.21441 0.76864 0.01829 0.0
C2032 C 0.22827 0.75081 0.02485 0.0
C2033 C 0.25327 0.7544 0.02181 0.0
C2034 C 0.79441 0.22096 0.37988 0.0
C2035 C 0.77805 0.206 0.39103 0.0
C2036 C 0.81698 0.22825 0.39108 0.0
C2037 C 0.82413 0.22071 0.41376 0.0
H2038 H 0.78969 0.22727 0.36246 0.0
H2039 H 0.8289 0.23998 0.38192 0.0
S2040 S 0.78862 0.18003 0.44976 0.0
N2041 N 0.77089 0.18319 0.42569 0.0
N2042 N 0.8135 0.19649 0.44643 0.0
C2043 C 0.80804 0.20556 0.425 0.0
C2044 C 0.78498 0.19829 0.4137 0.0
C2045 C 0.62813 0.7414 0.94427 0.0
C2046 C 0.63667 0.75331 0.96631 0.0
C2047 C 0.60367 0.73516 0.93911 0.0
C2048 C 0.58676 0.7405 0.95579 0.0
H2049 H 0.64034 0.73726 0.93063 0.0
H2050 H 0.59789 0.72634 0.92177 0.0
S2051 S 0.59953 0.77102 0.0163 0.0
N2052 N 0.62604 0.76959 0.00528 0.0
N2053 N 0.58012 0.75814 0.9953 0.0
C2054 C 0.59501 0.75182 0.97812 0.0
C2055 C 0.61993 0.75815 0.98343 0.0
C2056 C 0.56129 0.34047 0.31899 0.0
C2057 C 0.5835 0.33496 0.3104 0.0
C2058 C 0.55484 0.36419 0.32157 0.0
C2059 C 0.57032 0.38326 0.31558 0.0
H2060 H 0.5491 0.32646 0.32459 0.0
H2061 H 0.53794 0.36768 0.32901 0.0
S2062 S 0.62904 0.37823 0.28929 0.0
N2063 N 0.62007 0.35042 0.29399 0.0
N2064 N 0.60771 0.39491 0.29838 0.0
C2065 C 0.59206 0.37792 0.30591 0.0
C2066 C 0.5987 0.35381 0.30343 0.0
C2067 C 0.99498 0.27991 0.72714 0.0
C2068 C 0.01319 0.29197 0.7426 0.0
C2069 C 0.99518 0.2553 0.72102 0.0
C2070 C 0.0135 0.24175 0.73023 0.0
H2071 H 0.97993 0.28928 0.72046 0.0
H2072 H 0.98063 0.24672 0.70925 0.0
S2073 S 0.06527 0.26483 0.7716 0.0
N2074 N 0.05019 0.28861 0.76681 0.0
N2075 N 0.05026 0.24226 0.75578 0.0
C2076 C 0.03195 0.25365 0.74553 0.0
C2077 C 0.03179 0.27873 0.75169 0.0
C2078 C 0.37695 0.75978 0.18171 0.0
C2079 C 0.38611 0.74233 0.1961 0.0
C2080 C 0.38279 0.78423 0.18727 0.0
C2081 C 0.39797 0.79228 0.20748 0.0
H2082 H 0.36551 0.75455 0.1657 0.0
H2083 H 0.37568 0.79694 0.17538 0.0
S2084 S 0.4251 0.75425 0.25221 0.0
N2085 N 0.41022 0.73503 0.23225 0.0
N2086 N 0.42087 0.78105 0.2428 0.0
C2087 C 0.40684 0.77514 0.22236 0.0
C2088 C 0.40097 0.75018 0.21667 0.0
C2089 C 0.93725 0.62042 0.72824 0.0
C2090 C 0.95675 0.62859 0.74441 0.0
C2091 C 0.93362 0.59626 0.72007 0.0
C2092 C 0.94935 0.57928 0.72764 0.0
H2093 H 0.92442 0.63268 0.72208 0.0
H2094 H 0.9182 0.59077 0.70787 0.0
S2095 S 0.00326 0.59108 0.76958 0.0
N2096 N 0.9923 0.61753 0.76733 0.0
N2097 N 0.98518 0.57214 0.7521 0.0
C2098 C 0.96919 0.58717 0.74337 0.0
C2099 C 0.97294 0.6118 0.75171 0.0
C2100 C 0.68064 0.40721 0.63879 0.0
C2101 C 0.66336 0.39769 0.65333 0.0
C2102 C 0.67463 0.41158 0.61488 0.0
C2103 C 0.65124 0.40616 0.60471 0.0
H2104 H 0.6991 0.41058 0.64574 0.0
H2105 H 0.68866 0.4178 0.6039 0.0
S2106 S 0.59932 0.38173 0.63513 0.0
N2107 N 0.62172 0.38374 0.65593 0.0
N2108 N 0.61056 0.39179 0.61089 0.0
C2109 C 0.63363 0.39752 0.61923 0.0
C2110 C 0.63965 0.39331 0.64361 0.0
C2111 C 0.82773 0.60701 0.24266 0.0
C2112 C 0.80897 0.60165 0.25736 0.0
C2113 C 0.82652 0.59819 0.21859 0.0
C2114 C 0.80667 0.58347 0.20858 0.0
H2115 H 0.84296 0.61887 0.24948 0.0
H2116 H 0.84098 0.60327 0.2076 0.0
S2117 S 0.75327 0.56369 0.2398 0.0
N2118 N 0.77032 0.58027 0.2604 0.0
N2119 N 0.76806 0.56373 0.21527 0.0
C2120 C 0.78813 0.57751 0.22329 0.0
C2121 C 0.78926 0.58665 0.24764 0.0
C2122 C 0.21775 0.07775 0.33918 0.0
C2123 C 0.2402 0.07356 0.33051 0.0
C2124 C 0.21365 0.07567 0.3634 0.0
C2125 C 0.23177 0.06902 0.37968 0.0
H2126 H 0.20348 0.0834 0.32735 0.0
H2127 H 0.19629 0.07959 0.36953 0.0
S2128 S 0.29353 0.0557 0.36584 0.0
N2129 N 0.28065 0.06218 0.33996 0.0
N2130 N 0.27291 0.05816 0.38544 0.0
C2131 C 0.25415 0.06437 0.37113 0.0
C2132 C 0.2584 0.06676 0.34657 0.0
C2133 C 0.30608 0.99022 0.74561 0.0
C2134 C 0.28404 0.99934 0.73877 0.0
C2135 C 0.31347 0.98896 0.76986 0.0
C2136 C 0.29915 0.997 0.78801 0.0
H2137 H 0.31766 0.98399 0.73215 0.0
H2138 H 0.33075 0.98224 0.77447 0.0
S2139 S 0.23917 0.02069 0.77958 0.0
N2140 N 0.24743 0.01527 0.75213 0.0
N2141 N 0.26135 0.01288 0.79761 0.0
C2142 C 0.27676 0.00538 0.7814 0.0
C2143 C 0.26917 0.00649 0.7568 0.0
C2144 C 0.66592 0.6975 0.38274 0.0
C2145 C 0.68336 0.68812 0.39794 0.0
C2146 C 0.64155 0.6911 0.38412 0.0
C2147 C 0.63366 0.67531 0.40094 0.0
H2148 H 0.67119 0.70908 0.36897 0.0
H2149 H 0.62877 0.69828 0.37164 0.0
S2150 S 0.6719 0.64883 0.44731 0.0
N2151 N 0.69094 0.66486 0.43244 0.0
N2152 N 0.64507 0.652 0.43443 0.0
C2153 C 0.65081 0.66686 0.41715 0.0
C2154 C 0.67569 0.67347 0.41579 0.0
C2155 C 0.73375 0.30846 0.98867 0.0
C2156 C 0.72534 0.2869 0.99775 0.0
C2157 C 0.7582 0.31591 0.99081 0.0
C2158 C 0.77506 0.30207 0.00215 0.0
H2159 H 0.72142 0.31948 0.97952 0.0
H2160 H 0.76394 0.33274 0.98379 0.0
S2161 S 0.76244 0.24345 0.02751 0.0
N2162 N 0.73593 0.25137 0.01762 0.0
N2163 N 0.78184 0.26523 0.02137 0.0
C2164 C 0.76694 0.28025 0.01081 0.0
C2165 C 0.74211 0.27265 0.00859 0.0
C2166 C 0.23994 0.82487 0.64134 0.0
C2167 C 0.25274 0.80431 0.63803 0.0
C2168 C 0.21578 0.82479 0.63303 0.0
C2169 C 0.20394 0.80435 0.62068 0.0
H2170 H 0.24838 0.84078 0.65113 0.0
H2171 H 0.20618 0.84066 0.63657 0.0
S2172 S 0.23005 0.74652 0.60631 0.0
N2173 N 0.25217 0.76334 0.62097 0.0
N2174 N 0.20696 0.76338 0.60493 0.0
C2175 C 0.21682 0.78401 0.61657 0.0
C2176 C 0.24119 0.78393 0.6254 0.0
C2177 C 0.34232 0.21949 0.06753 0.0
C2178 C 0.33233 0.24126 0.06311 0.0
C2179 C 0.36613 0.21585 0.06283 0.0
C2180 C 0.3807 0.2338 0.05339 0.0
H2181 H 0.33205 0.20555 0.07567 0.0
H2182 H 0.3734 0.1991 0.06721 0.0
S2183 S 0.36279 0.29374 0.03801 0.0
N2184 N 0.33855 0.28078 0.0482 0.0
N2185 N 0.38332 0.27393 0.03938 0.0
C2186 C 0.37072 0.25539 0.04826 0.0
C2187 C 0.34655 0.25917 0.05323 0.0
C2188 C 0.3864 0.67419 0.65078 0.0
C2189 C 0.38957 0.68612 0.67371 0.0
C2190 C 0.39129 0.65005 0.6472 0.0
C2191 C 0.40006 0.63734 0.66632 0.0
H2192 H 0.37941 0.68333 0.63568 0.0
H2193 H 0.38812 0.64124 0.62942 0.0
S2194 S 0.41198 0.66044 0.72954 0.0
N2195 N 0.40214 0.68341 0.7157 0.0
N2196 N 0.4119 0.63822 0.70874 0.0
C2197 C 0.40368 0.64912 0.68917 0.0
C2198 C 0.39826 0.67348 0.69293 0.0
C2199 C 0.98614 0.74498 0.31426 0.0
C2200 C 0.99442 0.73773 0.29195 0.0
C2201 C 0.98686 0.7693 0.32213 0.0
C2202 C 0.99611 0.78709 0.30802 0.0
H2203 H 0.97865 0.73183 0.32552 0.0
H2204 H 0.98036 0.77422 0.33942 0.0
S2205 S 0.01908 0.77753 0.24784 0.0
N2206 N 0.01147 0.75033 0.25562 0.0
N2207 N 0.01285 0.79594 0.2704 0.0
C2208 C 0.00417 0.78008 0.28559 0.0
C2209 C 0.00325 0.75542 0.27753 0.0
C2210 C 0.62547 0.24679 0.83044 0.0
C2211 C 0.6204 0.26213 0.81218 0.0
C2212 C 0.61406 0.22375 0.82991 0.0
C2213 C 0.59699 0.21546 0.81127 0.0
H2214 H 0.63922 0.25213 0.84454 0.0
H2215 H 0.61915 0.21205 0.84374 0.0
S2216 S 0.57651 0.24924 0.75995 0.0
N2217 N 0.59653 0.26786 0.77554 0.0
N2218 N 0.57498 0.22463 0.77464 0.0
C2219 C 0.59107 0.23099 0.79347 0.0
C2220 C 0.60287 0.2543 0.79386 0.0
C2221 C 0.07058 0.34243 0.25134 0.0
C2222 C 0.07943 0.32704 0.23376 0.0
C2223 C 0.06497 0.36568 0.24639 0.0
C2224 C 0.06858 0.37444 0.22387 0.0
H2225 H 0.06812 0.3365 0.26909 0.0
H2226 H 0.05863 0.37719 0.26055 0.0
S2227 S 0.09139 0.34116 0.17181 0.0
N2228 N 0.09124 0.3219 0.19293 0.0
N2229 N 0.08127 0.36591 0.18377 0.0
C2230 C 0.07726 0.35915 0.20609 0.0
C2231 C 0.08252 0.33533 0.211 0.0
C2232 C 0.41746 0.57266 0.3178 0.0
C2233 C 0.40429 0.57092 0.29543 0.0
C2234 C 0.44146 0.56715 0.31986 0.0
C2235 C 0.45308 0.5593 0.29971 0.0
H2236 H 0.40916 0.5781 0.334 0.0
H2237 H 0.45086 0.56857 0.33744 0.0
S2238 S 0.42749 0.55236 0.23702 0.0
N2239 N 0.4053 0.56152 0.25251 0.0
N2240 N 0.45037 0.55051 0.25672 0.0
C2241 C 0.44042 0.55756 0.27724 0.0
C2242 C 0.41601 0.5635 0.27502 0.0
C2243 C 0.08058 0.3924 0.64641 0.0
C2244 C 0.08713 0.37443 0.66149 0.0
C2245 C 0.05877 0.40304 0.64819 0.0
C2246 C 0.04266 0.39624 0.66517 0.0
H2247 H 0.09283 0.39909 0.63383 0.0
H2248 H 0.05492 0.41742 0.63681 0.0
S2249 S 0.05001 0.34829 0.70716 0.0
N2250 N 0.07451 0.34861 0.69235 0.0
N2251 N 0.03393 0.3692 0.69618 0.0
C2252 C 0.04822 0.37723 0.67928 0.0
C2253 C 0.07034 0.36618 0.6773 0.0
C2254 C 0.8917 0.00931 0.68945 0.0
C2255 C 0.87398 0.01428 0.70544 0.0
C2256 C 0.9148 0.02055 0.69278 0.0
C2257 C 0.92119 0.03723 0.71225 0.0
H2258 H 0.88758 0.99715 0.67374 0.0
H2259 H 0.92746 0.01682 0.67944 0.0
S2260 S 0.88261 0.05454 0.76094 0.0
N2261 N 0.86519 0.03568 0.74267 0.0
N2262 N 0.90875 0.05661 0.74896 0.0
C2263 C 0.90409 0.04158 0.72901 0.0
C2264 C 0.88049 0.03014 0.72563 0.0
C2265 C 0.60776 0.9451 0.25575 0.0
C2266 C 0.61364 0.96042 0.27647 0.0
C2267 C 0.58415 0.93592 0.24974 0.0
C2268 C 0.56546 0.94178 0.26413 0.0
H2269 H 0.62146 0.94018 0.24394 0.0
H2270 H 0.58043 0.92445 0.23348 0.0
S2271 S 0.57119 0.97999 0.32091 0.0
N2272 N 0.59864 0.98035 0.31183 0.0
N2273 N 0.5544 0.96291 0.30051 0.0
C2274 C 0.57104 0.95679 0.28502 0.0
C2275 C 0.59507 0.96614 0.2912 0.0
C2276 C 0.30262 0.4163 0.58187 0.0
C2277 C 0.28396 0.39808 0.57919 0.0
C2278 C 0.29947 0.43903 0.57367 0.0
C2279 C 0.27759 0.44438 0.56235 0.0
H2280 H 0.32008 0.41289 0.58983 0.0
H2281 H 0.31449 0.45232 0.57559 0.0
S2282 S 0.22228 0.40432 0.55315 0.0
N2283 N 0.24209 0.38786 0.56612 0.0
N2284 N 0.23646 0.43062 0.5504 0.0
C2285 C 0.25851 0.42681 0.56032 0.0
C2286 C 0.26161 0.40367 0.56885 0.0
C2287 C 0.23576 0.60745 0.96241 0.0
C2288 C 0.25566 0.61502 0.97832 0.0
C2289 C 0.2295 0.58306 0.95663 0.0
C2290 C 0.2428 0.56531 0.96665 0.0
H2291 H 0.22483 0.62044 0.95437 0.0
H2292 H 0.21392 0.57805 0.9445 0.0
S2293 S 0.29728 0.57531 0.00804 0.0
N2294 N 0.28916 0.60247 0.00328 0.0
N2295 N 0.27738 0.55678 0.99222 0.0
C2296 C 0.26289 0.57254 0.98228 0.0
C2297 C 0.26932 0.59733 0.98816 0.0
C2298 C 0.69784 0.08008 0.35436 0.0
C2299 C 0.70893 0.10253 0.3627 0.0
C2300 C 0.69832 0.0604 0.36866 0.0
C2301 C 0.71008 0.06245 0.39172 0.0
H2302 H 0.68851 0.07774 0.33677 0.0
H2303 H 0.6892 0.04355 0.3617 0.0
S2304 S 0.74446 0.11654 0.42065 0.0
N2305 N 0.73344 0.12516 0.39486 0.0
N2306 N 0.73491 0.08816 0.42128 0.0
C2307 C 0.72185 0.08462 0.39993 0.0
C2308 C 0.72113 0.10465 0.38555 0.0
C2309 C 0.72096 0.87963 0.02525 0.0
C2310 C 0.70177 0.87066 0.00906 0.0
C2311 C 0.72217 0.90324 0.03534 0.0
C2312 C 0.70433 0.91886 0.02955 0.0
H2313 H 0.73491 0.8682 0.03064 0.0
H2314 H 0.73707 0.90924 0.04799 0.0
S2315 S 0.65063 0.90462 0.98775 0.0
N2316 N 0.66486 0.87974 0.98718 0.0
N2317 N 0.66704 0.92385 0.00648 0.0
C2318 C 0.68539 0.91037 0.01297 0.0
C2319 C 0.68413 0.88636 0.00265 0.0
C2320 C 0.59323 0.30325 0.41151 0.0
C2321 C 0.59735 0.28189 0.39822 0.0
C2322 C 0.58673 0.30307 0.43517 0.0
C2323 C 0.584 0.28155 0.4464 0.0
H2324 H 0.59539 0.3204 0.40377 0.0
H2325 H 0.58377 0.31989 0.44473 0.0
S2326 S 0.59162 0.22067 0.41979 0.0
N2327 N 0.5974 0.23844 0.39818 0.0
N2328 N 0.58513 0.23835 0.44284 0.0
C2329 C 0.58752 0.26003 0.43342 0.0
C2330 C 0.59417 0.26013 0.40926 0.0
C2331 C 0.99973 0.32072 0.60088 0.0
C2332 C 0.98923 0.3089 0.61943 0.0
C2333 C 0.99558 0.312 0.57691 0.0
C2334 C 0.98071 0.29116 0.5705 0.0
H2335 H 0.01129 0.33689 0.60483 0.0
H2336 H 0.00392 0.3218 0.56325 0.0
S2337 S 0.9496 0.25287 0.61204 0.0
N2338 N 0.96359 0.27481 0.6296 0.0
N2339 N 0.95603 0.25844 0.58454 0.0
C2340 C 0.97014 0.27908 0.58878 0.0
C2341 C 0.97435 0.28793 0.61322 0.0
C2342 C 0.36687 0.69196 0.06206 0.0
C2343 C 0.3713 0.67404 0.07799 0.0
C2344 C 0.37938 0.69379 0.04135 0.0
C2345 C 0.39675 0.67774 0.03568 0.0
H2346 H 0.35449 0.70547 0.06614 0.0
H2347 H 0.37634 0.70872 0.03043 0.0
S2348 S 0.41196 0.625 0.06886 0.0
N2349 N 0.39213 0.63805 0.08489 0.0
N2350 N 0.41542 0.64142 0.04575 0.0
C2351 C 0.40006 0.65866 0.05039 0.0
C2352 C 0.38736 0.6568 0.07156 0.0
C2353 C 0.01923 0.71958 0.87109 0.0
C2354 C 0.00478 0.69839 0.86473 0.0
C2355 C 0.03202 0.72318 0.89349 0.0
C2356 C 0.03077 0.70581 0.91048 0.0
H2357 H 0.02116 0.73333 0.85849 0.0
H2358 H 0.04321 0.7396 0.89745 0.0
S2359 S 0.99515 0.64746 0.90317 0.0
N2360 N 0.98946 0.66006 0.8778 0.0
N2361 N 0.01379 0.66676 0.91959 0.0
C2362 C 0.01595 0.68482 0.90465 0.0
C2363 C 0.00291 0.68113 0.88187 0.0
C2364 C 0.55227 0.45578 0.67088 0.0
C2365 C 0.55503 0.44067 0.68984 0.0
C2366 C 0.52974 0.46331 0.6636 0.0
C2367 C 0.50911 0.45561 0.6747 0.0
H2368 H 0.56767 0.46206 0.66173 0.0
H2369 H 0.5284 0.4751 0.64906 0.0
S2370 S 0.5064 0.41579 0.72488 0.0
N2371 N 0.53503 0.4182 0.71946 0.0
N2372 N 0.4927 0.4322 0.70553 0.0
C2373 C 0.51152 0.44038 0.69351 0.0
C2374 C 0.53448 0.43297 0.70116 0.0
C2375 C 0.94037 0.56722 0.26798 0.0
C2376 C 0.93178 0.58599 0.25501 0.0
C2377 C 0.96215 0.55752 0.2633 0.0
C2378 C 0.97633 0.56623 0.24554 0.0
H2379 H 0.93021 0.55987 0.28192 0.0
H2380 H 0.96805 0.5432 0.27385 0.0
S2381 S 0.96187 0.61449 0.20583 0.0
N2382 N 0.93922 0.61262 0.2232 0.0
N2383 N 0.98005 0.59417 0.2144 0.0
C2384 C 0.96803 0.58491 0.23236 0.0
C2385 C 0.9458 0.59481 0.23707 0.0
C2386 C 0.11473 0.02329 0.34192 0.0
C2387 C 0.12728 0.01923 0.32122 0.0
C2388 C 0.09341 0.00986 0.34534 0.0
C2389 C 0.08393 0.99176 0.32827 0.0
H2390 H 0.12142 0.03688 0.35572 0.0
H2391 H 0.08449 0.01341 0.36164 0.0
S2392 S 0.10885 0.9747 0.27042 0.0
N2393 N 0.12796 0.99614 0.28298 0.0
N2394 N 0.08789 0.97111 0.28949 0.0
C2395 C 0.09603 0.98768 0.30737 0.0
C2396 C 0.11768 0.00136 0.30382 0.0
C2397 C 0.4182 0.0161 0.76077 0.0
C2398 C 0.40483 0.02867 0.74418 0.0
C2399 C 0.44232 0.02293 0.7674 0.0
C2400 C 0.45402 0.04271 0.75785 0.0
H2401 H 0.41005 0.00074 0.7687 0.0
H2402 H 0.45186 0.01273 0.78024 0.0
S2403 S 0.42761 0.08142 0.71335 0.0
N2404 N 0.40546 0.06185 0.71814 0.0
N2405 N 0.45078 0.07448 0.73056 0.0
C2406 C 0.44097 0.05548 0.74128 0.0
C2407 C 0.41642 0.04851 0.73444 0.0
C2408 C 0.70157 0.54268 0.41378 0.0
C2409 C 0.68948 0.56392 0.41304 0.0
C2410 C 0.69053 0.52169 0.42151 0.0
C2411 C 0.66704 0.52115 0.42889 0.0
H2412 H 0.71995 0.54236 0.40898 0.0
H2413 H 0.70082 0.50605 0.42274 0.0
S2414 S 0.62621 0.57047 0.42698 0.0
N2415 N 0.65157 0.58211 0.41784 0.0
N2416 N 0.63112 0.54261 0.43272 0.0
C2417 C 0.65428 0.54175 0.42709 0.0
C2418 C 0.66541 0.56313 0.41905 0.0
C2419 C 0.72982 0.41546 0.0302 0.0
C2420 C 0.70681 0.41139 0.01846 0.0
C2421 C 0.73964 0.43871 0.03686 0.0
C2422 C 0.72691 0.45885 0.03201 0.0
H2423 H 0.74044 0.40058 0.03429 0.0
H2424 H 0.75745 0.44094 0.04573 0.0
S2425 S 0.66566 0.45823 0.00271 0.0
N2426 N 0.67135 0.42972 0.00279 0.0
N2427 N 0.68982 0.47332 0.01557 0.0
C2428 C 0.70389 0.45513 0.02041 0.0
C2429 C 0.69384 0.43144 0.0136 0.0
C2430 C 0.29024 0.94087 0.59021 0.0
C2431 C 0.27708 0.9185 0.58779 0.0
C2432 C 0.28388 0.9597 0.57634 0.0
C2433 C 0.26418 0.95694 0.55938 0.0
H2434 H 0.30566 0.94395 0.60292 0.0
H2435 H 0.29467 0.97651 0.57874 0.0
S2436 S 0.22315 0.90251 0.5465 0.0
N2437 N 0.24294 0.89497 0.56728 0.0
N2438 N 0.23103 0.93048 0.54138 0.0
C2439 C 0.25075 0.93479 0.55679 0.0
C2440 C 0.25717 0.91558 0.57096 0.0
C2441 C 0.30618 0.11679 0.00303 0.0
C2442 C 0.32386 0.12664 0.02047 0.0
C2443 C 0.30916 0.09538 0.98967 0.0
C2444 C 0.32988 0.08287 0.99324 0.0
H2445 H 0.28984 0.12566 0.99956 0.0
H2446 H 0.29501 0.08846 0.97652 0.0
S2447 S 0.38191 0.10104 0.03606 0.0
N2448 N 0.36313 0.12219 0.04028 0.0
N2449 N 0.36864 0.08196 0.01497 0.0
C2450 C 0.34772 0.09239 0.01056 0.0
C2451 C 0.34475 0.11427 0.02419 0.0
C2452 C 0.4272 0.69704 0.53842 0.0
C2453 C 0.43379 0.69144 0.56195 0.0
C2454 C 0.43982 0.68894 0.51906 0.0
C2455 C 0.45946 0.67482 0.52239 0.0
H2456 H 0.41247 0.7082 0.53492 0.0
H2457 H 0.43448 0.6943 0.50138 0.0
S2458 S 0.48252 0.65305 0.57996 0.0
N2459 N 0.46041 0.66958 0.58725 0.0
N2460 N 0.48385 0.6541 0.55072 0.0
C2461 C 0.46582 0.66847 0.54568 0.0
C2462 C 0.45305 0.67682 0.56547 0.0
C2463 C 0.02045 0.75803 0.42278 0.0
C2464 C 0.03046 0.74014 0.40854 0.0
C2465 C 0.03018 0.76514 0.44598 0.0
C2466 C 0.05042 0.75479 0.45583 0.0
H2467 H 0.00489 0.76665 0.41603 0.0
H2468 H 0.0219 0.77901 0.45622 0.0
S2469 S 0.08316 0.70679 0.42661 0.0
N2470 N 0.06173 0.71197 0.4064 0.0
N2471 N 0.07982 0.72534 0.45001 0.0
C2472 C 0.06063 0.73688 0.44192 0.0
C2473 C 0.05069 0.72955 0.41831 0.0
C2474 C 0.58648 0.27124 0.93909 0.0
C2475 C 0.60197 0.25541 0.92857 0.0
C2476 C 0.57517 0.26594 0.95988 0.0
C2477 C 0.57905 0.24471 0.97115 0.0
H2478 H 0.58291 0.28788 0.93117 0.0
H2479 H 0.56341 0.27865 0.96732 0.0
S2480 S 0.61702 0.19675 0.9507 0.0
N2481 N 0.62004 0.21717 0.93096 0.0
N2482 N 0.59881 0.20744 0.97013 0.0
C2483 C 0.59443 0.22871 0.96096 0.0
C2484 C 0.60584 0.23398 0.93966 0.0
C2485 C 0.00541 0.34336 0.13447 0.0
C2486 C 0.00497 0.32022 0.14292 0.0
C2487 C 0.99138 0.3482 0.11397 0.0
C2488 C 0.97611 0.33018 0.10143 0.0
H2489 H 0.01702 0.35779 0.14347 0.0
H2490 H 0.99247 0.36617 0.10789 0.0
S2491 S 0.96784 0.26682 0.11623 0.0
N2492 N 0.98764 0.27918 0.13718 0.0
N2493 N 0.96118 0.28843 0.09879 0.0
C2494 C 0.97517 0.3071 0.10983 0.0
C2495 C 0.98964 0.30207 0.13052 0.0
loop_
_geom_bond_atom_site_label_1
_geom_bond_atom_site_label_2
_geom_bond_distance
_geom_bond_site_symmetry_2
_ccdc_geom_bond_type
O0 Cd1 2.300 . S
O0 C7 1.275 . S
Cd1 O0 2.300 . S
Cd1 O9 2.381 . S
Cd1 O10 2.378 . S
O2 Cd3 2.385 . S
O2 C7 1.255 . S
Cd3 O2 2.385 . S
Cd3 O4 2.317 . S
O4 Cd3 2.317 . S
O4 C5 1.232 . S
C5 O4 1.232 . S
C5 O6 1.218 . S
O6 C5 1.218 . S
C7 O0 1.275 . S
C7 O2 1.255 . S
C8 O9 1.258 . S
C8 O10 1.256 . S
O9 Cd1 2.381 . S
O9 C8 1.258 . S
O10 Cd1 2.378 . S
O10 C8 1.256 . S
O11 Cd12 2.300 . S
O11 C18 1.275 . S
Cd12 O11 2.300 . S
Cd12 O20 2.381 . S
Cd12 O21 2.378 . S
O13 Cd14 2.385 . S
O13 C18 1.255 . S
Cd14 O13 2.385 . S
Cd14 O15 2.317 . S
O15 Cd14 2.317 . S
O15 C16 1.232 . S
C16 O15 1.232 . S
C16 O17 1.218 . S
O17 C16 1.218 . S
C18 O11 1.275 . S
C18 O13 1.255 . S
C19 O20 1.258 . S
C19 O21 1.256 . S
O20 Cd12 2.381 . S
O20 C19 1.258 . S
O21 Cd12 2.378 . S
O21 C19 1.256 . S
O22 Cd23 2.300 . S
O22 C29 1.275 . S
Cd23 O22 2.300 . S
Cd23 O31 2.381 1_565 S
Cd23 O32 2.378 . S
O24 Cd25 2.385 . S
O24 C29 1.255 . S
Cd25 O24 2.385 . S
Cd25 O26 2.317 . S
O26 Cd25 2.317 . S
O26 C27 1.232 . S
C27 O26 1.232 . S
C27 O28 1.218 . S
O28 C27 1.218 . S
C29 O22 1.275 . S
C29 O24 1.255 . S
C30 O31 1.258 . S
C30 O32 1.256 1_545 S
O31 Cd23 2.381 1_545 S
O31 C30 1.258 . S
O32 Cd23 2.378 . S
O32 C30 1.256 1_565 S
O33 Cd34 2.300 . S
O33 C40 1.275 . S
Cd34 O33 2.300 . S
Cd34 O42 2.381 1_545 S
Cd34 O43 2.378 . S
O35 Cd36 2.385 . S
O35 C40 1.255 . S
Cd36 O35 2.385 . S
Cd36 O37 2.317 . S
O37 Cd36 2.317 . S
O37 C38 1.232 . S
C38 O37 1.232 . S
C38 O39 1.218 . S
O39 C38 1.218 . S
C40 O33 1.275 . S
C40 O35 1.255 . S
C41 O42 1.258 . S
C41 O43 1.256 1_565 S
O42 Cd34 2.381 1_565 S
O42 C41 1.258 . S
O43 Cd34 2.378 . S
O43 C41 1.256 1_545 S
O44 Cd45 2.300 . S
O44 C51 1.275 . S
Cd45 O44 2.300 . S
Cd45 O53 2.381 . S
Cd45 O54 2.378 . S
O46 Cd47 2.385 . S
O46 C51 1.255 . S
Cd47 O46 2.385 . S
Cd47 O48 2.317 . S
O48 Cd47 2.317 . S
O48 C49 1.232 . S
C49 O48 1.232 . S
C49 O50 1.218 . S
O50 C49 1.218 . S
C51 O44 1.275 . S
C51 O46 1.255 . S
C52 O53 1.258 . S
C52 O54 1.256 . S
O53 Cd45 2.381 . S
O53 C52 1.258 . S
O54 Cd45 2.378 . S
O54 C52 1.256 . S
O55 Cd56 2.300 . S
O55 C62 1.275 . S
Cd56 O55 2.300 . S
Cd56 O64 2.381 1_554 S
Cd56 O65 2.378 . S
O57 Cd58 2.385 . S
O57 C62 1.255 . S
Cd58 O57 2.385 . S
Cd58 O59 2.317 . S
O59 Cd58 2.317 . S
O59 C60 1.232 . S
C60 O59 1.232 . S
C60 O61 1.218 . S
O61 C60 1.218 . S
C62 O55 1.275 . S
C62 O57 1.255 . S
C63 O64 1.258 . S
C63 O65 1.256 1_556 S
O64 Cd56 2.381 1_556 S
O64 C63 1.258 . S
O65 Cd56 2.378 . S
O65 C63 1.256 1_554 S
O66 Cd67 2.300 . S
O66 C73 1.275 . S
Cd67 O66 2.300 . S
Cd67 O75 2.381 . S
Cd67 O76 2.378 . S
O68 Cd69 2.385 . S
O68 C73 1.255 . S
Cd69 O68 2.385 . S
Cd69 O70 2.317 . S
O70 Cd69 2.317 . S
O70 C71 1.232 . S
C71 O70 1.232 . S
C71 O72 1.218 . S
O72 C71 1.218 . S
C73 O66 1.275 . S
C73 O68 1.255 . S
C74 O75 1.258 . S
C74 O76 1.256 . S
O75 Cd67 2.381 . S
O75 C74 1.258 . S
O76 Cd67 2.378 . S
O76 C74 1.256 . S
O77 Cd78 2.300 . S
O77 C84 1.275 . S
Cd78 O77 2.300 . S
Cd78 O86 2.381 1_556 S
Cd78 O87 2.378 . S
O79 Cd80 2.385 . S
O79 C84 1.255 . S
Cd80 O79 2.385 . S
Cd80 O81 2.317 . S
O81 Cd80 2.317 . S
O81 C82 1.232 . S
C82 O81 1.232 . S
C82 O83 1.218 . S
O83 C82 1.218 . S
C84 O77 1.275 . S
C84 O79 1.255 . S
C85 O86 1.258 . S
C85 O87 1.256 1_554 S
O86 Cd78 2.381 1_554 S
O86 C85 1.258 . S
O87 Cd78 2.378 . S
O87 C85 1.256 1_556 S
O88 Cd89 2.300 . S
O88 C95 1.275 . S
Cd89 O88 2.300 . S
Cd89 O97 2.381 . S
Cd89 O98 2.378 . S
O90 Cd91 2.385 . S
O90 C95 1.255 . S
Cd91 O90 2.385 . S
Cd91 O92 2.317 . S
O92 Cd91 2.317 . S
O92 C93 1.232 . S
C93 O92 1.232 . S
C93 O94 1.218 . S
O94 C93 1.218 . S
C95 O88 1.275 . S
C95 O90 1.255 . S
C96 O97 1.258 . S
C96 O98 1.256 . S
O97 Cd89 2.381 . S
O97 C96 1.258 . S
O98 Cd89 2.378 . S
O98 C96 1.256 . S
O99 Cd100 2.300 . S
O99 C106 1.275 . S
Cd100 O99 2.300 . S
Cd100 O108 2.381 1_455 S
Cd100 O109 2.378 . S
O101 Cd102 2.385 . S
O101 C106 1.255 . S
Cd102 O101 2.385 . S
Cd102 O103 2.317 . S
O103 Cd102 2.317 . S
O103 C104 1.232 . S
C104 O103 1.232 . S
C104 O105 1.218 . S
O105 C104 1.218 . S
C106 O99 1.275 . S
C106 O101 1.255 . S
C107 O108 1.258 . S
C107 O109 1.256 1_655 S
O108 Cd100 2.381 1_655 S
O108 C107 1.258 . S
O109 Cd100 2.378 . S
O109 C107 1.256 1_455 S
O110 Cd111 2.300 . S
O110 C117 1.275 . S
Cd111 O110 2.300 . S
Cd111 O119 2.381 . S
Cd111 O120 2.378 . S
O112 Cd113 2.385 . S
O112 C117 1.255 . S
Cd113 O112 2.385 . S
Cd113 O114 2.317 . S
O114 Cd113 2.317 . S
O114 C115 1.232 . S
C115 O114 1.232 . S
C115 O116 1.218 . S
O116 C115 1.218 . S
C117 O110 1.275 . S
C117 O112 1.255 . S
C118 O119 1.258 . S
C118 O120 1.256 . S
O119 Cd111 2.381 . S
O119 C118 1.258 . S
O120 Cd111 2.378 . S
O120 C118 1.256 . S
O121 Cd122 2.300 . S
O121 C128 1.275 . S
Cd122 O121 2.300 . S
Cd122 O130 2.381 1_655 S
Cd122 O131 2.378 . S
O123 Cd124 2.385 . S
O123 C128 1.255 . S
Cd124 O123 2.385 . S
Cd124 O125 2.317 . S
O125 Cd124 2.317 . S
O125 C126 1.232 . S
C126 O125 1.232 . S
C126 O127 1.218 . S
O127 C126 1.218 . S
C128 O121 1.275 . S
C128 O123 1.255 . S
C129 O130 1.258 . S
C129 O131 1.256 1_455 S
O130 Cd122 2.381 1_455 S
O130 C129 1.258 . S
O131 Cd122 2.378 . S
O131 C129 1.256 1_655 S
O132 Cd133 2.300 . S
O132 C139 1.275 . S
Cd133 O132 2.300 . S
Cd133 O141 2.381 . S
Cd133 O142 2.378 . S
O134 Cd135 2.385 . S
O134 C139 1.255 . S
Cd135 O134 2.385 . S
Cd135 O136 2.317 . S
O136 Cd135 2.317 . S
O136 C137 1.232 . S
C137 O136 1.232 . S
C137 O138 1.218 . S
O138 C137 1.218 . S
C139 O132 1.275 . S
C139 O134 1.255 . S
C140 O141 1.258 . S
C140 O142 1.256 . S
O141 Cd133 2.381 . S
O141 C140 1.258 . S
O142 Cd133 2.378 . S
O142 C140 1.256 . S
O143 Cd144 2.300 . S
O143 C150 1.275 . S
Cd144 O143 2.300 . S
Cd144 O152 2.381 . S
Cd144 O153 2.378 . S
O145 Cd146 2.385 . S
O145 C150 1.255 . S
Cd146 O145 2.385 . S
Cd146 O147 2.317 . S
O147 Cd146 2.317 . S
O147 C148 1.232 . S
C148 O147 1.232 . S
C148 O149 1.218 . S
O149 C148 1.218 . S
C150 O143 1.275 . S
C150 O145 1.255 . S
C151 O152 1.258 . S
C151 O153 1.256 . S
O152 Cd144 2.381 . S
O152 C151 1.258 . S
O153 Cd144 2.378 . S
O153 C151 1.256 . S
O154 Cd155 2.300 1_545 S
O154 C161 1.275 . S
Cd155 O154 2.300 1_565 S
Cd155 O163 2.381 1_565 S
Cd155 O164 2.378 . S
O156 Cd157 2.385 . S
O156 C161 1.255 1_565 S
Cd157 O156 2.385 . S
Cd157 O158 2.317 . S
O158 Cd157 2.317 . S
O158 C159 1.232 . S
C159 O158 1.232 . S
C159 O160 1.218 . S
O160 C159 1.218 . S
C161 O154 1.275 . S
C161 O156 1.255 1_545 S
C162 O163 1.258 1_565 S
C162 O164 1.256 . S
O163 Cd155 2.381 1_545 S
O163 C162 1.258 1_545 S
O164 Cd155 2.378 . S
O164 C162 1.256 . S
O165 Cd166 2.300 1_565 S
O165 C172 1.275 . S
Cd166 O165 2.300 1_545 S
Cd166 O174 2.381 1_545 S
Cd166 O175 2.378 . S
O167 Cd168 2.385 . S
O167 C172 1.255 1_545 S
Cd168 O167 2.385 . S
Cd168 O169 2.317 . S
O169 Cd168 2.317 . S
O169 C170 1.232 . S
C170 O169 1.232 . S
C170 O171 1.218 . S
O171 C170 1.218 . S
C172 O165 1.275 . S
C172 O167 1.255 1_565 S
C173 O174 1.258 1_545 S
C173 O175 1.256 . S
O174 Cd166 2.381 1_565 S
O174 C173 1.258 1_565 S
O175 Cd166 2.378 . S
O175 C173 1.256 . S
O176 Cd177 2.300 . S
O176 C183 1.275 . S
Cd177 O176 2.300 . S
Cd177 O185 2.381 . S
Cd177 O186 2.378 . S
O178 Cd179 2.385 . S
O178 C183 1.255 . S
Cd179 O178 2.385 . S
Cd179 O180 2.317 . S
O180 Cd179 2.317 . S
O180 C181 1.232 . S
C181 O180 1.232 . S
C181 O182 1.218 . S
O182 C181 1.218 . S
C183 O176 1.275 . S
C183 O178 1.255 . S
C184 O185 1.258 . S
C184 O186 1.256 . S
O185 Cd177 2.381 . S
O185 C184 1.258 . S
O186 Cd177 2.378 . S
O186 C184 1.256 . S
O187 Cd188 2.300 1_556 S
O187 C194 1.275 . S
Cd188 O187 2.300 1_554 S
Cd188 O196 2.381 1_554 S
Cd188 O197 2.378 . S
O189 Cd190 2.385 . S
O189 C194 1.255 1_554 S
Cd190 O189 2.385 . S
Cd190 O191 2.317 . S
O191 Cd190 2.317 . S
O191 C192 1.232 . S
C192 O191 1.232 . S
C192 O193 1.218 . S
O193 C192 1.218 . S
C194 O187 1.275 . S
C194 O189 1.255 1_556 S
C195 O196 1.258 1_554 S
C195 O197 1.256 . S
O196 Cd188 2.381 1_556 S
O196 C195 1.258 1_556 S
O197 Cd188 2.378 . S
O197 C195 1.256 . S
O198 Cd199 2.300 . S
O198 C205 1.275 . S
Cd199 O198 2.300 . S
Cd199 O207 2.381 . S
Cd199 O208 2.378 . S
O200 Cd201 2.385 . S
O200 C205 1.255 . S
Cd201 O200 2.385 . S
Cd201 O202 2.317 . S
O202 Cd201 2.317 . S
O202 C203 1.232 . S
C203 O202 1.232 . S
C203 O204 1.218 . S
O204 C203 1.218 . S
C205 O198 1.275 . S
C205 O200 1.255 . S
C206 O207 1.258 . S
C206 O208 1.256 . S
O207 Cd199 2.381 . S
O207 C206 1.258 . S
O208 Cd199 2.378 . S
O208 C206 1.256 . S
O209 Cd210 2.300 1_554 S
O209 C216 1.275 . S
Cd210 O209 2.300 1_556 S
Cd210 O218 2.381 1_556 S
Cd210 O219 2.378 . S
O211 Cd212 2.385 . S
O211 C216 1.255 1_556 S
Cd212 O211 2.385 . S
Cd212 O213 2.317 . S
O213 Cd212 2.317 . S
O213 C214 1.232 . S
C214 O213 1.232 . S
C214 O215 1.218 . S
O215 C214 1.218 . S
C216 O209 1.275 . S
C216 O211 1.255 1_554 S
C217 O218 1.258 1_556 S
C217 O219 1.256 . S
O218 Cd210 2.381 1_554 S
O218 C217 1.258 1_554 S
O219 Cd210 2.378 . S
O219 C217 1.256 . S
O220 Cd221 2.300 . S
O220 C227 1.275 . S
Cd221 O220 2.300 . S
Cd221 O229 2.381 . S
Cd221 O230 2.378 . S
O222 Cd223 2.385 . S
O222 C227 1.255 . S
Cd223 O222 2.385 . S
Cd223 O224 2.317 . S
O224 Cd223 2.317 . S
O224 C225 1.232 . S
C225 O224 1.232 . S
C225 O226 1.218 . S
O226 C225 1.218 . S
C227 O220 1.275 . S
C227 O222 1.255 . S
C228 O229 1.258 . S
C228 O230 1.256 . S
O229 Cd221 2.381 . S
O229 C228 1.258 . S
O230 Cd221 2.378 . S
O230 C228 1.256 . S
O231 Cd232 2.300 1_655 S
O231 C238 1.275 . S
Cd232 O231 2.300 1_455 S
Cd232 O240 2.381 1_455 S
Cd232 O241 2.378 . S
O233 Cd234 2.385 . S
O233 C238 1.255 1_455 S
Cd234 O233 2.385 . S
Cd234 O235 2.317 . S
O235 Cd234 2.317 . S
O235 C236 1.232 . S
C236 O235 1.232 . S
C236 O237 1.218 . S
O237 C236 1.218 . S
C238 O231 1.275 . S
C238 O233 1.255 1_655 S
C239 O240 1.258 1_455 S
C239 O241 1.256 . S
O240 Cd232 2.381 1_655 S
O240 C239 1.258 1_655 S
O241 Cd232 2.378 . S
O241 C239 1.256 . S
O242 Cd243 2.300 . S
O242 C249 1.275 . S
Cd243 O242 2.300 . S
Cd243 O251 2.381 . S
Cd243 O252 2.378 . S
O244 Cd245 2.385 . S
O244 C249 1.255 . S
Cd245 O244 2.385 . S
Cd245 O246 2.317 . S
O246 Cd245 2.317 . S
O246 C247 1.232 . S
C247 O246 1.232 . S
C247 O248 1.218 . S
O248 C247 1.218 . S
C249 O242 1.275 . S
C249 O244 1.255 . S
C250 O251 1.258 . S
C250 O252 1.256 . S
O251 Cd243 2.381 . S
O251 C250 1.258 . S
O252 Cd243 2.378 . S
O252 C250 1.256 . S
O253 Cd254 2.300 1_455 S
O253 C260 1.275 . S
Cd254 O253 2.300 1_655 S
Cd254 O262 2.381 1_655 S
Cd254 O263 2.378 . S
O255 Cd256 2.385 . S
O255 C260 1.255 1_655 S
Cd256 O255 2.385 . S
Cd256 O257 2.317 . S
O257 Cd256 2.317 . S
O257 C258 1.232 . S
C258 O257 1.232 . S
C258 O259 1.218 . S
O259 C258 1.218 . S
C260 O253 1.275 . S
C260 O255 1.255 1_455 S
C261 O262 1.258 1_655 S
C261 O263 1.256 . S
O262 Cd254 2.381 1_455 S
O262 C261 1.258 1_455 S
O263 Cd254 2.378 . S
O263 C261 1.256 . S
C264 C265 1.391 . S
C264 C268 1.391 . S
C264 H306 0.948 . S
C265 C264 1.391 . S
C265 C266 1.391 . S
C266 C265 1.391 . S
C266 H322 0.947 . S
C266 C323 1.392 . S
C267 C268 1.391 . S
C267 C271 1.397 . S
C267 C323 1.419 . S
C268 C264 1.391 . S
C268 C267 1.391 . S
C268 C269 1.399 . S
C269 C268 1.399 . S
C269 C272 1.396 . S
C269 C281 1.453 . S
C269 C282 1.684 . S
H270 C294 0.948 . S
C271 C267 1.397 . S
C271 C272 1.394 . S
C271 C290 1.723 . S
C272 C269 1.396 . S
C272 C271 1.394 . S
C272 C302 1.723 . S
H273 C296 0.947 . S
H274 C297 0.948 . S
H275 C303 0.982 . S
H276 C304 0.979 . S
H277 C304 0.980 . S
H278 C304 0.983 . S
H279 C303 0.979 . S
H280 C303 0.977 . S
C281 C269 1.453 . S
C281 H310 0.982 . S
C281 H311 0.979 . S
C281 H312 0.977 . S
C282 C269 1.684 . S
C282 H307 0.979 . S
C282 H308 0.980 . S
C282 H309 0.983 . S
C283 C284 1.391 . S
C283 C288 1.391 . S
C283 H313 0.948 . S
C284 C283 1.391 . S
C284 C285 1.391 . S
C285 C284 1.391 . S
C285 C286 1.392 . S
C285 H314 0.947 . S
C286 C285 1.392 . S
C286 C287 1.419 . S
C286 H315 0.948 . S
C287 C286 1.419 . S
C287 C288 1.391 . S
C287 C291 1.397 . S
C288 C283 1.391 . S
C288 C287 1.391 . S
C288 C289 1.399 . S
C289 C288 1.399 . S
C289 C290 1.396 . S
C289 C292 1.453 . S
C289 C293 1.684 . S
C290 C271 1.723 . S
C290 C289 1.396 . S
C290 C291 1.394 . S
C291 C287 1.397 . S
C291 C290 1.394 . S
C291 C301 1.723 . S
C292 C289 1.453 . S
C292 H316 0.982 . S
C292 H317 0.979 . S
C292 H318 0.977 . S
C293 C289 1.684 . S
C293 H319 0.979 . S
C293 H320 0.980 . S
C293 H321 0.983 . S
C294 H270 0.948 . S
C294 C295 1.391 . S
C294 C299 1.391 . S
C295 C294 1.391 . S
C295 C296 1.391 . S
C296 H273 0.947 . S
C296 C295 1.391 . S
C296 C297 1.392 . S
C297 H274 0.948 . S
C297 C296 1.392 . S
C297 C298 1.419 . S
C298 C297 1.419 . S
C298 C299 1.391 . S
C298 C302 1.397 . S
C299 C294 1.391 . S
C299 C298 1.391 . S
C299 C300 1.399 . S
C300 C299 1.399 . S
C300 C301 1.396 . S
C300 C303 1.453 . S
C300 C304 1.684 . S
C301 C291 1.723 . S
C301 C300 1.396 . S
C301 C302 1.394 . S
C302 C272 1.723 . S
C302 C298 1.397 . S
C302 C301 1.394 . S
C303 H275 0.982 . S
C303 H279 0.979 . S
C303 H280 0.977 . S
C303 C300 1.453 . S
C304 H276 0.979 . S
C304 H277 0.980 . S
C304 H278 0.983 . S
C304 C300 1.684 . S
H305 C323 0.948 . S
H306 C264 0.948 . S
H307 C282 0.979 . S
H308 C282 0.980 . S
H309 C282 0.983 . S
H310 C281 0.982 . S
H311 C281 0.979 . S
H312 C281 0.977 . S
H313 C283 0.948 . S
H314 C285 0.947 . S
H315 C286 0.948 . S
H316 C292 0.982 . S
H317 C292 0.979 . S
H318 C292 0.977 . S
H319 C293 0.979 . S
H320 C293 0.980 . S
H321 C293 0.983 . S
H322 C266 0.947 . S
C323 C266 1.392 . S
C323 C267 1.419 . S
C323 H305 0.948 . S
C324 C325 1.391 . S
C324 C328 1.391 . S
C324 H366 0.948 . S
C325 C324 1.391 . S
C325 C326 1.391 . S
C326 C325 1.391 . S
C326 H382 0.947 . S
C326 C383 1.392 . S
C327 C328 1.391 . S
C327 C331 1.397 . S
C327 C383 1.419 . S
C328 C324 1.391 . S
C328 C327 1.391 . S
C328 C329 1.399 . S
C329 C328 1.399 . S
C329 C332 1.396 . S
C329 C341 1.453 . S
C329 C342 1.684 . S
H330 C354 0.948 . S
C331 C327 1.397 . S
C331 C332 1.394 . S
C331 C350 1.723 . S
C332 C329 1.396 . S
C332 C331 1.394 . S
C332 C362 1.723 . S
H333 C356 0.947 . S
H334 C357 0.948 . S
H335 C363 0.982 . S
H336 C364 0.979 . S
H337 C364 0.980 . S
H338 C364 0.983 . S
H339 C363 0.979 . S
H340 C363 0.977 . S
C341 C329 1.453 . S
C341 H370 0.982 . S
C341 H371 0.979 . S
C341 H372 0.977 . S
C342 C329 1.684 . S
C342 H367 0.979 . S
C342 H368 0.980 . S
C342 H369 0.983 1_556 S
C343 C344 1.391 . S
C343 C348 1.391 . S
C343 H373 0.948 . S
C344 C343 1.391 . S
C344 C345 1.391 . S
C345 C344 1.391 . S
C345 C346 1.392 . S
C345 H374 0.947 . S
C346 C345 1.392 . S
C346 C347 1.419 . S
C346 H375 0.948 . S
C347 C346 1.419 . S
C347 C348 1.391 . S
C347 C351 1.397 . S
C348 C343 1.391 . S
C348 C347 1.391 . S
C348 C349 1.399 . S
C349 C348 1.399 . S
C349 C350 1.396 . S
C349 C352 1.453 . S
C349 C353 1.684 . S
C350 C331 1.723 . S
C350 C349 1.396 . S
C350 C351 1.394 . S
C351 C347 1.397 . S
C351 C350 1.394 . S
C351 C361 1.723 . S
C352 C349 1.453 . S
C352 H376 0.982 . S
C352 H377 0.979 . S
C352 H378 0.977 . S
C353 C349 1.684 . S
C353 H379 0.979 . S
C353 H380 0.980 . S
C353 H381 0.983 . S
C354 H330 0.948 . S
C354 C355 1.391 . S
C354 C359 1.391 . S
C355 C354 1.391 . S
C355 C356 1.391 . S
C356 H333 0.947 . S
C356 C355 1.391 . S
C356 C357 1.392 . S
C357 H334 0.948 . S
C357 C356 1.392 . S
C357 C358 1.419 . S
C358 C357 1.419 . S
C358 C359 1.391 . S
C358 C362 1.397 . S
C359 C354 1.391 . S
C359 C358 1.391 . S
C359 C360 1.399 . S
C360 C359 1.399 . S
C360 C361 1.396 . S
C360 C363 1.453 . S
C360 C364 1.684 . S
C361 C351 1.723 . S
C361 C360 1.396 . S
C361 C362 1.394 . S
C362 C332 1.723 . S
C362 C358 1.397 . S
C362 C361 1.394 . S
C363 H335 0.982 . S
C363 H339 0.979 . S
C363 H340 0.977 . S
C363 C360 1.453 . S
C364 H336 0.979 . S
C364 H337 0.980 . S
C364 H338 0.983 . S
C364 C360 1.684 . S
H365 C383 0.948 . S
H366 C324 0.948 . S
H367 C342 0.979 . S
H368 C342 0.980 . S
H369 C342 0.983 1_554 S
H370 C341 0.982 . S
H371 C341 0.979 . S
H372 C341 0.977 . S
H373 C343 0.948 . S
H374 C345 0.947 . S
H375 C346 0.948 . S
H376 C352 0.982 . S
H377 C352 0.979 . S
H378 C352 0.977 . S
H379 C353 0.979 . S
H380 C353 0.980 . S
H381 C353 0.983 . S
H382 C326 0.947 . S
C383 C326 1.392 . S
C383 C327 1.419 . S
C383 H365 0.948 . S
C384 C385 1.391 . S
C384 C388 1.391 . S
C384 H426 0.948 . S
C385 C384 1.391 . S
C385 C386 1.391 . S
C386 C385 1.391 . S
C386 H442 0.947 . S
C386 C443 1.392 . S
C387 C388 1.391 . S
C387 C391 1.397 . S
C387 C443 1.419 . S
C388 C384 1.391 . S
C388 C387 1.391 . S
C388 C389 1.399 . S
C389 C388 1.399 . S
C389 C392 1.396 . S
C389 C401 1.453 . S
C389 C402 1.684 . S
H390 C414 0.948 . S
C391 C387 1.397 . S
C391 C392 1.394 . S
C391 C410 1.723 . S
C392 C389 1.396 . S
C392 C391 1.394 . S
C392 C422 1.723 1_545 S
H393 C416 0.947 . S
H394 C417 0.948 . S
H395 C423 0.982 . S
H396 C424 0.979 . S
H397 C424 0.980 . S
H398 C424 0.983 . S
H399 C423 0.979 . S
H400 C423 0.977 . S
C401 C389 1.453 . S
C401 H430 0.982 . S
C401 H431 0.979 . S
C401 H432 0.977 1_545 S
C402 C389 1.684 . S
C402 H427 0.979 . S
C402 H428 0.980 1_545 S
C402 H429 0.983 . S
C403 C404 1.391 . S
C403 C408 1.391 . S
C403 H433 0.948 . S
C404 C403 1.391 . S
C404 C405 1.391 1_545 S
C405 C404 1.391 1_565 S
C405 C406 1.392 . S
C405 H434 0.947 . S
C406 C405 1.392 . S
C406 C407 1.419 . S
C406 H435 0.948 . S
C407 C406 1.419 . S
C407 C408 1.391 1_565 S
C407 C411 1.397 . S
C408 C403 1.391 . S
C408 C407 1.391 1_545 S
C408 C409 1.399 . S
C409 C408 1.399 . S
C409 C410 1.396 . S
C409 C412 1.453 . S
C409 C413 1.684 . S
C410 C391 1.723 . S
C410 C409 1.396 . S
C410 C411 1.394 1_545 S
C411 C407 1.397 . S
C411 C410 1.394 1_565 S
C411 C421 1.723 . S
C412 C409 1.453 . S
C412 H436 0.982 . S
C412 H437 0.979 . S
C412 H438 0.977 . S
C413 C409 1.684 . S
C413 H439 0.979 . S
C413 H440 0.980 . S
C413 H441 0.983 . S
C414 H390 0.948 . S
C414 C415 1.391 . S
C414 C419 1.391 . S
C415 C414 1.391 . S
C415 C416 1.391 . S
C416 H393 0.947 . S
C416 C415 1.391 . S
C416 C417 1.392 . S
C417 H394 0.948 . S
C417 C416 1.392 . S
C417 C418 1.419 . S
C418 C417 1.419 . S
C418 C419 1.391 . S
C418 C422 1.397 . S
C419 C414 1.391 . S
C419 C418 1.391 . S
C419 C420 1.399 . S
C420 C419 1.399 . S
C420 C421 1.396 . S
C420 C423 1.453 . S
C420 C424 1.684 . S
C421 C411 1.723 . S
C421 C420 1.396 . S
C421 C422 1.394 . S
C422 C392 1.723 1_565 S
C422 C418 1.397 . S
C422 C421 1.394 . S
C423 H395 0.982 . S
C423 H399 0.979 . S
C423 H400 0.977 . S
C423 C420 1.453 . S
C424 H396 0.979 . S
C424 H397 0.980 . S
C424 H398 0.983 . S
C424 C420 1.684 . S
H425 C443 0.948 . S
H426 C384 0.948 . S
H427 C402 0.979 . S
H428 C402 0.980 1_565 S
H429 C402 0.983 . S
H430 C401 0.982 . S
H431 C401 0.979 . S
H432 C401 0.977 1_565 S
H433 C403 0.948 . S
H434 C405 0.947 . S
H435 C406 0.948 . S
H436 C412 0.982 . S
H437 C412 0.979 . S
H438 C412 0.977 . S
H439 C413 0.979 . S
H440 C413 0.980 . S
H441 C413 0.983 . S
H442 C386 0.947 . S
C443 C386 1.392 . S
C443 C387 1.419 . S
C443 H425 0.948 . S
C444 C445 1.391 . S
C444 C448 1.391 . S
C444 H486 0.948 . S
C445 C444 1.391 . S
C445 C446 1.391 . S
C446 C445 1.391 . S
C446 H502 0.947 . S
C446 C503 1.392 . S
C447 C448 1.391 . S
C447 C451 1.397 . S
C447 C503 1.419 . S
C448 C444 1.391 . S
C448 C447 1.391 . S
C448 C449 1.399 . S
C449 C448 1.399 . S
C449 C452 1.396 . S
C449 C461 1.453 . S
C449 C462 1.684 . S
H450 C474 0.948 . S
C451 C447 1.397 . S
C451 C452 1.394 . S
C451 C470 1.723 . S
C452 C449 1.396 . S
C452 C451 1.394 . S
C452 C482 1.723 1_545 S
H453 C476 0.947 1_556 S
H454 C477 0.948 . S
H455 C483 0.982 . S
H456 C484 0.979 . S
H457 C484 0.980 . S
H458 C484 0.983 . S
H459 C483 0.979 . S
H460 C483 0.977 . S
C461 C449 1.453 . S
C461 H490 0.982 . S
C461 H491 0.979 1_554 S
C461 H492 0.977 1_545 S
C462 C449 1.684 . S
C462 H487 0.979 . S
C462 H488 0.980 1_545 S
C462 H489 0.983 1_554 S
C463 C464 1.391 1_545 S
C463 C468 1.391 . S
C463 H493 0.948 . S
C464 C463 1.391 1_565 S
C464 C465 1.391 . S
C465 C464 1.391 . S
C465 C466 1.392 . S
C465 H494 0.947 . S
C466 C465 1.392 . S
C466 C467 1.419 . S
C466 H495 0.948 . S
C467 C466 1.419 . S
C467 C468 1.391 1_565 S
C467 C471 1.397 . S
C468 C463 1.391 . S
C468 C467 1.391 1_545 S
C468 C469 1.399 . S
C469 C468 1.399 . S
C469 C470 1.396 . S
C469 C472 1.453 . S
C469 C473 1.684 . S
C470 C451 1.723 . S
C470 C469 1.396 . S
C470 C471 1.394 1_545 S
C471 C467 1.397 . S
C471 C470 1.394 1_565 S
C471 C481 1.723 . S
C472 C469 1.453 . S
C472 H496 0.982 . S
C472 H497 0.979 . S
C472 H498 0.977 . S
C473 C469 1.684 . S
C473 H499 0.979 . S
C473 H500 0.980 . S
C473 H501 0.983 . S
C474 H450 0.948 . S
C474 C475 1.391 . S
C474 C479 1.391 . S
C475 C474 1.391 . S
C475 C476 1.391 . S
C476 H453 0.947 1_554 S
C476 C475 1.391 . S
C476 C477 1.392 . S
C477 H454 0.948 . S
C477 C476 1.392 . S
C477 C478 1.419 . S
C478 C477 1.419 . S
C478 C479 1.391 . S
C478 C482 1.397 . S
C479 C474 1.391 . S
C479 C478 1.391 . S
C479 C480 1.399 . S
C480 C479 1.399 . S
C480 C481 1.396 . S
C480 C483 1.453 . S
C480 C484 1.684 . S
C481 C471 1.723 . S
C481 C480 1.396 . S
C481 C482 1.394 . S
C482 C452 1.723 1_565 S
C482 C478 1.397 . S
C482 C481 1.394 . S
C483 H455 0.982 . S
C483 H459 0.979 . S
C483 H460 0.977 . S
C483 C480 1.453 . S
C484 H456 0.979 . S
C484 H457 0.980 . S
C484 H458 0.983 . S
C484 C480 1.684 . S
H485 C503 0.948 . S
H486 C444 0.948 . S
H487 C462 0.979 . S
H488 C462 0.980 1_565 S
H489 C462 0.983 1_556 S
H490 C461 0.982 . S
H491 C461 0.979 1_556 S
H492 C461 0.977 1_565 S
H493 C463 0.948 . S
H494 C465 0.947 . S
H495 C466 0.948 . S
H496 C472 0.982 . S
H497 C472 0.979 . S
H498 C472 0.977 . S
H499 C473 0.979 . S
H500 C473 0.980 . S
H501 C473 0.983 . S
H502 C446 0.947 . S
C503 C446 1.392 . S
C503 C447 1.419 . S
C503 H485 0.948 . S
C504 C505 1.391 . S
C504 C508 1.391 . S
C504 H546 0.948 . S
C505 C504 1.391 . S
C505 C506 1.391 . S
C506 C505 1.391 . S
C506 H562 0.947 . S
C506 C563 1.392 . S
C507 C508 1.391 . S
C507 C511 1.397 . S
C507 C563 1.419 . S
C508 C504 1.391 . S
C508 C507 1.391 . S
C508 C509 1.399 . S
C509 C508 1.399 . S
C509 C512 1.396 . S
C509 C521 1.453 . S
C509 C522 1.684 . S
H510 C534 0.948 . S
C511 C507 1.397 . S
C511 C512 1.394 . S
C511 C530 1.723 . S
C512 C509 1.396 . S
C512 C511 1.394 . S
C512 C542 1.723 . S
H513 C536 0.947 . S
H514 C537 0.948 . S
H515 C543 0.982 . S
H516 C544 0.979 . S
H517 C544 0.980 . S
H518 C544 0.983 . S
H519 C543 0.979 . S
H520 C543 0.977 . S
C521 C509 1.453 . S
C521 H550 0.982 . S
C521 H551 0.979 . S
C521 H552 0.977 . S
C522 C509 1.684 . S
C522 H547 0.979 . S
C522 H548 0.980 . S
C522 H549 0.983 . S
C523 C524 1.391 . S
C523 C528 1.391 . S
C523 H553 0.948 . S
C524 C523 1.391 . S
C524 C525 1.391 . S
C525 C524 1.391 . S
C525 C526 1.392 . S
C525 H554 0.947 . S
C526 C525 1.392 . S
C526 C527 1.419 . S
C526 H555 0.948 . S
C527 C526 1.419 . S
C527 C528 1.391 . S
C527 C531 1.397 . S
C528 C523 1.391 . S
C528 C527 1.391 . S
C528 C529 1.399 . S
C529 C528 1.399 . S
C529 C530 1.396 . S
C529 C532 1.453 . S
C529 C533 1.684 . S
C530 C511 1.723 . S
C530 C529 1.396 . S
C530 C531 1.394 . S
C531 C527 1.397 . S
C531 C530 1.394 . S
C531 C541 1.723 . S
C532 C529 1.453 . S
C532 H556 0.982 . S
C532 H557 0.979 . S
C532 H558 0.977 . S
C533 C529 1.684 . S
C533 H559 0.979 . S
C533 H560 0.980 . S
C533 H561 0.983 . S
C534 H510 0.948 . S
C534 C535 1.391 . S
C534 C539 1.391 . S
C535 C534 1.391 . S
C535 C536 1.391 . S
C536 H513 0.947 . S
C536 C535 1.391 . S
C536 C537 1.392 . S
C537 H514 0.948 . S
C537 C536 1.392 . S
C537 C538 1.419 . S
C538 C537 1.419 . S
C538 C539 1.391 . S
C538 C542 1.397 . S
C539 C534 1.391 . S
C539 C538 1.391 . S
C539 C540 1.399 . S
C540 C539 1.399 . S
C540 C541 1.396 . S
C540 C543 1.453 . S
C540 C544 1.684 . S
C541 C531 1.723 . S
C541 C540 1.396 . S
C541 C542 1.394 . S
C542 C512 1.723 . S
C542 C538 1.397 . S
C542 C541 1.394 . S
C543 H515 0.982 . S
C543 H519 0.979 . S
C543 H520 0.977 . S
C543 C540 1.453 . S
C544 H516 0.979 . S
C544 H517 0.980 . S
C544 H518 0.983 . S
C544 C540 1.684 . S
H545 C563 0.948 . S
H546 C504 0.948 . S
H547 C522 0.979 . S
H548 C522 0.980 . S
H549 C522 0.983 . S
H550 C521 0.982 . S
H551 C521 0.979 . S
H552 C521 0.977 . S
H553 C523 0.948 . S
H554 C525 0.947 . S
H555 C526 0.948 . S
H556 C532 0.982 . S
H557 C532 0.979 . S
H558 C532 0.977 . S
H559 C533 0.979 . S
H560 C533 0.980 . S
H561 C533 0.983 . S
H562 C506 0.947 . S
C563 C506 1.392 . S
C563 C507 1.419 . S
C563 H545 0.948 . S
C564 C565 1.391 1_556 S
C564 C568 1.391 . S
C564 H606 0.948 . S
C565 C564 1.391 1_554 S
C565 C566 1.391 . S
C566 C565 1.391 . S
C566 H622 0.947 . S
C566 C623 1.392 . S
C567 C568 1.391 1_554 S
C567 C571 1.397 . S
C567 C623 1.419 . S
C568 C564 1.391 . S
C568 C567 1.391 1_556 S
C568 C569 1.399 . S
C569 C568 1.399 . S
C569 C572 1.396 . S
C569 C581 1.453 . S
C569 C582 1.684 . S
H570 C594 0.912 1_655 S
C571 C567 1.397 . S
C571 C572 1.394 1_554 S
C571 C590 1.723 . S
C572 C569 1.396 . S
C572 C571 1.394 1_556 S
C572 C602 1.723 . S
H573 C596 0.947 . S
H574 C597 0.948 . S
H575 C603 0.982 . S
H576 C604 0.979 . S
H577 C604 0.980 1_554 S
H578 C604 0.983 1_655 S
H579 C603 0.979 1_655 S
H580 C603 0.977 1_554 S
C581 C569 1.453 . S
C581 H610 0.982 . S
C581 H611 0.979 . S
C581 H612 0.977 . S
C582 C569 1.684 . S
C582 H607 0.979 . S
C582 H608 0.980 . S
C582 H609 0.983 . S
C583 C584 1.391 . S
C583 C588 1.391 . S
C583 H613 0.948 . S
C584 C583 1.391 . S
C584 C585 1.391 . S
C585 C584 1.391 . S
C585 C586 1.392 . S
C585 H614 0.947 1_455 S
C586 C585 1.392 . S
C586 C587 1.419 . S
C586 H615 0.948 . S
C587 C586 1.419 . S
C587 C588 1.391 . S
C587 C591 1.397 . S
C588 C583 1.391 . S
C588 C587 1.391 . S
C588 C589 1.399 . S
C589 C588 1.399 . S
C589 C590 1.396 . S
C589 C592 1.453 . S
C589 C593 1.684 . S
C590 C571 1.723 . S
C590 C589 1.396 . S
C590 C591 1.394 . S
C591 C587 1.397 . S
C591 C590 1.394 . S
C591 C601 1.723 1_554 S
C592 C589 1.453 . S
C592 H616 0.982 . S
C592 H617 0.979 . S
C592 H618 0.977 . S
C593 C589 1.684 . S
C593 H619 0.979 . S
C593 H620 0.980 . S
C593 H621 0.983 . S
C594 H570 0.912 1_455 S
C594 C595 1.391 . S
C594 C599 1.391 . S
C595 C594 1.391 . S
C595 C596 1.391 . S
C596 H573 0.947 . S
C596 C595 1.391 . S
C596 C597 1.392 . S
C597 H574 0.948 . S
C597 C596 1.392 . S
C597 C598 1.419 . S
C598 C597 1.419 . S
C598 C599 1.391 . S
C598 C602 1.397 . S
C599 C594 1.391 . S
C599 C598 1.391 . S
C599 C600 1.399 . S
C600 C599 1.399 . S
C600 C601 1.396 . S
C600 C603 1.453 . S
C600 C604 1.684 . S
C601 C591 1.723 1_556 S
C601 C600 1.396 . S
C601 C602 1.394 . S
C602 C572 1.723 . S
C602 C598 1.397 . S
C602 C601 1.394 . S
C603 H575 0.982 . S
C603 H579 0.979 1_455 S
C603 H580 0.977 1_556 S
C603 C600 1.453 . S
C604 H576 0.979 . S
C604 H577 0.980 1_556 S
C604 H578 0.983 1_455 S
C604 C600 1.684 . S
H605 C623 0.948 . S
H606 C564 0.948 . S
H607 C582 0.979 . S
H608 C582 0.980 . S
H609 C582 0.983 . S
H610 C581 0.982 . S
H611 C581 0.979 . S
H612 C581 0.977 . S
H613 C583 0.948 . S
H614 C585 0.947 1_655 S
H615 C586 0.948 . S
H616 C592 0.982 . S
H617 C592 0.979 . S
H618 C592 0.977 . S
H619 C593 0.979 . S
H620 C593 0.980 . S
H621 C593 0.983 . S
H622 C566 0.947 . S
C623 C566 1.392 . S
C623 C567 1.419 . S
C623 H605 0.948 . S
C624 C625 1.391 . S
C624 C628 1.391 . S
C624 H666 0.948 . S
C625 C624 1.391 . S
C625 C626 1.391 . S
C626 C625 1.391 . S
C626 H682 0.947 . S
C626 C683 1.392 . S
C627 C628 1.391 . S
C627 C631 1.397 . S
C627 C683 1.419 . S
C628 C624 1.391 . S
C628 C627 1.391 . S
C628 C629 1.399 . S
C629 C628 1.399 . S
C629 C632 1.396 . S
C629 C641 1.453 . S
C629 C642 1.684 . S
H630 C654 0.948 . S
C631 C627 1.397 . S
C631 C632 1.394 . S
C631 C650 1.723 . S
C632 C629 1.396 . S
C632 C631 1.394 . S
C632 C662 1.723 . S
H633 C656 0.947 . S
H634 C657 0.948 . S
H635 C663 0.982 . S
H636 C664 0.979 . S
H637 C664 0.980 . S
H638 C664 0.983 . S
H639 C663 0.979 . S
H640 C663 0.977 . S
C641 C629 1.453 . S
C641 H670 0.982 . S
C641 H671 0.979 . S
C641 H672 0.977 . S
C642 C629 1.684 . S
C642 H667 0.979 . S
C642 H668 0.980 . S
C642 H669 0.983 . S
C643 C644 1.391 . S
C643 C648 1.391 . S
C643 H673 0.948 . S
C644 C643 1.391 . S
C644 C645 1.391 . S
C645 C644 1.391 . S
C645 C646 1.392 . S
C645 H674 0.947 . S
C646 C645 1.392 . S
C646 C647 1.419 . S
C646 H675 0.948 . S
C647 C646 1.419 . S
C647 C648 1.391 . S
C647 C651 1.397 . S
C648 C643 1.391 . S
C648 C647 1.391 . S
C648 C649 1.399 . S
C649 C648 1.399 . S
C649 C650 1.396 . S
C649 C652 1.453 . S
C649 C653 1.684 . S
C650 C631 1.723 . S
C650 C649 1.396 . S
C650 C651 1.394 . S
C651 C647 1.397 . S
C651 C650 1.394 . S
C651 C661 1.723 . S
C652 C649 1.453 . S
C652 H676 0.982 . S
C652 H677 0.979 . S
C652 H678 0.977 . S
C653 C649 1.684 . S
C653 H679 0.979 . S
C653 H680 0.980 . S
C653 H681 0.983 1_655 S
C654 H630 0.948 . S
C654 C655 1.391 . S
C654 C659 1.391 . S
C655 C654 1.391 . S
C655 C656 1.391 . S
C656 H633 0.947 . S
C656 C655 1.391 . S
C656 C657 1.392 . S
C657 H634 0.948 . S
C657 C656 1.392 . S
C657 C658 1.419 . S
C658 C657 1.419 . S
C658 C659 1.391 . S
C658 C662 1.397 . S
C659 C654 1.391 . S
C659 C658 1.391 . S
C659 C660 1.399 . S
C660 C659 1.399 . S
C660 C661 1.396 . S
C660 C663 1.453 . S
C660 C664 1.684 . S
C661 C651 1.723 . S
C661 C660 1.396 . S
C661 C662 1.394 . S
C662 C632 1.723 . S
C662 C658 1.397 . S
C662 C661 1.394 . S
C663 H635 0.982 . S
C663 H639 0.979 . S
C663 H640 0.977 . S
C663 C660 1.453 . S
C664 H636 0.979 . S
C664 H637 0.980 . S
C664 H638 0.983 . S
C664 C660 1.684 . S
H665 C683 0.948 . S
H666 C624 0.948 . S
H667 C642 0.979 . S
H668 C642 0.980 . S
H669 C642 0.983 . S
H670 C641 0.982 . S
H671 C641 0.979 . S
H672 C641 0.977 . S
H673 C643 0.948 . S
H674 C645 0.947 . S
H675 C646 0.948 . S
H676 C652 0.982 . S
H677 C652 0.979 . S
H678 C652 0.977 . S
H679 C653 0.979 . S
H680 C653 0.980 . S
H681 C653 0.983 1_455 S
H682 C626 0.947 . S
C683 C626 1.392 . S
C683 C627 1.419 . S
C683 H665 0.948 . S
C684 C685 1.391 . S
C684 C688 1.391 . S
C684 H726 0.948 . S
C685 C684 1.391 . S
C685 C686 1.391 1_554 S
C686 C685 1.391 1_556 S
C686 H742 0.947 . S
C686 C743 1.392 . S
C687 C688 1.391 1_556 S
C687 C691 1.397 . S
C687 C743 1.419 . S
C688 C684 1.391 . S
C688 C687 1.391 1_554 S
C688 C689 1.399 . S
C689 C688 1.399 . S
C689 C692 1.396 . S
C689 C701 1.453 . S
C689 C702 1.684 . S
H690 C714 0.948 . S
C691 C687 1.397 . S
C691 C692 1.394 1_556 S
C691 C710 1.723 . S
C692 C689 1.396 . S
C692 C691 1.394 1_554 S
C692 C722 1.723 . S
H693 C716 0.947 . S
H694 C717 0.948 . S
H695 C723 0.982 . S
H696 C724 0.979 . S
H697 C724 0.980 1_556 S
H698 C724 0.983 . S
H699 C723 0.979 . S
H700 C723 0.977 1_556 S
C701 C689 1.453 . S
C701 H730 0.982 . S
C701 H731 0.979 . S
C701 H732 0.977 . S
C702 C689 1.684 . S
C702 H727 0.979 . S
C702 H728 0.980 . S
C702 H729 0.983 . S
C703 C704 1.391 . S
C703 C708 1.391 . S
C703 H733 0.948 . S
C704 C703 1.391 . S
C704 C705 1.391 . S
C705 C704 1.391 . S
C705 C706 1.392 . S
C705 H734 0.947 . S
C706 C705 1.392 . S
C706 C707 1.419 . S
C706 H735 0.948 . S
C707 C706 1.419 . S
C707 C708 1.391 . S
C707 C711 1.397 . S
C708 C703 1.391 . S
C708 C707 1.391 . S
C708 C709 1.399 . S
C709 C708 1.399 . S
C709 C710 1.396 . S
C709 C712 1.453 . S
C709 C713 1.684 . S
C710 C691 1.723 . S
C710 C709 1.396 . S
C710 C711 1.394 . S
C711 C707 1.397 . S
C711 C710 1.394 . S
C711 C721 1.723 1_556 S
C712 C709 1.453 . S
C712 H736 0.982 . S
C712 H737 0.979 . S
C712 H738 0.977 . S
C713 C709 1.684 . S
C713 H739 0.979 . S
C713 H740 0.980 . S
C713 H741 0.983 . S
C714 H690 0.948 . S
C714 C715 1.391 . S
C714 C719 1.391 . S
C715 C714 1.391 . S
C715 C716 1.391 . S
C716 H693 0.947 . S
C716 C715 1.391 . S
C716 C717 1.392 . S
C717 H694 0.948 . S
C717 C716 1.392 . S
C717 C718 1.419 . S
C718 C717 1.419 . S
C718 C719 1.391 . S
C718 C722 1.397 . S
C719 C714 1.391 . S
C719 C718 1.391 . S
C719 C720 1.399 . S
C720 C719 1.399 . S
C720 C721 1.396 . S
C720 C723 1.453 . S
C720 C724 1.684 . S
C721 C711 1.723 1_554 S
C721 C720 1.396 . S
C721 C722 1.394 . S
C722 C692 1.723 . S
C722 C718 1.397 . S
C722 C721 1.394 . S
C723 H695 0.982 . S
C723 H699 0.979 . S
C723 H700 0.977 1_554 S
C723 C720 1.453 . S
C724 H696 0.979 . S
C724 H697 0.980 1_554 S
C724 H698 0.983 . S
C724 C720 1.684 . S
H725 C743 0.948 . S
H726 C684 0.948 . S
H727 C702 0.979 . S
H728 C702 0.980 . S
H729 C702 0.983 . S
H730 C701 0.982 . S
H731 C701 0.979 . S
H732 C701 0.977 . S
H733 C703 0.948 . S
H734 C705 0.947 . S
H735 C706 0.948 . S
H736 C712 0.982 . S
H737 C712 0.979 . S
H738 C712 0.977 . S
H739 C713 0.979 . S
H740 C713 0.980 . S
H741 C713 0.983 . S
H742 C686 0.947 . S
C743 C686 1.392 . S
C743 C687 1.419 . S
C743 H725 0.948 . S
C744 C745 1.391 . S
C744 C748 1.391 . S
C744 H786 0.948 . S
C745 C744 1.391 . S
C745 C746 1.391 . S
C746 C745 1.391 . S
C746 H802 0.947 . S
C746 C803 1.392 . S
C747 C748 1.391 . S
C747 C751 1.397 . S
C747 C803 1.419 . S
C748 C744 1.391 . S
C748 C747 1.391 . S
C748 C749 1.399 . S
C749 C748 1.399 . S
C749 C752 1.396 . S
C749 C761 1.453 . S
C749 C762 1.684 . S
H750 C774 0.948 . S
C751 C747 1.397 . S
C751 C752 1.394 . S
C751 C770 1.723 . S
C752 C749 1.396 . S
C752 C751 1.394 . S
C752 C782 1.723 . S
H753 C776 0.947 . S
H754 C777 0.948 . S
H755 C783 0.982 . S
H756 C784 0.979 . S
H757 C784 0.980 . S
H758 C784 0.983 . S
H759 C783 0.979 . S
H760 C783 0.977 . S
C761 C749 1.453 . S
C761 H790 0.982 . S
C761 H791 0.979 . S
C761 H792 0.977 . S
C762 C749 1.684 . S
C762 H787 0.979 . S
C762 H788 0.980 . S
C762 H789 0.983 . S
C763 C764 1.391 . S
C763 C768 1.391 . S
C763 H793 0.948 . S
C764 C763 1.391 . S
C764 C765 1.391 . S
C765 C764 1.391 . S
C765 C766 1.392 . S
C765 H794 0.947 . S
C766 C765 1.392 . S
C766 C767 1.419 . S
C766 H795 0.948 . S
C767 C766 1.419 . S
C767 C768 1.391 . S
C767 C771 1.397 . S
C768 C763 1.391 . S
C768 C767 1.391 . S
C768 C769 1.399 . S
C769 C768 1.399 . S
C769 C770 1.396 . S
C769 C772 1.453 . S
C769 C773 1.684 . S
C770 C751 1.723 . S
C770 C769 1.396 . S
C770 C771 1.394 . S
C771 C767 1.397 . S
C771 C770 1.394 . S
C771 C781 1.723 . S
C772 C769 1.453 . S
C772 H796 0.982 . S
C772 H797 0.979 . S
C772 H798 0.977 . S
C773 C769 1.684 . S
C773 H799 0.979 . S
C773 H800 0.980 . S
C773 H801 0.983 . S
C774 H750 0.948 . S
C774 C775 1.391 . S
C774 C779 1.391 . S
C775 C774 1.391 . S
C775 C776 1.391 . S
C776 H753 0.947 . S
C776 C775 1.391 . S
C776 C777 1.392 . S
C777 H754 0.948 . S
C777 C776 1.392 . S
C777 C778 1.419 . S
C778 C777 1.419 . S
C778 C779 1.391 . S
C778 C782 1.397 . S
C779 C774 1.391 . S
C779 C778 1.391 . S
C779 C780 1.399 . S
C780 C779 1.399 . S
C780 C781 1.396 . S
C780 C783 1.453 . S
C780 C784 1.684 . S
C781 C771 1.723 . S
C781 C780 1.396 . S
C781 C782 1.394 . S
C782 C752 1.723 . S
C782 C778 1.397 . S
C782 C781 1.394 . S
C783 H755 0.982 . S
C783 H759 0.979 . S
C783 H760 0.977 . S
C783 C780 1.453 . S
C784 H756 0.979 . S
C784 H757 0.980 . S
C784 H758 0.983 . S
C784 C780 1.684 . S
H785 C803 0.948 . S
H786 C744 0.948 . S
H787 C762 0.979 . S
H788 C762 0.980 . S
H789 C762 0.983 . S
H790 C761 0.982 . S
H791 C761 0.979 . S
H792 C761 0.977 . S
H793 C763 0.948 . S
H794 C765 0.947 . S
H795 C766 0.948 . S
H796 C772 0.982 . S
H797 C772 0.979 . S
H798 C772 0.977 . S
H799 C773 0.979 . S
H800 C773 0.980 . S
H801 C773 0.983 . S
H802 C746 0.947 . S
C803 C746 1.392 . S
C803 C747 1.419 . S
C803 H785 0.948 . S
C804 C805 1.391 . S
C804 C808 1.391 . S
C804 H846 0.948 . S
C805 C804 1.391 . S
C805 C806 1.391 . S
C806 C805 1.391 . S
C806 H862 0.947 . S
C806 C863 1.392 . S
C807 C808 1.391 . S
C807 C811 1.397 . S
C807 C863 1.419 . S
C808 C804 1.391 . S
C808 C807 1.391 . S
C808 C809 1.399 . S
C809 C808 1.399 . S
C809 C812 1.396 . S
C809 C821 1.453 . S
C809 C822 1.684 . S
H810 C834 0.948 . S
C811 C807 1.397 . S
C811 C812 1.394 . S
C811 C830 1.723 . S
C812 C809 1.396 . S
C812 C811 1.394 . S
C812 C842 1.723 1_455 S
H813 C836 0.947 1_565 S
H814 C837 0.948 . S
H815 C843 0.982 . S
H816 C844 0.979 . S
H817 C844 0.980 . S
H818 C844 0.983 . S
H819 C843 0.979 . S
H820 C843 0.977 . S
C821 C809 1.453 . S
C821 H850 0.982 . S
C821 H851 0.979 1_545 S
C821 H852 0.977 1_455 S
C822 C809 1.684 . S
C822 H847 0.979 . S
C822 H848 0.980 1_455 S
C822 H849 0.983 1_545 S
C823 C824 1.391 1_455 S
C823 C828 1.391 . S
C823 H853 0.948 . S
C824 C823 1.391 1_655 S
C824 C825 1.391 . S
C825 C824 1.391 . S
C825 C826 1.392 . S
C825 H854 0.947 . S
C826 C825 1.392 . S
C826 C827 1.419 . S
C826 H855 0.948 . S
C827 C826 1.419 . S
C827 C828 1.391 1_655 S
C827 C831 1.397 . S
C828 C823 1.391 . S
C828 C827 1.391 1_455 S
C828 C829 1.399 . S
C829 C828 1.399 . S
C829 C830 1.396 . S
C829 C832 1.453 . S
C829 C833 1.684 . S
C830 C811 1.723 . S
C830 C829 1.396 . S
C830 C831 1.394 1_455 S
C831 C827 1.397 . S
C831 C830 1.394 1_655 S
C831 C841 1.723 . S
C832 C829 1.453 . S
C832 H856 0.982 . S
C832 H857 0.979 . S
C832 H858 0.977 . S
C833 C829 1.684 . S
C833 H859 0.979 . S
C833 H860 0.980 . S
C833 H861 0.983 . S
C834 H810 0.948 . S
C834 C835 1.391 . S
C834 C839 1.391 . S
C835 C834 1.391 . S
C835 C836 1.391 . S
C836 H813 0.947 1_545 S
C836 C835 1.391 . S
C836 C837 1.392 . S
C837 H814 0.948 . S
C837 C836 1.392 . S
C837 C838 1.419 . S
C838 C837 1.419 . S
C838 C839 1.391 . S
C838 C842 1.397 . S
C839 C834 1.391 . S
C839 C838 1.391 . S
C839 C840 1.399 . S
C840 C839 1.399 . S
C840 C841 1.396 . S
C840 C843 1.453 . S
C840 C844 1.684 . S
C841 C831 1.723 . S
C841 C840 1.396 . S
C841 C842 1.394 . S
C842 C812 1.723 1_655 S
C842 C838 1.397 . S
C842 C841 1.394 . S
C843 H815 0.982 . S
C843 H819 0.979 . S
C843 H820 0.977 . S
C843 C840 1.453 . S
C844 H816 0.979 . S
C844 H817 0.980 . S
C844 H818 0.983 . S
C844 C840 1.684 . S
H845 C863 0.948 . S
H846 C804 0.948 . S
H847 C822 0.979 . S
H848 C822 0.980 1_655 S
H849 C822 0.983 1_565 S
H850 C821 0.982 . S
H851 C821 0.979 1_565 S
H852 C821 0.977 1_655 S
H853 C823 0.948 . S
H854 C825 0.947 . S
H855 C826 0.948 . S
H856 C832 0.982 . S
H857 C832 0.979 . S
H858 C832 0.977 . S
H859 C833 0.979 . S
H860 C833 0.980 . S
H861 C833 0.983 . S
H862 C806 0.947 . S
C863 C806 1.392 . S
C863 C807 1.419 . S
C863 H845 0.948 . S
C864 C865 1.391 . S
C864 C868 1.391 . S
C864 H906 0.948 . S
C865 C864 1.391 . S
C865 C866 1.391 . S
C866 C865 1.391 . S
C866 H922 0.947 . S
C866 C923 1.392 . S
C867 C868 1.391 . S
C867 C871 1.397 . S
C867 C923 1.419 . S
C868 C864 1.391 . S
C868 C867 1.391 . S
C868 C869 1.399 . S
C869 C868 1.399 . S
C869 C872 1.396 . S
C869 C881 1.453 . S
C869 C882 1.684 . S
H870 C894 0.948 . S
C871 C867 1.397 . S
C871 C872 1.394 . S
C871 C890 1.723 . S
C872 C869 1.396 . S
C872 C871 1.394 . S
C872 C902 1.723 . S
H873 C896 0.947 1_545 S
H874 C897 0.948 . S
H875 C903 0.982 . S
H876 C904 0.979 . S
H877 C904 0.980 . S
H878 C904 0.983 . S
H879 C903 0.979 . S
H880 C903 0.977 . S
C881 C869 1.453 . S
C881 H910 0.982 . S
C881 H911 0.979 . S
C881 H912 0.977 . S
C882 C869 1.684 . S
C882 H907 0.979 . S
C882 H908 0.980 . S
C882 H909 0.983 . S
C883 C884 1.391 . S
C883 C888 1.391 . S
C883 H913 0.948 . S
C884 C883 1.391 . S
C884 C885 1.391 . S
C885 C884 1.391 . S
C885 C886 1.392 . S
C885 H914 0.947 . S
C886 C885 1.392 . S
C886 C887 1.419 . S
C886 H915 0.948 . S
C887 C886 1.419 . S
C887 C888 1.391 . S
C887 C891 1.397 . S
C888 C883 1.391 . S
C888 C887 1.391 . S
C888 C889 1.399 . S
C889 C888 1.399 . S
C889 C890 1.396 . S
C889 C892 1.453 . S
C889 C893 1.684 . S
C890 C871 1.723 . S
C890 C889 1.396 . S
C890 C891 1.394 . S
C891 C887 1.397 . S
C891 C890 1.394 . S
C891 C901 1.723 . S
C892 C889 1.453 . S
C892 H916 0.982 . S
C892 H917 0.979 . S
C892 H918 0.977 . S
C893 C889 1.684 . S
C893 H919 0.979 . S
C893 H920 0.980 . S
C893 H921 0.983 . S
C894 H870 0.948 . S
C894 C895 1.391 . S
C894 C899 1.391 . S
C895 C894 1.391 . S
C895 C896 1.391 . S
C896 H873 0.947 1_565 S
C896 C895 1.391 . S
C896 C897 1.392 . S
C897 H874 0.948 . S
C897 C896 1.392 . S
C897 C898 1.419 . S
C898 C897 1.419 . S
C898 C899 1.391 . S
C898 C902 1.397 . S
C899 C894 1.391 . S
C899 C898 1.391 . S
C899 C900 1.399 . S
C900 C899 1.399 . S
C900 C901 1.396 . S
C900 C903 1.453 . S
C900 C904 1.684 . S
C901 C891 1.723 . S
C901 C900 1.396 . S
C901 C902 1.394 . S
C902 C872 1.723 . S
C902 C898 1.397 . S
C902 C901 1.394 . S
C903 H875 0.982 . S
C903 H879 0.979 . S
C903 H880 0.977 . S
C903 C900 1.453 . S
C904 H876 0.979 . S
C904 H877 0.980 . S
C904 H878 0.983 . S
C904 C900 1.684 . S
H905 C923 0.948 . S
H906 C864 0.948 . S
H907 C882 0.979 . S
H908 C882 0.980 . S
H909 C882 0.983 . S
H910 C881 0.982 . S
H911 C881 0.979 . S
H912 C881 0.977 . S
H913 C883 0.948 . S
H914 C885 0.947 . S
H915 C886 0.948 . S
H916 C892 0.982 . S
H917 C892 0.979 . S
H918 C892 0.977 . S
H919 C893 0.979 . S
H920 C893 0.980 . S
H921 C893 0.983 . S
H922 C866 0.947 . S
C923 C866 1.392 . S
C923 C867 1.419 . S
C923 H905 0.948 . S
C924 C925 1.391 . S
C924 C928 1.391 . S
C924 H966 0.948 . S
C925 C924 1.391 . S
C925 C926 1.391 . S
C926 C925 1.391 . S
C926 H982 0.947 . S
C926 C983 1.392 . S
C927 C928 1.391 . S
C927 C931 1.397 . S
C927 C983 1.419 . S
C928 C924 1.391 . S
C928 C927 1.391 . S
C928 C929 1.399 . S
C929 C928 1.399 . S
C929 C932 1.396 . S
C929 C941 1.453 . S
C929 C942 1.684 . S
H930 C954 0.948 . S
C931 C927 1.397 . S
C931 C932 1.394 . S
C931 C950 1.723 . S
C932 C929 1.396 . S
C932 C931 1.394 . S
C932 C962 1.723 1_455 S
H933 C956 0.947 . S
H934 C957 0.948 . S
H935 C963 0.982 . S
H936 C964 0.979 . S
H937 C964 0.980 . S
H938 C964 0.983 . S
H939 C963 0.979 . S
H940 C963 0.977 . S
C941 C929 1.453 . S
C941 H970 0.982 . S
C941 H971 0.979 . S
C941 H972 0.977 1_455 S
C942 C929 1.684 . S
C942 H967 0.979 . S
C942 H968 0.980 1_455 S
C942 H969 0.983 . S
C943 C944 1.391 . S
C943 C948 1.391 . S
C943 H973 0.948 . S
C944 C943 1.391 . S
C944 C945 1.391 1_455 S
C945 C944 1.391 1_655 S
C945 C946 1.392 . S
C945 H974 0.947 . S
C946 C945 1.392 . S
C946 C947 1.419 . S
C946 H975 0.948 . S
C947 C946 1.419 . S
C947 C948 1.391 1_655 S
C947 C951 1.397 . S
C948 C943 1.391 . S
C948 C947 1.391 1_455 S
C948 C949 1.399 . S
C949 C948 1.399 . S
C949 C950 1.396 . S
C949 C952 1.453 . S
C949 C953 1.684 . S
C950 C931 1.723 . S
C950 C949 1.396 . S
C950 C951 1.394 1_455 S
C951 C947 1.397 . S
C951 C950 1.394 1_655 S
C951 C961 1.723 . S
C952 C949 1.453 . S
C952 H976 0.982 . S
C952 H977 0.979 . S
C952 H978 0.977 . S
C953 C949 1.684 . S
C953 H979 0.979 . S
C953 H980 0.980 . S
C953 H981 0.983 . S
C954 H930 0.948 . S
C954 C955 1.391 . S
C954 C959 1.391 . S
C955 C954 1.391 . S
C955 C956 1.391 . S
C956 H933 0.947 . S
C956 C955 1.391 . S
C956 C957 1.392 . S
C957 H934 0.948 . S
C957 C956 1.392 . S
C957 C958 1.419 . S
C958 C957 1.419 . S
C958 C959 1.391 . S
C958 C962 1.397 . S
C959 C954 1.391 . S
C959 C958 1.391 . S
C959 C960 1.399 . S
C960 C959 1.399 . S
C960 C961 1.396 . S
C960 C963 1.453 . S
C960 C964 1.684 . S
C961 C951 1.723 . S
C961 C960 1.396 . S
C961 C962 1.394 . S
C962 C932 1.723 1_655 S
C962 C958 1.397 . S
C962 C961 1.394 . S
C963 H935 0.982 . S
C963 H939 0.979 . S
C963 H940 0.977 . S
C963 C960 1.453 . S
C964 H936 0.979 . S
C964 H937 0.980 . S
C964 H938 0.983 . S
C964 C960 1.684 . S
H965 C983 0.948 . S
H966 C924 0.948 . S
H967 C942 0.979 . S
H968 C942 0.980 1_655 S
H969 C942 0.983 . S
H970 C941 0.982 . S
H971 C941 0.979 . S
H972 C941 0.977 1_655 S
H973 C943 0.948 . S
H974 C945 0.947 . S
H975 C946 0.948 . S
H976 C952 0.982 . S
H977 C952 0.979 . S
H978 C952 0.977 . S
H979 C953 0.979 . S
H980 C953 0.980 . S
H981 C953 0.983 . S
H982 C926 0.947 . S
C983 C926 1.392 . S
C983 C927 1.419 . S
C983 H965 0.948 . S
C984 C985 1.391 . S
C984 C988 1.391 . S
C984 H1026 0.948 . S
C985 C984 1.391 . S
C985 C986 1.391 . S
C986 C985 1.391 . S
C986 H1042 0.947 . S
C986 C1043 1.392 . S
C987 C988 1.391 . S
C987 C991 1.397 . S
C987 C1043 1.419 . S
C988 C984 1.391 . S
C988 C987 1.391 . S
C988 C989 1.399 . S
C989 C988 1.399 . S
C989 C992 1.396 . S
C989 C1001 1.453 . S
C989 C1002 1.684 . S
H990 C1014 0.948 . S
C991 C987 1.397 . S
C991 C992 1.394 . S
C991 C1010 1.723 . S
C992 C989 1.396 . S
C992 C991 1.394 . S
C992 C1022 1.723 . S
H993 C1016 0.947 . S
H994 C1017 0.948 . S
H995 C1023 0.982 . S
H996 C1024 0.979 . S
H997 C1024 0.980 . S
H998 C1024 0.983 . S
H999 C1023 0.979 . S
H1000 C1023 0.977 . S
C1001 C989 1.453 . S
C1001 H1030 0.982 . S
C1001 H1031 0.979 . S
C1001 H1032 0.977 . S
C1002 C989 1.684 . S
C1002 H1027 0.979 . S
C1002 H1028 0.980 . S
C1002 H1029 0.983 . S
C1003 C1004 1.391 . S
C1003 C1008 1.391 . S
C1003 H1033 0.948 . S
C1004 C1003 1.391 . S
C1004 C1005 1.391 . S
C1005 C1004 1.391 . S
C1005 C1006 1.392 . S
C1005 H1034 0.947 . S
C1006 C1005 1.392 . S
C1006 C1007 1.419 . S
C1006 H1035 0.948 . S
C1007 C1006 1.419 . S
C1007 C1008 1.391 . S
C1007 C1011 1.397 . S
C1008 C1003 1.391 . S
C1008 C1007 1.391 . S
C1008 C1009 1.399 . S
C1009 C1008 1.399 . S
C1009 C1010 1.396 . S
C1009 C1012 1.453 . S
C1009 C1013 1.684 . S
C1010 C991 1.723 . S
C1010 C1009 1.396 . S
C1010 C1011 1.394 . S
C1011 C1007 1.397 . S
C1011 C1010 1.394 . S
C1011 C1021 1.723 . S
C1012 C1009 1.453 . S
C1012 H1036 0.982 . S
C1012 H1037 0.979 . S
C1012 H1038 0.977 . S
C1013 C1009 1.684 . S
C1013 H1039 0.979 . S
C1013 H1040 0.980 . S
C1013 H1041 0.983 . S
C1014 H990 0.948 . S
C1014 C1015 1.391 . S
C1014 C1019 1.391 . S
C1015 C1014 1.391 . S
C1015 C1016 1.391 . S
C1016 H993 0.947 . S
C1016 C1015 1.391 . S
C1016 C1017 1.392 . S
C1017 H994 0.948 . S
C1017 C1016 1.392 . S
C1017 C1018 1.419 . S
C1018 C1017 1.419 . S
C1018 C1019 1.391 . S
C1018 C1022 1.397 . S
C1019 C1014 1.391 . S
C1019 C1018 1.391 . S
C1019 C1020 1.399 . S
C1020 C1019 1.399 . S
C1020 C1021 1.396 . S
C1020 C1023 1.453 . S
C1020 C1024 1.684 . S
C1021 C1011 1.723 . S
C1021 C1020 1.396 . S
C1021 C1022 1.394 . S
C1022 C992 1.723 . S
C1022 C1018 1.397 . S
C1022 C1021 1.394 . S
C1023 H995 0.982 . S
C1023 H999 0.979 . S
C1023 H1000 0.977 . S
C1023 C1020 1.453 . S
C1024 H996 0.979 . S
C1024 H997 0.980 . S
C1024 H998 0.983 . S
C1024 C1020 1.684 . S
H1025 C1043 0.948 . S
H1026 C984 0.948 . S
H1027 C1002 0.979 . S
H1028 C1002 0.980 . S
H1029 C1002 0.983 . S
H1030 C1001 0.982 . S
H1031 C1001 0.979 . S
H1032 C1001 0.977 . S
H1033 C1003 0.948 . S
H1034 C1005 0.947 . S
H1035 C1006 0.948 . S
H1036 C1012 0.982 . S
H1037 C1012 0.979 . S
H1038 C1012 0.977 . S
H1039 C1013 0.979 . S
H1040 C1013 0.980 . S
H1041 C1013 0.983 . S
H1042 C986 0.947 . S
C1043 C986 1.392 . S
C1043 C987 1.419 . S
C1043 H1025 0.948 . S
C1044 C1045 1.391 . S
C1044 C1048 1.391 . S
C1044 H1086 0.948 . S
C1045 C1044 1.391 . S
C1045 C1046 1.391 . S
C1046 C1045 1.391 . S
C1046 H1102 0.947 . S
C1046 C1103 1.392 . S
C1047 C1048 1.391 . S
C1047 C1051 1.397 . S
C1047 C1103 1.419 . S
C1048 C1044 1.391 . S
C1048 C1047 1.391 . S
C1048 C1049 1.399 . S
C1049 C1048 1.399 . S
C1049 C1052 1.396 . S
C1049 C1061 1.453 . S
C1049 C1062 1.684 . S
H1050 C1074 0.948 . S
C1051 C1047 1.397 . S
C1051 C1052 1.394 . S
C1051 C1070 1.723 . S
C1052 C1049 1.396 . S
C1052 C1051 1.394 . S
C1052 C1082 1.723 . S
H1053 C1076 0.947 . S
H1054 C1077 0.948 . S
H1055 C1083 0.982 . S
H1056 C1084 0.979 . S
H1057 C1084 0.980 . S
H1058 C1084 0.983 . S
H1059 C1083 0.979 . S
H1060 C1083 0.977 . S
C1061 C1049 1.453 . S
C1061 H1090 0.982 . S
C1061 H1091 0.979 1_554 S
C1061 H1092 0.977 . S
C1062 C1049 1.684 . S
C1062 H1087 0.979 . S
C1062 H1088 0.980 . S
C1062 H1089 0.983 1_554 S
C1063 C1064 1.391 . S
C1063 C1068 1.391 . S
C1063 H1093 0.948 . S
C1064 C1063 1.391 . S
C1064 C1065 1.391 . S
C1065 C1064 1.391 . S
C1065 C1066 1.392 . S
C1065 H1094 0.947 . S
C1066 C1065 1.392 . S
C1066 C1067 1.419 . S
C1066 H1095 0.948 . S
C1067 C1066 1.419 . S
C1067 C1068 1.391 . S
C1067 C1071 1.397 . S
C1068 C1063 1.391 . S
C1068 C1067 1.391 . S
C1068 C1069 1.399 . S
C1069 C1068 1.399 . S
C1069 C1070 1.396 . S
C1069 C1072 1.453 . S
C1069 C1073 1.684 . S
C1070 C1051 1.723 . S
C1070 C1069 1.396 . S
C1070 C1071 1.394 . S
C1071 C1067 1.397 . S
C1071 C1070 1.394 . S
C1071 C1081 1.723 . S
C1072 C1069 1.453 . S
C1072 H1096 0.982 . S
C1072 H1097 0.979 . S
C1072 H1098 0.977 . S
C1073 C1069 1.684 . S
C1073 H1099 0.979 . S
C1073 H1100 0.980 . S
C1073 H1101 0.983 . S
C1074 H1050 0.948 . S
C1074 C1075 1.391 . S
C1074 C1079 1.391 . S
C1075 C1074 1.391 . S
C1075 C1076 1.391 . S
C1076 H1053 0.947 . S
C1076 C1075 1.391 . S
C1076 C1077 1.392 . S
C1077 H1054 0.948 . S
C1077 C1076 1.392 . S
C1077 C1078 1.419 . S
C1078 C1077 1.419 . S
C1078 C1079 1.391 . S
C1078 C1082 1.397 . S
C1079 C1074 1.391 . S
C1079 C1078 1.391 . S
C1079 C1080 1.399 . S
C1080 C1079 1.399 . S
C1080 C1081 1.396 . S
C1080 C1083 1.453 . S
C1080 C1084 1.684 . S
C1081 C1071 1.723 . S
C1081 C1080 1.396 . S
C1081 C1082 1.394 . S
C1082 C1052 1.723 . S
C1082 C1078 1.397 . S
C1082 C1081 1.394 . S
C1083 H1055 0.982 . S
C1083 H1059 0.979 . S
C1083 H1060 0.977 . S
C1083 C1080 1.453 . S
C1084 H1056 0.979 . S
C1084 H1057 0.980 . S
C1084 H1058 0.983 . S
C1084 C1080 1.684 . S
H1085 C1103 0.948 . S
H1086 C1044 0.948 . S
H1087 C1062 0.979 . S
H1088 C1062 0.980 . S
H1089 C1062 0.983 1_556 S
H1090 C1061 0.982 . S
H1091 C1061 0.979 1_556 S
H1092 C1061 0.977 . S
H1093 C1063 0.948 . S
H1094 C1065 0.947 . S
H1095 C1066 0.948 . S
H1096 C1072 0.982 . S
H1097 C1072 0.979 . S
H1098 C1072 0.977 . S
H1099 C1073 0.979 . S
H1100 C1073 0.980 . S
H1101 C1073 0.983 . S
H1102 C1046 0.947 . S
C1103 C1046 1.392 . S
C1103 C1047 1.419 . S
C1103 H1085 0.948 . S
C1104 C1105 1.391 . S
C1104 C1108 1.391 . S
C1104 H1146 0.948 . S
C1105 C1104 1.391 . S
C1105 C1106 1.391 . S
C1106 C1105 1.391 . S
C1106 H1162 0.947 . S
C1106 C1163 1.392 . S
C1107 C1108 1.391 . S
C1107 C1111 1.397 . S
C1107 C1163 1.419 . S
C1108 C1104 1.391 . S
C1108 C1107 1.391 . S
C1108 C1109 1.399 . S
C1109 C1108 1.399 . S
C1109 C1112 1.396 . S
C1109 C1121 1.453 . S
C1109 C1122 1.684 . S
H1110 C1134 0.948 . S
C1111 C1107 1.397 . S
C1111 C1112 1.394 . S
C1111 C1130 1.723 . S
C1112 C1109 1.396 . S
C1112 C1111 1.394 . S
C1112 C1142 1.723 1_565 S
H1113 C1136 0.947 . S
H1114 C1137 0.948 . S
H1115 C1143 0.982 . S
H1116 C1144 0.979 . S
H1117 C1144 0.980 . S
H1118 C1144 0.983 . S
H1119 C1143 0.979 . S
H1120 C1143 0.977 . S
C1121 C1109 1.453 . S
C1121 H1150 0.982 . S
C1121 H1151 0.979 . S
C1121 H1152 0.977 1_565 S
C1122 C1109 1.684 . S
C1122 H1147 0.979 . S
C1122 H1148 0.980 1_565 S
C1122 H1149 0.983 . S
C1123 C1124 1.391 . S
C1123 C1128 1.391 . S
C1123 H1153 0.948 . S
C1124 C1123 1.391 . S
C1124 C1125 1.391 1_565 S
C1125 C1124 1.391 1_545 S
C1125 C1126 1.392 . S
C1125 H1154 0.947 . S
C1126 C1125 1.392 . S
C1126 C1127 1.419 . S
C1126 H1155 0.948 . S
C1127 C1126 1.419 . S
C1127 C1128 1.391 1_545 S
C1127 C1131 1.397 . S
C1128 C1123 1.391 . S
C1128 C1127 1.391 1_565 S
C1128 C1129 1.399 . S
C1129 C1128 1.399 . S
C1129 C1130 1.396 . S
C1129 C1132 1.453 . S
C1129 C1133 1.684 . S
C1130 C1111 1.723 . S
C1130 C1129 1.396 . S
C1130 C1131 1.394 1_565 S
C1131 C1127 1.397 . S
C1131 C1130 1.394 1_545 S
C1131 C1141 1.723 . S
C1132 C1129 1.453 . S
C1132 H1156 0.982 . S
C1132 H1157 0.979 . S
C1132 H1158 0.977 . S
C1133 C1129 1.684 . S
C1133 H1159 0.979 . S
C1133 H1160 0.980 . S
C1133 H1161 0.983 . S
C1134 H1110 0.948 . S
C1134 C1135 1.391 . S
C1134 C1139 1.391 . S
C1135 C1134 1.391 . S
C1135 C1136 1.391 . S
C1136 H1113 0.947 . S
C1136 C1135 1.391 . S
C1136 C1137 1.392 . S
C1137 H1114 0.948 . S
C1137 C1136 1.392 . S
C1137 C1138 1.419 . S
C1138 C1137 1.419 . S
C1138 C1139 1.391 . S
C1138 C1142 1.397 . S
C1139 C1134 1.391 . S
C1139 C1138 1.391 . S
C1139 C1140 1.399 . S
C1140 C1139 1.399 . S
C1140 C1141 1.396 . S
C1140 C1143 1.453 . S
C1140 C1144 1.684 . S
C1141 C1131 1.723 . S
C1141 C1140 1.396 . S
C1141 C1142 1.394 . S
C1142 C1112 1.723 1_545 S
C1142 C1138 1.397 . S
C1142 C1141 1.394 . S
C1143 H1115 0.982 . S
C1143 H1119 0.979 . S
C1143 H1120 0.977 . S
C1143 C1140 1.453 . S
C1144 H1116 0.979 . S
C1144 H1117 0.980 . S
C1144 H1118 0.983 . S
C1144 C1140 1.684 . S
H1145 C1163 0.948 . S
H1146 C1104 0.948 . S
H1147 C1122 0.979 . S
H1148 C1122 0.980 1_545 S
H1149 C1122 0.983 . S
H1150 C1121 0.982 . S
H1151 C1121 0.979 . S
H1152 C1121 0.977 1_545 S
H1153 C1123 0.948 . S
H1154 C1125 0.947 . S
H1155 C1126 0.948 . S
H1156 C1132 0.982 . S
H1157 C1132 0.979 . S
H1158 C1132 0.977 . S
H1159 C1133 0.979 . S
H1160 C1133 0.980 . S
H1161 C1133 0.983 . S
H1162 C1106 0.947 . S
C1163 C1106 1.392 . S
C1163 C1107 1.419 . S
C1163 H1145 0.948 . S
C1164 C1165 1.391 . S
C1164 C1168 1.391 . S
C1164 H1206 0.948 . S
C1165 C1164 1.391 . S
C1165 C1166 1.391 . S
C1166 C1165 1.391 . S
C1166 H1222 0.947 . S
C1166 C1223 1.392 . S
C1167 C1168 1.391 . S
C1167 C1171 1.397 . S
C1167 C1223 1.419 . S
C1168 C1164 1.391 . S
C1168 C1167 1.391 . S
C1168 C1169 1.399 . S
C1169 C1168 1.399 . S
C1169 C1172 1.396 . S
C1169 C1181 1.453 . S
C1169 C1182 1.684 . S
H1170 C1194 0.948 . S
C1171 C1167 1.397 . S
C1171 C1172 1.394 . S
C1171 C1190 1.723 . S
C1172 C1169 1.396 . S
C1172 C1171 1.394 . S
C1172 C1202 1.723 1_565 S
H1173 C1196 0.947 1_554 S
H1174 C1197 0.948 . S
H1175 C1203 0.982 . S
H1176 C1204 0.979 . S
H1177 C1204 0.980 . S
H1178 C1204 0.983 . S
H1179 C1203 0.979 . S
H1180 C1203 0.977 . S
C1181 C1169 1.453 . S
C1181 H1210 0.982 . S
C1181 H1211 0.979 1_556 S
C1181 H1212 0.977 1_565 S
C1182 C1169 1.684 . S
C1182 H1207 0.979 . S
C1182 H1208 0.980 1_565 S
C1182 H1209 0.983 1_556 S
C1183 C1184 1.391 1_565 S
C1183 C1188 1.391 . S
C1183 H1213 0.948 . S
C1184 C1183 1.391 1_545 S
C1184 C1185 1.391 . S
C1185 C1184 1.391 . S
C1185 C1186 1.392 . S
C1185 H1214 0.947 . S
C1186 C1185 1.392 . S
C1186 C1187 1.419 . S
C1186 H1215 0.948 . S
C1187 C1186 1.419 . S
C1187 C1188 1.391 1_545 S
C1187 C1191 1.397 . S
C1188 C1183 1.391 . S
C1188 C1187 1.391 1_565 S
C1188 C1189 1.399 . S
C1189 C1188 1.399 . S
C1189 C1190 1.396 . S
C1189 C1192 1.453 . S
C1189 C1193 1.684 . S
C1190 C1171 1.723 . S
C1190 C1189 1.396 . S
C1190 C1191 1.394 1_565 S
C1191 C1187 1.397 . S
C1191 C1190 1.394 1_545 S
C1191 C1201 1.723 . S
C1192 C1189 1.453 . S
C1192 H1216 0.982 . S
C1192 H1217 0.979 . S
C1192 H1218 0.977 . S
C1193 C1189 1.684 . S
C1193 H1219 0.979 . S
C1193 H1220 0.980 . S
C1193 H1221 0.983 . S
C1194 H1170 0.948 . S
C1194 C1195 1.391 . S
C1194 C1199 1.391 . S
C1195 C1194 1.391 . S
C1195 C1196 1.391 . S
C1196 H1173 0.947 1_556 S
C1196 C1195 1.391 . S
C1196 C1197 1.392 . S
C1197 H1174 0.948 . S
C1197 C1196 1.392 . S
C1197 C1198 1.419 . S
C1198 C1197 1.419 . S
C1198 C1199 1.391 . S
C1198 C1202 1.397 . S
C1199 C1194 1.391 . S
C1199 C1198 1.391 . S
C1199 C1200 1.399 . S
C1200 C1199 1.399 . S
C1200 C1201 1.396 . S
C1200 C1203 1.453 . S
C1200 C1204 1.684 . S
C1201 C1191 1.723 . S
C1201 C1200 1.396 . S
C1201 C1202 1.394 . S
C1202 C1172 1.723 1_545 S
C1202 C1198 1.397 . S
C1202 C1201 1.394 . S
C1203 H1175 0.982 . S
C1203 H1179 0.979 . S
C1203 H1180 0.977 . S
C1203 C1200 1.453 . S
C1204 H1176 0.979 . S
C1204 H1177 0.980 . S
C1204 H1178 0.983 . S
C1204 C1200 1.684 . S
H1205 C1223 0.948 . S
H1206 C1164 0.948 . S
H1207 C1182 0.979 . S
H1208 C1182 0.980 1_545 S
H1209 C1182 0.983 1_554 S
H1210 C1181 0.982 . S
H1211 C1181 0.979 1_554 S
H1212 C1181 0.977 1_545 S
H1213 C1183 0.948 . S
H1214 C1185 0.947 . S
H1215 C1186 0.948 . S
H1216 C1192 0.982 . S
H1217 C1192 0.979 . S
H1218 C1192 0.977 . S
H1219 C1193 0.979 . S
H1220 C1193 0.980 . S
H1221 C1193 0.983 . S
H1222 C1166 0.947 . S
C1223 C1166 1.392 . S
C1223 C1167 1.419 . S
C1223 H1205 0.948 . S
C1224 C1225 1.391 . S
C1224 C1228 1.391 . S
C1224 H1266 0.948 . S
C1225 C1224 1.391 . S
C1225 C1226 1.391 . S
C1226 C1225 1.391 . S
C1226 H1282 0.947 . S
C1226 C1283 1.392 . S
C1227 C1228 1.391 . S
C1227 C1231 1.397 . S
C1227 C1283 1.419 . S
C1228 C1224 1.391 . S
C1228 C1227 1.391 . S
C1228 C1229 1.399 . S
C1229 C1228 1.399 . S
C1229 C1232 1.396 . S
C1229 C1241 1.453 . S
C1229 C1242 1.684 . S
H1230 C1254 0.948 . S
C1231 C1227 1.397 . S
C1231 C1232 1.394 . S
C1231 C1250 1.723 . S
C1232 C1229 1.396 . S
C1232 C1231 1.394 . S
C1232 C1262 1.723 . S
H1233 C1256 0.947 . S
H1234 C1257 0.948 . S
H1235 C1263 0.982 . S
H1236 C1264 0.979 . S
H1237 C1264 0.980 . S
H1238 C1264 0.983 . S
H1239 C1263 0.979 . S
H1240 C1263 0.977 . S
C1241 C1229 1.453 . S
C1241 H1270 0.982 . S
C1241 H1271 0.979 . S
C1241 H1272 0.977 . S
C1242 C1229 1.684 . S
C1242 H1267 0.979 . S
C1242 H1268 0.980 . S
C1242 H1269 0.983 . S
C1243 C1244 1.391 . S
C1243 C1248 1.391 . S
C1243 H1273 0.948 . S
C1244 C1243 1.391 . S
C1244 C1245 1.391 . S
C1245 C1244 1.391 . S
C1245 C1246 1.392 . S
C1245 H1274 0.947 . S
C1246 C1245 1.392 . S
C1246 C1247 1.419 . S
C1246 H1275 0.948 . S
C1247 C1246 1.419 . S
C1247 C1248 1.391 . S
C1247 C1251 1.397 . S
C1248 C1243 1.391 . S
C1248 C1247 1.391 . S
C1248 C1249 1.399 . S
C1249 C1248 1.399 . S
C1249 C1250 1.396 . S
C1249 C1252 1.453 . S
C1249 C1253 1.684 . S
C1250 C1231 1.723 . S
C1250 C1249 1.396 . S
C1250 C1251 1.394 . S
C1251 C1247 1.397 . S
C1251 C1250 1.394 . S
C1251 C1261 1.723 . S
C1252 C1249 1.453 . S
C1252 H1276 0.982 . S
C1252 H1277 0.979 . S
C1252 H1278 0.977 . S
C1253 C1249 1.684 . S
C1253 H1279 0.979 . S
C1253 H1280 0.980 . S
C1253 H1281 0.983 . S
C1254 H1230 0.948 . S
C1254 C1255 1.391 . S
C1254 C1259 1.391 . S
C1255 C1254 1.391 . S
C1255 C1256 1.391 . S
C1256 H1233 0.947 . S
C1256 C1255 1.391 . S
C1256 C1257 1.392 . S
C1257 H1234 0.948 . S
C1257 C1256 1.392 . S
C1257 C1258 1.419 . S
C1258 C1257 1.419 . S
C1258 C1259 1.391 . S
C1258 C1262 1.397 . S
C1259 C1254 1.391 . S
C1259 C1258 1.391 . S
C1259 C1260 1.399 . S
C1260 C1259 1.399 . S
C1260 C1261 1.396 . S
C1260 C1263 1.453 . S
C1260 C1264 1.684 . S
C1261 C1251 1.723 . S
C1261 C1260 1.396 . S
C1261 C1262 1.394 . S
C1262 C1232 1.723 . S
C1262 C1258 1.397 . S
C1262 C1261 1.394 . S
C1263 H1235 0.982 . S
C1263 H1239 0.979 . S
C1263 H1240 0.977 . S
C1263 C1260 1.453 . S
C1264 H1236 0.979 . S
C1264 H1237 0.980 . S
C1264 H1238 0.983 . S
C1264 C1260 1.684 . S
H1265 C1283 0.948 . S
H1266 C1224 0.948 . S
H1267 C1242 0.979 . S
H1268 C1242 0.980 . S
H1269 C1242 0.983 . S
H1270 C1241 0.982 . S
H1271 C1241 0.979 . S
H1272 C1241 0.977 . S
H1273 C1243 0.948 . S
H1274 C1245 0.947 . S
H1275 C1246 0.948 . S
H1276 C1252 0.982 . S
H1277 C1252 0.979 . S
H1278 C1252 0.977 . S
H1279 C1253 0.979 . S
H1280 C1253 0.980 . S
H1281 C1253 0.983 . S
H1282 C1226 0.947 . S
C1283 C1226 1.392 . S
C1283 C1227 1.419 . S
C1283 H1265 0.948 . S
C1284 C1285 1.391 . S
C1284 C1288 1.391 . S
C1284 H1326 0.948 . S
C1285 C1284 1.391 . S
C1285 C1286 1.391 . S
C1286 C1285 1.391 . S
C1286 H1342 0.947 1_655 S
C1286 C1343 1.392 . S
C1287 C1288 1.391 . S
C1287 C1291 1.397 . S
C1287 C1343 1.419 . S
C1288 C1284 1.391 . S
C1288 C1287 1.391 . S
C1288 C1289 1.399 . S
C1289 C1288 1.399 . S
C1289 C1292 1.396 . S
C1289 C1301 1.453 . S
C1289 C1302 1.684 . S
H1290 C1314 0.948 . S
C1291 C1287 1.397 . S
C1291 C1292 1.394 . S
C1291 C1310 1.723 1_554 S
C1292 C1289 1.396 . S
C1292 C1291 1.394 . S
C1292 C1322 1.723 . S
H1293 C1316 0.947 . S
H1294 C1317 0.948 . S
H1295 C1323 0.982 . S
H1296 C1324 0.979 . S
H1297 C1324 0.980 . S
H1298 C1324 0.983 . S
H1299 C1323 0.979 . S
H1300 C1323 0.977 . S
C1301 C1289 1.453 . S
C1301 H1330 0.982 . S
C1301 H1331 0.979 . S
C1301 H1332 0.977 . S
C1302 C1289 1.684 . S
C1302 H1327 0.979 . S
C1302 H1328 0.980 . S
C1302 H1329 0.983 . S
C1303 C1304 1.391 . S
C1303 C1308 1.391 . S
C1303 H1333 0.948 . S
C1304 C1303 1.391 . S
C1304 C1305 1.391 . S
C1305 C1304 1.391 . S
C1305 C1306 1.392 . S
C1305 H1334 0.947 . S
C1306 C1305 1.392 . S
C1306 C1307 1.419 . S
C1306 H1335 0.948 . S
C1307 C1306 1.419 . S
C1307 C1308 1.391 . S
C1307 C1311 1.397 . S
C1308 C1303 1.391 . S
C1308 C1307 1.391 . S
C1308 C1309 1.399 . S
C1309 C1308 1.399 . S
C1309 C1310 1.396 . S
C1309 C1312 1.453 . S
C1309 C1313 1.684 . S
C1310 C1291 1.723 1_556 S
C1310 C1309 1.396 . S
C1310 C1311 1.394 . S
C1311 C1307 1.397 . S
C1311 C1310 1.394 . S
C1311 C1321 1.723 . S
C1312 C1309 1.453 . S
C1312 H1336 0.982 . S
C1312 H1337 0.979 1_655 S
C1312 H1338 0.977 1_556 S
C1313 C1309 1.684 . S
C1313 H1339 0.979 . S
C1313 H1340 0.980 1_556 S
C1313 H1341 0.983 1_655 S
C1314 H1290 0.948 . S
C1314 C1315 1.391 1_556 S
C1314 C1319 1.391 . S
C1315 C1314 1.391 1_554 S
C1315 C1316 1.391 . S
C1316 H1293 0.947 . S
C1316 C1315 1.391 . S
C1316 C1317 1.392 . S
C1317 H1294 0.948 . S
C1317 C1316 1.392 . S
C1317 C1318 1.419 . S
C1318 C1317 1.419 . S
C1318 C1319 1.391 1_554 S
C1318 C1322 1.397 . S
C1319 C1314 1.391 . S
C1319 C1318 1.391 1_556 S
C1319 C1320 1.399 . S
C1320 C1319 1.399 . S
C1320 C1321 1.396 . S
C1320 C1323 1.453 . S
C1320 C1324 1.684 . S
C1321 C1311 1.723 . S
C1321 C1320 1.396 . S
C1321 C1322 1.394 1_556 S
C1322 C1292 1.723 . S
C1322 C1318 1.397 . S
C1322 C1321 1.394 1_554 S
C1323 H1295 0.982 . S
C1323 H1299 0.979 . S
C1323 H1300 0.977 . S
C1323 C1320 1.453 . S
C1324 H1296 0.979 . S
C1324 H1297 0.980 . S
C1324 H1298 0.983 . S
C1324 C1320 1.684 . S
H1325 C1343 0.948 . S
H1326 C1284 0.948 . S
H1327 C1302 0.979 . S
H1328 C1302 0.980 . S
H1329 C1302 0.983 . S
H1330 C1301 0.982 . S
H1331 C1301 0.979 . S
H1332 C1301 0.977 . S
H1333 C1303 0.948 . S
H1334 C1305 0.947 . S
H1335 C1306 0.948 . S
H1336 C1312 0.982 . S
H1337 C1312 0.979 1_455 S
H1338 C1312 0.977 1_554 S
H1339 C1313 0.979 . S
H1340 C1313 0.980 1_554 S
H1341 C1313 0.983 1_455 S
H1342 C1286 0.947 1_455 S
C1343 C1286 1.392 . S
C1343 C1287 1.419 . S
C1343 H1325 0.948 . S
C1344 C1345 1.391 . S
C1344 C1348 1.391 . S
C1344 H1386 0.948 . S
C1345 C1344 1.391 . S
C1345 C1346 1.391 . S
C1346 C1345 1.391 . S
C1346 H1402 0.947 . S
C1346 C1403 1.392 . S
C1347 C1348 1.391 . S
C1347 C1351 1.397 . S
C1347 C1403 1.419 . S
C1348 C1344 1.391 . S
C1348 C1347 1.391 . S
C1348 C1349 1.399 . S
C1349 C1348 1.399 . S
C1349 C1352 1.396 . S
C1349 C1361 1.453 . S
C1349 C1362 1.684 . S
H1350 C1374 0.948 . S
C1351 C1347 1.397 . S
C1351 C1352 1.394 . S
C1351 C1370 1.723 . S
C1352 C1349 1.396 . S
C1352 C1351 1.394 . S
C1352 C1382 1.723 . S
H1353 C1376 0.947 . S
H1354 C1377 0.948 . S
H1355 C1383 0.982 . S
H1356 C1384 0.979 . S
H1357 C1384 0.980 . S
H1358 C1384 0.983 1_655 S
H1359 C1383 0.979 . S
H1360 C1383 0.977 . S
C1361 C1349 1.453 . S
C1361 H1390 0.982 . S
C1361 H1391 0.979 . S
C1361 H1392 0.977 . S
C1362 C1349 1.684 . S
C1362 H1387 0.979 . S
C1362 H1388 0.980 . S
C1362 H1389 0.983 . S
C1363 C1364 1.391 . S
C1363 C1368 1.391 . S
C1363 H1393 0.948 . S
C1364 C1363 1.391 . S
C1364 C1365 1.391 . S
C1365 C1364 1.391 . S
C1365 C1366 1.392 . S
C1365 H1394 0.947 1_455 S
C1366 C1365 1.392 . S
C1366 C1367 1.419 . S
C1366 H1395 0.948 . S
C1367 C1366 1.419 . S
C1367 C1368 1.391 . S
C1367 C1371 1.397 . S
C1368 C1363 1.391 . S
C1368 C1367 1.391 . S
C1368 C1369 1.399 . S
C1369 C1368 1.399 . S
C1369 C1370 1.396 . S
C1369 C1372 1.453 . S
C1369 C1373 1.684 . S
C1370 C1351 1.723 . S
C1370 C1369 1.396 . S
C1370 C1371 1.394 . S
C1371 C1367 1.397 . S
C1371 C1370 1.394 . S
C1371 C1381 1.723 . S
C1372 C1369 1.453 . S
C1372 H1396 0.982 . S
C1372 H1397 0.979 . S
C1372 H1398 0.977 . S
C1373 C1369 1.684 . S
C1373 H1399 0.979 . S
C1373 H1400 0.980 . S
C1373 H1401 0.983 . S
C1374 H1350 0.948 . S
C1374 C1375 1.391 . S
C1374 C1379 1.391 . S
C1375 C1374 1.391 . S
C1375 C1376 1.391 . S
C1376 H1353 0.947 . S
C1376 C1375 1.391 . S
C1376 C1377 1.392 . S
C1377 H1354 0.948 . S
C1377 C1376 1.392 . S
C1377 C1378 1.419 . S
C1378 C1377 1.419 . S
C1378 C1379 1.391 . S
C1378 C1382 1.397 . S
C1379 C1374 1.391 . S
C1379 C1378 1.391 . S
C1379 C1380 1.399 . S
C1380 C1379 1.399 . S
C1380 C1381 1.396 . S
C1380 C1383 1.453 . S
C1380 C1384 1.684 . S
C1381 C1371 1.723 . S
C1381 C1380 1.396 . S
C1381 C1382 1.394 . S
C1382 C1352 1.723 . S
C1382 C1378 1.397 . S
C1382 C1381 1.394 . S
C1383 H1355 0.982 . S
C1383 H1359 0.979 . S
C1383 H1360 0.977 . S
C1383 C1380 1.453 . S
C1384 H1356 0.979 . S
C1384 H1357 0.980 . S
C1384 H1358 0.983 1_455 S
C1384 C1380 1.684 . S
H1385 C1403 0.948 . S
H1386 C1344 0.948 . S
H1387 C1362 0.979 . S
H1388 C1362 0.980 . S
H1389 C1362 0.983 . S
H1390 C1361 0.982 . S
H1391 C1361 0.979 . S
H1392 C1361 0.977 . S
H1393 C1363 0.948 . S
H1394 C1365 0.947 1_655 S
H1395 C1366 0.948 . S
H1396 C1372 0.982 . S
H1397 C1372 0.979 . S
H1398 C1372 0.977 . S
H1399 C1373 0.979 . S
H1400 C1373 0.980 . S
H1401 C1373 0.983 . S
H1402 C1346 0.947 . S
C1403 C1346 1.392 . S
C1403 C1347 1.419 . S
C1403 H1385 0.948 . S
C1404 C1405 1.391 . S
C1404 C1408 1.391 . S
C1404 H1446 0.948 . S
C1405 C1404 1.391 . S
C1405 C1406 1.391 . S
C1406 C1405 1.391 . S
C1406 H1462 0.947 . S
C1406 C1463 1.392 . S
C1407 C1408 1.391 . S
C1407 C1411 1.397 . S
C1407 C1463 1.419 . S
C1408 C1404 1.391 . S
C1408 C1407 1.391 . S
C1408 C1409 1.399 . S
C1409 C1408 1.399 . S
C1409 C1412 1.396 . S
C1409 C1421 1.453 . S
C1409 C1422 1.684 . S
H1410 C1434 0.948 . S
C1411 C1407 1.397 . S
C1411 C1412 1.394 . S
C1411 C1430 1.723 1_556 S
C1412 C1409 1.396 . S
C1412 C1411 1.394 . S
C1412 C1442 1.723 . S
H1413 C1436 0.947 . S
H1414 C1437 0.948 . S
H1415 C1443 0.982 . S
H1416 C1444 0.979 . S
H1417 C1444 0.980 . S
H1418 C1444 0.983 . S
H1419 C1443 0.979 . S
H1420 C1443 0.977 . S
C1421 C1409 1.453 . S
C1421 H1450 0.982 . S
C1421 H1451 0.979 . S
C1421 H1452 0.977 . S
C1422 C1409 1.684 . S
C1422 H1447 0.979 . S
C1422 H1448 0.980 . S
C1422 H1449 0.983 . S
C1423 C1424 1.391 . S
C1423 C1428 1.391 . S
C1423 H1453 0.948 . S
C1424 C1423 1.391 . S
C1424 C1425 1.391 . S
C1425 C1424 1.391 . S
C1425 C1426 1.392 . S
C1425 H1454 0.947 . S
C1426 C1425 1.392 . S
C1426 C1427 1.419 . S
C1426 H1455 0.948 . S
C1427 C1426 1.419 . S
C1427 C1428 1.391 . S
C1427 C1431 1.397 . S
C1428 C1423 1.391 . S
C1428 C1427 1.391 . S
C1428 C1429 1.399 . S
C1429 C1428 1.399 . S
C1429 C1430 1.396 . S
C1429 C1432 1.453 . S
C1429 C1433 1.684 . S
C1430 C1411 1.723 1_554 S
C1430 C1429 1.396 . S
C1430 C1431 1.394 . S
C1431 C1427 1.397 . S
C1431 C1430 1.394 . S
C1431 C1441 1.723 . S
C1432 C1429 1.453 . S
C1432 H1456 0.982 . S
C1432 H1457 0.979 . S
C1432 H1458 0.977 . S
C1433 C1429 1.684 . S
C1433 H1459 0.979 . S
C1433 H1460 0.980 . S
C1433 H1461 0.983 . S
C1434 H1410 0.948 . S
C1434 C1435 1.391 1_554 S
C1434 C1439 1.391 . S
C1435 C1434 1.391 1_556 S
C1435 C1436 1.391 . S
C1436 H1413 0.947 . S
C1436 C1435 1.391 . S
C1436 C1437 1.392 . S
C1437 H1414 0.948 . S
C1437 C1436 1.392 . S
C1437 C1438 1.419 . S
C1438 C1437 1.419 . S
C1438 C1439 1.391 1_556 S
C1438 C1442 1.397 . S
C1439 C1434 1.391 . S
C1439 C1438 1.391 1_554 S
C1439 C1440 1.399 . S
C1440 C1439 1.399 . S
C1440 C1441 1.396 . S
C1440 C1443 1.453 . S
C1440 C1444 1.684 . S
C1441 C1431 1.723 . S
C1441 C1440 1.396 . S
C1441 C1442 1.394 1_554 S
C1442 C1412 1.723 . S
C1442 C1438 1.397 . S
C1442 C1441 1.394 1_556 S
C1443 H1415 0.982 . S
C1443 H1419 0.979 . S
C1443 H1420 0.977 . S
C1443 C1440 1.453 . S
C1444 H1416 0.979 . S
C1444 H1417 0.980 . S
C1444 H1418 0.983 . S
C1444 C1440 1.684 . S
H1445 C1463 0.948 . S
H1446 C1404 0.948 . S
H1447 C1422 0.979 . S
H1448 C1422 0.980 . S
H1449 C1422 0.983 . S
H1450 C1421 0.982 . S
H1451 C1421 0.979 . S
H1452 C1421 0.977 . S
H1453 C1423 0.948 . S
H1454 C1425 0.947 . S
H1455 C1426 0.948 . S
H1456 C1432 0.982 . S
H1457 C1432 0.979 . S
H1458 C1432 0.977 . S
H1459 C1433 0.979 . S
H1460 C1433 0.980 . S
H1461 C1433 0.983 . S
H1462 C1406 0.947 . S
C1463 C1406 1.392 . S
C1463 C1407 1.419 . S
C1463 H1445 0.948 . S
C1464 C1465 1.391 . S
C1464 C1468 1.391 . S
C1464 H1506 0.948 . S
C1465 C1464 1.391 . S
C1465 C1466 1.391 . S
C1466 C1465 1.391 . S
C1466 H1522 0.947 . S
C1466 C1523 1.392 . S
C1467 C1468 1.391 . S
C1467 C1471 1.397 . S
C1467 C1523 1.419 . S
C1468 C1464 1.391 . S
C1468 C1467 1.391 . S
C1468 C1469 1.399 . S
C1469 C1468 1.399 . S
C1469 C1472 1.396 . S
C1469 C1481 1.453 . S
C1469 C1482 1.684 . S
H1470 C1494 0.948 . S
C1471 C1467 1.397 . S
C1471 C1472 1.394 . S
C1471 C1490 1.723 . S
C1472 C1469 1.396 . S
C1472 C1471 1.394 . S
C1472 C1502 1.723 . S
H1473 C1496 0.947 . S
H1474 C1497 0.948 . S
H1475 C1503 0.982 . S
H1476 C1504 0.979 . S
H1477 C1504 0.980 . S
H1478 C1504 0.983 . S
H1479 C1503 0.979 . S
H1480 C1503 0.977 . S
C1481 C1469 1.453 . S
C1481 H1510 0.982 . S
C1481 H1511 0.979 . S
C1481 H1512 0.977 . S
C1482 C1469 1.684 . S
C1482 H1507 0.979 . S
C1482 H1508 0.980 . S
C1482 H1509 0.983 . S
C1483 C1484 1.391 . S
C1483 C1488 1.391 . S
C1483 H1513 0.948 . S
C1484 C1483 1.391 . S
C1484 C1485 1.391 . S
C1485 C1484 1.391 . S
C1485 C1486 1.392 . S
C1485 H1514 0.947 . S
C1486 C1485 1.392 . S
C1486 C1487 1.419 . S
C1486 H1515 0.948 . S
C1487 C1486 1.419 . S
C1487 C1488 1.391 . S
C1487 C1491 1.397 . S
C1488 C1483 1.391 . S
C1488 C1487 1.391 . S
C1488 C1489 1.399 . S
C1489 C1488 1.399 . S
C1489 C1490 1.396 . S
C1489 C1492 1.453 . S
C1489 C1493 1.684 . S
C1490 C1471 1.723 . S
C1490 C1489 1.396 . S
C1490 C1491 1.394 . S
C1491 C1487 1.397 . S
C1491 C1490 1.394 . S
C1491 C1501 1.723 . S
C1492 C1489 1.453 . S
C1492 H1516 0.982 . S
C1492 H1517 0.979 . S
C1492 H1518 0.977 . S
C1493 C1489 1.684 . S
C1493 H1519 0.979 . S
C1493 H1520 0.980 . S
C1493 H1521 0.983 . S
C1494 H1470 0.948 . S
C1494 C1495 1.391 . S
C1494 C1499 1.391 . S
C1495 C1494 1.391 . S
C1495 C1496 1.391 . S
C1496 H1473 0.947 . S
C1496 C1495 1.391 . S
C1496 C1497 1.392 . S
C1497 H1474 0.948 . S
C1497 C1496 1.392 . S
C1497 C1498 1.419 . S
C1498 C1497 1.419 . S
C1498 C1499 1.391 . S
C1498 C1502 1.397 . S
C1499 C1494 1.391 . S
C1499 C1498 1.391 . S
C1499 C1500 1.399 . S
C1500 C1499 1.399 . S
C1500 C1501 1.396 . S
C1500 C1503 1.453 . S
C1500 C1504 1.684 . S
C1501 C1491 1.723 . S
C1501 C1500 1.396 . S
C1501 C1502 1.394 . S
C1502 C1472 1.723 . S
C1502 C1498 1.397 . S
C1502 C1501 1.394 . S
C1503 H1475 0.982 . S
C1503 H1479 0.979 . S
C1503 H1480 0.977 . S
C1503 C1500 1.453 . S
C1504 H1476 0.979 . S
C1504 H1477 0.980 . S
C1504 H1478 0.983 . S
C1504 C1500 1.684 . S
H1505 C1523 0.948 . S
H1506 C1464 0.948 . S
H1507 C1482 0.979 . S
H1508 C1482 0.980 . S
H1509 C1482 0.983 . S
H1510 C1481 0.982 . S
H1511 C1481 0.979 . S
H1512 C1481 0.977 . S
H1513 C1483 0.948 . S
H1514 C1485 0.947 . S
H1515 C1486 0.948 . S
H1516 C1492 0.982 . S
H1517 C1492 0.979 . S
H1518 C1492 0.977 . S
H1519 C1493 0.979 . S
H1520 C1493 0.980 . S
H1521 C1493 0.983 . S
H1522 C1466 0.947 . S
C1523 C1466 1.392 . S
C1523 C1467 1.419 . S
C1523 H1505 0.948 . S
C1524 C1525 1.391 1_655 S
C1524 C1528 1.391 . S
C1524 H1566 0.948 . S
C1525 C1524 1.391 1_455 S
C1525 C1526 1.391 . S
C1526 C1525 1.391 . S
C1526 H1582 0.947 . S
C1526 C1583 1.392 . S
C1527 C1528 1.391 1_455 S
C1527 C1531 1.397 . S
C1527 C1583 1.419 . S
C1528 C1524 1.391 . S
C1528 C1527 1.391 1_655 S
C1528 C1529 1.399 . S
C1529 C1528 1.399 . S
C1529 C1532 1.396 . S
C1529 C1541 1.453 . S
C1529 C1542 1.684 . S
H1530 C1554 0.948 . S
C1531 C1527 1.397 . S
C1531 C1532 1.394 1_455 S
C1531 C1550 1.723 . S
C1532 C1529 1.396 . S
C1532 C1531 1.394 1_655 S
C1532 C1562 1.723 . S
H1533 C1556 0.947 . S
H1534 C1557 0.948 . S
H1535 C1563 0.982 . S
H1536 C1564 0.979 . S
H1537 C1564 0.980 1_455 S
H1538 C1564 0.983 1_545 S
H1539 C1563 0.979 1_545 S
H1540 C1563 0.977 1_455 S
C1541 C1529 1.453 . S
C1541 H1570 0.982 . S
C1541 H1571 0.979 . S
C1541 H1572 0.977 . S
C1542 C1529 1.684 . S
C1542 H1567 0.979 . S
C1542 H1568 0.980 . S
C1542 H1569 0.983 . S
C1543 C1544 1.391 . S
C1543 C1548 1.391 . S
C1543 H1573 0.948 . S
C1544 C1543 1.391 . S
C1544 C1545 1.391 . S
C1545 C1544 1.391 . S
C1545 C1546 1.392 . S
C1545 H1574 0.947 1_565 S
C1546 C1545 1.392 . S
C1546 C1547 1.419 . S
C1546 H1575 0.948 . S
C1547 C1546 1.419 . S
C1547 C1548 1.391 . S
C1547 C1551 1.397 . S
C1548 C1543 1.391 . S
C1548 C1547 1.391 . S
C1548 C1549 1.399 . S
C1549 C1548 1.399 . S
C1549 C1550 1.396 . S
C1549 C1552 1.453 . S
C1549 C1553 1.684 . S
C1550 C1531 1.723 . S
C1550 C1549 1.396 . S
C1550 C1551 1.394 . S
C1551 C1547 1.397 . S
C1551 C1550 1.394 . S
C1551 C1561 1.723 1_455 S
C1552 C1549 1.453 . S
C1552 H1576 0.982 . S
C1552 H1577 0.979 . S
C1552 H1578 0.977 . S
C1553 C1549 1.684 . S
C1553 H1579 0.979 . S
C1553 H1580 0.980 . S
C1553 H1581 0.983 . S
C1554 H1530 0.948 . S
C1554 C1555 1.391 . S
C1554 C1559 1.391 . S
C1555 C1554 1.391 . S
C1555 C1556 1.391 . S
C1556 H1533 0.947 . S
C1556 C1555 1.391 . S
C1556 C1557 1.392 . S
C1557 H1534 0.948 . S
C1557 C1556 1.392 . S
C1557 C1558 1.419 . S
C1558 C1557 1.419 . S
C1558 C1559 1.391 . S
C1558 C1562 1.397 . S
C1559 C1554 1.391 . S
C1559 C1558 1.391 . S
C1559 C1560 1.399 . S
C1560 C1559 1.399 . S
C1560 C1561 1.396 . S
C1560 C1563 1.453 . S
C1560 C1564 1.684 . S
C1561 C1551 1.723 1_655 S
C1561 C1560 1.396 . S
C1561 C1562 1.394 . S
C1562 C1532 1.723 . S
C1562 C1558 1.397 . S
C1562 C1561 1.394 . S
C1563 H1535 0.982 . S
C1563 H1539 0.979 1_565 S
C1563 H1540 0.977 1_655 S
C1563 C1560 1.453 . S
C1564 H1536 0.979 . S
C1564 H1537 0.980 1_655 S
C1564 H1538 0.983 1_565 S
C1564 C1560 1.684 . S
H1565 C1583 0.948 . S
H1566 C1524 0.948 . S
H1567 C1542 0.979 . S
H1568 C1542 0.980 . S
H1569 C1542 0.983 . S
H1570 C1541 0.982 . S
H1571 C1541 0.979 . S
H1572 C1541 0.977 . S
H1573 C1543 0.948 . S
H1574 C1545 0.947 1_545 S
H1575 C1546 0.948 . S
H1576 C1552 0.982 . S
H1577 C1552 0.979 . S
H1578 C1552 0.977 . S
H1579 C1553 0.979 . S
H1580 C1553 0.980 . S
H1581 C1553 0.983 . S
H1582 C1526 0.947 . S
C1583 C1526 1.392 . S
C1583 C1527 1.419 . S
C1583 H1565 0.948 . S
C1584 C1585 1.391 . S
C1584 C1588 1.391 . S
C1584 H1626 0.948 . S
C1585 C1584 1.391 . S
C1585 C1586 1.391 . S
C1586 C1585 1.391 . S
C1586 H1642 0.947 . S
C1586 C1643 1.392 . S
C1587 C1588 1.391 . S
C1587 C1591 1.397 . S
C1587 C1643 1.419 . S
C1588 C1584 1.391 . S
C1588 C1587 1.391 . S
C1588 C1589 1.399 . S
C1589 C1588 1.399 . S
C1589 C1592 1.396 . S
C1589 C1601 1.453 . S
C1589 C1602 1.684 . S
H1590 C1614 0.948 . S
C1591 C1587 1.397 . S
C1591 C1592 1.394 . S
C1591 C1610 1.723 . S
C1592 C1589 1.396 . S
C1592 C1591 1.394 . S
C1592 C1622 1.723 . S
H1593 C1616 0.947 . S
H1594 C1617 0.948 . S
H1595 C1623 0.982 . S
H1596 C1624 0.979 . S
H1597 C1624 0.980 . S
H1598 C1624 0.983 . S
H1599 C1623 0.979 . S
H1600 C1623 0.977 . S
C1601 C1589 1.453 . S
C1601 H1630 0.982 . S
C1601 H1631 0.979 1_545 S
C1601 H1632 0.977 . S
C1602 C1589 1.684 . S
C1602 H1627 0.979 . S
C1602 H1628 0.980 . S
C1602 H1629 0.983 1_545 S
C1603 C1604 1.391 . S
C1603 C1608 1.391 . S
C1603 H1633 0.948 . S
C1604 C1603 1.391 . S
C1604 C1605 1.391 . S
C1605 C1604 1.391 . S
C1605 C1606 1.392 . S
C1605 H1634 0.947 . S
C1606 C1605 1.392 . S
C1606 C1607 1.419 . S
C1606 H1635 0.948 . S
C1607 C1606 1.419 . S
C1607 C1608 1.391 . S
C1607 C1611 1.397 . S
C1608 C1603 1.391 . S
C1608 C1607 1.391 . S
C1608 C1609 1.399 . S
C1609 C1608 1.399 . S
C1609 C1610 1.396 . S
C1609 C1612 1.453 . S
C1609 C1613 1.684 . S
C1610 C1591 1.723 . S
C1610 C1609 1.396 . S
C1610 C1611 1.394 . S
C1611 C1607 1.397 . S
C1611 C1610 1.394 . S
C1611 C1621 1.723 . S
C1612 C1609 1.453 . S
C1612 H1636 0.982 . S
C1612 H1637 0.979 . S
C1612 H1638 0.977 . S
C1613 C1609 1.684 . S
C1613 H1639 0.979 . S
C1613 H1640 0.980 . S
C1613 H1641 0.983 . S
C1614 H1590 0.948 . S
C1614 C1615 1.391 . S
C1614 C1619 1.391 . S
C1615 C1614 1.391 . S
C1615 C1616 1.391 . S
C1616 H1593 0.947 . S
C1616 C1615 1.391 . S
C1616 C1617 1.392 . S
C1617 H1594 0.948 . S
C1617 C1616 1.392 . S
C1617 C1618 1.419 . S
C1618 C1617 1.419 . S
C1618 C1619 1.391 . S
C1618 C1622 1.397 . S
C1619 C1614 1.391 . S
C1619 C1618 1.391 . S
C1619 C1620 1.399 . S
C1620 C1619 1.399 . S
C1620 C1621 1.396 . S
C1620 C1623 1.453 . S
C1620 C1624 1.684 . S
C1621 C1611 1.723 . S
C1621 C1620 1.396 . S
C1621 C1622 1.394 . S
C1622 C1592 1.723 . S
C1622 C1618 1.397 . S
C1622 C1621 1.394 . S
C1623 H1595 0.982 . S
C1623 H1599 0.979 . S
C1623 H1600 0.977 . S
C1623 C1620 1.453 . S
C1624 H1596 0.979 . S
C1624 H1597 0.980 . S
C1624 H1598 0.983 . S
C1624 C1620 1.684 . S
H1625 C1643 0.948 . S
H1626 C1584 0.948 . S
H1627 C1602 0.979 . S
H1628 C1602 0.980 . S
H1629 C1602 0.983 1_565 S
H1630 C1601 0.982 . S
H1631 C1601 0.979 1_565 S
H1632 C1601 0.977 . S
H1633 C1603 0.948 . S
H1634 C1605 0.947 . S
H1635 C1606 0.948 . S
H1636 C1612 0.982 . S
H1637 C1612 0.979 . S
H1638 C1612 0.977 . S
H1639 C1613 0.979 . S
H1640 C1613 0.980 . S
H1641 C1613 0.983 . S
H1642 C1586 0.947 . S
C1643 C1586 1.392 . S
C1643 C1587 1.419 . S
C1643 H1625 0.948 . S
C1644 C1645 1.391 . S
C1644 C1648 1.391 . S
C1644 H1686 0.948 . S
C1645 C1644 1.391 . S
C1645 C1646 1.391 . S
C1646 C1645 1.391 . S
C1646 H1702 0.947 . S
C1646 C1703 1.392 . S
C1647 C1648 1.391 . S
C1647 C1651 1.397 . S
C1647 C1703 1.419 . S
C1648 C1644 1.391 . S
C1648 C1647 1.391 . S
C1648 C1649 1.399 . S
C1649 C1648 1.399 . S
C1649 C1652 1.396 . S
C1649 C1661 1.453 . S
C1649 C1662 1.684 . S
H1650 C1674 0.948 . S
C1651 C1647 1.397 . S
C1651 C1652 1.394 . S
C1651 C1670 1.723 . S
C1652 C1649 1.396 . S
C1652 C1651 1.394 . S
C1652 C1682 1.723 1_455 S
H1653 C1676 0.947 . S
H1654 C1677 0.948 . S
H1655 C1683 0.982 . S
H1656 C1684 0.979 . S
H1657 C1684 0.980 . S
H1658 C1684 0.983 . S
H1659 C1683 0.979 . S
H1660 C1683 0.977 . S
C1661 C1649 1.453 . S
C1661 H1690 0.982 . S
C1661 H1691 0.979 . S
C1661 H1692 0.977 . S
C1662 C1649 1.684 . S
C1662 H1687 0.979 . S
C1662 H1688 0.980 . S
C1662 H1689 0.983 . S
C1663 C1664 1.391 1_455 S
C1663 C1668 1.391 . S
C1663 H1693 0.948 . S
C1664 C1663 1.391 1_655 S
C1664 C1665 1.391 . S
C1665 C1664 1.391 . S
C1665 C1666 1.392 . S
C1665 H1694 0.947 . S
C1666 C1665 1.392 . S
C1666 C1667 1.419 . S
C1666 H1695 0.948 . S
C1667 C1666 1.419 . S
C1667 C1668 1.391 1_655 S
C1667 C1671 1.397 . S
C1668 C1663 1.391 . S
C1668 C1667 1.391 1_455 S
C1668 C1669 1.399 . S
C1669 C1668 1.399 . S
C1669 C1670 1.396 . S
C1669 C1672 1.453 . S
C1669 C1673 1.684 . S
C1670 C1651 1.723 . S
C1670 C1669 1.396 . S
C1670 C1671 1.394 1_455 S
C1671 C1667 1.397 . S
C1671 C1670 1.394 1_655 S
C1671 C1681 1.723 . S
C1672 C1669 1.453 . S
C1672 H1696 0.982 . S
C1672 H1697 0.979 . S
C1672 H1698 0.977 . S
C1673 C1669 1.684 . S
C1673 H1699 0.979 . S
C1673 H1700 0.980 . S
C1673 H1701 0.983 . S
C1674 H1650 0.948 . S
C1674 C1675 1.391 . S
C1674 C1679 1.391 . S
C1675 C1674 1.391 . S
C1675 C1676 1.391 . S
C1676 H1653 0.947 . S
C1676 C1675 1.391 . S
C1676 C1677 1.392 . S
C1677 H1654 0.948 . S
C1677 C1676 1.392 . S
C1677 C1678 1.419 . S
C1678 C1677 1.419 . S
C1678 C1679 1.391 . S
C1678 C1682 1.397 . S
C1679 C1674 1.391 . S
C1679 C1678 1.391 . S
C1679 C1680 1.399 . S
C1680 C1679 1.399 . S
C1680 C1681 1.396 . S
C1680 C1683 1.453 . S
C1680 C1684 1.684 . S
C1681 C1671 1.723 . S
C1681 C1680 1.396 . S
C1681 C1682 1.394 . S
C1682 C1652 1.723 1_655 S
C1682 C1678 1.397 . S
C1682 C1681 1.394 . S
C1683 H1655 0.982 . S
C1683 H1659 0.979 . S
C1683 H1660 0.977 . S
C1683 C1680 1.453 . S
C1684 H1656 0.979 . S
C1684 H1657 0.980 . S
C1684 H1658 0.983 . S
C1684 C1680 1.684 . S
H1685 C1703 0.948 . S
H1686 C1644 0.948 . S
H1687 C1662 0.979 . S
H1688 C1662 0.980 . S
H1689 C1662 0.983 . S
H1690 C1661 0.982 . S
H1691 C1661 0.979 . S
H1692 C1661 0.977 . S
H1693 C1663 0.948 . S
H1694 C1665 0.947 . S
H1695 C1666 0.948 . S
H1696 C1672 0.982 . S
H1697 C1672 0.979 . S
H1698 C1672 0.977 . S
H1699 C1673 0.979 . S
H1700 C1673 0.980 . S
H1701 C1673 0.983 . S
H1702 C1646 0.947 . S
C1703 C1646 1.392 . S
C1703 C1647 1.419 . S
C1703 H1685 0.948 . S
C1704 C1705 1.369 . S
C1704 C1706 1.419 . S
C1704 H1708 0.930 . S
C1705 C1704 1.369 . S
C1705 C1714 1.429 . S
C1706 C1704 1.419 . S
C1706 C1707 1.363 . S
C1706 H1709 0.929 . S
C1707 C1706 1.363 . S
C1707 C1713 1.428 . S
H1708 C1704 0.930 . S
H1709 C1706 0.929 . S
S1710 N1711 1.613 . S
S1710 N1712 1.610 . S
N1711 S1710 1.613 . S
N1711 C1714 1.350 . S
N1712 S1710 1.610 . S
N1712 C1713 1.351 . S
C1713 C1707 1.428 . S
C1713 N1712 1.351 . S
C1713 C1714 1.434 . S
C1714 C1705 1.429 . S
C1714 N1711 1.350 . S
C1714 C1713 1.434 . S
C1715 C1716 1.369 . S
C1715 C1717 1.419 . S
C1715 H1719 0.930 . S
C1716 C1715 1.369 . S
C1716 C1725 1.429 . S
C1717 C1715 1.419 . S
C1717 C1718 1.363 . S
C1717 H1720 0.929 . S
C1718 C1717 1.363 . S
C1718 C1724 1.428 . S
H1719 C1715 0.930 . S
H1720 C1717 0.929 . S
S1721 N1722 1.613 . S
S1721 N1723 1.610 . S
N1722 S1721 1.613 . S
N1722 C1725 1.350 . S
N1723 S1721 1.610 . S
N1723 C1724 1.351 . S
C1724 C1718 1.428 . S
C1724 N1723 1.351 . S
C1724 C1725 1.434 . S
C1725 C1716 1.429 . S
C1725 N1722 1.350 . S
C1725 C1724 1.434 . S
C1726 C1727 1.369 . S
C1726 C1728 1.419 . S
C1726 H1730 0.930 . S
C1727 C1726 1.369 . S
C1727 C1736 1.429 1_545 S
C1728 C1726 1.419 . S
C1728 C1729 1.363 . S
C1728 H1731 0.929 . S
C1729 C1728 1.363 . S
C1729 C1735 1.428 1_545 S
H1730 C1726 0.930 . S
H1731 C1728 0.929 . S
S1732 N1733 1.613 . S
S1732 N1734 1.610 . S
N1733 S1732 1.613 . S
N1733 C1736 1.350 . S
N1734 S1732 1.610 . S
N1734 C1735 1.351 . S
C1735 C1729 1.428 1_565 S
C1735 N1734 1.351 . S
C1735 C1736 1.434 . S
C1736 C1727 1.429 1_565 S
C1736 N1733 1.350 . S
C1736 C1735 1.434 . S
C1737 C1738 1.369 . S
C1737 C1739 1.419 . S
C1737 H1741 0.930 . S
C1738 C1737 1.369 . S
C1738 C1747 1.429 1_565 S
C1739 C1737 1.419 . S
C1739 C1740 1.363 . S
C1739 H1742 0.929 . S
C1740 C1739 1.363 . S
C1740 C1746 1.428 1_565 S
H1741 C1737 0.930 . S
H1742 C1739 0.929 . S
S1743 N1744 1.613 . S
S1743 N1745 1.610 . S
N1744 S1743 1.613 . S
N1744 C1747 1.350 . S
N1745 S1743 1.610 . S
N1745 C1746 1.351 . S
C1746 C1740 1.428 1_545 S
C1746 N1745 1.351 . S
C1746 C1747 1.434 . S
C1747 C1738 1.429 1_545 S
C1747 N1744 1.350 . S
C1747 C1746 1.434 . S
C1748 C1749 1.369 . S
C1748 C1750 1.419 . S
C1748 H1752 0.930 . S
C1749 C1748 1.369 . S
C1749 C1758 1.429 . S
C1750 C1748 1.419 . S
C1750 C1751 1.363 . S
C1750 H1753 0.929 . S
C1751 C1750 1.363 . S
C1751 C1757 1.428 . S
H1752 C1748 0.930 . S
H1753 C1750 0.929 . S
S1754 N1755 1.613 . S
S1754 N1756 1.610 . S
N1755 S1754 1.613 . S
N1755 C1758 1.350 . S
N1756 S1754 1.610 . S
N1756 C1757 1.351 . S
C1757 C1751 1.428 . S
C1757 N1756 1.351 . S
C1757 C1758 1.434 . S
C1758 C1749 1.429 . S
C1758 N1755 1.350 . S
C1758 C1757 1.434 . S
C1759 C1760 1.369 . S
C1759 C1761 1.419 . S
C1759 H1763 0.930 . S
C1760 C1759 1.369 . S
C1760 C1769 1.429 . S
C1761 C1759 1.419 . S
C1761 C1762 1.363 . S
C1761 H1764 0.929 . S
C1762 C1761 1.363 . S
C1762 C1768 1.428 . S
H1763 C1759 0.930 . S
H1764 C1761 0.929 . S
S1765 N1766 1.613 . S
S1765 N1767 1.611 1_554 S
N1766 S1765 1.613 . S
N1766 C1769 1.350 1_554 S
N1767 S1765 1.611 1_556 S
N1767 C1768 1.351 . S
C1768 C1762 1.428 . S
C1768 N1767 1.351 . S
C1768 C1769 1.434 . S
C1769 C1760 1.429 . S
C1769 N1766 1.350 1_556 S
C1769 C1768 1.434 . S
C1770 C1771 1.369 . S
C1770 C1772 1.419 . S
C1770 H1774 0.930 . S
C1771 C1770 1.369 . S
C1771 C1780 1.429 . S
C1772 C1770 1.419 . S
C1772 C1773 1.363 . S
C1772 H1775 0.929 . S
C1773 C1772 1.363 . S
C1773 C1779 1.428 . S
H1774 C1770 0.930 . S
H1775 C1772 0.929 . S
S1776 N1777 1.613 . S
S1776 N1778 1.610 . S
N1777 S1776 1.613 . S
N1777 C1780 1.350 . S
N1778 S1776 1.610 . S
N1778 C1779 1.351 . S
C1779 C1773 1.428 . S
C1779 N1778 1.351 . S
C1779 C1780 1.434 . S
C1780 C1771 1.429 . S
C1780 N1777 1.350 . S
C1780 C1779 1.434 . S
C1781 C1782 1.369 . S
C1781 C1783 1.419 . S
C1781 H1785 0.930 . S
C1782 C1781 1.369 . S
C1782 C1791 1.429 1_554 S
C1783 C1781 1.419 . S
C1783 C1784 1.363 . S
C1783 H1786 0.929 . S
C1784 C1783 1.363 . S
C1784 C1790 1.428 1_554 S
H1785 C1781 0.930 . S
H1786 C1783 0.929 . S
S1787 N1788 1.613 . S
S1787 N1789 1.610 . S
N1788 S1787 1.613 . S
N1788 C1791 1.350 . S
N1789 S1787 1.610 . S
N1789 C1790 1.351 . S
C1790 C1784 1.428 1_556 S
C1790 N1789 1.351 . S
C1790 C1791 1.434 . S
C1791 C1782 1.429 1_556 S
C1791 N1788 1.350 . S
C1791 C1790 1.434 . S
C1792 C1793 1.369 . S
C1792 C1794 1.419 . S
C1792 H1796 0.930 . S
C1793 C1792 1.369 . S
C1793 C1802 1.429 . S
C1794 C1792 1.419 . S
C1794 C1795 1.363 . S
C1794 H1797 0.929 . S
C1795 C1794 1.363 . S
C1795 C1801 1.428 . S
H1796 C1792 0.930 . S
H1797 C1794 0.929 . S
S1798 N1799 1.613 . S
S1798 N1800 1.610 . S
N1799 S1798 1.613 . S
N1799 C1802 1.350 . S
N1800 S1798 1.610 . S
N1800 C1801 1.351 . S
C1801 C1795 1.428 . S
C1801 N1800 1.351 . S
C1801 C1802 1.434 . S
C1802 C1793 1.429 . S
C1802 N1799 1.350 . S
C1802 C1801 1.434 . S
C1803 C1804 1.369 1_455 S
C1803 C1805 1.429 . S
C1803 H1807 0.930 . S
C1804 C1803 1.369 1_655 S
C1804 C1813 1.429 . S
C1805 C1803 1.429 . S
C1805 C1806 1.323 1_455 S
C1805 H1808 0.961 . S
C1806 C1805 1.323 1_655 S
C1806 C1812 1.428 . S
H1807 C1803 0.930 . S
H1808 C1805 0.961 . S
S1809 N1810 1.613 . S
S1809 N1811 1.610 . S
N1810 S1809 1.613 . S
N1810 C1813 1.350 . S
N1811 S1809 1.610 . S
N1811 C1812 1.351 . S
C1812 C1806 1.428 . S
C1812 N1811 1.351 . S
C1812 C1813 1.434 . S
C1813 C1804 1.429 . S
C1813 N1810 1.350 . S
C1813 C1812 1.434 . S
C1814 C1815 1.369 . S
C1814 C1816 1.419 . S
C1814 H1818 0.930 . S
C1815 C1814 1.369 . S
C1815 C1824 1.429 . S
C1816 C1814 1.419 . S
C1816 C1817 1.363 . S
C1816 H1819 0.929 . S
C1817 C1816 1.363 . S
C1817 C1823 1.428 . S
H1818 C1814 0.930 . S
H1819 C1816 0.929 . S
S1820 N1821 1.613 . S
S1820 N1822 1.610 . S
N1821 S1820 1.613 . S
N1821 C1824 1.350 . S
N1822 S1820 1.610 . S
N1822 C1823 1.351 . S
C1823 C1817 1.428 . S
C1823 N1822 1.351 . S
C1823 C1824 1.434 . S
C1824 C1815 1.429 . S
C1824 N1821 1.350 . S
C1824 C1823 1.434 . S
C1825 C1826 1.369 1_655 S
C1825 C1827 1.419 . S
C1825 H1829 0.930 . S
C1826 C1825 1.369 1_455 S
C1826 C1835 1.429 . S
C1827 C1825 1.419 . S
C1827 C1828 1.363 1_655 S
C1827 H1830 0.929 . S
C1828 C1827 1.363 1_455 S
C1828 C1834 1.428 . S
H1829 C1825 0.930 . S
H1830 C1827 0.929 . S
S1831 N1832 1.613 . S
S1831 N1833 1.610 . S
N1832 S1831 1.613 . S
N1832 C1835 1.350 . S
N1833 S1831 1.610 . S
N1833 C1834 1.351 . S
C1834 C1828 1.428 . S
C1834 N1833 1.351 . S
C1834 C1835 1.434 . S
C1835 C1826 1.429 . S
C1835 N1832 1.350 . S
C1835 C1834 1.434 . S
C1836 C1837 1.369 . S
C1836 C1838 1.419 . S
C1836 H1840 0.930 . S
C1837 C1836 1.369 . S
C1837 C1846 1.429 . S
C1838 C1836 1.419 . S
C1838 C1839 1.363 . S
C1838 H1841 0.929 . S
C1839 C1838 1.363 . S
C1839 C1845 1.428 . S
H1840 C1836 0.930 . S
H1841 C1838 0.929 . S
S1842 N1843 1.613 . S
S1842 N1844 1.610 . S
N1843 S1842 1.613 . S
N1843 C1846 1.350 . S
N1844 S1842 1.610 . S
N1844 C1845 1.351 . S
C1845 C1839 1.428 . S
C1845 N1844 1.351 . S
C1845 C1846 1.434 . S
C1846 C1837 1.429 . S
C1846 N1843 1.350 . S
C1846 C1845 1.434 . S
C1847 C1848 1.369 . S
C1847 C1849 1.419 . S
C1847 H1851 0.930 . S
C1848 C1847 1.369 . S
C1848 C1857 1.429 . S
C1849 C1847 1.419 . S
C1849 C1850 1.363 . S
C1849 H1852 0.929 . S
C1850 C1849 1.363 . S
C1850 C1856 1.428 . S
H1851 C1847 0.930 . S
H1852 C1849 0.929 . S
S1853 N1854 1.613 . S
S1853 N1855 1.610 . S
N1854 S1853 1.613 . S
N1854 C1857 1.350 . S
N1855 S1853 1.610 . S
N1855 C1856 1.351 . S
C1856 C1850 1.428 . S
C1856 N1855 1.351 . S
C1856 C1857 1.434 . S
C1857 C1848 1.429 . S
C1857 N1854 1.350 . S
C1857 C1856 1.434 . S
C1858 C1859 1.369 . S
C1858 C1860 1.419 . S
C1858 H1862 0.930 1_565 S
C1859 C1858 1.369 . S
C1859 C1868 1.429 . S
C1860 C1858 1.419 . S
C1860 C1861 1.363 . S
C1860 H1863 0.929 1_565 S
C1861 C1860 1.363 . S
C1861 C1867 1.428 . S
H1862 C1858 0.930 1_545 S
H1863 C1860 0.929 1_545 S
S1864 N1865 1.613 . S
S1864 N1866 1.610 . S
N1865 S1864 1.613 . S
N1865 C1868 1.350 . S
N1866 S1864 1.610 . S
N1866 C1867 1.351 . S
C1867 C1861 1.428 . S
C1867 N1866 1.351 . S
C1867 C1868 1.434 . S
C1868 C1859 1.429 . S
C1868 N1865 1.350 . S
C1868 C1867 1.434 . S
C1869 C1870 1.369 1_565 S
C1869 C1871 1.418 1_565 S
C1869 H1873 0.931 . S
C1870 C1869 1.369 1_545 S
C1870 C1879 1.429 . S
C1871 C1869 1.418 1_545 S
C1871 C1872 1.363 . S
C1871 H1874 0.929 1_545 S
C1872 C1871 1.363 . S
C1872 C1878 1.428 . S
H1873 C1869 0.931 . S
H1874 C1871 0.929 1_565 S
S1875 N1876 1.613 . S
S1875 N1877 1.610 . S
N1876 S1875 1.613 . S
N1876 C1879 1.350 . S
N1877 S1875 1.610 . S
N1877 C1878 1.351 . S
C1878 C1872 1.428 . S
C1878 N1877 1.351 . S
C1878 C1879 1.434 . S
C1879 C1870 1.429 . S
C1879 N1876 1.350 . S
C1879 C1878 1.434 . S
C1880 C1881 1.369 . S
C1880 C1882 1.419 . S
C1880 H1884 0.930 . S
C1881 C1880 1.369 . S
C1881 C1890 1.429 . S
C1882 C1880 1.419 . S
C1882 C1883 1.363 . S
C1882 H1885 0.929 . S
C1883 C1882 1.363 . S
C1883 C1889 1.428 . S
H1884 C1880 0.930 . S
H1885 C1882 0.929 . S
S1886 N1887 1.613 . S
S1886 N1888 1.610 . S
N1887 S1886 1.613 . S
N1887 C1890 1.350 . S
N1888 S1886 1.610 . S
N1888 C1889 1.351 . S
C1889 C1883 1.428 . S
C1889 N1888 1.351 . S
C1889 C1890 1.434 . S
C1890 C1881 1.429 . S
C1890 N1887 1.350 . S
C1890 C1889 1.434 . S
C1891 C1892 1.369 . S
C1891 C1893 1.419 . S
C1891 H1895 0.930 . S
C1892 C1891 1.369 . S
C1892 C1901 1.429 . S
C1893 C1891 1.419 . S
C1893 C1894 1.363 . S
C1893 H1896 0.929 . S
C1894 C1893 1.363 . S
C1894 C1900 1.428 . S
H1895 C1891 0.930 . S
H1896 C1893 0.929 . S
S1897 N1898 1.613 . S
S1897 N1899 1.610 . S
N1898 S1897 1.613 . S
N1898 C1901 1.350 1_556 S
N1899 S1897 1.610 . S
N1899 C1900 1.351 1_556 S
C1900 C1894 1.428 . S
C1900 N1899 1.351 1_554 S
C1900 C1901 1.434 . S
C1901 C1892 1.429 . S
C1901 N1898 1.350 1_554 S
C1901 C1900 1.434 . S
C1902 C1903 1.369 . S
C1902 C1904 1.419 . S
C1902 H1906 0.930 . S
C1903 C1902 1.369 . S
C1903 C1912 1.429 . S
C1904 C1902 1.419 . S
C1904 C1905 1.363 . S
C1904 H1907 0.929 . S
C1905 C1904 1.363 . S
C1905 C1911 1.428 . S
H1906 C1902 0.930 . S
H1907 C1904 0.929 . S
S1908 N1909 1.613 . S
S1908 N1910 1.610 . S
N1909 S1908 1.613 . S
N1909 C1912 1.350 . S
N1910 S1908 1.610 . S
N1910 C1911 1.351 . S
C1911 C1905 1.428 . S
C1911 N1910 1.351 . S
C1911 C1912 1.434 . S
C1912 C1903 1.429 . S
C1912 N1909 1.350 . S
C1912 C1911 1.434 . S
C1913 C1914 1.362 1_554 S
C1913 C1915 1.416 1_554 S
C1913 H1917 0.941 . S
C1914 C1913 1.362 1_556 S
C1914 C1923 1.429 . S
C1915 C1913 1.416 1_556 S
C1915 C1916 1.363 . S
C1915 H1918 0.929 1_556 S
C1916 C1915 1.363 . S
C1916 C1922 1.428 . S
H1917 C1913 0.941 . S
H1918 C1915 0.929 1_554 S
S1919 N1920 1.613 . S
S1919 N1921 1.610 . S
N1920 S1919 1.613 . S
N1920 C1923 1.350 . S
N1921 S1919 1.610 . S
N1921 C1922 1.351 . S
C1922 C1916 1.428 . S
C1922 N1921 1.351 . S
C1922 C1923 1.434 . S
C1923 C1914 1.429 . S
C1923 N1920 1.350 . S
C1923 C1922 1.434 . S
C1924 C1925 1.369 . S
C1924 C1926 1.419 . S
C1924 H1928 0.930 . S
C1925 C1924 1.369 . S
C1925 C1934 1.429 . S
C1926 C1924 1.419 . S
C1926 C1927 1.363 . S
C1926 H1929 0.929 . S
C1927 C1926 1.363 . S
C1927 C1933 1.428 . S
H1928 C1924 0.930 . S
H1929 C1926 0.929 . S
S1930 N1931 1.613 . S
S1930 N1932 1.610 . S
N1931 S1930 1.613 . S
N1931 C1934 1.350 . S
N1932 S1930 1.610 . S
N1932 C1933 1.351 . S
C1933 C1927 1.428 . S
C1933 N1932 1.351 . S
C1933 C1934 1.434 . S
C1934 C1925 1.429 . S
C1934 N1931 1.350 . S
C1934 C1933 1.434 . S
C1935 C1936 1.369 . S
C1935 C1937 1.419 . S
C1935 H1939 0.930 . S
C1936 C1935 1.369 . S
C1936 C1945 1.429 1_455 S
C1937 C1935 1.419 . S
C1937 C1938 1.363 . S
C1937 H1940 0.929 . S
C1938 C1937 1.363 . S
C1938 C1944 1.428 1_455 S
H1939 C1935 0.930 . S
H1940 C1937 0.929 . S
S1941 N1942 1.613 . S
S1941 N1943 1.610 . S
N1942 S1941 1.613 . S
N1942 C1945 1.350 . S
N1943 S1941 1.610 . S
N1943 C1944 1.351 . S
C1944 C1938 1.428 1_655 S
C1944 N1943 1.351 . S
C1944 C1945 1.434 . S
C1945 C1936 1.429 1_655 S
C1945 N1942 1.350 . S
C1945 C1944 1.434 . S
C1946 C1947 1.369 . S
C1946 C1948 1.419 . S
C1946 H1950 0.930 . S
C1947 C1946 1.369 . S
C1947 C1956 1.429 . S
C1948 C1946 1.419 . S
C1948 C1949 1.363 . S
C1948 H1951 0.929 . S
C1949 C1948 1.363 . S
C1949 C1955 1.428 . S
H1950 C1946 0.930 . S
H1951 C1948 0.929 . S
S1952 N1953 1.613 . S
S1952 N1954 1.610 . S
N1953 S1952 1.613 . S
N1953 C1956 1.350 . S
N1954 S1952 1.610 . S
N1954 C1955 1.351 . S
C1955 C1949 1.428 . S
C1955 N1954 1.351 . S
C1955 C1956 1.434 . S
C1956 C1947 1.429 . S
C1956 N1953 1.350 . S
C1956 C1955 1.434 . S
C1957 C1958 1.369 . S
C1957 C1959 1.419 . S
C1957 H1961 0.930 . S
C1958 C1957 1.369 . S
C1958 C1967 1.429 . S
C1959 C1957 1.419 . S
C1959 C1960 1.363 . S
C1959 H1962 0.929 . S
C1960 C1959 1.363 . S
C1960 C1966 1.428 . S
H1961 C1957 0.930 . S
H1962 C1959 0.929 . S
S1963 N1964 1.613 . S
S1963 N1965 1.610 . S
N1964 S1963 1.613 . S
N1964 C1967 1.350 . S
N1965 S1963 1.610 . S
N1965 C1966 1.351 . S
C1966 C1960 1.428 . S
C1966 N1965 1.351 . S
C1966 C1967 1.434 . S
C1967 C1958 1.429 . S
C1967 N1964 1.350 . S
C1967 C1966 1.434 . S
C1968 C1969 1.369 . S
C1968 C1970 1.419 . S
C1968 H1972 0.930 . S
C1969 C1968 1.369 . S
C1969 C1978 1.429 . S
C1970 C1968 1.419 . S
C1970 C1971 1.363 . S
C1970 H1973 0.929 . S
C1971 C1970 1.363 . S
C1971 C1977 1.428 . S
H1972 C1968 0.930 . S
H1973 C1970 0.929 . S
S1974 N1975 1.613 . S
S1974 N1976 1.610 . S
N1975 S1974 1.613 . S
N1975 C1978 1.350 . S
N1976 S1974 1.610 . S
N1976 C1977 1.351 . S
C1977 C1971 1.428 . S
C1977 N1976 1.351 . S
C1977 C1978 1.434 . S
C1978 C1969 1.429 . S
C1978 N1975 1.350 . S
C1978 C1977 1.434 . S
C1979 C1980 1.369 . S
C1979 C1981 1.419 . S
C1979 H1983 0.930 . S
C1980 C1979 1.369 . S
C1980 C1989 1.429 . S
C1981 C1979 1.419 . S
C1981 C1982 1.363 . S
C1981 H1984 0.929 . S
C1982 C1981 1.363 . S
C1982 C1988 1.428 . S
H1983 C1979 0.930 . S
H1984 C1981 0.929 . S
S1985 N1986 1.613 . S
S1985 N1987 1.610 . S
N1986 S1985 1.613 . S
N1986 C1989 1.350 . S
N1987 S1985 1.610 . S
N1987 C1988 1.351 . S
C1988 C1982 1.428 . S
C1988 N1987 1.351 . S
C1988 C1989 1.434 . S
C1989 C1980 1.429 . S
C1989 N1986 1.350 . S
C1989 C1988 1.434 . S
C1990 C1991 1.385 . S
C1990 C1992 1.403 1_565 S
C1990 H1994 0.933 1_565 S
C1991 C1990 1.385 . S
C1991 C2000 1.429 . S
C1992 C1990 1.403 1_545 S
C1992 C1993 1.363 . S
C1992 H1995 0.929 . S
C1993 C1992 1.363 . S
C1993 C1999 1.428 1_545 S
H1994 C1990 0.933 1_545 S
H1995 C1992 0.929 . S
S1996 N1997 1.613 . S
S1996 N1998 1.610 . S
N1997 S1996 1.613 . S
N1997 C2000 1.350 . S
N1998 S1996 1.610 . S
N1998 C1999 1.351 . S
C1999 C1993 1.428 1_565 S
C1999 N1998 1.351 . S
C1999 C2000 1.434 . S
C2000 C1991 1.429 . S
C2000 N1997 1.350 . S
C2000 C1999 1.434 . S
C2001 C2002 1.369 . S
C2001 C2003 1.412 1_545 S
C2001 H2005 0.930 . S
C2002 C2001 1.369 . S
C2002 C2011 1.429 . S
C2003 C2001 1.412 1_565 S
C2003 C2004 1.355 1_565 S
C2003 H2006 0.946 . S
C2004 C2003 1.355 1_545 S
C2004 C2010 1.428 . S
H2005 C2001 0.930 . S
H2006 C2003 0.946 . S
S2007 N2008 1.613 . S
S2007 N2009 1.610 . S
N2008 S2007 1.613 . S
N2008 C2011 1.350 . S
N2009 S2007 1.610 . S
N2009 C2010 1.351 . S
C2010 C2004 1.428 . S
C2010 N2009 1.351 . S
C2010 C2011 1.434 . S
C2011 C2002 1.429 . S
C2011 N2008 1.350 . S
C2011 C2010 1.434 . S
C2012 C2013 1.369 . S
C2012 C2014 1.419 . S
C2012 H2016 0.930 . S
C2013 C2012 1.369 . S
C2013 C2022 1.429 . S
C2014 C2012 1.419 . S
C2014 C2015 1.363 . S
C2014 H2017 0.929 . S
C2015 C2014 1.363 . S
C2015 C2021 1.428 . S
H2016 C2012 0.930 . S
H2017 C2014 0.929 . S
S2018 N2019 1.613 . S
S2018 N2020 1.610 . S
N2019 S2018 1.613 . S
N2019 C2022 1.350 . S
N2020 S2018 1.610 . S
N2020 C2021 1.351 . S
C2021 C2015 1.428 . S
C2021 N2020 1.351 . S
C2021 C2022 1.434 . S
C2022 C2013 1.429 . S
C2022 N2019 1.350 . S
C2022 C2021 1.434 . S
C2023 C2024 1.369 . S
C2023 C2025 1.419 . S
C2023 H2027 0.930 . S
C2024 C2023 1.369 . S
C2024 C2033 1.429 1_554 S
C2025 C2023 1.419 . S
C2025 C2026 1.363 . S
C2025 H2028 0.929 . S
C2026 C2025 1.363 . S
C2026 C2032 1.428 1_554 S
H2027 C2023 0.930 . S
H2028 C2025 0.929 . S
S2029 N2030 1.613 . S
S2029 N2031 1.610 . S
N2030 S2029 1.613 . S
N2030 C2033 1.350 . S
N2031 S2029 1.610 . S
N2031 C2032 1.351 . S
C2032 C2026 1.428 1_556 S
C2032 N2031 1.351 . S
C2032 C2033 1.434 . S
C2033 C2024 1.429 1_556 S
C2033 N2030 1.350 . S
C2033 C2032 1.434 . S
C2034 C2035 1.369 . S
C2034 C2036 1.419 . S
C2034 H2038 0.930 . S
C2035 C2034 1.369 . S
C2035 C2044 1.429 . S
C2036 C2034 1.419 . S
C2036 C2037 1.363 . S
C2036 H2039 0.929 . S
C2037 C2036 1.363 . S
C2037 C2043 1.428 . S
H2038 C2034 0.930 . S
H2039 C2036 0.929 . S
S2040 N2041 1.613 . S
S2040 N2042 1.610 . S
N2041 S2040 1.613 . S
N2041 C2044 1.350 . S
N2042 S2040 1.610 . S
N2042 C2043 1.351 . S
C2043 C2037 1.428 . S
C2043 N2042 1.351 . S
C2043 C2044 1.434 . S
C2044 C2035 1.429 . S
C2044 N2041 1.350 . S
C2044 C2043 1.434 . S
C2045 C2046 1.369 1_554 S
C2045 C2047 1.419 . S
C2045 H2049 0.930 . S
C2046 C2045 1.369 1_556 S
C2046 C2055 1.429 . S
C2047 C2045 1.419 . S
C2047 C2048 1.363 . S
C2047 H2050 0.929 . S
C2048 C2047 1.363 . S
C2048 C2054 1.428 1_554 S
H2049 C2045 0.930 . S
H2050 C2047 0.929 . S
S2051 N2052 1.613 . S
S2051 N2053 1.610 . S
N2052 S2051 1.613 . S
N2052 C2055 1.350 . S
N2053 S2051 1.610 . S
N2053 C2054 1.351 . S
C2054 C2048 1.428 1_556 S
C2054 N2053 1.351 . S
C2054 C2055 1.434 . S
C2055 C2046 1.429 . S
C2055 N2052 1.350 . S
C2055 C2054 1.434 . S
C2056 C2057 1.369 . S
C2056 C2058 1.419 . S
C2056 H2060 0.930 . S
C2057 C2056 1.369 . S
C2057 C2066 1.429 . S
C2058 C2056 1.419 . S
C2058 C2059 1.363 . S
C2058 H2061 0.929 . S
C2059 C2058 1.363 . S
C2059 C2065 1.428 . S
H2060 C2056 0.930 . S
H2061 C2058 0.929 . S
S2062 N2063 1.613 . S
S2062 N2064 1.610 . S
N2063 S2062 1.613 . S
N2063 C2066 1.350 . S
N2064 S2062 1.610 . S
N2064 C2065 1.351 . S
C2065 C2059 1.428 . S
C2065 N2064 1.351 . S
C2065 C2066 1.434 . S
C2066 C2057 1.429 . S
C2066 N2063 1.350 . S
C2066 C2065 1.434 . S
C2067 C2068 1.369 1_655 S
C2067 C2069 1.419 . S
C2067 H2071 0.930 . S
C2068 C2067 1.369 1_455 S
C2068 C2077 1.429 . S
C2069 C2067 1.419 . S
C2069 C2070 1.363 1_655 S
C2069 H2072 0.929 . S
C2070 C2069 1.363 1_455 S
C2070 C2076 1.428 . S
H2071 C2067 0.930 . S
H2072 C2069 0.929 . S
S2073 N2074 1.613 . S
S2073 N2075 1.610 . S
N2074 S2073 1.613 . S
N2074 C2077 1.350 . S
N2075 S2073 1.610 . S
N2075 C2076 1.351 . S
C2076 C2070 1.428 . S
C2076 N2075 1.351 . S
C2076 C2077 1.434 . S
C2077 C2068 1.429 . S
C2077 N2074 1.350 . S
C2077 C2076 1.434 . S
C2078 C2079 1.369 . S
C2078 C2080 1.419 . S
C2078 H2082 0.930 . S
C2079 C2078 1.369 . S
C2079 C2088 1.429 . S
C2080 C2078 1.419 . S
C2080 C2081 1.363 . S
C2080 H2083 0.929 . S
C2081 C2080 1.363 . S
C2081 C2087 1.428 . S
H2082 C2078 0.930 . S
H2083 C2080 0.929 . S
S2084 N2085 1.613 . S
S2084 N2086 1.610 . S
N2085 S2084 1.613 . S
N2085 C2088 1.350 . S
N2086 S2084 1.610 . S
N2086 C2087 1.351 . S
C2087 C2081 1.428 . S
C2087 N2086 1.351 . S
C2087 C2088 1.434 . S
C2088 C2079 1.429 . S
C2088 N2085 1.350 . S
C2088 C2087 1.434 . S
C2089 C2090 1.369 . S
C2089 C2091 1.419 1_655 S
C2089 H2093 0.930 . S
C2090 C2089 1.369 . S
C2090 C2099 1.429 . S
C2091 C2089 1.419 1_455 S
C2091 C2092 1.363 . S
C2091 H2094 0.929 . S
C2092 C2091 1.363 . S
C2092 C2098 1.428 . S
H2093 C2089 0.930 . S
H2094 C2091 0.929 . S
S2095 N2096 1.615 . S
S2095 N2097 1.608 1_655 S
N2096 S2095 1.615 . S
N2096 C2099 1.350 . S
N2097 S2095 1.608 1_455 S
N2097 C2098 1.351 . S
C2098 C2092 1.428 . S
C2098 N2097 1.351 . S
C2098 C2099 1.434 1_455 S
C2099 C2090 1.429 . S
C2099 N2096 1.350 . S
C2099 C2098 1.434 1_655 S
C2100 C2101 1.369 . S
C2100 C2102 1.419 . S
C2100 H2104 0.930 . S
C2101 C2100 1.369 . S
C2101 C2110 1.429 . S
C2102 C2100 1.419 . S
C2102 C2103 1.363 . S
C2102 H2105 0.929 . S
C2103 C2102 1.363 . S
C2103 C2109 1.428 . S
H2104 C2100 0.930 . S
H2105 C2102 0.929 . S
S2106 N2107 1.613 . S
S2106 N2108 1.610 . S
N2107 S2106 1.613 . S
N2107 C2110 1.350 . S
N2108 S2106 1.610 . S
N2108 C2109 1.351 . S
C2109 C2103 1.428 . S
C2109 N2108 1.351 . S
C2109 C2110 1.434 . S
C2110 C2101 1.429 . S
C2110 N2107 1.350 . S
C2110 C2109 1.434 . S
C2111 C2112 1.369 . S
C2111 C2113 1.419 . S
C2111 H2115 0.930 . S
C2112 C2111 1.369 . S
C2112 C2121 1.429 . S
C2113 C2111 1.419 . S
C2113 C2114 1.363 . S
C2113 H2116 0.929 . S
C2114 C2113 1.363 . S
C2114 C2120 1.428 . S
H2115 C2111 0.930 . S
H2116 C2113 0.929 . S
S2117 N2118 1.613 . S
S2117 N2119 1.610 . S
N2118 S2117 1.613 . S
N2118 C2121 1.350 . S
N2119 S2117 1.610 . S
N2119 C2120 1.351 . S
C2120 C2114 1.428 . S
C2120 N2119 1.351 . S
C2120 C2121 1.434 . S
C2121 C2112 1.429 . S
C2121 N2118 1.350 . S
C2121 C2120 1.434 . S
C2122 C2123 1.369 . S
C2122 C2124 1.419 . S
C2122 H2126 0.930 . S
C2123 C2122 1.369 . S
C2123 C2132 1.429 1_545 S
C2124 C2122 1.419 . S
C2124 C2125 1.363 1_545 S
C2124 H2127 0.929 . S
C2125 C2124 1.363 1_565 S
C2125 C2131 1.428 . S
H2126 C2122 0.930 . S
H2127 C2124 0.929 . S
S2128 N2129 1.613 . S
S2128 N2130 1.610 . S
N2129 S2128 1.613 . S
N2129 C2132 1.350 . S
N2130 S2128 1.610 . S
N2130 C2131 1.351 . S
C2131 C2125 1.428 . S
C2131 N2130 1.351 . S
C2131 C2132 1.434 . S
C2132 C2123 1.429 1_565 S
C2132 N2129 1.350 . S
C2132 C2131 1.434 . S
C2133 C2134 1.369 . S
C2133 C2135 1.419 . S
C2133 H2137 0.930 . S
C2134 C2133 1.369 . S
C2134 C2143 1.429 . S
C2135 C2133 1.419 . S
C2135 C2136 1.363 . S
C2135 H2138 0.929 . S
C2136 C2135 1.363 . S
C2136 C2142 1.428 1_565 S
H2137 C2133 0.930 . S
H2138 C2135 0.929 . S
S2139 N2140 1.613 . S
S2139 N2141 1.610 . S
N2140 S2139 1.613 . S
N2140 C2143 1.350 1_545 S
N2141 S2139 1.610 . S
N2141 C2142 1.351 . S
C2142 C2136 1.428 1_545 S
C2142 N2141 1.351 . S
C2142 C2143 1.434 1_545 S
C2143 C2134 1.429 . S
C2143 N2140 1.350 1_565 S
C2143 C2142 1.434 1_565 S
C2144 C2145 1.369 . S
C2144 C2146 1.419 . S
C2144 H2148 0.930 . S
C2145 C2144 1.369 . S
C2145 C2154 1.429 . S
C2146 C2144 1.419 . S
C2146 C2147 1.363 . S
C2146 H2149 0.929 . S
C2147 C2146 1.363 . S
C2147 C2153 1.428 . S
H2148 C2144 0.930 . S
H2149 C2146 0.929 . S
S2150 N2151 1.613 . S
S2150 N2152 1.610 . S
N2151 S2150 1.613 . S
N2151 C2154 1.350 . S
N2152 S2150 1.610 . S
N2152 C2153 1.351 . S
C2153 C2147 1.428 . S
C2153 N2152 1.351 . S
C2153 C2154 1.434 . S
C2154 C2145 1.429 . S
C2154 N2151 1.350 . S
C2154 C2153 1.434 . S
C2155 C2156 1.369 1_554 S
C2155 C2157 1.419 . S
C2155 H2159 0.930 . S
C2156 C2155 1.369 1_556 S
C2156 C2165 1.429 . S
C2157 C2155 1.419 . S
C2157 C2158 1.363 1_554 S
C2157 H2160 0.929 . S
C2158 C2157 1.363 1_556 S
C2158 C2164 1.428 . S
H2159 C2155 0.930 . S
H2160 C2157 0.929 . S
S2161 N2162 1.613 . S
S2161 N2163 1.610 . S
N2162 S2161 1.613 . S
N2162 C2165 1.350 . S
N2163 S2161 1.610 . S
N2163 C2164 1.351 . S
C2164 C2158 1.428 . S
C2164 N2163 1.351 . S
C2164 C2165 1.434 . S
C2165 C2156 1.429 . S
C2165 N2162 1.350 . S
C2165 C2164 1.434 . S
C2166 C2167 1.369 . S
C2166 C2168 1.419 . S
C2166 H2170 0.930 . S
C2167 C2166 1.369 . S
C2167 C2176 1.429 . S
C2168 C2166 1.419 . S
C2168 C2169 1.363 . S
C2168 H2171 0.929 . S
C2169 C2168 1.363 . S
C2169 C2175 1.428 . S
H2170 C2166 0.930 . S
H2171 C2168 0.929 . S
S2172 N2173 1.613 . S
S2172 N2174 1.610 . S
N2173 S2172 1.613 . S
N2173 C2176 1.350 . S
N2174 S2172 1.610 . S
N2174 C2175 1.351 . S
C2175 C2169 1.428 . S
C2175 N2174 1.351 . S
C2175 C2176 1.434 . S
C2176 C2167 1.429 . S
C2176 N2173 1.350 . S
C2176 C2175 1.434 . S
C2177 C2178 1.369 1_556 S
C2177 C2179 1.419 . S
C2177 H2181 0.930 . S
C2178 C2177 1.369 1_554 S
C2178 C2187 1.429 . S
C2179 C2177 1.419 . S
C2179 C2180 1.363 . S
C2179 H2182 0.929 . S
C2180 C2179 1.363 . S
C2180 C2186 1.428 1_556 S
H2181 C2177 0.930 . S
H2182 C2179 0.929 . S
S2183 N2184 1.613 . S
S2183 N2185 1.610 . S
N2184 S2183 1.613 . S
N2184 C2187 1.350 . S
N2185 S2183 1.610 . S
N2185 C2186 1.351 . S
C2186 C2180 1.428 1_554 S
C2186 N2185 1.351 . S
C2186 C2187 1.434 . S
C2187 C2178 1.429 . S
C2187 N2184 1.350 . S
C2187 C2186 1.434 . S
C2188 C2189 1.369 . S
C2188 C2190 1.419 . S
C2188 H2192 0.930 . S
C2189 C2188 1.369 . S
C2189 C2198 1.429 . S
C2190 C2188 1.419 . S
C2190 C2191 1.363 . S
C2190 H2193 0.929 . S
C2191 C2190 1.363 . S
C2191 C2197 1.428 . S
H2192 C2188 0.930 . S
H2193 C2190 0.929 . S
S2194 N2195 1.613 . S
S2194 N2196 1.610 . S
N2195 S2194 1.613 . S
N2195 C2198 1.350 . S
N2196 S2194 1.610 . S
N2196 C2197 1.351 . S
C2197 C2191 1.428 . S
C2197 N2196 1.351 . S
C2197 C2198 1.434 . S
C2198 C2189 1.429 . S
C2198 N2195 1.350 . S
C2198 C2197 1.434 . S
C2199 C2200 1.371 1_455 S
C2199 C2201 1.418 . S
C2199 H2203 0.928 . S
C2200 C2199 1.371 1_655 S
C2200 C2209 1.429 . S
C2201 C2199 1.418 . S
C2201 C2202 1.363 1_455 S
C2201 H2204 0.929 . S
C2202 C2201 1.363 1_655 S
C2202 C2208 1.428 . S
H2203 C2199 0.928 . S
H2204 C2201 0.929 . S
S2205 N2206 1.613 . S
S2205 N2207 1.610 . S
N2206 S2205 1.613 . S
N2206 C2209 1.350 . S
N2207 S2205 1.610 . S
N2207 C2208 1.351 . S
C2208 C2202 1.428 . S
C2208 N2207 1.351 . S
C2208 C2209 1.434 . S
C2209 C2200 1.429 . S
C2209 N2206 1.350 . S
C2209 C2208 1.434 . S
C2210 C2211 1.369 . S
C2210 C2212 1.419 . S
C2210 H2214 0.930 . S
C2211 C2210 1.369 . S
C2211 C2220 1.429 . S
C2212 C2210 1.419 . S
C2212 C2213 1.363 . S
C2212 H2215 0.929 . S
C2213 C2212 1.363 . S
C2213 C2219 1.428 . S
H2214 C2210 0.930 . S
H2215 C2212 0.929 . S
S2216 N2217 1.613 . S
S2216 N2218 1.610 . S
N2217 S2216 1.613 . S
N2217 C2220 1.350 . S
N2218 S2216 1.610 . S
N2218 C2219 1.351 . S
C2219 C2213 1.428 . S
C2219 N2218 1.351 . S
C2219 C2220 1.434 . S
C2220 C2211 1.429 . S
C2220 N2217 1.350 . S
C2220 C2219 1.434 . S
C2221 C2222 1.369 1_655 S
C2221 C2223 1.419 . S
C2221 H2225 0.930 . S
C2222 C2221 1.369 1_455 S
C2222 C2231 1.429 . S
C2223 C2221 1.419 . S
C2223 C2224 1.363 . S
C2223 H2226 0.929 . S
C2224 C2223 1.363 . S
C2224 C2230 1.428 1_655 S
H2225 C2221 0.930 . S
H2226 C2223 0.929 . S
S2227 N2228 1.613 . S
S2227 N2229 1.610 . S
N2228 S2227 1.613 . S
N2228 C2231 1.350 . S
N2229 S2227 1.610 . S
N2229 C2230 1.351 . S
C2230 C2224 1.428 1_455 S
C2230 N2229 1.351 . S
C2230 C2231 1.434 . S
C2231 C2222 1.429 . S
C2231 N2228 1.350 . S
C2231 C2230 1.434 . S
C2232 C2233 1.369 . S
C2232 C2234 1.419 . S
C2232 H2236 0.930 . S
C2233 C2232 1.369 . S
C2233 C2242 1.429 . S
C2234 C2232 1.419 . S
C2234 C2235 1.363 . S
C2234 H2237 0.929 . S
C2235 C2234 1.363 . S
C2235 C2241 1.428 . S
H2236 C2232 0.930 . S
H2237 C2234 0.929 . S
S2238 N2239 1.613 . S
S2238 N2240 1.610 . S
N2239 S2238 1.613 . S
N2239 C2242 1.350 . S
N2240 S2238 1.610 . S
N2240 C2241 1.351 . S
C2241 C2235 1.428 . S
C2241 N2240 1.351 . S
C2241 C2242 1.434 . S
C2242 C2233 1.429 . S
C2242 N2239 1.350 . S
C2242 C2241 1.434 . S
C2243 C2244 1.369 . S
C2243 C2245 1.419 . S
C2243 H2247 0.930 . S
C2244 C2243 1.369 . S
C2244 C2253 1.429 . S
C2245 C2243 1.419 . S
C2245 C2246 1.363 . S
C2245 H2248 0.929 . S
C2246 C2245 1.363 . S
C2246 C2252 1.428 . S
H2247 C2243 0.930 . S
H2248 C2245 0.929 . S
S2249 N2250 1.613 . S
S2249 N2251 1.610 . S
N2250 S2249 1.613 . S
N2250 C2253 1.350 . S
N2251 S2249 1.610 . S
N2251 C2252 1.351 . S
C2252 C2246 1.428 . S
C2252 N2251 1.351 . S
C2252 C2253 1.434 . S
C2253 C2244 1.429 . S
C2253 N2250 1.350 . S
C2253 C2252 1.434 . S
C2254 C2255 1.369 . S
C2254 C2256 1.419 . S
C2254 H2258 0.930 . S
C2255 C2254 1.369 . S
C2255 C2264 1.429 . S
C2256 C2254 1.419 . S
C2256 C2257 1.363 . S
C2256 H2259 0.929 . S
C2257 C2256 1.363 . S
C2257 C2263 1.428 . S
H2258 C2254 0.930 . S
H2259 C2256 0.929 . S
S2260 N2261 1.613 . S
S2260 N2262 1.610 1_565 S
N2261 S2260 1.613 . S
N2261 C2264 1.350 1_565 S
N2262 S2260 1.610 1_545 S
N2262 C2263 1.351 . S
C2263 C2257 1.428 . S
C2263 N2262 1.351 . S
C2263 C2264 1.434 . S
C2264 C2255 1.429 . S
C2264 N2261 1.350 1_545 S
C2264 C2263 1.434 . S
C2265 C2266 1.369 . S
C2265 C2267 1.419 . S
C2265 H2269 0.930 . S
C2266 C2265 1.369 . S
C2266 C2275 1.429 . S
C2267 C2265 1.419 . S
C2267 C2268 1.363 . S
C2267 H2270 0.929 . S
C2268 C2267 1.363 . S
C2268 C2274 1.428 . S
H2269 C2265 0.930 . S
H2270 C2267 0.929 . S
S2271 N2272 1.616 . S
S2271 N2273 1.616 . S
N2272 S2271 1.616 . S
N2272 C2275 1.350 . S
N2273 S2271 1.616 . S
N2273 C2274 1.351 . S
C2274 C2268 1.428 . S
C2274 N2273 1.351 . S
C2274 C2275 1.434 . S
C2275 C2266 1.429 . S
C2275 N2272 1.350 . S
C2275 C2274 1.434 . S
C2276 C2277 1.369 . S
C2276 C2278 1.419 . S
C2276 H2280 0.930 . S
C2277 C2276 1.369 . S
C2277 C2286 1.429 . S
C2278 C2276 1.419 . S
C2278 C2279 1.363 . S
C2278 H2281 0.929 . S
C2279 C2278 1.363 . S
C2279 C2285 1.428 . S
H2280 C2276 0.930 . S
H2281 C2278 0.929 . S
S2282 N2283 1.613 . S
S2282 N2284 1.610 . S
N2283 S2282 1.613 . S
N2283 C2286 1.350 . S
N2284 S2282 1.610 . S
N2284 C2285 1.351 . S
C2285 C2279 1.428 . S
C2285 N2284 1.351 . S
C2285 C2286 1.434 . S
C2286 C2277 1.429 . S
C2286 N2283 1.350 . S
C2286 C2285 1.434 . S
C2287 C2288 1.369 . S
C2287 C2289 1.419 . S
C2287 H2291 0.930 . S
C2288 C2287 1.369 . S
C2288 C2297 1.444 . S
C2289 C2287 1.419 . S
C2289 C2290 1.363 . S
C2289 H2292 0.929 . S
C2290 C2289 1.363 . S
C2290 C2296 1.428 . S
H2291 C2287 0.930 . S
H2292 C2289 0.929 . S
S2293 N2294 1.613 . S
S2293 N2295 1.610 . S
N2294 S2293 1.613 . S
N2294 C2297 1.332 1_554 S
N2295 S2293 1.610 . S
N2295 C2296 1.351 1_554 S
C2296 C2290 1.428 . S
C2296 N2295 1.351 1_556 S
C2296 C2297 1.437 . S
C2297 C2288 1.444 . S
C2297 N2294 1.332 1_556 S
C2297 C2296 1.437 . S
C2298 C2299 1.369 . S
C2298 C2300 1.419 . S
C2298 H2302 0.930 . S
C2299 C2298 1.369 . S
C2299 C2308 1.429 . S
C2300 C2298 1.419 . S
C2300 C2301 1.363 . S
C2300 H2303 0.929 . S
C2301 C2300 1.363 . S
C2301 C2307 1.428 . S
H2302 C2298 0.930 . S
H2303 C2300 0.929 . S
S2304 N2305 1.613 . S
S2304 N2306 1.610 . S
N2305 S2304 1.613 . S
N2305 C2308 1.350 . S
N2306 S2304 1.610 . S
N2306 C2307 1.351 . S
C2307 C2301 1.428 . S
C2307 N2306 1.351 . S
C2307 C2308 1.434 . S
C2308 C2299 1.429 . S
C2308 N2305 1.350 . S
C2308 C2307 1.434 . S
C2309 C2310 1.369 . S
C2309 C2311 1.419 . S
C2309 H2313 0.930 . S
C2310 C2309 1.369 . S
C2310 C2319 1.429 . S
C2311 C2309 1.419 . S
C2311 C2312 1.363 . S
C2311 H2314 0.929 . S
C2312 C2311 1.363 . S
C2312 C2318 1.428 . S
H2313 C2309 0.930 . S
H2314 C2311 0.929 . S
S2315 N2316 1.613 . S
S2315 N2317 1.610 . S
N2316 S2315 1.613 . S
N2316 C2319 1.350 . S
N2317 S2315 1.610 . S
N2317 C2318 1.351 . S
C2318 C2312 1.428 . S
C2318 N2317 1.351 . S
C2318 C2319 1.434 . S
C2319 C2310 1.429 . S
C2319 N2316 1.350 . S
C2319 C2318 1.434 . S
C2320 C2321 1.369 . S
C2320 C2322 1.419 . S
C2320 H2324 0.930 . S
C2321 C2320 1.369 . S
C2321 C2330 1.429 . S
C2322 C2320 1.419 . S
C2322 C2323 1.363 . S
C2322 H2325 0.929 . S
C2323 C2322 1.363 . S
C2323 C2329 1.428 . S
H2324 C2320 0.930 . S
H2325 C2322 0.929 . S
S2326 N2327 1.613 . S
S2326 N2328 1.610 . S
N2327 S2326 1.613 . S
N2327 C2330 1.350 . S
N2328 S2326 1.610 . S
N2328 C2329 1.351 . S
C2329 C2323 1.428 . S
C2329 N2328 1.351 . S
C2329 C2330 1.434 . S
C2330 C2321 1.429 . S
C2330 N2327 1.350 . S
C2330 C2329 1.434 . S
C2331 C2332 1.369 . S
C2331 C2333 1.419 . S
C2331 H2335 0.930 1_655 S
C2332 C2331 1.369 . S
C2332 C2341 1.429 . S
C2333 C2331 1.419 . S
C2333 C2334 1.363 . S
C2333 H2336 0.929 . S
C2334 C2333 1.363 . S
C2334 C2340 1.428 . S
H2335 C2331 0.930 1_455 S
H2336 C2333 0.929 . S
S2337 N2338 1.613 . S
S2337 N2339 1.610 . S
N2338 S2337 1.613 . S
N2338 C2341 1.350 . S
N2339 S2337 1.610 . S
N2339 C2340 1.351 . S
C2340 C2334 1.428 . S
C2340 N2339 1.351 . S
C2340 C2341 1.434 . S
C2341 C2332 1.429 . S
C2341 N2338 1.350 . S
C2341 C2340 1.434 . S
C2342 C2343 1.369 . S
C2342 C2344 1.419 . S
C2342 H2346 0.930 . S
C2343 C2342 1.369 . S
C2343 C2352 1.429 . S
C2344 C2342 1.419 . S
C2344 C2345 1.363 . S
C2344 H2347 0.929 . S
C2345 C2344 1.363 . S
C2345 C2351 1.428 . S
H2346 C2342 0.930 . S
H2347 C2344 0.929 . S
S2348 N2349 1.613 . S
S2348 N2350 1.610 . S
N2349 S2348 1.613 . S
N2349 C2352 1.350 . S
N2350 S2348 1.610 . S
N2350 C2351 1.351 . S
C2351 C2345 1.428 . S
C2351 N2350 1.351 . S
C2351 C2352 1.434 . S
C2352 C2343 1.429 . S
C2352 N2349 1.350 . S
C2352 C2351 1.434 . S
C2353 C2354 1.369 . S
C2353 C2355 1.419 . S
C2353 H2357 0.930 . S
C2354 C2353 1.369 . S
C2354 C2363 1.429 . S
C2355 C2353 1.419 . S
C2355 C2356 1.363 . S
C2355 H2358 0.929 . S
C2356 C2355 1.363 . S
C2356 C2362 1.428 . S
H2357 C2353 0.930 . S
H2358 C2355 0.929 . S
S2359 N2360 1.613 . S
S2359 N2361 1.610 1_655 S
N2360 S2359 1.613 . S
N2360 C2363 1.350 1_655 S
N2361 S2359 1.610 1_455 S
N2361 C2362 1.351 . S
C2362 C2356 1.428 . S
C2362 N2361 1.351 . S
C2362 C2363 1.434 . S
C2363 C2354 1.429 . S
C2363 N2360 1.350 1_455 S
C2363 C2362 1.434 . S
C2364 C2365 1.369 . S
C2364 C2366 1.419 . S
C2364 H2368 0.930 . S
C2365 C2364 1.369 . S
C2365 C2374 1.429 . S
C2366 C2364 1.419 . S
C2366 C2367 1.363 . S
C2366 H2369 0.929 . S
C2367 C2366 1.363 . S
C2367 C2373 1.428 . S
H2368 C2364 0.930 . S
H2369 C2366 0.929 . S
S2370 N2371 1.613 . S
S2370 N2372 1.610 . S
N2371 S2370 1.613 . S
N2371 C2374 1.350 . S
N2372 S2370 1.610 . S
N2372 C2373 1.351 . S
C2373 C2367 1.428 . S
C2373 N2372 1.351 . S
C2373 C2374 1.434 . S
C2374 C2365 1.429 . S
C2374 N2371 1.350 . S
C2374 C2373 1.434 . S
C2375 C2376 1.369 . S
C2375 C2377 1.419 . S
C2375 H2379 0.930 . S
C2376 C2375 1.369 . S
C2376 C2385 1.429 . S
C2377 C2375 1.419 . S
C2377 C2378 1.363 . S
C2377 H2380 0.929 . S
C2378 C2377 1.363 . S
C2378 C2384 1.428 . S
H2379 C2375 0.930 . S
H2380 C2377 0.929 . S
S2381 N2382 1.613 . S
S2381 N2383 1.610 . S
N2382 S2381 1.613 . S
N2382 C2385 1.350 . S
N2383 S2381 1.610 . S
N2383 C2384 1.351 . S
C2384 C2378 1.428 . S
C2384 N2383 1.351 . S
C2384 C2385 1.434 . S
C2385 C2376 1.429 . S
C2385 N2382 1.350 . S
C2385 C2384 1.434 . S
C2386 C2387 1.369 1_545 S
C2386 C2388 1.419 . S
C2386 H2390 0.930 . S
C2387 C2386 1.369 1_565 S
C2387 C2396 1.429 . S
C2388 C2386 1.419 . S
C2388 C2389 1.363 1_545 S
C2388 H2391 0.929 . S
C2389 C2388 1.363 1_565 S
C2389 C2395 1.428 . S
H2390 C2386 0.930 . S
H2391 C2388 0.929 . S
S2392 N2393 1.613 . S
S2392 N2394 1.610 . S
N2393 S2392 1.613 . S
N2393 C2396 1.350 . S
N2394 S2392 1.610 . S
N2394 C2395 1.351 . S
C2395 C2389 1.428 . S
C2395 N2394 1.351 . S
C2395 C2396 1.434 . S
C2396 C2387 1.429 . S
C2396 N2393 1.350 . S
C2396 C2395 1.434 . S
C2397 C2398 1.369 . S
C2397 C2399 1.419 . S
C2397 H2401 0.930 1_545 S
C2398 C2397 1.369 . S
C2398 C2407 1.429 . S
C2399 C2397 1.419 . S
C2399 C2400 1.363 . S
C2399 H2402 0.918 1_545 S
C2400 C2399 1.363 . S
C2400 C2406 1.428 . S
H2401 C2397 0.930 1_565 S
H2402 C2399 0.918 1_565 S
S2403 N2404 1.613 . S
S2403 N2405 1.610 . S
N2404 S2403 1.613 . S
N2404 C2407 1.350 . S
N2405 S2403 1.610 . S
N2405 C2406 1.351 . S
C2406 C2400 1.428 . S
C2406 N2405 1.351 . S
C2406 C2407 1.434 . S
C2407 C2398 1.429 . S
C2407 N2404 1.350 . S
C2407 C2406 1.434 . S
C2408 C2409 1.369 . S
C2408 C2410 1.419 . S
C2408 H2412 0.930 . S
C2409 C2408 1.369 . S
C2409 C2418 1.429 . S
C2410 C2408 1.419 . S
C2410 C2411 1.363 . S
C2410 H2413 0.929 . S
C2411 C2410 1.363 . S
C2411 C2417 1.428 . S
H2412 C2408 0.930 . S
H2413 C2410 0.929 . S
S2414 N2415 1.613 . S
S2414 N2416 1.610 . S
N2415 S2414 1.613 . S
N2415 C2418 1.350 . S
N2416 S2414 1.610 . S
N2416 C2417 1.351 . S
C2417 C2411 1.428 . S
C2417 N2416 1.351 . S
C2417 C2418 1.434 . S
C2418 C2409 1.429 . S
C2418 N2415 1.350 . S
C2418 C2417 1.434 . S
C2419 C2420 1.369 . S
C2419 C2421 1.419 . S
C2419 H2423 0.930 . S
C2420 C2419 1.369 . S
C2420 C2429 1.429 . S
C2421 C2419 1.419 . S
C2421 C2422 1.363 . S
C2421 H2424 0.929 . S
C2422 C2421 1.363 . S
C2422 C2428 1.428 . S
H2423 C2419 0.930 . S
H2424 C2421 0.929 . S
S2425 N2426 1.613 . S
S2425 N2427 1.628 . S
N2426 S2425 1.613 . S
N2426 C2429 1.350 1_556 S
N2427 S2425 1.628 . S
N2427 C2428 1.332 1_556 S
C2428 C2422 1.428 . S
C2428 N2427 1.332 1_554 S
C2428 C2429 1.434 . S
C2429 C2420 1.429 . S
C2429 N2426 1.350 1_554 S
C2429 C2428 1.434 . S
C2430 C2431 1.369 . S
C2430 C2432 1.419 . S
C2430 H2434 0.930 . S
C2431 C2430 1.369 . S
C2431 C2440 1.429 . S
C2432 C2430 1.419 . S
C2432 C2433 1.363 . S
C2432 H2435 0.929 . S
C2433 C2432 1.363 . S
C2433 C2439 1.428 . S
H2434 C2430 0.930 . S
H2435 C2432 0.929 . S
S2436 N2437 1.613 . S
S2436 N2438 1.610 . S
N2437 S2436 1.613 . S
N2437 C2440 1.350 . S
N2438 S2436 1.610 . S
N2438 C2439 1.351 . S
C2439 C2433 1.428 . S
C2439 N2438 1.351 . S
C2439 C2440 1.434 . S
C2440 C2431 1.429 . S
C2440 N2437 1.350 . S
C2440 C2439 1.434 . S
C2441 C2442 1.369 . S
C2441 C2443 1.419 . S
C2441 H2445 0.930 . S
C2442 C2441 1.369 . S
C2442 C2451 1.429 1_556 S
C2443 C2441 1.419 . S
C2443 C2444 1.363 . S
C2443 H2446 0.929 . S
C2444 C2443 1.363 . S
C2444 C2450 1.428 1_556 S
H2445 C2441 0.930 . S
H2446 C2443 0.929 . S
S2447 N2448 1.613 . S
S2447 N2449 1.610 . S
N2448 S2447 1.613 . S
N2448 C2451 1.350 . S
N2449 S2447 1.610 . S
N2449 C2450 1.351 . S
C2450 C2444 1.428 1_554 S
C2450 N2449 1.351 . S
C2450 C2451 1.434 . S
C2451 C2442 1.429 1_554 S
C2451 N2448 1.350 . S
C2451 C2450 1.434 . S
C2452 C2453 1.369 . S
C2452 C2454 1.419 . S
C2452 H2456 0.930 . S
C2453 C2452 1.369 . S
C2453 C2462 1.429 . S
C2454 C2452 1.419 . S
C2454 C2455 1.363 . S
C2454 H2457 0.929 . S
C2455 C2454 1.363 . S
C2455 C2461 1.428 . S
H2456 C2452 0.930 . S
H2457 C2454 0.929 . S
S2458 N2459 1.613 . S
S2458 N2460 1.610 . S
N2459 S2458 1.613 . S
N2459 C2462 1.350 . S
N2460 S2458 1.610 . S
N2460 C2461 1.351 . S
C2461 C2455 1.428 . S
C2461 N2460 1.351 . S
C2461 C2462 1.434 . S
C2462 C2453 1.429 . S
C2462 N2459 1.350 . S
C2462 C2461 1.434 . S
C2463 C2464 1.369 . S
C2463 C2465 1.419 . S
C2463 H2467 0.930 1_455 S
C2464 C2463 1.369 . S
C2464 C2473 1.429 . S
C2465 C2463 1.419 . S
C2465 C2466 1.363 . S
C2465 H2468 0.929 1_455 S
C2466 C2465 1.363 . S
C2466 C2472 1.428 . S
H2467 C2463 0.930 1_655 S
H2468 C2465 0.929 1_655 S
S2469 N2470 1.613 . S
S2469 N2471 1.610 . S
N2470 S2469 1.613 . S
N2470 C2473 1.350 . S
N2471 S2469 1.610 . S
N2471 C2472 1.351 . S
C2472 C2466 1.428 . S
C2472 N2471 1.351 . S
C2472 C2473 1.434 . S
C2473 C2464 1.429 . S
C2473 N2470 1.350 . S
C2473 C2472 1.434 . S
C2474 C2475 1.369 . S
C2474 C2476 1.419 . S
C2474 H2478 0.930 . S
C2475 C2474 1.369 . S
C2475 C2484 1.429 . S
C2476 C2474 1.419 . S
C2476 C2477 1.363 . S
C2476 H2479 0.929 . S
C2477 C2476 1.363 . S
C2477 C2483 1.428 . S
H2478 C2474 0.930 . S
H2479 C2476 0.929 . S
S2480 N2481 1.613 . S
S2480 N2482 1.610 . S
N2481 S2480 1.613 . S
N2481 C2484 1.350 . S
N2482 S2480 1.610 . S
N2482 C2483 1.351 . S
C2483 C2477 1.428 . S
C2483 N2482 1.351 . S
C2483 C2484 1.434 . S
C2484 C2475 1.429 . S
C2484 N2481 1.350 . S
C2484 C2483 1.434 . S
C2485 C2486 1.369 1_455 S
C2485 C2487 1.419 . S
C2485 H2489 0.930 . S
C2486 C2485 1.369 1_655 S
C2486 C2495 1.429 . S
C2487 C2485 1.419 . S
C2487 C2488 1.363 1_455 S
C2487 H2490 0.929 . S
C2488 C2487 1.363 1_655 S
C2488 C2494 1.428 . S
H2489 C2485 0.930 . S
H2490 C2487 0.929 . S
S2491 N2492 1.613 . S
S2491 N2493 1.610 . S
N2492 S2491 1.613 . S
N2492 C2495 1.350 . S
N2493 S2491 1.610 . S
N2493 C2494 1.351 . S
C2494 C2488 1.428 . S
C2494 N2493 1.351 . S
C2494 C2495 1.434 . S
C2495 C2486 1.429 . S
C2495 N2492 1.350 . S
C2495 C2494 1.434 . S
C1707 C1645 1.806 . S
C1705 C8 1.899 . S
C1718 C1495 1.570 . S
C1716 C19 1.608 . S
C1729 C1585 1.425 . S
C1727 C30 1.522 . S
C1740 C1555 1.960 . S
C1738 C41 1.990 . S
C1751 C1135 1.933 . S
C1749 C52 1.901 . S
C1760 C63 1.989 . S
C1762 C1165 1.963 . S
C1773 C1015 1.667 . S
C1771 C74 1.611 . S
C1782 C85 1.524 . S
C1784 C1045 1.424 . S
C1795 C1424 1.801 . S
C1793 C96 1.898 . S
C1804 C107 1.991 . S
C1806 C1304 1.958 . S
C1815 C118 1.606 . S
C1817 C1244 1.670 . S
C1828 C1364 1.556 . S
C1826 C129 1.529 . S
C1839 C955 1.921 . S
C1837 C140 1.890 . S
C1848 C151 1.579 . S
C1850 C745 1.552 . S
C1861 C895 1.541 . S
C1859 C162 1.506 . S
C1870 C173 1.931 . S
C1872 C805 1.949 . S
C1883 C415 1.920 . S
C1881 C184 1.888 . S
C1894 C445 1.950 . S
C1892 C195 1.939 . S
C1903 C206 1.568 . S
C1905 C295 1.683 . S
C1914 C217 1.511 . S
C1916 C325 1.431 . S
C1925 C228 1.887 . S
C1927 C704 1.928 . S
C1936 C239 1.936 . S
C1938 C584 2.047 . S
C1949 C524 1.547 . S
C1947 C250 1.578 . S
C1958 C261 1.506 . S
C1960 C644 1.438 . S
C1971 C284 1.246 . S
C1969 C7 1.419 . S
C1982 C344 1.513 . S
C1980 C18 1.504 . S
C1991 C29 1.386 . S
C1993 C404 1.226 . S
C2002 C40 1.103 . S
C2004 C464 1.103 1_545 S
C2015 C535 1.420 . S
C2013 C51 1.416 . S
C2024 C62 1.098 . S
C2026 C565 1.040 . S
C2037 C655 1.516 . S
C2035 C73 1.502 . S
C2048 C685 1.230 . S
C2046 C84 1.387 . S
C2059 C764 1.416 . S
C2057 C95 1.420 . S
C2068 C106 1.104 . S
C2070 C824 1.104 1_455 S
C2079 C117 1.509 . S
C2081 C884 1.270 . S
C2090 C128 1.384 . S
C2092 C944 1.239 . S
C2101 C139 1.273 . S
C2103 C1004 1.291 . S
C2112 C150 1.280 . S
C2114 C1064 1.454 . S
C2123 C161 1.224 . S
C2125 C1124 1.294 . S
C2134 C172 1.001 . S
C2136 C1184 1.066 1_565 S
C2145 C183 1.266 . S
C2147 C1225 1.296 . S
C2158 C1315 1.066 1_556 S
C2156 C194 1.013 . S
C2169 C1345 1.350 . S
C2167 C205 1.280 . S
C2180 C1435 1.334 . S
C2178 C216 1.238 . S
C2191 C1465 1.380 . S
C2189 C227 1.261 . S
C2200 C238 1.012 . S
C2202 C1525 1.066 1_655 S
C2211 C249 1.279 . S
C2213 C1604 1.456 . S
C2222 C260 1.241 . S
C2224 C1664 1.339 . S
C2233 C5 1.534 . S
C2235 C775 1.846 . S
C2246 C925 1.677 . S
C2244 C16 1.502 . S
C2255 C27 1.338 1_545 S
C2257 C835 1.577 . S
C2268 C865 2.068 . S
C2266 C38 1.938 1_565 S
C2277 C49 1.534 . S
C2279 C265 1.708 . S
C2288 C60 1.937 1_556 S
C2290 C355 2.187 . S
C2299 C71 1.513 . S
C2301 C385 1.668 . S
C2310 C82 1.329 1_554 S
C2312 C475 1.581 . S
C2323 C505 1.845 . S
C2321 C93 1.527 . S
C2334 C625 2.192 . S
C2332 C104 1.937 1_655 S
C2343 C115 1.521 . S
C2345 C715 1.664 . S
C2354 C126 1.327 1_455 S
C2356 C595 1.404 . S
C2367 C1484 1.766 . S
C2365 C137 1.382 . S
C2378 C1675 1.702 . S
C2376 C148 1.223 . S
C2387 C159 1.166 . S
C2389 C1544 1.501 . S
C2400 C1615 2.076 . S
C2398 C170 1.535 . S
C2409 C181 1.364 . S
C2411 C985 1.793 . S
C2420 C192 1.538 . S
C2422 C1075 2.076 . S
C2431 C203 1.216 . S
C2433 C1105 1.764 . S
C2444 C1195 1.513 . S
C2442 C214 1.164 . S
C2455 C1255 1.793 . S
C2453 C225 1.365 . S
C2466 C1375 2.179 . S
C2464 C236 1.534 . S
C2475 C247 1.233 . S
C2477 C1405 1.695 . S
C2488 C1285 1.507 . S
C2486 C258 1.161 . S
