# Generated by pormake.
# Topology zzz, (3,6)-cn, num edge types: 1
# Building blocks:
#     Node 0, Type 0, BuildingBlock: MIDCAF_clean_linker_0, # of connection points: 3
#     Node 1, Type 0, BuildingBlock: MIDCAF_clean_linker_0, # of connection points: 3
#     Node 2, Type 0, BuildingBlock: MIDCAF_clean_linker_0, # of connection points: 3
#     Node 3, Type 0, BuildingBlock: MIDCAF_clean_linker_0, # of connection points: 3
#     Node 4, Type 0, BuildingBlock: MIDCAF_clean_linker_0, # of connection points: 3
#     Node 5, Type 0, BuildingBlock: MIDCAF_clean_linker_0, # of connection points: 3
#     Node 6, Type 0, BuildingBlock: MIDCAF_clean_linker_0, # of connection points: 3
#     Node 7, Type 0, BuildingBlock: MIDCAF_clean_linker_0, # of connection points: 3
#     Node 8, Type 1, BuildingBlock: KUMJIN_clean_sbu_1, # of connection points: 6
#     Node 9, Type 1, BuildingBlock: KUMJIN_clean_sbu_1, # of connection points: 6
#     Node 10, Type 1, BuildingBlock: KUMJIN_clean_sbu_1, # of connection points: 6
#     Node 11, Type 1, BuildingBlock: KUMJIN_clean_sbu_1, # of connection points: 6
#     Edge 12, Type (0, 1), BuildingBlock: MIFKUJ_clean_linker_0, # of connection points: 2
#     Edge 13, Type (0, 1), BuildingBlock: MIFKUJ_clean_linker_0, # of connection points: 2
#     Edge 14, Type (0, 1), BuildingBlock: MIFKUJ_clean_linker_0, # of connection points: 2
#     Edge 15, Type (0, 1), BuildingBlock: MIFKUJ_clean_linker_0, # of connection points: 2
#     Edge 16, Type (0, 1), BuildingBlock: MIFKUJ_clean_linker_0, # of connection points: 2
#     Edge 17, Type (0, 1), BuildingBlock: MIFKUJ_clean_linker_0, # of connection points: 2
#     Edge 18, Type (0, 1), BuildingBlock: MIFKUJ_clean_linker_0, # of connection points: 2
#     Edge 19, Type (0, 1), BuildingBlock: MIFKUJ_clean_linker_0, # of connection points: 2
#     Edge 20, Type (0, 1), BuildingBlock: MIFKUJ_clean_linker_0, # of connection points: 2
#     Edge 21, Type (0, 1), BuildingBlock: MIFKUJ_clean_linker_0, # of connection points: 2
#     Edge 22, Type (0, 1), BuildingBlock: MIFKUJ_clean_linker_0, # of connection points: 2
#     Edge 23, Type (0, 1), BuildingBlock: MIFKUJ_clean_linker_0, # of connection points: 2
#     Edge 24, Type (0, 1), BuildingBlock: MIFKUJ_clean_linker_0, # of connection points: 2
#     Edge 25, Type (0, 1), BuildingBlock: MIFKUJ_clean_linker_0, # of connection points: 2
#     Edge 26, Type (0, 1), BuildingBlock: MIFKUJ_clean_linker_0, # of connection points: 2
#     Edge 27, Type (0, 1), BuildingBlock: MIFKUJ_clean_linker_0, # of connection points: 2
#     Edge 28, Type (0, 1), BuildingBlock: MIFKUJ_clean_linker_0, # of connection points: 2
#     Edge 29, Type (0, 1), BuildingBlock: MIFKUJ_clean_linker_0, # of connection points: 2
#     Edge 30, Type (0, 1), BuildingBlock: MIFKUJ_clean_linker_0, # of connection points: 2
#     Edge 31, Type (0, 1), BuildingBlock: MIFKUJ_clean_linker_0, # of connection points: 2
#     Edge 32, Type (0, 1), BuildingBlock: MIFKUJ_clean_linker_0, # of connection points: 2
#     Edge 33, Type (0, 1), BuildingBlock: MIFKUJ_clean_linker_0, # of connection points: 2
#     Edge 34, Type (0, 1), BuildingBlock: MIFKUJ_clean_linker_0, # of connection points: 2
#     Edge 35, Type (0, 1), BuildingBlock: MIFKUJ_clean_linker_0, # of connection points: 2
# Relax obj value: 0.289
# Max RMSD: 0.211
# Mean RMSD: 0.180
data_MOF--net-zzz--node1-KUMJIN_clean_sbu_1--node2-MIDCAF_clean_linker_0--edge1-MIFKUJ_clean_linker_0
_symmetry_space_group_name_H-M    P1
_symmetry_Int_Tables_number       1
_symmetry_cell_setting            triclinic
loop_
_symmetry_equiv_pos_as_xyz
'x, y, z'
_cell_length_a     70.595899
_cell_length_b     70.569877
_cell_length_c     26.302189
_cell_angle_alpha  89.886091
_cell_angle_beta   89.77309
_cell_angle_gamma 90.454707
loop_
_atom_site_label
_atom_site_type_symbol
_atom_site_fract_x
_atom_site_fract_y
_atom_site_fract_z
_atom_type_partial_charge
C0 C 0.78179 0.56294 0.33269 0.0
C1 C 0.78326 0.54947 0.37241 0.0
C2 C 0.76705 0.53761 0.38004 0.0
C3 C 0.75119 0.53812 0.34695 0.0
H4 H 0.68166 0.52372 0.21872 0.0
H5 H 0.654 0.52213 0.16275 0.0
H6 H 0.67101 0.57517 0.09377 0.0
H7 H 0.69798 0.57691 0.1508 0.0
H8 H 0.73642 0.5573 0.07697 0.0
H9 H 0.76071 0.56326 0.01237 0.0
H10 H 0.80087 0.53148 0.10162 0.0
H11 H 0.77693 0.52609 0.16645 0.0
H12 H 0.76629 0.5735 0.26905 0.0
H13 H 0.7933 0.57244 0.32313 0.0
H14 H 0.76667 0.52724 0.41024 0.0
H15 H 0.74004 0.52761 0.35144 0.0
N16 N 0.71989 0.54946 0.25287 0.0
N17 N 0.72359 0.54433 0.16455 0.0
N18 N 0.74988 0.54327 0.21737 0.0
C19 C 0.71211 0.54774 0.20472 0.0
C20 C 0.74232 0.54194 0.17064 0.0
C21 C 0.73921 0.54703 0.25878 0.0
C22 C 0.69181 0.55078 0.19091 0.0
C23 C 0.67882 0.53558 0.19377 0.0
C24 C 0.6632 0.53444 0.16037 0.0
C25 C 0.66017 0.54835 0.12246 0.0
C26 C 0.67243 0.56423 0.12236 0.0
C27 C 0.6879 0.56539 0.15587 0.0
C28 C 0.75499 0.54145 0.12675 0.0
C29 C 0.75035 0.55128 0.08207 0.0
C30 C 0.76423 0.55483 0.04542 0.0
C31 C 0.78276 0.54843 0.05311 0.0
C32 C 0.78687 0.53727 0.09586 0.0
C33 C 0.77313 0.53391 0.13253 0.0
C34 C 0.75056 0.55093 0.30598 0.0
C35 C 0.76584 0.56376 0.30101 0.0
C36 C 0.95949 0.779 0.35503 0.0
C37 C 0.97684 0.7848 0.37659 0.0
C38 C 0.99238 0.77242 0.37017 0.0
C39 C 0.99099 0.75589 0.33961 0.0
H40 H 0.95129 0.68446 0.20838 0.0
H41 H 0.95181 0.65774 0.14807 0.0
H42 H 0.008 0.6741 0.10045 0.0
H43 H 0.00742 0.70069 0.16002 0.0
H44 H 0.96291 0.73709 0.07761 0.0
H45 H 0.95922 0.7601 0.00841 0.0
H46 H 0.97074 0.8057 0.11359 0.0
H47 H 0.97422 0.78328 0.18184 0.0
H48 H 0.94479 0.75959 0.30614 0.0
H49 H 0.94703 0.78772 0.35924 0.0
H50 H 0.00607 0.77621 0.38571 0.0
H51 H 1.00373 0.74801 0.33134 0.0
N52 N 0.97696 0.72132 0.25715 0.0
N53 N 0.97355 0.72662 0.16876 0.0
N54 N 0.97116 0.75186 0.225 0.0
C55 C 0.9765 0.71444 0.20765 0.0
C56 C 0.97093 0.74521 0.17718 0.0
C57 C 0.97409 0.74051 0.26532 0.0
C58 C 0.97969 0.69436 0.19132 0.0
C59 C 0.96417 0.68173 0.18719 0.0
C60 C 0.96429 0.66665 0.15165 0.0
C61 C 0.97996 0.66376 0.11919 0.0
C62 C 0.99582 0.6757 0.12522 0.0
C63 C 0.99563 0.69077 0.16031 0.0
C64 C 0.96856 0.75846 0.1351 0.0
C65 C 0.96447 0.75206 0.08577 0.0
C66 C 0.96229 0.7651 0.04644 0.0
C67 C 0.96412 0.78451 0.0565 0.0
C68 C 0.9685 0.79079 0.10554 0.0
C69 C 0.97064 0.77791 0.14451 0.0
C70 C 0.9739 0.75086 0.31534 0.0
C71 C 0.95806 0.76241 0.32542 0.0
C72 C 0.74309 0.95991 0.3621 0.0
C73 C 0.7371 0.97818 0.37617 0.0
C74 C 0.74851 0.99367 0.35997 0.0
C75 C 0.76436 0.99106 0.32759 0.0
H76 H 0.84052 0.95855 0.21954 0.0
H77 H 0.86786 0.96126 0.16092 0.0
H78 H 0.838 1.00313 0.07374 0.0
H79 H 0.81132 1.001 0.1328 0.0
H80 H 0.78371 0.95818 0.07414 0.0
H81 H 0.76082 0.96005 1.0051 0.0
H82 H 0.71497 0.95596 0.11349 0.0
H83 H 0.73752 0.95391 0.18274 0.0
H84 H 0.76183 0.94317 0.31656 0.0
H85 H 0.73482 0.94755 0.37282 0.0
H86 H 0.74473 0.00797 0.3705 0.0
H87 H 0.77166 1.00341 0.31249 0.0
N88 N 0.79789 0.97606 0.25001 0.0
N89 N 0.79351 0.96599 0.16531 0.0
N90 N 0.76883 0.96275 0.22346 0.0
C91 C 0.80495 0.97343 0.20138 0.0
C92 C 0.77555 0.96066 0.17578 0.0
C93 C 0.77956 0.97023 0.26098 0.0
C94 C 0.82387 0.98005 0.18222 0.0
C95 C 0.84029 0.96914 0.18971 0.0
C96 C 0.85581 0.97044 0.15546 0.0
C97 C 0.85504 0.98227 0.11218 0.0
C98 C 0.8391 0.99385 0.10645 0.0
C99 C 0.82391 0.99287 0.14101 0.0
C100 C 0.76243 0.9563 0.13404 0.0
C101 C 0.76877 0.957 0.08325 0.0
C102 C 0.75576 0.958 0.04369 0.0
C103 C 0.73637 0.95831 0.05468 0.0
C104 C 0.72998 0.95579 0.10469 0.0
C105 C 0.74292 0.95464 0.14417 0.0
C106 C 0.76936 0.97288 0.31059 0.0
C107 C 0.75885 0.95736 0.32997 0.0
C108 C 0.57182 0.73338 0.10937 0.0
C109 C 0.5684 0.73899 0.05908 0.0
C110 C 0.56718 0.75832 0.04723 0.0
C111 C 0.56784 0.77178 0.08579 0.0
H112 H 0.52557 0.81519 0.13486 0.0
H113 H 0.52329 0.84219 0.07691 0.0
H114 H 0.56587 0.87197 0.16275 0.0
H115 H 0.56857 0.84447 0.22056 0.0
H116 H 0.5221 0.77387 0.30973 0.0
H117 H 0.51724 0.74611 0.36504 0.0
H118 H 0.57766 0.73973 0.37825 0.0
H119 H 0.58243 0.76724 0.32285 0.0
H120 H 0.57406 0.74189 0.18667 0.0
H121 H 0.57261 0.71853 0.11957 0.0
H122 H 0.56475 0.76295 0.00851 0.0
H123 H 0.56571 0.78651 0.07585 0.0
N124 N 0.5603 0.79727 0.16733 0.0
N125 N 0.55025 0.80188 0.25208 0.0
N126 N 0.56324 0.77277 0.22596 0.0
C127 C 0.55303 0.80883 0.2033 0.0
C128 C 0.55586 0.78359 0.26335 0.0
C129 C 0.5654 0.77935 0.17813 0.0
C130 C 0.54674 0.82777 0.18392 0.0
C131 C 0.53382 0.82782 0.14308 0.0
C132 C 0.53273 0.8432 0.10917 0.0
C133 C 0.5444 0.85925 0.11492 0.0
C134 C 0.55659 0.85985 0.15734 0.0
C135 C 0.55787 0.84423 0.19115 0.0
C136 C 0.55267 0.77333 0.31275 0.0
C137 C 0.53434 0.7672 0.32661 0.0
C138 C 0.53157 0.75096 0.35753 0.0
C139 C 0.54705 0.7404 0.37594 0.0
C140 C 0.56536 0.74746 0.36546 0.0
C141 C 0.5681 0.7635 0.33411 0.0
C142 C 0.56965 0.76604 0.13675 0.0
C143 C 0.57254 0.7468 0.14787 0.0
C144 C 0.24076 0.49571 0.88778 0.0
C145 C 0.23661 0.48168 0.8515 0.0
C146 C 0.2497 0.46686 0.84547 0.0
C147 C 0.26578 0.46546 0.87728 0.0
H148 H 0.33065 0.50022 0.01585 0.0
H149 H 0.35844 0.50493 0.07075 0.0
H150 H 0.35016 0.44859 0.13212 0.0
H151 H 0.32392 0.44369 0.07556 0.0
H152 H 0.28118 0.45543 0.14648 0.0
H153 H 0.25784 0.45501 0.21474 0.0
H154 H 0.2128 0.4539 0.10397 0.0
H155 H 0.23596 0.45388 0.03576 0.0
H156 H 0.25845 0.5045 0.94984 0.0
H157 H 0.23092 0.50718 0.89394 0.0
H158 H 0.24691 0.45572 0.81817 0.0
H159 H 0.27447 0.45291 0.87479 0.0
N160 N 0.29823 0.47548 0.97464 0.0
N161 N 0.29247 0.46234 0.05587 0.0
N162 N 0.26754 0.46537 0.9991 0.0
C163 C 0.30488 0.46974 0.02168 0.0
C164 C 0.27394 0.46015 0.04517 0.0
C165 C 0.27921 0.47286 0.9634 0.0
C166 C 0.32497 0.47151 0.04057 0.0
C167 C 0.33538 0.4886 0.03941 0.0
C168 C 0.35113 0.49141 0.07213 0.0
C169 C 0.35679 0.47731 0.10747 0.0
C170 C 0.34692 0.45988 0.10579 0.0
C171 C 0.33159 0.45702 0.07287 0.0
C172 C 0.26039 0.45511 0.08569 0.0
C173 C 0.26632 0.45452 0.13662 0.0
C174 C 0.25299 0.45438 0.17575 0.0
C175 C 0.23358 0.45473 0.16449 0.0
C176 C 0.22769 0.45353 0.11372 0.0
C177 C 0.24099 0.45366 0.07461 0.0
C178 C 0.26938 0.47894 0.91574 0.0
C179 C 0.25684 0.49436 0.91924 0.0
C180 C 0.03111 0.23909 0.90699 0.0
C181 C 0.04083 0.23815 0.86013 0.0
C182 C 0.05271 0.25368 0.84712 0.0
C183 C 0.05535 0.2691 0.88089 0.0
H184 H 0.05925 0.34448 1.00168 0.0
H185 H 0.05466 0.37227 0.05756 0.0
H186 H 0.02708 0.33635 0.16848 0.0
H187 H 0.03104 0.30918 0.11282 0.0
H188 H 0.07141 0.28636 0.15325 0.0
H189 H 0.06723 0.26307 0.22108 0.0
H190 H 0.07276 0.21784 0.11231 0.0
H191 H 0.07716 0.24081 0.04419 0.0
H192 H 0.02693 0.25379 0.9773 0.0
H193 H 0.02229 0.22738 0.91972 0.0
H194 H 0.06043 0.25369 0.81147 0.0
H195 H 0.06559 0.28005 0.87127 0.0
N196 N 0.04749 0.29896 0.98422 0.0
N197 N 0.06325 0.29622 0.06271 0.0
N198 N 0.06377 0.27107 0.00581 0.0
C199 C 0.05299 0.30679 0.02996 0.0
C200 C 0.0686 0.27841 0.05138 0.0
C201 C 0.05353 0.281 0.97164 0.0
C202 C 0.0451 0.32461 0.05207 0.0
C203 C 0.05138 0.34277 0.03683 0.0
C204 C 0.04898 0.35863 0.06924 0.0
C205 C 0.04072 0.3565 0.11798 0.0
C206 C 0.03362 0.33855 0.13157 0.0
C207 C 0.03565 0.32298 0.09917 0.0
C208 C 0.07401 0.26544 0.09293 0.0
C209 C 0.0726 0.27147 0.14387 0.0
C210 C 0.07019 0.25821 0.18283 0.0
C211 C 0.06937 0.2389 0.17116 0.0
C212 C 0.07323 0.23279 0.12162 0.0
C213 C 0.07577 0.24598 0.08277 0.0
C214 C 0.04599 0.26957 0.92828 0.0
C215 C 0.03362 0.25446 0.94017 0.0
C216 C 0.27883 0.06795 0.85992 0.0
C217 C 0.28261 0.04991 0.84 0.0
C218 C 0.26935 0.03528 0.84987 0.0
C219 C 0.25344 0.0383 0.88169 0.0
H220 H 0.18737 0.02903 1.00402 0.0
H221 H 0.16041 0.02457 0.06311 0.0
H222 H 0.17091 0.07994 0.12597 0.0
H223 H 0.19689 0.08476 0.06595 0.0
H224 H 0.23683 0.06724 0.14295 0.0
H225 H 0.25867 0.0676 0.21445 0.0
H226 H 0.30553 0.05885 0.11097 0.0
H227 H 0.28404 0.059 0.03977 0.0
H228 H 0.26183 0.08452 0.91064 0.0
H229 H 0.28884 0.07946 0.85393 0.0
H230 H 0.27184 0.02119 0.83516 0.0
H231 H 0.24454 0.02632 0.89198 0.0
N232 N 0.22129 0.05578 0.96374 0.0
N233 N 0.22689 0.06017 0.05136 0.0
N234 N 0.25234 0.05976 0.99518 0.0
C235 C 0.2145 0.05758 0.01294 0.0
C236 C 0.24566 0.0612 0.04301 0.0
C237 C 0.24063 0.05713 0.95526 0.0
C238 C 0.19415 0.05742 0.02917 0.0
C239 C 0.18317 0.04068 0.02819 0.0
C240 C 0.16794 0.038 0.06279 0.0
C241 C 0.1637 0.05181 0.09982 0.0
C242 C 0.17379 0.069 0.0982 0.0
C243 C 0.18854 0.07185 0.06306 0.0
C244 C 0.25875 0.06303 0.08578 0.0
C245 C 0.25184 0.06568 0.13545 0.0
C246 C 0.26426 0.06586 0.17634 0.0
C247 C 0.2837 0.0634 0.16801 0.0
C248 C 0.29062 0.06125 0.1183 0.0
C249 C 0.27828 0.06117 0.07751 0.0
C250 C 0.25048 0.056 0.90486 0.0
C251 C 0.2631 0.07091 0.89194 0.0
C252 C 0.44769 0.28595 0.13175 0.0
C253 C 0.45723 0.28228 0.17726 0.0
C254 C 0.46558 0.26462 0.18556 0.0
C255 C 0.46602 0.25139 0.14638 0.0
H256 H 0.4403 0.19205 0.05289 0.0
H257 H 0.4437 0.16557 0.11222 0.0
H258 H 0.50374 0.1651 0.08346 0.0
H259 H 0.50036 0.19184 0.02395 0.0
H260 H 0.49696 0.24585 0.89405 0.0
H261 H 0.50102 0.27286 0.83516 0.0
H262 H 0.44556 0.29298 0.8769 0.0
H263 H 0.44142 0.26608 0.93332 0.0
H264 H 0.44196 0.27653 0.05643 0.0
H265 H 0.44117 0.29958 0.12506 0.0
H266 H 0.4732 0.26175 0.22039 0.0
H267 H 0.47373 0.23834 0.15193 0.0
N268 N 0.46474 0.22551 0.05988 0.0
N269 N 0.47067 0.22269 0.97166 0.0
N270 N 0.46376 0.2523 0.0084 0.0
C271 C 0.46878 0.21447 0.01942 0.0
C272 C 0.46803 0.24205 0.96659 0.0
C273 C 0.46214 0.24423 0.05464 0.0
C274 C 0.46996 0.19382 0.03185 0.0
C275 C 0.45409 0.18554 0.0565 0.0
C276 C 0.45606 0.17052 0.09137 0.0
C277 C 0.47399 0.16321 0.10279 0.0
C278 C 0.48971 0.1704 0.07546 0.0
C279 C 0.48773 0.18549 0.04042 0.0
C280 C 0.46867 0.25335 0.91792 0.0
C281 C 0.48531 0.25553 0.88869 0.0
C282 C 0.48777 0.27134 0.85569 0.0
C283 C 0.4737 0.28547 0.85109 0.0
C284 C 0.45668 0.2825 0.8781 0.0
C285 C 0.45424 0.26683 0.91056 0.0
C286 C 0.45824 0.25596 0.09889 0.0
C287 C 0.44832 0.2729 0.09256 0.0
Eu288 Eu 0.98997 0.02207 0.56557 0.0
C289 C 0.06284 0.02535 0.7161 0.0
N290 N 0.0605 0.01724 0.66975 0.0
C291 C 0.093 0.02361 0.64893 0.0
C292 C 0.08033 0.03361 0.72992 0.0
C293 C 0.07549 0.01532 0.63748 0.0
C294 C 0.09532 0.03318 0.69493 0.0
C295 C 0.05147 0.02906 0.8026 0.0
C296 C 0.04851 0.02324 0.7519 0.0
C297 C 0.06829 0.03864 0.81545 0.0
C298 C 0.0827 0.04092 0.77914 0.0
Eu299 Eu 0.03003 1.00509 0.65174 0.0
N300 N 0.03279 0.01321 0.73887 0.0
C301 C 0.03813 0.02381 0.83963 0.0
C302 C 0.02122 1.00594 0.77597 0.0
C303 C 0.02323 0.0117 0.82649 0.0
H304 H 0.07412 1.00656 0.60432 0.0
H305 H 0.01348 1.00653 0.85532 0.0
H306 H 0.94618 0.02042 0.61559 0.0
H307 H 0.01695 0.98776 0.39191 0.0
H308 H 0.01024 0.9958 0.76656 0.0
H309 H 0.03989 0.02797 0.87897 0.0
H310 H 0.01963 1.00022 0.47801 0.0
H311 H 0.10481 0.02218 0.6229 0.0
H312 H 0.07071 0.0434 0.85404 0.0
H313 H 0.09598 0.04745 0.79029 0.0
H314 H 0.91381 0.0125 0.58713 0.0
H315 H 0.10902 0.03924 0.70422 0.0
H316 H 0.98539 0.98331 0.35329 0.0
N317 N 0.9592 0.01154 0.54661 0.0
C318 C 0.95675 1.00456 0.499 0.0
C319 C 0.92576 0.0101 0.5621 0.0
C320 C 0.93844 1.00022 0.4809 0.0
C321 C 0.94412 0.01435 0.57828 0.0
C322 C 0.92288 1.00312 0.51308 0.0
N323 N 0.99019 1.00536 0.48721 0.0
C324 C 0.00591 0.99963 0.46124 0.0
C325 C 0.97035 0.99369 0.41938 0.0
C326 C 0.9726 1.00153 0.46836 0.0
C327 C 0.98653 0.98936 0.39099 0.0
C328 C 1.00437 0.99194 0.41253 0.0
H329 H 0.90861 1.00001 0.50046 0.0
H330 H 0.92223 0.98997 0.41671 0.0
H331 H 0.95013 0.98411 0.36304 0.0
O332 O 0.98062 0.0407 0.50503 0.0
O333 O 0.98929 0.98988 0.57488 0.0
O334 O 0.02099 0.98538 0.58567 0.0
O335 O 0.97092 0.04543 0.58244 0.0
O336 O 0.01944 0.02955 0.53347 0.0
O337 O 0.04159 0.01001 0.57142 0.0
O338 O 0.02095 0.97759 0.68026 0.0
O339 O 0.03213 0.03704 0.63938 0.0
O340 O 1.00065 0.0432 0.62654 0.0
O341 O 0.05154 0.98472 0.67301 0.0
O342 O 1.00234 0.01467 0.69039 0.0
O343 O 0.97855 0.00712 0.63587 0.0
C344 C 1.00394 0.97851 0.57527 0.0
C345 C 0.97309 0.07217 0.52838 0.0
C346 C 0.98473 0.09914 0.47991 0.0
C347 C 0.97389 0.11128 0.51031 0.0
C348 C 0.9623 0.08445 0.55863 0.0
C349 C 0.96283 0.10394 0.54978 0.0
C350 C 0.98456 0.07966 0.4893 0.0
C351 C 0.0366 0.02213 0.53557 0.0
C352 C 0.97106 0.05162 0.53564 0.0
C353 C 0.9362 0.99318 0.43143 0.0
C354 C 0.95209 0.98991 0.40079 0.0
C355 C 0.0179 0.04897 0.63899 0.0
C356 C 0.0435 0.95366 0.70561 0.0
C357 C 0.03364 0.92457 0.74658 0.0
C358 C 0.05223 0.91772 0.743 0.0
C359 C 0.06213 0.94693 0.70245 0.0
C360 C 0.02937 0.94249 0.72792 0.0
C361 C 0.06644 0.92895 0.72111 0.0
C362 C 0.98476 0.00918 0.68231 0.0
C363 C 0.03861 0.97229 0.68609 0.0
H364 H 0.974 0.12642 0.50336 0.0
H365 H 0.95324 0.07893 0.58862 0.0
H366 H 0.95443 0.11333 0.57307 0.0
H367 H 0.99291 0.07044 0.46524 0.0
H368 H 0.05577 0.90388 0.75792 0.0
H369 H 0.07329 0.95548 0.68547 0.0
H370 H 0.01496 0.94766 0.73073 0.0
H371 H 0.0808 0.92375 0.71875 0.0
Eu372 Eu 0.5197 0.03303 0.65909 0.0
C373 C 0.50603 0.95021 0.56145 0.0
N374 N 0.51556 0.96585 0.54481 0.0
C375 C 0.53635 0.94651 0.49515 0.0
C376 C 0.51102 0.93201 0.54407 0.0
C377 C 0.53075 0.96428 0.51276 0.0
C378 C 0.52632 0.93032 0.51039 0.0
C379 C 0.48108 0.93631 0.6137 0.0
C380 C 0.4912 0.95235 0.59595 0.0
C381 C 0.48567 0.91826 0.59525 0.0
C382 C 0.50058 0.91612 0.56055 0.0
Eu383 Eu 0.50201 0.99503 0.56778 0.0
N384 N 0.48677 0.97005 0.61244 0.0
C385 C 0.46656 0.93886 0.64934 0.0
C386 C 0.47262 0.97256 0.64722 0.0
C387 C 0.46246 0.95705 0.66653 0.0
H388 H 0.53799 0.97676 0.49865 0.0
H389 H 0.45126 0.95918 0.69413 0.0
H390 H 0.48275 0.05168 0.72448 0.0
H391 H 0.57051 0.06738 0.53042 0.0
H392 H 0.46891 0.98638 0.66018 0.0
H393 H 0.45848 0.9269 0.66387 0.0
H394 H 0.55342 0.04045 0.56805 0.0
H395 H 0.54815 0.94534 0.46899 0.0
H396 H 0.47783 0.90584 0.60785 0.0
H397 H 0.50402 0.90207 0.54692 0.0
H398 H 0.47164 0.08332 0.74854 0.0
H399 H 0.53052 0.9166 0.49603 0.0
H400 H 0.56195 0.10004 0.55462 0.0
N401 N 0.50483 0.06209 0.6762 0.0
C402 C 0.51413 0.07761 0.65773 0.0
C403 C 0.48348 0.08191 0.72267 0.0
C404 C 0.50859 0.096 0.67215 0.0
C405 C 0.48961 0.06396 0.70803 0.0
C406 C 0.4931 0.098 0.70505 0.0
N407 N 0.53439 0.05728 0.61077 0.0
C408 C 0.54903 0.05443 0.57775 0.0
C409 C 0.53919 0.09107 0.60486 0.0
C410 C 0.52935 0.07515 0.62445 0.0
C411 C 0.55408 0.08818 0.57052 0.0
C412 C 0.55891 0.06978 0.55664 0.0
H413 H 0.4885 0.11188 0.71722 0.0
H414 H 0.51486 0.126 0.66517 0.0
H415 H 0.54156 0.12169 0.6062 0.0
O416 O 0.54734 0.0366 0.69345 0.0
O417 O 0.50553 0.04466 0.5867 0.0
O418 O 0.51404 0.02163 0.5311 0.0
O419 O 0.52224 0.04412 0.73604 0.0
O420 O 0.54246 0.01223 0.62895 0.0
O421 O 0.53184 1.00526 0.54923 0.0
O422 O 0.47483 0.99828 0.53115 0.0
O423 O 0.51541 0.98272 0.64045 0.0
O424 O 0.50925 1.00609 0.6983 0.0
O425 O 0.49811 0.9843 0.49031 0.0
O426 O 0.47904 0.01465 0.60143 0.0
O427 O 0.4901 0.02263 0.68015 0.0
C428 C 0.50741 0.03863 0.53958 0.0
C429 C 0.54855 0.03311 0.78231 0.0
C430 C 0.57593 0.02008 0.82403 0.0
C431 C 0.56555 0.0181 0.86929 0.0
C432 C 0.53804 0.03099 0.82759 0.0
C433 C 0.54657 0.02344 0.87088 0.0
C434 C 0.56748 0.02751 0.78086 0.0
C435 C 0.54567 1.00601 0.58239 0.0
C436 C 0.54049 0.04204 0.73712 0.0
C437 C 0.51874 0.11179 0.65379 0.0
C438 C 0.53396 0.10934 0.62023 0.0
C439 C 0.5142 0.9886 0.68796 0.0
C440 C 0.46828 0.98754 0.44597 0.0
C441 C 0.44021 0.9972 0.40127 0.0
C442 C 0.44583 0.98666 0.35873 0.0
C443 C 0.47391 0.9768 0.40371 0.0
C444 C 0.45125 0.99742 0.44482 0.0
C445 C 0.46259 0.97629 0.36027 0.0
C446 C 0.476 0.02091 0.64796 0.0
C447 C 0.48068 0.99004 0.4896 0.0
H448 H 0.57215 0.01252 0.90317 0.0
H449 H 0.52338 0.03535 0.82977 0.0
H450 H 0.53854 0.02193 0.9058 0.0
H451 H 0.57587 0.0293 0.74648 0.0
H452 H 0.43731 0.98654 0.32456 0.0
H453 H 0.48713 0.96912 0.40392 0.0
H454 H 0.44691 1.00604 0.4769 0.0
H455 H 0.46697 0.96815 0.3275 0.0
Eu456 Eu 0.5292 0.50182 0.57301 0.0
C457 C 0.45651 0.50312 0.71164 0.0
N458 N 0.45996 0.51119 0.66547 0.0
C459 C 0.42746 0.50676 0.64191 0.0
C460 C 0.43814 0.49674 0.72483 0.0
C461 C 0.44583 0.513 0.63055 0.0
C462 C 0.42357 0.49868 0.68931 0.0
C463 C 0.4679 0.49337 0.79466 0.0
C464 C 0.4713 0.50145 0.74621 0.0
C465 C 0.44962 0.48712 0.80781 0.0
C466 C 0.43478 0.48884 0.77307 0.0
Eu467 Eu 0.49063 0.52389 0.65337 0.0
N468 N 0.48884 0.50807 0.7331 0.0
C469 C 0.48288 0.49222 0.82913 0.0
C470 C 0.5031 0.50794 0.76801 0.0
C471 C 0.50053 0.49963 0.81576 0.0
H472 H 0.44846 0.51995 0.59461 0.0
H473 H 0.51205 0.4995 0.84283 0.0
H474 H 0.57145 0.50306 0.63272 0.0
H475 H 0.50846 0.5347 0.39234 0.0
H476 H 0.51623 0.51495 0.76095 0.0
H477 H 0.48082 0.48614 0.86662 0.0
H478 H 0.503 0.51945 0.47378 0.0
H479 H 0.41625 0.50846 0.61439 0.0
H480 H 0.44676 0.4811 0.84502 0.0
H481 H 0.42072 0.48406 0.78398 0.0
H482 H 0.60442 0.51218 0.61294 0.0
H483 H 0.40926 0.49406 0.69821 0.0
H484 H 0.54104 0.54256 0.36464 0.0
N485 N 0.56061 0.51274 0.56199 0.0
C486 C 0.56462 0.52067 0.51598 0.0
C487 C 0.59335 0.51472 0.58545 0.0
C488 C 0.5834 0.52555 0.50258 0.0
C489 C 0.57458 0.50987 0.59688 0.0
C490 C 0.59781 0.52244 0.53795 0.0
N491 N 0.53184 0.51951 0.49626 0.0
C492 C 0.51716 0.52312 0.46412 0.0
C493 C 0.55375 0.53239 0.43428 0.0
C494 C 0.54989 0.52407 0.48218 0.0
C495 C 0.53866 0.53615 0.40162 0.0
C496 C 0.52028 0.53169 0.41696 0.0
H497 H 0.61241 0.52597 0.52898 0.0
H498 H 0.60165 0.53693 0.44329 0.0
H499 H 0.5757 0.54288 0.38355 0.0
O500 O 0.5245 0.47943 0.51893 0.0
O501 O 0.53081 0.53448 0.57699 0.0
O502 O 0.49936 0.541 0.58288 0.0
O503 O 0.5513 0.48047 0.56124 0.0
O504 O 0.49838 0.49537 0.5482 0.0
O505 O 0.48204 0.52188 0.57051 0.0
O506 O 0.49491 0.54786 0.7032 0.0
O507 O 0.48932 0.4911 0.65068 0.0
O508 O 0.52066 0.48417 0.64266 0.0
O509 O 0.46767 0.54441 0.66396 0.0
O510 O 0.52157 0.53003 0.67728 0.0
O511 O 0.53758 0.50324 0.65579 0.0
C512 C 0.5168 0.54659 0.57305 0.0
C513 C 0.54705 0.45507 0.50009 0.0
C514 C 0.53948 0.43064 0.43947 0.0
C515 C 0.55723 0.42236 0.44732 0.0
C516 C 0.5648 0.44683 0.50849 0.0
C517 C 0.56987 0.43049 0.48192 0.0
C518 C 0.53453 0.44693 0.46552 0.0
C519 C 0.48356 0.50648 0.5429 0.0
C520 C 0.54106 0.47198 0.52712 0.0
C521 C 0.58727 0.53334 0.45445 0.0
C522 C 0.5725 0.53674 0.42041 0.0
C523 C 0.50327 0.47884 0.65424 0.0
C524 C 0.47158 0.57187 0.71865 0.0
C525 C 0.47958 0.60143 0.76027 0.0
C526 C 0.46028 0.60616 0.76172 0.0
C527 C 0.45234 0.57662 0.72007 0.0
C528 C 0.48509 0.58428 0.73874 0.0
C529 C 0.44673 0.59374 0.74172 0.0
C530 C 0.53619 0.51868 0.68307 0.0
C531 C 0.47799 0.55442 0.69484 0.0
H532 H 0.56102 0.40939 0.42795 0.0
H533 H 0.57464 0.45293 0.53552 0.0
H534 H 0.58346 0.42399 0.48863 0.0
H535 H 0.52064 0.453 0.45926 0.0
H536 H 0.45568 0.61931 0.77876 0.0
H537 H 0.4417 0.56715 0.7045 0.0
H538 H 0.50002 0.58083 0.73659 0.0
H539 H 0.43188 0.5974 0.74299 0.0
Eu540 Eu 0.01958 0.53098 0.56529 0.0
C541 C 0.02212 0.46072 0.72082 0.0
N542 N 0.01446 0.46305 0.67376 0.0
C543 C 0.02003 0.43032 0.65451 0.0
C544 C 0.02977 0.44311 0.73548 0.0
C545 C 0.0125 0.44792 0.64174 0.0
C546 C 0.02893 0.42796 0.70129 0.0
C547 C 0.02833 0.47303 0.80565 0.0
C548 C 0.02114 0.47548 0.75606 0.0
C549 C 0.03665 0.45578 0.81929 0.0
C550 C 0.03727 0.44085 0.78444 0.0
Eu551 Eu 1.00003 0.49269 0.65983 0.0
N552 N 0.01243 0.49188 0.74276 0.0
C553 C 0.0264 0.4878 0.84073 0.0
C554 C 0.00928 0.50568 0.77797 0.0
C555 C 0.01664 0.50411 0.82696 0.0
H556 H 1.00466 0.44918 0.60669 0.0
H557 H 0.0143 0.51525 0.85448 0.0
H558 H 0.00882 0.57085 0.62936 0.0
H559 H 0.01402 0.51604 0.36131 0.0
H560 H 1.00032 0.51743 0.76913 0.0
H561 H 0.03177 0.48645 0.8791 0.0
H562 H 0.02462 0.51058 0.44903 0.0
H563 H 0.01859 0.41847 0.62872 0.0
H564 H 0.04218 0.45367 0.85723 0.0
H565 H 0.04319 0.42742 0.79618 0.0
H566 H 0.9933 0.6013 0.61299 0.0
H567 H 0.03447 0.41419 0.71141 0.0
H568 H 0.99536 0.54451 0.34071 0.0
N569 N 1.00392 0.56007 0.55512 0.0
C570 C 0.99778 0.56392 0.50717 0.0
C571 C 0.99422 0.59081 0.58313 0.0
C572 C 0.98918 0.58141 0.49589 0.0
C573 C 1.00271 0.57336 0.59259 0.0
C574 C 0.9873 0.59481 0.5347 0.0
N575 N 0.01 0.53433 0.47954 0.0
C576 C 0.01552 0.52247 0.44121 0.0
C577 C 0.99515 0.55478 0.41829 0.0
C578 C 1.00075 0.55067 0.46862 0.0
C579 C 0.99944 0.54184 0.37973 0.0
C580 C 0.00991 0.52574 0.39116 0.0
H581 H 0.98093 0.60846 0.52736 0.0
H582 H 0.97658 0.5986 0.43687 0.0
H583 H 0.98175 0.57531 0.36911 0.0
O584 O 0.04344 0.53105 0.5134 0.0
O585 O 0.98727 0.53319 0.57314 0.0
O586 O 0.97801 0.50351 0.60225 0.0
O587 O 0.0391 0.5553 0.56273 0.0
O588 O 0.00787 0.50385 0.52998 0.0
O589 O 0.01479 0.48115 0.58852 0.0
O590 O 0.98041 0.48637 0.72129 0.0
O591 O 0.03046 0.50231 0.67761 0.0
O592 O 0.0413 0.50995 0.59785 0.0
O593 O 0.97798 0.47103 0.65031 0.0
O594 O 0.99292 0.52365 0.67714 0.0
O595 O 0.02013 0.53849 0.65018 0.0
C596 C 0.97417 0.51995 0.58039 0.0
C597 C 0.06977 0.55187 0.52418 0.0
C598 C 0.10059 0.54459 0.48679 0.0
C599 C 0.10698 0.56286 0.50032 0.0
C600 C 0.07651 0.5699 0.53766 0.0
C601 C 0.09509 0.57525 0.52626 0.0
C602 C 0.08203 0.53911 0.50003 0.0
C603 C 0.01224 0.48632 0.54106 0.0
C604 C 0.04932 0.54786 0.5266 0.0
C605 C 0.98319 0.58523 0.44612 0.0
C606 C 0.98611 0.57195 0.40752 0.0
C607 C 0.04462 0.50505 0.64551 0.0
C608 C 0.95022 0.47418 0.70026 0.0
C609 C 0.92144 0.48829 0.73348 0.0
C610 C 0.91099 0.47265 0.71552 0.0
C611 C 0.93961 0.45869 0.68247 0.0
C612 C 0.94106 0.48902 0.72571 0.0
C613 C 0.92007 0.45798 0.69001 0.0
C614 C 0.00541 0.53753 0.68115 0.0
C615 C 0.9709 0.47381 0.69552 0.0
H616 H 0.12096 0.56788 0.48964 0.0
H617 H 0.0672 0.58013 0.55525 0.0
H618 H 0.10009 0.58932 0.53592 0.0
H619 H 0.07688 0.52511 0.49011 0.0
H620 H 0.89587 0.47159 0.72219 0.0
H621 H 0.94651 0.44699 0.6635 0.0
H622 H 0.9491 0.50105 0.7398 0.0
H623 H 0.91197 0.44589 0.67677 0.0
H624 H 0.12512 0.04503 0.09732 0.0
H625 H 0.10345 0.03987 0.16985 0.0
H626 H 0.15052 0.04441 0.27309 0.0
H627 H 0.17203 0.04997 0.20089 0.0
H628 H 0.12661 0.01397 0.29766 0.0
H629 H 0.11999 0.08127 0.26735 0.0
H630 H 0.11356 0.10995 0.21667 0.0
H631 H 0.05902 0.08746 0.17576 0.0
H632 H 0.0652 0.0586 0.2261 0.0
H633 H 0.07584 0.01869 0.53005 0.0
H634 H 0.09671 0.02333 0.45798 0.0
H635 H 0.04866 0.03749 0.36488 0.0
H636 H 0.02793 0.03443 0.43879 0.0
H637 H 0.07305 0.05707 0.33134 0.0
H638 H 0.07785 0.99098 0.36638 0.0
H639 H 0.08377 0.96168 0.41487 0.0
H640 H 0.14111 0.97965 0.44183 0.0
H641 H 0.13546 0.00917 0.39413 0.0
C642 C 0.13082 0.04484 0.13548 0.0
C643 C 0.15032 0.04786 0.14324 0.0
C644 C 0.11841 0.04199 0.17706 0.0
C645 C 0.12523 0.04177 0.22741 0.0
C646 C 0.14479 0.04446 0.23495 0.0
C647 C 0.1571 0.04768 0.19356 0.0
C648 C 0.11209 0.03884 0.27219 0.0
C649 C 0.11503 0.02356 0.30548 0.0
C650 C 0.09656 0.05086 0.28188 0.0
C651 C 0.0931 0.06777 0.25006 0.0
C652 C 0.10673 0.08237 0.24701 0.0
C653 C 0.1031 0.09868 0.21856 0.0
C654 C 0.08591 0.10051 0.19291 0.0
C655 C 0.07235 0.086 0.19551 0.0
C656 C 0.0759 0.06967 0.22401 0.0
C657 C 0.06955 0.02271 0.49464 0.0
C658 C 0.04989 0.02575 0.49116 0.0
C659 C 0.08166 0.02519 0.45245 0.0
C660 C 0.07453 0.03008 0.4042 0.0
C661 C 0.0549 0.03355 0.40087 0.0
C662 C 0.04289 0.0317 0.4436 0.0
C663 C 0.08745 0.03223 0.35801 0.0
C664 C 0.08453 0.0474 0.32405 0.0
C665 C 0.10287 0.01989 0.3474 0.0
C666 C 0.10616 1.00237 0.37714 0.0
C667 C 0.09166 0.98876 0.38306 0.0
C668 C 0.09498 0.9721 0.41034 0.0
C669 C 0.11279 0.96883 0.43153 0.0
C670 C 0.12731 0.98221 0.4255 0.0
C671 C 0.12406 0.99891 0.39835 0.0
H672 H 0.11534 0.9559 0.45252 0.0
H673 H 0.08308 0.11319 0.17111 0.0
H674 H 0.46543 0.12498 0.10976 0.0
H675 H 0.46975 0.10373 0.18308 0.0
H676 H 0.49126 0.15077 0.27076 0.0
H677 H 0.4877 0.17162 0.19686 0.0
H678 H 0.51209 0.12353 0.29138 0.0
H679 H 0.44477 0.12766 0.28419 0.0
H680 H 0.41222 0.12495 0.25129 0.0
H681 H 0.41906 0.06496 0.23249 0.0
H682 H 0.45182 0.06736 0.26408 0.0
H683 H 0.50679 0.07788 0.53649 0.0
H684 H 0.50069 0.09854 0.46335 0.0
H685 H 0.49142 0.04948 0.36919 0.0
H686 H 0.49816 0.02876 0.44181 0.0
H687 H 0.46412 0.07715 0.35278 0.0
H688 H 0.5319 0.07409 0.36046 0.0
H689 H 0.56344 0.07734 0.39949 0.0
H690 H 0.55409 0.13676 0.42261 0.0
H691 H 0.52229 0.13378 0.38474 0.0
C692 C 0.47115 0.13071 0.14471 0.0
C693 C 0.47647 0.14996 0.14717 0.0
C694 C 0.47345 0.11857 0.18705 0.0
C695 C 0.48073 0.12543 0.23357 0.0
C696 C 0.48576 0.14481 0.23583 0.0
C697 C 0.48373 0.15682 0.19339 0.0
C698 C 0.48391 0.11254 0.27913 0.0
C699 C 0.50135 0.11366 0.30497 0.0
C700 C 0.4703 0.09908 0.29718 0.0
C701 C 0.45091 0.09776 0.27575 0.0
C702 C 0.43947 0.11394 0.27222 0.0
C703 C 0.42095 0.11244 0.25394 0.0
C704 C 0.41361 0.09481 0.23958 0.0
C705 C 0.42479 0.07863 0.24336 0.0
C706 C 0.44335 0.08006 0.26135 0.0
C707 C 0.5036 0.07143 0.50024 0.0
C708 C 0.50327 0.05154 0.49531 0.0
C709 C 0.50008 0.08333 0.45818 0.0
C710 C 0.49568 0.07572 0.41007 0.0
C711 C 0.49483 0.05586 0.40547 0.0
C712 C 0.4988 0.04397 0.44718 0.0
C713 C 0.49212 0.08837 0.3646 0.0
C714 C 0.47471 0.08713 0.3389 0.0
C715 C 0.50561 0.10189 0.34696 0.0
C716 C 0.5246 0.10365 0.37039 0.0
C717 C 0.53646 0.0878 0.37446 0.0
C718 C 0.5544 0.0896 0.39629 0.0
C719 C 0.56074 0.10723 0.41369 0.0
C720 C 0.54914 0.1231 0.40928 0.0
C721 C 0.53115 0.12135 0.38768 0.0
H722 H 0.57466 0.10861 0.43045 0.0
H723 H 0.39923 0.09367 0.22571 0.0
H724 H 0.38044 0.4514 0.15586 0.0
H725 H 0.40145 0.45644 0.2277 0.0
H726 H 0.38973 0.51619 0.22393 0.0
H727 H 0.36797 0.51128 0.15304 0.0
H728 H 0.42671 0.5109 0.24363 0.0
H729 H 0.36886 0.48607 0.31304 0.0
H730 H 0.34235 0.46327 0.32096 0.0
H731 H 0.38136 0.41909 0.35892 0.0
H732 H 0.40808 0.4416 0.34962 0.0
H733 H 0.46056 0.5322 0.49449 0.0
H734 H 0.44034 0.52738 0.41994 0.0
H735 H 0.45557 0.4684 0.4166 0.0
H736 H 0.47622 0.47327 0.4906 0.0
H737 H 0.41669 0.47327 0.40111 0.0
H738 H 0.47404 0.49654 0.32245 0.0
H739 H 0.50118 0.51811 0.3076 0.0
H740 H 0.46316 0.56474 0.28773 0.0
H741 H 0.43578 0.54332 0.30162 0.0
C742 C 0.38195 0.46567 0.17026 0.0
C743 C 0.3718 0.48082 0.14814 0.0
C744 C 0.39422 0.46854 0.21172 0.0
C745 C 0.39705 0.48667 0.23271 0.0
C746 C 0.38781 0.50198 0.20922 0.0
C747 C 0.37534 0.49912 0.16799 0.0
C748 C 0.40928 0.48955 0.27945 0.0
C749 C 0.42424 0.50284 0.27822 0.0
C750 C 0.40662 0.47887 0.32486 0.0
C751 C 0.39049 0.46545 0.33059 0.0
C752 C 0.37178 0.47146 0.32276 0.0
C753 C 0.35671 0.4586 0.32739 0.0
C754 C 0.36015 0.43974 0.34043 0.0
C755 C 0.37868 0.4337 0.34883 0.0
C756 C 0.39379 0.44649 0.34389 0.0
C757 C 0.45956 0.51815 0.47822 0.0
C758 C 0.47011 0.50314 0.49912 0.0
C759 C 0.44803 0.51542 0.43508 0.0
C760 C 0.44637 0.49752 0.41175 0.0
C761 C 0.45651 0.48239 0.43334 0.0
C762 C 0.46837 0.4852 0.47588 0.0
C763 C 0.43405 0.49466 0.36522 0.0
C764 C 0.41907 0.48138 0.36656 0.0
C765 C 0.43662 0.50537 0.31994 0.0
C766 C 0.45294 0.51842 0.31359 0.0
C767 C 0.4715 0.51143 0.31531 0.0
C768 C 0.4869 0.52359 0.30674 0.0
C769 C 0.4839 0.54281 0.297 0.0
C770 C 0.46547 0.54987 0.29541 0.0
C771 C 0.45 0.53771 0.30335 0.0
H772 H 0.49586 0.55222 0.29057 0.0
H773 H 0.34846 0.4298 0.34406 0.0
H774 H 0.0547 0.35544 0.21431 0.0
H775 H 0.05125 0.37873 0.28232 0.0
H776 H 0.02251 0.41627 0.17938 0.0
H777 H 0.0263 0.3929 0.11037 0.0
H778 H 0.04693 0.43603 0.25031 0.0
H779 H 0.99619 0.39022 0.25644 0.0
H780 H 0.98416 0.35734 0.25364 0.0
H781 H 0.01567 0.34395 0.38817 0.0
H782 H 0.02812 0.37671 0.39129 0.0
H783 H 0.99712 0.48769 0.44498 0.0
H784 H 1.00377 0.46723 0.3722 0.0
H785 H 0.03787 0.43145 0.46727 0.0
H786 H 0.03238 0.45276 0.53975 0.0
H787 H 0.01067 0.41149 0.39897 0.0
H788 H 0.06127 0.45596 0.39503 0.0
H789 H 0.07665 0.48729 0.39639 0.0
H790 H 0.04815 0.50257 0.25848 0.0
H791 H 0.03216 0.47131 0.25702 0.0
C792 C 0.04781 0.36873 0.20585 0.0
C793 C 0.04057 0.37214 0.15688 0.0
C794 C 0.04585 0.3821 0.24491 0.0
C795 C 0.03631 0.39925 0.23669 0.0
C796 C 0.02991 0.4032 0.18706 0.0
C797 C 0.03206 0.3898 0.14754 0.0
C798 C 0.03177 0.41202 0.28105 0.0
C799 C 0.0387 0.43076 0.28231 0.0
C800 C 0.02146 0.40518 0.32387 0.0
C801 C 0.0131 0.38587 0.32404 0.0
C802 C 1.00052 0.38025 0.28547 0.0
C803 C 0.99366 0.36164 0.28375 0.0
C804 C 0.99915 0.34856 0.3207 0.0
C805 C 0.01142 0.3541 0.35962 0.0
C806 C 0.01835 0.37271 0.36145 0.0
C807 C 0.00638 0.47572 0.45041 0.0
C808 C 0.01465 0.47234 0.49829 0.0
C809 C 0.01001 0.46386 0.40864 0.0
C810 C 0.02152 0.44782 0.41368 0.0
C811 C 0.02901 0.44376 0.46206 0.0
C812 C 0.02577 0.45595 0.50369 0.0
C813 C 0.02579 0.43554 0.36828 0.0
C814 C 0.01875 0.41687 0.36681 0.0
C815 C 0.03607 0.44245 0.32547 0.0
C816 C 0.04531 0.46139 0.32632 0.0
C817 C 0.05806 0.46608 0.36536 0.0
C818 C 0.06694 0.48383 0.36606 0.0
C819 C 0.06338 0.49698 0.32756 0.0
C820 C 0.05086 0.49239 0.28834 0.0
C821 C 0.04187 0.47465 0.28758 0.0
H822 H 0.07037 0.51069 0.32801 0.0
H823 H 0.9939 0.33412 0.31918 0.0
H824 H 0.89291 0.99232 0.11684 0.0
H825 H 0.91569 0.99502 0.04596 0.0
H826 H 0.87329 0.97394 0.94258 0.0
H827 H 0.85054 0.97148 0.01319 0.0
H828 H 0.90859 0.95994 0.91679 0.0
H829 H 0.8816 0.0208 0.95429 0.0
H830 H 0.87352 0.04743 0.01067 0.0
H831 H 0.93258 0.05738 0.0399 0.0
H832 H 0.94098 0.03053 0.98449 0.0
H833 H 0.95041 0.99035 0.68414 0.0
H834 H 0.92877 0.98552 0.75574 0.0
H835 H 0.96673 0.01684 0.85303 0.0
H836 H 0.9872 0.02355 0.77995 0.0
H837 H 0.93421 0.0245 0.88367 0.0
H838 H 0.96159 0.96266 0.85539 0.0
H839 H 0.97128 0.93798 0.79458 0.0
H840 H 0.91367 0.93125 0.74604 0.0
H841 H 0.90353 0.95562 0.8075 0.0
C842 C 0.88855 0.98802 0.07913 0.0
C843 C 0.86983 0.98182 0.07074 0.0
C844 C 0.90158 0.98962 0.03841 0.0
C845 C 0.89629 0.98493 0.9882 0.0
C846 C 0.87787 0.97776 0.98048 0.0
C847 C 0.8648 0.97643 0.02098 0.0
C848 C 0.90931 0.98881 0.94338 0.0
C849 C 0.91407 0.9741 0.90961 0.0
C850 C 0.91689 0.00715 0.93343 0.0
C851 C 0.9119 0.02356 0.9657 0.0
C852 C 0.89285 0.0286 0.97299 0.0
C853 C 0.88822 0.04372 1.00479 0.0
C854 C 0.90253 0.05406 0.02895 0.0
C855 C 0.92151 0.04934 0.02123 0.0
C856 C 0.92622 0.03416 0.98966 0.0
C857 C 0.95415 0.99631 0.72069 0.0
C858 C 0.97115 1.00671 0.72629 0.0
C859 C 0.94182 0.99325 0.76225 0.0
C860 C 0.94628 0.99996 0.81138 0.0
C861 C 0.96288 0.01103 0.81639 0.0
C862 C 0.97491 0.01457 0.77447 0.0
C863 C 0.93372 0.99564 0.85717 0.0
C864 C 0.92894 0.01028 0.89108 0.0
C865 C 0.92632 0.97722 0.86758 0.0
C866 C 0.93183 0.96089 0.83591 0.0
C867 C 0.95095 0.95564 0.83239 0.0
C868 C 0.95653 0.94175 0.79787 0.0
C869 C 0.94312 0.93304 0.76667 0.0
C870 C 0.92403 0.93801 0.77037 0.0
C871 C 0.91831 0.95167 0.80552 0.0
H872 H 0.94761 0.92241 0.73986 0.0
H873 H 0.89891 0.06577 0.05358 0.0
H874 H 0.56188 0.85874 0.02174 0.0
H875 H 0.55903 0.88153 0.95148 0.0
H876 H 0.52343 0.91657 0.04522 0.0
H877 H 0.52641 0.89373 0.11554 0.0
H878 H 0.5073 0.91219 0.95618 0.0
H879 H 0.56992 0.93188 1.00465 0.0
H880 H 0.60397 0.92945 0.02427 0.0
H881 H 0.61431 0.90503 0.87746 0.0
H882 H 0.58032 0.90729 0.85703 0.0
H883 H 0.50396 0.99239 0.78851 0.0
H884 H 0.51025 0.97104 0.85986 0.0
H885 H 0.53914 0.93284 0.7589 0.0
H886 H 0.53247 0.95401 0.68679 0.0
H887 H 0.55932 0.93907 0.85062 0.0
H888 H 0.49714 0.92033 0.80112 0.0
H889 H 0.46338 0.92384 0.77977 0.0
H890 H 0.45233 0.94636 0.92845 0.0
H891 H 0.48612 0.94329 0.95037 0.0
C892 C 0.55374 0.8715 0.02765 0.0
C893 C 0.54448 0.87444 0.07452 0.0
C894 C 0.55215 0.88464 0.98734 0.0
C895 C 0.54107 0.90108 0.99238 0.0
C896 C 0.5321 0.90415 0.03974 0.0
C897 C 0.53386 0.8911 0.08022 0.0
C898 C 0.53758 0.91415 0.94748 0.0
C899 C 0.51878 0.91829 0.93385 0.0
C900 C 0.55233 0.92182 0.91646 0.0
C901 C 0.57255 0.91951 0.92963 0.0
C902 C 0.57943 0.92575 0.97685 0.0
C903 C 0.59873 0.92451 0.988 0.0
C904 C 0.61128 0.91703 0.95222 0.0
C905 C 0.60457 0.91078 0.90519 0.0
C906 C 0.5853 0.91207 0.89378 0.0
C907 C 0.51157 0.97941 0.78116 0.0
C908 C 0.51762 0.97503 0.73137 0.0
C909 C 0.51516 0.96713 0.82228 0.0
C910 C 0.52519 0.95015 0.81535 0.0
C911 C 0.5314 0.94579 0.76574 0.0
C912 C 0.52748 0.95791 0.7243 0.0
C913 C 0.5291 0.9371 0.85984 0.0
C914 C 0.5479 0.93297 0.8732 0.0
C915 C 0.51438 0.92939 0.89065 0.0
C916 C 0.49419 0.93181 0.87715 0.0
C917 C 0.48756 0.92627 0.82902 0.0
C918 C 0.46841 0.92812 0.81687 0.0
C919 C 0.45573 0.93536 0.85269 0.0
C920 C 0.46218 0.9408 0.90071 0.0
C921 C 0.48133 0.93901 0.91301 0.0
H922 H 0.44089 0.93672 0.84329 0.0
H923 H 0.62623 0.91612 0.96087 0.0
H924 H 0.63867 0.57537 0.07179 0.0
H925 H 0.61754 0.57094 0.99909 0.0
H926 H 0.62715 0.51078 1.00428 0.0
H927 H 0.64859 0.51507 0.07605 0.0
H928 H 0.6308 0.52367 0.90847 0.0
H929 H 0.58427 0.53085 0.04117 0.0
H930 H 0.56695 0.54622 0.11126 0.0
H931 H 0.55481 0.59373 0.01479 0.0
H932 H 0.57229 0.57877 0.94434 0.0
H933 H 0.56166 0.49411 0.72669 0.0
H934 H 0.58218 0.49944 0.79993 0.0
H935 H 0.56334 0.55736 0.80837 0.0
H936 H 0.54215 0.55175 0.73647 0.0
H937 H 0.56469 0.54628 0.89756 0.0
H938 H 0.61086 0.54089 0.76554 0.0
H939 H 0.62846 0.52698 0.69374 0.0
H940 H 0.64246 0.47876 0.78563 0.0
H941 H 0.62467 0.49221 0.85771 0.0
C942 C 0.63633 0.56114 0.05777 0.0
C943 C 0.64559 0.54561 0.08063 0.0
C944 C 0.624 0.5586 0.01612 0.0
C945 C 0.62051 0.54047 0.9957 0.0
C946 C 0.62947 0.52495 0.01888 0.0
C947 C 0.64168 0.52744 0.06063 0.0
C948 C 0.60841 0.53768 0.94883 0.0
C949 C 0.61624 0.52841 0.90644 0.0
C950 C 0.58958 0.54443 0.9447 0.0
C951 C 0.57983 0.5538 0.98772 0.0
C952 C 0.57816 0.5447 0.03514 0.0
C953 C 0.56824 0.55331 0.07488 0.0
C954 C 0.55985 0.57097 0.06755 0.0
C955 C 0.56137 0.58008 0.02048 0.0
C956 C 0.57129 0.57155 0.98066 0.0
C957 C 0.56203 0.50807 0.74368 0.0
C958 C 0.5502 0.5225 0.72509 0.0
C959 C 0.57395 0.51118 0.78578 0.0
C960 C 0.5748 0.52896 0.81019 0.0
C961 C 0.56315 0.54346 0.79099 0.0
C962 C 0.55103 0.54027 0.74937 0.0
C963 C 0.58705 0.53225 0.85677 0.0
C964 C 0.57927 0.5416 0.89922 0.0
C965 C 0.60607 0.52588 0.86063 0.0
C966 C 0.61624 0.51746 0.81683 0.0
C967 C 0.6175 0.52721 0.77024 0.0
C968 C 0.62755 0.51943 0.72952 0.0
C969 C 0.63653 0.50198 0.73508 0.0
C970 C 0.63546 0.49225 0.78133 0.0
C971 C 0.62538 0.49994 0.82211 0.0
H972 H 0.64437 0.49601 0.70357 0.0
H973 H 0.55211 0.57757 0.0983 0.0
H974 H 0.96016 0.66479 0.02927 0.0
H975 H 0.96287 0.64353 0.9558 0.0
H976 H 1.00171 0.60862 0.0398 0.0
H977 H 0.99962 0.63044 0.11215 0.0
H978 H 0.01583 0.61387 0.95174 0.0
H979 H 0.95066 0.59659 1.00138 0.0
H980 H 0.91713 0.60413 0.01793 0.0
H981 H 0.91197 0.62708 0.86733 0.0
H982 H 0.9455 0.61995 0.85018 0.0
H983 H 0.0285 0.54299 0.76339 0.0
H984 H 0.02257 0.56199 0.83876 0.0
H985 H 0.97288 0.58535 0.76716 0.0
H986 H 0.9772 0.56356 0.69592 0.0
H987 H 0.9635 0.58636 0.85056 0.0
H988 H 0.02503 0.60914 0.79756 0.0
H989 H 0.05888 0.60764 0.77407 0.0
H990 H 0.07148 0.58177 0.91785 0.0
H991 H 0.03771 0.58301 0.94197 0.0
C992 C 0.96904 0.65239 0.0323 0.0
C993 C 0.97961 0.64931 0.0769 0.0
C994 C 0.97053 0.64008 0.99011 0.0
C995 C 0.98239 0.62405 0.99147 0.0
C996 C 0.99248 0.62076 0.03687 0.0
C997 C 0.99123 0.63322 0.07862 0.0
C998 C 0.98559 0.61156 0.94506 0.0
C999 C 1.00431 0.60768 0.93006 0.0
C1000 C 0.97082 0.60404 0.91429 0.0
C1001 C 0.95063 0.60797 0.9248 0.0
C1002 C 0.94239 0.60334 0.97196 0.0
C1003 C 0.92337 0.60752 0.98137 0.0
C1004 C 0.91249 0.61621 0.94376 0.0
C1005 C 0.92046 0.62045 0.89645 0.0
C1006 C 0.93945 0.61634 0.88689 0.0
C1007 C 0.01631 0.55222 0.76386 0.0
C1008 C 1.0033 0.55163 0.72356 0.0
C1009 C 0.01304 0.56356 0.80705 0.0
C1010 C 0.99751 0.57612 0.80977 0.0
C1011 C 0.98493 0.57597 0.76791 0.0
C1012 C 0.98751 0.56361 0.72632 0.0
C1013 C 0.99394 0.58874 0.85619 0.0
C1014 C 0.97515 0.59257 0.8716 0.0
C1015 C 0.00867 0.59701 0.88604 0.0
C1016 C 0.02887 0.596 0.87127 0.0
C1017 C 0.03503 0.60303 0.82396 0.0
C1018 C 0.05419 0.60225 0.81059 0.0
C1019 C 0.06731 0.59456 0.84438 0.0
C1020 C 0.06131 0.58769 0.89167 0.0
C1021 C 0.04217 0.58845 0.90524 0.0
H1022 H 0.08214 0.59398 0.83395 0.0
H1023 H 0.8979 0.6198 0.95114 0.0
H1024 H 0.03527 0.22219 0.16401 0.0
H1025 H 0.02185 0.19764 0.21939 0.0
H1026 H 0.0714 0.2009 0.31485 0.0
H1027 H 0.08486 0.22569 0.25903 0.0
H1028 H 0.06345 0.16507 0.28492 0.0
H1029 H 0.03031 0.21597 0.36015 0.0
H1030 H 0.01013 0.24413 0.3687 0.0
H1031 H 0.96334 0.21355 0.30372 0.0
H1032 H 0.98333 0.18529 0.29392 0.0
H1033 H 0.02284 0.10337 0.47489 0.0
H1034 H 0.03987 0.12482 0.41764 0.0
H1035 H 0.98861 0.13322 0.33157 0.0
H1036 H 0.97139 0.11279 0.39126 0.0
H1037 H 0.99936 0.16466 0.36222 0.0
H1038 H 0.03558 0.11163 0.29437 0.0
H1039 H 0.05571 0.08401 0.3093 0.0
H1040 H 0.09906 0.11993 0.37213 0.0
H1041 H 0.07859 0.14769 0.3608 0.0
C1042 C 0.04314 0.21775 0.1972 0.0
C1043 C 0.06109 0.22545 0.20746 0.0
C1044 C 0.03545 0.2039 0.22888 0.0
C1045 C 0.04565 0.19758 0.27114 0.0
C1046 C 0.06338 0.20571 0.28232 0.0
C1047 C 0.07102 0.21975 0.25074 0.0
C1048 C 0.03844 0.18131 0.30058 0.0
C1049 C 0.04949 0.16493 0.30232 0.0
C1050 C 0.0202 0.18125 0.32258 0.0
C1051 C 0.00842 0.19856 0.32574 0.0
C1052 C 0.01582 0.21533 0.34689 0.0
C1053 C 1.00438 0.23129 0.35216 0.0
C1054 C 0.98548 0.23065 0.33663 0.0
C1055 C 0.97799 0.21405 0.31562 0.0
C1056 C 0.98938 0.19806 0.31017 0.0
C1057 C 0.01543 0.10953 0.44294 0.0
C1058 C 0.99585 0.10709 0.43784 0.0
C1059 C 0.02515 0.12178 0.41016 0.0
C1060 C 0.01545 0.13115 0.37101 0.0
C1061 C 0.99633 0.12656 0.36224 0.0
C1062 C 0.9865 0.11486 0.39601 0.0
C1063 C 0.02396 0.14783 0.34488 0.0
C1064 C 0.01319 0.1645 0.34409 0.0
C1065 C 0.0426 0.14819 0.32463 0.0
C1066 C 0.05541 0.13171 0.32728 0.0
C1067 C 0.04936 0.11365 0.31155 0.0
C1068 C 0.06083 0.09793 0.31976 0.0
C1069 C 0.07869 0.10018 0.34181 0.0
C1070 C 0.08518 0.11819 0.35534 0.0
C1071 C 0.07359 0.1339 0.34838 0.0
H1072 H 0.08756 0.08803 0.3485 0.0
H1073 H 0.97662 0.24299 0.34103 0.0
H1074 H 0.31885 0.07881 0.17686 0.0
H1075 H 0.34308 0.06931 0.2375 0.0
H1076 H 0.30225 0.03414 0.3165 0.0
H1077 H 0.27802 0.04285 0.25453 0.0
H1078 H 0.33216 0.06039 0.37527 0.0
H1079 H 0.32284 0.00995 0.25217 0.0
H1080 H 0.31981 0.99572 0.16704 0.0
H1081 H 0.3746 0.01772 0.12546 0.0
H1082 H 0.37774 0.03252 0.20986 0.0
H1083 H 0.40726 0.9914 0.45207 0.0
H1084 H 0.3776 0.00878 0.4393 0.0
H1085 H 0.4066 0.04708 0.33663 0.0
H1086 H 0.43604 0.02956 0.34858 0.0
H1087 H 0.37911 0.01667 0.29973 0.0
H1088 H 0.38952 0.06706 0.41841 0.0
H1089 H 0.39333 0.0835 0.5002 0.0
H1090 H 0.33805 0.06454 0.54724 0.0
H1091 H 0.33421 0.04728 0.46656 0.0
C1092 C 0.31498 0.06927 0.20757 0.0
C1093 C 0.29674 0.06132 0.21078 0.0
C1094 C 0.32873 0.06396 0.24206 0.0
C1095 C 0.32425 0.05094 0.28044 0.0
C1096 C 0.30572 0.04422 0.28668 0.0
C1097 C 0.29196 0.04929 0.25161 0.0
C1098 C 0.3395 0.04323 0.31083 0.0
C1099 C 0.34232 0.05049 0.35966 0.0
C1100 C 0.35269 0.03075 0.28889 0.0
C1101 C 0.35037 0.02262 0.23718 0.0
C1102 C 0.33407 0.0121 0.22457 0.0
C1103 C 0.33238 1.00385 0.17648 0.0
C1104 C 0.34697 1.00588 0.14079 0.0
C1105 C 0.36327 0.01622 0.15305 0.0
C1106 C 0.36499 0.02457 0.20098 0.0
C1107 C 0.40724 1.00383 0.42784 0.0
C1108 C 0.42339 0.00895 0.39968 0.0
C1109 C 0.39053 0.01391 0.42147 0.0
C1110 C 0.39015 0.02919 0.38747 0.0
C1111 C 0.40686 0.03543 0.36354 0.0
C1112 C 0.42344 0.02526 0.36943 0.0
C1113 C 0.37224 0.03426 0.364 0.0
C1114 C 0.36885 0.02629 0.31619 0.0
C1115 C 0.35879 0.04627 0.38677 0.0
C1116 C 0.36179 0.05541 0.43683 0.0
C1117 C 0.37841 0.06586 0.44673 0.0
C1118 C 0.38053 0.07544 0.49286 0.0
C1119 C 0.36603 0.0749 0.52913 0.0
C1120 C 0.34936 0.06479 0.51934 0.0
C1121 C 0.34726 0.05502 0.47355 0.0
H1122 H 0.36763 0.08244 0.56466 0.0
H1123 H 0.34569 0.99937 0.10372 0.0
H1124 H 0.47552 0.31353 0.14692 0.0
H1125 H 0.48565 0.34018 0.19874 0.0
H1126 H 0.46154 0.31337 0.33207 0.0
H1127 H 0.45119 0.28626 0.27952 0.0
H1128 H 0.45277 0.35351 0.31607 0.0
H1129 H 0.50539 0.31196 0.32752 0.0
H1130 H 0.53049 0.29032 0.29882 0.0
H1131 H 0.55443 0.33437 0.20523 0.0
H1132 H 0.52929 0.35617 0.23256 0.0
H1133 H 0.50587 0.41749 0.47212 0.0
H1134 H 0.4854 0.39521 0.42718 0.0
H1135 H 0.51868 0.40346 0.29083 0.0
H1136 H 0.54059 0.42389 0.33799 0.0
H1137 H 0.52116 0.3698 0.32015 0.0
H1138 H 0.46652 0.41189 0.31054 0.0
H1139 H 0.44227 0.43286 0.34712 0.0
H1140 H 0.42224 0.38753 0.4429 0.0
H1141 H 0.44662 0.36645 0.40782 0.0
C1142 C 0.47214 0.31345 0.18717 0.0
C1143 C 0.46233 0.29822 0.20956 0.0
C1144 C 0.47805 0.32852 0.21661 0.0
C1145 C 0.47435 0.32848 0.26882 0.0
C1146 C 0.46442 0.3134 0.29159 0.0
C1147 C 0.45859 0.29809 0.26192 0.0
C1148 C 0.48109 0.34451 0.29854 0.0
C1149 C 0.46772 0.35714 0.31787 0.0
C1150 C 0.50054 0.34898 0.29976 0.0
C1151 C 0.51534 0.33566 0.28185 0.0
C1152 C 0.51585 0.31696 0.3003 0.0
C1153 C 0.53013 0.30468 0.28438 0.0
C1154 C 0.54403 0.31095 0.25016 0.0
C1155 C 0.54365 0.32951 0.23168 0.0
C1156 C 0.52939 0.34184 0.24739 0.0
C1157 C 0.50861 0.4145 0.43243 0.0
C1158 C 0.52511 0.42128 0.40873 0.0
C1159 C 0.49662 0.40226 0.40647 0.0
C1160 C 0.50059 0.39752 0.35596 0.0
C1161 C 0.51557 0.40674 0.33021 0.0
C1162 C 0.52814 0.41819 0.35695 0.0
C1163 C 0.49281 0.37985 0.33488 0.0
C1164 C 0.50612 0.36658 0.31802 0.0
C1165 C 0.47333 0.37488 0.33645 0.0
C1166 C 0.45854 0.38764 0.35682 0.0
C1167 C 0.45704 0.40644 0.33965 0.0
C1168 C 0.44323 0.41834 0.36012 0.0
C1169 C 0.43074 0.41154 0.39742 0.0
C1170 C 0.43193 0.3928 0.41407 0.0
C1171 C 0.44573 0.38087 0.39389 0.0
H1172 H 0.42016 0.42077 0.4136 0.0
H1173 H 0.55511 0.30144 0.23805 0.0
H1174 H 0.23674 0.48137 0.23818 0.0
H1175 H 0.21219 0.49167 0.29706 0.0
H1176 H 0.17402 0.4491 0.23797 0.0
H1177 H 0.19871 0.43851 0.17896 0.0
H1178 H 0.15921 0.48577 0.24056 0.0
H1179 H 0.19269 0.44328 0.35152 0.0
H1180 H 0.22153 0.43107 0.39225 0.0
H1181 H 0.23077 0.48485 0.46451 0.0
H1182 H 0.20224 0.49753 0.42327 0.0
H1183 H 0.09001 0.51861 0.41385 0.0
H1184 H 0.11032 0.49767 0.36519 0.0
H1185 H 0.15951 0.52256 0.4368 0.0
H1186 H 0.13922 0.54133 0.49097 0.0
H1187 H 0.16626 0.48905 0.42782 0.0
H1188 H 0.13911 0.53415 0.30982 0.0
H1189 H 0.11369 0.55018 0.26261 0.0
H1190 H 0.09617 0.49702 0.19826 0.0
H1191 H 0.12126 0.48062 0.24578 0.0
C1192 C 0.22333 0.47381 0.23875 0.0
C1193 C 0.21964 0.459 0.20448 0.0
C1194 C 0.2093 0.47979 0.27212 0.0
C1195 C 0.19145 0.47098 0.27192 0.0
C1196 C 0.1878 0.45596 0.23854 0.0
C1197 C 0.20186 0.44995 0.20509 0.0
C1198 C 0.17633 0.47825 0.30485 0.0
C1199 C 0.16046 0.48624 0.28166 0.0
C1200 C 0.17849 0.47923 0.35805 0.0
C1201 C 0.19532 0.47137 0.38416 0.0
C1202 C 0.20091 0.45253 0.37592 0.0
C1203 C 0.21722 0.44553 0.39905 0.0
C1204 C 0.22797 0.45717 0.43094 0.0
C1205 C 0.22242 0.47584 0.43982 0.0
C1206 C 0.20617 0.48294 0.4166 0.0
C1207 C 0.10509 0.51917 0.42068 0.0
C1208 C 0.11289 0.53172 0.45674 0.0
C1209 C 0.11675 0.50747 0.39176 0.0
C1210 C 0.13651 0.5088 0.39629 0.0
C1211 C 0.1443 0.52122 0.43239 0.0
C1212 C 0.13265 0.53227 0.46285 0.0
C1213 C 0.1493 0.49751 0.36363 0.0
C1214 C 0.16473 0.48852 0.38683 0.0
C1215 C 0.14708 0.49624 0.31013 0.0
C1216 C 0.13186 0.50612 0.28205 0.0
C1217 C 0.12971 0.52586 0.28602 0.0
C1218 C 0.11538 0.53501 0.25915 0.0
C1219 C 0.10327 0.52461 0.22764 0.0
C1220 C 0.1055 0.50505 0.22285 0.0
C1221 C 0.11975 0.49581 0.2498 0.0
H1222 H 0.09221 0.53173 0.2068 0.0
H1223 H 0.2406 0.45173 0.4488 0.0
H1224 H 0.98287 0.78373 0.96655 0.0
H1225 H 0.98897 0.8112 0.91211 0.0
H1226 H 0.95117 0.84468 1.00451 0.0
H1227 H 0.94416 0.81697 0.0569 0.0
H1228 H 0.94863 0.85517 0.91354 0.0
H1229 H 0.9999 0.84428 0.02524 0.0
H1230 H 0.02539 0.82688 0.06842 0.0
H1231 H 0.05384 0.81885 0.92561 0.0
H1232 H 0.02838 0.83588 0.88139 0.0
H1233 H 0.01037 0.93568 0.82314 0.0
H1234 H 0.98925 0.91519 0.87352 0.0
H1235 H 1.00219 0.86823 0.77488 0.0
H1236 H 0.02342 0.88853 0.72478 0.0
H1237 H 0.01657 0.86995 0.88439 0.0
H1238 H 0.95507 0.86883 0.78128 0.0
H1239 H 0.92446 0.88044 0.74874 0.0
H1240 H 0.91593 0.91194 0.88633 0.0
H1241 H 0.94632 0.90021 0.91972 0.0
C1242 C 0.97529 0.79675 0.97372 0.0
C1243 C 0.96332 0.79854 0.01597 0.0
C1244 C 0.97906 0.81246 0.94347 0.0
C1245 C 0.97118 0.83002 0.95614 0.0
C1246 C 0.95769 0.83128 0.99507 0.0
C1247 C 0.95365 0.81552 0.02468 0.0
C1248 C 0.97739 0.84717 0.92968 0.0
C1249 C 0.96351 0.8586 0.90796 0.0
C1250 C 0.9968 0.85171 0.9234 0.0
C1251 C 0.01211 0.84127 0.94991 0.0
C1252 C 0.0115 0.83866 1.00294 0.0
C1253 C 0.02596 0.82888 0.02763 0.0
C1254 C 0.0412 0.82174 0.99977 0.0
C1255 C 0.04202 0.82437 0.94715 0.0
C1256 C 0.02757 0.8341 0.92226 0.0
C1257 C 0.00823 0.9211 0.81152 0.0
C1258 C 0.01874 0.91335 0.77122 0.0
C1259 C 0.99604 0.90957 0.8398 0.0
C1260 C 0.99425 0.8904 0.82737 0.0
C1261 C 1.00335 0.88314 0.78426 0.0
C1262 C 0.01565 0.89457 0.75637 0.0
C1263 C 0.98776 0.87701 0.86584 0.0
C1264 C 1.00172 0.86659 0.89093 0.0
C1265 C 0.96853 0.87363 0.87628 0.0
C1266 C 0.95308 0.88413 0.85212 0.0
C1267 C 0.94691 0.87875 0.80365 0.0
C1268 C 0.92949 0.88507 0.7855 0.0
C1269 C 0.91823 0.89683 0.81555 0.0
C1270 C 0.92462 0.90276 0.86321 0.0
C1271 C 0.94196 0.89634 0.88165 0.0
H1272 H 0.9046 0.90145 0.80176 0.0
H1273 H 0.0524 0.81419 0.01896 0.0
H1274 H 0.72734 0.9406 0.96586 0.0
H1275 H 0.70298 0.95063 0.90477 0.0
H1276 H 0.69209 1.00019 0.99607 0.0
H1277 H 0.71592 0.99005 0.05708 0.0
H1278 H 0.66054 0.97879 0.97772 0.0
H1279 H 0.71396 1.00561 0.88628 0.0
H1280 H 0.74526 1.00364 0.84474 0.0
H1281 H 0.72323 0.96296 0.73864 0.0
H1282 H 0.69182 0.96454 0.78001 0.0
H1283 H 0.60513 0.04057 0.86026 0.0
H1284 H 0.6377 0.02968 0.871 0.0
H1285 H 0.62367 0.97749 0.79413 0.0
H1286 H 0.59107 0.98862 0.78232 0.0
H1287 H 0.66759 0.99588 0.79518 0.0
H1288 H 0.61382 0.96828 0.89712 0.0
H1289 H 0.58323 0.97274 0.94115 0.0
H1290 H 0.60757 0.01765 0.03017 0.0
H1291 H 0.63824 0.01353 0.98624 0.0
C1292 C 0.71976 0.95367 0.97221 0.0
C1293 C 0.72301 0.96446 0.01602 0.0
C1294 C 0.70605 0.95941 0.93749 0.0
C1295 C 0.69585 0.97606 0.94638 0.0
C1296 C 0.6998 0.98722 0.98905 0.0
C1297 C 0.71326 0.98142 0.02377 0.0
C1298 C 0.67984 0.98122 0.91421 0.0
C1299 C 0.6621 0.9824 0.93776 0.0
C1300 C 0.68195 0.98567 0.86209 0.0
C1301 C 0.70063 0.98506 0.83644 0.0
C1302 C 0.71583 0.99617 0.85424 0.0
C1303 C 0.73357 0.99514 0.83073 0.0
C1304 C 0.73624 0.98315 0.78915 0.0
C1305 C 0.72114 0.97223 0.77087 0.0
C1306 C 0.70336 0.97321 0.79428 0.0
C1307 C 0.60927 0.02707 0.84428 0.0
C1308 C 0.59586 0.01504 0.82206 0.0
C1309 C 0.62784 0.02105 0.84948 0.0
C1310 C 0.63285 1.00282 0.83343 0.0
C1311 C 0.61996 0.99167 0.80611 0.0
C1312 C 0.60139 0.99783 0.80033 0.0
C1313 C 0.64859 0.99367 0.85926 0.0
C1314 C 0.6661 0.99174 0.83474 0.0
C1315 C 0.64645 0.98859 0.91089 0.0
C1316 C 0.62821 0.99066 0.93832 0.0
C1317 C 0.6126 0.97912 0.92601 0.0
C1318 C 0.59527 0.98157 0.95097 0.0
C1319 C 0.59346 0.99547 0.98845 0.0
C1320 C 0.60899 0.00689 1.00117 0.0
C1321 C 0.62635 1.00448 0.97635 0.0
H1322 H 0.58001 0.99741 0.00757 0.0
H1323 H 0.75 0.98234 0.77104 0.0
H1324 H 0.53912 0.73969 0.99259 0.0
H1325 H 0.52846 0.71402 0.93759 0.0
H1326 H 0.57522 0.67965 0.98736 0.0
H1327 H 0.58643 0.70564 0.04117 0.0
H1328 H 0.56952 0.6764 0.88739 0.0
H1329 H 0.53213 0.67366 0.03825 0.0
H1330 H 0.51066 0.68391 0.10682 0.0
H1331 H 0.46714 0.69512 0.99749 0.0
H1332 H 0.48848 0.68543 0.92811 0.0
H1333 H 0.5094 0.59203 0.82076 0.0
H1334 H 0.53163 0.61382 0.86216 0.0
H1335 H 0.50466 0.66109 0.78866 0.0
H1336 H 0.48263 0.63945 0.74629 0.0
H1337 H 0.50317 0.65382 0.9064 0.0
H1338 H 0.54293 0.65954 0.75504 0.0
H1339 H 0.56495 0.64862 0.68847 0.0
H1340 H 0.60392 0.63003 0.80281 0.0
H1341 H 0.58197 0.64054 0.87007 0.0
C1342 C 0.54743 0.72687 0.99075 0.0
C1343 C 0.56363 0.72459 0.02091 0.0
C1344 C 0.54116 0.71215 0.96 0.0
C1345 C 0.55088 0.69491 0.95955 0.0
C1346 C 0.56751 0.69286 0.98779 0.0
C1347 C 0.57385 0.70763 0.01842 0.0
C1348 C 0.54347 0.679 0.92979 0.0
C1349 C 0.55509 0.67124 0.89194 0.0
C1350 C 0.52465 0.6724 0.93615 0.0
C1351 C 0.51204 0.679 0.97781 0.0
C1352 C 0.51809 0.67859 0.02869 0.0
C1353 C 0.50591 0.68426 0.06775 0.0
C1354 C 0.48757 0.69021 0.05651 0.0
C1355 C 0.48137 0.69056 0.00616 0.0
C1356 C 0.49352 0.68501 0.96694 0.0
C1357 C 0.50858 0.60703 0.81231 0.0
C1358 C 0.49411 0.61421 0.78121 0.0
C1359 C 0.52137 0.61936 0.83554 0.0
C1360 C 0.51977 0.63887 0.82766 0.0
C1361 C 0.50612 0.64596 0.79433 0.0
C1362 C 0.49338 0.63368 0.77102 0.0
C1363 C 0.52891 0.65201 0.86273 0.0
C1364 C 0.51763 0.65897 0.90219 0.0
C1365 C 0.54799 0.65774 0.85802 0.0
C1366 C 0.56063 0.65048 0.81757 0.0
C1367 C 0.556 0.65276 0.766 0.0
C1368 C 0.56853 0.64675 0.72813 0.0
C1369 C 0.58578 0.63855 0.7414 0.0
C1370 C 0.59052 0.6363 0.79257 0.0
C1371 C 0.57804 0.64227 0.83056 0.0
H1372 H 0.59551 0.63401 0.71202 0.0
H1373 H 0.47813 0.69449 0.08684 0.0
H1374 H 0.81876 0.5592 0.07532 0.0
H1375 H 0.84576 0.55735 0.01839 0.0
H1376 H 0.80817 0.54785 0.89164 0.0
H1377 H 0.78109 0.54784 0.94957 0.0
H1378 H 0.8318 0.51918 0.90785 0.0
H1379 H 0.8413 0.58899 0.88939 0.0
H1380 H 0.84065 0.61909 0.93706 0.0
H1381 H 0.88292 0.59801 0.03908 0.0
H1382 H 0.88441 0.56814 0.99055 0.0
H1383 H 0.88932 0.50652 0.70741 0.0
H1384 H 0.86949 0.5255 0.76325 0.0
H1385 H 0.91198 0.52318 0.8803 0.0
H1386 H 0.93184 0.50354 0.82489 0.0
H1387 H 0.88904 0.559 0.87669 0.0
H1388 H 0.88337 0.4916 0.89143 0.0
H1389 H 0.88065 0.45853 0.86215 0.0
H1390 H 0.82847 0.47149 0.78679 0.0
H1391 H 0.8311 0.50475 0.81472 0.0
C1392 C 0.81625 0.55703 0.03513 0.0
C1393 C 0.79799 0.55299 0.01689 0.0
C1394 C 0.83168 0.55641 1.00245 0.0
C1395 C 0.82893 0.55256 0.95081 0.0
C1396 C 0.81048 0.55085 0.93154 0.0
C1397 C 0.79504 0.55092 0.96453 0.0
C1398 C 0.845 0.54644 0.91951 0.0
C1399 C 0.8441 0.52806 0.9 0.0
C1400 C 0.86154 0.55754 0.91275 0.0
C1401 C 0.86312 0.57651 0.93608 0.0
C1402 C 0.85081 0.59102 0.92119 0.0
C1403 C 0.85026 0.608 0.94842 0.0
C1404 C 0.86176 0.61047 0.99105 0.0
C1405 C 0.87412 0.59612 0.00587 0.0
C1406 C 0.87508 0.57931 0.97797 0.0
C1407 C 0.89464 0.51044 0.74455 0.0
C1408 C 0.91183 0.50327 0.76241 0.0
C1409 C 0.88348 0.52153 0.77599 0.0
C1410 C 0.88938 0.5257 0.82554 0.0
C1411 C 0.90737 0.52019 0.84188 0.0
C1412 C 0.91859 0.50894 0.81036 0.0
C1413 C 0.87512 0.53218 0.86219 0.0
C1414 C 0.87656 0.55032 0.88375 0.0
C1415 C 0.85906 0.52066 0.87215 0.0
C1416 C 0.85759 0.50073 0.85454 0.0
C1417 C 0.87146 0.48746 0.868 0.0
C1418 C 0.86991 0.46867 0.85177 0.0
C1419 C 0.85444 0.46293 0.82246 0.0
C1420 C 0.84048 0.47597 0.80935 0.0
C1421 C 0.842 0.49479 0.82534 0.0
H1422 H 0.85323 0.44836 0.81005 0.0
H1423 H 0.86112 0.62351 0.01256 0.0
H1424 H 0.00938 0.2155 0.84431 0.0
H1425 H 0.00733 0.18492 0.80186 0.0
H1426 H 0.06594 0.18959 0.75732 0.0
H1427 H 0.06824 0.22038 0.80062 0.0
H1428 H 0.04436 0.17192 0.68158 0.0
H1429 H 0.0561 0.1617 0.85557 0.0
H1430 H 0.05111 0.17038 0.9453 0.0
H1431 H 0.99301 0.15226 0.9358 0.0
H1432 H 0.99762 0.14372 0.84557 0.0
H1433 H 0.0513 0.06964 0.64413 0.0
H1434 H 0.05635 0.10213 0.67517 0.0
H1435 H 0.99694 0.10632 0.71058 0.0
H1436 H 0.99167 0.07412 0.67786 0.0
H1437 H 0.02179 0.11932 0.7924 0.0
H1438 H 0.0113 0.1347 0.612 0.0
H1439 H 0.01656 0.13626 0.51951 0.0
H1440 H 0.076 0.1461 0.54322 0.0
H1441 H 0.07088 0.14541 0.63611 0.0
C1442 C 0.02194 0.21016 0.82569 0.0
C1443 C 0.03911 0.22052 0.82737 0.0
C1444 C 0.0207 0.19255 0.80101 0.0
C1445 C 0.03656 0.18447 0.77708 0.0
C1446 C 0.05346 0.19526 0.77567 0.0
C1447 C 0.05473 0.213 0.80053 0.0
C1448 C 0.03557 0.16433 0.75721 0.0
C1449 C 0.03974 0.1604 0.70614 0.0
C1450 C 0.02959 0.14904 0.78865 0.0
C1451 C 0.0272 0.152 0.844 0.0
C1452 C 0.0423 0.15938 0.87282 0.0
C1453 C 0.03953 0.16438 0.92363 0.0
C1454 C 0.02175 0.16186 0.94626 0.0
C1455 C 0.00678 0.15415 0.91822 0.0
C1456 C 0.00948 0.14916 0.86726 0.0
C1457 C 0.03924 0.07747 0.65822 0.0
C1458 C 0.02103 0.06903 0.65809 0.0
C1459 C 0.04216 0.09618 0.67596 0.0
C1460 C 0.02706 0.10699 0.69542 0.0
C1461 C 0.00891 0.09851 0.69589 0.0
C1462 C 0.0059 0.07998 0.67694 0.0
C1463 C 0.03023 0.12687 0.71606 0.0
C1464 C 0.02656 0.13075 0.76777 0.0
C1465 C 0.03722 0.14201 0.68549 0.0
C1466 C 0.04077 0.13971 0.63066 0.0
C1467 C 0.02554 0.1368 0.59739 0.0
C1468 C 0.02848 0.13768 0.54491 0.0
C1469 C 0.04667 0.14107 0.52545 0.0
C1470 C 0.06196 0.1434 0.55839 0.0
C1471 C 0.05903 0.14289 0.6109 0.0
H1472 H 0.04894 0.1423 0.48499 0.0
H1473 H 0.01957 0.16589 0.98551 0.0
H1474 H 0.29689 0.06368 0.7488 0.0
H1475 H 0.3286 0.05853 0.71165 0.0
H1476 H 0.34301 0.02323 0.83941 0.0
H1477 H 0.31127 0.02789 0.87549 0.0
H1478 H 0.37058 0.05046 0.81866 0.0
H1479 H 0.33403 1.00482 0.72622 0.0
H1480 H 0.30879 0.99356 0.66911 0.0
H1481 H 0.33221 0.02677 0.5471 0.0
H1482 H 0.35733 0.03878 0.60396 0.0
H1483 H 0.46114 0.01705 0.74443 0.0
H1484 H 0.42853 0.02115 0.77306 0.0
H1485 H 0.41247 0.03774 0.62129 0.0
H1486 H 0.44489 0.03189 0.5919 0.0
H1487 H 0.38464 0.02136 0.65166 0.0
H1488 H 0.41896 0.06966 0.74281 0.0
H1489 H 0.44242 0.08408 0.80063 0.0
H1490 H 0.42251 0.04861 0.92273 0.0
H1491 H 0.39899 0.03394 0.86568 0.0
C1492 C 0.30676 0.0546 0.7685 0.0
C1493 C 0.30141 0.04599 0.81487 0.0
C1494 C 0.32493 0.05165 0.74722 0.0
C1495 C 0.33843 0.04038 0.77237 0.0
C1496 C 0.33302 0.0319 0.81883 0.0
C1497 C 0.31477 0.03449 0.83941 0.0
C1498 C 0.35839 0.03796 0.75205 0.0
C1499 C 0.37365 0.04391 0.78229 0.0
C1500 C 0.36261 0.03003 0.70376 0.0
C1501 C 0.34738 0.02301 0.66971 0.0
C1502 C 0.33364 0.01002 0.68749 0.0
C1503 C 0.31937 1.00348 0.65511 0.0
C1504 C 0.31882 0.0096 0.60461 0.0
C1505 C 0.33258 0.02223 0.58635 0.0
C1506 C 0.34681 0.02893 0.61866 0.0
C1507 C 0.45069 0.02164 0.7171 0.0
C1508 C 0.4559 0.02428 0.66579 0.0
C1509 C 0.43185 0.02427 0.73374 0.0
C1510 C 0.41754 0.0305 0.70027 0.0
C1511 C 0.42282 0.03304 0.64874 0.0
C1512 C 0.44156 0.02978 0.63175 0.0
C1513 C 0.39721 0.03387 0.71844 0.0
C1514 C 0.38177 0.02809 0.68785 0.0
C1515 C 0.39273 0.04231 0.7662 0.0
C1516 C 0.40739 0.05056 0.79982 0.0
C1517 C 0.41974 0.0648 0.78184 0.0
C1518 C 0.43303 0.07303 0.8145 0.0
C1519 C 0.43405 0.06718 0.8652 0.0
C1520 C 0.42176 0.05309 0.88341 0.0
C1521 C 0.40845 0.04482 0.85097 0.0
H1522 H 0.4443 0.07362 0.89044 0.0
H1523 H 0.30781 1.00446 0.57954 0.0
H1524 H 0.50642 0.30726 0.8432 0.0
H1525 H 0.51048 0.33881 0.80543 0.0
H1526 H 0.45241 0.33778 0.75599 0.0
H1527 H 0.44827 0.30615 0.79327 0.0
H1528 H 0.47482 0.35534 0.68383 0.0
H1529 H 0.46174 0.36306 0.85593 0.0
H1530 H 0.46458 0.35456 0.94644 0.0
H1531 H 0.52273 0.37291 0.94541 0.0
H1532 H 0.52031 0.38121 0.85435 0.0
H1533 H 0.46973 0.45808 0.65227 0.0
H1534 H 0.464 0.42512 0.67936 0.0
H1535 H 0.5222 0.42079 0.72603 0.0
H1536 H 0.52811 0.45348 0.69768 0.0
H1537 H 0.49749 0.40587 0.80002 0.0
H1538 H 0.5069 0.39086 0.61325 0.0
H1539 H 0.49941 0.39106 0.52183 0.0
H1540 H 0.44004 0.38646 0.55619 0.0
H1541 H 0.44732 0.38524 0.64789 0.0
C1542 C 0.49455 0.3135 0.82354 0.0
C1543 C 0.47694 0.30391 0.82206 0.0
C1544 C 0.49686 0.33175 0.80214 0.0
C1545 C 0.48171 0.34109 0.77811 0.0
C1546 C 0.46439 0.33116 0.77426 0.0
C1547 C 0.46201 0.31299 0.79611 0.0
C1548 C 0.48368 0.3615 0.76008 0.0
C1549 C 0.47964 0.36636 0.70951 0.0
C1550 C 0.48955 0.37627 0.79309 0.0
C1551 C 0.49089 0.37268 0.84841 0.0
C1552 C 0.47514 0.36531 0.87506 0.0
C1553 C 0.47667 0.36048 0.92637 0.0
C1554 C 0.49384 0.36318 0.95166 0.0
C1555 C 0.50945 0.37084 0.92571 0.0
C1556 C 0.508 0.37564 0.87425 0.0
C1557 C 0.48136 0.45013 0.66819 0.0
C1558 C 0.49944 0.4587 0.67248 0.0
C1559 C 0.47808 0.4311 0.68345 0.0
C1560 C 0.49266 0.42001 0.70461 0.0
C1561 C 0.51062 0.42871 0.70974 0.0
C1562 C 0.51401 0.44756 0.6934 0.0
C1563 C 0.4892 0.39973 0.72291 0.0
C1564 C 0.49282 0.39488 0.77409 0.0
C1565 C 0.48207 0.38511 0.69095 0.0
C1566 C 0.4776 0.38843 0.63709 0.0
C1567 C 0.49224 0.39031 0.60121 0.0
C1568 C 0.48803 0.39047 0.54935 0.0
C1569 C 0.4692 0.3892 0.5332 0.0
C1570 C 0.45457 0.38764 0.56882 0.0
C1571 C 0.45874 0.38709 0.62064 0.0
H1572 H 0.46586 0.38914 0.49321 0.0
H1573 H 0.49504 0.35934 0.99136 0.0
H1574 H 0.20292 0.46591 0.88248 0.0
H1575 H 0.17165 0.46808 0.84254 0.0
H1576 H 0.19628 0.49998 0.71853 0.0
H1577 H 0.22756 0.49802 0.75931 0.0
H1578 H 0.16528 0.51644 0.74291 0.0
H1579 H 0.17784 0.45229 0.70415 0.0
H1580 H 0.18748 0.41931 0.72015 0.0
H1581 H 0.14165 0.41234 0.82654 0.0
H1582 H 0.1318 0.44536 0.81137 0.0
H1583 H 0.07845 0.51597 0.59934 0.0
H1584 H 0.11103 0.5109 0.62825 0.0
H1585 H 0.08986 0.48145 0.76061 0.0
H1586 H 0.0574 0.48663 0.73205 0.0
H1587 H 0.11995 0.46285 0.7263 0.0
H1588 H 0.10935 0.52909 0.76492 0.0
H1589 H 0.10205 0.56267 0.74816 0.0
H1590 H 0.14632 0.56524 0.63578 0.0
H1591 H 0.1538 0.53166 0.6518 0.0
C1592 C 0.2017 0.47319 0.84636 0.0
C1593 C 0.21784 0.48172 0.8241 0.0
C1594 C 0.18372 0.47437 0.82319 0.0
C1595 C 0.18121 0.48408 0.77671 0.0
C1596 C 0.19749 0.4924 0.7542 0.0
C1597 C 0.21549 0.49122 0.77745 0.0
C1598 C 0.1616 0.48642 0.75337 0.0
C1599 C 0.15558 0.50457 0.73852 0.0
C1600 C 0.14843 0.4712 0.74776 0.0
C1601 C 0.15418 0.45134 0.75695 0.0
C1602 C 0.16989 0.44376 0.73119 0.0
C1603 C 0.17537 0.42505 0.74003 0.0
C1604 C 0.16521 0.41375 0.77444 0.0
C1605 C 0.1495 0.42112 0.79991 0.0
C1606 C 0.14393 0.43981 0.79111 0.0
C1607 C 0.08064 0.50839 0.63463 0.0
C1608 C 0.06489 0.50177 0.66307 0.0
C1609 C 0.09946 0.50557 0.65148 0.0
C1610 C 0.10336 0.49588 0.69735 0.0
C1611 C 0.08764 0.48899 0.72526 0.0
C1612 C 0.06885 0.49203 0.70877 0.0
C1613 C 0.12358 0.49297 0.71635 0.0
C1614 C 0.1297 0.47469 0.7304 0.0
C1615 C 0.13702 0.50802 0.72043 0.0
C1616 C 0.13194 0.52786 0.70908 0.0
C1617 C 0.11735 0.53678 0.73621 0.0
C1618 C 0.11324 0.55582 0.727 0.0
C1619 C 0.12367 0.56606 0.6908 0.0
C1620 C 0.13822 0.55728 0.66371 0.0
C1621 C 0.14241 0.53826 0.67287 0.0
H1622 H 0.12052 0.58082 0.68386 0.0
H1623 H 0.16949 0.39928 0.78129 0.0
H1624 H 0.9602 0.81894 0.35057 0.0
H1625 H 0.96437 0.85026 0.38904 0.0
H1626 H 1.00229 0.8267 0.4996 0.0
H1627 H 0.99833 0.79518 0.46105 0.0
H1628 H 0.96834 0.8576 0.53196 0.0
H1629 H 0.02694 0.84777 0.43469 0.0
H1630 H 0.04163 0.83577 0.35594 0.0
H1631 H 0.00852 0.87449 0.26757 0.0
H1632 H 0.99351 0.88657 0.34598 0.0
H1633 H 0.01594 0.945 0.61984 0.0
H1634 H 0.01035 0.91212 0.59179 0.0
H1635 H 0.981 0.93272 0.45994 0.0
H1636 H 0.98534 0.96531 0.48981 0.0
H1637 H 0.01064 0.90259 0.43991 0.0
H1638 H 0.95413 0.91464 0.53119 0.0
H1639 H 0.9316 0.92235 0.5997 0.0
H1640 H 0.95486 0.87824 0.69255 0.0
H1641 H 0.97776 0.87051 0.62506 0.0
C1642 C 0.96925 0.82019 0.38353 0.0
C1643 C 0.97887 0.80412 0.40233 0.0
C1644 C 0.97166 0.8383 0.40557 0.0
C1645 C 0.98357 0.84112 0.44775 0.0
C1646 C 0.99289 0.82511 0.46743 0.0
C1647 C 0.99072 0.80699 0.4449 0.0
C1648 C 0.98725 0.86093 0.46842 0.0
C1649 C 0.97795 0.86728 0.51253 0.0
C1650 C 0.99913 0.87405 0.44244 0.0
C1651 C 0.00923 0.86811 0.39597 0.0
C1652 C 0.02292 0.85379 0.39842 0.0
C1653 C 0.03124 0.84694 0.35391 0.0
C1654 C 0.02603 0.85438 0.30676 0.0
C1655 C 0.01259 0.86879 0.30412 0.0
C1656 C 1.00421 0.87569 0.34859 0.0
C1657 C 0.00832 0.94259 0.58484 0.0
C1658 C 1.00137 0.95818 0.55699 0.0
C1659 C 1.00505 0.92365 0.56876 0.0
C1660 C 0.9953 0.91959 0.52321 0.0
C1661 C 0.98862 0.93515 0.49502 0.0
C1662 C 0.9912 0.95399 0.51219 0.0
C1663 C 0.99215 0.89931 0.50482 0.0
C1664 C 1.0014 0.89289 0.46046 0.0
C1665 C 0.98002 0.8862 0.53049 0.0
C1666 C 0.96786 0.89219 0.57336 0.0
C1667 C 0.95477 0.90691 0.56674 0.0
C1668 C 0.94183 0.91119 0.60526 0.0
C1669 C 0.94174 0.90076 0.65041 0.0
C1670 C 0.9549 0.88632 0.65765 0.0
C1671 C 0.9679 0.882 0.6193 0.0
H1672 H 0.93134 0.90378 0.67951 0.0
H1673 H 0.0324 0.84897 0.27228 0.0
H1674 H 0.72001 0.95584 0.45108 0.0
H1675 H 0.68888 0.95945 0.49072 0.0
H1676 H 0.67967 0.01 0.40218 0.0
H1677 H 0.71093 1.00674 0.36363 0.0
H1678 H 0.66528 0.01659 0.48635 0.0
H1679 H 0.65913 0.96153 0.37971 0.0
H1680 H 0.66739 0.92961 0.34917 0.0
H1681 H 0.65514 0.90639 0.49681 0.0
H1682 H 0.64711 0.93824 0.52849 0.0
H1683 H 0.56268 0.01683 0.49279 0.0
H1684 H 0.59538 0.01149 0.46414 0.0
H1685 H 0.60664 0.98037 0.60155 0.0
H1686 H 0.57413 0.9866 0.63167 0.0
H1687 H 0.61995 0.96277 0.49905 0.0
H1688 H 0.62438 0.01849 0.60249 0.0
H1689 H 0.61643 0.05073 0.6308 0.0
H1690 H 0.63188 0.07288 0.48408 0.0
H1691 H 0.63944 0.04067 0.45443 0.0
C1692 C 0.71141 0.96776 0.43987 0.0
C1693 C 0.71832 0.98096 0.40363 0.0
C1694 C 0.69336 0.96976 0.46256 0.0
C1695 C 0.68127 0.9848 0.44907 0.0
C1696 C 0.68836 0.99819 0.41377 0.0
C1697 C 0.70648 0.99634 0.39163 0.0
C1698 C 0.66141 0.98682 0.47138 0.0
C1699 C 0.65541 1.00476 0.48824 0.0
C1700 C 0.64823 0.97148 0.47582 0.0
C1701 C 0.65272 0.9523 0.4566 0.0
C1702 C 0.65829 0.94963 0.40573 0.0
C1703 C 0.66294 0.93155 0.38823 0.0
C1704 C 0.66185 0.91599 0.42107 0.0
C1705 C 0.65603 0.91847 0.47145 0.0
C1706 C 0.65143 0.93652 0.4892 0.0
C1707 C 0.57211 0.00886 0.51705 0.0
C1708 C 0.56569 1.00227 0.56482 0.0
C1709 C 0.59088 1.0058 0.50053 0.0
C1710 C 0.60371 0.99545 0.53038 0.0
C1711 C 0.59718 0.98838 0.57756 0.0
C1712 C 0.57856 0.99204 0.59494 0.0
C1713 C 0.62394 0.99255 0.51269 0.0
C1714 C 0.62993 0.97451 0.49686 0.0
C1715 C 0.63707 0.0078 0.50854 0.0
C1716 C 0.63217 0.02711 0.52598 0.0
C1717 C 0.62577 0.03018 0.57597 0.0
C1718 C 0.62139 0.04846 0.59232 0.0
C1719 C 0.62356 0.06383 0.55919 0.0
C1720 C 0.63012 0.06095 0.50964 0.0
C1721 C 0.63443 0.04268 0.49302 0.0
H1722 H 0.62023 0.07799 0.57198 0.0
H1723 H 0.66547 0.90201 0.40746 0.0
H1724 H 0.56332 0.72615 0.4641 0.0
H1725 H 0.55884 0.69482 0.50305 0.0
H1726 H 0.52127 0.67909 0.38087 0.0
H1727 H 0.52461 0.71079 0.34466 0.0
H1728 H 0.5072 0.66446 0.45519 0.0
H1729 H 0.57453 0.66467 0.40719 0.0
H1730 H 0.60721 0.67724 0.41204 0.0
H1731 H 0.6073 0.66832 0.5736 0.0
H1732 H 0.57456 0.65593 0.56978 0.0
H1733 H 0.50113 0.56499 0.49122 0.0
H1734 H 0.50754 0.59711 0.46014 0.0
H1735 H 0.5466 0.60613 0.58375 0.0
H1736 H 0.54151 0.57323 0.6114 0.0
H1737 H 0.56025 0.62528 0.51693 0.0
H1738 H 0.49489 0.62512 0.56844 0.0
H1739 H 0.46127 0.61529 0.57061 0.0
H1740 H 0.45659 0.62646 0.41058 0.0
H1741 H 0.49022 0.6361 0.40736 0.0
C1742 C 0.554 0.71602 0.44576 0.0
C1743 C 0.54423 0.72123 0.4012 0.0
C1744 C 0.55161 0.69782 0.46778 0.0
C1745 C 0.54 0.68383 0.44481 0.0
C1746 C 0.5303 0.68921 0.40023 0.0
C1747 C 0.53221 0.70752 0.37923 0.0
C1748 C 0.53732 0.66388 0.46678 0.0
C1749 C 0.51898 0.65587 0.46766 0.0
C1750 C 0.55224 0.65252 0.4863 0.0
C1751 C 0.57206 0.65952 0.48821 0.0
C1752 C 0.58152 0.66543 0.44372 0.0
C1753 C 0.60004 0.67254 0.44632 0.0
C1754 C 0.60931 0.67361 0.4931 0.0
C1755 C 0.6001 0.6675 0.53739 0.0
C1756 C 0.58158 0.66043 0.53503 0.0
C1757 C 0.51112 0.57383 0.51169 0.0
C1758 C 0.52066 0.56646 0.55414 0.0
C1759 C 0.51465 0.59249 0.49428 0.0
C1760 C 0.52712 0.60494 0.52022 0.0
C1761 C 0.53683 0.59733 0.56247 0.0
C1762 C 0.53385 0.57839 0.57865 0.0
C1763 C 0.53014 0.62557 0.50327 0.0
C1764 C 0.54849 0.63377 0.50392 0.0
C1765 C 0.51517 0.6373 0.48578 0.0
C1766 C 0.49509 0.63113 0.4876 0.0
C1767 C 0.48672 0.62532 0.53367 0.0
C1768 C 0.46766 0.61981 0.53508 0.0
C1769 C 0.45681 0.6202 0.49074 0.0
C1770 C 0.465 0.62612 0.44487 0.0
C1771 C 0.48405 0.6316 0.44324 0.0
H1772 H 0.44205 0.61597 0.49193 0.0
H1773 H 0.62362 0.67916 0.49503 0.0
H1774 H 0.81591 0.57309 0.3754 0.0
H1775 H 0.84614 0.56752 0.41487 0.0
H1776 H 0.82452 0.51651 0.48379 0.0
H1777 H 0.79432 0.52081 0.4414 0.0
H1778 H 0.85265 0.55197 0.54373 0.0
H1779 H 0.84697 0.49931 0.42195 0.0
H1780 H 0.8365 0.48873 0.33721 0.0
H1781 H 0.87399 0.52928 0.26676 0.0
H1782 H 0.88433 0.5404 0.35133 0.0
H1783 H 0.94049 0.50751 0.62313 0.0
H1784 H 0.9079 0.51305 0.59436 0.0
H1785 H 0.92933 0.54526 0.46704 0.0
H1786 H 0.96188 0.54036 0.49683 0.0
H1787 H 0.90043 0.51894 0.43795 0.0
H1788 H 0.91021 0.56751 0.56025 0.0
H1789 H 0.91768 0.58226 0.64262 0.0
H1790 H 0.87065 0.55309 0.71182 0.0
H1791 H 0.86354 0.53722 0.63058 0.0
C1792 C 0.81711 0.56037 0.39785 0.0
C1793 C 0.8018 0.54724 0.40276 0.0
C1794 C 0.83475 0.55741 0.42147 0.0
C1795 C 0.83791 0.54154 0.45242 0.0
C1796 C 0.82264 0.5289 0.46006 0.0
C1797 C 0.80506 0.53155 0.43539 0.0
C1798 C 0.85752 0.53759 0.47307 0.0
C1799 C 0.86298 0.54438 0.52113 0.0
C1800 C 0.87136 0.52826 0.44335 0.0
C1801 C 0.86633 0.52072 0.39275 0.0
C1802 C 0.85295 0.50597 0.38833 0.0
C1803 C 0.84701 0.49991 0.34039 0.0
C1804 C 0.85456 0.50834 0.29661 0.0
C1805 C 0.86816 0.52277 0.30072 0.0
C1806 C 0.87406 0.52896 0.34864 0.0
C1807 C 0.93832 0.51584 0.58908 0.0
C1808 C 0.95407 0.5235 0.56261 0.0
C1809 C 0.91955 0.51904 0.57257 0.0
C1810 C 0.91582 0.5296 0.52815 0.0
C1811 C 0.93155 0.53705 0.5013 0.0
C1812 C 0.9503 0.53431 0.51863 0.0
C1813 C 0.89566 0.53284 0.50978 0.0
C1814 C 0.89012 0.52617 0.46148 0.0
C1815 C 0.88173 0.54219 0.53975 0.0
C1816 C 0.88657 0.55088 0.5894 0.0
C1817 C 0.90176 0.56382 0.5933 0.0
C1818 C 0.90594 0.57236 0.63987 0.0
C1819 C 0.89483 0.56836 0.68266 0.0
C1820 C 0.87949 0.55582 0.67893 0.0
C1821 C 0.87542 0.547 0.63267 0.0
H1822 H 0.89798 0.57511 0.7186 0.0
H1823 H 0.8499 0.50368 0.2595 0.0
loop_
_geom_bond_atom_site_label_1
_geom_bond_atom_site_label_2
_geom_bond_distance
_geom_bond_site_symmetry_2
_ccdc_geom_bond_type
C0 C1 1.384 . S
C0 H13 0.947 . S
C0 C35 1.382 . S
C1 C0 1.384 . S
C1 C2 1.378 . S
C2 C1 1.378 . S
C2 C3 1.378 . S
C2 H14 0.952 . S
C3 C2 1.378 . S
C3 H15 0.950 . S
C3 C34 1.383 . S
H4 C23 0.947 . S
H5 C24 0.946 . S
H6 C26 0.953 . S
H7 C27 0.945 . S
H8 C29 0.952 . S
H9 C30 0.949 1_556 S
H10 C32 0.950 . S
H11 C33 0.948 . S
H12 C35 0.951 . S
H13 C0 0.947 . S
H14 C2 0.952 . S
H15 C3 0.950 . S
N16 C19 1.382 . S
N16 C21 1.363 . S
N17 C19 1.371 . S
N17 C20 1.372 . S
N18 C20 1.361 . S
N18 C21 1.377 . S
C19 N16 1.382 . S
C19 N17 1.371 . S
C19 C22 1.480 . S
C20 N17 1.372 . S
C20 N18 1.361 . S
C20 C28 1.457 . S
C21 N16 1.363 . S
C21 N18 1.377 . S
C21 C34 1.479 . S
C22 C19 1.480 . S
C22 C23 1.383 . S
C22 C27 1.385 . S
C23 H4 0.947 . S
C23 C22 1.383 . S
C23 C24 1.388 . S
C24 H5 0.946 . S
C24 C23 1.388 . S
C24 C25 1.384 . S
C25 C24 1.384 . S
C25 C26 1.377 . S
C26 H6 0.953 . S
C26 C25 1.377 . S
C26 C27 1.369 . S
C27 H7 0.945 . S
C27 C22 1.385 . S
C27 C26 1.369 . S
C28 C20 1.457 . S
C28 C29 1.372 . S
C28 C33 1.364 . S
C29 H8 0.952 . S
C29 C28 1.372 . S
C29 C30 1.389 . S
C30 H9 0.949 1_554 S
C30 C29 1.389 . S
C30 C31 1.387 . S
C31 C30 1.387 . S
C31 C32 1.372 . S
C32 H10 0.950 . S
C32 C31 1.372 . S
C32 C33 1.379 . S
C33 H11 0.948 . S
C33 C28 1.364 . S
C33 C32 1.379 . S
C34 C3 1.383 . S
C34 C21 1.479 . S
C34 C35 1.398 . S
C35 C0 1.382 . S
C35 H12 0.951 . S
C35 C34 1.398 . S
C36 C37 1.384 . S
C36 H49 0.947 . S
C36 C71 1.382 . S
C37 C36 1.384 . S
C37 C38 1.378 . S
C38 C37 1.378 . S
C38 C39 1.378 . S
C38 H50 0.952 . S
C39 C38 1.378 . S
C39 H51 0.950 . S
C39 C70 1.383 . S
H40 C59 0.947 . S
H41 C60 0.946 . S
H42 C62 0.953 . S
H43 C63 0.945 . S
H44 C65 0.952 . S
H45 C66 0.949 1_556 S
H46 C68 0.950 . S
H47 C69 0.948 . S
H48 C71 0.951 . S
H49 C36 0.947 . S
H50 C38 0.952 . S
H51 C39 0.950 . S
N52 C55 1.382 . S
N52 C57 1.363 . S
N53 C55 1.371 . S
N53 C56 1.372 . S
N54 C56 1.361 . S
N54 C57 1.377 . S
C55 N52 1.382 . S
C55 N53 1.371 . S
C55 C58 1.480 . S
C56 N53 1.372 . S
C56 N54 1.361 . S
C56 C64 1.457 . S
C57 N52 1.363 . S
C57 N54 1.377 . S
C57 C70 1.479 . S
C58 C55 1.480 . S
C58 C59 1.383 . S
C58 C63 1.385 . S
C59 H40 0.947 . S
C59 C58 1.383 . S
C59 C60 1.388 . S
C60 H41 0.946 . S
C60 C59 1.388 . S
C60 C61 1.384 . S
C61 C60 1.384 . S
C61 C62 1.377 . S
C62 H42 0.953 . S
C62 C61 1.377 . S
C62 C63 1.369 . S
C63 H43 0.945 . S
C63 C58 1.385 . S
C63 C62 1.369 . S
C64 C56 1.457 . S
C64 C65 1.372 . S
C64 C69 1.364 . S
C65 H44 0.952 . S
C65 C64 1.372 . S
C65 C66 1.389 . S
C66 H45 0.949 1_554 S
C66 C65 1.389 . S
C66 C67 1.387 . S
C67 C66 1.387 . S
C67 C68 1.372 . S
C68 H46 0.950 . S
C68 C67 1.372 . S
C68 C69 1.379 . S
C69 H47 0.948 . S
C69 C64 1.364 . S
C69 C68 1.379 . S
C70 C39 1.383 . S
C70 C57 1.479 . S
C70 C71 1.398 . S
C71 C36 1.382 . S
C71 H48 0.951 . S
C71 C70 1.398 . S
C72 C73 1.384 . S
C72 H85 0.947 . S
C72 C107 1.382 . S
C73 C72 1.384 . S
C73 C74 1.378 . S
C74 C73 1.378 . S
C74 C75 1.378 . S
C74 H86 0.952 . S
C75 C74 1.378 . S
C75 H87 0.950 . S
C75 C106 1.383 . S
H76 C95 0.947 . S
H77 C96 0.946 . S
H78 C98 0.953 . S
H79 C99 0.945 . S
H80 C101 0.952 . S
H81 C102 0.949 1_556 S
H82 C104 0.950 . S
H83 C105 0.948 . S
H84 C107 0.951 . S
H85 C72 0.947 . S
H86 C74 0.952 . S
H87 C75 0.950 . S
N88 C91 1.382 . S
N88 C93 1.363 . S
N89 C91 1.371 . S
N89 C92 1.372 . S
N90 C92 1.361 . S
N90 C93 1.377 . S
C91 N88 1.382 . S
C91 N89 1.371 . S
C91 C94 1.480 . S
C92 N89 1.372 . S
C92 N90 1.361 . S
C92 C100 1.457 . S
C93 N88 1.363 . S
C93 N90 1.377 . S
C93 C106 1.479 . S
C94 C91 1.480 . S
C94 C95 1.383 . S
C94 C99 1.385 . S
C95 H76 0.947 . S
C95 C94 1.383 . S
C95 C96 1.388 . S
C96 H77 0.946 . S
C96 C95 1.388 . S
C96 C97 1.384 . S
C97 C96 1.384 . S
C97 C98 1.377 . S
C98 H78 0.953 . S
C98 C97 1.377 . S
C98 C99 1.369 . S
C99 H79 0.945 . S
C99 C94 1.385 . S
C99 C98 1.369 . S
C100 C92 1.457 . S
C100 C101 1.372 . S
C100 C105 1.364 . S
C101 H80 0.952 . S
C101 C100 1.372 . S
C101 C102 1.389 . S
C102 H81 0.949 1_554 S
C102 C101 1.389 . S
C102 C103 1.387 . S
C103 C102 1.387 . S
C103 C104 1.372 . S
C104 H82 0.950 . S
C104 C103 1.372 . S
C104 C105 1.379 . S
C105 H83 0.948 . S
C105 C100 1.364 . S
C105 C104 1.379 . S
C106 C75 1.383 . S
C106 C93 1.479 . S
C106 C107 1.398 . S
C107 C72 1.382 . S
C107 H84 0.951 . S
C107 C106 1.398 . S
C108 C109 1.384 . S
C108 H121 0.947 . S
C108 C143 1.382 . S
C109 C108 1.384 . S
C109 C110 1.378 . S
C110 C109 1.378 . S
C110 C111 1.378 . S
C110 H122 0.952 1_554 S
C111 C110 1.378 . S
C111 H123 0.950 . S
C111 C142 1.383 . S
H112 C131 0.947 . S
H113 C132 0.946 . S
H114 C134 0.953 . S
H115 C135 0.945 . S
H116 C137 0.952 . S
H117 C138 0.949 . S
H118 C140 0.950 . S
H119 C141 0.948 . S
H120 C143 0.951 . S
H121 C108 0.947 . S
H122 C110 0.952 1_556 S
H123 C111 0.950 . S
N124 C127 1.382 . S
N124 C129 1.363 . S
N125 C127 1.371 . S
N125 C128 1.372 . S
N126 C128 1.361 . S
N126 C129 1.377 . S
C127 N124 1.382 . S
C127 N125 1.371 . S
C127 C130 1.480 . S
C128 N125 1.372 . S
C128 N126 1.361 . S
C128 C136 1.457 . S
C129 N124 1.363 . S
C129 N126 1.377 . S
C129 C142 1.479 . S
C130 C127 1.480 . S
C130 C131 1.383 . S
C130 C135 1.385 . S
C131 H112 0.947 . S
C131 C130 1.383 . S
C131 C132 1.388 . S
C132 H113 0.946 . S
C132 C131 1.388 . S
C132 C133 1.384 . S
C133 C132 1.384 . S
C133 C134 1.377 . S
C134 H114 0.953 . S
C134 C133 1.377 . S
C134 C135 1.369 . S
C135 H115 0.945 . S
C135 C130 1.385 . S
C135 C134 1.369 . S
C136 C128 1.457 . S
C136 C137 1.372 . S
C136 C141 1.364 . S
C137 H116 0.952 . S
C137 C136 1.372 . S
C137 C138 1.389 . S
C138 H117 0.949 . S
C138 C137 1.389 . S
C138 C139 1.387 . S
C139 C138 1.387 . S
C139 C140 1.372 . S
C140 H118 0.950 . S
C140 C139 1.372 . S
C140 C141 1.379 . S
C141 H119 0.948 . S
C141 C136 1.364 . S
C141 C140 1.379 . S
C142 C111 1.383 . S
C142 C129 1.479 . S
C142 C143 1.398 . S
C143 C108 1.382 . S
C143 H120 0.951 . S
C143 C142 1.398 . S
C144 C145 1.384 . S
C144 H157 0.947 . S
C144 C179 1.382 . S
C145 C144 1.384 . S
C145 C146 1.378 . S
C146 C145 1.378 . S
C146 C147 1.378 . S
C146 H158 0.952 . S
C147 C146 1.378 . S
C147 H159 0.950 . S
C147 C178 1.383 . S
H148 C167 0.947 1_556 S
H149 C168 0.946 . S
H150 C170 0.953 . S
H151 C171 0.945 . S
H152 C173 0.952 . S
H153 C174 0.949 . S
H154 C176 0.950 . S
H155 C177 0.948 . S
H156 C179 0.951 . S
H157 C144 0.947 . S
H158 C146 0.952 . S
H159 C147 0.950 . S
N160 C163 1.382 1_556 S
N160 C165 1.363 . S
N161 C163 1.371 . S
N161 C164 1.372 . S
N162 C164 1.361 . S
N162 C165 1.377 1_554 S
C163 N160 1.382 1_554 S
C163 N161 1.371 . S
C163 C166 1.480 . S
C164 N161 1.372 . S
C164 N162 1.361 . S
C164 C172 1.457 . S
C165 N160 1.363 . S
C165 N162 1.377 1_556 S
C165 C178 1.479 . S
C166 C163 1.480 . S
C166 C167 1.383 . S
C166 C171 1.385 . S
C167 H148 0.947 1_554 S
C167 C166 1.383 . S
C167 C168 1.388 . S
C168 H149 0.946 . S
C168 C167 1.388 . S
C168 C169 1.384 . S
C169 C168 1.384 . S
C169 C170 1.377 . S
C170 H150 0.953 . S
C170 C169 1.377 . S
C170 C171 1.369 . S
C171 H151 0.945 . S
C171 C166 1.385 . S
C171 C170 1.369 . S
C172 C164 1.457 . S
C172 C173 1.372 . S
C172 C177 1.364 . S
C173 H152 0.952 . S
C173 C172 1.372 . S
C173 C174 1.389 . S
C174 H153 0.949 . S
C174 C173 1.389 . S
C174 C175 1.387 . S
C175 C174 1.387 . S
C175 C176 1.372 . S
C176 H154 0.950 . S
C176 C175 1.372 . S
C176 C177 1.379 . S
C177 H155 0.948 . S
C177 C172 1.364 . S
C177 C176 1.379 . S
C178 C147 1.383 . S
C178 C165 1.479 . S
C178 C179 1.398 . S
C179 C144 1.382 . S
C179 H156 0.951 . S
C179 C178 1.398 . S
C180 C181 1.384 . S
C180 H193 0.947 . S
C180 C215 1.382 . S
C181 C180 1.384 . S
C181 C182 1.378 . S
C182 C181 1.378 . S
C182 C183 1.378 . S
C182 H194 0.952 . S
C183 C182 1.378 . S
C183 H195 0.950 . S
C183 C214 1.383 . S
H184 C203 0.947 1_556 S
H185 C204 0.946 . S
H186 C206 0.953 . S
H187 C207 0.945 . S
H188 C209 0.952 . S
H189 C210 0.949 . S
H190 C212 0.950 . S
H191 C213 0.948 . S
H192 C215 0.951 . S
H193 C180 0.947 . S
H194 C182 0.952 . S
H195 C183 0.950 . S
N196 C199 1.382 1_556 S
N196 C201 1.363 . S
N197 C199 1.371 . S
N197 C200 1.372 . S
N198 C200 1.361 . S
N198 C201 1.377 1_554 S
C199 N196 1.382 1_554 S
C199 N197 1.371 . S
C199 C202 1.480 . S
C200 N197 1.372 . S
C200 N198 1.361 . S
C200 C208 1.457 . S
C201 N196 1.363 . S
C201 N198 1.377 1_556 S
C201 C214 1.479 . S
C202 C199 1.480 . S
C202 C203 1.383 . S
C202 C207 1.385 . S
C203 H184 0.947 1_554 S
C203 C202 1.383 . S
C203 C204 1.388 . S
C204 H185 0.946 . S
C204 C203 1.388 . S
C204 C205 1.384 . S
C205 C204 1.384 . S
C205 C206 1.377 . S
C206 H186 0.953 . S
C206 C205 1.377 . S
C206 C207 1.369 . S
C207 H187 0.945 . S
C207 C202 1.385 . S
C207 C206 1.369 . S
C208 C200 1.457 . S
C208 C209 1.372 . S
C208 C213 1.364 . S
C209 H188 0.952 . S
C209 C208 1.372 . S
C209 C210 1.389 . S
C210 H189 0.949 . S
C210 C209 1.389 . S
C210 C211 1.387 . S
C211 C210 1.387 . S
C211 C212 1.372 . S
C212 H190 0.950 . S
C212 C211 1.372 . S
C212 C213 1.379 . S
C213 H191 0.948 . S
C213 C208 1.364 . S
C213 C212 1.379 . S
C214 C183 1.383 . S
C214 C201 1.479 . S
C214 C215 1.398 . S
C215 C180 1.382 . S
C215 H192 0.951 . S
C215 C214 1.398 . S
C216 C217 1.384 . S
C216 H229 0.947 . S
C216 C251 1.382 . S
C217 C216 1.384 . S
C217 C218 1.378 . S
C218 C217 1.378 . S
C218 C219 1.378 . S
C218 H230 0.952 . S
C219 C218 1.378 . S
C219 H231 0.950 . S
C219 C250 1.383 . S
H220 C239 0.947 1_556 S
H221 C240 0.946 . S
H222 C242 0.953 . S
H223 C243 0.945 . S
H224 C245 0.952 . S
H225 C246 0.949 . S
H226 C248 0.950 . S
H227 C249 0.948 . S
H228 C251 0.951 . S
H229 C216 0.947 . S
H230 C218 0.952 . S
H231 C219 0.950 . S
N232 C235 1.382 1_556 S
N232 C237 1.363 . S
N233 C235 1.371 . S
N233 C236 1.372 . S
N234 C236 1.361 . S
N234 C237 1.377 1_554 S
C235 N232 1.382 1_554 S
C235 N233 1.371 . S
C235 C238 1.480 . S
C236 N233 1.372 . S
C236 N234 1.361 . S
C236 C244 1.457 . S
C237 N232 1.363 . S
C237 N234 1.377 1_556 S
C237 C250 1.479 . S
C238 C235 1.480 . S
C238 C239 1.383 . S
C238 C243 1.385 . S
C239 H220 0.947 1_554 S
C239 C238 1.383 . S
C239 C240 1.388 . S
C240 H221 0.946 . S
C240 C239 1.388 . S
C240 C241 1.384 . S
C241 C240 1.384 . S
C241 C242 1.377 . S
C242 H222 0.953 . S
C242 C241 1.377 . S
C242 C243 1.369 . S
C243 H223 0.945 . S
C243 C238 1.385 . S
C243 C242 1.369 . S
C244 C236 1.457 . S
C244 C245 1.372 . S
C244 C249 1.364 . S
C245 H224 0.952 . S
C245 C244 1.372 . S
C245 C246 1.389 . S
C246 H225 0.949 . S
C246 C245 1.389 . S
C246 C247 1.387 . S
C247 C246 1.387 . S
C247 C248 1.372 . S
C248 H226 0.950 . S
C248 C247 1.372 . S
C248 C249 1.379 . S
C249 H227 0.948 . S
C249 C244 1.364 . S
C249 C248 1.379 . S
C250 C219 1.383 . S
C250 C237 1.479 . S
C250 C251 1.398 . S
C251 C216 1.382 . S
C251 H228 0.951 . S
C251 C250 1.398 . S
C252 C253 1.384 . S
C252 H265 0.947 . S
C252 C287 1.382 . S
C253 C252 1.384 . S
C253 C254 1.378 . S
C254 C253 1.378 . S
C254 C255 1.378 . S
C254 H266 0.952 . S
C255 C254 1.378 . S
C255 H267 0.950 . S
C255 C286 1.383 . S
H256 C275 0.947 . S
H257 C276 0.946 . S
H258 C278 0.953 . S
H259 C279 0.945 1_556 S
H260 C281 0.952 . S
H261 C282 0.949 . S
H262 C284 0.950 . S
H263 C285 0.948 . S
H264 C287 0.951 . S
H265 C252 0.947 . S
H266 C254 0.952 . S
H267 C255 0.950 . S
N268 C271 1.382 . S
N268 C273 1.363 . S
N269 C271 1.371 1_556 S
N269 C272 1.372 . S
N270 C272 1.361 1_554 S
N270 C273 1.377 . S
C271 N268 1.382 . S
C271 N269 1.371 1_554 S
C271 C274 1.480 . S
C272 N269 1.372 . S
C272 N270 1.361 1_556 S
C272 C280 1.457 . S
C273 N268 1.363 . S
C273 N270 1.377 . S
C273 C286 1.479 . S
C274 C271 1.480 . S
C274 C275 1.383 . S
C274 C279 1.385 . S
C275 H256 0.947 . S
C275 C274 1.383 . S
C275 C276 1.388 . S
C276 H257 0.946 . S
C276 C275 1.388 . S
C276 C277 1.384 . S
C277 C276 1.384 . S
C277 C278 1.377 . S
C278 H258 0.953 . S
C278 C277 1.377 . S
C278 C279 1.369 . S
C279 H259 0.945 1_554 S
C279 C274 1.385 . S
C279 C278 1.369 . S
C280 C272 1.457 . S
C280 C281 1.372 . S
C280 C285 1.364 . S
C281 H260 0.952 . S
C281 C280 1.372 . S
C281 C282 1.389 . S
C282 H261 0.949 . S
C282 C281 1.389 . S
C282 C283 1.387 . S
C283 C282 1.387 . S
C283 C284 1.372 . S
C284 H262 0.950 . S
C284 C283 1.372 . S
C284 C285 1.379 . S
C285 H263 0.948 . S
C285 C280 1.364 . S
C285 C284 1.379 . S
C286 C255 1.383 . S
C286 C273 1.479 . S
C286 C287 1.398 . S
C287 C252 1.382 . S
C287 H264 0.951 . S
C287 C286 1.398 . S
Eu288 N317 2.600 . S
Eu288 N323 2.562 . S
Eu288 O332 2.464 1_655 S
Eu288 O333 2.373 1_545 S
Eu288 O335 2.432 . S
Eu288 O336 2.291 1_655 S
Eu288 O340 2.335 1_655 S
Eu288 O343 2.372 . S
Eu288 C352 2.787 . S
C289 N290 1.365 1_545 S
C289 C292 1.405 . S
C289 C296 1.448 . S
N290 C289 1.365 1_565 S
N290 C293 1.319 . S
N290 Eu299 2.600 . S
C291 C293 1.397 1_545 S
C291 C294 1.367 . S
C291 H311 0.931 . S
C292 C289 1.405 . S
C292 C294 1.403 . S
C292 C298 1.439 . S
C293 N290 1.319 . S
C293 C291 1.397 1_565 S
C293 H304 0.930 . S
C294 C291 1.367 . S
C294 C292 1.403 . S
C294 H315 0.929 . S
C295 C296 1.430 . S
C295 C297 1.387 . S
C295 C301 1.404 . S
C296 C289 1.448 . S
C296 C295 1.430 . S
C296 N300 1.351 . S
C297 C295 1.387 . S
C297 C298 1.374 . S
C297 H312 0.931 . S
C298 C292 1.439 . S
C298 C297 1.374 . S
C298 H313 0.931 . S
Eu299 N290 2.600 . S
Eu299 N300 2.562 1_565 S
Eu299 O334 2.335 . S
Eu299 O337 2.372 . S
Eu299 O338 2.462 . S
Eu299 O339 2.373 1_565 S
Eu299 O341 2.432 . S
Eu299 O342 2.275 1_465 S
Eu299 C363 2.787 . S
N300 C296 1.351 . S
N300 Eu299 2.562 1_545 S
N300 C302 1.325 . S
C301 C295 1.404 . S
C301 C303 1.366 . S
C301 H309 0.930 . S
C302 N300 1.325 . S
C302 C303 1.416 . S
C302 H308 0.927 1_445 S
C303 C301 1.366 . S
C303 C302 1.416 . S
C303 H305 0.932 1_455 S
H304 C293 0.930 . S
H305 C303 0.932 1_655 S
H306 C321 0.930 . S
H307 C328 0.932 1_455 S
H308 C302 0.927 1_665 S
H309 C301 0.930 . S
H310 C324 0.903 1_455 S
H311 C291 0.931 . S
H312 C297 0.931 . S
H313 C298 0.931 . S
H314 C319 0.931 . S
H315 C294 0.929 . S
H316 C327 0.930 . S
N317 Eu288 2.600 . S
N317 C318 1.365 . S
N317 C321 1.319 . S
C318 N317 1.365 . S
C318 C320 1.405 1_545 S
C318 C326 1.448 . S
C319 H314 0.931 . S
C319 C321 1.397 . S
C319 C322 1.367 . S
C320 C318 1.405 1_565 S
C320 C322 1.403 1_565 S
C320 C353 1.439 . S
C321 H306 0.930 . S
C321 N317 1.319 . S
C321 C319 1.397 . S
C322 C319 1.367 . S
C322 C320 1.403 1_545 S
C322 H329 0.929 1_545 S
N323 Eu288 2.562 . S
N323 C324 1.348 . S
N323 C326 1.351 . S
C324 H310 0.903 1_655 S
C324 N323 1.348 . S
C324 C328 1.410 1_545 S
C325 C326 1.430 1_565 S
C325 C327 1.404 . S
C325 C354 1.387 . S
C326 C318 1.448 . S
C326 N323 1.351 . S
C326 C325 1.430 1_545 S
C327 H316 0.930 . S
C327 C325 1.404 . S
C327 C328 1.371 . S
C328 H307 0.932 1_655 S
C328 C324 1.410 1_565 S
C328 C327 1.371 . S
H329 C322 0.929 1_565 S
H330 C353 0.931 . S
H331 C354 0.931 . S
O332 Eu288 2.464 1_455 S
O332 C352 1.257 1_455 S
O333 Eu288 2.373 1_565 S
O333 C344 1.249 . S
O334 Eu299 2.335 . S
O334 C344 1.264 1_455 S
O335 Eu288 2.432 . S
O335 C352 1.268 . S
O336 Eu288 2.291 1_455 S
O336 C351 1.255 . S
O337 Eu299 2.372 . S
O337 C351 1.257 1_565 S
O338 Eu299 2.462 . S
O338 C363 1.252 . S
O339 Eu299 2.373 1_545 S
O339 C355 1.249 . S
O340 Eu288 2.335 1_455 S
O340 C355 1.264 . S
O341 Eu299 2.432 . S
O341 C363 1.268 . S
O342 Eu299 2.275 1_645 S
O342 C362 1.270 . S
O343 Eu288 2.372 . S
O343 C362 1.257 . S
C344 O333 1.249 . S
C344 O334 1.264 1_655 S
C345 C348 1.382 . S
C345 C350 1.390 . S
C345 C352 1.506 . S
C346 C347 1.398 . S
C346 C350 1.392 . S
C347 C346 1.398 . S
C347 C349 1.372 . S
C347 H364 0.931 . S
C348 C345 1.382 . S
C348 C349 1.390 . S
C348 H365 0.931 . S
C349 C347 1.372 . S
C349 C348 1.390 . S
C349 H366 0.929 . S
C350 C345 1.390 . S
C350 C346 1.392 . S
C350 H367 0.930 1_655 S
C351 O336 1.255 . S
C351 O337 1.257 1_545 S
C352 Eu288 2.787 . S
C352 O332 1.257 1_655 S
C352 O335 1.268 . S
C352 C345 1.506 . S
C353 C320 1.439 . S
C353 H330 0.931 . S
C353 C354 1.374 . S
C354 C325 1.387 . S
C354 H331 0.931 . S
C354 C353 1.374 . S
C355 O339 1.249 . S
C355 O340 1.264 . S
C356 C359 1.382 . S
C356 C360 1.390 . S
C356 C363 1.506 . S
C357 C358 1.398 . S
C357 C360 1.392 . S
C358 C357 1.398 . S
C358 C361 1.372 . S
C358 H368 0.931 . S
C359 C356 1.382 . S
C359 C361 1.390 . S
C359 H369 0.931 . S
C360 C356 1.390 . S
C360 C357 1.392 . S
C360 H370 0.909 1_455 S
C361 C358 1.372 . S
C361 C359 1.390 . S
C361 H371 0.929 . S
C362 O342 1.270 . S
C362 O343 1.257 . S
C363 Eu299 2.787 . S
C363 O338 1.252 . S
C363 O341 1.268 . S
C363 C356 1.506 . S
H364 C347 0.931 . S
H365 C348 0.931 . S
H366 C349 0.929 . S
H367 C350 0.930 1_455 S
H368 C358 0.931 . S
H369 C359 0.931 . S
H370 C360 0.909 1_655 S
H371 C361 0.929 . S
Eu372 N401 2.600 . S
Eu372 N407 2.562 . S
Eu372 O416 2.462 . S
Eu372 O417 2.373 . S
Eu372 O419 2.432 . S
Eu372 O420 2.291 . S
Eu372 O424 2.335 1_545 S
Eu372 O427 2.372 . S
Eu372 C436 2.787 . S
C373 N374 1.365 . S
C373 C376 1.405 . S
C373 C380 1.448 . S
N374 C373 1.365 . S
N374 C377 1.319 . S
N374 Eu383 2.600 . S
C375 C377 1.397 . S
C375 C378 1.367 . S
C375 H395 0.931 . S
C376 C373 1.405 . S
C376 C378 1.403 . S
C376 C382 1.439 . S
C377 N374 1.319 . S
C377 C375 1.397 . S
C377 H388 0.930 . S
C378 C375 1.367 . S
C378 C376 1.403 . S
C378 H399 0.929 . S
C379 C380 1.430 . S
C379 C381 1.387 . S
C379 C385 1.404 . S
C380 C373 1.448 . S
C380 C379 1.430 . S
C380 N384 1.351 . S
C381 C379 1.387 . S
C381 C382 1.374 . S
C381 H396 0.931 . S
C382 C376 1.439 . S
C382 C381 1.374 . S
C382 H397 0.931 . S
Eu383 N374 2.600 . S
Eu383 N384 2.562 . S
Eu383 O418 2.335 1_565 S
Eu383 O421 2.372 . S
Eu383 O422 2.462 . S
Eu383 O423 2.373 . S
Eu383 O425 2.432 . S
Eu383 O426 2.291 1_565 S
Eu383 C447 2.787 . S
N384 C380 1.351 . S
N384 Eu383 2.562 . S
N384 C386 1.325 . S
C385 C379 1.404 . S
C385 C387 1.366 . S
C385 H393 0.930 . S
C386 N384 1.325 . S
C386 C387 1.416 . S
C386 H392 0.929 . S
C387 C385 1.366 . S
C387 C386 1.416 . S
C387 H389 0.930 . S
H388 C377 0.930 . S
H389 C387 0.930 . S
H390 C405 0.930 . S
H391 C412 0.930 . S
H392 C386 0.929 . S
H393 C385 0.930 . S
H394 C408 0.929 . S
H395 C375 0.931 . S
H396 C381 0.931 . S
H397 C382 0.931 . S
H398 C403 0.931 . S
H399 C378 0.929 . S
H400 C411 0.930 . S
N401 Eu372 2.600 . S
N401 C402 1.365 . S
N401 C405 1.319 . S
C402 N401 1.365 . S
C402 C404 1.405 . S
C402 C410 1.448 . S
C403 H398 0.931 . S
C403 C405 1.397 . S
C403 C406 1.367 . S
C404 C402 1.405 . S
C404 C406 1.403 . S
C404 C437 1.439 . S
C405 H390 0.930 . S
C405 N401 1.319 . S
C405 C403 1.397 . S
C406 C403 1.367 . S
C406 C404 1.403 . S
C406 H413 0.929 . S
N407 Eu372 2.562 . S
N407 C408 1.325 . S
N407 C410 1.351 . S
C408 H394 0.929 . S
C408 N407 1.325 . S
C408 C412 1.416 . S
C409 C410 1.430 . S
C409 C411 1.404 . S
C409 C438 1.387 . S
C410 C402 1.448 . S
C410 N407 1.351 . S
C410 C409 1.430 . S
C411 H400 0.930 . S
C411 C409 1.404 . S
C411 C412 1.366 . S
C412 H391 0.930 . S
C412 C408 1.416 . S
C412 C411 1.366 . S
H413 C406 0.929 . S
H414 C437 0.931 . S
H415 C438 0.931 . S
O416 Eu372 2.462 . S
O416 C436 1.252 . S
O417 Eu372 2.373 . S
O417 C428 1.249 . S
O418 Eu383 2.335 1_545 S
O418 C428 1.264 . S
O419 Eu372 2.432 . S
O419 C436 1.268 . S
O420 Eu372 2.291 . S
O420 C435 1.255 1_545 S
O421 Eu383 2.372 . S
O421 C435 1.257 . S
O422 Eu383 2.462 . S
O422 C447 1.252 . S
O423 Eu383 2.373 . S
O423 C439 1.249 . S
O424 Eu372 2.335 1_565 S
O424 C439 1.264 . S
O425 Eu383 2.432 . S
O425 C447 1.268 . S
O426 Eu383 2.291 1_545 S
O426 C446 1.255 . S
O427 Eu372 2.372 . S
O427 C446 1.257 . S
C428 O417 1.249 . S
C428 O418 1.264 . S
C429 C432 1.382 . S
C429 C434 1.390 . S
C429 C436 1.506 . S
C430 C431 1.398 . S
C430 C434 1.392 . S
C431 C430 1.398 . S
C431 C433 1.372 . S
C431 H448 0.931 . S
C432 C429 1.382 . S
C432 C433 1.390 . S
C432 H449 0.931 . S
C433 C431 1.372 . S
C433 C432 1.390 . S
C433 H450 0.929 . S
C434 C429 1.390 . S
C434 C430 1.392 . S
C434 H451 0.930 . S
C435 O420 1.255 1_565 S
C435 O421 1.257 . S
C436 Eu372 2.787 . S
C436 O416 1.252 . S
C436 O419 1.268 . S
C436 C429 1.506 . S
C437 C404 1.439 . S
C437 H414 0.931 . S
C437 C438 1.374 . S
C438 C409 1.387 . S
C438 H415 0.931 . S
C438 C437 1.374 . S
C439 O423 1.249 . S
C439 O424 1.264 . S
C440 C443 1.382 . S
C440 C444 1.390 1_565 S
C440 C447 1.506 . S
C441 C442 1.398 1_545 S
C441 C444 1.392 . S
C442 C441 1.398 1_565 S
C442 C445 1.372 . S
C442 H452 0.931 . S
C443 C440 1.382 . S
C443 C445 1.390 . S
C443 H453 0.931 . S
C444 C440 1.390 1_545 S
C444 C441 1.392 . S
C444 H454 0.930 . S
C445 C442 1.372 . S
C445 C443 1.390 . S
C445 H455 0.929 . S
C446 O426 1.255 . S
C446 O427 1.257 . S
C447 Eu383 2.787 . S
C447 O422 1.252 . S
C447 O425 1.268 . S
C447 C440 1.506 . S
H448 C431 0.931 . S
H449 C432 0.931 . S
H450 C433 0.929 . S
H451 C434 0.930 . S
H452 C442 0.931 . S
H453 C443 0.931 . S
H454 C444 0.930 . S
H455 C445 0.929 . S
Eu456 N485 2.600 . S
Eu456 N491 2.562 . S
Eu456 O500 2.462 . S
Eu456 O501 2.373 . S
Eu456 O503 2.432 . S
Eu456 O504 2.291 . S
Eu456 O508 2.335 . S
Eu456 O511 2.372 . S
Eu456 C520 2.787 . S
C457 N458 1.365 . S
C457 C460 1.405 . S
C457 C464 1.448 . S
N458 C457 1.365 . S
N458 C461 1.319 . S
N458 Eu467 2.600 . S
C459 C461 1.397 . S
C459 C462 1.367 . S
C459 H479 0.931 . S
C460 C457 1.405 . S
C460 C462 1.403 . S
C460 C466 1.439 . S
C461 N458 1.319 . S
C461 C459 1.397 . S
C461 H472 0.930 . S
C462 C459 1.367 . S
C462 C460 1.403 . S
C462 H483 0.929 . S
C463 C464 1.430 . S
C463 C465 1.387 . S
C463 C469 1.404 . S
C464 C457 1.448 . S
C464 C463 1.430 . S
C464 N468 1.351 . S
C465 C463 1.387 . S
C465 C466 1.374 . S
C465 H480 0.931 . S
C466 C460 1.439 . S
C466 C465 1.374 . S
C466 H481 0.931 . S
Eu467 N458 2.600 . S
Eu467 N468 2.562 . S
Eu467 O502 2.335 . S
Eu467 O505 2.372 . S
Eu467 O506 2.462 . S
Eu467 O507 2.373 . S
Eu467 O509 2.432 . S
Eu467 O510 2.291 . S
Eu467 C531 2.787 . S
N468 C464 1.351 . S
N468 Eu467 2.562 . S
N468 C470 1.325 . S
C469 C463 1.404 . S
C469 C471 1.366 . S
C469 H477 0.930 . S
C470 N468 1.325 . S
C470 C471 1.416 . S
C470 H476 0.929 . S
C471 C469 1.366 . S
C471 C470 1.416 . S
C471 H473 0.930 . S
H472 C461 0.930 . S
H473 C471 0.930 . S
H474 C489 0.930 . S
H475 C496 0.930 . S
H476 C470 0.929 . S
H477 C469 0.930 . S
H478 C492 0.929 . S
H479 C459 0.931 . S
H480 C465 0.931 . S
H481 C466 0.931 . S
H482 C487 0.931 . S
H483 C462 0.929 . S
H484 C495 0.930 . S
N485 Eu456 2.600 . S
N485 C486 1.365 . S
N485 C489 1.319 . S
C486 N485 1.365 . S
C486 C488 1.405 . S
C486 C494 1.448 . S
C487 H482 0.931 . S
C487 C489 1.397 . S
C487 C490 1.367 . S
C488 C486 1.405 . S
C488 C490 1.403 . S
C488 C521 1.439 . S
C489 H474 0.930 . S
C489 N485 1.319 . S
C489 C487 1.397 . S
C490 C487 1.367 . S
C490 C488 1.403 . S
C490 H497 0.929 . S
N491 Eu456 2.562 . S
N491 C492 1.325 . S
N491 C494 1.351 . S
C492 H478 0.929 . S
C492 N491 1.325 . S
C492 C496 1.416 . S
C493 C494 1.430 . S
C493 C495 1.404 . S
C493 C522 1.387 . S
C494 C486 1.448 . S
C494 N491 1.351 . S
C494 C493 1.430 . S
C495 H484 0.930 . S
C495 C493 1.404 . S
C495 C496 1.366 . S
C496 H475 0.930 . S
C496 C492 1.416 . S
C496 C495 1.366 . S
H497 C490 0.929 . S
H498 C521 0.931 . S
H499 C522 0.931 . S
O500 Eu456 2.462 . S
O500 C520 1.252 . S
O501 Eu456 2.373 . S
O501 C512 1.249 . S
O502 Eu467 2.335 . S
O502 C512 1.264 . S
O503 Eu456 2.432 . S
O503 C520 1.268 . S
O504 Eu456 2.291 . S
O504 C519 1.255 . S
O505 Eu467 2.372 . S
O505 C519 1.257 . S
O506 Eu467 2.462 . S
O506 C531 1.252 . S
O507 Eu467 2.373 . S
O507 C523 1.249 . S
O508 Eu456 2.335 . S
O508 C523 1.264 . S
O509 Eu467 2.432 . S
O509 C531 1.268 . S
O510 Eu467 2.291 . S
O510 C530 1.255 . S
O511 Eu456 2.372 . S
O511 C530 1.257 . S
C512 O501 1.249 . S
C512 O502 1.264 . S
C513 C516 1.382 . S
C513 C518 1.390 . S
C513 C520 1.506 . S
C514 C515 1.398 . S
C514 C518 1.392 . S
C515 C514 1.398 . S
C515 C517 1.372 . S
C515 H532 0.931 . S
C516 C513 1.382 . S
C516 C517 1.390 . S
C516 H533 0.931 . S
C517 C515 1.372 . S
C517 C516 1.390 . S
C517 H534 0.929 . S
C518 C513 1.390 . S
C518 C514 1.392 . S
C518 H535 0.930 . S
C519 O504 1.255 . S
C519 O505 1.257 . S
C520 Eu456 2.787 . S
C520 O500 1.252 . S
C520 O503 1.268 . S
C520 C513 1.506 . S
C521 C488 1.439 . S
C521 H498 0.931 . S
C521 C522 1.374 . S
C522 C493 1.387 . S
C522 H499 0.931 . S
C522 C521 1.374 . S
C523 O507 1.249 . S
C523 O508 1.264 . S
C524 C527 1.382 . S
C524 C528 1.390 . S
C524 C531 1.506 . S
C525 C526 1.398 . S
C525 C528 1.392 . S
C526 C525 1.398 . S
C526 C529 1.372 . S
C526 H536 0.931 . S
C527 C524 1.382 . S
C527 C529 1.390 . S
C527 H537 0.931 . S
C528 C524 1.390 . S
C528 C525 1.392 . S
C528 H538 0.930 . S
C529 C526 1.372 . S
C529 C527 1.390 . S
C529 H539 0.929 . S
C530 O510 1.255 . S
C530 O511 1.257 . S
C531 Eu467 2.787 . S
C531 O506 1.252 . S
C531 O509 1.268 . S
C531 C524 1.506 . S
H532 C515 0.931 . S
H533 C516 0.931 . S
H534 C517 0.929 . S
H535 C518 0.930 . S
H536 C526 0.931 . S
H537 C527 0.931 . S
H538 C528 0.930 . S
H539 C529 0.929 . S
Eu540 N569 2.600 . S
Eu540 N575 2.562 . S
Eu540 O584 2.462 . S
Eu540 O585 2.373 1_455 S
Eu540 O587 2.432 . S
Eu540 O588 2.291 . S
Eu540 O592 2.335 . S
Eu540 O595 2.372 . S
Eu540 C604 2.787 . S
C541 N542 1.365 1_455 S
C541 C544 1.405 . S
C541 C548 1.448 . S
N542 C541 1.365 1_655 S
N542 C545 1.319 . S
N542 Eu551 2.600 . S
C543 C545 1.380 1_455 S
C543 C546 1.393 . S
C543 H563 0.926 1_455 S
C544 C541 1.405 . S
C544 C546 1.403 . S
C544 C550 1.439 . S
C545 N542 1.319 . S
C545 C543 1.380 1_655 S
C545 H556 0.930 . S
C546 C543 1.393 . S
C546 C544 1.403 . S
C546 H567 0.929 . S
C547 C548 1.430 . S
C547 C549 1.387 . S
C547 C553 1.404 . S
C548 C541 1.448 . S
C548 C547 1.430 . S
C548 N552 1.364 . S
C549 C547 1.387 . S
C549 C550 1.374 . S
C549 H564 0.931 . S
C550 C544 1.439 . S
C550 C549 1.374 . S
C550 H565 0.931 . S
Eu551 N542 2.600 . S
Eu551 N552 2.551 1_655 S
Eu551 O586 2.335 . S
Eu551 O589 2.372 . S
Eu551 O590 2.462 . S
Eu551 O591 2.373 1_655 S
Eu551 O593 2.432 . S
Eu551 O594 2.293 . S
Eu551 C615 2.787 . S
N552 C548 1.364 . S
N552 Eu551 2.551 1_455 S
N552 C554 1.330 . S
C553 C547 1.404 . S
C553 C555 1.366 . S
C553 H561 0.930 . S
C554 N552 1.330 . S
C554 C555 1.416 . S
C554 H560 0.929 1_455 S
C555 C553 1.366 . S
C555 C554 1.416 . S
C555 H557 0.930 . S
H556 C545 0.930 . S
H557 C555 0.930 . S
H558 C573 0.930 . S
H559 C580 0.930 . S
H560 C554 0.929 1_655 S
H561 C553 0.930 . S
H562 C576 0.929 . S
H563 C543 0.926 1_655 S
H564 C549 0.931 . S
H565 C550 0.931 . S
H566 C571 0.931 . S
H567 C546 0.929 . S
H568 C579 0.930 . S
N569 Eu540 2.600 . S
N569 C570 1.365 . S
N569 C573 1.319 . S
C570 N569 1.365 . S
C570 C572 1.405 1_455 S
C570 C578 1.448 . S
C571 H566 0.931 . S
C571 C573 1.397 . S
C571 C574 1.367 . S
C572 C570 1.405 1_655 S
C572 C574 1.403 1_655 S
C572 C605 1.439 . S
C573 H558 0.930 . S
C573 N569 1.319 . S
C573 C571 1.397 . S
C574 C571 1.367 . S
C574 C572 1.403 1_455 S
C574 H581 0.929 1_455 S
N575 Eu540 2.562 . S
N575 C576 1.325 . S
N575 C578 1.351 . S
C576 H562 0.929 . S
C576 N575 1.325 . S
C576 C580 1.416 1_455 S
C577 C578 1.430 1_655 S
C577 C579 1.404 . S
C577 C606 1.387 . S
C578 C570 1.448 . S
C578 N575 1.351 . S
C578 C577 1.430 1_455 S
C579 H568 0.930 . S
C579 C577 1.404 . S
C579 C580 1.366 . S
C580 H559 0.930 . S
C580 C576 1.416 1_655 S
C580 C579 1.366 . S
H581 C574 0.929 1_655 S
H582 C605 0.931 . S
H583 C606 0.931 . S
O584 Eu540 2.462 . S
O584 C604 1.252 . S
O585 Eu540 2.373 1_655 S
O585 C596 1.249 . S
O586 Eu551 2.335 . S
O586 C596 1.264 . S
O587 Eu540 2.432 . S
O587 C604 1.268 . S
O588 Eu540 2.291 . S
O588 C603 1.255 . S
O589 Eu551 2.372 . S
O589 C603 1.257 1_655 S
O590 Eu551 2.462 . S
O590 C615 1.252 . S
O591 Eu551 2.373 1_455 S
O591 C607 1.249 . S
O592 Eu540 2.335 . S
O592 C607 1.264 . S
O593 Eu551 2.432 . S
O593 C615 1.268 . S
O594 Eu551 2.293 . S
O594 C614 1.254 1_655 S
O595 Eu540 2.372 . S
O595 C614 1.257 . S
C596 O585 1.249 . S
C596 O586 1.264 . S
C597 C600 1.382 . S
C597 C602 1.390 . S
C597 C604 1.506 . S
C598 C599 1.398 . S
C598 C602 1.392 . S
C599 C598 1.398 . S
C599 C601 1.372 . S
C599 H616 0.931 . S
C600 C597 1.382 . S
C600 C601 1.390 . S
C600 H617 0.931 . S
C601 C599 1.372 . S
C601 C600 1.390 . S
C601 H618 0.929 . S
C602 C597 1.390 . S
C602 C598 1.392 . S
C602 H619 0.930 . S
C603 O588 1.255 . S
C603 O589 1.257 1_455 S
C604 Eu540 2.787 . S
C604 O584 1.252 . S
C604 O587 1.268 . S
C604 C597 1.506 . S
C605 C572 1.439 . S
C605 H582 0.931 . S
C605 C606 1.374 . S
C606 C577 1.387 . S
C606 H583 0.931 . S
C606 C605 1.374 . S
C607 O591 1.249 . S
C607 O592 1.264 . S
C608 C611 1.382 . S
C608 C612 1.390 . S
C608 C615 1.506 . S
C609 C610 1.398 . S
C609 C612 1.392 . S
C610 C609 1.398 . S
C610 C613 1.372 . S
C610 H620 0.931 . S
C611 C608 1.382 . S
C611 C613 1.390 . S
C611 H621 0.931 . S
C612 C608 1.390 . S
C612 C609 1.392 . S
C612 H622 0.930 . S
C613 C610 1.372 . S
C613 C611 1.390 . S
C613 H623 0.929 . S
C614 O594 1.254 1_455 S
C614 O595 1.257 . S
C615 Eu551 2.787 . S
C615 O590 1.252 . S
C615 O593 1.268 . S
C615 C608 1.506 . S
H616 C599 0.931 . S
H617 C600 0.931 . S
H618 C601 0.929 . S
H619 C602 0.930 . S
H620 C610 0.931 . S
H621 C611 0.931 . S
H622 C612 0.930 . S
H623 C613 0.929 . S
H624 C642 0.951 . S
H625 C644 0.951 . S
H626 C646 0.950 . S
H627 C647 0.950 . S
H628 C649 0.950 . S
H629 C652 0.950 . S
H630 C653 0.950 . S
H631 C655 0.950 . S
H632 C656 0.950 . S
H633 C657 0.951 . S
H634 C659 0.951 . S
H635 C661 0.950 . S
H636 C662 0.950 . S
H637 C664 0.950 . S
H638 C667 0.950 . S
H639 C668 0.950 . S
H640 C670 0.950 . S
H641 C671 0.950 1_545 S
C642 H624 0.951 . S
C642 C643 1.366 . S
C642 C644 1.388 . S
C643 C642 1.366 . S
C643 C647 1.385 . S
C644 H625 0.951 . S
C644 C642 1.388 . S
C644 C645 1.366 . S
C645 C644 1.366 . S
C645 C646 1.414 . S
C645 C648 1.499 . S
C646 H626 0.950 . S
C646 C645 1.414 . S
C646 C647 1.374 . S
C647 H627 0.950 . S
C647 C643 1.385 . S
C647 C646 1.374 . S
C648 C645 1.499 . S
C648 C649 1.373 . S
C648 C650 1.389 . S
C649 H628 0.950 . S
C649 C648 1.373 . S
C649 C665 1.377 . S
C650 C648 1.389 . S
C650 C651 1.524 . S
C650 C664 1.377 . S
C651 C650 1.524 . S
C651 C652 1.397 . S
C651 C656 1.363 . S
C652 H629 0.950 . S
C652 C651 1.397 . S
C652 C653 1.334 . S
C653 H630 0.950 . S
C653 C652 1.334 . S
C653 C654 1.287 . S
C654 C653 1.287 . S
C654 C655 1.524 . S
C654 H673 0.913 . S
C655 H631 0.950 . S
C655 C654 1.524 . S
C655 C656 1.415 . S
C656 H632 0.950 . S
C656 C651 1.363 . S
C656 C655 1.415 . S
C657 H633 0.951 . S
C657 C658 1.366 . S
C657 C659 1.388 . S
C658 C657 1.366 . S
C658 C662 1.385 . S
C659 H634 0.951 . S
C659 C657 1.388 . S
C659 C660 1.366 . S
C660 C659 1.366 . S
C660 C661 1.414 . S
C660 C663 1.499 . S
C661 H635 0.950 . S
C661 C660 1.414 . S
C661 C662 1.374 . S
C662 H636 0.950 . S
C662 C658 1.385 . S
C662 C661 1.374 . S
C663 C660 1.499 . S
C663 C664 1.373 . S
C663 C665 1.389 . S
C664 H637 0.950 . S
C664 C650 1.377 . S
C664 C663 1.373 . S
C665 C649 1.377 . S
C665 C663 1.389 . S
C665 C666 1.524 1_545 S
C666 C665 1.524 1_565 S
C666 C667 1.397 . S
C666 C671 1.363 . S
C667 H638 0.950 . S
C667 C666 1.397 . S
C667 C668 1.334 . S
C668 H639 0.950 . S
C668 C667 1.334 . S
C668 C669 1.287 . S
C669 C668 1.287 . S
C669 C670 1.524 . S
C669 H672 0.999 . S
C670 H640 0.950 . S
C670 C669 1.524 . S
C670 C671 1.415 . S
C671 H641 0.950 1_565 S
C671 C666 1.363 . S
C671 C670 1.415 . S
H672 C669 0.999 . S
H673 C654 0.913 . S
H674 C692 0.951 . S
H675 C694 0.951 . S
H676 C696 0.950 . S
H677 C697 0.950 . S
H678 C699 0.950 . S
H679 C702 0.950 . S
H680 C703 0.950 . S
H681 C705 0.950 . S
H682 C706 0.950 . S
H683 C707 0.951 . S
H684 C709 0.951 . S
H685 C711 0.950 . S
H686 C712 0.950 . S
H687 C714 0.950 . S
H688 C717 0.950 . S
H689 C718 0.950 . S
H690 C720 0.950 . S
H691 C721 0.950 . S
C692 H674 0.951 . S
C692 C693 1.366 . S
C692 C694 1.388 . S
C693 C692 1.366 . S
C693 C697 1.385 . S
C694 H675 0.951 . S
C694 C692 1.388 . S
C694 C695 1.366 . S
C695 C694 1.366 . S
C695 C696 1.414 . S
C695 C698 1.499 . S
C696 H676 0.950 . S
C696 C695 1.414 . S
C696 C697 1.374 . S
C697 H677 0.950 . S
C697 C693 1.385 . S
C697 C696 1.374 . S
C698 C695 1.499 . S
C698 C699 1.373 . S
C698 C700 1.389 . S
C699 H678 0.950 . S
C699 C698 1.373 . S
C699 C715 1.377 . S
C700 C698 1.389 . S
C700 C701 1.524 . S
C700 C714 1.377 . S
C701 C700 1.524 . S
C701 C702 1.397 . S
C701 C706 1.363 . S
C702 H679 0.950 . S
C702 C701 1.397 . S
C702 C703 1.334 . S
C703 H680 0.950 . S
C703 C702 1.334 . S
C703 C704 1.287 . S
C704 C703 1.287 . S
C704 C705 1.524 . S
C704 H723 0.913 . S
C705 H681 0.950 . S
C705 C704 1.524 . S
C705 C706 1.415 . S
C706 H682 0.950 . S
C706 C701 1.363 . S
C706 C705 1.415 . S
C707 H683 0.951 . S
C707 C708 1.366 . S
C707 C709 1.388 . S
C708 C707 1.366 . S
C708 C712 1.385 . S
C709 H684 0.951 . S
C709 C707 1.388 . S
C709 C710 1.366 . S
C710 C709 1.366 . S
C710 C711 1.414 . S
C710 C713 1.499 . S
C711 H685 0.950 . S
C711 C710 1.414 . S
C711 C712 1.374 . S
C712 H686 0.950 . S
C712 C708 1.385 . S
C712 C711 1.374 . S
C713 C710 1.499 . S
C713 C714 1.373 . S
C713 C715 1.389 . S
C714 H687 0.950 . S
C714 C700 1.377 . S
C714 C713 1.373 . S
C715 C699 1.377 . S
C715 C713 1.389 . S
C715 C716 1.524 . S
C716 C715 1.524 . S
C716 C717 1.397 . S
C716 C721 1.363 . S
C717 H688 0.950 . S
C717 C716 1.397 . S
C717 C718 1.334 . S
C718 H689 0.950 . S
C718 C717 1.334 . S
C718 C719 1.287 . S
C719 C718 1.287 . S
C719 C720 1.524 . S
C719 H722 0.999 . S
C720 H690 0.950 . S
C720 C719 1.524 . S
C720 C721 1.415 . S
C721 H691 0.950 . S
C721 C716 1.363 . S
C721 C720 1.415 . S
H722 C719 0.999 . S
H723 C704 0.913 . S
H724 C742 0.951 . S
H725 C744 0.951 . S
H726 C746 0.950 . S
H727 C747 0.950 . S
H728 C749 0.950 . S
H729 C752 0.950 . S
H730 C753 0.950 . S
H731 C755 0.950 . S
H732 C756 0.950 . S
H733 C757 0.951 . S
H734 C759 0.951 . S
H735 C761 0.950 . S
H736 C762 0.950 . S
H737 C764 0.950 . S
H738 C767 0.950 . S
H739 C768 0.950 . S
H740 C770 0.950 . S
H741 C771 0.950 . S
C742 H724 0.951 . S
C742 C743 1.366 . S
C742 C744 1.388 . S
C743 C742 1.366 . S
C743 C747 1.385 . S
C744 H725 0.951 . S
C744 C742 1.388 . S
C744 C745 1.366 . S
C745 C744 1.366 . S
C745 C746 1.414 . S
C745 C748 1.499 . S
C746 H726 0.950 . S
C746 C745 1.414 . S
C746 C747 1.374 . S
C747 H727 0.950 . S
C747 C743 1.385 . S
C747 C746 1.374 . S
C748 C745 1.499 . S
C748 C749 1.373 . S
C748 C750 1.389 . S
C749 H728 0.950 . S
C749 C748 1.373 . S
C749 C765 1.377 . S
C750 C748 1.389 . S
C750 C751 1.524 . S
C750 C764 1.377 . S
C751 C750 1.524 . S
C751 C752 1.397 . S
C751 C756 1.363 . S
C752 H729 0.950 . S
C752 C751 1.397 . S
C752 C753 1.334 . S
C753 H730 0.950 . S
C753 C752 1.334 . S
C753 C754 1.287 . S
C754 C753 1.287 . S
C754 C755 1.524 . S
C754 H773 0.913 . S
C755 H731 0.950 . S
C755 C754 1.524 . S
C755 C756 1.415 . S
C756 H732 0.950 . S
C756 C751 1.363 . S
C756 C755 1.415 . S
C757 H733 0.951 . S
C757 C758 1.366 . S
C757 C759 1.388 . S
C758 C757 1.366 . S
C758 C762 1.385 . S
C759 H734 0.951 . S
C759 C757 1.388 . S
C759 C760 1.366 . S
C760 C759 1.366 . S
C760 C761 1.414 . S
C760 C763 1.499 . S
C761 H735 0.950 . S
C761 C760 1.414 . S
C761 C762 1.374 . S
C762 H736 0.950 . S
C762 C758 1.385 . S
C762 C761 1.374 . S
C763 C760 1.499 . S
C763 C764 1.373 . S
C763 C765 1.389 . S
C764 H737 0.950 . S
C764 C750 1.377 . S
C764 C763 1.373 . S
C765 C749 1.377 . S
C765 C763 1.389 . S
C765 C766 1.524 . S
C766 C765 1.524 . S
C766 C767 1.397 . S
C766 C771 1.363 . S
C767 H738 0.950 . S
C767 C766 1.397 . S
C767 C768 1.334 . S
C768 H739 0.950 . S
C768 C767 1.334 . S
C768 C769 1.287 . S
C769 C768 1.287 . S
C769 C770 1.524 . S
C769 H772 0.999 . S
C770 H740 0.950 . S
C770 C769 1.524 . S
C770 C771 1.415 . S
C771 H741 0.950 . S
C771 C766 1.363 . S
C771 C770 1.415 . S
H772 C769 0.999 . S
H773 C754 0.913 . S
H774 C792 0.951 . S
H775 C794 0.951 . S
H776 C796 0.950 . S
H777 C797 0.950 . S
H778 C799 0.950 . S
H779 C802 0.951 . S
H780 C803 0.950 . S
H781 C805 0.950 . S
H782 C806 0.950 . S
H783 C807 0.951 . S
H784 C809 0.951 . S
H785 C811 0.950 . S
H786 C812 0.950 . S
H787 C814 0.950 . S
H788 C817 0.950 . S
H789 C818 0.950 . S
H790 C820 0.950 . S
H791 C821 0.950 . S
C792 H774 0.951 . S
C792 C793 1.366 . S
C792 C794 1.388 . S
C793 C792 1.366 . S
C793 C797 1.385 . S
C794 H775 0.951 . S
C794 C792 1.388 . S
C794 C795 1.366 . S
C795 C794 1.366 . S
C795 C796 1.414 . S
C795 C798 1.499 . S
C796 H776 0.950 . S
C796 C795 1.414 . S
C796 C797 1.374 . S
C797 H777 0.950 . S
C797 C793 1.385 . S
C797 C796 1.374 . S
C798 C795 1.499 . S
C798 C799 1.373 . S
C798 C800 1.389 . S
C799 H778 0.950 . S
C799 C798 1.373 . S
C799 C815 1.377 . S
C800 C798 1.389 . S
C800 C801 1.524 . S
C800 C814 1.377 . S
C801 C800 1.524 . S
C801 C802 1.390 1_455 S
C801 C806 1.363 . S
C802 H779 0.951 . S
C802 C801 1.390 1_655 S
C802 C803 1.339 . S
C803 H780 0.950 . S
C803 C802 1.339 . S
C803 C804 1.287 . S
C804 C803 1.287 . S
C804 C805 1.524 1_655 S
C804 H823 0.913 . S
C805 H781 0.950 . S
C805 C804 1.524 1_455 S
C805 C806 1.415 . S
C806 H782 0.950 . S
C806 C801 1.363 . S
C806 C805 1.415 . S
C807 H783 0.951 . S
C807 C808 1.366 . S
C807 C809 1.388 . S
C808 C807 1.366 . S
C808 C812 1.385 . S
C809 H784 0.951 . S
C809 C807 1.388 . S
C809 C810 1.366 . S
C810 C809 1.366 . S
C810 C811 1.414 . S
C810 C813 1.499 . S
C811 H785 0.950 . S
C811 C810 1.414 . S
C811 C812 1.374 . S
C812 H786 0.950 . S
C812 C808 1.385 . S
C812 C811 1.374 . S
C813 C810 1.499 . S
C813 C814 1.373 . S
C813 C815 1.389 . S
C814 H787 0.950 . S
C814 C800 1.377 . S
C814 C813 1.373 . S
C815 C799 1.377 . S
C815 C813 1.389 . S
C815 C816 1.524 . S
C816 C815 1.524 . S
C816 C817 1.397 . S
C816 C821 1.363 . S
C817 H788 0.950 . S
C817 C816 1.397 . S
C817 C818 1.334 . S
C818 H789 0.950 . S
C818 C817 1.334 . S
C818 C819 1.287 . S
C819 C818 1.287 . S
C819 C820 1.524 . S
C819 H822 0.999 . S
C820 H790 0.950 . S
C820 C819 1.524 . S
C820 C821 1.415 . S
C821 H791 0.950 . S
C821 C816 1.363 . S
C821 C820 1.415 . S
H822 C819 0.999 . S
H823 C804 0.913 . S
H824 C842 0.951 . S
H825 C844 0.951 . S
H826 C846 0.950 . S
H827 C847 0.950 . S
H828 C849 0.950 . S
H829 C852 0.950 . S
H830 C853 0.948 1_554 S
H831 C855 0.950 . S
H832 C856 0.950 . S
H833 C857 0.951 . S
H834 C859 0.951 . S
H835 C861 0.950 1_545 S
H836 C862 0.950 . S
H837 C864 0.950 1_545 S
H838 C867 0.950 . S
H839 C868 0.950 . S
H840 C870 0.950 . S
H841 C871 0.950 . S
C842 H824 0.951 . S
C842 C843 1.366 . S
C842 C844 1.388 . S
C843 C842 1.366 . S
C843 C847 1.385 . S
C844 H825 0.951 . S
C844 C842 1.388 . S
C844 C845 1.366 1_554 S
C845 C844 1.366 1_556 S
C845 C846 1.414 . S
C845 C848 1.499 . S
C846 H826 0.950 . S
C846 C845 1.414 . S
C846 C847 1.374 1_556 S
C847 H827 0.950 . S
C847 C843 1.385 . S
C847 C846 1.374 1_554 S
C848 C845 1.499 . S
C848 C849 1.373 . S
C848 C850 1.389 . S
C849 H828 0.950 . S
C849 C848 1.373 . S
C849 C865 1.377 . S
C850 C848 1.389 . S
C850 C851 1.524 1_565 S
C850 C864 1.377 . S
C851 C850 1.524 1_545 S
C851 C852 1.397 . S
C851 C856 1.363 . S
C852 H829 0.950 . S
C852 C851 1.397 . S
C852 C853 1.340 . S
C853 H830 0.948 1_556 S
C853 C852 1.340 . S
C853 C854 1.283 1_556 S
C854 C853 1.283 1_554 S
C854 C855 1.524 . S
C854 H873 0.913 . S
C855 H831 0.950 . S
C855 C854 1.524 . S
C855 C856 1.415 1_554 S
C856 H832 0.950 . S
C856 C851 1.363 . S
C856 C855 1.415 1_556 S
C857 H833 0.951 . S
C857 C858 1.366 . S
C857 C859 1.388 . S
C858 C857 1.366 . S
C858 C862 1.385 1_565 S
C859 H834 0.951 . S
C859 C857 1.388 . S
C859 C860 1.366 . S
C860 C859 1.366 . S
C860 C861 1.414 . S
C860 C863 1.499 . S
C861 H835 0.950 1_565 S
C861 C860 1.414 . S
C861 C862 1.374 1_565 S
C862 H836 0.950 . S
C862 C858 1.385 1_545 S
C862 C861 1.374 1_545 S
C863 C860 1.499 . S
C863 C864 1.373 . S
C863 C865 1.389 . S
C864 H837 0.950 1_565 S
C864 C850 1.377 . S
C864 C863 1.373 . S
C865 C849 1.377 . S
C865 C863 1.389 . S
C865 C866 1.524 . S
C866 C865 1.524 . S
C866 C867 1.397 . S
C866 C871 1.363 . S
C867 H838 0.950 . S
C867 C866 1.397 . S
C867 C868 1.334 . S
C868 H839 0.950 . S
C868 C867 1.334 . S
C868 C869 1.287 . S
C869 C868 1.287 . S
C869 C870 1.524 . S
C869 H872 0.999 . S
C870 H840 0.950 . S
C870 C869 1.524 . S
C870 C871 1.415 . S
C871 H841 0.950 . S
C871 C866 1.363 . S
C871 C870 1.415 . S
H872 C869 0.999 . S
H873 C854 0.913 . S
H874 C892 0.951 . S
H875 C894 0.951 . S
H876 C896 0.950 . S
H877 C897 0.950 . S
H878 C899 0.950 . S
H879 C902 0.950 . S
H880 C903 0.950 1_554 S
H881 C905 0.950 . S
H882 C906 0.950 . S
H883 C907 0.951 . S
H884 C909 0.951 . S
H885 C911 0.950 . S
H886 C912 0.950 . S
H887 C914 0.950 . S
H888 C917 0.950 . S
H889 C918 0.950 . S
H890 C920 0.950 . S
H891 C921 0.950 . S
C892 H874 0.951 . S
C892 C893 1.366 . S
C892 C894 1.388 1_554 S
C893 C892 1.366 . S
C893 C897 1.385 . S
C894 H875 0.951 . S
C894 C892 1.388 1_556 S
C894 C895 1.366 . S
C895 C894 1.366 . S
C895 C896 1.414 1_556 S
C895 C898 1.499 . S
C896 H876 0.950 . S
C896 C895 1.414 1_554 S
C896 C897 1.374 . S
C897 H877 0.950 . S
C897 C893 1.385 . S
C897 C896 1.374 . S
C898 C895 1.499 . S
C898 C899 1.373 . S
C898 C900 1.389 . S
C899 H878 0.950 . S
C899 C898 1.373 . S
C899 C915 1.377 . S
C900 C898 1.389 . S
C900 C901 1.524 . S
C900 C914 1.377 . S
C901 C900 1.524 . S
C901 C902 1.397 . S
C901 C906 1.363 . S
C902 H879 0.950 . S
C902 C901 1.397 . S
C902 C903 1.334 . S
C903 H880 0.950 1_556 S
C903 C902 1.334 . S
C903 C904 1.287 . S
C904 C903 1.287 . S
C904 C905 1.524 . S
C904 H923 0.913 . S
C905 H881 0.950 . S
C905 C904 1.524 . S
C905 C906 1.415 . S
C906 H882 0.950 . S
C906 C901 1.363 . S
C906 C905 1.415 . S
C907 H883 0.951 . S
C907 C908 1.366 . S
C907 C909 1.388 . S
C908 C907 1.366 . S
C908 C912 1.385 . S
C909 H884 0.951 . S
C909 C907 1.388 . S
C909 C910 1.366 . S
C910 C909 1.366 . S
C910 C911 1.414 . S
C910 C913 1.499 . S
C911 H885 0.950 . S
C911 C910 1.414 . S
C911 C912 1.374 . S
C912 H886 0.950 . S
C912 C908 1.385 . S
C912 C911 1.374 . S
C913 C910 1.499 . S
C913 C914 1.373 . S
C913 C915 1.389 . S
C914 H887 0.950 . S
C914 C900 1.377 . S
C914 C913 1.373 . S
C915 C899 1.377 . S
C915 C913 1.389 . S
C915 C916 1.524 . S
C916 C915 1.524 . S
C916 C917 1.397 . S
C916 C921 1.363 . S
C917 H888 0.950 . S
C917 C916 1.397 . S
C917 C918 1.334 . S
C918 H889 0.950 . S
C918 C917 1.334 . S
C918 C919 1.287 . S
C919 C918 1.287 . S
C919 C920 1.524 . S
C919 H922 0.999 . S
C920 H890 0.950 . S
C920 C919 1.524 . S
C920 C921 1.415 . S
C921 H891 0.950 . S
C921 C916 1.363 . S
C921 C920 1.415 . S
H922 C919 0.999 . S
H923 C904 0.913 . S
H924 C942 0.951 . S
H925 C944 0.951 1_556 S
H926 C946 0.950 . S
H927 C947 0.950 . S
H928 C949 0.950 . S
H929 C952 0.950 . S
H930 C953 0.950 . S
H931 C955 0.950 . S
H932 C956 0.950 . S
H933 C957 0.951 . S
H934 C959 0.951 . S
H935 C961 0.950 . S
H936 C962 0.950 . S
H937 C964 0.950 . S
H938 C967 0.950 . S
H939 C968 0.950 . S
H940 C970 0.950 . S
H941 C971 0.950 . S
C942 H924 0.951 . S
C942 C943 1.366 . S
C942 C944 1.388 . S
C943 C942 1.366 . S
C943 C947 1.385 . S
C944 H925 0.951 1_554 S
C944 C942 1.388 . S
C944 C945 1.366 1_554 S
C945 C944 1.366 1_556 S
C945 C946 1.414 1_556 S
C945 C948 1.499 . S
C946 H926 0.950 . S
C946 C945 1.414 1_554 S
C946 C947 1.374 . S
C947 H927 0.950 . S
C947 C943 1.385 . S
C947 C946 1.374 . S
C948 C945 1.499 . S
C948 C949 1.373 . S
C948 C950 1.389 . S
C949 H928 0.950 . S
C949 C948 1.373 . S
C949 C965 1.377 . S
C950 C948 1.389 . S
C950 C951 1.524 . S
C950 C964 1.377 . S
C951 C950 1.524 . S
C951 C952 1.397 1_556 S
C951 C956 1.363 . S
C952 H929 0.950 . S
C952 C951 1.397 1_554 S
C952 C953 1.334 . S
C953 H930 0.950 . S
C953 C952 1.334 . S
C953 C954 1.287 . S
C954 C953 1.287 . S
C954 C955 1.524 . S
C954 H973 0.913 . S
C955 H931 0.950 . S
C955 C954 1.524 . S
C955 C956 1.415 1_554 S
C956 H932 0.950 . S
C956 C951 1.363 . S
C956 C955 1.415 1_556 S
C957 H933 0.951 . S
C957 C958 1.366 . S
C957 C959 1.388 . S
C958 C957 1.366 . S
C958 C962 1.385 . S
C959 H934 0.951 . S
C959 C957 1.388 . S
C959 C960 1.366 . S
C960 C959 1.366 . S
C960 C961 1.414 . S
C960 C963 1.499 . S
C961 H935 0.950 . S
C961 C960 1.414 . S
C961 C962 1.374 . S
C962 H936 0.950 . S
C962 C958 1.385 . S
C962 C961 1.374 . S
C963 C960 1.499 . S
C963 C964 1.373 . S
C963 C965 1.389 . S
C964 H937 0.950 . S
C964 C950 1.377 . S
C964 C963 1.373 . S
C965 C949 1.377 . S
C965 C963 1.389 . S
C965 C966 1.524 . S
C966 C965 1.524 . S
C966 C967 1.397 . S
C966 C971 1.363 . S
C967 H938 0.950 . S
C967 C966 1.397 . S
C967 C968 1.334 . S
C968 H939 0.950 . S
C968 C967 1.334 . S
C968 C969 1.287 . S
C969 C968 1.287 . S
C969 C970 1.524 . S
C969 H972 0.999 . S
C970 H940 0.950 . S
C970 C969 1.524 . S
C970 C971 1.415 . S
C971 H941 0.950 . S
C971 C966 1.363 . S
C971 C970 1.415 . S
H972 C969 0.999 . S
H973 C954 0.913 . S
H974 C992 0.951 . S
H975 C994 0.951 . S
H976 C996 0.950 . S
H977 C997 0.950 . S
H978 C999 0.950 1_455 S
H979 C1002 0.950 . S
H980 C1003 0.950 1_554 S
H981 C1005 0.950 . S
H982 C1006 0.950 . S
H983 C1007 0.951 . S
H984 C1009 0.960 . S
H985 C1011 0.950 . S
H986 C1012 0.950 . S
H987 C1014 0.950 . S
H988 C1017 0.950 . S
H989 C1018 0.950 . S
H990 C1020 0.950 . S
H991 C1021 0.950 . S
C992 H974 0.951 . S
C992 C993 1.366 . S
C992 C994 1.388 1_554 S
C993 C992 1.366 . S
C993 C997 1.385 . S
C994 H975 0.951 . S
C994 C992 1.388 1_556 S
C994 C995 1.366 . S
C995 C994 1.366 . S
C995 C996 1.414 1_556 S
C995 C998 1.499 . S
C996 H976 0.950 . S
C996 C995 1.414 1_554 S
C996 C997 1.374 . S
C997 H977 0.950 . S
C997 C993 1.385 . S
C997 C996 1.374 . S
C998 C995 1.499 . S
C998 C999 1.373 . S
C998 C1000 1.389 . S
C999 H978 0.950 1_655 S
C999 C998 1.373 . S
C999 C1015 1.381 . S
C1000 C998 1.389 . S
C1000 C1001 1.524 . S
C1000 C1014 1.377 . S
C1001 C1000 1.524 . S
C1001 C1002 1.397 . S
C1001 C1006 1.363 . S
C1002 H979 0.950 . S
C1002 C1001 1.397 . S
C1002 C1003 1.334 . S
C1003 H980 0.950 1_556 S
C1003 C1002 1.334 . S
C1003 C1004 1.287 . S
C1004 C1003 1.287 . S
C1004 C1005 1.524 . S
C1004 H1023 0.913 . S
C1005 H981 0.950 . S
C1005 C1004 1.524 . S
C1005 C1006 1.415 . S
C1006 H982 0.950 . S
C1006 C1001 1.363 . S
C1006 C1005 1.415 . S
C1007 H983 0.951 . S
C1007 C1008 1.366 1_455 S
C1007 C1009 1.392 . S
C1008 C1007 1.366 1_655 S
C1008 C1012 1.385 . S
C1009 H984 0.960 . S
C1009 C1007 1.392 . S
C1009 C1010 1.353 1_455 S
C1010 C1009 1.353 1_655 S
C1010 C1011 1.414 . S
C1010 C1013 1.499 . S
C1011 H985 0.950 . S
C1011 C1010 1.414 . S
C1011 C1012 1.374 . S
C1012 H986 0.950 . S
C1012 C1008 1.385 . S
C1012 C1011 1.374 . S
C1013 C1010 1.499 . S
C1013 C1014 1.373 . S
C1013 C1015 1.406 . S
C1014 H987 0.950 . S
C1014 C1000 1.377 . S
C1014 C1013 1.373 . S
C1015 C999 1.381 . S
C1015 C1013 1.406 . S
C1015 C1016 1.503 1_655 S
C1016 C1015 1.503 1_455 S
C1016 C1017 1.397 . S
C1016 C1021 1.363 . S
C1017 H988 0.950 . S
C1017 C1016 1.397 . S
C1017 C1018 1.334 . S
C1018 H989 0.950 . S
C1018 C1017 1.334 . S
C1018 C1019 1.287 . S
C1019 C1018 1.287 . S
C1019 C1020 1.524 . S
C1019 H1022 0.999 . S
C1020 H990 0.950 . S
C1020 C1019 1.524 . S
C1020 C1021 1.415 . S
C1021 H991 0.950 . S
C1021 C1016 1.363 . S
C1021 C1020 1.415 . S
H1022 C1019 0.999 . S
H1023 C1004 0.913 . S
H1024 C1042 0.951 . S
H1025 C1044 0.951 . S
H1026 C1046 0.950 . S
H1027 C1047 0.950 . S
H1028 C1049 0.950 . S
H1029 C1052 0.950 . S
H1030 C1053 0.934 1_455 S
H1031 C1055 0.950 . S
H1032 C1056 0.950 . S
H1033 C1057 0.951 . S
H1034 C1059 0.951 . S
H1035 C1061 0.950 . S
H1036 C1062 0.950 . S
H1037 C1064 0.950 1_655 S
H1038 C1067 0.950 . S
H1039 C1068 0.950 . S
H1040 C1070 0.950 . S
H1041 C1071 0.950 . S
C1042 H1024 0.951 . S
C1042 C1043 1.366 . S
C1042 C1044 1.388 . S
C1043 C1042 1.366 . S
C1043 C1047 1.385 . S
C1044 H1025 0.951 . S
C1044 C1042 1.388 . S
C1044 C1045 1.366 . S
C1045 C1044 1.366 . S
C1045 C1046 1.414 . S
C1045 C1048 1.499 . S
C1046 H1026 0.950 . S
C1046 C1045 1.414 . S
C1046 C1047 1.374 . S
C1047 H1027 0.950 . S
C1047 C1043 1.385 . S
C1047 C1046 1.374 . S
C1048 C1045 1.499 . S
C1048 C1049 1.373 . S
C1048 C1050 1.389 . S
C1049 H1028 0.950 . S
C1049 C1048 1.373 . S
C1049 C1065 1.377 . S
C1050 C1048 1.389 . S
C1050 C1051 1.524 . S
C1050 C1064 1.377 . S
C1051 C1050 1.524 . S
C1051 C1052 1.397 . S
C1051 C1056 1.363 1_455 S
C1052 H1029 0.950 . S
C1052 C1051 1.397 . S
C1052 C1053 1.312 1_455 S
C1053 H1030 0.934 1_655 S
C1053 C1052 1.312 1_655 S
C1053 C1054 1.327 . S
C1054 C1053 1.327 . S
C1054 C1055 1.524 . S
C1054 H1073 0.913 . S
C1055 H1031 0.950 . S
C1055 C1054 1.524 . S
C1055 C1056 1.415 . S
C1056 H1032 0.950 . S
C1056 C1051 1.363 1_655 S
C1056 C1055 1.415 . S
C1057 H1033 0.951 . S
C1057 C1058 1.366 . S
C1057 C1059 1.388 . S
C1058 C1057 1.366 . S
C1058 C1062 1.385 1_455 S
C1059 H1034 0.951 . S
C1059 C1057 1.388 . S
C1059 C1060 1.366 . S
C1060 C1059 1.366 . S
C1060 C1061 1.414 1_455 S
C1060 C1063 1.499 . S
C1061 H1035 0.950 . S
C1061 C1060 1.414 1_655 S
C1061 C1062 1.374 . S
C1062 H1036 0.950 . S
C1062 C1058 1.385 1_655 S
C1062 C1061 1.374 . S
C1063 C1060 1.499 . S
C1063 C1064 1.373 . S
C1063 C1065 1.389 . S
C1064 H1037 0.950 1_455 S
C1064 C1050 1.377 . S
C1064 C1063 1.373 . S
C1065 C1049 1.377 . S
C1065 C1063 1.389 . S
C1065 C1066 1.524 . S
C1066 C1065 1.524 . S
C1066 C1067 1.397 . S
C1066 C1071 1.363 . S
C1067 H1038 0.950 . S
C1067 C1066 1.397 . S
C1067 C1068 1.334 . S
C1068 H1039 0.950 . S
C1068 C1067 1.334 . S
C1068 C1069 1.287 . S
C1069 C1068 1.287 . S
C1069 C1070 1.524 . S
C1069 H1072 0.999 . S
C1070 H1040 0.950 . S
C1070 C1069 1.524 . S
C1070 C1071 1.415 . S
C1071 H1041 0.950 . S
C1071 C1066 1.363 . S
C1071 C1070 1.415 . S
H1072 C1069 0.999 . S
H1073 C1054 0.913 . S
H1074 C1092 0.951 . S
H1075 C1094 0.951 . S
H1076 C1096 0.950 . S
H1077 C1097 0.950 . S
H1078 C1099 0.950 . S
H1079 C1102 0.953 . S
H1080 C1103 0.950 . S
H1081 C1105 0.950 . S
H1082 C1106 0.950 . S
H1083 C1107 0.951 1_565 S
H1084 C1109 0.951 . S
H1085 C1111 0.950 . S
H1086 C1112 0.950 . S
H1087 C1114 0.950 . S
H1088 C1117 0.950 . S
H1089 C1118 0.950 . S
H1090 C1120 0.950 . S
H1091 C1121 0.950 . S
C1092 H1074 0.951 . S
C1092 C1093 1.366 . S
C1092 C1094 1.388 . S
C1093 C1092 1.366 . S
C1093 C1097 1.385 . S
C1094 H1075 0.951 . S
C1094 C1092 1.388 . S
C1094 C1095 1.366 . S
C1095 C1094 1.366 . S
C1095 C1096 1.414 . S
C1095 C1098 1.499 . S
C1096 H1076 0.950 . S
C1096 C1095 1.414 . S
C1096 C1097 1.374 . S
C1097 H1077 0.950 . S
C1097 C1093 1.385 . S
C1097 C1096 1.374 . S
C1098 C1095 1.499 . S
C1098 C1099 1.373 . S
C1098 C1100 1.389 . S
C1099 H1078 0.950 . S
C1099 C1098 1.373 . S
C1099 C1115 1.377 . S
C1100 C1098 1.389 . S
C1100 C1101 1.524 . S
C1100 C1114 1.377 . S
C1101 C1100 1.524 . S
C1101 C1102 1.397 . S
C1101 C1106 1.363 . S
C1102 H1079 0.953 . S
C1102 C1101 1.397 . S
C1102 C1103 1.334 1_545 S
C1103 H1080 0.950 . S
C1103 C1102 1.334 1_565 S
C1103 C1104 1.287 . S
C1104 C1103 1.287 . S
C1104 C1105 1.524 1_565 S
C1104 H1123 0.913 . S
C1105 H1081 0.950 . S
C1105 C1104 1.524 1_545 S
C1105 C1106 1.415 . S
C1106 H1082 0.950 . S
C1106 C1101 1.363 . S
C1106 C1105 1.415 . S
C1107 H1083 0.951 1_545 S
C1107 C1108 1.366 . S
C1107 C1109 1.388 . S
C1108 C1107 1.366 . S
C1108 C1112 1.385 . S
C1109 H1084 0.951 . S
C1109 C1107 1.388 . S
C1109 C1110 1.366 . S
C1110 C1109 1.366 . S
C1110 C1111 1.414 . S
C1110 C1113 1.499 . S
C1111 H1085 0.950 . S
C1111 C1110 1.414 . S
C1111 C1112 1.374 . S
C1112 H1086 0.950 . S
C1112 C1108 1.385 . S
C1112 C1111 1.374 . S
C1113 C1110 1.499 . S
C1113 C1114 1.373 . S
C1113 C1115 1.389 . S
C1114 H1087 0.950 . S
C1114 C1100 1.377 . S
C1114 C1113 1.373 . S
C1115 C1099 1.377 . S
C1115 C1113 1.389 . S
C1115 C1116 1.524 . S
C1116 C1115 1.524 . S
C1116 C1117 1.397 . S
C1116 C1121 1.363 . S
C1117 H1088 0.950 . S
C1117 C1116 1.397 . S
C1117 C1118 1.334 . S
C1118 H1089 0.950 . S
C1118 C1117 1.334 . S
C1118 C1119 1.287 . S
C1119 C1118 1.287 . S
C1119 C1120 1.524 . S
C1119 H1122 0.999 . S
C1120 H1090 0.950 . S
C1120 C1119 1.524 . S
C1120 C1121 1.415 . S
C1121 H1091 0.950 . S
C1121 C1116 1.363 . S
C1121 C1120 1.415 . S
H1122 C1119 0.999 . S
H1123 C1104 0.913 . S
H1124 C1142 0.951 . S
H1125 C1144 0.951 . S
H1126 C1146 0.950 . S
H1127 C1147 0.950 . S
H1128 C1149 0.950 . S
H1129 C1152 0.950 . S
H1130 C1153 0.950 . S
H1131 C1155 0.950 . S
H1132 C1156 0.950 . S
H1133 C1157 0.951 . S
H1134 C1159 0.951 . S
H1135 C1161 0.950 . S
H1136 C1162 0.950 . S
H1137 C1164 0.950 . S
H1138 C1167 0.950 . S
H1139 C1168 0.950 . S
H1140 C1170 0.950 . S
H1141 C1171 0.950 . S
C1142 H1124 0.951 . S
C1142 C1143 1.366 . S
C1142 C1144 1.388 . S
C1143 C1142 1.366 . S
C1143 C1147 1.385 . S
C1144 H1125 0.951 . S
C1144 C1142 1.388 . S
C1144 C1145 1.366 . S
C1145 C1144 1.366 . S
C1145 C1146 1.414 . S
C1145 C1148 1.499 . S
C1146 H1126 0.950 . S
C1146 C1145 1.414 . S
C1146 C1147 1.374 . S
C1147 H1127 0.950 . S
C1147 C1143 1.385 . S
C1147 C1146 1.374 . S
C1148 C1145 1.499 . S
C1148 C1149 1.373 . S
C1148 C1150 1.389 . S
C1149 H1128 0.950 . S
C1149 C1148 1.373 . S
C1149 C1165 1.377 . S
C1150 C1148 1.389 . S
C1150 C1151 1.524 . S
C1150 C1164 1.377 . S
C1151 C1150 1.524 . S
C1151 C1152 1.397 . S
C1151 C1156 1.363 . S
C1152 H1129 0.950 . S
C1152 C1151 1.397 . S
C1152 C1153 1.334 . S
C1153 H1130 0.950 . S
C1153 C1152 1.334 . S
C1153 C1154 1.287 . S
C1154 C1153 1.287 . S
C1154 C1155 1.524 . S
C1154 H1173 0.913 . S
C1155 H1131 0.950 . S
C1155 C1154 1.524 . S
C1155 C1156 1.415 . S
C1156 H1132 0.950 . S
C1156 C1151 1.363 . S
C1156 C1155 1.415 . S
C1157 H1133 0.951 . S
C1157 C1158 1.366 . S
C1157 C1159 1.388 . S
C1158 C1157 1.366 . S
C1158 C1162 1.385 . S
C1159 H1134 0.951 . S
C1159 C1157 1.388 . S
C1159 C1160 1.366 . S
C1160 C1159 1.366 . S
C1160 C1161 1.414 . S
C1160 C1163 1.499 . S
C1161 H1135 0.950 . S
C1161 C1160 1.414 . S
C1161 C1162 1.374 . S
C1162 H1136 0.950 . S
C1162 C1158 1.385 . S
C1162 C1161 1.374 . S
C1163 C1160 1.499 . S
C1163 C1164 1.373 . S
C1163 C1165 1.389 . S
C1164 H1137 0.950 . S
C1164 C1150 1.377 . S
C1164 C1163 1.373 . S
C1165 C1149 1.377 . S
C1165 C1163 1.389 . S
C1165 C1166 1.524 . S
C1166 C1165 1.524 . S
C1166 C1167 1.397 . S
C1166 C1171 1.363 . S
C1167 H1138 0.950 . S
C1167 C1166 1.397 . S
C1167 C1168 1.334 . S
C1168 H1139 0.950 . S
C1168 C1167 1.334 . S
C1168 C1169 1.287 . S
C1169 C1168 1.287 . S
C1169 C1170 1.524 . S
C1169 H1172 0.999 . S
C1170 H1140 0.950 . S
C1170 C1169 1.524 . S
C1170 C1171 1.415 . S
C1171 H1141 0.950 . S
C1171 C1166 1.363 . S
C1171 C1170 1.415 . S
H1172 C1169 0.999 . S
H1173 C1154 0.913 . S
H1174 C1192 0.951 . S
H1175 C1194 0.951 . S
H1176 C1196 0.950 . S
H1177 C1197 0.950 . S
H1178 C1199 0.950 . S
H1179 C1202 0.950 . S
H1180 C1203 0.950 . S
H1181 C1205 0.950 . S
H1182 C1206 0.950 . S
H1183 C1207 0.951 . S
H1184 C1209 0.951 . S
H1185 C1211 0.950 . S
H1186 C1212 0.950 . S
H1187 C1214 0.950 . S
H1188 C1217 0.950 . S
H1189 C1218 0.950 . S
H1190 C1220 0.950 . S
H1191 C1221 0.950 . S
C1192 H1174 0.951 . S
C1192 C1193 1.366 . S
C1192 C1194 1.388 . S
C1193 C1192 1.366 . S
C1193 C1197 1.385 . S
C1194 H1175 0.951 . S
C1194 C1192 1.388 . S
C1194 C1195 1.366 . S
C1195 C1194 1.366 . S
C1195 C1196 1.414 . S
C1195 C1198 1.499 . S
C1196 H1176 0.950 . S
C1196 C1195 1.414 . S
C1196 C1197 1.374 . S
C1197 H1177 0.950 . S
C1197 C1193 1.385 . S
C1197 C1196 1.374 . S
C1198 C1195 1.499 . S
C1198 C1199 1.373 . S
C1198 C1200 1.389 . S
C1199 H1178 0.950 . S
C1199 C1198 1.373 . S
C1199 C1215 1.377 . S
C1200 C1198 1.389 . S
C1200 C1201 1.524 . S
C1200 C1214 1.377 . S
C1201 C1200 1.524 . S
C1201 C1202 1.397 . S
C1201 C1206 1.363 . S
C1202 H1179 0.950 . S
C1202 C1201 1.397 . S
C1202 C1203 1.334 . S
C1203 H1180 0.950 . S
C1203 C1202 1.334 . S
C1203 C1204 1.287 . S
C1204 C1203 1.287 . S
C1204 C1205 1.524 . S
C1204 H1223 0.913 . S
C1205 H1181 0.950 . S
C1205 C1204 1.524 . S
C1205 C1206 1.415 . S
C1206 H1182 0.950 . S
C1206 C1201 1.363 . S
C1206 C1205 1.415 . S
C1207 H1183 0.951 . S
C1207 C1208 1.366 . S
C1207 C1209 1.388 . S
C1208 C1207 1.366 . S
C1208 C1212 1.385 . S
C1209 H1184 0.951 . S
C1209 C1207 1.388 . S
C1209 C1210 1.366 . S
C1210 C1209 1.366 . S
C1210 C1211 1.414 . S
C1210 C1213 1.499 . S
C1211 H1185 0.950 . S
C1211 C1210 1.414 . S
C1211 C1212 1.374 . S
C1212 H1186 0.950 . S
C1212 C1208 1.385 . S
C1212 C1211 1.374 . S
C1213 C1210 1.499 . S
C1213 C1214 1.373 . S
C1213 C1215 1.389 . S
C1214 H1187 0.950 . S
C1214 C1200 1.377 . S
C1214 C1213 1.373 . S
C1215 C1199 1.377 . S
C1215 C1213 1.389 . S
C1215 C1216 1.524 . S
C1216 C1215 1.524 . S
C1216 C1217 1.397 . S
C1216 C1221 1.363 . S
C1217 H1188 0.950 . S
C1217 C1216 1.397 . S
C1217 C1218 1.334 . S
C1218 H1189 0.950 . S
C1218 C1217 1.334 . S
C1218 C1219 1.287 . S
C1219 C1218 1.287 . S
C1219 C1220 1.524 . S
C1219 H1222 0.999 . S
C1220 H1190 0.950 . S
C1220 C1219 1.524 . S
C1220 C1221 1.415 . S
C1221 H1191 0.950 . S
C1221 C1216 1.363 . S
C1221 C1220 1.415 . S
H1222 C1219 0.999 . S
H1223 C1204 0.913 . S
H1224 C1242 0.951 . S
H1225 C1244 0.951 . S
H1226 C1246 0.950 . S
H1227 C1247 0.950 . S
H1228 C1249 0.950 . S
H1229 C1252 0.950 1_554 S
H1230 C1253 0.950 . S
H1231 C1255 0.950 . S
H1232 C1256 0.950 . S
H1233 C1257 0.951 . S
H1234 C1259 0.951 . S
H1235 C1261 0.950 . S
H1236 C1262 0.950 . S
H1237 C1264 0.950 . S
H1238 C1267 0.950 . S
H1239 C1268 0.950 . S
H1240 C1270 0.950 . S
H1241 C1271 0.950 . S
C1242 H1224 0.951 . S
C1242 C1243 1.366 1_556 S
C1242 C1244 1.388 . S
C1243 C1242 1.366 1_554 S
C1243 C1247 1.385 . S
C1244 H1225 0.951 . S
C1244 C1242 1.388 . S
C1244 C1245 1.366 . S
C1245 C1244 1.366 . S
C1245 C1246 1.415 1_556 S
C1245 C1248 1.499 . S
C1246 H1226 0.950 . S
C1246 C1245 1.415 1_554 S
C1246 C1247 1.373 . S
C1247 H1227 0.950 . S
C1247 C1243 1.385 . S
C1247 C1246 1.373 . S
C1248 C1245 1.499 . S
C1248 C1249 1.373 . S
C1248 C1250 1.389 . S
C1249 H1228 0.950 . S
C1249 C1248 1.373 . S
C1249 C1265 1.377 . S
C1250 C1248 1.389 . S
C1250 C1251 1.524 1_655 S
C1250 C1264 1.377 1_655 S
C1251 C1250 1.524 1_455 S
C1251 C1252 1.397 . S
C1251 C1256 1.363 . S
C1252 H1229 0.950 1_556 S
C1252 C1251 1.397 . S
C1252 C1253 1.334 1_556 S
C1253 H1230 0.950 . S
C1253 C1252 1.334 1_554 S
C1253 C1254 1.287 1_554 S
C1254 C1253 1.287 1_556 S
C1254 C1255 1.524 . S
C1254 H1273 0.913 1_556 S
C1255 H1231 0.950 . S
C1255 C1254 1.524 . S
C1255 C1256 1.415 . S
C1256 H1232 0.950 . S
C1256 C1251 1.363 . S
C1256 C1255 1.415 . S
C1257 H1233 0.951 . S
C1257 C1258 1.366 1_655 S
C1257 C1259 1.388 . S
C1258 C1257 1.366 1_455 S
C1258 C1262 1.385 . S
C1259 H1234 0.951 . S
C1259 C1257 1.388 . S
C1259 C1260 1.366 . S
C1260 C1259 1.366 . S
C1260 C1261 1.414 1_655 S
C1260 C1263 1.499 . S
C1261 H1235 0.950 . S
C1261 C1260 1.414 1_455 S
C1261 C1262 1.374 . S
C1262 H1236 0.950 . S
C1262 C1258 1.385 . S
C1262 C1261 1.374 . S
C1263 C1260 1.499 . S
C1263 C1264 1.373 1_655 S
C1263 C1265 1.389 . S
C1264 H1237 0.950 . S
C1264 C1250 1.377 1_455 S
C1264 C1263 1.373 1_455 S
C1265 C1249 1.377 . S
C1265 C1263 1.389 . S
C1265 C1266 1.524 . S
C1266 C1265 1.524 . S
C1266 C1267 1.397 . S
C1266 C1271 1.363 . S
C1267 H1238 0.950 . S
C1267 C1266 1.397 . S
C1267 C1268 1.334 . S
C1268 H1239 0.950 . S
C1268 C1267 1.334 . S
C1268 C1269 1.287 . S
C1269 C1268 1.287 . S
C1269 C1270 1.524 . S
C1269 H1272 0.999 . S
C1270 H1240 0.950 . S
C1270 C1269 1.524 . S
C1270 C1271 1.415 . S
C1271 H1241 0.950 . S
C1271 C1266 1.363 . S
C1271 C1270 1.415 . S
H1272 C1269 0.999 . S
H1273 C1254 0.913 1_554 S
H1274 C1292 0.951 . S
H1275 C1294 0.951 . S
H1276 C1296 0.950 . S
H1277 C1297 0.950 . S
H1278 C1299 0.950 . S
H1279 C1302 0.950 . S
H1280 C1303 0.950 . S
H1281 C1305 0.950 . S
H1282 C1306 0.950 . S
H1283 C1307 0.951 . S
H1284 C1309 0.951 . S
H1285 C1311 0.950 . S
H1286 C1312 0.950 . S
H1287 C1314 0.950 . S
H1288 C1317 0.950 . S
H1289 C1318 0.950 . S
H1290 C1320 0.950 . S
H1291 C1321 0.964 1_554 S
C1292 H1274 0.951 . S
C1292 C1293 1.366 1_556 S
C1292 C1294 1.388 . S
C1293 C1292 1.366 1_554 S
C1293 C1297 1.385 . S
C1294 H1275 0.951 . S
C1294 C1292 1.388 . S
C1294 C1295 1.366 . S
C1295 C1294 1.366 . S
C1295 C1296 1.414 1_556 S
C1295 C1298 1.499 . S
C1296 H1276 0.950 . S
C1296 C1295 1.414 1_554 S
C1296 C1297 1.374 . S
C1297 H1277 0.950 . S
C1297 C1293 1.385 . S
C1297 C1296 1.374 . S
C1298 C1295 1.499 . S
C1298 C1299 1.373 . S
C1298 C1300 1.389 . S
C1299 H1278 0.950 . S
C1299 C1298 1.373 . S
C1299 C1315 1.377 . S
C1300 C1298 1.389 . S
C1300 C1301 1.524 . S
C1300 C1314 1.377 . S
C1301 C1300 1.524 . S
C1301 C1302 1.397 . S
C1301 C1306 1.363 . S
C1302 H1279 0.950 . S
C1302 C1301 1.397 . S
C1302 C1303 1.334 . S
C1303 H1280 0.950 . S
C1303 C1302 1.334 . S
C1303 C1304 1.287 . S
C1304 C1303 1.287 . S
C1304 C1305 1.524 . S
C1304 H1323 0.913 . S
C1305 H1281 0.950 . S
C1305 C1304 1.524 . S
C1305 C1306 1.415 . S
C1306 H1282 0.950 . S
C1306 C1301 1.363 . S
C1306 C1305 1.415 . S
C1307 H1283 0.951 . S
C1307 C1308 1.366 . S
C1307 C1309 1.388 . S
C1308 C1307 1.366 . S
C1308 C1312 1.385 1_545 S
C1309 H1284 0.951 . S
C1309 C1307 1.388 . S
C1309 C1310 1.366 1_545 S
C1310 C1309 1.366 1_565 S
C1310 C1311 1.414 . S
C1310 C1313 1.499 . S
C1311 H1285 0.950 . S
C1311 C1310 1.414 . S
C1311 C1312 1.374 . S
C1312 H1286 0.950 . S
C1312 C1308 1.385 1_565 S
C1312 C1311 1.374 . S
C1313 C1310 1.499 . S
C1313 C1314 1.373 . S
C1313 C1315 1.389 . S
C1314 H1287 0.950 . S
C1314 C1300 1.377 . S
C1314 C1313 1.373 . S
C1315 C1299 1.377 . S
C1315 C1313 1.389 . S
C1315 C1316 1.524 . S
C1316 C1315 1.524 . S
C1316 C1317 1.397 . S
C1316 C1321 1.348 1_565 S
C1317 H1288 0.950 . S
C1317 C1316 1.397 . S
C1317 C1318 1.334 . S
C1318 H1289 0.950 . S
C1318 C1317 1.334 . S
C1318 C1319 1.287 1_556 S
C1319 C1318 1.287 1_554 S
C1319 C1320 1.524 1_565 S
C1319 H1322 0.999 . S
C1320 H1290 0.950 . S
C1320 C1319 1.524 1_545 S
C1320 C1321 1.417 1_554 S
C1321 H1291 0.964 1_556 S
C1321 C1316 1.348 1_545 S
C1321 C1320 1.417 1_556 S
H1322 C1319 0.999 . S
H1323 C1304 0.913 . S
H1324 C1342 0.951 . S
H1325 C1344 0.951 . S
H1326 C1346 0.950 . S
H1327 C1347 0.950 . S
H1328 C1349 0.950 . S
H1329 C1352 0.950 . S
H1330 C1353 0.950 . S
H1331 C1355 0.950 . S
H1332 C1356 0.950 . S
H1333 C1357 0.951 . S
H1334 C1359 0.951 . S
H1335 C1361 0.950 . S
H1336 C1362 0.950 . S
H1337 C1364 0.950 . S
H1338 C1367 0.950 . S
H1339 C1368 0.950 . S
H1340 C1370 0.950 . S
H1341 C1371 0.950 . S
C1342 H1324 0.951 . S
C1342 C1343 1.366 1_556 S
C1342 C1344 1.388 . S
C1343 C1342 1.366 1_554 S
C1343 C1347 1.385 . S
C1344 H1325 0.951 . S
C1344 C1342 1.388 . S
C1344 C1345 1.366 . S
C1345 C1344 1.366 . S
C1345 C1346 1.414 . S
C1345 C1348 1.499 . S
C1346 H1326 0.950 . S
C1346 C1345 1.414 . S
C1346 C1347 1.374 1_556 S
C1347 H1327 0.950 . S
C1347 C1343 1.385 . S
C1347 C1346 1.374 1_554 S
C1348 C1345 1.499 . S
C1348 C1349 1.373 . S
C1348 C1350 1.389 . S
C1349 H1328 0.950 . S
C1349 C1348 1.373 . S
C1349 C1365 1.377 . S
C1350 C1348 1.389 . S
C1350 C1351 1.524 . S
C1350 C1364 1.377 . S
C1351 C1350 1.524 . S
C1351 C1352 1.397 1_556 S
C1351 C1356 1.363 . S
C1352 H1329 0.950 . S
C1352 C1351 1.397 1_554 S
C1352 C1353 1.334 . S
C1353 H1330 0.950 . S
C1353 C1352 1.334 . S
C1353 C1354 1.287 . S
C1354 C1353 1.287 . S
C1354 C1355 1.524 1_554 S
C1354 H1373 0.913 . S
C1355 H1331 0.950 . S
C1355 C1354 1.524 1_556 S
C1355 C1356 1.415 . S
C1356 H1332 0.950 . S
C1356 C1351 1.363 . S
C1356 C1355 1.415 . S
C1357 H1333 0.951 . S
C1357 C1358 1.366 . S
C1357 C1359 1.388 . S
C1358 C1357 1.366 . S
C1358 C1362 1.385 . S
C1359 H1334 0.951 . S
C1359 C1357 1.388 . S
C1359 C1360 1.366 . S
C1360 C1359 1.366 . S
C1360 C1361 1.414 . S
C1360 C1363 1.499 . S
C1361 H1335 0.950 . S
C1361 C1360 1.414 . S
C1361 C1362 1.374 . S
C1362 H1336 0.950 . S
C1362 C1358 1.385 . S
C1362 C1361 1.374 . S
C1363 C1360 1.499 . S
C1363 C1364 1.373 . S
C1363 C1365 1.389 . S
C1364 H1337 0.950 . S
C1364 C1350 1.377 . S
C1364 C1363 1.373 . S
C1365 C1349 1.377 . S
C1365 C1363 1.389 . S
C1365 C1366 1.524 . S
C1366 C1365 1.524 . S
C1366 C1367 1.397 . S
C1366 C1371 1.363 . S
C1367 H1338 0.950 . S
C1367 C1366 1.397 . S
C1367 C1368 1.334 . S
C1368 H1339 0.950 . S
C1368 C1367 1.334 . S
C1368 C1369 1.287 . S
C1369 C1368 1.287 . S
C1369 C1370 1.524 . S
C1369 H1372 0.999 . S
C1370 H1340 0.950 . S
C1370 C1369 1.524 . S
C1370 C1371 1.415 . S
C1371 H1341 0.950 . S
C1371 C1366 1.363 . S
C1371 C1370 1.415 . S
H1372 C1369 0.999 . S
H1373 C1354 0.913 . S
H1374 C1392 0.951 . S
H1375 C1394 0.951 . S
H1376 C1396 0.950 . S
H1377 C1397 0.950 . S
H1378 C1399 0.950 . S
H1379 C1402 0.950 . S
H1380 C1403 0.950 . S
H1381 C1405 0.950 1_554 S
H1382 C1406 0.950 . S
H1383 C1407 0.951 . S
H1384 C1409 0.951 . S
H1385 C1411 0.950 . S
H1386 C1412 0.950 . S
H1387 C1414 0.950 . S
H1388 C1417 0.950 . S
H1389 C1418 0.950 . S
H1390 C1420 0.950 . S
H1391 C1421 0.950 . S
C1392 H1374 0.951 . S
C1392 C1393 1.366 . S
C1392 C1394 1.388 . S
C1393 C1392 1.366 . S
C1393 C1397 1.385 1_554 S
C1394 H1375 0.951 . S
C1394 C1392 1.388 . S
C1394 C1395 1.366 1_554 S
C1395 C1394 1.366 1_556 S
C1395 C1396 1.414 . S
C1395 C1398 1.499 . S
C1396 H1376 0.950 . S
C1396 C1395 1.414 . S
C1396 C1397 1.374 . S
C1397 H1377 0.950 . S
C1397 C1393 1.385 1_556 S
C1397 C1396 1.374 . S
C1398 C1395 1.499 . S
C1398 C1399 1.373 . S
C1398 C1400 1.389 . S
C1399 H1378 0.950 . S
C1399 C1398 1.373 . S
C1399 C1415 1.377 . S
C1400 C1398 1.389 . S
C1400 C1401 1.524 . S
C1400 C1414 1.377 . S
C1401 C1400 1.524 . S
C1401 C1402 1.397 . S
C1401 C1406 1.363 . S
C1402 H1379 0.950 . S
C1402 C1401 1.397 . S
C1402 C1403 1.334 . S
C1403 H1380 0.950 . S
C1403 C1402 1.334 . S
C1403 C1404 1.287 . S
C1404 C1403 1.287 . S
C1404 C1405 1.524 . S
C1404 H1423 0.913 . S
C1405 H1381 0.950 1_556 S
C1405 C1404 1.524 . S
C1405 C1406 1.415 . S
C1406 H1382 0.950 . S
C1406 C1401 1.363 . S
C1406 C1405 1.415 . S
C1407 H1383 0.951 . S
C1407 C1408 1.366 . S
C1407 C1409 1.388 . S
C1408 C1407 1.366 . S
C1408 C1412 1.385 . S
C1409 H1384 0.951 . S
C1409 C1407 1.388 . S
C1409 C1410 1.366 . S
C1410 C1409 1.366 . S
C1410 C1411 1.414 . S
C1410 C1413 1.499 . S
C1411 H1385 0.950 . S
C1411 C1410 1.414 . S
C1411 C1412 1.374 . S
C1412 H1386 0.950 . S
C1412 C1408 1.385 . S
C1412 C1411 1.374 . S
C1413 C1410 1.499 . S
C1413 C1414 1.373 . S
C1413 C1415 1.389 . S
C1414 H1387 0.950 . S
C1414 C1400 1.377 . S
C1414 C1413 1.373 . S
C1415 C1399 1.377 . S
C1415 C1413 1.389 . S
C1415 C1416 1.524 . S
C1416 C1415 1.524 . S
C1416 C1417 1.397 . S
C1416 C1421 1.363 . S
C1417 H1388 0.950 . S
C1417 C1416 1.397 . S
C1417 C1418 1.334 . S
C1418 H1389 0.950 . S
C1418 C1417 1.334 . S
C1418 C1419 1.287 . S
C1419 C1418 1.287 . S
C1419 C1420 1.524 . S
C1419 H1422 0.999 . S
C1420 H1390 0.950 . S
C1420 C1419 1.524 . S
C1420 C1421 1.415 . S
C1421 H1391 0.950 . S
C1421 C1416 1.363 . S
C1421 C1420 1.415 . S
H1422 C1419 0.999 . S
H1423 C1404 0.913 . S
H1424 C1442 0.951 . S
H1425 C1444 0.951 . S
H1426 C1446 0.950 . S
H1427 C1447 0.950 . S
H1428 C1449 0.950 . S
H1429 C1452 0.950 . S
H1430 C1453 0.950 . S
H1431 C1455 0.950 1_655 S
H1432 C1456 0.950 1_655 S
H1433 C1457 0.951 . S
H1434 C1459 0.951 . S
H1435 C1461 0.950 1_655 S
H1436 C1462 0.950 1_655 S
H1437 C1464 0.950 . S
H1438 C1467 0.950 . S
H1439 C1468 0.950 . S
H1440 C1470 0.950 . S
H1441 C1471 0.950 . S
C1442 H1424 0.951 . S
C1442 C1443 1.366 . S
C1442 C1444 1.388 . S
C1443 C1442 1.366 . S
C1443 C1447 1.385 . S
C1444 H1425 0.951 . S
C1444 C1442 1.388 . S
C1444 C1445 1.366 . S
C1445 C1444 1.366 . S
C1445 C1446 1.414 . S
C1445 C1448 1.499 . S
C1446 H1426 0.950 . S
C1446 C1445 1.414 . S
C1446 C1447 1.374 . S
C1447 H1427 0.950 . S
C1447 C1443 1.385 . S
C1447 C1446 1.374 . S
C1448 C1445 1.499 . S
C1448 C1449 1.373 . S
C1448 C1450 1.389 . S
C1449 H1428 0.950 . S
C1449 C1448 1.373 . S
C1449 C1465 1.377 . S
C1450 C1448 1.389 . S
C1450 C1451 1.524 . S
C1450 C1464 1.377 . S
C1451 C1450 1.524 . S
C1451 C1452 1.397 . S
C1451 C1456 1.363 . S
C1452 H1429 0.950 . S
C1452 C1451 1.397 . S
C1452 C1453 1.334 . S
C1453 H1430 0.950 . S
C1453 C1452 1.334 . S
C1453 C1454 1.287 . S
C1454 C1453 1.287 . S
C1454 C1455 1.524 . S
C1454 H1473 0.913 . S
C1455 H1431 0.950 1_455 S
C1455 C1454 1.524 . S
C1455 C1456 1.415 . S
C1456 H1432 0.950 1_455 S
C1456 C1451 1.363 . S
C1456 C1455 1.415 . S
C1457 H1433 0.951 . S
C1457 C1458 1.366 . S
C1457 C1459 1.388 . S
C1458 C1457 1.366 . S
C1458 C1462 1.385 . S
C1459 H1434 0.951 . S
C1459 C1457 1.388 . S
C1459 C1460 1.366 . S
C1460 C1459 1.366 . S
C1460 C1461 1.414 . S
C1460 C1463 1.499 . S
C1461 H1435 0.950 1_455 S
C1461 C1460 1.414 . S
C1461 C1462 1.374 . S
C1462 H1436 0.950 1_455 S
C1462 C1458 1.385 . S
C1462 C1461 1.374 . S
C1463 C1460 1.499 . S
C1463 C1464 1.373 . S
C1463 C1465 1.389 . S
C1464 H1437 0.950 . S
C1464 C1450 1.377 . S
C1464 C1463 1.373 . S
C1465 C1449 1.377 . S
C1465 C1463 1.389 . S
C1465 C1466 1.524 . S
C1466 C1465 1.524 . S
C1466 C1467 1.397 . S
C1466 C1471 1.363 . S
C1467 H1438 0.950 . S
C1467 C1466 1.397 . S
C1467 C1468 1.334 . S
C1468 H1439 0.950 . S
C1468 C1467 1.334 . S
C1468 C1469 1.287 . S
C1469 C1468 1.287 . S
C1469 C1470 1.524 . S
C1469 H1472 0.999 . S
C1470 H1440 0.950 . S
C1470 C1469 1.524 . S
C1470 C1471 1.415 . S
C1471 H1441 0.950 . S
C1471 C1466 1.363 . S
C1471 C1470 1.415 . S
H1472 C1469 0.999 . S
H1473 C1454 0.913 . S
H1474 C1492 0.951 . S
H1475 C1494 0.951 . S
H1476 C1496 0.950 . S
H1477 C1497 0.950 . S
H1478 C1499 0.950 . S
H1479 C1502 0.950 . S
H1480 C1503 0.972 . S
H1481 C1505 0.950 . S
H1482 C1506 0.950 . S
H1483 C1507 0.951 . S
H1484 C1509 0.951 . S
H1485 C1511 0.950 . S
H1486 C1512 0.950 . S
H1487 C1514 0.950 . S
H1488 C1517 0.950 . S
H1489 C1518 0.950 . S
H1490 C1520 0.950 . S
H1491 C1521 0.950 . S
C1492 H1474 0.951 . S
C1492 C1493 1.366 . S
C1492 C1494 1.388 . S
C1493 C1492 1.366 . S
C1493 C1497 1.385 . S
C1494 H1475 0.951 . S
C1494 C1492 1.388 . S
C1494 C1495 1.366 . S
C1495 C1494 1.366 . S
C1495 C1496 1.414 . S
C1495 C1498 1.499 . S
C1496 H1476 0.950 . S
C1496 C1495 1.414 . S
C1496 C1497 1.374 . S
C1497 H1477 0.950 . S
C1497 C1493 1.385 . S
C1497 C1496 1.374 . S
C1498 C1495 1.499 . S
C1498 C1499 1.373 . S
C1498 C1500 1.389 . S
C1499 H1478 0.950 . S
C1499 C1498 1.373 . S
C1499 C1515 1.377 . S
C1500 C1498 1.389 . S
C1500 C1501 1.524 . S
C1500 C1514 1.377 . S
C1501 C1500 1.524 . S
C1501 C1502 1.397 . S
C1501 C1506 1.363 . S
C1502 H1479 0.950 . S
C1502 C1501 1.397 . S
C1502 C1503 1.321 1_545 S
C1503 H1480 0.972 . S
C1503 C1502 1.321 1_565 S
C1503 C1504 1.278 1_565 S
C1504 C1503 1.278 1_545 S
C1504 C1505 1.524 . S
C1504 H1523 0.901 1_545 S
C1505 H1481 0.950 . S
C1505 C1504 1.524 . S
C1505 C1506 1.415 . S
C1506 H1482 0.950 . S
C1506 C1501 1.363 . S
C1506 C1505 1.415 . S
C1507 H1483 0.951 . S
C1507 C1508 1.366 . S
C1507 C1509 1.388 . S
C1508 C1507 1.366 . S
C1508 C1512 1.385 . S
C1509 H1484 0.951 . S
C1509 C1507 1.388 . S
C1509 C1510 1.366 . S
C1510 C1509 1.366 . S
C1510 C1511 1.414 . S
C1510 C1513 1.499 . S
C1511 H1485 0.950 . S
C1511 C1510 1.414 . S
C1511 C1512 1.374 . S
C1512 H1486 0.950 . S
C1512 C1508 1.385 . S
C1512 C1511 1.374 . S
C1513 C1510 1.499 . S
C1513 C1514 1.373 . S
C1513 C1515 1.389 . S
C1514 H1487 0.950 . S
C1514 C1500 1.377 . S
C1514 C1513 1.373 . S
C1515 C1499 1.377 . S
C1515 C1513 1.389 . S
C1515 C1516 1.524 . S
C1516 C1515 1.524 . S
C1516 C1517 1.397 . S
C1516 C1521 1.363 . S
C1517 H1488 0.950 . S
C1517 C1516 1.397 . S
C1517 C1518 1.334 . S
C1518 H1489 0.950 . S
C1518 C1517 1.334 . S
C1518 C1519 1.287 . S
C1519 C1518 1.287 . S
C1519 C1520 1.524 . S
C1519 H1522 0.999 . S
C1520 H1490 0.950 . S
C1520 C1519 1.524 . S
C1520 C1521 1.415 . S
C1521 H1491 0.950 . S
C1521 C1516 1.363 . S
C1521 C1520 1.415 . S
H1522 C1519 0.999 . S
H1523 C1504 0.901 1_565 S
H1524 C1542 0.951 . S
H1525 C1544 0.951 . S
H1526 C1546 0.950 . S
H1527 C1547 0.950 . S
H1528 C1549 0.950 . S
H1529 C1552 0.950 . S
H1530 C1553 0.950 . S
H1531 C1555 0.950 . S
H1532 C1556 0.950 . S
H1533 C1557 0.951 . S
H1534 C1559 0.951 . S
H1535 C1561 0.950 . S
H1536 C1562 0.950 . S
H1537 C1564 0.950 . S
H1538 C1567 0.950 . S
H1539 C1568 0.950 . S
H1540 C1570 0.950 . S
H1541 C1571 0.950 . S
C1542 H1524 0.951 . S
C1542 C1543 1.366 . S
C1542 C1544 1.388 . S
C1543 C1542 1.366 . S
C1543 C1547 1.385 . S
C1544 H1525 0.951 . S
C1544 C1542 1.388 . S
C1544 C1545 1.366 . S
C1545 C1544 1.366 . S
C1545 C1546 1.414 . S
C1545 C1548 1.499 . S
C1546 H1526 0.950 . S
C1546 C1545 1.414 . S
C1546 C1547 1.374 . S
C1547 H1527 0.950 . S
C1547 C1543 1.385 . S
C1547 C1546 1.374 . S
C1548 C1545 1.499 . S
C1548 C1549 1.373 . S
C1548 C1550 1.389 . S
C1549 H1528 0.950 . S
C1549 C1548 1.373 . S
C1549 C1565 1.377 . S
C1550 C1548 1.389 . S
C1550 C1551 1.524 . S
C1550 C1564 1.377 . S
C1551 C1550 1.524 . S
C1551 C1552 1.397 . S
C1551 C1556 1.363 . S
C1552 H1529 0.950 . S
C1552 C1551 1.397 . S
C1552 C1553 1.334 . S
C1553 H1530 0.950 . S
C1553 C1552 1.334 . S
C1553 C1554 1.287 . S
C1554 C1553 1.287 . S
C1554 C1555 1.524 . S
C1554 H1573 0.913 . S
C1555 H1531 0.950 . S
C1555 C1554 1.524 . S
C1555 C1556 1.415 . S
C1556 H1532 0.950 . S
C1556 C1551 1.363 . S
C1556 C1555 1.415 . S
C1557 H1533 0.951 . S
C1557 C1558 1.366 . S
C1557 C1559 1.388 . S
C1558 C1557 1.366 . S
C1558 C1562 1.385 . S
C1559 H1534 0.951 . S
C1559 C1557 1.388 . S
C1559 C1560 1.366 . S
C1560 C1559 1.366 . S
C1560 C1561 1.414 . S
C1560 C1563 1.499 . S
C1561 H1535 0.950 . S
C1561 C1560 1.414 . S
C1561 C1562 1.374 . S
C1562 H1536 0.950 . S
C1562 C1558 1.385 . S
C1562 C1561 1.374 . S
C1563 C1560 1.499 . S
C1563 C1564 1.373 . S
C1563 C1565 1.389 . S
C1564 H1537 0.950 . S
C1564 C1550 1.377 . S
C1564 C1563 1.373 . S
C1565 C1549 1.377 . S
C1565 C1563 1.389 . S
C1565 C1566 1.524 . S
C1566 C1565 1.524 . S
C1566 C1567 1.397 . S
C1566 C1571 1.363 . S
C1567 H1538 0.950 . S
C1567 C1566 1.397 . S
C1567 C1568 1.334 . S
C1568 H1539 0.950 . S
C1568 C1567 1.334 . S
C1568 C1569 1.287 . S
C1569 C1568 1.287 . S
C1569 C1570 1.524 . S
C1569 H1572 0.999 . S
C1570 H1540 0.950 . S
C1570 C1569 1.524 . S
C1570 C1571 1.415 . S
C1571 H1541 0.950 . S
C1571 C1566 1.363 . S
C1571 C1570 1.415 . S
H1572 C1569 0.999 . S
H1573 C1554 0.913 . S
H1574 C1592 0.951 . S
H1575 C1594 0.951 . S
H1576 C1596 0.950 . S
H1577 C1597 0.950 . S
H1578 C1599 0.950 . S
H1579 C1602 0.950 . S
H1580 C1603 0.950 . S
H1581 C1605 0.950 . S
H1582 C1606 0.950 . S
H1583 C1607 0.951 . S
H1584 C1609 0.951 . S
H1585 C1611 0.950 . S
H1586 C1612 0.950 . S
H1587 C1614 0.950 . S
H1588 C1617 0.950 . S
H1589 C1618 0.950 . S
H1590 C1620 0.950 . S
H1591 C1621 0.950 . S
C1592 H1574 0.951 . S
C1592 C1593 1.366 . S
C1592 C1594 1.388 . S
C1593 C1592 1.366 . S
C1593 C1597 1.385 . S
C1594 H1575 0.951 . S
C1594 C1592 1.388 . S
C1594 C1595 1.366 . S
C1595 C1594 1.366 . S
C1595 C1596 1.414 . S
C1595 C1598 1.499 . S
C1596 H1576 0.950 . S
C1596 C1595 1.414 . S
C1596 C1597 1.374 . S
C1597 H1577 0.950 . S
C1597 C1593 1.385 . S
C1597 C1596 1.374 . S
C1598 C1595 1.499 . S
C1598 C1599 1.373 . S
C1598 C1600 1.389 . S
C1599 H1578 0.950 . S
C1599 C1598 1.373 . S
C1599 C1615 1.377 . S
C1600 C1598 1.389 . S
C1600 C1601 1.524 . S
C1600 C1614 1.377 . S
C1601 C1600 1.524 . S
C1601 C1602 1.397 . S
C1601 C1606 1.363 . S
C1602 H1579 0.950 . S
C1602 C1601 1.397 . S
C1602 C1603 1.334 . S
C1603 H1580 0.950 . S
C1603 C1602 1.334 . S
C1603 C1604 1.287 . S
C1604 C1603 1.287 . S
C1604 C1605 1.524 . S
C1604 H1623 0.913 . S
C1605 H1581 0.950 . S
C1605 C1604 1.524 . S
C1605 C1606 1.415 . S
C1606 H1582 0.950 . S
C1606 C1601 1.363 . S
C1606 C1605 1.415 . S
C1607 H1583 0.951 . S
C1607 C1608 1.366 . S
C1607 C1609 1.388 . S
C1608 C1607 1.366 . S
C1608 C1612 1.385 . S
C1609 H1584 0.951 . S
C1609 C1607 1.388 . S
C1609 C1610 1.366 . S
C1610 C1609 1.366 . S
C1610 C1611 1.414 . S
C1610 C1613 1.499 . S
C1611 H1585 0.950 . S
C1611 C1610 1.414 . S
C1611 C1612 1.374 . S
C1612 H1586 0.950 . S
C1612 C1608 1.385 . S
C1612 C1611 1.374 . S
C1613 C1610 1.499 . S
C1613 C1614 1.373 . S
C1613 C1615 1.389 . S
C1614 H1587 0.950 . S
C1614 C1600 1.377 . S
C1614 C1613 1.373 . S
C1615 C1599 1.377 . S
C1615 C1613 1.389 . S
C1615 C1616 1.524 . S
C1616 C1615 1.524 . S
C1616 C1617 1.397 . S
C1616 C1621 1.363 . S
C1617 H1588 0.950 . S
C1617 C1616 1.397 . S
C1617 C1618 1.334 . S
C1618 H1589 0.950 . S
C1618 C1617 1.334 . S
C1618 C1619 1.287 . S
C1619 C1618 1.287 . S
C1619 C1620 1.524 . S
C1619 H1622 0.999 . S
C1620 H1590 0.950 . S
C1620 C1619 1.524 . S
C1620 C1621 1.415 . S
C1621 H1591 0.950 . S
C1621 C1616 1.363 . S
C1621 C1620 1.415 . S
H1622 C1619 0.999 . S
H1623 C1604 0.913 . S
H1624 C1642 0.951 . S
H1625 C1644 0.951 . S
H1626 C1646 0.950 . S
H1627 C1647 0.950 . S
H1628 C1649 0.950 . S
H1629 C1652 0.950 . S
H1630 C1653 0.950 . S
H1631 C1655 0.950 . S
H1632 C1656 0.950 . S
H1633 C1657 0.951 . S
H1634 C1659 0.951 . S
H1635 C1661 0.950 . S
H1636 C1662 0.950 . S
H1637 C1664 0.950 . S
H1638 C1667 0.950 . S
H1639 C1668 0.950 . S
H1640 C1670 0.950 . S
H1641 C1671 0.950 . S
C1642 H1624 0.951 . S
C1642 C1643 1.366 . S
C1642 C1644 1.388 . S
C1643 C1642 1.366 . S
C1643 C1647 1.385 . S
C1644 H1625 0.951 . S
C1644 C1642 1.388 . S
C1644 C1645 1.366 . S
C1645 C1644 1.366 . S
C1645 C1646 1.414 . S
C1645 C1648 1.499 . S
C1646 H1626 0.950 . S
C1646 C1645 1.414 . S
C1646 C1647 1.374 . S
C1647 H1627 0.950 . S
C1647 C1643 1.385 . S
C1647 C1646 1.374 . S
C1648 C1645 1.499 . S
C1648 C1649 1.373 . S
C1648 C1650 1.389 . S
C1649 H1628 0.950 . S
C1649 C1648 1.373 . S
C1649 C1665 1.377 . S
C1650 C1648 1.389 . S
C1650 C1651 1.524 . S
C1650 C1664 1.377 . S
C1651 C1650 1.524 . S
C1651 C1652 1.397 1_655 S
C1651 C1656 1.363 . S
C1652 H1629 0.950 . S
C1652 C1651 1.397 1_455 S
C1652 C1653 1.334 . S
C1653 H1630 0.950 . S
C1653 C1652 1.334 . S
C1653 C1654 1.287 . S
C1654 C1653 1.287 . S
C1654 C1655 1.524 . S
C1654 H1673 0.913 . S
C1655 H1631 0.950 . S
C1655 C1654 1.524 . S
C1655 C1656 1.415 1_455 S
C1656 H1632 0.950 . S
C1656 C1651 1.363 . S
C1656 C1655 1.415 1_655 S
C1657 H1633 0.951 . S
C1657 C1658 1.366 . S
C1657 C1659 1.388 . S
C1658 C1657 1.366 . S
C1658 C1662 1.385 . S
C1659 H1634 0.951 . S
C1659 C1657 1.388 . S
C1659 C1660 1.366 . S
C1660 C1659 1.366 . S
C1660 C1661 1.414 . S
C1660 C1663 1.499 . S
C1661 H1635 0.950 . S
C1661 C1660 1.414 . S
C1661 C1662 1.374 . S
C1662 H1636 0.950 . S
C1662 C1658 1.385 . S
C1662 C1661 1.374 . S
C1663 C1660 1.499 . S
C1663 C1664 1.373 . S
C1663 C1665 1.389 . S
C1664 H1637 0.950 . S
C1664 C1650 1.377 . S
C1664 C1663 1.373 . S
C1665 C1649 1.377 . S
C1665 C1663 1.389 . S
C1665 C1666 1.524 . S
C1666 C1665 1.524 . S
C1666 C1667 1.397 . S
C1666 C1671 1.363 . S
C1667 H1638 0.950 . S
C1667 C1666 1.397 . S
C1667 C1668 1.334 . S
C1668 H1639 0.950 . S
C1668 C1667 1.334 . S
C1668 C1669 1.287 . S
C1669 C1668 1.287 . S
C1669 C1670 1.524 . S
C1669 H1672 0.999 . S
C1670 H1640 0.950 . S
C1670 C1669 1.524 . S
C1670 C1671 1.415 . S
C1671 H1641 0.950 . S
C1671 C1666 1.363 . S
C1671 C1670 1.415 . S
H1672 C1669 0.999 . S
H1673 C1654 0.913 . S
H1674 C1692 0.951 . S
H1675 C1694 0.951 . S
H1676 C1696 0.950 . S
H1677 C1697 0.950 . S
H1678 C1699 0.950 1_545 S
H1679 C1702 0.950 . S
H1680 C1703 0.950 . S
H1681 C1705 0.950 . S
H1682 C1706 0.950 . S
H1683 C1707 0.951 . S
H1684 C1709 0.939 1_545 S
H1685 C1711 0.950 . S
H1686 C1712 0.950 . S
H1687 C1714 0.950 . S
H1688 C1717 0.950 . S
H1689 C1718 0.950 . S
H1690 C1720 0.950 . S
H1691 C1721 0.950 . S
C1692 H1674 0.951 . S
C1692 C1693 1.366 . S
C1692 C1694 1.388 . S
C1693 C1692 1.366 . S
C1693 C1697 1.385 . S
C1694 H1675 0.951 . S
C1694 C1692 1.388 . S
C1694 C1695 1.366 . S
C1695 C1694 1.366 . S
C1695 C1696 1.414 . S
C1695 C1698 1.499 . S
C1696 H1676 0.950 . S
C1696 C1695 1.414 . S
C1696 C1697 1.374 . S
C1697 H1677 0.950 . S
C1697 C1693 1.385 . S
C1697 C1696 1.374 . S
C1698 C1695 1.499 . S
C1698 C1699 1.373 . S
C1698 C1700 1.389 . S
C1699 H1678 0.950 1_565 S
C1699 C1698 1.373 . S
C1699 C1715 1.377 . S
C1700 C1698 1.389 . S
C1700 C1701 1.524 . S
C1700 C1714 1.377 . S
C1701 C1700 1.524 . S
C1701 C1702 1.397 . S
C1701 C1706 1.363 . S
C1702 H1679 0.950 . S
C1702 C1701 1.397 . S
C1702 C1703 1.334 . S
C1703 H1680 0.950 . S
C1703 C1702 1.334 . S
C1703 C1704 1.287 . S
C1704 C1703 1.287 . S
C1704 C1705 1.524 . S
C1704 H1723 0.913 . S
C1705 H1681 0.950 . S
C1705 C1704 1.524 . S
C1705 C1706 1.415 . S
C1706 H1682 0.950 . S
C1706 C1701 1.363 . S
C1706 C1705 1.415 . S
C1707 H1683 0.951 . S
C1707 C1708 1.366 1_545 S
C1707 C1709 1.385 1_545 S
C1708 C1707 1.366 1_565 S
C1708 C1712 1.385 . S
C1709 H1684 0.939 1_565 S
C1709 C1707 1.385 1_565 S
C1709 C1710 1.380 . S
C1710 C1709 1.380 . S
C1710 C1711 1.414 . S
C1710 C1713 1.499 . S
C1711 H1685 0.950 . S
C1711 C1710 1.414 . S
C1711 C1712 1.374 . S
C1712 H1686 0.950 . S
C1712 C1708 1.385 . S
C1712 C1711 1.374 . S
C1713 C1710 1.499 . S
C1713 C1714 1.373 . S
C1713 C1715 1.389 . S
C1714 H1687 0.950 . S
C1714 C1700 1.377 . S
C1714 C1713 1.373 . S
C1715 C1699 1.377 . S
C1715 C1713 1.389 . S
C1715 C1716 1.524 1_565 S
C1716 C1715 1.524 1_545 S
C1716 C1717 1.397 . S
C1716 C1721 1.363 . S
C1717 H1688 0.950 . S
C1717 C1716 1.397 . S
C1717 C1718 1.334 . S
C1718 H1689 0.950 . S
C1718 C1717 1.334 . S
C1718 C1719 1.287 . S
C1719 C1718 1.287 . S
C1719 C1720 1.524 . S
C1719 H1722 0.999 . S
C1720 H1690 0.950 . S
C1720 C1719 1.524 . S
C1720 C1721 1.415 . S
C1721 H1691 0.950 . S
C1721 C1716 1.363 . S
C1721 C1720 1.415 . S
H1722 C1719 0.999 . S
H1723 C1704 0.913 . S
H1724 C1742 0.951 . S
H1725 C1744 0.951 . S
H1726 C1746 0.950 . S
H1727 C1747 0.950 . S
H1728 C1749 0.950 . S
H1729 C1752 0.950 . S
H1730 C1753 0.950 . S
H1731 C1755 0.950 . S
H1732 C1756 0.950 . S
H1733 C1757 0.951 . S
H1734 C1759 0.951 . S
H1735 C1761 0.950 . S
H1736 C1762 0.950 . S
H1737 C1764 0.950 . S
H1738 C1767 0.950 . S
H1739 C1768 0.950 . S
H1740 C1770 0.950 . S
H1741 C1771 0.950 . S
C1742 H1724 0.951 . S
C1742 C1743 1.366 . S
C1742 C1744 1.388 . S
C1743 C1742 1.366 . S
C1743 C1747 1.385 . S
C1744 H1725 0.951 . S
C1744 C1742 1.388 . S
C1744 C1745 1.366 . S
C1745 C1744 1.366 . S
C1745 C1746 1.414 . S
C1745 C1748 1.499 . S
C1746 H1726 0.950 . S
C1746 C1745 1.414 . S
C1746 C1747 1.374 . S
C1747 H1727 0.950 . S
C1747 C1743 1.385 . S
C1747 C1746 1.374 . S
C1748 C1745 1.499 . S
C1748 C1749 1.373 . S
C1748 C1750 1.389 . S
C1749 H1728 0.950 . S
C1749 C1748 1.373 . S
C1749 C1765 1.377 . S
C1750 C1748 1.389 . S
C1750 C1751 1.524 . S
C1750 C1764 1.377 . S
C1751 C1750 1.524 . S
C1751 C1752 1.397 . S
C1751 C1756 1.363 . S
C1752 H1729 0.950 . S
C1752 C1751 1.397 . S
C1752 C1753 1.334 . S
C1753 H1730 0.950 . S
C1753 C1752 1.334 . S
C1753 C1754 1.287 . S
C1754 C1753 1.287 . S
C1754 C1755 1.524 . S
C1754 H1773 0.913 . S
C1755 H1731 0.950 . S
C1755 C1754 1.524 . S
C1755 C1756 1.415 . S
C1756 H1732 0.950 . S
C1756 C1751 1.363 . S
C1756 C1755 1.415 . S
C1757 H1733 0.951 . S
C1757 C1758 1.366 . S
C1757 C1759 1.388 . S
C1758 C1757 1.366 . S
C1758 C1762 1.385 . S
C1759 H1734 0.951 . S
C1759 C1757 1.388 . S
C1759 C1760 1.366 . S
C1760 C1759 1.366 . S
C1760 C1761 1.414 . S
C1760 C1763 1.499 . S
C1761 H1735 0.950 . S
C1761 C1760 1.414 . S
C1761 C1762 1.374 . S
C1762 H1736 0.950 . S
C1762 C1758 1.385 . S
C1762 C1761 1.374 . S
C1763 C1760 1.499 . S
C1763 C1764 1.373 . S
C1763 C1765 1.389 . S
C1764 H1737 0.950 . S
C1764 C1750 1.377 . S
C1764 C1763 1.373 . S
C1765 C1749 1.377 . S
C1765 C1763 1.389 . S
C1765 C1766 1.524 . S
C1766 C1765 1.524 . S
C1766 C1767 1.397 . S
C1766 C1771 1.363 . S
C1767 H1738 0.950 . S
C1767 C1766 1.397 . S
C1767 C1768 1.334 . S
C1768 H1739 0.950 . S
C1768 C1767 1.334 . S
C1768 C1769 1.287 . S
C1769 C1768 1.287 . S
C1769 C1770 1.524 . S
C1769 H1772 0.999 . S
C1770 H1740 0.950 . S
C1770 C1769 1.524 . S
C1770 C1771 1.415 . S
C1771 H1741 0.950 . S
C1771 C1766 1.363 . S
C1771 C1770 1.415 . S
H1772 C1769 0.999 . S
H1773 C1754 0.913 . S
H1774 C1792 0.951 . S
H1775 C1794 0.951 . S
H1776 C1796 0.950 . S
H1777 C1797 0.950 . S
H1778 C1799 0.950 . S
H1779 C1802 0.950 . S
H1780 C1803 0.950 . S
H1781 C1805 0.950 . S
H1782 C1806 0.950 . S
H1783 C1807 0.951 . S
H1784 C1809 0.951 . S
H1785 C1811 0.950 . S
H1786 C1812 0.950 . S
H1787 C1814 0.950 . S
H1788 C1817 0.950 . S
H1789 C1818 0.950 . S
H1790 C1820 0.950 . S
H1791 C1821 0.950 . S
C1792 H1774 0.951 . S
C1792 C1793 1.366 . S
C1792 C1794 1.388 . S
C1793 C1792 1.366 . S
C1793 C1797 1.385 . S
C1794 H1775 0.951 . S
C1794 C1792 1.388 . S
C1794 C1795 1.366 . S
C1795 C1794 1.366 . S
C1795 C1796 1.414 . S
C1795 C1798 1.499 . S
C1796 H1776 0.950 . S
C1796 C1795 1.414 . S
C1796 C1797 1.374 . S
C1797 H1777 0.950 . S
C1797 C1793 1.385 . S
C1797 C1796 1.374 . S
C1798 C1795 1.499 . S
C1798 C1799 1.373 . S
C1798 C1800 1.389 . S
C1799 H1778 0.950 . S
C1799 C1798 1.373 . S
C1799 C1815 1.377 . S
C1800 C1798 1.389 . S
C1800 C1801 1.524 . S
C1800 C1814 1.377 . S
C1801 C1800 1.524 . S
C1801 C1802 1.397 . S
C1801 C1806 1.363 . S
C1802 H1779 0.950 . S
C1802 C1801 1.397 . S
C1802 C1803 1.334 . S
C1803 H1780 0.950 . S
C1803 C1802 1.334 . S
C1803 C1804 1.287 . S
C1804 C1803 1.287 . S
C1804 C1805 1.524 . S
C1804 H1823 0.913 . S
C1805 H1781 0.950 . S
C1805 C1804 1.524 . S
C1805 C1806 1.415 . S
C1806 H1782 0.950 . S
C1806 C1801 1.363 . S
C1806 C1805 1.415 . S
C1807 H1783 0.951 . S
C1807 C1808 1.366 . S
C1807 C1809 1.388 . S
C1808 C1807 1.366 . S
C1808 C1812 1.385 . S
C1809 H1784 0.951 . S
C1809 C1807 1.388 . S
C1809 C1810 1.366 . S
C1810 C1809 1.366 . S
C1810 C1811 1.414 . S
C1810 C1813 1.499 . S
C1811 H1785 0.950 . S
C1811 C1810 1.414 . S
C1811 C1812 1.374 . S
C1812 H1786 0.950 . S
C1812 C1808 1.385 . S
C1812 C1811 1.374 . S
C1813 C1810 1.499 . S
C1813 C1814 1.373 . S
C1813 C1815 1.389 . S
C1814 H1787 0.950 . S
C1814 C1800 1.377 . S
C1814 C1813 1.373 . S
C1815 C1799 1.377 . S
C1815 C1813 1.389 . S
C1815 C1816 1.524 . S
C1816 C1815 1.524 . S
C1816 C1817 1.397 . S
C1816 C1821 1.363 . S
C1817 H1788 0.950 . S
C1817 C1816 1.397 . S
C1817 C1818 1.334 . S
C1818 H1789 0.950 . S
C1818 C1817 1.334 . S
C1818 C1819 1.287 . S
C1819 C1818 1.287 . S
C1819 C1820 1.524 . S
C1819 H1822 0.999 . S
C1820 H1790 0.950 . S
C1820 C1819 1.524 . S
C1820 C1821 1.415 . S
C1821 H1791 0.950 . S
C1821 C1816 1.363 . S
C1821 C1820 1.415 . S
H1822 C1819 0.999 . S
H1823 C1804 0.913 . S
C643 C241 2.049 . S
C658 C351 2.179 . S
C708 C428 2.203 . S
C693 C277 2.088 . S
C758 C519 2.171 . S
C743 C169 2.040 . S
C808 C603 2.168 . S
C793 C205 2.038 . S
C858 C362 2.179 1_565 S
C843 C97 2.021 . S
C893 C133 2.117 . S
C908 C439 2.203 . S
C943 C25 2.011 . S
C958 C530 2.171 . S
C993 C61 2.010 . S
C1008 C614 2.168 1_655 S
C1058 C346 0.426 1_455 S
C1043 C211 0.283 . S
C1108 C441 0.524 . S
C1093 C247 0.268 . S
C1158 C514 0.421 . S
C1143 C253 0.348 . S
C1193 C175 0.272 . S
C1208 C598 0.424 . S
C1243 C67 0.381 . S
C1258 C357 0.427 . S
C1308 C430 0.527 . S
C1293 C103 0.373 . S
C1358 C525 0.422 . S
C1343 C109 0.265 . S
C1393 C31 0.372 . S
C1408 C609 0.426 . S
C1443 C181 2.441 . S
C1458 C355 2.645 . S
C1493 C217 2.425 . S
C1508 C446 2.650 . S
C1558 C523 2.664 . S
C1543 C283 2.375 . S
C1608 C607 2.657 . S
C1593 C145 2.452 . S
C1643 C37 2.422 . S
C1658 C344 2.644 . S
C1708 C435 2.651 . S
C1693 C73 2.408 . S
C1758 C512 2.666 . S
C1743 C139 2.402 . S
C1793 C1 2.435 . S
C1808 C596 2.658 . S
