# Generated by pormake.
# Topology nom, (4,4)-cn, num edge types: 1
# Building blocks:
#     Node 0, Type 0, BuildingBlock: NAWXER_clean_linker_0, # of connection points: 4
#     Node 1, Type 0, BuildingBlock: NAWXER_clean_linker_0, # of connection points: 4
#     Node 2, Type 0, BuildingBlock: NAWXER_clean_linker_0, # of connection points: 4
#     Node 3, Type 0, BuildingBlock: NAWXER_clean_linker_0, # of connection points: 4
#     Node 4, Type 0, BuildingBlock: NAWXER_clean_linker_0, # of connection points: 4
#     Node 5, Type 0, BuildingBlock: NAWXER_clean_linker_0, # of connection points: 4
#     Node 6, Type 1, BuildingBlock: UXUYUI_clean_sbu_0, # of connection points: 4
#     Node 7, Type 1, BuildingBlock: UXUYUI_clean_sbu_0, # of connection points: 4
#     Node 8, Type 1, BuildingBlock: UXUYUI_clean_sbu_0, # of connection points: 4
#     Node 9, Type 1, BuildingBlock: UXUYUI_clean_sbu_0, # of connection points: 4
#     Node 10, Type 1, BuildingBlock: UXUYUI_clean_sbu_0, # of connection points: 4
#     Node 11, Type 1, BuildingBlock: UXUYUI_clean_sbu_0, # of connection points: 4
#     Edge 12, Type (0, 1), BuildingBlock: MIFKUJ_clean_linker_0, # of connection points: 2
#     Edge 13, Type (0, 1), BuildingBlock: MIFKUJ_clean_linker_0, # of connection points: 2
#     Edge 14, Type (0, 1), BuildingBlock: MIFKUJ_clean_linker_0, # of connection points: 2
#     Edge 15, Type (0, 1), BuildingBlock: MIFKUJ_clean_linker_0, # of connection points: 2
#     Edge 16, Type (0, 1), BuildingBlock: MIFKUJ_clean_linker_0, # of connection points: 2
#     Edge 17, Type (0, 1), BuildingBlock: MIFKUJ_clean_linker_0, # of connection points: 2
#     Edge 18, Type (0, 1), BuildingBlock: MIFKUJ_clean_linker_0, # of connection points: 2
#     Edge 19, Type (0, 1), BuildingBlock: MIFKUJ_clean_linker_0, # of connection points: 2
#     Edge 20, Type (0, 1), BuildingBlock: MIFKUJ_clean_linker_0, # of connection points: 2
#     Edge 21, Type (0, 1), BuildingBlock: MIFKUJ_clean_linker_0, # of connection points: 2
#     Edge 22, Type (0, 1), BuildingBlock: MIFKUJ_clean_linker_0, # of connection points: 2
#     Edge 23, Type (0, 1), BuildingBlock: MIFKUJ_clean_linker_0, # of connection points: 2
#     Edge 24, Type (0, 1), BuildingBlock: MIFKUJ_clean_linker_0, # of connection points: 2
#     Edge 25, Type (0, 1), BuildingBlock: MIFKUJ_clean_linker_0, # of connection points: 2
#     Edge 26, Type (0, 1), BuildingBlock: MIFKUJ_clean_linker_0, # of connection points: 2
#     Edge 27, Type (0, 1), BuildingBlock: MIFKUJ_clean_linker_0, # of connection points: 2
#     Edge 28, Type (0, 1), BuildingBlock: MIFKUJ_clean_linker_0, # of connection points: 2
#     Edge 29, Type (0, 1), BuildingBlock: MIFKUJ_clean_linker_0, # of connection points: 2
#     Edge 30, Type (0, 1), BuildingBlock: MIFKUJ_clean_linker_0, # of connection points: 2
#     Edge 31, Type (0, 1), BuildingBlock: MIFKUJ_clean_linker_0, # of connection points: 2
#     Edge 32, Type (0, 1), BuildingBlock: MIFKUJ_clean_linker_0, # of connection points: 2
#     Edge 33, Type (0, 1), BuildingBlock: MIFKUJ_clean_linker_0, # of connection points: 2
#     Edge 34, Type (0, 1), BuildingBlock: MIFKUJ_clean_linker_0, # of connection points: 2
#     Edge 35, Type (0, 1), BuildingBlock: MIFKUJ_clean_linker_0, # of connection points: 2
# Relax obj value: 0.041
# Max RMSD: 0.144
# Mean RMSD: 0.123
data_MOF--net-nom--node1-UXUYUI_clean_sbu_0--node2-NAWXER_clean_linker_0--edge1-MIFKUJ_clean_linker_0
_symmetry_space_group_name_H-M    P1
_symmetry_Int_Tables_number       1
_symmetry_cell_setting            triclinic
loop_
_symmetry_equiv_pos_as_xyz
'x, y, z'
_cell_length_a     75.040222
_cell_length_b     75.0453
_cell_length_c     83.468323
_cell_angle_alpha  89.978633
_cell_angle_beta   90.009991
_cell_angle_gamma 120.00556
loop_
_atom_site_label
_atom_site_type_symbol
_atom_site_fract_x
_atom_site_fract_y
_atom_site_fract_z
_atom_type_partial_charge
C0 C 0.94697 0.4975 0.33787 0.0
C1 C 0.93892 0.48353 0.3507 0.0
C2 C 0.96668 0.50393 0.33205 0.0
C3 C 0.97866 0.49615 0.33863 0.0
C4 C 0.95092 0.47576 0.35731 0.0
C5 C 0.97064 0.48209 0.35137 0.0
C6 C 0.00016 0.50417 0.33327 0.0
C7 C 0.96117 0.4721 0.29055 0.0
C8 C 0.9641 0.48467 0.27716 0.0
C9 C 0.97479 0.47952 0.30349 0.0
C10 C 0.99143 0.49981 0.30346 0.0
C11 C 0.98101 0.50483 0.27704 0.0
C12 C 0.99454 0.51229 0.29003 0.0
C13 C 0.00619 0.50784 0.317 0.0
C14 C 0.09878 0.54767 0.31914 0.0
C15 C 0.1038 0.56468 0.30917 0.0
C16 C 0.07855 0.53503 0.3244 0.0
C17 C 0.06303 0.53926 0.31987 0.0
C18 C 0.08814 0.56876 0.30464 0.0
C19 C 0.06797 0.5561 0.30984 0.0
C20 C 0.04143 0.52608 0.32498 0.0
C21 C 0.07663 0.55518 0.37075 0.0
C22 C 0.07705 0.54058 0.38112 0.0
C23 C 0.06339 0.54889 0.35755 0.0
C24 C 0.05026 0.52789 0.3545 0.0
C25 C 0.06394 0.51953 0.37785 0.0
C26 C 0.05053 0.51328 0.36478 0.0
C27 C 0.03545 0.52104 0.34112 0.0
H28 H 0.9381 0.50364 0.33237 0.0
H29 H 0.97271 0.51536 0.32262 0.0
H30 H 0.94532 0.46522 0.36736 0.0
H31 H 0.97972 0.47616 0.35684 0.0
H32 H 0.94827 0.45653 0.29109 0.0
H33 H 0.97236 0.46933 0.31347 0.0
H34 H 0.98398 0.51481 0.2668 0.0
H35 H 0.00741 0.52789 0.2896 0.0
H36 H 0.11041 0.54391 0.32265 0.0
H37 H 0.07499 0.52182 0.33183 0.0
H38 H 0.09149 0.58191 0.29721 0.0
H39 H 0.05622 0.55964 0.30618 0.0
H40 H 0.08617 0.57151 0.37301 0.0
H41 H 0.06312 0.56042 0.3499 0.0
H42 H 0.06405 0.50781 0.38535 0.0
H43 H 0.04043 0.49699 0.36263 0.0
N44 N 0.01505 0.51048 0.34468 0.0
N45 N 0.02658 0.51906 0.31353 0.0
C46 C 0.47088 0.94627 0.50216 0.0
C47 C 0.47732 0.93894 0.51511 0.0
C48 C 0.48299 0.96648 0.49684 0.0
C49 C 0.50213 0.97962 0.50402 0.0
C50 C 0.49624 0.95213 0.52253 0.0
C51 C 0.50855 0.97229 0.517 0.0
C52 C 0.5145 0.00146 0.49902 0.0
C53 C 0.51105 0.96493 0.45542 0.0
C54 C 0.49996 0.9668 0.44258 0.0
C55 C 0.51664 0.97824 0.46854 0.0
C56 C 0.51113 0.99357 0.46911 0.0
C57 C 0.49476 0.98238 0.44308 0.0
C58 C 0.50041 0.99571 0.45617 0.0
C59 C 0.51708 0.0079 0.48285 0.0
C60 C 0.56767 0.10059 0.48642 0.0
C61 C 0.5555 0.10543 0.47651 0.0
C62 C 0.56053 0.08026 0.49126 0.0
C63 C 0.54106 0.06451 0.48634 0.0
C64 C 0.53626 0.0895 0.47134 0.0
C65 C 0.52917 0.06927 0.47615 0.0
C66 C 0.53286 0.0429 0.49133 0.0
C67 C 0.54002 0.07935 0.53626 0.0
C68 C 0.55212 0.07721 0.54812 0.0
C69 C 0.53314 0.06616 0.52303 0.0
C70 C 0.53871 0.05095 0.52122 0.0
C71 C 0.55726 0.06169 0.54647 0.0
C72 C 0.5506 0.04869 0.53316 0.0
C73 C 0.53142 0.03657 0.50746 0.0
H74 H 0.45613 0.93655 0.49649 0.0
H75 H 0.47708 0.97193 0.48735 0.0
H76 H 0.50149 0.94682 0.53257 0.0
H77 H 0.52306 0.98221 0.52293 0.0
H78 H 0.51522 0.95304 0.45541 0.0
H79 H 0.52535 0.97659 0.4782 0.0
H80 H 0.48652 0.98443 0.43325 0.0
H81 H 0.4962 0.00758 0.45626 0.0
H82 H 0.58257 0.11255 0.4906 0.0
H83 H 0.57015 0.07686 0.49885 0.0
H84 H 0.52671 0.09266 0.46343 0.0
H85 H 0.51421 0.05731 0.47205 0.0
H86 H 0.53553 0.09094 0.53739 0.0
H87 H 0.5233 0.06772 0.51433 0.0
H88 H 0.56663 0.05975 0.55541 0.0
H89 H 0.55487 0.03692 0.53213 0.0
N90 N 0.52218 0.01609 0.51065 0.0
N91 N 0.52576 0.02831 0.47968 0.0
C92 C 0.57508 0.51499 0.62223 0.0
C93 C 0.5631 0.50692 0.60834 0.0
C94 C 0.5672 0.52009 0.63553 0.0
C95 C 0.547 0.51673 0.63533 0.0
C96 C 0.54305 0.50386 0.60806 0.0
C97 C 0.53509 0.50872 0.62141 0.0
C98 C 0.53852 0.52261 0.6491 0.0
C99 C 0.5491 0.47317 0.669 0.0
C100 C 0.56227 0.47855 0.68232 0.0
C101 C 0.54276 0.48657 0.66323 0.0
C102 C 0.54985 0.50591 0.67038 0.0
C103 C 0.5694 0.49794 0.68946 0.0
C104 C 0.56319 0.51144 0.68357 0.0
C105 C 0.54166 0.51936 0.66531 0.0
C106 C 0.48867 0.54243 0.70292 0.0
C107 C 0.50285 0.55744 0.71351 0.0
C108 C 0.49551 0.53575 0.6899 0.0
C109 C 0.51664 0.54393 0.68724 0.0
C110 C 0.52403 0.56548 0.71078 0.0
C111 C 0.53083 0.55863 0.69786 0.0
C112 C 0.5241 0.53693 0.67364 0.0
C113 C 0.4954 0.5727 0.65419 0.0
C114 C 0.47959 0.56151 0.64308 0.0
C115 C 0.50883 0.56574 0.65874 0.0
C116 C 0.50633 0.54721 0.65254 0.0
C117 C 0.47758 0.54336 0.63652 0.0
C118 C 0.49082 0.53631 0.64119 0.0
C119 C 0.51969 0.53888 0.6575 0.0
H120 H 0.5907 0.51778 0.62267 0.0
H121 H 0.57703 0.52694 0.64586 0.0
H122 H 0.53343 0.49753 0.59755 0.0
H123 H 0.51954 0.50612 0.62087 0.0
H124 H 0.54346 0.45846 0.6631 0.0
H125 H 0.53187 0.48152 0.65342 0.0
H126 H 0.57928 0.50247 0.69989 0.0
H127 H 0.56858 0.5261 0.68949 0.0
H128 H 0.47227 0.53557 0.70482 0.0
H129 H 0.48432 0.5241 0.68197 0.0
H130 H 0.53541 0.57726 0.71851 0.0
H131 H 0.5472 0.56506 0.696 0.0
H132 H 0.49748 0.58691 0.65924 0.0
H133 H 0.52113 0.57486 0.66706 0.0
H134 H 0.46544 0.53434 0.62803 0.0
H135 H 0.48865 0.52206 0.63615 0.0
N136 N 0.52729 0.53185 0.64589 0.0
N137 N 0.53474 0.5271 0.67692 0.0
C138 C 0.94566 0.47234 0.82081 0.0
C139 C 0.93705 0.47754 0.80795 0.0
C140 C 0.96573 0.48585 0.82585 0.0
C141 C 0.97749 0.50507 0.81837 0.0
C142 C 0.94889 0.49666 0.80032 0.0
C143 C 0.96896 0.51028 0.80547 0.0
C144 C 0.99922 0.51885 0.82304 0.0
C145 C 0.96165 0.51487 0.86602 0.0
C146 C 0.96512 0.50611 0.87973 0.0
C147 C 0.97487 0.52038 0.85284 0.0
C148 C 0.99164 0.51695 0.85299 0.0
C149 C 0.9822 0.50314 0.87996 0.0
C150 C 0.99533 0.50854 0.86676 0.0
C151 C 0.00588 0.52276 0.83915 0.0
C152 C 0.09889 0.57384 0.83328 0.0
C153 C 0.10399 0.56245 0.84385 0.0
C154 C 0.07834 0.56675 0.82912 0.0
C155 C 0.06261 0.548 0.83527 0.0
C156 C 0.08805 0.54423 0.85055 0.0
C157 C 0.06763 0.53711 0.84631 0.0
C158 C 0.04084 0.53923 0.83041 0.0
C159 C 0.07716 0.54487 0.78579 0.0
C160 C 0.07514 0.55686 0.77371 0.0
C161 C 0.06375 0.53794 0.79888 0.0
C162 C 0.04839 0.54331 0.8004 0.0
C163 C 0.05923 0.56153 0.77502 0.0
C164 C 0.04601 0.55481 0.78821 0.0
C165 C 0.03421 0.53647 0.81427 0.0
H166 H 0.9371 0.45752 0.82666 0.0
H167 H 0.97219 0.48102 0.83536 0.0
H168 H 0.94263 0.50107 0.79039 0.0
H169 H 0.97785 0.52487 0.79935 0.0
H170 H 0.94861 0.5173 0.86539 0.0
H171 H 0.972 0.52742 0.84257 0.0
H172 H 0.98559 0.49684 0.89044 0.0
H173 H 0.00831 0.506 0.86727 0.0
H174 H 0.11078 0.58796 0.82794 0.0
H175 H 0.07478 0.57573 0.82091 0.0
H176 H 0.09136 0.53537 0.85907 0.0
H177 H 0.05574 0.52278 0.85141 0.0
H178 H 0.08927 0.54103 0.78525 0.0
H179 H 0.06547 0.52848 0.80785 0.0
H180 H 0.05684 0.57026 0.76579 0.0
H181 H 0.03399 0.55878 0.78897 0.0
N182 N 0.01365 0.52629 0.81124 0.0
N183 N 0.0264 0.53242 0.84217 0.0
C184 C 0.49929 0.94652 0.98884 0.0
C185 C 0.48526 0.93851 0.97606 0.0
C186 C 0.50606 0.96638 0.99449 0.0
C187 C 0.49866 0.97857 0.98771 0.0
C188 C 0.47777 0.95068 0.96931 0.0
C189 C 0.48451 0.97058 0.97503 0.0
C190 C 0.50718 0.00024 0.9928 0.0
C191 C 0.47323 0.96264 0.03566 0.0
C192 C 0.48597 0.96415 0.04855 0.0
C193 C 0.48118 0.97629 0.02276 0.0
C194 C 0.50201 0.99171 0.02252 0.0
C195 C 0.50677 0.9797 0.04834 0.0
C196 C 0.51466 0.99346 0.03551 0.0
C197 C 0.51053 0.00641 0.00902 0.0
C198 C 0.5525 0.09939 0.00517 0.0
C199 C 0.56946 0.10429 0.01514 0.0
C200 C 0.53904 0.07896 0.00072 0.0
C201 C 0.54248 0.06317 0.00604 0.0
C202 C 0.57229 0.08829 0.02095 0.0
C203 C 0.55891 0.06797 0.01647 0.0
C204 C 0.52931 0.04157 0.0009 0.0
C205 C 0.55949 0.07897 0.95656 0.0
C206 C 0.54539 0.07745 0.94476 0.0
C207 C 0.55301 0.06527 0.96948 0.0
C208 C 0.53221 0.05008 0.97107 0.0
C209 C 0.5247 0.06179 0.94616 0.0
C210 C 0.51821 0.04826 0.95916 0.0
C211 C 0.52492 0.03546 0.98467 0.0
H212 H 0.50523 0.93751 0.99441 0.0
H213 H 0.51754 0.97237 0.00389 0.0
H214 H 0.46716 0.94506 0.95931 0.0
H215 H 0.47885 0.97982 0.96943 0.0
H216 H 0.45716 0.95077 0.03548 0.0
H217 H 0.47101 0.9749 0.01303 0.0
H218 H 0.51687 0.98137 0.05821 0.0
H219 H 0.53073 0.00535 0.03564 0.0
H220 H 0.5499 0.11137 0.00051 0.0
H221 H 0.52614 0.07555 0.99297 0.0
H222 H 0.58491 0.09148 0.02895 0.0
H223 H 0.5617 0.05599 0.0209 0.0
H224 H 0.57551 0.09086 0.95594 0.0
H225 H 0.56427 0.06657 0.97821 0.0
H226 H 0.51351 0.05981 0.93711 0.0
H227 H 0.50217 0.03641 0.95997 0.0
N228 N 0.51412 0.01501 0.98127 0.0
N229 N 0.52181 0.0268 0.01242 0.0
C230 C 0.49909 0.57408 0.16516 0.0
C231 C 0.48631 0.56982 0.17862 0.0
C232 C 0.50481 0.55998 0.15998 0.0
C233 C 0.49746 0.54103 0.16787 0.0
C234 C 0.47896 0.55084 0.18652 0.0
C235 C 0.48455 0.53663 0.18122 0.0
C236 C 0.50493 0.52684 0.16325 0.0
C237 C 0.46998 0.52978 0.12096 0.0
C238 C 0.4817 0.53825 0.10698 0.0
C239 C 0.47813 0.52448 0.13396 0.0
C240 C 0.4983 0.52785 0.13337 0.0
C241 C 0.50168 0.54105 0.10627 0.0
C242 C 0.50985 0.53586 0.11931 0.0
C243 C 0.50726 0.52252 0.14714 0.0
C244 C 0.55112 0.4732 0.15377 0.0
C245 C 0.56716 0.4844 0.1428 0.0
C246 C 0.53733 0.4799 0.1578 0.0
C247 C 0.53957 0.49812 0.15115 0.0
C248 C 0.56871 0.50208 0.13564 0.0
C249 C 0.55507 0.50884 0.13977 0.0
C250 C 0.52618 0.5065 0.15587 0.0
C251 C 0.55825 0.50472 0.20139 0.0
C252 C 0.54421 0.48991 0.21218 0.0
C253 C 0.55124 0.51109 0.18827 0.0
C254 C 0.53007 0.50279 0.18571 0.0
C255 C 0.52299 0.48175 0.20953 0.0
C256 C 0.51603 0.4883 0.19652 0.0
C257 C 0.52239 0.50936 0.17197 0.0
H258 H 0.50488 0.58843 0.15869 0.0
H259 H 0.51541 0.56418 0.15003 0.0
H260 H 0.46936 0.54719 0.19707 0.0
H261 H 0.47899 0.52229 0.18769 0.0
H262 H 0.45458 0.52749 0.12195 0.0
H263 H 0.46863 0.51774 0.14447 0.0
H264 H 0.51098 0.54714 0.09559 0.0
H265 H 0.52534 0.53833 0.11846 0.0
H266 H 0.54946 0.45949 0.15949 0.0
H267 H 0.52508 0.47095 0.16621 0.0
H268 H 0.58051 0.51077 0.12683 0.0
H269 H 0.55694 0.52277 0.1343 0.0
H270 H 0.57468 0.51164 0.20319 0.0
H271 H 0.56232 0.52256 0.18017 0.0
H272 H 0.5117 0.47009 0.21738 0.0
H273 H 0.49962 0.48177 0.19473 0.0
N274 N 0.5121 0.51959 0.17505 0.0
N275 N 0.51824 0.51297 0.14409 0.0
Li276 Li 0.63953 0.40993 0.42514 0.0
Li277 Li 0.63447 0.37885 0.41349 0.0
Li278 Li 0.66638 0.41044 0.40908 0.0
Li279 Li 0.63387 0.40396 0.3953 0.0
C280 C 0.65798 0.39849 0.44558 0.0
N281 N 0.66243 0.40415 0.47836 0.0
C282 C 0.6447 0.38279 0.45595 0.0
C283 C 0.67359 0.41701 0.45189 0.0
C284 C 0.6472 0.38596 0.47248 0.0
C285 C 0.67555 0.41959 0.46849 0.0
C286 C 0.59557 0.372 0.41337 0.0
C287 C 0.56395 0.34858 0.39985 0.0
N288 N 0.55689 0.33735 0.41354 0.0
C289 C 0.58797 0.36025 0.42732 0.0
C290 C 0.58346 0.36616 0.39952 0.0
C291 C 0.5684 0.34277 0.42715 0.0
C292 C 0.64285 0.44305 0.44395 0.0
N293 N 0.63387 0.42222 0.44302 0.0
C294 C 0.6171 0.41833 0.46817 0.0
C295 C 0.62096 0.40985 0.45468 0.0
C296 C 0.6263 0.43977 0.46954 0.0
C297 C 0.63919 0.45221 0.45716 0.0
H298 H 0.65287 0.45256 0.43445 0.0
H299 H 0.61379 0.39337 0.45359 0.0
C300 C 0.63743 0.34606 0.42586 0.0
N301 N 0.62477 0.35007 0.41682 0.0
C302 C 0.63239 0.32586 0.42909 0.0
C303 C 0.60161 0.31404 0.41318 0.0
C304 C 0.60735 0.33454 0.41015 0.0
C305 C 0.61417 0.30953 0.42284 0.0
H306 H 0.65158 0.35862 0.43055 0.0
H307 H 0.59801 0.33797 0.40233 0.0
C308 C 0.67121 0.44721 0.40239 0.0
N309 N 0.70519 0.48335 0.39238 0.0
C310 C 0.6727 0.45372 0.3865 0.0
C311 C 0.68692 0.45918 0.41322 0.0
C312 C 0.69002 0.47202 0.38167 0.0
C313 C 0.704 0.47736 0.40791 0.0
C314 C 0.64874 0.37238 0.38674 0.0
C315 C 0.66414 0.36781 0.39059 0.0
C316 C 0.63215 0.35881 0.3772 0.0
C317 C 0.66262 0.34961 0.38488 0.0
C318 C 0.63121 0.34077 0.37171 0.0
N319 N 0.64632 0.33657 0.37564 0.0
C320 C 0.7058 0.41776 0.41741 0.0
C321 C 0.70382 0.43032 0.39178 0.0
C322 C 0.72638 0.42358 0.41485 0.0
N323 N 0.69502 0.42121 0.40594 0.0
C324 C 0.72445 0.43664 0.3888 0.0
C325 C 0.73589 0.43305 0.40036 0.0
H326 H 0.69826 0.40992 0.42834 0.0
H327 H 0.69467 0.43215 0.38263 0.0
C328 C 0.61256 0.41973 0.37827 0.0
N329 N 0.62315 0.40953 0.37664 0.0
C330 C 0.60552 0.4253 0.36473 0.0
C331 C 0.6202 0.40949 0.34815 0.0
C332 C 0.62707 0.40435 0.362 0.0
C333 C 0.60939 0.42027 0.34938 0.0
H334 H 0.60994 0.42387 0.39009 0.0
H335 H 0.63582 0.39652 0.36107 0.0
O336 O 0.65558 0.39582 0.42933 0.0
O337 O 0.61457 0.38933 0.41331 0.0
O338 O 0.65447 0.42924 0.40731 0.0
O339 O 0.64965 0.38982 0.39261 0.0
H340 H 0.63235 0.36845 0.4513 0.0
H341 H 0.68401 0.4293 0.44405 0.0
H342 H 0.63695 0.374 0.48064 0.0
H343 H 0.6875 0.43389 0.47353 0.0
H344 H 0.55444 0.34386 0.38922 0.0
H345 H 0.59722 0.36433 0.43806 0.0
H346 H 0.58907 0.37504 0.38862 0.0
H347 H 0.56239 0.33345 0.43783 0.0
H348 H 0.60681 0.40821 0.47735 0.0
H349 H 0.64657 0.46882 0.4578 0.0
H350 H 0.6425 0.32308 0.43662 0.0
H351 H 0.58764 0.30185 0.40786 0.0
H352 H 0.66071 0.4447 0.37795 0.0
H353 H 0.68599 0.45442 0.42556 0.0
H354 H 0.69142 0.47719 0.3694 0.0
H355 H 0.71632 0.48671 0.41615 0.0
H356 H 0.677 0.37809 0.39806 0.0
H357 H 0.61996 0.362 0.3743 0.0
H358 H 0.67436 0.3458 0.38784 0.0
H359 H 0.6184 0.33005 0.3644 0.0
H360 H 0.73471 0.42053 0.42403 0.0
H361 H 0.73115 0.44355 0.37736 0.0
H362 H 0.59759 0.43391 0.36629 0.0
H363 H 0.62336 0.40509 0.3366 0.0
Li364 Li 0.25394 0.64015 0.59289 0.0
Li365 Li 0.27936 0.63266 0.58121 0.0
Li366 Li 0.28137 0.66562 0.57615 0.0
Li367 Li 0.25436 0.63483 0.56364 0.0
C368 C 0.28972 0.66899 0.60862 0.0
N369 N 0.30145 0.69876 0.63206 0.0
C370 C 0.30649 0.67358 0.61852 0.0
C371 C 0.2789 0.67952 0.61063 0.0
C372 C 0.31218 0.68869 0.63031 0.0
C373 C 0.28507 0.69452 0.62255 0.0
C374 C 0.24028 0.59446 0.58285 0.0
C375 C 0.22607 0.56057 0.57131 0.0
N376 N 0.22214 0.55228 0.58627 0.0
C377 C 0.23579 0.58556 0.5981 0.0
C378 C 0.23512 0.58184 0.56933 0.0
C379 C 0.22675 0.56423 0.59958 0.0
C380 C 0.21939 0.6357 0.61019 0.0
N381 N 0.23705 0.63489 0.61116 0.0
C382 C 0.23039 0.62448 0.63856 0.0
C383 C 0.24285 0.62967 0.62499 0.0
C384 C 0.21187 0.62485 0.6379 0.0
C385 C 0.20653 0.63081 0.62354 0.0
H386 H 0.21517 0.63984 0.59898 0.0
H387 H 0.25702 0.6292 0.62537 0.0
C388 C 0.31441 0.62857 0.57798 0.0
N389 N 0.2961 0.62082 0.58575 0.0
C390 C 0.32829 0.62208 0.58205 0.0
C391 C 0.30445 0.60004 0.60233 0.0
C392 C 0.29096 0.60688 0.59779 0.0
C393 C 0.32347 0.60779 0.59449 0.0
H394 H 0.31859 0.64034 0.56896 0.0
H395 H 0.27675 0.60162 0.60425 0.0
C396 C 0.24815 0.66825 0.5641 0.0
N397 N 0.24119 0.69118 0.54167 0.0
C398 C 0.25992 0.67481 0.55008 0.0
C399 C 0.23288 0.67339 0.56671 0.0
C400 C 0.25616 0.68638 0.53889 0.0
C401 C 0.22959 0.68499 0.55523 0.0
C402 C 0.28975 0.63987 0.54766 0.0
C403 C 0.30178 0.65298 0.53532 0.0
C404 C 0.28307 0.61887 0.54675 0.0
C405 C 0.30673 0.64477 0.52217 0.0
C406 C 0.28836 0.61126 0.53341 0.0
N407 N 0.29997 0.62425 0.52149 0.0
C408 C 0.31876 0.69805 0.56617 0.0
C409 C 0.29643 0.7091 0.57648 0.0
C410 C 0.33351 0.71823 0.5624 0.0
N411 N 0.30059 0.69387 0.57288 0.0
C412 C 0.31089 0.72959 0.57308 0.0
C413 C 0.32959 0.73427 0.56574 0.0
H414 H 0.32167 0.68561 0.56357 0.0
H415 H 0.28179 0.70531 0.58176 0.0
C416 C 0.21644 0.61145 0.54795 0.0
N417 N 0.23691 0.62402 0.54533 0.0
C418 C 0.20274 0.60381 0.53505 0.0
C419 C 0.23147 0.62208 0.51702 0.0
C420 C 0.24454 0.62952 0.53024 0.0
C421 C 0.2102 0.60914 0.51929 0.0
H422 H 0.21074 0.60759 0.56009 0.0
H423 H 0.26072 0.63998 0.5284 0.0
O424 O 0.28407 0.65427 0.59701 0.0
O425 O 0.24878 0.6153 0.58117 0.0
O426 O 0.25146 0.65684 0.57526 0.0
O427 O 0.2847 0.64771 0.56056 0.0
H428 H 0.31502 0.66555 0.6171 0.0
H429 H 0.2659 0.6762 0.60307 0.0
H430 H 0.32514 0.69242 0.63806 0.0
H431 H 0.27685 0.7028 0.62422 0.0
H432 H 0.22209 0.55064 0.56094 0.0
H433 H 0.2394 0.59502 0.60869 0.0
H434 H 0.23792 0.58834 0.55741 0.0
H435 H 0.22337 0.55718 0.61132 0.0
H436 H 0.23517 0.62021 0.64945 0.0
H437 H 0.1923 0.63112 0.62252 0.0
H438 H 0.34299 0.62882 0.57596 0.0
H439 H 0.30018 0.58904 0.61202 0.0
H440 H 0.27186 0.67108 0.54785 0.0
H441 H 0.22366 0.66845 0.57751 0.0
H442 H 0.26514 0.69154 0.528 0.0
H443 H 0.21781 0.68907 0.55709 0.0
H444 H 0.30706 0.66929 0.53584 0.0
H445 H 0.27417 0.60863 0.55633 0.0
H446 H 0.31594 0.65472 0.5125 0.0
H447 H 0.2833 0.59503 0.53257 0.0
H448 H 0.34786 0.72127 0.55693 0.0
H449 H 0.30728 0.74156 0.57573 0.0
H450 H 0.18646 0.5942 0.53746 0.0
H451 H 0.23804 0.62644 0.50514 0.0
Li452 Li 0.66527 0.27697 0.74785 0.0
Li453 Li 0.63349 0.2518 0.76103 0.0
Li454 Li 0.6371 0.25261 0.73149 0.0
Li455 Li 0.63389 0.2795 0.74486 0.0
C456 C 0.66777 0.24202 0.7494 0.0
N457 N 0.69924 0.23322 0.75249 0.0
C458 C 0.67287 0.23775 0.76446 0.0
C459 C 0.67839 0.24137 0.73586 0.0
C460 C 0.68892 0.23347 0.76579 0.0
C461 C 0.69432 0.23701 0.73768 0.0
C462 C 0.64193 0.28773 0.77727 0.0
C463 C 0.61317 0.28384 0.79289 0.0
N464 N 0.62637 0.29971 0.80241 0.0
C465 C 0.65521 0.30398 0.78719 0.0
C466 C 0.62074 0.27755 0.78012 0.0
C467 C 0.64704 0.30981 0.79985 0.0
C468 C 0.70572 0.309 0.74092 0.0
N469 N 0.6941 0.29336 0.75118 0.0
C470 C 0.72273 0.30399 0.76882 0.0
C471 C 0.70213 0.29069 0.76496 0.0
C472 C 0.73508 0.32055 0.75861 0.0
C473 C 0.72635 0.32279 0.74438 0.0
H474 H 0.69878 0.31135 0.73039 0.0
H475 H 0.69235 0.27868 0.77324 0.0
C476 C 0.6048 0.21755 0.77948 0.0
N477 N 0.62323 0.23531 0.77973 0.0
C478 C 0.59764 0.2052 0.79316 0.0
C479 C 0.62863 0.22966 0.80703 0.0
C480 C 0.63507 0.24162 0.79315 0.0
C481 C 0.60973 0.21115 0.80712 0.0
H482 H 0.59581 0.21285 0.7686 0.0
H483 H 0.64968 0.25584 0.79298 0.0
C484 C 0.66033 0.28682 0.71278 0.0
N485 N 0.67237 0.29439 0.68104 0.0
C486 C 0.65225 0.29587 0.70263 0.0
C487 C 0.67479 0.28198 0.70684 0.0
C488 C 0.65846 0.29948 0.68661 0.0
C489 C 0.68061 0.28582 0.69075 0.0
C490 C 0.59653 0.2442 0.73466 0.0
C491 C 0.59794 0.25704 0.72201 0.0
C492 C 0.5781 0.2258 0.7372 0.0
C493 C 0.58093 0.25127 0.71209 0.0
C494 C 0.56141 0.22055 0.72702 0.0
N495 N 0.56316 0.23329 0.71478 0.0
C496 C 0.63031 0.21774 0.71384 0.0
C497 C 0.62375 0.24083 0.69912 0.0
C498 C 0.625 0.20462 0.70064 0.0
N499 N 0.62975 0.23553 0.71283 0.0
C500 C 0.61819 0.22813 0.68567 0.0
C501 C 0.61881 0.20974 0.68628 0.0
H502 H 0.63487 0.21372 0.72493 0.0
H503 H 0.62309 0.25484 0.69858 0.0
C504 C 0.63937 0.31791 0.73769 0.0
N505 N 0.62508 0.29916 0.74333 0.0
C506 C 0.63429 0.33319 0.7352 0.0
C507 C 0.59999 0.30981 0.74494 0.0
C508 C 0.60574 0.2949 0.74717 0.0
C509 C 0.61431 0.32922 0.7387 0.0
H510 H 0.65466 0.32082 0.7348 0.0
H511 H 0.5947 0.27986 0.75174 0.0
O512 O 0.65209 0.24626 0.74787 0.0
O513 O 0.64976 0.2819 0.76483 0.0
O514 O 0.65429 0.283 0.72848 0.0
O515 O 0.61302 0.24953 0.74454 0.0
H516 H 0.66467 0.23791 0.77505 0.0
H517 H 0.67425 0.24397 0.72405 0.0
H518 H 0.69315 0.23033 0.77741 0.0
H519 H 0.70271 0.23654 0.7273 0.0
H520 H 0.59681 0.27611 0.79524 0.0
H521 H 0.67166 0.31199 0.78513 0.0
H522 H 0.61023 0.26492 0.77258 0.0
H523 H 0.65713 0.32237 0.80763 0.0
H524 H 0.72878 0.30155 0.77987 0.0
H525 H 0.73508 0.33557 0.73633 0.0
H526 H 0.58306 0.19093 0.79272 0.0
H527 H 0.6383 0.23486 0.8176 0.0
H528 H 0.6412 0.29995 0.70702 0.0
H529 H 0.68159 0.2755 0.7146 0.0
H530 H 0.65222 0.30632 0.6786 0.0
H531 H 0.69174 0.28206 0.686 0.0
H532 H 0.61207 0.27123 0.71978 0.0
H533 H 0.57668 0.21564 0.74692 0.0
H534 H 0.58187 0.26107 0.70223 0.0
H535 H 0.54707 0.20635 0.72885 0.0
H536 H 0.62591 0.19071 0.70165 0.0
H537 H 0.61313 0.23255 0.67501 0.0
H538 H 0.64576 0.34775 0.73014 0.0
H539 H 0.58451 0.30616 0.74801 0.0
Li540 Li 0.40148 0.63332 0.92475 0.0
Li541 Li 0.40936 0.66597 0.91328 0.0
Li542 Li 0.37615 0.6351 0.90682 0.0
Li543 Li 0.40835 0.64015 0.89594 0.0
C544 C 0.38893 0.65775 0.94269 0.0
N545 N 0.39442 0.67711 0.97193 0.0
C546 C 0.40667 0.66342 0.95169 0.0
C547 C 0.37392 0.66186 0.9486 0.0
C548 C 0.40919 0.67321 0.96643 0.0
C549 C 0.377 0.67168 0.9634 0.0
C550 C 0.44675 0.66982 0.91661 0.0
C551 C 0.47592 0.70166 0.90773 0.0
N552 N 0.48561 0.70306 0.92184 0.0
C553 C 0.45707 0.67149 0.93098 0.0
C554 C 0.45631 0.68494 0.90485 0.0
C555 C 0.47668 0.68844 0.93341 0.0
C556 C 0.42141 0.61664 0.94217 0.0
N557 N 0.405 0.61963 0.94261 0.0
C558 C 0.39626 0.60533 0.96896 0.0
C559 C 0.39224 0.61387 0.95552 0.0
C560 C 0.4136 0.60283 0.96908 0.0
C561 C 0.42609 0.60832 0.95536 0.0
H562 H 0.43116 0.62121 0.93167 0.0
H563 H 0.37925 0.61638 0.95554 0.0
C564 C 0.41269 0.70419 0.9082 0.0
N565 N 0.42058 0.69471 0.91724 0.0
C566 C 0.4184 0.72467 0.91108 0.0
C567 C 0.44045 0.72542 0.93248 0.0
C568 C 0.43431 0.70491 0.92918 0.0
C569 C 0.43227 0.73549 0.9235 0.0
H570 H 0.40157 0.69567 0.89894 0.0
H571 H 0.44013 0.69705 0.93644 0.0
C572 C 0.37127 0.59617 0.91204 0.0
N573 N 0.34186 0.55829 0.92376 0.0
C574 C 0.36978 0.57816 0.90591 0.0
C575 C 0.35779 0.59494 0.92412 0.0
C576 C 0.35481 0.55914 0.912 0.0
C577 C 0.34304 0.57564 0.92989 0.0
C578 C 0.39715 0.66066 0.87633 0.0
C579 C 0.38183 0.64682 0.86598 0.0
C580 C 0.41436 0.67799 0.87005 0.0
C581 C 0.38418 0.65031 0.84948 0.0
C582 C 0.41615 0.68096 0.85347 0.0
N583 N 0.40116 0.66715 0.84361 0.0
C584 C 0.34041 0.63777 0.90724 0.0
C585 C 0.33687 0.60889 0.89295 0.0
C586 C 0.32045 0.63283 0.9031 0.0
N587 N 0.34817 0.62586 0.90211 0.0
C588 C 0.31687 0.60346 0.88839 0.0
C589 C 0.30845 0.61561 0.89337 0.0
H590 H 0.34993 0.65139 0.91425 0.0
H591 H 0.34361 0.59993 0.88877 0.0
C592 C 0.43957 0.64268 0.87474 0.0
N593 N 0.41903 0.63378 0.87754 0.0
C594 C 0.44673 0.63713 0.86126 0.0
C595 C 0.41147 0.61339 0.85386 0.0
C596 C 0.40502 0.61927 0.86753 0.0
C597 C 0.4326 0.62226 0.8506 0.0
H598 H 0.45041 0.65382 0.88308 0.0
H599 H 0.38878 0.61222 0.8702 0.0
O600 O 0.38618 0.64822 0.92818 0.0
O601 O 0.42748 0.65338 0.91404 0.0
O602 O 0.38591 0.61486 0.90619 0.0
O603 O 0.39528 0.65732 0.89251 0.0
H604 H 0.41844 0.66041 0.9473 0.0
H605 H 0.36002 0.65748 0.94187 0.0
H606 H 0.42289 0.67773 0.97348 0.0
H607 H 0.36552 0.67497 0.96811 0.0
H608 H 0.48343 0.71353 0.89875 0.0
H609 H 0.45 0.65992 0.94022 0.0
H610 H 0.44863 0.68382 0.89364 0.0
H611 H 0.48478 0.68998 0.9445 0.0
H612 H 0.38632 0.6014 0.97933 0.0
H613 H 0.43942 0.60635 0.95489 0.0
H614 H 0.41186 0.73189 0.90376 0.0
H615 H 0.45094 0.73306 0.94233 0.0
H616 H 0.38011 0.57887 0.89655 0.0
H617 H 0.35865 0.60869 0.92898 0.0
H618 H 0.35349 0.54507 0.90737 0.0
H619 H 0.33251 0.57446 0.93923 0.0
H620 H 0.36839 0.63336 0.87062 0.0
H621 H 0.42615 0.6891 0.87788 0.0
H622 H 0.37253 0.63961 0.84133 0.0
H623 H 0.42942 0.69426 0.84845 0.0
H624 H 0.31455 0.64249 0.90742 0.0
H625 H 0.30838 0.59027 0.88066 0.0
H626 H 0.46316 0.64409 0.85942 0.0
H627 H 0.39998 0.60208 0.84591 0.0
Li628 Li 0.76559 0.4096 0.08145 0.0
Li629 Li 0.79208 0.40351 0.09228 0.0
Li630 Li 0.79296 0.41167 0.06365 0.0
Li631 Li 0.76751 0.37872 0.0742 0.0
C632 C 0.80024 0.44846 0.07727 0.0
N633 N 0.80975 0.48702 0.06645 0.0
C634 C 0.81687 0.46604 0.08382 0.0
C635 C 0.78842 0.45048 0.06522 0.0
C636 C 0.82143 0.48541 0.0782 0.0
C637 C 0.79348 0.47011 0.05991 0.0
C638 C 0.75967 0.38257 0.11124 0.0
C639 C 0.75733 0.36119 0.13364 0.0
N640 N 0.756 0.37468 0.14377 0.0
C641 C 0.75803 0.39608 0.12184 0.0
C642 C 0.7591 0.36487 0.11715 0.0
C643 C 0.75629 0.39188 0.13825 0.0
C644 C 0.72738 0.40734 0.08127 0.0
N645 N 0.7471 0.41907 0.08636 0.0
C646 C 0.73858 0.44166 0.10021 0.0
C647 C 0.75297 0.43601 0.09561 0.0
C648 C 0.71798 0.42972 0.09525 0.0
C649 C 0.71253 0.41248 0.08549 0.0
H650 H 0.72312 0.39373 0.07419 0.0
H651 H 0.76869 0.44479 0.09979 0.0
C652 C 0.81984 0.39954 0.11363 0.0
N653 N 0.80851 0.4088 0.11093 0.0
C654 C 0.83204 0.4043 0.12737 0.0
C655 C 0.82064 0.42799 0.13521 0.0
C656 C 0.80885 0.42292 0.12128 0.0
C657 C 0.83257 0.41874 0.13839 0.0
H658 H 0.81969 0.38872 0.10504 0.0
H659 H 0.79991 0.43027 0.11868 0.0
C660 C 0.75609 0.38838 0.0451 0.0
N661 N 0.74221 0.37006 0.01552 0.0
C662 C 0.76809 0.38289 0.03582 0.0
C663 C 0.73704 0.38462 0.03929 0.0
C664 C 0.76081 0.37364 0.02091 0.0
C665 C 0.73029 0.37533 0.02432 0.0
C666 C 0.80074 0.37434 0.07092 0.0
C667 C 0.80958 0.37306 0.05653 0.0
C668 C 0.79469 0.35871 0.08232 0.0
C669 C 0.81195 0.35602 0.05371 0.0
C670 C 0.7973 0.34191 0.07904 0.0
N671 N 0.80579 0.34091 0.06492 0.0
C672 C 0.82987 0.42852 0.04655 0.0
C673 C 0.80392 0.43226 0.03341 0.0
C674 C 0.84304 0.43712 0.03347 0.0
N675 N 0.81061 0.42588 0.04614 0.0
C676 C 0.81663 0.44107 0.02009 0.0
C677 C 0.83634 0.44322 0.01991 0.0
H678 H 0.83481 0.42344 0.0569 0.0
H679 H 0.78851 0.43 0.03341 0.0
C680 C 0.73206 0.34059 0.07805 0.0
N681 N 0.74974 0.35026 0.06938 0.0
C682 C 0.71716 0.32035 0.07454 0.0
C683 C 0.73896 0.32023 0.05328 0.0
C684 C 0.75343 0.3405 0.0572 0.0
C685 C 0.72042 0.30996 0.06189 0.0
H686 H 0.72933 0.34878 0.08751 0.0
H687 H 0.76735 0.34852 0.05023 0.0
O688 O 0.79569 0.42943 0.08266 0.0
O689 O 0.76172 0.3866 0.09515 0.0
O690 O 0.76288 0.3974 0.05977 0.0
O691 O 0.7982 0.39087 0.07389 0.0
H692 H 0.82615 0.46472 0.09317 0.0
H693 H 0.77545 0.43706 0.06002 0.0
H694 H 0.83427 0.49916 0.08316 0.0
H695 H 0.78447 0.47189 0.05059 0.0
H696 H 0.75696 0.3476 0.13838 0.0
H697 H 0.75838 0.40981 0.11748 0.0
H698 H 0.7599 0.35401 0.10909 0.0
H699 H 0.7552 0.40231 0.14661 0.0
H700 H 0.74344 0.45486 0.10796 0.0
H701 H 0.69692 0.40297 0.08121 0.0
H702 H 0.84126 0.39706 0.12915 0.0
H703 H 0.82031 0.43899 0.14343 0.0
H704 H 0.78281 0.38561 0.04013 0.0
H705 H 0.72758 0.38886 0.04625 0.0
H706 H 0.76994 0.36926 0.01365 0.0
H707 H 0.71556 0.37231 0.01969 0.0
H708 H 0.81444 0.38502 0.04757 0.0
H709 H 0.78797 0.35952 0.09353 0.0
H710 H 0.81867 0.35478 0.04259 0.0
H711 H 0.79257 0.32966 0.08773 0.0
H712 H 0.85823 0.43878 0.0339 0.0
H713 H 0.81083 0.44544 0.00984 0.0
H714 H 0.70318 0.31295 0.08159 0.0
H715 H 0.74198 0.31292 0.04329 0.0
Li716 Li 0.40801 0.78923 0.26066 0.0
Li717 Li 0.37716 0.76175 0.24917 0.0
Li718 Li 0.41148 0.76563 0.24438 0.0
Li719 Li 0.40349 0.7901 0.23176 0.0
C720 C 0.39565 0.75714 0.28071 0.0
N721 N 0.39536 0.75293 0.31363 0.0
C722 C 0.3776 0.75119 0.28941 0.0
C723 C 0.41348 0.76072 0.28876 0.0
C724 C 0.37778 0.74919 0.30604 0.0
C725 C 0.41305 0.7586 0.3054 0.0
C726 C 0.38335 0.80489 0.25832 0.0
C727 C 0.39639 0.83946 0.26812 0.0
N728 N 0.37981 0.83257 0.27799 0.0
C729 C 0.36644 0.79816 0.26856 0.0
C730 C 0.39844 0.82572 0.25806 0.0
C731 C 0.36493 0.8124 0.2784 0.0
C732 C 0.43855 0.82191 0.27928 0.0
N733 N 0.4186 0.80647 0.27929 0.0
C734 C 0.41339 0.81646 0.30528 0.0
C735 C 0.40603 0.80362 0.29194 0.0
C736 C 0.4339 0.83259 0.3056 0.0
C737 C 0.44658 0.83519 0.29238 0.0
H738 H 0.44817 0.82414 0.26897 0.0
H739 H 0.39013 0.79159 0.2916 0.0
C740 C 0.34535 0.72286 0.25673 0.0
N741 N 0.34909 0.74165 0.25171 0.0
C742 C 0.32532 0.70741 0.26016 0.0
C743 C 0.31321 0.73057 0.25235 0.0
C744 C 0.33356 0.74568 0.24918 0.0
C745 C 0.30898 0.71128 0.25821 0.0
H746 H 0.35805 0.72009 0.25847 0.0
H747 H 0.337 0.76072 0.24501 0.0
C748 C 0.44765 0.79854 0.24091 0.0
N749 N 0.48564 0.80226 0.23522 0.0
C750 C 0.45686 0.8047 0.22584 0.0
C751 C 0.45792 0.79462 0.25315 0.0
C752 C 0.47604 0.8064 0.22318 0.0
C753 C 0.47707 0.79648 0.25003 0.0
C754 C 0.37545 0.75312 0.21646 0.0
C755 C 0.37282 0.73703 0.20649 0.0
C756 C 0.36338 0.76229 0.21412 0.0
C757 C 0.35809 0.73034 0.19431 0.0
C758 C 0.34882 0.75515 0.20181 0.0
N759 N 0.3465 0.73946 0.19224 0.0
C760 C 0.42249 0.7357 0.25157 0.0
C761 C 0.43266 0.7508 0.22581 0.0
C762 C 0.42938 0.72195 0.24813 0.0
N763 N 0.42412 0.74962 0.24041 0.0
C764 C 0.43998 0.73752 0.22192 0.0
C765 C 0.438 0.72261 0.23306 0.0
H766 H 0.4152 0.73478 0.26294 0.0
H767 H 0.43317 0.76162 0.217 0.0
C768 C 0.40494 0.82231 0.2126 0.0
N769 N 0.40755 0.80565 0.21277 0.0
C770 C 0.40921 0.83419 0.19873 0.0
C771 C 0.41803 0.81109 0.18534 0.0
C772 C 0.41362 0.79969 0.19946 0.0
C773 C 0.41614 0.82879 0.18491 0.0
H774 H 0.39981 0.82655 0.22327 0.0
H775 H 0.41537 0.78623 0.19992 0.0
O776 O 0.39577 0.75913 0.2644 0.0
O777 O 0.38524 0.79113 0.24875 0.0
O778 O 0.42874 0.79649 0.24369 0.0
O779 O 0.3898 0.75978 0.22843 0.0
H780 H 0.36369 0.74853 0.28345 0.0
H781 H 0.42751 0.76509 0.28224 0.0
H782 H 0.36397 0.74476 0.31292 0.0
H783 H 0.42677 0.76142 0.31178 0.0
H784 H 0.40803 0.85559 0.26814 0.0
H785 H 0.35477 0.78207 0.26908 0.0
H786 H 0.41182 0.83113 0.25043 0.0
H787 H 0.35198 0.80738 0.28644 0.0
H788 H 0.4031 0.81372 0.31525 0.0
H789 H 0.4624 0.84762 0.292 0.0
H790 H 0.32267 0.69264 0.26442 0.0
H791 H 0.30102 0.73416 0.25073 0.0
H792 H 0.44928 0.80807 0.21629 0.0
H793 H 0.45115 0.79013 0.26493 0.0
H794 H 0.48328 0.81103 0.21155 0.0
H795 H 0.48512 0.79335 0.25937 0.0
H796 H 0.38207 0.7298 0.20816 0.0
H797 H 0.36523 0.77479 0.22169 0.0
H798 H 0.35588 0.71789 0.1865 0.0
H799 H 0.33937 0.76209 0.19986 0.0
H800 H 0.42764 0.71069 0.25703 0.0
H801 H 0.44624 0.73828 0.21009 0.0
H802 H 0.40765 0.84777 0.19898 0.0
H803 H 0.42295 0.80612 0.1749 0.0
H804 H 0.11647 0.58204 0.27949 0.0
H805 H 0.15143 0.60603 0.27068 0.0
H806 H 0.1748 0.60144 0.31681 0.0
H807 H 0.13968 0.57818 0.32601 0.0
H808 H 0.19214 0.64018 0.30794 0.0
H809 H 0.18034 0.57791 0.28288 0.0
H810 H 0.16181 0.54659 0.26642 0.0
H811 H 0.16772 0.58341 0.22521 0.0
H812 H 0.18605 0.61496 0.24147 0.0
H813 H 0.29713 0.6881 0.2854 0.0
H814 H 0.26228 0.66234 0.29349 0.0
H815 H 0.23814 0.67322 0.25 0.0
H816 H 0.27312 0.69898 0.24173 0.0
H817 H 0.22155 0.63116 0.25739 0.0
H818 H 0.23328 0.69343 0.28312 0.0
H819 H 0.25239 0.72441 0.29985 0.0
H820 H 0.24716 0.68668 0.34027 0.0
H821 H 0.22827 0.65547 0.32371 0.0
C822 C 0.12902 0.58621 0.28782 0.0
C823 C 0.12524 0.57824 0.3035 0.0
C824 C 0.14905 0.59975 0.28269 0.0
C825 C 0.16579 0.60536 0.29302 0.0
C826 C 0.16212 0.59727 0.30861 0.0
C827 C 0.14205 0.58382 0.3138 0.0
C828 C 0.18702 0.6203 0.28773 0.0
C829 C 0.19867 0.63801 0.29701 0.0
C830 C 0.19538 0.61774 0.27327 0.0
C831 C 0.18441 0.5988 0.26344 0.0
C832 C 0.17755 0.57933 0.27034 0.0
C833 C 0.16711 0.56153 0.26104 0.0
C834 C 0.16354 0.563 0.24479 0.0
C835 C 0.17047 0.58229 0.2378 0.0
C836 C 0.18091 0.60014 0.24705 0.0
C837 C 0.28442 0.68488 0.27749 0.0
C838 C 0.28782 0.69552 0.26292 0.0
C839 C 0.26453 0.67027 0.28217 0.0
C840 C 0.24767 0.666 0.27238 0.0
C841 C 0.25099 0.67635 0.25771 0.0
C842 C 0.27091 0.69112 0.25307 0.0
C843 C 0.22655 0.65089 0.27762 0.0
C844 C 0.21496 0.63321 0.26832 0.0
C845 C 0.21828 0.65338 0.29211 0.0
C846 C 0.22953 0.67212 0.30213 0.0
C847 C 0.23635 0.69175 0.29554 0.0
C848 C 0.24712 0.70935 0.305 0.0
C849 C 0.25104 0.70752 0.3211 0.0
C850 C 0.24414 0.68807 0.32779 0.0
C851 C 0.23338 0.67042 0.31838 0.0
H852 H 0.25937 0.72116 0.32841 0.0
H853 H 0.15545 0.54921 0.23761 0.0
H854 H 0.53327 0.12512 0.47547 0.0
H855 H 0.54427 0.15971 0.46555 0.0
H856 H 0.60493 0.16908 0.45628 0.0
H857 H 0.59396 0.13433 0.46618 0.0
H858 H 0.60639 0.20275 0.47003 0.0
H859 H 0.5716 0.15793 0.42583 0.0
H860 H 0.54299 0.12816 0.4123 0.0
H861 H 0.50295 0.15229 0.4222 0.0
H862 H 0.53125 0.18208 0.436 0.0
H863 H 0.63874 0.29225 0.42286 0.0
H864 H 0.62954 0.25743 0.43115 0.0
H865 H 0.5672 0.24341 0.44 0.0
H866 H 0.57628 0.27819 0.43161 0.0
H867 H 0.56774 0.21188 0.42557 0.0
H868 H 0.60184 0.25581 0.47067 0.0
H869 H 0.63016 0.2855 0.48451 0.0
H870 H 0.67121 0.26299 0.47321 0.0
H871 H 0.64318 0.2333 0.45909 0.0
C872 C 0.54893 0.1345 0.47126 0.0
C873 C 0.56269 0.12693 0.47144 0.0
C874 C 0.5552 0.15427 0.46561 0.0
C875 C 0.57531 0.16681 0.45992 0.0
C876 C 0.58931 0.15959 0.46057 0.0
C877 C 0.58305 0.13979 0.46626 0.0
C878 C 0.58156 0.18738 0.45316 0.0
C879 C 0.59816 0.20475 0.46014 0.0
C880 C 0.57053 0.18997 0.44047 0.0
C881 C 0.55351 0.17215 0.43207 0.0
C882 C 0.55666 0.15682 0.42522 0.0
C883 C 0.5405 0.13995 0.41749 0.0
C884 C 0.52116 0.13831 0.41642 0.0
C885 C 0.51794 0.15357 0.42305 0.0
C886 C 0.53404 0.17046 0.43081 0.0
C887 C 0.62307 0.28173 0.42657 0.0
C888 C 0.60826 0.28798 0.42671 0.0
C889 C 0.61784 0.26186 0.43131 0.0
C890 C 0.59777 0.24794 0.43645 0.0
C891 C 0.58279 0.25392 0.4361 0.0
C892 C 0.58798 0.27376 0.43127 0.0
C893 C 0.59247 0.22729 0.44252 0.0
C894 C 0.57604 0.20989 0.4354 0.0
C895 C 0.60364 0.22469 0.45511 0.0
C896 C 0.62047 0.24245 0.46368 0.0
C897 C 0.61694 0.25727 0.47103 0.0
C898 C 0.63294 0.27409 0.47894 0.0
C899 C 0.65249 0.27616 0.4797 0.0
C900 C 0.65607 0.26138 0.47259 0.0
C901 C 0.64013 0.24455 0.46464 0.0
H902 H 0.66485 0.28919 0.48583 0.0
H903 H 0.50866 0.12523 0.41044 0.0
H904 H 0.46662 0.56375 0.613 0.0
H905 H 0.4406 0.57277 0.60552 0.0
H906 H 0.43332 0.58371 0.65519 0.0
H907 H 0.45926 0.57448 0.66278 0.0
H908 H 0.39617 0.55903 0.6398 0.0
H909 H 0.45764 0.62358 0.63092 0.0
H910 H 0.49225 0.64676 0.62003 0.0
H911 H 0.46876 0.63061 0.57212 0.0
H912 H 0.43404 0.6071 0.58272 0.0
H913 H 0.33422 0.60457 0.62519 0.0
H914 H 0.36089 0.59711 0.63392 0.0
H915 H 0.37419 0.59081 0.58463 0.0
H916 H 0.34759 0.5984 0.57581 0.0
H917 H 0.40875 0.61396 0.60073 0.0
H918 H 0.34783 0.54868 0.60915 0.0
H919 H 0.31314 0.52488 0.61963 0.0
H920 H 0.33538 0.54157 0.66781 0.0
H921 H 0.37017 0.5657 0.65761 0.0
C922 C 0.45951 0.56814 0.62232 0.0
C923 C 0.46493 0.5684 0.63847 0.0
C924 C 0.44476 0.5734 0.61802 0.0
C925 C 0.43513 0.579 0.6298 0.0
C926 C 0.44062 0.57946 0.64593 0.0
C927 C 0.45552 0.57435 0.65023 0.0
C928 C 0.41882 0.58367 0.62525 0.0
C929 C 0.39896 0.57126 0.63146 0.0
C930 C 0.42241 0.59926 0.61405 0.0
C931 C 0.44327 0.61343 0.60763 0.0
C932 C 0.45988 0.62484 0.61806 0.0
C933 C 0.47951 0.63807 0.61194 0.0
C934 C 0.48271 0.64012 0.59539 0.0
C935 C 0.46627 0.62899 0.58493 0.0
C936 C 0.4466 0.61572 0.59099 0.0
C937 C 0.34261 0.60127 0.61622 0.0
C938 C 0.33876 0.602 0.59981 0.0
C939 C 0.35788 0.59705 0.62123 0.0
C940 C 0.36943 0.59324 0.60993 0.0
C941 C 0.3655 0.59377 0.59355 0.0
C942 C 0.35031 0.5981 0.58853 0.0
C943 C 0.386 0.58923 0.61518 0.0
C944 C 0.40593 0.60177 0.60911 0.0
C945 C 0.38244 0.57368 0.62644 0.0
C946 C 0.36155 0.55915 0.63261 0.0
C947 C 0.34529 0.5474 0.62198 0.0
C948 C 0.32561 0.53383 0.62787 0.0
C949 C 0.32205 0.53176 0.64437 0.0
C950 C 0.33816 0.54321 0.65503 0.0
C951 C 0.35786 0.55683 0.6492 0.0
H952 H 0.30681 0.52124 0.64891 0.0
H953 H 0.49792 0.65037 0.59068 0.0
H954 H 0.90261 0.4547 0.82597 0.0
H955 H 0.86864 0.42827 0.81671 0.0
H956 H 0.89014 0.44003 0.7678 0.0
H957 H 0.92415 0.46666 0.77701 0.0
H958 H 0.85214 0.43449 0.76984 0.0
H959 H 0.88615 0.3988 0.78819 0.0
H960 H 0.90539 0.3896 0.80722 0.0
H961 H 0.85558 0.36812 0.84089 0.0
H962 H 0.83616 0.37747 0.82214 0.0
H963 H 0.76904 0.34065 0.73919 0.0
H964 H 0.80364 0.36765 0.74679 0.0
H965 H 0.78425 0.36249 0.79602 0.0
H966 H 0.74956 0.33597 0.78853 0.0
H967 H 0.82183 0.3642 0.79269 0.0
H968 H 0.7884 0.40099 0.77415 0.0
H969 H 0.76941 0.41002 0.75474 0.0
H970 H 0.81859 0.42892 0.72076 0.0
H971 H 0.83775 0.41971 0.7399 0.0
C972 C 0.90008 0.45166 0.81324 0.0
C973 C 0.91606 0.46263 0.80222 0.0
C974 C 0.88068 0.43655 0.80797 0.0
C975 C 0.87697 0.43191 0.79158 0.0
C976 C 0.89269 0.44332 0.7805 0.0
C977 C 0.91208 0.45856 0.78577 0.0
C978 C 0.85679 0.41488 0.78609 0.0
C979 C 0.84565 0.41905 0.77466 0.0
C980 C 0.8482 0.39478 0.79254 0.0
C981 C 0.85978 0.38901 0.80381 0.0
C982 C 0.87936 0.39225 0.7997 0.0
C983 C 0.89029 0.38699 0.81043 0.0
C984 C 0.88173 0.37833 0.82527 0.0
C985 C 0.8622 0.37485 0.8294 0.0
C986 C 0.85122 0.38012 0.81872 0.0
C987 C 0.77208 0.34533 0.75162 0.0
C988 C 0.75646 0.33611 0.76324 0.0
C989 C 0.79188 0.36071 0.75594 0.0
C990 C 0.79643 0.36713 0.77194 0.0
C991 C 0.78105 0.35768 0.78361 0.0
C992 C 0.76124 0.34242 0.7793 0.0
C993 C 0.81715 0.38388 0.77657 0.0
C994 C 0.82839 0.37963 0.78783 0.0
C995 C 0.82587 0.40384 0.76989 0.0
C996 C 0.8144 0.40945 0.75839 0.0
C997 C 0.79509 0.4069 0.76249 0.0
C998 C 0.7843 0.41209 0.75154 0.0
C999 C 0.79276 0.41998 0.73651 0.0
C1000 C 0.81204 0.42277 0.7324 0.0
C1001 C 0.82288 0.41758 0.7433 0.0
H1002 H 0.78439 0.42399 0.72806 0.0
H1003 H 0.89022 0.37426 0.83356 0.0
H1004 H 0.50973 0.92172 0.97088 0.0
H1005 H 0.49965 0.88751 0.96071 0.0
H1006 H 0.43704 0.87446 0.95557 0.0
H1007 H 0.44689 0.90852 0.96637 0.0
H1008 H 0.43837 0.84275 0.96908 0.0
H1009 H 0.46814 0.88505 0.92286 0.0
H1010 H 0.49464 0.91436 0.90741 0.0
H1011 H 0.53755 0.89333 0.91581 0.0
H1012 H 0.51139 0.86404 0.93151 0.0
H1013 H 0.40637 0.75123 0.92454 0.0
H1014 H 0.41471 0.78605 0.93193 0.0
H1015 H 0.47804 0.80267 0.93947 0.0
H1016 H 0.46995 0.76801 0.93159 0.0
H1017 H 0.47496 0.8326 0.9236 0.0
H1018 H 0.44565 0.79135 0.97088 0.0
H1019 H 0.41917 0.76206 0.98637 0.0
H1020 H 0.37528 0.78127 0.97584 0.0
H1021 H 0.40144 0.81052 0.96009 0.0
C1022 C 0.49376 0.91153 0.96773 0.0
C1023 C 0.47909 0.91782 0.9695 0.0
C1024 C 0.48808 0.89206 0.96173 0.0
C1025 C 0.46765 0.87853 0.95718 0.0
C1026 C 0.45292 0.88471 0.95894 0.0
C1027 C 0.45859 0.90421 0.965 0.0
C1028 C 0.46166 0.85776 0.95097 0.0
C1029 C 0.44611 0.84053 0.95896 0.0
C1030 C 0.47209 0.85488 0.93798 0.0
C1031 C 0.48784 0.87244 0.92848 0.0
C1032 C 0.48327 0.88676 0.92152 0.0
C1033 C 0.49822 0.90336 0.9127 0.0
C1034 C 0.51778 0.90573 0.91066 0.0
C1035 C 0.5224 0.89148 0.91741 0.0
C1036 C 0.50751 0.87486 0.92625 0.0
C1037 C 0.42214 0.76237 0.92754 0.0
C1038 C 0.4375 0.75684 0.9275 0.0
C1039 C 0.42683 0.7822 0.93192 0.0
C1040 C 0.44693 0.79686 0.93644 0.0
C1041 C 0.46241 0.79155 0.93608 0.0
C1042 C 0.45773 0.77171 0.9317 0.0
C1043 C 0.45179 0.81764 0.94179 0.0
C1044 C 0.46712 0.83485 0.93365 0.0
C1045 C 0.44115 0.82051 0.95463 0.0
C1046 C 0.42544 0.80299 0.96417 0.0
C1047 C 0.43031 0.78923 0.97176 0.0
C1048 C 0.41536 0.77266 0.98061 0.0
C1049 C 0.39554 0.76977 0.98205 0.0
C1050 C 0.39064 0.7835 0.97469 0.0
C1051 C 0.40552 0.80009 0.96581 0.0
H1052 H 0.38399 0.75693 0.98891 0.0
H1053 H 0.52933 0.91859 0.90383 0.0
H1054 H 0.56041 0.44522 0.1383 0.0
H1055 H 0.58575 0.4351 0.13112 0.0
H1056 H 0.63363 0.49883 0.13101 0.0
H1057 H 0.60861 0.50906 0.13856 0.0
H1058 H 0.6337 0.47784 0.10377 0.0
H1059 H 0.63078 0.4689 0.16112 0.0
H1060 H 0.61349 0.45503 0.187 0.0
H1061 H 0.59175 0.39345 0.17026 0.0
H1062 H 0.60867 0.40694 0.14417 0.0
H1063 H 0.7221 0.46798 0.0985 0.0
H1064 H 0.69614 0.47633 0.10736 0.0
H1065 H 0.65193 0.41167 0.11217 0.0
H1066 H 0.67809 0.4032 0.10412 0.0
H1067 H 0.6489 0.43201 0.13674 0.0
H1068 H 0.65117 0.43985 0.0798 0.0
H1069 H 0.6673 0.4527 0.05341 0.0
H1070 H 0.68861 0.51484 0.06851 0.0
H1071 H 0.67284 0.50238 0.09509 0.0
C1072 C 0.57637 0.45706 0.13697 0.0
C1073 C 0.58245 0.47797 0.13891 0.0
C1074 C 0.59081 0.45125 0.13282 0.0
C1075 C 0.61154 0.46624 0.13055 0.0
C1076 C 0.61767 0.48705 0.13261 0.0
C1077 C 0.60331 0.49286 0.13684 0.0
C1078 C 0.62685 0.46036 0.12562 0.0
C1079 C 0.63723 0.46802 0.11106 0.0
C1080 C 0.63092 0.44705 0.13493 0.0
C1081 C 0.62082 0.43893 0.15063 0.0
C1082 C 0.62217 0.45239 0.1629 0.0
C1083 C 0.61246 0.4446 0.17762 0.0
C1084 C 0.60149 0.42338 0.18025 0.0
C1085 C 0.60024 0.40989 0.16819 0.0
C1086 C 0.60989 0.4176 0.15344 0.0
C1087 C 0.70693 0.45552 0.10161 0.0
C1088 C 0.70218 0.4349 0.10049 0.0
C1089 C 0.69203 0.46032 0.10651 0.0
C1090 C 0.67198 0.44461 0.11018 0.0
C1091 C 0.66726 0.42404 0.10931 0.0
C1092 C 0.68219 0.41922 0.10452 0.0
C1093 C 0.65595 0.44965 0.11492 0.0
C1094 C 0.64538 0.4418 0.12942 0.0
C1095 C 0.65153 0.46264 0.10547 0.0
C1096 C 0.66099 0.47019 0.08949 0.0
C1097 C 0.65943 0.45627 0.07754 0.0
C1098 C 0.66848 0.46348 0.06254 0.0
C1099 C 0.67902 0.48457 0.0593 0.0
C1100 C 0.68047 0.4985 0.07105 0.0
C1101 C 0.67146 0.49137 0.08607 0.0
H1102 H 0.68602 0.49012 0.04768 0.0
H1103 H 0.594 0.41737 0.19164 0.0
H1104 H 0.4589 0.90341 0.49785 0.0
H1105 H 0.43445 0.86883 0.50746 0.0
H1106 H 0.44022 0.89243 0.55549 0.0
H1107 H 0.46524 0.92697 0.54595 0.0
H1108 H 0.43798 0.8566 0.55667 0.0
H1109 H 0.3988 0.88256 0.53086 0.0
H1110 H 0.38908 0.89822 0.50905 0.0
H1111 H 0.3764 0.84738 0.47827 0.0
H1112 H 0.38634 0.83155 0.49983 0.0
H1113 H 0.34402 0.76911 0.58395 0.0
H1114 H 0.36969 0.80439 0.57626 0.0
H1115 H 0.37485 0.78281 0.52955 0.0
H1116 H 0.34928 0.74762 0.53715 0.0
H1117 H 0.3707 0.81812 0.52888 0.0
H1118 H 0.41096 0.79296 0.55564 0.0
H1119 H 0.41993 0.77777 0.57825 0.0
H1120 H 0.42915 0.82799 0.60846 0.0
H1121 H 0.41993 0.84333 0.58607 0.0
C1122 C 0.45501 0.90115 0.51047 0.0
C1123 C 0.46381 0.91782 0.52116 0.0
C1124 C 0.441 0.88143 0.51594 0.0
C1125 C 0.43512 0.87811 0.53214 0.0
C1126 C 0.44445 0.89464 0.54294 0.0
C1127 C 0.45874 0.91433 0.5375 0.0
C1128 C 0.41893 0.85749 0.5377 0.0
C1129 C 0.42317 0.84834 0.55073 0.0
C1130 C 0.39963 0.84657 0.52989 0.0
C1131 C 0.39348 0.85596 0.51692 0.0
C1132 C 0.39407 0.87478 0.51941 0.0
C1133 C 0.3885 0.88368 0.5071 0.0
C1134 C 0.38217 0.87382 0.49228 0.0
C1135 C 0.38133 0.85501 0.48975 0.0
C1136 C 0.38691 0.84606 0.50202 0.0
C1137 C 0.35059 0.77196 0.57203 0.0
C1138 C 0.34477 0.75567 0.56116 0.0
C1139 C 0.36529 0.79204 0.5677 0.0
C1140 C 0.37422 0.79612 0.55238 0.0
C1141 C 0.36815 0.77994 0.54143 0.0
C1142 C 0.35367 0.75986 0.54582 0.0
C1143 C 0.38989 0.81726 0.54767 0.0
C1144 C 0.3855 0.82649 0.53483 0.0
C1145 C 0.4089 0.82833 0.55579 0.0
C1146 C 0.41453 0.81917 0.56923 0.0
C1147 C 0.41472 0.80067 0.56714 0.0
C1148 C 0.41988 0.79205 0.57991 0.0
C1149 C 0.42505 0.80188 0.59479 0.0
C1150 C 0.42511 0.82038 0.59693 0.0
C1151 C 0.41993 0.82905 0.5842 0.0
H1152 H 0.42905 0.79519 0.60466 0.0
H1153 H 0.37788 0.88074 0.48276 0.0
H1154 H 0.59951 0.48656 0.69464 0.0
H1155 H 0.60839 0.46201 0.70603 0.0
H1156 H 0.54703 0.41231 0.69613 0.0
H1157 H 0.53771 0.43683 0.68555 0.0
H1158 H 0.55849 0.40724 0.72458 0.0
H1159 H 0.58887 0.42218 0.67218 0.0
H1160 H 0.61047 0.44427 0.6501 0.0
H1161 H 0.6641 0.46718 0.67995 0.0
H1162 H 0.64276 0.44542 0.70228 0.0
H1163 H 0.57785 0.32329 0.72643 0.0
H1164 H 0.56914 0.3495 0.71897 0.0
H1165 H 0.62877 0.39709 0.73503 0.0
H1166 H 0.63745 0.37099 0.74294 0.0
H1167 H 0.61905 0.40403 0.70452 0.0
H1168 H 0.58771 0.38679 0.75658 0.0
H1169 H 0.56537 0.36348 0.77782 0.0
H1170 H 0.51255 0.34337 0.74743 0.0
H1171 H 0.53463 0.36635 0.72591 0.0
C1172 C 0.58783 0.47044 0.69504 0.0
C1173 C 0.56792 0.46368 0.68906 0.0
C1174 C 0.593 0.45638 0.7014 0.0
C1175 C 0.57846 0.43526 0.70172 0.0
C1176 C 0.55853 0.42851 0.69595 0.0
C1177 C 0.5533 0.44255 0.68972 0.0
C1178 C 0.58396 0.42013 0.70803 0.0
C1179 C 0.57161 0.4064 0.72006 0.0
C1180 C 0.60131 0.41927 0.70237 0.0
C1181 C 0.61418 0.43234 0.68895 0.0
C1182 C 0.60524 0.43205 0.67407 0.0
C1183 C 0.61744 0.44449 0.66151 0.0
C1184 C 0.63863 0.45716 0.66363 0.0
C1185 C 0.64768 0.45738 0.67832 0.0
C1186 C 0.63554 0.44499 0.69094 0.0
C1187 C 0.58897 0.33929 0.72871 0.0
C1188 C 0.60839 0.34501 0.73525 0.0
C1189 C 0.58399 0.35426 0.72436 0.0
C1190 C 0.59831 0.37522 0.72648 0.0
C1191 C 0.61755 0.38099 0.73324 0.0
C1192 C 0.6225 0.36604 0.73768 0.0
C1193 C 0.59353 0.39113 0.72097 0.0
C1194 C 0.60601 0.40498 0.70908 0.0
C1195 C 0.57619 0.39193 0.72663 0.0
C1196 C 0.56286 0.37816 0.73957 0.0
C1197 C 0.57136 0.37727 0.75437 0.0
C1198 C 0.55874 0.36414 0.76647 0.0
C1199 C 0.53756 0.35192 0.76396 0.0
C1200 C 0.52896 0.35283 0.74935 0.0
C1201 C 0.54152 0.36592 0.7372 0.0
H1202 H 0.52782 0.34176 0.77335 0.0
H1203 H 0.64806 0.46677 0.65389 0.0
H1204 H 0.12167 0.53845 0.84687 0.0
H1205 H 0.15676 0.54896 0.85505 0.0
H1206 H 0.17107 0.61215 0.85751 0.0
H1207 H 0.13568 0.6017 0.84966 0.0
H1208 H 0.20188 0.60665 0.84245 0.0
H1209 H 0.16225 0.58711 0.89106 0.0
H1210 H 0.13312 0.56417 0.90843 0.0
H1211 H 0.1504 0.51772 0.905 0.0
H1212 H 0.17947 0.54028 0.8874 0.0
H1213 H 0.29547 0.64263 0.88496 0.0
H1214 H 0.26119 0.63469 0.87649 0.0
H1215 H 0.24006 0.56978 0.88028 0.0
H1216 H 0.27402 0.5776 0.8897 0.0
H1217 H 0.21259 0.57745 0.89247 0.0
H1218 H 0.25123 0.59559 0.84351 0.0
H1219 H 0.27992 0.61743 0.82539 0.0
H1220 H 0.26436 0.66515 0.82854 0.0
H1221 H 0.23573 0.64369 0.84687 0.0
C1222 C 0.13219 0.55458 0.84927 0.0
C1223 C 0.12576 0.5692 0.84783 0.0
C1224 C 0.15227 0.56055 0.85386 0.0
C1225 C 0.16639 0.58127 0.85708 0.0
C1226 C 0.16034 0.59606 0.8551 0.0
C1227 C 0.14015 0.59007 0.85057 0.0
C1228 C 0.18728 0.58726 0.86289 0.0
C1229 C 0.20431 0.60055 0.85351 0.0
C1230 C 0.1903 0.57885 0.87711 0.0
C1231 C 0.17293 0.56532 0.8878 0.0
C1232 C 0.15975 0.57194 0.89391 0.0
C1233 C 0.14326 0.55902 0.90381 0.0
C1234 C 0.13988 0.53948 0.90778 0.0
C1235 C 0.15302 0.53285 0.9019 0.0
C1236 C 0.16952 0.54571 0.89197 0.0
C1237 C 0.28349 0.62665 0.88423 0.0
C1238 C 0.28756 0.61075 0.88806 0.0
C1239 C 0.26394 0.62213 0.87914 0.0
C1240 C 0.24811 0.60163 0.87749 0.0
C1241 C 0.25206 0.58572 0.88139 0.0
C1242 C 0.27156 0.59023 0.88663 0.0
C1243 C 0.22733 0.59673 0.87196 0.0
C1244 C 0.21027 0.58364 0.88143 0.0
C1245 C 0.22429 0.6052 0.85774 0.0
C1246 C 0.24147 0.61811 0.8467 0.0
C1247 C 0.25403 0.61081 0.84044 0.0
C1248 C 0.27026 0.62311 0.83011 0.0
C1249 C 0.274 0.64269 0.82585 0.0
C1250 C 0.26147 0.64999 0.83188 0.0
C1251 C 0.24523 0.63776 0.84222 0.0
H1252 H 0.28658 0.65219 0.81785 0.0
H1253 H 0.1271 0.52949 0.91545 0.0
H1254 H 0.56152 0.13501 0.02351 0.0
H1255 H 0.58646 0.17039 0.03128 0.0
H1256 H 0.63604 0.15778 0.0242 0.0
H1257 H 0.61132 0.12258 0.01629 0.0
H1258 H 0.63966 0.17692 0.05243 0.0
H1259 H 0.62713 0.186 0.9973 0.0
H1260 H 0.60579 0.18313 0.9739 0.0
H1261 H 0.58376 0.21873 0.99829 0.0
H1262 H 0.60477 0.22158 0.02193 0.0
H1263 H 0.72561 0.27765 0.0533 0.0
H1264 H 0.69908 0.24304 0.04538 0.0
H1265 H 0.65233 0.25966 0.05267 0.0
H1266 H 0.67884 0.2945 0.06012 0.0
H1267 H 0.64611 0.2386 0.02511 0.0
H1268 H 0.65921 0.23034 0.07995 0.0
H1269 H 0.68046 0.23325 0.10342 0.0
H1270 H 0.70111 0.19601 0.07978 0.0
H1271 H 0.6802 0.19312 0.05607 0.0
C1272 C 0.57775 0.13986 0.02343 0.0
C1273 C 0.58443 0.12596 0.01937 0.0
C1274 C 0.59197 0.16005 0.0279 0.0
C1275 C 0.6131 0.1667 0.02828 0.0
C1276 C 0.6198 0.15291 0.02409 0.0
C1277 C 0.60563 0.13279 0.01962 0.0
C1278 C 0.62831 0.18789 0.03335 0.0
C1279 C 0.64123 0.19041 0.04634 0.0
C1280 C 0.62995 0.20546 0.02567 0.0
C1281 C 0.61735 0.20381 0.01145 0.0
C1282 C 0.6176 0.19307 0.99773 0.0
C1283 C 0.60559 0.19147 0.98441 0.0
C1284 C 0.59338 0.20069 0.98462 0.0
C1285 C 0.5932 0.21157 0.99815 0.0
C1286 C 0.60516 0.21319 0.01151 0.0
C1287 C 0.7097 0.27398 0.05312 0.0
C1288 C 0.70433 0.28879 0.05741 0.0
C1289 C 0.69454 0.25415 0.04872 0.0
C1290 C 0.67371 0.24871 0.04861 0.0
C1291 C 0.66831 0.26351 0.05274 0.0
C1292 C 0.68346 0.28335 0.05714 0.0
C1293 C 0.6576 0.22762 0.04409 0.0
C1294 C 0.64448 0.22511 0.03123 0.0
C1295 C 0.65574 0.21003 0.05191 0.0
C1296 C 0.66828 0.21168 0.06617 0.0
C1297 C 0.66841 0.22291 0.0797 0.0
C1298 C 0.68037 0.22453 0.09306 0.0
C1299 C 0.69217 0.21486 0.09308 0.0
C1300 C 0.69198 0.20351 0.07975 0.0
C1301 C 0.68006 0.20186 0.06635 0.0
H1302 H 0.70142 0.21613 0.10343 0.0
H1303 H 0.58409 0.19944 0.9743 0.0
H1304 H 0.44961 0.56347 0.19083 0.0
H1305 H 0.44169 0.58929 0.20092 0.0
H1306 H 0.50336 0.63731 0.18958 0.0
H1307 H 0.51173 0.61156 0.18029 0.0
H1308 H 0.49279 0.64455 0.21757 0.0
H1309 H 0.46163 0.62741 0.16567 0.0
H1310 H 0.43961 0.60459 0.14408 0.0
H1311 H 0.38632 0.58394 0.17402 0.0
H1312 H 0.40808 0.60645 0.19587 0.0
H1313 H 0.47325 0.72878 0.21843 0.0
H1314 H 0.48164 0.7025 0.20998 0.0
H1315 H 0.42367 0.655 0.22887 0.0
H1316 H 0.41522 0.68114 0.23733 0.0
H1317 H 0.4322 0.64759 0.19732 0.0
H1318 H 0.46489 0.66648 0.24908 0.0
H1319 H 0.48789 0.69068 0.26961 0.0
H1320 H 0.53966 0.70984 0.23822 0.0
H1321 H 0.5169 0.68595 0.2174 0.0
C1322 C 0.46156 0.5795 0.19064 0.0
C1323 C 0.48127 0.58543 0.18463 0.0
C1324 C 0.45694 0.59427 0.19625 0.0
C1325 C 0.47184 0.61528 0.19578 0.0
C1326 C 0.49158 0.62121 0.18999 0.0
C1327 C 0.49626 0.60646 0.1845 0.0
C1328 C 0.46693 0.6311 0.20138 0.0
C1329 C 0.47968 0.64535 0.21298 0.0
C1330 C 0.44966 0.63199 0.19559 0.0
C1331 C 0.43652 0.61846 0.18246 0.0
C1332 C 0.44524 0.61788 0.16769 0.0
C1333 C 0.4328 0.60503 0.1554 0.0
C1334 C 0.41158 0.59278 0.15769 0.0
C1335 C 0.40276 0.59341 0.17227 0.0
C1336 C 0.41513 0.60623 0.18461 0.0
C1337 C 0.46236 0.71273 0.22081 0.0
C1338 C 0.44364 0.70697 0.22859 0.0
C1339 C 0.46718 0.69778 0.21605 0.0
C1340 C 0.45328 0.67686 0.21887 0.0
C1341 C 0.43459 0.67108 0.22662 0.0
C1342 C 0.42987 0.68601 0.23154 0.0
C1343 C 0.45804 0.66093 0.21345 0.0
C1344 C 0.44527 0.6467 0.20188 0.0
C1345 C 0.47544 0.66025 0.2191 0.0
C1346 C 0.48916 0.67457 0.23162 0.0
C1347 C 0.48115 0.67598 0.2465 0.0
C1348 C 0.49415 0.68962 0.2582 0.0
C1349 C 0.51521 0.70183 0.2552 0.0
C1350 C 0.52333 0.70039 0.24051 0.0
C1351 C 0.51039 0.68679 0.22877 0.0
H1352 H 0.52525 0.71238 0.26428 0.0
H1353 H 0.40198 0.58284 0.14816 0.0
H1354 H 0.92225 0.50826 0.35534 0.0
H1355 H 0.88814 0.49856 0.36541 0.0
H1356 H 0.87512 0.43617 0.37217 0.0
H1357 H 0.90897 0.44554 0.36126 0.0
H1358 H 0.84338 0.43606 0.35893 0.0
H1359 H 0.88555 0.46928 0.40422 0.0
H1360 H 0.9147 0.49663 0.41921 0.0
H1361 H 0.89364 0.53893 0.4082 0.0
H1362 H 0.8645 0.51191 0.39293 0.0
H1363 H 0.75284 0.40865 0.40469 0.0
H1364 H 0.78783 0.41656 0.39796 0.0
H1365 H 0.80212 0.47679 0.38155 0.0
H1366 H 0.7671 0.46895 0.38823 0.0
H1367 H 0.83304 0.47625 0.40144 0.0
H1368 H 0.79172 0.44223 0.35476 0.0
H1369 H 0.76236 0.41394 0.3406 0.0
H1370 H 0.78196 0.37178 0.3558 0.0
H1371 H 0.81129 0.39978 0.37026 0.0
C1372 C 0.91209 0.49241 0.3588 0.0
C1373 C 0.91834 0.47765 0.3574 0.0
C1374 C 0.89267 0.48695 0.36479 0.0
C1375 C 0.87917 0.4667 0.36979 0.0
C1376 C 0.88533 0.45191 0.36846 0.0
C1377 C 0.90475 0.45733 0.36235 0.0
C1378 C 0.85838 0.46093 0.37587 0.0
C1379 C 0.84116 0.44462 0.36843 0.0
C1380 C 0.85543 0.47228 0.38811 0.0
C1381 C 0.87292 0.4886 0.39731 0.0
C1382 C 0.88721 0.48446 0.40488 0.0
C1383 C 0.90373 0.4999 0.41345 0.0
C1384 C 0.90605 0.51952 0.41463 0.0
C1385 C 0.89183 0.52373 0.40726 0.0
C1386 C 0.8753 0.50835 0.39867 0.0
C1387 C 0.76352 0.42365 0.39981 0.0
C1388 C 0.75731 0.43821 0.39696 0.0
C1389 C 0.78342 0.42809 0.3959 0.0
C1390 C 0.79745 0.4472 0.3892 0.0
C1391 C 0.79147 0.46195 0.38671 0.0
C1392 C 0.77148 0.45743 0.39044 0.0
C1393 C 0.81823 0.45162 0.38437 0.0
C1394 C 0.83537 0.46763 0.39204 0.0
C1395 C 0.82112 0.43986 0.37249 0.0
C1396 C 0.80356 0.42305 0.36374 0.0
C1397 C 0.78966 0.42689 0.3552 0.0
C1398 C 0.77305 0.41092 0.3471 0.0
C1399 C 0.77026 0.39106 0.34734 0.0
C1400 C 0.78412 0.38716 0.35565 0.0
C1401 C 0.80074 0.40307 0.36379 0.0
H1402 H 0.75739 0.37871 0.34106 0.0
H1403 H 0.91884 0.53146 0.42127 0.0
H1404 H 0.06915 0.52247 0.41084 0.0
H1405 H 0.09164 0.53322 0.43415 0.0
H1406 H 0.13796 0.58526 0.40772 0.0
H1407 H 0.11615 0.57377 0.38394 0.0
H1408 H 0.15575 0.56972 0.42438 0.0
H1409 H 0.10551 0.58925 0.43643 0.0
H1410 H 0.07071 0.58435 0.43991 0.0
H1411 H 0.05801 0.53959 0.47675 0.0
H1412 H 0.09266 0.54402 0.47334 0.0
H1413 H 0.21266 0.62978 0.49148 0.0
H1414 H 0.18997 0.61706 0.46824 0.0
H1415 H 0.15217 0.55921 0.49222 0.0
H1416 H 0.17528 0.57142 0.51535 0.0
H1417 H 0.13008 0.57718 0.47731 0.0
H1418 H 0.18202 0.55944 0.46496 0.0
H1419 H 0.21762 0.56654 0.4615 0.0
H1420 H 0.22788 0.611 0.42499 0.0
H1421 H 0.19242 0.60438 0.4284 0.0
C1422 C 0.08424 0.53602 0.40984 0.0
C1423 C 0.09076 0.54724 0.39543 0.0
C1424 C 0.09699 0.54234 0.42331 0.0
C1425 C 0.11637 0.56029 0.42283 0.0
C1426 C 0.12303 0.57142 0.40844 0.0
C1427 C 0.11041 0.56494 0.39488 0.0
C1428 C 0.12976 0.56737 0.43727 0.0
C1429 C 0.15017 0.57159 0.43588 0.0
C1430 C 0.12244 0.56949 0.45241 0.0
C1431 C 0.10161 0.56682 0.45451 0.0
C1432 C 0.09524 0.57825 0.44519 0.0
C1433 C 0.07555 0.57557 0.44716 0.0
C1434 C 0.06214 0.56162 0.45851 0.0
C1435 C 0.06841 0.55036 0.46795 0.0
C1436 C 0.08808 0.55296 0.46601 0.0
C1437 C 0.19973 0.61423 0.49179 0.0
C1438 C 0.19596 0.60159 0.50531 0.0
C1439 C 0.18669 0.60705 0.47851 0.0
C1440 C 0.1695 0.58718 0.47851 0.0
C1441 C 0.16537 0.57463 0.49204 0.0
C1442 C 0.17855 0.5817 0.50528 0.0
C1443 C 0.15592 0.57953 0.4643 0.0
C1444 C 0.13554 0.57523 0.46576 0.0
C1445 C 0.16333 0.57765 0.44919 0.0
C1446 C 0.18462 0.58155 0.44705 0.0
C1447 C 0.19192 0.57086 0.45629 0.0
C1448 C 0.21206 0.57477 0.45432 0.0
C1449 C 0.22502 0.58925 0.44306 0.0
C1450 C 0.21784 0.59981 0.43372 0.0
C1451 C 0.19771 0.59597 0.43566 0.0
H1452 H 0.24061 0.59226 0.44155 0.0
H1453 H 0.0469 0.55958 0.46003 0.0
H1454 H 0.55029 0.06627 0.57951 0.0
H1455 H 0.56207 0.08895 0.60294 0.0
H1456 H 0.58164 0.14171 0.57218 0.0
H1457 H 0.56989 0.11908 0.54867 0.0
H1458 H 0.61104 0.14642 0.5957 0.0
H1459 H 0.53921 0.12575 0.59199 0.0
H1460 H 0.50209 0.10074 0.59002 0.0
H1461 H 0.50433 0.07379 0.63483 0.0
H1462 H 0.54155 0.09847 0.63694 0.0
H1463 H 0.62674 0.22063 0.65462 0.0
H1464 H 0.61567 0.19802 0.63131 0.0
H1465 H 0.58704 0.14497 0.66235 0.0
H1466 H 0.5971 0.16753 0.68572 0.0
H1467 H 0.56236 0.14007 0.63855 0.0
H1468 H 0.63337 0.15982 0.6429 0.0
H1469 H 0.67072 0.18368 0.6452 0.0
H1470 H 0.67065 0.21088 0.59995 0.0
H1471 H 0.63322 0.18735 0.59748 0.0
C1472 C 0.55719 0.08271 0.57775 0.0
C1473 C 0.55917 0.09094 0.56229 0.0
C1474 C 0.5638 0.09562 0.59113 0.0
C1475 C 0.57262 0.11697 0.58927 0.0
C1476 C 0.57484 0.12526 0.57384 0.0
C1477 C 0.56802 0.11233 0.56046 0.0
C1478 C 0.57946 0.13062 0.60346 0.0
C1479 C 0.6004 0.14526 0.60499 0.0
C1480 C 0.56561 0.12861 0.61575 0.0
C1481 C 0.54321 0.11383 0.61454 0.0
C1482 C 0.53182 0.11438 0.60135 0.0
C1483 C 0.51076 0.10029 0.60022 0.0
C1484 C 0.50087 0.08565 0.61227 0.0
C1485 C 0.51202 0.08512 0.62549 0.0
C1486 C 0.53309 0.09917 0.62667 0.0
C1487 C 0.61793 0.20416 0.65651 0.0
C1488 C 0.61281 0.19593 0.67208 0.0
C1489 C 0.61183 0.19123 0.64316 0.0
C1490 C 0.60075 0.16977 0.64507 0.0
C1491 C 0.59565 0.16148 0.66058 0.0
C1492 C 0.6016 0.17441 0.67395 0.0
C1493 C 0.59404 0.15598 0.63088 0.0
C1494 C 0.57308 0.14128 0.62932 0.0
C1495 C 0.60794 0.15779 0.61864 0.0
C1496 C 0.63045 0.17195 0.62008 0.0
C1497 C 0.64129 0.171 0.6335 0.0
C1498 C 0.66248 0.18444 0.63482 0.0
C1499 C 0.67304 0.19882 0.62275 0.0
C1500 C 0.66244 0.19975 0.6093 0.0
C1501 C 0.64124 0.18635 0.60793 0.0
H1502 H 0.68945 0.20921 0.6238 0.0
H1503 H 0.48455 0.07475 0.61138 0.0
H1504 H 0.51944 0.56728 0.74373 0.0
H1505 H 0.50765 0.57899 0.76645 0.0
H1506 H 0.45742 0.57426 0.73804 0.0
H1507 H 0.4699 0.56382 0.7149 0.0
H1508 H 0.47236 0.60742 0.75518 0.0
H1509 H 0.4508 0.53693 0.76621 0.0
H1510 H 0.45497 0.50658 0.76971 0.0
H1511 H 0.49738 0.53671 0.80834 0.0
H1512 H 0.49367 0.56736 0.80492 0.0
H1513 H 0.41634 0.58347 0.83805 0.0
H1514 H 0.42755 0.57285 0.81432 0.0
H1515 H 0.47713 0.63516 0.80763 0.0
H1516 H 0.4653 0.64616 0.83086 0.0
H1517 H 0.46084 0.57219 0.80764 0.0
H1518 H 0.48822 0.64491 0.76814 0.0
H1519 H 0.48002 0.67255 0.76381 0.0
H1520 H 0.41841 0.63295 0.78065 0.0
H1521 H 0.42615 0.605 0.78487 0.0
C1522 C 0.50607 0.56902 0.74219 0.0
C1523 C 0.49561 0.56452 0.72744 0.0
C1524 C 0.49918 0.57548 0.75529 0.0
C1525 C 0.48143 0.57718 0.75406 0.0
C1526 C 0.4711 0.57297 0.73932 0.0
C1527 C 0.47813 0.56676 0.72614 0.0
C1528 C 0.47357 0.58322 0.76816 0.0
C1529 C 0.46985 0.59971 0.76665 0.0
C1530 C 0.4699 0.57295 0.78307 0.0
C1531 C 0.47209 0.5545 0.78521 0.0
C1532 C 0.46112 0.53713 0.77538 0.0
C1533 C 0.46339 0.51987 0.77736 0.0
C1534 C 0.47647 0.51973 0.78922 0.0
C1535 C 0.48727 0.53685 0.79915 0.0
C1536 C 0.48508 0.55416 0.79721 0.0
C1537 C 0.42943 0.59502 0.8314 0.0
C1538 C 0.43979 0.61573 0.83632 0.0
C1539 C 0.43596 0.58886 0.81792 0.0
C1540 C 0.45306 0.60322 0.80908 0.0
C1541 C 0.46369 0.62384 0.8141 0.0
C1542 C 0.45705 0.63007 0.82752 0.0
C1543 C 0.4598 0.59651 0.7947 0.0
C1544 C 0.46337 0.57992 0.79617 0.0
C1545 C 0.46274 0.60631 0.77964 0.0
C1546 C 0.45785 0.62295 0.77698 0.0
C1547 C 0.4729 0.64208 0.77086 0.0
C1548 C 0.46834 0.65781 0.76843 0.0
C1549 C 0.44873 0.65453 0.772 0.0
C1550 C 0.43362 0.6355 0.77795 0.0
C1551 C 0.43809 0.61972 0.78038 0.0
H1552 H 0.44523 0.66673 0.77013 0.0
H1553 H 0.4782 0.50636 0.79073 0.0
H1554 H 0.94685 0.5267 0.89259 0.0
H1555 H 0.92389 0.51678 0.91573 0.0
H1556 H 0.92926 0.46261 0.92217 0.0
H1557 H 0.9514 0.47189 0.89861 0.0
H1558 H 0.8907 0.45325 0.92586 0.0
H1559 H 0.95613 0.50616 0.94574 0.0
H1560 H 0.98721 0.54055 0.94632 0.0
H1561 H 0.94978 0.5684 0.95294 0.0
H1562 H 0.91844 0.53418 0.95219 0.0
H1563 H 0.85836 0.42745 0.00605 0.0
H1564 H 0.87933 0.4393 0.98179 0.0
H1565 H 0.86469 0.48772 0.97645 0.0
H1566 H 0.84381 0.47607 0.00093 0.0
H1567 H 0.9064 0.50101 0.97164 0.0
H1568 H 0.84093 0.44711 0.95332 0.0
H1569 H 0.81039 0.41235 0.95345 0.0
H1570 H 0.84867 0.38594 0.94447 0.0
H1571 H 0.87949 0.42054 0.94453 0.0
C1572 C 0.94295 0.51255 0.8988 0.0
C1573 C 0.95106 0.50014 0.89376 0.0
C1574 C 0.93 0.50701 0.91215 0.0
C1575 C 0.92508 0.4891 0.92083 0.0
C1576 C 0.93291 0.47655 0.9157 0.0
C1577 C 0.94575 0.48199 0.90232 0.0
C1578 C 0.91176 0.48333 0.93526 0.0
C1579 C 0.89427 0.46363 0.93593 0.0
C1580 C 0.91611 0.49705 0.94826 0.0
C1581 C 0.93493 0.51763 0.94873 0.0
C1582 C 0.95452 0.51963 0.94719 0.0
C1583 C 0.97218 0.53909 0.94757 0.0
C1584 C 0.97047 0.55665 0.94962 0.0
C1585 C 0.95108 0.55479 0.95133 0.0
C1586 C 0.93336 0.53536 0.95094 0.0
C1587 C 0.85977 0.44075 0.99982 0.0
C1588 C 0.84946 0.45085 0.0054 0.0
C1589 C 0.87161 0.4474 0.98589 0.0
C1590 C 0.87338 0.46425 0.97726 0.0
C1591 C 0.86344 0.47463 0.98293 0.0
C1592 C 0.85144 0.4679 0.99683 0.0
C1593 C 0.88557 0.47088 0.96227 0.0
C1594 C 0.9028 0.49072 0.9615 0.0
C1595 C 0.88108 0.45725 0.94922 0.0
C1596 C 0.86255 0.43642 0.94907 0.0
C1597 C 0.84286 0.43388 0.9515 0.0
C1598 C 0.82549 0.41421 0.95151 0.0
C1599 C 0.82759 0.39694 0.949 0.0
C1600 C 0.84707 0.39932 0.94643 0.0
C1601 C 0.86449 0.41897 0.94642 0.0
H1602 H 0.81412 0.38172 0.94902 0.0
H1603 H 0.98416 0.5717 0.94991 0.0
H1604 H 0.50299 0.94357 0.06304 0.0
H1605 H 0.48931 0.91973 0.0857 0.0
H1606 H 0.43642 0.92795 0.08749 0.0
H1607 H 0.45011 0.95196 0.06488 0.0
H1608 H 0.4539 0.9305 0.11747 0.0
H1609 H 0.43062 0.88511 0.0723 0.0
H1610 H 0.43422 0.87085 0.04669 0.0
H1611 H 0.47576 0.85449 0.06876 0.0
H1612 H 0.47265 0.86894 0.09446 0.0
H1613 H 0.39659 0.84789 0.17165 0.0
H1614 H 0.40705 0.87029 0.14809 0.0
H1615 H 0.45924 0.86162 0.14157 0.0
H1616 H 0.44902 0.8394 0.16514 0.0
H1617 H 0.44035 0.8588 0.11348 0.0
H1618 H 0.46518 0.90538 0.15809 0.0
H1619 H 0.46252 0.92018 0.18374 0.0
H1620 H 0.4191 0.93481 0.16285 0.0
H1621 H 0.42127 0.91982 0.13712 0.0
C1622 C 0.48849 0.94036 0.06831 0.0
C1623 C 0.4776 0.94959 0.0622 0.0
C1624 C 0.48063 0.92665 0.08117 0.0
C1625 C 0.46178 0.92198 0.08817 0.0
C1626 C 0.45096 0.93132 0.08221 0.0
C1627 C 0.45873 0.9449 0.06925 0.0
C1628 C 0.45352 0.90749 0.10185 0.0
C1629 C 0.4506 0.91472 0.11655 0.0
C1630 C 0.44969 0.88707 0.10069 0.0
C1631 C 0.45155 0.87829 0.08527 0.0
C1632 C 0.44066 0.87863 0.07166 0.0
C1633 C 0.44259 0.87048 0.05713 0.0
C1634 C 0.45525 0.86181 0.05609 0.0
C1635 C 0.46598 0.86123 0.06958 0.0
C1636 C 0.46412 0.86938 0.08414 0.0
C1637 C 0.41036 0.85084 0.16526 0.0
C1638 C 0.42198 0.84187 0.17031 0.0
C1639 C 0.41629 0.86361 0.15178 0.0
C1640 C 0.43403 0.86776 0.14316 0.0
C1641 C 0.44546 0.85857 0.14801 0.0
C1642 C 0.43955 0.84581 0.16146 0.0
C1643 C 0.44084 0.88184 0.12916 0.0
C1644 C 0.44351 0.87454 0.11439 0.0
C1645 C 0.44454 0.90224 0.13028 0.0
C1646 C 0.44321 0.91126 0.14573 0.0
C1647 C 0.45492 0.91159 0.159 0.0
C1648 C 0.45353 0.92004 0.17355 0.0
C1649 C 0.4406 0.92837 0.17494 0.0
C1650 C 0.42908 0.92831 0.16176 0.0
C1651 C 0.43039 0.91985 0.14719 0.0
H1652 H 0.43956 0.93492 0.18621 0.0
H1653 H 0.45672 0.85551 0.04483 0.0
H1654 H 0.57739 0.48383 0.2137 0.0
H1655 H 0.58933 0.47259 0.2367 0.0
H1656 H 0.53904 0.46788 0.26501 0.0
H1657 H 0.52784 0.48046 0.24245 0.0
H1658 H 0.57194 0.48424 0.28225 0.0
H1659 H 0.5394 0.42478 0.2481 0.0
H1660 H 0.53333 0.40545 0.22289 0.0
H1661 H 0.59572 0.41781 0.22332 0.0
H1662 H 0.60224 0.43745 0.24843 0.0
H1663 H 0.57352 0.42091 0.34472 0.0
H1664 H 0.5633 0.43296 0.32114 0.0
H1665 H 0.61942 0.44578 0.29723 0.0
H1666 H 0.63007 0.43429 0.3209 0.0
H1667 H 0.58466 0.42561 0.27767 0.0
H1668 H 0.61635 0.48442 0.31256 0.0
H1669 H 0.62152 0.503 0.33805 0.0
H1670 H 0.55916 0.49068 0.33644 0.0
H1671 H 0.55354 0.47176 0.31105 0.0
C1672 C 0.56902 0.4807 0.22488 0.0
C1673 C 0.55156 0.48299 0.22615 0.0
C1674 C 0.57571 0.47398 0.23797 0.0
C1675 C 0.56487 0.469 0.25253 0.0
C1676 C 0.5476 0.4715 0.25389 0.0
C1677 C 0.54107 0.47848 0.24089 0.0
C1678 C 0.57154 0.46136 0.26642 0.0
C1679 C 0.57444 0.47124 0.28127 0.0
C1680 C 0.57529 0.44468 0.26511 0.0
C1681 C 0.57136 0.43275 0.25006 0.0
C1682 C 0.55186 0.42349 0.24276 0.0
C1683 C 0.54833 0.41247 0.22849 0.0
C1684 C 0.56414 0.41045 0.22148 0.0
C1685 C 0.5835 0.41941 0.22874 0.0
C1686 C 0.58711 0.43047 0.243 0.0
C1687 C 0.5838 0.42645 0.33452 0.0
C1688 C 0.60268 0.42671 0.33478 0.0
C1689 C 0.57788 0.43324 0.32102 0.0
C1690 C 0.59069 0.4404 0.3075 0.0
C1691 C 0.6093 0.44026 0.30754 0.0
C1692 C 0.6153 0.43359 0.32107 0.0
C1693 C 0.5848 0.44838 0.29343 0.0
C1694 C 0.58212 0.43859 0.27859 0.0
C1695 C 0.58108 0.46502 0.29476 0.0
C1696 C 0.58447 0.4765 0.30998 0.0
C1697 C 0.60369 0.48553 0.31771 0.0
C1698 C 0.60671 0.49615 0.33213 0.0
C1699 C 0.59066 0.49797 0.33888 0.0
C1700 C 0.57157 0.48923 0.3312 0.0
C1701 C 0.56847 0.47857 0.31679 0.0
H1702 H 0.59303 0.5062 0.35004 0.0
H1703 H 0.56137 0.40189 0.21044 0.0
H1704 H 0.52312 0.95357 0.42667 0.0
H1705 H 0.51294 0.93039 0.40359 0.0
H1706 H 0.453 0.92514 0.40386 0.0
H1707 H 0.4629 0.94789 0.42715 0.0
H1708 H 0.45033 0.88804 0.4 0.0
H1709 H 0.48889 0.95566 0.37694 0.0
H1710 H 0.519 0.99035 0.37352 0.0
H1711 H 0.55621 0.96389 0.36068 0.0
H1712 H 0.52637 0.92902 0.36424 0.0
H1713 H 0.41408 0.84855 0.32274 0.0
H1714 H 0.42657 0.87078 0.34626 0.0
H1715 H 0.48427 0.87142 0.34343 0.0
H1716 H 0.47175 0.84881 0.31999 0.0
H1717 H 0.48943 0.91 0.34897 0.0
H1718 H 0.45035 0.84228 0.37089 0.0
H1719 H 0.42006 0.80766 0.37403 0.0
H1720 H 0.38374 0.83433 0.38894 0.0
H1721 H 0.41375 0.86914 0.38565 0.0
C1722 C 0.50771 0.94733 0.42189 0.0
C1723 C 0.49382 0.95261 0.42869 0.0
C1724 C 0.50198 0.93423 0.40863 0.0
C1725 C 0.48229 0.92622 0.40192 0.0
C1726 C 0.4683 0.93121 0.40883 0.0
C1727 C 0.47403 0.94433 0.42205 0.0
C1728 C 0.47618 0.9126 0.38769 0.0
C1729 C 0.45875 0.89292 0.38879 0.0
C1730 C 0.4875 0.91879 0.3732 0.0
C1731 C 0.50545 0.93974 0.37104 0.0
C1732 C 0.50353 0.95724 0.37353 0.0
C1733 C 0.52054 0.97693 0.37154 0.0
C1734 C 0.53952 0.97932 0.36693 0.0
C1735 C 0.54151 0.96202 0.36427 0.0
C1736 C 0.52455 0.94228 0.36627 0.0
C1737 C 0.42935 0.85322 0.3272 0.0
C1738 C 0.44184 0.84672 0.31957 0.0
C1739 C 0.43649 0.866 0.34061 0.0
C1740 C 0.45624 0.87253 0.3467 0.0
C1741 C 0.46896 0.86652 0.33892 0.0
C1742 C 0.46181 0.85366 0.3255 0.0
C1743 C 0.46346 0.88555 0.36125 0.0
C1744 C 0.48109 0.90509 0.36021 0.0
C1745 C 0.45233 0.87925 0.3758 0.0
C1746 C 0.43426 0.85833 0.37788 0.0
C1747 C 0.43586 0.84077 0.37472 0.0
C1748 C 0.41875 0.82111 0.37654 0.0
C1749 C 0.39997 0.8188 0.38164 0.0
C1750 C 0.39829 0.83615 0.38497 0.0
C1751 C 0.41535 0.85585 0.38314 0.0
H1752 H 0.38674 0.80356 0.38305 0.0
H1753 H 0.55267 0.99458 0.36539 0.0
H1754 H 0.56178 0.5173 0.57725 0.0
H1755 H 0.57452 0.50798 0.55359 0.0
H1756 H 0.59574 0.47548 0.58359 0.0
H1757 H 0.58343 0.48525 0.60735 0.0
H1758 H 0.62317 0.49575 0.56126 0.0
H1759 H 0.55026 0.45006 0.56184 0.0
H1760 H 0.5137 0.44049 0.56288 0.0
H1761 H 0.52078 0.4739 0.51934 0.0
H1762 H 0.55748 0.48391 0.51815 0.0
H1763 H 0.62738 0.43039 0.50095 0.0
H1764 H 0.6188 0.44426 0.5244 0.0
H1765 H 0.60716 0.48354 0.49367 0.0
H1766 H 0.61573 0.46971 0.47014 0.0
H1767 H 0.57556 0.46076 0.51588 0.0
H1768 H 0.64899 0.50477 0.51525 0.0
H1769 H 0.68502 0.51253 0.51456 0.0
H1770 H 0.67607 0.47977 0.55874 0.0
H1771 H 0.63987 0.47154 0.55958 0.0
C1772 C 0.56914 0.50815 0.57877 0.0
C1773 C 0.57148 0.50184 0.5941 0.0
C1774 C 0.5764 0.50281 0.56525 0.0
C1775 C 0.58576 0.4907 0.56677 0.0
C1776 C 0.58854 0.4848 0.58212 0.0
C1777 C 0.58151 0.49037 0.59567 0.0
C1778 C 0.59232 0.48392 0.55233 0.0
C1779 C 0.61268 0.48789 0.55143 0.0
C1780 C 0.57875 0.47396 0.53935 0.0
C1781 C 0.55667 0.46791 0.54 0.0
C1782 C 0.54406 0.45549 0.55255 0.0
C1783 C 0.52331 0.44997 0.55316 0.0
C1784 C 0.51494 0.45663 0.54121 0.0
C1785 C 0.52729 0.46878 0.5286 0.0
C1786 C 0.54807 0.47437 0.52795 0.0
C1787 C 0.62305 0.44203 0.49922 0.0
C1788 C 0.62218 0.44897 0.48375 0.0
C1789 C 0.61829 0.45001 0.51261 0.0
C1790 C 0.61245 0.46498 0.51074 0.0
C1791 C 0.61169 0.47204 0.49533 0.0
C1792 C 0.61669 0.46422 0.48194 0.0
C1793 C 0.60633 0.47261 0.52486 0.0
C1794 C 0.58604 0.46873 0.5257 0.0
C1795 C 0.61987 0.48238 0.53785 0.0
C1796 C 0.64166 0.48737 0.5374 0.0
C1797 C 0.65465 0.49906 0.52475 0.0
C1798 C 0.67512 0.50358 0.52434 0.0
C1799 C 0.68282 0.49661 0.53658 0.0
C1800 C 0.67008 0.48514 0.54926 0.0
C1801 C 0.64959 0.48057 0.54972 0.0
H1802 H 0.69867 0.50012 0.53624 0.0
H1803 H 0.49886 0.45234 0.5417 0.0
H1804 H 0.0919 0.53688 0.75749 0.0
H1805 H 0.11576 0.54964 0.73489 0.0
H1806 H 0.11427 0.60631 0.73535 0.0
H1807 H 0.09102 0.59408 0.75835 0.0
H1808 H 0.10909 0.58843 0.70452 0.0
H1809 H 0.15472 0.6075 0.74973 0.0
H1810 H 0.16789 0.60132 0.77495 0.0
H1811 H 0.17965 0.55748 0.75121 0.0
H1812 H 0.16625 0.56317 0.72589 0.0
H1813 H 0.19205 0.6439 0.6505 0.0
H1814 H 0.16912 0.63318 0.67376 0.0
H1815 H 0.17716 0.58055 0.68011 0.0
H1816 H 0.20037 0.59142 0.65708 0.0
H1817 H 0.17908 0.59726 0.70792 0.0
H1818 H 0.13289 0.5767 0.66318 0.0
H1819 H 0.11881 0.58133 0.63782 0.0
H1820 H 0.10704 0.62592 0.66023 0.0
H1821 H 0.12131 0.62175 0.68568 0.0
C1822 C 0.09684 0.55218 0.75297 0.0
C1823 C 0.08952 0.56445 0.75982 0.0
C1824 C 0.11039 0.55938 0.73998 0.0
C1825 C 0.11681 0.57893 0.73352 0.0
C1826 C 0.10941 0.59114 0.74015 0.0
C1827 C 0.09602 0.58405 0.75325 0.0
C1828 C 0.13123 0.5866 0.71979 0.0
C1829 C 0.12451 0.59066 0.70529 0.0
C1830 C 0.15112 0.58898 0.72076 0.0
C1831 C 0.15929 0.58561 0.73595 0.0
C1832 C 0.15995 0.59641 0.74992 0.0
C1833 C 0.16749 0.59302 0.76423 0.0
C1834 C 0.17456 0.57898 0.76469 0.0
C1835 C 0.17415 0.56833 0.75084 0.0
C1836 C 0.1666 0.57164 0.7365 0.0
C1837 C 0.18883 0.63 0.65683 0.0
C1838 C 0.19798 0.61849 0.65198 0.0
C1839 C 0.17571 0.62387 0.6701 0.0
C1840 C 0.1712 0.6059 0.67859 0.0
C1841 C 0.18043 0.59448 0.67379 0.0
C1842 C 0.19371 0.60072 0.66065 0.0
C1843 C 0.15695 0.59902 0.69251 0.0
C1844 C 0.16369 0.5951 0.7071 0.0
C1845 C 0.13699 0.59656 0.69156 0.0
C1846 C 0.12837 0.59907 0.67629 0.0
C1847 C 0.12745 0.58761 0.66267 0.0
C1848 C 0.11941 0.59013 0.64828 0.0
C1849 C 0.11209 0.60395 0.64741 0.0
C1850 C 0.11274 0.61524 0.66093 0.0
C1851 C 0.12079 0.6128 0.67533 0.0
H1852 H 0.10587 0.60588 0.63626 0.0
H1853 H 0.18039 0.57638 0.77578 0.0
H1854 H 0.5246 0.0945 0.93026 0.0
H1855 H 0.53533 0.11745 0.90708 0.0
H1856 H 0.5925 0.11699 0.90512 0.0
H1857 H 0.58166 0.09346 0.92796 0.0
H1858 H 0.59711 0.15663 0.90229 0.0
H1859 H 0.55679 0.08891 0.87933 0.0
H1860 H 0.52587 0.05468 0.87643 0.0
H1861 H 0.48994 0.08287 0.86449 0.0
H1862 H 0.5206 0.11729 0.86755 0.0
H1863 H 0.63236 0.19982 0.82562 0.0
H1864 H 0.62118 0.17777 0.84933 0.0
H1865 H 0.56065 0.17073 0.84514 0.0
H1866 H 0.57169 0.19242 0.82112 0.0
H1867 H 0.55713 0.13523 0.85165 0.0
H1868 H 0.59627 0.20258 0.87395 0.0
H1869 H 0.6263 0.2373 0.87742 0.0
H1870 H 0.66327 0.21098 0.8914 0.0
H1871 H 0.63352 0.17608 0.88779 0.0
C1872 C 0.53936 0.09905 0.92481 0.0
C1873 C 0.5522 0.09198 0.93096 0.0
C1874 C 0.54551 0.11227 0.91162 0.0
C1875 C 0.56464 0.11879 0.90435 0.0
C1876 C 0.57769 0.11216 0.91061 0.0
C1877 C 0.57149 0.09878 0.92372 0.0
C1878 C 0.57095 0.13236 0.8901 0.0
C1879 C 0.58855 0.15191 0.89113 0.0
C1880 C 0.55937 0.12636 0.87576 0.0
C1881 C 0.54095 0.10568 0.87383 0.0
C1882 C 0.54226 0.08781 0.87622 0.0
C1883 C 0.52478 0.06837 0.87452 0.0
C1884 C 0.50594 0.0666 0.87032 0.0
C1885 C 0.50454 0.08426 0.86777 0.0
C1886 C 0.52196 0.10374 0.86947 0.0
C1887 C 0.61671 0.19369 0.82983 0.0
C1888 C 0.60292 0.19792 0.82159 0.0
C1889 C 0.61035 0.18112 0.84341 0.0
C1890 C 0.59016 0.17285 0.84921 0.0
C1891 C 0.57631 0.17695 0.84091 0.0
C1892 C 0.58261 0.18932 0.8272 0.0
C1893 C 0.58342 0.15961 0.86373 0.0
C1894 C 0.56572 0.14008 0.86278 0.0
C1895 C 0.59478 0.16574 0.87822 0.0
C1896 C 0.61271 0.18671 0.88046 0.0
C1897 C 0.61084 0.20419 0.87765 0.0
C1898 C 0.62781 0.22391 0.87966 0.0
C1899 C 0.6467 0.22635 0.88459 0.0
C1900 C 0.64864 0.20907 0.88756 0.0
C1901 C 0.63172 0.18932 0.88555 0.0
H1902 H 0.65981 0.24162 0.88615 0.0
H1903 H 0.49243 0.05154 0.86901 0.0
H1904 H 0.50185 0.57226 0.08784 0.0
H1905 H 0.48815 0.58201 0.06511 0.0
H1906 H 0.42852 0.52834 0.07261 0.0
H1907 H 0.44238 0.51792 0.09495 0.0
H1908 H 0.43751 0.53317 0.04172 0.0
H1909 H 0.43815 0.57648 0.08369 0.0
H1910 H 0.45275 0.6012 0.106 0.0
H1911 H 0.49778 0.64627 0.07427 0.0
H1912 H 0.48363 0.62172 0.0518 0.0
H1913 H 0.38825 0.5705 0.9885 0.0
H1914 H 0.39779 0.55861 0.01269 0.0
H1915 H 0.461 0.60642 0.00663 0.0
H1916 H 0.45156 0.61848 0.98263 0.0
H1917 H 0.44717 0.60345 0.03781 0.0
H1918 H 0.44685 0.5584 0.99623 0.0
H1919 H 0.43133 0.53328 0.97425 0.0
H1920 H 0.38399 0.49101 0.00602 0.0
H1921 H 0.39908 0.51601 0.02815 0.0
C1922 C 0.48587 0.56238 0.08457 0.0
C1923 C 0.47323 0.5443 0.09325 0.0
C1924 C 0.47799 0.56813 0.07168 0.0
C1925 C 0.45721 0.55609 0.0673 0.0
C1926 C 0.44456 0.53793 0.07583 0.0
C1927 C 0.45247 0.5321 0.08869 0.0
C1928 C 0.44887 0.56234 0.05365 0.0
C1929 C 0.43931 0.54842 0.041 0.0
C1930 C 0.45141 0.58232 0.05261 0.0
C1931 C 0.45992 0.59719 0.06608 0.0
C1932 C 0.45126 0.59161 0.08149 0.0
C1933 C 0.45944 0.60561 0.09416 0.0
C1934 C 0.47621 0.62528 0.09156 0.0
C1935 C 0.4848 0.63102 0.07627 0.0
C1936 C 0.47669 0.61708 0.06355 0.0
C1937 C 0.40415 0.57849 0.99239 0.0
C1938 C 0.41918 0.59534 0.98363 0.0
C1939 C 0.40959 0.57163 0.00613 0.0
C1940 C 0.43012 0.58157 0.01138 0.0
C1941 C 0.44508 0.59852 0.00277 0.0
C1942 C 0.43969 0.60528 0.98899 0.0
C1943 C 0.43615 0.57439 0.02584 0.0
C1944 C 0.44524 0.58815 0.03863 0.0
C1945 C 0.43299 0.55422 0.02708 0.0
C1946 C 0.42396 0.53917 0.01379 0.0
C1947 C 0.43303 0.54382 0.99849 0.0
C1948 C 0.42433 0.52959 0.98602 0.0
C1949 C 0.40665 0.51059 0.98872 0.0
C1950 C 0.39767 0.50575 0.00393 0.0
C1951 C 0.40629 0.51994 0.01645 0.0
H1952 H 0.39994 0.49959 0.97905 0.0
H1953 H 0.48252 0.63609 0.10139 0.0
H1954 H 0.94599 0.44617 0.26371 0.0
H1955 H 0.92256 0.43343 0.24086 0.0
H1956 H 0.92692 0.49272 0.23594 0.0
H1957 H 0.94953 0.50527 0.25927 0.0
H1958 H 0.8885 0.4633 0.23228 0.0
H1959 H 0.95377 0.47723 0.2112 0.0
H1960 H 0.98524 0.47469 0.20978 0.0
H1961 H 0.94872 0.40944 0.20252 0.0
H1962 H 0.91699 0.41155 0.20411 0.0
H1963 H 0.85495 0.45684 0.15211 0.0
H1964 H 0.87588 0.46607 0.17634 0.0
H1965 H 0.86178 0.40319 0.18168 0.0
H1966 H 0.8402 0.39359 0.15766 0.0
H1967 H 0.90382 0.43232 0.18554 0.0
H1968 H 0.83841 0.41947 0.2053 0.0
H1969 H 0.80755 0.42314 0.20596 0.0
H1970 H 0.8453 0.48789 0.21497 0.0
H1971 H 0.87644 0.48467 0.21413 0.0
C1972 C 0.94177 0.45643 0.25791 0.0
C1973 C 0.94973 0.47679 0.26331 0.0
C1974 C 0.92854 0.44919 0.24472 0.0
C1975 C 0.92322 0.46221 0.23653 0.0
C1976 C 0.93089 0.48242 0.24203 0.0
C1977 C 0.94399 0.48963 0.25527 0.0
C1978 C 0.90967 0.45484 0.22222 0.0
C1979 C 0.89199 0.45674 0.222 0.0
C1980 C 0.91395 0.44583 0.20893 0.0
C1981 C 0.933 0.44452 0.20795 0.0
C1982 C 0.95244 0.46232 0.20943 0.0
C1983 C 0.97033 0.46096 0.20857 0.0
C1984 C 0.96898 0.44191 0.20611 0.0
C1985 C 0.94974 0.42418 0.20445 0.0
C1986 C 0.9318 0.42545 0.20532 0.0
C1987 C 0.85601 0.44486 0.15853 0.0
C1988 C 0.84571 0.42441 0.15297 0.0
C1989 C 0.86809 0.45021 0.17233 0.0
C1990 C 0.87021 0.43527 0.18085 0.0
C1991 C 0.86032 0.41494 0.17524 0.0
C1992 C 0.84807 0.40952 0.16148 0.0
C1993 C 0.88285 0.44101 0.1956 0.0
C1994 C 0.90032 0.43879 0.19589 0.0
C1995 C 0.87849 0.44989 0.20889 0.0
C1996 C 0.85978 0.45186 0.2095 0.0
C1997 C 0.84015 0.43453 0.20729 0.0
C1998 C 0.8226 0.43652 0.20772 0.0
C1999 C 0.82447 0.45574 0.21047 0.0
C2000 C 0.84388 0.47301 0.21283 0.0
C2001 C 0.86148 0.47111 0.21239 0.0
H2002 H 0.81086 0.45725 0.2108 0.0
H2003 H 0.98285 0.44089 0.20544 0.0
loop_
_geom_bond_atom_site_label_1
_geom_bond_atom_site_label_2
_geom_bond_distance
_geom_bond_site_symmetry_2
_ccdc_geom_bond_type
C0 C1 1.384 . S
C0 C2 1.384 . S
C0 H28 0.931 . S
C1 C0 1.384 . S
C1 C4 1.382 . S
C2 C0 1.384 . S
C2 C3 1.381 . S
C2 H29 0.930 . S
C3 C2 1.381 . S
C3 C5 1.381 . S
C3 C6 1.487 1_655 S
C4 C1 1.382 . S
C4 C5 1.387 . S
C4 H30 0.930 . S
C5 C3 1.381 . S
C5 C4 1.387 . S
C5 H31 0.931 . S
C6 C3 1.487 1_455 S
C6 C13 1.399 . S
C6 N44 1.343 . S
C7 C8 1.384 . S
C7 C9 1.384 . S
C7 H32 0.931 . S
C8 C7 1.384 . S
C8 C11 1.382 . S
C9 C7 1.384 . S
C9 C10 1.381 . S
C9 H33 0.930 . S
C10 C9 1.381 . S
C10 C12 1.381 . S
C10 C13 1.487 1_655 S
C11 C8 1.382 . S
C11 C12 1.387 . S
C11 H34 0.930 . S
C12 C10 1.381 . S
C12 C11 1.387 . S
C12 H35 0.931 1_655 S
C13 C6 1.399 . S
C13 C10 1.487 1_455 S
C13 N45 1.343 . S
C14 C15 1.384 . S
C14 C16 1.384 . S
C14 H36 0.931 . S
C15 C14 1.384 . S
C15 C18 1.382 . S
C16 C14 1.384 . S
C16 C17 1.381 . S
C16 H37 0.930 . S
C17 C16 1.381 . S
C17 C19 1.381 . S
C17 C20 1.487 . S
C18 C15 1.382 . S
C18 C19 1.387 . S
C18 H38 0.930 . S
C19 C17 1.381 . S
C19 C18 1.387 . S
C19 H39 0.931 . S
C20 C17 1.487 . S
C20 C27 1.399 . S
C20 N45 1.343 . S
C21 C22 1.384 . S
C21 C23 1.384 . S
C21 H40 0.931 . S
C22 C21 1.384 . S
C22 C25 1.382 . S
C23 C21 1.384 . S
C23 C24 1.381 . S
C23 H41 0.930 . S
C24 C23 1.381 . S
C24 C26 1.381 . S
C24 C27 1.487 . S
C25 C22 1.382 . S
C25 C26 1.387 . S
C25 H42 0.930 . S
C26 C24 1.381 . S
C26 C25 1.387 . S
C26 H43 0.931 . S
C27 C20 1.399 . S
C27 C24 1.487 . S
C27 N44 1.343 . S
H28 C0 0.931 . S
H29 C2 0.930 . S
H30 C4 0.930 . S
H31 C5 0.931 . S
H32 C7 0.931 . S
H33 C9 0.930 . S
H34 C11 0.930 . S
H35 C12 0.931 1_455 S
H36 C14 0.931 . S
H37 C16 0.930 . S
H38 C18 0.930 . S
H39 C19 0.931 . S
H40 C21 0.931 . S
H41 C23 0.930 . S
H42 C25 0.930 . S
H43 C26 0.931 . S
N44 C6 1.343 . S
N44 C27 1.343 . S
N45 C13 1.343 . S
N45 C20 1.343 . S
C46 C47 1.384 . S
C46 C48 1.384 . S
C46 H74 0.931 . S
C47 C46 1.384 . S
C47 C50 1.382 . S
C48 C46 1.384 . S
C48 C49 1.381 . S
C48 H75 0.930 . S
C49 C48 1.381 . S
C49 C51 1.381 . S
C49 C52 1.487 1_565 S
C50 C47 1.382 . S
C50 C51 1.387 . S
C50 H76 0.930 . S
C51 C49 1.381 . S
C51 C50 1.387 . S
C51 H77 0.931 . S
C52 C49 1.487 1_545 S
C52 C59 1.399 . S
C52 N90 1.343 . S
C53 C54 1.384 . S
C53 C55 1.384 . S
C53 H78 0.931 . S
C54 C53 1.384 . S
C54 C57 1.382 . S
C55 C53 1.384 . S
C55 C56 1.381 . S
C55 H79 0.930 . S
C56 C55 1.381 . S
C56 C58 1.381 . S
C56 C59 1.487 1_565 S
C57 C54 1.382 . S
C57 C58 1.387 . S
C57 H80 0.930 . S
C58 C56 1.381 . S
C58 C57 1.387 . S
C58 H81 0.931 1_565 S
C59 C52 1.399 . S
C59 C56 1.487 1_545 S
C59 N91 1.343 . S
C60 C61 1.384 . S
C60 C62 1.384 . S
C60 H82 0.931 . S
C61 C60 1.384 . S
C61 C64 1.382 . S
C62 C60 1.384 . S
C62 C63 1.381 . S
C62 H83 0.930 . S
C63 C62 1.381 . S
C63 C65 1.381 . S
C63 C66 1.487 . S
C64 C61 1.382 . S
C64 C65 1.387 . S
C64 H84 0.930 . S
C65 C63 1.381 . S
C65 C64 1.387 . S
C65 H85 0.931 . S
C66 C63 1.487 . S
C66 C73 1.399 . S
C66 N91 1.343 . S
C67 C68 1.384 . S
C67 C69 1.384 . S
C67 H86 0.931 . S
C68 C67 1.384 . S
C68 C71 1.382 . S
C69 C67 1.384 . S
C69 C70 1.381 . S
C69 H87 0.930 . S
C70 C69 1.381 . S
C70 C72 1.381 . S
C70 C73 1.487 . S
C71 C68 1.382 . S
C71 C72 1.387 . S
C71 H88 0.930 . S
C72 C70 1.381 . S
C72 C71 1.387 . S
C72 H89 0.931 . S
C73 C66 1.399 . S
C73 C70 1.487 . S
C73 N90 1.343 . S
H74 C46 0.931 . S
H75 C48 0.930 . S
H76 C50 0.930 . S
H77 C51 0.931 . S
H78 C53 0.931 . S
H79 C55 0.930 . S
H80 C57 0.930 . S
H81 C58 0.931 1_545 S
H82 C60 0.931 . S
H83 C62 0.930 . S
H84 C64 0.930 . S
H85 C65 0.931 . S
H86 C67 0.931 . S
H87 C69 0.930 . S
H88 C71 0.930 . S
H89 C72 0.931 . S
N90 C52 1.343 . S
N90 C73 1.343 . S
N91 C59 1.343 . S
N91 C66 1.343 . S
C92 C93 1.384 . S
C92 C94 1.384 . S
C92 H120 0.931 . S
C93 C92 1.384 . S
C93 C96 1.382 . S
C94 C92 1.384 . S
C94 C95 1.381 . S
C94 H121 0.930 . S
C95 C94 1.381 . S
C95 C97 1.381 . S
C95 C98 1.487 . S
C96 C93 1.382 . S
C96 C97 1.387 . S
C96 H122 0.930 . S
C97 C95 1.381 . S
C97 C96 1.387 . S
C97 H123 0.931 . S
C98 C95 1.487 . S
C98 C105 1.399 . S
C98 N136 1.343 . S
C99 C100 1.384 . S
C99 C101 1.384 . S
C99 H124 0.931 . S
C100 C99 1.384 . S
C100 C103 1.382 . S
C101 C99 1.384 . S
C101 C102 1.381 . S
C101 H125 0.930 . S
C102 C101 1.381 . S
C102 C104 1.381 . S
C102 C105 1.487 . S
C103 C100 1.382 . S
C103 C104 1.387 . S
C103 H126 0.930 . S
C104 C102 1.381 . S
C104 C103 1.387 . S
C104 H127 0.931 . S
C105 C98 1.399 . S
C105 C102 1.487 . S
C105 N137 1.343 . S
C106 C107 1.384 . S
C106 C108 1.384 . S
C106 H128 0.931 . S
C107 C106 1.384 . S
C107 C110 1.382 . S
C108 C106 1.384 . S
C108 C109 1.381 . S
C108 H129 0.930 . S
C109 C108 1.381 . S
C109 C111 1.381 . S
C109 C112 1.487 . S
C110 C107 1.382 . S
C110 C111 1.387 . S
C110 H130 0.930 . S
C111 C109 1.381 . S
C111 C110 1.387 . S
C111 H131 0.931 . S
C112 C109 1.487 . S
C112 C119 1.399 . S
C112 N137 1.343 . S
C113 C114 1.384 . S
C113 C115 1.384 . S
C113 H132 0.931 . S
C114 C113 1.384 . S
C114 C117 1.382 . S
C115 C113 1.384 . S
C115 C116 1.381 . S
C115 H133 0.930 . S
C116 C115 1.381 . S
C116 C118 1.381 . S
C116 C119 1.487 . S
C117 C114 1.382 . S
C117 C118 1.387 . S
C117 H134 0.930 . S
C118 C116 1.381 . S
C118 C117 1.387 . S
C118 H135 0.931 . S
C119 C112 1.399 . S
C119 C116 1.487 . S
C119 N136 1.343 . S
H120 C92 0.931 . S
H121 C94 0.930 . S
H122 C96 0.930 . S
H123 C97 0.931 . S
H124 C99 0.931 . S
H125 C101 0.930 . S
H126 C103 0.930 . S
H127 C104 0.931 . S
H128 C106 0.931 . S
H129 C108 0.930 . S
H130 C110 0.930 . S
H131 C111 0.931 . S
H132 C113 0.931 . S
H133 C115 0.930 . S
H134 C117 0.930 . S
H135 C118 0.931 . S
N136 C98 1.343 . S
N136 C119 1.343 . S
N137 C105 1.343 . S
N137 C112 1.343 . S
C138 C139 1.384 . S
C138 C140 1.384 . S
C138 H166 0.931 . S
C139 C138 1.384 . S
C139 C142 1.382 . S
C140 C138 1.384 . S
C140 C141 1.381 . S
C140 H167 0.930 . S
C141 C140 1.381 . S
C141 C143 1.381 . S
C141 C144 1.487 1_655 S
C142 C139 1.382 . S
C142 C143 1.387 . S
C142 H168 0.930 . S
C143 C141 1.381 . S
C143 C142 1.387 . S
C143 H169 0.931 . S
C144 C141 1.487 1_455 S
C144 C151 1.399 . S
C144 N182 1.343 . S
C145 C146 1.384 . S
C145 C147 1.384 . S
C145 H170 0.931 . S
C146 C145 1.384 . S
C146 C149 1.382 . S
C147 C145 1.384 . S
C147 C148 1.381 . S
C147 H171 0.930 . S
C148 C147 1.381 . S
C148 C150 1.381 . S
C148 C151 1.487 1_655 S
C149 C146 1.382 . S
C149 C150 1.387 . S
C149 H172 0.930 . S
C150 C148 1.381 . S
C150 C149 1.387 . S
C150 H173 0.931 1_655 S
C151 C144 1.399 . S
C151 C148 1.487 1_455 S
C151 N183 1.343 . S
C152 C153 1.384 . S
C152 C154 1.384 . S
C152 H174 0.931 . S
C153 C152 1.384 . S
C153 C156 1.382 . S
C154 C152 1.384 . S
C154 C155 1.381 . S
C154 H175 0.930 . S
C155 C154 1.381 . S
C155 C157 1.381 . S
C155 C158 1.487 . S
C156 C153 1.382 . S
C156 C157 1.387 . S
C156 H176 0.930 . S
C157 C155 1.381 . S
C157 C156 1.387 . S
C157 H177 0.931 . S
C158 C155 1.487 . S
C158 C165 1.399 . S
C158 N183 1.343 . S
C159 C160 1.384 . S
C159 C161 1.384 . S
C159 H178 0.931 . S
C160 C159 1.384 . S
C160 C163 1.382 . S
C161 C159 1.384 . S
C161 C162 1.381 . S
C161 H179 0.930 . S
C162 C161 1.381 . S
C162 C164 1.381 . S
C162 C165 1.487 . S
C163 C160 1.382 . S
C163 C164 1.387 . S
C163 H180 0.930 . S
C164 C162 1.381 . S
C164 C163 1.387 . S
C164 H181 0.931 . S
C165 C158 1.399 . S
C165 C162 1.487 . S
C165 N182 1.343 . S
H166 C138 0.931 . S
H167 C140 0.930 . S
H168 C142 0.930 . S
H169 C143 0.931 . S
H170 C145 0.931 . S
H171 C147 0.930 . S
H172 C149 0.930 . S
H173 C150 0.931 1_455 S
H174 C152 0.931 . S
H175 C154 0.930 . S
H176 C156 0.930 . S
H177 C157 0.931 . S
H178 C159 0.931 . S
H179 C161 0.930 . S
H180 C163 0.930 . S
H181 C164 0.931 . S
N182 C144 1.343 . S
N182 C165 1.343 . S
N183 C151 1.343 . S
N183 C158 1.343 . S
C184 C185 1.384 . S
C184 C186 1.384 . S
C184 H212 0.931 . S
C185 C184 1.384 . S
C185 C188 1.382 . S
C186 C184 1.384 . S
C186 C187 1.381 . S
C186 H213 0.931 1_556 S
C187 C186 1.381 . S
C187 C189 1.381 . S
C187 C190 1.487 1_565 S
C188 C185 1.382 . S
C188 C189 1.387 . S
C188 H214 0.930 . S
C189 C187 1.381 . S
C189 C188 1.387 . S
C189 H215 0.931 . S
C190 C187 1.487 1_545 S
C190 C197 1.399 1_556 S
C190 N228 1.343 . S
C191 C192 1.384 . S
C191 C193 1.384 . S
C191 H216 0.931 . S
C192 C191 1.384 . S
C192 C195 1.382 . S
C193 C191 1.384 . S
C193 C194 1.381 . S
C193 H217 0.930 . S
C194 C193 1.381 . S
C194 C196 1.381 . S
C194 C197 1.487 1_565 S
C195 C192 1.382 . S
C195 C196 1.387 . S
C195 H218 0.930 . S
C196 C194 1.381 . S
C196 C195 1.387 . S
C196 H219 0.931 1_565 S
C197 C190 1.399 1_554 S
C197 C194 1.487 1_545 S
C197 N229 1.343 . S
C198 C199 1.384 . S
C198 C200 1.384 1_554 S
C198 H220 0.919 1_554 S
C199 C198 1.384 . S
C199 C202 1.382 . S
C200 C198 1.384 1_556 S
C200 C201 1.381 1_556 S
C200 H221 0.930 . S
C201 C200 1.381 1_554 S
C201 C203 1.381 . S
C201 C204 1.487 1_554 S
C202 C199 1.382 . S
C202 C203 1.387 . S
C202 H222 0.930 . S
C203 C201 1.381 . S
C203 C202 1.387 . S
C203 H223 0.931 . S
C204 C201 1.487 1_556 S
C204 C211 1.399 . S
C204 N229 1.343 1_556 S
C205 C206 1.384 . S
C205 C207 1.384 . S
C205 H224 0.931 . S
C206 C205 1.384 . S
C206 C209 1.382 . S
C207 C205 1.384 . S
C207 C208 1.381 . S
C207 H225 0.930 . S
C208 C207 1.381 . S
C208 C210 1.381 . S
C208 C211 1.487 . S
C209 C206 1.382 . S
C209 C210 1.387 . S
C209 H226 0.930 . S
C210 C208 1.381 . S
C210 C209 1.387 . S
C210 H227 0.931 . S
C211 C204 1.399 . S
C211 C208 1.487 . S
C211 N228 1.343 . S
H212 C184 0.931 . S
H213 C186 0.931 1_554 S
H214 C188 0.930 . S
H215 C189 0.931 . S
H216 C191 0.931 . S
H217 C193 0.930 . S
H218 C195 0.930 . S
H219 C196 0.931 1_545 S
H220 C198 0.919 1_556 S
H221 C200 0.930 . S
H222 C202 0.930 . S
H223 C203 0.931 . S
H224 C205 0.931 . S
H225 C207 0.930 . S
H226 C209 0.930 . S
H227 C210 0.931 . S
N228 C190 1.343 . S
N228 C211 1.343 . S
N229 C197 1.343 . S
N229 C204 1.343 1_554 S
C230 C231 1.384 . S
C230 C232 1.384 . S
C230 H258 0.931 . S
C231 C230 1.384 . S
C231 C234 1.382 . S
C232 C230 1.384 . S
C232 C233 1.381 . S
C232 H259 0.930 . S
C233 C232 1.381 . S
C233 C235 1.381 . S
C233 C236 1.487 . S
C234 C231 1.382 . S
C234 C235 1.387 . S
C234 H260 0.930 . S
C235 C233 1.381 . S
C235 C234 1.387 . S
C235 H261 0.931 . S
C236 C233 1.487 . S
C236 C243 1.399 . S
C236 N274 1.343 . S
C237 C238 1.384 . S
C237 C239 1.384 . S
C237 H262 0.931 . S
C238 C237 1.384 . S
C238 C241 1.382 . S
C239 C237 1.384 . S
C239 C240 1.381 . S
C239 H263 0.930 . S
C240 C239 1.381 . S
C240 C242 1.381 . S
C240 C243 1.487 . S
C241 C238 1.382 . S
C241 C242 1.387 . S
C241 H264 0.930 . S
C242 C240 1.381 . S
C242 C241 1.387 . S
C242 H265 0.931 . S
C243 C236 1.399 . S
C243 C240 1.487 . S
C243 N275 1.343 . S
C244 C245 1.384 . S
C244 C246 1.384 . S
C244 H266 0.931 . S
C245 C244 1.384 . S
C245 C248 1.382 . S
C246 C244 1.384 . S
C246 C247 1.381 . S
C246 H267 0.930 . S
C247 C246 1.381 . S
C247 C249 1.381 . S
C247 C250 1.487 . S
C248 C245 1.382 . S
C248 C249 1.387 . S
C248 H268 0.930 . S
C249 C247 1.381 . S
C249 C248 1.387 . S
C249 H269 0.931 . S
C250 C247 1.487 . S
C250 C257 1.399 . S
C250 N275 1.343 . S
C251 C252 1.384 . S
C251 C253 1.384 . S
C251 H270 0.931 . S
C252 C251 1.384 . S
C252 C255 1.382 . S
C253 C251 1.384 . S
C253 C254 1.381 . S
C253 H271 0.930 . S
C254 C253 1.381 . S
C254 C256 1.381 . S
C254 C257 1.487 . S
C255 C252 1.382 . S
C255 C256 1.387 . S
C255 H272 0.930 . S
C256 C254 1.381 . S
C256 C255 1.387 . S
C256 H273 0.931 . S
C257 C250 1.399 . S
C257 C254 1.487 . S
C257 N274 1.343 . S
H258 C230 0.931 . S
H259 C232 0.930 . S
H260 C234 0.930 . S
H261 C235 0.931 . S
H262 C237 0.931 . S
H263 C239 0.930 . S
H264 C241 0.930 . S
H265 C242 0.931 . S
H266 C244 0.931 . S
H267 C246 0.930 . S
H268 C248 0.930 . S
H269 C249 0.931 . S
H270 C251 0.931 . S
H271 C253 0.930 . S
H272 C255 0.930 . S
H273 C256 0.931 . S
N274 C236 1.343 . S
N274 C257 1.343 . S
N275 C243 1.343 . S
N275 C250 1.343 . S
Li276 N293 1.990 . S
Li276 O336 1.956 . S
Li276 O337 1.970 . S
Li276 O338 1.961 . S
Li277 N301 1.990 . S
Li277 O336 1.970 . S
Li277 O337 1.956 . S
Li277 O339 1.961 . S
Li278 N323 1.990 . S
Li278 O336 1.961 . S
Li278 O338 1.956 . S
Li278 O339 1.970 . S
Li279 N329 1.990 . S
Li279 O337 1.961 . S
Li279 O338 1.970 . S
Li279 O339 1.956 . S
C280 C282 1.348 . S
C280 C283 1.356 . S
C280 O336 1.325 . S
N281 C284 1.314 . S
N281 C285 1.279 . S
C282 C280 1.348 . S
C282 C284 1.353 . S
C282 H340 0.929 . S
C283 C280 1.356 . S
C283 C285 1.358 . S
C283 H341 0.930 . S
C284 N281 1.314 . S
C284 C282 1.353 . S
C284 H342 0.930 . S
C285 N281 1.279 . S
C285 C283 1.358 . S
C285 H343 0.930 . S
C286 C289 1.348 . S
C286 C290 1.356 . S
C286 O337 1.325 . S
C287 N288 1.279 . S
C287 C290 1.358 . S
C287 H344 0.930 . S
N288 C287 1.279 . S
N288 C291 1.314 . S
C289 C286 1.348 . S
C289 C291 1.353 . S
C289 H345 0.929 . S
C290 C286 1.356 . S
C290 C287 1.358 . S
C290 H346 0.930 . S
C291 N288 1.314 . S
C291 C289 1.353 . S
C291 H347 0.930 . S
C292 N293 1.314 . S
C292 C297 1.353 . S
C292 H298 0.930 . S
N293 Li276 1.990 . S
N293 C292 1.314 . S
N293 C295 1.279 . S
C294 C295 1.358 . S
C294 C296 1.356 . S
C294 H348 0.930 . S
C295 N293 1.279 . S
C295 C294 1.358 . S
C295 H299 0.930 . S
C296 C294 1.356 . S
C296 C297 1.348 . S
C297 C292 1.353 . S
C297 C296 1.348 . S
C297 H349 0.929 . S
H298 C292 0.930 . S
H299 C295 0.930 . S
C300 N301 1.314 . S
C300 C302 1.353 . S
C300 H306 0.930 . S
N301 Li277 1.990 . S
N301 C300 1.314 . S
N301 C304 1.279 . S
C302 C300 1.353 . S
C302 C305 1.348 . S
C302 H350 0.929 . S
C303 C304 1.358 . S
C303 C305 1.356 . S
C303 H351 0.930 . S
C304 N301 1.279 . S
C304 C303 1.358 . S
C304 H307 0.930 . S
C305 C302 1.348 . S
C305 C303 1.356 . S
H306 C300 0.930 . S
H307 C304 0.930 . S
C308 C310 1.348 . S
C308 C311 1.356 . S
C308 O338 1.325 . S
N309 C312 1.314 . S
N309 C313 1.279 . S
C310 C308 1.348 . S
C310 C312 1.353 . S
C310 H352 0.929 . S
C311 C308 1.356 . S
C311 C313 1.358 . S
C311 H353 0.930 . S
C312 N309 1.314 . S
C312 C310 1.353 . S
C312 H354 0.930 . S
C313 N309 1.279 . S
C313 C311 1.358 . S
C313 H355 0.930 . S
C314 C315 1.348 . S
C314 C316 1.356 . S
C314 O339 1.325 . S
C315 C314 1.348 . S
C315 C317 1.353 . S
C315 H356 0.929 . S
C316 C314 1.356 . S
C316 C318 1.358 . S
C316 H357 0.930 . S
C317 C315 1.353 . S
C317 N319 1.314 . S
C317 H358 0.930 . S
C318 C316 1.358 . S
C318 N319 1.279 . S
C318 H359 0.930 . S
N319 C317 1.314 . S
N319 C318 1.279 . S
C320 C322 1.353 . S
C320 N323 1.314 . S
C320 H326 0.930 . S
C321 N323 1.279 . S
C321 C324 1.358 . S
C321 H327 0.930 . S
C322 C320 1.353 . S
C322 C325 1.348 . S
C322 H360 0.929 . S
N323 Li278 1.990 . S
N323 C320 1.314 . S
N323 C321 1.279 . S
C324 C321 1.358 . S
C324 C325 1.356 . S
C324 H361 0.930 . S
C325 C322 1.348 . S
C325 C324 1.356 . S
H326 C320 0.930 . S
H327 C321 0.930 . S
C328 N329 1.314 . S
C328 C330 1.353 . S
C328 H334 0.930 . S
N329 Li279 1.990 . S
N329 C328 1.314 . S
N329 C332 1.279 . S
C330 C328 1.353 . S
C330 C333 1.348 . S
C330 H362 0.929 . S
C331 C332 1.358 . S
C331 C333 1.356 . S
C331 H363 0.930 . S
C332 N329 1.279 . S
C332 C331 1.358 . S
C332 H335 0.930 . S
C333 C330 1.348 . S
C333 C331 1.356 . S
H334 C328 0.930 . S
H335 C332 0.930 . S
O336 Li276 1.956 . S
O336 Li277 1.970 . S
O336 Li278 1.961 . S
O336 C280 1.325 . S
O337 Li276 1.970 . S
O337 Li277 1.956 . S
O337 Li279 1.961 . S
O337 C286 1.325 . S
O338 Li276 1.961 . S
O338 Li278 1.956 . S
O338 Li279 1.970 . S
O338 C308 1.325 . S
O339 Li277 1.961 . S
O339 Li278 1.970 . S
O339 Li279 1.956 . S
O339 C314 1.325 . S
H340 C282 0.929 . S
H341 C283 0.930 . S
H342 C284 0.930 . S
H343 C285 0.930 . S
H344 C287 0.930 . S
H345 C289 0.929 . S
H346 C290 0.930 . S
H347 C291 0.930 . S
H348 C294 0.930 . S
H349 C297 0.929 . S
H350 C302 0.929 . S
H351 C303 0.930 . S
H352 C310 0.929 . S
H353 C311 0.930 . S
H354 C312 0.930 . S
H355 C313 0.930 . S
H356 C315 0.929 . S
H357 C316 0.930 . S
H358 C317 0.930 . S
H359 C318 0.930 . S
H360 C322 0.929 . S
H361 C324 0.930 . S
H362 C330 0.929 . S
H363 C331 0.930 . S
Li364 N381 1.990 . S
Li364 O424 1.956 . S
Li364 O425 1.970 . S
Li364 O426 1.961 . S
Li365 N389 1.990 . S
Li365 O424 1.970 . S
Li365 O425 1.956 . S
Li365 O427 1.961 . S
Li366 N411 1.990 . S
Li366 O424 1.961 . S
Li366 O426 1.956 . S
Li366 O427 1.970 . S
Li367 N417 1.990 . S
Li367 O425 1.961 . S
Li367 O426 1.970 . S
Li367 O427 1.956 . S
C368 C370 1.348 . S
C368 C371 1.356 . S
C368 O424 1.325 . S
N369 C372 1.314 . S
N369 C373 1.279 . S
C370 C368 1.348 . S
C370 C372 1.353 . S
C370 H428 0.929 . S
C371 C368 1.356 . S
C371 C373 1.358 . S
C371 H429 0.930 . S
C372 N369 1.314 . S
C372 C370 1.353 . S
C372 H430 0.930 . S
C373 N369 1.279 . S
C373 C371 1.358 . S
C373 H431 0.930 . S
C374 C377 1.348 . S
C374 C378 1.356 . S
C374 O425 1.325 . S
C375 N376 1.279 . S
C375 C378 1.358 . S
C375 H432 0.930 . S
N376 C375 1.279 . S
N376 C379 1.314 . S
C377 C374 1.348 . S
C377 C379 1.353 . S
C377 H433 0.929 . S
C378 C374 1.356 . S
C378 C375 1.358 . S
C378 H434 0.930 . S
C379 N376 1.314 . S
C379 C377 1.353 . S
C379 H435 0.930 . S
C380 N381 1.314 . S
C380 C385 1.353 . S
C380 H386 0.930 . S
N381 Li364 1.990 . S
N381 C380 1.314 . S
N381 C383 1.279 . S
C382 C383 1.358 . S
C382 C384 1.356 . S
C382 H436 0.930 . S
C383 N381 1.279 . S
C383 C382 1.358 . S
C383 H387 0.930 . S
C384 C382 1.356 . S
C384 C385 1.348 . S
C385 C380 1.353 . S
C385 C384 1.348 . S
C385 H437 0.929 . S
H386 C380 0.930 . S
H387 C383 0.930 . S
C388 N389 1.314 . S
C388 C390 1.353 . S
C388 H394 0.930 . S
N389 Li365 1.990 . S
N389 C388 1.314 . S
N389 C392 1.279 . S
C390 C388 1.353 . S
C390 C393 1.348 . S
C390 H438 0.929 . S
C391 C392 1.358 . S
C391 C393 1.356 . S
C391 H439 0.930 . S
C392 N389 1.279 . S
C392 C391 1.358 . S
C392 H395 0.930 . S
C393 C390 1.348 . S
C393 C391 1.356 . S
H394 C388 0.930 . S
H395 C392 0.930 . S
C396 C398 1.348 . S
C396 C399 1.356 . S
C396 O426 1.325 . S
N397 C400 1.314 . S
N397 C401 1.279 . S
C398 C396 1.348 . S
C398 C400 1.353 . S
C398 H440 0.929 . S
C399 C396 1.356 . S
C399 C401 1.358 . S
C399 H441 0.930 . S
C400 N397 1.314 . S
C400 C398 1.353 . S
C400 H442 0.930 . S
C401 N397 1.279 . S
C401 C399 1.358 . S
C401 H443 0.930 . S
C402 C403 1.348 . S
C402 C404 1.356 . S
C402 O427 1.325 . S
C403 C402 1.348 . S
C403 C405 1.353 . S
C403 H444 0.929 . S
C404 C402 1.356 . S
C404 C406 1.358 . S
C404 H445 0.930 . S
C405 C403 1.353 . S
C405 N407 1.314 . S
C405 H446 0.930 . S
C406 C404 1.358 . S
C406 N407 1.279 . S
C406 H447 0.930 . S
N407 C405 1.314 . S
N407 C406 1.279 . S
C408 C410 1.353 . S
C408 N411 1.314 . S
C408 H414 0.930 . S
C409 N411 1.279 . S
C409 C412 1.358 . S
C409 H415 0.930 . S
C410 C408 1.353 . S
C410 C413 1.348 . S
C410 H448 0.929 . S
N411 Li366 1.990 . S
N411 C408 1.314 . S
N411 C409 1.279 . S
C412 C409 1.358 . S
C412 C413 1.356 . S
C412 H449 0.930 . S
C413 C410 1.348 . S
C413 C412 1.356 . S
H414 C408 0.930 . S
H415 C409 0.930 . S
C416 N417 1.314 . S
C416 C418 1.353 . S
C416 H422 0.930 . S
N417 Li367 1.990 . S
N417 C416 1.314 . S
N417 C420 1.279 . S
C418 C416 1.353 . S
C418 C421 1.348 . S
C418 H450 0.929 . S
C419 C420 1.358 . S
C419 C421 1.356 . S
C419 H451 0.930 . S
C420 N417 1.279 . S
C420 C419 1.358 . S
C420 H423 0.930 . S
C421 C418 1.348 . S
C421 C419 1.356 . S
H422 C416 0.930 . S
H423 C420 0.930 . S
O424 Li364 1.956 . S
O424 Li365 1.970 . S
O424 Li366 1.961 . S
O424 C368 1.325 . S
O425 Li364 1.970 . S
O425 Li365 1.956 . S
O425 Li367 1.961 . S
O425 C374 1.325 . S
O426 Li364 1.961 . S
O426 Li366 1.956 . S
O426 Li367 1.970 . S
O426 C396 1.325 . S
O427 Li365 1.961 . S
O427 Li366 1.970 . S
O427 Li367 1.956 . S
O427 C402 1.325 . S
H428 C370 0.929 . S
H429 C371 0.930 . S
H430 C372 0.930 . S
H431 C373 0.930 . S
H432 C375 0.930 . S
H433 C377 0.929 . S
H434 C378 0.930 . S
H435 C379 0.930 . S
H436 C382 0.930 . S
H437 C385 0.929 . S
H438 C390 0.929 . S
H439 C391 0.930 . S
H440 C398 0.929 . S
H441 C399 0.930 . S
H442 C400 0.930 . S
H443 C401 0.930 . S
H444 C403 0.929 . S
H445 C404 0.930 . S
H446 C405 0.930 . S
H447 C406 0.930 . S
H448 C410 0.929 . S
H449 C412 0.930 . S
H450 C418 0.929 . S
H451 C419 0.930 . S
Li452 N469 1.990 . S
Li452 O512 1.956 . S
Li452 O513 1.970 . S
Li452 O514 1.961 . S
Li453 N477 1.990 . S
Li453 O512 1.970 . S
Li453 O513 1.956 . S
Li453 O515 1.961 . S
Li454 N499 1.990 . S
Li454 O512 1.961 . S
Li454 O514 1.956 . S
Li454 O515 1.970 . S
Li455 N505 1.990 . S
Li455 O513 1.961 . S
Li455 O514 1.970 . S
Li455 O515 1.956 . S
C456 C458 1.348 . S
C456 C459 1.356 . S
C456 O512 1.325 . S
N457 C460 1.314 . S
N457 C461 1.279 . S
C458 C456 1.348 . S
C458 C460 1.353 . S
C458 H516 0.929 . S
C459 C456 1.356 . S
C459 C461 1.358 . S
C459 H517 0.930 . S
C460 N457 1.314 . S
C460 C458 1.353 . S
C460 H518 0.930 . S
C461 N457 1.279 . S
C461 C459 1.358 . S
C461 H519 0.930 . S
C462 C465 1.348 . S
C462 C466 1.356 . S
C462 O513 1.325 . S
C463 N464 1.279 . S
C463 C466 1.358 . S
C463 H520 0.930 . S
N464 C463 1.279 . S
N464 C467 1.314 . S
C465 C462 1.348 . S
C465 C467 1.353 . S
C465 H521 0.929 . S
C466 C462 1.356 . S
C466 C463 1.358 . S
C466 H522 0.930 . S
C467 N464 1.314 . S
C467 C465 1.353 . S
C467 H523 0.930 . S
C468 N469 1.314 . S
C468 C473 1.353 . S
C468 H474 0.930 . S
N469 Li452 1.990 . S
N469 C468 1.314 . S
N469 C471 1.279 . S
C470 C471 1.358 . S
C470 C472 1.356 . S
C470 H524 0.930 . S
C471 N469 1.279 . S
C471 C470 1.358 . S
C471 H475 0.930 . S
C472 C470 1.356 . S
C472 C473 1.348 . S
C473 C468 1.353 . S
C473 C472 1.348 . S
C473 H525 0.929 . S
H474 C468 0.930 . S
H475 C471 0.930 . S
C476 N477 1.314 . S
C476 C478 1.353 . S
C476 H482 0.930 . S
N477 Li453 1.990 . S
N477 C476 1.314 . S
N477 C480 1.279 . S
C478 C476 1.353 . S
C478 C481 1.348 . S
C478 H526 0.929 . S
C479 C480 1.358 . S
C479 C481 1.356 . S
C479 H527 0.930 . S
C480 N477 1.279 . S
C480 C479 1.358 . S
C480 H483 0.930 . S
C481 C478 1.348 . S
C481 C479 1.356 . S
H482 C476 0.930 . S
H483 C480 0.930 . S
C484 C486 1.348 . S
C484 C487 1.356 . S
C484 O514 1.325 . S
N485 C488 1.314 . S
N485 C489 1.279 . S
C486 C484 1.348 . S
C486 C488 1.353 . S
C486 H528 0.929 . S
C487 C484 1.356 . S
C487 C489 1.358 . S
C487 H529 0.930 . S
C488 N485 1.314 . S
C488 C486 1.353 . S
C488 H530 0.930 . S
C489 N485 1.279 . S
C489 C487 1.358 . S
C489 H531 0.930 . S
C490 C491 1.348 . S
C490 C492 1.356 . S
C490 O515 1.325 . S
C491 C490 1.348 . S
C491 C493 1.353 . S
C491 H532 0.929 . S
C492 C490 1.356 . S
C492 C494 1.358 . S
C492 H533 0.930 . S
C493 C491 1.353 . S
C493 N495 1.314 . S
C493 H534 0.930 . S
C494 C492 1.358 . S
C494 N495 1.279 . S
C494 H535 0.930 . S
N495 C493 1.314 . S
N495 C494 1.279 . S
C496 C498 1.353 . S
C496 N499 1.314 . S
C496 H502 0.930 . S
C497 N499 1.279 . S
C497 C500 1.358 . S
C497 H503 0.930 . S
C498 C496 1.353 . S
C498 C501 1.348 . S
C498 H536 0.929 . S
N499 Li454 1.990 . S
N499 C496 1.314 . S
N499 C497 1.279 . S
C500 C497 1.358 . S
C500 C501 1.356 . S
C500 H537 0.930 . S
C501 C498 1.348 . S
C501 C500 1.356 . S
H502 C496 0.930 . S
H503 C497 0.930 . S
C504 N505 1.314 . S
C504 C506 1.353 . S
C504 H510 0.930 . S
N505 Li455 1.990 . S
N505 C504 1.314 . S
N505 C508 1.279 . S
C506 C504 1.353 . S
C506 C509 1.348 . S
C506 H538 0.929 . S
C507 C508 1.358 . S
C507 C509 1.356 . S
C507 H539 0.930 . S
C508 N505 1.279 . S
C508 C507 1.358 . S
C508 H511 0.930 . S
C509 C506 1.348 . S
C509 C507 1.356 . S
H510 C504 0.930 . S
H511 C508 0.930 . S
O512 Li452 1.956 . S
O512 Li453 1.970 . S
O512 Li454 1.961 . S
O512 C456 1.325 . S
O513 Li452 1.970 . S
O513 Li453 1.956 . S
O513 Li455 1.961 . S
O513 C462 1.325 . S
O514 Li452 1.961 . S
O514 Li454 1.956 . S
O514 Li455 1.970 . S
O514 C484 1.325 . S
O515 Li453 1.961 . S
O515 Li454 1.970 . S
O515 Li455 1.956 . S
O515 C490 1.325 . S
H516 C458 0.929 . S
H517 C459 0.930 . S
H518 C460 0.930 . S
H519 C461 0.930 . S
H520 C463 0.930 . S
H521 C465 0.929 . S
H522 C466 0.930 . S
H523 C467 0.930 . S
H524 C470 0.930 . S
H525 C473 0.929 . S
H526 C478 0.929 . S
H527 C479 0.930 . S
H528 C486 0.929 . S
H529 C487 0.930 . S
H530 C488 0.930 . S
H531 C489 0.930 . S
H532 C491 0.929 . S
H533 C492 0.930 . S
H534 C493 0.930 . S
H535 C494 0.930 . S
H536 C498 0.929 . S
H537 C500 0.930 . S
H538 C506 0.929 . S
H539 C507 0.930 . S
Li540 N557 1.990 . S
Li540 O600 1.956 . S
Li540 O601 1.970 . S
Li540 O602 1.961 . S
Li541 N565 1.990 . S
Li541 O600 1.970 . S
Li541 O601 1.956 . S
Li541 O603 1.961 . S
Li542 N587 1.990 . S
Li542 O600 1.961 . S
Li542 O602 1.956 . S
Li542 O603 1.970 . S
Li543 N593 1.990 . S
Li543 O601 1.961 . S
Li543 O602 1.970 . S
Li543 O603 1.956 . S
C544 C546 1.348 . S
C544 C547 1.356 . S
C544 O600 1.325 . S
N545 C548 1.314 . S
N545 C549 1.279 . S
C546 C544 1.348 . S
C546 C548 1.353 . S
C546 H604 0.929 . S
C547 C544 1.356 . S
C547 C549 1.358 . S
C547 H605 0.930 . S
C548 N545 1.314 . S
C548 C546 1.353 . S
C548 H606 0.930 . S
C549 N545 1.279 . S
C549 C547 1.358 . S
C549 H607 0.930 . S
C550 C553 1.348 . S
C550 C554 1.356 . S
C550 O601 1.325 . S
C551 N552 1.279 . S
C551 C554 1.358 . S
C551 H608 0.930 . S
N552 C551 1.279 . S
N552 C555 1.314 . S
C553 C550 1.348 . S
C553 C555 1.353 . S
C553 H609 0.929 . S
C554 C550 1.356 . S
C554 C551 1.358 . S
C554 H610 0.930 . S
C555 N552 1.314 . S
C555 C553 1.353 . S
C555 H611 0.930 . S
C556 N557 1.314 . S
C556 C561 1.353 . S
C556 H562 0.930 . S
N557 Li540 1.990 . S
N557 C556 1.314 . S
N557 C559 1.279 . S
C558 C559 1.358 . S
C558 C560 1.356 . S
C558 H612 0.930 . S
C559 N557 1.279 . S
C559 C558 1.358 . S
C559 H563 0.930 . S
C560 C558 1.356 . S
C560 C561 1.348 . S
C561 C556 1.353 . S
C561 C560 1.348 . S
C561 H613 0.929 . S
H562 C556 0.930 . S
H563 C559 0.930 . S
C564 N565 1.314 . S
C564 C566 1.353 . S
C564 H570 0.930 . S
N565 Li541 1.990 . S
N565 C564 1.314 . S
N565 C568 1.279 . S
C566 C564 1.353 . S
C566 C569 1.348 . S
C566 H614 0.929 . S
C567 C568 1.358 . S
C567 C569 1.356 . S
C567 H615 0.930 . S
C568 N565 1.279 . S
C568 C567 1.358 . S
C568 H571 0.930 . S
C569 C566 1.348 . S
C569 C567 1.356 . S
H570 C564 0.930 . S
H571 C568 0.930 . S
C572 C574 1.348 . S
C572 C575 1.356 . S
C572 O602 1.325 . S
N573 C576 1.314 . S
N573 C577 1.279 . S
C574 C572 1.348 . S
C574 C576 1.353 . S
C574 H616 0.929 . S
C575 C572 1.356 . S
C575 C577 1.358 . S
C575 H617 0.930 . S
C576 N573 1.314 . S
C576 C574 1.353 . S
C576 H618 0.930 . S
C577 N573 1.279 . S
C577 C575 1.358 . S
C577 H619 0.930 . S
C578 C579 1.348 . S
C578 C580 1.356 . S
C578 O603 1.325 . S
C579 C578 1.348 . S
C579 C581 1.353 . S
C579 H620 0.929 . S
C580 C578 1.356 . S
C580 C582 1.358 . S
C580 H621 0.930 . S
C581 C579 1.353 . S
C581 N583 1.314 . S
C581 H622 0.930 . S
C582 C580 1.358 . S
C582 N583 1.279 . S
C582 H623 0.930 . S
N583 C581 1.314 . S
N583 C582 1.279 . S
C584 C586 1.353 . S
C584 N587 1.314 . S
C584 H590 0.930 . S
C585 N587 1.279 . S
C585 C588 1.358 . S
C585 H591 0.930 . S
C586 C584 1.353 . S
C586 C589 1.348 . S
C586 H624 0.929 . S
N587 Li542 1.990 . S
N587 C584 1.314 . S
N587 C585 1.279 . S
C588 C585 1.358 . S
C588 C589 1.356 . S
C588 H625 0.930 . S
C589 C586 1.348 . S
C589 C588 1.356 . S
H590 C584 0.930 . S
H591 C585 0.930 . S
C592 N593 1.314 . S
C592 C594 1.353 . S
C592 H598 0.930 . S
N593 Li543 1.990 . S
N593 C592 1.314 . S
N593 C596 1.279 . S
C594 C592 1.353 . S
C594 C597 1.348 . S
C594 H626 0.929 . S
C595 C596 1.358 . S
C595 C597 1.356 . S
C595 H627 0.930 . S
C596 N593 1.279 . S
C596 C595 1.358 . S
C596 H599 0.930 . S
C597 C594 1.348 . S
C597 C595 1.356 . S
H598 C592 0.930 . S
H599 C596 0.930 . S
O600 Li540 1.956 . S
O600 Li541 1.970 . S
O600 Li542 1.961 . S
O600 C544 1.325 . S
O601 Li540 1.970 . S
O601 Li541 1.956 . S
O601 Li543 1.961 . S
O601 C550 1.325 . S
O602 Li540 1.961 . S
O602 Li542 1.956 . S
O602 Li543 1.970 . S
O602 C572 1.325 . S
O603 Li541 1.961 . S
O603 Li542 1.970 . S
O603 Li543 1.956 . S
O603 C578 1.325 . S
H604 C546 0.929 . S
H605 C547 0.930 . S
H606 C548 0.930 . S
H607 C549 0.930 . S
H608 C551 0.930 . S
H609 C553 0.929 . S
H610 C554 0.930 . S
H611 C555 0.930 . S
H612 C558 0.930 . S
H613 C561 0.929 . S
H614 C566 0.929 . S
H615 C567 0.930 . S
H616 C574 0.929 . S
H617 C575 0.930 . S
H618 C576 0.930 . S
H619 C577 0.930 . S
H620 C579 0.929 . S
H621 C580 0.930 . S
H622 C581 0.930 . S
H623 C582 0.930 . S
H624 C586 0.929 . S
H625 C588 0.930 . S
H626 C594 0.929 . S
H627 C595 0.930 . S
Li628 N645 1.990 . S
Li628 O688 1.956 . S
Li628 O689 1.970 . S
Li628 O690 1.961 . S
Li629 N653 1.990 . S
Li629 O688 1.970 . S
Li629 O689 1.956 . S
Li629 O691 1.961 . S
Li630 N675 1.990 . S
Li630 O688 1.961 . S
Li630 O690 1.956 . S
Li630 O691 1.970 . S
Li631 N681 1.990 . S
Li631 O689 1.961 . S
Li631 O690 1.970 . S
Li631 O691 1.956 . S
C632 C634 1.348 . S
C632 C635 1.356 . S
C632 O688 1.325 . S
N633 C636 1.314 . S
N633 C637 1.279 . S
C634 C632 1.348 . S
C634 C636 1.353 . S
C634 H692 0.929 . S
C635 C632 1.356 . S
C635 C637 1.358 . S
C635 H693 0.930 . S
C636 N633 1.314 . S
C636 C634 1.353 . S
C636 H694 0.930 . S
C637 N633 1.279 . S
C637 C635 1.358 . S
C637 H695 0.930 . S
C638 C641 1.348 . S
C638 C642 1.356 . S
C638 O689 1.325 . S
C639 N640 1.279 . S
C639 C642 1.358 . S
C639 H696 0.930 . S
N640 C639 1.279 . S
N640 C643 1.314 . S
C641 C638 1.348 . S
C641 C643 1.353 . S
C641 H697 0.929 . S
C642 C638 1.356 . S
C642 C639 1.358 . S
C642 H698 0.930 . S
C643 N640 1.314 . S
C643 C641 1.353 . S
C643 H699 0.930 . S
C644 N645 1.314 . S
C644 C649 1.353 . S
C644 H650 0.930 . S
N645 Li628 1.990 . S
N645 C644 1.314 . S
N645 C647 1.279 . S
C646 C647 1.358 . S
C646 C648 1.356 . S
C646 H700 0.930 . S
C647 N645 1.279 . S
C647 C646 1.358 . S
C647 H651 0.930 . S
C648 C646 1.356 . S
C648 C649 1.348 . S
C649 C644 1.353 . S
C649 C648 1.348 . S
C649 H701 0.929 . S
H650 C644 0.930 . S
H651 C647 0.930 . S
C652 N653 1.314 . S
C652 C654 1.353 . S
C652 H658 0.930 . S
N653 Li629 1.990 . S
N653 C652 1.314 . S
N653 C656 1.279 . S
C654 C652 1.353 . S
C654 C657 1.348 . S
C654 H702 0.929 . S
C655 C656 1.358 . S
C655 C657 1.356 . S
C655 H703 0.930 . S
C656 N653 1.279 . S
C656 C655 1.358 . S
C656 H659 0.930 . S
C657 C654 1.348 . S
C657 C655 1.356 . S
H658 C652 0.930 . S
H659 C656 0.930 . S
C660 C662 1.348 . S
C660 C663 1.356 . S
C660 O690 1.325 . S
N661 C664 1.314 . S
N661 C665 1.279 . S
C662 C660 1.348 . S
C662 C664 1.353 . S
C662 H704 0.929 . S
C663 C660 1.356 . S
C663 C665 1.358 . S
C663 H705 0.930 . S
C664 N661 1.314 . S
C664 C662 1.353 . S
C664 H706 0.930 . S
C665 N661 1.279 . S
C665 C663 1.358 . S
C665 H707 0.930 . S
C666 C667 1.348 . S
C666 C668 1.356 . S
C666 O691 1.325 . S
C667 C666 1.348 . S
C667 C669 1.353 . S
C667 H708 0.929 . S
C668 C666 1.356 . S
C668 C670 1.358 . S
C668 H709 0.930 . S
C669 C667 1.353 . S
C669 N671 1.314 . S
C669 H710 0.930 . S
C670 C668 1.358 . S
C670 N671 1.279 . S
C670 H711 0.930 . S
N671 C669 1.314 . S
N671 C670 1.279 . S
C672 C674 1.353 . S
C672 N675 1.314 . S
C672 H678 0.930 . S
C673 N675 1.279 . S
C673 C676 1.358 . S
C673 H679 0.930 . S
C674 C672 1.353 . S
C674 C677 1.348 . S
C674 H712 0.929 . S
N675 Li630 1.990 . S
N675 C672 1.314 . S
N675 C673 1.279 . S
C676 C673 1.358 . S
C676 C677 1.356 . S
C676 H713 0.930 . S
C677 C674 1.348 . S
C677 C676 1.356 . S
H678 C672 0.930 . S
H679 C673 0.930 . S
C680 N681 1.314 . S
C680 C682 1.353 . S
C680 H686 0.930 . S
N681 Li631 1.990 . S
N681 C680 1.314 . S
N681 C684 1.279 . S
C682 C680 1.353 . S
C682 C685 1.348 . S
C682 H714 0.929 . S
C683 C684 1.358 . S
C683 C685 1.356 . S
C683 H715 0.930 . S
C684 N681 1.279 . S
C684 C683 1.358 . S
C684 H687 0.930 . S
C685 C682 1.348 . S
C685 C683 1.356 . S
H686 C680 0.930 . S
H687 C684 0.930 . S
O688 Li628 1.956 . S
O688 Li629 1.970 . S
O688 Li630 1.961 . S
O688 C632 1.325 . S
O689 Li628 1.970 . S
O689 Li629 1.956 . S
O689 Li631 1.961 . S
O689 C638 1.325 . S
O690 Li628 1.961 . S
O690 Li630 1.956 . S
O690 Li631 1.970 . S
O690 C660 1.325 . S
O691 Li629 1.961 . S
O691 Li630 1.970 . S
O691 Li631 1.956 . S
O691 C666 1.325 . S
H692 C634 0.929 . S
H693 C635 0.930 . S
H694 C636 0.930 . S
H695 C637 0.930 . S
H696 C639 0.930 . S
H697 C641 0.929 . S
H698 C642 0.930 . S
H699 C643 0.930 . S
H700 C646 0.930 . S
H701 C649 0.929 . S
H702 C654 0.929 . S
H703 C655 0.930 . S
H704 C662 0.929 . S
H705 C663 0.930 . S
H706 C664 0.930 . S
H707 C665 0.930 . S
H708 C667 0.929 . S
H709 C668 0.930 . S
H710 C669 0.930 . S
H711 C670 0.930 . S
H712 C674 0.929 . S
H713 C676 0.930 . S
H714 C682 0.929 . S
H715 C683 0.930 . S
Li716 N733 1.990 . S
Li716 O776 1.956 . S
Li716 O777 1.970 . S
Li716 O778 1.961 . S
Li717 N741 1.990 . S
Li717 O776 1.970 . S
Li717 O777 1.956 . S
Li717 O779 1.961 . S
Li718 N763 1.990 . S
Li718 O776 1.961 . S
Li718 O778 1.956 . S
Li718 O779 1.970 . S
Li719 N769 1.990 . S
Li719 O777 1.961 . S
Li719 O778 1.970 . S
Li719 O779 1.956 . S
C720 C722 1.348 . S
C720 C723 1.356 . S
C720 O776 1.325 . S
N721 C724 1.314 . S
N721 C725 1.279 . S
C722 C720 1.348 . S
C722 C724 1.353 . S
C722 H780 0.929 . S
C723 C720 1.356 . S
C723 C725 1.358 . S
C723 H781 0.930 . S
C724 N721 1.314 . S
C724 C722 1.353 . S
C724 H782 0.930 . S
C725 N721 1.279 . S
C725 C723 1.358 . S
C725 H783 0.930 . S
C726 C729 1.348 . S
C726 C730 1.356 . S
C726 O777 1.325 . S
C727 N728 1.279 . S
C727 C730 1.358 . S
C727 H784 0.930 . S
N728 C727 1.279 . S
N728 C731 1.314 . S
C729 C726 1.348 . S
C729 C731 1.353 . S
C729 H785 0.929 . S
C730 C726 1.356 . S
C730 C727 1.358 . S
C730 H786 0.930 . S
C731 N728 1.314 . S
C731 C729 1.353 . S
C731 H787 0.930 . S
C732 N733 1.314 . S
C732 C737 1.353 . S
C732 H738 0.930 . S
N733 Li716 1.990 . S
N733 C732 1.314 . S
N733 C735 1.279 . S
C734 C735 1.358 . S
C734 C736 1.356 . S
C734 H788 0.930 . S
C735 N733 1.279 . S
C735 C734 1.358 . S
C735 H739 0.930 . S
C736 C734 1.356 . S
C736 C737 1.348 . S
C737 C732 1.353 . S
C737 C736 1.348 . S
C737 H789 0.929 . S
H738 C732 0.930 . S
H739 C735 0.930 . S
C740 N741 1.314 . S
C740 C742 1.353 . S
C740 H746 0.930 . S
N741 Li717 1.990 . S
N741 C740 1.314 . S
N741 C744 1.279 . S
C742 C740 1.353 . S
C742 C745 1.348 . S
C742 H790 0.929 . S
C743 C744 1.358 . S
C743 C745 1.356 . S
C743 H791 0.930 . S
C744 N741 1.279 . S
C744 C743 1.358 . S
C744 H747 0.930 . S
C745 C742 1.348 . S
C745 C743 1.356 . S
H746 C740 0.930 . S
H747 C744 0.930 . S
C748 C750 1.348 . S
C748 C751 1.356 . S
C748 O778 1.325 . S
N749 C752 1.314 . S
N749 C753 1.279 . S
C750 C748 1.348 . S
C750 C752 1.353 . S
C750 H792 0.929 . S
C751 C748 1.356 . S
C751 C753 1.358 . S
C751 H793 0.930 . S
C752 N749 1.314 . S
C752 C750 1.353 . S
C752 H794 0.930 . S
C753 N749 1.279 . S
C753 C751 1.358 . S
C753 H795 0.930 . S
C754 C755 1.348 . S
C754 C756 1.356 . S
C754 O779 1.325 . S
C755 C754 1.348 . S
C755 C757 1.353 . S
C755 H796 0.929 . S
C756 C754 1.356 . S
C756 C758 1.358 . S
C756 H797 0.930 . S
C757 C755 1.353 . S
C757 N759 1.314 . S
C757 H798 0.930 . S
C758 C756 1.358 . S
C758 N759 1.279 . S
C758 H799 0.930 . S
N759 C757 1.314 . S
N759 C758 1.279 . S
C760 C762 1.353 . S
C760 N763 1.314 . S
C760 H766 0.930 . S
C761 N763 1.279 . S
C761 C764 1.358 . S
C761 H767 0.930 . S
C762 C760 1.353 . S
C762 C765 1.348 . S
C762 H800 0.929 . S
N763 Li718 1.990 . S
N763 C760 1.314 . S
N763 C761 1.279 . S
C764 C761 1.358 . S
C764 C765 1.356 . S
C764 H801 0.930 . S
C765 C762 1.348 . S
C765 C764 1.356 . S
H766 C760 0.930 . S
H767 C761 0.930 . S
C768 N769 1.314 . S
C768 C770 1.353 . S
C768 H774 0.930 . S
N769 Li719 1.990 . S
N769 C768 1.314 . S
N769 C772 1.279 . S
C770 C768 1.353 . S
C770 C773 1.348 . S
C770 H802 0.929 . S
C771 C772 1.358 . S
C771 C773 1.356 . S
C771 H803 0.930 . S
C772 N769 1.279 . S
C772 C771 1.358 . S
C772 H775 0.930 . S
C773 C770 1.348 . S
C773 C771 1.356 . S
H774 C768 0.930 . S
H775 C772 0.930 . S
O776 Li716 1.956 . S
O776 Li717 1.970 . S
O776 Li718 1.961 . S
O776 C720 1.325 . S
O777 Li716 1.970 . S
O777 Li717 1.956 . S
O777 Li719 1.961 . S
O777 C726 1.325 . S
O778 Li716 1.961 . S
O778 Li718 1.956 . S
O778 Li719 1.970 . S
O778 C748 1.325 . S
O779 Li717 1.961 . S
O779 Li718 1.970 . S
O779 Li719 1.956 . S
O779 C754 1.325 . S
H780 C722 0.929 . S
H781 C723 0.930 . S
H782 C724 0.930 . S
H783 C725 0.930 . S
H784 C727 0.930 . S
H785 C729 0.929 . S
H786 C730 0.930 . S
H787 C731 0.930 . S
H788 C734 0.930 . S
H789 C737 0.929 . S
H790 C742 0.929 . S
H791 C743 0.930 . S
H792 C750 0.929 . S
H793 C751 0.930 . S
H794 C752 0.930 . S
H795 C753 0.930 . S
H796 C755 0.929 . S
H797 C756 0.930 . S
H798 C757 0.930 . S
H799 C758 0.930 . S
H800 C762 0.929 . S
H801 C764 0.930 . S
H802 C770 0.929 . S
H803 C771 0.930 . S
H804 C822 0.951 . S
H805 C824 0.951 . S
H806 C826 0.950 . S
H807 C827 0.950 . S
H808 C829 0.950 . S
H809 C832 0.950 . S
H810 C833 0.950 . S
H811 C835 0.950 . S
H812 C836 0.950 . S
H813 C837 0.951 . S
H814 C839 0.951 . S
H815 C841 0.950 . S
H816 C842 0.950 . S
H817 C844 0.950 . S
H818 C847 0.950 . S
H819 C848 0.950 . S
H820 C850 0.950 . S
H821 C851 0.950 . S
C822 H804 0.951 . S
C822 C823 1.366 . S
C822 C824 1.388 . S
C823 C822 1.366 . S
C823 C827 1.385 . S
C824 H805 0.951 . S
C824 C822 1.388 . S
C824 C825 1.366 . S
C825 C824 1.366 . S
C825 C826 1.414 . S
C825 C828 1.499 . S
C826 H806 0.950 . S
C826 C825 1.414 . S
C826 C827 1.374 . S
C827 H807 0.950 . S
C827 C823 1.385 . S
C827 C826 1.374 . S
C828 C825 1.499 . S
C828 C829 1.373 . S
C828 C830 1.389 . S
C829 H808 0.950 . S
C829 C828 1.373 . S
C829 C845 1.377 . S
C830 C828 1.389 . S
C830 C831 1.524 . S
C830 C844 1.377 . S
C831 C830 1.524 . S
C831 C832 1.397 . S
C831 C836 1.363 . S
C832 H809 0.950 . S
C832 C831 1.397 . S
C832 C833 1.334 . S
C833 H810 0.950 . S
C833 C832 1.334 . S
C833 C834 1.287 . S
C834 C833 1.287 . S
C834 C835 1.524 . S
C834 H853 0.913 . S
C835 H811 0.950 . S
C835 C834 1.524 . S
C835 C836 1.415 . S
C836 H812 0.950 . S
C836 C831 1.363 . S
C836 C835 1.415 . S
C837 H813 0.951 . S
C837 C838 1.366 . S
C837 C839 1.388 . S
C838 C837 1.366 . S
C838 C842 1.385 . S
C839 H814 0.951 . S
C839 C837 1.388 . S
C839 C840 1.366 . S
C840 C839 1.366 . S
C840 C841 1.414 . S
C840 C843 1.499 . S
C841 H815 0.950 . S
C841 C840 1.414 . S
C841 C842 1.374 . S
C842 H816 0.950 . S
C842 C838 1.385 . S
C842 C841 1.374 . S
C843 C840 1.499 . S
C843 C844 1.373 . S
C843 C845 1.389 . S
C844 H817 0.950 . S
C844 C830 1.377 . S
C844 C843 1.373 . S
C845 C829 1.377 . S
C845 C843 1.389 . S
C845 C846 1.524 . S
C846 C845 1.524 . S
C846 C847 1.397 . S
C846 C851 1.363 . S
C847 H818 0.950 . S
C847 C846 1.397 . S
C847 C848 1.334 . S
C848 H819 0.950 . S
C848 C847 1.334 . S
C848 C849 1.287 . S
C849 C848 1.287 . S
C849 C850 1.524 . S
C849 H852 0.999 . S
C850 H820 0.950 . S
C850 C849 1.524 . S
C850 C851 1.415 . S
C851 H821 0.950 . S
C851 C846 1.363 . S
C851 C850 1.415 . S
H852 C849 0.999 . S
H853 C834 0.913 . S
H854 C872 0.951 . S
H855 C874 0.951 . S
H856 C876 0.950 . S
H857 C877 0.950 . S
H858 C879 0.950 . S
H859 C882 0.950 . S
H860 C883 0.950 . S
H861 C885 0.950 . S
H862 C886 0.950 . S
H863 C887 0.951 . S
H864 C889 0.951 . S
H865 C891 0.950 . S
H866 C892 0.950 . S
H867 C894 0.950 . S
H868 C897 0.950 . S
H869 C898 0.950 . S
H870 C900 0.950 . S
H871 C901 0.950 . S
C872 H854 0.951 . S
C872 C873 1.366 . S
C872 C874 1.388 . S
C873 C872 1.366 . S
C873 C877 1.385 . S
C874 H855 0.951 . S
C874 C872 1.388 . S
C874 C875 1.366 . S
C875 C874 1.366 . S
C875 C876 1.414 . S
C875 C878 1.499 . S
C876 H856 0.950 . S
C876 C875 1.414 . S
C876 C877 1.374 . S
C877 H857 0.950 . S
C877 C873 1.385 . S
C877 C876 1.374 . S
C878 C875 1.499 . S
C878 C879 1.373 . S
C878 C880 1.389 . S
C879 H858 0.950 . S
C879 C878 1.373 . S
C879 C895 1.377 . S
C880 C878 1.389 . S
C880 C881 1.524 . S
C880 C894 1.377 . S
C881 C880 1.524 . S
C881 C882 1.397 . S
C881 C886 1.363 . S
C882 H859 0.950 . S
C882 C881 1.397 . S
C882 C883 1.334 . S
C883 H860 0.950 . S
C883 C882 1.334 . S
C883 C884 1.287 . S
C884 C883 1.287 . S
C884 C885 1.524 . S
C884 H903 0.913 . S
C885 H861 0.950 . S
C885 C884 1.524 . S
C885 C886 1.415 . S
C886 H862 0.950 . S
C886 C881 1.363 . S
C886 C885 1.415 . S
C887 H863 0.951 . S
C887 C888 1.366 . S
C887 C889 1.388 . S
C888 C887 1.366 . S
C888 C892 1.385 . S
C889 H864 0.951 . S
C889 C887 1.388 . S
C889 C890 1.366 . S
C890 C889 1.366 . S
C890 C891 1.414 . S
C890 C893 1.499 . S
C891 H865 0.950 . S
C891 C890 1.414 . S
C891 C892 1.374 . S
C892 H866 0.950 . S
C892 C888 1.385 . S
C892 C891 1.374 . S
C893 C890 1.499 . S
C893 C894 1.373 . S
C893 C895 1.389 . S
C894 H867 0.950 . S
C894 C880 1.377 . S
C894 C893 1.373 . S
C895 C879 1.377 . S
C895 C893 1.389 . S
C895 C896 1.524 . S
C896 C895 1.524 . S
C896 C897 1.397 . S
C896 C901 1.363 . S
C897 H868 0.950 . S
C897 C896 1.397 . S
C897 C898 1.334 . S
C898 H869 0.950 . S
C898 C897 1.334 . S
C898 C899 1.287 . S
C899 C898 1.287 . S
C899 C900 1.524 . S
C899 H902 0.999 . S
C900 H870 0.950 . S
C900 C899 1.524 . S
C900 C901 1.415 . S
C901 H871 0.950 . S
C901 C896 1.363 . S
C901 C900 1.415 . S
H902 C899 0.999 . S
H903 C884 0.913 . S
H904 C922 0.951 . S
H905 C924 0.951 . S
H906 C926 0.950 . S
H907 C927 0.950 . S
H908 C929 0.950 . S
H909 C932 0.950 . S
H910 C933 0.950 . S
H911 C935 0.950 . S
H912 C936 0.950 . S
H913 C937 0.951 . S
H914 C939 0.951 . S
H915 C941 0.950 . S
H916 C942 0.950 . S
H917 C944 0.950 . S
H918 C947 0.950 . S
H919 C948 0.950 . S
H920 C950 0.950 . S
H921 C951 0.950 . S
C922 H904 0.951 . S
C922 C923 1.366 . S
C922 C924 1.388 . S
C923 C922 1.366 . S
C923 C927 1.385 . S
C924 H905 0.951 . S
C924 C922 1.388 . S
C924 C925 1.366 . S
C925 C924 1.366 . S
C925 C926 1.414 . S
C925 C928 1.499 . S
C926 H906 0.950 . S
C926 C925 1.414 . S
C926 C927 1.374 . S
C927 H907 0.950 . S
C927 C923 1.385 . S
C927 C926 1.374 . S
C928 C925 1.499 . S
C928 C929 1.373 . S
C928 C930 1.389 . S
C929 H908 0.950 . S
C929 C928 1.373 . S
C929 C945 1.377 . S
C930 C928 1.389 . S
C930 C931 1.524 . S
C930 C944 1.377 . S
C931 C930 1.524 . S
C931 C932 1.397 . S
C931 C936 1.363 . S
C932 H909 0.950 . S
C932 C931 1.397 . S
C932 C933 1.334 . S
C933 H910 0.950 . S
C933 C932 1.334 . S
C933 C934 1.287 . S
C934 C933 1.287 . S
C934 C935 1.524 . S
C934 H953 0.913 . S
C935 H911 0.950 . S
C935 C934 1.524 . S
C935 C936 1.415 . S
C936 H912 0.950 . S
C936 C931 1.363 . S
C936 C935 1.415 . S
C937 H913 0.951 . S
C937 C938 1.366 . S
C937 C939 1.388 . S
C938 C937 1.366 . S
C938 C942 1.385 . S
C939 H914 0.951 . S
C939 C937 1.388 . S
C939 C940 1.366 . S
C940 C939 1.366 . S
C940 C941 1.414 . S
C940 C943 1.499 . S
C941 H915 0.950 . S
C941 C940 1.414 . S
C941 C942 1.374 . S
C942 H916 0.950 . S
C942 C938 1.385 . S
C942 C941 1.374 . S
C943 C940 1.499 . S
C943 C944 1.373 . S
C943 C945 1.389 . S
C944 H917 0.950 . S
C944 C930 1.377 . S
C944 C943 1.373 . S
C945 C929 1.377 . S
C945 C943 1.389 . S
C945 C946 1.524 . S
C946 C945 1.524 . S
C946 C947 1.397 . S
C946 C951 1.363 . S
C947 H918 0.950 . S
C947 C946 1.397 . S
C947 C948 1.334 . S
C948 H919 0.950 . S
C948 C947 1.334 . S
C948 C949 1.287 . S
C949 C948 1.287 . S
C949 C950 1.524 . S
C949 H952 0.999 . S
C950 H920 0.950 . S
C950 C949 1.524 . S
C950 C951 1.415 . S
C951 H921 0.950 . S
C951 C946 1.363 . S
C951 C950 1.415 . S
H952 C949 0.999 . S
H953 C934 0.913 . S
H954 C972 0.951 . S
H955 C974 0.951 . S
H956 C976 0.950 . S
H957 C977 0.950 . S
H958 C979 0.950 . S
H959 C982 0.950 . S
H960 C983 0.950 . S
H961 C985 0.950 . S
H962 C986 0.950 . S
H963 C987 0.951 . S
H964 C989 0.951 . S
H965 C991 0.950 . S
H966 C992 0.950 . S
H967 C994 0.950 . S
H968 C997 0.950 . S
H969 C998 0.950 . S
H970 C1000 0.950 . S
H971 C1001 0.950 . S
C972 H954 0.951 . S
C972 C973 1.366 . S
C972 C974 1.388 . S
C973 C972 1.366 . S
C973 C977 1.385 . S
C974 H955 0.951 . S
C974 C972 1.388 . S
C974 C975 1.366 . S
C975 C974 1.366 . S
C975 C976 1.414 . S
C975 C978 1.499 . S
C976 H956 0.950 . S
C976 C975 1.414 . S
C976 C977 1.374 . S
C977 H957 0.950 . S
C977 C973 1.385 . S
C977 C976 1.374 . S
C978 C975 1.499 . S
C978 C979 1.373 . S
C978 C980 1.389 . S
C979 H958 0.950 . S
C979 C978 1.373 . S
C979 C995 1.377 . S
C980 C978 1.389 . S
C980 C981 1.524 . S
C980 C994 1.377 . S
C981 C980 1.524 . S
C981 C982 1.397 . S
C981 C986 1.363 . S
C982 H959 0.950 . S
C982 C981 1.397 . S
C982 C983 1.334 . S
C983 H960 0.950 . S
C983 C982 1.334 . S
C983 C984 1.287 . S
C984 C983 1.287 . S
C984 C985 1.524 . S
C984 H1003 0.913 . S
C985 H961 0.950 . S
C985 C984 1.524 . S
C985 C986 1.415 . S
C986 H962 0.950 . S
C986 C981 1.363 . S
C986 C985 1.415 . S
C987 H963 0.951 . S
C987 C988 1.366 . S
C987 C989 1.388 . S
C988 C987 1.366 . S
C988 C992 1.385 . S
C989 H964 0.951 . S
C989 C987 1.388 . S
C989 C990 1.366 . S
C990 C989 1.366 . S
C990 C991 1.414 . S
C990 C993 1.499 . S
C991 H965 0.950 . S
C991 C990 1.414 . S
C991 C992 1.374 . S
C992 H966 0.950 . S
C992 C988 1.385 . S
C992 C991 1.374 . S
C993 C990 1.499 . S
C993 C994 1.373 . S
C993 C995 1.389 . S
C994 H967 0.950 . S
C994 C980 1.377 . S
C994 C993 1.373 . S
C995 C979 1.377 . S
C995 C993 1.389 . S
C995 C996 1.524 . S
C996 C995 1.524 . S
C996 C997 1.397 . S
C996 C1001 1.363 . S
C997 H968 0.950 . S
C997 C996 1.397 . S
C997 C998 1.334 . S
C998 H969 0.950 . S
C998 C997 1.334 . S
C998 C999 1.287 . S
C999 C998 1.287 . S
C999 C1000 1.524 . S
C999 H1002 0.999 . S
C1000 H970 0.950 . S
C1000 C999 1.524 . S
C1000 C1001 1.415 . S
C1001 H971 0.950 . S
C1001 C996 1.363 . S
C1001 C1000 1.415 . S
H1002 C999 0.999 . S
H1003 C984 0.913 . S
H1004 C1022 0.951 . S
H1005 C1024 0.951 . S
H1006 C1026 0.950 . S
H1007 C1027 0.950 . S
H1008 C1029 0.950 . S
H1009 C1032 0.950 . S
H1010 C1033 0.950 . S
H1011 C1035 0.950 . S
H1012 C1036 0.950 . S
H1013 C1037 0.951 . S
H1014 C1039 0.951 . S
H1015 C1041 0.950 . S
H1016 C1042 0.950 . S
H1017 C1044 0.950 . S
H1018 C1047 0.950 . S
H1019 C1048 0.950 . S
H1020 C1050 0.950 . S
H1021 C1051 0.950 . S
C1022 H1004 0.951 . S
C1022 C1023 1.366 . S
C1022 C1024 1.388 . S
C1023 C1022 1.366 . S
C1023 C1027 1.385 . S
C1024 H1005 0.951 . S
C1024 C1022 1.388 . S
C1024 C1025 1.366 . S
C1025 C1024 1.366 . S
C1025 C1026 1.414 . S
C1025 C1028 1.499 . S
C1026 H1006 0.950 . S
C1026 C1025 1.414 . S
C1026 C1027 1.374 . S
C1027 H1007 0.950 . S
C1027 C1023 1.385 . S
C1027 C1026 1.374 . S
C1028 C1025 1.499 . S
C1028 C1029 1.373 . S
C1028 C1030 1.389 . S
C1029 H1008 0.950 . S
C1029 C1028 1.373 . S
C1029 C1045 1.377 . S
C1030 C1028 1.389 . S
C1030 C1031 1.524 . S
C1030 C1044 1.377 . S
C1031 C1030 1.524 . S
C1031 C1032 1.397 . S
C1031 C1036 1.363 . S
C1032 H1009 0.950 . S
C1032 C1031 1.397 . S
C1032 C1033 1.334 . S
C1033 H1010 0.950 . S
C1033 C1032 1.334 . S
C1033 C1034 1.287 . S
C1034 C1033 1.287 . S
C1034 C1035 1.524 . S
C1034 H1053 0.913 . S
C1035 H1011 0.950 . S
C1035 C1034 1.524 . S
C1035 C1036 1.415 . S
C1036 H1012 0.950 . S
C1036 C1031 1.363 . S
C1036 C1035 1.415 . S
C1037 H1013 0.951 . S
C1037 C1038 1.366 . S
C1037 C1039 1.388 . S
C1038 C1037 1.366 . S
C1038 C1042 1.385 . S
C1039 H1014 0.951 . S
C1039 C1037 1.388 . S
C1039 C1040 1.366 . S
C1040 C1039 1.366 . S
C1040 C1041 1.414 . S
C1040 C1043 1.499 . S
C1041 H1015 0.950 . S
C1041 C1040 1.414 . S
C1041 C1042 1.374 . S
C1042 H1016 0.950 . S
C1042 C1038 1.385 . S
C1042 C1041 1.374 . S
C1043 C1040 1.499 . S
C1043 C1044 1.373 . S
C1043 C1045 1.389 . S
C1044 H1017 0.950 . S
C1044 C1030 1.377 . S
C1044 C1043 1.373 . S
C1045 C1029 1.377 . S
C1045 C1043 1.389 . S
C1045 C1046 1.524 . S
C1046 C1045 1.524 . S
C1046 C1047 1.397 . S
C1046 C1051 1.363 . S
C1047 H1018 0.950 . S
C1047 C1046 1.397 . S
C1047 C1048 1.334 . S
C1048 H1019 0.950 . S
C1048 C1047 1.334 . S
C1048 C1049 1.287 . S
C1049 C1048 1.287 . S
C1049 C1050 1.524 . S
C1049 H1052 0.999 . S
C1050 H1020 0.950 . S
C1050 C1049 1.524 . S
C1050 C1051 1.415 . S
C1051 H1021 0.950 . S
C1051 C1046 1.363 . S
C1051 C1050 1.415 . S
H1052 C1049 0.999 . S
H1053 C1034 0.913 . S
H1054 C1072 0.951 . S
H1055 C1074 0.951 . S
H1056 C1076 0.950 . S
H1057 C1077 0.950 . S
H1058 C1079 0.950 . S
H1059 C1082 0.950 . S
H1060 C1083 0.950 . S
H1061 C1085 0.950 . S
H1062 C1086 0.950 . S
H1063 C1087 0.951 . S
H1064 C1089 0.951 . S
H1065 C1091 0.950 . S
H1066 C1092 0.950 . S
H1067 C1094 0.950 . S
H1068 C1097 0.950 . S
H1069 C1098 0.950 . S
H1070 C1100 0.950 . S
H1071 C1101 0.950 . S
C1072 H1054 0.951 . S
C1072 C1073 1.366 . S
C1072 C1074 1.388 . S
C1073 C1072 1.366 . S
C1073 C1077 1.385 . S
C1074 H1055 0.951 . S
C1074 C1072 1.388 . S
C1074 C1075 1.366 . S
C1075 C1074 1.366 . S
C1075 C1076 1.414 . S
C1075 C1078 1.499 . S
C1076 H1056 0.950 . S
C1076 C1075 1.414 . S
C1076 C1077 1.374 . S
C1077 H1057 0.950 . S
C1077 C1073 1.385 . S
C1077 C1076 1.374 . S
C1078 C1075 1.499 . S
C1078 C1079 1.373 . S
C1078 C1080 1.389 . S
C1079 H1058 0.950 . S
C1079 C1078 1.373 . S
C1079 C1095 1.377 . S
C1080 C1078 1.389 . S
C1080 C1081 1.524 . S
C1080 C1094 1.377 . S
C1081 C1080 1.524 . S
C1081 C1082 1.397 . S
C1081 C1086 1.363 . S
C1082 H1059 0.950 . S
C1082 C1081 1.397 . S
C1082 C1083 1.334 . S
C1083 H1060 0.950 . S
C1083 C1082 1.334 . S
C1083 C1084 1.287 . S
C1084 C1083 1.287 . S
C1084 C1085 1.524 . S
C1084 H1103 0.913 . S
C1085 H1061 0.950 . S
C1085 C1084 1.524 . S
C1085 C1086 1.415 . S
C1086 H1062 0.950 . S
C1086 C1081 1.363 . S
C1086 C1085 1.415 . S
C1087 H1063 0.951 . S
C1087 C1088 1.366 . S
C1087 C1089 1.388 . S
C1088 C1087 1.366 . S
C1088 C1092 1.385 . S
C1089 H1064 0.951 . S
C1089 C1087 1.388 . S
C1089 C1090 1.366 . S
C1090 C1089 1.366 . S
C1090 C1091 1.414 . S
C1090 C1093 1.499 . S
C1091 H1065 0.950 . S
C1091 C1090 1.414 . S
C1091 C1092 1.374 . S
C1092 H1066 0.950 . S
C1092 C1088 1.385 . S
C1092 C1091 1.374 . S
C1093 C1090 1.499 . S
C1093 C1094 1.373 . S
C1093 C1095 1.389 . S
C1094 H1067 0.950 . S
C1094 C1080 1.377 . S
C1094 C1093 1.373 . S
C1095 C1079 1.377 . S
C1095 C1093 1.389 . S
C1095 C1096 1.524 . S
C1096 C1095 1.524 . S
C1096 C1097 1.397 . S
C1096 C1101 1.363 . S
C1097 H1068 0.950 . S
C1097 C1096 1.397 . S
C1097 C1098 1.334 . S
C1098 H1069 0.950 . S
C1098 C1097 1.334 . S
C1098 C1099 1.287 . S
C1099 C1098 1.287 . S
C1099 C1100 1.524 . S
C1099 H1102 0.999 . S
C1100 H1070 0.950 . S
C1100 C1099 1.524 . S
C1100 C1101 1.415 . S
C1101 H1071 0.950 . S
C1101 C1096 1.363 . S
C1101 C1100 1.415 . S
H1102 C1099 0.999 . S
H1103 C1084 0.913 . S
H1104 C1122 0.951 . S
H1105 C1124 0.951 . S
H1106 C1126 0.950 . S
H1107 C1127 0.950 . S
H1108 C1129 0.950 . S
H1109 C1132 0.950 . S
H1110 C1133 0.950 . S
H1111 C1135 0.950 . S
H1112 C1136 0.950 . S
H1113 C1137 0.951 . S
H1114 C1139 0.951 . S
H1115 C1141 0.950 . S
H1116 C1142 0.950 . S
H1117 C1144 0.950 . S
H1118 C1147 0.950 . S
H1119 C1148 0.950 . S
H1120 C1150 0.950 . S
H1121 C1151 0.950 . S
C1122 H1104 0.951 . S
C1122 C1123 1.366 . S
C1122 C1124 1.388 . S
C1123 C1122 1.366 . S
C1123 C1127 1.385 . S
C1124 H1105 0.951 . S
C1124 C1122 1.388 . S
C1124 C1125 1.366 . S
C1125 C1124 1.366 . S
C1125 C1126 1.414 . S
C1125 C1128 1.499 . S
C1126 H1106 0.950 . S
C1126 C1125 1.414 . S
C1126 C1127 1.374 . S
C1127 H1107 0.950 . S
C1127 C1123 1.385 . S
C1127 C1126 1.374 . S
C1128 C1125 1.499 . S
C1128 C1129 1.373 . S
C1128 C1130 1.389 . S
C1129 H1108 0.950 . S
C1129 C1128 1.373 . S
C1129 C1145 1.377 . S
C1130 C1128 1.389 . S
C1130 C1131 1.524 . S
C1130 C1144 1.377 . S
C1131 C1130 1.524 . S
C1131 C1132 1.397 . S
C1131 C1136 1.363 . S
C1132 H1109 0.950 . S
C1132 C1131 1.397 . S
C1132 C1133 1.334 . S
C1133 H1110 0.950 . S
C1133 C1132 1.334 . S
C1133 C1134 1.287 . S
C1134 C1133 1.287 . S
C1134 C1135 1.524 . S
C1134 H1153 0.913 . S
C1135 H1111 0.950 . S
C1135 C1134 1.524 . S
C1135 C1136 1.415 . S
C1136 H1112 0.950 . S
C1136 C1131 1.363 . S
C1136 C1135 1.415 . S
C1137 H1113 0.951 . S
C1137 C1138 1.366 . S
C1137 C1139 1.388 . S
C1138 C1137 1.366 . S
C1138 C1142 1.385 . S
C1139 H1114 0.951 . S
C1139 C1137 1.388 . S
C1139 C1140 1.366 . S
C1140 C1139 1.366 . S
C1140 C1141 1.414 . S
C1140 C1143 1.499 . S
C1141 H1115 0.950 . S
C1141 C1140 1.414 . S
C1141 C1142 1.374 . S
C1142 H1116 0.950 . S
C1142 C1138 1.385 . S
C1142 C1141 1.374 . S
C1143 C1140 1.499 . S
C1143 C1144 1.373 . S
C1143 C1145 1.389 . S
C1144 H1117 0.950 . S
C1144 C1130 1.377 . S
C1144 C1143 1.373 . S
C1145 C1129 1.377 . S
C1145 C1143 1.389 . S
C1145 C1146 1.524 . S
C1146 C1145 1.524 . S
C1146 C1147 1.397 . S
C1146 C1151 1.363 . S
C1147 H1118 0.950 . S
C1147 C1146 1.397 . S
C1147 C1148 1.334 . S
C1148 H1119 0.950 . S
C1148 C1147 1.334 . S
C1148 C1149 1.287 . S
C1149 C1148 1.287 . S
C1149 C1150 1.524 . S
C1149 H1152 0.999 . S
C1150 H1120 0.950 . S
C1150 C1149 1.524 . S
C1150 C1151 1.415 . S
C1151 H1121 0.950 . S
C1151 C1146 1.363 . S
C1151 C1150 1.415 . S
H1152 C1149 0.999 . S
H1153 C1134 0.913 . S
H1154 C1172 0.951 . S
H1155 C1174 0.951 . S
H1156 C1176 0.950 . S
H1157 C1177 0.950 . S
H1158 C1179 0.950 . S
H1159 C1182 0.950 . S
H1160 C1183 0.950 . S
H1161 C1185 0.950 . S
H1162 C1186 0.950 . S
H1163 C1187 0.951 . S
H1164 C1189 0.951 . S
H1165 C1191 0.950 . S
H1166 C1192 0.950 . S
H1167 C1194 0.950 . S
H1168 C1197 0.950 . S
H1169 C1198 0.950 . S
H1170 C1200 0.950 . S
H1171 C1201 0.950 . S
C1172 H1154 0.951 . S
C1172 C1173 1.366 . S
C1172 C1174 1.388 . S
C1173 C1172 1.366 . S
C1173 C1177 1.385 . S
C1174 H1155 0.951 . S
C1174 C1172 1.388 . S
C1174 C1175 1.366 . S
C1175 C1174 1.366 . S
C1175 C1176 1.414 . S
C1175 C1178 1.499 . S
C1176 H1156 0.950 . S
C1176 C1175 1.414 . S
C1176 C1177 1.374 . S
C1177 H1157 0.950 . S
C1177 C1173 1.385 . S
C1177 C1176 1.374 . S
C1178 C1175 1.499 . S
C1178 C1179 1.373 . S
C1178 C1180 1.389 . S
C1179 H1158 0.950 . S
C1179 C1178 1.373 . S
C1179 C1195 1.377 . S
C1180 C1178 1.389 . S
C1180 C1181 1.524 . S
C1180 C1194 1.377 . S
C1181 C1180 1.524 . S
C1181 C1182 1.397 . S
C1181 C1186 1.363 . S
C1182 H1159 0.950 . S
C1182 C1181 1.397 . S
C1182 C1183 1.334 . S
C1183 H1160 0.950 . S
C1183 C1182 1.334 . S
C1183 C1184 1.287 . S
C1184 C1183 1.287 . S
C1184 C1185 1.524 . S
C1184 H1203 0.913 . S
C1185 H1161 0.950 . S
C1185 C1184 1.524 . S
C1185 C1186 1.415 . S
C1186 H1162 0.950 . S
C1186 C1181 1.363 . S
C1186 C1185 1.415 . S
C1187 H1163 0.951 . S
C1187 C1188 1.366 . S
C1187 C1189 1.388 . S
C1188 C1187 1.366 . S
C1188 C1192 1.385 . S
C1189 H1164 0.951 . S
C1189 C1187 1.388 . S
C1189 C1190 1.366 . S
C1190 C1189 1.366 . S
C1190 C1191 1.414 . S
C1190 C1193 1.499 . S
C1191 H1165 0.950 . S
C1191 C1190 1.414 . S
C1191 C1192 1.374 . S
C1192 H1166 0.950 . S
C1192 C1188 1.385 . S
C1192 C1191 1.374 . S
C1193 C1190 1.499 . S
C1193 C1194 1.373 . S
C1193 C1195 1.389 . S
C1194 H1167 0.950 . S
C1194 C1180 1.377 . S
C1194 C1193 1.373 . S
C1195 C1179 1.377 . S
C1195 C1193 1.389 . S
C1195 C1196 1.524 . S
C1196 C1195 1.524 . S
C1196 C1197 1.397 . S
C1196 C1201 1.363 . S
C1197 H1168 0.950 . S
C1197 C1196 1.397 . S
C1197 C1198 1.334 . S
C1198 H1169 0.950 . S
C1198 C1197 1.334 . S
C1198 C1199 1.287 . S
C1199 C1198 1.287 . S
C1199 C1200 1.524 . S
C1199 H1202 0.999 . S
C1200 H1170 0.950 . S
C1200 C1199 1.524 . S
C1200 C1201 1.415 . S
C1201 H1171 0.950 . S
C1201 C1196 1.363 . S
C1201 C1200 1.415 . S
H1202 C1199 0.999 . S
H1203 C1184 0.913 . S
H1204 C1222 0.951 . S
H1205 C1224 0.951 . S
H1206 C1226 0.950 . S
H1207 C1227 0.950 . S
H1208 C1229 0.950 . S
H1209 C1232 0.950 . S
H1210 C1233 0.950 . S
H1211 C1235 0.950 . S
H1212 C1236 0.950 . S
H1213 C1237 0.951 . S
H1214 C1239 0.951 . S
H1215 C1241 0.950 . S
H1216 C1242 0.950 . S
H1217 C1244 0.950 . S
H1218 C1247 0.950 . S
H1219 C1248 0.950 . S
H1220 C1250 0.950 . S
H1221 C1251 0.950 . S
C1222 H1204 0.951 . S
C1222 C1223 1.366 . S
C1222 C1224 1.388 . S
C1223 C1222 1.366 . S
C1223 C1227 1.385 . S
C1224 H1205 0.951 . S
C1224 C1222 1.388 . S
C1224 C1225 1.366 . S
C1225 C1224 1.366 . S
C1225 C1226 1.414 . S
C1225 C1228 1.499 . S
C1226 H1206 0.950 . S
C1226 C1225 1.414 . S
C1226 C1227 1.374 . S
C1227 H1207 0.950 . S
C1227 C1223 1.385 . S
C1227 C1226 1.374 . S
C1228 C1225 1.499 . S
C1228 C1229 1.373 . S
C1228 C1230 1.389 . S
C1229 H1208 0.950 . S
C1229 C1228 1.373 . S
C1229 C1245 1.377 . S
C1230 C1228 1.389 . S
C1230 C1231 1.524 . S
C1230 C1244 1.377 . S
C1231 C1230 1.524 . S
C1231 C1232 1.397 . S
C1231 C1236 1.363 . S
C1232 H1209 0.950 . S
C1232 C1231 1.397 . S
C1232 C1233 1.334 . S
C1233 H1210 0.950 . S
C1233 C1232 1.334 . S
C1233 C1234 1.287 . S
C1234 C1233 1.287 . S
C1234 C1235 1.524 . S
C1234 H1253 0.913 . S
C1235 H1211 0.950 . S
C1235 C1234 1.524 . S
C1235 C1236 1.415 . S
C1236 H1212 0.950 . S
C1236 C1231 1.363 . S
C1236 C1235 1.415 . S
C1237 H1213 0.951 . S
C1237 C1238 1.366 . S
C1237 C1239 1.388 . S
C1238 C1237 1.366 . S
C1238 C1242 1.385 . S
C1239 H1214 0.951 . S
C1239 C1237 1.388 . S
C1239 C1240 1.366 . S
C1240 C1239 1.366 . S
C1240 C1241 1.414 . S
C1240 C1243 1.499 . S
C1241 H1215 0.950 . S
C1241 C1240 1.414 . S
C1241 C1242 1.374 . S
C1242 H1216 0.950 . S
C1242 C1238 1.385 . S
C1242 C1241 1.374 . S
C1243 C1240 1.499 . S
C1243 C1244 1.373 . S
C1243 C1245 1.389 . S
C1244 H1217 0.950 . S
C1244 C1230 1.377 . S
C1244 C1243 1.373 . S
C1245 C1229 1.377 . S
C1245 C1243 1.389 . S
C1245 C1246 1.524 . S
C1246 C1245 1.524 . S
C1246 C1247 1.397 . S
C1246 C1251 1.363 . S
C1247 H1218 0.950 . S
C1247 C1246 1.397 . S
C1247 C1248 1.334 . S
C1248 H1219 0.950 . S
C1248 C1247 1.334 . S
C1248 C1249 1.287 . S
C1249 C1248 1.287 . S
C1249 C1250 1.524 . S
C1249 H1252 0.999 . S
C1250 H1220 0.950 . S
C1250 C1249 1.524 . S
C1250 C1251 1.415 . S
C1251 H1221 0.950 . S
C1251 C1246 1.363 . S
C1251 C1250 1.415 . S
H1252 C1249 0.999 . S
H1253 C1234 0.913 . S
H1254 C1272 0.951 . S
H1255 C1274 0.951 . S
H1256 C1276 0.950 . S
H1257 C1277 0.950 . S
H1258 C1279 0.950 . S
H1259 C1282 0.950 1_554 S
H1260 C1283 0.950 . S
H1261 C1285 0.950 . S
H1262 C1286 0.950 . S
H1263 C1287 0.951 . S
H1264 C1289 0.951 . S
H1265 C1291 0.950 . S
H1266 C1292 0.950 . S
H1267 C1294 0.950 . S
H1268 C1297 0.950 . S
H1269 C1298 0.950 . S
H1270 C1300 0.950 . S
H1271 C1301 0.950 . S
C1272 H1254 0.951 . S
C1272 C1273 1.366 . S
C1272 C1274 1.388 . S
C1273 C1272 1.366 . S
C1273 C1277 1.385 . S
C1274 H1255 0.951 . S
C1274 C1272 1.388 . S
C1274 C1275 1.366 . S
C1275 C1274 1.366 . S
C1275 C1276 1.414 . S
C1275 C1278 1.499 . S
C1276 H1256 0.950 . S
C1276 C1275 1.414 . S
C1276 C1277 1.374 . S
C1277 H1257 0.950 . S
C1277 C1273 1.385 . S
C1277 C1276 1.374 . S
C1278 C1275 1.499 . S
C1278 C1279 1.373 . S
C1278 C1280 1.389 . S
C1279 H1258 0.950 . S
C1279 C1278 1.373 . S
C1279 C1295 1.377 . S
C1280 C1278 1.389 . S
C1280 C1281 1.524 . S
C1280 C1294 1.377 . S
C1281 C1280 1.524 . S
C1281 C1282 1.397 1_554 S
C1281 C1286 1.363 . S
C1282 H1259 0.950 1_556 S
C1282 C1281 1.397 1_556 S
C1282 C1283 1.334 . S
C1283 H1260 0.950 . S
C1283 C1282 1.334 . S
C1283 C1284 1.287 . S
C1284 C1283 1.287 . S
C1284 C1285 1.524 . S
C1284 H1303 0.913 . S
C1285 H1261 0.950 . S
C1285 C1284 1.524 . S
C1285 C1286 1.415 1_556 S
C1286 H1262 0.950 . S
C1286 C1281 1.363 . S
C1286 C1285 1.415 1_554 S
C1287 H1263 0.951 . S
C1287 C1288 1.366 . S
C1287 C1289 1.388 . S
C1288 C1287 1.366 . S
C1288 C1292 1.385 . S
C1289 H1264 0.951 . S
C1289 C1287 1.388 . S
C1289 C1290 1.366 . S
C1290 C1289 1.366 . S
C1290 C1291 1.414 . S
C1290 C1293 1.499 . S
C1291 H1265 0.950 . S
C1291 C1290 1.414 . S
C1291 C1292 1.374 . S
C1292 H1266 0.950 . S
C1292 C1288 1.385 . S
C1292 C1291 1.374 . S
C1293 C1290 1.499 . S
C1293 C1294 1.373 . S
C1293 C1295 1.389 . S
C1294 H1267 0.950 . S
C1294 C1280 1.377 . S
C1294 C1293 1.373 . S
C1295 C1279 1.377 . S
C1295 C1293 1.389 . S
C1295 C1296 1.524 . S
C1296 C1295 1.524 . S
C1296 C1297 1.397 . S
C1296 C1301 1.363 . S
C1297 H1268 0.950 . S
C1297 C1296 1.397 . S
C1297 C1298 1.334 . S
C1298 H1269 0.950 . S
C1298 C1297 1.334 . S
C1298 C1299 1.287 . S
C1299 C1298 1.287 . S
C1299 C1300 1.524 . S
C1299 H1302 0.999 . S
C1300 H1270 0.950 . S
C1300 C1299 1.524 . S
C1300 C1301 1.415 . S
C1301 H1271 0.950 . S
C1301 C1296 1.363 . S
C1301 C1300 1.415 . S
H1302 C1299 0.999 . S
H1303 C1284 0.913 . S
H1304 C1322 0.951 . S
H1305 C1324 0.951 . S
H1306 C1326 0.950 . S
H1307 C1327 0.950 . S
H1308 C1329 0.950 . S
H1309 C1332 0.950 . S
H1310 C1333 0.950 . S
H1311 C1335 0.950 . S
H1312 C1336 0.950 . S
H1313 C1337 0.951 . S
H1314 C1339 0.951 . S
H1315 C1341 0.950 . S
H1316 C1342 0.950 . S
H1317 C1344 0.950 . S
H1318 C1347 0.950 . S
H1319 C1348 0.950 . S
H1320 C1350 0.950 . S
H1321 C1351 0.950 . S
C1322 H1304 0.951 . S
C1322 C1323 1.366 . S
C1322 C1324 1.388 . S
C1323 C1322 1.366 . S
C1323 C1327 1.385 . S
C1324 H1305 0.951 . S
C1324 C1322 1.388 . S
C1324 C1325 1.366 . S
C1325 C1324 1.366 . S
C1325 C1326 1.414 . S
C1325 C1328 1.499 . S
C1326 H1306 0.950 . S
C1326 C1325 1.414 . S
C1326 C1327 1.374 . S
C1327 H1307 0.950 . S
C1327 C1323 1.385 . S
C1327 C1326 1.374 . S
C1328 C1325 1.499 . S
C1328 C1329 1.373 . S
C1328 C1330 1.389 . S
C1329 H1308 0.950 . S
C1329 C1328 1.373 . S
C1329 C1345 1.377 . S
C1330 C1328 1.389 . S
C1330 C1331 1.524 . S
C1330 C1344 1.377 . S
C1331 C1330 1.524 . S
C1331 C1332 1.397 . S
C1331 C1336 1.363 . S
C1332 H1309 0.950 . S
C1332 C1331 1.397 . S
C1332 C1333 1.334 . S
C1333 H1310 0.950 . S
C1333 C1332 1.334 . S
C1333 C1334 1.287 . S
C1334 C1333 1.287 . S
C1334 C1335 1.524 . S
C1334 H1353 0.913 . S
C1335 H1311 0.950 . S
C1335 C1334 1.524 . S
C1335 C1336 1.415 . S
C1336 H1312 0.950 . S
C1336 C1331 1.363 . S
C1336 C1335 1.415 . S
C1337 H1313 0.951 . S
C1337 C1338 1.366 . S
C1337 C1339 1.388 . S
C1338 C1337 1.366 . S
C1338 C1342 1.385 . S
C1339 H1314 0.951 . S
C1339 C1337 1.388 . S
C1339 C1340 1.366 . S
C1340 C1339 1.366 . S
C1340 C1341 1.414 . S
C1340 C1343 1.499 . S
C1341 H1315 0.950 . S
C1341 C1340 1.414 . S
C1341 C1342 1.374 . S
C1342 H1316 0.950 . S
C1342 C1338 1.385 . S
C1342 C1341 1.374 . S
C1343 C1340 1.499 . S
C1343 C1344 1.373 . S
C1343 C1345 1.389 . S
C1344 H1317 0.950 . S
C1344 C1330 1.377 . S
C1344 C1343 1.373 . S
C1345 C1329 1.377 . S
C1345 C1343 1.389 . S
C1345 C1346 1.524 . S
C1346 C1345 1.524 . S
C1346 C1347 1.397 . S
C1346 C1351 1.363 . S
C1347 H1318 0.950 . S
C1347 C1346 1.397 . S
C1347 C1348 1.334 . S
C1348 H1319 0.950 . S
C1348 C1347 1.334 . S
C1348 C1349 1.287 . S
C1349 C1348 1.287 . S
C1349 C1350 1.524 . S
C1349 H1352 0.999 . S
C1350 H1320 0.950 . S
C1350 C1349 1.524 . S
C1350 C1351 1.415 . S
C1351 H1321 0.950 . S
C1351 C1346 1.363 . S
C1351 C1350 1.415 . S
H1352 C1349 0.999 . S
H1353 C1334 0.913 . S
H1354 C1372 0.951 . S
H1355 C1374 0.951 . S
H1356 C1376 0.950 . S
H1357 C1377 0.950 . S
H1358 C1379 0.950 . S
H1359 C1382 0.950 . S
H1360 C1383 0.950 . S
H1361 C1385 0.950 . S
H1362 C1386 0.950 . S
H1363 C1387 0.951 . S
H1364 C1389 0.951 . S
H1365 C1391 0.950 . S
H1366 C1392 0.950 . S
H1367 C1394 0.950 . S
H1368 C1397 0.950 . S
H1369 C1398 0.950 . S
H1370 C1400 0.950 . S
H1371 C1401 0.950 . S
C1372 H1354 0.951 . S
C1372 C1373 1.366 . S
C1372 C1374 1.388 . S
C1373 C1372 1.366 . S
C1373 C1377 1.385 . S
C1374 H1355 0.951 . S
C1374 C1372 1.388 . S
C1374 C1375 1.366 . S
C1375 C1374 1.366 . S
C1375 C1376 1.414 . S
C1375 C1378 1.499 . S
C1376 H1356 0.950 . S
C1376 C1375 1.414 . S
C1376 C1377 1.374 . S
C1377 H1357 0.950 . S
C1377 C1373 1.385 . S
C1377 C1376 1.374 . S
C1378 C1375 1.499 . S
C1378 C1379 1.373 . S
C1378 C1380 1.389 . S
C1379 H1358 0.950 . S
C1379 C1378 1.373 . S
C1379 C1395 1.377 . S
C1380 C1378 1.389 . S
C1380 C1381 1.524 . S
C1380 C1394 1.377 . S
C1381 C1380 1.524 . S
C1381 C1382 1.397 . S
C1381 C1386 1.363 . S
C1382 H1359 0.950 . S
C1382 C1381 1.397 . S
C1382 C1383 1.334 . S
C1383 H1360 0.950 . S
C1383 C1382 1.334 . S
C1383 C1384 1.287 . S
C1384 C1383 1.287 . S
C1384 C1385 1.524 . S
C1384 H1403 0.913 . S
C1385 H1361 0.950 . S
C1385 C1384 1.524 . S
C1385 C1386 1.415 . S
C1386 H1362 0.950 . S
C1386 C1381 1.363 . S
C1386 C1385 1.415 . S
C1387 H1363 0.951 . S
C1387 C1388 1.366 . S
C1387 C1389 1.388 . S
C1388 C1387 1.366 . S
C1388 C1392 1.385 . S
C1389 H1364 0.951 . S
C1389 C1387 1.388 . S
C1389 C1390 1.366 . S
C1390 C1389 1.366 . S
C1390 C1391 1.414 . S
C1390 C1393 1.499 . S
C1391 H1365 0.950 . S
C1391 C1390 1.414 . S
C1391 C1392 1.374 . S
C1392 H1366 0.950 . S
C1392 C1388 1.385 . S
C1392 C1391 1.374 . S
C1393 C1390 1.499 . S
C1393 C1394 1.373 . S
C1393 C1395 1.389 . S
C1394 H1367 0.950 . S
C1394 C1380 1.377 . S
C1394 C1393 1.373 . S
C1395 C1379 1.377 . S
C1395 C1393 1.389 . S
C1395 C1396 1.524 . S
C1396 C1395 1.524 . S
C1396 C1397 1.397 . S
C1396 C1401 1.363 . S
C1397 H1368 0.950 . S
C1397 C1396 1.397 . S
C1397 C1398 1.334 . S
C1398 H1369 0.950 . S
C1398 C1397 1.334 . S
C1398 C1399 1.287 . S
C1399 C1398 1.287 . S
C1399 C1400 1.524 . S
C1399 H1402 0.999 . S
C1400 H1370 0.950 . S
C1400 C1399 1.524 . S
C1400 C1401 1.415 . S
C1401 H1371 0.950 . S
C1401 C1396 1.363 . S
C1401 C1400 1.415 . S
H1402 C1399 0.999 . S
H1403 C1384 0.913 . S
H1404 C1422 0.951 . S
H1405 C1424 0.951 . S
H1406 C1426 0.950 . S
H1407 C1427 0.950 . S
H1408 C1429 0.950 . S
H1409 C1432 0.950 . S
H1410 C1433 0.950 . S
H1411 C1435 0.950 . S
H1412 C1436 0.950 . S
H1413 C1437 0.951 . S
H1414 C1439 0.951 . S
H1415 C1441 0.950 . S
H1416 C1442 0.950 . S
H1417 C1444 0.950 . S
H1418 C1447 0.950 . S
H1419 C1448 0.950 . S
H1420 C1450 0.950 . S
H1421 C1451 0.950 . S
C1422 H1404 0.951 . S
C1422 C1423 1.366 . S
C1422 C1424 1.388 . S
C1423 C1422 1.366 . S
C1423 C1427 1.385 . S
C1424 H1405 0.951 . S
C1424 C1422 1.388 . S
C1424 C1425 1.366 . S
C1425 C1424 1.366 . S
C1425 C1426 1.414 . S
C1425 C1428 1.499 . S
C1426 H1406 0.950 . S
C1426 C1425 1.414 . S
C1426 C1427 1.374 . S
C1427 H1407 0.950 . S
C1427 C1423 1.385 . S
C1427 C1426 1.374 . S
C1428 C1425 1.499 . S
C1428 C1429 1.373 . S
C1428 C1430 1.389 . S
C1429 H1408 0.950 . S
C1429 C1428 1.373 . S
C1429 C1445 1.377 . S
C1430 C1428 1.389 . S
C1430 C1431 1.524 . S
C1430 C1444 1.377 . S
C1431 C1430 1.524 . S
C1431 C1432 1.397 . S
C1431 C1436 1.363 . S
C1432 H1409 0.950 . S
C1432 C1431 1.397 . S
C1432 C1433 1.334 . S
C1433 H1410 0.950 . S
C1433 C1432 1.334 . S
C1433 C1434 1.287 . S
C1434 C1433 1.287 . S
C1434 C1435 1.524 . S
C1434 H1453 0.913 . S
C1435 H1411 0.950 . S
C1435 C1434 1.524 . S
C1435 C1436 1.415 . S
C1436 H1412 0.950 . S
C1436 C1431 1.363 . S
C1436 C1435 1.415 . S
C1437 H1413 0.951 . S
C1437 C1438 1.366 . S
C1437 C1439 1.388 . S
C1438 C1437 1.366 . S
C1438 C1442 1.385 . S
C1439 H1414 0.951 . S
C1439 C1437 1.388 . S
C1439 C1440 1.366 . S
C1440 C1439 1.366 . S
C1440 C1441 1.414 . S
C1440 C1443 1.499 . S
C1441 H1415 0.950 . S
C1441 C1440 1.414 . S
C1441 C1442 1.374 . S
C1442 H1416 0.950 . S
C1442 C1438 1.385 . S
C1442 C1441 1.374 . S
C1443 C1440 1.499 . S
C1443 C1444 1.373 . S
C1443 C1445 1.389 . S
C1444 H1417 0.950 . S
C1444 C1430 1.377 . S
C1444 C1443 1.373 . S
C1445 C1429 1.377 . S
C1445 C1443 1.389 . S
C1445 C1446 1.524 . S
C1446 C1445 1.524 . S
C1446 C1447 1.397 . S
C1446 C1451 1.363 . S
C1447 H1418 0.950 . S
C1447 C1446 1.397 . S
C1447 C1448 1.334 . S
C1448 H1419 0.950 . S
C1448 C1447 1.334 . S
C1448 C1449 1.287 . S
C1449 C1448 1.287 . S
C1449 C1450 1.524 . S
C1449 H1452 0.999 . S
C1450 H1420 0.950 . S
C1450 C1449 1.524 . S
C1450 C1451 1.415 . S
C1451 H1421 0.950 . S
C1451 C1446 1.363 . S
C1451 C1450 1.415 . S
H1452 C1449 0.999 . S
H1453 C1434 0.913 . S
H1454 C1472 0.951 . S
H1455 C1474 0.951 . S
H1456 C1476 0.950 . S
H1457 C1477 0.950 . S
H1458 C1479 0.950 . S
H1459 C1482 0.950 . S
H1460 C1483 0.950 . S
H1461 C1485 0.950 . S
H1462 C1486 0.950 . S
H1463 C1487 0.951 . S
H1464 C1489 0.951 . S
H1465 C1491 0.950 . S
H1466 C1492 0.950 . S
H1467 C1494 0.950 . S
H1468 C1497 0.950 . S
H1469 C1498 0.950 . S
H1470 C1500 0.950 . S
H1471 C1501 0.950 . S
C1472 H1454 0.951 . S
C1472 C1473 1.366 . S
C1472 C1474 1.388 . S
C1473 C1472 1.366 . S
C1473 C1477 1.385 . S
C1474 H1455 0.951 . S
C1474 C1472 1.388 . S
C1474 C1475 1.366 . S
C1475 C1474 1.366 . S
C1475 C1476 1.414 . S
C1475 C1478 1.499 . S
C1476 H1456 0.950 . S
C1476 C1475 1.414 . S
C1476 C1477 1.374 . S
C1477 H1457 0.950 . S
C1477 C1473 1.385 . S
C1477 C1476 1.374 . S
C1478 C1475 1.499 . S
C1478 C1479 1.373 . S
C1478 C1480 1.389 . S
C1479 H1458 0.950 . S
C1479 C1478 1.373 . S
C1479 C1495 1.377 . S
C1480 C1478 1.389 . S
C1480 C1481 1.524 . S
C1480 C1494 1.377 . S
C1481 C1480 1.524 . S
C1481 C1482 1.397 . S
C1481 C1486 1.363 . S
C1482 H1459 0.950 . S
C1482 C1481 1.397 . S
C1482 C1483 1.334 . S
C1483 H1460 0.950 . S
C1483 C1482 1.334 . S
C1483 C1484 1.287 . S
C1484 C1483 1.287 . S
C1484 C1485 1.524 . S
C1484 H1503 0.913 . S
C1485 H1461 0.950 . S
C1485 C1484 1.524 . S
C1485 C1486 1.415 . S
C1486 H1462 0.950 . S
C1486 C1481 1.363 . S
C1486 C1485 1.415 . S
C1487 H1463 0.951 . S
C1487 C1488 1.366 . S
C1487 C1489 1.388 . S
C1488 C1487 1.366 . S
C1488 C1492 1.385 . S
C1489 H1464 0.951 . S
C1489 C1487 1.388 . S
C1489 C1490 1.366 . S
C1490 C1489 1.366 . S
C1490 C1491 1.414 . S
C1490 C1493 1.499 . S
C1491 H1465 0.950 . S
C1491 C1490 1.414 . S
C1491 C1492 1.374 . S
C1492 H1466 0.950 . S
C1492 C1488 1.385 . S
C1492 C1491 1.374 . S
C1493 C1490 1.499 . S
C1493 C1494 1.373 . S
C1493 C1495 1.389 . S
C1494 H1467 0.950 . S
C1494 C1480 1.377 . S
C1494 C1493 1.373 . S
C1495 C1479 1.377 . S
C1495 C1493 1.389 . S
C1495 C1496 1.524 . S
C1496 C1495 1.524 . S
C1496 C1497 1.397 . S
C1496 C1501 1.363 . S
C1497 H1468 0.950 . S
C1497 C1496 1.397 . S
C1497 C1498 1.334 . S
C1498 H1469 0.950 . S
C1498 C1497 1.334 . S
C1498 C1499 1.287 . S
C1499 C1498 1.287 . S
C1499 C1500 1.524 . S
C1499 H1502 0.999 . S
C1500 H1470 0.950 . S
C1500 C1499 1.524 . S
C1500 C1501 1.415 . S
C1501 H1471 0.950 . S
C1501 C1496 1.363 . S
C1501 C1500 1.415 . S
H1502 C1499 0.999 . S
H1503 C1484 0.913 . S
H1504 C1522 0.951 . S
H1505 C1524 0.951 . S
H1506 C1526 0.950 . S
H1507 C1527 0.950 . S
H1508 C1529 0.950 . S
H1509 C1532 0.950 . S
H1510 C1533 0.950 . S
H1511 C1535 0.950 . S
H1512 C1536 0.950 . S
H1513 C1537 0.951 . S
H1514 C1539 0.951 . S
H1515 C1541 0.950 . S
H1516 C1542 0.950 . S
H1517 C1544 0.950 . S
H1518 C1547 0.950 . S
H1519 C1548 0.950 . S
H1520 C1550 0.950 . S
H1521 C1551 0.950 . S
C1522 H1504 0.951 . S
C1522 C1523 1.366 . S
C1522 C1524 1.388 . S
C1523 C1522 1.366 . S
C1523 C1527 1.385 . S
C1524 H1505 0.951 . S
C1524 C1522 1.388 . S
C1524 C1525 1.366 . S
C1525 C1524 1.366 . S
C1525 C1526 1.414 . S
C1525 C1528 1.499 . S
C1526 H1506 0.950 . S
C1526 C1525 1.414 . S
C1526 C1527 1.374 . S
C1527 H1507 0.950 . S
C1527 C1523 1.385 . S
C1527 C1526 1.374 . S
C1528 C1525 1.499 . S
C1528 C1529 1.373 . S
C1528 C1530 1.389 . S
C1529 H1508 0.950 . S
C1529 C1528 1.373 . S
C1529 C1545 1.377 . S
C1530 C1528 1.389 . S
C1530 C1531 1.524 . S
C1530 C1544 1.377 . S
C1531 C1530 1.524 . S
C1531 C1532 1.397 . S
C1531 C1536 1.363 . S
C1532 H1509 0.950 . S
C1532 C1531 1.397 . S
C1532 C1533 1.334 . S
C1533 H1510 0.950 . S
C1533 C1532 1.334 . S
C1533 C1534 1.287 . S
C1534 C1533 1.287 . S
C1534 C1535 1.524 . S
C1534 H1553 0.913 . S
C1535 H1511 0.950 . S
C1535 C1534 1.524 . S
C1535 C1536 1.415 . S
C1536 H1512 0.950 . S
C1536 C1531 1.363 . S
C1536 C1535 1.415 . S
C1537 H1513 0.951 . S
C1537 C1538 1.366 . S
C1537 C1539 1.388 . S
C1538 C1537 1.366 . S
C1538 C1542 1.385 . S
C1539 H1514 0.951 . S
C1539 C1537 1.388 . S
C1539 C1540 1.366 . S
C1540 C1539 1.366 . S
C1540 C1541 1.414 . S
C1540 C1543 1.499 . S
C1541 H1515 0.950 . S
C1541 C1540 1.414 . S
C1541 C1542 1.374 . S
C1542 H1516 0.950 . S
C1542 C1538 1.385 . S
C1542 C1541 1.374 . S
C1543 C1540 1.499 . S
C1543 C1544 1.373 . S
C1543 C1545 1.389 . S
C1544 H1517 0.950 . S
C1544 C1530 1.377 . S
C1544 C1543 1.373 . S
C1545 C1529 1.377 . S
C1545 C1543 1.389 . S
C1545 C1546 1.524 . S
C1546 C1545 1.524 . S
C1546 C1547 1.397 . S
C1546 C1551 1.363 . S
C1547 H1518 0.950 . S
C1547 C1546 1.397 . S
C1547 C1548 1.334 . S
C1548 H1519 0.950 . S
C1548 C1547 1.334 . S
C1548 C1549 1.287 . S
C1549 C1548 1.287 . S
C1549 C1550 1.524 . S
C1549 H1552 0.999 . S
C1550 H1520 0.950 . S
C1550 C1549 1.524 . S
C1550 C1551 1.415 . S
C1551 H1521 0.950 . S
C1551 C1546 1.363 . S
C1551 C1550 1.415 . S
H1552 C1549 0.999 . S
H1553 C1534 0.913 . S
H1554 C1572 0.951 . S
H1555 C1574 0.951 . S
H1556 C1576 0.950 . S
H1557 C1577 0.950 . S
H1558 C1579 0.950 . S
H1559 C1582 0.950 . S
H1560 C1583 0.950 . S
H1561 C1585 0.950 . S
H1562 C1586 0.950 . S
H1563 C1587 0.918 1_554 S
H1564 C1589 0.951 . S
H1565 C1591 0.950 . S
H1566 C1592 0.950 . S
H1567 C1594 0.950 . S
H1568 C1597 0.950 . S
H1569 C1598 0.950 . S
H1570 C1600 0.950 . S
H1571 C1601 0.950 . S
C1572 H1554 0.951 . S
C1572 C1573 1.366 . S
C1572 C1574 1.388 . S
C1573 C1572 1.366 . S
C1573 C1577 1.385 . S
C1574 H1555 0.951 . S
C1574 C1572 1.388 . S
C1574 C1575 1.366 . S
C1575 C1574 1.366 . S
C1575 C1576 1.414 . S
C1575 C1578 1.499 . S
C1576 H1556 0.950 . S
C1576 C1575 1.414 . S
C1576 C1577 1.374 . S
C1577 H1557 0.950 . S
C1577 C1573 1.385 . S
C1577 C1576 1.374 . S
C1578 C1575 1.499 . S
C1578 C1579 1.373 . S
C1578 C1580 1.389 . S
C1579 H1558 0.950 . S
C1579 C1578 1.373 . S
C1579 C1595 1.377 . S
C1580 C1578 1.389 . S
C1580 C1581 1.524 . S
C1580 C1594 1.377 . S
C1581 C1580 1.524 . S
C1581 C1582 1.397 . S
C1581 C1586 1.363 . S
C1582 H1559 0.950 . S
C1582 C1581 1.397 . S
C1582 C1583 1.334 . S
C1583 H1560 0.950 . S
C1583 C1582 1.334 . S
C1583 C1584 1.287 . S
C1584 C1583 1.287 . S
C1584 C1585 1.524 . S
C1584 H1603 0.913 . S
C1585 H1561 0.950 . S
C1585 C1584 1.524 . S
C1585 C1586 1.415 . S
C1586 H1562 0.950 . S
C1586 C1581 1.363 . S
C1586 C1585 1.415 . S
C1587 H1563 0.918 1_556 S
C1587 C1588 1.353 1_556 S
C1587 C1589 1.436 . S
C1588 C1587 1.353 1_554 S
C1588 C1592 1.385 1_554 S
C1589 H1564 0.951 . S
C1589 C1587 1.436 . S
C1589 C1590 1.366 . S
C1590 C1589 1.366 . S
C1590 C1591 1.414 . S
C1590 C1593 1.499 . S
C1591 H1565 0.950 . S
C1591 C1590 1.414 . S
C1591 C1592 1.374 . S
C1592 H1566 0.950 . S
C1592 C1588 1.385 1_556 S
C1592 C1591 1.374 . S
C1593 C1590 1.499 . S
C1593 C1594 1.373 . S
C1593 C1595 1.389 . S
C1594 H1567 0.950 . S
C1594 C1580 1.377 . S
C1594 C1593 1.373 . S
C1595 C1579 1.377 . S
C1595 C1593 1.389 . S
C1595 C1596 1.524 . S
C1596 C1595 1.524 . S
C1596 C1597 1.397 . S
C1596 C1601 1.363 . S
C1597 H1568 0.950 . S
C1597 C1596 1.397 . S
C1597 C1598 1.334 . S
C1598 H1569 0.950 . S
C1598 C1597 1.334 . S
C1598 C1599 1.287 . S
C1599 C1598 1.287 . S
C1599 C1600 1.524 . S
C1599 H1602 0.999 . S
C1600 H1570 0.950 . S
C1600 C1599 1.524 . S
C1600 C1601 1.415 . S
C1601 H1571 0.950 . S
C1601 C1596 1.363 . S
C1601 C1600 1.415 . S
H1602 C1599 0.999 . S
H1603 C1584 0.913 . S
H1604 C1622 0.951 . S
H1605 C1624 0.951 . S
H1606 C1626 0.950 . S
H1607 C1627 0.950 . S
H1608 C1629 0.950 . S
H1609 C1632 0.950 . S
H1610 C1633 0.950 . S
H1611 C1635 0.950 . S
H1612 C1636 0.950 . S
H1613 C1637 0.951 . S
H1614 C1639 0.951 . S
H1615 C1641 0.950 . S
H1616 C1642 0.950 . S
H1617 C1644 0.950 . S
H1618 C1647 0.950 . S
H1619 C1648 0.950 . S
H1620 C1650 0.950 . S
H1621 C1651 0.950 . S
C1622 H1604 0.951 . S
C1622 C1623 1.366 . S
C1622 C1624 1.388 . S
C1623 C1622 1.366 . S
C1623 C1627 1.385 . S
C1624 H1605 0.951 . S
C1624 C1622 1.388 . S
C1624 C1625 1.366 . S
C1625 C1624 1.366 . S
C1625 C1626 1.414 . S
C1625 C1628 1.499 . S
C1626 H1606 0.950 . S
C1626 C1625 1.414 . S
C1626 C1627 1.374 . S
C1627 H1607 0.950 . S
C1627 C1623 1.385 . S
C1627 C1626 1.374 . S
C1628 C1625 1.499 . S
C1628 C1629 1.373 . S
C1628 C1630 1.389 . S
C1629 H1608 0.950 . S
C1629 C1628 1.373 . S
C1629 C1645 1.377 . S
C1630 C1628 1.389 . S
C1630 C1631 1.524 . S
C1630 C1644 1.377 . S
C1631 C1630 1.524 . S
C1631 C1632 1.397 . S
C1631 C1636 1.363 . S
C1632 H1609 0.950 . S
C1632 C1631 1.397 . S
C1632 C1633 1.334 . S
C1633 H1610 0.950 . S
C1633 C1632 1.334 . S
C1633 C1634 1.287 . S
C1634 C1633 1.287 . S
C1634 C1635 1.524 . S
C1634 H1653 0.913 . S
C1635 H1611 0.950 . S
C1635 C1634 1.524 . S
C1635 C1636 1.415 . S
C1636 H1612 0.950 . S
C1636 C1631 1.363 . S
C1636 C1635 1.415 . S
C1637 H1613 0.951 . S
C1637 C1638 1.366 . S
C1637 C1639 1.388 . S
C1638 C1637 1.366 . S
C1638 C1642 1.385 . S
C1639 H1614 0.951 . S
C1639 C1637 1.388 . S
C1639 C1640 1.366 . S
C1640 C1639 1.366 . S
C1640 C1641 1.414 . S
C1640 C1643 1.499 . S
C1641 H1615 0.950 . S
C1641 C1640 1.414 . S
C1641 C1642 1.374 . S
C1642 H1616 0.950 . S
C1642 C1638 1.385 . S
C1642 C1641 1.374 . S
C1643 C1640 1.499 . S
C1643 C1644 1.373 . S
C1643 C1645 1.389 . S
C1644 H1617 0.950 . S
C1644 C1630 1.377 . S
C1644 C1643 1.373 . S
C1645 C1629 1.377 . S
C1645 C1643 1.389 . S
C1645 C1646 1.524 . S
C1646 C1645 1.524 . S
C1646 C1647 1.397 . S
C1646 C1651 1.363 . S
C1647 H1618 0.950 . S
C1647 C1646 1.397 . S
C1647 C1648 1.334 . S
C1648 H1619 0.950 . S
C1648 C1647 1.334 . S
C1648 C1649 1.287 . S
C1649 C1648 1.287 . S
C1649 C1650 1.524 . S
C1649 H1652 0.999 . S
C1650 H1620 0.950 . S
C1650 C1649 1.524 . S
C1650 C1651 1.415 . S
C1651 H1621 0.950 . S
C1651 C1646 1.363 . S
C1651 C1650 1.415 . S
H1652 C1649 0.999 . S
H1653 C1634 0.913 . S
H1654 C1672 0.951 . S
H1655 C1674 0.951 . S
H1656 C1676 0.950 . S
H1657 C1677 0.950 . S
H1658 C1679 0.950 . S
H1659 C1682 0.950 . S
H1660 C1683 0.950 . S
H1661 C1685 0.950 . S
H1662 C1686 0.950 . S
H1663 C1687 0.951 . S
H1664 C1689 0.951 . S
H1665 C1691 0.950 . S
H1666 C1692 0.950 . S
H1667 C1694 0.950 . S
H1668 C1697 0.950 . S
H1669 C1698 0.950 . S
H1670 C1700 0.950 . S
H1671 C1701 0.950 . S
C1672 H1654 0.951 . S
C1672 C1673 1.366 . S
C1672 C1674 1.388 . S
C1673 C1672 1.366 . S
C1673 C1677 1.385 . S
C1674 H1655 0.951 . S
C1674 C1672 1.388 . S
C1674 C1675 1.366 . S
C1675 C1674 1.366 . S
C1675 C1676 1.414 . S
C1675 C1678 1.499 . S
C1676 H1656 0.950 . S
C1676 C1675 1.414 . S
C1676 C1677 1.374 . S
C1677 H1657 0.950 . S
C1677 C1673 1.385 . S
C1677 C1676 1.374 . S
C1678 C1675 1.499 . S
C1678 C1679 1.373 . S
C1678 C1680 1.389 . S
C1679 H1658 0.950 . S
C1679 C1678 1.373 . S
C1679 C1695 1.377 . S
C1680 C1678 1.389 . S
C1680 C1681 1.524 . S
C1680 C1694 1.377 . S
C1681 C1680 1.524 . S
C1681 C1682 1.397 . S
C1681 C1686 1.363 . S
C1682 H1659 0.950 . S
C1682 C1681 1.397 . S
C1682 C1683 1.334 . S
C1683 H1660 0.950 . S
C1683 C1682 1.334 . S
C1683 C1684 1.287 . S
C1684 C1683 1.287 . S
C1684 C1685 1.524 . S
C1684 H1703 0.913 . S
C1685 H1661 0.950 . S
C1685 C1684 1.524 . S
C1685 C1686 1.415 . S
C1686 H1662 0.950 . S
C1686 C1681 1.363 . S
C1686 C1685 1.415 . S
C1687 H1663 0.951 . S
C1687 C1688 1.366 . S
C1687 C1689 1.388 . S
C1688 C1687 1.366 . S
C1688 C1692 1.385 . S
C1689 H1664 0.951 . S
C1689 C1687 1.388 . S
C1689 C1690 1.366 . S
C1690 C1689 1.366 . S
C1690 C1691 1.414 . S
C1690 C1693 1.499 . S
C1691 H1665 0.950 . S
C1691 C1690 1.414 . S
C1691 C1692 1.374 . S
C1692 H1666 0.950 . S
C1692 C1688 1.385 . S
C1692 C1691 1.374 . S
C1693 C1690 1.499 . S
C1693 C1694 1.373 . S
C1693 C1695 1.389 . S
C1694 H1667 0.950 . S
C1694 C1680 1.377 . S
C1694 C1693 1.373 . S
C1695 C1679 1.377 . S
C1695 C1693 1.389 . S
C1695 C1696 1.524 . S
C1696 C1695 1.524 . S
C1696 C1697 1.397 . S
C1696 C1701 1.363 . S
C1697 H1668 0.950 . S
C1697 C1696 1.397 . S
C1697 C1698 1.334 . S
C1698 H1669 0.950 . S
C1698 C1697 1.334 . S
C1698 C1699 1.287 . S
C1699 C1698 1.287 . S
C1699 C1700 1.524 . S
C1699 H1702 0.999 . S
C1700 H1670 0.950 . S
C1700 C1699 1.524 . S
C1700 C1701 1.415 . S
C1701 H1671 0.950 . S
C1701 C1696 1.363 . S
C1701 C1700 1.415 . S
H1702 C1699 0.999 . S
H1703 C1684 0.913 . S
H1704 C1722 0.951 . S
H1705 C1724 0.951 . S
H1706 C1726 0.950 . S
H1707 C1727 0.950 . S
H1708 C1729 0.950 . S
H1709 C1732 0.950 . S
H1710 C1733 0.950 . S
H1711 C1735 0.950 . S
H1712 C1736 0.950 . S
H1713 C1737 0.951 . S
H1714 C1739 0.951 . S
H1715 C1741 0.950 . S
H1716 C1742 0.950 . S
H1717 C1744 0.950 . S
H1718 C1747 0.950 . S
H1719 C1748 0.950 . S
H1720 C1750 0.950 . S
H1721 C1751 0.950 . S
C1722 H1704 0.951 . S
C1722 C1723 1.366 . S
C1722 C1724 1.388 . S
C1723 C1722 1.366 . S
C1723 C1727 1.385 . S
C1724 H1705 0.951 . S
C1724 C1722 1.388 . S
C1724 C1725 1.366 . S
C1725 C1724 1.366 . S
C1725 C1726 1.414 . S
C1725 C1728 1.499 . S
C1726 H1706 0.950 . S
C1726 C1725 1.414 . S
C1726 C1727 1.374 . S
C1727 H1707 0.950 . S
C1727 C1723 1.385 . S
C1727 C1726 1.374 . S
C1728 C1725 1.499 . S
C1728 C1729 1.373 . S
C1728 C1730 1.389 . S
C1729 H1708 0.950 . S
C1729 C1728 1.373 . S
C1729 C1745 1.377 . S
C1730 C1728 1.389 . S
C1730 C1731 1.524 . S
C1730 C1744 1.377 . S
C1731 C1730 1.524 . S
C1731 C1732 1.397 . S
C1731 C1736 1.363 . S
C1732 H1709 0.950 . S
C1732 C1731 1.397 . S
C1732 C1733 1.334 . S
C1733 H1710 0.950 . S
C1733 C1732 1.334 . S
C1733 C1734 1.287 . S
C1734 C1733 1.287 . S
C1734 C1735 1.524 . S
C1734 H1753 0.916 . S
C1735 H1711 0.950 . S
C1735 C1734 1.524 . S
C1735 C1736 1.415 . S
C1736 H1712 0.950 . S
C1736 C1731 1.363 . S
C1736 C1735 1.415 . S
C1737 H1713 0.951 . S
C1737 C1738 1.366 . S
C1737 C1739 1.388 . S
C1738 C1737 1.366 . S
C1738 C1742 1.385 . S
C1739 H1714 0.951 . S
C1739 C1737 1.388 . S
C1739 C1740 1.366 . S
C1740 C1739 1.366 . S
C1740 C1741 1.414 . S
C1740 C1743 1.499 . S
C1741 H1715 0.950 . S
C1741 C1740 1.414 . S
C1741 C1742 1.374 . S
C1742 H1716 0.950 . S
C1742 C1738 1.385 . S
C1742 C1741 1.374 . S
C1743 C1740 1.499 . S
C1743 C1744 1.373 . S
C1743 C1745 1.389 . S
C1744 H1717 0.950 . S
C1744 C1730 1.377 . S
C1744 C1743 1.373 . S
C1745 C1729 1.377 . S
C1745 C1743 1.389 . S
C1745 C1746 1.524 . S
C1746 C1745 1.524 . S
C1746 C1747 1.397 . S
C1746 C1751 1.363 . S
C1747 H1718 0.950 . S
C1747 C1746 1.397 . S
C1747 C1748 1.334 . S
C1748 H1719 0.950 . S
C1748 C1747 1.334 . S
C1748 C1749 1.287 . S
C1749 C1748 1.287 . S
C1749 C1750 1.524 . S
C1749 H1752 0.999 . S
C1750 H1720 0.950 . S
C1750 C1749 1.524 . S
C1750 C1751 1.415 . S
C1751 H1721 0.950 . S
C1751 C1746 1.363 . S
C1751 C1750 1.415 . S
H1752 C1749 0.999 . S
H1753 C1734 0.916 . S
H1754 C1772 0.951 . S
H1755 C1774 0.951 . S
H1756 C1776 0.950 . S
H1757 C1777 0.950 . S
H1758 C1779 0.950 . S
H1759 C1782 0.950 . S
H1760 C1783 0.950 . S
H1761 C1785 0.950 . S
H1762 C1786 0.950 . S
H1763 C1787 0.951 . S
H1764 C1789 0.951 . S
H1765 C1791 0.950 . S
H1766 C1792 0.950 . S
H1767 C1794 0.950 . S
H1768 C1797 0.950 . S
H1769 C1798 0.950 . S
H1770 C1800 0.950 . S
H1771 C1801 0.950 . S
C1772 H1754 0.951 . S
C1772 C1773 1.366 . S
C1772 C1774 1.388 . S
C1773 C1772 1.366 . S
C1773 C1777 1.385 . S
C1774 H1755 0.951 . S
C1774 C1772 1.388 . S
C1774 C1775 1.366 . S
C1775 C1774 1.366 . S
C1775 C1776 1.414 . S
C1775 C1778 1.499 . S
C1776 H1756 0.950 . S
C1776 C1775 1.414 . S
C1776 C1777 1.374 . S
C1777 H1757 0.950 . S
C1777 C1773 1.385 . S
C1777 C1776 1.374 . S
C1778 C1775 1.499 . S
C1778 C1779 1.373 . S
C1778 C1780 1.389 . S
C1779 H1758 0.950 . S
C1779 C1778 1.373 . S
C1779 C1795 1.377 . S
C1780 C1778 1.389 . S
C1780 C1781 1.524 . S
C1780 C1794 1.377 . S
C1781 C1780 1.524 . S
C1781 C1782 1.397 . S
C1781 C1786 1.363 . S
C1782 H1759 0.950 . S
C1782 C1781 1.397 . S
C1782 C1783 1.334 . S
C1783 H1760 0.950 . S
C1783 C1782 1.334 . S
C1783 C1784 1.287 . S
C1784 C1783 1.287 . S
C1784 C1785 1.524 . S
C1784 H1803 0.913 . S
C1785 H1761 0.950 . S
C1785 C1784 1.524 . S
C1785 C1786 1.415 . S
C1786 H1762 0.950 . S
C1786 C1781 1.363 . S
C1786 C1785 1.415 . S
C1787 H1763 0.951 . S
C1787 C1788 1.366 . S
C1787 C1789 1.388 . S
C1788 C1787 1.366 . S
C1788 C1792 1.385 . S
C1789 H1764 0.951 . S
C1789 C1787 1.388 . S
C1789 C1790 1.366 . S
C1790 C1789 1.366 . S
C1790 C1791 1.414 . S
C1790 C1793 1.499 . S
C1791 H1765 0.950 . S
C1791 C1790 1.414 . S
C1791 C1792 1.374 . S
C1792 H1766 0.950 . S
C1792 C1788 1.385 . S
C1792 C1791 1.374 . S
C1793 C1790 1.499 . S
C1793 C1794 1.373 . S
C1793 C1795 1.389 . S
C1794 H1767 0.950 . S
C1794 C1780 1.377 . S
C1794 C1793 1.373 . S
C1795 C1779 1.377 . S
C1795 C1793 1.389 . S
C1795 C1796 1.524 . S
C1796 C1795 1.524 . S
C1796 C1797 1.397 . S
C1796 C1801 1.363 . S
C1797 H1768 0.950 . S
C1797 C1796 1.397 . S
C1797 C1798 1.334 . S
C1798 H1769 0.950 . S
C1798 C1797 1.334 . S
C1798 C1799 1.287 . S
C1799 C1798 1.287 . S
C1799 C1800 1.524 . S
C1799 H1802 0.999 . S
C1800 H1770 0.950 . S
C1800 C1799 1.524 . S
C1800 C1801 1.415 . S
C1801 H1771 0.950 . S
C1801 C1796 1.363 . S
C1801 C1800 1.415 . S
H1802 C1799 0.999 . S
H1803 C1784 0.913 . S
H1804 C1822 0.951 . S
H1805 C1824 0.951 . S
H1806 C1826 0.950 . S
H1807 C1827 0.950 . S
H1808 C1829 0.950 . S
H1809 C1832 0.950 . S
H1810 C1833 0.950 . S
H1811 C1835 0.950 . S
H1812 C1836 0.950 . S
H1813 C1837 0.951 . S
H1814 C1839 0.951 . S
H1815 C1841 0.950 . S
H1816 C1842 0.950 . S
H1817 C1844 0.950 . S
H1818 C1847 0.950 . S
H1819 C1848 0.950 . S
H1820 C1850 0.950 . S
H1821 C1851 0.950 . S
C1822 H1804 0.951 . S
C1822 C1823 1.366 . S
C1822 C1824 1.388 . S
C1823 C1822 1.366 . S
C1823 C1827 1.385 . S
C1824 H1805 0.951 . S
C1824 C1822 1.388 . S
C1824 C1825 1.366 . S
C1825 C1824 1.366 . S
C1825 C1826 1.414 . S
C1825 C1828 1.499 . S
C1826 H1806 0.950 . S
C1826 C1825 1.414 . S
C1826 C1827 1.374 . S
C1827 H1807 0.950 . S
C1827 C1823 1.385 . S
C1827 C1826 1.374 . S
C1828 C1825 1.499 . S
C1828 C1829 1.373 . S
C1828 C1830 1.389 . S
C1829 H1808 0.950 . S
C1829 C1828 1.373 . S
C1829 C1845 1.377 . S
C1830 C1828 1.389 . S
C1830 C1831 1.524 . S
C1830 C1844 1.377 . S
C1831 C1830 1.524 . S
C1831 C1832 1.397 . S
C1831 C1836 1.363 . S
C1832 H1809 0.950 . S
C1832 C1831 1.397 . S
C1832 C1833 1.334 . S
C1833 H1810 0.950 . S
C1833 C1832 1.334 . S
C1833 C1834 1.287 . S
C1834 C1833 1.287 . S
C1834 C1835 1.524 . S
C1834 H1853 0.913 . S
C1835 H1811 0.950 . S
C1835 C1834 1.524 . S
C1835 C1836 1.415 . S
C1836 H1812 0.950 . S
C1836 C1831 1.363 . S
C1836 C1835 1.415 . S
C1837 H1813 0.951 . S
C1837 C1838 1.366 . S
C1837 C1839 1.388 . S
C1838 C1837 1.366 . S
C1838 C1842 1.385 . S
C1839 H1814 0.951 . S
C1839 C1837 1.388 . S
C1839 C1840 1.366 . S
C1840 C1839 1.366 . S
C1840 C1841 1.414 . S
C1840 C1843 1.499 . S
C1841 H1815 0.950 . S
C1841 C1840 1.414 . S
C1841 C1842 1.374 . S
C1842 H1816 0.950 . S
C1842 C1838 1.385 . S
C1842 C1841 1.374 . S
C1843 C1840 1.499 . S
C1843 C1844 1.373 . S
C1843 C1845 1.389 . S
C1844 H1817 0.950 . S
C1844 C1830 1.377 . S
C1844 C1843 1.373 . S
C1845 C1829 1.377 . S
C1845 C1843 1.389 . S
C1845 C1846 1.524 . S
C1846 C1845 1.524 . S
C1846 C1847 1.397 . S
C1846 C1851 1.363 . S
C1847 H1818 0.950 . S
C1847 C1846 1.397 . S
C1847 C1848 1.334 . S
C1848 H1819 0.950 . S
C1848 C1847 1.334 . S
C1848 C1849 1.287 . S
C1849 C1848 1.287 . S
C1849 C1850 1.524 . S
C1849 H1852 0.999 . S
C1850 H1820 0.950 . S
C1850 C1849 1.524 . S
C1850 C1851 1.415 . S
C1851 H1821 0.950 . S
C1851 C1846 1.363 . S
C1851 C1850 1.415 . S
H1852 C1849 0.999 . S
H1853 C1834 0.913 . S
H1854 C1872 0.951 . S
H1855 C1874 0.951 . S
H1856 C1876 0.950 . S
H1857 C1877 0.950 . S
H1858 C1879 0.950 . S
H1859 C1882 0.950 . S
H1860 C1883 0.950 . S
H1861 C1885 0.950 . S
H1862 C1886 0.950 . S
H1863 C1887 0.951 . S
H1864 C1889 0.951 . S
H1865 C1891 0.950 . S
H1866 C1892 0.950 . S
H1867 C1894 0.950 . S
H1868 C1897 0.950 . S
H1869 C1898 0.950 . S
H1870 C1900 0.950 . S
H1871 C1901 0.950 . S
C1872 H1854 0.951 . S
C1872 C1873 1.366 . S
C1872 C1874 1.388 . S
C1873 C1872 1.366 . S
C1873 C1877 1.385 . S
C1874 H1855 0.951 . S
C1874 C1872 1.388 . S
C1874 C1875 1.366 . S
C1875 C1874 1.366 . S
C1875 C1876 1.414 . S
C1875 C1878 1.499 . S
C1876 H1856 0.950 . S
C1876 C1875 1.414 . S
C1876 C1877 1.374 . S
C1877 H1857 0.950 . S
C1877 C1873 1.385 . S
C1877 C1876 1.374 . S
C1878 C1875 1.499 . S
C1878 C1879 1.373 . S
C1878 C1880 1.389 . S
C1879 H1858 0.950 . S
C1879 C1878 1.373 . S
C1879 C1895 1.377 . S
C1880 C1878 1.389 . S
C1880 C1881 1.524 . S
C1880 C1894 1.377 . S
C1881 C1880 1.524 . S
C1881 C1882 1.397 . S
C1881 C1886 1.363 . S
C1882 H1859 0.950 . S
C1882 C1881 1.397 . S
C1882 C1883 1.334 . S
C1883 H1860 0.950 . S
C1883 C1882 1.334 . S
C1883 C1884 1.287 . S
C1884 C1883 1.287 . S
C1884 C1885 1.524 . S
C1884 H1903 0.913 . S
C1885 H1861 0.950 . S
C1885 C1884 1.524 . S
C1885 C1886 1.415 . S
C1886 H1862 0.950 . S
C1886 C1881 1.363 . S
C1886 C1885 1.415 . S
C1887 H1863 0.951 . S
C1887 C1888 1.366 . S
C1887 C1889 1.388 . S
C1888 C1887 1.366 . S
C1888 C1892 1.385 . S
C1889 H1864 0.951 . S
C1889 C1887 1.388 . S
C1889 C1890 1.366 . S
C1890 C1889 1.366 . S
C1890 C1891 1.414 . S
C1890 C1893 1.499 . S
C1891 H1865 0.950 . S
C1891 C1890 1.414 . S
C1891 C1892 1.374 . S
C1892 H1866 0.950 . S
C1892 C1888 1.385 . S
C1892 C1891 1.374 . S
C1893 C1890 1.499 . S
C1893 C1894 1.373 . S
C1893 C1895 1.389 . S
C1894 H1867 0.950 . S
C1894 C1880 1.377 . S
C1894 C1893 1.373 . S
C1895 C1879 1.377 . S
C1895 C1893 1.389 . S
C1895 C1896 1.524 . S
C1896 C1895 1.524 . S
C1896 C1897 1.397 . S
C1896 C1901 1.363 . S
C1897 H1868 0.950 . S
C1897 C1896 1.397 . S
C1897 C1898 1.334 . S
C1898 H1869 0.950 . S
C1898 C1897 1.334 . S
C1898 C1899 1.287 . S
C1899 C1898 1.287 . S
C1899 C1900 1.524 . S
C1899 H1902 0.999 . S
C1900 H1870 0.950 . S
C1900 C1899 1.524 . S
C1900 C1901 1.415 . S
C1901 H1871 0.950 . S
C1901 C1896 1.363 . S
C1901 C1900 1.415 . S
H1902 C1899 0.999 . S
H1903 C1884 0.913 . S
H1904 C1922 0.951 . S
H1905 C1924 0.951 . S
H1906 C1926 0.950 . S
H1907 C1927 0.950 . S
H1908 C1929 0.950 . S
H1909 C1932 0.950 . S
H1910 C1933 0.950 . S
H1911 C1935 0.950 . S
H1912 C1936 0.950 . S
H1913 C1937 0.955 . S
H1914 C1939 0.951 . S
H1915 C1941 0.950 . S
H1916 C1942 0.950 . S
H1917 C1944 0.950 . S
H1918 C1947 0.950 . S
H1919 C1948 0.950 . S
H1920 C1950 0.950 . S
H1921 C1951 0.950 . S
C1922 H1904 0.951 . S
C1922 C1923 1.366 . S
C1922 C1924 1.388 . S
C1923 C1922 1.366 . S
C1923 C1927 1.385 . S
C1924 H1905 0.951 . S
C1924 C1922 1.388 . S
C1924 C1925 1.366 . S
C1925 C1924 1.366 . S
C1925 C1926 1.414 . S
C1925 C1928 1.499 . S
C1926 H1906 0.950 . S
C1926 C1925 1.414 . S
C1926 C1927 1.374 . S
C1927 H1907 0.950 . S
C1927 C1923 1.385 . S
C1927 C1926 1.374 . S
C1928 C1925 1.499 . S
C1928 C1929 1.373 . S
C1928 C1930 1.389 . S
C1929 H1908 0.950 . S
C1929 C1928 1.373 . S
C1929 C1945 1.377 . S
C1930 C1928 1.389 . S
C1930 C1931 1.524 . S
C1930 C1944 1.377 . S
C1931 C1930 1.524 . S
C1931 C1932 1.397 . S
C1931 C1936 1.363 . S
C1932 H1909 0.950 . S
C1932 C1931 1.397 . S
C1932 C1933 1.334 . S
C1933 H1910 0.950 . S
C1933 C1932 1.334 . S
C1933 C1934 1.287 . S
C1934 C1933 1.287 . S
C1934 C1935 1.524 . S
C1934 H1953 0.913 . S
C1935 H1911 0.950 . S
C1935 C1934 1.524 . S
C1935 C1936 1.415 . S
C1936 H1912 0.950 . S
C1936 C1931 1.363 . S
C1936 C1935 1.415 . S
C1937 H1913 0.955 . S
C1937 C1938 1.419 . S
C1937 C1939 1.334 1_556 S
C1938 C1937 1.419 . S
C1938 C1942 1.385 . S
C1939 H1914 0.951 . S
C1939 C1937 1.334 1_554 S
C1939 C1940 1.366 . S
C1940 C1939 1.366 . S
C1940 C1941 1.415 . S
C1940 C1943 1.499 . S
C1941 H1915 0.950 . S
C1941 C1940 1.415 . S
C1941 C1942 1.373 1_554 S
C1942 H1916 0.950 . S
C1942 C1938 1.385 . S
C1942 C1941 1.373 1_556 S
C1943 C1940 1.499 . S
C1943 C1944 1.373 . S
C1943 C1945 1.389 . S
C1944 H1917 0.950 . S
C1944 C1930 1.377 . S
C1944 C1943 1.373 . S
C1945 C1929 1.377 . S
C1945 C1943 1.389 . S
C1945 C1946 1.524 . S
C1946 C1945 1.524 . S
C1946 C1947 1.397 . S
C1946 C1951 1.363 . S
C1947 H1918 0.950 . S
C1947 C1946 1.397 . S
C1947 C1948 1.334 1_554 S
C1948 H1919 0.950 . S
C1948 C1947 1.334 1_556 S
C1948 C1949 1.287 1_556 S
C1949 C1948 1.287 1_554 S
C1949 C1950 1.524 . S
C1949 H1952 1.024 . S
C1950 H1920 0.950 . S
C1950 C1949 1.524 . S
C1950 C1951 1.415 . S
C1951 H1921 0.950 . S
C1951 C1946 1.363 . S
C1951 C1950 1.415 . S
H1952 C1949 1.024 . S
H1953 C1934 0.913 . S
H1954 C1972 0.951 . S
H1955 C1974 0.951 . S
H1956 C1976 0.950 . S
H1957 C1977 0.950 . S
H1958 C1979 0.950 . S
H1959 C1982 0.950 . S
H1960 C1983 0.950 . S
H1961 C1985 0.950 . S
H1962 C1986 0.950 . S
H1963 C1987 0.951 . S
H1964 C1989 0.951 . S
H1965 C1991 0.950 . S
H1966 C1992 0.950 . S
H1967 C1994 0.950 . S
H1968 C1997 0.950 . S
H1969 C1998 0.950 . S
H1970 C2000 0.950 . S
H1971 C2001 0.950 . S
C1972 H1954 0.951 . S
C1972 C1973 1.366 . S
C1972 C1974 1.388 . S
C1973 C1972 1.366 . S
C1973 C1977 1.385 . S
C1974 H1955 0.951 . S
C1974 C1972 1.388 . S
C1974 C1975 1.366 . S
C1975 C1974 1.366 . S
C1975 C1976 1.414 . S
C1975 C1978 1.499 . S
C1976 H1956 0.950 . S
C1976 C1975 1.414 . S
C1976 C1977 1.374 . S
C1977 H1957 0.950 . S
C1977 C1973 1.385 . S
C1977 C1976 1.374 . S
C1978 C1975 1.499 . S
C1978 C1979 1.373 . S
C1978 C1980 1.389 . S
C1979 H1958 0.950 . S
C1979 C1978 1.373 . S
C1979 C1995 1.377 . S
C1980 C1978 1.389 . S
C1980 C1981 1.524 . S
C1980 C1994 1.377 . S
C1981 C1980 1.524 . S
C1981 C1982 1.397 . S
C1981 C1986 1.363 . S
C1982 H1959 0.950 . S
C1982 C1981 1.397 . S
C1982 C1983 1.334 . S
C1983 H1960 0.950 . S
C1983 C1982 1.334 . S
C1983 C1984 1.287 . S
C1984 C1983 1.287 . S
C1984 C1985 1.524 . S
C1984 H2003 0.913 . S
C1985 H1961 0.950 . S
C1985 C1984 1.524 . S
C1985 C1986 1.415 . S
C1986 H1962 0.950 . S
C1986 C1981 1.363 . S
C1986 C1985 1.415 . S
C1987 H1963 0.951 . S
C1987 C1988 1.366 . S
C1987 C1989 1.388 . S
C1988 C1987 1.366 . S
C1988 C1992 1.385 . S
C1989 H1964 0.951 . S
C1989 C1987 1.388 . S
C1989 C1990 1.366 . S
C1990 C1989 1.366 . S
C1990 C1991 1.414 . S
C1990 C1993 1.499 . S
C1991 H1965 0.950 . S
C1991 C1990 1.414 . S
C1991 C1992 1.374 . S
C1992 H1966 0.950 . S
C1992 C1988 1.385 . S
C1992 C1991 1.374 . S
C1993 C1990 1.499 . S
C1993 C1994 1.373 . S
C1993 C1995 1.389 . S
C1994 H1967 0.950 . S
C1994 C1980 1.377 . S
C1994 C1993 1.373 . S
C1995 C1979 1.377 . S
C1995 C1993 1.389 . S
C1995 C1996 1.524 . S
C1996 C1995 1.524 . S
C1996 C1997 1.397 . S
C1996 C2001 1.363 . S
C1997 H1968 0.950 . S
C1997 C1996 1.397 . S
C1997 C1998 1.334 . S
C1998 H1969 0.950 . S
C1998 C1997 1.334 . S
C1998 C1999 1.287 . S
C1999 C1998 1.287 . S
C1999 C2000 1.524 . S
C1999 H2002 0.999 . S
C2000 H1970 0.950 . S
C2000 C1999 1.524 . S
C2000 C2001 1.415 . S
C2001 H1971 0.950 . S
C2001 C1996 1.363 . S
C2001 C2000 1.415 . S
H2002 C1999 0.999 . S
H2003 C1984 0.913 . S
C838 C745 1.594 . S
C823 C15 1.572 . S
C873 C61 1.573 . S
C888 C305 1.595 . S
C923 C114 1.572 . S
C938 C393 1.594 . S
C973 C139 1.587 . S
C988 C472 1.594 . S
C1038 C569 1.595 . S
C1023 C185 1.588 . S
C1073 C245 1.572 . S
C1088 C648 1.594 . S
C1123 C47 1.587 . S
C1138 C413 1.594 . S
C1173 C100 1.587 . S
C1188 C509 1.594 . S
C1223 C153 1.572 . S
C1238 C589 1.595 . S
C1288 C685 1.594 . S
C1273 C199 1.572 . S
C1338 C765 1.594 . S
C1323 C231 1.587 . S
C1388 C325 1.595 . S
C1373 C1 1.588 . S
C1423 C22 1.439 . S
C1438 C421 1.439 . S
C1473 C68 1.439 . S
C1488 C501 1.439 . S
C1538 C597 1.439 . S
C1523 C107 1.440 . S
C1573 C146 1.440 . S
C1588 C677 1.439 . S
C1638 C773 1.439 . S
C1623 C192 1.441 . S
C1688 C333 1.439 . S
C1673 C252 1.440 . S
C1738 C736 1.439 . S
C1723 C54 1.440 . S
C1773 C93 1.441 . S
C1788 C296 1.439 . S
C1838 C384 1.439 . S
C1823 C160 1.440 . S
C1873 C206 1.439 . S
C1888 C481 1.439 . S
C1923 C238 1.441 . S
C1938 C560 1.439 . S
C1973 C8 1.440 . S
C1988 C657 1.439 . S
