# Generated by pormake.
# Topology zzz, (3,6)-cn, num edge types: 1
# Building blocks:
#     Node 0, Type 0, BuildingBlock: CUQRIR_clean_linker_1, # of connection points: 3
#     Node 1, Type 0, BuildingBlock: CUQRIR_clean_linker_1, # of connection points: 3
#     Node 2, Type 0, BuildingBlock: CUQRIR_clean_linker_1, # of connection points: 3
#     Node 3, Type 0, BuildingBlock: CUQRIR_clean_linker_1, # of connection points: 3
#     Node 4, Type 0, BuildingBlock: CUQRIR_clean_linker_1, # of connection points: 3
#     Node 5, Type 0, BuildingBlock: CUQRIR_clean_linker_1, # of connection points: 3
#     Node 6, Type 0, BuildingBlock: CUQRIR_clean_linker_1, # of connection points: 3
#     Node 7, Type 0, BuildingBlock: CUQRIR_clean_linker_1, # of connection points: 3
#     Node 8, Type 1, BuildingBlock: HISSIN_clean_sbu_0, # of connection points: 6
#     Node 9, Type 1, BuildingBlock: HISSIN_clean_sbu_0, # of connection points: 6
#     Node 10, Type 1, BuildingBlock: HISSIN_clean_sbu_0, # of connection points: 6
#     Node 11, Type 1, BuildingBlock: HISSIN_clean_sbu_0, # of connection points: 6
#     Edge 12, Type (0, 1), BuildingBlock: XUDNAN_clean_linker_2, # of connection points: 2
#     Edge 13, Type (0, 1), BuildingBlock: XUDNAN_clean_linker_2, # of connection points: 2
#     Edge 14, Type (0, 1), BuildingBlock: XUDNAN_clean_linker_2, # of connection points: 2
#     Edge 15, Type (0, 1), BuildingBlock: XUDNAN_clean_linker_2, # of connection points: 2
#     Edge 16, Type (0, 1), BuildingBlock: XUDNAN_clean_linker_2, # of connection points: 2
#     Edge 17, Type (0, 1), BuildingBlock: XUDNAN_clean_linker_2, # of connection points: 2
#     Edge 18, Type (0, 1), BuildingBlock: XUDNAN_clean_linker_2, # of connection points: 2
#     Edge 19, Type (0, 1), BuildingBlock: XUDNAN_clean_linker_2, # of connection points: 2
#     Edge 20, Type (0, 1), BuildingBlock: XUDNAN_clean_linker_2, # of connection points: 2
#     Edge 21, Type (0, 1), BuildingBlock: XUDNAN_clean_linker_2, # of connection points: 2
#     Edge 22, Type (0, 1), BuildingBlock: XUDNAN_clean_linker_2, # of connection points: 2
#     Edge 23, Type (0, 1), BuildingBlock: XUDNAN_clean_linker_2, # of connection points: 2
#     Edge 24, Type (0, 1), BuildingBlock: XUDNAN_clean_linker_2, # of connection points: 2
#     Edge 25, Type (0, 1), BuildingBlock: XUDNAN_clean_linker_2, # of connection points: 2
#     Edge 26, Type (0, 1), BuildingBlock: XUDNAN_clean_linker_2, # of connection points: 2
#     Edge 27, Type (0, 1), BuildingBlock: XUDNAN_clean_linker_2, # of connection points: 2
#     Edge 28, Type (0, 1), BuildingBlock: XUDNAN_clean_linker_2, # of connection points: 2
#     Edge 29, Type (0, 1), BuildingBlock: XUDNAN_clean_linker_2, # of connection points: 2
#     Edge 30, Type (0, 1), BuildingBlock: XUDNAN_clean_linker_2, # of connection points: 2
#     Edge 31, Type (0, 1), BuildingBlock: XUDNAN_clean_linker_2, # of connection points: 2
#     Edge 32, Type (0, 1), BuildingBlock: XUDNAN_clean_linker_2, # of connection points: 2
#     Edge 33, Type (0, 1), BuildingBlock: XUDNAN_clean_linker_2, # of connection points: 2
#     Edge 34, Type (0, 1), BuildingBlock: XUDNAN_clean_linker_2, # of connection points: 2
#     Edge 35, Type (0, 1), BuildingBlock: XUDNAN_clean_linker_2, # of connection points: 2
# Relax obj value: 0.318
# Max RMSD: 0.202
# Mean RMSD: 0.108
data_MOF--net-zzz--node1-HISSIN_clean_sbu_0--node2-CUQRIR_clean_linker_1--edge1-XUDNAN_clean_linker_2
_symmetry_space_group_name_H-M    P1
_symmetry_Int_Tables_number       1
_symmetry_cell_setting            triclinic
loop_
_symmetry_equiv_pos_as_xyz
'x, y, z'
_cell_length_a     46.256651
_cell_length_b     46.46112
_cell_length_c     14.608863
_cell_angle_alpha  89.892093
_cell_angle_beta   91.485428
_cell_angle_gamma 90.738915
loop_
_atom_site_label
_atom_site_type_symbol
_atom_site_fract_x
_atom_site_fract_y
_atom_site_fract_z
_atom_type_partial_charge
C0 C 0.76541 0.52643 0.38305 0.0
N1 N 0.79374 0.51929 0.39694 0.0
N2 N 0.7563 0.52136 0.29426 0.0
C3 C 0.74644 0.53703 0.45727 0.0
C4 C 0.78052 0.51132 0.25499 0.0
N5 N 0.80276 0.50995 0.31682 0.0
C6 C 0.78372 0.50636 0.15381 0.0
H7 H 0.72358 0.53044 0.44374 0.0
H8 H 0.74778 0.56087 0.4598 0.0
H9 H 0.75386 0.52858 0.52488 0.0
H10 H 0.7698 0.5211 0.11293 0.0
H11 H 0.77734 0.48383 0.13732 0.0
H12 H 0.80644 0.50969 0.13331 0.0
C13 C 0.03291 0.76696 0.34721 0.0
N14 N 1.02438 0.79494 0.35513 0.0
N15 N 1.0232 0.75488 0.26593 0.0
C16 C 0.05103 0.75164 0.41822 0.0
C17 C 1.00828 0.77683 0.22571 0.0
N18 N 1.00886 0.80067 0.27954 0.0
C19 C 0.99354 0.7752 0.13235 0.0
H20 H 0.07418 0.75631 0.40592 0.0
H21 H 0.04724 0.72804 0.41464 0.0
H22 H 0.04628 0.75931 0.48794 0.0
H23 H 0.97271 0.76336 0.13819 0.0
H24 H 1.00722 0.7636 0.08363 0.0
H25 H 0.98827 0.79654 0.1034 0.0
C26 C 0.7971 0.03508 0.30689 0.0
N27 N 0.77677 0.05482 0.33032 0.0
N28 N 0.81977 0.0478 0.263 0.0
C29 C 0.79497 1.00355 0.32764 0.0
C30 C 0.81302 0.07598 0.26474 0.0
N31 N 0.78679 0.08035 0.30178 0.0
C32 C 0.83375 0.09981 0.23885 0.0
H33 H 0.80524 0.99951 0.39584 0.0
H34 H 0.80649 0.99087 0.27599 0.0
H35 H 0.772 0.99644 0.32969 0.0
H36 H 0.85608 0.0943 0.2616 0.0
H37 H 0.82771 0.12053 0.27036 0.0
H38 H 0.83377 0.10244 0.16341 0.0
C39 C 0.53809 0.79697 0.33194 0.0
N40 N 0.52036 0.77525 0.36019 0.0
N41 N 0.52337 0.81622 0.27835 0.0
C42 C 0.57007 0.79826 0.35127 0.0
C43 C 0.49607 0.80529 0.27556 0.0
N44 N 0.49422 0.78042 0.32415 0.0
C45 C 0.47158 0.81813 0.21981 0.0
H46 H 0.57479 0.79319 0.42433 0.0
H47 H 0.57916 0.81979 0.33447 0.0
H48 H 0.58066 0.78176 0.30929 0.0
H49 H 0.47566 0.81516 0.14591 0.0
H50 H 0.47047 0.84159 0.23282 0.0
H51 H 0.45046 0.80811 0.23646 0.0
C52 C 0.31786 0.52819 0.09226 0.0
N53 N 0.28976 0.51962 0.07795 0.0
N54 N 0.3284 0.5188 0.17518 0.0
C55 C 0.33446 0.54724 0.02895 0.0
C56 C 0.30534 0.50511 0.21148 0.0
N57 N 0.28211 0.5057 0.15334 0.0
C58 C 0.30411 0.49549 0.30967 0.0
H59 H 0.32635 0.54462 0.95726 0.0
H60 H 0.35787 0.54232 0.03394 0.0
H61 H 0.33171 0.56999 0.04961 0.0
H62 H 0.30013 0.51448 0.35336 0.0
H63 H 0.32498 0.48598 0.33231 0.0
H64 H 0.28639 0.47952 0.31904 0.0
C65 C 0.03971 0.30745 0.13435 0.0
N66 N 0.04868 0.2797 0.12494 0.0
N67 N 0.04988 0.31933 0.21491 0.0
C68 C 1.02025 0.32265 0.06698 0.0
C69 C 0.06459 0.29735 0.2548 0.0
N70 N 0.06388 0.27358 0.20091 0.0
C71 C 0.07576 0.29775 0.35247 0.0
H72 H 1.02334 0.31439 0.99671 0.0
H73 H 1.02446 0.34622 0.06914 0.0
H74 H 0.99744 0.31864 0.08543 0.0
H75 H 0.05751 0.30136 0.39875 0.0
H76 H 0.09137 0.31586 0.36229 0.0
H77 H 0.08665 0.2774 0.37167 0.0
C78 C 0.27463 0.03089 0.18575 0.0
N79 N 0.29471 1.01093 0.16199 0.0
N80 N 0.2516 1.01831 0.22819 0.0
C81 C 0.27741 0.0625 0.16707 0.0
C82 C 0.25791 0.99002 0.22514 0.0
N83 N 0.28423 0.98544 0.18902 0.0
C84 C 0.23675 0.96631 0.24853 0.0
H85 H 0.26681 0.07506 0.22101 0.0
H86 H 0.26647 0.06732 0.10042 0.0
H87 H 0.30049 0.06908 0.16301 0.0
H88 H 0.21452 0.97241 0.22627 0.0
H89 H 0.23665 0.96283 0.3236 0.0
H90 H 0.24248 0.94582 0.21491 0.0
C91 C 0.53604 0.26613 0.16964 0.0
N92 N 0.5546 0.28696 0.14023 0.0
N93 N 0.55039 0.24504 0.21642 0.0
C94 C 0.50379 0.26728 0.15733 0.0
C95 C 0.5784 0.25379 0.21311 0.0
N96 N 0.58103 0.27944 0.16889 0.0
C97 C 0.60317 0.23753 0.25677 0.0
H98 H 0.49538 0.28394 0.20366 0.0
H99 H 0.49354 0.24621 0.17344 0.0
H100 H 0.49791 0.27361 0.08607 0.0
H101 H 0.60229 0.21474 0.23432 0.0
H102 H 0.60119 0.23772 0.33231 0.0
H103 H 0.62444 0.24677 0.23798 0.0
Eu104 Eu 1.01357 0.03983 0.66547 0.0
Eu105 Eu 0.05955 0.03157 0.82947 0.0
C106 C 0.03148 0.09388 0.79408 0.0
C107 C 0.98917 0.04374 0.4244 0.0
C108 C 0.97134 0.05629 0.35712 0.0
C109 C 0.03124 0.0553 0.3362 0.0
C110 C 0.98389 0.07037 0.28318 0.0
C111 C 1.01863 0.04022 0.40762 0.0
C112 C 1.01425 0.07355 0.28076 0.0
C113 C 0.98026 0.04358 0.51972 0.0
O114 O 1.01629 0.02983 0.90171 0.0
O115 O 0.98382 0.02626 0.78071 0.0
C116 C 0.98957 0.02627 0.86957 0.0
O117 O 0.03403 0.9963 0.64059 0.0
O118 O 0.08502 0.05333 0.93745 0.0
O119 O 0.08828 1.0074 0.92158 0.0
O120 O 0.04629 0.98535 0.78796 0.0
C121 C 0.04094 0.97704 0.70277 0.0
O122 O 0.05712 0.05431 0.60716 0.0
O123 O 0.08795 0.03032 0.70452 0.0
O124 O 0.05589 0.08012 0.80695 0.0
O125 O 0.98408 1.01959 0.56461 0.0
O126 O 0.98987 0.0659 0.56603 0.0
O127 O 1.00963 0.0805 0.75233 0.0
C128 C 0.08262 0.02473 0.06962 0.0
C129 C 0.05494 0.03452 0.0915 0.0
C130 C 0.0784 0.98755 0.18417 0.0
C131 C 0.03792 1.01861 0.15106 0.0
C132 C 0.09534 1.00312 0.12331 0.0
C133 C 0.04863 0.99313 0.18882 0.0
C134 C 0.09272 0.02929 0.97616 0.0
C135 C 0.08299 0.04366 0.62615 0.0
H136 H 0.94837 0.05846 0.36758 0.0
H137 H 0.05457 0.05572 0.33345 0.0
H138 H 0.97002 0.08261 0.23712 0.0
H139 H 0.0326 0.02955 0.45734 0.0
H140 H 0.04488 0.05183 0.05306 0.0
H141 H 0.08721 0.96817 0.21473 0.0
H142 H 1.0153 0.02383 0.15646 0.0
H143 H 0.11677 0.99551 0.1086 0.0
Eu144 Eu 0.54504 0.05028 0.84088 0.0
Eu145 Eu 0.5275 1.01197 0.65678 0.0
C146 C 0.54124 0.97971 0.85153 0.0
C147 C 0.57844 0.10025 0.03373 0.0
C148 C 0.59341 0.09257 0.11436 0.0
C149 C 0.6023 0.14716 0.0386 0.0
C150 C 0.61352 0.11142 0.15474 0.0
C151 C 0.5823 0.12801 0.99735 0.0
C152 C 0.6188 0.13872 0.11623 0.0
C153 C 0.55915 0.07859 0.99038 0.0
O154 O 0.48468 1.01482 0.73493 0.0
O155 O 0.49732 0.04165 0.86253 0.0
C156 C 0.47793 0.02703 0.81363 0.0
O157 O 0.53263 0.08442 0.73618 0.0
O158 O 0.53272 0.9747 0.56795 0.0
O159 O 0.50219 1.00798 0.52946 0.0
O160 O 0.5319 0.05779 0.60381 0.0
C161 C 0.5313 0.08268 0.64625 0.0
O162 O 0.58785 0.04737 0.76261 0.0
O163 O 0.57493 0.02161 0.63307 0.0
O164 O 0.54088 0.97811 0.76155 0.0
O165 O 0.53952 0.08713 0.931 0.0
O166 O 0.57075 0.05426 0.96748 0.0
O167 O 0.5397 1.00454 0.89389 0.0
C168 C 0.49405 0.96208 0.4635 0.0
C169 C 0.48028 0.96963 0.38066 0.0
C170 C 0.46807 0.91629 0.46047 0.0
C171 C 0.45965 0.95137 0.34009 0.0
C172 C 0.48858 0.93487 0.50187 0.0
C173 C 0.45256 0.9248 0.38087 0.0
C174 C 0.51351 0.98344 0.50749 0.0
C175 C 0.59442 0.03587 0.68264 0.0
H176 H 0.59038 0.07141 0.14433 0.0
H177 H 0.60582 0.16805 1.00745 0.0
H178 H 0.62611 0.10378 0.21321 0.0
H179 H 0.57061 0.13458 0.93578 0.0
H180 H 0.48457 0.99035 0.3492 0.0
H181 H 0.46332 0.8959 0.49321 0.0
H182 H 0.44796 0.9591 0.27994 0.0
H183 H 0.49936 0.92839 0.56517 0.0
Eu184 Eu 0.51746 0.53922 0.83784 0.0
Eu185 Eu 0.55905 0.52348 0.66924 0.0
C186 C 0.58577 0.53879 0.87228 0.0
C187 C 0.4629 0.56081 0.0264 0.0
C188 C 0.44224 0.57712 0.97837 0.0
C189 C 0.44897 0.58283 0.16858 0.0
C190 C 0.42582 0.59714 0.0252 0.0
C191 C 0.46508 0.56272 0.12194 0.0
C192 C 0.43045 0.60154 0.12003 0.0
C193 C 0.48447 0.54375 0.97979 0.0
O194 O 0.5481 0.47878 0.72241 0.0
O195 O 0.53145 0.49277 0.86146 0.0
C196 C 0.54021 0.47256 0.80617 0.0
O197 O 0.48717 0.54066 0.71214 0.0
O198 O 0.6027 0.52846 0.61584 0.0
O199 O 0.5688 0.50789 0.53373 0.0
O200 O 0.51443 0.52007 0.60082 0.0
C201 C 0.48994 0.53081 0.62821 0.0
O202 O 0.52129 0.58339 0.77218 0.0
O203 O 0.55016 0.57152 0.65163 0.0
O204 O 0.58707 0.52155 0.80111 0.0
O205 O 0.4767 0.52983 0.90543 0.0
O206 O 0.51023 0.55526 0.975 0.0
O207 O 0.56217 0.55328 0.88627 0.0
C208 C 0.61585 0.49161 0.51423 0.0
C209 C 0.61087 0.46338 0.54389 0.0
C210 C 0.65213 0.47442 0.41113 0.0
C211 C 0.6252 0.44065 0.50385 0.0
C212 C 0.63732 0.49719 0.45038 0.0
C213 C 0.64522 0.44572 0.43416 0.0
C214 C 0.59624 0.51449 0.54065 0.0
C215 C 0.53502 0.59039 0.69704 0.0
H216 H 0.44001 0.57564 0.90452 0.0
H217 H 0.45332 0.58547 0.24128 0.0
H218 H 0.41122 0.61077 0.9861 0.0
H219 H 0.48084 0.55007 0.16 0.0
H220 H 0.59441 0.45871 0.59348 0.0
H221 H 0.66779 0.47924 0.35924 0.0
H222 H 0.61867 0.41907 0.52298 0.0
H223 H 0.64156 0.51899 0.42734 0.0
Eu224 Eu 0.04079 0.55577 0.67097 0.0
Eu225 Eu 0.03705 0.51007 0.83199 0.0
C226 C 0.09894 0.53634 0.77757 0.0
C227 C 0.0618 0.57368 0.44155 0.0
C228 C 0.07907 0.54953 0.45667 0.0
C229 C 0.07207 0.57164 0.27967 0.0
C230 C 0.09196 0.53601 0.38454 0.0
C231 C 0.05787 0.58455 0.35248 0.0
C232 C 0.08903 0.54712 0.29576 0.0
C233 C 0.04632 0.58469 0.51972 0.0
O234 O 0.04385 0.55403 0.90196 0.0
O235 O 0.02923 0.5852 0.78881 0.0
C236 C 0.0361 0.58006 0.87532 0.0
O237 O 0.99256 0.55063 0.68545 0.0
O238 O 0.03218 0.4992 0.9751 0.0
O239 O 0.04759 0.4669 0.88164 0.0
O240 O 0.98866 0.51616 0.79818 0.0
C241 C 0.97681 0.53343 0.73596 0.0
O242 O 0.05038 0.51076 0.61288 0.0
O243 O 1.02181 0.48511 0.70655 0.0
O244 O 0.08462 0.51235 0.79382 0.0
O245 O 1.02329 0.56961 0.53821 0.0
O246 O 0.06235 0.58965 0.593 0.0
O247 O 0.08497 0.55841 0.74293 0.0
C248 C 1.02264 0.45139 1.01247 0.0
C249 C 0.9941 0.44594 0.9827 0.0
C250 C 1.01173 0.43298 0.16249 0.0
C251 C 0.97394 0.43595 0.04503 0.0
C252 C 0.03192 0.44259 0.09988 0.0
C253 C 0.9822 0.43223 0.13771 0.0
C254 C 0.0403 0.47261 0.96519 0.0
C255 C 0.03497 0.48737 0.62869 0.0
H256 H 0.08307 0.54132 0.52502 0.0
H257 H 0.07044 0.58103 0.21184 0.0
H258 H 0.10593 0.51792 0.39934 0.0
H259 H 0.04437 0.60309 0.33972 0.0
H260 H 0.98671 0.45262 0.91503 0.0
H261 H 1.0186 0.43046 0.23321 0.0
H262 H 0.95134 0.43555 0.02368 0.0
H263 H 0.05402 0.44662 0.12324 0.0
H264 H 0.23671 1.00761 0.40411 0.0
H265 H 0.21026 0.05535 0.16239 0.0
H266 H 0.16502 0.06919 0.23919 0.0
H267 H 0.16725 0.97802 0.4489 0.0
H268 H 0.17184 0.97931 0.57173 0.0
H269 H 0.20293 0.97599 0.50098 0.0
H270 H 0.22601 0.02146 0.57629 0.0
H271 H 0.19504 0.02486 0.64758 0.0
H272 H 0.20607 0.05454 0.57635 0.0
H273 H 0.12029 0.07539 0.34451 0.0
H274 H 0.08278 0.07364 0.4624 0.0
H275 H 0.1377 1.01911 0.63133 0.0
C276 C 0.22153 0.02125 0.36755 0.0
C277 C 0.2273 0.03049 0.27684 0.0
C278 C 0.20676 0.04838 0.23202 0.0
C279 C 0.18083 0.05611 0.2752 0.0
C280 C 0.17548 0.04581 0.36369 0.0
C281 C 0.19549 0.0288 0.40923 0.0
C282 C 0.18433 1.01917 0.50179 0.0
C283 C 0.18142 0.98617 0.50607 0.0
C284 C 0.20404 0.0307 0.58014 0.0
C285 C 0.15481 0.03328 0.50206 0.0
C286 C 0.15005 0.0487 0.42202 0.0
C287 C 0.12407 0.06331 0.40702 0.0
C288 C 0.10266 0.06207 0.47457 0.0
C289 C 0.10678 0.04606 0.55678 0.0
C290 C 0.13354 0.03167 0.57 0.0
H291 H 0.55803 0.18684 0.21345 0.0
H292 H 0.51935 0.25533 0.36641 0.0
H293 H 0.50805 0.22089 0.49088 0.0
H294 H 0.50862 0.12803 0.2822 0.0
H295 H 0.53716 0.10202 0.29061 0.0
H296 H 0.53973 0.1315 0.21084 0.0
H297 H 0.5889 0.14786 0.28489 0.0
H298 H 0.58684 0.11706 0.35978 0.0
H299 H 0.59195 0.1527 0.40681 0.0
H300 H 0.50639 0.17977 0.60713 0.0
H301 H 0.50994 0.13492 0.69806 0.0
H302 H 0.54842 0.09221 0.46817 0.0
C303 C 0.54655 0.19434 0.2723 0.0
C304 C 0.53919 0.22375 0.27981 0.0
C305 C 0.5246 0.23285 0.35847 0.0
C306 C 0.51835 0.21343 0.42978 0.0
C307 C 0.52664 0.18475 0.42156 0.0
C308 C 0.54004 0.17513 0.34406 0.0
C309 C 0.54796 0.14356 0.35412 0.0
C310 C 0.53242 0.1252 0.28005 0.0
C311 C 0.58089 0.14003 0.35138 0.0
C312 C 0.53687 0.13682 0.44901 0.0
C313 C 0.52496 0.16099 0.48727 0.0
C314 C 0.51523 0.16064 0.577 0.0
C315 C 0.51748 0.13503 0.62848 0.0
C316 C 0.5291 0.10976 0.5904 0.0
C317 C 0.53885 0.11087 0.49903 0.0
H318 H 0.37635 0.48749 0.21867 0.0
H319 H 0.33676 0.5702 0.25698 0.0
H320 H 0.37459 0.58287 0.37401 0.0
H321 H 0.39537 0.47444 0.44803 0.0
H322 H 0.42972 0.458 0.42797 0.0
H323 H 0.40138 0.45637 0.34122 0.0
H324 H 0.43529 0.4799 0.22344 0.0
H325 H 0.46394 0.48102 0.30949 0.0
H326 H 0.45325 0.51353 0.25121 0.0
H327 H 0.41355 0.58408 0.50009 0.0
H328 H 0.45325 0.5761 0.61356 0.0
H329 H 0.47078 0.49388 0.48817 0.0
C330 C 0.37644 0.50868 0.24933 0.0
C331 C 0.354 0.52824 0.22716 0.0
C332 C 0.35415 0.55534 0.27115 0.0
C333 C 0.37547 0.56255 0.3382 0.0
C334 C 0.39699 0.54263 0.35998 0.0
C335 C 0.39801 0.51644 0.31548 0.0
C336 C 0.42292 0.49853 0.35411 0.0
C337 C 0.41166 0.47016 0.39527 0.0
C338 C 0.44517 0.49291 0.28015 0.0
C339 C 0.4354 0.51843 0.42845 0.0
C340 C 0.41991 0.54367 0.43102 0.0
C341 C 0.42603 0.56456 0.49756 0.0
C342 C 0.44855 0.55974 0.56238 0.0
C343 C 0.46532 0.53443 0.56015 0.0
C344 C 0.45864 0.5136 0.49142 0.0
H345 H 0.08543 0.3629 0.27969 0.0
H346 H 0.99581 0.33535 0.25861 0.0
H347 H 0.98212 0.37623 0.35687 0.0
H348 H 0.08555 0.38443 0.51309 0.0
H349 H 0.10882 0.41549 0.49969 0.0
H350 H 0.11146 0.38539 0.42298 0.0
H351 H 0.10244 0.41899 0.28251 0.0
H352 H 0.10107 0.44896 0.36045 0.0
H353 H 0.07143 0.4421 0.28115 0.0
H354 H 0.9789 0.41761 0.47134 0.0
H355 H 0.98559 0.45813 0.57978 0.0
H356 H 0.07694 0.46187 0.52143 0.0
C357 C 0.06287 0.36583 0.29463 0.0
C358 C 0.0416 0.34589 0.26046 0.0
C359 C 1.01237 0.35044 0.28237 0.0
C360 C 1.00449 0.37348 0.33916 0.0
C361 C 0.02602 0.39223 0.37374 0.0
C362 C 0.0546 0.38905 0.35065 0.0
C363 C 0.07351 0.41226 0.39727 0.0
C364 C 0.09618 0.39857 0.4621 0.0
C365 C 0.08798 0.4317 0.32606 0.0
C366 C 0.05122 0.42887 0.45069 0.0
C367 C 1.02398 0.41679 0.43645 0.0
C368 C 1.00012 0.4273 0.48198 0.0
C369 C 1.00414 0.4504 0.5438 0.0
C370 C 0.03169 0.46354 0.55907 0.0
C371 C 0.05549 0.4527 0.51054 0.0
H372 H 0.83338 0.05622 0.08476 0.0
H373 H 0.86304 1.01398 0.33327 0.0
H374 H 0.90885 1.0014 0.25763 0.0
H375 H 0.86631 1.00761 0.91968 0.0
H376 H 0.87545 0.03649 0.84267 0.0
H377 H 0.84443 0.03942 0.91403 0.0
H378 H 0.86492 0.0874 0.97993 0.0
H379 H 0.89605 0.08456 0.90917 0.0
H380 H 0.90075 0.08836 0.03145 0.0
H381 H 0.95366 0.99635 0.15367 0.0
H382 H 0.9911 0.99857 0.03542 0.0
H383 H 0.93286 0.04605 0.85649 0.0
C384 C 0.84933 0.04385 0.12278 0.0
C385 C 0.84431 0.03582 0.21516 0.0
C386 C 0.86595 1.01987 0.26235 0.0
C387 C 0.89219 1.01288 0.21979 0.0
C388 C 0.8967 0.02189 0.12942 0.0
C389 C 0.87562 0.03691 0.08143 0.0
C390 C 0.88605 0.04545 0.98683 0.0
C391 C 0.86692 0.0314 0.91133 0.0
C392 C 0.887 0.07839 0.97625 0.0
C393 C 0.9164 0.03306 0.98835 0.0
C394 C 0.92218 1.0195 0.07122 0.0
C395 C 0.94911 1.00701 0.08905 0.0
C396 C 0.97049 1.00864 0.02165 0.0
C397 C 0.9654 0.02286 0.9368 0.0
C398 C 0.93762 0.03483 0.92003 0.0
H399 H 0.51254 0.8738 0.2794 0.0
H400 H 0.55712 0.80755 0.13339 0.0
H401 H 0.56835 0.84255 1.01028 0.0
H402 H 0.47985 0.90672 0.0834 0.0
H403 H 0.48295 0.94263 0.12971 0.0
H404 H 0.48123 0.91199 0.2054 0.0
H405 H 0.52893 0.92994 0.28485 0.0
H406 H 0.53105 0.95963 0.20571 0.0
H407 H 0.56067 0.93492 0.21714 0.0
H408 H 0.56952 0.8837 0.89406 0.0
H409 H 0.56534 0.92844 0.8028 0.0
H410 H 0.52179 0.96922 0.0267 0.0
C411 C 0.52537 0.867 0.2226 0.0
C412 C 0.53441 0.83803 0.2165 0.0
C413 C 0.55058 0.82972 0.14022 0.0
C414 C 0.5568 0.84944 0.0697 0.0
C415 C 0.54694 0.87766 0.07647 0.0
C416 C 0.53199 0.88657 0.15188 0.0
C417 C 0.52285 0.91777 0.14078 0.0
C418 C 0.48974 0.91995 0.13961 0.0
C419 C 0.53672 0.93669 0.21662 0.0
C420 C 0.53486 0.92508 0.04741 0.0
C421 C 0.5484 0.90151 1.01098 0.0
C422 C 0.5594 0.90238 0.92283 0.0
C423 C 0.55678 0.92792 0.87111 0.0
C424 C 0.54358 0.95264 0.90745 0.0
C425 C 0.53254 0.951 0.99723 0.0
H426 H 0.72641 0.48803 0.16739 0.0
H427 H 0.72355 0.56945 0.31098 0.0
H428 H 0.6793 0.58204 0.22215 0.0
H429 H 0.70826 0.5191 0.9483 0.0
H430 H 0.68779 0.48833 0.90669 0.0
H431 H 0.71685 0.48355 0.98966 0.0
H432 H 0.68161 0.45804 0.10347 0.0
H433 H 0.65414 0.46119 1.01441 0.0
H434 H 0.64776 0.47541 0.12626 0.0
H435 H 0.63502 0.58602 0.11481 0.0
H436 H 0.59627 0.58211 0.99595 0.0
H437 H 0.6312 0.50098 0.90635 0.0
C438 C 0.71651 0.50853 0.1804 0.0
C439 C 0.72863 0.52758 0.24785 0.0
C440 C 0.71455 0.55404 0.26239 0.0
C441 C 0.68948 0.56155 0.2111 0.0
C442 C 0.67876 0.54269 0.14351 0.0
C443 C 0.69198 0.51677 0.12758 0.0
C444 C 0.67748 0.50141 0.04594 0.0
C445 C 0.69887 0.49789 0.96803 0.0
C446 C 0.66454 0.47224 0.07435 0.0
C447 C 0.65369 0.52243 1.01952 0.0
C448 C 0.65468 0.54598 0.07733 0.0
C449 C 0.63426 0.56773 0.06904 0.0
C450 C 0.6122 0.56527 1.00105 0.0
C451 C 0.61057 0.54137 0.94062 0.0
C452 C 0.63193 0.51978 0.95007 0.0
H453 H 0.9862 0.71783 0.16933 0.0
H454 H 0.07538 0.72766 0.26378 0.0
H455 H 0.08738 0.68268 0.18384 0.0
H456 H 0.98047 0.64022 0.16176 0.0
H457 H 0.96005 0.63945 0.05499 0.0
H458 H 0.95752 0.66992 0.13039 0.0
H459 H 0.97239 0.70406 0.99913 0.0
H460 H 0.97489 0.67372 0.92327 0.0
H461 H 1.00549 0.69769 0.9404 0.0
H462 H 0.08947 0.63528 0.09102 0.0
H463 H 0.08315 0.59468 0.9823 0.0
H464 H 0.99508 0.6208 0.92305 0.0
C465 C 1.00839 0.71097 0.17266 0.0
C466 C 0.02972 0.72685 0.22465 0.0
C467 C 0.05826 0.71592 0.22782 0.0
C468 C 0.0654 0.69038 0.18125 0.0
C469 C 0.04403 0.67595 0.12873 0.0
C470 C 1.01618 0.68623 0.12295 0.0
C471 C 0.99782 0.66833 0.05515 0.0
C472 C 0.97246 0.65361 0.10348 0.0
C473 C 0.98701 0.68707 0.97472 0.0
C474 C 1.01958 0.64626 0.02366 0.0
C475 C 0.04595 0.65062 0.06876 0.0
C476 C 0.06901 0.63211 0.05463 0.0
C477 C 0.0652 0.60897 0.99264 0.0
C478 C 0.03881 0.60461 0.94266 0.0
C479 C 1.0157 0.62371 0.95877 0.0
H480 H 1.02098 0.24308 0.26941 0.0
H481 H 0.11079 0.23912 0.19816 0.0
H482 H 0.10892 0.18567 0.21119 0.0
H483 H 1.02001 0.17948 0.42638 0.0
H484 H 0.98399 0.16968 0.38685 0.0
H485 H 0.99513 0.20695 0.38923 0.0
H486 H 0.98136 0.21133 0.21436 0.0
H487 H 0.97024 0.1741 0.2151 0.0
H488 H 0.99688 0.18626 0.13583 0.0
H489 H 0.09345 0.13203 0.20493 0.0
H490 H 0.06925 0.08431 0.21315 0.0
H491 H 0.98943 0.12631 0.28421 0.0
C492 C 0.04047 0.23082 0.26062 0.0
C493 C 0.06606 0.24465 0.23417 0.0
C494 C 0.0912 0.22849 0.22021 0.0
C495 C 0.09013 0.19828 0.22628 0.0
C496 C 0.06366 0.18502 0.24507 0.0
C497 C 0.0395 0.20096 0.26427 0.0
C498 C 1.01318 0.18216 0.27736 0.0
C499 C 1.00246 0.1847 0.3758 0.0
C500 C 0.98901 0.18893 0.20646 0.0
C501 C 0.02594 0.15311 0.25991 0.0
C502 C 0.055 0.1549 0.24134 0.0
C503 C 0.07079 0.13043 0.2211 0.0
C504 C 0.05675 0.10341 0.22499 0.0
C505 C 0.02724 0.10119 0.2491 0.0
C506 C 1.01172 0.12669 0.26351 0.0
H507 H 0.32398 0.95664 0.08656 0.0
H508 H 0.28621 0.9597 0.35453 0.0
H509 H 0.31814 0.92197 0.4081 0.0
H510 H 0.35686 0.87851 0.10536 0.0
H511 H 0.38958 0.89178 0.0547 0.0
H512 H 0.35502 0.90601 1.01828 0.0
H513 H 0.37371 0.95727 0.05397 0.0
H514 H 0.40801 0.94393 0.09191 0.0
H515 H 0.38704 0.96551 0.16818 0.0
H516 H 0.36065 0.89723 0.45113 0.0
H517 H 0.41205 0.90046 0.49008 0.0
H518 H 0.43055 0.91714 0.20554 0.0
C519 C 0.32205 0.94906 0.15576 0.0
C520 C 0.30173 0.96092 0.21487 0.0
C521 C 0.30027 0.9501 0.30549 0.0
C522 C 0.31853 0.92844 0.33695 0.0
C523 C 0.33942 0.91826 0.27887 0.0
C524 C 0.34156 0.92849 0.19004 0.0
C525 C 0.37083 0.92146 0.15203 0.0
C526 C 0.36788 0.89804 0.07823 0.0
C527 C 0.38583 0.94865 0.11437 0.0
C528 C 0.38602 0.90988 0.23765 0.0
C529 C 0.36668 0.90571 0.30723 0.0
C530 C 0.37595 0.89983 0.39686 0.0
C531 C 0.40549 0.9016 0.41852 0.0
C532 C 0.42539 0.90971 0.35103 0.0
C533 C 0.41575 0.91109 0.25839 0.0
H534 H 0.60787 0.29186 0.32879 0.0
H535 H 0.60635 0.31384 0.04101 0.0
H536 H 0.6368 0.35689 0.07562 0.0
H537 H 0.59924 0.35273 0.41747 0.0
H538 H 0.62409 0.35069 0.51435 0.0
H539 H 0.60973 0.31832 0.46427 0.0
H540 H 0.66137 0.29983 0.43756 0.0
H541 H 0.6762 0.33217 0.4895 0.0
H542 H 0.68676 0.32189 0.37636 0.0
H543 H 0.65185 0.40334 0.14873 0.0
H544 H 0.65345 0.44554 0.24929 0.0
H545 H 0.65561 0.39 0.48725 0.0
C546 C 0.61556 0.30459 0.2722 0.0
C547 C 0.60474 0.29961 0.18245 0.0
C548 C 0.61418 0.31751 0.1105 0.0
C549 C 0.63174 0.34178 0.12952 0.0
C550 C 0.64083 0.34686 0.2201 0.0
C551 C 0.63399 0.32798 0.28974 0.0
C552 C 0.64315 0.3397 0.38264 0.0
C553 C 0.61752 0.34042 0.44831 0.0
C554 C 0.66838 0.32237 0.42392 0.0
C555 C 0.65303 0.36958 0.35575 0.0
C556 C 0.65214 0.37319 0.26154 0.0
C557 C 0.65404 0.40047 0.22211 0.0
C558 C 0.65511 0.42451 0.28003 0.0
C559 C 0.65444 0.42124 0.37637 0.0
C560 C 0.65585 0.3933 0.41394 0.0
H561 H 0.25098 0.55097 0.19642 0.0
H562 H 0.2474 0.4585 0.16672 0.0
H563 H 0.1938 0.45933 0.1797 0.0
H564 H 0.19204 0.55737 0.35514 0.0
H565 H 0.21773 0.5811 0.30154 0.0
H566 H 0.18024 0.59073 0.30434 0.0
H567 H 0.21585 0.58642 0.12245 0.0
H568 H 0.1784 0.59616 0.12918 0.0
H569 H 0.18835 0.56658 0.05812 0.0
H570 H 0.14041 0.47161 0.1881 0.0
H571 H 0.09336 0.49291 0.22527 0.0
H572 H 0.13309 0.57773 0.23149 0.0
C573 C 0.23875 0.53093 0.19493 0.0
C574 C 0.25272 0.50467 0.18158 0.0
C575 C 0.23665 0.47867 0.17853 0.0
C576 C 0.2064 0.47909 0.18451 0.0
C577 C 0.193 0.50576 0.19108 0.0
C578 C 0.2088 0.53115 0.19762 0.0
C579 C 0.18967 0.55702 0.2048 0.0
C580 C 0.19523 0.57244 0.29692 0.0
C581 C 0.19336 0.57776 0.12379 0.0
C582 C 0.16043 0.54239 0.20018 0.0
C583 C 0.16265 0.51283 0.19178 0.0
C584 C 0.13843 0.49471 0.19388 0.0
C585 C 0.11171 0.50699 0.21302 0.0
C586 C 0.1098 0.53693 0.22957 0.0
C587 C 0.13391 0.55495 0.21606 0.0
H588 H 0.02607 0.83147 0.13683 0.0
H589 H 0.97171 0.83384 0.37195 0.0
H590 H 0.96477 0.88621 0.34885 0.0
H591 H 0.06467 0.8859 0.17449 0.0
H592 H 0.06738 0.90092 0.0612 0.0
H593 H 0.05943 0.86349 0.07473 0.0
H594 H 1.01273 0.86819 0.97533 0.0
H595 H 1.02079 0.90592 0.95943 0.0
H596 H 0.98635 0.89478 1.0033 0.0
H597 H 0.97501 0.93905 0.32477 0.0
H598 H 1.00341 0.9845 0.30776 0.0
H599 H 0.04846 0.94685 0.08252 0.0
C600 C 1.01115 0.84281 0.17926 0.0
C601 C 0.99887 0.82887 0.25442 0.0
C602 C 0.98079 0.84432 0.31281 0.0
C603 C 0.97655 0.87394 0.29953 0.0
C604 C 0.98992 0.88747 0.22606 0.0
C605 C 1.00636 0.87205 0.16543 0.0
C606 C 1.02275 0.89167 0.10223 0.0
C607 C 0.05544 0.88512 0.10357 0.0
C608 C 1.00987 0.89004 1.0043 0.0
C609 C 1.01643 0.92028 0.1453 0.0
C610 C 0.99618 0.91795 0.21304 0.0
C611 C 0.99026 0.94125 0.2702 0.0
C612 C 1.00671 0.96677 0.26136 0.0
C613 C 0.02869 0.96836 0.1963 0.0
C614 C 0.03223 0.94557 0.13459 0.0
H615 H 0.74735 0.10867 0.40675 0.0
H616 H 0.7839 0.10646 0.13695 0.0
H617 H 0.7519 0.14447 0.08619 0.0
H618 H 0.68412 0.09979 0.32757 0.0
H619 H 0.66336 0.12106 0.40531 0.0
H620 H 0.69787 0.10782 0.44146 0.0
H621 H 0.71631 0.15913 0.47774 0.0
H622 H 0.68156 0.17323 0.44279 0.0
H623 H 0.71401 0.18682 0.39135 0.0
H624 H 0.70939 0.16949 0.04573 0.0
H625 H 0.65798 0.16514 1.0074 0.0
H626 H 0.64028 0.14706 0.29145 0.0
C627 C 0.74897 0.11647 0.3377 0.0
C628 C 0.76902 0.10481 0.2773 0.0
C629 C 0.77008 0.11591 0.18697 0.0
C630 C 0.75178 0.13775 0.15714 0.0
C631 C 0.73117 0.14777 0.21647 0.0
C632 C 0.72933 0.13716 0.30496 0.0
C633 C 0.70016 0.14389 0.34414 0.0
C634 C 0.68546 0.11652 0.38176 0.0
C635 C 0.7032 0.16717 0.4184 0.0
C636 C 0.68462 0.15559 0.25927 0.0
C637 C 0.70377 0.16032 0.18945 0.0
C638 C 0.69424 0.16638 0.10017 0.0
C639 C 0.66471 0.16398 0.07884 0.0
C640 C 0.64518 0.15504 0.14628 0.0
C641 C 0.65489 0.15375 0.23881 0.0
H642 H 0.4742 0.75965 0.16456 0.0
H643 H 0.46612 0.75099 0.45726 0.0
H644 H 0.43637 0.70665 0.43357 0.0
H645 H 0.39961 0.72769 0.09699 0.0
H646 H 0.41498 0.71103 0.9984 0.0
H647 H 0.42884 0.74531 0.03879 0.0
H648 H 0.48049 0.72424 0.05082 0.0
H649 H 0.4669 0.69019 1.01084 0.0
H650 H 0.48657 0.69235 0.11886 0.0
H651 H 0.41822 0.65827 0.37802 0.0
H652 H 0.41425 0.61157 0.29835 0.0
H653 H 0.43185 0.65428 0.04135 0.0
C654 C 0.46468 0.74934 0.22322 0.0
C655 C 0.4719 0.75878 0.31236 0.0
C656 C 0.46045 0.74406 0.38833 0.0
C657 C 0.44342 0.71905 0.37531 0.0
C658 C 0.4375 0.70968 0.28585 0.0
C659 C 0.44742 0.72483 0.21105 0.0
C660 C 0.44215 0.70852 0.12287 0.0
C661 C 0.42007 0.72407 0.06061 0.0
C662 C 0.47071 0.70352 0.07312 0.0
C663 C 0.42961 0.68085 0.15991 0.0
C664 C 0.42643 0.68201 0.25375 0.0
C665 C 0.41968 0.65742 0.30426 0.0
C666 C 0.41751 0.63091 0.25839 0.0
C667 C 0.42245 0.62918 0.16315 0.0
C668 C 0.42691 0.6548 0.1133 0.0
H669 H 0.81978 0.45902 0.24927 0.0
H670 H 0.85093 0.54264 0.34093 0.0
H671 H 0.90133 0.5258 0.33581 0.0
H672 H 0.87432 0.41436 0.35737 0.0
H673 H 0.87806 0.39108 0.2599 0.0
H674 H 0.84402 0.40822 0.27945 0.0
H675 H 0.84429 0.43133 0.11744 0.0
H676 H 0.87758 0.4132 0.09639 0.0
H677 H 0.87564 0.45172 0.08319 0.0
H678 H 0.94714 0.49909 0.33281 0.0
H679 H 0.98755 0.47298 0.26895 0.0
H680 H 0.92774 0.40859 0.15697 0.0
C681 C 0.83737 0.47364 0.26781 0.0
C682 C 0.83184 0.50164 0.29915 0.0
C683 C 0.85505 0.52077 0.31998 0.0
C684 C 0.88356 0.51135 0.3178 0.0
C685 C 0.88831 0.48296 0.29244 0.0
C686 C 0.86605 0.46482 0.26342 0.0
C687 C 0.8775 0.43695 0.226 0.0
C688 C 0.8679 0.41113 0.28418 0.0
C689 C 0.86822 0.43309 0.12475 0.0
C690 C 0.90974 0.44252 0.23743 0.0
C691 C 0.91527 0.46854 0.28054 0.0
C692 C 0.94319 0.47882 0.29798 0.0
C693 C 0.96606 0.46352 0.26244 0.0
C694 C 0.96068 0.43886 0.20718 0.0
C695 C 0.93236 0.42725 0.19943 0.0
H696 H 0.08397 0.24401 0.03126 0.0
H697 H 0.99394 0.26353 0.06975 0.0
H698 H 0.97956 0.22014 0.97994 0.0
H699 H 0.0741 0.2127 0.79682 0.0
H700 H 0.10115 0.18569 0.81707 0.0
H701 H 0.10425 0.21997 0.87439 0.0
H702 H 0.10653 0.1941 0.03252 0.0
H703 H 0.10451 0.16023 0.97307 0.0
H704 H 0.07856 0.16803 0.05864 0.0
H705 H 0.97521 0.17083 0.89686 0.0
H706 H 0.98119 0.12289 0.82674 0.0
H707 H 0.07433 0.13378 0.8481 0.0
C708 C 0.0612 0.23945 1.01907 0.0
C709 C 0.04009 0.2578 0.05659 0.0
C710 C 1.01055 0.25067 0.03969 0.0
C711 C 1.00222 0.22571 0.98946 0.0
C712 C 1.02359 0.20759 0.95647 0.0
C713 C 0.05256 0.21436 0.96996 0.0
C714 C 0.07134 0.19095 0.92969 0.0
C715 C 0.08874 0.20305 0.84974 0.0
C716 C 0.09144 0.17759 1.003 0.0
C717 C 0.04859 0.16918 0.89572 0.0
C718 C 1.02113 0.1794 0.91019 0.0
C719 C 0.99668 0.16291 0.88501 0.0
C720 C 1.00032 0.13553 0.84485 0.0
C721 C 0.02822 0.12415 0.831 0.0
C722 C 0.05262 0.14156 0.85708 0.0
H723 H 0.35055 0.03293 0.19194 0.0
H724 H 0.29248 0.99721 0.98357 0.0
H725 H 0.33222 0.99754 0.8731 0.0
H726 H 0.38746 0.08091 0.02517 0.0
H727 H 0.42245 0.0789 0.08171 0.0
H728 H 0.3901 0.07544 0.14732 0.0
H729 H 0.40563 0.02373 0.20978 0.0
H730 H 0.43884 0.03256 0.15379 0.0
H731 H 0.42057 0.99938 0.12755 0.0
H732 H 0.37976 0.99776 0.78728 0.0
H733 H 0.42908 1.00356 0.72795 0.0
H734 H 0.45699 0.04325 0.9845 0.0
C735 C 0.34627 0.02539 0.12283 0.0
C736 C 0.31819 1.0146 0.09686 0.0
C737 C 0.31357 1.00543 1.00514 0.0
C738 C 0.33618 1.00538 0.94205 0.0
C739 C 0.36367 1.01538 0.96977 0.0
C740 C 0.36875 0.02582 0.05753 0.0
C741 C 0.39997 0.03732 0.06652 0.0
C742 C 0.39999 0.07009 0.08105 0.0
C743 C 0.41713 0.02233 0.14413 0.0
C744 C 0.41199 0.02984 0.9728 0.0
C745 C 0.39057 1.01733 0.918 0.0
C746 C 0.39654 1.00783 0.82962 0.0
C747 C 0.42486 1.01116 0.79628 0.0
C748 C 0.44745 0.02403 0.85026 0.0
C749 C 0.44052 0.03353 0.94015 0.0
H750 H 0.55478 0.34464 0.18292 0.0
H751 H 0.54128 0.28425 0.96051 0.0
H752 H 0.53631 0.3248 0.85077 0.0
H753 H 0.50396 0.39919 0.09739 0.0
H754 H 0.52646 0.42915 0.13446 0.0
H755 H 0.52811 0.39544 0.19545 0.0
H756 H 0.58346 0.39358 0.17164 0.0
H757 H 0.58177 0.4274 0.11132 0.0
H758 H 0.59697 0.39645 0.05733 0.0
H759 H 0.53637 0.37225 0.76289 0.0
H760 H 0.53624 0.42251 0.70627 0.0
H761 H 0.54726 0.45318 0.98536 0.0
C762 C 0.55018 0.34012 0.11131 0.0
C763 C 0.54804 0.3112 0.08009 0.0
C764 C 0.54257 0.30613 0.98573 0.0
C765 C 0.53997 0.32908 0.92295 0.0
C766 C 0.54274 0.3573 0.9552 0.0
C767 C 0.54738 0.36295 0.04742 0.0
C768 C 0.54965 0.39534 0.0637 0.0
C769 C 0.52561 0.40537 0.12647 0.0
C770 C 0.57974 0.40367 0.10337 0.0
C771 C 0.5453 0.40698 0.96657 0.0
C772 C 0.54182 0.38462 0.9049 0.0
C773 C 0.53873 0.38988 0.81089 0.0
C774 C 0.53878 0.41859 0.77913 0.0
C775 C 0.54139 0.44204 0.84085 0.0
C776 C 0.54477 0.43589 0.93607 0.0
H777 H 0.25279 0.48385 0.98371 0.0
H778 H 0.27665 0.57358 1.017 0.0
H779 H 0.23269 0.5875 0.92796 0.0
H780 H 0.21734 0.49249 0.74773 0.0
H781 H 0.18976 0.46595 0.7712 0.0
H782 H 0.22536 0.46274 0.82324 0.0
H783 H 0.20341 0.46206 0.98759 0.0
H784 H 0.16859 0.46269 0.92997 0.0
H785 H 0.1776 0.48957 1.01411 0.0
H786 H 0.18172 0.59176 0.8558 0.0
H787 H 0.13106 0.58605 0.80034 0.0
H788 H 0.13885 0.4933 0.81784 0.0
C789 C 0.24923 0.50639 0.9692 0.0
C790 C 0.26879 0.5276 1.00574 0.0
C791 C 0.26287 0.5569 0.98721 0.0
C792 C 0.23761 0.56497 0.9375 0.0
C793 C 0.21815 0.54356 0.90634 0.0
C794 C 0.22391 0.51477 0.92046 0.0
C795 C 0.19883 0.49601 0.8839 0.0
C796 C 0.20839 0.47825 0.80162 0.0
C797 C 0.18648 0.47642 0.95853 0.0
C798 C 0.17708 0.51871 0.854 0.0
C799 C 0.18892 0.546 0.86529 0.0
C800 C 0.17257 0.57042 0.84553 0.0
C801 C 0.14362 0.56694 0.81403 0.0
C802 C 0.13063 0.53922 0.80388 0.0
C803 C 0.14793 0.51483 0.824 0.0
H804 H 0.05401 0.84639 0.34287 0.0
H805 H 1.00708 0.79262 0.53152 0.0
H806 H 1.01058 0.83139 0.64819 0.0
H807 H 0.10187 0.88393 0.51848 0.0
H808 H 0.10001 0.91783 0.45851 0.0
H809 H 0.09752 0.88452 0.39547 0.0
H810 H 0.04835 0.89998 0.32255 0.0
H811 H 0.05165 0.93351 0.3835 0.0
H812 H 1.02007 0.91093 0.39753 0.0
H813 H 1.01639 0.87898 0.74245 0.0
H814 H 1.02121 0.92944 0.79716 0.0
H815 H 0.0611 0.95346 0.54284 0.0
C816 C 0.04522 0.84248 0.40977 0.0
C817 C 0.03088 0.81586 0.42844 0.0
C818 C 1.01895 0.81219 0.51619 0.0
C819 C 1.02067 0.83434 0.58278 0.0
C820 C 0.03445 0.86047 0.5616 0.0
C821 C 0.04668 0.8645 0.47702 0.0
C822 C 0.05838 0.89525 0.4686 0.0
C823 C 0.09141 0.89538 0.45976 0.0
C824 C 0.04378 0.91087 0.38797 0.0
C825 C 0.04972 0.90835 0.5593 0.0
C826 C 0.03664 0.88777 0.61338 0.0
C827 C 0.02665 0.89505 0.70005 0.0
C828 C 0.02955 0.92389 0.73099 0.0
C829 C 0.04154 0.9457 0.67485 0.0
C830 C 0.05188 0.93746 0.58793 0.0
H831 H 0.72094 0.03279 0.30072 0.0
H832 H 0.77926 0.06805 0.5092 0.0
H833 H 0.73977 0.06699 0.62062 0.0
H834 H 0.65081 0.0657 0.36859 0.0
H835 H 0.6327 0.03254 0.34104 0.0
H836 H 0.6657 0.0419 0.28466 0.0
H837 H 0.68173 0.98998 0.34395 0.0
H838 H 0.64958 0.98594 0.41024 0.0
H839 H 0.68473 0.98388 0.46574 0.0
H840 H 0.69243 0.06584 0.70787 0.0
H841 H 0.64334 0.05927 0.76827 0.0
H842 H 0.61506 0.02074 0.51029 0.0
C843 C 0.72532 0.04011 0.37002 0.0
C844 C 0.75341 0.05096 0.39577 0.0
C845 C 0.75816 0.05981 0.48775 0.0
C846 C 0.73569 0.05944 0.5514 0.0
C847 C 0.7082 0.04935 0.52394 0.0
C848 C 0.70298 0.03927 0.43581 0.0
C849 C 0.67182 0.02759 0.42704 0.0
C850 C 0.65436 0.04287 0.35068 0.0
C851 C 0.67198 0.99491 0.41077 0.0
C852 C 0.65998 0.03449 0.52149 0.0
C853 C 0.68144 0.04691 0.57634 0.0
C854 C 0.67562 0.05586 0.66543 0.0
C855 C 0.64743 0.05208 0.6994 0.0
C856 C 0.62479 0.03931 0.64535 0.0
C857 C 0.63157 0.03037 0.55473 0.0
H858 H 0.52249 0.71771 0.31822 0.0
H859 H 0.53188 0.77848 0.54124 0.0
H860 H 0.53641 0.73806 0.65176 0.0
H861 H 0.47994 0.66524 0.43822 0.0
H862 H 0.49643 0.63449 0.38701 0.0
H863 H 0.49488 0.66817 0.32585 0.0
H864 H 0.55051 0.66763 0.30913 0.0
H865 H 0.55214 0.63395 0.3703 0.0
H866 H 0.57355 0.66436 0.40999 0.0
H867 H 0.53581 0.69061 0.73985 0.0
H868 H 0.53617 0.64034 0.79667 0.0
H869 H 0.53033 0.60938 0.51702 0.0
C870 C 0.52615 0.72237 0.3902 0.0
C871 C 0.52729 0.75134 0.42129 0.0
C872 C 0.53148 0.75657 0.51608 0.0
C873 C 0.53379 0.73369 0.57927 0.0
C874 C 0.53202 0.70541 0.54698 0.0
C875 C 0.5287 0.69964 0.45441 0.0
C876 C 0.52736 0.66722 0.438 0.0
C877 C 0.49792 0.65826 0.3947 0.0
C878 C 0.55239 0.65773 0.37832 0.0
C879 C 0.53077 0.65567 0.53554 0.0
C880 C 0.53285 0.67812 0.59744 0.0
C881 C 0.53462 0.67293 0.69173 0.0
C882 C 0.53471 0.64424 0.72358 0.0
C883 C 0.5337 0.62078 0.66175 0.0
C884 C 0.53166 0.62678 0.56625 0.0
H885 H 0.82917 0.48064 0.48585 0.0
H886 H 0.8039 0.56999 0.48323 0.0
H887 H 0.84491 0.58188 0.58921 0.0
H888 H 0.85726 0.4802 0.73241 0.0
H889 H 0.88656 0.45652 0.70731 0.0
H890 H 0.85288 0.4538 0.64265 0.0
H891 H 0.87982 0.4621 0.48763 0.0
H892 H 0.91257 0.46141 0.55672 0.0
H893 H 0.90565 0.49159 0.48318 0.0
H894 H 0.89337 0.58571 0.67217 0.0
H895 H 0.94335 0.58083 0.73309 0.0
H896 H 0.93843 0.48879 0.68819 0.0
C897 C 0.83171 0.5025 0.51051 0.0
C898 C 0.81282 0.52438 0.47697 0.0
C899 C 0.81737 0.5528 0.5094 0.0
C900 C 0.84094 0.55977 0.56889 0.0
C901 C 0.85988 0.53804 0.59704 0.0
C902 C 0.85533 0.50983 0.57004 0.0
C903 C 0.87991 0.4909 0.60659 0.0
C904 C 0.86847 0.46906 0.6764 0.0
C905 C 0.8953 0.47559 0.52873 0.0
C906 C 0.89987 0.51315 0.65325 0.0
C907 C 0.88759 0.54014 0.64792 0.0
C908 C 0.90278 0.56458 0.67856 0.0
C909 C 0.93126 0.56159 0.71339 0.0
C910 C 0.94469 0.53437 0.71845 0.0
C911 C 0.92845 0.50973 0.68913 0.0
loop_
_geom_bond_atom_site_label_1
_geom_bond_atom_site_label_2
_geom_bond_distance
_geom_bond_site_symmetry_2
_ccdc_geom_bond_type
C0 N1 1.317 . S
C0 N2 1.348 . S
C0 C3 1.485 . S
N1 C0 1.317 . S
N1 N5 1.370 . S
N2 C0 1.348 . S
N2 C4 1.346 . S
C3 C0 1.485 . S
C3 H7 0.960 . S
C3 H8 0.961 . S
C3 H9 0.960 . S
C4 N2 1.346 . S
C4 N5 1.307 . S
C4 C6 1.486 . S
N5 N1 1.370 . S
N5 C4 1.307 . S
C6 C4 1.486 . S
C6 H10 0.960 . S
C6 H11 0.960 . S
C6 H12 0.959 . S
H7 C3 0.960 . S
H8 C3 0.961 . S
H9 C3 0.960 . S
H10 C6 0.960 . S
H11 C6 0.960 . S
H12 C6 0.959 . S
C13 N14 1.317 . S
C13 N15 1.348 . S
C13 C16 1.485 . S
N14 C13 1.317 . S
N14 N18 1.370 . S
N15 C13 1.348 . S
N15 C17 1.346 . S
C16 C13 1.485 . S
C16 H20 0.960 . S
C16 H21 0.961 . S
C16 H22 0.960 . S
C17 N15 1.346 . S
C17 N18 1.307 . S
C17 C19 1.486 . S
N18 N14 1.370 . S
N18 C17 1.307 . S
C19 C17 1.486 . S
C19 H23 0.960 . S
C19 H24 0.960 . S
C19 H25 0.959 . S
H20 C16 0.960 . S
H21 C16 0.961 . S
H22 C16 0.960 . S
H23 C19 0.960 . S
H24 C19 0.960 . S
H25 C19 0.959 . S
C26 N27 1.317 . S
C26 N28 1.348 . S
C26 C29 1.485 . S
N27 C26 1.317 . S
N27 N31 1.370 . S
N28 C26 1.348 . S
N28 C30 1.346 . S
C29 C26 1.485 . S
C29 H33 0.960 . S
C29 H34 0.961 . S
C29 H35 0.960 . S
C30 N28 1.346 . S
C30 N31 1.307 . S
C30 C32 1.486 . S
N31 N27 1.370 . S
N31 C30 1.307 . S
C32 C30 1.486 . S
C32 H36 0.960 . S
C32 H37 0.960 . S
C32 H38 0.959 . S
H33 C29 0.960 . S
H34 C29 0.961 . S
H35 C29 0.960 . S
H36 C32 0.960 . S
H37 C32 0.960 . S
H38 C32 0.959 . S
C39 N40 1.317 . S
C39 N41 1.348 . S
C39 C42 1.485 . S
N40 C39 1.317 . S
N40 N44 1.370 . S
N41 C39 1.348 . S
N41 C43 1.346 . S
C42 C39 1.485 . S
C42 H46 0.960 . S
C42 H47 0.961 . S
C42 H48 0.960 . S
C43 N41 1.346 . S
C43 N44 1.307 . S
C43 C45 1.486 . S
N44 N40 1.370 . S
N44 C43 1.307 . S
C45 C43 1.486 . S
C45 H49 0.960 . S
C45 H50 0.960 . S
C45 H51 0.959 . S
H46 C42 0.960 . S
H47 C42 0.961 . S
H48 C42 0.960 . S
H49 C45 0.960 . S
H50 C45 0.960 . S
H51 C45 0.959 . S
C52 N53 1.317 . S
C52 N54 1.348 . S
C52 C55 1.485 1_554 S
N53 C52 1.317 . S
N53 N57 1.370 . S
N54 C52 1.348 . S
N54 C56 1.346 . S
C55 C52 1.485 1_556 S
C55 H59 0.960 . S
C55 H60 0.961 . S
C55 H61 0.960 . S
C56 N54 1.346 . S
C56 N57 1.307 . S
C56 C58 1.486 . S
N57 N53 1.370 . S
N57 C56 1.307 . S
C58 C56 1.486 . S
C58 H62 0.960 . S
C58 H63 0.960 . S
C58 H64 0.959 . S
H59 C55 0.960 . S
H60 C55 0.961 . S
H61 C55 0.960 . S
H62 C58 0.960 . S
H63 C58 0.960 . S
H64 C58 0.959 . S
C65 N66 1.317 1_556 S
C65 N67 1.348 1_556 S
C65 C68 1.485 . S
N66 C65 1.317 1_554 S
N66 N70 1.370 . S
N67 C65 1.348 1_554 S
N67 C69 1.346 . S
C68 C65 1.485 . S
C68 H72 0.960 . S
C68 H73 0.961 . S
C68 H74 0.960 . S
C69 N67 1.346 . S
C69 N70 1.307 . S
C69 C71 1.486 . S
N70 N66 1.370 . S
N70 C69 1.307 . S
C71 C69 1.486 . S
C71 H75 0.960 . S
C71 H76 0.960 . S
C71 H77 0.959 . S
H72 C68 0.960 . S
H73 C68 0.961 . S
H74 C68 0.960 . S
H75 C71 0.960 . S
H76 C71 0.960 . S
H77 C71 0.959 . S
C78 N79 1.317 . S
C78 N80 1.348 1_556 S
C78 C81 1.485 . S
N79 C78 1.317 . S
N79 N83 1.370 1_556 S
N80 C78 1.348 1_554 S
N80 C82 1.346 . S
C81 C78 1.485 . S
C81 H85 0.960 . S
C81 H86 0.961 . S
C81 H87 0.960 . S
C82 N80 1.346 . S
C82 N83 1.307 . S
C82 C84 1.486 . S
N83 N79 1.370 1_554 S
N83 C82 1.307 . S
C84 C82 1.486 . S
C84 H88 0.960 . S
C84 H89 0.960 . S
C84 H90 0.959 . S
H85 C81 0.960 . S
H86 C81 0.961 . S
H87 C81 0.960 . S
H88 C84 0.960 . S
H89 C84 0.960 . S
H90 C84 0.959 . S
C91 N92 1.317 . S
C91 N93 1.348 . S
C91 C94 1.485 1_554 S
N92 C91 1.317 . S
N92 N96 1.370 . S
N93 C91 1.348 . S
N93 C95 1.346 . S
C94 C91 1.485 1_556 S
C94 H98 0.960 . S
C94 H99 0.961 . S
C94 H100 0.960 . S
C95 N93 1.346 . S
C95 N96 1.307 . S
C95 C97 1.486 . S
N96 N92 1.370 . S
N96 C95 1.307 . S
C97 C95 1.486 . S
C97 H101 0.960 . S
C97 H102 0.960 . S
C97 H103 0.959 . S
H98 C94 0.960 . S
H99 C94 0.961 . S
H100 C94 0.960 . S
H101 C97 0.960 . S
H102 C97 0.960 . S
H103 C97 0.959 . S
Eu104 C113 2.828 . S
Eu104 O115 2.392 . S
Eu104 O117 2.418 1_545 S
Eu104 O122 2.373 1_655 S
Eu104 O125 2.488 . S
Eu104 O126 2.471 . S
Eu104 O127 2.349 1_655 S
Eu105 O114 2.373 1_455 S
Eu105 O118 2.488 . S
Eu105 O119 2.471 . S
Eu105 O120 2.349 . S
Eu105 O123 2.392 1_565 S
Eu105 O124 2.418 1_565 S
Eu105 C134 2.828 . S
C106 O124 1.244 . S
C106 O127 1.265 . S
C107 C108 1.379 1_655 S
C107 C111 1.373 . S
C107 C113 1.505 . S
C108 C107 1.379 1_455 S
C108 C110 1.369 . S
C108 H136 0.930 . S
C109 C111 1.383 . S
C109 C112 1.382 1_655 S
C109 H137 0.930 . S
C110 C108 1.369 . S
C110 C112 1.392 . S
C110 H138 0.930 . S
C111 C107 1.373 . S
C111 C109 1.383 . S
C111 H139 0.931 . S
C112 C109 1.382 1_455 S
C112 C110 1.392 . S
C113 Eu104 2.828 . S
C113 C107 1.505 . S
C113 O125 1.249 . S
C113 O126 1.244 . S
O114 Eu105 2.373 1_655 S
O114 C116 1.258 1_565 S
O115 Eu104 2.392 . S
O115 C116 1.242 . S
C116 O114 1.258 1_545 S
C116 O115 1.242 . S
O117 Eu104 2.418 1_565 S
O117 C121 1.244 . S
O118 Eu105 2.488 . S
O118 C134 1.249 . S
O119 Eu105 2.471 . S
O119 C134 1.244 . S
O120 Eu105 2.349 . S
O120 C121 1.265 1_455 S
C121 O117 1.244 . S
C121 O120 1.265 1_655 S
O122 Eu104 2.373 1_455 S
O122 C135 1.258 . S
O123 Eu105 2.392 1_545 S
O123 C135 1.242 . S
O124 Eu105 2.418 1_545 S
O124 C106 1.244 . S
O125 Eu104 2.488 . S
O125 C113 1.249 . S
O126 Eu104 2.471 . S
O126 C113 1.244 . S
O127 Eu104 2.349 1_455 S
O127 C106 1.265 . S
C128 C129 1.379 . S
C128 C132 1.373 . S
C128 C134 1.505 1_554 S
C129 C128 1.379 . S
C129 C131 1.369 . S
C129 H140 0.916 1_454 S
C130 C132 1.383 . S
C130 C133 1.382 . S
C130 H141 0.930 . S
C131 C129 1.369 . S
C131 C133 1.392 . S
C131 H142 0.930 1_455 S
C132 C128 1.373 . S
C132 C130 1.383 . S
C132 H143 0.931 . S
C133 C130 1.382 . S
C133 C131 1.392 . S
C134 Eu105 2.828 . S
C134 O118 1.249 . S
C134 O119 1.244 . S
C134 C128 1.505 1_556 S
C135 O122 1.258 . S
C135 O123 1.242 . S
H136 C108 0.930 . S
H137 C109 0.930 . S
H138 C110 0.930 . S
H139 C111 0.931 . S
H140 C129 0.916 1_656 S
H141 C130 0.930 . S
H142 C131 0.930 1_655 S
H143 C132 0.931 . S
Eu144 C153 2.828 . S
Eu144 O155 2.392 . S
Eu144 O157 2.418 . S
Eu144 O162 2.373 . S
Eu144 O165 2.488 . S
Eu144 O166 2.471 . S
Eu144 O167 2.349 1_545 S
Eu145 O154 2.373 1_565 S
Eu145 O158 2.488 . S
Eu145 O159 2.471 1_565 S
Eu145 O160 2.349 1_565 S
Eu145 O163 2.392 . S
Eu145 O164 2.418 . S
Eu145 C174 2.828 . S
C146 O164 1.244 . S
C146 O167 1.265 . S
C147 C148 1.379 . S
C147 C151 1.373 . S
C147 C153 1.505 . S
C148 C147 1.379 . S
C148 C150 1.369 1_556 S
C148 H176 0.930 1_545 S
C149 C151 1.383 1_554 S
C149 C152 1.382 . S
C149 H177 0.930 . S
C150 C148 1.369 1_554 S
C150 C152 1.392 . S
C150 H178 0.930 1_545 S
C151 C147 1.373 . S
C151 C149 1.383 1_556 S
C151 H179 0.931 . S
C152 C149 1.382 . S
C152 C150 1.392 . S
C153 Eu144 2.828 . S
C153 C147 1.505 . S
C153 O165 1.249 . S
C153 O166 1.244 . S
O154 Eu145 2.373 1_545 S
O154 C156 1.258 . S
O155 Eu144 2.392 . S
O155 C156 1.242 . S
C156 O154 1.258 . S
C156 O155 1.242 . S
O157 Eu144 2.418 . S
O157 C161 1.244 . S
O158 Eu145 2.488 . S
O158 C174 1.249 . S
O159 Eu145 2.471 1_545 S
O159 C174 1.244 1_545 S
O160 Eu145 2.349 1_545 S
O160 C161 1.265 . S
C161 O157 1.244 . S
C161 O160 1.265 . S
O162 Eu144 2.373 . S
O162 C175 1.258 1_545 S
O163 Eu145 2.392 . S
O163 C175 1.242 . S
O164 Eu145 2.418 . S
O164 C146 1.244 . S
O165 Eu144 2.488 . S
O165 C153 1.249 . S
O166 Eu144 2.471 . S
O166 C153 1.244 . S
O167 Eu144 2.349 1_565 S
O167 C146 1.265 . S
C168 C169 1.379 1_565 S
C168 C172 1.373 . S
C168 C174 1.505 . S
C169 C168 1.379 1_545 S
C169 C171 1.369 . S
C169 H180 0.930 . S
C170 C172 1.383 . S
C170 C173 1.382 . S
C170 H181 0.930 . S
C171 C169 1.369 . S
C171 C173 1.392 1_545 S
C171 H182 0.930 . S
C172 C168 1.373 . S
C172 C170 1.383 . S
C172 H183 0.931 . S
C173 C170 1.382 . S
C173 C171 1.392 1_565 S
C174 Eu145 2.828 . S
C174 O158 1.249 . S
C174 O159 1.244 1_565 S
C174 C168 1.505 . S
C175 O162 1.258 1_565 S
C175 O163 1.242 . S
H176 C148 0.930 1_565 S
H177 C149 0.930 . S
H178 C150 0.930 1_565 S
H179 C151 0.931 . S
H180 C169 0.930 . S
H181 C170 0.930 . S
H182 C171 0.930 . S
H183 C172 0.931 . S
Eu184 C193 2.828 . S
Eu184 O195 2.392 . S
Eu184 O197 2.418 . S
Eu184 O202 2.373 . S
Eu184 O205 2.488 . S
Eu184 O206 2.471 . S
Eu184 O207 2.349 . S
Eu185 O194 2.373 . S
Eu185 O198 2.488 . S
Eu185 O199 2.471 . S
Eu185 O200 2.349 . S
Eu185 O203 2.392 . S
Eu185 O204 2.418 . S
Eu185 C214 2.828 . S
C186 O204 1.244 . S
C186 O207 1.265 . S
C187 C188 1.379 . S
C187 C191 1.373 . S
C187 C193 1.505 . S
C188 C187 1.379 . S
C188 C190 1.369 1_556 S
C188 H216 0.930 . S
C189 C191 1.386 . S
C189 C192 1.381 1_556 S
C189 H217 0.929 1_556 S
C190 C188 1.369 1_554 S
C190 C192 1.392 . S
C190 H218 0.930 . S
C191 C187 1.373 . S
C191 C189 1.386 . S
C191 H219 0.931 . S
C192 C189 1.381 1_554 S
C192 C190 1.392 . S
C193 Eu184 2.828 . S
C193 C187 1.505 . S
C193 O205 1.249 . S
C193 O206 1.244 . S
O194 Eu185 2.373 . S
O194 C196 1.258 . S
O195 Eu184 2.392 . S
O195 C196 1.242 . S
C196 O194 1.258 . S
C196 O195 1.242 . S
O197 Eu184 2.418 . S
O197 C201 1.244 . S
O198 Eu185 2.488 . S
O198 C214 1.249 . S
O199 Eu185 2.471 . S
O199 C214 1.244 . S
O200 Eu185 2.349 . S
O200 C201 1.265 . S
C201 O197 1.244 . S
C201 O200 1.265 . S
O202 Eu184 2.373 . S
O202 C215 1.258 . S
O203 Eu185 2.392 . S
O203 C215 1.242 . S
O204 Eu185 2.418 . S
O204 C186 1.244 . S
O205 Eu184 2.488 . S
O205 C193 1.249 . S
O206 Eu184 2.471 . S
O206 C193 1.244 . S
O207 Eu184 2.349 . S
O207 C186 1.265 . S
C208 C209 1.379 . S
C208 C212 1.373 . S
C208 C214 1.505 . S
C209 C208 1.379 . S
C209 C211 1.369 . S
C209 H220 0.930 . S
C210 C212 1.383 . S
C210 C213 1.382 . S
C210 H221 0.930 . S
C211 C209 1.369 . S
C211 C213 1.392 . S
C211 H222 0.930 . S
C212 C208 1.373 . S
C212 C210 1.383 . S
C212 H223 0.931 . S
C213 C210 1.382 . S
C213 C211 1.392 . S
C214 Eu185 2.828 . S
C214 O198 1.249 . S
C214 O199 1.244 . S
C214 C208 1.505 . S
C215 O202 1.258 . S
C215 O203 1.242 . S
H216 C188 0.930 . S
H217 C189 0.929 1_554 S
H218 C190 0.930 . S
H219 C191 0.931 . S
H220 C209 0.930 . S
H221 C210 0.930 . S
H222 C211 0.930 . S
H223 C212 0.931 . S
Eu224 C233 2.828 . S
Eu224 O235 2.392 . S
Eu224 O237 2.418 1_455 S
Eu224 O242 2.373 . S
Eu224 O245 2.488 . S
Eu224 O246 2.471 . S
Eu224 O247 2.349 . S
Eu225 O234 2.373 . S
Eu225 O238 2.488 . S
Eu225 O239 2.471 . S
Eu225 O240 2.349 . S
Eu225 O243 2.392 1_655 S
Eu225 O244 2.418 1_655 S
Eu225 C254 2.828 . S
C226 O244 1.244 . S
C226 O247 1.265 . S
C227 C228 1.379 . S
C227 C231 1.373 . S
C227 C233 1.505 . S
C228 C227 1.379 . S
C228 C230 1.369 . S
C228 H256 0.930 . S
C229 C231 1.383 . S
C229 C232 1.382 . S
C229 H257 0.930 . S
C230 C228 1.369 . S
C230 C232 1.392 . S
C230 H258 0.930 . S
C231 C227 1.373 . S
C231 C229 1.383 . S
C231 H259 0.931 . S
C232 C229 1.382 . S
C232 C230 1.392 . S
C233 Eu224 2.828 . S
C233 C227 1.505 . S
C233 O245 1.249 . S
C233 O246 1.244 . S
O234 Eu225 2.373 . S
O234 C236 1.258 1_655 S
O235 Eu224 2.392 . S
O235 C236 1.242 . S
C236 O234 1.258 1_455 S
C236 O235 1.242 . S
O237 Eu224 2.418 1_655 S
O237 C241 1.244 . S
O238 Eu225 2.488 . S
O238 C254 1.249 . S
O239 Eu225 2.471 . S
O239 C254 1.244 . S
O240 Eu225 2.349 . S
O240 C241 1.265 . S
C241 O237 1.244 . S
C241 O240 1.265 . S
O242 Eu224 2.373 . S
O242 C255 1.258 . S
O243 Eu225 2.392 1_455 S
O243 C255 1.242 . S
O244 Eu225 2.418 1_455 S
O244 C226 1.244 . S
O245 Eu224 2.488 . S
O245 C233 1.249 . S
O246 Eu224 2.471 . S
O246 C233 1.244 . S
O247 Eu224 2.349 . S
O247 C226 1.265 . S
C248 C249 1.379 1_554 S
C248 C252 1.373 . S
C248 C254 1.505 1_554 S
C249 C248 1.379 1_556 S
C249 C251 1.369 1_556 S
C249 H260 0.930 . S
C250 C252 1.383 . S
C250 C253 1.382 . S
C250 H261 0.930 . S
C251 C249 1.369 1_554 S
C251 C253 1.392 . S
C251 H262 0.930 . S
C252 C248 1.373 . S
C252 C250 1.383 . S
C252 H263 0.931 . S
C253 C250 1.382 . S
C253 C251 1.392 . S
C254 Eu225 2.828 . S
C254 O238 1.249 . S
C254 O239 1.244 . S
C254 C248 1.505 1_556 S
C255 O242 1.258 . S
C255 O243 1.242 . S
H256 C228 0.930 . S
H257 C229 0.930 . S
H258 C230 0.930 . S
H259 C231 0.931 . S
H260 C249 0.930 . S
H261 C250 0.930 . S
H262 C251 0.930 . S
H263 C252 0.931 . S
H264 C276 0.930 . S
H265 C278 0.930 . S
H266 C279 0.930 . S
H267 C283 0.959 . S
H268 C283 0.959 . S
H269 C283 0.961 . S
H270 C284 0.960 . S
H271 C284 0.961 . S
H272 C284 0.959 . S
H273 C287 0.929 . S
H274 C288 0.931 . S
H275 C290 0.930 . S
C276 H264 0.930 . S
C276 C277 1.399 . S
C276 C281 1.399 . S
C277 C276 1.399 . S
C277 C278 1.376 . S
C278 H265 0.930 . S
C278 C277 1.376 . S
C278 C279 1.388 . S
C279 H266 0.930 . S
C279 C278 1.388 . S
C279 C280 1.390 . S
C280 C279 1.390 . S
C280 C281 1.394 . S
C280 C286 1.465 . S
C281 C276 1.399 . S
C281 C280 1.394 . S
C281 C282 1.516 . S
C282 C281 1.516 . S
C282 C283 1.502 . S
C282 C284 1.561 . S
C282 C285 1.526 . S
C283 H267 0.959 . S
C283 H268 0.959 . S
C283 H269 0.961 . S
C283 C282 1.502 . S
C284 H270 0.960 . S
C284 H271 0.961 . S
C284 H272 0.959 . S
C284 C282 1.561 . S
C285 C282 1.526 . S
C285 C286 1.396 . S
C285 C290 1.390 . S
C286 C280 1.465 . S
C286 C285 1.396 . S
C286 C287 1.399 . S
C287 H273 0.929 . S
C287 C286 1.399 . S
C287 C288 1.385 . S
C288 H274 0.931 . S
C288 C287 1.385 . S
C288 C289 1.389 . S
C289 C288 1.389 . S
C289 C290 1.387 . S
C290 H275 0.930 . S
C290 C285 1.390 . S
C290 C289 1.387 . S
H291 C303 0.930 . S
H292 C305 0.930 . S
H293 C306 0.930 . S
H294 C310 0.959 . S
H295 C310 0.959 . S
H296 C310 0.961 . S
H297 C311 0.960 . S
H298 C311 0.961 . S
H299 C311 0.959 . S
H300 C314 0.929 . S
H301 C315 0.931 . S
H302 C317 0.930 . S
C303 H291 0.930 . S
C303 C304 1.399 . S
C303 C308 1.399 . S
C304 C303 1.399 . S
C304 C305 1.376 . S
C305 H292 0.930 . S
C305 C304 1.376 . S
C305 C306 1.388 . S
C306 H293 0.930 . S
C306 C305 1.388 . S
C306 C307 1.390 . S
C307 C306 1.390 . S
C307 C308 1.394 . S
C307 C313 1.465 . S
C308 C303 1.399 . S
C308 C307 1.394 . S
C308 C309 1.516 . S
C309 C308 1.516 . S
C309 C310 1.502 . S
C309 C311 1.561 . S
C309 C312 1.526 . S
C310 H294 0.959 . S
C310 H295 0.959 . S
C310 H296 0.961 . S
C310 C309 1.502 . S
C311 H297 0.960 . S
C311 H298 0.961 . S
C311 H299 0.959 . S
C311 C309 1.561 . S
C312 C309 1.526 . S
C312 C313 1.396 . S
C312 C317 1.390 . S
C313 C307 1.465 . S
C313 C312 1.396 . S
C313 C314 1.399 . S
C314 H300 0.929 . S
C314 C313 1.399 . S
C314 C315 1.385 . S
C315 H301 0.931 . S
C315 C314 1.385 . S
C315 C316 1.389 . S
C316 C315 1.389 . S
C316 C317 1.387 . S
C317 H302 0.930 . S
C317 C312 1.390 . S
C317 C316 1.387 . S
H318 C330 0.930 . S
H319 C332 0.930 . S
H320 C333 0.930 . S
H321 C337 0.959 . S
H322 C337 0.959 . S
H323 C337 0.961 . S
H324 C338 0.960 . S
H325 C338 0.961 . S
H326 C338 0.959 . S
H327 C341 0.929 . S
H328 C342 0.931 . S
H329 C344 0.930 . S
C330 H318 0.930 . S
C330 C331 1.399 . S
C330 C335 1.399 . S
C331 C330 1.399 . S
C331 C332 1.376 . S
C332 H319 0.930 . S
C332 C331 1.376 . S
C332 C333 1.388 . S
C333 H320 0.930 . S
C333 C332 1.388 . S
C333 C334 1.390 . S
C334 C333 1.390 . S
C334 C335 1.394 . S
C334 C340 1.465 . S
C335 C330 1.399 . S
C335 C334 1.394 . S
C335 C336 1.516 . S
C336 C335 1.516 . S
C336 C337 1.502 . S
C336 C338 1.561 . S
C336 C339 1.526 . S
C337 H321 0.959 . S
C337 H322 0.959 . S
C337 H323 0.961 . S
C337 C336 1.502 . S
C338 H324 0.960 . S
C338 H325 0.961 . S
C338 H326 0.959 . S
C338 C336 1.561 . S
C339 C336 1.526 . S
C339 C340 1.396 . S
C339 C344 1.390 . S
C340 C334 1.465 . S
C340 C339 1.396 . S
C340 C341 1.399 . S
C341 H327 0.929 . S
C341 C340 1.399 . S
C341 C342 1.385 . S
C342 H328 0.931 . S
C342 C341 1.385 . S
C342 C343 1.389 . S
C343 C342 1.389 . S
C343 C344 1.387 . S
C344 H329 0.930 . S
C344 C339 1.390 . S
C344 C343 1.387 . S
H345 C357 0.930 . S
H346 C359 0.930 . S
H347 C360 0.930 . S
H348 C364 0.959 . S
H349 C364 0.959 . S
H350 C364 0.961 . S
H351 C365 0.960 . S
H352 C365 0.961 . S
H353 C365 0.959 . S
H354 C368 0.929 1_655 S
H355 C369 0.931 1_655 S
H356 C371 0.930 . S
C357 H345 0.930 . S
C357 C358 1.399 . S
C357 C362 1.399 . S
C358 C357 1.399 . S
C358 C359 1.376 . S
C359 H346 0.930 . S
C359 C358 1.376 . S
C359 C360 1.388 . S
C360 H347 0.930 . S
C360 C359 1.388 . S
C360 C361 1.390 . S
C361 C360 1.390 . S
C361 C362 1.394 . S
C361 C367 1.465 . S
C362 C357 1.399 . S
C362 C361 1.394 . S
C362 C363 1.516 . S
C363 C362 1.516 . S
C363 C364 1.502 . S
C363 C365 1.561 . S
C363 C366 1.526 . S
C364 H348 0.959 . S
C364 H349 0.959 . S
C364 H350 0.961 . S
C364 C363 1.502 . S
C365 H351 0.960 . S
C365 H352 0.961 . S
C365 H353 0.959 . S
C365 C363 1.561 . S
C366 C363 1.526 . S
C366 C367 1.396 . S
C366 C371 1.390 . S
C367 C361 1.465 . S
C367 C366 1.396 . S
C367 C368 1.399 . S
C368 H354 0.929 1_455 S
C368 C367 1.399 . S
C368 C369 1.385 . S
C369 H355 0.931 1_455 S
C369 C368 1.385 . S
C369 C370 1.389 . S
C370 C369 1.389 . S
C370 C371 1.387 . S
C371 H356 0.930 . S
C371 C366 1.390 . S
C371 C370 1.387 . S
H372 C384 0.930 . S
H373 C386 0.930 . S
H374 C387 0.930 1_545 S
H375 C391 0.959 1_545 S
H376 C391 0.959 . S
H377 C391 0.961 . S
H378 C392 0.960 . S
H379 C392 0.961 . S
H380 C392 0.959 . S
H381 C395 0.929 . S
H382 C396 0.931 . S
H383 C398 0.930 . S
C384 H372 0.930 . S
C384 C385 1.399 . S
C384 C389 1.399 . S
C385 C384 1.399 . S
C385 C386 1.376 . S
C386 H373 0.930 . S
C386 C385 1.376 . S
C386 C387 1.388 . S
C387 H374 0.930 1_565 S
C387 C386 1.388 . S
C387 C388 1.390 . S
C388 C387 1.390 . S
C388 C389 1.394 . S
C388 C394 1.465 . S
C389 C384 1.399 . S
C389 C388 1.394 . S
C389 C390 1.516 . S
C390 C389 1.516 . S
C390 C391 1.502 . S
C390 C392 1.561 . S
C390 C393 1.526 . S
C391 H375 0.959 1_565 S
C391 H376 0.959 . S
C391 H377 0.961 . S
C391 C390 1.502 . S
C392 H378 0.960 . S
C392 H379 0.961 . S
C392 H380 0.959 . S
C392 C390 1.561 . S
C393 C390 1.526 . S
C393 C394 1.396 . S
C393 C398 1.390 . S
C394 C388 1.465 . S
C394 C393 1.396 . S
C394 C395 1.399 1_564 S
C395 H381 0.929 . S
C395 C394 1.399 1_546 S
C395 C396 1.385 . S
C396 H382 0.931 . S
C396 C395 1.385 . S
C396 C397 1.389 1_545 S
C397 C396 1.389 1_565 S
C397 C398 1.387 1_556 S
C398 H383 0.930 . S
C398 C393 1.390 . S
C398 C397 1.387 1_554 S
H399 C411 0.930 . S
H400 C413 0.930 . S
H401 C414 0.930 . S
H402 C418 0.959 . S
H403 C418 0.959 . S
H404 C418 0.961 . S
H405 C419 0.960 . S
H406 C419 0.961 . S
H407 C419 0.959 . S
H408 C422 0.929 . S
H409 C423 0.931 . S
H410 C425 0.930 . S
C411 H399 0.930 . S
C411 C412 1.399 . S
C411 C416 1.399 . S
C412 C411 1.399 . S
C412 C413 1.376 . S
C413 H400 0.930 . S
C413 C412 1.376 . S
C413 C414 1.388 . S
C414 H401 0.930 . S
C414 C413 1.388 . S
C414 C415 1.390 . S
C415 C414 1.390 . S
C415 C416 1.394 . S
C415 C421 1.465 . S
C416 C411 1.399 . S
C416 C415 1.394 . S
C416 C417 1.516 . S
C417 C416 1.516 . S
C417 C418 1.502 . S
C417 C419 1.561 . S
C417 C420 1.526 . S
C418 H402 0.959 . S
C418 H403 0.959 . S
C418 H404 0.961 . S
C418 C417 1.502 . S
C419 H405 0.960 . S
C419 H406 0.961 . S
C419 H407 0.959 . S
C419 C417 1.561 . S
C420 C417 1.526 . S
C420 C421 1.396 . S
C420 C425 1.390 1_554 S
C421 C415 1.465 . S
C421 C420 1.396 . S
C421 C422 1.399 1_554 S
C422 H408 0.929 . S
C422 C421 1.399 1_556 S
C422 C423 1.385 . S
C423 H409 0.931 . S
C423 C422 1.385 . S
C423 C424 1.389 . S
C424 C423 1.389 . S
C424 C425 1.387 . S
C425 H410 0.930 . S
C425 C420 1.390 1_556 S
C425 C424 1.387 . S
H426 C438 0.930 . S
H427 C440 0.930 . S
H428 C441 0.930 . S
H429 C445 0.959 1_556 S
H430 C445 0.959 1_556 S
H431 C445 0.961 . S
H432 C446 0.960 . S
H433 C446 0.961 . S
H434 C446 0.959 . S
H435 C449 0.929 . S
H436 C450 0.931 . S
H437 C452 0.930 . S
C438 H426 0.930 . S
C438 C439 1.399 . S
C438 C443 1.399 . S
C439 C438 1.399 . S
C439 C440 1.376 . S
C440 H427 0.930 . S
C440 C439 1.376 . S
C440 C441 1.388 . S
C441 H428 0.930 . S
C441 C440 1.388 . S
C441 C442 1.390 . S
C442 C441 1.390 . S
C442 C443 1.394 . S
C442 C448 1.465 . S
C443 C438 1.399 . S
C443 C442 1.394 . S
C443 C444 1.516 . S
C444 C443 1.516 . S
C444 C445 1.502 . S
C444 C446 1.561 . S
C444 C447 1.526 . S
C445 H429 0.959 1_554 S
C445 H430 0.959 1_554 S
C445 H431 0.961 . S
C445 C444 1.502 . S
C446 H432 0.960 . S
C446 H433 0.961 . S
C446 H434 0.959 . S
C446 C444 1.561 . S
C447 C444 1.526 . S
C447 C448 1.396 . S
C447 C452 1.390 1_554 S
C448 C442 1.465 . S
C448 C447 1.396 . S
C448 C449 1.399 . S
C449 H435 0.929 . S
C449 C448 1.399 . S
C449 C450 1.385 1_554 S
C450 H436 0.931 . S
C450 C449 1.385 1_556 S
C450 C451 1.389 . S
C451 C450 1.389 . S
C451 C452 1.387 . S
C452 H437 0.930 . S
C452 C447 1.390 1_556 S
C452 C451 1.387 . S
H453 C465 0.930 . S
H454 C467 0.930 . S
H455 C468 0.930 . S
H456 C472 0.959 . S
H457 C472 0.959 . S
H458 C472 0.961 . S
H459 C473 0.960 . S
H460 C473 0.961 1_556 S
H461 C473 0.959 1_556 S
H462 C476 0.929 . S
H463 C477 0.931 . S
H464 C479 0.930 . S
C465 H453 0.930 . S
C465 C466 1.399 . S
C465 C470 1.399 . S
C466 C465 1.399 . S
C466 C467 1.376 1_655 S
C467 H454 0.930 . S
C467 C466 1.376 1_455 S
C467 C468 1.388 . S
C468 H455 0.930 . S
C468 C467 1.388 . S
C468 C469 1.390 1_455 S
C469 C468 1.390 1_655 S
C469 C470 1.394 . S
C469 C475 1.465 1_655 S
C470 C465 1.399 . S
C470 C469 1.394 . S
C470 C471 1.516 . S
C471 C470 1.516 . S
C471 C472 1.502 . S
C471 C473 1.561 . S
C471 C474 1.526 . S
C472 H456 0.959 . S
C472 H457 0.959 . S
C472 H458 0.961 . S
C472 C471 1.502 . S
C473 H459 0.960 . S
C473 H460 0.961 1_554 S
C473 H461 0.959 1_554 S
C473 C471 1.561 . S
C474 C471 1.526 . S
C474 C475 1.396 1_655 S
C474 C479 1.390 1_554 S
C475 C469 1.465 1_455 S
C475 C474 1.396 1_455 S
C475 C476 1.399 . S
C476 H462 0.929 . S
C476 C475 1.399 . S
C476 C477 1.385 1_554 S
C477 H463 0.931 . S
C477 C476 1.385 1_556 S
C477 C478 1.389 1_455 S
C478 C477 1.389 1_655 S
C478 C479 1.387 . S
C479 H464 0.930 . S
C479 C474 1.390 1_556 S
C479 C478 1.387 . S
H480 C492 0.930 . S
H481 C494 0.930 . S
H482 C495 0.930 . S
H483 C499 0.959 . S
H484 C499 0.959 . S
H485 C499 0.961 . S
H486 C500 0.960 1_556 S
H487 C500 0.961 1_556 S
H488 C500 0.959 . S
H489 C503 0.929 . S
H490 C504 0.931 . S
H491 C506 0.930 1_655 S
C492 H480 0.930 . S
C492 C493 1.399 . S
C492 C497 1.399 . S
C493 C492 1.399 . S
C493 C494 1.376 . S
C494 H481 0.930 . S
C494 C493 1.376 . S
C494 C495 1.388 . S
C495 H482 0.930 . S
C495 C494 1.388 . S
C495 C496 1.390 . S
C496 C495 1.390 . S
C496 C497 1.394 . S
C496 C502 1.465 . S
C497 C492 1.399 . S
C497 C496 1.394 . S
C497 C498 1.516 . S
C498 C497 1.516 . S
C498 C499 1.502 1_455 S
C498 C500 1.561 . S
C498 C501 1.526 . S
C499 H483 0.959 . S
C499 H484 0.959 . S
C499 H485 0.961 . S
C499 C498 1.502 1_655 S
C500 H486 0.960 1_554 S
C500 H487 0.961 1_554 S
C500 H488 0.959 . S
C500 C498 1.561 . S
C501 C498 1.526 . S
C501 C502 1.396 . S
C501 C506 1.390 . S
C502 C496 1.465 . S
C502 C501 1.396 . S
C502 C503 1.399 . S
C503 H489 0.929 . S
C503 C502 1.399 . S
C503 C504 1.385 . S
C504 H490 0.931 . S
C504 C503 1.385 . S
C504 C505 1.389 . S
C505 C504 1.389 . S
C505 C506 1.387 . S
C506 H491 0.930 1_455 S
C506 C501 1.390 . S
C506 C505 1.387 . S
H507 C519 0.930 1_565 S
H508 C521 0.930 . S
H509 C522 0.930 . S
H510 C526 0.959 . S
H511 C526 0.959 . S
H512 C526 0.961 . S
H513 C527 0.960 . S
H514 C527 0.961 . S
H515 C527 0.959 . S
H516 C530 0.929 . S
H517 C531 0.931 . S
H518 C533 0.930 . S
C519 H507 0.930 1_545 S
C519 C520 1.399 . S
C519 C524 1.399 . S
C520 C519 1.399 . S
C520 C521 1.376 . S
C521 H508 0.930 . S
C521 C520 1.376 . S
C521 C522 1.388 . S
C522 H509 0.930 . S
C522 C521 1.388 . S
C522 C523 1.390 . S
C523 C522 1.390 . S
C523 C524 1.394 . S
C523 C529 1.465 . S
C524 C519 1.399 . S
C524 C523 1.394 . S
C524 C525 1.516 1_545 S
C525 C524 1.516 1_565 S
C525 C526 1.502 . S
C525 C527 1.561 . S
C525 C528 1.526 . S
C526 H510 0.959 . S
C526 H511 0.959 . S
C526 H512 0.961 . S
C526 C525 1.502 . S
C527 H513 0.960 . S
C527 H514 0.961 . S
C527 H515 0.959 . S
C527 C525 1.561 . S
C528 C525 1.526 . S
C528 C529 1.396 1_565 S
C528 C533 1.390 . S
C529 C523 1.465 . S
C529 C528 1.396 1_545 S
C529 C530 1.399 . S
C530 H516 0.929 . S
C530 C529 1.399 . S
C530 C531 1.385 . S
C531 H517 0.931 . S
C531 C530 1.385 . S
C531 C532 1.389 1_545 S
C532 C531 1.389 1_565 S
C532 C533 1.387 . S
C533 H518 0.930 . S
C533 C528 1.390 . S
C533 C532 1.387 . S
H534 C546 0.930 . S
H535 C548 0.930 . S
H536 C549 0.930 . S
H537 C553 0.959 . S
H538 C553 0.959 . S
H539 C553 0.961 . S
H540 C554 0.960 . S
H541 C554 0.961 . S
H542 C554 0.959 . S
H543 C557 0.929 . S
H544 C558 0.931 . S
H545 C560 0.930 . S
C546 H534 0.930 . S
C546 C547 1.399 . S
C546 C551 1.399 . S
C547 C546 1.399 . S
C547 C548 1.376 . S
C548 H535 0.930 . S
C548 C547 1.376 . S
C548 C549 1.388 . S
C549 H536 0.930 . S
C549 C548 1.388 . S
C549 C550 1.390 . S
C550 C549 1.390 . S
C550 C551 1.394 . S
C550 C556 1.465 . S
C551 C546 1.399 . S
C551 C550 1.394 . S
C551 C552 1.516 . S
C552 C551 1.516 . S
C552 C553 1.502 . S
C552 C554 1.561 . S
C552 C555 1.526 . S
C553 H537 0.959 . S
C553 H538 0.959 . S
C553 H539 0.961 . S
C553 C552 1.502 . S
C554 H540 0.960 . S
C554 H541 0.961 . S
C554 H542 0.959 . S
C554 C552 1.561 . S
C555 C552 1.526 . S
C555 C556 1.396 . S
C555 C560 1.390 . S
C556 C550 1.465 . S
C556 C555 1.396 . S
C556 C557 1.399 . S
C557 H543 0.929 . S
C557 C556 1.399 . S
C557 C558 1.385 . S
C558 H544 0.931 . S
C558 C557 1.385 . S
C558 C559 1.389 . S
C559 C558 1.389 . S
C559 C560 1.387 . S
C560 H545 0.930 . S
C560 C555 1.390 . S
C560 C559 1.387 . S
H561 C573 0.930 . S
H562 C575 0.930 . S
H563 C576 0.930 . S
H564 C580 0.959 . S
H565 C580 0.959 . S
H566 C580 0.961 1_556 S
H567 C581 0.960 . S
H568 C581 0.961 . S
H569 C581 0.959 . S
H570 C584 0.929 . S
H571 C585 0.931 . S
H572 C587 0.930 . S
C573 H561 0.930 . S
C573 C574 1.399 . S
C573 C578 1.399 . S
C574 C573 1.399 . S
C574 C575 1.376 . S
C575 H562 0.930 . S
C575 C574 1.376 . S
C575 C576 1.388 . S
C576 H563 0.930 . S
C576 C575 1.388 . S
C576 C577 1.390 . S
C577 C576 1.390 . S
C577 C578 1.394 . S
C577 C583 1.465 . S
C578 C573 1.399 . S
C578 C577 1.394 . S
C578 C579 1.516 . S
C579 C578 1.516 . S
C579 C580 1.502 . S
C579 C581 1.561 . S
C579 C582 1.526 . S
C580 H564 0.959 . S
C580 H565 0.959 . S
C580 H566 0.961 1_554 S
C580 C579 1.502 . S
C581 H567 0.960 . S
C581 H568 0.961 . S
C581 H569 0.959 . S
C581 C579 1.561 . S
C582 C579 1.526 . S
C582 C583 1.396 . S
C582 C587 1.390 . S
C583 C577 1.465 . S
C583 C582 1.396 . S
C583 C584 1.399 . S
C584 H570 0.929 . S
C584 C583 1.399 . S
C584 C585 1.385 . S
C585 H571 0.931 . S
C585 C584 1.385 . S
C585 C586 1.389 . S
C586 C585 1.389 . S
C586 C587 1.387 . S
C587 H572 0.930 . S
C587 C582 1.390 . S
C587 C586 1.387 . S
H588 C600 0.930 . S
H589 C602 0.930 . S
H590 C603 0.930 . S
H591 C607 0.959 . S
H592 C607 0.959 . S
H593 C607 0.961 . S
H594 C608 0.960 . S
H595 C608 0.961 . S
H596 C608 0.959 . S
H597 C611 0.929 . S
H598 C612 0.931 . S
H599 C614 0.930 . S
C600 H588 0.930 . S
C600 C601 1.399 . S
C600 C605 1.399 . S
C601 C600 1.399 . S
C601 C602 1.376 . S
C602 H589 0.930 . S
C602 C601 1.376 . S
C602 C603 1.388 . S
C603 H590 0.930 . S
C603 C602 1.388 . S
C603 C604 1.390 . S
C604 C603 1.390 . S
C604 C605 1.394 . S
C604 C610 1.465 . S
C605 C600 1.399 . S
C605 C604 1.394 . S
C605 C606 1.516 . S
C606 C605 1.516 . S
C606 C607 1.502 1_655 S
C606 C608 1.561 . S
C606 C609 1.526 1_655 S
C607 H591 0.959 . S
C607 H592 0.959 . S
C607 H593 0.961 . S
C607 C606 1.502 1_455 S
C608 H594 0.960 . S
C608 H595 0.961 . S
C608 H596 0.959 . S
C608 C606 1.561 . S
C609 C606 1.526 1_455 S
C609 C610 1.396 1_455 S
C609 C614 1.390 . S
C610 C604 1.465 . S
C610 C609 1.396 1_655 S
C610 C611 1.399 . S
C611 H597 0.929 . S
C611 C610 1.399 . S
C611 C612 1.385 1_655 S
C612 H598 0.931 . S
C612 C611 1.385 1_455 S
C612 C613 1.389 . S
C613 C612 1.389 . S
C613 C614 1.387 . S
C614 H599 0.930 . S
C614 C609 1.390 . S
C614 C613 1.387 . S
H615 C627 0.930 . S
H616 C629 0.930 . S
H617 C630 0.930 . S
H618 C634 0.959 . S
H619 C634 0.959 . S
H620 C634 0.961 . S
H621 C635 0.960 . S
H622 C635 0.961 . S
H623 C635 0.959 . S
H624 C638 0.929 . S
H625 C639 0.922 1_566 S
H626 C641 0.930 . S
C627 H615 0.930 . S
C627 C628 1.399 1_545 S
C627 C632 1.399 . S
C628 C627 1.399 1_565 S
C628 C629 1.376 . S
C629 H616 0.930 . S
C629 C628 1.376 . S
C629 C630 1.388 . S
C630 H617 0.930 . S
C630 C629 1.388 . S
C630 C631 1.390 . S
C631 C630 1.390 . S
C631 C632 1.394 1_565 S
C631 C637 1.465 1_565 S
C632 C627 1.399 . S
C632 C631 1.394 1_545 S
C632 C633 1.516 . S
C633 C632 1.516 . S
C633 C634 1.502 . S
C633 C635 1.561 . S
C633 C636 1.526 . S
C634 H618 0.959 . S
C634 H619 0.959 . S
C634 H620 0.961 . S
C634 C633 1.502 . S
C635 H621 0.960 . S
C635 H622 0.961 . S
C635 H623 0.959 . S
C635 C633 1.561 . S
C636 C633 1.526 . S
C636 C637 1.396 . S
C636 C641 1.390 . S
C637 C631 1.465 1_545 S
C637 C636 1.396 . S
C637 C638 1.399 1_545 S
C638 H624 0.929 . S
C638 C637 1.399 1_565 S
C638 C639 1.385 1_565 S
C639 H625 0.922 1_544 S
C639 C638 1.385 1_545 S
C639 C640 1.389 . S
C640 C639 1.389 . S
C640 C641 1.387 . S
C641 H626 0.930 . S
C641 C636 1.390 . S
C641 C640 1.387 . S
H642 C654 0.930 . S
H643 C656 0.930 . S
H644 C657 0.930 . S
H645 C661 0.959 . S
H646 C661 0.959 . S
H647 C661 0.961 . S
H648 C662 0.960 . S
H649 C662 0.961 . S
H650 C662 0.959 . S
H651 C665 0.929 . S
H652 C666 0.931 1_556 S
H653 C668 0.930 . S
C654 H642 0.930 . S
C654 C655 1.399 . S
C654 C659 1.399 . S
C655 C654 1.399 . S
C655 C656 1.376 . S
C656 H643 0.930 . S
C656 C655 1.376 . S
C656 C657 1.388 . S
C657 H644 0.930 . S
C657 C656 1.388 . S
C657 C658 1.390 . S
C658 C657 1.390 . S
C658 C659 1.394 . S
C658 C664 1.465 . S
C659 C654 1.399 . S
C659 C658 1.394 . S
C659 C660 1.516 . S
C660 C659 1.516 . S
C660 C661 1.502 . S
C660 C662 1.561 . S
C660 C663 1.526 . S
C661 H645 0.959 . S
C661 H646 0.959 . S
C661 H647 0.961 . S
C661 C660 1.502 . S
C662 H648 0.960 . S
C662 H649 0.961 . S
C662 H650 0.959 . S
C662 C660 1.561 . S
C663 C660 1.526 . S
C663 C664 1.396 . S
C663 C668 1.390 . S
C664 C658 1.465 . S
C664 C663 1.396 . S
C664 C665 1.399 . S
C665 H651 0.929 . S
C665 C664 1.399 . S
C665 C666 1.385 . S
C666 H652 0.931 1_554 S
C666 C665 1.385 . S
C666 C667 1.389 . S
C667 C666 1.389 . S
C667 C668 1.387 . S
C668 H653 0.930 . S
C668 C663 1.390 . S
C668 C667 1.387 . S
H669 C681 0.930 . S
H670 C683 0.930 . S
H671 C684 0.930 . S
H672 C688 0.959 . S
H673 C688 0.959 . S
H674 C688 0.961 . S
H675 C689 0.960 . S
H676 C689 0.961 . S
H677 C689 0.959 . S
H678 C692 0.929 . S
H679 C693 0.931 . S
H680 C695 0.930 . S
C681 H669 0.930 . S
C681 C682 1.399 . S
C681 C686 1.399 . S
C682 C681 1.399 . S
C682 C683 1.376 . S
C683 H670 0.930 . S
C683 C682 1.376 . S
C683 C684 1.388 . S
C684 H671 0.930 . S
C684 C683 1.388 . S
C684 C685 1.390 . S
C685 C684 1.390 . S
C685 C686 1.394 . S
C685 C691 1.465 . S
C686 C681 1.399 . S
C686 C685 1.394 . S
C686 C687 1.516 . S
C687 C686 1.516 . S
C687 C688 1.502 . S
C687 C689 1.561 . S
C687 C690 1.526 . S
C688 H672 0.959 . S
C688 H673 0.959 . S
C688 H674 0.961 . S
C688 C687 1.502 . S
C689 H675 0.960 . S
C689 H676 0.961 . S
C689 H677 0.959 . S
C689 C687 1.561 . S
C690 C687 1.526 . S
C690 C691 1.396 . S
C690 C695 1.390 . S
C691 C685 1.465 . S
C691 C690 1.396 . S
C691 C692 1.399 . S
C692 H678 0.929 . S
C692 C691 1.399 . S
C692 C693 1.385 . S
C693 H679 0.931 . S
C693 C692 1.385 . S
C693 C694 1.389 . S
C694 C693 1.389 . S
C694 C695 1.387 . S
C695 H680 0.930 . S
C695 C690 1.390 . S
C695 C694 1.387 . S
H696 C708 0.930 1_554 S
H697 C710 0.930 . S
H698 C711 0.930 . S
H699 C715 0.959 1_556 S
H700 C715 0.959 . S
H701 C715 0.961 . S
H702 C716 0.960 . S
H703 C716 0.961 . S
H704 C716 0.959 . S
H705 C719 0.929 . S
H706 C720 0.931 . S
H707 C722 0.930 . S
C708 H696 0.930 1_556 S
C708 C709 1.399 . S
C708 C713 1.399 . S
C709 C708 1.399 . S
C709 C710 1.376 . S
C710 H697 0.930 . S
C710 C709 1.376 . S
C710 C711 1.388 . S
C711 H698 0.930 . S
C711 C710 1.388 . S
C711 C712 1.390 . S
C712 C711 1.390 . S
C712 C713 1.394 . S
C712 C718 1.465 . S
C713 C708 1.399 . S
C713 C712 1.394 . S
C713 C714 1.516 1_556 S
C714 C713 1.516 1_554 S
C714 C715 1.502 . S
C714 C716 1.561 . S
C714 C717 1.526 1_554 S
C715 H699 0.959 1_554 S
C715 H700 0.959 . S
C715 H701 0.961 . S
C715 C714 1.502 . S
C716 H702 0.960 . S
C716 H703 0.961 . S
C716 H704 0.959 . S
C716 C714 1.561 . S
C717 C714 1.526 1_556 S
C717 C718 1.396 . S
C717 C722 1.390 . S
C718 C712 1.465 . S
C718 C717 1.396 . S
C718 C719 1.399 . S
C719 H705 0.929 . S
C719 C718 1.399 . S
C719 C720 1.385 . S
C720 H706 0.931 . S
C720 C719 1.385 . S
C720 C721 1.389 . S
C721 C720 1.389 . S
C721 C722 1.387 . S
C722 H707 0.930 . S
C722 C717 1.390 . S
C722 C721 1.387 . S
H723 C735 0.930 . S
H724 C737 0.930 1_565 S
H725 C738 0.930 1_565 S
H726 C742 0.959 . S
H727 C742 0.959 . S
H728 C742 0.961 . S
H729 C743 0.960 . S
H730 C743 0.961 . S
H731 C743 0.959 . S
H732 C746 0.918 1_565 S
H733 C747 0.931 1_565 S
H734 C749 0.930 . S
C735 H723 0.930 . S
C735 C736 1.399 . S
C735 C740 1.399 . S
C736 C735 1.399 . S
C736 C737 1.376 . S
C737 H724 0.930 1_545 S
C737 C736 1.376 . S
C737 C738 1.388 . S
C738 H725 0.930 1_545 S
C738 C737 1.388 . S
C738 C739 1.390 . S
C739 C738 1.390 . S
C739 C740 1.394 . S
C739 C745 1.465 . S
C740 C735 1.399 . S
C740 C739 1.394 . S
C740 C741 1.516 . S
C741 C740 1.516 . S
C741 C742 1.502 . S
C741 C743 1.561 . S
C741 C744 1.526 . S
C742 H726 0.959 . S
C742 H727 0.959 . S
C742 H728 0.961 . S
C742 C741 1.502 . S
C743 H729 0.960 . S
C743 H730 0.961 . S
C743 H731 0.959 . S
C743 C741 1.561 . S
C744 C741 1.526 . S
C744 C745 1.396 . S
C744 C749 1.390 . S
C745 C739 1.465 . S
C745 C744 1.396 . S
C745 C746 1.409 . S
C746 H732 0.918 1_545 S
C746 C745 1.409 . S
C746 C747 1.387 . S
C747 H733 0.931 1_545 S
C747 C746 1.387 . S
C747 C748 1.389 . S
C748 C747 1.389 . S
C748 C749 1.387 . S
C749 H734 0.930 . S
C749 C744 1.390 . S
C749 C748 1.387 . S
H750 C762 0.930 . S
H751 C764 0.930 . S
H752 C765 0.930 . S
H753 C769 0.959 . S
H754 C769 0.959 . S
H755 C769 0.961 . S
H756 C770 0.960 . S
H757 C770 0.961 . S
H758 C770 0.959 1_556 S
H759 C773 0.929 . S
H760 C774 0.931 . S
H761 C776 0.930 . S
C762 H750 0.930 . S
C762 C763 1.399 1_554 S
C762 C767 1.399 1_554 S
C763 C762 1.399 1_556 S
C763 C764 1.376 . S
C764 H751 0.930 . S
C764 C763 1.376 . S
C764 C765 1.388 . S
C765 H752 0.930 . S
C765 C764 1.388 . S
C765 C766 1.390 . S
C766 C765 1.390 . S
C766 C767 1.394 . S
C766 C772 1.465 . S
C767 C762 1.399 1_556 S
C767 C766 1.394 . S
C767 C768 1.516 . S
C768 C767 1.516 . S
C768 C769 1.502 1_556 S
C768 C770 1.561 1_556 S
C768 C771 1.526 . S
C769 H753 0.959 . S
C769 H754 0.959 . S
C769 H755 0.961 . S
C769 C768 1.502 1_554 S
C770 H756 0.960 . S
C770 H757 0.961 . S
C770 H758 0.959 1_554 S
C770 C768 1.561 1_554 S
C771 C768 1.526 . S
C771 C772 1.396 . S
C771 C776 1.390 . S
C772 C766 1.465 . S
C772 C771 1.396 . S
C772 C773 1.399 . S
C773 H759 0.929 . S
C773 C772 1.399 . S
C773 C774 1.385 . S
C774 H760 0.931 . S
C774 C773 1.385 . S
C774 C775 1.389 . S
C775 C774 1.389 . S
C775 C776 1.387 . S
C776 H761 0.930 . S
C776 C771 1.390 . S
C776 C775 1.387 . S
H777 C789 0.930 . S
H778 C791 0.930 . S
H779 C792 0.930 . S
H780 C796 0.959 . S
H781 C796 0.959 . S
H782 C796 0.961 . S
H783 C797 0.960 . S
H784 C797 0.961 . S
H785 C797 0.959 . S
H786 C800 0.929 1_554 S
H787 C801 0.931 . S
H788 C803 0.930 . S
C789 H777 0.930 . S
C789 C790 1.399 . S
C789 C794 1.399 . S
C790 C789 1.399 . S
C790 C791 1.376 1_556 S
C791 H778 0.930 . S
C791 C790 1.376 1_554 S
C791 C792 1.388 . S
C792 H779 0.930 . S
C792 C791 1.388 . S
C792 C793 1.390 1_554 S
C793 C792 1.390 1_556 S
C793 C794 1.394 . S
C793 C799 1.465 . S
C794 C789 1.399 . S
C794 C793 1.394 . S
C794 C795 1.516 . S
C795 C794 1.516 . S
C795 C796 1.502 . S
C795 C797 1.561 . S
C795 C798 1.526 . S
C796 H780 0.959 . S
C796 H781 0.959 . S
C796 H782 0.961 . S
C796 C795 1.502 . S
C797 H783 0.960 . S
C797 H784 0.961 . S
C797 H785 0.959 . S
C797 C795 1.561 . S
C798 C795 1.526 . S
C798 C799 1.396 . S
C798 C803 1.390 . S
C799 C793 1.465 . S
C799 C798 1.396 . S
C799 C800 1.399 . S
C800 H786 0.929 1_556 S
C800 C799 1.399 . S
C800 C801 1.385 . S
C801 H787 0.931 . S
C801 C800 1.385 . S
C801 C802 1.389 . S
C802 C801 1.389 . S
C802 C803 1.387 . S
C803 H788 0.930 . S
C803 C798 1.390 . S
C803 C802 1.387 . S
H804 C816 0.938 . S
H805 C818 0.930 . S
H806 C819 0.930 . S
H807 C823 0.959 . S
H808 C823 0.959 . S
H809 C823 0.961 . S
H810 C824 0.960 . S
H811 C824 0.961 . S
H812 C824 0.959 . S
H813 C827 0.929 . S
H814 C828 0.931 . S
H815 C830 0.923 1_455 S
C816 H804 0.938 . S
C816 C817 1.399 . S
C816 C821 1.399 . S
C817 C816 1.399 . S
C817 C818 1.376 . S
C818 H805 0.930 . S
C818 C817 1.376 . S
C818 C819 1.388 . S
C819 H806 0.930 . S
C819 C818 1.388 . S
C819 C820 1.390 . S
C820 C819 1.390 . S
C820 C821 1.394 . S
C820 C826 1.465 . S
C821 C816 1.399 . S
C821 C820 1.394 . S
C821 C822 1.501 1_655 S
C822 C821 1.501 1_455 S
C822 C823 1.535 . S
C822 C824 1.550 1_455 S
C822 C825 1.515 1_455 S
C823 H807 0.959 . S
C823 H808 0.959 . S
C823 H809 0.961 . S
C823 C822 1.535 . S
C824 H810 0.960 . S
C824 H811 0.961 . S
C824 H812 0.959 . S
C824 C822 1.550 1_655 S
C825 C822 1.515 1_655 S
C825 C826 1.396 . S
C825 C830 1.392 . S
C826 C820 1.465 . S
C826 C825 1.396 . S
C826 C827 1.399 . S
C827 H813 0.929 . S
C827 C826 1.399 . S
C827 C828 1.385 . S
C828 H814 0.931 . S
C828 C827 1.385 . S
C828 C829 1.389 . S
C829 C828 1.389 . S
C829 C830 1.391 . S
C830 H815 0.923 1_655 S
C830 C825 1.392 . S
C830 C829 1.391 . S
H831 C843 0.930 . S
H832 C845 0.930 . S
H833 C846 0.930 . S
H834 C850 0.959 . S
H835 C850 0.959 . S
H836 C850 0.961 . S
H837 C851 0.960 . S
H838 C851 0.961 . S
H839 C851 0.959 . S
H840 C854 0.929 . S
H841 C855 0.931 . S
H842 C857 0.930 . S
C843 H831 0.930 . S
C843 C844 1.399 . S
C843 C848 1.399 . S
C844 C843 1.399 . S
C844 C845 1.376 1_565 S
C845 H832 0.930 . S
C845 C844 1.376 1_545 S
C845 C846 1.388 . S
C846 H833 0.930 . S
C846 C845 1.388 . S
C846 C847 1.390 1_545 S
C847 C846 1.390 1_565 S
C847 C848 1.394 . S
C847 C853 1.467 . S
C848 C843 1.399 . S
C848 C847 1.394 . S
C848 C849 1.516 . S
C849 C848 1.516 . S
C849 C850 1.502 . S
C849 C851 1.561 . S
C849 C852 1.526 . S
C850 H834 0.959 . S
C850 H835 0.959 . S
C850 H836 0.961 . S
C850 C849 1.502 . S
C851 H837 0.960 . S
C851 H838 0.961 . S
C851 H839 0.959 . S
C851 C849 1.561 . S
C852 C849 1.526 . S
C852 C853 1.418 . S
C852 C857 1.390 . S
C853 C847 1.467 . S
C853 C852 1.418 . S
C853 C854 1.380 1_565 S
C854 H840 0.929 . S
C854 C853 1.380 1_545 S
C854 C855 1.385 . S
C855 H841 0.931 . S
C855 C854 1.385 . S
C855 C856 1.389 1_545 S
C856 C855 1.389 1_565 S
C856 C857 1.387 . S
C857 H842 0.930 . S
C857 C852 1.390 . S
C857 C856 1.387 . S
H858 C870 0.930 . S
H859 C872 0.930 . S
H860 C873 0.930 . S
H861 C877 0.959 . S
H862 C877 0.959 . S
H863 C877 0.961 . S
H864 C878 0.960 . S
H865 C878 0.961 . S
H866 C878 0.959 . S
H867 C881 0.929 . S
H868 C882 0.931 . S
H869 C884 0.930 . S
C870 H858 0.930 . S
C870 C871 1.399 . S
C870 C875 1.399 . S
C871 C870 1.399 . S
C871 C872 1.376 . S
C872 H859 0.930 . S
C872 C871 1.376 . S
C872 C873 1.388 . S
C873 H860 0.930 . S
C873 C872 1.388 . S
C873 C874 1.390 . S
C874 C873 1.390 . S
C874 C875 1.394 . S
C874 C880 1.465 . S
C875 C870 1.399 . S
C875 C874 1.394 . S
C875 C876 1.516 . S
C876 C875 1.516 . S
C876 C877 1.502 . S
C876 C878 1.561 . S
C876 C879 1.526 . S
C877 H861 0.959 . S
C877 H862 0.959 . S
C877 H863 0.961 . S
C877 C876 1.502 . S
C878 H864 0.960 . S
C878 H865 0.961 . S
C878 H866 0.959 . S
C878 C876 1.561 . S
C879 C876 1.526 . S
C879 C880 1.396 . S
C879 C884 1.390 . S
C880 C874 1.465 . S
C880 C879 1.396 . S
C880 C881 1.399 . S
C881 H867 0.929 . S
C881 C880 1.399 . S
C881 C882 1.385 . S
C882 H868 0.931 . S
C882 C881 1.385 . S
C882 C883 1.389 . S
C883 C882 1.389 . S
C883 C884 1.387 . S
C884 H869 0.930 . S
C884 C879 1.390 . S
C884 C883 1.387 . S
H885 C897 0.930 . S
H886 C899 0.930 . S
H887 C900 0.930 . S
H888 C904 0.959 . S
H889 C904 0.959 . S
H890 C904 0.961 . S
H891 C905 0.960 . S
H892 C905 0.961 . S
H893 C905 0.959 . S
H894 C908 0.929 . S
H895 C909 0.931 . S
H896 C911 0.930 . S
C897 H885 0.930 . S
C897 C898 1.399 . S
C897 C902 1.399 . S
C898 C897 1.399 . S
C898 C899 1.376 . S
C899 H886 0.930 . S
C899 C898 1.376 . S
C899 C900 1.388 . S
C900 H887 0.930 . S
C900 C899 1.388 . S
C900 C901 1.390 . S
C901 C900 1.390 . S
C901 C902 1.394 . S
C901 C907 1.465 . S
C902 C897 1.399 . S
C902 C901 1.394 . S
C902 C903 1.516 . S
C903 C902 1.516 . S
C903 C904 1.502 . S
C903 C905 1.561 . S
C903 C906 1.526 . S
C904 H888 0.959 . S
C904 H889 0.959 . S
C904 H890 0.961 . S
C904 C903 1.502 . S
C905 H891 0.960 . S
C905 H892 0.961 . S
C905 H893 0.959 . S
C905 C903 1.561 . S
C906 C903 1.526 . S
C906 C907 1.396 . S
C906 C911 1.390 . S
C907 C901 1.465 . S
C907 C906 1.396 . S
C907 C908 1.399 . S
C908 H894 0.929 . S
C908 C907 1.399 . S
C908 C909 1.385 . S
C909 H895 0.931 . S
C909 C908 1.385 . S
C909 C910 1.389 . S
C910 C909 1.389 . S
C910 C911 1.387 . S
C911 H896 0.930 . S
C911 C906 1.390 . S
C911 C910 1.387 . S
C277 N80 2.209 . S
C289 C135 2.275 . S
C316 C161 1.883 . S
C304 N93 1.745 . S
C343 C201 1.947 . S
C331 N54 1.876 . S
C370 C255 2.342 . S
C358 N67 2.222 . S
C397 C116 2.298 1_565 S
C385 N28 2.147 . S
C412 N41 1.742 . S
C424 C146 1.886 . S
C439 N2 1.900 . S
C451 C186 1.966 . S
C466 N15 2.237 . S
C478 C236 2.336 1_655 S
C505 C112 0.442 . S
C493 N70 0.572 . S
C532 C173 0.543 . S
C520 N83 0.688 . S
C559 C213 0.484 . S
C547 N96 0.534 . S
C574 N57 0.451 . S
C586 C232 0.343 . S
C601 N18 0.534 . S
C613 C133 0.609 . S
C640 C152 0.599 . S
C628 N31 0.587 . S
C667 C192 0.581 . S
C655 N44 0.462 . S
C682 N5 0.438 . S
C694 C253 0.367 . S
C709 N66 2.009 1_556 S
C721 C106 2.102 . S
C736 N79 2.444 . S
C748 C156 2.545 . S
C775 C196 2.364 . S
C763 N92 2.319 1_556 S
C802 C226 1.893 . S
C790 N53 1.774 1_556 S
C817 N14 2.020 . S
C829 C121 2.095 . S
C856 C175 2.545 . S
C844 N27 2.469 . S
C883 C215 2.367 . S
C871 N40 2.290 . S
C898 N1 1.801 . S
C910 C241 1.882 . S
