# Generated by pormake.
# Topology rtl, (3,6)-cn, num edge types: 1
# Building blocks:
#     Node 0, Type 0, BuildingBlock: QEWDON_clean_linker_0, # of connection points: 3
#     Node 1, Type 0, BuildingBlock: QEWDON_clean_linker_0, # of connection points: 3
#     Node 2, Type 0, BuildingBlock: QEWDON_clean_linker_0, # of connection points: 3
#     Node 3, Type 0, BuildingBlock: QEWDON_clean_linker_0, # of connection points: 3
#     Node 4, Type 1, BuildingBlock: KUMBUR_clean_sbu_1, # of connection points: 6
#     Node 5, Type 1, BuildingBlock: KUMBUR_clean_sbu_1, # of connection points: 6
#     Edge 6, Type (0, 1), BuildingBlock: OJICUG_clean_linker_0, # of connection points: 2
#     Edge 7, Type (0, 1), BuildingBlock: OJICUG_clean_linker_0, # of connection points: 2
#     Edge 8, Type (0, 1), BuildingBlock: OJICUG_clean_linker_0, # of connection points: 2
#     Edge 9, Type (0, 1), BuildingBlock: OJICUG_clean_linker_0, # of connection points: 2
#     Edge 10, Type (0, 1), BuildingBlock: OJICUG_clean_linker_0, # of connection points: 2
#     Edge 11, Type (0, 1), BuildingBlock: OJICUG_clean_linker_0, # of connection points: 2
#     Edge 12, Type (0, 1), BuildingBlock: OJICUG_clean_linker_0, # of connection points: 2
#     Edge 13, Type (0, 1), BuildingBlock: OJICUG_clean_linker_0, # of connection points: 2
#     Edge 14, Type (0, 1), BuildingBlock: OJICUG_clean_linker_0, # of connection points: 2
#     Edge 15, Type (0, 1), BuildingBlock: OJICUG_clean_linker_0, # of connection points: 2
#     Edge 16, Type (0, 1), BuildingBlock: OJICUG_clean_linker_0, # of connection points: 2
#     Edge 17, Type (0, 1), BuildingBlock: OJICUG_clean_linker_0, # of connection points: 2
# Relax obj value: 0.086
# Max RMSD: 0.289
# Mean RMSD: 0.218
data_MOF--net-rtl--node1-KUMBUR_clean_sbu_1--node2-QEWDON_clean_linker_0--edge1-OJICUG_clean_linker_0
_symmetry_space_group_name_H-M    P1
_symmetry_Int_Tables_number       1
_symmetry_cell_setting            triclinic
loop_
_symmetry_equiv_pos_as_xyz
'x, y, z'
_cell_length_a     27.372319
_cell_length_b     27.621485
_cell_length_c     20.456412
_cell_angle_alpha  75.722493
_cell_angle_beta   100.11978
_cell_angle_gamma 92.046759
loop_
_atom_site_label
_atom_site_type_symbol
_atom_site_fract_x
_atom_site_fract_y
_atom_site_fract_z
_atom_type_partial_charge
H0 H 0.26368 0.87739 0.11892 0.0
C1 C 0.246 0.88504 0.06563 0.0
C2 C 0.19918 0.90865 0.04532 0.0
C3 C 0.27142 0.8739 0.01665 0.0
H4 H 0.14155 0.93812 0.95949 0.0
C5 C 0.17763 0.91985 0.97601 0.0
C6 C 0.2027 0.90985 0.92693 0.0
C7 C 0.24945 0.88644 0.94705 0.0
C8 C 0.32385 0.85695 0.03714 0.0
H9 H 0.2696 0.88035 0.90859 0.0
C10 C 0.33948 0.81048 0.03033 0.0
C11 C 0.38958 0.79512 0.05326 0.0
C12 C 0.35878 0.8883 0.06454 0.0
H13 H 0.34758 0.92425 0.06963 0.0
C14 C 0.40843 0.87392 0.08507 0.0
H15 H 0.31263 0.78581 0.00999 0.0
C16 C 0.42374 0.8277 0.07978 0.0
H17 H 0.46252 0.81721 0.09683 0.0
H18 H 0.43511 0.89851 0.10575 0.0
H19 H 0.76544 0.71908 0.60869 0.0
C20 C 0.74291 0.7075 0.64835 0.0
C21 C 0.69945 0.67965 0.63655 0.0
C22 C 0.75875 0.71792 0.71285 0.0
H23 H 0.63995 0.6394 0.68251 0.0
C24 C 0.6722 0.66271 0.68976 0.0
C25 C 0.68726 0.67289 0.75379 0.0
C26 C 0.73001 0.70122 0.76491 0.0
C27 C 0.8086 0.73934 0.72996 0.0
H28 H 0.74237 0.70795 0.81524 0.0
C29 C 0.824 0.78512 0.69067 0.0
C30 C 0.87109 0.80481 0.71092 0.0
C31 C 0.84129 0.71298 0.78767 0.0
H32 H 0.83069 0.6775 0.81809 0.0
C33 C 0.88814 0.73161 0.80649 0.0
H34 H 0.79896 0.80597 0.64642 0.0
C35 C 0.90294 0.7771 0.76868 0.0
H36 H 0.93966 0.79062 0.78462 0.0
H37 H 0.91306 0.71077 0.85081 0.0
H38 H 0.80565 0.19665 0.1979 0.0
C39 C 0.82562 0.18947 0.15991 0.0
C40 C 0.87172 0.16466 0.18084 0.0
C41 C 0.80416 0.20226 0.09003 0.0
H42 H 0.93237 0.13457 0.14936 0.0
C43 C 0.8967 0.15361 0.13229 0.0
C44 C 0.87597 0.16563 0.06268 0.0
C45 C 0.82981 0.19048 0.04166 0.0
C46 C 0.75251 0.22189 0.06786 0.0
H47 H 0.81292 0.19903 0.98802 0.0
C48 C 0.73782 0.26674 0.08077 0.0
C49 C 0.68894 0.28525 0.05522 0.0
C50 C 0.71748 0.19526 0.03172 0.0
H51 H 0.72772 0.16053 0.02185 0.0
C52 C 0.66896 0.21292 0.00815 0.0
H53 H 0.76456 0.28795 0.10792 0.0
C54 C 0.65483 0.25774 0.01932 0.0
H55 H 0.61711 0.27122 0.99951 0.0
H56 H 0.64232 0.19205 0.98043 0.0
H57 H 0.34828 0.32305 0.54404 0.0
C58 C 0.36553 0.34232 0.50111 0.0
C59 C 0.38592 0.39013 0.49973 0.0
C60 C 0.36982 0.31823 0.44917 0.0
H61 H 0.42434 0.45149 0.44224 0.0
C62 C 0.40913 0.41445 0.44434 0.0
C63 C 0.41298 0.39123 0.39164 0.0
C64 C 0.39355 0.34324 0.3946 0.0
C65 C 0.35271 0.26584 0.45313 0.0
H66 H 0.39657 0.32551 0.35369 0.0
C67 C 0.30555 0.24954 0.46893 0.0
C68 C 0.28963 0.20049 0.46749 0.0
C69 C 0.38401 0.23182 0.43894 0.0
H70 H 0.4207 0.24279 0.42803 0.0
C71 C 0.36862 0.18326 0.43879 0.0
H72 H 0.28077 0.27522 0.47961 0.0
C73 C 0.32172 0.16777 0.45241 0.0
H74 H 0.31049 0.12987 0.45155 0.0
H75 H 0.39309 0.15756 0.42764 0.0
Tb76 Tb 0.06481 0.9881 0.51357 0.0
C77 C 0.9685 0.19204 0.49784 0.0
N78 N 1.01277 0.17363 0.53574 0.0
C79 C 0.05033 0.2536 0.5016 0.0
C80 C 0.96371 0.24194 0.45891 0.0
C81 C 0.05335 0.20372 0.53896 0.0
C82 C 1.00538 0.27276 0.46114 0.0
C83 C 0.88218 0.17725 0.45571 0.0
C84 C 0.92834 0.15997 0.49611 0.0
C85 C 0.87719 0.22696 0.41679 0.0
C86 C 0.91784 0.25922 0.41841 0.0
Tb87 Tb 1.01347 0.09164 0.59349 0.0
N88 N 0.93505 0.1115 0.53246 0.0
C89 C 0.84244 0.14402 0.45551 0.0
C90 C 0.89544 0.07998 0.53573 0.0
C91 C 0.84897 0.0954 0.49642 0.0
H92 H 0.08786 0.18965 0.5714 0.0
H93 H 0.81799 0.06992 0.49845 0.0
H94 H 0.99392 0.88775 0.53266 0.0
H95 H 0.26108 1.01134 0.60237 0.0
H96 H 0.89854 0.04337 0.56968 0.0
H97 H 0.80639 0.15579 0.42507 0.0
H98 H 0.18042 0.03503 0.52951 0.0
H99 H 0.08263 0.27727 0.50421 0.0
H100 H 0.84208 0.24079 0.38518 0.0
H101 H 0.91347 0.29741 0.38792 0.0
H102 H 0.99928 0.80104 0.60364 0.0
H103 H 1.00323 0.31136 0.43199 0.0
H104 H 0.27292 0.92766 0.68219 0.0
N105 N 0.06735 0.90593 0.57184 0.0
C106 C 0.11143 0.8886 0.61138 0.0
C107 C 1.03101 0.8254 0.6068 0.0
C108 C 0.11663 0.8392 0.65202 0.0
C109 C 1.02772 0.8748 0.56758 0.0
C110 C 0.07555 0.80761 0.64967 0.0
N111 N 0.14384 0.96902 0.57371 0.0
C112 C 0.18352 1.00012 0.56711 0.0
C113 C 0.19724 0.90507 0.65349 0.0
C114 C 0.151 0.92124 0.61242 0.0
C115 C 0.23678 0.93856 0.65143 0.0
C116 C 0.23011 0.98596 0.60697 0.0
H117 H 0.07797 0.76939 0.68018 0.0
H118 H 0.16702 0.78545 0.72595 0.0
H119 H 0.23769 0.8431 0.72704 0.0
O120 O 0.10577 0.99868 0.43342 0.0
O121 O 0.06989 0.97363 0.62471 0.0
O122 O 0.08044 0.04986 0.65186 0.0
O123 O 0.05305 0.93931 0.44799 0.0
O124 O 0.09413 0.06509 0.49098 0.0
O125 O 0.09213 0.09776 0.58469 0.0
O126 O 0.97126 0.08206 0.67213 0.0
O127 O 1.00794 0.10543 0.48214 0.0
O128 O 0.99703 0.02877 0.4565 0.0
O129 O 1.02535 0.14028 0.65933 0.0
O130 O 0.98408 1.01515 0.61716 0.0
O131 O 0.98634 0.98072 0.52502 0.0
C132 C 0.08891 1.00149 0.66594 0.0
C133 C 0.06747 0.97318 0.33562 0.0
C134 C 0.0834 0.96933 0.22334 0.0
C135 C 0.03853 0.9954 0.19311 0.0
C136 C 1.02298 0.99912 0.3047 0.0
C137 C 1.00862 1.01013 0.23366 0.0
C138 C 0.09747 0.95832 0.29495 0.0
C139 C 0.1105 0.09623 0.52978 0.0
C140 C 0.08414 0.96226 0.40993 0.0
C141 C 0.16235 0.82318 0.69399 0.0
C142 C 0.20256 0.85604 0.69472 0.0
C143 C 0.98832 0.07711 0.44175 0.0
C144 C 1.00977 0.10576 0.77115 0.0
C145 C 0.99293 0.10738 0.88389 0.0
C146 C 0.03758 0.08088 0.91394 0.0
C147 C 0.05407 0.07939 0.80197 0.0
C148 C 0.97941 0.11969 0.81212 0.0
C149 C 0.06784 0.06703 0.87312 0.0
C150 C 0.96922 0.98198 0.58107 0.0
C151 C 0.99359 0.11775 0.69663 0.0
H152 H 1.02631 1.00402 0.13817 0.0
H153 H 0.99951 1.01084 0.33537 0.0
H154 H 0.97422 0.03017 0.20995 0.0
H155 H 0.13226 0.93903 0.31913 0.0
H156 H 0.0494 0.07127 0.96898 0.0
H157 H 0.07786 0.06833 0.77116 0.0
H158 H 0.94476 0.13927 0.78803 0.0
H159 H 0.10207 0.04665 0.89672 0.0
Tb160 Tb 0.48213 0.51093 0.99668 0.0
C161 C 0.69132 0.58651 0.06419 0.0
N162 N 0.66945 0.54631 0.10051 0.0
C163 C 0.74153 0.49634 0.10928 0.0
C164 C 0.73807 0.58263 0.04584 0.0
C165 C 0.69558 0.50253 0.12734 0.0
C166 C 0.76241 0.5363 0.06704 0.0
C167 C 0.69144 0.67618 0.01784 0.0
C168 C 0.66849 0.63253 0.0502 0.0
C169 C 0.7367 0.67227 0.99603 0.0
C170 C 0.7599 0.62551 0.00977 0.0
Tb171 Tb 0.59254 0.5606 0.12298 0.0
N172 N 0.62417 0.63457 0.07034 0.0
C173 C 0.66841 0.72233 0.00931 0.0
C174 C 0.60282 0.67956 0.06568 0.0
C175 C 0.62424 0.72406 0.03423 0.0
H176 H 0.68165 0.47238 0.16371 0.0
H177 H 0.60669 0.75959 0.02919 0.0
H178 H 0.3822 0.56589 0.01409 0.0
H179 H 0.52425 0.31441 0.03432 0.0
H180 H 0.56883 0.68089 0.08524 0.0
H181 H 0.68483 0.75679 0.98473 0.0
H182 H 0.52972 0.40427 0.98186 0.0
H183 H 0.76127 0.46107 0.12913 0.0
H184 H 0.75456 0.70524 0.96991 0.0
H185 H 0.7955 0.62318 0.99442 0.0
H186 H 0.30905 0.54231 0.07102 0.0
H187 H 0.79837 0.53166 0.05402 0.0
H188 H 0.46217 0.28382 0.10931 0.0
N189 N 0.41244 0.49232 0.04461 0.0
C190 C 0.40553 0.44353 0.07437 0.0
C191 C 0.33615 0.51423 0.0728 0.0
C192 C 0.36481 0.42832 0.10785 0.0
C193 C 0.3775 0.5275 0.0407 0.0
C194 C 0.33015 0.46454 0.10742 0.0
N195 N 0.47661 0.42562 0.03446 0.0
C196 C 0.50472 0.39196 0.01786 0.0
C197 C 0.43328 0.35779 0.09904 0.0
C198 C 0.43947 0.40906 0.07037 0.0
C199 C 0.46558 0.32357 0.08816 0.0
C200 C 0.50076 0.3407 0.04607 0.0
H201 H 0.29824 0.45441 0.13252 0.0
H202 H 0.32911 0.36509 0.16646 0.0
H203 H 0.38901 0.30317 0.15844 0.0
O204 O 0.44883 0.47788 0.91636 0.0
O205 O 0.47547 0.51111 0.10247 0.0
O206 O 0.55313 0.49279 0.166 0.0
O207 O 0.44113 0.55742 0.90782 0.0
O208 O 0.55795 0.48139 0.00929 0.0
O209 O 0.59471 0.48129 0.12012 0.0
O210 O 0.57771 0.59431 0.19878 0.0
O211 O 0.57177 0.59917 0.0142 0.0
O212 O 0.55023 0.53775 0.95771 0.0
O213 O 0.64824 0.55952 0.2089 0.0
O214 O 0.51873 0.59435 0.1084 0.0
O215 O 0.47439 0.58946 1.00161 0.0
C216 C 0.50462 0.48876 0.15926 0.0
C217 C 0.39976 0.52686 0.81026 0.0
C218 C 0.37331 0.50013 0.70379 0.0
C219 C 0.33809 0.53913 0.68199 0.0
C220 C 0.36472 0.5659 0.78662 0.0
C221 C 0.33407 0.57183 0.72301 0.0
C222 C 0.40424 0.49411 0.76832 0.0
C223 C 0.59026 0.46321 0.06543 0.0
C224 C 0.4305 0.52044 0.87902 0.0
C225 C 0.35981 0.37758 0.13966 0.0
C226 C 0.39403 0.34235 0.13529 0.0
C227 C 0.5733 0.57955 0.96253 0.0
C228 C 0.62017 0.56306 0.31025 0.0
C229 C 0.63517 0.5771 0.42478 0.0
C230 C 0.61195 0.53161 0.44883 0.0
C231 C 0.59755 0.5174 0.33478 0.0
C232 C 0.6395 0.59251 0.3555 0.0
C233 C 0.59362 0.50171 0.40401 0.0
C234 C 0.48407 0.61068 0.05401 0.0
C235 C 0.62072 0.58275 0.23711 0.0
H236 H 0.31419 0.54487 0.63249 0.0
H237 H 0.36056 0.59153 0.81777 0.0
H238 H 0.30704 0.60195 0.7054 0.0
H239 H 0.43139 0.46403 0.78582 0.0
H240 H 0.60796 0.51936 0.50216 0.0
H241 H 0.58235 0.49443 0.30034 0.0
H242 H 0.65639 0.62816 0.33645 0.0
H243 H 0.57573 0.46669 0.42276 0.0
C244 C 0.22497 0.17849 0.5435 0.0
C245 C 0.23956 0.18221 0.47996 0.0
H246 H 0.17295 0.14771 0.6098 0.0
C247 C 0.20892 0.16175 0.43107 0.0
H248 H 0.24827 0.19346 0.58232 0.0
C249 C 0.16588 0.136 0.44635 0.0
C250 C 0.15256 0.12954 0.51128 0.0
H251 H 0.21934 0.16413 0.38166 0.0
H252 H 0.14401 0.11957 0.40793 0.0
C253 C 0.18194 0.15217 0.55917 0.0
C254 C 0.43574 0.71612 0.11383 0.0
C255 C 0.40722 0.74466 0.05375 0.0
H256 H 0.48148 0.65197 0.16117 0.0
C257 C 0.40021 0.72655 0.99425 0.0
H258 H 0.4412 0.7287 0.16074 0.0
C259 C 0.42376 0.68206 0.9942 0.0
C260 C 0.45455 0.65501 0.05373 0.0
H261 H 0.37844 0.74788 0.94718 0.0
H262 H 0.41924 0.66985 0.94709 0.0
C263 C 0.45898 0.67204 0.11388 0.0
C264 C 0.91157 0.88717 0.71247 0.0
C265 C 0.88813 0.85433 0.67428 0.0
H266 H 0.95524 0.95258 0.71331 0.0
C267 C 0.88612 0.86717 0.60291 0.0
H268 H 0.9129 0.87892 0.76736 0.0
C269 C 0.91019 0.91021 0.57136 0.0
C270 C 0.93706 0.94074 0.61078 0.0
H271 H 0.86816 0.84273 0.57208 0.0
H272 H 0.90945 0.91848 0.51662 0.0
C273 C 0.93568 0.92968 0.68126 0.0
C274 C 0.66457 0.3415 0.1242 0.0
C275 C 0.67267 0.33435 0.06127 0.0
H276 H 0.63154 0.38809 0.17507 0.0
C277 C 0.65774 0.37185 1.0014 0.0
H278 H 0.67518 0.31273 0.1709 0.0
C279 C 0.6331 0.41464 0.00366 0.0
C280 C 0.62225 0.42075 0.06579 0.0
H281 H 0.66338 0.36703 0.95225 0.0
H282 H 0.62087 0.44214 0.95617 0.0
C283 C 0.63947 0.38444 0.12646 0.0
C284 C 0.15131 0.97278 0.07609 0.0
C285 C 0.17334 0.92499 0.09438 0.0
H286 H 0.10625 1.02424 0.10238 0.0
C287 C 0.16783 0.89263 0.15733 0.0
H288 H 0.15576 0.99903 0.02854 0.0
C289 C 0.13917 0.90714 0.19981 0.0
C290 C 0.11566 0.95433 0.18015 0.0
H291 H 0.18418 0.85554 0.17256 0.0
H292 H 0.13423 0.88084 0.24706 0.0
C293 C 0.12277 0.98721 0.1183 0.0
C294 C 0.63745 0.6787 0.84351 0.0
C295 C 0.66022 0.6495 0.81002 0.0
H296 H 0.58988 0.67934 0.91621 0.0
C297 C 0.65423 0.59742 0.82699 0.0
H298 H 0.64107 0.71897 0.83056 0.0
C299 C 0.6258 0.57483 0.87638 0.0
C300 C 0.60265 0.60391 0.90962 0.0
H301 H 0.6715 0.57418 0.8017 0.0
H302 H 0.6222 0.53456 0.88885 0.0
C303 C 0.60832 0.65606 0.89236 0.0
C304 C 0.88759 0.09531 0.28525 0.0
C305 C 0.89369 0.14577 0.25335 0.0
H306 H 0.91299 0.03382 0.37025 0.0
C307 C 0.92945 0.17411 0.28493 0.0
H308 H 0.86101 0.07258 0.26052 0.0
C309 C 0.95982 0.15184 0.34673 0.0
C310 C 0.95492 0.10085 0.37774 0.0
H311 H 0.93562 0.2127 0.26001 0.0
H312 H 0.98835 0.1741 0.36889 0.0
C313 C 0.91788 0.07302 0.34713 0.0
C314 C 0.33837 0.41849 0.57832 0.0
C315 C 0.38356 0.41472 0.55625 0.0
H316 H 0.2998 0.44857 0.64233 0.0
C317 C 0.42622 0.43605 0.58703 0.0
H318 H 0.30491 0.40254 0.55548 0.0
C319 C 0.42348 0.46164 0.63759 0.0
C320 C 0.37785 0.46719 0.65749 0.0
H321 H 0.46166 0.43333 0.57146 0.0
H322 H 0.45663 0.47879 0.65914 0.0
C323 C 0.33546 0.44486 0.62789 0.0
C324 C 0.63353 0.66001 0.54544 0.0
C325 C 0.68429 0.66252 0.57252 0.0
H326 H 0.57839 0.62993 0.47832 0.0
C327 C 0.7192 0.64126 0.54463 0.0
H328 H 0.60574 0.67672 0.56497 0.0
C329 C 0.70335 0.61514 0.49412 0.0
C330 C 0.65249 0.60955 0.47146 0.0
H331 H 0.75847 0.64212 0.56472 0.0
H332 H 0.73063 0.59723 0.47524 0.0
C333 C 0.61778 0.63326 0.49604 0.0
C334 C 0.90825 0.18286 0.95128 0.0
C335 C 0.9023 0.14986 0.0136 0.0
H336 H 0.94236 0.19575 0.86192 0.0
C337 C 0.92425 0.10206 0.03109 0.0
H338 H 0.89206 0.22001 0.93668 0.0
C339 C 0.95299 0.08819 0.98863 0.0
C340 C 0.96044 0.12169 0.92736 0.0
H341 H 0.91952 0.07534 0.07813 0.0
H342 H 0.9694 0.05113 0.00389 0.0
C343 C 0.93711 0.16894 0.9086 0.0
C344 C 0.48076 0.39699 0.32187 0.0
C345 C 0.43736 0.41692 0.33326 0.0
H346 H 0.53673 0.40482 0.25827 0.0
C347 C 0.41664 0.46084 0.28763 0.0
H348 H 0.49732 0.36307 0.35639 0.0
C349 C 0.43853 0.48407 0.23102 0.0
C350 C 0.4821 0.46436 0.21973 0.0
H351 H 0.38304 0.4767 0.29516 0.0
H352 H 0.42155 0.51771 0.1963 0.0
C353 C 0.5033 0.42087 0.26604 0.0
C354 C 0.18925 0.97955 0.82287 0.0
C355 C 0.18077 0.92958 0.85469 0.0
H356 H 0.16628 0.04187 0.73782 0.0
C357 C 0.14319 0.90293 0.82329 0.0
H358 H 0.21728 1.00101 0.84754 0.0
C359 C 0.11361 0.92635 0.76147 0.0
C360 C 0.121 0.97687 0.73047 0.0
H361 H 0.13526 0.8648 0.8482 0.0
H362 H 0.08386 0.9054 0.73911 0.0
C363 C 0.15956 1.00308 0.76108 0.0
loop_
_geom_bond_atom_site_label_1
_geom_bond_atom_site_label_2
_geom_bond_distance
_geom_bond_site_symmetry_2
_ccdc_geom_bond_type
H0 C1 0.949 . S
C1 H0 0.949 . S
C1 C2 1.395 . S
C1 C3 1.391 . S
C2 C1 1.395 . S
C2 C5 1.390 . S
C3 C1 1.391 . S
C3 C7 1.387 1_554 S
C3 C8 1.491 . S
H4 C5 0.950 . S
C5 C2 1.390 . S
C5 H4 0.950 . S
C5 C6 1.378 1_554 S
C6 C5 1.378 1_556 S
C6 C7 1.409 . S
C7 C3 1.387 1_556 S
C7 C6 1.409 . S
C7 H9 0.951 . S
C8 C3 1.491 . S
C8 C10 1.382 . S
C8 C12 1.404 1_554 S
H9 C7 0.951 . S
C10 C8 1.382 . S
C10 C11 1.390 . S
C10 H15 0.949 . S
C11 C10 1.390 . S
C11 C16 1.399 . S
C12 C8 1.404 1_556 S
C12 H13 0.950 . S
C12 C14 1.375 . S
H13 C12 0.950 . S
C14 C12 1.375 . S
C14 C16 1.382 1_556 S
C14 H18 0.950 . S
H15 C10 0.949 . S
C16 C11 1.399 . S
C16 C14 1.382 1_554 S
C16 H17 0.952 . S
H17 C16 0.952 . S
H18 C14 0.950 . S
H19 C20 0.949 . S
C20 H19 0.949 . S
C20 C21 1.395 . S
C20 C22 1.391 . S
C21 C20 1.395 . S
C21 C24 1.390 . S
C22 C20 1.391 . S
C22 C26 1.387 . S
C22 C27 1.491 . S
H23 C24 0.950 . S
C24 C21 1.390 . S
C24 H23 0.950 . S
C24 C25 1.378 . S
C25 C24 1.378 . S
C25 C26 1.409 . S
C26 C22 1.387 . S
C26 C25 1.409 . S
C26 H28 0.951 . S
C27 C22 1.491 . S
C27 C29 1.382 . S
C27 C31 1.404 . S
H28 C26 0.951 . S
C29 C27 1.382 . S
C29 C30 1.390 . S
C29 H34 0.949 . S
C30 C29 1.390 . S
C30 C35 1.399 . S
C31 C27 1.404 . S
C31 H32 0.950 . S
C31 C33 1.375 . S
H32 C31 0.950 . S
C33 C31 1.375 . S
C33 C35 1.382 . S
C33 H37 0.950 . S
H34 C29 0.949 . S
C35 C30 1.399 . S
C35 C33 1.382 . S
C35 H36 0.952 . S
H36 C35 0.952 . S
H37 C33 0.950 . S
H38 C39 0.949 . S
C39 H38 0.949 . S
C39 C40 1.395 . S
C39 C41 1.391 . S
C40 C39 1.395 . S
C40 C43 1.390 . S
C41 C39 1.391 . S
C41 C45 1.387 . S
C41 C46 1.491 . S
H42 C43 0.950 . S
C43 C40 1.390 . S
C43 H42 0.950 . S
C43 C44 1.378 . S
C44 C43 1.378 . S
C44 C45 1.409 . S
C45 C41 1.387 . S
C45 C44 1.409 . S
C45 H47 0.951 1_554 S
C46 C41 1.491 . S
C46 C48 1.382 . S
C46 C50 1.404 1_554 S
H47 C45 0.951 1_556 S
C48 C46 1.382 . S
C48 C49 1.390 . S
C48 H53 0.949 . S
C49 C48 1.390 . S
C49 C54 1.399 . S
C50 C46 1.404 1_556 S
C50 H51 0.950 . S
C50 C52 1.375 . S
H51 C50 0.950 . S
C52 C50 1.375 . S
C52 C54 1.382 1_556 S
C52 H56 0.950 . S
H53 C48 0.949 . S
C54 C49 1.399 . S
C54 C52 1.382 1_554 S
C54 H55 0.952 1_554 S
H55 C54 0.952 1_556 S
H56 C52 0.950 . S
H57 C58 0.949 . S
C58 H57 0.949 . S
C58 C59 1.395 . S
C58 C60 1.391 . S
C59 C58 1.395 . S
C59 C62 1.390 . S
C60 C58 1.391 . S
C60 C64 1.387 . S
C60 C65 1.491 . S
H61 C62 0.950 . S
C62 C59 1.390 . S
C62 H61 0.950 . S
C62 C63 1.378 . S
C63 C62 1.378 . S
C63 C64 1.409 . S
C64 C60 1.387 . S
C64 C63 1.409 . S
C64 H66 0.951 . S
C65 C60 1.491 . S
C65 C67 1.382 . S
C65 C69 1.404 . S
H66 C64 0.951 . S
C67 C65 1.382 . S
C67 C68 1.390 . S
C67 H72 0.949 . S
C68 C67 1.390 . S
C68 C73 1.399 . S
C69 C65 1.404 . S
C69 H70 0.950 . S
C69 C71 1.375 . S
H70 C69 0.950 . S
C71 C69 1.375 . S
C71 C73 1.382 . S
C71 H75 0.950 . S
H72 C67 0.949 . S
C73 C68 1.399 . S
C73 C71 1.382 . S
C73 H74 0.952 . S
H74 C73 0.952 . S
H75 C71 0.950 . S
Tb76 N105 2.617 . S
Tb76 N111 2.572 . S
Tb76 O120 2.465 . S
Tb76 O121 2.387 . S
Tb76 O123 2.428 . S
Tb76 O124 2.308 1_565 S
Tb76 O128 2.349 1_465 S
Tb76 O131 2.393 1_455 S
Tb76 C140 2.802 . S
C77 N78 1.379 . S
C77 C80 1.416 . S
C77 C84 1.424 . S
N78 C77 1.379 . S
N78 C81 1.334 1_655 S
N78 Tb87 2.617 . S
C79 C81 1.390 . S
C79 C82 1.339 1_455 S
C79 H99 0.930 . S
C80 C77 1.416 . S
C80 C82 1.416 . S
C80 C86 1.448 . S
C81 N78 1.334 1_455 S
C81 C79 1.390 . S
C81 H92 0.930 . S
C82 C79 1.339 1_655 S
C82 C80 1.416 . S
C82 H103 0.930 . S
C83 C84 1.413 . S
C83 C85 1.427 . S
C83 C89 1.416 . S
C84 C77 1.424 . S
C84 C83 1.413 . S
C84 N88 1.361 . S
C85 C83 1.427 . S
C85 C86 1.328 . S
C85 H100 0.929 . S
C86 C80 1.448 . S
C86 C85 1.328 . S
C86 H101 0.930 . S
Tb87 N78 2.617 . S
Tb87 N88 2.572 . S
Tb87 O122 2.349 1_655 S
Tb87 O125 2.393 1_655 S
Tb87 O126 2.465 . S
Tb87 O127 2.387 . S
Tb87 O129 2.428 . S
Tb87 O130 2.308 1_545 S
Tb87 C151 2.802 . S
N88 C84 1.361 . S
N88 Tb87 2.572 . S
N88 C90 1.340 . S
C89 C83 1.416 . S
C89 C91 1.332 . S
C89 H97 0.931 . S
C90 N88 1.340 . S
C90 C91 1.407 . S
C90 H96 0.930 . S
C91 C89 1.332 . S
C91 C90 1.407 . S
C91 H93 0.929 . S
H92 C81 0.930 . S
H93 C91 0.929 . S
H94 C109 0.930 1_655 S
H95 C116 0.929 . S
H96 C90 0.930 . S
H97 C89 0.931 . S
H98 C112 0.930 . S
H99 C79 0.930 . S
H100 C85 0.929 . S
H101 C86 0.930 . S
H102 C107 0.930 1_655 S
H103 C82 0.930 . S
H104 C115 0.931 . S
N105 Tb76 2.617 . S
N105 C106 1.379 . S
N105 C109 1.334 . S
C106 N105 1.379 . S
C106 C108 1.416 . S
C106 C114 1.424 . S
C107 H102 0.930 1_455 S
C107 C109 1.390 . S
C107 C110 1.339 . S
C108 C106 1.416 . S
C108 C110 1.416 . S
C108 C141 1.448 . S
C109 H94 0.930 1_455 S
C109 N105 1.334 . S
C109 C107 1.390 . S
C110 C107 1.339 . S
C110 C108 1.416 . S
C110 H117 0.930 . S
N111 Tb76 2.572 . S
N111 C112 1.340 . S
N111 C114 1.361 . S
C112 H98 0.930 . S
C112 N111 1.340 . S
C112 C116 1.407 . S
C113 C114 1.413 . S
C113 C115 1.416 . S
C113 C142 1.427 . S
C114 C106 1.424 . S
C114 N111 1.361 . S
C114 C113 1.413 . S
C115 H104 0.931 . S
C115 C113 1.416 . S
C115 C116 1.332 . S
C116 H95 0.929 . S
C116 C112 1.407 . S
C116 C115 1.332 . S
H117 C110 0.930 . S
H118 C141 0.930 . S
H119 C142 0.929 . S
O120 Tb76 2.465 . S
O120 C140 1.264 . S
O121 Tb76 2.387 . S
O121 C132 1.264 . S
O122 Tb87 2.349 1_455 S
O122 C132 1.243 1_545 S
O123 Tb76 2.428 . S
O123 C140 1.256 . S
O124 Tb76 2.308 1_545 S
O124 C139 1.266 . S
O125 Tb87 2.393 1_455 S
O125 C139 1.248 . S
O126 Tb87 2.465 . S
O126 C151 1.264 . S
O127 Tb87 2.387 . S
O127 C143 1.264 . S
O128 Tb76 2.349 1_645 S
O128 C143 1.243 . S
O129 Tb87 2.428 . S
O129 C151 1.256 . S
O130 Tb87 2.308 1_565 S
O130 C150 1.266 . S
O131 Tb76 2.393 1_655 S
O131 C150 1.248 . S
C132 O121 1.264 . S
C132 O122 1.243 1_565 S
C133 C136 1.399 . S
C133 C138 1.383 . S
C133 C140 1.496 . S
C134 C135 1.399 . S
C134 C138 1.389 . S
C135 C134 1.399 . S
C135 C137 1.380 . S
C135 H152 0.929 . S
C136 C133 1.399 . S
C136 C137 1.392 . S
C136 H153 0.929 . S
C137 C135 1.380 . S
C137 C136 1.392 . S
C137 H154 0.929 . S
C138 C133 1.383 . S
C138 C134 1.389 . S
C138 H155 0.931 . S
C139 O124 1.266 . S
C139 O125 1.248 . S
C140 Tb76 2.802 . S
C140 O120 1.264 . S
C140 O123 1.256 . S
C140 C133 1.496 . S
C141 C108 1.448 . S
C141 H118 0.930 . S
C141 C142 1.328 . S
C142 C113 1.427 . S
C142 H119 0.929 . S
C142 C141 1.328 . S
C143 O127 1.264 . S
C143 O128 1.243 . S
C144 C147 1.399 . S
C144 C148 1.383 . S
C144 C151 1.496 . S
C145 C146 1.399 . S
C145 C148 1.389 . S
C146 C145 1.399 . S
C146 C149 1.380 . S
C146 H156 0.929 . S
C147 C144 1.399 . S
C147 C149 1.392 . S
C147 H157 0.929 . S
C148 C144 1.383 . S
C148 C145 1.389 . S
C148 H158 0.931 . S
C149 C146 1.380 . S
C149 C147 1.392 . S
C149 H159 0.929 . S
C150 O130 1.266 . S
C150 O131 1.248 . S
C151 Tb87 2.802 . S
C151 O126 1.264 . S
C151 O129 1.256 . S
C151 C144 1.496 . S
H152 C135 0.929 . S
H153 C136 0.929 . S
H154 C137 0.929 . S
H155 C138 0.931 . S
H156 C146 0.929 . S
H157 C147 0.929 . S
H158 C148 0.931 . S
H159 C149 0.929 . S
Tb160 N189 2.617 . S
Tb160 N195 2.572 . S
Tb160 O204 2.465 1_554 S
Tb160 O205 2.387 . S
Tb160 O207 2.428 1_554 S
Tb160 O208 2.308 . S
Tb160 O212 2.349 1_554 S
Tb160 O215 2.393 . S
Tb160 C224 2.802 1_554 S
C161 N162 1.379 . S
C161 C164 1.416 . S
C161 C168 1.424 . S
N162 C161 1.379 . S
N162 C165 1.334 . S
N162 Tb171 2.617 . S
C163 C165 1.390 . S
C163 C166 1.339 . S
C163 H183 0.930 . S
C164 C161 1.416 . S
C164 C166 1.416 . S
C164 C170 1.448 . S
C165 N162 1.334 . S
C165 C163 1.390 . S
C165 H176 0.930 . S
C166 C163 1.339 . S
C166 C164 1.416 . S
C166 H187 0.930 . S
C167 C168 1.413 . S
C167 C169 1.427 . S
C167 C173 1.416 . S
C168 C161 1.424 . S
C168 C167 1.413 . S
C168 N172 1.361 . S
C169 C167 1.427 . S
C169 C170 1.328 . S
C169 H184 0.929 . S
C170 C164 1.448 . S
C170 C169 1.328 . S
C170 H185 0.930 . S
Tb171 N162 2.617 . S
Tb171 N172 2.572 . S
Tb171 O206 2.349 . S
Tb171 O209 2.393 . S
Tb171 O210 2.465 . S
Tb171 O211 2.387 . S
Tb171 O213 2.428 . S
Tb171 O214 2.308 . S
Tb171 C235 2.802 . S
N172 C168 1.361 . S
N172 Tb171 2.572 . S
N172 C174 1.340 . S
C173 C167 1.416 . S
C173 C175 1.332 . S
C173 H181 0.931 . S
C174 N172 1.340 . S
C174 C175 1.407 . S
C174 H180 0.930 . S
C175 C173 1.332 . S
C175 C174 1.407 . S
C175 H177 0.929 . S
H176 C165 0.930 . S
H177 C175 0.929 . S
H178 C193 0.930 . S
H179 C200 0.929 . S
H180 C174 0.930 . S
H181 C173 0.931 . S
H182 C196 0.930 . S
H183 C163 0.930 . S
H184 C169 0.929 . S
H185 C170 0.930 . S
H186 C191 0.930 . S
H187 C166 0.930 . S
H188 C199 0.931 . S
N189 Tb160 2.617 . S
N189 C190 1.379 . S
N189 C193 1.334 1_554 S
C190 N189 1.379 . S
C190 C192 1.416 . S
C190 C198 1.424 . S
C191 H186 0.930 . S
C191 C193 1.390 . S
C191 C194 1.339 1_556 S
C192 C190 1.416 . S
C192 C194 1.416 . S
C192 C225 1.448 . S
C193 H178 0.930 . S
C193 N189 1.334 1_556 S
C193 C191 1.390 . S
C194 C191 1.339 1_554 S
C194 C192 1.416 . S
C194 H201 0.930 . S
N195 Tb160 2.572 . S
N195 C196 1.340 . S
N195 C198 1.361 . S
C196 H182 0.930 . S
C196 N195 1.340 . S
C196 C200 1.407 . S
C197 C198 1.413 . S
C197 C199 1.416 . S
C197 C226 1.427 . S
C198 C190 1.424 . S
C198 N195 1.361 . S
C198 C197 1.413 . S
C199 H188 0.931 . S
C199 C197 1.416 . S
C199 C200 1.332 . S
C200 H179 0.929 . S
C200 C196 1.407 . S
C200 C199 1.332 . S
H201 C194 0.930 . S
H202 C225 0.930 . S
H203 C226 0.929 . S
O204 Tb160 2.465 1_556 S
O204 C224 1.264 . S
O205 Tb160 2.387 . S
O205 C216 1.264 . S
O206 Tb171 2.349 . S
O206 C216 1.243 . S
O207 Tb160 2.428 1_556 S
O207 C224 1.256 . S
O208 Tb160 2.308 . S
O208 C223 1.266 . S
O209 Tb171 2.393 . S
O209 C223 1.248 . S
O210 Tb171 2.465 . S
O210 C235 1.264 . S
O211 Tb171 2.387 . S
O211 C227 1.264 1_554 S
O212 Tb160 2.349 1_556 S
O212 C227 1.243 . S
O213 Tb171 2.428 . S
O213 C235 1.256 . S
O214 Tb171 2.308 . S
O214 C234 1.266 . S
O215 Tb160 2.393 . S
O215 C234 1.248 . S
C216 O205 1.264 . S
C216 O206 1.243 . S
C217 C220 1.399 . S
C217 C222 1.383 . S
C217 C224 1.496 . S
C218 C219 1.399 . S
C218 C222 1.389 . S
C219 C218 1.399 . S
C219 C221 1.380 . S
C219 H236 0.929 . S
C220 C217 1.399 . S
C220 C221 1.392 . S
C220 H237 0.929 . S
C221 C219 1.380 . S
C221 C220 1.392 . S
C221 H238 0.929 . S
C222 C217 1.383 . S
C222 C218 1.389 . S
C222 H239 0.931 . S
C223 O208 1.266 . S
C223 O209 1.248 . S
C224 Tb160 2.802 1_556 S
C224 O204 1.264 . S
C224 O207 1.256 . S
C224 C217 1.496 . S
C225 C192 1.448 . S
C225 H202 0.930 . S
C225 C226 1.328 . S
C226 C197 1.427 . S
C226 H203 0.929 . S
C226 C225 1.328 . S
C227 O211 1.264 1_556 S
C227 O212 1.243 . S
C228 C231 1.399 . S
C228 C232 1.383 . S
C228 C235 1.496 . S
C229 C230 1.399 . S
C229 C232 1.389 . S
C230 C229 1.399 . S
C230 C233 1.380 . S
C230 H240 0.929 . S
C231 C228 1.399 . S
C231 C233 1.392 . S
C231 H241 0.929 . S
C232 C228 1.383 . S
C232 C229 1.389 . S
C232 H242 0.931 . S
C233 C230 1.380 . S
C233 C231 1.392 . S
C233 H243 0.929 . S
C234 O214 1.266 . S
C234 O215 1.248 . S
C235 Tb171 2.802 . S
C235 O210 1.264 . S
C235 O213 1.256 . S
C235 C228 1.496 . S
H236 C219 0.929 . S
H237 C220 0.929 . S
H238 C221 0.929 . S
H239 C222 0.931 . S
H240 C230 0.929 . S
H241 C231 0.929 . S
H242 C232 0.931 . S
H243 C233 0.929 . S
C244 C245 1.387 . S
C244 H248 0.950 . S
C244 C253 1.390 . S
C245 C244 1.387 . S
C245 C247 1.387 . S
H246 C253 0.950 . S
C247 C245 1.387 . S
C247 C249 1.390 . S
C247 H251 0.950 . S
H248 C244 0.950 . S
C249 C247 1.390 . S
C249 C250 1.387 . S
C249 H252 0.950 . S
C250 C249 1.387 . S
C250 C253 1.387 . S
H251 C247 0.950 . S
H252 C249 0.950 . S
C253 C244 1.390 . S
C253 H246 0.950 . S
C253 C250 1.387 . S
C254 C255 1.387 . S
C254 H258 0.950 . S
C254 C263 1.390 . S
C255 C254 1.387 . S
C255 C257 1.387 . S
H256 C263 0.950 . S
C257 C255 1.387 . S
C257 C259 1.390 . S
C257 H261 0.950 1_554 S
H258 C254 0.950 . S
C259 C257 1.390 . S
C259 C260 1.387 . S
C259 H262 0.950 1_554 S
C260 C259 1.387 . S
C260 C263 1.387 . S
H261 C257 0.950 1_556 S
H262 C259 0.950 1_556 S
C263 C254 1.390 . S
C263 H256 0.950 . S
C263 C260 1.387 . S
C264 C265 1.387 . S
C264 H268 0.950 . S
C264 C273 1.390 . S
C265 C264 1.387 . S
C265 C267 1.387 . S
H266 C273 0.950 . S
C267 C265 1.387 . S
C267 C269 1.390 . S
C267 H271 0.950 . S
H268 C264 0.950 . S
C269 C267 1.390 . S
C269 C270 1.387 . S
C269 H272 0.950 . S
C270 C269 1.387 . S
C270 C273 1.387 . S
H271 C267 0.950 . S
H272 C269 0.950 . S
C273 C264 1.390 . S
C273 H266 0.950 . S
C273 C270 1.387 . S
C274 C275 1.387 . S
C274 H278 0.950 . S
C274 C283 1.390 . S
C275 C274 1.387 . S
C275 C277 1.387 . S
H276 C283 0.950 . S
C277 C275 1.387 . S
C277 C279 1.390 . S
C277 H281 0.950 1_554 S
H278 C274 0.950 . S
C279 C277 1.390 . S
C279 C280 1.387 . S
C279 H282 0.950 1_554 S
C280 C279 1.387 . S
C280 C283 1.387 . S
H281 C277 0.950 1_556 S
H282 C279 0.950 1_556 S
C283 C274 1.390 . S
C283 H276 0.950 . S
C283 C280 1.387 . S
C284 C285 1.387 . S
C284 H288 0.950 . S
C284 C293 1.390 . S
C285 C284 1.387 . S
C285 C287 1.387 . S
H286 C293 0.950 . S
C287 C285 1.387 . S
C287 C289 1.390 . S
C287 H291 0.950 . S
H288 C284 0.950 . S
C289 C287 1.390 . S
C289 C290 1.387 . S
C289 H292 0.950 . S
C290 C289 1.387 . S
C290 C293 1.387 . S
H291 C287 0.950 . S
H292 C289 0.950 . S
C293 C284 1.390 . S
C293 H286 0.950 . S
C293 C290 1.387 . S
C294 C295 1.387 . S
C294 H298 0.950 . S
C294 C303 1.390 . S
C295 C294 1.387 . S
C295 C297 1.387 . S
H296 C303 0.950 . S
C297 C295 1.387 . S
C297 C299 1.390 . S
C297 H301 0.950 . S
H298 C294 0.950 . S
C299 C297 1.390 . S
C299 C300 1.387 . S
C299 H302 0.950 . S
C300 C299 1.387 . S
C300 C303 1.387 . S
H301 C297 0.950 . S
H302 C299 0.950 . S
C303 C294 1.390 . S
C303 H296 0.950 . S
C303 C300 1.387 . S
C304 C305 1.387 . S
C304 H308 0.950 . S
C304 C313 1.390 . S
C305 C304 1.387 . S
C305 C307 1.387 . S
H306 C313 0.950 . S
C307 C305 1.387 . S
C307 C309 1.390 . S
C307 H311 0.950 . S
H308 C304 0.950 . S
C309 C307 1.390 . S
C309 C310 1.387 . S
C309 H312 0.950 . S
C310 C309 1.387 . S
C310 C313 1.387 . S
H311 C307 0.950 . S
H312 C309 0.950 . S
C313 C304 1.390 . S
C313 H306 0.950 . S
C313 C310 1.387 . S
C314 C315 1.387 . S
C314 H318 0.950 . S
C314 C323 1.390 . S
C315 C314 1.387 . S
C315 C317 1.387 . S
H316 C323 0.950 . S
C317 C315 1.387 . S
C317 C319 1.390 . S
C317 H321 0.950 . S
H318 C314 0.950 . S
C319 C317 1.390 . S
C319 C320 1.387 . S
C319 H322 0.950 . S
C320 C319 1.387 . S
C320 C323 1.387 . S
H321 C317 0.950 . S
H322 C319 0.950 . S
C323 C314 1.390 . S
C323 H316 0.950 . S
C323 C320 1.387 . S
C324 C325 1.387 . S
C324 H328 0.950 . S
C324 C333 1.390 . S
C325 C324 1.387 . S
C325 C327 1.387 . S
H326 C333 0.950 . S
C327 C325 1.387 . S
C327 C329 1.390 . S
C327 H331 0.950 . S
H328 C324 0.950 . S
C329 C327 1.390 . S
C329 C330 1.387 . S
C329 H332 0.950 . S
C330 C329 1.387 . S
C330 C333 1.387 . S
H331 C327 0.950 . S
H332 C329 0.950 . S
C333 C324 1.390 . S
C333 H326 0.950 . S
C333 C330 1.387 . S
C334 C335 1.387 . S
C334 H338 0.950 . S
C334 C343 1.390 . S
C335 C334 1.387 . S
C335 C337 1.387 1_556 S
H336 C343 0.950 . S
C337 C335 1.387 1_554 S
C337 C339 1.390 1_554 S
C337 H341 0.950 . S
H338 C334 0.950 . S
C339 C337 1.390 1_556 S
C339 C340 1.387 . S
C339 H342 0.950 . S
C340 C339 1.387 . S
C340 C343 1.387 . S
H341 C337 0.950 . S
H342 C339 0.950 . S
C343 C334 1.390 . S
C343 H336 0.950 . S
C343 C340 1.387 . S
C344 C345 1.387 . S
C344 H348 0.950 . S
C344 C353 1.390 . S
C345 C344 1.387 . S
C345 C347 1.387 . S
H346 C353 0.950 . S
C347 C345 1.387 . S
C347 C349 1.390 . S
C347 H351 0.950 . S
H348 C344 0.950 . S
C349 C347 1.390 . S
C349 C350 1.387 . S
C349 H352 0.950 . S
C350 C349 1.387 . S
C350 C353 1.387 . S
H351 C347 0.950 . S
H352 C349 0.950 . S
C353 C344 1.390 . S
C353 H346 0.950 . S
C353 C350 1.387 . S
C354 C355 1.387 . S
C354 H358 0.950 . S
C354 C363 1.390 . S
C355 C354 1.387 . S
C355 C357 1.387 . S
H356 C363 0.950 1_545 S
C357 C355 1.387 . S
C357 C359 1.390 . S
C357 H361 0.950 . S
H358 C354 0.950 . S
C359 C357 1.390 . S
C359 C360 1.387 . S
C359 H362 0.950 . S
C360 C359 1.387 . S
C360 C363 1.387 . S
H361 C357 0.950 . S
H362 C359 0.950 . S
C363 C354 1.390 . S
C363 H356 0.950 1_565 S
C363 C360 1.387 . S
C250 C139 1.661 . S
C245 C68 1.633 . S
C255 C11 1.533 . S
C260 C234 1.699 . S
C265 C30 1.599 . S
C270 C150 1.693 . S
C275 C49 1.592 . S
C280 C223 1.640 . S
C290 C134 1.472 . S
C285 C2 1.648 . S
C300 C227 1.761 . S
C295 C25 1.754 . S
C305 C40 1.677 . S
C310 C143 1.707 . S
C315 C59 1.650 . S
C320 C218 1.489 . S
C330 C229 1.438 . S
C325 C21 1.598 . S
C340 C145 1.387 . S
C335 C44 1.590 1_556 S
C350 C216 1.661 . S
C345 C63 1.658 . S
C355 C6 1.634 . S
C360 C132 1.649 . S
