# Generated by pormake.
# Topology anh, (6,3)-cn, num edge types: 1
# Building blocks:
#     Node 0, Type 0, BuildingBlock: HISSIN_clean_sbu_0, # of connection points: 6
#     Node 1, Type 0, BuildingBlock: HISSIN_clean_sbu_0, # of connection points: 6
#     Node 2, Type 0, BuildingBlock: HISSIN_clean_sbu_0, # of connection points: 6
#     Node 3, Type 1, BuildingBlock: BELTOD_clean_linker_0, # of connection points: 3
#     Node 4, Type 1, BuildingBlock: BELTOD_clean_linker_0, # of connection points: 3
#     Node 5, Type 1, BuildingBlock: BELTOD_clean_linker_0, # of connection points: 3
#     Node 6, Type 1, BuildingBlock: BELTOD_clean_linker_0, # of connection points: 3
#     Node 7, Type 1, BuildingBlock: BELTOD_clean_linker_0, # of connection points: 3
#     Node 8, Type 1, BuildingBlock: BELTOD_clean_linker_0, # of connection points: 3
#     Edge 9, Type (0, 1), BuildingBlock: EZIPEK_clean_linker_0, # of connection points: 2
#     Edge 10, Type (0, 1), BuildingBlock: EZIPEK_clean_linker_0, # of connection points: 2
#     Edge 11, Type (0, 1), BuildingBlock: EZIPEK_clean_linker_0, # of connection points: 2
#     Edge 12, Type (0, 1), BuildingBlock: EZIPEK_clean_linker_0, # of connection points: 2
#     Edge 13, Type (0, 1), BuildingBlock: EZIPEK_clean_linker_0, # of connection points: 2
#     Edge 14, Type (0, 1), BuildingBlock: EZIPEK_clean_linker_0, # of connection points: 2
#     Edge 15, Type (0, 1), BuildingBlock: EZIPEK_clean_linker_0, # of connection points: 2
#     Edge 16, Type (0, 1), BuildingBlock: EZIPEK_clean_linker_0, # of connection points: 2
#     Edge 17, Type (0, 1), BuildingBlock: EZIPEK_clean_linker_0, # of connection points: 2
#     Edge 18, Type (0, 1), BuildingBlock: EZIPEK_clean_linker_0, # of connection points: 2
#     Edge 19, Type (0, 1), BuildingBlock: EZIPEK_clean_linker_0, # of connection points: 2
#     Edge 20, Type (0, 1), BuildingBlock: EZIPEK_clean_linker_0, # of connection points: 2
#     Edge 21, Type (0, 1), BuildingBlock: EZIPEK_clean_linker_0, # of connection points: 2
#     Edge 22, Type (0, 1), BuildingBlock: EZIPEK_clean_linker_0, # of connection points: 2
#     Edge 23, Type (0, 1), BuildingBlock: EZIPEK_clean_linker_0, # of connection points: 2
#     Edge 24, Type (0, 1), BuildingBlock: EZIPEK_clean_linker_0, # of connection points: 2
#     Edge 25, Type (0, 1), BuildingBlock: EZIPEK_clean_linker_0, # of connection points: 2
#     Edge 26, Type (0, 1), BuildingBlock: EZIPEK_clean_linker_0, # of connection points: 2
# Relax obj value: 0.322
# Max RMSD: 0.194
# Mean RMSD: 0.157
data_MOF--net-anh--node1-HISSIN_clean_sbu_0--node2-BELTOD_clean_linker_0--edge1-EZIPEK_clean_linker_0
_symmetry_space_group_name_H-M    P1
_symmetry_Int_Tables_number       1
_symmetry_cell_setting            triclinic
loop_
_symmetry_equiv_pos_as_xyz
'x, y, z'
_cell_length_a     26.32127
_cell_length_b     26.31298
_cell_length_c     46.851118
_cell_angle_alpha  93.788374
_cell_angle_beta   89.674321
_cell_angle_gamma 119.93324
loop_
_atom_site_label
_atom_site_type_symbol
_atom_site_fract_x
_atom_site_fract_y
_atom_site_fract_z
_atom_type_partial_charge
Eu0 Eu 1.06332 0.5728 0.15318 0.0
Eu1 Eu 1.12463 0.70586 0.18212 0.0
C2 C 1.07292 0.59942 0.22292 0.0
C3 C 0.97759 0.4049 0.13834 0.0
C4 C 0.92692 0.39025 0.15393 0.0
C5 C 0.95888 0.30506 0.13985 0.0
C6 C 0.89232 0.33311 0.16232 0.0
C7 C 0.99309 0.3619 0.13122 0.0
C8 C 0.9085 0.29051 0.15549 0.0
C9 C 1.01648 0.46501 0.13027 0.0
O10 O 0.19979 0.68416 0.18091 0.0
O11 O 0.16089 0.60724 0.14667 0.0
C12 C 0.20598 0.64689 0.16276 0.0
O13 O 1.07885 0.63096 0.11666 0.0
O14 O 0.18229 0.77779 0.21299 0.0
O15 O 0.13441 0.79293 0.1805 0.0
O16 O 0.15681 0.71363 0.13761 0.0
C17 C 1.12486 0.68337 0.11494 0.0
O18 O 0.98462 0.58404 0.16408 0.0
O19 O 1.03243 0.6846 0.16732 0.0
O20 O 1.08204 0.65242 0.21961 0.0
O21 O 0.99368 0.49853 0.12748 0.0
O22 O 1.06754 0.49291 0.14347 0.0
O23 O 1.07094 0.56439 0.20095 0.0
C24 C 0.23513 0.86211 0.18704 0.0
C25 C 0.23602 0.88242 0.15978 0.0
C26 C 0.33886 0.89579 0.18397 0.0
C27 C 0.28709 0.90523 0.14397 0.0
C28 C 0.28825 0.87359 0.19981 0.0
C29 C 0.33746 0.90776 0.1553 0.0
C30 C 0.17923 0.8171 0.19852 0.0
C31 C 0.98323 0.63349 0.1643 0.0
H32 H 0.9145 0.42296 0.15989 0.0
H33 H 0.97179 0.27249 0.13452 0.0
H34 H 0.85354 0.3223 0.17451 0.0
H35 H 1.0322 0.3726 0.11932 0.0
H36 H 0.19614 0.87578 0.1496 0.0
H37 H 0.37785 0.89868 0.19332 0.0
H38 H 0.28583 0.91609 0.12219 0.0
H39 H 0.28945 0.85971 0.22094 0.0
Eu40 Eu 0.61804 0.97212 0.49509 0.0
Eu41 Eu 0.54665 1.04112 0.48651 0.0
C42 C 0.59016 1.03216 0.55095 0.0
C43 C 0.72664 0.92166 0.51373 0.0
C44 C 0.77249 0.97746 0.52374 0.0
C45 C 0.78038 0.87703 0.53114 0.0
C46 C 0.82245 0.98292 0.5373 0.0
C47 C 0.73086 0.87164 0.51756 0.0
C48 C 0.82641 0.93254 0.54105 0.0
C49 C 0.67428 0.91433 0.49898 0.0
O50 O 0.64269 0.10836 0.47881 0.0
O51 O 0.69102 1.06871 0.50076 0.0
C52 C 0.69171 0.11323 0.48887 0.0
O53 O 0.62307 0.99123 0.44906 0.0
O54 O 0.48996 1.07642 0.49987 0.0
O55 O 0.52969 0.09426 0.45847 0.0
O56 O 0.5347 0.98571 0.44519 0.0
C57 C 0.57724 0.98006 0.4336 0.0
O58 O 0.52157 0.89896 0.48552 0.0
O59 O 0.47053 0.9486 0.4917 0.0
O60 O 0.57021 1.05736 0.53437 0.0
O61 O 0.63059 0.90624 0.51498 0.0
O62 O 0.68313 0.9502 0.47925 0.0
O63 O 0.60747 0.99601 0.54066 0.0
C64 C 0.53447 0.17396 0.48577 0.0
C65 C 0.54348 0.21237 0.46434 0.0
C66 C 0.60489 0.25682 0.5169 0.0
C67 C 0.58441 0.27241 0.46889 0.0
C68 C 0.56433 0.19712 0.51239 0.0
C69 C 0.6168 0.29431 0.49487 0.0
C70 C 0.50467 0.11004 0.47847 0.0
C71 C 0.47123 0.89885 0.48762 0.0
H72 H 0.76968 1.01655 0.52096 0.0
H73 H 0.78292 0.83778 0.53392 0.0
H74 H 0.85773 1.02601 0.54485 0.0
H75 H 0.69587 0.82838 0.50997 0.0
H76 H 0.52155 0.19536 0.44355 0.0
H77 H 0.62918 0.27332 0.53717 0.0
H78 H 0.5929 0.30114 0.45179 0.0
H79 H 0.55912 0.16871 0.52921 0.0
Eu80 Eu 0.54789 0.5368 0.82356 0.0
Eu81 Eu 0.68756 0.60869 0.8443 0.0
C82 C 0.58545 0.56789 0.89191 0.0
C83 C 0.4031 0.52178 0.81238 0.0
C84 C 0.38859 0.52985 0.84062 0.0
C85 C 0.38094 0.59617 0.79825 0.0
C86 C 0.37369 0.5729 0.84782 0.0
C87 C 0.39553 0.55278 0.79096 0.0
C88 C 0.37277 0.60817 0.82694 0.0
C89 C 0.43942 0.49408 0.80665 0.0
O90 O 0.66444 0.51173 0.83935 0.0
O91 O 0.56758 0.4616 0.82352 0.0
C92 C 0.61673 0.4624 0.83004 0.0
O93 O 0.59779 0.54319 0.78319 0.0
O94 O 0.77611 0.62154 0.84245 0.0
O95 O 0.75682 0.67464 0.87317 0.0
O96 O 0.6925 0.6128 0.79709 0.0
C97 C 0.65302 0.57825 0.7775 0.0
O98 O 0.57113 0.63318 0.82695 0.0
O99 O 0.67168 0.68231 0.83091 0.0
O100 O 0.64092 0.59162 0.88584 0.0
O101 O 0.4838 0.52338 0.7905 0.0
O102 O 0.45444 0.47558 0.82858 0.0
O103 O 0.54334 0.54545 0.87203 0.0
C104 C 0.85293 0.71716 0.85642 0.0
C105 C 0.85552 0.7631 0.84156 0.0
C106 C 0.95791 0.77306 0.86489 0.0
C107 C 0.90945 0.8145 0.83881 0.0
C108 C 0.90443 0.72204 0.86757 0.0
C109 C 0.96067 0.81996 0.85101 0.0
C110 C 0.79712 0.6651 0.86208 0.0
C111 C 0.622 0.68231 0.82688 0.0
H112 H 0.39362 0.50665 0.85765 0.0
H113 H 0.38022 0.6231 0.78192 0.0
H114 H 0.36713 0.58164 0.87007 0.0
H115 H 0.40629 0.54738 0.76903 0.0
H116 H 0.81588 0.75972 0.83277 0.0
H117 H 0.99717 0.77671 0.87438 0.0
H118 H 0.91105 0.85041 0.82803 0.0
H119 H 0.90308 0.68696 0.87904 0.0
P120 P 0.63921 0.8766 0.2248 0.0
H121 H 0.62604 0.85101 0.16312 0.0
H122 H 0.56439 0.86324 0.12808 0.0
H123 H 0.46274 0.87963 0.19681 0.0
H124 H 0.52575 0.8719 0.23146 0.0
H125 H 0.75286 0.92247 0.19651 0.0
H126 H 0.81995 1.01998 0.17937 0.0
H127 H 0.70758 1.08402 0.2127 0.0
H128 H 0.64056 0.98714 0.22943 0.0
H129 H 0.53934 0.80284 0.26034 0.0
H130 H 0.70611 0.96353 0.27211 0.0
O131 O 0.6631 0.82879 0.21975 0.0
H132 H 0.51386 0.82024 0.30938 0.0
H133 H 0.6804 0.98071 0.32041 0.0
C134 C 0.57988 0.85904 0.20001 0.0
C135 C 0.58893 0.8548 0.17052 0.0
C136 C 0.55421 0.86223 0.15054 0.0
C137 C 0.50926 0.87246 0.15996 0.0
C138 C 0.4972 0.87156 0.18917 0.0
C139 C 0.53278 0.866 0.20906 0.0
C140 C 0.69265 0.94827 0.21476 0.0
C141 C 0.74323 0.95774 0.20047 0.0
C142 C 0.78117 1.01299 0.19063 0.0
C143 C 0.76848 1.05873 0.19503 0.0
C144 C 0.71804 1.04915 0.20939 0.0
C145 C 0.68014 0.99413 0.21898 0.0
C146 C 0.62334 0.88331 0.262 0.0
C147 C 0.5703 0.84173 0.27333 0.0
C148 C 0.55567 0.85169 0.30114 0.0
C149 C 0.5947 0.90264 0.31802 0.0
C150 C 0.64923 0.94198 0.30736 0.0
C151 C 0.66372 0.93204 0.27972 0.0
P152 P 0.92225 0.65424 0.60674 0.0
H153 H 0.8943 0.65677 0.54574 0.0
H154 H 0.82609 0.57695 0.51178 0.0
H155 H 0.81532 0.44968 0.56851 0.0
H156 H 0.88233 0.5294 0.60295 0.0
H157 H 1.02283 0.7756 0.60691 0.0
H158 H 1.02875 0.86876 0.59555 0.0
H159 H 0.84274 0.77531 0.57585 0.0
H160 H 0.83665 0.68355 0.58734 0.0
H161 H 0.93585 0.67865 0.66895 0.0
H162 H 0.79413 0.58176 0.60645 0.0
O163 O 0.9864 0.663 0.61791 0.0
H164 H 0.86389 0.65585 0.70677 0.0
H165 H 0.72285 0.55904 0.64412 0.0
C166 C 0.89192 0.59891 0.57732 0.0
C167 C 0.87838 0.61186 0.55075 0.0
C168 C 0.83981 0.56641 0.53121 0.0
C169 C 0.81535 0.50779 0.53794 0.0
C170 C 0.83385 0.49484 0.56309 0.0
C171 C 0.87214 0.54024 0.58265 0.0
C172 C 0.92936 0.72269 0.59762 0.0
C173 C 0.9835 0.77532 0.60004 0.0
C174 C 0.98692 0.82828 0.59369 0.0
C175 C 0.93618 0.82845 0.58478 0.0
C176 C 0.88231 0.77583 0.58264 0.0
C177 C 0.87888 0.72352 0.58915 0.0
C178 C 0.87052 0.63052 0.63503 0.0
C179 C 0.88955 0.65146 0.66346 0.0
C180 C 0.84864 0.63878 0.68494 0.0
C181 C 0.78831 0.60544 0.67811 0.0
C182 C 0.76927 0.58427 0.64973 0.0
C183 C 0.81009 0.59697 0.62833 0.0
P184 P 0.3206 0.92444 0.94084 0.0
H185 H 0.3976 0.94432 0.89267 0.0
H186 H 0.41455 0.87665 0.86049 0.0
H187 H 0.30056 0.73267 0.91051 0.0
H188 H 0.28193 0.7989 0.94173 0.0
H189 H 0.31759 1.02569 0.91857 0.0
H190 H 0.24316 1.03101 0.88907 0.0
H191 H 0.13736 0.84179 0.88452 0.0
H192 H 0.21177 0.83641 0.91278 0.0
H193 H 0.36185 0.88627 0.98818 0.0
H194 H 0.20451 0.88892 0.96532 0.0
O195 O 0.37996 0.98994 0.94872 0.0
H196 H 0.31142 0.82734 0.02859 0.0
H197 H 0.15421 0.82888 0.00487 0.0
C198 C 0.34031 0.87716 0.92023 0.0
C199 C 0.37724 0.8984 0.89699 0.0
C200 C 0.38657 0.85994 0.87858 0.0
C201 C 0.35923 0.8 0.88344 0.0
C202 C 0.32251 0.77896 0.9067 0.0
C203 C 0.31255 0.81708 0.92475 0.0
C204 C 0.26951 0.93064 0.91815 0.0
C205 C 0.27858 0.98547 0.91096 0.0
C206 C 0.2364 0.98855 0.89416 0.0
C207 C 0.18456 0.93682 0.88507 0.0
C208 C 0.17694 0.8822 0.8915 0.0
C209 C 0.21926 0.87912 0.90767 0.0
C210 C 0.28682 0.89118 0.97337 0.0
C211 C 0.31688 0.87483 0.99199 0.0
C212 C 0.28807 0.84087 0.01481 0.0
C213 C 0.2289 0.82305 0.01928 0.0
C214 C 0.19966 0.84163 0.00146 0.0
C215 C 0.22855 0.87589 0.97882 0.0
P216 P 1.08203 0.49435 0.43456 0.0
H217 H 0.17146 0.52994 0.48161 0.0
H218 H 0.26094 0.62353 0.49583 0.0
H219 H 0.20906 0.71276 0.43912 0.0
H220 H 1.1197 0.62012 0.42522 0.0
H221 H 1.05205 0.43155 0.48802 0.0
H222 H 0.96327 0.34392 0.50292 0.0
H223 H 0.86715 0.34815 0.43006 0.0
H224 H 0.95529 0.43399 0.4148 0.0
H225 H 0.13122 0.47743 0.38051 0.0
H226 H 1.01364 0.54041 0.40644 0.0
O227 O 1.11721 0.45622 0.43264 0.0
H228 H 1.12472 0.49957 0.33126 0.0
H229 H 1.00697 0.56228 0.35666 0.0
C230 C 0.13731 0.56648 0.45222 0.0
C231 C 0.17797 0.56974 0.47283 0.0
C232 C 0.22977 0.6235 0.48084 0.0
C233 C 0.24286 0.67602 0.46849 0.0
C234 C 0.20078 0.67344 0.44907 0.0
C235 C 0.14897 0.61983 0.44117 0.0
C236 C 1.01159 0.44192 0.45049 0.0
C237 C 1.01157 0.41512 0.47564 0.0
C238 C 0.96063 0.36429 0.48407 0.0
C239 C 0.90755 0.33843 0.46773 0.0
C240 C 0.90683 0.36662 0.4433 0.0
C241 C 0.95783 0.41687 0.43471 0.0
C242 C 1.07197 0.50603 0.39742 0.0
C243 C 1.10308 0.49499 0.37569 0.0
C244 C 1.09952 0.50771 0.34742 0.0
C245 C 1.06492 0.53202 0.34013 0.0
C246 C 1.03338 0.54285 0.36169 0.0
C247 C 1.03711 0.53023 0.39009 0.0
P248 P 0.65135 1.08504 0.77419 0.0
H249 H 0.69238 0.16713 0.82633 0.0
H250 H 0.68307 0.25359 0.84108 0.0
H251 H 0.55344 0.20526 0.77361 0.0
H252 H 0.56154 0.11814 0.7593 0.0
H253 H 0.73297 1.04501 0.79112 0.0
H254 H 0.72195 0.95202 0.80407 0.0
H255 H 0.53427 0.87535 0.80192 0.0
H256 H 0.54523 0.96987 0.78859 0.0
H257 H 0.67566 0.16777 0.73072 0.0
H258 H 0.58661 0.97908 0.7329 0.0
O259 O 0.72415 0.12825 0.77475 0.0
H260 H 0.65834 0.15714 0.67875 0.0
H261 H 0.56975 0.96865 0.68073 0.0
C262 C 0.62761 0.13479 0.79163 0.0
C263 C 0.66019 0.17351 0.81529 0.0
C264 C 0.65539 0.22369 0.82356 0.0
C265 C 0.61809 0.23727 0.80833 0.0
C266 C 0.5829 0.19671 0.78576 0.0
C267 C 0.58731 0.14624 0.77768 0.0
C268 C 0.64003 1.01624 0.78904 0.0
C269 C 0.68904 1.00912 0.7938 0.0
C270 C 0.68287 0.95522 0.80117 0.0
C271 C 0.62733 0.90551 0.80401 0.0
C272 C 0.57788 0.91247 0.79992 0.0
C273 C 0.58414 0.96692 0.79249 0.0
C274 C 0.63213 1.07434 0.73604 0.0
C275 C 0.65172 0.12399 0.72015 0.0
C276 C 0.64193 0.11802 0.69043 0.0
C277 C 0.61269 1.06213 0.67574 0.0
C278 C 0.59219 1.01223 0.69158 0.0
C279 C 0.60184 1.01825 0.72147 0.0
P280 P 0.56838 0.58673 0.1155 0.0
H281 H 0.61546 0.562 0.16691 0.0
H282 H 0.71215 0.57484 0.17917 0.0
H283 H 0.78555 0.68045 0.10756 0.0
H284 H 0.68912 0.66834 0.09548 0.0
H285 H 0.45278 0.52103 0.14188 0.0
H286 H 0.37497 0.54253 0.15408 0.0
H287 H 0.48642 0.72224 0.13454 0.0
H288 H 0.56553 0.7007 0.12203 0.0
H289 H 0.62244 0.54659 0.07176 0.0
H290 H 0.51457 0.62752 0.07281 0.0
O291 O 0.53612 0.51482 0.11982 0.0
H292 H 0.62056 0.54179 0.01929 0.0
H293 H 0.51263 0.62234 0.02034 0.0
C294 C 0.64375 0.61427 0.13021 0.0
C295 C 0.65251 0.58967 0.15429 0.0
C296 C 0.70804 0.59649 0.16119 0.0
C297 C 0.757 0.62814 0.14422 0.0
C298 C 0.74908 0.65555 0.12108 0.0
C299 C 0.69358 0.64895 0.11428 0.0
C300 C 0.51653 0.6091 0.13101 0.0
C301 C 0.46187 0.56568 0.14064 0.0
C302 C 0.41659 0.57786 0.14762 0.0
C303 C 0.42363 0.63396 0.14516 0.0
C304 C 0.47899 0.67837 0.13659 0.0
C305 C 0.52473 0.66616 0.12966 0.0
C306 C 0.56999 0.58882 0.07661 0.0
C307 C 0.59903 0.56412 0.06084 0.0
C308 C 0.59763 0.56092 0.03082 0.0
C309 C 0.56658 0.58179 0.01578 0.0
C310 C 0.53708 0.60615 0.03145 0.0
C311 C 0.53864 0.6095 0.06155 0.0
C312 C 0.29874 0.64872 0.18258 0.0
C313 C 0.26562 0.65034 0.15895 0.0
C314 C 0.33671 0.64214 0.12634 0.0
C315 C 0.37157 0.64402 0.14995 0.0
N316 N 0.39113 0.66085 0.20077 0.0
N317 N 0.26342 0.6638 0.10873 0.0
C318 C 0.35417 0.65108 0.17812 0.0
C319 C 0.28764 0.65123 0.13096 0.0
N320 N 0.27578 0.64129 0.2092 0.0
N321 N 0.34958 0.63031 0.09928 0.0
H322 H 0.23085 0.67497 0.11162 0.0
H323 H 0.28017 0.67024 0.08827 0.0
H324 H 0.38569 0.62511 0.09487 0.0
H325 H 0.32208 0.62124 0.08149 0.0
H326 H 0.29433 0.63339 0.22672 0.0
H327 H 0.23517 0.63757 0.21328 0.0
H328 H 0.3846 0.67273 0.22152 0.0
H329 H 0.43125 0.66229 0.19829 0.0
C330 C 0.76088 0.22416 0.50028 0.0
C331 C 0.74948 0.17024 0.48533 0.0
C332 C 0.84192 0.22635 0.45928 0.0
C333 C 0.85413 0.27998 0.47479 0.0
N334 N 0.82936 0.3281 0.51323 0.0
N335 N 0.78353 0.11934 0.45307 0.0
C336 C 0.81478 0.27812 0.4963 0.0
C337 C 0.79155 0.1713 0.46567 0.0
N338 N 0.71957 0.22397 0.51815 0.0
N339 N 0.87808 0.22818 0.43781 0.0
H340 H 0.74628 1.0789 0.45582 0.0
H341 H 0.81518 0.1154 0.4413 0.0
H342 H 0.91681 0.26631 0.43361 0.0
H343 H 0.86851 0.193 0.42307 0.0
H344 H 0.72099 0.26189 0.52714 0.0
H345 H 0.68178 0.18548 0.52297 0.0
H346 H 0.80652 0.32947 0.53118 0.0
H347 H 0.86694 0.36826 0.51035 0.0
C348 C 0.64726 0.78881 0.84182 0.0
C349 C 0.62269 0.73944 0.82122 0.0
C350 C 0.60121 0.79893 0.78915 0.0
C351 C 0.62227 0.84671 0.81049 0.0
N352 N 0.65527 0.88202 0.85926 0.0
N353 N 0.56919 0.69606 0.77624 0.0
C354 C 0.64266 0.84011 0.83737 0.0
C355 C 0.5972 0.74409 0.79532 0.0
N356 N 0.67531 0.78701 0.86586 0.0
N357 N 0.58803 0.80691 0.76222 0.0
H358 H 0.56977 0.65713 0.77811 0.0
H359 H 0.5425 0.69357 0.75926 0.0
H360 H 0.59038 0.84578 0.75674 0.0
H361 H 0.57949 0.77708 0.74467 0.0
H362 H 0.70041 0.82355 0.87994 0.0
H363 H 0.67689 0.74986 0.87087 0.0
H364 H 0.66393 0.87746 0.8803 0.0
H365 H 0.65165 0.91927 0.85698 0.0
C366 C 0.90521 0.66092 0.17957 0.0
C367 C 0.92485 0.6317 0.1595 0.0
C368 C 0.83226 0.59611 0.13098 0.0
C369 C 0.81514 0.62961 0.14962 0.0
N370 N 0.84046 0.70088 0.18969 0.0
N371 N 0.91074 0.58073 0.11297 0.0
C372 C 0.85316 0.6639 0.17338 0.0
C373 C 0.88916 0.60165 0.13442 0.0
N374 N 0.93494 0.68384 0.20524 0.0
N375 N 0.79328 0.55726 0.11033 0.0
H376 H 0.95221 0.58491 0.11413 0.0
H377 H 0.89007 0.56442 0.09289 0.0
H378 H 0.75169 0.55192 0.10701 0.0
H379 H 0.80002 0.5266 0.09824 0.0
H380 H 0.91985 0.70004 0.22209 0.0
H381 H 0.97221 0.68181 0.21072 0.0
H382 H 0.86919 0.73196 0.20527 0.0
H383 H 0.80303 0.70389 0.18601 0.0
C384 C 0.37081 0.82116 0.5051 0.0
C385 C 0.41302 0.84087 0.48322 0.0
C386 C 0.34629 0.74949 0.45335 0.0
C387 C 0.30201 0.73244 0.4741 0.0
N388 N 0.26991 0.75644 0.51852 0.0
N389 N 0.43443 0.82779 0.43409 0.0
C390 C 0.31383 0.76958 0.49967 0.0
C391 C 0.39899 0.80583 0.45676 0.0
N392 N 0.38593 0.85058 0.53157 0.0
N393 N 0.3387 0.71108 0.43047 0.0
H394 H 0.47181 0.86916 0.43534 0.0
H395 H 0.42379 0.80786 0.41338 0.0
H396 H 0.30093 0.67005 0.42698 0.0
H397 H 0.37179 0.71757 0.41636 0.0
H398 H 0.36016 0.83554 0.54939 0.0
H399 H 0.42681 0.88773 0.53636 0.0
H400 H 0.27285 0.78461 0.53592 0.0
H401 H 0.22855 0.71899 0.51552 0.0
C402 C 0.57642 0.35314 0.83817 0.0
C403 C 0.61887 0.40525 0.8257 0.0
C404 C 0.6641 0.34844 0.80438 0.0
C405 C 0.61859 0.29537 0.81474 0.0
N406 N 0.52772 0.24649 0.83923 0.0
N407 N 0.69892 0.44949 0.79343 0.0
C408 C 0.57367 0.29768 0.83092 0.0
C409 C 0.66187 0.40209 0.80808 0.0
N410 N 0.54044 0.35714 0.85822 0.0
N411 N 0.71005 0.3478 0.79096 0.0
H412 H 0.69913 0.48925 0.79517 0.0
H413 H 0.72602 0.44811 0.7775 0.0
H414 H 0.71175 0.30942 0.78618 0.0
H415 H 0.7484 0.38568 0.78625 0.0
H416 H 0.51281 0.32279 0.87047 0.0
H417 H 0.54221 0.39669 0.86468 0.0
H418 H 0.48992 0.24349 0.84793 0.0
H419 H 0.52559 0.20591 0.83564 0.0
C420 C 0.91751 0.92701 0.53769 0.0
C421 C 0.87805 0.93556 0.55517 0.0
C422 C 0.91051 0.90575 0.59636 0.0
C423 C 0.93675 0.88244 0.57725 0.0
N424 N 0.97454 0.87788 0.53092 0.0
N425 N 0.84265 0.94278 0.60182 0.0
C426 C 0.94485 0.897 0.54839 0.0
C427 C 0.87773 0.92969 0.58501 0.0
N428 N 0.9264 0.94556 0.51064 0.0
N429 N 0.91504 0.90208 0.62507 0.0
H430 H 0.81972 0.96201 0.59394 0.0
H431 H 0.83513 0.93356 0.62319 0.0
H432 H 0.93889 0.88405 0.63328 0.0
H433 H 0.89974 0.92082 0.64061 0.0
H434 H 0.95707 0.94394 0.49708 0.0
H435 H 0.906 0.96735 0.50276 0.0
H436 H 0.97659 0.88095 0.50887 0.0
H437 H 0.99634 0.85742 0.53869 0.0
C438 C 1.06093 0.8779 0.8327 0.0
C439 C 1.01778 0.87511 0.85153 0.0
C440 C 1.09347 0.94375 0.88648 0.0
C441 C 0.13544 0.93713 0.86995 0.0
N442 N 0.16191 0.91173 0.82388 0.0
N443 N 0.99182 0.92025 0.89066 0.0
C444 C 1.12041 0.91049 0.84171 0.0
C445 C 1.034 0.91409 0.87637 0.0
N446 N 1.04488 0.84641 0.80683 0.0
N447 N 1.1096 0.97367 0.91281 0.0
H448 H 0.94813 0.89813 0.88335 0.0
H449 H 1.00044 0.95035 0.90808 0.0
H450 H 0.15311 0.99716 0.92026 0.0
H451 H 1.08024 0.97456 0.9275 0.0
H452 H 1.07549 0.84593 0.79269 0.0
H453 H 1.00111 0.82227 0.79961 0.0
H454 H 0.20671 0.93487 0.82926 0.0
H455 H 0.20671 0.93487 0.82926 0.0
C456 C 0.37972 0.86113 0.12327 0.0
C457 C 0.38614 0.91356 0.13719 0.0
C458 C 0.49027 0.95021 0.1456 0.0
C459 C 0.47837 0.89156 0.14086 0.0
N460 N 0.41976 0.79537 0.11753 0.0
N461 N 0.44867 1.01444 0.15311 0.0
C462 C 0.426 0.84866 0.12636 0.0
C463 C 0.44268 0.96111 0.14457 0.0
N464 N 0.32841 0.82264 0.10883 0.0
N465 N 0.54608 0.9936 0.15302 0.0
H466 H 0.4131 1.02159 0.15201 0.0
H467 H 0.48764 1.05072 0.16104 0.0
H468 H 0.58061 0.98483 0.15394 0.0
H469 H 0.55881 1.03787 0.15645 0.0
H470 H 0.32113 0.78443 0.09721 0.0
H471 H 0.29463 0.83196 0.10643 0.0
H472 H 0.38153 0.76034 0.10824 0.0
H473 H 0.45428 0.78691 0.11928 0.0
C474 C 0.72225 0.37088 0.48929 0.0
C475 C 0.66566 0.35575 0.49928 0.0
C476 C 0.70675 0.44681 0.53006 0.0
C477 C 0.76374 0.4604 0.52144 0.0
N478 N 0.82597 0.44459 0.48869 0.0
N479 N 0.60144 0.38497 0.52222 0.0
C480 C 0.77147 0.42551 0.49944 0.0
C481 C 0.65715 0.39588 0.51736 0.0
N482 N 0.72896 0.33181 0.4712 0.0
N483 N 0.70034 0.4811 0.5514 0.0
H484 H 0.56444 0.34783 0.51299 0.0
H485 H 0.59187 0.41481 0.53311 0.0
H486 H 0.73536 0.52016 0.56046 0.0
H487 H 0.66085 0.46959 0.56123 0.0
H488 H 0.76918 0.33795 0.46442 0.0
H489 H 0.69384 0.29155 0.46337 0.0
H490 H 0.83461 0.42387 0.47122 0.0
H491 H 0.8626 0.48413 0.49616 0.0
C492 C 0.42384 0.71117 0.84865 0.0
C493 C 0.37192 0.66259 0.83611 0.0
C494 C 0.31813 0.71463 0.84686 0.0
C495 C 0.36689 0.75782 0.86395 0.0
N496 N 0.46572 0.79641 0.8826 0.0
N497 N 0.26916 0.61634 0.82324 0.0
C498 C 0.42008 0.75652 0.86491 0.0
C499 C 0.31899 0.6641 0.83484 0.0
N500 N 0.47665 0.71378 0.84493 0.0
N501 N 0.27142 0.72247 0.84202 0.0
H502 H 0.26879 0.57928 0.81356 0.0
H503 H 0.22768 0.61194 0.82465 0.0
H504 H 0.27002 0.75953 0.85034 0.0
H505 H 0.23677 0.69532 0.82773 0.0
H506 H 0.51669 0.75069 0.85115 0.0
H507 H 0.48091 0.68107 0.83319 0.0
H508 H 0.50293 0.7934 0.88672 0.0
H509 H 0.46486 0.83048 0.89486 0.0
C510 C 0.88444 0.21945 0.19316 0.0
C511 C 0.87343 0.23066 0.16531 0.0
C512 C 0.79408 0.12868 0.15673 0.0
C513 C 0.80691 0.11686 0.18406 0.0
N514 N 0.86778 0.14706 0.22702 0.0
N515 N 0.82372 0.19615 0.11908 0.0
C516 C 0.85323 0.16116 0.20191 0.0
C517 C 0.82997 0.18525 0.14661 0.0
N518 N 0.92384 0.26489 0.2114 0.0
N519 N 0.74645 0.08626 0.14088 0.0
H520 H 0.84752 0.23771 0.11128 0.0
H521 H 0.79772 0.16358 0.10335 0.0
H522 H 0.7205 1.04355 0.14708 0.0
H523 H 0.73032 0.09397 0.12242 0.0
H524 H 0.92905 0.26123 0.23302 0.0
H525 H 0.94921 0.30781 0.20538 0.0
H526 H 0.90485 0.17554 0.23965 0.0
H527 H 0.84487 0.10504 0.2344 0.0
C528 C 0.15804 0.6897 0.06393 0.0
C529 C 0.14043 0.7127 0.08776 0.0
C530 C 0.18077 0.80756 0.06675 0.0
C531 C 0.19713 0.78445 0.04254 0.0
N532 N 0.18962 0.70022 0.01483 0.0
N533 N 1.11833 0.78605 0.10753 0.0
C534 C 0.18209 0.72437 0.0401 0.0
C535 C 0.14659 0.76938 0.08776 0.0
N536 N 0.15432 0.6361 0.06453 0.0
N537 N 0.19995 0.86644 0.07034 0.0
H538 H 1.09117 0.7581 0.1226 0.0
H539 H 1.1166 0.82467 0.10698 0.0
H540 H 0.22597 0.89622 0.05565 0.0
H541 H 0.19442 0.88652 0.08908 0.0
H542 H 0.17319 0.62029 0.04942 0.0
H543 H 0.1358 0.6089 0.08126 0.0
H544 H 0.17404 0.65539 0.01075 0.0
H545 H 0.20701 0.72426 0.99695 0.0
C546 C 0.58088 0.90559 0.39878 0.0
C547 C 0.57203 0.95456 0.40378 0.0
C548 C 0.56221 0.95772 0.35199 0.0
C549 C 0.58005 0.91518 0.34728 0.0
N550 N 0.61146 0.85177 0.3659 0.0
N551 N 0.55965 1.03118 0.38509 0.0
C552 C 0.59029 0.88957 0.37059 0.0
C553 C 0.56322 0.98124 0.38038 0.0
N554 N 0.57876 0.87326 0.42091 0.0
N555 N 0.54429 0.9755 0.32925 0.0
H556 H 0.56119 1.05041 0.40547 0.0
H557 H 0.55991 1.05634 0.36879 0.0
H558 H 0.5436 0.95938 0.30821 0.0
H559 H 0.52527 1.00198 0.33141 0.0
H560 H 0.57844 0.83351 0.41808 0.0
H561 H 0.57124 0.88274 0.44189 0.0
H562 H 0.62714 0.83776 0.38224 0.0
H563 H 0.61735 0.83751 0.34549 0.0
C564 C 0.70158 0.63485 0.73525 0.0
C565 C 0.67351 0.58011 0.74788 0.0
C566 C 0.71555 0.53971 0.71266 0.0
C567 C 0.74497 0.59492 0.70059 0.0
N568 N 0.75515 0.68998 0.69522 0.0
N569 N 0.63965 0.47597 0.74372 0.0
C570 C 0.73442 0.64094 0.71025 0.0
C571 C 0.67554 0.53092 0.73486 0.0
N572 N 0.69781 0.68134 0.74765 0.0
N573 N 0.72829 0.49676 0.70399 0.0
H574 H 0.61067 0.46768 0.76031 0.0
H575 H 0.63493 0.43776 0.7331 0.0
H576 H 0.75686 0.50128 0.68756 0.0
H577 H 0.71401 0.45835 0.7144 0.0
H578 H 0.72316 0.72437 0.74194 0.0
H579 H 0.67042 0.67709 0.76461 0.0
H580 H 0.74438 0.72273 0.69945 0.0
H581 H 0.77954 0.69579 0.67686 0.0
C582 C 0.54493 1.02763 0.59943 0.0
C583 C 0.59561 1.04566 0.58273 0.0
C584 C 0.65642 1.07105 0.62685 0.0
C585 C 0.60644 1.05639 0.64364 0.0
N586 N 0.50502 1.03075 0.64603 0.0
N587 N 0.70096 0.09683 0.58066 0.0
C588 C 0.5512 1.03764 0.62993 0.0
C589 C 0.65176 1.071 0.59653 0.0
N590 N 0.49055 0.99852 0.58629 0.0
N591 N 0.70801 1.0829 0.63976 0.0
H592 H 0.69923 0.09893 0.55856 0.0
H593 H 0.74325 0.12134 0.58964 0.0
H594 H 0.71327 1.0831 0.66183 0.0
H595 H 0.74404 0.08738 0.62846 0.0
H596 H 0.45175 0.97807 0.59736 0.0
H597 H 0.48415 0.99105 0.56413 0.0
H598 H 0.46544 1.02339 0.63727 0.0
H599 H 0.50787 1.03717 0.66831 0.0
C600 C 0.59648 0.62629 0.93841 0.0
C601 C 0.57169 0.57049 0.92288 0.0
C602 C 0.53332 0.52289 0.96776 0.0
C603 C 0.56554 0.57828 0.98362 0.0
N604 N 0.63366 0.68247 0.98405 0.0
N605 N 0.51999 0.46486 0.92298 0.0
C606 C 0.59841 0.63001 0.96892 0.0
C607 C 0.54045 0.51848 0.93757 0.0
N608 N 0.61685 0.67585 0.92386 0.0
N609 N 0.49498 0.47466 0.98153 0.0
H610 H 0.52354 0.45989 0.90093 0.0
H611 H 0.50309 0.42562 0.93292 0.0
H612 H 0.48863 0.47637 0.0035 0.0
H613 H 0.4658 0.43435 0.97091 0.0
H614 H 0.63036 0.71739 0.93379 0.0
H615 H 0.61429 0.67437 0.90159 0.0
H616 H 0.66378 0.72027 0.97452 0.0
H617 H 0.63652 0.6872 0.00635 0.0
C618 C 1.02001 0.53 0.2618 0.0
C619 C 1.07008 0.58112 0.25282 0.0
C620 C 1.11277 0.6031 0.30187 0.0
C621 C 1.0652 0.54954 0.31024 0.0
N622 N 0.97704 0.45792 0.29744 0.0
N623 N 0.16936 0.65998 0.26306 0.0
C624 C 1.01976 0.5118 0.28996 0.0
C625 C 1.11782 0.61605 0.27256 0.0
N626 N 0.97173 0.50015 0.24384 0.0
N627 N 0.15273 0.64239 0.3221 0.0
H628 H 0.17565 0.67036 0.24177 0.0
H629 H 0.2078 0.68245 0.27564 0.0
H630 H 0.15109 0.63428 0.34369 0.0
H631 H 0.18446 0.68502 0.318 0.0
H632 H 0.93164 0.46632 0.25005 0.0
H633 H 0.97015 0.51233 0.22327 0.0
H634 H 0.94646 0.42555 0.28289 0.0
H635 H 0.97471 0.44389 0.31797 0.0
loop_
_geom_bond_atom_site_label_1
_geom_bond_atom_site_label_2
_geom_bond_distance
_geom_bond_site_symmetry_2
_ccdc_geom_bond_type
Eu0 C9 2.828 . S
Eu0 O11 2.392 1_655 S
Eu0 O13 2.418 . S
Eu0 O18 2.373 . S
Eu0 O21 2.488 . S
Eu0 O22 2.471 . S
Eu0 O23 2.349 . S
Eu1 O10 2.373 . S
Eu1 O14 2.488 . S
Eu1 O15 2.471 . S
Eu1 O16 2.349 . S
Eu1 O19 2.392 1_455 S
Eu1 O20 2.418 . S
Eu1 C30 2.828 . S
C2 O20 1.244 . S
C2 O23 1.265 1_455 S
C3 C4 1.379 . S
C3 C7 1.373 . S
C3 C9 1.505 . S
C4 C3 1.379 . S
C4 C6 1.369 . S
C4 H32 0.930 . S
C5 C7 1.383 . S
C5 C8 1.382 . S
C5 H33 0.930 . S
C6 C4 1.369 . S
C6 C8 1.392 . S
C6 H34 0.930 . S
C7 C3 1.373 . S
C7 C5 1.383 . S
C7 H35 0.931 . S
C8 C5 1.382 . S
C8 C6 1.392 . S
C9 Eu0 2.828 . S
C9 C3 1.505 . S
C9 O21 1.249 . S
C9 O22 1.244 . S
O10 Eu1 2.373 . S
O10 C12 1.258 . S
O11 Eu0 2.392 1_455 S
O11 C12 1.242 . S
C12 O10 1.258 . S
C12 O11 1.242 . S
O13 Eu0 2.418 . S
O13 C17 1.244 . S
O14 Eu1 2.488 . S
O14 C30 1.249 . S
O15 Eu1 2.471 . S
O15 C30 1.244 . S
O16 Eu1 2.349 . S
O16 C17 1.265 1_455 S
C17 O13 1.244 . S
C17 O16 1.265 1_655 S
O18 Eu0 2.373 . S
O18 C31 1.258 . S
O19 Eu1 2.392 1_655 S
O19 C31 1.242 . S
O20 Eu1 2.418 . S
O20 C2 1.244 . S
O21 Eu0 2.488 . S
O21 C9 1.249 . S
O22 Eu0 2.471 . S
O22 C9 1.244 . S
O23 Eu0 2.349 . S
O23 C2 1.265 1_655 S
C24 C25 1.379 . S
C24 C28 1.373 . S
C24 C30 1.505 . S
C25 C24 1.379 . S
C25 C27 1.369 . S
C25 H36 0.930 . S
C26 C28 1.383 . S
C26 C29 1.382 . S
C26 H37 0.930 . S
C27 C25 1.369 . S
C27 C29 1.392 . S
C27 H38 0.930 . S
C28 C24 1.373 . S
C28 C26 1.383 . S
C28 H39 0.931 . S
C29 C26 1.382 . S
C29 C27 1.392 . S
C30 Eu1 2.828 . S
C30 O14 1.249 . S
C30 O15 1.244 . S
C30 C24 1.505 . S
C31 O18 1.258 . S
C31 O19 1.242 . S
H32 C4 0.930 . S
H33 C5 0.930 . S
H34 C6 0.930 . S
H35 C7 0.931 . S
H36 C25 0.930 . S
H37 C26 0.930 . S
H38 C27 0.930 . S
H39 C28 0.931 . S
Eu40 C49 2.828 . S
Eu40 O51 2.392 1_565 S
Eu40 O53 2.418 . S
Eu40 O58 2.373 . S
Eu40 O61 2.488 . S
Eu40 O62 2.471 . S
Eu40 O63 2.349 . S
Eu41 O50 2.373 . S
Eu41 O54 2.488 . S
Eu41 O55 2.471 . S
Eu41 O56 2.349 . S
Eu41 O59 2.392 1_545 S
Eu41 O60 2.418 . S
Eu41 C70 2.828 . S
C42 O60 1.244 . S
C42 O63 1.265 1_545 S
C43 C44 1.379 . S
C43 C47 1.373 . S
C43 C49 1.505 . S
C44 C43 1.379 . S
C44 C46 1.369 . S
C44 H72 0.930 . S
C45 C47 1.383 . S
C45 C48 1.382 . S
C45 H73 0.930 . S
C46 C44 1.369 . S
C46 C48 1.392 . S
C46 H74 0.930 . S
C47 C43 1.373 . S
C47 C45 1.383 . S
C47 H75 0.931 . S
C48 C45 1.382 . S
C48 C46 1.392 . S
C49 Eu40 2.828 . S
C49 C43 1.505 . S
C49 O61 1.249 . S
C49 O62 1.244 . S
O50 Eu41 2.373 . S
O50 C52 1.258 . S
O51 Eu40 2.392 1_545 S
O51 C52 1.242 . S
C52 O50 1.258 . S
C52 O51 1.242 . S
O53 Eu40 2.418 . S
O53 C57 1.244 1_565 S
O54 Eu41 2.488 . S
O54 C70 1.249 . S
O55 Eu41 2.471 . S
O55 C70 1.244 . S
O56 Eu41 2.349 . S
O56 C57 1.265 . S
C57 O53 1.244 1_545 S
C57 O56 1.265 . S
O58 Eu40 2.373 . S
O58 C71 1.258 . S
O59 Eu41 2.392 1_565 S
O59 C71 1.242 . S
O60 Eu41 2.418 . S
O60 C42 1.244 . S
O61 Eu40 2.488 . S
O61 C49 1.249 . S
O62 Eu40 2.471 . S
O62 C49 1.244 . S
O63 Eu40 2.349 . S
O63 C42 1.265 1_565 S
C64 C65 1.379 . S
C64 C68 1.373 . S
C64 C70 1.505 . S
C65 C64 1.379 . S
C65 C67 1.369 . S
C65 H76 0.930 . S
C66 C68 1.383 . S
C66 C69 1.382 . S
C66 H77 0.930 . S
C67 C65 1.369 . S
C67 C69 1.392 . S
C67 H78 0.930 . S
C68 C64 1.373 . S
C68 C66 1.383 . S
C68 H79 0.931 . S
C69 C66 1.382 . S
C69 C67 1.392 . S
C70 Eu41 2.828 . S
C70 O54 1.249 . S
C70 O55 1.244 . S
C70 C64 1.505 . S
C71 O58 1.258 . S
C71 O59 1.242 . S
H72 C44 0.930 . S
H73 C45 0.930 . S
H74 C46 0.930 . S
H75 C47 0.931 . S
H76 C65 0.930 . S
H77 C66 0.930 . S
H78 C67 0.930 . S
H79 C68 0.931 . S
Eu80 C89 2.828 . S
Eu80 O91 2.392 . S
Eu80 O93 2.418 . S
Eu80 O98 2.373 . S
Eu80 O101 2.488 . S
Eu80 O102 2.471 . S
Eu80 O103 2.349 . S
Eu81 O90 2.373 . S
Eu81 O94 2.488 . S
Eu81 O95 2.471 . S
Eu81 O96 2.349 . S
Eu81 O99 2.392 . S
Eu81 O100 2.418 . S
Eu81 C110 2.828 . S
C82 O100 1.244 . S
C82 O103 1.265 . S
C83 C84 1.379 . S
C83 C87 1.373 . S
C83 C89 1.505 . S
C84 C83 1.379 . S
C84 C86 1.369 . S
C84 H112 0.930 . S
C85 C87 1.383 . S
C85 C88 1.382 . S
C85 H113 0.930 . S
C86 C84 1.369 . S
C86 C88 1.392 . S
C86 H114 0.930 . S
C87 C83 1.373 . S
C87 C85 1.383 . S
C87 H115 0.931 . S
C88 C85 1.382 . S
C88 C86 1.392 . S
C89 Eu80 2.828 . S
C89 C83 1.505 . S
C89 O101 1.249 . S
C89 O102 1.244 . S
O90 Eu81 2.373 . S
O90 C92 1.258 . S
O91 Eu80 2.392 . S
O91 C92 1.242 . S
C92 O90 1.258 . S
C92 O91 1.242 . S
O93 Eu80 2.418 . S
O93 C97 1.244 . S
O94 Eu81 2.488 . S
O94 C110 1.249 . S
O95 Eu81 2.471 . S
O95 C110 1.244 . S
O96 Eu81 2.349 . S
O96 C97 1.265 . S
C97 O93 1.244 . S
C97 O96 1.265 . S
O98 Eu80 2.373 . S
O98 C111 1.258 . S
O99 Eu81 2.392 . S
O99 C111 1.242 . S
O100 Eu81 2.418 . S
O100 C82 1.244 . S
O101 Eu80 2.488 . S
O101 C89 1.249 . S
O102 Eu80 2.471 . S
O102 C89 1.244 . S
O103 Eu80 2.349 . S
O103 C82 1.265 . S
C104 C105 1.379 . S
C104 C108 1.373 . S
C104 C110 1.505 . S
C105 C104 1.379 . S
C105 C107 1.369 . S
C105 H116 0.930 . S
C106 C108 1.383 . S
C106 C109 1.382 . S
C106 H117 0.930 . S
C107 C105 1.369 . S
C107 C109 1.392 . S
C107 H118 0.930 . S
C108 C104 1.373 . S
C108 C106 1.383 . S
C108 H119 0.931 . S
C109 C106 1.382 . S
C109 C107 1.392 . S
C110 Eu81 2.828 . S
C110 O94 1.249 . S
C110 O95 1.244 . S
C110 C104 1.505 . S
C111 O98 1.258 . S
C111 O99 1.242 . S
H112 C84 0.930 . S
H113 C85 0.930 . S
H114 C86 0.930 . S
H115 C87 0.931 . S
H116 C105 0.930 . S
H117 C106 0.930 . S
H118 C107 0.930 . S
H119 C108 0.931 . S
P120 O131 1.490 . S
P120 C134 1.812 . S
P120 C140 1.803 1_565 S
P120 C146 1.819 1_565 S
H121 C135 0.941 . S
H122 C136 0.939 . S
H123 C138 0.940 . S
H124 C139 0.940 . S
H125 C141 0.939 . S
H126 C142 0.942 . S
H127 C144 0.940 . S
H128 C145 0.939 . S
H129 C147 0.941 . S
H130 C151 0.939 . S
O131 P120 1.490 . S
H132 C148 0.939 . S
H133 C150 0.940 . S
C134 P120 1.812 . S
C134 C135 1.389 . S
C134 C139 1.391 . S
C135 H121 0.941 . S
C135 C134 1.389 . S
C135 C136 1.397 . S
C136 H122 0.939 . S
C136 C135 1.397 . S
C136 C137 1.378 . S
C137 C136 1.378 . S
C137 C138 1.378 . S
C138 H123 0.940 . S
C138 C137 1.378 . S
C138 C139 1.396 . S
C139 H124 0.940 . S
C139 C134 1.391 . S
C139 C138 1.396 . S
C140 P120 1.803 1_545 S
C140 C141 1.378 . S
C140 C145 1.400 . S
C141 H125 0.939 . S
C141 C140 1.378 . S
C141 C142 1.361 . S
C142 H126 0.942 . S
C142 C141 1.361 . S
C142 C143 1.369 . S
C143 C142 1.369 . S
C143 C144 1.404 . S
C144 H127 0.940 . S
C144 C143 1.404 . S
C144 C145 1.389 . S
C145 H128 0.939 . S
C145 C140 1.400 . S
C145 C144 1.389 . S
C146 P120 1.819 1_545 S
C146 C147 1.391 1_545 S
C146 C151 1.391 . S
C147 H129 0.941 . S
C147 C146 1.391 1_565 S
C147 C148 1.396 . S
C148 H132 0.939 . S
C148 C147 1.396 . S
C148 C149 1.397 1_565 S
C149 C148 1.397 1_545 S
C149 C150 1.385 . S
C150 H133 0.940 . S
C150 C149 1.385 . S
C150 C151 1.388 . S
C151 H130 0.939 . S
C151 C146 1.391 . S
C151 C150 1.388 . S
P152 O163 1.490 . S
P152 C166 1.812 . S
P152 C172 1.803 . S
P152 C178 1.819 . S
H153 C167 0.941 . S
H154 C168 0.939 . S
H155 C170 0.940 . S
H156 C171 0.940 . S
H157 C173 0.939 . S
H158 C174 0.942 . S
H159 C176 0.940 . S
H160 C177 0.939 . S
H161 C179 0.941 . S
H162 C183 0.939 . S
O163 P152 1.490 . S
H164 C180 0.939 . S
H165 C182 0.940 . S
C166 P152 1.812 . S
C166 C167 1.389 . S
C166 C171 1.391 . S
C167 H153 0.941 . S
C167 C166 1.389 . S
C167 C168 1.397 . S
C168 H154 0.939 . S
C168 C167 1.397 . S
C168 C169 1.378 . S
C169 C168 1.378 . S
C169 C170 1.378 . S
C170 H155 0.940 . S
C170 C169 1.378 . S
C170 C171 1.396 . S
C171 H156 0.940 . S
C171 C166 1.391 . S
C171 C170 1.396 . S
C172 P152 1.803 . S
C172 C173 1.378 . S
C172 C177 1.400 . S
C173 H157 0.939 . S
C173 C172 1.378 . S
C173 C174 1.361 . S
C174 H158 0.942 . S
C174 C173 1.361 . S
C174 C175 1.369 . S
C175 C174 1.369 . S
C175 C176 1.404 . S
C176 H159 0.940 . S
C176 C175 1.404 . S
C176 C177 1.389 . S
C177 H160 0.939 . S
C177 C172 1.400 . S
C177 C176 1.389 . S
C178 P152 1.819 . S
C178 C179 1.391 . S
C178 C183 1.391 . S
C179 H161 0.941 . S
C179 C178 1.391 . S
C179 C180 1.396 . S
C180 H164 0.939 . S
C180 C179 1.396 . S
C180 C181 1.397 . S
C181 C180 1.397 . S
C181 C182 1.385 . S
C182 H165 0.940 . S
C182 C181 1.385 . S
C182 C183 1.388 . S
C183 H162 0.939 . S
C183 C178 1.391 . S
C183 C182 1.388 . S
P184 O195 1.490 . S
P184 C198 1.812 . S
P184 C204 1.803 . S
P184 C210 1.819 . S
H185 C199 0.941 . S
H186 C200 0.939 . S
H187 C202 0.940 . S
H188 C203 0.940 . S
H189 C205 0.939 1_455 S
H190 C206 0.942 . S
H191 C208 0.940 . S
H192 C209 0.921 1_455 S
H193 C211 0.941 . S
H194 C215 0.939 1_655 S
O195 P184 1.490 . S
H196 C212 0.939 . S
H197 C214 0.940 1_655 S
C198 P184 1.812 . S
C198 C199 1.389 . S
C198 C203 1.391 . S
C199 H185 0.941 . S
C199 C198 1.389 . S
C199 C200 1.397 . S
C200 H186 0.939 . S
C200 C199 1.397 . S
C200 C201 1.378 . S
C201 C200 1.378 . S
C201 C202 1.378 . S
C202 H187 0.940 . S
C202 C201 1.378 . S
C202 C203 1.396 . S
C203 H188 0.940 . S
C203 C198 1.391 . S
C203 C202 1.396 . S
C204 P184 1.803 . S
C204 C205 1.378 1_455 S
C204 C209 1.400 1_455 S
C205 H189 0.939 1_655 S
C205 C204 1.378 1_655 S
C205 C206 1.361 . S
C206 H190 0.942 . S
C206 C205 1.361 . S
C206 C207 1.369 . S
C207 C206 1.369 . S
C207 C208 1.404 . S
C208 H191 0.940 . S
C208 C207 1.404 . S
C208 C209 1.389 . S
C209 H192 0.921 1_655 S
C209 C204 1.400 1_655 S
C209 C208 1.389 . S
C210 P184 1.819 . S
C210 C211 1.391 . S
C210 C215 1.391 . S
C211 H193 0.941 . S
C211 C210 1.391 . S
C211 C212 1.396 1_556 S
C212 H196 0.939 . S
C212 C211 1.396 1_554 S
C212 C213 1.397 . S
C213 C212 1.397 . S
C213 C214 1.385 1_554 S
C214 H197 0.940 1_455 S
C214 C213 1.385 1_556 S
C214 C215 1.388 . S
C215 H194 0.939 1_455 S
C215 C210 1.391 . S
C215 C214 1.388 . S
P216 O227 1.490 . S
P216 C230 1.812 . S
P216 C236 1.803 1_455 S
P216 C242 1.819 . S
H217 C231 0.941 . S
H218 C232 0.939 . S
H219 C234 0.940 . S
H220 C235 0.940 . S
H221 C237 0.939 . S
H222 C238 0.942 . S
H223 C240 0.940 . S
H224 C241 0.939 . S
H225 C243 0.941 . S
H226 C247 0.939 . S
O227 P216 1.490 . S
H228 C244 0.939 . S
H229 C246 0.940 . S
C230 P216 1.812 . S
C230 C231 1.389 . S
C230 C235 1.391 . S
C231 H217 0.941 . S
C231 C230 1.389 . S
C231 C232 1.397 . S
C232 H218 0.939 . S
C232 C231 1.397 . S
C232 C233 1.378 . S
C233 C232 1.378 . S
C233 C234 1.378 . S
C234 H219 0.940 . S
C234 C233 1.378 . S
C234 C235 1.396 . S
C235 H220 0.940 . S
C235 C230 1.391 . S
C235 C234 1.396 . S
C236 P216 1.803 1_655 S
C236 C237 1.378 . S
C236 C241 1.400 . S
C237 H221 0.939 . S
C237 C236 1.378 . S
C237 C238 1.361 . S
C238 H222 0.942 . S
C238 C237 1.361 . S
C238 C239 1.369 . S
C239 C238 1.369 . S
C239 C240 1.404 . S
C240 H223 0.940 . S
C240 C239 1.404 . S
C240 C241 1.389 . S
C241 H224 0.939 . S
C241 C236 1.400 . S
C241 C240 1.389 . S
C242 P216 1.819 . S
C242 C243 1.391 . S
C242 C247 1.391 1_455 S
C243 H225 0.941 . S
C243 C242 1.391 . S
C243 C244 1.396 . S
C244 H228 0.939 . S
C244 C243 1.396 . S
C244 C245 1.397 . S
C245 C244 1.397 . S
C245 C246 1.385 1_455 S
C246 H229 0.940 . S
C246 C245 1.385 1_655 S
C246 C247 1.388 . S
C247 H226 0.939 . S
C247 C242 1.391 1_655 S
C247 C246 1.388 . S
P248 O259 1.490 . S
P248 C262 1.812 . S
P248 C268 1.803 1_545 S
P248 C274 1.819 . S
H249 C263 0.941 . S
H250 C264 0.939 . S
H251 C266 0.940 . S
H252 C267 0.940 . S
H253 C269 0.939 . S
H254 C270 0.942 . S
H255 C272 0.940 . S
H256 C273 0.939 . S
H257 C275 0.941 . S
H258 C279 0.939 . S
O259 P248 1.490 . S
H260 C276 0.939 . S
H261 C278 0.940 . S
C262 P248 1.812 . S
C262 C263 1.389 . S
C262 C267 1.391 . S
C263 H249 0.941 . S
C263 C262 1.389 . S
C263 C264 1.397 . S
C264 H250 0.939 . S
C264 C263 1.397 . S
C264 C265 1.378 . S
C265 C264 1.378 . S
C265 C266 1.378 . S
C266 H251 0.940 . S
C266 C265 1.378 . S
C266 C267 1.396 . S
C267 H252 0.940 . S
C267 C262 1.391 . S
C267 C266 1.396 . S
C268 P248 1.803 1_565 S
C268 C269 1.378 . S
C268 C273 1.400 . S
C269 H253 0.939 . S
C269 C268 1.378 . S
C269 C270 1.361 . S
C270 H254 0.942 . S
C270 C269 1.361 . S
C270 C271 1.369 . S
C271 C270 1.369 . S
C271 C272 1.404 . S
C272 H255 0.940 . S
C272 C271 1.404 . S
C272 C273 1.389 . S
C273 H256 0.939 . S
C273 C268 1.400 . S
C273 C272 1.389 . S
C274 P248 1.819 . S
C274 C275 1.391 . S
C274 C279 1.391 1_545 S
C275 H257 0.941 . S
C275 C274 1.391 . S
C275 C276 1.396 . S
C276 H260 0.939 . S
C276 C275 1.396 . S
C276 C277 1.397 . S
C277 C276 1.397 . S
C277 C278 1.385 1_545 S
C278 H261 0.940 . S
C278 C277 1.385 1_565 S
C278 C279 1.388 . S
C279 H258 0.939 . S
C279 C274 1.391 1_565 S
C279 C278 1.388 . S
P280 O291 1.490 . S
P280 C294 1.812 . S
P280 C300 1.803 . S
P280 C306 1.819 . S
H281 C295 0.941 . S
H282 C296 0.939 . S
H283 C298 0.940 . S
H284 C299 0.940 . S
H285 C301 0.939 . S
H286 C302 0.942 . S
H287 C304 0.940 . S
H288 C305 0.939 . S
H289 C307 0.941 . S
H290 C311 0.939 . S
O291 P280 1.490 . S
H292 C308 0.939 . S
H293 C310 0.940 . S
C294 P280 1.812 . S
C294 C295 1.389 . S
C294 C299 1.391 . S
C295 H281 0.941 . S
C295 C294 1.389 . S
C295 C296 1.397 . S
C296 H282 0.939 . S
C296 C295 1.397 . S
C296 C297 1.378 . S
C297 C296 1.378 . S
C297 C298 1.378 . S
C298 H283 0.940 . S
C298 C297 1.378 . S
C298 C299 1.396 . S
C299 H284 0.940 . S
C299 C294 1.391 . S
C299 C298 1.396 . S
C300 P280 1.803 . S
C300 C301 1.378 . S
C300 C305 1.400 . S
C301 H285 0.939 . S
C301 C300 1.378 . S
C301 C302 1.361 . S
C302 H286 0.942 . S
C302 C301 1.361 . S
C302 C303 1.369 . S
C303 C302 1.369 . S
C303 C304 1.404 . S
C304 H287 0.940 . S
C304 C303 1.404 . S
C304 C305 1.389 . S
C305 H288 0.939 . S
C305 C300 1.400 . S
C305 C304 1.389 . S
C306 P280 1.819 . S
C306 C307 1.391 . S
C306 C311 1.391 . S
C307 H289 0.941 . S
C307 C306 1.391 . S
C307 C308 1.396 . S
C308 H292 0.939 . S
C308 C307 1.396 . S
C308 C309 1.397 . S
C309 C308 1.397 . S
C309 C310 1.385 . S
C310 H293 0.940 . S
C310 C309 1.385 . S
C310 C311 1.388 . S
C311 H290 0.939 . S
C311 C306 1.391 . S
C311 C310 1.388 . S
C312 C313 1.363 . S
C312 C318 1.379 . S
C312 N320 1.356 . S
C313 C312 1.363 . S
C313 C319 1.363 . S
C314 C315 1.363 . S
C314 C319 1.379 . S
C314 N321 1.356 . S
C315 C314 1.363 . S
C315 C318 1.363 . S
N316 C318 1.356 . S
N316 H328 0.984 . S
N316 H329 0.985 . S
N317 C319 1.356 . S
N317 H322 0.984 . S
N317 H323 0.985 . S
C318 C312 1.379 . S
C318 C315 1.363 . S
C318 N316 1.356 . S
C319 C313 1.363 . S
C319 C314 1.379 . S
C319 N317 1.356 . S
N320 C312 1.356 . S
N320 H326 0.984 . S
N320 H327 0.984 . S
N321 C314 1.356 . S
N321 H324 0.984 . S
N321 H325 0.985 . S
H322 N317 0.984 . S
H323 N317 0.985 . S
H324 N321 0.984 . S
H325 N321 0.985 . S
H326 N320 0.984 . S
H327 N320 0.984 . S
H328 N316 0.984 . S
H329 N316 0.985 . S
C330 C331 1.363 . S
C330 C336 1.379 . S
C330 N338 1.356 . S
C331 C330 1.363 . S
C331 C337 1.363 . S
C332 C333 1.363 . S
C332 C337 1.379 . S
C332 N339 1.356 . S
C333 C332 1.363 . S
C333 C336 1.363 . S
N334 C336 1.356 . S
N334 H346 0.984 . S
N334 H347 0.985 . S
N335 C337 1.356 . S
N335 H340 0.984 . S
N335 H341 0.985 . S
C336 C330 1.379 . S
C336 C333 1.363 . S
C336 N334 1.356 . S
C337 C331 1.363 . S
C337 C332 1.379 . S
C337 N335 1.356 . S
N338 C330 1.356 . S
N338 H344 0.984 . S
N338 H345 0.984 . S
N339 C332 1.356 . S
N339 H342 0.984 . S
N339 H343 0.985 . S
H340 N335 0.984 . S
H341 N335 0.985 . S
H342 N339 0.984 . S
H343 N339 0.985 . S
H344 N338 0.984 . S
H345 N338 0.984 . S
H346 N334 0.984 . S
H347 N334 0.985 . S
C348 C349 1.363 . S
C348 C354 1.379 . S
C348 N356 1.356 . S
C349 C348 1.363 . S
C349 C355 1.363 . S
C350 C351 1.363 . S
C350 C355 1.379 . S
C350 N357 1.356 . S
C351 C350 1.363 . S
C351 C354 1.363 . S
N352 C354 1.356 . S
N352 H364 0.984 . S
N352 H365 0.985 . S
N353 C355 1.356 . S
N353 H358 0.984 . S
N353 H359 0.985 . S
C354 C348 1.379 . S
C354 C351 1.363 . S
C354 N352 1.356 . S
C355 C349 1.363 . S
C355 C350 1.379 . S
C355 N353 1.356 . S
N356 C348 1.356 . S
N356 H362 0.984 . S
N356 H363 0.984 . S
N357 C350 1.356 . S
N357 H360 0.984 . S
N357 H361 0.985 . S
H358 N353 0.984 . S
H359 N353 0.985 . S
H360 N357 0.984 . S
H361 N357 0.985 . S
H362 N356 0.984 . S
H363 N356 0.984 . S
H364 N352 0.984 . S
H365 N352 0.985 . S
C366 C367 1.363 . S
C366 C372 1.379 . S
C366 N374 1.356 . S
C367 C366 1.363 . S
C367 C373 1.363 . S
C368 C369 1.363 . S
C368 C373 1.379 . S
C368 N375 1.356 . S
C369 C368 1.363 . S
C369 C372 1.363 . S
N370 C372 1.356 . S
N370 H382 0.984 . S
N370 H383 0.985 . S
N371 C373 1.356 . S
N371 H376 0.984 . S
N371 H377 0.985 . S
C372 C366 1.379 . S
C372 C369 1.363 . S
C372 N370 1.356 . S
C373 C367 1.363 . S
C373 C368 1.379 . S
C373 N371 1.356 . S
N374 C366 1.356 . S
N374 H380 0.984 . S
N374 H381 0.984 . S
N375 C368 1.356 . S
N375 H378 0.984 . S
N375 H379 0.985 . S
H376 N371 0.984 . S
H377 N371 0.985 . S
H378 N375 0.984 . S
H379 N375 0.985 . S
H380 N374 0.984 . S
H381 N374 0.984 . S
H382 N370 0.984 . S
H383 N370 0.985 . S
C384 C385 1.363 . S
C384 C390 1.379 . S
C384 N392 1.356 . S
C385 C384 1.363 . S
C385 C391 1.363 . S
C386 C387 1.363 . S
C386 C391 1.379 . S
C386 N393 1.356 . S
C387 C386 1.363 . S
C387 C390 1.363 . S
N388 C390 1.356 . S
N388 H400 0.984 . S
N388 H401 0.985 . S
N389 C391 1.356 . S
N389 H394 0.984 . S
N389 H395 0.985 . S
C390 C384 1.379 . S
C390 C387 1.363 . S
C390 N388 1.356 . S
C391 C385 1.363 . S
C391 C386 1.379 . S
C391 N389 1.356 . S
N392 C384 1.356 . S
N392 H398 0.984 . S
N392 H399 0.984 . S
N393 C386 1.356 . S
N393 H396 0.984 . S
N393 H397 0.985 . S
H394 N389 0.984 . S
H395 N389 0.985 . S
H396 N393 0.984 . S
H397 N393 0.985 . S
H398 N392 0.984 . S
H399 N392 0.984 . S
H400 N388 0.984 . S
H401 N388 0.985 . S
C402 C403 1.363 . S
C402 C408 1.379 . S
C402 N410 1.356 . S
C403 C402 1.363 . S
C403 C409 1.363 . S
C404 C405 1.363 . S
C404 C409 1.379 . S
C404 N411 1.356 . S
C405 C404 1.363 . S
C405 C408 1.363 . S
N406 C408 1.356 . S
N406 H418 0.984 . S
N406 H419 0.985 . S
N407 C409 1.356 . S
N407 H412 0.984 . S
N407 H413 0.985 . S
C408 C402 1.379 . S
C408 C405 1.363 . S
C408 N406 1.356 . S
C409 C403 1.363 . S
C409 C404 1.379 . S
C409 N407 1.356 . S
N410 C402 1.356 . S
N410 H416 0.984 . S
N410 H417 0.984 . S
N411 C404 1.356 . S
N411 H414 0.984 . S
N411 H415 0.985 . S
H412 N407 0.984 . S
H413 N407 0.985 . S
H414 N411 0.984 . S
H415 N411 0.985 . S
H416 N410 0.984 . S
H417 N410 0.984 . S
H418 N406 0.984 . S
H419 N406 0.985 . S
C420 C421 1.363 . S
C420 C426 1.379 . S
C420 N428 1.356 . S
C421 C420 1.363 . S
C421 C427 1.363 . S
C422 C423 1.363 . S
C422 C427 1.379 . S
C422 N429 1.356 . S
C423 C422 1.363 . S
C423 C426 1.363 . S
N424 C426 1.356 . S
N424 H436 0.984 . S
N424 H437 0.985 . S
N425 C427 1.356 . S
N425 H430 0.984 . S
N425 H431 0.985 . S
C426 C420 1.379 . S
C426 C423 1.363 . S
C426 N424 1.356 . S
C427 C421 1.363 . S
C427 C422 1.379 . S
C427 N425 1.356 . S
N428 C420 1.356 . S
N428 H434 0.984 . S
N428 H435 0.984 . S
N429 C422 1.356 . S
N429 H432 0.984 . S
N429 H433 0.985 . S
H430 N425 0.984 . S
H431 N425 0.985 . S
H432 N429 0.984 . S
H433 N429 0.985 . S
H434 N428 0.984 . S
H435 N428 0.984 . S
H436 N424 0.984 . S
H437 N424 0.985 . S
C438 C439 1.363 . S
C438 C444 1.379 . S
C438 N446 1.356 . S
C439 C438 1.363 . S
C439 C445 1.363 . S
C440 C441 1.363 . S
C440 C445 1.379 . S
C440 N447 1.356 . S
C441 C440 1.363 . S
C441 C444 1.363 . S
N442 C444 1.356 . S
N442 H454 0.984 . S
N442 H455 0.985 . S
N443 C445 1.356 . S
N443 H448 0.984 . S
N443 H449 0.985 . S
C444 C438 1.379 . S
C444 C441 1.363 . S
C444 N442 1.356 . S
C445 C439 1.363 . S
C445 C440 1.379 . S
C445 N443 1.356 . S
N446 C438 1.356 . S
N446 H452 0.984 . S
N446 H453 0.984 . S
N447 C440 1.356 . S
N447 H450 0.984 . S
N447 H451 0.985 . S
H448 N443 0.984 . S
H449 N443 0.985 . S
H450 N447 0.984 . S
H451 N447 0.985 . S
H452 N446 0.984 . S
H453 N446 0.984 . S
H454 N442 0.984 . S
H455 N442 0.985 . S
C456 C457 1.363 . S
C456 C462 1.379 . S
C456 N464 1.356 . S
C457 C456 1.363 . S
C457 C463 1.363 . S
C458 C459 1.363 . S
C458 C463 1.379 . S
C458 N465 1.356 . S
C459 C458 1.363 . S
C459 C462 1.363 . S
N460 C462 1.356 . S
N460 H472 0.984 . S
N460 H473 0.985 . S
N461 C463 1.356 . S
N461 H466 0.984 . S
N461 H467 0.985 . S
C462 C456 1.379 . S
C462 C459 1.363 . S
C462 N460 1.356 . S
C463 C457 1.363 . S
C463 C458 1.379 . S
C463 N461 1.356 . S
N464 C456 1.356 . S
N464 H470 0.984 . S
N464 H471 0.984 . S
N465 C458 1.356 . S
N465 H468 0.984 . S
N465 H469 0.985 . S
H466 N461 0.984 . S
H467 N461 0.985 . S
H468 N465 0.984 . S
H469 N465 0.985 . S
H470 N464 0.984 . S
H471 N464 0.984 . S
H472 N460 0.984 . S
H473 N460 0.985 . S
C474 C475 1.363 . S
C474 C480 1.379 . S
C474 N482 1.356 . S
C475 C474 1.363 . S
C475 C481 1.363 . S
C476 C477 1.363 . S
C476 C481 1.379 . S
C476 N483 1.356 . S
C477 C476 1.363 . S
C477 C480 1.363 . S
N478 C480 1.356 . S
N478 H490 0.984 . S
N478 H491 0.985 . S
N479 C481 1.356 . S
N479 H484 0.984 . S
N479 H485 0.985 . S
C480 C474 1.379 . S
C480 C477 1.363 . S
C480 N478 1.356 . S
C481 C475 1.363 . S
C481 C476 1.379 . S
C481 N479 1.356 . S
N482 C474 1.356 . S
N482 H488 0.984 . S
N482 H489 0.984 . S
N483 C476 1.356 . S
N483 H486 0.984 . S
N483 H487 0.985 . S
H484 N479 0.984 . S
H485 N479 0.985 . S
H486 N483 0.984 . S
H487 N483 0.985 . S
H488 N482 0.984 . S
H489 N482 0.984 . S
H490 N478 0.984 . S
H491 N478 0.985 . S
C492 C493 1.363 . S
C492 C498 1.379 . S
C492 N500 1.356 . S
C493 C492 1.363 . S
C493 C499 1.363 . S
C494 C495 1.363 . S
C494 C499 1.379 . S
C494 N501 1.356 . S
C495 C494 1.363 . S
C495 C498 1.363 . S
N496 C498 1.356 . S
N496 H508 0.984 . S
N496 H509 0.985 . S
N497 C499 1.356 . S
N497 H502 0.984 . S
N497 H503 0.985 . S
C498 C492 1.379 . S
C498 C495 1.363 . S
C498 N496 1.356 . S
C499 C493 1.363 . S
C499 C494 1.379 . S
C499 N497 1.356 . S
N500 C492 1.356 . S
N500 H506 0.984 . S
N500 H507 0.984 . S
N501 C494 1.356 . S
N501 H504 0.984 . S
N501 H505 0.985 . S
H502 N497 0.984 . S
H503 N497 0.985 . S
H504 N501 0.984 . S
H505 N501 0.985 . S
H506 N500 0.984 . S
H507 N500 0.984 . S
H508 N496 0.984 . S
H509 N496 0.985 . S
C510 C511 1.363 . S
C510 C516 1.379 . S
C510 N518 1.356 . S
C511 C510 1.363 . S
C511 C517 1.363 . S
C512 C513 1.363 . S
C512 C517 1.379 . S
C512 N519 1.356 . S
C513 C512 1.363 . S
C513 C516 1.363 . S
N514 C516 1.356 . S
N514 H526 0.984 . S
N514 H527 0.985 . S
N515 C517 1.356 . S
N515 H520 0.984 . S
N515 H521 0.985 . S
C516 C510 1.379 . S
C516 C513 1.363 . S
C516 N514 1.356 . S
C517 C511 1.363 . S
C517 C512 1.379 . S
C517 N515 1.356 . S
N518 C510 1.356 . S
N518 H524 0.984 . S
N518 H525 0.984 . S
N519 C512 1.356 . S
N519 H522 0.984 . S
N519 H523 0.985 . S
H520 N515 0.984 . S
H521 N515 0.985 . S
H522 N519 0.984 . S
H523 N519 0.985 . S
H524 N518 0.984 . S
H525 N518 0.984 . S
H526 N514 0.984 . S
H527 N514 0.985 . S
C528 C529 1.363 . S
C528 C534 1.379 . S
C528 N536 1.356 . S
C529 C528 1.363 . S
C529 C535 1.363 . S
C530 C531 1.363 . S
C530 C535 1.379 . S
C530 N537 1.356 . S
C531 C530 1.363 . S
C531 C534 1.363 . S
N532 C534 1.356 . S
N532 H544 0.984 . S
N532 H545 0.985 1_554 S
N533 C535 1.356 . S
N533 H538 0.984 1_455 S
N533 H539 0.985 . S
C534 C528 1.379 . S
C534 C531 1.363 . S
C534 N532 1.356 . S
C535 C529 1.363 . S
C535 C530 1.379 . S
C535 N533 1.356 . S
N536 C528 1.356 . S
N536 H542 0.984 . S
N536 H543 0.984 1_455 S
N537 C530 1.356 . S
N537 H540 0.984 . S
N537 H541 0.985 . S
H538 N533 0.984 1_655 S
H539 N533 0.985 . S
H540 N537 0.984 . S
H541 N537 0.985 . S
H542 N536 0.984 . S
H543 N536 0.984 1_655 S
H544 N532 0.984 . S
H545 N532 0.985 1_556 S
C546 C547 1.363 1_565 S
C546 C552 1.379 . S
C546 N554 1.356 . S
C547 C546 1.363 1_545 S
C547 C553 1.363 . S
C548 C549 1.363 . S
C548 C553 1.379 . S
C548 N555 1.356 . S
C549 C548 1.363 . S
C549 C552 1.363 1_545 S
N550 C552 1.356 . S
N550 H562 0.984 . S
N550 H563 0.985 . S
N551 C553 1.356 . S
N551 H556 0.984 . S
N551 H557 0.985 . S
C552 C546 1.379 . S
C552 C549 1.363 1_565 S
C552 N550 1.356 . S
C553 C547 1.363 . S
C553 C548 1.379 . S
C553 N551 1.356 . S
N554 C546 1.356 . S
N554 H560 0.984 . S
N554 H561 0.984 . S
N555 C548 1.356 . S
N555 H558 0.984 . S
N555 H559 0.985 . S
H556 N551 0.984 . S
H557 N551 0.985 . S
H558 N555 0.984 . S
H559 N555 0.985 . S
H560 N554 0.984 . S
H561 N554 0.984 . S
H562 N550 0.984 . S
H563 N550 0.985 . S
C564 C565 1.363 . S
C564 C570 1.379 . S
C564 N572 1.356 . S
C565 C564 1.363 . S
C565 C571 1.363 . S
C566 C567 1.363 . S
C566 C571 1.379 . S
C566 N573 1.356 . S
C567 C566 1.363 . S
C567 C570 1.363 . S
N568 C570 1.356 . S
N568 H580 0.984 . S
N568 H581 0.985 . S
N569 C571 1.356 . S
N569 H574 0.984 . S
N569 H575 0.985 . S
C570 C564 1.379 . S
C570 C567 1.363 . S
C570 N568 1.356 . S
C571 C565 1.363 . S
C571 C566 1.379 . S
C571 N569 1.356 . S
N572 C564 1.356 . S
N572 H578 0.984 . S
N572 H579 0.984 . S
N573 C566 1.356 . S
N573 H576 0.984 . S
N573 H577 0.985 . S
H574 N569 0.984 . S
H575 N569 0.985 . S
H576 N573 0.984 . S
H577 N573 0.985 . S
H578 N572 0.984 . S
H579 N572 0.984 . S
H580 N568 0.984 . S
H581 N568 0.985 . S
C582 C583 1.363 1_565 S
C582 C588 1.379 . S
C582 N590 1.356 . S
C583 C582 1.363 1_545 S
C583 C589 1.363 . S
C584 C585 1.363 . S
C584 C589 1.379 . S
C584 N591 1.356 . S
C585 C584 1.363 . S
C585 C588 1.363 1_545 S
N586 C588 1.356 . S
N586 H598 0.984 . S
N586 H599 0.985 . S
N587 C589 1.356 . S
N587 H592 0.984 . S
N587 H593 0.985 . S
C588 C582 1.379 . S
C588 C585 1.363 1_565 S
C588 N586 1.356 . S
C589 C583 1.363 . S
C589 C584 1.379 . S
C589 N587 1.356 . S
N590 C582 1.356 . S
N590 H596 0.984 . S
N590 H597 0.984 . S
N591 C584 1.356 . S
N591 H594 0.984 . S
N591 H595 0.985 . S
H592 N587 0.984 . S
H593 N587 0.985 . S
H594 N591 0.984 . S
H595 N591 0.985 . S
H596 N590 0.984 . S
H597 N590 0.984 . S
H598 N586 0.984 . S
H599 N586 0.985 . S
C600 C601 1.363 . S
C600 C606 1.379 . S
C600 N608 1.356 . S
C601 C600 1.363 . S
C601 C607 1.363 . S
C602 C603 1.363 . S
C602 C607 1.379 . S
C602 N609 1.356 . S
C603 C602 1.363 . S
C603 C606 1.363 . S
N604 C606 1.356 . S
N604 H616 0.984 . S
N604 H617 0.985 1_556 S
N605 C607 1.356 . S
N605 H610 0.984 . S
N605 H611 0.985 . S
C606 C600 1.379 . S
C606 C603 1.363 . S
C606 N604 1.356 . S
C607 C601 1.363 . S
C607 C602 1.379 . S
C607 N605 1.356 . S
N608 C600 1.356 . S
N608 H614 0.984 . S
N608 H615 0.984 . S
N609 C602 1.356 . S
N609 H612 0.984 1_556 S
N609 H613 0.985 . S
H610 N605 0.984 . S
H611 N605 0.985 . S
H612 N609 0.984 1_554 S
H613 N609 0.985 . S
H614 N608 0.984 . S
H615 N608 0.984 . S
H616 N604 0.984 . S
H617 N604 0.985 1_554 S
C618 C619 1.371 . S
C618 C624 1.379 . S
C618 N626 1.356 . S
C619 C618 1.371 . S
C619 C625 1.355 1_655 S
C620 C621 1.363 . S
C620 C625 1.379 . S
C620 N627 1.356 . S
C621 C620 1.363 . S
C621 C624 1.363 1_455 S
N622 C624 1.356 . S
N622 H634 0.984 . S
N622 H635 0.985 . S
N623 C625 1.356 . S
N623 H628 0.984 . S
N623 H629 0.985 . S
C624 C618 1.379 . S
C624 C621 1.363 1_655 S
C624 N622 1.356 . S
C625 C619 1.355 1_455 S
C625 C620 1.379 . S
C625 N623 1.356 . S
N626 C618 1.356 . S
N626 H632 0.984 . S
N626 H633 0.984 . S
N627 C620 1.356 . S
N627 H630 0.984 . S
N627 H631 0.985 . S
H628 N623 0.984 . S
H629 N623 0.985 . S
H630 N627 0.984 . S
H631 N627 0.985 . S
H632 N626 0.984 . S
H633 N626 0.984 . S
H634 N622 0.984 . S
H635 N622 0.985 . S
C313 C12 2.990 . S
C315 C303 2.918 . S
C331 C52 3.016 . S
C333 C239 2.952 . S
C349 C111 3.054 . S
C351 C271 2.982 . S
C367 C31 3.165 . S
C369 C297 3.088 . S
C387 C233 3.058 . S
C385 C71 3.140 . S
C405 C265 3.022 . S
C403 C92 3.099 . S
C421 C48 0.772 . S
C423 C175 0.789 . S
C439 C109 0.787 . S
C441 C207 0.832 . S
C457 C29 0.754 . S
C459 C137 0.757 . S
C477 C169 0.710 . S
C475 C69 0.727 . S
C495 C201 0.590 . S
C493 C88 0.625 . S
C511 C8 0.612 . S
C513 C143 0.603 . S
C531 C213 1.038 . S
C529 C17 1.038 1_455 S
C547 C57 1.014 . S
C549 C149 0.982 . S
C565 C97 1.047 . S
C567 C181 1.051 . S
C585 C277 1.766 . S
C583 C42 1.741 . S
C603 C309 1.770 1_556 S
C601 C82 1.747 . S
C619 C2 1.759 1_655 S
C621 C245 1.776 . S
