# Generated by pormake.
# Topology pth, (4,4)-cn, num edge types: 1
# Building blocks:
#     Node 0, Type 0, BuildingBlock: UXUYUI_clean_sbu_0, # of connection points: 4
#     Node 1, Type 0, BuildingBlock: UXUYUI_clean_sbu_0, # of connection points: 4
#     Node 2, Type 0, BuildingBlock: UXUYUI_clean_sbu_0, # of connection points: 4
#     Node 3, Type 1, BuildingBlock: MUDLON_clean_linker_0, # of connection points: 4
#     Node 4, Type 1, BuildingBlock: MUDLON_clean_linker_0, # of connection points: 4
#     Node 5, Type 1, BuildingBlock: MUDLON_clean_linker_0, # of connection points: 4
#     Edge 6, Type (0, 1), BuildingBlock: AJUNOK_clean_linker_0, # of connection points: 2
#     Edge 7, Type (0, 1), BuildingBlock: AJUNOK_clean_linker_0, # of connection points: 2
#     Edge 8, Type (0, 1), BuildingBlock: AJUNOK_clean_linker_0, # of connection points: 2
#     Edge 9, Type (0, 1), BuildingBlock: AJUNOK_clean_linker_0, # of connection points: 2
#     Edge 10, Type (0, 1), BuildingBlock: AJUNOK_clean_linker_0, # of connection points: 2
#     Edge 11, Type (0, 1), BuildingBlock: AJUNOK_clean_linker_0, # of connection points: 2
#     Edge 12, Type (0, 1), BuildingBlock: AJUNOK_clean_linker_0, # of connection points: 2
#     Edge 13, Type (0, 1), BuildingBlock: AJUNOK_clean_linker_0, # of connection points: 2
#     Edge 14, Type (0, 1), BuildingBlock: AJUNOK_clean_linker_0, # of connection points: 2
#     Edge 15, Type (0, 1), BuildingBlock: AJUNOK_clean_linker_0, # of connection points: 2
#     Edge 16, Type (0, 1), BuildingBlock: AJUNOK_clean_linker_0, # of connection points: 2
#     Edge 17, Type (0, 1), BuildingBlock: AJUNOK_clean_linker_0, # of connection points: 2
# Relax obj value: 0.089
# Max RMSD: 0.213
# Mean RMSD: 0.143
data_MOF--net-pth--node1-UXUYUI_clean_sbu_0--node2-MUDLON_clean_linker_0--edge1-AJUNOK_clean_linker_0
_symmetry_space_group_name_H-M    P1
_symmetry_Int_Tables_number       1
_symmetry_cell_setting            triclinic
loop_
_symmetry_equiv_pos_as_xyz
'x, y, z'
_cell_length_a     32.844056
_cell_length_b     32.837347
_cell_length_c     66.135853
_cell_angle_alpha  89.951495
_cell_angle_beta   90.029668
_cell_angle_gamma 119.96927
loop_
_atom_site_label
_atom_site_type_symbol
_atom_site_fract_x
_atom_site_fract_y
_atom_site_fract_z
_atom_type_partial_charge
Li0 Li 0.03148 0.03459 0.02924 0.0
Li1 Li 0.9795 0.03553 0.05472 0.0
Li2 Li 0.00282 0.975 0.0577 0.0
Li3 Li 0.94813 0.97055 0.03175 0.0
C4 C 0.0671 0.08572 0.0692 0.0
N5 N 0.1096 0.16845 0.09107 0.0
C6 C 0.08209 0.12875 0.05949 0.0
C7 C 0.07399 0.08481 0.09001 0.0
C8 C 0.10349 0.17018 0.07082 0.0
C9 C 0.09543 0.127 0.10081 0.0
C10 C 0.95535 0.06534 0.01979 0.0
C11 C 0.8925 0.08313 0.02112 0.0
N12 N 0.91889 0.12257 0.00996 0.0
C13 C 0.98187 0.10605 0.00834 0.0
C14 C 0.91031 0.05375 0.02623 0.0
C15 C 0.9628 0.13452 0.00353 0.0
C16 C 0.06929 0.07087 0.99129 0.0
N17 N 0.08112 0.07132 0.011 0.0
C18 C 0.16106 0.12872 0.00405 0.0
C19 C 0.1261 0.09866 0.01752 0.0
C20 C 0.14943 0.13043 0.98374 0.0
C21 C 0.10309 0.10019 0.97731 0.0
H22 H 0.03327 0.04837 0.98655 0.0
H23 H 0.13461 0.0979 0.03326 0.0
C24 C 0.96054 0.06691 0.09111 0.0
N25 N 0.97032 0.07842 0.07125 0.0
C26 C 0.9639 0.10043 0.10507 0.0
C27 C 0.98408 0.15594 0.07769 0.0
C28 C 0.98116 0.12173 0.06435 0.0
C29 C 0.97736 0.14611 0.09846 0.0
H30 H 0.95309 0.03261 0.0963 0.0
H31 H 0.9908 0.13115 0.04877 0.0
C32 C 0.03983 0.95578 0.02228 0.0
N33 N 0.11059 0.93886 0.0103 0.0
C34 C 0.03197 0.92407 0.00665 0.0
C35 C 0.08373 0.97908 0.03176 0.0
C36 C 0.06818 0.91592 0.00084 0.0
C37 C 0.11903 0.97 0.02549 0.0
C38 C 0.89628 0.93104 0.06403 0.0
C39 C 0.88971 0.88567 0.06536 0.0
C40 C 0.85745 0.93763 0.06481 0.0
C41 C 0.84415 0.84743 0.06712 0.0
C42 C 0.81245 0.89849 0.06659 0.0
N43 N 0.80679 0.85458 0.06767 0.0
C44 C 0.01004 0.94353 0.09608 0.0
C45 C 0.0214 0.90158 0.06963 0.0
C46 C 0.01305 0.91409 0.11053 0.0
N47 N 0.01438 0.93696 0.07608 0.0
C48 C 0.02499 0.87153 0.08357 0.0
C49 C 0.02016 0.87726 0.10428 0.0
H50 H 0.00288 0.97087 0.10077 0.0
H51 H 0.02274 0.89555 0.05367 0.0
C52 C 0.86716 0.93405 0.00545 0.0
N53 N 0.89696 0.92466 0.0161 0.0
C54 C 0.83295 0.89968 0.99291 0.0
C55 C 0.86045 0.84665 0.00276 0.0
C56 C 0.89409 0.88196 0.01503 0.0
C57 C 0.82953 0.8554 0.99139 0.0
H58 H 0.87062 0.96844 0.00621 0.0
H59 H 0.91882 0.87576 0.02336 0.0
O60 O 0.04491 0.04467 0.05845 0.0
O61 O 0.97364 0.03728 0.02473 0.0
O62 O 0.00488 0.96452 0.02793 0.0
O63 O 0.94049 0.96882 0.06187 0.0
H64 H 0.0763 0.13006 0.04345 0.0
H65 H 0.06268 0.05189 0.09777 0.0
H66 H 0.11486 0.20367 0.06353 0.0
H67 H 0.10074 0.12679 0.11695 0.0
H68 H 0.85773 0.07463 0.02605 0.0
H69 H 0.01695 0.11579 0.00336 0.0
H70 H 0.8895 0.02256 0.0352 0.0
H71 H 0.98296 0.16618 0.99472 0.0
H72 H 0.19648 0.15124 0.00954 0.0
H73 H 0.093 0.09941 0.96166 0.0
H74 H 0.95862 0.09147 0.12099 0.0
H75 H 0.99364 0.19043 0.07189 0.0
H76 H 0.99824 0.90595 0.9991 0.0
H77 H 0.09048 0.00379 0.04386 0.0
H78 H 0.06258 0.8914 0.98879 0.0
H79 H 0.15314 0.98771 0.03271 0.0
H80 H 0.9194 0.87996 0.06476 0.0
H81 H 0.86202 0.97258 0.06411 0.0
H82 H 0.8385 0.81208 0.06799 0.0
H83 H 0.78203 0.90302 0.06713 0.0
H84 H 0.00949 0.91981 0.1264 0.0
H85 H 0.02997 0.84317 0.07819 0.0
H86 H 0.80994 0.90785 0.98425 0.0
H87 H 0.85987 0.81347 0.0016 0.0
Li88 Li 0.97015 0.95243 0.36443 0.0
Li89 Li 0.02534 0.00147 0.39026 0.0
Li90 Li 0.9432 0.98566 0.39083 0.0
Li91 Li 0.99874 0.038 0.36518 0.0
C92 C 0.97653 0.9058 0.39935 0.0
N93 N 0.99918 0.83813 0.41001 0.0
C94 C 0.00979 0.90067 0.38819 0.0
C95 C 0.95481 0.87655 0.41595 0.0
C96 C 0.02075 0.86624 0.39379 0.0
C97 C 0.96674 0.84254 0.4211 0.0
C98 C 0.07947 0.02411 0.35348 0.0
C99 C 0.15572 0.09108 0.34653 0.0
N100 N 0.17001 0.06189 0.33881 0.0
C101 C 0.09469 0.99483 0.34519 0.0
C102 C 0.11002 0.07267 0.35392 0.0
C103 C 0.14068 0.01458 0.33798 0.0
C104 C 0.97474 0.91545 0.32751 0.0
N105 N 0.9557 0.90205 0.34625 0.0
C106 C 0.93066 0.82167 0.33883 0.0
C107 C 0.93255 0.85605 0.35191 0.0
C108 C 0.95235 0.83497 0.31979 0.0
C109 C 0.97334 0.8823 0.31395 0.0
H110 H 0.99295 0.9523 0.32347 0.0
H111 H 0.91736 0.84627 0.36685 0.0
C112 C 0.07294 0.01995 0.42714 0.0
N113 N 0.07494 0.00826 0.40761 0.0
C114 C 0.10369 0.01922 0.44152 0.0
C115 C 0.13872 0.9953 0.41538 0.0
C116 C 0.10757 0.99693 0.40145 0.0
C117 C 0.13615 0.00533 0.43581 0.0
H118 H 0.04637 0.02838 0.43168 0.0
H119 H 0.10805 0.98691 0.38598 0.0
C120 C 0.88764 0.95304 0.35633 0.0
N121 N 0.79587 0.888 0.34659 0.0
C122 C 0.86441 0.96274 0.34101 0.0
C123 C 0.86421 0.91031 0.36673 0.0
C124 C 0.818 0.92939 0.3363 0.0
C125 C 0.81782 0.87787 0.36156 0.0
C126 C 0.02766 0.0899 0.40267 0.0
C127 C 0.0049 0.11092 0.41227 0.0
C128 C 0.07668 0.1141 0.40145 0.0
C129 C 0.03159 0.15628 0.4201 0.0
C130 C 0.10213 0.15938 0.40948 0.0
N131 N 0.07925 0.1794 0.41853 0.0
C132 C 0.87897 0.95361 0.42419 0.0
C133 C 0.87769 0.01042 0.40242 0.0
C134 C 0.84745 0.95686 0.43741 0.0
N135 N 0.89391 0.98087 0.40731 0.0
C136 C 0.84661 0.01509 0.41526 0.0
C137 C 0.83208 0.98894 0.43323 0.0
H138 H 0.89292 0.93082 0.42778 0.0
H139 H 0.8906 0.03188 0.38895 0.0
C140 C 0.02484 0.09008 0.32911 0.0
N141 N 0.01272 0.09087 0.34869 0.0
C142 C 0.03057 0.12558 0.31578 0.0
C143 C 0.01206 0.16248 0.34309 0.0
C144 C 0.00627 0.12604 0.35585 0.0
C145 C 0.02349 0.16206 0.32266 0.0
H146 H 0.02881 0.06115 0.32374 0.0
H147 H 0.99542 0.12527 0.3713 0.0
O148 O 0.96554 0.93959 0.39426 0.0
O149 O 0.03436 0.00532 0.36042 0.0
O150 O 0.93306 0.98545 0.36107 0.0
O151 O 0.00195 0.04537 0.39505 0.0
H152 H 0.02691 0.92297 0.37532 0.0
H153 H 0.92905 0.8801 0.42479 0.0
H154 H 0.04642 0.86191 0.38526 0.0
H155 H 0.9502 0.81966 0.43392 0.0
H156 H 0.17976 0.12861 0.34684 0.0
H157 H 0.07135 0.9572 0.34443 0.0
H158 H 0.09845 0.09603 0.35965 0.0
H159 H 0.15301 0.9923 0.33168 0.0
H160 H 0.91357 0.78535 0.34373 0.0
H161 H 0.99057 0.89391 0.29941 0.0
H162 H 0.10127 0.02825 0.45705 0.0
H163 H 0.16308 0.98421 0.41039 0.0
H164 H 0.88211 0.99572 0.33285 0.0
H165 H 0.88151 0.90219 0.37867 0.0
H166 H 0.79957 0.93642 0.32447 0.0
H167 H 0.79927 0.84465 0.36947 0.0
H168 H 0.967 0.09249 0.41357 0.0
H169 H 0.09497 0.0979 0.39464 0.0
H170 H 0.01442 0.17309 0.42744 0.0
H171 H 0.1401 0.17852 0.4086 0.0
H172 H 0.83706 0.93635 0.45122 0.0
H173 H 0.83517 0.03993 0.41151 0.0
H174 H 0.03909 0.12375 0.30011 0.0
H175 H 0.00717 0.19038 0.34912 0.0
Li176 Li 0.02028 0.99294 0.69698 0.0
Li177 Li 0.0212 0.04588 0.72317 0.0
Li178 Li 0.95877 0.96359 0.72214 0.0
Li179 Li 0.96295 0.01995 0.69693 0.0
C180 C 0.06127 0.97786 0.72791 0.0
N181 N 0.13321 0.95727 0.72866 0.0
C182 C 0.10667 0.01232 0.73351 0.0
C183 C 0.05246 0.93288 0.72277 0.0
C184 C 0.14255 0.0012 0.7338 0.0
C185 C 0.08931 0.92319 0.7232 0.0
C186 C 0.0363 0.08587 0.67804 0.0
C187 C 0.03015 0.15017 0.66374 0.0
N188 N 0.03987 0.13948 0.64515 0.0
C189 C 0.04641 0.07561 0.65881 0.0
C190 C 0.02831 0.12356 0.68057 0.0
C191 C 0.04803 0.10313 0.64237 0.0
C192 C 0.04111 0.94476 0.66653 0.0
N193 N 0.05985 0.98046 0.68018 0.0
C194 C 0.13761 0.00411 0.66878 0.0
C195 C 0.10703 0.01015 0.68142 0.0
C196 C 0.11925 0.96789 0.65443 0.0
C197 C 0.0704 0.93796 0.65332 0.0
H198 H 0.00341 0.9223 0.66558 0.0
H199 H 0.12083 0.03913 0.69198 0.0
C200 C 0.06537 0.08276 0.76017 0.0
N201 N 0.06191 0.0951 0.7409 0.0
C202 C 0.09842 0.11581 0.77338 0.0
C203 C 0.12281 0.17419 0.7469 0.0
C204 C 0.08931 0.13986 0.73414 0.0
C205 C 0.12836 0.16198 0.76667 0.0
H206 H 0.0436 0.0467 0.76501 0.0
H207 H 0.08611 0.1486 0.71869 0.0
C208 C 0.91324 0.91229 0.69104 0.0
N209 N 0.83349 0.82447 0.69045 0.0
C210 C 0.86901 0.90803 0.68853 0.0
C211 C 0.91695 0.87191 0.69313 0.0
C212 C 0.82911 0.8633 0.68828 0.0
C213 C 0.8762 0.82783 0.69285 0.0
C214 C 0.9521 0.04473 0.7426 0.0
C215 C 0.94414 0.02452 0.76184 0.0
C216 C 0.96194 0.09113 0.74046 0.0
C217 C 0.94639 0.05124 0.77867 0.0
C218 C 0.96396 0.1167 0.75767 0.0
N219 N 0.95621 0.0964 0.77626 0.0
C220 C 0.93126 0.8856 0.74857 0.0
C221 C 0.87143 0.90308 0.74026 0.0
C222 C 0.9006 0.84926 0.76135 0.0
N223 N 0.91624 0.91158 0.73836 0.0
C224 C 0.8396 0.86712 0.75288 0.0
C225 C 0.85414 0.83976 0.76367 0.0
H226 H 0.96732 0.89376 0.74718 0.0
H227 H 0.86069 0.92484 0.7322 0.0
C228 C 0.92457 0.02306 0.65967 0.0
N229 N 0.92577 0.03441 0.67949 0.0
C230 C 0.89579 0.02965 0.64615 0.0
C231 C 0.86953 0.05917 0.67371 0.0
C232 C 0.89914 0.05224 0.68672 0.0
C233 C 0.8675 0.0476 0.65313 0.0
H234 H 0.94547 0.00809 0.65444 0.0
H235 H 0.89999 0.05996 0.70264 0.0
O236 O 0.02579 0.98825 0.72721 0.0
O237 O 0.03361 0.05878 0.69426 0.0
O238 O 0.95262 0.95577 0.69183 0.0
O239 O 0.95115 0.01955 0.72598 0.0
H240 H 0.11434 0.04746 0.73733 0.0
H241 H 0.01769 0.90593 0.71821 0.0
H242 H 0.17788 0.02759 0.73801 0.0
H243 H 0.08304 0.88863 0.71913 0.0
H244 H 0.0237 0.17922 0.66545 0.0
H245 H 0.0525 0.04647 0.65655 0.0
H246 H 0.02014 0.13178 0.69532 0.0
H247 H 0.0556 0.09547 0.62739 0.0
H248 H 0.17506 0.02846 0.66973 0.0
H249 H 0.05513 0.90997 0.64224 0.0
H250 H 0.1018 0.10485 0.78845 0.0
H251 H 0.14464 0.20961 0.74127 0.0
H252 H 0.86544 0.9389 0.68704 0.0
H253 H 0.95089 0.8746 0.69514 0.0
H254 H 0.79463 0.85947 0.68646 0.0
H255 H 0.87852 0.79629 0.69457 0.0
H256 H 0.93688 0.9888 0.76379 0.0
H257 H 0.96851 0.10739 0.72569 0.0
H258 H 0.94053 0.03614 0.79367 0.0
H259 H 0.97181 0.15273 0.75626 0.0
H260 H 0.91354 0.82979 0.76981 0.0
H261 H 0.80413 0.861 0.75434 0.0
H262 H 0.89529 0.02034 0.6304 0.0
H263 H 0.84746 0.07202 0.6798 0.0
H264 H 0.95248 0.65373 0.22206 0.0
N265 N 0.04444 0.67994 0.21466 0.0
H266 H 0.92382 0.68297 0.24952 0.0
H267 H 0.0927 0.73018 0.24644 0.0
H268 H 0.06428 0.75921 0.27404 0.0
H269 H 0.10897 0.76424 0.20154 0.0
H270 H 0.1022 0.80916 0.17337 0.0
H271 H 0.97192 0.64765 0.18757 0.0
H272 H 0.9647 0.6925 0.1594 0.0
H273 H 0.98921 0.59954 0.2374 0.0
H274 H 0.08527 0.65319 0.18682 0.0
H275 H 0.98879 0.52571 0.23525 0.0
H276 H 0.08276 0.57822 0.18401 0.0
H277 H 0.97304 0.30734 0.22441 0.0
H278 H 0.96472 0.25762 0.2534 0.0
H279 H 0.11102 0.34937 0.2683 0.0
H280 H 0.11944 0.39772 0.2386 0.0
H281 H 0.11127 0.35606 0.1923 0.0
H282 H 0.09209 0.30102 0.16423 0.0
H283 H 0.95382 0.2857 0.16035 0.0
H284 H 0.97275 0.33944 0.18898 0.0
H285 H 0.97507 0.38427 0.21841 0.0
H286 H 0.96688 0.45444 0.21746 0.0
H287 H 0.11409 0.53861 0.20197 0.0
N288 N 0.05526 0.38092 0.21049 0.0
H289 H 0.12099 0.46803 0.20208 0.0
C290 C 0.02494 0.69009 0.23221 0.0
C291 C 0.97694 0.67622 0.23348 0.0
C292 C 0.96059 0.69284 0.24917 0.0
C293 C 0.99178 0.7231 0.26395 0.0
C294 C 0.03928 0.73521 0.26309 0.0
C295 C 0.05562 0.71884 0.24735 0.0
C296 C 0.04097 0.70296 0.19669 0.0
C297 C 0.0777 0.74824 0.1922 0.0
C298 C 0.07377 0.77373 0.17616 0.0
C299 C 0.03271 0.75446 0.1644 0.0
C300 C 0.9964 0.70841 0.16847 0.0
C301 C 1.00052 0.68276 0.18447 0.0
C302 C 0.03704 0.63277 0.21205 0.0
C303 C 0.00931 0.59551 0.22543 0.0
C304 C 0.00888 0.5527 0.22417 0.0
C305 C 0.03606 0.5459 0.20957 0.0
C306 C 0.06212 0.58235 0.19574 0.0
C307 C 0.06304 0.62521 0.19715 0.0
C308 C 0.04708 0.35608 0.22933 0.0
C309 C 0.00307 0.31723 0.23412 0.0
C310 C 0.99831 0.28901 0.25081 0.0
C311 C 0.03723 0.29963 0.2632 0.0
C312 C 0.08051 0.34006 0.25895 0.0
C313 C 0.08533 0.36789 0.24214 0.0
C314 C 0.04392 0.35247 0.19253 0.0
C315 C 0.07714 0.3414 0.18514 0.0
C316 C 0.06616 0.31015 0.16905 0.0
C317 C 0.02169 0.28967 0.15982 0.0
C318 C 0.98841 0.30108 0.16712 0.0
C319 C 0.99935 0.33213 0.18338 0.0
C320 C 0.0487 0.42109 0.2101 0.0
C321 C 0.00532 0.41778 0.21457 0.0
C322 C 1.00084 0.45807 0.21419 0.0
C323 C 0.03972 0.50237 0.20948 0.0
C324 C 0.08303 0.50516 0.20516 0.0
C325 C 0.08727 0.46496 0.20538 0.0
H326 H 0.74731 0.12948 0.55492 0.0
N327 N 0.66468 0.06005 0.54274 0.0
H328 H 0.79455 0.12921 0.58349 0.0
H329 H 0.63524 0.99259 0.57269 0.0
H330 H 0.68141 0.99289 0.60151 0.0
H331 H 0.67195 0.98064 0.53919 0.0
H332 H 0.70979 0.96269 0.51157 0.0
H333 H 0.6931 0.10455 0.50755 0.0
H334 H 0.72894 0.08549 0.4793 0.0
H335 H 0.62618 0.11432 0.54384 0.0
H336 H 0.59123 0.9693 0.54235 0.0
H337 H 0.54271 0.09007 0.54345 0.0
H338 H 0.50795 0.94438 0.54346 0.0
H339 H 0.31344 0.0289 0.55622 0.0
H340 H 0.26675 0.03132 0.58437 0.0
H341 H 0.2326 0.89123 0.60188 0.0
H342 H 0.2786 0.88823 0.57312 0.0
H343 H 0.24576 0.88711 0.52401 0.0
H344 H 0.20331 0.89924 0.49636 0.0
H345 H 0.30581 0.04745 0.49616 0.0
H346 H 0.34916 0.03461 0.52329 0.0
H347 H 0.39052 0.03286 0.56158 0.0
H348 H 0.47366 0.05771 0.56191 0.0
H349 H 0.44585 0.93824 0.52468 0.0
N350 N 0.31961 0.95222 0.54403 0.0
H351 H 0.36207 0.9119 0.52572 0.0
C352 C 0.68761 0.06146 0.56159 0.0
C353 C 0.73234 0.10007 0.56533 0.0
C354 C 0.75917 0.09994 0.58171 0.0
C355 C 0.74154 0.06116 0.59486 0.0
C356 C 0.69596 0.02322 0.5916 0.0
C357 C 0.66929 0.02322 0.57512 0.0
C358 C 0.68063 0.04468 0.52559 0.0
C359 C 0.68407 0.00364 0.52617 0.0
C360 C 0.70552 0.99324 0.5103 0.0
C361 C 0.72344 0.02333 0.49348 0.0
C362 C 0.71693 0.06249 0.49236 0.0
C363 C 0.69605 0.07317 0.50833 0.0
C364 C 0.615 0.04384 0.54336 0.0
C365 C 0.60034 0.07719 0.54376 0.0
C366 C 0.55252 0.06313 0.5437 0.0
C367 C 0.5181 0.0151 0.54351 0.0
C368 C 0.5331 0.98167 0.54325 0.0
C369 C 0.58095 0.99585 0.54292 0.0
C370 C 0.29912 0.95794 0.56238 0.0
C371 C 0.29642 0.99876 0.56611 0.0
C372 C 0.26976 1.00022 0.58223 0.0
C373 C 0.24605 0.96139 0.59513 0.0
C374 C 0.25083 0.92166 0.59214 0.0
C375 C 0.27703 0.91994 0.57581 0.0
C376 C 0.30015 0.95984 0.52582 0.0
C377 C 0.2595 0.92199 0.51769 0.0
C378 C 0.23507 0.92912 0.50211 0.0
C379 C 0.25054 0.97454 0.49454 0.0
C380 C 0.29292 0.01213 0.50183 0.0
C381 C 0.31764 0.00486 0.51733 0.0
C382 C 0.36964 0.96976 0.54389 0.0
C383 C 0.40203 0.01165 0.55365 0.0
C384 C 0.45002 0.02621 0.55362 0.0
C385 C 0.46694 0.99993 0.54344 0.0
C386 C 0.43439 0.95885 0.53318 0.0
C387 C 0.38642 0.9439 0.53355 0.0
H388 H 0.65754 0.69684 0.8872 0.0
N389 N 0.67624 0.62608 0.87898 0.0
H390 H 0.68649 0.75003 0.91628 0.0
H391 H 0.72157 0.61995 0.91098 0.0
H392 H 0.75098 0.67321 0.94004 0.0
H393 H 0.75869 0.64617 0.86366 0.0
H394 H 0.79772 0.69405 0.8338 0.0
H395 H 0.63875 0.66334 0.85298 0.0
H396 H 0.67753 0.71129 0.82292 0.0
H397 H 0.58946 0.61565 0.88701 0.0
H398 H 0.66071 0.54228 0.86772 0.0
H399 H 0.51438 0.54201 0.88643 0.0
H400 H 0.58579 0.46902 0.86587 0.0
H401 H 0.33871 0.35761 0.9007 0.0
H402 H 0.28826 0.316 0.9297 0.0
H403 H 0.29743 0.19283 0.91465 0.0
H404 H 0.34867 0.2351 0.88608 0.0
H405 H 0.37489 0.27382 0.84061 0.0
H406 H 0.31818 0.24335 0.81283 0.0
H407 H 0.2468 0.31219 0.83789 0.0
H408 H 0.30292 0.34138 0.86593 0.0
H409 H 0.3822 0.40725 0.86528 0.0
H410 H 0.45524 0.48257 0.86624 0.0
H411 H 0.52907 0.41201 0.88687 0.0
N412 N 0.37253 0.32033 0.87291 0.0
H413 H 0.45634 0.33668 0.88463 0.0
C414 C 0.68755 0.65439 0.89697 0.0
C415 C 0.67717 0.69092 0.89882 0.0
C416 C 0.69381 0.72136 0.91541 0.0
C417 C 0.72072 0.71557 0.93048 0.0
C418 C 0.72954 0.67799 0.9289 0.0
C419 C 0.71303 0.64771 0.9123 0.0
C420 C 0.69605 0.65124 0.86045 0.0
C421 C 0.74059 0.65977 0.85463 0.0
C422 C 0.76263 0.68683 0.83755 0.0
C423 C 0.7404 0.70592 0.82592 0.0
C424 C 0.69537 0.69691 0.83162 0.0
C425 C 0.67321 0.66956 0.84873 0.0
C426 C 0.63086 0.58414 0.87777 0.0
C427 C 0.58894 0.58373 0.88254 0.0
C428 C 0.54586 0.54152 0.88201 0.0
C429 C 0.54383 0.49914 0.87638 0.0
C430 C 0.58587 0.50043 0.87089 0.0
C431 C 0.62877 0.54234 0.87173 0.0
C432 C 0.34734 0.29922 0.8913 0.0
C433 C 0.33037 0.32192 0.90387 0.0
C434 C 0.30124 0.29797 0.92029 0.0
C435 C 0.28835 0.2509 0.92425 0.0
C436 C 0.3069 0.22908 0.91205 0.0
C437 C 0.33605 0.25305 0.89574 0.0
C438 C 0.34341 0.31 0.85522 0.0
C439 C 0.34771 0.28328 0.83978 0.0
C440 C 0.31542 0.26614 0.82389 0.0
C441 C 0.27828 0.2758 0.82306 0.0
C442 C 0.27508 0.30423 0.83814 0.0
C443 C 0.30732 0.32117 0.8541 0.0
C444 C 0.41405 0.36603 0.8745 0.0
C445 C 0.41409 0.40788 0.86986 0.0
C446 C 0.45601 0.45119 0.87062 0.0
C447 C 0.49849 0.45358 0.87635 0.0
C448 C 0.49757 0.41166 0.88178 0.0
C449 C 0.45594 0.36852 0.88072 0.0
C450 C 0.95682 0.17665 0.12934 0.0
C451 C 0.98792 0.18415 0.11329 0.0
C452 C 0.96737 0.21143 0.144 0.0
C453 C 0.00956 0.25488 0.14324 0.0
H454 H 0.92419 0.14355 0.13064 0.0
H455 H 0.94286 0.20371 0.15633 0.0
S456 S 0.10255 0.29233 0.10416 0.0
N457 N 0.0628 0.23836 0.09758 0.0
N458 N 0.08177 0.30408 0.1247 0.0
C459 C 0.04054 0.26311 0.12707 0.0
C460 C 0.02992 0.22771 0.11221 0.0
C461 C 0.76109 0.96134 0.45541 0.0
C462 C 0.8042 0.99806 0.44827 0.0
C463 C 0.73478 0.96979 0.46983 0.0
C464 C 0.75092 0.01518 0.47772 0.0
H465 H 0.74749 0.92598 0.44968 0.0
H466 H 0.70149 0.94063 0.47477 0.0
S467 S 0.86419 0.12214 0.46532 0.0
N468 N 0.86318 0.08069 0.45086 0.0
N469 N 0.81456 0.09651 0.47824 0.0
C470 C 0.79452 0.05193 0.47092 0.0
C471 C 0.82096 0.04338 0.45615 0.0
C472 C 0.79759 0.81468 0.79265 0.0
C473 C 0.82195 0.80345 0.77822 0.0
C474 C 0.76994 0.78231 0.80759 0.0
C475 C 0.76564 0.73754 0.80867 0.0
H476 H 0.80122 0.84933 0.79282 0.0
H477 H 0.7532 0.79305 0.81883 0.0
S478 S 0.81733 0.68878 0.77293 0.0
N479 N 0.83649 0.74297 0.76485 0.0
N480 N 0.78456 0.68214 0.79297 0.0
C481 C 0.78821 0.72519 0.79385 0.0
C482 C 0.81635 0.75813 0.77863 0.0
C483 C 0.05988 0.8362 0.11942 0.0
C484 C 0.02177 0.84444 0.11926 0.0
C485 C 0.06287 0.80652 0.13388 0.0
C486 C 0.02746 0.78343 0.1485 0.0
H487 H 0.08808 0.85361 0.10853 0.0
H488 H 0.09318 0.8017 0.13368 0.0
S489 S 0.91955 0.79187 0.15406 0.0
N490 N 0.94722 0.82604 0.13456 0.0
N491 N 0.95288 0.77039 0.16178 0.0
C492 C 0.98873 0.79065 0.14825 0.0
C493 C 0.98591 0.82117 0.13365 0.0
C494 C 0.21363 0.0167 0.44805 0.0
C495 C 0.16517 0.99847 0.45121 0.0
C496 C 0.24121 0.00928 0.46218 0.0
C497 C 0.2212 0.9829 0.47986 0.0
H498 H 0.23037 0.03698 0.43457 0.0
H499 H 0.2783 0.02368 0.4591 0.0
S500 S 0.09609 0.92786 0.49533 0.0
N501 N 0.09837 0.95255 0.4733 0.0
N502 N 0.1503 0.9398 0.50005 0.0
C503 C 0.1729 0.96486 0.48327 0.0
C504 C 0.14489 0.97237 0.46892 0.0
C505 C 0.15697 0.2002 0.80045 0.0
C506 C 0.16659 0.19598 0.78007 0.0
C507 C 0.19315 0.22785 0.81401 0.0
C508 C 0.24042 0.25221 0.80775 0.0
H509 H 0.12123 0.18109 0.80607 0.0
H510 H 0.18415 0.2285 0.82972 0.0
S511 S 0.28417 0.25544 0.75575 0.0
N512 N 0.22678 0.22007 0.75411 0.0
N513 N 0.29462 0.27298 0.77953 0.0
C514 C 0.25037 0.24988 0.78725 0.0
C515 C 0.21352 0.22166 0.77342 0.0
C516 C 0.80604 0.01414 0.62614 0.0
C517 C 0.83448 0.05181 0.63906 0.0
C518 C 0.77547 0.01724 0.61227 0.0
C519 C 0.77208 0.05818 0.61072 0.0
H520 H 0.80745 0.98189 0.62671 0.0
H521 H 0.75512 0.98763 0.60236 0.0
S522 S 0.83794 0.16638 0.64147 0.0
N523 N 0.85699 0.13126 0.64958 0.0
N524 N 0.79863 0.13671 0.62379 0.0
C525 C 0.79973 0.09589 0.62377 0.0
C526 C 0.83098 0.09274 0.63791 0.0
C527 C 0.796 0.83278 0.95653 0.0
C528 C 0.79677 0.8198 0.97675 0.0
C529 C 0.76972 0.799 0.94183 0.0
C530 C 0.74324 0.75098 0.9468 0.0
H531 H 0.81747 0.86907 0.95184 0.0
H532 H 0.7718 0.81038 0.9263 0.0
S533 S 0.72821 0.69957 0.99807 0.0
N534 N 0.76502 0.75628 0.00136 0.0
N535 N 0.71566 0.69273 0.97369 0.0
C536 C 0.74185 0.73781 0.96713 0.0
C537 C 0.76858 0.77222 0.9821 0.0
C538 C 0.94433 0.79775 0.28591 0.0
C539 C 0.95647 0.80088 0.30648 0.0
C540 C 0.95369 0.77046 0.27246 0.0
C541 C 0.9761 0.74582 0.27904 0.0
H542 H 0.92858 0.81755 0.28009 0.0
H543 H 0.94527 0.77041 0.25661 0.0
S544 S 0.01273 0.74041 0.33154 0.0
N545 N 0.99025 0.77547 0.33295 0.0
N546 N 0.00771 0.72405 0.30764 0.0
C547 C 0.98687 0.74727 0.29969 0.0
C548 C 0.977 0.77476 0.31342 0.0
C549 C 0.14444 0.96763 0.6189 0.0
C550 C 0.1508 0.96368 0.63968 0.0
C551 C 0.17554 0.96684 0.60463 0.0
C552 C 0.21357 0.96129 0.61063 0.0
H553 H 0.11585 0.97244 0.61369 0.0
H554 H 0.16981 0.97056 0.58876 0.0
S555 S 0.24457 0.94797 0.66313 0.0
N556 N 0.19739 0.95335 0.66557 0.0
N557 N 0.25542 0.95088 0.63861 0.0
C558 C 0.21978 0.95634 0.6313 0.0
C559 C 0.18853 0.95789 0.64588 0.0
C560 C 0.22945 0.16626 0.968 0.0
C561 C 0.18542 0.16356 0.9693 0.0
C562 C 0.263 0.19549 0.95374 0.0
C563 C 0.25393 0.2234 0.94036 0.0
H564 H 0.23761 0.14473 0.97772 0.0
H565 H 0.29615 0.19589 0.95304 0.0
S566 S 0.1449 0.23082 0.93833 0.0
N567 N 0.13544 0.19307 0.95672 0.0
N568 N 0.19795 0.24706 0.92961 0.0
C569 C 0.21047 0.22187 0.94185 0.0
C570 C 0.17634 0.19213 0.95636 0.0
C571 C 0.06514 0.21999 0.29483 0.0
C572 C 0.02714 0.19877 0.30838 0.0
C573 C 0.06851 0.25322 0.28063 0.0
C574 C 0.03399 0.2666 0.27937 0.0
H575 H 0.09248 0.21069 0.29513 0.0
H576 H 0.0979 0.2677 0.27022 0.0
S577 S 0.92786 0.22227 0.31167 0.0
N578 N 0.95417 0.19356 0.31966 0.0
N579 N 0.96137 0.2572 0.29339 0.0
C580 C 0.99618 0.24627 0.29305 0.0
C581 C 0.99263 0.21222 0.30748 0.0
loop_
_geom_bond_atom_site_label_1
_geom_bond_atom_site_label_2
_geom_bond_distance
_geom_bond_site_symmetry_2
_ccdc_geom_bond_type
Li0 N17 1.990 . S
Li0 O60 1.956 . S
Li0 O61 1.970 1_455 S
Li0 O62 1.961 1_545 S
Li1 N25 1.990 . S
Li1 O60 1.970 1_655 S
Li1 O61 1.956 . S
Li1 O63 1.961 1_545 S
Li2 N47 1.990 . S
Li2 O60 1.961 1_565 S
Li2 O62 1.956 . S
Li2 O63 1.970 1_455 S
Li3 N53 1.990 . S
Li3 O61 1.961 1_565 S
Li3 O62 1.970 1_655 S
Li3 O63 1.956 . S
C4 C6 1.348 . S
C4 C7 1.356 . S
C4 O60 1.325 . S
N5 C8 1.314 . S
N5 C9 1.279 . S
C6 C4 1.348 . S
C6 C8 1.353 . S
C6 H64 0.929 . S
C7 C4 1.356 . S
C7 C9 1.358 . S
C7 H65 0.930 . S
C8 N5 1.314 . S
C8 C6 1.353 . S
C8 H66 0.930 . S
C9 N5 1.279 . S
C9 C7 1.358 . S
C9 H67 0.930 . S
C10 C13 1.348 1_655 S
C10 C14 1.356 . S
C10 O61 1.325 . S
C11 N12 1.279 1_554 S
C11 C14 1.358 . S
C11 H68 0.930 . S
N12 C11 1.279 1_556 S
N12 C15 1.314 . S
C13 C10 1.348 1_455 S
C13 C15 1.353 1_454 S
C13 H69 0.929 . S
C14 C10 1.356 . S
C14 C11 1.358 . S
C14 H70 0.930 . S
C15 N12 1.314 . S
C15 C13 1.353 1_656 S
C15 H71 0.930 1_655 S
C16 N17 1.314 1_556 S
C16 C21 1.353 . S
C16 H22 0.930 . S
N17 Li0 1.990 . S
N17 C16 1.314 1_554 S
N17 C19 1.279 . S
C18 C19 1.358 . S
C18 C20 1.356 1_554 S
C18 H72 0.930 . S
C19 N17 1.279 . S
C19 C18 1.358 . S
C19 H23 0.930 . S
C20 C18 1.356 1_556 S
C20 C21 1.348 . S
C21 C16 1.353 . S
C21 C20 1.348 . S
C21 H73 0.929 . S
H22 C16 0.930 . S
H23 C19 0.930 . S
C24 N25 1.314 . S
C24 C26 1.353 . S
C24 H30 0.930 . S
N25 Li1 1.990 . S
N25 C24 1.314 . S
N25 C28 1.279 . S
C26 C24 1.353 . S
C26 C29 1.348 . S
C26 H74 0.929 . S
C27 C28 1.358 . S
C27 C29 1.356 . S
C27 H75 0.930 . S
C28 N25 1.279 . S
C28 C27 1.358 . S
C28 H31 0.930 . S
C29 C26 1.348 . S
C29 C27 1.356 . S
H30 C24 0.930 . S
H31 C28 0.930 . S
C32 C34 1.348 1_455 S
C32 C35 1.356 . S
C32 O62 1.325 . S
N33 C36 1.314 . S
N33 C37 1.279 1_556 S
C34 C32 1.348 1_655 S
C34 C36 1.353 1_654 S
C34 H76 0.929 . S
C35 C32 1.356 . S
C35 C37 1.358 . S
C35 H77 0.930 . S
C36 N33 1.314 . S
C36 C34 1.353 1_456 S
C36 H78 0.930 1_455 S
C37 N33 1.279 1_554 S
C37 C35 1.358 . S
C37 H79 0.930 . S
C38 C39 1.348 . S
C38 C40 1.356 . S
C38 O63 1.325 . S
C39 C38 1.348 . S
C39 C41 1.353 . S
C39 H80 0.929 . S
C40 C38 1.356 . S
C40 C42 1.358 . S
C40 H81 0.930 . S
C41 C39 1.353 . S
C41 N43 1.314 . S
C41 H82 0.930 . S
C42 C40 1.358 . S
C42 N43 1.279 . S
C42 H83 0.930 . S
N43 C41 1.314 . S
N43 C42 1.279 . S
C44 C46 1.353 . S
C44 N47 1.314 . S
C44 H50 0.930 . S
C45 N47 1.279 . S
C45 C48 1.358 . S
C45 H51 0.930 . S
C46 C44 1.353 . S
C46 C49 1.348 . S
C46 H84 0.929 . S
N47 Li2 1.990 . S
N47 C44 1.314 . S
N47 C45 1.279 . S
C48 C45 1.358 . S
C48 C49 1.356 . S
C48 H85 0.930 . S
C49 C46 1.348 . S
C49 C48 1.356 . S
H50 C44 0.930 . S
H51 C45 0.930 . S
C52 N53 1.314 1_556 S
C52 C54 1.353 . S
C52 H58 0.930 . S
N53 Li3 1.990 . S
N53 C52 1.314 1_554 S
N53 C56 1.279 . S
C54 C52 1.353 . S
C54 C57 1.348 . S
C54 H86 0.929 . S
C55 C56 1.358 . S
C55 C57 1.356 1_554 S
C55 H87 0.930 . S
C56 N53 1.279 . S
C56 C55 1.358 . S
C56 H59 0.930 . S
C57 C54 1.348 . S
C57 C55 1.356 1_556 S
H58 C52 0.930 . S
H59 C56 0.930 . S
O60 Li0 1.956 . S
O60 Li1 1.970 1_455 S
O60 Li2 1.961 1_545 S
O60 C4 1.325 . S
O61 Li0 1.970 1_655 S
O61 Li1 1.956 . S
O61 Li3 1.961 1_545 S
O61 C10 1.325 . S
O62 Li0 1.961 1_565 S
O62 Li2 1.956 . S
O62 Li3 1.970 1_455 S
O62 C32 1.325 . S
O63 Li1 1.961 1_565 S
O63 Li2 1.970 1_655 S
O63 Li3 1.956 . S
O63 C38 1.325 . S
H64 C6 0.929 . S
H65 C7 0.930 . S
H66 C8 0.930 . S
H67 C9 0.930 . S
H68 C11 0.930 . S
H69 C13 0.929 . S
H70 C14 0.930 . S
H71 C15 0.930 1_455 S
H72 C18 0.930 . S
H73 C21 0.929 . S
H74 C26 0.929 . S
H75 C27 0.930 . S
H76 C34 0.929 . S
H77 C35 0.930 . S
H78 C36 0.930 1_655 S
H79 C37 0.930 . S
H80 C39 0.929 . S
H81 C40 0.930 . S
H82 C41 0.930 . S
H83 C42 0.930 . S
H84 C46 0.929 . S
H85 C48 0.930 . S
H86 C54 0.929 . S
H87 C55 0.930 . S
Li88 N105 1.990 . S
Li88 O148 1.956 . S
Li88 O149 1.970 1_665 S
Li88 O150 1.961 . S
Li89 N113 1.990 . S
Li89 O148 1.970 1_445 S
Li89 O149 1.956 . S
Li89 O151 1.961 . S
Li90 N135 1.990 . S
Li90 O148 1.961 . S
Li90 O150 1.956 . S
Li90 O151 1.970 1_665 S
Li91 N141 1.990 . S
Li91 O149 1.961 . S
Li91 O150 1.970 1_445 S
Li91 O151 1.956 . S
C92 C94 1.348 1_655 S
C92 C95 1.356 . S
C92 O148 1.325 . S
N93 C96 1.314 . S
N93 C97 1.279 . S
C94 C92 1.348 1_455 S
C94 C96 1.353 1_455 S
C94 H152 0.929 . S
C95 C92 1.356 . S
C95 C97 1.358 . S
C95 H153 0.930 . S
C96 N93 1.314 . S
C96 C94 1.353 1_655 S
C96 H154 0.930 1_655 S
C97 N93 1.279 . S
C97 C95 1.358 . S
C97 H155 0.930 . S
C98 C101 1.348 1_545 S
C98 C102 1.356 . S
C98 O149 1.325 . S
C99 N100 1.279 . S
C99 C102 1.358 . S
C99 H156 0.930 . S
N100 C99 1.279 . S
N100 C103 1.314 . S
C101 C98 1.348 1_565 S
C101 C103 1.353 1_565 S
C101 H157 0.929 . S
C102 C98 1.356 . S
C102 C99 1.358 . S
C102 H158 0.930 . S
C103 N100 1.314 . S
C103 C101 1.353 1_545 S
C103 H159 0.930 1_545 S
C104 N105 1.314 . S
C104 C109 1.353 . S
C104 H110 0.930 . S
N105 Li88 1.990 . S
N105 C104 1.314 . S
N105 C107 1.279 . S
C106 C107 1.358 . S
C106 C108 1.356 . S
C106 H160 0.930 . S
C107 N105 1.279 . S
C107 C106 1.358 . S
C107 H111 0.930 . S
C108 C106 1.356 . S
C108 C109 1.348 . S
C109 C104 1.353 . S
C109 C108 1.348 . S
C109 H161 0.929 . S
H110 C104 0.930 . S
H111 C107 0.930 . S
C112 N113 1.314 . S
C112 C114 1.353 . S
C112 H118 0.930 . S
N113 Li89 1.990 . S
N113 C112 1.314 . S
N113 C116 1.279 . S
C114 C112 1.353 . S
C114 C117 1.348 . S
C114 H162 0.929 . S
C115 C116 1.358 . S
C115 C117 1.356 . S
C115 H163 0.930 . S
C116 N113 1.279 . S
C116 C115 1.358 . S
C116 H119 0.930 . S
C117 C114 1.348 . S
C117 C115 1.356 . S
H118 C112 0.930 . S
H119 C116 0.930 . S
C120 C122 1.348 1_565 S
C120 C123 1.356 . S
C120 O150 1.325 . S
N121 C124 1.314 . S
N121 C125 1.279 . S
C122 C120 1.348 1_545 S
C122 C124 1.353 1_545 S
C122 H164 0.929 . S
C123 C120 1.356 . S
C123 C125 1.358 . S
C123 H165 0.930 . S
C124 N121 1.314 . S
C124 C122 1.353 1_565 S
C124 H166 0.930 1_565 S
C125 N121 1.279 . S
C125 C123 1.358 . S
C125 H167 0.930 . S
C126 C127 1.348 1_455 S
C126 C128 1.356 . S
C126 O151 1.325 . S
C127 C126 1.348 1_655 S
C127 C129 1.353 1_655 S
C127 H168 0.929 . S
C128 C126 1.356 . S
C128 C130 1.358 . S
C128 H169 0.930 . S
C129 C127 1.353 1_455 S
C129 N131 1.314 . S
C129 H170 0.930 1_455 S
C130 C128 1.358 . S
C130 N131 1.279 . S
C130 H171 0.930 . S
N131 C129 1.314 . S
N131 C130 1.279 . S
C132 C134 1.353 . S
C132 N135 1.314 . S
C132 H138 0.930 . S
C133 N135 1.279 . S
C133 C136 1.358 . S
C133 H139 0.930 . S
C134 C132 1.353 . S
C134 C137 1.348 . S
C134 H172 0.929 . S
N135 Li90 1.990 . S
N135 C132 1.314 . S
N135 C133 1.279 . S
C136 C133 1.358 . S
C136 C137 1.356 . S
C136 H173 0.930 . S
C137 C134 1.348 . S
C137 C136 1.356 . S
H138 C132 0.930 . S
H139 C133 0.930 . S
C140 N141 1.314 . S
C140 C142 1.353 . S
C140 H146 0.930 . S
N141 Li91 1.990 . S
N141 C140 1.314 . S
N141 C144 1.279 . S
C142 C140 1.353 . S
C142 C145 1.348 . S
C142 H174 0.929 . S
C143 C144 1.358 . S
C143 C145 1.356 . S
C143 H175 0.930 . S
C144 N141 1.279 . S
C144 C143 1.358 . S
C144 H147 0.930 . S
C145 C142 1.348 . S
C145 C143 1.356 . S
H146 C140 0.930 . S
H147 C144 0.930 . S
O148 Li88 1.956 . S
O148 Li89 1.970 1_665 S
O148 Li90 1.961 . S
O148 C92 1.325 . S
O149 Li88 1.970 1_445 S
O149 Li89 1.956 . S
O149 Li91 1.961 . S
O149 C98 1.325 . S
O150 Li88 1.961 . S
O150 Li90 1.956 . S
O150 Li91 1.970 1_665 S
O150 C120 1.325 . S
O151 Li89 1.961 . S
O151 Li90 1.970 1_445 S
O151 Li91 1.956 . S
O151 C126 1.325 . S
H152 C94 0.929 . S
H153 C95 0.930 . S
H154 C96 0.930 1_455 S
H155 C97 0.930 . S
H156 C99 0.930 . S
H157 C101 0.929 . S
H158 C102 0.930 . S
H159 C103 0.930 1_565 S
H160 C106 0.930 . S
H161 C109 0.929 . S
H162 C114 0.929 . S
H163 C115 0.930 . S
H164 C122 0.929 . S
H165 C123 0.930 . S
H166 C124 0.930 1_545 S
H167 C125 0.930 . S
H168 C127 0.929 . S
H169 C128 0.930 . S
H170 C129 0.930 1_655 S
H171 C130 0.930 . S
H172 C134 0.929 . S
H173 C136 0.930 . S
H174 C142 0.929 . S
H175 C143 0.930 . S
Li176 N193 1.990 . S
Li176 O236 1.956 . S
Li176 O237 1.970 1_565 S
Li176 O238 1.961 1_455 S
Li177 N201 1.990 . S
Li177 O236 1.970 1_545 S
Li177 O237 1.956 . S
Li177 O239 1.961 1_455 S
Li178 N223 1.990 . S
Li178 O236 1.961 1_655 S
Li178 O238 1.956 . S
Li178 O239 1.970 1_565 S
Li179 N229 1.990 . S
Li179 O237 1.961 1_655 S
Li179 O238 1.970 1_545 S
Li179 O239 1.956 . S
C180 C182 1.348 1_565 S
C180 C183 1.356 . S
C180 O236 1.325 . S
N181 C184 1.314 . S
N181 C185 1.279 . S
C182 C180 1.348 1_545 S
C182 C184 1.353 1_545 S
C182 H240 0.929 . S
C183 C180 1.356 . S
C183 C185 1.358 . S
C183 H241 0.930 . S
C184 N181 1.314 . S
C184 C182 1.353 1_565 S
C184 H242 0.930 1_565 S
C185 N181 1.279 . S
C185 C183 1.358 . S
C185 H243 0.930 . S
C186 C189 1.348 . S
C186 C190 1.356 . S
C186 O237 1.325 . S
C187 N188 1.279 . S
C187 C190 1.358 . S
C187 H244 0.930 . S
N188 C187 1.279 . S
N188 C191 1.314 . S
C189 C186 1.348 . S
C189 C191 1.353 . S
C189 H245 0.929 . S
C190 C186 1.356 . S
C190 C187 1.358 . S
C190 H246 0.930 . S
C191 N188 1.314 . S
C191 C189 1.353 . S
C191 H247 0.930 . S
C192 N193 1.314 . S
C192 C197 1.353 . S
C192 H198 0.930 . S
N193 Li176 1.990 . S
N193 C192 1.314 . S
N193 C195 1.279 . S
C194 C195 1.358 . S
C194 C196 1.356 . S
C194 H248 0.930 . S
C195 N193 1.279 . S
C195 C194 1.358 . S
C195 H199 0.930 . S
C196 C194 1.356 . S
C196 C197 1.348 . S
C197 C192 1.353 . S
C197 C196 1.348 . S
C197 H249 0.929 . S
H198 C192 0.930 . S
H199 C195 0.930 . S
C200 N201 1.314 . S
C200 C202 1.353 . S
C200 H206 0.930 . S
N201 Li177 1.990 . S
N201 C200 1.314 . S
N201 C204 1.279 . S
C202 C200 1.353 . S
C202 C205 1.348 . S
C202 H250 0.929 . S
C203 C204 1.358 . S
C203 C205 1.356 . S
C203 H251 0.930 . S
C204 N201 1.279 . S
C204 C203 1.358 . S
C204 H207 0.930 . S
C205 C202 1.348 . S
C205 C203 1.356 . S
H206 C200 0.930 . S
H207 C204 0.930 . S
C208 C210 1.348 . S
C208 C211 1.356 . S
C208 O238 1.325 . S
N209 C212 1.314 . S
N209 C213 1.279 . S
C210 C208 1.348 . S
C210 C212 1.353 . S
C210 H252 0.929 . S
C211 C208 1.356 . S
C211 C213 1.358 . S
C211 H253 0.930 . S
C212 N209 1.314 . S
C212 C210 1.353 . S
C212 H254 0.930 . S
C213 N209 1.279 . S
C213 C211 1.358 . S
C213 H255 0.930 . S
C214 C215 1.348 1_545 S
C214 C216 1.356 . S
C214 O239 1.325 . S
C215 C214 1.348 1_565 S
C215 C217 1.353 1_565 S
C215 H256 0.929 . S
C216 C214 1.356 . S
C216 C218 1.358 . S
C216 H257 0.930 . S
C217 C215 1.353 1_545 S
C217 N219 1.314 . S
C217 H258 0.930 1_545 S
C218 C216 1.358 . S
C218 N219 1.279 . S
C218 H259 0.930 . S
N219 C217 1.314 . S
N219 C218 1.279 . S
C220 C222 1.353 . S
C220 N223 1.314 . S
C220 H226 0.930 . S
C221 N223 1.279 . S
C221 C224 1.358 . S
C221 H227 0.930 . S
C222 C220 1.353 . S
C222 C225 1.348 . S
C222 H260 0.929 . S
N223 Li178 1.990 . S
N223 C220 1.314 . S
N223 C221 1.279 . S
C224 C221 1.358 . S
C224 C225 1.356 . S
C224 H261 0.930 . S
C225 C222 1.348 . S
C225 C224 1.356 . S
H226 C220 0.930 . S
H227 C221 0.930 . S
C228 N229 1.314 . S
C228 C230 1.353 . S
C228 H234 0.930 . S
N229 Li179 1.990 . S
N229 C228 1.314 . S
N229 C232 1.279 . S
C230 C228 1.353 . S
C230 C233 1.348 . S
C230 H262 0.929 . S
C231 C232 1.358 . S
C231 C233 1.356 . S
C231 H263 0.930 . S
C232 N229 1.279 . S
C232 C231 1.358 . S
C232 H235 0.930 . S
C233 C230 1.348 . S
C233 C231 1.356 . S
H234 C228 0.930 . S
H235 C232 0.930 . S
O236 Li176 1.956 . S
O236 Li177 1.970 1_565 S
O236 Li178 1.961 1_455 S
O236 C180 1.325 . S
O237 Li176 1.970 1_545 S
O237 Li177 1.956 . S
O237 Li179 1.961 1_455 S
O237 C186 1.325 . S
O238 Li176 1.961 1_655 S
O238 Li178 1.956 . S
O238 Li179 1.970 1_565 S
O238 C208 1.325 . S
O239 Li177 1.961 1_655 S
O239 Li178 1.970 1_545 S
O239 Li179 1.956 . S
O239 C214 1.325 . S
H240 C182 0.929 . S
H241 C183 0.930 . S
H242 C184 0.930 1_545 S
H243 C185 0.930 . S
H244 C187 0.930 . S
H245 C189 0.929 . S
H246 C190 0.930 . S
H247 C191 0.930 . S
H248 C194 0.930 . S
H249 C197 0.929 . S
H250 C202 0.929 . S
H251 C203 0.930 . S
H252 C210 0.929 . S
H253 C211 0.930 . S
H254 C212 0.930 . S
H255 C213 0.930 . S
H256 C215 0.929 . S
H257 C216 0.930 . S
H258 C217 0.930 1_565 S
H259 C218 0.930 . S
H260 C222 0.929 . S
H261 C224 0.930 . S
H262 C230 0.929 . S
H263 C231 0.930 . S
H264 C291 0.929 . S
N265 C290 1.433 . S
N265 C296 1.435 . S
N265 C302 1.423 . S
H266 C292 0.930 . S
H267 C295 0.931 . S
H268 C294 0.929 . S
H269 C297 0.930 . S
H270 C298 0.932 . S
H271 C301 0.929 . S
H272 C300 0.931 . S
H273 C303 0.929 . S
H274 C307 0.932 1_455 S
H275 C304 0.931 . S
H276 C306 0.929 1_455 S
H277 C309 0.929 . S
H278 C310 0.930 . S
H279 C312 0.929 . S
H280 C313 0.931 . S
H281 C315 0.930 . S
H282 C316 0.932 . S
H283 C318 0.931 . S
H284 C319 0.929 . S
H285 C321 0.929 . S
H286 C322 0.931 . S
H287 C324 0.929 1_455 S
N288 C308 1.433 . S
N288 C314 1.435 . S
N288 C320 1.423 . S
H289 C325 0.932 1_455 S
C290 N265 1.433 . S
C290 C291 1.363 . S
C290 C295 1.370 1_655 S
C291 H264 0.929 . S
C291 C290 1.363 . S
C291 C292 1.385 . S
C292 H266 0.930 . S
C292 C291 1.385 . S
C292 C293 1.357 . S
C293 C292 1.357 . S
C293 C294 1.406 1_655 S
C294 H268 0.929 . S
C294 C293 1.406 1_455 S
C294 C295 1.391 . S
C295 H267 0.931 . S
C295 C290 1.370 1_455 S
C295 C294 1.391 . S
C296 N265 1.435 . S
C296 C297 1.358 1_655 S
C296 C301 1.371 . S
C297 H269 0.930 . S
C297 C296 1.358 1_455 S
C297 C298 1.405 . S
C298 H270 0.932 . S
C298 C297 1.405 . S
C298 C299 1.383 1_455 S
C299 C298 1.383 1_655 S
C299 C300 1.393 . S
C300 H272 0.931 . S
C300 C299 1.393 . S
C300 C301 1.382 . S
C301 H271 0.929 . S
C301 C296 1.371 . S
C301 C300 1.382 . S
C302 N265 1.423 . S
C302 C303 1.362 . S
C302 C307 1.388 . S
C303 H273 0.929 . S
C303 C302 1.362 . S
C303 C304 1.376 . S
C304 H275 0.931 . S
C304 C303 1.376 . S
C304 C305 1.396 . S
C305 C304 1.396 . S
C305 C306 1.348 . S
C305 C323 1.472 . S
C306 H276 0.929 1_655 S
C306 C305 1.348 . S
C306 C307 1.443 . S
C307 H274 0.932 1_655 S
C307 C302 1.388 . S
C307 C306 1.443 . S
C308 N288 1.433 . S
C308 C309 1.363 . S
C308 C313 1.370 1_655 S
C309 H277 0.929 . S
C309 C308 1.363 . S
C309 C310 1.385 . S
C310 H278 0.930 . S
C310 C309 1.385 . S
C310 C311 1.357 . S
C311 C310 1.357 . S
C311 C312 1.406 1_655 S
C312 H279 0.929 . S
C312 C311 1.406 1_455 S
C312 C313 1.391 . S
C313 H280 0.931 . S
C313 C308 1.370 1_455 S
C313 C312 1.391 . S
C314 N288 1.435 . S
C314 C315 1.358 1_655 S
C314 C319 1.371 . S
C315 H281 0.930 . S
C315 C314 1.358 1_455 S
C315 C316 1.405 . S
C316 H282 0.932 . S
C316 C315 1.405 . S
C316 C317 1.383 1_455 S
C317 C316 1.383 1_655 S
C317 C318 1.393 . S
C318 H283 0.931 . S
C318 C317 1.393 . S
C318 C319 1.382 . S
C319 H284 0.929 . S
C319 C314 1.371 . S
C319 C318 1.382 . S
C320 N288 1.423 . S
C320 C321 1.362 . S
C320 C325 1.388 . S
C321 H285 0.929 . S
C321 C320 1.362 . S
C321 C322 1.376 . S
C322 H286 0.931 . S
C322 C321 1.376 . S
C322 C323 1.396 . S
C323 C305 1.472 . S
C323 C322 1.396 . S
C323 C324 1.348 . S
C324 H287 0.929 1_655 S
C324 C323 1.348 . S
C324 C325 1.443 . S
C325 H289 0.932 1_655 S
C325 C320 1.388 . S
C325 C324 1.443 . S
H326 C353 0.929 . S
N327 C352 1.433 . S
N327 C358 1.435 . S
N327 C364 1.423 . S
H328 C354 0.930 . S
H329 C357 0.931 . S
H330 C356 0.929 . S
H331 C359 0.930 . S
H332 C360 0.932 . S
H333 C363 0.929 . S
H334 C362 0.931 . S
H335 C365 0.929 . S
H336 C369 0.932 1_565 S
H337 C366 0.931 . S
H338 C368 0.929 1_565 S
H339 C371 0.929 . S
H340 C372 0.930 . S
H341 C374 0.929 . S
H342 C375 0.931 . S
H343 C377 0.930 . S
H344 C378 0.932 . S
H345 C380 0.931 . S
H346 C381 0.929 . S
H347 C383 0.929 . S
H348 C384 0.931 . S
H349 C386 0.929 1_565 S
N350 C370 1.433 . S
N350 C376 1.435 . S
N350 C382 1.423 . S
H351 C387 0.932 1_565 S
C352 N327 1.433 . S
C352 C353 1.363 . S
C352 C357 1.370 1_545 S
C353 H326 0.929 . S
C353 C352 1.363 . S
C353 C354 1.385 . S
C354 H328 0.930 . S
C354 C353 1.385 . S
C354 C355 1.357 . S
C355 C354 1.357 . S
C355 C356 1.406 1_545 S
C356 H330 0.929 . S
C356 C355 1.406 1_565 S
C356 C357 1.391 . S
C357 H329 0.931 . S
C357 C352 1.370 1_565 S
C357 C356 1.391 . S
C358 N327 1.435 . S
C358 C359 1.358 1_545 S
C358 C363 1.371 . S
C359 H331 0.930 . S
C359 C358 1.358 1_565 S
C359 C360 1.405 . S
C360 H332 0.932 . S
C360 C359 1.405 . S
C360 C361 1.383 1_565 S
C361 C360 1.383 1_545 S
C361 C362 1.393 . S
C362 H334 0.931 . S
C362 C361 1.393 . S
C362 C363 1.382 . S
C363 H333 0.929 . S
C363 C358 1.371 . S
C363 C362 1.382 . S
C364 N327 1.423 . S
C364 C365 1.362 . S
C364 C369 1.388 . S
C365 H335 0.929 . S
C365 C364 1.362 . S
C365 C366 1.376 . S
C366 H337 0.931 . S
C366 C365 1.376 . S
C366 C367 1.396 . S
C367 C366 1.396 . S
C367 C368 1.348 . S
C367 C385 1.472 . S
C368 H338 0.929 1_545 S
C368 C367 1.348 . S
C368 C369 1.443 . S
C369 H336 0.932 1_545 S
C369 C364 1.388 . S
C369 C368 1.443 . S
C370 N350 1.433 . S
C370 C371 1.363 . S
C370 C375 1.370 1_545 S
C371 H339 0.929 . S
C371 C370 1.363 . S
C371 C372 1.385 . S
C372 H340 0.930 . S
C372 C371 1.385 . S
C372 C373 1.357 . S
C373 C372 1.357 . S
C373 C374 1.406 1_545 S
C374 H341 0.929 . S
C374 C373 1.406 1_565 S
C374 C375 1.391 . S
C375 H342 0.931 . S
C375 C370 1.370 1_565 S
C375 C374 1.391 . S
C376 N350 1.435 . S
C376 C377 1.358 1_545 S
C376 C381 1.371 . S
C377 H343 0.930 . S
C377 C376 1.358 1_565 S
C377 C378 1.405 . S
C378 H344 0.932 . S
C378 C377 1.405 . S
C378 C379 1.383 1_565 S
C379 C378 1.383 1_545 S
C379 C380 1.393 . S
C380 H345 0.931 . S
C380 C379 1.393 . S
C380 C381 1.382 . S
C381 H346 0.929 . S
C381 C376 1.371 . S
C381 C380 1.382 . S
C382 N350 1.423 . S
C382 C383 1.362 . S
C382 C387 1.388 . S
C383 H347 0.929 . S
C383 C382 1.362 . S
C383 C384 1.376 . S
C384 H348 0.931 . S
C384 C383 1.376 . S
C384 C385 1.396 . S
C385 C367 1.472 . S
C385 C384 1.396 . S
C385 C386 1.348 . S
C386 H349 0.929 1_545 S
C386 C385 1.348 . S
C386 C387 1.443 . S
C387 H351 0.932 1_545 S
C387 C382 1.388 . S
C387 C386 1.443 . S
H388 C415 0.929 . S
N389 C414 1.433 . S
N389 C420 1.435 . S
N389 C426 1.423 . S
H390 C416 0.930 . S
H391 C419 0.931 . S
H392 C418 0.929 . S
H393 C421 0.930 . S
H394 C422 0.932 . S
H395 C425 0.929 . S
H396 C424 0.931 . S
H397 C427 0.929 . S
H398 C431 0.932 . S
H399 C428 0.931 . S
H400 C430 0.929 . S
H401 C433 0.929 . S
H402 C434 0.930 . S
H403 C436 0.929 . S
H404 C437 0.931 . S
H405 C439 0.930 . S
H406 C440 0.932 . S
H407 C442 0.931 . S
H408 C443 0.929 . S
H409 C445 0.929 . S
H410 C446 0.931 . S
H411 C448 0.929 . S
N412 C432 1.433 . S
N412 C438 1.435 . S
N412 C444 1.423 . S
H413 C449 0.932 . S
C414 N389 1.433 . S
C414 C415 1.363 . S
C414 C419 1.370 . S
C415 H388 0.929 . S
C415 C414 1.363 . S
C415 C416 1.385 . S
C416 H390 0.930 . S
C416 C415 1.385 . S
C416 C417 1.357 . S
C417 C416 1.357 . S
C417 C418 1.406 . S
C418 H392 0.929 . S
C418 C417 1.406 . S
C418 C419 1.391 . S
C419 H391 0.931 . S
C419 C414 1.370 . S
C419 C418 1.391 . S
C420 N389 1.435 . S
C420 C421 1.358 . S
C420 C425 1.371 . S
C421 H393 0.930 . S
C421 C420 1.358 . S
C421 C422 1.405 . S
C422 H394 0.932 . S
C422 C421 1.405 . S
C422 C423 1.383 . S
C423 C422 1.383 . S
C423 C424 1.393 . S
C424 H396 0.931 . S
C424 C423 1.393 . S
C424 C425 1.382 . S
C425 H395 0.929 . S
C425 C420 1.371 . S
C425 C424 1.382 . S
C426 N389 1.423 . S
C426 C427 1.362 . S
C426 C431 1.388 . S
C427 H397 0.929 . S
C427 C426 1.362 . S
C427 C428 1.376 . S
C428 H399 0.931 . S
C428 C427 1.376 . S
C428 C429 1.396 . S
C429 C428 1.396 . S
C429 C430 1.348 . S
C429 C447 1.472 . S
C430 H400 0.929 . S
C430 C429 1.348 . S
C430 C431 1.443 . S
C431 H398 0.932 . S
C431 C426 1.388 . S
C431 C430 1.443 . S
C432 N412 1.433 . S
C432 C433 1.363 . S
C432 C437 1.370 . S
C433 H401 0.929 . S
C433 C432 1.363 . S
C433 C434 1.385 . S
C434 H402 0.930 . S
C434 C433 1.385 . S
C434 C435 1.357 . S
C435 C434 1.357 . S
C435 C436 1.406 . S
C436 H403 0.929 . S
C436 C435 1.406 . S
C436 C437 1.391 . S
C437 H404 0.931 . S
C437 C432 1.370 . S
C437 C436 1.391 . S
C438 N412 1.435 . S
C438 C439 1.358 . S
C438 C443 1.371 . S
C439 H405 0.930 . S
C439 C438 1.358 . S
C439 C440 1.405 . S
C440 H406 0.932 . S
C440 C439 1.405 . S
C440 C441 1.383 . S
C441 C440 1.383 . S
C441 C442 1.393 . S
C442 H407 0.931 . S
C442 C441 1.393 . S
C442 C443 1.382 . S
C443 H408 0.929 . S
C443 C438 1.371 . S
C443 C442 1.382 . S
C444 N412 1.423 . S
C444 C445 1.362 . S
C444 C449 1.388 . S
C445 H409 0.929 . S
C445 C444 1.362 . S
C445 C446 1.376 . S
C446 H410 0.931 . S
C446 C445 1.376 . S
C446 C447 1.396 . S
C447 C429 1.472 . S
C447 C446 1.396 . S
C447 C448 1.348 . S
C448 H411 0.929 . S
C448 C447 1.348 . S
C448 C449 1.443 . S
C449 H413 0.932 . S
C449 C444 1.388 . S
C449 C448 1.443 . S
C450 C451 1.369 . S
C450 C452 1.419 . S
C450 H454 0.930 . S
C451 C450 1.369 . S
C451 C460 1.430 1_655 S
C452 C450 1.419 . S
C452 C453 1.363 . S
C452 H455 0.929 . S
C453 C452 1.363 . S
C453 C459 1.428 1_655 S
H454 C450 0.930 . S
H455 C452 0.929 . S
S456 N457 1.613 . S
S456 N458 1.610 . S
N457 S456 1.613 . S
N457 C460 1.349 . S
N458 S456 1.610 . S
N458 C459 1.351 . S
C459 C453 1.428 1_455 S
C459 N458 1.351 . S
C459 C460 1.434 . S
C460 C451 1.430 1_455 S
C460 N457 1.349 . S
C460 C459 1.434 . S
C461 C462 1.369 . S
C461 C463 1.419 . S
C461 H465 0.930 . S
C462 C461 1.369 . S
C462 C471 1.429 . S
C463 C461 1.419 . S
C463 C464 1.363 . S
C463 H466 0.929 . S
C464 C463 1.363 . S
C464 C470 1.428 1_565 S
H465 C461 0.930 . S
H466 C463 0.929 . S
S467 N468 1.613 . S
S467 N469 1.610 . S
N468 S467 1.613 . S
N468 C471 1.350 1_545 S
N469 S467 1.610 . S
N469 C470 1.351 . S
C470 C464 1.428 1_545 S
C470 N469 1.351 . S
C470 C471 1.434 1_545 S
C471 C462 1.429 . S
C471 N468 1.350 1_565 S
C471 C470 1.434 1_565 S
C472 C473 1.369 . S
C472 C474 1.419 . S
C472 H476 0.930 . S
C473 C472 1.369 . S
C473 C482 1.429 . S
C474 C472 1.419 . S
C474 C475 1.363 . S
C474 H477 0.929 . S
C475 C474 1.363 . S
C475 C481 1.428 . S
H476 C472 0.930 . S
H477 C474 0.929 . S
S478 N479 1.613 . S
S478 N480 1.610 . S
N479 S478 1.613 . S
N479 C482 1.350 . S
N480 S478 1.610 . S
N480 C481 1.351 . S
C481 C475 1.428 . S
C481 N480 1.351 . S
C481 C482 1.434 . S
C482 C473 1.429 . S
C482 N479 1.350 . S
C482 C481 1.434 . S
C483 C484 1.369 . S
C483 C485 1.419 . S
C483 H487 0.930 . S
C484 C483 1.369 . S
C484 C493 1.429 . S
C485 C483 1.419 . S
C485 C486 1.363 . S
C485 H488 0.929 . S
C486 C485 1.363 . S
C486 C492 1.430 1_455 S
H487 C483 0.930 . S
H488 C485 0.929 . S
S489 N490 1.613 1_655 S
S489 N491 1.610 . S
N490 S489 1.613 1_455 S
N490 C493 1.350 . S
N491 S489 1.610 . S
N491 C492 1.349 . S
C492 C486 1.430 1_655 S
C492 N491 1.349 . S
C492 C493 1.434 1_655 S
C493 C484 1.429 . S
C493 N490 1.350 . S
C493 C492 1.434 1_455 S
C494 C495 1.369 . S
C494 C496 1.419 . S
C494 H498 0.930 . S
C495 C494 1.369 . S
C495 C504 1.429 . S
C496 C494 1.419 . S
C496 C497 1.363 . S
C496 H499 0.929 . S
C497 C496 1.363 . S
C497 C503 1.428 . S
H498 C494 0.930 . S
H499 C496 0.929 . S
S500 N501 1.613 . S
S500 N502 1.610 . S
N501 S500 1.613 . S
N501 C504 1.350 . S
N502 S500 1.610 . S
N502 C503 1.351 . S
C503 C497 1.428 . S
C503 N502 1.351 . S
C503 C504 1.434 . S
C504 C495 1.429 . S
C504 N501 1.350 . S
C504 C503 1.434 . S
C505 C506 1.369 . S
C505 C507 1.419 . S
C505 H509 0.930 . S
C506 C505 1.369 . S
C506 C515 1.429 . S
C507 C505 1.419 . S
C507 C508 1.363 . S
C507 H510 0.929 . S
C508 C507 1.363 . S
C508 C514 1.428 . S
H509 C505 0.930 . S
H510 C507 0.929 . S
S511 N512 1.613 . S
S511 N513 1.610 . S
N512 S511 1.613 . S
N512 C515 1.350 . S
N513 S511 1.610 . S
N513 C514 1.351 . S
C514 C508 1.428 . S
C514 N513 1.351 . S
C514 C515 1.434 . S
C515 C506 1.429 . S
C515 N512 1.350 . S
C515 C514 1.434 . S
C516 C517 1.369 1_565 S
C516 C518 1.419 . S
C516 H520 0.930 . S
C517 C516 1.369 1_545 S
C517 C526 1.429 . S
C518 C516 1.419 . S
C518 C519 1.363 1_565 S
C518 H521 0.929 . S
C519 C518 1.363 1_545 S
C519 C525 1.428 . S
H520 C516 0.930 . S
H521 C518 0.929 . S
S522 N523 1.613 . S
S522 N524 1.610 . S
N523 S522 1.613 . S
N523 C526 1.350 . S
N524 S522 1.610 . S
N524 C525 1.351 . S
C525 C519 1.428 . S
C525 N524 1.351 . S
C525 C526 1.434 . S
C526 C517 1.429 . S
C526 N523 1.350 . S
C526 C525 1.434 . S
C527 C528 1.369 . S
C527 C529 1.419 . S
C527 H531 0.930 . S
C528 C527 1.369 . S
C528 C537 1.429 . S
C529 C527 1.419 . S
C529 C530 1.363 . S
C529 H532 0.929 . S
C530 C529 1.363 . S
C530 C536 1.428 . S
H531 C527 0.930 . S
H532 C529 0.929 . S
S533 N534 1.613 . S
S533 N535 1.610 1_554 S
N534 S533 1.613 . S
N534 C537 1.350 1_554 S
N535 S533 1.610 1_556 S
N535 C536 1.351 . S
C536 C530 1.428 . S
C536 N535 1.351 . S
C536 C537 1.434 . S
C537 C528 1.429 . S
C537 N534 1.350 1_556 S
C537 C536 1.434 . S
C538 C539 1.369 . S
C538 C540 1.419 . S
C538 H542 0.930 . S
C539 C538 1.369 . S
C539 C548 1.429 . S
C540 C538 1.419 . S
C540 C541 1.363 . S
C540 H543 0.929 . S
C541 C540 1.363 . S
C541 C547 1.429 . S
H542 C538 0.930 . S
H543 C540 0.929 . S
S544 N545 1.613 1_455 S
S544 N546 1.610 . S
N545 S544 1.613 1_655 S
N545 C548 1.350 . S
N546 S544 1.610 . S
N546 C547 1.342 1_455 S
C547 C541 1.429 . S
C547 N546 1.342 1_655 S
C547 C548 1.442 . S
C548 C539 1.429 . S
C548 N545 1.350 . S
C548 C547 1.442 . S
C549 C550 1.369 . S
C549 C551 1.419 . S
C549 H553 0.930 . S
C550 C549 1.369 . S
C550 C559 1.429 . S
C551 C549 1.419 . S
C551 C552 1.363 . S
C551 H554 0.929 . S
C552 C551 1.363 . S
C552 C558 1.428 . S
H553 C549 0.930 . S
H554 C551 0.929 . S
S555 N556 1.613 . S
S555 N557 1.610 . S
N556 S555 1.613 . S
N556 C559 1.350 . S
N557 S555 1.610 . S
N557 C558 1.351 . S
C558 C552 1.428 . S
C558 N557 1.351 . S
C558 C559 1.434 . S
C559 C550 1.429 . S
C559 N556 1.350 . S
C559 C558 1.434 . S
C560 C561 1.369 . S
C560 C562 1.419 . S
C560 H564 0.930 . S
C561 C560 1.369 . S
C561 C570 1.429 . S
C562 C560 1.419 . S
C562 C563 1.363 . S
C562 H565 0.929 . S
C563 C562 1.363 . S
C563 C569 1.428 . S
H564 C560 0.930 . S
H565 C562 0.929 . S
S566 N567 1.613 . S
S566 N568 1.610 . S
N567 S566 1.613 . S
N567 C570 1.350 . S
N568 S566 1.610 . S
N568 C569 1.351 . S
C569 C563 1.428 . S
C569 N568 1.351 . S
C569 C570 1.434 . S
C570 C561 1.429 . S
C570 N567 1.350 . S
C570 C569 1.434 . S
C571 C572 1.369 . S
C571 C573 1.419 . S
C571 H575 0.930 . S
C572 C571 1.369 . S
C572 C581 1.429 . S
C573 C571 1.419 . S
C573 C574 1.363 . S
C573 H576 0.929 . S
C574 C573 1.363 . S
C574 C580 1.428 1_455 S
H575 C571 0.930 . S
H576 C573 0.929 . S
S577 N578 1.613 . S
S577 N579 1.610 . S
N578 S577 1.613 . S
N578 C581 1.350 1_655 S
N579 S577 1.610 . S
N579 C580 1.351 . S
C580 C574 1.428 1_655 S
C580 N579 1.351 . S
C580 C581 1.434 1_655 S
C581 C572 1.429 . S
C581 N578 1.350 1_455 S
C581 C580 1.434 1_455 S
C453 C317 1.429 . S
C451 C29 1.402 . S
C462 C137 1.405 . S
C464 C361 1.453 1_565 S
C473 C225 1.413 . S
C475 C423 1.451 . S
C484 C49 1.408 . S
C486 C299 1.450 1_455 S
C497 C379 1.424 . S
C495 C117 1.408 . S
C506 C205 1.404 . S
C508 C441 1.427 . S
C519 C355 1.591 . S
C517 C233 1.710 . S
C528 C57 1.702 . S
C530 C417 1.598 . S
C541 C293 1.596 . S
C539 C108 1.704 . S
C552 C373 1.644 1_565 S
C550 C196 1.700 . S
C563 C435 1.636 . S
C561 C20 1.703 . S
C572 C145 1.704 . S
C574 C311 1.634 1_455 S
