# Generated by pormake.
# Topology pth, (4,4)-cn, num edge types: 1
# Building blocks:
#     Node 0, Type 0, BuildingBlock: GALJAG_clean_sbu_0, # of connection points: 4
#     Node 1, Type 0, BuildingBlock: GALJAG_clean_sbu_0, # of connection points: 4
#     Node 2, Type 0, BuildingBlock: GALJAG_clean_sbu_0, # of connection points: 4
#     Node 3, Type 1, BuildingBlock: NAWXER_clean_linker_0, # of connection points: 4
#     Node 4, Type 1, BuildingBlock: NAWXER_clean_linker_0, # of connection points: 4
#     Node 5, Type 1, BuildingBlock: NAWXER_clean_linker_0, # of connection points: 4
#     Edge 6, Type (0, 1), BuildingBlock: AJUNOK_clean_linker_0, # of connection points: 2
#     Edge 7, Type (0, 1), BuildingBlock: AJUNOK_clean_linker_0, # of connection points: 2
#     Edge 8, Type (0, 1), BuildingBlock: AJUNOK_clean_linker_0, # of connection points: 2
#     Edge 9, Type (0, 1), BuildingBlock: AJUNOK_clean_linker_0, # of connection points: 2
#     Edge 10, Type (0, 1), BuildingBlock: AJUNOK_clean_linker_0, # of connection points: 2
#     Edge 11, Type (0, 1), BuildingBlock: AJUNOK_clean_linker_0, # of connection points: 2
#     Edge 12, Type (0, 1), BuildingBlock: AJUNOK_clean_linker_0, # of connection points: 2
#     Edge 13, Type (0, 1), BuildingBlock: AJUNOK_clean_linker_0, # of connection points: 2
#     Edge 14, Type (0, 1), BuildingBlock: AJUNOK_clean_linker_0, # of connection points: 2
#     Edge 15, Type (0, 1), BuildingBlock: AJUNOK_clean_linker_0, # of connection points: 2
#     Edge 16, Type (0, 1), BuildingBlock: AJUNOK_clean_linker_0, # of connection points: 2
#     Edge 17, Type (0, 1), BuildingBlock: AJUNOK_clean_linker_0, # of connection points: 2
# Relax obj value: 0.002
# Max RMSD: 0.036
# Mean RMSD: 0.021
data_MOF--net-pth--node1-GALJAG_clean_sbu_0--node2-NAWXER_clean_linker_0--edge1-AJUNOK_clean_linker_0
_symmetry_space_group_name_H-M    P1
_symmetry_Int_Tables_number       1
_symmetry_cell_setting            triclinic
loop_
_symmetry_equiv_pos_as_xyz
'x, y, z'
_cell_length_a     23.028551
_cell_length_b     23.026692
_cell_length_c     49.705676
_cell_angle_alpha  90.059087
_cell_angle_beta   90.135536
_cell_angle_gamma 120.02415
loop_
_atom_site_label
_atom_site_type_symbol
_atom_site_fract_x
_atom_site_fract_y
_atom_site_fract_z
_atom_type_partial_charge
In0 In 1.00054 0.00469 0.04904 0.0
O1 O 0.95448 0.06695 0.0634 0.0
O2 O 0.03098 0.06684 0.08746 0.0
C3 C 0.90667 0.92127 0.01354 0.0
C4 C 0.09877 0.09796 0.018 0.0
C5 C 0.00534 0.91375 0.08175 0.0
O6 O 0.89202 0.9424 0.03442 0.0
O7 O 0.96844 0.94284 0.01043 0.0
O8 O 0.05605 0.95579 0.06859 0.0
O9 O 0.95344 0.91804 0.07813 0.0
C10 C 0.99048 0.08809 0.08432 0.0
O11 O 0.10396 0.0512 0.02899 0.0
O12 O 0.04437 0.09675 0.02261 0.0
In13 In 0.00262 0.00399 0.38155 0.0
O14 O 0.06196 0.10507 0.36042 0.0
O15 O 0.95708 0.0462 0.35254 0.0
C16 C 0.09561 0.00647 0.41567 0.0
C17 C 0.91068 0.0031 0.41526 0.0
C18 C 0.98936 0.90907 0.34611 0.0
O19 O 0.10723 0.05627 0.40125 0.0
O20 O 0.03766 0.95667 0.41283 0.0
O21 O 0.95118 0.89568 0.36614 0.0
O22 O 0.03335 0.97003 0.34384 0.0
C23 C 0.01142 0.09986 0.34808 0.0
O24 O 0.8979 0.95382 0.40021 0.0
O25 O 0.96978 0.05181 0.41357 0.0
In26 In 0.00281 1.00016 0.71562 0.0
O27 O 0.95355 0.89608 0.73515 0.0
O28 O 0.92519 0.9659 0.74868 0.0
C29 C 0.0889 0.99627 0.67989 0.0
C30 C 0.91493 0.00701 0.68162 0.0
C31 C 0.09048 0.09275 0.7504 0.0
O32 O 0.05255 0.94707 0.69496 0.0
O33 O 0.08064 0.04605 0.68273 0.0
O34 O 0.04641 0.1 0.73813 0.0
O35 O 0.08983 0.03881 0.74517 0.0
C36 C 0.91725 0.9078 0.75074 0.0
O37 O 0.95932 0.05771 0.69413 0.0
O38 O 0.91527 0.95332 0.68622 0.0
C39 C 0.96674 0.28693 0.25831 0.0
C40 C 0.0148 0.30567 0.27892 0.0
C41 C 0.96404 0.33554 0.24243 0.0
C42 C 0.01032 0.40395 0.24641 0.0
C43 C 0.05975 0.37424 0.28343 0.0
C44 C 0.05754 0.42283 0.26731 0.0
C45 C 0.00819 0.45632 0.22979 0.0
C46 C 0.04918 0.331 0.17102 0.0
C47 C 0.99367 0.29238 0.15417 0.0
C48 C 0.05203 0.38286 0.18666 0.0
C49 C 0.99984 0.39749 0.18546 0.0
C50 C 0.94177 0.30769 0.15296 0.0
C51 C 0.94517 0.36016 0.16828 0.0
C52 C 0.0025 0.45276 0.20146 0.0
C53 C 0.05661 0.72835 0.17136 0.0
C54 C 0.00868 0.71158 0.15087 0.0
C55 C 0.05526 0.67828 0.18773 0.0
C56 C 0.00588 0.61075 0.18383 0.0
C57 C 0.96058 0.6439 0.14655 0.0
C58 C 0.95943 0.59394 0.16279 0.0
C59 C 0.00377 0.55691 0.20075 0.0
C60 C 0.95256 0.68079 0.25466 0.0
C61 C 0.99309 0.70718 0.27759 0.0
C62 C 0.95645 0.63251 0.23894 0.0
C63 C 0.00264 0.61147 0.24538 0.0
C64 C 0.03757 0.68472 0.28461 0.0
C65 C 0.04245 0.63741 0.2686 0.0
C66 C 0.00668 0.55936 0.2292 0.0
H67 H 0.93106 0.23455 0.25447 0.0
H68 H 0.92521 0.31948 0.22724 0.0
H69 H 0.09594 0.39046 0.29969 0.0
H70 H 0.09292 0.47532 0.27114 0.0
H71 H 0.09104 0.32204 0.17176 0.0
H72 H 0.09533 0.4121 0.19942 0.0
H73 H 0.89831 0.27886 0.14024 0.0
H74 H 0.90459 0.37105 0.167 0.0
H75 H 0.0944 0.78019 0.17495 0.0
H76 H 0.09277 0.69226 0.20338 0.0
H77 H 0.9239 0.62964 0.13053 0.0
H78 H 0.92159 0.54212 0.15915 0.0
H79 H 0.91712 0.69673 0.2492 0.0
H80 H 0.92265 0.61112 0.22199 0.0
H81 H 0.06908 0.7044 0.30232 0.0
H82 H 0.0776 0.62127 0.27431 0.0
N83 N 0.00988 0.50945 0.24254 0.0
N84 N 1.00067 0.50314 0.18807 0.0
C85 C 0.72537 0.04809 0.50692 0.0
C86 C 0.70814 0.00388 0.48494 0.0
C87 C 0.67558 0.04784 0.52302 0.0
C88 C 0.60756 0.00156 0.51813 0.0
C89 C 0.64002 0.95841 0.47982 0.0
C90 C 0.59032 0.95735 0.49622 0.0
C91 C 0.55372 0.00091 0.53467 0.0
C92 C 0.68203 0.96095 0.59143 0.0
C93 C 0.71163 0.00856 0.61219 0.0
C94 C 0.63088 0.95901 0.57557 0.0
C95 C 0.60922 0.00552 0.57982 0.0
C96 C 0.68816 0.05344 0.61701 0.0
C97 C 0.63755 0.05194 0.60096 0.0
C98 C 0.55548 0.00482 0.56312 0.0
C99 C 0.2785 0.95053 0.59069 0.0
C100 C 0.2939 0.99896 0.61082 0.0
C101 C 0.32946 0.95209 0.5749 0.0
C102 C 0.39662 0.00214 0.57903 0.0
C103 C 0.3612 0.04809 0.61528 0.0
C104 C 0.41212 0.04942 0.59962 0.0
C105 C 0.45129 0.00385 0.56283 0.0
C106 C 0.33036 0.05284 0.50554 0.0
C107 C 0.29815 0.00446 0.48529 0.0
C108 C 0.37938 0.05149 0.52175 0.0
C109 C 0.39691 0.0017 0.51795 0.0
C110 C 0.3167 0.95556 0.48118 0.0
C111 C 0.36591 0.95444 0.49727 0.0
C112 C 0.44981 1.00048 0.53447 0.0
H113 H 0.77737 0.08289 0.51176 0.0
H114 H 0.6904 0.08411 0.53919 0.0
H115 H 0.62504 0.92418 0.4629 0.0
H116 H 0.53821 0.9218 0.49178 0.0
H117 H 0.69864 0.92534 0.58738 0.0
H118 H 0.60828 0.92114 0.56 0.0
H119 H 0.70831 0.08921 0.63341 0.0
H120 H 0.62076 0.08745 0.60498 0.0
H121 H 0.22701 0.9119 0.58701 0.0
H122 H 0.31644 0.9139 0.55963 0.0
H123 H 0.37446 0.08519 0.63105 0.0
H124 H 0.46365 0.08782 0.60342 0.0
H125 H 0.31715 0.09126 0.50896 0.0
H126 H 0.40398 0.08967 0.53709 0.0
H127 H 0.29347 0.91849 0.46535 0.0
H128 H 0.37942 0.91627 0.49371 0.0
N129 N 0.50073 0.99856 0.52154 0.0
N130 N 0.50431 0.00648 0.57602 0.0
C131 C 0.32405 0.27606 0.84131 0.0
C132 C 0.29547 0.29459 0.82036 0.0
C133 C 0.3762 0.32499 0.85696 0.0
C134 C 0.39986 0.39339 0.85227 0.0
C135 C 0.32086 0.36308 0.81515 0.0
C136 C 0.37239 0.4119 0.83097 0.0
C137 C 0.45486 0.44643 0.86856 0.0
C138 C 0.28658 0.32494 0.92634 0.0
C139 C 0.30417 0.29728 0.94792 0.0
C140 C 0.33599 0.37339 0.90978 0.0
C141 C 0.40388 0.39362 0.91393 0.0
C142 C 0.37216 0.31802 0.95219 0.0
C143 C 0.4215 0.36591 0.93543 0.0
C144 C 0.45724 0.44599 0.89701 0.0
C145 C 0.68097 0.72651 0.92172 0.0
C146 C 0.70728 0.71298 0.9448 0.0
C147 C 0.6331 0.67391 0.90598 0.0
C148 C 0.61234 0.60688 0.91257 0.0
C149 C 0.68508 0.6462 0.95195 0.0
C150 C 0.63813 0.5936 0.93593 0.0
C151 C 0.56061 0.55028 0.8964 0.0
C152 C 0.73119 0.66953 0.83955 0.0
C153 C 0.7149 0.70131 0.81922 0.0
C154 C 0.68072 0.61994 0.85545 0.0
C155 C 0.61323 0.60142 0.85121 0.0
C156 C 0.64728 0.68145 0.81456 0.0
C157 C 0.59689 0.63165 0.83031 0.0
C158 C 0.55916 0.54961 0.86797 0.0
H159 H 0.30597 0.22367 0.84565 0.0
H160 H 0.39806 0.3093 0.87264 0.0
H161 H 0.30157 0.37905 0.79859 0.0
H162 H 0.39065 0.46433 0.82661 0.0
H163 H 0.23455 0.30919 0.92223 0.0
H164 H 0.32105 0.3953 0.89386 0.0
H165 H 0.38729 0.298 0.96877 0.0
H166 H 0.4736 0.38133 0.93925 0.0
H167 H 0.69662 0.77775 0.91616 0.0
H168 H 0.61178 0.68582 0.88888 0.0
H169 H 0.70465 0.63481 0.96977 0.0
H170 H 0.62215 0.54244 0.94174 0.0
H171 H 0.78299 0.68379 0.84338 0.0
H172 H 0.69436 0.59614 0.87107 0.0
H173 H 0.63343 0.70441 0.79867 0.0
H174 H 0.54512 0.61751 0.82646 0.0
N175 N 0.50595 0.49824 0.85523 0.0
N176 N 0.51006 0.49796 0.90973 0.0
C177 C 0.96897 0.18221 0.09325 0.0
C178 C 0.98829 0.13702 0.10288 0.0
C179 C 0.9706 0.23198 0.11 0.0
C180 C 0.99071 0.23782 0.13713 0.0
H181 H 0.95427 0.18037 0.0724 0.0
H182 H 0.9573 0.26702 0.10145 0.0
S183 S 0.03874 0.12643 0.17279 0.0
N184 N 0.02435 0.09836 0.14151 0.0
N185 N 0.02495 0.19024 0.17333 0.0
C186 C 0.00797 0.19132 0.14721 0.0
C187 C 0.0073 0.14131 0.13001 0.0
C188 C 0.80521 0.94422 0.44215 0.0
C189 C 0.86008 0.00446 0.43307 0.0
C190 C 0.7567 0.94452 0.45907 0.0
C191 C 0.76077 0.00506 0.46725 0.0
H192 H 0.80011 0.89647 0.43642 0.0
H193 H 0.71596 0.89689 0.46598 0.0
S194 S 0.8916 0.17628 0.44682 0.0
N195 N 0.91436 0.12614 0.43244 0.0
N196 N 0.82204 0.12671 0.46338 0.0
C197 C 0.81483 0.06563 0.45781 0.0
C198 C 0.8647 0.06532 0.44092 0.0
C199 C 0.86307 0.79401 0.77211 0.0
C200 C 0.86743 0.85691 0.76927 0.0
C201 C 0.81452 0.74427 0.78876 0.0
C202 C 0.76818 0.75546 0.8029 0.0
H203 H 0.89703 0.78282 0.76124 0.0
H204 H 0.81223 0.69621 0.79012 0.0
S205 S 0.76021 0.91226 0.8037 0.0
N206 N 0.82249 0.92823 0.78306 0.0
N207 N 0.73142 0.83458 0.81412 0.0
C208 C 0.77269 0.81834 0.80067 0.0
C209 C 0.82229 0.86912 0.78393 0.0
C210 C 0.06473 0.85931 0.10332 0.0
C211 C 0.006 0.86316 0.10001 0.0
C212 C 0.06576 0.81092 0.12018 0.0
C213 C 0.00797 0.76442 0.13413 0.0
H214 H 0.11014 0.89359 0.09269 0.0
H215 H 0.11168 0.809 0.12191 0.0
S216 S 0.84284 0.7557 0.13394 0.0
N217 N 0.88935 0.81775 0.11324 0.0
N218 N 0.89177 0.72728 0.14478 0.0
C219 C 0.94944 0.76849 0.13143 0.0
C220 C 0.94833 0.81773 0.11442 0.0
C221 C 0.20926 0.06343 0.43746 0.0
C222 C 0.14591 0.00564 0.43412 0.0
C223 C 0.25798 0.06312 0.4544 0.0
C224 C 0.24527 0.00484 0.46837 0.0
H225 H 0.22153 0.10918 0.42683 0.0
H226 H 0.30639 0.10839 0.45619 0.0
S227 S 0.08671 0.8415 0.4678 0.0
N228 N 0.07258 0.88918 0.44714 0.0
N229 N 0.16425 0.88902 0.47881 0.0
C230 C 0.18199 0.94715 0.46556 0.0
C231 C 0.13228 0.94745 0.44849 0.0
C232 C 0.19748 0.14013 0.77644 0.0
C233 C 0.14054 0.1439 0.76885 0.0
C234 C 0.24684 0.18863 0.79326 0.0
C235 C 0.24107 0.24263 0.80332 0.0
H236 H 0.20466 0.09996 0.76897 0.0
H237 H 0.29054 0.18443 0.798 0.0
S238 S 0.09885 0.27236 0.79138 0.0
N239 N 0.07963 0.2043 0.77369 0.0
N240 N 0.17167 0.29462 0.80586 0.0
C241 C 0.18358 0.24615 0.79642 0.0
C242 C 0.13352 0.19701 0.77908 0.0
C243 C 0.8067 0.94925 0.65631 0.0
C244 C 0.865 0.00926 0.66349 0.0
C245 C 0.75769 0.94954 0.63965 0.0
C246 C 0.76525 0.00981 0.62934 0.0
H247 H 0.79822 0.90159 0.66395 0.0
H248 H 0.71298 0.90218 0.63518 0.0
S249 S 0.91143 0.18011 0.64023 0.0
N250 N 0.92903 0.13036 0.65806 0.0
N251 N 0.83767 0.13077 0.62617 0.0
C252 C 0.82403 0.0701 0.6359 0.0
C253 C 0.87371 0.06985 0.65309 0.0
C254 C 0.79138 0.82542 0.00507 0.0
C255 C 0.85537 0.8715 0.99517 0.0
C256 C 0.74356 0.77421 0.98861 0.0
C257 C 0.75765 0.76843 0.96157 0.0
H258 H 0.77882 0.82768 0.02589 0.0
H259 H 0.69526 0.73881 0.99707 0.0
S260 S 0.91615 0.87818 0.92557 0.0
N261 N 0.92962 0.90895 0.95644 0.0
N262 N 0.83886 0.81367 0.92536 0.0
C263 C 0.82062 0.81516 0.95122 0.0
C264 C 0.86977 0.86647 0.96808 0.0
C265 C 0.96563 0.79236 0.33756 0.0
C266 C 0.98611 0.85706 0.32777 0.0
C267 C 0.96786 0.7439 0.32116 0.0
C268 C 0.98903 0.75812 0.29428 0.0
H269 H 0.94983 0.77976 0.35828 0.0
H270 H 0.95313 0.69505 0.32955 0.0
S271 S 0.04407 0.91835 0.25854 0.0
N272 N 0.02649 0.93209 0.28929 0.0
N273 N 0.02862 0.84013 0.25828 0.0
C274 C 0.00766 0.8218 0.28401 0.0
C275 C 0.00677 0.87156 0.30082 0.0
C276 C 0.14509 0.9393 0.65793 0.0
C277 C 0.13932 0.99695 0.66118 0.0
C278 C 0.19436 0.93983 0.64118 0.0
C279 C 0.24002 0.99822 0.62733 0.0
H280 H 0.11173 0.89354 0.66857 0.0
H281 H 0.19773 0.89469 0.63953 0.0
S282 S 0.24421 0.16123 0.62763 0.0
N283 N 0.18218 0.11333 0.6481 0.0
N284 N 0.27454 0.11395 0.61681 0.0
C285 C 0.23408 0.05572 0.62997 0.0
C286 C 0.18377 0.05517 0.64683 0.0
C287 C 0.2032 0.14074 0.9904 0.0
C288 C 0.15155 0.14991 1.00076 0.0
C289 C 0.25239 0.1886 0.97337 0.0
C290 C 0.25193 0.24752 0.96619 0.0
H291 H 0.20512 0.09582 0.99513 0.0
H292 H 0.29053 0.1789 0.96546 0.0
S293 S 0.13112 0.29829 0.98996 0.0
N294 N 0.10497 0.22409 0.00371 0.0
N295 N 0.1981 0.31439 0.97229 0.0
C296 C 0.20147 0.25797 0.97694 0.0
C297 C 0.15118 0.20914 0.99409 0.0
C298 C 0.95472 0.15164 0.32312 0.0
C299 C 0.01443 0.15278 0.33026 0.0
C300 C 0.95546 0.20119 0.30658 0.0
C301 C 0.01591 0.25368 0.29631 0.0
H302 H 0.90687 0.11257 0.33064 0.0
H303 H 0.90825 0.19878 0.30208 0.0
S304 S 0.18575 0.27701 0.30748 0.0
N305 N 0.13557 0.20954 0.3251 0.0
N306 N 0.13685 0.30187 0.29341 0.0
C307 C 0.07598 0.25492 0.30297 0.0
C308 C 0.07527 0.20467 0.32005 0.0
loop_
_geom_bond_atom_site_label_1
_geom_bond_atom_site_label_2
_geom_bond_distance
_geom_bond_site_symmetry_2
_ccdc_geom_bond_type
In0 O1 2.294 1_455 S
In0 O2 2.326 . S
In0 O6 2.266 1_445 S
In0 O7 2.326 1_445 S
In0 O8 2.266 1_545 S
In0 O9 2.326 1_445 S
In0 O11 2.294 . S
In0 O12 2.326 . S
O1 In0 2.294 1_655 S
O1 C10 1.240 1_655 S
O2 In0 2.326 . S
O2 C10 1.252 . S
C3 O6 1.252 . S
C3 O7 1.260 . S
C4 O11 1.240 . S
C4 O12 1.252 . S
C5 O8 1.252 1_655 S
C5 O9 1.260 . S
O6 In0 2.266 1_665 S
O6 C3 1.252 . S
O7 In0 2.326 1_665 S
O7 C3 1.260 . S
O8 In0 2.266 1_565 S
O8 C5 1.252 1_455 S
O9 In0 2.326 1_665 S
O9 C5 1.260 . S
C10 O1 1.240 1_455 S
C10 O2 1.252 . S
O11 In0 2.294 . S
O11 C4 1.240 . S
O12 In0 2.326 . S
O12 C4 1.252 . S
In13 O14 2.294 . S
In13 O15 2.326 1_455 S
In13 O19 2.266 . S
In13 O20 2.326 1_545 S
In13 O21 2.266 1_445 S
In13 O22 2.326 1_545 S
In13 O24 2.294 1_445 S
In13 O25 2.326 1_455 S
O14 In13 2.294 . S
O14 C23 1.240 1_455 S
O15 In13 2.326 1_655 S
O15 C23 1.252 . S
C16 O19 1.252 1_565 S
C16 O20 1.260 . S
C17 O24 1.240 1_545 S
C17 O25 1.252 . S
C18 O21 1.252 1_455 S
C18 O22 1.260 . S
O19 In13 2.266 . S
O19 C16 1.252 1_545 S
O20 In13 2.326 1_565 S
O20 C16 1.260 . S
O21 In13 2.266 1_665 S
O21 C18 1.252 1_655 S
O22 In13 2.326 1_565 S
O22 C18 1.260 . S
C23 O14 1.240 1_655 S
C23 O15 1.252 . S
O24 In13 2.294 1_665 S
O24 C17 1.240 1_565 S
O25 In13 2.326 1_655 S
O25 C17 1.252 . S
In26 O27 2.294 1_445 S
In26 O28 2.326 1_445 S
In26 O32 2.266 1_545 S
In26 O33 2.326 . S
In26 O34 2.266 . S
In26 O35 2.326 . S
In26 O37 2.294 1_455 S
In26 O38 2.326 1_445 S
O27 In26 2.294 1_665 S
O27 C36 1.240 . S
O28 In26 2.326 1_665 S
O28 C36 1.252 . S
C29 O32 1.252 1_545 S
C29 O33 1.260 . S
C30 O37 1.240 1_565 S
C30 O38 1.252 . S
C31 O34 1.252 . S
C31 O35 1.260 . S
O32 In26 2.266 1_565 S
O32 C29 1.252 1_565 S
O33 In26 2.326 . S
O33 C29 1.260 . S
O34 In26 2.266 . S
O34 C31 1.252 . S
O35 In26 2.326 . S
O35 C31 1.260 . S
C36 O27 1.240 . S
C36 O28 1.252 . S
O37 In26 2.294 1_655 S
O37 C30 1.240 1_545 S
O38 In26 2.326 1_665 S
O38 C30 1.252 . S
C39 C40 1.384 1_655 S
C39 C41 1.384 . S
C39 H67 0.931 . S
C40 C39 1.384 1_455 S
C40 C43 1.382 . S
C41 C39 1.384 . S
C41 C42 1.381 1_655 S
C41 H68 0.930 . S
C42 C41 1.381 1_455 S
C42 C44 1.381 . S
C42 C45 1.487 . S
C43 C40 1.382 . S
C43 C44 1.387 . S
C43 H69 0.930 . S
C44 C42 1.381 . S
C44 C43 1.387 . S
C44 H70 0.931 . S
C45 C42 1.487 . S
C45 C52 1.399 . S
C45 N83 1.343 . S
C46 C47 1.384 . S
C46 C48 1.384 . S
C46 H71 0.931 . S
C47 C46 1.384 . S
C47 C50 1.382 1_455 S
C48 C46 1.384 . S
C48 C49 1.391 . S
C48 H72 0.930 . S
C49 C48 1.391 . S
C49 C51 1.376 1_455 S
C49 C52 1.483 . S
C50 C47 1.382 1_655 S
C50 C51 1.387 . S
C50 H73 0.930 . S
C51 C49 1.376 1_655 S
C51 C50 1.387 . S
C51 H74 0.931 . S
C52 C45 1.399 . S
C52 C49 1.483 . S
C52 N84 1.343 1_455 S
C53 C54 1.384 . S
C53 C55 1.384 . S
C53 H75 0.931 . S
C54 C53 1.384 . S
C54 C57 1.382 1_455 S
C55 C53 1.384 . S
C55 C56 1.383 . S
C55 H76 0.930 . S
C56 C55 1.383 . S
C56 C58 1.375 1_455 S
C56 C59 1.491 . S
C57 C54 1.382 1_655 S
C57 C58 1.387 . S
C57 H77 0.930 . S
C58 C56 1.375 1_655 S
C58 C57 1.387 . S
C58 H78 0.931 . S
C59 C56 1.491 . S
C59 C66 1.399 . S
C59 N84 1.343 1_455 S
C60 C61 1.384 1_655 S
C60 C62 1.384 . S
C60 H79 0.931 . S
C61 C60 1.384 1_455 S
C61 C64 1.382 . S
C62 C60 1.384 . S
C62 C63 1.381 1_655 S
C62 H80 0.930 . S
C63 C62 1.381 1_455 S
C63 C65 1.381 . S
C63 C66 1.487 . S
C64 C61 1.382 . S
C64 C65 1.387 . S
C64 H81 0.930 . S
C65 C63 1.381 . S
C65 C64 1.387 . S
C65 H82 0.931 . S
C66 C59 1.399 . S
C66 C63 1.487 . S
C66 N83 1.343 . S
H67 C39 0.931 . S
H68 C41 0.930 . S
H69 C43 0.930 . S
H70 C44 0.931 . S
H71 C46 0.931 . S
H72 C48 0.930 . S
H73 C50 0.930 . S
H74 C51 0.931 . S
H75 C53 0.931 . S
H76 C55 0.930 . S
H77 C57 0.930 . S
H78 C58 0.931 . S
H79 C60 0.931 . S
H80 C62 0.930 . S
H81 C64 0.930 . S
H82 C65 0.931 . S
N83 C45 1.343 . S
N83 C66 1.343 . S
N84 C52 1.343 1_655 S
N84 C59 1.343 1_655 S
C85 C86 1.384 . S
C85 C87 1.384 . S
C85 H113 0.931 . S
C86 C85 1.384 . S
C86 C89 1.382 1_545 S
C87 C85 1.384 . S
C87 C88 1.378 1_545 S
C87 H114 0.930 . S
C88 C87 1.378 1_565 S
C88 C90 1.392 . S
C88 C91 1.480 . S
C89 C86 1.382 1_565 S
C89 C90 1.387 . S
C89 H115 0.930 . S
C90 C88 1.392 . S
C90 C89 1.387 . S
C90 H116 0.931 . S
C91 C88 1.480 . S
C91 C98 1.399 1_565 S
C91 N129 1.343 . S
C92 C93 1.384 1_565 S
C92 C94 1.384 . S
C92 H117 0.931 . S
C93 C92 1.384 1_545 S
C93 C96 1.382 . S
C94 C92 1.384 . S
C94 C95 1.381 1_565 S
C94 H118 0.930 . S
C95 C94 1.381 1_545 S
C95 C97 1.381 . S
C95 C98 1.487 . S
C96 C93 1.382 . S
C96 C97 1.387 . S
C96 H119 0.930 . S
C97 C95 1.381 . S
C97 C96 1.387 . S
C97 H120 0.931 . S
C98 C91 1.399 1_545 S
C98 C95 1.487 . S
C98 N130 1.343 . S
C99 C100 1.384 1_565 S
C99 C101 1.384 . S
C99 H121 0.931 . S
C100 C99 1.384 1_545 S
C100 C103 1.382 . S
C101 C99 1.384 . S
C101 C102 1.381 1_565 S
C101 H122 0.930 . S
C102 C101 1.381 1_545 S
C102 C104 1.381 . S
C102 C105 1.487 . S
C103 C100 1.382 . S
C103 C104 1.387 . S
C103 H123 0.930 . S
C104 C102 1.381 . S
C104 C103 1.387 . S
C104 H124 0.931 . S
C105 C102 1.487 . S
C105 C112 1.399 1_545 S
C105 N130 1.343 . S
C106 C107 1.384 . S
C106 C108 1.384 . S
C106 H125 0.931 . S
C107 C106 1.384 . S
C107 C110 1.382 1_545 S
C108 C106 1.384 . S
C108 C109 1.365 1_545 S
C108 H126 0.930 . S
C109 C108 1.365 1_565 S
C109 C111 1.391 . S
C109 C112 1.494 . S
C110 C107 1.382 1_565 S
C110 C111 1.387 . S
C110 H127 0.930 . S
C111 C109 1.391 . S
C111 C110 1.387 . S
C111 H128 0.931 . S
C112 C105 1.399 1_565 S
C112 C109 1.494 . S
C112 N129 1.343 . S
H113 C85 0.931 . S
H114 C87 0.930 . S
H115 C89 0.930 . S
H116 C90 0.931 . S
H117 C92 0.931 . S
H118 C94 0.930 . S
H119 C96 0.930 . S
H120 C97 0.931 . S
H121 C99 0.931 . S
H122 C101 0.930 . S
H123 C103 0.930 . S
H124 C104 0.931 . S
H125 C106 0.931 . S
H126 C108 0.930 . S
H127 C110 0.930 . S
H128 C111 0.931 . S
N129 C91 1.343 . S
N129 C112 1.343 . S
N130 C98 1.343 . S
N130 C105 1.343 . S
C131 C132 1.384 . S
C131 C133 1.384 . S
C131 H159 0.931 . S
C132 C131 1.384 . S
C132 C135 1.382 . S
C133 C131 1.384 . S
C133 C134 1.381 . S
C133 H160 0.930 . S
C134 C133 1.381 . S
C134 C136 1.381 . S
C134 C137 1.487 . S
C135 C132 1.382 . S
C135 C136 1.387 . S
C135 H161 0.930 . S
C136 C134 1.381 . S
C136 C135 1.387 . S
C136 H162 0.931 . S
C137 C134 1.487 . S
C137 C144 1.399 . S
C137 N175 1.343 . S
C138 C139 1.384 . S
C138 C140 1.384 . S
C138 H163 0.931 . S
C139 C138 1.384 . S
C139 C142 1.382 . S
C140 C138 1.384 . S
C140 C141 1.381 . S
C140 H164 0.930 . S
C141 C140 1.381 . S
C141 C143 1.381 . S
C141 C144 1.487 . S
C142 C139 1.382 . S
C142 C143 1.387 . S
C142 H165 0.930 . S
C143 C141 1.381 . S
C143 C142 1.387 . S
C143 H166 0.931 . S
C144 C137 1.399 . S
C144 C141 1.487 . S
C144 N176 1.343 . S
C145 C146 1.384 . S
C145 C147 1.384 . S
C145 H167 0.931 . S
C146 C145 1.384 . S
C146 C149 1.382 . S
C147 C145 1.384 . S
C147 C148 1.381 . S
C147 H168 0.930 . S
C148 C147 1.381 . S
C148 C150 1.381 . S
C148 C151 1.487 . S
C149 C146 1.382 . S
C149 C150 1.387 . S
C149 H169 0.930 . S
C150 C148 1.381 . S
C150 C149 1.387 . S
C150 H170 0.931 . S
C151 C148 1.487 . S
C151 C158 1.399 . S
C151 N176 1.343 . S
C152 C153 1.384 . S
C152 C154 1.384 . S
C152 H171 0.931 . S
C153 C152 1.384 . S
C153 C156 1.382 . S
C154 C152 1.384 . S
C154 C155 1.381 . S
C154 H172 0.930 . S
C155 C154 1.381 . S
C155 C157 1.381 . S
C155 C158 1.487 . S
C156 C153 1.382 . S
C156 C157 1.387 . S
C156 H173 0.930 . S
C157 C155 1.381 . S
C157 C156 1.387 . S
C157 H174 0.931 . S
C158 C151 1.399 . S
C158 C155 1.487 . S
C158 N175 1.343 . S
H159 C131 0.931 . S
H160 C133 0.930 . S
H161 C135 0.930 . S
H162 C136 0.931 . S
H163 C138 0.931 . S
H164 C140 0.930 . S
H165 C142 0.930 . S
H166 C143 0.931 . S
H167 C145 0.931 . S
H168 C147 0.930 . S
H169 C149 0.930 . S
H170 C150 0.931 . S
H171 C152 0.931 . S
H172 C154 0.930 . S
H173 C156 0.930 . S
H174 C157 0.931 . S
N175 C137 1.343 . S
N175 C158 1.343 . S
N176 C144 1.343 . S
N176 C151 1.343 . S
C177 C178 1.369 . S
C177 C179 1.419 . S
C177 H181 0.930 . S
C178 C177 1.369 . S
C178 C187 1.429 1_455 S
C179 C177 1.419 . S
C179 C180 1.363 . S
C179 H182 0.929 . S
C180 C179 1.363 . S
C180 C186 1.428 1_455 S
H181 C177 0.930 . S
H182 C179 0.929 . S
S183 N184 1.613 . S
S183 N185 1.610 . S
N184 S183 1.613 . S
N184 C187 1.350 . S
N185 S183 1.610 . S
N185 C186 1.351 . S
C186 C180 1.428 1_655 S
C186 N185 1.351 . S
C186 C187 1.434 . S
C187 C178 1.429 1_655 S
C187 N184 1.350 . S
C187 C186 1.434 . S
C188 C189 1.369 1_565 S
C188 C190 1.419 . S
C188 H192 0.930 . S
C189 C188 1.369 1_545 S
C189 C198 1.429 . S
C190 C188 1.419 . S
C190 C191 1.363 1_565 S
C190 H193 0.929 . S
C191 C190 1.363 1_545 S
C191 C197 1.428 . S
H192 C188 0.930 . S
H193 C190 0.929 . S
S194 N195 1.613 . S
S194 N196 1.610 . S
N195 S194 1.613 . S
N195 C198 1.350 . S
N196 S194 1.610 . S
N196 C197 1.351 . S
C197 C191 1.428 . S
C197 N196 1.351 . S
C197 C198 1.434 . S
C198 C189 1.429 . S
C198 N195 1.350 . S
C198 C197 1.434 . S
C199 C200 1.369 . S
C199 C201 1.419 . S
C199 H203 0.930 . S
C200 C199 1.369 . S
C200 C209 1.429 . S
C201 C199 1.419 . S
C201 C202 1.363 . S
C201 H204 0.929 . S
C202 C201 1.363 . S
C202 C208 1.428 . S
H203 C199 0.930 . S
H204 C201 0.929 . S
S205 N206 1.613 . S
S205 N207 1.610 . S
N206 S205 1.613 . S
N206 C209 1.350 . S
N207 S205 1.610 . S
N207 C208 1.351 . S
C208 C202 1.428 . S
C208 N207 1.351 . S
C208 C209 1.434 . S
C209 C200 1.429 . S
C209 N206 1.350 . S
C209 C208 1.434 . S
C210 C211 1.360 1_455 S
C210 C212 1.419 . S
C210 H214 0.930 . S
C211 C210 1.360 1_655 S
C211 C220 1.434 . S
C212 C210 1.419 . S
C212 C213 1.363 . S
C212 H215 0.929 . S
C213 C212 1.363 . S
C213 C219 1.428 1_455 S
H214 C210 0.930 . S
H215 C212 0.929 . S
S216 N217 1.613 . S
S216 N218 1.610 . S
N217 S216 1.613 . S
N217 C220 1.350 . S
N218 S216 1.610 . S
N218 C219 1.351 . S
C219 C213 1.428 1_655 S
C219 N218 1.351 . S
C219 C220 1.434 . S
C220 C211 1.434 . S
C220 N217 1.350 . S
C220 C219 1.434 . S
C221 C222 1.369 1_545 S
C221 C223 1.419 . S
C221 H225 0.930 . S
C222 C221 1.369 1_565 S
C222 C231 1.429 . S
C223 C221 1.419 . S
C223 C224 1.363 . S
C223 H226 0.929 . S
C224 C223 1.363 . S
C224 C230 1.428 1_545 S
H225 C221 0.930 . S
H226 C223 0.929 . S
S227 N228 1.613 . S
S227 N229 1.610 . S
N228 S227 1.613 . S
N228 C231 1.350 . S
N229 S227 1.610 . S
N229 C230 1.351 . S
C230 C224 1.428 1_565 S
C230 N229 1.351 . S
C230 C231 1.434 . S
C231 C222 1.429 . S
C231 N228 1.350 . S
C231 C230 1.434 . S
C232 C233 1.369 . S
C232 C234 1.419 . S
C232 H236 0.930 . S
C233 C232 1.369 . S
C233 C242 1.429 . S
C234 C232 1.419 . S
C234 C235 1.363 . S
C234 H237 0.929 . S
C235 C234 1.363 . S
C235 C241 1.428 . S
H236 C232 0.930 . S
H237 C234 0.929 . S
S238 N239 1.613 . S
S238 N240 1.610 . S
N239 S238 1.613 . S
N239 C242 1.350 . S
N240 S238 1.610 . S
N240 C241 1.351 . S
C241 C235 1.428 . S
C241 N240 1.351 . S
C241 C242 1.434 . S
C242 C233 1.429 . S
C242 N239 1.350 . S
C242 C241 1.434 . S
C243 C244 1.369 . S
C243 C245 1.419 . S
C243 H247 0.930 . S
C244 C243 1.369 . S
C244 C253 1.429 1_565 S
C245 C243 1.419 . S
C245 C246 1.363 1_565 S
C245 H248 0.929 . S
C246 C245 1.363 1_545 S
C246 C252 1.428 . S
H247 C243 0.930 . S
H248 C245 0.929 . S
S249 N250 1.613 . S
S249 N251 1.610 . S
N250 S249 1.613 . S
N250 C253 1.350 . S
N251 S249 1.610 . S
N251 C252 1.351 . S
C252 C246 1.428 . S
C252 N251 1.351 . S
C252 C253 1.434 . S
C253 C244 1.429 1_545 S
C253 N250 1.350 . S
C253 C252 1.434 . S
C254 C255 1.369 1_554 S
C254 C256 1.419 1_554 S
C254 H258 0.930 . S
C255 C254 1.369 1_556 S
C255 C264 1.429 . S
C256 C254 1.419 1_556 S
C256 C257 1.363 . S
C256 H259 0.929 . S
C257 C256 1.363 . S
C257 C263 1.428 . S
H258 C254 0.930 . S
H259 C256 0.929 . S
S260 N261 1.613 . S
S260 N262 1.610 . S
N261 S260 1.613 . S
N261 C264 1.350 . S
N262 S260 1.610 . S
N262 C263 1.351 . S
C263 C257 1.428 . S
C263 N262 1.351 . S
C263 C264 1.434 . S
C264 C255 1.429 . S
C264 N261 1.350 . S
C264 C263 1.434 . S
C265 C266 1.369 . S
C265 C267 1.419 . S
C265 H269 0.930 . S
C266 C265 1.369 . S
C266 C275 1.429 1_455 S
C267 C265 1.419 . S
C267 C268 1.363 . S
C267 H270 0.929 . S
C268 C267 1.363 . S
C268 C274 1.428 1_455 S
H269 C265 0.930 . S
H270 C267 0.929 . S
S271 N272 1.613 . S
S271 N273 1.610 . S
N272 S271 1.613 . S
N272 C275 1.350 . S
N273 S271 1.610 . S
N273 C274 1.351 . S
C274 C268 1.428 1_655 S
C274 N273 1.351 . S
C274 C275 1.434 . S
C275 C266 1.429 1_655 S
C275 N272 1.350 . S
C275 C274 1.434 . S
C276 C277 1.369 1_565 S
C276 C278 1.419 . S
C276 H280 0.930 . S
C277 C276 1.369 1_545 S
C277 C286 1.429 . S
C278 C276 1.419 . S
C278 C279 1.363 1_565 S
C278 H281 0.929 . S
C279 C278 1.363 1_545 S
C279 C285 1.428 . S
H280 C276 0.930 . S
H281 C278 0.929 . S
S282 N283 1.613 . S
S282 N284 1.610 . S
N283 S282 1.613 . S
N283 C286 1.350 . S
N284 S282 1.610 . S
N284 C285 1.351 . S
C285 C279 1.428 . S
C285 N284 1.351 . S
C285 C286 1.434 . S
C286 C277 1.429 . S
C286 N283 1.350 . S
C286 C285 1.434 . S
C287 C288 1.369 1_554 S
C287 C289 1.419 1_554 S
C287 H291 0.930 . S
C288 C287 1.369 1_556 S
C288 C297 1.429 . S
C289 C287 1.419 1_556 S
C289 C290 1.363 . S
C289 H292 0.929 . S
C290 C289 1.363 . S
C290 C296 1.428 . S
H291 C287 0.930 . S
H292 C289 0.929 . S
S293 N294 1.613 . S
S293 N295 1.610 . S
N294 S293 1.613 . S
N294 C297 1.350 . S
N295 S293 1.610 . S
N295 C296 1.351 . S
C296 C290 1.428 . S
C296 N295 1.351 . S
C296 C297 1.434 . S
C297 C288 1.429 . S
C297 N294 1.350 . S
C297 C296 1.434 . S
C298 C299 1.369 . S
C298 C300 1.419 . S
C298 H302 0.930 . S
C299 C298 1.369 . S
C299 C308 1.429 1_655 S
C300 C298 1.419 . S
C300 C301 1.363 1_655 S
C300 H303 0.929 . S
C301 C300 1.363 1_455 S
C301 C307 1.428 . S
H302 C298 0.930 . S
H303 C300 0.929 . S
S304 N305 1.613 . S
S304 N306 1.610 . S
N305 S304 1.613 . S
N305 C308 1.350 . S
N306 S304 1.610 . S
N306 C307 1.351 . S
C307 C301 1.428 . S
C307 N306 1.351 . S
C307 C308 1.434 . S
C308 C299 1.429 1_455 S
C308 N305 1.350 . S
C308 C307 1.434 . S
C180 C47 1.515 . S
C178 C10 1.516 . S
C189 C17 1.517 . S
C191 C86 1.516 . S
C200 C36 1.518 . S
C202 C153 1.515 . S
C211 C5 1.522 . S
C213 C54 1.515 . S
C224 C107 1.515 . S
C222 C16 1.518 . S
C233 C31 1.517 . S
C235 C132 1.516 . S
C246 C93 1.516 . S
C244 C30 1.516 . S
C255 C3 1.518 1_556 S
C257 C146 1.516 . S
C268 C61 1.516 . S
C266 C18 1.518 . S
C279 C100 1.515 . S
C277 C29 1.518 . S
C290 C139 1.516 . S
C288 C4 1.518 1_556 S
C299 C23 1.516 . S
C301 C40 1.515 . S
