# Generated by pormake.
# Topology dag, (6,3)-cn, num edge types: 1
# Building blocks:
#     Node 0, Type 0, BuildingBlock: OJICUG_clean_sbu_0, # of connection points: 6
#     Node 1, Type 0, BuildingBlock: OJICUG_clean_sbu_0, # of connection points: 6
#     Node 2, Type 0, BuildingBlock: OJICUG_clean_sbu_0, # of connection points: 6
#     Node 3, Type 0, BuildingBlock: OJICUG_clean_sbu_0, # of connection points: 6
#     Node 4, Type 1, BuildingBlock: BETDAH_clean_linker_0, # of connection points: 3
#     Node 5, Type 1, BuildingBlock: BETDAH_clean_linker_0, # of connection points: 3
#     Node 6, Type 1, BuildingBlock: BETDAH_clean_linker_0, # of connection points: 3
#     Node 7, Type 1, BuildingBlock: BETDAH_clean_linker_0, # of connection points: 3
#     Node 8, Type 1, BuildingBlock: BETDAH_clean_linker_0, # of connection points: 3
#     Node 9, Type 1, BuildingBlock: BETDAH_clean_linker_0, # of connection points: 3
#     Node 10, Type 1, BuildingBlock: BETDAH_clean_linker_0, # of connection points: 3
#     Node 11, Type 1, BuildingBlock: BETDAH_clean_linker_0, # of connection points: 3
#     Edge 12, Type (0, 1), BuildingBlock: OJICUG_clean_linker_0, # of connection points: 2
#     Edge 13, Type (0, 1), BuildingBlock: OJICUG_clean_linker_0, # of connection points: 2
#     Edge 14, Type (0, 1), BuildingBlock: OJICUG_clean_linker_0, # of connection points: 2
#     Edge 15, Type (0, 1), BuildingBlock: OJICUG_clean_linker_0, # of connection points: 2
#     Edge 16, Type (0, 1), BuildingBlock: OJICUG_clean_linker_0, # of connection points: 2
#     Edge 17, Type (0, 1), BuildingBlock: OJICUG_clean_linker_0, # of connection points: 2
#     Edge 18, Type (0, 1), BuildingBlock: OJICUG_clean_linker_0, # of connection points: 2
#     Edge 19, Type (0, 1), BuildingBlock: OJICUG_clean_linker_0, # of connection points: 2
#     Edge 20, Type (0, 1), BuildingBlock: OJICUG_clean_linker_0, # of connection points: 2
#     Edge 21, Type (0, 1), BuildingBlock: OJICUG_clean_linker_0, # of connection points: 2
#     Edge 22, Type (0, 1), BuildingBlock: OJICUG_clean_linker_0, # of connection points: 2
#     Edge 23, Type (0, 1), BuildingBlock: OJICUG_clean_linker_0, # of connection points: 2
#     Edge 24, Type (0, 1), BuildingBlock: OJICUG_clean_linker_0, # of connection points: 2
#     Edge 25, Type (0, 1), BuildingBlock: OJICUG_clean_linker_0, # of connection points: 2
#     Edge 26, Type (0, 1), BuildingBlock: OJICUG_clean_linker_0, # of connection points: 2
#     Edge 27, Type (0, 1), BuildingBlock: OJICUG_clean_linker_0, # of connection points: 2
#     Edge 28, Type (0, 1), BuildingBlock: OJICUG_clean_linker_0, # of connection points: 2
#     Edge 29, Type (0, 1), BuildingBlock: OJICUG_clean_linker_0, # of connection points: 2
#     Edge 30, Type (0, 1), BuildingBlock: OJICUG_clean_linker_0, # of connection points: 2
#     Edge 31, Type (0, 1), BuildingBlock: OJICUG_clean_linker_0, # of connection points: 2
#     Edge 32, Type (0, 1), BuildingBlock: OJICUG_clean_linker_0, # of connection points: 2
#     Edge 33, Type (0, 1), BuildingBlock: OJICUG_clean_linker_0, # of connection points: 2
#     Edge 34, Type (0, 1), BuildingBlock: OJICUG_clean_linker_0, # of connection points: 2
#     Edge 35, Type (0, 1), BuildingBlock: OJICUG_clean_linker_0, # of connection points: 2
# Relax obj value: 0.094
# Max RMSD: 0.117
# Mean RMSD: 0.100
data_MOF--net-dag--node1-OJICUG_clean_sbu_0--node2-BETDAH_clean_linker_0--edge1-OJICUG_clean_linker_0
_symmetry_space_group_name_H-M    P1
_symmetry_Int_Tables_number       1
_symmetry_cell_setting            triclinic
loop_
_symmetry_equiv_pos_as_xyz
'x, y, z'
_cell_length_a     26.75886
_cell_length_b     28.885922
_cell_length_c     28.55924
_cell_angle_alpha  94.741909
_cell_angle_beta   90.049803
_cell_angle_gamma 89.999307
loop_
_atom_site_label
_atom_site_type_symbol
_atom_site_fract_x
_atom_site_fract_y
_atom_site_fract_z
_atom_type_partial_charge
Sc0 Sc 0.09212 0.89182 0.07223 0.0
Sc1 Sc 0.10881 0.77115 0.06364 0.0
Sc2 Sc 0.2088 0.84738 0.10166 0.0
O3 O 0.13667 0.83665 0.07918 0.0
C4 C 0.19585 0.92527 0.03097 0.0
C5 C 0.06156 0.82527 0.98166 0.0
C6 C 0.21993 0.76221 0.02266 0.0
C7 C 0.01558 0.822 0.11492 0.0
C8 C 0.15174 0.92665 0.16517 0.0
C9 C 0.17185 0.76305 0.15824 0.0
O10 O 0.1487 0.92667 0.03572 0.0
O11 O 0.07489 0.78749 0.99797 0.0
O12 O 0.2373 0.79551 0.0498 0.0
O13 O 0.03103 0.86231 0.10766 0.0
O14 O 0.19035 0.90192 0.15595 0.0
O15 O 0.13894 0.74867 0.1282 0.0
O16 O 0.1135 0.92539 0.13884 0.0
O17 O 0.03872 0.78506 0.10047 0.0
O18 O 0.1998 0.79793 0.15321 0.0
O19 O 0.06569 0.8646 0.00468 0.0
O20 O 0.224 0.89853 0.05238 0.0
O21 O 0.17443 0.74962 0.02355 0.0
Sc22 Sc 0.70874 0.64702 0.44097 0.0
Sc23 Sc 0.61009 0.72454 0.4795 0.0
Sc24 Sc 0.59229 0.60403 0.47291 0.0
O25 O 0.63713 0.65866 0.46445 0.0
C26 C 0.64974 0.56764 0.37928 0.0
C27 C 0.67178 0.7311 0.38401 0.0
C28 C 0.51565 0.67387 0.43013 0.0
C29 C 0.72194 0.73284 0.51896 0.0
C30 C 0.69647 0.57006 0.51283 0.0
C31 C 0.56373 0.67202 0.56293 0.0
O32 O 0.68872 0.59215 0.38754 0.0
O33 O 0.63958 0.74611 0.41441 0.0
O34 O 0.53078 0.63363 0.43808 0.0
O35 O 0.73856 0.69917 0.49186 0.0
O36 O 0.64923 0.56911 0.5089 0.0
O37 O 0.57677 0.70941 0.54571 0.0
O38 O 0.72444 0.59625 0.4906 0.0
O39 O 0.67652 0.7458 0.51865 0.0
O40 O 0.56748 0.6323 0.54063 0.0
O41 O 0.69934 0.69593 0.38893 0.0
O42 O 0.61207 0.56951 0.40629 0.0
O43 O 0.5394 0.7108 0.44348 0.0
Sc44 Sc 0.8903 0.22396 0.97923 0.0
Sc45 Sc 0.79031 0.14769 0.94132 0.0
Sc46 Sc 0.90704 0.1033 0.97068 0.0
O47 O 0.86246 0.15845 0.96374 0.0
C48 C 0.98354 0.17313 0.92795 0.0
C49 C 0.8272 0.23198 0.88465 0.0
C50 C 0.84736 0.06843 0.87779 0.0
C51 C 0.77923 0.23286 0.02031 0.0
C52 C 0.93763 0.1699 0.06121 0.0
C53 C 0.80337 0.06985 0.01204 0.0
O54 O 0.96039 0.21006 0.94239 0.0
O55 O 0.79926 0.19711 0.88975 0.0
O56 O 0.88562 0.0697 0.90409 0.0
O57 O 0.82471 0.24549 0.01936 0.0
O58 O 0.93351 0.13056 0.03821 0.0
O59 O 0.77518 0.09656 0.99064 0.0
O60 O 0.92427 0.20767 0.04489 0.0
O61 O 0.76184 0.19955 0.9932 0.0
O62 O 0.85051 0.06845 0.00725 0.0
O63 O 0.86014 0.24639 0.91466 0.0
O64 O 0.9681 0.13282 0.93521 0.0
O65 O 0.80875 0.09315 0.88703 0.0
Sc66 Sc 0.40685 0.39062 0.57015 0.0
Sc67 Sc 0.29036 0.34772 0.60205 0.0
Sc68 Sc 0.38897 0.27012 0.56363 0.0
O69 O 0.36197 0.33602 0.57862 0.0
C70 C 0.43543 0.32255 0.48018 0.0
C71 C 0.30271 0.4246 0.53013 0.0
C72 C 0.27714 0.26187 0.52411 0.0
C73 C 0.34937 0.42708 0.66374 0.0
C74 C 0.48344 0.32077 0.61297 0.0
C75 C 0.32724 0.26369 0.65912 0.0
O76 O 0.43169 0.36228 0.50245 0.0
O77 O 0.27471 0.39845 0.55236 0.0
O78 O 0.32255 0.24888 0.52445 0.0
O79 O 0.38707 0.42519 0.63675 0.0
O80 O 0.45966 0.28384 0.59966 0.0
O81 O 0.2997 0.29885 0.65415 0.0
O82 O 0.46833 0.36101 0.605 0.0
O83 O 0.31038 0.4026 0.65546 0.0
O84 O 0.35944 0.24863 0.62874 0.0
O85 O 0.34995 0.42554 0.53409 0.0
O86 O 0.42235 0.28518 0.49742 0.0
O87 O 0.26053 0.29556 0.55118 0.0
H88 H 0.06685 0.08139 0.19774 0.0
H89 H 0.15447 0.12218 0.32027 0.0
H90 H 0.05427 0.22027 0.26298 0.0
C91 C 0.0769 0.10758 0.22561 0.0
C92 C 0.05554 0.15187 0.22651 0.0
C93 C 0.11218 0.09654 0.25919 0.0
C94 C 0.12702 0.13062 0.29442 0.0
C95 C 0.10569 0.17549 0.29585 0.0
C96 C 0.07049 0.1858 0.26165 0.0
N97 N 0.11821 0.21142 0.33081 0.0
C98 C 0.1499 0.20732 0.36884 0.0
H99 H 0.4385 0.58288 0.69973 0.0
H100 H 0.441 0.72358 0.76126 0.0
H101 H 0.34226 0.62308 0.8163 0.0
C102 C 0.426 0.60916 0.72651 0.0
C103 C 0.38929 0.59753 0.75847 0.0
C104 C 0.4451 0.6543 0.72704 0.0
C105 C 0.42668 0.68842 0.76033 0.0
C106 C 0.39026 0.6775 0.7931 0.0
C107 C 0.37103 0.63184 0.79189 0.0
N108 N 0.37387 0.71381 0.826 0.0
C109 C 0.34334 0.70882 0.86462 0.0
H110 H 0.84366 0.91473 0.11668 0.0
H111 H 0.77174 0.80007 0.17529 0.0
H112 H 0.68332 0.90952 0.12262 0.0
C113 C 0.80967 0.89766 0.12682 0.0
C114 C 0.76326 0.91759 0.11797 0.0
C115 C 0.8131 0.85535 0.14714 0.0
C116 C 0.76926 0.83275 0.15936 0.0
C117 C 0.72224 0.8527 0.15093 0.0
C118 C 0.71947 0.89434 0.12905 0.0
N119 N 0.67736 0.83244 0.16564 0.0
C120 C 0.67527 0.81029 0.20683 0.0
H121 H 0.6561 0.41368 0.61455 0.0
H122 H 0.72726 0.29873 0.67351 0.0
H123 H 0.81635 0.40834 0.62216 0.0
C124 C 0.68994 0.39646 0.62487 0.0
C125 C 0.73648 0.41641 0.61664 0.0
C126 C 0.68624 0.35405 0.64499 0.0
C127 C 0.72993 0.33142 0.65764 0.0
C128 C 0.77705 0.3514 0.6498 0.0
C129 C 0.78011 0.3931 0.62807 0.0
N130 N 0.82173 0.33119 0.66512 0.0
C131 C 0.82346 0.30978 0.70677 0.0
H132 H 0.56066 0.41169 0.3434 0.0
H133 H 0.65723 0.3715 0.22707 0.0
H134 H 0.55869 0.27087 0.28217 0.0
C135 C 0.57328 0.38539 0.31669 0.0
C136 C 0.5543 0.34021 0.31622 0.0
C137 C 0.61002 0.39705 0.28477 0.0
C138 C 0.62843 0.36272 0.25145 0.0
C139 C 0.60933 0.31702 0.2503 0.0
C140 C 0.57289 0.30607 0.28304 0.0
N141 N 0.62591 0.28069 0.2175 0.0
C142 C 0.65625 0.28576 0.17878 0.0
H143 H 0.15557 0.08044 0.92645 0.0
H144 H 0.22744 0.19525 0.86806 0.0
H145 H 0.31591 0.08589 0.92082 0.0
C146 C 0.18955 0.09757 0.91639 0.0
C147 C 0.23597 0.0777 0.92531 0.0
C148 C 0.1861 0.1399 0.89609 0.0
C149 C 0.22993 0.16256 0.88397 0.0
C150 C 0.27696 0.14267 0.89247 0.0
C151 C 0.27975 0.10103 0.91434 0.0
N152 N 0.32184 0.16299 0.87782 0.0
C153 C 0.32395 0.18503 0.83658 0.0
H154 H 0.34308 0.58091 0.42829 0.0
H155 H 0.27188 0.69575 0.36915 0.0
H156 H 0.18284 0.58605 0.4204 0.0
C157 C 0.30923 0.59808 0.4179 0.0
C158 C 0.26271 0.57807 0.42605 0.0
C159 C 0.31291 0.64048 0.39776 0.0
C160 C 0.26923 0.66306 0.38503 0.0
C161 C 0.22211 0.64302 0.39279 0.0
C162 C 0.21906 0.60133 0.41454 0.0
N163 N 0.17743 0.66319 0.37743 0.0
C164 C 0.17572 0.68472 0.33586 0.0
H165 H 0.93227 0.91377 0.84514 0.0
H166 H 0.94509 0.77495 0.77982 0.0
H167 H 0.84475 0.87295 0.72255 0.0
C168 C 0.92227 0.88759 0.81726 0.0
C169 C 0.88699 0.8986 0.78367 0.0
C170 C 0.94369 0.84332 0.81634 0.0
C171 C 0.92881 0.8094 0.78116 0.0
C172 C 0.8936 0.81968 0.74696 0.0
C173 C 0.87221 0.86453 0.74841 0.0
N174 N 0.88115 0.78375 0.71198 0.0
C175 C 0.84937 0.78778 0.674 0.0
C176 C 0.18864 -0.00246 0.20745 0.0
C177 C 0.15191 0.96265 0.20488 0.0
H178 H 0.20482 0.06908 0.22862 0.0
C179 C 0.10864 0.9691 0.23238 0.0
H180 H 0.22202 0.9935 0.18605 0.0
C181 C 0.09935 0.01179 0.25735 0.0
C182 C 0.13276 0.04893 0.2545 0.0
H183 H 0.07974 0.94272 0.23079 0.0
H184 H 0.06325 0.01754 0.27402 0.0
C185 C 0.17894 0.04071 0.23198 0.0
C186 C 0.54888 0.63676 0.63806 0.0
C187 C 0.5409 0.67377 0.61006 0.0
H188 H 0.52629 0.60278 0.69819 0.0
C189 C 0.50642 0.7086 0.62498 0.0
H190 H 0.57582 0.60981 0.62772 0.0
C191 C 0.47718 0.70412 0.66512 0.0
C192 C 0.4825 0.665 0.691 0.0
H193 H 0.49956 0.73744 0.60389 0.0
H194 H 0.44828 0.72958 0.674 0.0
C195 C 0.52039 0.63267 0.67829 0.0
C196 C 0.80455 0.03544 0.08807 0.0
C197 C 0.7818 0.03829 0.0442 0.0
H198 H 0.81473 0.99535 0.14685 0.0
C199 C 0.74538 0.00553 0.02874 0.0
H200 H 0.83254 0.06062 0.10068 0.0
C201 C 0.73569 0.96756 0.05492 0.0
C202 C 0.76222 0.9625 0.0967 0.0
H203 H 0.72773 0.00711 0.99476 0.0
H204 H 0.71067 0.94046 0.04068 0.0
C205 C 0.7945 -0.00189 0.11431 0.0
C206 C 0.54909 0.35393 0.66704 0.0
C207 C 0.53362 0.3181 0.63398 0.0
H208 H 0.61087 0.39245 0.69769 0.0
C209 C 0.5694 0.28686 0.61388 0.0
H210 H 0.52217 0.37831 0.68322 0.0
C211 C 0.62045 0.29515 0.6221 0.0
C212 C 0.63583 0.33446 0.65073 0.0
H213 H 0.55838 0.25916 0.58804 0.0
H214 H 0.6477 0.27379 0.60235 0.0
C215 C 0.59977 0.36194 0.67546 0.0
C216 C 0.68611 0.4971 0.3357 0.0
C217 C 0.64876 0.53141 0.33977 0.0
H218 H 0.70305 0.426 0.31326 0.0
C219 C 0.60453 0.52445 0.31372 0.0
H220 H 0.72032 0.50157 0.3559 0.0
C221 C 0.59514 0.48179 0.28872 0.0
C222 C 0.62945 0.44512 0.29013 0.0
H223 H 0.5752 0.55041 0.31636 0.0
H224 H 0.55859 0.47566 0.27305 0.0
C225 C 0.67636 0.45394 0.31113 0.0
C226 C 0.04903 0.14002 0.87371 0.0
C227 C 0.03361 0.17584 0.90677 0.0
H228 H 0.11079 0.10151 0.84311 0.0
C229 C 0.06941 0.20719 0.92675 0.0
H230 H 0.0221 0.11559 0.85757 0.0
C231 C 0.12043 0.19894 0.91851 0.0
C232 C 0.13579 0.15957 0.88999 0.0
H233 H 0.05844 0.23492 0.95254 0.0
H234 H 0.1477 0.22035 0.93824 0.0
C235 C 0.09971 0.13205 0.86527 0.0
C236 C 0.30324 0.45952 0.45436 0.0
C237 C 0.28083 0.45637 0.4983 0.0
H238 H 0.31338 0.50029 0.39607 0.0
C239 C 0.24471 0.48921 0.51426 0.0
H240 H 0.331 0.43431 0.44135 0.0
C241 C 0.23509 0.52755 0.48856 0.0
C242 C 0.2614 0.5329 0.44677 0.0
H243 H 0.22732 0.48743 0.54831 0.0
H244 H 0.21036 0.55469 0.50319 0.0
C245 C 0.2933 0.49725 0.42862 0.0
C246 C 0.04458 0.86298 0.90822 0.0
C247 C 0.03838 0.82451 0.93464 0.0
H248 H 0.02096 0.89805 0.84911 0.0
C249 C 0.00582 0.78865 0.91801 0.0
H250 H 0.07008 0.89078 0.91977 0.0
C251 C 0.97686 0.79318 0.87764 0.0
C252 C 0.98049 0.83345 0.85326 0.0
H253 H 0.00037 0.75863 0.93779 0.0
H254 H 0.94957 0.7666 0.86726 0.0
C255 C 0.01632 0.8672 0.86783 0.0
C256 C 0.89041 0.02605 0.81052 0.0
C257 C 0.84718 0.03244 0.83807 0.0
H258 H 0.9358 0.97767 0.76879 0.0
C259 C 0.81049 -0.00249 0.83553 0.0
H260 H 0.91928 0.05245 0.81209 0.0
C261 C 0.82021 0.95436 0.81096 0.0
C262 C 0.86637 0.9462 0.78838 0.0
H263 H 0.77714 0.0015 0.85697 0.0
H264 H 0.79437 0.92596 0.81434 0.0
C265 C 0.89972 0.98337 0.7855 0.0
C266 C 0.49292 0.28598 0.41829 0.0
C267 C 0.45833 0.32075 0.43308 0.0
H268 H 0.55121 0.26503 0.36942 0.0
C269 C 0.45031 0.35768 0.40499 0.0
H270 H 0.49981 0.2572 0.43946 0.0
C271 C 0.47887 0.36175 0.36479 0.0
C272 C 0.51686 0.32949 0.35222 0.0
H273 H 0.42329 0.38458 0.41523 0.0
H274 H 0.47293 0.39158 0.34483 0.0
C275 C 0.52222 0.29044 0.37819 0.0
C276 C 0.25379 0.98967 0.01446 0.0
C277 C 0.21746 0.95687 0.99888 0.0
H278 H 0.28842 0.05482 0.00268 0.0
C279 C 0.1948 0.95973 0.95497 0.0
H280 H 0.27136 0.98808 0.04848 0.0
C281 C 0.20486 0.99712 0.9288 0.0
C282 C 0.23703 0.03276 0.94653 0.0
H283 H 0.16689 0.93453 0.94227 0.0
H284 H 0.1847 -0.00011 0.89622 0.0
C285 C 0.26348 0.02769 0.98835 0.0
C286 C 0.42966 0.70771 0.42917 0.0
C287 C 0.46549 0.67651 0.40907 0.0
H288 H 0.35134 0.72072 0.44059 0.0
C289 C 0.4501 0.64072 0.37594 0.0
H290 H 0.44062 0.73537 0.45507 0.0
C291 C 0.39943 0.6327 0.36742 0.0
C292 C 0.36331 0.66013 0.39212 0.0
H293 H 0.47706 0.61638 0.35977 0.0
H294 H 0.38839 0.60222 0.34513 0.0
C295 C 0.37863 0.6994 0.42085 0.0
C296 C 0.39458 0.47015 0.72938 0.0
C297 C 0.35037 0.4633 0.70327 0.0
H298 H 0.44054 0.51881 0.77018 0.0
C299 C 0.31309 0.49766 0.70733 0.0
H300 H 0.42386 0.44414 0.72675 0.0
C301 C 0.32288 0.54078 0.73197 0.0
C302 C 0.36978 0.54949 0.75307 0.0
H303 H 0.27891 0.49329 0.68709 0.0
H304 H 0.29625 0.56878 0.72985 0.0
C305 C 0.404 0.51276 0.75447 0.0
C306 C 0.9502 0.85509 0.16929 0.0
C307 C 0.96553 0.81931 0.13615 0.0
H308 H 0.88852 0.8936 0.20006 0.0
C309 C 0.92968 0.78801 0.11618 0.0
H310 H 0.97717 0.87947 0.18542 0.0
C311 C 0.87868 0.79628 0.12452 0.0
C312 C 0.8634 0.83561 0.15314 0.0
H313 H 0.94058 0.76031 0.09033 0.0
H314 H 0.85136 0.77492 0.10481 0.0
C315 C 0.89954 0.86307 0.17784 0.0
C316 C 0.69607 0.53507 0.58856 0.0
C317 C 0.7184 0.53824 0.54458 0.0
H318 H 0.68599 0.49424 0.64681 0.0
C319 C 0.75443 0.50536 0.52851 0.0
H320 H 0.66838 0.56031 0.60165 0.0
C321 C 0.76404 0.46697 0.55415 0.0
C322 C 0.73781 0.46161 0.59597 0.0
H323 H 0.77174 0.50715 0.49443 0.0
H324 H 0.78869 0.43981 0.53943 0.0
C325 C 0.70601 0.49729 0.61423 0.0
C326 C 0.99344 0.20652 0.1248 0.0
C327 C 0.96083 0.17068 0.10822 0.0
H328 H 0.04975 0.22855 0.1755 0.0
C329 C 0.95458 0.13225 0.13469 0.0
H330 H 0.99892 0.2365 0.10498 0.0
C331 C 0.98285 0.12804 0.17507 0.0
C332 C 0.01874 0.16176 0.18959 0.0
H333 H 0.92904 0.10448 0.12318 0.0
H334 H 0.97817 0.09723 0.19383 0.0
C335 C 0.02241 0.20199 0.16516 0.0
C336 C 0.20965 0.7566 0.23786 0.0
C337 C 0.17512 0.74057 0.20292 0.0
H338 H 0.23642 0.7513 0.3081 0.0
C339 C 0.14142 0.70515 0.21254 0.0
H340 H 0.23611 0.78384 0.23178 0.0
C341 C 0.14165 0.68692 0.25634 0.0
C342 C 0.17544 0.7038 0.29104 0.0
H343 H 0.11426 0.69203 0.18662 0.0
H344 H 0.1152 0.65987 0.26318 0.0
C345 C 0.20977 0.73829 0.2816 0.0
C346 C 0.80757 0.74473 0.5537 0.0
C347 C 0.75603 0.75444 0.55564 0.0
H348 H 0.87771 0.74856 0.59022 0.0
C349 C 0.73693 0.78061 0.59551 0.0
H350 H 0.82367 0.7249 0.52357 0.0
C351 C 0.7681 0.79401 0.63373 0.0
C352 C 0.8188 0.78196 0.63232 0.0
H353 H 0.69744 0.78859 0.59832 0.0
H354 H 0.75217 0.81192 0.66507 0.0
C355 C 0.83861 0.75838 0.59172 0.0
C356 C 0.76636 0.2798 0.09766 0.0
C357 C 0.74614 0.25423 0.05789 0.0
H358 H 0.7531 0.31005 0.16795 0.0
C359 C 0.69454 0.24474 0.05695 0.0
H360 H 0.80593 0.28759 0.09971 0.0
C361 C 0.66457 0.25791 0.09583 0.0
C362 C 0.68554 0.28079 0.1363 0.0
H363 H 0.67759 0.22537 0.02694 0.0
H364 H 0.62544 0.24818 0.09508 0.0
C365 C 0.73627 0.29271 0.13673 0.0
C366 C 0.29111 0.25861 0.73957 0.0
C367 C 0.32429 0.24148 0.70396 0.0
H368 H 0.2655 0.25395 0.81026 0.0
C369 C 0.35688 0.20497 0.71291 0.0
H370 H 0.26554 0.28672 0.73403 0.0
C371 C 0.35684 0.18662 0.75664 0.0
C372 C 0.32434 0.20448 0.79196 0.0
H373 H 0.38298 0.19098 0.68645 0.0
H374 H 0.38235 0.15864 0.7629 0.0
C375 C 0.29117 0.24017 0.78326 0.0
C376 C 0.6422 0.78998 0.33037 0.0
C377 C 0.67476 0.75341 0.33923 0.0
H378 H 0.61682 0.83649 0.28052 0.0
C379 C 0.70796 0.73638 0.3036 0.0
H380 H 0.61608 0.80391 0.35684 0.0
C381 C 0.70797 0.75496 0.25998 0.0
C382 C 0.67484 0.7907 0.25137 0.0
H383 H 0.73351 0.70824 0.30908 0.0
H384 H 0.73366 0.74125 0.23297 0.0
C385 C 0.64231 0.80847 0.28671 0.0
C386 C 0.85772 0.28968 0.83017 0.0
C387 C 0.82395 0.25436 0.83992 0.0
H388 H 0.88406 0.33473 0.77937 0.0
C389 C 0.78937 0.2383 0.80504 0.0
H390 H 0.88493 0.30281 0.85605 0.0
C391 C 0.78929 0.25648 0.76122 0.0
C392 C 0.82371 0.29085 0.75166 0.0
H393 H 0.76284 0.21115 0.81121 0.0
H394 H 0.7626 0.24345 0.73477 0.0
C395 C 0.85754 0.30776 0.78631 0.0
C396 C 0.19155 0.25008 0.48927 0.0
C397 C 0.24308 0.24032 0.48738 0.0
H398 H 0.12147 0.24639 0.45265 0.0
C399 C 0.26222 0.2142 0.44749 0.0
H400 H 0.17542 0.26987 0.51941 0.0
C401 C 0.23108 0.2009 0.40921 0.0
C402 C 0.1804 0.21302 0.41057 0.0
H403 H 0.30169 0.20619 0.44472 0.0
H404 H 0.24704 0.18304 0.37786 0.0
C405 C 0.16056 0.23653 0.45118 0.0
C406 C 0.23293 0.7152 0.94538 0.0
C407 C 0.25308 0.74076 0.98518 0.0
H408 H 0.24636 0.68482 0.87517 0.0
C409 C 0.30471 0.75013 0.98627 0.0
H410 H 0.19334 0.70751 0.94321 0.0
C411 C 0.33478 0.73682 0.9475 0.0
C412 C 0.3139 0.71393 0.907 0.0
H413 H 0.3216 0.76948 0.01632 0.0
H414 H 0.37395 0.74645 0.94837 0.0
C415 C 0.26313 0.70215 0.90642 0.0
loop_
_geom_bond_atom_site_label_1
_geom_bond_atom_site_label_2
_geom_bond_distance
_geom_bond_site_symmetry_2
_ccdc_geom_bond_type
Sc0 O3 2.025 . S
Sc0 O10 2.105 1_554 S
Sc0 O13 2.105 . S
Sc0 O16 2.105 . S
Sc0 O19 2.105 1_554 S
Sc1 O3 2.025 . S
Sc1 O11 2.105 1_554 S
Sc1 O15 2.105 . S
Sc1 O17 2.105 . S
Sc1 O21 2.105 1_554 S
Sc2 O3 2.025 . S
Sc2 O12 2.105 . S
Sc2 O14 2.105 . S
Sc2 O18 2.105 . S
Sc2 O20 2.105 . S
O3 Sc0 2.025 . S
O3 Sc1 2.025 . S
O3 Sc2 2.025 . S
C4 O10 1.268 . S
C4 O20 1.268 1_556 S
C5 O11 1.268 . S
C5 O19 1.268 . S
C6 O12 1.268 1_556 S
C6 O21 1.268 . S
C7 O13 1.268 . S
C7 O17 1.268 . S
C8 O14 1.268 . S
C8 O16 1.268 . S
C9 O15 1.268 . S
C9 O18 1.268 . S
O10 Sc0 2.105 1_556 S
O10 C4 1.268 . S
O11 Sc1 2.105 1_556 S
O11 C5 1.268 . S
O12 Sc2 2.105 . S
O12 C6 1.268 1_554 S
O13 Sc0 2.105 . S
O13 C7 1.268 . S
O14 Sc2 2.105 . S
O14 C8 1.268 . S
O15 Sc1 2.105 . S
O15 C9 1.268 . S
O16 Sc0 2.105 . S
O16 C8 1.268 . S
O17 Sc1 2.105 . S
O17 C7 1.268 . S
O18 Sc2 2.105 . S
O18 C9 1.268 . S
O19 Sc0 2.105 1_556 S
O19 C5 1.268 . S
O20 Sc2 2.105 . S
O20 C4 1.268 1_554 S
O21 Sc1 2.105 1_556 S
O21 C6 1.268 . S
Sc22 O25 2.025 . S
Sc22 O32 2.105 . S
Sc22 O35 2.105 . S
Sc22 O38 2.105 . S
Sc22 O41 2.105 . S
Sc23 O25 2.025 . S
Sc23 O33 2.105 . S
Sc23 O37 2.105 . S
Sc23 O39 2.105 . S
Sc23 O43 2.105 . S
Sc24 O25 2.025 . S
Sc24 O34 2.105 . S
Sc24 O36 2.105 . S
Sc24 O40 2.105 . S
Sc24 O42 2.105 . S
O25 Sc22 2.025 . S
O25 Sc23 2.025 . S
O25 Sc24 2.025 . S
C26 O32 1.268 . S
C26 O42 1.268 . S
C27 O33 1.268 . S
C27 O41 1.268 . S
C28 O34 1.268 . S
C28 O43 1.268 . S
C29 O35 1.268 . S
C29 O39 1.268 . S
C30 O36 1.268 . S
C30 O38 1.268 . S
C31 O37 1.268 . S
C31 O40 1.268 . S
O32 Sc22 2.105 . S
O32 C26 1.268 . S
O33 Sc23 2.105 . S
O33 C27 1.268 . S
O34 Sc24 2.105 . S
O34 C28 1.268 . S
O35 Sc22 2.105 . S
O35 C29 1.268 . S
O36 Sc24 2.105 . S
O36 C30 1.268 . S
O37 Sc23 2.105 . S
O37 C31 1.268 . S
O38 Sc22 2.105 . S
O38 C30 1.268 . S
O39 Sc23 2.105 . S
O39 C29 1.268 . S
O40 Sc24 2.105 . S
O40 C31 1.268 . S
O41 Sc22 2.105 . S
O41 C27 1.268 . S
O42 Sc24 2.105 . S
O42 C26 1.268 . S
O43 Sc23 2.105 . S
O43 C28 1.268 . S
Sc44 O47 2.026 . S
Sc44 O54 2.105 1_554 S
Sc44 O57 2.105 . S
Sc44 O60 2.105 . S
Sc44 O63 2.105 1_554 S
Sc45 O47 2.023 1_556 S
Sc45 O55 2.105 . S
Sc45 O59 2.105 1_556 S
Sc45 O61 2.105 1_556 S
Sc45 O65 2.105 . S
Sc46 O47 2.027 . S
Sc46 O56 2.105 1_554 S
Sc46 O58 2.105 . S
Sc46 O62 2.105 . S
Sc46 O64 2.105 1_554 S
O47 Sc44 2.026 . S
O47 Sc45 2.023 1_554 S
O47 Sc46 2.027 . S
C48 O54 1.268 . S
C48 O64 1.268 . S
C49 O55 1.268 . S
C49 O63 1.268 . S
C50 O56 1.268 . S
C50 O65 1.268 . S
C51 O57 1.268 . S
C51 O61 1.268 . S
C52 O58 1.268 . S
C52 O60 1.268 . S
C53 O59 1.268 . S
C53 O62 1.268 . S
O54 Sc44 2.105 1_556 S
O54 C48 1.268 . S
O55 Sc45 2.105 . S
O55 C49 1.268 . S
O56 Sc46 2.105 1_556 S
O56 C50 1.268 . S
O57 Sc44 2.105 . S
O57 C51 1.268 . S
O58 Sc46 2.105 . S
O58 C52 1.268 . S
O59 Sc45 2.105 1_554 S
O59 C53 1.268 . S
O60 Sc44 2.105 . S
O60 C52 1.268 . S
O61 Sc45 2.105 1_554 S
O61 C51 1.268 . S
O62 Sc46 2.105 . S
O62 C53 1.268 . S
O63 Sc44 2.105 1_556 S
O63 C49 1.268 . S
O64 Sc46 2.105 1_556 S
O64 C48 1.268 . S
O65 Sc45 2.105 . S
O65 C50 1.268 . S
Sc66 O69 2.025 . S
Sc66 O76 2.105 . S
Sc66 O79 2.105 . S
Sc66 O82 2.105 . S
Sc66 O85 2.105 . S
Sc67 O69 2.025 . S
Sc67 O77 2.105 . S
Sc67 O81 2.105 . S
Sc67 O83 2.105 . S
Sc67 O87 2.105 . S
Sc68 O69 2.025 . S
Sc68 O78 2.105 . S
Sc68 O80 2.105 . S
Sc68 O84 2.105 . S
Sc68 O86 2.105 . S
O69 Sc66 2.025 . S
O69 Sc67 2.025 . S
O69 Sc68 2.025 . S
C70 O76 1.268 . S
C70 O86 1.268 . S
C71 O77 1.268 . S
C71 O85 1.268 . S
C72 O78 1.268 . S
C72 O87 1.268 . S
C73 O79 1.268 . S
C73 O83 1.268 . S
C74 O80 1.268 . S
C74 O82 1.268 . S
C75 O81 1.268 . S
C75 O84 1.268 . S
O76 Sc66 2.105 . S
O76 C70 1.268 . S
O77 Sc67 2.105 . S
O77 C71 1.268 . S
O78 Sc68 2.105 . S
O78 C72 1.268 . S
O79 Sc66 2.105 . S
O79 C73 1.268 . S
O80 Sc68 2.105 . S
O80 C74 1.268 . S
O81 Sc67 2.105 . S
O81 C75 1.268 . S
O82 Sc66 2.105 . S
O82 C74 1.268 . S
O83 Sc67 2.105 . S
O83 C73 1.268 . S
O84 Sc68 2.105 . S
O84 C75 1.268 . S
O85 Sc66 2.105 . S
O85 C71 1.268 . S
O86 Sc68 2.105 . S
O86 C70 1.268 . S
O87 Sc67 2.105 . S
O87 C72 1.268 . S
H88 C91 0.929 . S
H89 C94 0.929 . S
H90 C96 0.930 . S
C91 H88 0.929 . S
C91 C92 1.398 . S
C91 C93 1.396 . S
C92 C91 1.398 . S
C92 C96 1.407 . S
C93 C91 1.396 . S
C93 C94 1.394 . S
C94 H89 0.929 . S
C94 C93 1.394 . S
C94 C95 1.382 . S
C95 C94 1.382 . S
C95 C96 1.392 . S
C95 N97 1.420 . S
C96 H90 0.930 . S
C96 C92 1.407 . S
C96 C95 1.392 . S
N97 C95 1.420 . S
N97 C98 1.244 . S
C98 N97 1.244 . S
H99 C102 0.929 . S
H100 C105 0.929 . S
H101 C107 0.930 . S
C102 H99 0.929 . S
C102 C103 1.398 . S
C102 C104 1.396 . S
C103 C102 1.398 . S
C103 C107 1.407 . S
C104 C102 1.396 . S
C104 C105 1.394 . S
C105 H100 0.929 . S
C105 C104 1.394 . S
C105 C106 1.382 . S
C106 C105 1.382 . S
C106 C107 1.392 . S
C106 N108 1.420 . S
C107 H101 0.930 . S
C107 C103 1.407 . S
C107 C106 1.392 . S
N108 C106 1.420 . S
N108 C109 1.244 . S
C109 N108 1.244 . S
H110 C113 0.929 . S
H111 C116 0.929 . S
H112 C118 0.930 . S
C113 H110 0.929 . S
C113 C114 1.398 . S
C113 C115 1.396 . S
C114 C113 1.398 . S
C114 C118 1.407 . S
C115 C113 1.396 . S
C115 C116 1.394 . S
C116 H111 0.929 . S
C116 C115 1.394 . S
C116 C117 1.382 . S
C117 C116 1.382 . S
C117 C118 1.392 . S
C117 N119 1.420 . S
C118 H112 0.930 . S
C118 C114 1.407 . S
C118 C117 1.392 . S
N119 C117 1.420 . S
N119 C120 1.244 . S
C120 N119 1.244 . S
H121 C124 0.929 . S
H122 C127 0.929 . S
H123 C129 0.930 . S
C124 H121 0.929 . S
C124 C125 1.398 . S
C124 C126 1.396 . S
C125 C124 1.398 . S
C125 C129 1.407 . S
C126 C124 1.396 . S
C126 C127 1.394 . S
C127 H122 0.929 . S
C127 C126 1.394 . S
C127 C128 1.382 . S
C128 C127 1.382 . S
C128 C129 1.392 . S
C128 N130 1.420 . S
C129 H123 0.930 . S
C129 C125 1.407 . S
C129 C128 1.392 . S
N130 C128 1.420 . S
N130 C131 1.244 . S
C131 N130 1.244 . S
H132 C135 0.929 . S
H133 C138 0.929 . S
H134 C140 0.930 . S
C135 H132 0.929 . S
C135 C136 1.398 . S
C135 C137 1.396 . S
C136 C135 1.398 . S
C136 C140 1.407 . S
C137 C135 1.396 . S
C137 C138 1.394 . S
C138 H133 0.929 . S
C138 C137 1.394 . S
C138 C139 1.382 . S
C139 C138 1.382 . S
C139 C140 1.392 . S
C139 N141 1.420 . S
C140 H134 0.930 . S
C140 C136 1.407 . S
C140 C139 1.392 . S
N141 C139 1.420 . S
N141 C142 1.244 . S
C142 N141 1.244 . S
H143 C146 0.929 . S
H144 C149 0.929 . S
H145 C151 0.930 . S
C146 H143 0.929 . S
C146 C147 1.398 . S
C146 C148 1.396 . S
C147 C146 1.398 . S
C147 C151 1.407 . S
C148 C146 1.396 . S
C148 C149 1.394 . S
C149 H144 0.929 . S
C149 C148 1.394 . S
C149 C150 1.382 . S
C150 C149 1.382 . S
C150 C151 1.392 . S
C150 N152 1.420 . S
C151 H145 0.930 . S
C151 C147 1.407 . S
C151 C150 1.392 . S
N152 C150 1.420 . S
N152 C153 1.244 . S
C153 N152 1.244 . S
H154 C157 0.929 . S
H155 C160 0.929 . S
H156 C162 0.930 . S
C157 H154 0.929 . S
C157 C158 1.398 . S
C157 C159 1.396 . S
C158 C157 1.398 . S
C158 C162 1.407 . S
C159 C157 1.396 . S
C159 C160 1.394 . S
C160 H155 0.929 . S
C160 C159 1.394 . S
C160 C161 1.382 . S
C161 C160 1.382 . S
C161 C162 1.392 . S
C161 N163 1.420 . S
C162 H156 0.930 . S
C162 C158 1.407 . S
C162 C161 1.392 . S
N163 C161 1.420 . S
N163 C164 1.244 . S
C164 N163 1.244 . S
H165 C168 0.929 . S
H166 C171 0.929 . S
H167 C173 0.930 . S
C168 H165 0.929 . S
C168 C169 1.398 . S
C168 C170 1.396 . S
C169 C168 1.398 . S
C169 C173 1.407 . S
C170 C168 1.396 . S
C170 C171 1.394 . S
C171 H166 0.929 . S
C171 C170 1.394 . S
C171 C172 1.382 . S
C172 C171 1.382 . S
C172 C173 1.392 . S
C172 N174 1.420 . S
C173 H167 0.930 . S
C173 C169 1.407 . S
C173 C172 1.392 . S
N174 C172 1.420 . S
N174 C175 1.244 . S
C175 N174 1.244 . S
C176 C177 1.387 1_545 S
C176 H180 0.950 . S
C176 C185 1.390 . S
C177 C176 1.387 1_565 S
C177 C179 1.387 . S
H178 C185 0.950 . S
C179 C177 1.387 . S
C179 C181 1.390 1_565 S
C179 H183 0.950 . S
H180 C176 0.950 . S
C181 C179 1.390 1_545 S
C181 C182 1.387 . S
C181 H184 0.950 . S
C182 C181 1.387 . S
C182 C185 1.387 . S
H183 C179 0.950 . S
H184 C181 0.950 . S
C185 C176 1.390 . S
C185 H178 0.950 . S
C185 C182 1.387 . S
C186 C187 1.387 . S
C186 H190 0.950 . S
C186 C195 1.390 . S
C187 C186 1.387 . S
C187 C189 1.387 . S
H188 C195 0.950 . S
C189 C187 1.387 . S
C189 C191 1.390 . S
C189 H193 0.950 . S
H190 C186 0.950 . S
C191 C189 1.390 . S
C191 C192 1.387 . S
C191 H194 0.950 . S
C192 C191 1.387 . S
C192 C195 1.387 . S
H193 C189 0.950 . S
H194 C191 0.950 . S
C195 C186 1.390 . S
C195 H188 0.950 . S
C195 C192 1.387 . S
C196 C197 1.387 . S
C196 H200 0.950 . S
C196 C205 1.390 1_545 S
C197 C196 1.387 . S
C197 C199 1.387 1_545 S
H198 C205 0.950 . S
C199 C197 1.387 1_565 S
C199 C201 1.390 . S
C199 H203 0.950 . S
H200 C196 0.950 . S
C201 C199 1.390 . S
C201 C202 1.387 . S
C201 H204 0.950 . S
C202 C201 1.387 . S
C202 C205 1.387 . S
H203 C199 0.950 . S
H204 C201 0.950 . S
C205 C196 1.390 1_565 S
C205 H198 0.950 . S
C205 C202 1.387 . S
C206 C207 1.387 . S
C206 H210 0.950 . S
C206 C215 1.390 . S
C207 C206 1.387 . S
C207 C209 1.387 . S
H208 C215 0.950 . S
C209 C207 1.387 . S
C209 C211 1.390 . S
C209 H213 0.950 . S
H210 C206 0.950 . S
C211 C209 1.390 . S
C211 C212 1.387 . S
C211 H214 0.950 . S
C212 C211 1.387 . S
C212 C215 1.387 . S
H213 C209 0.950 . S
H214 C211 0.950 . S
C215 C206 1.390 . S
C215 H208 0.950 . S
C215 C212 1.387 . S
C216 C217 1.387 . S
C216 H220 0.950 . S
C216 C225 1.390 . S
C217 C216 1.387 . S
C217 C219 1.387 . S
H218 C225 0.950 . S
C219 C217 1.387 . S
C219 C221 1.390 . S
C219 H223 0.950 . S
H220 C216 0.950 . S
C221 C219 1.390 . S
C221 C222 1.387 . S
C221 H224 0.950 . S
C222 C221 1.387 . S
C222 C225 1.387 . S
H223 C219 0.950 . S
H224 C221 0.950 . S
C225 C216 1.390 . S
C225 H218 0.950 . S
C225 C222 1.387 . S
C226 C227 1.387 . S
C226 H230 0.950 . S
C226 C235 1.390 . S
C227 C226 1.387 . S
C227 C229 1.387 . S
H228 C235 0.950 . S
C229 C227 1.387 . S
C229 C231 1.390 . S
C229 H233 0.950 . S
H230 C226 0.950 . S
C231 C229 1.390 . S
C231 C232 1.387 . S
C231 H234 0.950 . S
C232 C231 1.387 . S
C232 C235 1.387 . S
H233 C229 0.950 . S
H234 C231 0.950 . S
C235 C226 1.390 . S
C235 H228 0.950 . S
C235 C232 1.387 . S
C236 C237 1.387 . S
C236 H240 0.950 . S
C236 C245 1.390 . S
C237 C236 1.387 . S
C237 C239 1.387 . S
H238 C245 0.950 . S
C239 C237 1.387 . S
C239 C241 1.390 . S
C239 H243 0.950 . S
H240 C236 0.950 . S
C241 C239 1.390 . S
C241 C242 1.387 . S
C241 H244 0.950 . S
C242 C241 1.387 . S
C242 C245 1.387 . S
H243 C239 0.950 . S
H244 C241 0.950 . S
C245 C236 1.390 . S
C245 H238 0.950 . S
C245 C242 1.387 . S
C246 C247 1.387 . S
C246 H250 0.950 . S
C246 C255 1.383 1_455 S
C247 C246 1.387 . S
C247 C249 1.387 . S
H248 C255 0.953 . S
C249 C247 1.387 . S
C249 C251 1.390 1_455 S
C249 H253 0.950 . S
H250 C246 0.950 . S
C251 C249 1.390 1_655 S
C251 C252 1.387 . S
C251 H254 0.950 . S
C252 C251 1.387 . S
C252 C255 1.391 . S
H253 C249 0.950 . S
H254 C251 0.950 . S
C255 C246 1.383 1_655 S
C255 H248 0.953 . S
C255 C252 1.391 . S
C256 C257 1.387 . S
C256 H260 0.950 . S
C256 C265 1.390 . S
C257 C256 1.387 . S
C257 C259 1.387 1_545 S
H258 C265 0.950 . S
C259 C257 1.387 1_565 S
C259 C261 1.390 . S
C259 H263 0.950 . S
H260 C256 0.950 . S
C261 C259 1.390 . S
C261 C262 1.387 . S
C261 H264 0.950 . S
C262 C261 1.387 . S
C262 C265 1.387 1_565 S
H263 C259 0.950 . S
H264 C261 0.950 . S
C265 C256 1.390 . S
C265 H258 0.950 . S
C265 C262 1.387 1_545 S
C266 C267 1.387 . S
C266 H270 0.950 . S
C266 C275 1.390 . S
C267 C266 1.387 . S
C267 C269 1.387 . S
H268 C275 0.950 . S
C269 C267 1.387 . S
C269 C271 1.390 . S
C269 H273 0.950 . S
H270 C266 0.950 . S
C271 C269 1.390 . S
C271 C272 1.387 . S
C271 H274 0.950 . S
C272 C271 1.387 . S
C272 C275 1.387 . S
H273 C269 0.950 . S
H274 C271 0.950 . S
C275 C266 1.390 . S
C275 H268 0.950 . S
C275 C272 1.387 . S
C276 C277 1.387 1_545 S
C276 H280 0.950 . S
C276 C285 1.390 . S
C277 C276 1.387 1_565 S
C277 C279 1.387 . S
H278 C285 0.950 . S
C279 C277 1.387 . S
C279 C281 1.390 1_565 S
C279 H283 0.950 . S
H280 C276 0.950 . S
C281 C279 1.390 1_545 S
C281 C282 1.387 . S
C281 H284 0.950 . S
C282 C281 1.387 . S
C282 C285 1.387 . S
H283 C279 0.950 . S
H284 C281 0.950 . S
C285 C276 1.390 . S
C285 H278 0.950 . S
C285 C282 1.387 . S
C286 C287 1.387 . S
C286 H290 0.950 . S
C286 C295 1.390 . S
C287 C286 1.387 . S
C287 C289 1.387 . S
H288 C295 0.950 . S
C289 C287 1.387 . S
C289 C291 1.390 . S
C289 H293 0.950 . S
H290 C286 0.950 . S
C291 C289 1.390 . S
C291 C292 1.387 . S
C291 H294 0.950 . S
C292 C291 1.387 . S
C292 C295 1.387 . S
H293 C289 0.950 . S
H294 C291 0.950 . S
C295 C286 1.390 . S
C295 H288 0.950 . S
C295 C292 1.387 . S
C296 C297 1.387 . S
C296 H300 0.950 . S
C296 C305 1.390 . S
C297 C296 1.387 . S
C297 C299 1.387 . S
H298 C305 0.950 . S
C299 C297 1.387 . S
C299 C301 1.390 . S
C299 H303 0.950 . S
H300 C296 0.950 . S
C301 C299 1.390 . S
C301 C302 1.387 . S
C301 H304 0.950 . S
C302 C301 1.387 . S
C302 C305 1.387 . S
H303 C299 0.950 . S
H304 C301 0.950 . S
C305 C296 1.390 . S
C305 H298 0.950 . S
C305 C302 1.387 . S
C306 C307 1.387 . S
C306 H310 0.950 . S
C306 C315 1.390 . S
C307 C306 1.387 . S
C307 C309 1.387 . S
H308 C315 0.950 . S
C309 C307 1.387 . S
C309 C311 1.390 . S
C309 H313 0.950 . S
H310 C306 0.950 . S
C311 C309 1.390 . S
C311 C312 1.387 . S
C311 H314 0.950 . S
C312 C311 1.387 . S
C312 C315 1.387 . S
H313 C309 0.950 . S
H314 C311 0.950 . S
C315 C306 1.390 . S
C315 H308 0.950 . S
C315 C312 1.387 . S
C316 C317 1.387 . S
C316 H320 0.950 . S
C316 C325 1.390 . S
C317 C316 1.387 . S
C317 C319 1.387 . S
H318 C325 0.950 . S
C319 C317 1.387 . S
C319 C321 1.390 . S
C319 H323 0.950 . S
H320 C316 0.950 . S
C321 C319 1.390 . S
C321 C322 1.387 . S
C321 H324 0.950 . S
C322 C321 1.387 . S
C322 C325 1.387 . S
H323 C319 0.950 . S
H324 C321 0.950 . S
C325 C316 1.390 . S
C325 H318 0.950 . S
C325 C322 1.387 . S
C326 C327 1.387 . S
C326 H330 0.950 . S
C326 C335 1.390 1_655 S
C327 C326 1.387 . S
C327 C329 1.387 . S
H328 C335 0.950 . S
C329 C327 1.387 . S
C329 C331 1.390 . S
C329 H333 0.950 . S
H330 C326 0.950 . S
C331 C329 1.390 . S
C331 C332 1.387 1_655 S
C331 H334 0.950 . S
C332 C331 1.387 1_455 S
C332 C335 1.387 . S
H333 C329 0.950 . S
H334 C331 0.950 . S
C335 C326 1.390 1_455 S
C335 H328 0.950 . S
C335 C332 1.387 . S
C336 C337 1.387 . S
C336 H340 0.950 . S
C336 C345 1.390 . S
C337 C336 1.387 . S
C337 C339 1.387 . S
H338 C345 0.950 . S
C339 C337 1.387 . S
C339 C341 1.390 . S
C339 H343 0.950 . S
H340 C336 0.950 . S
C341 C339 1.390 . S
C341 C342 1.387 . S
C341 H344 0.950 . S
C342 C341 1.387 . S
C342 C345 1.387 . S
H343 C339 0.950 . S
H344 C341 0.950 . S
C345 C336 1.390 . S
C345 H338 0.950 . S
C345 C342 1.387 . S
C346 C347 1.387 . S
C346 H350 0.950 . S
C346 C355 1.390 . S
C347 C346 1.387 . S
C347 C349 1.387 . S
H348 C355 0.950 . S
C349 C347 1.387 . S
C349 C351 1.390 . S
C349 H353 0.950 . S
H350 C346 0.950 . S
C351 C349 1.390 . S
C351 C352 1.387 . S
C351 H354 0.950 . S
C352 C351 1.387 . S
C352 C355 1.387 . S
H353 C349 0.950 . S
H354 C351 0.950 . S
C355 C346 1.390 . S
C355 H348 0.950 . S
C355 C352 1.387 . S
C356 C357 1.387 . S
C356 H360 0.950 . S
C356 C365 1.390 . S
C357 C356 1.387 . S
C357 C359 1.387 . S
H358 C365 0.950 . S
C359 C357 1.387 . S
C359 C361 1.390 . S
C359 H363 0.950 . S
H360 C356 0.950 . S
C361 C359 1.390 . S
C361 C362 1.387 . S
C361 H364 0.950 . S
C362 C361 1.387 . S
C362 C365 1.387 . S
H363 C359 0.950 . S
H364 C361 0.950 . S
C365 C356 1.390 . S
C365 H358 0.950 . S
C365 C362 1.387 . S
C366 C367 1.387 . S
C366 H370 0.950 . S
C366 C375 1.390 . S
C367 C366 1.387 . S
C367 C369 1.387 . S
H368 C375 0.950 . S
C369 C367 1.387 . S
C369 C371 1.390 . S
C369 H373 0.950 . S
H370 C366 0.950 . S
C371 C369 1.390 . S
C371 C372 1.387 . S
C371 H374 0.950 . S
C372 C371 1.387 . S
C372 C375 1.387 . S
H373 C369 0.950 . S
H374 C371 0.950 . S
C375 C366 1.390 . S
C375 H368 0.950 . S
C375 C372 1.387 . S
C376 C377 1.387 . S
C376 H380 0.950 . S
C376 C385 1.390 . S
C377 C376 1.387 . S
C377 C379 1.387 . S
H378 C385 0.950 . S
C379 C377 1.387 . S
C379 C381 1.390 . S
C379 H383 0.950 . S
H380 C376 0.950 . S
C381 C379 1.390 . S
C381 C382 1.387 . S
C381 H384 0.950 . S
C382 C381 1.387 . S
C382 C385 1.387 . S
H383 C379 0.950 . S
H384 C381 0.950 . S
C385 C376 1.390 . S
C385 H378 0.950 . S
C385 C382 1.387 . S
C386 C387 1.387 . S
C386 H390 0.950 . S
C386 C395 1.390 . S
C387 C386 1.387 . S
C387 C389 1.387 . S
H388 C395 0.950 . S
C389 C387 1.387 . S
C389 C391 1.390 . S
C389 H393 0.950 . S
H390 C386 0.950 . S
C391 C389 1.390 . S
C391 C392 1.387 . S
C391 H394 0.950 . S
C392 C391 1.387 . S
C392 C395 1.387 . S
H393 C389 0.950 . S
H394 C391 0.950 . S
C395 C386 1.390 . S
C395 H388 0.950 . S
C395 C392 1.387 . S
C396 C397 1.387 . S
C396 H400 0.950 . S
C396 C405 1.390 . S
C397 C396 1.387 . S
C397 C399 1.387 . S
H398 C405 0.950 . S
C399 C397 1.387 . S
C399 C401 1.390 . S
C399 H403 0.950 . S
H400 C396 0.950 . S
C401 C399 1.390 . S
C401 C402 1.387 . S
C401 H404 0.950 . S
C402 C401 1.387 . S
C402 C405 1.387 . S
H403 C399 0.950 . S
H404 C401 0.950 . S
C405 C396 1.390 . S
C405 H398 0.950 . S
C405 C402 1.387 . S
C406 C407 1.387 . S
C406 H410 0.950 . S
C406 C415 1.390 . S
C407 C406 1.387 . S
C407 C409 1.387 . S
H408 C415 0.950 . S
C409 C407 1.387 . S
C409 C411 1.390 . S
C409 H413 0.950 . S
H410 C406 0.950 . S
C411 C409 1.390 . S
C411 C412 1.387 . S
C411 H414 0.950 . S
C412 C411 1.387 . S
C412 C415 1.387 . S
H413 C409 0.950 . S
H414 C411 0.950 . S
C415 C406 1.390 . S
C415 H408 0.950 . S
C415 C412 1.387 . S
C177 C8 1.500 . S
C182 C93 1.431 . S
C187 C31 1.471 . S
C192 C104 1.377 . S
C197 C53 1.435 . S
C202 C114 1.379 . S
C212 C126 1.407 . S
C207 C74 1.406 . S
C222 C137 1.431 . S
C217 C26 1.500 . S
C227 C48 1.406 1_455 S
C232 C148 1.407 . S
C237 C71 1.435 . S
C242 C158 1.379 . S
C247 C5 1.471 . S
C252 C170 1.377 . S
C257 C50 1.372 . S
C262 C169 1.340 . S
C272 C136 1.260 . S
C267 C70 1.310 . S
C282 C147 1.364 . S
C277 C4 1.406 . S
C287 C28 1.417 . S
C292 C159 1.411 . S
C302 C103 1.341 . S
C297 C73 1.371 . S
C307 C7 1.420 1_655 S
C312 C115 1.411 . S
C322 C125 1.361 . S
C317 C30 1.405 . S
C332 C92 1.261 . S
C327 C52 1.310 . S
C342 C164 1.467 . S
C337 C9 1.500 . S
C352 C175 1.471 . S
C347 C29 1.459 . S
C357 C51 1.411 . S
C362 C142 1.422 . S
C372 C153 1.425 . S
C367 C75 1.469 . S
C382 C120 1.465 . S
C377 C27 1.500 . S
C387 C49 1.469 . S
C392 C131 1.427 . S
C402 C98 1.420 . S
C397 C72 1.410 . S
C412 C109 1.470 . S
C407 C6 1.458 . S
