# Generated by pormake.
# Topology nom, (4,4)-cn, num edge types: 1
# Building blocks:
#     Node 0, Type 0, BuildingBlock: NAWXER_clean_linker_0, # of connection points: 4
#     Node 1, Type 0, BuildingBlock: NAWXER_clean_linker_0, # of connection points: 4
#     Node 2, Type 0, BuildingBlock: NAWXER_clean_linker_0, # of connection points: 4
#     Node 3, Type 0, BuildingBlock: NAWXER_clean_linker_0, # of connection points: 4
#     Node 4, Type 0, BuildingBlock: NAWXER_clean_linker_0, # of connection points: 4
#     Node 5, Type 0, BuildingBlock: NAWXER_clean_linker_0, # of connection points: 4
#     Node 6, Type 1, BuildingBlock: QUQFOY_clean_sbu_3, # of connection points: 4
#     Node 7, Type 1, BuildingBlock: QUQFOY_clean_sbu_3, # of connection points: 4
#     Node 8, Type 1, BuildingBlock: QUQFOY_clean_sbu_3, # of connection points: 4
#     Node 9, Type 1, BuildingBlock: QUQFOY_clean_sbu_3, # of connection points: 4
#     Node 10, Type 1, BuildingBlock: QUQFOY_clean_sbu_3, # of connection points: 4
#     Node 11, Type 1, BuildingBlock: QUQFOY_clean_sbu_3, # of connection points: 4
#     Edge 12, Type (0, 1), BuildingBlock: MIFKUJ_clean_linker_0, # of connection points: 2
#     Edge 13, Type (0, 1), BuildingBlock: MIFKUJ_clean_linker_0, # of connection points: 2
#     Edge 14, Type (0, 1), BuildingBlock: MIFKUJ_clean_linker_0, # of connection points: 2
#     Edge 15, Type (0, 1), BuildingBlock: MIFKUJ_clean_linker_0, # of connection points: 2
#     Edge 16, Type (0, 1), BuildingBlock: MIFKUJ_clean_linker_0, # of connection points: 2
#     Edge 17, Type (0, 1), BuildingBlock: MIFKUJ_clean_linker_0, # of connection points: 2
#     Edge 18, Type (0, 1), BuildingBlock: MIFKUJ_clean_linker_0, # of connection points: 2
#     Edge 19, Type (0, 1), BuildingBlock: MIFKUJ_clean_linker_0, # of connection points: 2
#     Edge 20, Type (0, 1), BuildingBlock: MIFKUJ_clean_linker_0, # of connection points: 2
#     Edge 21, Type (0, 1), BuildingBlock: MIFKUJ_clean_linker_0, # of connection points: 2
#     Edge 22, Type (0, 1), BuildingBlock: MIFKUJ_clean_linker_0, # of connection points: 2
#     Edge 23, Type (0, 1), BuildingBlock: MIFKUJ_clean_linker_0, # of connection points: 2
#     Edge 24, Type (0, 1), BuildingBlock: MIFKUJ_clean_linker_0, # of connection points: 2
#     Edge 25, Type (0, 1), BuildingBlock: MIFKUJ_clean_linker_0, # of connection points: 2
#     Edge 26, Type (0, 1), BuildingBlock: MIFKUJ_clean_linker_0, # of connection points: 2
#     Edge 27, Type (0, 1), BuildingBlock: MIFKUJ_clean_linker_0, # of connection points: 2
#     Edge 28, Type (0, 1), BuildingBlock: MIFKUJ_clean_linker_0, # of connection points: 2
#     Edge 29, Type (0, 1), BuildingBlock: MIFKUJ_clean_linker_0, # of connection points: 2
#     Edge 30, Type (0, 1), BuildingBlock: MIFKUJ_clean_linker_0, # of connection points: 2
#     Edge 31, Type (0, 1), BuildingBlock: MIFKUJ_clean_linker_0, # of connection points: 2
#     Edge 32, Type (0, 1), BuildingBlock: MIFKUJ_clean_linker_0, # of connection points: 2
#     Edge 33, Type (0, 1), BuildingBlock: MIFKUJ_clean_linker_0, # of connection points: 2
#     Edge 34, Type (0, 1), BuildingBlock: MIFKUJ_clean_linker_0, # of connection points: 2
#     Edge 35, Type (0, 1), BuildingBlock: MIFKUJ_clean_linker_0, # of connection points: 2
# Relax obj value: 0.007
# Max RMSD: 0.109
# Mean RMSD: 0.075
data_MOF--net-nom--node1-QUQFOY_clean_sbu_3--node2-NAWXER_clean_linker_0--edge1-MIFKUJ_clean_linker_0
_symmetry_space_group_name_H-M    P1
_symmetry_Int_Tables_number       1
_symmetry_cell_setting            triclinic
loop_
_symmetry_equiv_pos_as_xyz
'x, y, z'
_cell_length_a     65.323212
_cell_length_b     66.791993
_cell_length_c     72.562078
_cell_angle_alpha  89.890171
_cell_angle_beta   90.133134
_cell_angle_gamma 119.98389
loop_
_atom_site_label
_atom_site_type_symbol
_atom_site_fract_x
_atom_site_fract_y
_atom_site_fract_z
_atom_type_partial_charge
C0 C 0.92129 0.48247 0.32807 0.0
C1 C 0.91219 0.46556 0.34196 0.0
C2 C 0.9438 0.49013 0.32096 0.0
C3 C 0.95759 0.48083 0.32743 0.0
C4 C 0.92577 0.45591 0.34819 0.0
C5 C 0.9484 0.46365 0.34108 0.0
C6 C 0.98243 0.49097 0.32148 0.0
C7 C 0.93958 0.4562 0.27098 0.0
C8 C 0.9412 0.47165 0.25708 0.0
C9 C 0.95507 0.46405 0.28599 0.0
C10 C 0.97247 0.48746 0.28736 0.0
C11 C 0.95862 0.49511 0.25861 0.0
C12 C 0.97423 0.50287 0.2735 0.0
C13 C 0.98941 0.49592 0.30286 0.0
C14 C 0.09543 0.5415 0.30552 0.0
C15 C 0.10144 0.56134 0.29487 0.0
C16 C 0.07214 0.52712 0.31132 0.0
C17 C 0.05447 0.53227 0.30648 0.0
C18 C 0.08358 0.56639 0.2902 0.0
C19 C 0.06032 0.55186 0.29577 0.0
C20 C 0.02971 0.51726 0.3122 0.0
C21 C 0.0696 0.55368 0.36353 0.0
C22 C 0.06978 0.53868 0.37705 0.0
C23 C 0.05462 0.5449 0.34829 0.0
C24 C 0.03966 0.52097 0.34626 0.0
C25 C 0.05475 0.51473 0.37499 0.0
C26 C 0.03968 0.50597 0.35979 0.0
C27 C 0.02283 0.51162 0.33075 0.0
H28 H 0.91115 0.4901 0.32292 0.0
H29 H 0.95074 0.50394 0.31088 0.0
H30 H 0.91927 0.44302 0.35903 0.0
H31 H 0.9589 0.45652 0.34647 0.0
H32 H 0.92666 0.43797 0.2701 0.0
H33 H 0.95372 0.45176 0.29637 0.0
H34 H 0.9601 0.50759 0.24838 0.0
H35 H 0.98752 0.52101 0.27432 0.0
H36 H 0.10862 0.53687 0.30914 0.0
H37 H 0.06786 0.51185 0.31937 0.0
H38 H 0.08756 0.58174 0.2824 0.0
H39 H 0.04691 0.55615 0.29196 0.0
H40 H 0.08106 0.57221 0.36473 0.0
H41 H 0.05443 0.55685 0.33827 0.0
H42 H 0.05428 0.50279 0.38534 0.0
H43 H 0.028 0.48747 0.35859 0.0
N44 N -0.00057 0.49873 0.33471 0.0
N45 N 0.01277 0.50914 0.29894 0.0
C46 C 0.45357 0.9216 0.49461 0.0
C47 C 0.46275 0.91475 0.50924 0.0
C48 C 0.46593 0.94414 0.48788 0.0
C49 C 0.48819 0.96005 0.49517 0.0
C50 C 0.48459 0.93072 0.51698 0.0
C51 C 0.49728 0.9532 0.50994 0.0
C52 C 0.501 0.9843 0.48859 0.0
C53 C 0.4941 0.9421 0.43787 0.0
C54 C 0.47855 0.94257 0.42463 0.0
C55 C 0.5018 0.95748 0.45274 0.0
C56 C 0.49412 0.97361 0.45456 0.0
C57 C 0.4708 0.95867 0.4267 0.0
C58 C 0.47873 0.97418 0.44138 0.0
C59 C 0.50255 0.9905 0.46978 0.0
C60 C 0.56248 0.09424 0.47098 0.0
C61 C 0.54865 0.10021 0.45987 0.0
C62 C 0.55362 0.07145 0.47686 0.0
C63 C 0.53079 0.05426 0.47173 0.0
C64 C 0.52596 0.08277 0.45448 0.0
C65 C 0.51723 0.05999 0.46023 0.0
C66 C 0.52087 0.03021 0.47813 0.0
C67 C 0.5251 0.07243 0.52743 0.0
C68 C 0.54081 0.07327 0.54108 0.0
C69 C 0.51824 0.05649 0.51304 0.0
C70 C 0.52714 0.04125 0.51194 0.0
C71 C 0.54943 0.05776 0.54007 0.0
C72 C 0.54252 0.04179 0.52568 0.0
C73 C 0.51975 0.02415 0.49689 0.0
H74 H 0.43644 0.90967 0.48875 0.0
H75 H 0.45774 0.94918 0.47726 0.0
H76 H 0.49185 0.92578 0.5284 0.0
H77 H 0.51415 0.96528 0.51607 0.0
H78 H 0.50071 0.93019 0.43658 0.0
H79 H 0.514 0.95703 0.46264 0.0
H80 H 0.45845 0.95924 0.41704 0.0
H81 H 0.47257 0.98648 0.44259 0.0
H82 H 0.58018 0.10713 0.47509 0.0
H83 H 0.56457 0.06725 0.48542 0.0
H84 H 0.51467 0.08677 0.44619 0.0
H85 H 0.49959 0.04693 0.45608 0.0
H86 H 0.51822 0.0842 0.5278 0.0
H87 H 0.50585 0.05598 0.50285 0.0
H88 H 0.56124 0.05774 0.55055 0.0
H89 H 0.54931 0.02995 0.52521 0.0
N90 N 0.50993 0.00143 0.50141 0.0
N91 N 0.51219 0.01317 0.46531 0.0
C92 C 0.54922 0.48481 0.61617 0.0
C93 C 0.53108 0.46963 0.60421 0.0
C94 C 0.54428 0.49514 0.63088 0.0
C95 C 0.52114 0.49059 0.63388 0.0
C96 C 0.50791 0.46514 0.60731 0.0
C97 C 0.50304 0.4757 0.6219 0.0
C98 C 0.51583 0.50182 0.64916 0.0
C99 C 0.52932 0.44898 0.67453 0.0
C100 C 0.54961 0.45776 0.68566 0.0
C101 C 0.52067 0.46323 0.66871 0.0
C102 C 0.53232 0.48669 0.67363 0.0
C103 C 0.56091 0.4811 0.69105 0.0
C104 C 0.55226 0.49544 0.68512 0.0
C105 C 0.52284 0.5016 0.66752 0.0
C106 C 0.47308 0.54105 0.71054 0.0
C107 C 0.49118 0.55515 0.72287 0.0
C108 C 0.47791 0.53124 0.69539 0.0
C109 C 0.50109 0.53599 0.69199 0.0
C110 C 0.51426 0.55959 0.71965 0.0
C111 C 0.51917 0.55011 0.70432 0.0
C112 C 0.50645 0.52499 0.67651 0.0
C113 C 0.47443 0.56521 0.65151 0.0
C114 C 0.45381 0.55113 0.64129 0.0
C115 C 0.48939 0.55687 0.65693 0.0
C116 C 0.48373 0.53422 0.65242 0.0
C117 C 0.4488 0.52883 0.63625 0.0
C118 C 0.46356 0.52049 0.64176 0.0
C119 C 0.49856 0.52435 0.65822 0.0
H120 H 0.56736 0.48911 0.61396 0.0
H121 H 0.5586 0.50698 0.63974 0.0
H122 H 0.49346 0.45333 0.59854 0.0
H123 H 0.48506 0.472 0.624 0.0
H124 H 0.51986 0.43093 0.67056 0.0
H125 H 0.50467 0.45581 0.6605 0.0
H126 H 0.57659 0.48832 0.69962 0.0
H127 H 0.56128 0.51341 0.68931 0.0
H128 H 0.45504 0.537 0.71297 0.0
H129 H 0.46345 0.51961 0.68656 0.0
H130 H 0.52848 0.57037 0.72902 0.0
H131 H 0.5371 0.55372 0.70213 0.0
H132 H 0.47881 0.58251 0.65556 0.0
H133 H 0.50523 0.56802 0.66471 0.0
H134 H 0.43345 0.51776 0.62795 0.0
H135 H 0.459 0.50308 0.63788 0.0
N136 N 0.5037 0.51288 0.64528 0.0
N137 N 0.51825 0.51352 0.68044 0.0
C138 C 0.92034 0.45125 0.81068 0.0
C139 C 0.91185 0.45897 0.79619 0.0
C140 C 0.94356 0.46465 0.81677 0.0
C141 C 0.95851 0.48652 0.80901 0.0
C142 C 0.92682 0.48047 0.78798 0.0
C143 C 0.94998 0.49422 0.79443 0.0
C144 C 0.98358 0.50026 0.81487 0.0
C145 C 0.94158 0.49377 0.86537 0.0
C146 C 0.94125 0.47773 0.87815 0.0
C147 C 0.9578 0.50181 0.85089 0.0
C148 C 0.97412 0.49414 0.84901 0.0
C149 C 0.9579 0.47033 0.87628 0.0
C150 C 0.97436 0.4787 0.86198 0.0
C151 C 0.99083 0.50199 0.83344 0.0
C152 C 0.09773 0.55657 0.82838 0.0
C153 C 0.10276 0.54211 0.83927 0.0
C154 C 0.07439 0.5498 0.82362 0.0
C155 C 0.05577 0.52831 0.82946 0.0
C156 C 0.08395 0.52106 0.84568 0.0
C157 C 0.06073 0.51427 0.84084 0.0
C158 C 0.03102 0.52 0.82391 0.0
C159 C 0.07191 0.52799 0.772 0.0
C160 C 0.07276 0.54521 0.76032 0.0
C161 C 0.05593 0.51947 0.78662 0.0
C162 C 0.04067 0.52818 0.78991 0.0
C163 C 0.05716 0.55359 0.76348 0.0
C164 C 0.04114 0.54502 0.77808 0.0
C165 C 0.02391 0.51957 0.80544 0.0
H166 H 0.90924 0.43441 0.81684 0.0
H167 H 0.94993 0.4575 0.82721 0.0
H168 H 0.92061 0.48656 0.77661 0.0
H169 H 0.96129 0.51077 0.78792 0.0
H170 H 0.92945 0.5003 0.86659 0.0
H171 H 0.95762 0.51406 0.84116 0.0
H172 H 0.95798 0.45774 0.88564 0.0
H173 H 0.98684 0.47257 0.86072 0.0
H174 H 0.11182 0.5729 0.82324 0.0
H175 H 0.07094 0.56124 0.81526 0.0
H176 H 0.08715 0.5098 0.85448 0.0
H177 H 0.04662 0.49777 0.84571 0.0
H178 H 0.08378 0.52126 0.76996 0.0
H179 H 0.05551 0.50613 0.7954 0.0
H180 H 0.05713 0.56656 0.75452 0.0
H181 H 0.02928 0.55173 0.78029 0.0
N182 N 0.00046 0.50959 0.8016 0.0
N183 N 0.01419 0.51133 0.83722 0.0
C184 C 0.48582 0.92731 0.96908 0.0
C185 C 0.46559 0.91757 0.95783 0.0
C186 C 0.49501 0.94964 0.97598 0.0
C187 C 0.48408 0.96263 0.97185 0.0
C188 C 0.45466 0.93059 0.95368 0.0
C189 C 0.46399 0.95306 0.9605 0.0
C190 C 0.49448 0.98664 0.97848 0.0
C191 C 0.46558 0.94252 0.02929 0.0
C192 C 0.48324 0.94448 0.04155 0.0
C193 C 0.47125 0.95795 0.01461 0.0
C194 C 0.49463 0.9757 0.01196 0.0
C195 C 0.5067 0.96219 0.03867 0.0
C196 C 0.51228 0.97778 0.02413 0.0
C197 C 0.50068 0.99281 -0.00294 0.0
C198 C 0.5393 0.0962 -0.00303 0.0
C199 C 0.55802 0.10231 0.00948 0.0
C200 C 0.52618 0.07356 0.99038 0.0
C201 C 0.53192 0.05676 0.99582 0.0
C202 C 0.56302 0.08516 0.01543 0.0
C203 C 0.55017 0.0627 0.00864 0.0
C204 C 0.51867 0.03268 0.98901 0.0
C205 C 0.54988 0.07659 0.93823 0.0
C206 C 0.53361 0.073 0.92417 0.0
C207 C 0.54308 0.06167 0.95337 0.0
C208 C 0.51966 0.04342 0.95502 0.0
C209 C 0.51031 0.05461 0.92567 0.0
C210 C 0.50339 0.04 0.94098 0.0
C211 C 0.51239 0.02652 0.97032 0.0
H212 H 0.49451 0.91761 0.97261 0.0
H213 H 0.51089 0.9569 0.98432 0.0
H214 H 0.43917 0.92355 0.94489 0.0
H215 H 0.4555 0.96294 0.95697 0.0
H216 H 0.44726 0.92942 0.03128 0.0
H217 H 0.45727 0.95634 0.00558 0.0
H218 H 0.52083 0.96403 0.04762 0.0
H219 H 0.53044 0.9914 0.0223 0.0
H220 H 0.53498 0.10896 0.99206 0.0
H221 H 0.51164 0.06924 0.981 0.0
H222 H 0.57683 0.08902 0.02543 0.0
H223 H 0.55468 0.04997 0.01333 0.0
H224 H 0.56807 0.09042 0.93717 0.0
H225 H 0.5563 0.06414 0.96354 0.0
H226 H 0.49749 0.05151 0.91494 0.0
H227 H 0.48533 0.02584 0.94178 0.0
N228 N 0.50041 0.0037 0.96585 0.0
N229 N 0.5126 0.01553 0.00158 0.0
C230 C 0.48826 0.56687 0.17202 0.0
C231 C 0.47247 0.56204 0.18668 0.0
C232 C 0.49344 0.55014 0.16585 0.0
C233 C 0.48243 0.52805 0.1739 0.0
C234 C 0.46214 0.54025 0.19521 0.0
C235 C 0.46711 0.52338 0.18887 0.0
C236 C 0.4879 0.51029 0.1674 0.0
C237 C 0.45343 0.52562 0.12016 0.0
C238 C 0.46825 0.53537 0.10477 0.0
C239 C 0.45973 0.51557 0.13436 0.0
C240 C 0.4811 0.51535 0.13354 0.0
C241 C 0.48933 0.5346 0.10382 0.0
C242 C 0.49564 0.52463 0.11802 0.0
C243 C 0.48843 0.50527 0.14857 0.0
C244 C 0.52061 0.43414 0.15084 0.0
C245 C 0.53722 0.44356 0.13651 0.0
C246 C 0.50904 0.4457 0.15709 0.0
C247 C 0.5145 0.46718 0.14944 0.0
C248 C 0.54174 0.46444 0.12833 0.0
C249 C 0.53048 0.47609 0.13472 0.0
C250 C 0.50416 0.48094 0.15649 0.0
C251 C 0.54388 0.47313 0.20441 0.0
C252 C 0.53015 0.46361 0.22031 0.0
C253 C 0.53516 0.48018 0.18968 0.0
C254 C 0.51225 0.47711 0.19038 0.0
C255 C 0.5074 0.46085 0.2211 0.0
C256 C 0.49854 0.46753 0.20626 0.0
C257 C 0.50312 0.48553 0.17538 0.0
H258 H 0.49686 0.58371 0.16548 0.0
H259 H 0.50614 0.55455 0.15484 0.0
H260 H 0.44992 0.53614 0.20656 0.0
H261 H 0.45878 0.5066 0.19549 0.0
H262 H 0.4371 0.52599 0.12133 0.0
H263 H 0.44792 0.50802 0.14598 0.0
H264 H 0.50089 0.54152 0.09198 0.0
H265 H 0.51208 0.52443 0.11699 0.0
H266 H 0.51674 0.41796 0.15726 0.0
H267 H 0.49621 0.4381 0.16807 0.0
H268 H 0.55471 0.47229 0.11745 0.0
H269 H 0.5349 0.49254 0.12851 0.0
H270 H 0.56164 0.47581 0.20364 0.0
H271 H 0.54648 0.48839 0.17792 0.0
H272 H 0.49649 0.45354 0.23322 0.0
H273 H 0.48098 0.46534 0.20721 0.0
N274 N 0.49492 0.49995 0.18007 0.0
N275 N 0.49675 0.491 0.14388 0.0
C276 C 0.68848 0.42183 0.41133 0.0
O277 O 0.68691 0.43909 0.41668 0.0
Cd278 Cd 0.6498 0.43565 0.42521 0.0
O279 O 0.67017 0.40185 0.41054 0.0
Cd280 Cd 0.62747 0.38298 0.41697 0.0
C281 C 0.61926 0.41471 0.38481 0.0
O282 O 0.63009 0.40305 0.44548 0.0
O283 O 0.59519 0.38383 0.43351 0.0
O284 O 0.63075 0.35167 0.43064 0.0
C285 C 0.60806 0.39518 0.44705 0.0
O286 O 0.62817 0.43103 0.39657 0.0
C287 C 0.61496 0.33574 0.4208 0.0
O288 O 0.61833 0.39552 0.388 0.0
O289 O 0.60487 0.34175 0.40879 0.0
C290 C 0.27642 0.59828 0.57341 0.0
O291 O 0.25733 0.58057 0.56837 0.0
Cd292 Cd 0.22303 0.58206 0.55874 0.0
O293 O 0.27839 0.61823 0.57316 0.0
Cd294 Cd 0.25517 0.637 0.56497 0.0
C295 C 0.21456 0.60629 0.59777 0.0
O296 O 0.23663 0.61386 0.5378 0.0
O297 O 0.22364 0.6365 0.54621 0.0
O298 O 0.2906 0.66728 0.55074 0.0
C299 C 0.22319 0.62208 0.53462 0.0
O300 O 0.20791 0.58889 0.58723 0.0
C301 C 0.29165 0.68375 0.56015 0.0
O302 O 0.23198 0.62593 0.59343 0.0
O303 O 0.27557 0.67854 0.57212 0.0
C304 C 0.68847 0.27268 0.73742 0.0
O305 O 0.68784 0.25503 0.73029 0.0
Cd306 Cd 0.65146 0.2221 0.72024 0.0
O307 O 0.66982 0.27414 0.73861 0.0
Cd308 Cd 0.62768 0.25292 0.72984 0.0
C309 C 0.61789 0.2101 0.75969 0.0
O310 O 0.63329 0.23791 0.70103 0.0
O311 O 0.59702 0.22451 0.70924 0.0
O312 O 0.63438 0.2905 0.72037 0.0
C313 C 0.61154 0.22525 0.69731 0.0
O314 O 0.62827 0.20392 0.74807 0.0
C315 C 0.61684 0.28927 0.72888 0.0
O316 O 0.61638 0.22817 0.75704 0.0
O317 O 0.60412 0.27094 0.73806 0.0
C318 C 0.33243 0.59491 0.90334 0.0
O319 O 0.33513 0.57845 0.90925 0.0
Cd320 Cd 0.37097 0.58413 0.92338 0.0
O321 O 0.34918 0.61577 0.90453 0.0
Cd322 Cd 0.39037 0.63801 0.9156 0.0
C323 C 0.40827 0.60979 0.8869 0.0
O324 O 0.3829 0.61604 0.94389 0.0
O325 O 0.41945 0.64092 0.93862 0.0
O326 O 0.37992 0.66724 0.92308 0.0
C327 C 0.40415 0.62599 0.94937 0.0
O328 O 0.39876 0.59286 0.8981 0.0
C329 C 0.39854 0.68408 0.91642 0.0
O330 O 0.40635 0.62767 0.88919 0.0
O331 O 0.41342 0.67946 0.90923 0.0
C332 C 0.73012 0.41974 0.07407 0.0
O333 O 0.7487 0.43816 0.06937 0.0
Cd334 Cd 0.78245 0.43692 0.05749 0.0
O335 O 0.72915 0.40029 0.07303 0.0
Cd336 Cd 0.75365 0.38355 0.06433 0.0
C337 C 0.79575 0.41525 0.09552 0.0
O338 O 0.76885 0.40551 0.03582 0.0
O339 O 0.78501 0.38577 0.04482 0.0
O340 O 0.71537 0.35228 0.055 0.0
C341 C 0.783 0.39816 0.03251 0.0
O342 O 0.80212 0.43197 0.08425 0.0
C343 C 0.71829 0.33616 0.06129 0.0
O344 O 0.77729 0.39583 0.0925 0.0
O345 O 0.73792 0.34201 0.06911 0.0
C346 C 0.32908 0.73948 0.23565 0.0
O347 O 0.3291 0.75704 0.22891 0.0
Cd348 Cd 0.36501 0.79157 0.221 0.0
O349 O 0.3483 0.73915 0.23743 0.0
Cd350 Cd 0.3907 0.76394 0.23011 0.0
C351 C 0.39593 0.80295 0.2617 0.0
O352 O 0.38675 0.78019 0.20126 0.0
O353 O 0.42163 0.79741 0.2134 0.0
O354 O 0.39152 0.7313 0.21654 0.0
C355 C 0.40848 0.79506 0.19972 0.0
O356 O 0.38547 0.80901 0.25 0.0
C357 C 0.40707 0.73174 0.2273 0.0
O358 O 0.39905 0.78595 0.25847 0.0
O359 O 0.41507 0.7472 0.23973 0.0
H360 H 0.11625 0.58429 0.26196 0.0
H361 H 0.15634 0.61187 0.25261 0.0
H362 H 0.18312 0.59999 0.30342 0.0
H363 H 0.14272 0.57361 0.31357 0.0
H364 H 0.20459 0.64338 0.29731 0.0
H365 H 0.18964 0.57912 0.26028 0.0
H366 H 0.16798 0.54658 0.23883 0.0
H367 H 0.17236 0.59368 0.1966 0.0
H368 H 0.19376 0.62649 0.21788 0.0
H369 H 0.32303 0.70616 0.26042 0.0
H370 H 0.28562 0.67327 0.27088 0.0
H371 H 0.24725 0.69408 0.23458 0.0
H372 H 0.28449 0.72731 0.22434 0.0
H373 H 0.23447 0.64379 0.23441 0.0
H374 H 0.24682 0.70738 0.27466 0.0
H375 H 0.27018 0.73869 0.29675 0.0
H376 H 0.2729 0.68985 0.3338 0.0
H377 H 0.24984 0.6583 0.31178 0.0
C378 C 0.13059 0.58765 0.27129 0.0
C379 C 0.12615 0.5768 0.28862 0.0
C380 C 0.15362 0.60318 0.26575 0.0
C381 C 0.17286 0.60775 0.27715 0.0
C382 C 0.16857 0.59666 0.29434 0.0
C383 C 0.14545 0.58138 0.30004 0.0
C384 C 0.19725 0.62506 0.27148 0.0
C385 C 0.21124 0.64313 0.28368 0.0
C386 C 0.206 0.62494 0.25364 0.0
C387 C 0.19317 0.60526 0.24074 0.0
C388 C 0.18584 0.58253 0.24647 0.0
C389 C 0.17363 0.56403 0.23433 0.0
C390 C 0.16876 0.56805 0.21638 0.0
C391 C 0.17614 0.59059 0.21051 0.0
C392 C 0.18834 0.60915 0.2226 0.0
C393 C 0.30662 0.70368 0.25462 0.0
C394 C 0.30664 0.71932 0.2416 0.0
C395 C 0.28534 0.68494 0.26062 0.0
C396 C 0.26382 0.68137 0.25346 0.0
C397 C 0.26377 0.69662 0.24019 0.0
C398 C 0.285 0.71562 0.23445 0.0
C399 C 0.24124 0.66202 0.26011 0.0
C400 C 0.22774 0.64367 0.2481 0.0
C401 C 0.23315 0.6616 0.27821 0.0
C402 C 0.24687 0.68054 0.29148 0.0
C403 C 0.25261 0.70336 0.28743 0.0
C404 C 0.26575 0.72114 0.29996 0.0
C405 C 0.27309 0.71628 0.31664 0.0
C406 C 0.26724 0.6936 0.32086 0.0
C407 C 0.25413 0.67577 0.30836 0.0
H408 H 0.28326 0.73006 0.32632 0.0
H409 H 0.1593 0.55371 0.207 0.0
H410 H 0.5747 0.13919 0.48056 0.0
H411 H 0.58705 0.179 0.47227 0.0
H412 H 0.55361 0.15638 0.41912 0.0
H413 H 0.54244 0.1166 0.42685 0.0
H414 H 0.59367 0.19556 0.41552 0.0
H415 H 0.52618 0.16804 0.4546 0.0
H416 H 0.50221 0.14961 0.48228 0.0
H417 H 0.5553 0.20292 0.51625 0.0
H418 H 0.57977 0.22153 0.48878 0.0
H419 H 0.58682 0.29843 0.39901 0.0
H420 H 0.57603 0.25802 0.40427 0.0
H421 H 0.6175 0.27779 0.45419 0.0
H422 H 0.62849 0.31806 0.44901 0.0
H423 H 0.57177 0.23961 0.45837 0.0
H424 H 0.63916 0.26658 0.41785 0.0
H425 H 0.6617 0.28419 0.38943 0.0
H426 H 0.60601 0.23096 0.3571 0.0
H427 H 0.58298 0.21322 0.38534 0.0
C428 C 0.57038 0.14268 0.46695 0.0
C429 C 0.55739 0.12462 0.45442 0.0
C430 C 0.5772 0.16545 0.46232 0.0
C431 C 0.57078 0.1706 0.44524 0.0
C432 C 0.55858 0.15277 0.43244 0.0
C433 C 0.55198 0.13001 0.43697 0.0
C434 C 0.57619 0.19446 0.44098 0.0
C435 C 0.58859 0.20508 0.42476 0.0
C436 C 0.56971 0.20694 0.45311 0.0
C437 C 0.55489 0.19607 0.46965 0.0
C438 C 0.53281 0.17577 0.46799 0.0
C439 C 0.51913 0.1653 0.48363 0.0
C440 C 0.52726 0.17505 0.50101 0.0
C441 C 0.54905 0.19537 0.50278 0.0
C442 C 0.56281 0.20591 0.48717 0.0
C443 C 0.59366 0.29414 0.41107 0.0
C444 C 0.60851 0.31139 0.42359 0.0
C445 C 0.58755 0.27111 0.41402 0.0
C446 C 0.59606 0.26503 0.42958 0.0
C447 C 0.61076 0.28219 0.44211 0.0
C448 C 0.61707 0.30518 0.43909 0.0
C449 C 0.58945 0.24072 0.43306 0.0
C450 C 0.57675 0.23002 0.44912 0.0
C451 C 0.59537 0.22811 0.42066 0.0
C452 C 0.60923 0.23873 0.40369 0.0
C453 C 0.63163 0.25875 0.40467 0.0
C454 C 0.64451 0.26873 0.3886 0.0
C455 C 0.63526 0.25874 0.37146 0.0
C456 C 0.61314 0.23871 0.37038 0.0
C457 C 0.60017 0.22867 0.38642 0.0
H458 H 0.64527 0.26649 0.35903 0.0
H459 H 0.51663 0.16687 0.51309 0.0
H460 H 0.46467 0.59415 0.6286 0.0
H461 H 0.43702 0.60608 0.61707 0.0
H462 H 0.37843 0.53842 0.62944 0.0
H463 H 0.40565 0.52661 0.64149 0.0
H464 H 0.37959 0.55391 0.59256 0.0
H465 H 0.38685 0.58054 0.65579 0.0
H466 H 0.40916 0.60348 0.68281 0.0
H467 H 0.43467 0.66603 0.65142 0.0
H468 H 0.41275 0.64341 0.62412 0.0
H469 H 0.27567 0.55849 0.58328 0.0
H470 H 0.30857 0.55423 0.59429 0.0
H471 H 0.35553 0.62775 0.5887 0.0
H472 H 0.32243 0.63227 0.57824 0.0
H473 H 0.36462 0.61357 0.61959 0.0
H474 H 0.35603 0.58895 0.55726 0.0
H475 H 0.33532 0.56738 0.52928 0.0
H476 H 0.31501 0.50322 0.5569 0.0
H477 H 0.33532 0.52439 0.58514 0.0
C478 C 0.44587 0.58198 0.62919 0.0
C479 C 0.43736 0.55934 0.63574 0.0
C480 C 0.43015 0.58878 0.62252 0.0
C481 C 0.40577 0.57303 0.6223 0.0
C482 C 0.39723 0.55071 0.62934 0.0
C483 C 0.41283 0.54399 0.63613 0.0
C484 C 0.38899 0.5792 0.61405 0.0
C485 C 0.37615 0.56683 0.5985 0.0
C486 C 0.38531 0.5967 0.62144 0.0
C487 C 0.3984 0.61027 0.63786 0.0
C488 C 0.3974 0.59917 0.6546 0.0
C489 C 0.40993 0.61212 0.66997 0.0
C490 C 0.42339 0.63619 0.66881 0.0
C491 C 0.42428 0.64738 0.65229 0.0
C492 C 0.41179 0.6345 0.63687 0.0
C493 C 0.29301 0.57376 0.58432 0.0
C494 C 0.29647 0.5957 0.57979 0.0
C495 C 0.31184 0.57129 0.59055 0.0
C496 C 0.33463 0.59062 0.59199 0.0
C497 C 0.33812 0.61259 0.58763 0.0
C498 C 0.3192 0.61512 0.58162 0.0
C499 C 0.35461 0.58777 0.59833 0.0
C500 C 0.36817 0.60082 0.61345 0.0
C501 C 0.35924 0.5711 0.59037 0.0
C502 C 0.34707 0.55827 0.57337 0.0
C503 C 0.34702 0.57023 0.55741 0.0
C504 C 0.33537 0.55808 0.54149 0.0
C505 C 0.32382 0.53395 0.54132 0.0
C506 C 0.32395 0.52192 0.55705 0.0
C507 C 0.33555 0.53399 0.57302 0.0
H508 H 0.31481 0.52457 0.52898 0.0
H509 H 0.43308 0.64618 0.68073 0.0
H510 H 0.87051 0.44216 0.81484 0.0
H511 H 0.83124 0.41248 0.80439 0.0
H512 H 0.86051 0.41037 0.75159 0.0
H513 H 0.89953 0.44095 0.76178 0.0
H514 H 0.81879 0.40416 0.74629 0.0
H515 H 0.85122 0.37108 0.78741 0.0
H516 H 0.86913 0.36734 0.81622 0.0
H517 H 0.80772 0.35569 0.84648 0.0
H518 H 0.78957 0.3597 0.81787 0.0
H519 H 0.73293 0.28506 0.72564 0.0
H520 H 0.77025 0.31872 0.73545 0.0
H521 H 0.73242 0.33742 0.77391 0.0
H522 H 0.69498 0.30426 0.76382 0.0
H523 H 0.77743 0.33492 0.78639 0.0
H524 H 0.74591 0.36841 0.74291 0.0
H525 H 0.72929 0.37022 0.71282 0.0
H526 H 0.79123 0.37825 0.68555 0.0
H527 H 0.80805 0.3761 0.71549 0.0
C528 C 0.86834 0.43562 0.80089 0.0
C529 C 0.88784 0.44365 0.78907 0.0
C530 C 0.84601 0.41857 0.79497 0.0
C531 C 0.84304 0.40872 0.77737 0.0
C532 C 0.86238 0.4176 0.76526 0.0
C533 C 0.88462 0.43505 0.77104 0.0
C534 C 0.82013 0.38844 0.77193 0.0
C535 C 0.8099 0.38898 0.75503 0.0
C536 C 0.80839 0.36857 0.78332 0.0
C537 C 0.81914 0.36592 0.80052 0.0
C538 C 0.8416 0.36786 0.80022 0.0
C539 C 0.85179 0.36568 0.81652 0.0
C540 C 0.8396 0.36134 0.83318 0.0
C541 C 0.81715 0.35909 0.83357 0.0
C542 C 0.8069 0.3613 0.81732 0.0
C543 C 0.7326 0.29629 0.73625 0.0
C544 C 0.71109 0.29211 0.74396 0.0
C545 C 0.75385 0.31548 0.74177 0.0
C546 C 0.75391 0.33045 0.75531 0.0
C547 C 0.73259 0.326 0.7634 0.0
C548 C 0.71129 0.30713 0.75759 0.0
C549 C 0.77628 0.35089 0.76095 0.0
C550 C 0.78638 0.35023 0.77781 0.0
C551 C 0.78813 0.3704 0.74938 0.0
C552 C 0.7781 0.37181 0.73141 0.0
C553 C 0.75587 0.3703 0.73048 0.0
C554 C 0.74644 0.37145 0.71346 0.0
C555 C 0.75917 0.37427 0.69727 0.0
C556 C 0.78138 0.37602 0.69809 0.0
C557 C 0.79087 0.37485 0.71508 0.0
H558 H 0.75184 0.37517 0.68411 0.0
H559 H 0.84752 0.35967 0.84578 0.0
H560 H 0.49028 0.89923 0.94191 0.0
H561 H 0.47518 0.85943 0.93169 0.0
H562 H 0.40451 0.84269 0.94673 0.0
H563 H 0.41962 0.88253 0.95725 0.0
H564 H 0.41685 0.81199 0.9607 0.0
H565 H 0.41853 0.84577 0.9022 0.0
H566 H 0.43607 0.87421 0.87703 0.0
H567 H 0.48934 0.85528 0.86923 0.0
H568 H 0.47233 0.82695 0.89454 0.0
H569 H 0.36758 0.69812 0.92678 0.0
H570 H 0.37564 0.73776 0.93058 0.0
H571 H 0.44763 0.76364 0.913 0.0
H572 H 0.4395 0.72402 0.90866 0.0
H573 H 0.43091 0.78937 0.89896 0.0
H574 H 0.43283 0.75947 0.95901 0.0
H575 H 0.41711 0.73185 0.98487 0.0
H576 H 0.35907 0.74444 0.99043 0.0
H577 H 0.3743 0.77193 0.96442 0.0
C578 C 0.47152 0.88708 0.94299 0.0
C579 C 0.45612 0.8939 0.95045 0.0
C580 C 0.46289 0.86443 0.93699 0.0
C581 C 0.43871 0.8482 0.93832 0.0
C582 C 0.42322 0.85503 0.94552 0.0
C583 C 0.43183 0.87776 0.95142 0.0
C584 C 0.42999 0.82378 0.93329 0.0
C585 C 0.41945 0.80694 0.94708 0.0
C586 C 0.43402 0.8174 0.91568 0.0
C587 C 0.44424 0.83434 0.90037 0.0
C588 C 0.4341 0.84779 0.89521 0.0
C589 C 0.44393 0.86388 0.8809 0.0
C590 C 0.46384 0.86659 0.87156 0.0
C591 C 0.47392 0.85317 0.87649 0.0
C592 C 0.46417 0.83708 0.8908 0.0
C593 C 0.38508 0.71226 0.92359 0.0
C594 C 0.40298 0.70799 0.91759 0.0
C595 C 0.38967 0.73489 0.92582 0.0
C596 C 0.41235 0.75364 0.92239 0.0
C597 C 0.43001 0.74942 0.91577 0.0
C598 C 0.42537 0.72678 0.91335 0.0
C599 C 0.41798 0.77761 0.92643 0.0
C600 C 0.428 0.79437 0.91249 0.0
C601 C 0.41369 0.78401 0.94397 0.0
C602 C 0.40455 0.76755 0.95964 0.0
C603 C 0.41662 0.75621 0.96566 0.0
C604 C 0.40781 0.74061 0.98036 0.0
C605 C 0.38706 0.73634 0.98925 0.0
C606 C 0.37511 0.74773 0.9835 0.0
C607 C 0.38383 0.76333 0.96879 0.0
H608 H 0.38028 0.72425 0.00063 0.0
H609 H 0.47142 0.87905 0.86048 0.0
H610 H 0.56055 0.42841 0.15862 0.0
H611 H 0.59112 0.41957 0.14903 0.0
H612 H 0.57684 0.42667 0.09205 0.0
H613 H 0.54632 0.4355 0.10153 0.0
H614 H 0.59655 0.38914 0.12567 0.0
H615 H 0.62967 0.46349 0.07229 0.0
H616 H 0.62804 0.49922 0.06724 0.0
H617 H 0.62049 0.505 0.12545 0.0
H618 H 0.62253 0.46959 0.13086 0.0
H619 H 0.68403 0.38667 0.07044 0.0
H620 H 0.64943 0.38756 0.08199 0.0
H621 H 0.6949 0.45496 0.10558 0.0
H622 H 0.72948 0.45468 0.09299 0.0
H623 H 0.66014 0.45547 0.09147 0.0
H624 H 0.66618 0.40183 0.13182 0.0
H625 H 0.66942 0.36763 0.13988 0.0
H626 H 0.60269 0.32344 0.11372 0.0
H627 H 0.59919 0.35741 0.10531 0.0
C628 C 0.56341 0.42731 0.14404 0.0
C629 C 0.55138 0.43296 0.1308 0.0
C630 C 0.58087 0.4223 0.1386 0.0
C631 C 0.58648 0.42293 0.11987 0.0
C632 C 0.57296 0.42646 0.10659 0.0
C633 C 0.5556 0.43152 0.11201 0.0
C634 C 0.60819 0.4229 0.11429 0.0
C635 C 0.61049 0.40356 0.11817 0.0
C636 C 0.62662 0.44208 0.10504 0.0
C637 C 0.62599 0.46374 0.10194 0.0
C638 C 0.62779 0.47246 0.08401 0.0
C639 C 0.62679 0.49266 0.08109 0.0
C640 C 0.62408 0.50433 0.09601 0.0
C641 C 0.6225 0.49591 0.1139 0.0
C642 C 0.62357 0.47577 0.11689 0.0
C643 C 0.68659 0.40168 0.07807 0.0
C644 C 0.70937 0.4206 0.08089 0.0
C645 C 0.66683 0.4021 0.08481 0.0
C646 C 0.66952 0.42108 0.09506 0.0
C647 C 0.69233 0.44008 0.09776 0.0
C648 C 0.71208 0.43993 0.09058 0.0
C649 C 0.64855 0.42145 0.1025 0.0
C650 C 0.64634 0.44095 0.09898 0.0
C651 C 0.63059 0.40267 0.11258 0.0
C652 C 0.63251 0.38219 0.11782 0.0
C653 C 0.65226 0.38483 0.12771 0.0
C654 C 0.65414 0.36548 0.13235 0.0
C655 C 0.6363 0.34338 0.12728 0.0
C656 C 0.6165 0.34057 0.11763 0.0
C657 C 0.61455 0.35986 0.11294 0.0
H658 H 0.6378 0.32843 0.13087 0.0
H659 H 0.62326 0.51993 0.09371 0.0
H660 H 0.44685 0.87452 0.49061 0.0
H661 H 0.41974 0.83545 0.5018 0.0
H662 H 0.41912 0.86297 0.55546 0.0
H663 H 0.44718 0.90205 0.54442 0.0
H664 H 0.41698 0.82279 0.55934 0.0
H665 H 0.37506 0.8506 0.52359 0.0
H666 H 0.36682 0.86796 0.4966 0.0
H667 H 0.35777 0.81135 0.46286 0.0
H668 H 0.36631 0.79381 0.48959 0.0
H669 H 0.30392 0.72181 0.58169 0.0
H670 H 0.33494 0.76182 0.57548 0.0
H671 H 0.35244 0.73986 0.52499 0.0
H672 H 0.3219 0.70001 0.53116 0.0
H673 H 0.34453 0.77826 0.52162 0.0
H674 H 0.38794 0.7516 0.55895 0.0
H675 H 0.39509 0.73503 0.58696 0.0
H676 H 0.39884 0.79056 0.61929 0.0
H677 H 0.39137 0.80729 0.59148 0.0
C678 C 0.44118 0.8721 0.50487 0.0
C679 C 0.44885 0.89113 0.51667 0.0
C680 C 0.42562 0.84986 0.51122 0.0
C681 C 0.41689 0.84636 0.52933 0.0
C682 C 0.42551 0.86528 0.54142 0.0
C683 C 0.44148 0.88754 0.53513 0.0
C684 C 0.39786 0.82319 0.53521 0.0
C685 C 0.40099 0.81319 0.55123 0.0
C686 C 0.37696 0.81064 0.52465 0.0
C687 C 0.37151 0.82098 0.50857 0.0
C688 C 0.37144 0.84192 0.51039 0.0
C689 C 0.36672 0.85179 0.49514 0.0
C690 C 0.36182 0.84079 0.47802 0.0
C691 C 0.36159 0.81986 0.47613 0.0
C692 C 0.36635 0.80993 0.49133 0.0
C693 C 0.31447 0.72554 0.56932 0.0
C694 C 0.3105 0.70782 0.55689 0.0
C695 C 0.33219 0.74833 0.56584 0.0
C696 C 0.34593 0.75367 0.54981 0.0
C697 C 0.34199 0.73601 0.53744 0.0
C698 C 0.32457 0.71327 0.54101 0.0
C699 C 0.36395 0.77775 0.54544 0.0
C700 C 0.36049 0.78796 0.52975 0.0
C701 C 0.38426 0.79057 0.55648 0.0
C702 C 0.38881 0.78054 0.57318 0.0
C703 C 0.39005 0.76015 0.57206 0.0
C704 C 0.39422 0.75076 0.58789 0.0
C705 C 0.39734 0.76169 0.60491 0.0
C706 C 0.39637 0.78208 0.60611 0.0
C707 C 0.39219 0.79153 0.59032 0.0
H708 H 0.40057 0.7544 0.61715 0.0
H709 H 0.35818 0.84846 0.46623 0.0
H710 H 0.56501 0.45406 0.71999 0.0
H711 H 0.57754 0.42673 0.72996 0.0
H712 H 0.5669 0.39938 0.67475 0.0
H713 H 0.55446 0.42658 0.66473 0.0
H714 H 0.54695 0.36533 0.69942 0.0
H715 H 0.62207 0.43489 0.69148 0.0
H716 H 0.65181 0.47579 0.69678 0.0
H717 H 0.65292 0.46218 0.75453 0.0
H718 H 0.62293 0.42123 0.7496 0.0
H719 H 0.64128 0.32988 0.71017 0.0
H720 H 0.6306 0.35975 0.70594 0.0
H721 H 0.56938 0.32148 0.74049 0.0
H722 H 0.57977 0.29122 0.74457 0.0
H723 H 0.6246 0.38841 0.72822 0.0
H724 H 0.5242 0.32709 0.72202 0.0
H725 H 0.49593 0.28657 0.71383 0.0
H726 H 0.54816 0.28456 0.67928 0.0
H727 H 0.5766 0.32513 0.68709 0.0
C728 C 0.56565 0.44241 0.70996 0.0
C729 C 0.55864 0.44236 0.69161 0.0
C730 C 0.57274 0.42678 0.71567 0.0
C731 C 0.57311 0.41102 0.70309 0.0
C732 C 0.56653 0.41126 0.68471 0.0
C733 C 0.55941 0.42679 0.67902 0.0
C734 C 0.57989 0.39388 0.70899 0.0
C735 C 0.56388 0.37038 0.70582 0.0
C736 C 0.60202 0.40048 0.71723 0.0
C737 C 0.62007 0.42507 0.7202 0.0
C738 C 0.62851 0.44066 0.70533 0.0
C739 C 0.64544 0.46385 0.70826 0.0
C740 C 0.6542 0.4716 0.72599 0.0
C741 C 0.64609 0.45616 0.74081 0.0
C742 C 0.62914 0.43296 0.73795 0.0
C743 C 0.62561 0.32786 0.71699 0.0
C744 C 0.61121 0.30808 0.72756 0.0
C745 C 0.61962 0.34503 0.71463 0.0
C746 C 0.5991 0.34274 0.72276 0.0
C747 C 0.58515 0.32344 0.73392 0.0
C748 C 0.59112 0.30619 0.73626 0.0
C749 C 0.59171 0.35991 0.71855 0.0
C750 C 0.60755 0.38337 0.72207 0.0
C751 C 0.5696 0.35335 0.71028 0.0
C752 C 0.55258 0.32903 0.70533 0.0
C753 C 0.52961 0.318 0.71265 0.0
C754 C 0.51356 0.29503 0.70807 0.0
C755 C 0.52027 0.28297 0.6961 0.0
C756 C 0.54301 0.29389 0.68862 0.0
C757 C 0.55911 0.31686 0.69312 0.0
H758 H 0.50784 0.26519 0.69259 0.0
H759 H 0.66731 0.48955 0.72823 0.0
H760 H 0.12227 0.51426 0.83999 0.0
H761 H 0.16208 0.52433 0.8497 0.0
H762 H 0.17929 0.59492 0.85835 0.0
H763 H 0.13921 0.58489 0.84903 0.0
H764 H 0.21516 0.59038 0.84024 0.0
H765 H 0.16636 0.56188 0.89434 0.0
H766 H 0.13174 0.53386 0.91225 0.0
H767 H 0.15157 0.48216 0.90404 0.0
H768 H 0.18613 0.50978 0.88584 0.0
H769 H 0.31797 0.62575 0.89474 0.0
H770 H 0.27974 0.61743 0.88239 0.0
H771 H 0.25706 0.54467 0.88099 0.0
H772 H 0.29506 0.55279 0.89384 0.0
H773 H 0.22385 0.55083 0.89516 0.0
H774 H 0.27241 0.57839 0.84127 0.0
H775 H 0.30672 0.60553 0.82264 0.0
H776 H 0.28746 0.65784 0.82947 0.0
H777 H 0.25319 0.6311 0.84835 0.0
C778 C 0.13444 0.53191 0.84407 0.0
C779 C 0.12747 0.54871 0.84397 0.0
C780 C 0.15721 0.53764 0.8495 0.0
C781 C 0.17346 0.56028 0.85492 0.0
C782 C 0.16693 0.57734 0.85421 0.0
C783 C 0.14407 0.57159 0.84884 0.0
C784 C 0.19698 0.56585 0.86195 0.0
C785 C 0.21717 0.582 0.85238 0.0
C786 C 0.19939 0.55443 0.87752 0.0
C787 C 0.17871 0.53784 0.88857 0.0
C788 C 0.16324 0.54448 0.89623 0.0
C789 C 0.14364 0.52868 0.90645 0.0
C790 C 0.13942 0.50622 0.90924 0.0
C791 C 0.15484 0.49955 0.90185 0.0
C792 C 0.17444 0.51528 0.89159 0.0
C793 C 0.3049 0.60798 0.89172 0.0
C794 C 0.30956 0.58992 0.89527 0.0
C795 C 0.28309 0.60326 0.88456 0.0
C796 C 0.26564 0.58045 0.88054 0.0
C797 C 0.27028 0.56241 0.88398 0.0
C798 C 0.29202 0.56708 0.89131 0.0
C799 C 0.24223 0.57531 0.87339 0.0
C800 C 0.22198 0.55924 0.88298 0.0
C801 C 0.23979 0.5867 0.85776 0.0
C802 C 0.26036 0.60281 0.84638 0.0
C803 C 0.27559 0.59574 0.83892 0.0
C804 C 0.29502 0.61104 0.82829 0.0
C805 C 0.2993 0.63342 0.82491 0.0
C806 C 0.28414 0.64051 0.83212 0.0
C807 C 0.2647 0.62528 0.84277 0.0
H808 H 0.31435 0.64524 0.81668 0.0
H809 H 0.12424 0.49402 0.91717 0.0
H810 H 0.60567 0.12615 0.01587 0.0
H811 H 0.62949 0.1653 0.02773 0.0
H812 H 0.5678 0.17298 0.02934 0.0
H813 H 0.54343 0.13329 0.01819 0.0
H814 H 0.60905 0.21016 0.01181 0.0
H815 H 0.58638 0.16679 0.06812 0.0
H816 H 0.58102 0.13548 0.08913 0.0
H817 H 0.65576 0.16092 0.08851 0.0
H818 H 0.66154 0.19219 0.06726 0.0
H819 H 0.67159 0.31929 0.05432 0.0
H820 H 0.64144 0.2792 0.04843 0.0
H821 H 0.6934 0.25804 0.05646 0.0
H822 H 0.72341 0.29807 0.06318 0.0
H823 H 0.65343 0.22714 0.07072 0.0
H824 H 0.67647 0.26713 0.01257 0.0
H825 H 0.68333 0.29775 0.99024 0.0
H826 H 0.60996 0.27808 0.99272 0.0
H827 H 0.60273 0.24752 0.01526 0.0
C828 C 0.59699 0.13593 0.01903 0.0
C829 C 0.57254 0.12643 0.01622 0.0
C830 C 0.61069 0.15836 0.02572 0.0
C831 C 0.6003 0.17184 0.02956 0.0
C832 C 0.57605 0.16272 0.02648 0.0
C833 C 0.56222 0.14011 0.01999 0.0
C834 C 0.61512 0.19571 0.03634 0.0
C835 C 0.61841 0.21396 0.02486 0.0
C836 C 0.62776 0.20045 0.05311 0.0
C837 C 0.62436 0.18173 0.06597 0.0
C838 C 0.60165 0.1656 0.07234 0.0
C839 C 0.59854 0.14788 0.08432 0.0
C840 C 0.61803 0.14618 0.09012 0.0
C841 C 0.64068 0.16224 0.08399 0.0
C842 C 0.64389 0.17999 0.072 0.0
C843 C 0.67652 0.30605 0.05497 0.0
C844 C 0.69987 0.31177 0.05902 0.0
C845 C 0.65931 0.28316 0.05153 0.0
C846 C 0.66527 0.26568 0.05158 0.0
C847 C 0.68841 0.27126 0.05628 0.0
C848 C 0.70555 0.29412 0.06007 0.0
C849 C 0.64769 0.24175 0.04608 0.0
C850 C 0.64388 0.22344 0.05777 0.0
C851 C 0.63482 0.23691 0.02935 0.0
C852 C 0.63912 0.25522 0.01575 0.0
C853 C 0.66184 0.26945 0.00845 0.0
C854 C 0.66578 0.28677 0.99575 0.0
C855 C 0.6471 0.2899 0.99011 0.0
C856 C 0.62442 0.27566 -0.00287 0.0
C857 C 0.62038 0.25833 0.00986 0.0
H858 H 0.6502 0.30332 0.98027 0.0
H859 H 0.61559 0.13245 0.0994 0.0
H860 H 0.45994 0.58762 0.1653 0.0
H861 H 0.4515 0.61767 0.17513 0.0
H862 H 0.46402 0.60682 0.23175 0.0
H863 H 0.47194 0.5762 0.22193 0.0
H864 H 0.42689 0.61209 0.22979 0.0
H865 H 0.50537 0.65415 0.20717 0.0
H866 H 0.53828 0.66504 0.18548 0.0
H867 H 0.50285 0.68385 0.14496 0.0
H868 H 0.46955 0.67275 0.16632 0.0
H869 H 0.43021 0.71976 0.25265 0.0
H870 H 0.44377 0.6917 0.24862 0.0
H871 H 0.4172 0.67902 0.19289 0.0
H872 H 0.40318 0.70648 0.1969 0.0
H873 H 0.46598 0.6883 0.19832 0.0
H874 H 0.38554 0.64135 0.22124 0.0
H875 H 0.35381 0.63109 0.24398 0.0
H876 H 0.39594 0.62323 0.28576 0.0
H877 H 0.42809 0.63379 0.2633 0.0
C878 C 0.46098 0.59172 0.17983 0.0
C879 C 0.46677 0.57977 0.19285 0.0
C880 C 0.45624 0.60893 0.18544 0.0
C881 C 0.45765 0.61486 0.20414 0.0
C882 C 0.46296 0.60261 0.21724 0.0
C883 C 0.46744 0.58514 0.21164 0.0
C884 C 0.45324 0.63367 0.20987 0.0
C885 C 0.4358 0.62891 0.22317 0.0
C886 C 0.46481 0.65562 0.20121 0.0
C887 C 0.48487 0.66246 0.18832 0.0
C888 C 0.50452 0.66046 0.19359 0.0
C889 C 0.52326 0.6667 0.18136 0.0
C890 C 0.52264 0.6751 0.16384 0.0
C891 C 0.5033 0.67733 0.15854 0.0
C892 C 0.4845 0.6711 0.17071 0.0
C893 C 0.42729 0.71096 0.23956 0.0
C894 C 0.4156 0.71521 0.2251 0.0
C895 C 0.43499 0.69498 0.2373 0.0
C896 C 0.43144 0.6834 0.22046 0.0
C897 C 0.4201 0.68787 0.20596 0.0
C898 C 0.41203 0.70346 0.20831 0.0
C899 C 0.43931 0.6664 0.21779 0.0
C900 C 0.45743 0.67158 0.20511 0.0
C901 C 0.42864 0.64502 0.2272 0.0
C902 C 0.40933 0.63866 0.24067 0.0
C903 C 0.38814 0.63768 0.23533 0.0
C904 C 0.37005 0.63175 0.24815 0.0
C905 C 0.37289 0.62659 0.26632 0.0
C906 C 0.39379 0.62728 0.27169 0.0
C907 C 0.41194 0.63323 0.25892 0.0
H908 H 0.35886 0.622 0.27623 0.0
H909 H 0.53717 0.67991 0.15439 0.0
H910 H 0.89653 0.49441 0.35314 0.0
H911 H 0.8584 0.48406 0.3668 0.0
H912 H 0.83779 0.41186 0.36431 0.0
H913 H 0.87598 0.42214 0.35025 0.0
H914 H 0.80321 0.42064 0.35133 0.0
H915 H 0.85197 0.43827 0.40486 0.0
H916 H 0.88702 0.46148 0.42428 0.0
H917 H 0.87121 0.51661 0.42538 0.0
H918 H 0.83624 0.49386 0.40573 0.0
H919 H 0.6991 0.38813 0.4031 0.0
H920 H 0.73708 0.39315 0.3932 0.0
H921 H 0.76805 0.4672 0.39669 0.0
H922 H 0.73026 0.46234 0.40702 0.0
H923 H 0.79713 0.45402 0.41072 0.0
H924 H 0.75109 0.43853 0.35515 0.0
H925 H 0.71646 0.4163 0.33505 0.0
H926 H 0.72758 0.35818 0.33722 0.0
H927 H 0.76212 0.37998 0.35753 0.0
C928 C 0.88383 0.47631 0.35539 0.0
C929 C 0.88915 0.45905 0.35055 0.0
C930 C 0.86216 0.47045 0.36337 0.0
C931 C 0.84541 0.44723 0.36673 0.0
C932 C 0.85058 0.4299 0.36188 0.0
C933 C 0.87238 0.43578 0.35396 0.0
C934 C 0.82228 0.44123 0.37483 0.0
C935 C 0.80179 0.42754 0.36449 0.0
C936 C 0.8206 0.45071 0.39179 0.0
C937 C 0.84156 0.46441 0.4037 0.0
C938 C 0.85606 0.45541 0.40912 0.0
C939 C 0.8759 0.46848 0.42019 0.0
C940 C 0.88136 0.49053 0.42603 0.0
C941 C 0.86696 0.49953 0.42084 0.0
C942 C 0.84711 0.48655 0.40976 0.0
C943 C 0.71399 0.4055 0.4018 0.0
C944 C 0.71162 0.42486 0.40575 0.0
C945 C 0.73567 0.40832 0.39608 0.0
C946 C 0.75529 0.43055 0.39396 0.0
C947 C 0.75311 0.44988 0.39822 0.0
C948 C 0.73148 0.44708 0.40407 0.0
C949 C 0.77807 0.43373 0.38709 0.0
C950 C 0.7985 0.4469 0.39766 0.0
C951 C 0.77972 0.42388 0.37029 0.0
C952 C 0.75902 0.41079 0.35802 0.0
C953 C 0.74604 0.42095 0.35145 0.0
C954 C 0.72645 0.40844 0.34 0.0
C955 C 0.71978 0.38582 0.33491 0.0
C956 C 0.73274 0.37569 0.34121 0.0
C957 C 0.75233 0.38812 0.35268 0.0
H958 H 0.70461 0.37617 0.32604 0.0
H959 H 0.89673 0.50061 0.4346 0.0
H960 H 0.09745 0.5232 0.39251 0.0
H961 H 0.1225 0.5382 0.41986 0.0
H962 H 0.10201 0.59005 0.42601 0.0
H963 H 0.07708 0.57523 0.39853 0.0
H964 H 0.14816 0.60848 0.43129 0.0
H965 H 0.07866 0.54228 0.45378 0.0
H966 H 0.04683 0.50152 0.4545 0.0
H967 H 0.09806 0.47989 0.46242 0.0
H968 H 0.13025 0.52052 0.46149 0.0
H969 H 0.19428 0.63834 0.52305 0.0
H970 H 0.16729 0.62498 0.49661 0.0
H971 H 0.18846 0.57488 0.48387 0.0
H972 H 0.21535 0.58803 0.51023 0.0
H973 H 0.14023 0.55634 0.48299 0.0
H974 H 0.20975 0.6234 0.45913 0.0
H975 H 0.2409 0.66445 0.45884 0.0
H976 H 0.18821 0.68472 0.45433 0.0
H977 H 0.15672 0.64377 0.45486 0.0
C978 C 0.09819 0.53771 0.39976 0.0
C979 C 0.08526 0.548 0.39345 0.0
C980 C 0.11249 0.54626 0.41538 0.0
C981 C 0.11385 0.56503 0.42513 0.0
C982 C 0.1012 0.57554 0.4187 0.0
C983 C 0.08702 0.5671 0.403 0.0
C984 C 0.12861 0.57376 0.44195 0.0
C985 C 0.14617 0.59716 0.44272 0.0
C986 C 0.1262 0.55891 0.45676 0.0
C987 C 0.10688 0.53445 0.4574 0.0
C988 C 0.08316 0.52882 0.45554 0.0
C989 C 0.06505 0.50574 0.45601 0.0
C990 C 0.07043 0.48812 0.45847 0.0
C991 C 0.09393 0.49356 0.4605 0.0
C992 C 0.11211 0.51661 0.46002 0.0
C993 C 0.19318 0.6245 0.51461 0.0
C994 C 0.20695 0.61426 0.51868 0.0
C995 C 0.17783 0.61694 0.49949 0.0
C996 C 0.17603 0.59905 0.48825 0.0
C997 C 0.18961 0.5887 0.49239 0.0
C998 C 0.20501 0.5963 0.50741 0.0
C999 C 0.15993 0.59093 0.47217 0.0
C1000 C 0.14208 0.56765 0.47158 0.0
C1001 C 0.16196 0.60593 0.45762 0.0
C1002 C 0.18088 0.63054 0.45724 0.0
C1003 C 0.2048 0.63662 0.45824 0.0
C1004 C 0.22252 0.65986 0.458 0.0
C1005 C 0.21654 0.67718 0.45662 0.0
C1006 C 0.19282 0.67129 0.45543 0.0
C1007 C 0.17503 0.64806 0.45568 0.0
H1008 H 0.23028 0.69517 0.45643 0.0
H1009 H 0.05638 0.47027 0.45883 0.0
H1010 H 0.51275 0.08454 0.56131 0.0
H1011 H 0.52446 0.11162 0.58709 0.0
H1012 H 0.59661 0.12691 0.58139 0.0
H1013 H 0.58499 0.09982 0.55562 0.0
H1014 H 0.58329 0.11922 0.61638 0.0
H1015 H 0.57914 0.16515 0.56729 0.0
H1016 H 0.56111 0.1749 0.54143 0.0
H1017 H 0.50657 0.16992 0.57729 0.0
H1018 H 0.52404 0.15978 0.60331 0.0
H1019 H 0.63897 0.21862 0.67264 0.0
H1020 H 0.62602 0.19344 0.64565 0.0
H1021 H 0.5536 0.17381 0.65706 0.0
H1022 H 0.56642 0.199 0.68423 0.0
H1023 H 0.56624 0.18369 0.61948 0.0
H1024 H 0.57085 0.13762 0.66847 0.0
H1025 H 0.58997 0.12918 0.69429 0.0
H1026 H 0.64479 0.13547 0.65808 0.0
H1027 H 0.62617 0.14429 0.63208 0.0
C1028 C 0.53116 0.09389 0.56541 0.0
C1029 C 0.54796 0.09007 0.55644 0.0
C1030 C 0.53783 0.10935 0.58014 0.0
C1031 C 0.56145 0.12145 0.58605 0.0
C1032 C 0.57827 0.11772 0.57707 0.0
C1033 C 0.5716 0.1022 0.5624 0.0
C1034 C 0.56852 0.13737 0.60201 0.0
C1035 C 0.57984 0.13351 0.61692 0.0
C1036 C 0.56348 0.15566 0.60292 0.0
C1037 C 0.55278 0.16148 0.58722 0.0
C1038 C 0.56316 0.1659 0.56962 0.0
C1039 C 0.55307 0.17155 0.55494 0.0
C1040 C 0.5327 0.173 0.55771 0.0
C1041 C 0.52234 0.16877 0.57516 0.0
C1042 C 0.53234 0.16308 0.58988 0.0
C1043 C 0.62029 0.20904 0.66939 0.0
C1044 C 0.60368 0.21068 0.68061 0.0
C1045 C 0.61294 0.19463 0.65399 0.0
C1046 C 0.58886 0.18165 0.64949 0.0
C1047 C 0.57226 0.18369 0.66036 0.0
C1048 C 0.5796 0.198 0.67588 0.0
C1049 C 0.58109 0.16556 0.63367 0.0
C1050 C 0.56962 0.16937 0.61886 0.0
C1051 C 0.58607 0.14728 0.63277 0.0
C1052 C 0.59724 0.14184 0.64836 0.0
C1053 C 0.58709 0.13739 0.66604 0.0
C1054 C 0.59782 0.13251 0.68071 0.0
C1055 C 0.61862 0.13185 0.67784 0.0
C1056 C 0.62869 0.13601 0.66029 0.0
C1057 C 0.61805 0.14094 0.64558 0.0
H1058 H 0.6269 0.12806 0.68921 0.0
H1059 H 0.52497 0.17748 0.54638 0.0
H1060 H 0.46715 0.57875 0.7251 0.0
H1061 H 0.45622 0.59166 0.75321 0.0
H1062 H 0.4913 0.564 0.78625 0.0
H1063 H 0.50257 0.55141 0.75825 0.0
H1064 H 0.44174 0.54917 0.79539 0.0
H1065 H 0.5174 0.61769 0.78398 0.0
H1066 H 0.54628 0.6502 0.76499 0.0
H1067 H 0.49772 0.67555 0.75967 0.0
H1068 H 0.4684 0.64298 0.77842 0.0
H1069 H 0.4298 0.58411 0.88325 0.0
H1070 H 0.44711 0.5783 0.85542 0.0
H1071 H 0.43066 0.62443 0.82548 0.0
H1072 H 0.41438 0.6312 0.85361 0.0
H1073 H 0.47067 0.63051 0.81383 0.0
H1074 H 0.39487 0.56408 0.82329 0.0
H1075 H 0.36317 0.5312 0.84024 0.0
H1076 H 0.40752 0.50114 0.84649 0.0
H1077 H 0.43963 0.53401 0.82979 0.0
C1078 C 0.47266 0.57564 0.73838 0.0
C1079 C 0.48569 0.56415 0.73959 0.0
C1080 C 0.46652 0.58307 0.75435 0.0
C1081 C 0.47306 0.5788 0.7717 0.0
C1082 C 0.48621 0.56749 0.77293 0.0
C1083 C 0.49269 0.56042 0.75698 0.0
C1084 C 0.46504 0.58494 0.78867 0.0
C1085 C 0.44827 0.56693 0.79961 0.0
C1086 C 0.47295 0.60812 0.79363 0.0
C1087 C 0.49061 0.62776 0.78244 0.0
C1088 C 0.51279 0.63007 0.77862 0.0
C1089 C 0.52926 0.64854 0.76793 0.0
C1090 C 0.52382 0.66489 0.76108 0.0
C1091 C 0.50191 0.66285 0.76496 0.0
C1092 C 0.48536 0.6444 0.77563 0.0
C1093 C 0.43009 0.59319 0.87077 0.0
C1094 C 0.42054 0.60792 0.87052 0.0
C1095 C 0.43987 0.58977 0.85485 0.0
C1096 C 0.4396 0.60043 0.83821 0.0
C1097 C 0.43095 0.61591 0.83812 0.0
C1098 C 0.42163 0.61975 0.85418 0.0
C1099 C 0.4475 0.59469 0.82084 0.0
C1100 C 0.46412 0.61272 0.80972 0.0
C1101 C 0.43902 0.57147 0.81542 0.0
C1102 C 0.41973 0.55163 0.82544 0.0
C1103 C 0.39792 0.55054 0.82839 0.0
C1104 C 0.37987 0.53189 0.83794 0.0
C1105 C 0.38335 0.51412 0.84448 0.0
C1106 C 0.40487 0.51493 0.84144 0.0
C1107 C 0.42299 0.53356 0.83192 0.0
H1108 H 0.36935 0.49969 0.85186 0.0
H1109 H 0.53659 0.67918 0.75281 0.0
H1110 H 0.94728 0.46701 0.91357 0.0
H1111 H 0.918 0.45148 0.93821 0.0
H1112 H 0.86641 0.45361 0.90239 0.0
H1113 H 0.89508 0.4679 0.87724 0.0
H1114 H 0.87348 0.47488 0.94001 0.0
H1115 H 0.85724 0.40486 0.90858 0.0
H1116 H 0.86799 0.37769 0.89475 0.0
H1117 H 0.89436 0.37007 0.947 0.0
H1118 H 0.88408 0.39749 0.96109 0.0
H1119 H 0.77683 0.41693 0.00102 0.0
H1120 H 0.80171 0.42895 0.9735 0.0
H1121 H 0.84772 0.40787 -0.00096 0.0
H1122 H 0.82234 0.39493 0.02622 0.0
H1123 H 0.84205 0.39563 0.96496 0.0
H1124 H 0.86139 0.46595 0.99653 0.0
H1125 H 0.85354 0.49458 0.01145 0.0
H1126 H 0.82506 0.50366 0.96077 0.0
H1127 H 0.83245 0.47483 0.94561 0.0
C1128 C 0.92962 0.46382 0.91075 0.0
C1129 C 0.9236 0.4687 0.89333 0.0
C1130 C 0.91299 0.45511 0.92491 0.0
C1131 C 0.89014 0.45141 0.92202 0.0
C1132 C 0.88405 0.45647 0.90482 0.0
C1133 C 0.90054 0.4648 0.89053 0.0
C1134 C 0.87274 0.44248 0.93712 0.0
C1135 C 0.86624 0.45744 0.94532 0.0
C1136 C 0.86401 0.41998 0.94426 0.0
C1137 C 0.87011 0.40341 0.93584 0.0
C1138 C 0.86554 0.39757 0.91708 0.0
C1139 C 0.8715 0.38208 0.9092 0.0
C1140 C 0.88191 0.37221 0.91997 0.0
C1141 C 0.88632 0.37776 0.93866 0.0
C1142 C 0.88041 0.39325 0.94661 0.0
C1143 C 0.79223 0.41482 0.00072 0.0
C1144 C 0.79774 0.40512 0.01578 0.0
C1145 C 0.80649 0.42179 0.98503 0.0
C1146 C 0.82683 0.41969 0.98431 0.0
C1147 C 0.83213 0.40967 -0.00074 0.0
C1148 C 0.81766 0.40235 0.01481 0.0
C1149 C 0.84275 0.42808 0.96809 0.0
C1150 C 0.84907 0.41304 0.95965 0.0
C1151 C 0.85167 0.45069 0.96093 0.0
C1152 C 0.84724 0.46805 0.97 0.0
C1153 C 0.85328 0.47392 0.98861 0.0
C1154 C 0.84895 0.4902 -0.0029 0.0
C1155 C 0.83874 0.50088 0.98707 0.0
C1156 C 0.83292 0.49534 0.96852 0.0
C1157 C 0.83719 0.47904 0.95997 0.0
H1158 H 0.8354 0.51349 0.99367 0.0
H1159 H 0.88651 0.36022 0.91385 0.0
H1160 H 0.45061 0.89815 0.043 0.0
H1161 H 0.43912 0.87263 0.06983 0.0
H1162 H 0.49093 0.9287 0.10294 0.0
H1163 H 0.5019 0.95466 0.07647 0.0
H1164 H 0.48983 0.88492 0.10728 0.0
H1165 H 0.43817 0.9173 0.10779 0.0
H1166 H 0.40952 0.92683 0.09407 0.0
H1167 H 0.36092 0.85474 0.08477 0.0
H1168 H 0.38947 0.84481 0.09819 0.0
H1169 H 0.44996 0.83595 0.19611 0.0
H1170 H 0.46395 0.86105 0.16898 0.0
H1171 H 0.40182 0.81218 0.13887 0.0
H1172 H 0.38732 0.78761 0.16617 0.0
H1173 H 0.4089 0.85276 0.13262 0.0
H1174 H 0.45879 0.81923 0.1317 0.0
H1175 H 0.48705 0.80834 0.14411 0.0
H1176 H 0.53827 0.87991 0.15257 0.0
H1177 H 0.51018 0.89122 0.14044 0.0
C1178 C 0.45944 0.90516 0.056 0.0
C1179 C 0.4771 0.92854 0.05755 0.0
C1180 C 0.45298 0.8905 0.07127 0.0
C1181 C 0.46417 0.89887 0.08831 0.0
C1182 C 0.48221 0.92194 0.08984 0.0
C1183 C 0.48851 0.93671 0.07465 0.0
C1184 C 0.45642 0.88374 0.10471 0.0
C1185 C 0.47224 0.87803 0.113 0.0
C1186 C 0.43329 0.8744 0.11178 0.0
C1187 C 0.41606 0.88034 0.10382 0.0
C1188 C 0.42146 0.9035 0.10267 0.0
C1189 C 0.40523 0.90897 0.09498 0.0
C1190 C 0.38344 0.89141 0.0885 0.0
C1191 C 0.37782 0.86833 0.08976 0.0
C1192 C 0.39402 0.86277 0.09742 0.0
C1193 C 0.43937 0.83055 0.18366 0.0
C1194 C 0.41755 0.80987 0.18323 0.0
C1195 C 0.44743 0.84483 0.16813 0.0
C1196 C 0.4341 0.83837 0.15177 0.0
C1197 C 0.41241 0.81757 0.15132 0.0
C1198 C 0.40416 0.80352 0.16692 0.0
C1199 C 0.44223 0.85361 0.13529 0.0
C1200 C 0.42649 0.85946 0.12696 0.0
C1201 C 0.46535 0.8628 0.12805 0.0
C1202 C 0.48229 0.85605 0.13533 0.0
C1203 C 0.47601 0.83264 0.13634 0.0
C1204 C 0.49201 0.82639 0.1433 0.0
C1205 C 0.51442 0.84341 0.14917 0.0
C1206 C 0.5209 0.86673 0.14805 0.0
C1207 C 0.50495 0.87307 0.14111 0.0
H1208 H 0.52678 0.83854 0.15455 0.0
H1209 H 0.37089 0.89567 0.08255 0.0
H1210 H 0.55129 0.43716 0.22084 0.0
H1211 H 0.56756 0.42739 0.24773 0.0
H1212 H 0.54762 0.46703 0.28261 0.0
H1213 H 0.53113 0.4766 0.2559 0.0
H1214 H 0.59582 0.47619 0.28684 0.0
H1215 H 0.51477 0.41252 0.28415 0.0
H1216 H 0.48087 0.37988 0.26873 0.0
H1217 H 0.52167 0.34631 0.2609 0.0
H1218 H 0.55595 0.37894 0.27606 0.0
H1219 H 0.60638 0.44685 0.3773 0.0
H1220 H 0.59233 0.45368 0.34813 0.0
H1221 H 0.59846 0.39838 0.32302 0.0
H1222 H 0.61164 0.3908 0.35252 0.0
H1223 H 0.56004 0.39633 0.31146 0.0
H1224 H 0.63994 0.45678 0.31524 0.0
H1225 H 0.67553 0.48917 0.32918 0.0
H1226 H 0.64029 0.52874 0.33277 0.0
H1227 H 0.60436 0.49646 0.31908 0.0
C1228 C 0.55042 0.44375 0.23427 0.0
C1229 C 0.5399 0.45752 0.23638 0.0
C1230 C 0.55962 0.43813 0.24957 0.0
C1231 C 0.5587 0.44648 0.26709 0.0
C1232 C 0.54845 0.46044 0.26917 0.0
C1233 C 0.53894 0.46576 0.25397 0.0
C1234 C 0.56844 0.4408 0.28337 0.0
C1235 C 0.58795 0.45879 0.29236 0.0
C1236 C 0.55864 0.41794 0.29004 0.0
C1237 C 0.53799 0.39828 0.28104 0.0
C1238 C 0.51658 0.39828 0.27899 0.0
C1239 C 0.49728 0.37976 0.27033 0.0
C1240 C 0.49914 0.36107 0.26379 0.0
C1241 C 0.52027 0.36082 0.26595 0.0
C1242 C 0.53963 0.37931 0.27458 0.0
C1243 C 0.60474 0.43613 0.36558 0.0
C1244 C 0.61026 0.41839 0.36717 0.0
C1245 C 0.59683 0.44014 0.34886 0.0
C1246 C 0.59487 0.42691 0.33323 0.0
C1247 C 0.59996 0.40889 0.33486 0.0
C1248 C 0.6075 0.40459 0.35171 0.0
C1249 C 0.58726 0.43187 0.31532 0.0
C1250 C 0.56818 0.41374 0.30594 0.0
C1251 C 0.59777 0.45459 0.30807 0.0
C1252 C 0.61938 0.47411 0.31626 0.0
C1253 C 0.63972 0.47233 0.31912 0.0
C1254 C 0.65997 0.49068 0.32696 0.0
C1255 C 0.66016 0.51098 0.33189 0.0
C1256 C 0.64011 0.513 0.32895 0.0
C1257 C 0.61981 0.49468 0.32113 0.0
H1258 H 0.67585 0.52517 0.33796 0.0
H1259 H 0.48418 0.34674 0.25709 0.0
H1260 H 0.46766 0.8971 0.42354 0.0
H1261 H 0.45377 0.87098 0.39699 0.0
H1262 H 0.45663 0.92541 0.36313 0.0
H1263 H 0.47151 0.95191 0.38919 0.0
H1264 H 0.4126 0.88163 0.36187 0.0
H1265 H 0.49763 0.91374 0.35752 0.0
H1266 H 0.53654 0.92229 0.36949 0.0
H1267 H 0.51062 0.84979 0.37733 0.0
H1268 H 0.47143 0.84084 0.36564 0.0
H1269 H 0.40042 0.84468 0.27045 0.0
H1270 H 0.41397 0.86563 0.29947 0.0
H1271 H 0.42342 0.81091 0.32196 0.0
H1272 H 0.41057 0.79013 0.29267 0.0
H1273 H 0.45912 0.85078 0.33155 0.0
H1274 H 0.37577 0.81719 0.33437 0.0
H1275 H 0.33578 0.80674 0.32372 0.0
H1276 H 0.35612 0.87854 0.32091 0.0
H1277 H 0.39635 0.88946 0.3313 0.0
C1278 C 0.46571 0.90365 0.41038 0.0
C1279 C 0.47058 0.92662 0.40857 0.0
C1280 C 0.45763 0.88865 0.39528 0.0
C1281 C 0.45412 0.89632 0.3782 0.0
C1282 C 0.45906 0.91917 0.37629 0.0
C1283 C 0.46742 0.93424 0.39125 0.0
C1284 C 0.44498 0.88056 0.36223 0.0
C1285 C 0.42279 0.87498 0.35512 0.0
C1286 C 0.45797 0.87126 0.35396 0.0
C1287 C 0.48153 0.87665 0.36092 0.0
C1288 C 0.50016 0.89964 0.36196 0.0
C1289 C 0.52228 0.90455 0.36866 0.0
C1290 C 0.52603 0.8866 0.37422 0.0
C1291 C 0.50768 0.86368 0.37305 0.0
C1292 C 0.48552 0.85868 0.36638 0.0
C1293 C 0.40534 0.83706 0.28156 0.0
C1294 C 0.4043 0.81568 0.27928 0.0
C1295 C 0.41298 0.84901 0.2982 0.0
C1296 C 0.41927 0.83963 0.31303 0.0
C1297 C 0.41856 0.81843 0.31073 0.0
C1298 C 0.41118 0.80657 0.29399 0.0
C1299 C 0.42686 0.85221 0.33081 0.0
C1300 C 0.44872 0.85715 0.33835 0.0
C1301 C 0.41336 0.86061 0.33969 0.0
C1302 C 0.38915 0.85414 0.33348 0.0
C1303 C 0.37177 0.83076 0.33135 0.0
C1304 C 0.34905 0.82475 0.32538 0.0
C1305 C 0.34343 0.84196 0.32161 0.0
C1306 C 0.36051 0.86523 0.32383 0.0
C1307 C 0.38327 0.87134 0.32978 0.0
H1308 H 0.32582 0.83727 0.31699 0.0
H1309 H 0.54316 0.89043 0.3794 0.0
H1310 H 0.56239 0.45363 0.60299 0.0
H1311 H 0.57337 0.43892 0.57623 0.0
H1312 H 0.5225 0.44587 0.54297 0.0
H1313 H 0.51205 0.46156 0.56941 0.0
H1314 H 0.52356 0.40258 0.53843 0.0
H1315 H 0.57461 0.48566 0.53829 0.0
H1316 H 0.60275 0.52307 0.5524 0.0
H1317 H 0.65157 0.49886 0.56234 0.0
H1318 H 0.62353 0.46116 0.54853 0.0
H1319 H 0.56577 0.39396 0.45011 0.0
H1320 H 0.55064 0.40448 0.477 0.0
H1321 H 0.61266 0.41756 0.50796 0.0
H1322 H 0.62831 0.4082 0.48087 0.0
H1323 H 0.60476 0.45051 0.51382 0.0
H1324 H 0.55559 0.36804 0.51447 0.0
H1325 H 0.52783 0.32952 0.50187 0.0
H1326 H 0.47622 0.35039 0.49268 0.0
H1327 H 0.50379 0.38915 0.50502 0.0
C1328 C 0.55362 0.45221 0.58997 0.0
C1329 C 0.53649 0.45902 0.58834 0.0
C1330 C 0.55978 0.4436 0.57476 0.0
C1331 C 0.54878 0.44144 0.55769 0.0
C1332 C 0.53107 0.44734 0.5561 0.0
C1333 C 0.52509 0.45622 0.57126 0.0
C1334 C 0.55673 0.43423 0.54127 0.0
C1335 C 0.5412 0.4131 0.53285 0.0
C1336 C 0.57992 0.44779 0.5344 0.0
C1337 C 0.59688 0.47052 0.54255 0.0
C1338 C 0.59126 0.48825 0.54363 0.0
C1339 C 0.60721 0.50951 0.55155 0.0
C1340 C 0.62891 0.51332 0.55831 0.0
C1341 C 0.63474 0.49588 0.55712 0.0
C1342 C 0.61883 0.47457 0.54924 0.0
C1343 C 0.57607 0.39898 0.4627 0.0
C1344 C 0.59822 0.40034 0.46343 0.0
C1345 C 0.56736 0.40485 0.4781 0.0
C1346 C 0.58036 0.41154 0.49462 0.0
C1347 C 0.60233 0.41252 0.49538 0.0
C1348 C 0.61124 0.40713 0.4799 0.0
C1349 C 0.5717 0.41854 0.5109 0.0
C1350 C 0.5871 0.43979 0.51931 0.0
C1351 C 0.54848 0.40487 0.5179 0.0
C1352 C 0.53185 0.38157 0.5105 0.0
C1353 C 0.53839 0.36447 0.50963 0.0
C1354 C 0.52267 0.34258 0.50256 0.0
C1355 C 0.5003 0.33753 0.49643 0.0
C1356 C 0.49357 0.35434 0.49741 0.0
C1357 C 0.50922 0.37626 0.50446 0.0
H1358 H 0.48816 0.32058 0.49096 0.0
H1359 H 0.64123 0.52979 0.56444 0.0
H1360 H 0.10035 0.59018 0.74936 0.0
H1361 H 0.12768 0.60473 0.72326 0.0
H1362 H 0.11051 0.53507 0.71004 0.0
H1363 H 0.08327 0.52046 0.73609 0.0
H1364 H 0.15705 0.56398 0.70801 0.0
H1365 H 0.08658 0.56275 0.68607 0.0
H1366 H 0.05495 0.57266 0.68679 0.0
H1367 H 0.10667 0.64483 0.68317 0.0
H1368 H 0.13866 0.63534 0.68267 0.0
H1369 H 0.18374 0.56568 0.61443 0.0
H1370 H 0.16355 0.56014 0.64377 0.0
H1371 H 0.19669 0.63397 0.65072 0.0
H1372 H 0.21729 0.6398 0.62121 0.0
H1373 H 0.14672 0.60874 0.65779 0.0
H1374 H 0.21694 0.60866 0.67593 0.0
H1375 H 0.24766 0.59757 0.67422 0.0
H1376 H 0.19545 0.52667 0.68421 0.0
H1377 H 0.16434 0.53728 0.6857 0.0
C1378 C 0.10233 0.57798 0.74082 0.0
C1379 C 0.08963 0.55417 0.74473 0.0
C1380 C 0.11797 0.58631 0.72594 0.0
C1381 C 0.12097 0.57096 0.71462 0.0
C1382 C 0.10853 0.54723 0.71865 0.0
C1383 C 0.093 0.53891 0.73355 0.0
C1384 C 0.13685 0.57942 0.69842 0.0
C1385 C 0.1547 0.57365 0.69699 0.0
C1386 C 0.13422 0.59263 0.6843 0.0
C1387 C 0.11502 0.59835 0.68456 0.0
C1388 C 0.09122 0.58074 0.68558 0.0
C1389 C 0.07322 0.58628 0.68592 0.0
C1390 C 0.0788 0.60937 0.68509 0.0
C1391 C 0.10239 0.62696 0.68385 0.0
C1392 C 0.12045 0.62151 0.68353 0.0
C1393 C 0.18678 0.58081 0.62213 0.0
C1394 C 0.20217 0.60321 0.61549 0.0
C1395 C 0.17529 0.57758 0.63894 0.0
C1396 C 0.17883 0.59665 0.64944 0.0
C1397 C 0.19385 0.61907 0.64279 0.0
C1398 C 0.20562 0.62234 0.62599 0.0
C1399 C 0.16646 0.59279 0.66724 0.0
C1400 C 0.1493 0.59941 0.66897 0.0
C1401 C 0.1696 0.58023 0.68159 0.0
C1402 C 0.18827 0.57376 0.6808 0.0
C1403 C 0.21197 0.59068 0.67762 0.0
C1404 C 0.22946 0.58448 0.67671 0.0
C1405 C 0.2235 0.56143 0.67907 0.0
C1406 C 0.20004 0.54453 0.68238 0.0
C1407 C 0.18247 0.55063 0.68328 0.0
H1408 H 0.23707 0.55666 0.67837 0.0
H1409 H 0.06484 0.61362 0.68535 0.0
H1410 H 0.55571 0.12006 0.92238 0.0
H1411 H 0.56909 0.14431 0.89453 0.0
H1412 H 0.54275 0.08318 0.86086 0.0
H1413 H 0.52888 0.05891 0.88857 0.0
H1414 H 0.59301 0.12157 0.85508 0.0
H1415 H 0.51186 0.10519 0.85926 0.0
H1416 H 0.47826 0.10449 0.87528 0.0
H1417 H 0.51853 0.17812 0.88232 0.0
H1418 H 0.55251 0.1792 0.86657 0.0
H1419 H 0.60509 0.16498 0.76537 0.0
H1420 H 0.58992 0.14253 0.79364 0.0
H1421 H 0.59412 0.20187 0.82088 0.0
H1422 H 0.60828 0.22412 0.7923 0.0
H1423 H 0.55604 0.16581 0.83133 0.0
H1424 H 0.63639 0.18435 0.82758 0.0
H1425 H 0.67215 0.1874 0.81348 0.0
H1426 H 0.63725 0.11355 0.80823 0.0
H1427 H 0.60115 0.11007 0.82208 0.0
C1428 C 0.55272 0.11189 0.909 0.0
C1429 C 0.54124 0.0877 0.90752 0.0
C1430 C 0.56029 0.12568 0.89318 0.0
C1431 C 0.55683 0.11544 0.87574 0.0
C1432 C 0.5455 0.09131 0.87424 0.0
C1433 C 0.53753 0.07752 0.89001 0.0
C1434 C 0.56549 0.12989 0.859 0.0
C1435 C 0.58482 0.13107 0.84971 0.0
C1436 C 0.55526 0.14287 0.85254 0.0
C1437 C 0.53482 0.14223 0.86193 0.0
C1438 C 0.51364 0.1212 0.86439 0.0
C1439 C 0.4945 0.12074 0.87338 0.0
C1440 C 0.49628 0.14124 0.87987 0.0
C1441 C 0.51718 0.16225 0.87732 0.0
C1442 C 0.53638 0.1628 0.86835 0.0
C1443 C 0.60272 0.17323 0.77737 0.0
C1444 C 0.60803 0.19635 0.77666 0.0
C1445 C 0.59417 0.16041 0.79357 0.0
C1446 C 0.59139 0.17065 0.80956 0.0
C1447 C 0.5962 0.19361 0.80876 0.0
C1448 C 0.60432 0.20632 0.79243 0.0
C1449 C 0.58354 0.15736 0.82707 0.0
C1450 C 0.56439 0.15643 0.83662 0.0
C1451 C 0.59429 0.14497 0.83402 0.0
C1452 C 0.61599 0.14697 0.82572 0.0
C1453 C 0.63628 0.16877 0.8233 0.0
C1454 C 0.65662 0.17058 0.81537 0.0
C1455 C 0.65695 0.15069 0.80993 0.0
C1456 C 0.63696 0.12894 0.81244 0.0
C1457 C 0.61656 0.12704 0.82034 0.0
H1458 H 0.67272 0.15212 0.80379 0.0
H1459 H 0.48145 0.14085 0.88682 0.0
H1460 H 0.42457 0.51976 0.08936 0.0
H1461 H 0.41413 0.53685 0.06383 0.0
H1462 H 0.48667 0.59174 0.05995 0.0
H1463 H 0.49709 0.57525 0.08597 0.0
H1464 H 0.45719 0.60839 0.05622 0.0
H1465 H 0.46475 0.54679 0.02998 0.0
H1466 H 0.45733 0.50695 0.02692 0.0
H1467 H 0.38355 0.48232 0.01776 0.0
H1468 H 0.39049 0.522 0.02102 0.0
H1469 H 0.44816 0.6442 0.96477 0.0
H1470 H 0.45934 0.63033 0.99215 0.0
H1471 H 0.38667 0.57711 -0.00035 0.0
H1472 H 0.37537 0.59077 0.97233 0.0
H1473 H 0.41722 0.5603 0.00133 0.0
H1474 H 0.4107 0.62309 0.02752 0.0
H1475 H 0.41939 0.66342 0.02991 0.0
H1476 H 0.49297 0.68637 0.03819 0.0
H1477 H 0.48476 0.64619 0.03559 0.0
C1478 C 0.43824 0.53564 0.08325 0.0
C1479 C 0.46169 0.54607 0.08963 0.0
C1480 C 0.4323 0.54526 0.06854 0.0
C1481 C 0.4497 0.56537 0.05982 0.0
C1482 C 0.473 0.57615 0.06643 0.0
C1483 C 0.47895 0.56658 0.08118 0.0
C1484 C 0.44366 0.57493 0.0436 0.0
C1485 C 0.44872 0.59797 0.04412 0.0
C1486 C 0.43234 0.56123 0.02792 0.0
C1487 C 0.42811 0.53734 0.02593 0.0
C1488 C 0.44691 0.53286 0.02746 0.0
C1489 C 0.4428 0.5103 0.02567 0.0
C1490 C 0.41997 0.4921 0.0222 0.0
C1491 C 0.40122 0.49643 0.02047 0.0
C1492 C 0.40523 0.51895 0.02228 0.0
C1493 C 0.43456 0.62965 0.97233 0.0
C1494 C 0.4109 0.61855 0.96639 0.0
C1495 C 0.44096 0.6218 0.98798 0.0
C1496 C 0.42379 0.60276 -0.00206 0.0
C1497 C 0.40016 0.59181 0.99213 0.0
C1498 C 0.39374 0.5997 0.97656 0.0
C1499 C 0.43052 0.59365 0.01403 0.0
C1500 C 0.42567 0.5707 0.01345 0.0
C1501 C 0.4422 0.6075 0.02955 0.0
C1502 C 0.44715 0.63166 0.03117 0.0
C1503 C 0.42877 0.63676 0.0297 0.0
C1504 C 0.4336 0.65959 0.03112 0.0
C1505 C 0.45673 0.67745 0.03414 0.0
C1506 C 0.47507 0.67251 0.03581 0.0
C1507 C 0.47033 0.64971 0.03438 0.0
H1508 H 0.46043 0.69511 0.03524 0.0
H1509 H 0.41683 0.47465 0.0208 0.0
H1510 H 0.95173 0.48556 0.22116 0.0
H1511 H 0.92475 0.47364 0.19493 0.0
H1512 H 0.86731 0.42646 0.22973 0.0
H1513 H 0.89397 0.43894 0.25635 0.0
H1514 H 0.87116 0.40816 0.19392 0.0
H1515 H 0.86749 0.47224 0.22048 0.0
H1516 H 0.88439 0.51171 0.23291 0.0
H1517 H 0.91797 0.53996 0.18099 0.0
H1518 H 0.90156 0.50061 0.16833 0.0
H1519 H 0.78265 0.3888 0.12685 0.0
H1520 H 0.80558 0.39605 0.15525 0.0
H1521 H 0.86375 0.45646 0.13047 0.0
H1522 H 0.84069 0.44979 0.10238 0.0
H1523 H 0.85684 0.46656 0.16332 0.0
H1524 H 0.86344 0.40407 0.13686 0.0
H1525 H 0.84882 0.36516 0.12384 0.0
H1526 H 0.81219 0.33449 0.1743 0.0
H1527 H 0.82636 0.37324 0.18753 0.0
C1528 C 0.93332 0.47284 0.22335 0.0
C1529 C 0.92499 0.46342 0.24095 0.0
C1530 C 0.91799 0.46592 0.2083 0.0
C1531 C 0.89408 0.44932 0.21049 0.0
C1532 C 0.88576 0.43928 0.22783 0.0
C1533 C 0.90105 0.44639 0.24298 0.0
C1534 C 0.87777 0.44311 0.19467 0.0
C1535 C 0.86765 0.42075 0.18735 0.0
C1536 C 0.87374 0.45977 0.18598 0.0
C1537 C 0.88346 0.48346 0.19351 0.0
C1538 C 0.87864 0.48686 0.21176 0.0
C1539 C 0.8881 0.50921 0.21884 0.0
C1540 C 0.90229 0.52833 0.20776 0.0
C1541 C 0.90699 0.52513 0.18956 0.0
C1542 C 0.8976 0.50281 0.18242 0.0
C1543 C 0.80038 0.40355 0.12744 0.0
C1544 C 0.80985 0.41876 0.1124 0.0
C1545 C 0.8135 0.40762 0.14365 0.0
C1546 C 0.83648 0.4267 0.14495 0.0
C1547 C 0.84603 0.44169 0.12983 0.0
C1548 C 0.83284 0.43782 0.11376 0.0
C1549 C 0.85045 0.43163 0.16218 0.0
C1550 C 0.86013 0.45382 0.16986 0.0
C1551 C 0.85428 0.41486 0.17104 0.0
C1552 C 0.84574 0.39155 0.16311 0.0
C1553 C 0.85211 0.38902 0.14512 0.0
C1554 C 0.84393 0.367 0.13771 0.0
C1555 C 0.82952 0.34736 0.14822 0.0
C1556 C 0.82331 0.34971 0.16617 0.0
C1557 C 0.83143 0.3717 0.17363 0.0
H1558 H 0.82321 0.33033 0.14246 0.0
H1559 H 0.9096 0.54562 0.21326 0.0
loop_
_geom_bond_atom_site_label_1
_geom_bond_atom_site_label_2
_geom_bond_distance
_geom_bond_site_symmetry_2
_ccdc_geom_bond_type
C0 C1 1.384 . S
C0 C2 1.384 . S
C0 H28 0.931 . S
C1 C0 1.384 . S
C1 C4 1.382 . S
C2 C0 1.384 . S
C2 C3 1.381 . S
C2 H29 0.930 . S
C3 C2 1.381 . S
C3 C5 1.381 . S
C3 C6 1.487 . S
C4 C1 1.382 . S
C4 C5 1.387 . S
C4 H30 0.930 . S
C5 C3 1.381 . S
C5 C4 1.387 . S
C5 H31 0.931 . S
C6 C3 1.487 . S
C6 C13 1.399 . S
C6 N44 1.343 1_655 S
C7 C8 1.384 . S
C7 C9 1.384 . S
C7 H32 0.931 . S
C8 C7 1.384 . S
C8 C11 1.382 . S
C9 C7 1.384 . S
C9 C10 1.381 . S
C9 H33 0.930 . S
C10 C9 1.381 . S
C10 C12 1.381 . S
C10 C13 1.487 . S
C11 C8 1.382 . S
C11 C12 1.387 . S
C11 H34 0.930 . S
C12 C10 1.381 . S
C12 C11 1.387 . S
C12 H35 0.931 . S
C13 C6 1.399 . S
C13 C10 1.487 . S
C13 N45 1.343 1_655 S
C14 C15 1.384 . S
C14 C16 1.384 . S
C14 H36 0.931 . S
C15 C14 1.384 . S
C15 C18 1.382 . S
C16 C14 1.384 . S
C16 C17 1.381 . S
C16 H37 0.930 . S
C17 C16 1.381 . S
C17 C19 1.381 . S
C17 C20 1.487 . S
C18 C15 1.382 . S
C18 C19 1.387 . S
C18 H38 0.930 . S
C19 C17 1.381 . S
C19 C18 1.387 . S
C19 H39 0.931 . S
C20 C17 1.487 . S
C20 C27 1.399 . S
C20 N45 1.343 . S
C21 C22 1.384 . S
C21 C23 1.384 . S
C21 H40 0.931 . S
C22 C21 1.384 . S
C22 C25 1.382 . S
C23 C21 1.384 . S
C23 C24 1.381 . S
C23 H41 0.930 . S
C24 C23 1.381 . S
C24 C26 1.381 . S
C24 C27 1.487 . S
C25 C22 1.382 . S
C25 C26 1.387 . S
C25 H42 0.930 . S
C26 C24 1.381 . S
C26 C25 1.387 . S
C26 H43 0.931 . S
C27 C20 1.399 . S
C27 C24 1.487 . S
C27 N44 1.343 . S
H28 C0 0.931 . S
H29 C2 0.930 . S
H30 C4 0.930 . S
H31 C5 0.931 . S
H32 C7 0.931 . S
H33 C9 0.930 . S
H34 C11 0.930 . S
H35 C12 0.931 . S
H36 C14 0.931 . S
H37 C16 0.930 . S
H38 C18 0.930 . S
H39 C19 0.931 . S
H40 C21 0.931 . S
H41 C23 0.930 . S
H42 C25 0.930 . S
H43 C26 0.931 . S
N44 C6 1.343 1_455 S
N44 C27 1.343 . S
N45 C13 1.343 1_455 S
N45 C20 1.343 . S
C46 C47 1.384 . S
C46 C48 1.384 . S
C46 H74 0.931 . S
C47 C46 1.384 . S
C47 C50 1.382 . S
C48 C46 1.384 . S
C48 C49 1.381 . S
C48 H75 0.930 . S
C49 C48 1.381 . S
C49 C51 1.381 . S
C49 C52 1.487 . S
C50 C47 1.382 . S
C50 C51 1.387 . S
C50 H76 0.930 . S
C51 C49 1.381 . S
C51 C50 1.387 . S
C51 H77 0.931 . S
C52 C49 1.487 . S
C52 C59 1.399 . S
C52 N90 1.343 1_565 S
C53 C54 1.384 . S
C53 C55 1.384 . S
C53 H78 0.931 . S
C54 C53 1.384 . S
C54 C57 1.382 . S
C55 C53 1.384 . S
C55 C56 1.381 . S
C55 H79 0.930 . S
C56 C55 1.381 . S
C56 C58 1.381 . S
C56 C59 1.487 . S
C57 C54 1.382 . S
C57 C58 1.387 . S
C57 H80 0.930 . S
C58 C56 1.381 . S
C58 C57 1.387 . S
C58 H81 0.931 . S
C59 C52 1.399 . S
C59 C56 1.487 . S
C59 N91 1.343 1_565 S
C60 C61 1.384 . S
C60 C62 1.384 . S
C60 H82 0.931 . S
C61 C60 1.384 . S
C61 C64 1.382 . S
C62 C60 1.384 . S
C62 C63 1.381 . S
C62 H83 0.930 . S
C63 C62 1.381 . S
C63 C65 1.381 . S
C63 C66 1.487 . S
C64 C61 1.382 . S
C64 C65 1.387 . S
C64 H84 0.930 . S
C65 C63 1.381 . S
C65 C64 1.387 . S
C65 H85 0.931 . S
C66 C63 1.487 . S
C66 C73 1.399 . S
C66 N91 1.343 . S
C67 C68 1.384 . S
C67 C69 1.384 . S
C67 H86 0.931 . S
C68 C67 1.384 . S
C68 C71 1.382 . S
C69 C67 1.384 . S
C69 C70 1.381 . S
C69 H87 0.930 . S
C70 C69 1.381 . S
C70 C72 1.381 . S
C70 C73 1.487 . S
C71 C68 1.382 . S
C71 C72 1.387 . S
C71 H88 0.930 . S
C72 C70 1.381 . S
C72 C71 1.387 . S
C72 H89 0.931 . S
C73 C66 1.399 . S
C73 C70 1.487 . S
C73 N90 1.343 . S
H74 C46 0.931 . S
H75 C48 0.930 . S
H76 C50 0.930 . S
H77 C51 0.931 . S
H78 C53 0.931 . S
H79 C55 0.930 . S
H80 C57 0.930 . S
H81 C58 0.931 . S
H82 C60 0.931 . S
H83 C62 0.930 . S
H84 C64 0.930 . S
H85 C65 0.931 . S
H86 C67 0.931 . S
H87 C69 0.930 . S
H88 C71 0.930 . S
H89 C72 0.931 . S
N90 C52 1.343 1_545 S
N90 C73 1.343 . S
N91 C59 1.343 1_545 S
N91 C66 1.343 . S
C92 C93 1.384 . S
C92 C94 1.384 . S
C92 H120 0.931 . S
C93 C92 1.384 . S
C93 C96 1.382 . S
C94 C92 1.384 . S
C94 C95 1.381 . S
C94 H121 0.930 . S
C95 C94 1.381 . S
C95 C97 1.381 . S
C95 C98 1.487 . S
C96 C93 1.382 . S
C96 C97 1.387 . S
C96 H122 0.930 . S
C97 C95 1.381 . S
C97 C96 1.387 . S
C97 H123 0.931 . S
C98 C95 1.487 . S
C98 C105 1.399 . S
C98 N136 1.343 . S
C99 C100 1.384 . S
C99 C101 1.384 . S
C99 H124 0.931 . S
C100 C99 1.384 . S
C100 C103 1.382 . S
C101 C99 1.384 . S
C101 C102 1.381 . S
C101 H125 0.930 . S
C102 C101 1.381 . S
C102 C104 1.381 . S
C102 C105 1.487 . S
C103 C100 1.382 . S
C103 C104 1.387 . S
C103 H126 0.930 . S
C104 C102 1.381 . S
C104 C103 1.387 . S
C104 H127 0.931 . S
C105 C98 1.399 . S
C105 C102 1.487 . S
C105 N137 1.343 . S
C106 C107 1.384 . S
C106 C108 1.384 . S
C106 H128 0.931 . S
C107 C106 1.384 . S
C107 C110 1.382 . S
C108 C106 1.384 . S
C108 C109 1.381 . S
C108 H129 0.930 . S
C109 C108 1.381 . S
C109 C111 1.381 . S
C109 C112 1.487 . S
C110 C107 1.382 . S
C110 C111 1.387 . S
C110 H130 0.930 . S
C111 C109 1.381 . S
C111 C110 1.387 . S
C111 H131 0.931 . S
C112 C109 1.487 . S
C112 C119 1.399 . S
C112 N137 1.343 . S
C113 C114 1.384 . S
C113 C115 1.384 . S
C113 H132 0.931 . S
C114 C113 1.384 . S
C114 C117 1.382 . S
C115 C113 1.384 . S
C115 C116 1.381 . S
C115 H133 0.930 . S
C116 C115 1.381 . S
C116 C118 1.381 . S
C116 C119 1.487 . S
C117 C114 1.382 . S
C117 C118 1.387 . S
C117 H134 0.930 . S
C118 C116 1.381 . S
C118 C117 1.387 . S
C118 H135 0.931 . S
C119 C112 1.399 . S
C119 C116 1.487 . S
C119 N136 1.343 . S
H120 C92 0.931 . S
H121 C94 0.930 . S
H122 C96 0.930 . S
H123 C97 0.931 . S
H124 C99 0.931 . S
H125 C101 0.930 . S
H126 C103 0.930 . S
H127 C104 0.931 . S
H128 C106 0.931 . S
H129 C108 0.930 . S
H130 C110 0.930 . S
H131 C111 0.931 . S
H132 C113 0.931 . S
H133 C115 0.930 . S
H134 C117 0.930 . S
H135 C118 0.931 . S
N136 C98 1.343 . S
N136 C119 1.343 . S
N137 C105 1.343 . S
N137 C112 1.343 . S
C138 C139 1.384 . S
C138 C140 1.384 . S
C138 H166 0.931 . S
C139 C138 1.384 . S
C139 C142 1.382 . S
C140 C138 1.384 . S
C140 C141 1.381 . S
C140 H167 0.930 . S
C141 C140 1.381 . S
C141 C143 1.381 . S
C141 C144 1.487 . S
C142 C139 1.382 . S
C142 C143 1.387 . S
C142 H168 0.930 . S
C143 C141 1.381 . S
C143 C142 1.387 . S
C143 H169 0.931 . S
C144 C141 1.487 . S
C144 C151 1.399 . S
C144 N182 1.343 1_655 S
C145 C146 1.384 . S
C145 C147 1.384 . S
C145 H170 0.931 . S
C146 C145 1.384 . S
C146 C149 1.382 . S
C147 C145 1.384 . S
C147 C148 1.381 . S
C147 H171 0.930 . S
C148 C147 1.381 . S
C148 C150 1.381 . S
C148 C151 1.487 . S
C149 C146 1.382 . S
C149 C150 1.387 . S
C149 H172 0.930 . S
C150 C148 1.381 . S
C150 C149 1.387 . S
C150 H173 0.931 . S
C151 C144 1.399 . S
C151 C148 1.487 . S
C151 N183 1.343 1_655 S
C152 C153 1.384 . S
C152 C154 1.384 . S
C152 H174 0.931 . S
C153 C152 1.384 . S
C153 C156 1.382 . S
C154 C152 1.384 . S
C154 C155 1.381 . S
C154 H175 0.930 . S
C155 C154 1.381 . S
C155 C157 1.381 . S
C155 C158 1.487 . S
C156 C153 1.382 . S
C156 C157 1.387 . S
C156 H176 0.930 . S
C157 C155 1.381 . S
C157 C156 1.387 . S
C157 H177 0.931 . S
C158 C155 1.487 . S
C158 C165 1.399 . S
C158 N183 1.343 . S
C159 C160 1.384 . S
C159 C161 1.384 . S
C159 H178 0.931 . S
C160 C159 1.384 . S
C160 C163 1.382 . S
C161 C159 1.384 . S
C161 C162 1.381 . S
C161 H179 0.930 . S
C162 C161 1.381 . S
C162 C164 1.381 . S
C162 C165 1.487 . S
C163 C160 1.382 . S
C163 C164 1.387 . S
C163 H180 0.930 . S
C164 C162 1.381 . S
C164 C163 1.387 . S
C164 H181 0.931 . S
C165 C158 1.399 . S
C165 C162 1.487 . S
C165 N182 1.343 . S
H166 C138 0.931 . S
H167 C140 0.930 . S
H168 C142 0.930 . S
H169 C143 0.931 . S
H170 C145 0.931 . S
H171 C147 0.930 . S
H172 C149 0.930 . S
H173 C150 0.931 . S
H174 C152 0.931 . S
H175 C154 0.930 . S
H176 C156 0.930 . S
H177 C157 0.931 . S
H178 C159 0.931 . S
H179 C161 0.930 . S
H180 C163 0.930 . S
H181 C164 0.931 . S
N182 C144 1.343 1_455 S
N182 C165 1.343 . S
N183 C151 1.343 1_455 S
N183 C158 1.343 . S
C184 C185 1.384 . S
C184 C186 1.384 . S
C184 H212 0.931 . S
C185 C184 1.384 . S
C185 C188 1.382 . S
C186 C184 1.384 . S
C186 C187 1.381 . S
C186 H213 0.930 . S
C187 C186 1.381 . S
C187 C189 1.381 . S
C187 C190 1.487 . S
C188 C185 1.382 . S
C188 C189 1.387 . S
C188 H214 0.930 . S
C189 C187 1.381 . S
C189 C188 1.387 . S
C189 H215 0.931 . S
C190 C187 1.487 . S
C190 C197 1.399 1_556 S
C190 N228 1.313 1_565 S
C191 C192 1.384 . S
C191 C193 1.384 . S
C191 H216 0.931 . S
C192 C191 1.384 . S
C192 C195 1.382 . S
C193 C191 1.384 . S
C193 C194 1.381 . S
C193 H217 0.930 . S
C194 C193 1.381 . S
C194 C196 1.381 . S
C194 C197 1.487 . S
C195 C192 1.382 . S
C195 C196 1.387 . S
C195 H218 0.930 . S
C196 C194 1.381 . S
C196 C195 1.387 . S
C196 H219 0.931 . S
C197 C190 1.399 1_554 S
C197 C194 1.487 . S
C197 N229 1.343 1_565 S
C198 C199 1.384 . S
C198 C200 1.384 1_554 S
C198 H220 0.931 1_554 S
C199 C198 1.384 . S
C199 C202 1.382 . S
C200 C198 1.384 1_556 S
C200 C201 1.381 1_556 S
C200 H221 0.930 . S
C201 C200 1.381 1_554 S
C201 C203 1.381 . S
C201 C204 1.487 1_554 S
C202 C199 1.382 . S
C202 C203 1.387 . S
C202 H222 0.930 . S
C203 C201 1.381 . S
C203 C202 1.387 . S
C203 H223 0.931 . S
C204 C201 1.487 1_556 S
C204 C211 1.399 . S
C204 N229 1.343 1_556 S
C205 C206 1.384 . S
C205 C207 1.384 . S
C205 H224 0.931 . S
C206 C205 1.384 . S
C206 C209 1.382 . S
C207 C205 1.384 . S
C207 C208 1.381 . S
C207 H225 0.930 . S
C208 C207 1.381 . S
C208 C210 1.381 . S
C208 C211 1.487 . S
C209 C206 1.382 . S
C209 C210 1.387 . S
C209 H226 0.930 . S
C210 C208 1.381 . S
C210 C209 1.387 . S
C210 H227 0.931 . S
C211 C204 1.399 . S
C211 C208 1.487 . S
C211 N228 1.385 . S
H212 C184 0.931 . S
H213 C186 0.930 . S
H214 C188 0.930 . S
H215 C189 0.931 . S
H216 C191 0.931 . S
H217 C193 0.930 . S
H218 C195 0.930 . S
H219 C196 0.931 . S
H220 C198 0.931 1_556 S
H221 C200 0.930 . S
H222 C202 0.930 . S
H223 C203 0.931 . S
H224 C205 0.931 . S
H225 C207 0.930 . S
H226 C209 0.930 . S
H227 C210 0.931 . S
N228 C190 1.313 1_545 S
N228 C211 1.385 . S
N229 C197 1.343 1_545 S
N229 C204 1.343 1_554 S
C230 C231 1.384 . S
C230 C232 1.384 . S
C230 H258 0.931 . S
C231 C230 1.384 . S
C231 C234 1.382 . S
C232 C230 1.384 . S
C232 C233 1.381 . S
C232 H259 0.930 . S
C233 C232 1.381 . S
C233 C235 1.381 . S
C233 C236 1.487 . S
C234 C231 1.382 . S
C234 C235 1.387 . S
C234 H260 0.930 . S
C235 C233 1.381 . S
C235 C234 1.387 . S
C235 H261 0.931 . S
C236 C233 1.487 . S
C236 C243 1.399 . S
C236 N274 1.343 . S
C237 C238 1.384 . S
C237 C239 1.384 . S
C237 H262 0.931 . S
C238 C237 1.384 . S
C238 C241 1.382 . S
C239 C237 1.384 . S
C239 C240 1.381 . S
C239 H263 0.930 . S
C240 C239 1.381 . S
C240 C242 1.381 . S
C240 C243 1.487 . S
C241 C238 1.382 . S
C241 C242 1.387 . S
C241 H264 0.930 . S
C242 C240 1.381 . S
C242 C241 1.387 . S
C242 H265 0.931 . S
C243 C236 1.399 . S
C243 C240 1.487 . S
C243 N275 1.343 . S
C244 C245 1.384 . S
C244 C246 1.384 . S
C244 H266 0.931 . S
C245 C244 1.384 . S
C245 C248 1.382 . S
C246 C244 1.384 . S
C246 C247 1.381 . S
C246 H267 0.930 . S
C247 C246 1.381 . S
C247 C249 1.381 . S
C247 C250 1.487 . S
C248 C245 1.382 . S
C248 C249 1.387 . S
C248 H268 0.930 . S
C249 C247 1.381 . S
C249 C248 1.387 . S
C249 H269 0.931 . S
C250 C247 1.487 . S
C250 C257 1.399 . S
C250 N275 1.343 . S
C251 C252 1.384 . S
C251 C253 1.384 . S
C251 H270 0.931 . S
C252 C251 1.384 . S
C252 C255 1.382 . S
C253 C251 1.384 . S
C253 C254 1.381 . S
C253 H271 0.930 . S
C254 C253 1.381 . S
C254 C256 1.381 . S
C254 C257 1.487 . S
C255 C252 1.382 . S
C255 C256 1.387 . S
C255 H272 0.930 . S
C256 C254 1.381 . S
C256 C255 1.387 . S
C256 H273 0.931 . S
C257 C250 1.399 . S
C257 C254 1.487 . S
C257 N274 1.343 . S
H258 C230 0.931 . S
H259 C232 0.930 . S
H260 C234 0.930 . S
H261 C235 0.931 . S
H262 C237 0.931 . S
H263 C239 0.930 . S
H264 C241 0.930 . S
H265 C242 0.931 . S
H266 C244 0.931 . S
H267 C246 0.930 . S
H268 C248 0.930 . S
H269 C249 0.931 . S
H270 C251 0.931 . S
H271 C253 0.930 . S
H272 C255 0.930 . S
H273 C256 0.931 . S
N274 C236 1.343 . S
N274 C257 1.343 . S
N275 C243 1.343 . S
N275 C250 1.343 . S
C276 O277 1.306 . S
C276 O279 1.160 . S
O277 C276 1.306 . S
O277 Cd278 2.228 . S
Cd278 O277 2.228 . S
Cd278 O282 2.273 . S
Cd278 O286 2.277 . S
O279 C276 1.160 . S
O279 Cd280 2.203 . S
Cd280 O279 2.203 . S
Cd280 O282 2.411 . S
Cd280 O283 2.333 . S
Cd280 O284 2.352 . S
Cd280 O288 2.277 . S
Cd280 O289 2.356 . S
C281 O286 1.209 . S
C281 O288 1.226 . S
O282 Cd278 2.273 . S
O282 Cd280 2.411 . S
O282 C285 1.320 . S
O283 Cd280 2.333 . S
O283 C285 1.214 . S
O284 Cd280 2.352 . S
O284 C287 1.258 . S
C285 O282 1.320 . S
C285 O283 1.214 . S
O286 Cd278 2.277 . S
O286 C281 1.209 . S
C287 O284 1.258 . S
C287 O289 1.282 . S
O288 Cd280 2.277 . S
O288 C281 1.226 . S
O289 Cd280 2.356 . S
O289 C287 1.282 . S
C290 O291 1.306 . S
C290 O293 1.160 . S
O291 C290 1.306 . S
O291 Cd292 2.228 . S
Cd292 O291 2.228 . S
Cd292 O296 2.273 . S
Cd292 O300 2.277 . S
O293 C290 1.160 . S
O293 Cd294 2.203 . S
Cd294 O293 2.203 . S
Cd294 O296 2.411 . S
Cd294 O297 2.333 . S
Cd294 O298 2.352 . S
Cd294 O302 2.277 . S
Cd294 O303 2.356 . S
C295 O300 1.209 . S
C295 O302 1.226 . S
O296 Cd292 2.273 . S
O296 Cd294 2.411 . S
O296 C299 1.320 . S
O297 Cd294 2.333 . S
O297 C299 1.214 . S
O298 Cd294 2.352 . S
O298 C301 1.258 . S
C299 O296 1.320 . S
C299 O297 1.214 . S
O300 Cd292 2.277 . S
O300 C295 1.209 . S
C301 O298 1.258 . S
C301 O303 1.282 . S
O302 Cd294 2.277 . S
O302 C295 1.226 . S
O303 Cd294 2.356 . S
O303 C301 1.282 . S
C304 O305 1.306 . S
C304 O307 1.160 . S
O305 C304 1.306 . S
O305 Cd306 2.228 . S
Cd306 O305 2.228 . S
Cd306 O310 2.273 . S
Cd306 O314 2.277 . S
O307 C304 1.160 . S
O307 Cd308 2.203 . S
Cd308 O307 2.203 . S
Cd308 O310 2.411 . S
Cd308 O311 2.333 . S
Cd308 O312 2.352 . S
Cd308 O316 2.277 . S
Cd308 O317 2.356 . S
C309 O314 1.209 . S
C309 O316 1.226 . S
O310 Cd306 2.273 . S
O310 Cd308 2.411 . S
O310 C313 1.320 . S
O311 Cd308 2.333 . S
O311 C313 1.214 . S
O312 Cd308 2.352 . S
O312 C315 1.258 . S
C313 O310 1.320 . S
C313 O311 1.214 . S
O314 Cd306 2.277 . S
O314 C309 1.209 . S
C315 O312 1.258 . S
C315 O317 1.282 . S
O316 Cd308 2.277 . S
O316 C309 1.226 . S
O317 Cd308 2.356 . S
O317 C315 1.282 . S
C318 O319 1.306 . S
C318 O321 1.160 . S
O319 C318 1.306 . S
O319 Cd320 2.228 . S
Cd320 O319 2.228 . S
Cd320 O324 2.273 . S
Cd320 O328 2.277 . S
O321 C318 1.160 . S
O321 Cd322 2.203 . S
Cd322 O321 2.203 . S
Cd322 O324 2.411 . S
Cd322 O325 2.333 . S
Cd322 O326 2.352 . S
Cd322 O330 2.277 . S
Cd322 O331 2.356 . S
C323 O328 1.209 . S
C323 O330 1.226 . S
O324 Cd320 2.273 . S
O324 Cd322 2.411 . S
O324 C327 1.320 . S
O325 Cd322 2.333 . S
O325 C327 1.214 . S
O326 Cd322 2.352 . S
O326 C329 1.258 . S
C327 O324 1.320 . S
C327 O325 1.214 . S
O328 Cd320 2.277 . S
O328 C323 1.209 . S
C329 O326 1.258 . S
C329 O331 1.282 . S
O330 Cd322 2.277 . S
O330 C323 1.226 . S
O331 Cd322 2.356 . S
O331 C329 1.282 . S
C332 O333 1.306 . S
C332 O335 1.160 . S
O333 C332 1.306 . S
O333 Cd334 2.228 . S
Cd334 O333 2.228 . S
Cd334 O338 2.273 . S
Cd334 O342 2.277 . S
O335 C332 1.160 . S
O335 Cd336 2.203 . S
Cd336 O335 2.203 . S
Cd336 O338 2.411 . S
Cd336 O339 2.333 . S
Cd336 O340 2.352 . S
Cd336 O344 2.277 . S
Cd336 O345 2.356 . S
C337 O342 1.209 . S
C337 O344 1.226 . S
O338 Cd334 2.273 . S
O338 Cd336 2.411 . S
O338 C341 1.320 . S
O339 Cd336 2.333 . S
O339 C341 1.214 . S
O340 Cd336 2.352 . S
O340 C343 1.258 . S
C341 O338 1.320 . S
C341 O339 1.214 . S
O342 Cd334 2.277 . S
O342 C337 1.209 . S
C343 O340 1.258 . S
C343 O345 1.282 . S
O344 Cd336 2.277 . S
O344 C337 1.226 . S
O345 Cd336 2.356 . S
O345 C343 1.282 . S
C346 O347 1.306 . S
C346 O349 1.160 . S
O347 C346 1.306 . S
O347 Cd348 2.228 . S
Cd348 O347 2.228 . S
Cd348 O352 2.273 . S
Cd348 O356 2.277 . S
O349 C346 1.160 . S
O349 Cd350 2.203 . S
Cd350 O349 2.203 . S
Cd350 O352 2.411 . S
Cd350 O353 2.333 . S
Cd350 O354 2.352 . S
Cd350 O358 2.277 . S
Cd350 O359 2.356 . S
C351 O356 1.209 . S
C351 O358 1.226 . S
O352 Cd348 2.273 . S
O352 Cd350 2.411 . S
O352 C355 1.320 . S
O353 Cd350 2.333 . S
O353 C355 1.214 . S
O354 Cd350 2.352 . S
O354 C357 1.258 . S
C355 O352 1.320 . S
C355 O353 1.214 . S
O356 Cd348 2.277 . S
O356 C351 1.209 . S
C357 O354 1.258 . S
C357 O359 1.282 . S
O358 Cd350 2.277 . S
O358 C351 1.226 . S
O359 Cd350 2.356 . S
O359 C357 1.282 . S
H360 C378 0.951 . S
H361 C380 0.951 . S
H362 C382 0.950 . S
H363 C383 0.950 . S
H364 C385 0.950 . S
H365 C388 0.950 . S
H366 C389 0.950 . S
H367 C391 0.950 . S
H368 C392 0.950 . S
H369 C393 0.951 . S
H370 C395 0.951 . S
H371 C397 0.950 . S
H372 C398 0.950 . S
H373 C400 0.950 . S
H374 C403 0.950 . S
H375 C404 0.950 . S
H376 C406 0.950 . S
H377 C407 0.950 . S
C378 H360 0.951 . S
C378 C379 1.366 . S
C378 C380 1.388 . S
C379 C378 1.366 . S
C379 C383 1.385 . S
C380 H361 0.951 . S
C380 C378 1.388 . S
C380 C381 1.366 . S
C381 C380 1.366 . S
C381 C382 1.414 . S
C381 C384 1.499 . S
C382 H362 0.950 . S
C382 C381 1.414 . S
C382 C383 1.374 . S
C383 H363 0.950 . S
C383 C379 1.385 . S
C383 C382 1.374 . S
C384 C381 1.499 . S
C384 C385 1.373 . S
C384 C386 1.389 . S
C385 H364 0.950 . S
C385 C384 1.373 . S
C385 C401 1.377 . S
C386 C384 1.389 . S
C386 C387 1.524 . S
C386 C400 1.377 . S
C387 C386 1.524 . S
C387 C388 1.397 . S
C387 C392 1.363 . S
C388 H365 0.950 . S
C388 C387 1.397 . S
C388 C389 1.334 . S
C389 H366 0.950 . S
C389 C388 1.334 . S
C389 C390 1.287 . S
C390 C389 1.287 . S
C390 C391 1.524 . S
C390 H409 0.913 . S
C391 H367 0.950 . S
C391 C390 1.524 . S
C391 C392 1.415 . S
C392 H368 0.950 . S
C392 C387 1.363 . S
C392 C391 1.415 . S
C393 H369 0.951 . S
C393 C394 1.366 . S
C393 C395 1.388 . S
C394 C393 1.366 . S
C394 C398 1.385 . S
C395 H370 0.951 . S
C395 C393 1.388 . S
C395 C396 1.366 . S
C396 C395 1.366 . S
C396 C397 1.414 . S
C396 C399 1.499 . S
C397 H371 0.950 . S
C397 C396 1.414 . S
C397 C398 1.374 . S
C398 H372 0.950 . S
C398 C394 1.385 . S
C398 C397 1.374 . S
C399 C396 1.499 . S
C399 C400 1.373 . S
C399 C401 1.389 . S
C400 H373 0.950 . S
C400 C386 1.377 . S
C400 C399 1.373 . S
C401 C385 1.377 . S
C401 C399 1.389 . S
C401 C402 1.524 . S
C402 C401 1.524 . S
C402 C403 1.397 . S
C402 C407 1.363 . S
C403 H374 0.950 . S
C403 C402 1.397 . S
C403 C404 1.334 . S
C404 H375 0.950 . S
C404 C403 1.334 . S
C404 C405 1.287 . S
C405 C404 1.287 . S
C405 C406 1.524 . S
C405 H408 0.999 . S
C406 H376 0.950 . S
C406 C405 1.524 . S
C406 C407 1.415 . S
C407 H377 0.950 . S
C407 C402 1.363 . S
C407 C406 1.415 . S
H408 C405 0.999 . S
H409 C390 0.913 . S
H410 C428 0.951 . S
H411 C430 0.951 . S
H412 C432 0.950 . S
H413 C433 0.950 . S
H414 C435 0.950 . S
H415 C438 0.950 . S
H416 C439 0.950 . S
H417 C441 0.950 . S
H418 C442 0.950 . S
H419 C443 0.951 . S
H420 C445 0.951 . S
H421 C447 0.950 . S
H422 C448 0.950 . S
H423 C450 0.950 . S
H424 C453 0.950 . S
H425 C454 0.950 . S
H426 C456 0.950 . S
H427 C457 0.950 . S
C428 H410 0.951 . S
C428 C429 1.366 . S
C428 C430 1.388 . S
C429 C428 1.366 . S
C429 C433 1.385 . S
C430 H411 0.951 . S
C430 C428 1.388 . S
C430 C431 1.366 . S
C431 C430 1.366 . S
C431 C432 1.414 . S
C431 C434 1.499 . S
C432 H412 0.950 . S
C432 C431 1.414 . S
C432 C433 1.374 . S
C433 H413 0.950 . S
C433 C429 1.385 . S
C433 C432 1.374 . S
C434 C431 1.499 . S
C434 C435 1.373 . S
C434 C436 1.389 . S
C435 H414 0.950 . S
C435 C434 1.373 . S
C435 C451 1.377 . S
C436 C434 1.389 . S
C436 C437 1.524 . S
C436 C450 1.377 . S
C437 C436 1.524 . S
C437 C438 1.397 . S
C437 C442 1.363 . S
C438 H415 0.950 . S
C438 C437 1.397 . S
C438 C439 1.334 . S
C439 H416 0.950 . S
C439 C438 1.334 . S
C439 C440 1.287 . S
C440 C439 1.287 . S
C440 C441 1.524 . S
C440 H459 0.913 . S
C441 H417 0.950 . S
C441 C440 1.524 . S
C441 C442 1.415 . S
C442 H418 0.950 . S
C442 C437 1.363 . S
C442 C441 1.415 . S
C443 H419 0.951 . S
C443 C444 1.366 . S
C443 C445 1.388 . S
C444 C443 1.366 . S
C444 C448 1.385 . S
C445 H420 0.951 . S
C445 C443 1.388 . S
C445 C446 1.366 . S
C446 C445 1.366 . S
C446 C447 1.414 . S
C446 C449 1.499 . S
C447 H421 0.950 . S
C447 C446 1.414 . S
C447 C448 1.374 . S
C448 H422 0.950 . S
C448 C444 1.385 . S
C448 C447 1.374 . S
C449 C446 1.499 . S
C449 C450 1.373 . S
C449 C451 1.389 . S
C450 H423 0.950 . S
C450 C436 1.377 . S
C450 C449 1.373 . S
C451 C435 1.377 . S
C451 C449 1.389 . S
C451 C452 1.524 . S
C452 C451 1.524 . S
C452 C453 1.397 . S
C452 C457 1.363 . S
C453 H424 0.950 . S
C453 C452 1.397 . S
C453 C454 1.334 . S
C454 H425 0.950 . S
C454 C453 1.334 . S
C454 C455 1.287 . S
C455 C454 1.287 . S
C455 C456 1.524 . S
C455 H458 0.999 . S
C456 H426 0.950 . S
C456 C455 1.524 . S
C456 C457 1.415 . S
C457 H427 0.950 . S
C457 C452 1.363 . S
C457 C456 1.415 . S
H458 C455 0.999 . S
H459 C440 0.913 . S
H460 C478 0.951 . S
H461 C480 0.951 . S
H462 C482 0.950 . S
H463 C483 0.950 . S
H464 C485 0.950 . S
H465 C488 0.950 . S
H466 C489 0.950 . S
H467 C491 0.950 . S
H468 C492 0.950 . S
H469 C493 0.951 . S
H470 C495 0.951 . S
H471 C497 0.950 . S
H472 C498 0.950 . S
H473 C500 0.950 . S
H474 C503 0.950 . S
H475 C504 0.950 . S
H476 C506 0.950 . S
H477 C507 0.950 . S
C478 H460 0.951 . S
C478 C479 1.366 . S
C478 C480 1.388 . S
C479 C478 1.366 . S
C479 C483 1.385 . S
C480 H461 0.951 . S
C480 C478 1.388 . S
C480 C481 1.366 . S
C481 C480 1.366 . S
C481 C482 1.414 . S
C481 C484 1.499 . S
C482 H462 0.950 . S
C482 C481 1.414 . S
C482 C483 1.374 . S
C483 H463 0.950 . S
C483 C479 1.385 . S
C483 C482 1.374 . S
C484 C481 1.499 . S
C484 C485 1.373 . S
C484 C486 1.389 . S
C485 H464 0.950 . S
C485 C484 1.373 . S
C485 C501 1.377 . S
C486 C484 1.389 . S
C486 C487 1.524 . S
C486 C500 1.377 . S
C487 C486 1.524 . S
C487 C488 1.397 . S
C487 C492 1.363 . S
C488 H465 0.950 . S
C488 C487 1.397 . S
C488 C489 1.334 . S
C489 H466 0.950 . S
C489 C488 1.334 . S
C489 C490 1.287 . S
C490 C489 1.287 . S
C490 C491 1.524 . S
C490 H509 0.913 . S
C491 H467 0.950 . S
C491 C490 1.524 . S
C491 C492 1.415 . S
C492 H468 0.950 . S
C492 C487 1.363 . S
C492 C491 1.415 . S
C493 H469 0.951 . S
C493 C494 1.366 . S
C493 C495 1.388 . S
C494 C493 1.366 . S
C494 C498 1.385 . S
C495 H470 0.951 . S
C495 C493 1.388 . S
C495 C496 1.366 . S
C496 C495 1.366 . S
C496 C497 1.414 . S
C496 C499 1.499 . S
C497 H471 0.950 . S
C497 C496 1.414 . S
C497 C498 1.374 . S
C498 H472 0.950 . S
C498 C494 1.385 . S
C498 C497 1.374 . S
C499 C496 1.499 . S
C499 C500 1.373 . S
C499 C501 1.389 . S
C500 H473 0.950 . S
C500 C486 1.377 . S
C500 C499 1.373 . S
C501 C485 1.377 . S
C501 C499 1.389 . S
C501 C502 1.524 . S
C502 C501 1.524 . S
C502 C503 1.397 . S
C502 C507 1.363 . S
C503 H474 0.950 . S
C503 C502 1.397 . S
C503 C504 1.334 . S
C504 H475 0.950 . S
C504 C503 1.334 . S
C504 C505 1.287 . S
C505 C504 1.287 . S
C505 C506 1.524 . S
C505 H508 0.999 . S
C506 H476 0.950 . S
C506 C505 1.524 . S
C506 C507 1.415 . S
C507 H477 0.950 . S
C507 C502 1.363 . S
C507 C506 1.415 . S
H508 C505 0.999 . S
H509 C490 0.913 . S
H510 C528 0.951 . S
H511 C530 0.951 . S
H512 C532 0.950 . S
H513 C533 0.950 . S
H514 C535 0.950 . S
H515 C538 0.950 . S
H516 C539 0.950 . S
H517 C541 0.950 . S
H518 C542 0.950 . S
H519 C543 0.951 . S
H520 C545 0.951 . S
H521 C547 0.950 . S
H522 C548 0.950 . S
H523 C550 0.950 . S
H524 C553 0.950 . S
H525 C554 0.950 . S
H526 C556 0.950 . S
H527 C557 0.950 . S
C528 H510 0.951 . S
C528 C529 1.366 . S
C528 C530 1.388 . S
C529 C528 1.366 . S
C529 C533 1.385 . S
C530 H511 0.951 . S
C530 C528 1.388 . S
C530 C531 1.366 . S
C531 C530 1.366 . S
C531 C532 1.414 . S
C531 C534 1.499 . S
C532 H512 0.950 . S
C532 C531 1.414 . S
C532 C533 1.374 . S
C533 H513 0.950 . S
C533 C529 1.385 . S
C533 C532 1.374 . S
C534 C531 1.499 . S
C534 C535 1.373 . S
C534 C536 1.389 . S
C535 H514 0.950 . S
C535 C534 1.373 . S
C535 C551 1.377 . S
C536 C534 1.389 . S
C536 C537 1.524 . S
C536 C550 1.377 . S
C537 C536 1.524 . S
C537 C538 1.397 . S
C537 C542 1.363 . S
C538 H515 0.950 . S
C538 C537 1.397 . S
C538 C539 1.334 . S
C539 H516 0.950 . S
C539 C538 1.334 . S
C539 C540 1.287 . S
C540 C539 1.287 . S
C540 C541 1.524 . S
C540 H559 0.913 . S
C541 H517 0.950 . S
C541 C540 1.524 . S
C541 C542 1.415 . S
C542 H518 0.950 . S
C542 C537 1.363 . S
C542 C541 1.415 . S
C543 H519 0.951 . S
C543 C544 1.366 . S
C543 C545 1.388 . S
C544 C543 1.366 . S
C544 C548 1.385 . S
C545 H520 0.951 . S
C545 C543 1.388 . S
C545 C546 1.366 . S
C546 C545 1.366 . S
C546 C547 1.414 . S
C546 C549 1.499 . S
C547 H521 0.950 . S
C547 C546 1.414 . S
C547 C548 1.374 . S
C548 H522 0.950 . S
C548 C544 1.385 . S
C548 C547 1.374 . S
C549 C546 1.499 . S
C549 C550 1.373 . S
C549 C551 1.389 . S
C550 H523 0.950 . S
C550 C536 1.377 . S
C550 C549 1.373 . S
C551 C535 1.377 . S
C551 C549 1.389 . S
C551 C552 1.524 . S
C552 C551 1.524 . S
C552 C553 1.397 . S
C552 C557 1.363 . S
C553 H524 0.950 . S
C553 C552 1.397 . S
C553 C554 1.334 . S
C554 H525 0.950 . S
C554 C553 1.334 . S
C554 C555 1.287 . S
C555 C554 1.287 . S
C555 C556 1.524 . S
C555 H558 0.999 . S
C556 H526 0.950 . S
C556 C555 1.524 . S
C556 C557 1.415 . S
C557 H527 0.950 . S
C557 C552 1.363 . S
C557 C556 1.415 . S
H558 C555 0.999 . S
H559 C540 0.913 . S
H560 C578 0.951 . S
H561 C580 0.951 . S
H562 C582 0.950 . S
H563 C583 0.950 . S
H564 C585 0.950 . S
H565 C588 0.950 . S
H566 C589 0.950 . S
H567 C591 0.950 . S
H568 C592 0.950 . S
H569 C593 0.951 . S
H570 C595 0.951 . S
H571 C597 0.950 . S
H572 C598 0.950 . S
H573 C600 0.950 . S
H574 C603 0.950 . S
H575 C604 0.950 . S
H576 C606 0.950 . S
H577 C607 0.950 . S
C578 H560 0.951 . S
C578 C579 1.366 . S
C578 C580 1.388 . S
C579 C578 1.366 . S
C579 C583 1.385 . S
C580 H561 0.951 . S
C580 C578 1.388 . S
C580 C581 1.366 . S
C581 C580 1.366 . S
C581 C582 1.414 . S
C581 C584 1.499 . S
C582 H562 0.950 . S
C582 C581 1.414 . S
C582 C583 1.374 . S
C583 H563 0.950 . S
C583 C579 1.385 . S
C583 C582 1.374 . S
C584 C581 1.499 . S
C584 C585 1.373 . S
C584 C586 1.389 . S
C585 H564 0.950 . S
C585 C584 1.373 . S
C585 C601 1.377 . S
C586 C584 1.389 . S
C586 C587 1.524 . S
C586 C600 1.377 . S
C587 C586 1.524 . S
C587 C588 1.397 . S
C587 C592 1.363 . S
C588 H565 0.950 . S
C588 C587 1.397 . S
C588 C589 1.334 . S
C589 H566 0.950 . S
C589 C588 1.334 . S
C589 C590 1.287 . S
C590 C589 1.287 . S
C590 C591 1.524 . S
C590 H609 0.913 . S
C591 H567 0.950 . S
C591 C590 1.524 . S
C591 C592 1.415 . S
C592 H568 0.950 . S
C592 C587 1.363 . S
C592 C591 1.415 . S
C593 H569 0.951 . S
C593 C594 1.366 . S
C593 C595 1.388 . S
C594 C593 1.366 . S
C594 C598 1.385 . S
C595 H570 0.951 . S
C595 C593 1.388 . S
C595 C596 1.366 . S
C596 C595 1.366 . S
C596 C597 1.414 . S
C596 C599 1.499 . S
C597 H571 0.950 . S
C597 C596 1.414 . S
C597 C598 1.374 . S
C598 H572 0.950 . S
C598 C594 1.385 . S
C598 C597 1.374 . S
C599 C596 1.499 . S
C599 C600 1.373 . S
C599 C601 1.389 . S
C600 H573 0.950 . S
C600 C586 1.377 . S
C600 C599 1.373 . S
C601 C585 1.377 . S
C601 C599 1.389 . S
C601 C602 1.524 . S
C602 C601 1.524 . S
C602 C603 1.397 . S
C602 C607 1.363 . S
C603 H574 0.950 . S
C603 C602 1.397 . S
C603 C604 1.334 . S
C604 H575 0.950 . S
C604 C603 1.334 . S
C604 C605 1.287 . S
C605 C604 1.287 . S
C605 C606 1.524 . S
C605 H608 0.999 . S
C606 H576 0.950 . S
C606 C605 1.524 . S
C606 C607 1.415 . S
C607 H577 0.950 . S
C607 C602 1.363 . S
C607 C606 1.415 . S
H608 C605 0.999 . S
H609 C590 0.913 . S
H610 C628 0.951 . S
H611 C630 0.951 . S
H612 C632 0.950 . S
H613 C633 0.950 . S
H614 C635 0.950 . S
H615 C638 0.950 . S
H616 C639 0.950 . S
H617 C641 0.950 . S
H618 C642 0.950 . S
H619 C643 0.951 . S
H620 C645 0.951 . S
H621 C647 0.950 . S
H622 C648 0.950 . S
H623 C650 0.950 . S
H624 C653 0.950 . S
H625 C654 0.950 . S
H626 C656 0.950 . S
H627 C657 0.950 . S
C628 H610 0.951 . S
C628 C629 1.366 . S
C628 C630 1.388 . S
C629 C628 1.366 . S
C629 C633 1.385 . S
C630 H611 0.951 . S
C630 C628 1.388 . S
C630 C631 1.366 . S
C631 C630 1.366 . S
C631 C632 1.414 . S
C631 C634 1.499 . S
C632 H612 0.950 . S
C632 C631 1.414 . S
C632 C633 1.374 . S
C633 H613 0.950 . S
C633 C629 1.385 . S
C633 C632 1.374 . S
C634 C631 1.499 . S
C634 C635 1.373 . S
C634 C636 1.389 . S
C635 H614 0.950 . S
C635 C634 1.373 . S
C635 C651 1.377 . S
C636 C634 1.389 . S
C636 C637 1.524 . S
C636 C650 1.377 . S
C637 C636 1.524 . S
C637 C638 1.397 . S
C637 C642 1.363 . S
C638 H615 0.950 . S
C638 C637 1.397 . S
C638 C639 1.334 . S
C639 H616 0.950 . S
C639 C638 1.334 . S
C639 C640 1.287 . S
C640 C639 1.287 . S
C640 C641 1.524 . S
C640 H659 0.913 . S
C641 H617 0.950 . S
C641 C640 1.524 . S
C641 C642 1.415 . S
C642 H618 0.950 . S
C642 C637 1.363 . S
C642 C641 1.415 . S
C643 H619 0.951 . S
C643 C644 1.366 . S
C643 C645 1.388 . S
C644 C643 1.366 . S
C644 C648 1.385 . S
C645 H620 0.951 . S
C645 C643 1.388 . S
C645 C646 1.366 . S
C646 C645 1.366 . S
C646 C647 1.414 . S
C646 C649 1.499 . S
C647 H621 0.950 . S
C647 C646 1.414 . S
C647 C648 1.374 . S
C648 H622 0.950 . S
C648 C644 1.385 . S
C648 C647 1.374 . S
C649 C646 1.499 . S
C649 C650 1.373 . S
C649 C651 1.389 . S
C650 H623 0.950 . S
C650 C636 1.377 . S
C650 C649 1.373 . S
C651 C635 1.377 . S
C651 C649 1.389 . S
C651 C652 1.524 . S
C652 C651 1.524 . S
C652 C653 1.397 . S
C652 C657 1.363 . S
C653 H624 0.950 . S
C653 C652 1.397 . S
C653 C654 1.334 . S
C654 H625 0.950 . S
C654 C653 1.334 . S
C654 C655 1.287 . S
C655 C654 1.287 . S
C655 C656 1.524 . S
C655 H658 0.999 . S
C656 H626 0.950 . S
C656 C655 1.524 . S
C656 C657 1.415 . S
C657 H627 0.950 . S
C657 C652 1.363 . S
C657 C656 1.415 . S
H658 C655 0.999 . S
H659 C640 0.913 . S
H660 C678 0.951 . S
H661 C680 0.951 . S
H662 C682 0.950 . S
H663 C683 0.950 . S
H664 C685 0.950 . S
H665 C688 0.950 . S
H666 C689 0.950 . S
H667 C691 0.950 . S
H668 C692 0.950 . S
H669 C693 0.951 . S
H670 C695 0.951 . S
H671 C697 0.950 . S
H672 C698 0.950 . S
H673 C700 0.950 . S
H674 C703 0.950 . S
H675 C704 0.950 . S
H676 C706 0.950 . S
H677 C707 0.950 . S
C678 H660 0.951 . S
C678 C679 1.366 . S
C678 C680 1.388 . S
C679 C678 1.366 . S
C679 C683 1.385 . S
C680 H661 0.951 . S
C680 C678 1.388 . S
C680 C681 1.366 . S
C681 C680 1.366 . S
C681 C682 1.414 . S
C681 C684 1.499 . S
C682 H662 0.950 . S
C682 C681 1.414 . S
C682 C683 1.374 . S
C683 H663 0.950 . S
C683 C679 1.385 . S
C683 C682 1.374 . S
C684 C681 1.499 . S
C684 C685 1.373 . S
C684 C686 1.389 . S
C685 H664 0.950 . S
C685 C684 1.373 . S
C685 C701 1.377 . S
C686 C684 1.389 . S
C686 C687 1.524 . S
C686 C700 1.377 . S
C687 C686 1.524 . S
C687 C688 1.397 . S
C687 C692 1.363 . S
C688 H665 0.950 . S
C688 C687 1.397 . S
C688 C689 1.334 . S
C689 H666 0.950 . S
C689 C688 1.334 . S
C689 C690 1.287 . S
C690 C689 1.287 . S
C690 C691 1.524 . S
C690 H709 0.913 . S
C691 H667 0.950 . S
C691 C690 1.524 . S
C691 C692 1.415 . S
C692 H668 0.950 . S
C692 C687 1.363 . S
C692 C691 1.415 . S
C693 H669 0.951 . S
C693 C694 1.366 . S
C693 C695 1.388 . S
C694 C693 1.366 . S
C694 C698 1.385 . S
C695 H670 0.951 . S
C695 C693 1.388 . S
C695 C696 1.366 . S
C696 C695 1.366 . S
C696 C697 1.414 . S
C696 C699 1.499 . S
C697 H671 0.950 . S
C697 C696 1.414 . S
C697 C698 1.374 . S
C698 H672 0.950 . S
C698 C694 1.385 . S
C698 C697 1.374 . S
C699 C696 1.499 . S
C699 C700 1.373 . S
C699 C701 1.389 . S
C700 H673 0.950 . S
C700 C686 1.377 . S
C700 C699 1.373 . S
C701 C685 1.377 . S
C701 C699 1.389 . S
C701 C702 1.524 . S
C702 C701 1.524 . S
C702 C703 1.397 . S
C702 C707 1.363 . S
C703 H674 0.950 . S
C703 C702 1.397 . S
C703 C704 1.334 . S
C704 H675 0.950 . S
C704 C703 1.334 . S
C704 C705 1.287 . S
C705 C704 1.287 . S
C705 C706 1.524 . S
C705 H708 0.999 . S
C706 H676 0.950 . S
C706 C705 1.524 . S
C706 C707 1.415 . S
C707 H677 0.950 . S
C707 C702 1.363 . S
C707 C706 1.415 . S
H708 C705 0.999 . S
H709 C690 0.913 . S
H710 C728 0.951 . S
H711 C730 0.951 . S
H712 C732 0.950 . S
H713 C733 0.950 . S
H714 C735 0.950 . S
H715 C738 0.950 . S
H716 C739 0.950 . S
H717 C741 0.950 . S
H718 C742 0.950 . S
H719 C743 0.951 . S
H720 C745 0.951 . S
H721 C747 0.950 . S
H722 C748 0.950 . S
H723 C750 0.950 . S
H724 C753 0.950 . S
H725 C754 0.950 . S
H726 C756 0.950 . S
H727 C757 0.950 . S
C728 H710 0.951 . S
C728 C729 1.366 . S
C728 C730 1.388 . S
C729 C728 1.366 . S
C729 C733 1.385 . S
C730 H711 0.951 . S
C730 C728 1.388 . S
C730 C731 1.366 . S
C731 C730 1.366 . S
C731 C732 1.414 . S
C731 C734 1.499 . S
C732 H712 0.950 . S
C732 C731 1.414 . S
C732 C733 1.374 . S
C733 H713 0.950 . S
C733 C729 1.385 . S
C733 C732 1.374 . S
C734 C731 1.499 . S
C734 C735 1.373 . S
C734 C736 1.389 . S
C735 H714 0.950 . S
C735 C734 1.373 . S
C735 C751 1.377 . S
C736 C734 1.389 . S
C736 C737 1.524 . S
C736 C750 1.377 . S
C737 C736 1.524 . S
C737 C738 1.397 . S
C737 C742 1.363 . S
C738 H715 0.950 . S
C738 C737 1.397 . S
C738 C739 1.334 . S
C739 H716 0.950 . S
C739 C738 1.334 . S
C739 C740 1.287 . S
C740 C739 1.287 . S
C740 C741 1.524 . S
C740 H759 0.913 . S
C741 H717 0.950 . S
C741 C740 1.524 . S
C741 C742 1.415 . S
C742 H718 0.950 . S
C742 C737 1.363 . S
C742 C741 1.415 . S
C743 H719 0.951 . S
C743 C744 1.366 . S
C743 C745 1.388 . S
C744 C743 1.366 . S
C744 C748 1.385 . S
C745 H720 0.951 . S
C745 C743 1.388 . S
C745 C746 1.366 . S
C746 C745 1.366 . S
C746 C747 1.414 . S
C746 C749 1.499 . S
C747 H721 0.950 . S
C747 C746 1.414 . S
C747 C748 1.374 . S
C748 H722 0.950 . S
C748 C744 1.385 . S
C748 C747 1.374 . S
C749 C746 1.499 . S
C749 C750 1.373 . S
C749 C751 1.389 . S
C750 H723 0.950 . S
C750 C736 1.377 . S
C750 C749 1.373 . S
C751 C735 1.377 . S
C751 C749 1.389 . S
C751 C752 1.524 . S
C752 C751 1.524 . S
C752 C753 1.397 . S
C752 C757 1.363 . S
C753 H724 0.950 . S
C753 C752 1.397 . S
C753 C754 1.334 . S
C754 H725 0.950 . S
C754 C753 1.334 . S
C754 C755 1.287 . S
C755 C754 1.287 . S
C755 C756 1.524 . S
C755 H758 0.999 . S
C756 H726 0.950 . S
C756 C755 1.524 . S
C756 C757 1.415 . S
C757 H727 0.950 . S
C757 C752 1.363 . S
C757 C756 1.415 . S
H758 C755 0.999 . S
H759 C740 0.913 . S
H760 C778 0.951 . S
H761 C780 0.951 . S
H762 C782 0.950 . S
H763 C783 0.950 . S
H764 C785 0.950 . S
H765 C788 0.950 . S
H766 C789 0.950 . S
H767 C791 0.950 . S
H768 C792 0.950 . S
H769 C793 0.951 . S
H770 C795 0.951 . S
H771 C797 0.950 . S
H772 C798 0.950 . S
H773 C800 0.950 . S
H774 C803 0.950 . S
H775 C804 0.950 . S
H776 C806 0.950 . S
H777 C807 0.950 . S
C778 H760 0.951 . S
C778 C779 1.366 . S
C778 C780 1.388 . S
C779 C778 1.366 . S
C779 C783 1.385 . S
C780 H761 0.951 . S
C780 C778 1.388 . S
C780 C781 1.366 . S
C781 C780 1.366 . S
C781 C782 1.414 . S
C781 C784 1.499 . S
C782 H762 0.950 . S
C782 C781 1.414 . S
C782 C783 1.374 . S
C783 H763 0.950 . S
C783 C779 1.385 . S
C783 C782 1.374 . S
C784 C781 1.499 . S
C784 C785 1.373 . S
C784 C786 1.389 . S
C785 H764 0.950 . S
C785 C784 1.373 . S
C785 C801 1.377 . S
C786 C784 1.389 . S
C786 C787 1.524 . S
C786 C800 1.377 . S
C787 C786 1.524 . S
C787 C788 1.397 . S
C787 C792 1.363 . S
C788 H765 0.950 . S
C788 C787 1.397 . S
C788 C789 1.334 . S
C789 H766 0.950 . S
C789 C788 1.334 . S
C789 C790 1.287 . S
C790 C789 1.287 . S
C790 C791 1.524 . S
C790 H809 0.913 . S
C791 H767 0.950 . S
C791 C790 1.524 . S
C791 C792 1.415 . S
C792 H768 0.950 . S
C792 C787 1.363 . S
C792 C791 1.415 . S
C793 H769 0.951 . S
C793 C794 1.366 . S
C793 C795 1.388 . S
C794 C793 1.366 . S
C794 C798 1.385 . S
C795 H770 0.951 . S
C795 C793 1.388 . S
C795 C796 1.366 . S
C796 C795 1.366 . S
C796 C797 1.414 . S
C796 C799 1.499 . S
C797 H771 0.950 . S
C797 C796 1.414 . S
C797 C798 1.374 . S
C798 H772 0.950 . S
C798 C794 1.385 . S
C798 C797 1.374 . S
C799 C796 1.499 . S
C799 C800 1.373 . S
C799 C801 1.389 . S
C800 H773 0.950 . S
C800 C786 1.377 . S
C800 C799 1.373 . S
C801 C785 1.377 . S
C801 C799 1.389 . S
C801 C802 1.524 . S
C802 C801 1.524 . S
C802 C803 1.397 . S
C802 C807 1.363 . S
C803 H774 0.950 . S
C803 C802 1.397 . S
C803 C804 1.334 . S
C804 H775 0.950 . S
C804 C803 1.334 . S
C804 C805 1.287 . S
C805 C804 1.287 . S
C805 C806 1.524 . S
C805 H808 0.999 . S
C806 H776 0.950 . S
C806 C805 1.524 . S
C806 C807 1.415 . S
C807 H777 0.950 . S
C807 C802 1.363 . S
C807 C806 1.415 . S
H808 C805 0.999 . S
H809 C790 0.913 . S
H810 C828 0.951 . S
H811 C830 0.951 . S
H812 C832 0.950 . S
H813 C833 0.950 . S
H814 C835 0.950 . S
H815 C838 0.950 . S
H816 C839 0.950 . S
H817 C841 0.950 . S
H818 C842 0.950 . S
H819 C843 0.951 . S
H820 C845 0.951 . S
H821 C847 0.950 . S
H822 C848 0.950 . S
H823 C850 0.950 . S
H824 C853 0.950 . S
H825 C854 0.950 1_556 S
H826 C856 0.950 . S
H827 C857 0.950 . S
C828 H810 0.951 . S
C828 C829 1.366 . S
C828 C830 1.388 . S
C829 C828 1.366 . S
C829 C833 1.385 . S
C830 H811 0.951 . S
C830 C828 1.388 . S
C830 C831 1.366 . S
C831 C830 1.366 . S
C831 C832 1.414 . S
C831 C834 1.499 . S
C832 H812 0.950 . S
C832 C831 1.414 . S
C832 C833 1.374 . S
C833 H813 0.950 . S
C833 C829 1.385 . S
C833 C832 1.374 . S
C834 C831 1.499 . S
C834 C835 1.373 . S
C834 C836 1.389 . S
C835 H814 0.950 . S
C835 C834 1.373 . S
C835 C851 1.377 . S
C836 C834 1.389 . S
C836 C837 1.524 . S
C836 C850 1.377 . S
C837 C836 1.524 . S
C837 C838 1.397 . S
C837 C842 1.363 . S
C838 H815 0.950 . S
C838 C837 1.397 . S
C838 C839 1.334 . S
C839 H816 0.950 . S
C839 C838 1.334 . S
C839 C840 1.287 . S
C840 C839 1.287 . S
C840 C841 1.524 . S
C840 H859 0.913 . S
C841 H817 0.950 . S
C841 C840 1.524 . S
C841 C842 1.415 . S
C842 H818 0.950 . S
C842 C837 1.363 . S
C842 C841 1.415 . S
C843 H819 0.951 . S
C843 C844 1.366 . S
C843 C845 1.388 . S
C844 C843 1.366 . S
C844 C848 1.385 . S
C845 H820 0.951 . S
C845 C843 1.388 . S
C845 C846 1.366 . S
C846 C845 1.366 . S
C846 C847 1.414 . S
C846 C849 1.499 . S
C847 H821 0.950 . S
C847 C846 1.414 . S
C847 C848 1.374 . S
C848 H822 0.950 . S
C848 C844 1.385 . S
C848 C847 1.374 . S
C849 C846 1.499 . S
C849 C850 1.373 . S
C849 C851 1.389 . S
C850 H823 0.950 . S
C850 C836 1.377 . S
C850 C849 1.373 . S
C851 C835 1.377 . S
C851 C849 1.389 . S
C851 C852 1.524 . S
C852 C851 1.524 . S
C852 C853 1.397 . S
C852 C857 1.363 . S
C853 H824 0.950 . S
C853 C852 1.397 . S
C853 C854 1.334 . S
C854 H825 0.950 1_554 S
C854 C853 1.334 . S
C854 C855 1.287 . S
C855 C854 1.287 . S
C855 C856 1.524 . S
C855 H858 0.997 1_554 S
C856 H826 0.950 . S
C856 C855 1.524 . S
C856 C857 1.415 . S
C857 H827 0.950 . S
C857 C852 1.363 . S
C857 C856 1.415 . S
H858 C855 0.997 1_556 S
H859 C840 0.913 . S
H860 C878 0.951 . S
H861 C880 0.951 . S
H862 C882 0.950 . S
H863 C883 0.950 . S
H864 C885 0.950 . S
H865 C888 0.950 . S
H866 C889 0.950 . S
H867 C891 0.950 . S
H868 C892 0.950 . S
H869 C893 0.951 . S
H870 C895 0.951 . S
H871 C897 0.950 . S
H872 C898 0.950 . S
H873 C900 0.950 . S
H874 C903 0.950 . S
H875 C904 0.950 . S
H876 C906 0.950 . S
H877 C907 0.950 . S
C878 H860 0.951 . S
C878 C879 1.366 . S
C878 C880 1.388 . S
C879 C878 1.366 . S
C879 C883 1.385 . S
C880 H861 0.951 . S
C880 C878 1.388 . S
C880 C881 1.366 . S
C881 C880 1.366 . S
C881 C882 1.414 . S
C881 C884 1.499 . S
C882 H862 0.950 . S
C882 C881 1.414 . S
C882 C883 1.374 . S
C883 H863 0.950 . S
C883 C879 1.385 . S
C883 C882 1.374 . S
C884 C881 1.499 . S
C884 C885 1.373 . S
C884 C886 1.389 . S
C885 H864 0.950 . S
C885 C884 1.373 . S
C885 C901 1.377 . S
C886 C884 1.389 . S
C886 C887 1.524 . S
C886 C900 1.377 . S
C887 C886 1.524 . S
C887 C888 1.397 . S
C887 C892 1.363 . S
C888 H865 0.950 . S
C888 C887 1.397 . S
C888 C889 1.334 . S
C889 H866 0.950 . S
C889 C888 1.334 . S
C889 C890 1.287 . S
C890 C889 1.287 . S
C890 C891 1.524 . S
C890 H909 0.913 . S
C891 H867 0.950 . S
C891 C890 1.524 . S
C891 C892 1.415 . S
C892 H868 0.950 . S
C892 C887 1.363 . S
C892 C891 1.415 . S
C893 H869 0.951 . S
C893 C894 1.366 . S
C893 C895 1.388 . S
C894 C893 1.366 . S
C894 C898 1.385 . S
C895 H870 0.951 . S
C895 C893 1.388 . S
C895 C896 1.366 . S
C896 C895 1.366 . S
C896 C897 1.414 . S
C896 C899 1.499 . S
C897 H871 0.950 . S
C897 C896 1.414 . S
C897 C898 1.374 . S
C898 H872 0.950 . S
C898 C894 1.385 . S
C898 C897 1.374 . S
C899 C896 1.499 . S
C899 C900 1.373 . S
C899 C901 1.389 . S
C900 H873 0.950 . S
C900 C886 1.377 . S
C900 C899 1.373 . S
C901 C885 1.377 . S
C901 C899 1.389 . S
C901 C902 1.524 . S
C902 C901 1.524 . S
C902 C903 1.397 . S
C902 C907 1.363 . S
C903 H874 0.950 . S
C903 C902 1.397 . S
C903 C904 1.334 . S
C904 H875 0.950 . S
C904 C903 1.334 . S
C904 C905 1.287 . S
C905 C904 1.287 . S
C905 C906 1.524 . S
C905 H908 0.999 . S
C906 H876 0.950 . S
C906 C905 1.524 . S
C906 C907 1.415 . S
C907 H877 0.950 . S
C907 C902 1.363 . S
C907 C906 1.415 . S
H908 C905 0.999 . S
H909 C890 0.913 . S
H910 C928 0.951 . S
H911 C930 0.951 . S
H912 C932 0.950 . S
H913 C933 0.950 . S
H914 C935 0.950 . S
H915 C938 0.950 . S
H916 C939 0.950 . S
H917 C941 0.950 . S
H918 C942 0.950 . S
H919 C943 0.951 . S
H920 C945 0.951 . S
H921 C947 0.950 . S
H922 C948 0.950 . S
H923 C950 0.950 . S
H924 C953 0.950 . S
H925 C954 0.950 . S
H926 C956 0.950 . S
H927 C957 0.950 . S
C928 H910 0.951 . S
C928 C929 1.366 . S
C928 C930 1.388 . S
C929 C928 1.366 . S
C929 C933 1.385 . S
C930 H911 0.951 . S
C930 C928 1.388 . S
C930 C931 1.366 . S
C931 C930 1.366 . S
C931 C932 1.414 . S
C931 C934 1.499 . S
C932 H912 0.950 . S
C932 C931 1.414 . S
C932 C933 1.374 . S
C933 H913 0.950 . S
C933 C929 1.385 . S
C933 C932 1.374 . S
C934 C931 1.499 . S
C934 C935 1.373 . S
C934 C936 1.389 . S
C935 H914 0.950 . S
C935 C934 1.373 . S
C935 C951 1.377 . S
C936 C934 1.389 . S
C936 C937 1.524 . S
C936 C950 1.377 . S
C937 C936 1.524 . S
C937 C938 1.397 . S
C937 C942 1.363 . S
C938 H915 0.950 . S
C938 C937 1.397 . S
C938 C939 1.334 . S
C939 H916 0.950 . S
C939 C938 1.334 . S
C939 C940 1.287 . S
C940 C939 1.287 . S
C940 C941 1.524 . S
C940 H959 0.913 . S
C941 H917 0.950 . S
C941 C940 1.524 . S
C941 C942 1.415 . S
C942 H918 0.950 . S
C942 C937 1.363 . S
C942 C941 1.415 . S
C943 H919 0.951 . S
C943 C944 1.366 . S
C943 C945 1.388 . S
C944 C943 1.366 . S
C944 C948 1.385 . S
C945 H920 0.951 . S
C945 C943 1.388 . S
C945 C946 1.366 . S
C946 C945 1.366 . S
C946 C947 1.414 . S
C946 C949 1.499 . S
C947 H921 0.950 . S
C947 C946 1.414 . S
C947 C948 1.374 . S
C948 H922 0.950 . S
C948 C944 1.385 . S
C948 C947 1.374 . S
C949 C946 1.499 . S
C949 C950 1.373 . S
C949 C951 1.389 . S
C950 H923 0.950 . S
C950 C936 1.377 . S
C950 C949 1.373 . S
C951 C935 1.377 . S
C951 C949 1.389 . S
C951 C952 1.524 . S
C952 C951 1.524 . S
C952 C953 1.397 . S
C952 C957 1.363 . S
C953 H924 0.950 . S
C953 C952 1.397 . S
C953 C954 1.334 . S
C954 H925 0.950 . S
C954 C953 1.334 . S
C954 C955 1.287 . S
C955 C954 1.287 . S
C955 C956 1.524 . S
C955 H958 0.999 . S
C956 H926 0.950 . S
C956 C955 1.524 . S
C956 C957 1.415 . S
C957 H927 0.950 . S
C957 C952 1.363 . S
C957 C956 1.415 . S
H958 C955 0.999 . S
H959 C940 0.913 . S
H960 C978 0.951 . S
H961 C980 0.951 . S
H962 C982 0.950 . S
H963 C983 0.950 . S
H964 C985 0.950 . S
H965 C988 0.950 . S
H966 C989 0.950 . S
H967 C991 0.950 . S
H968 C992 0.950 . S
H969 C993 0.951 . S
H970 C995 0.951 . S
H971 C997 0.950 . S
H972 C998 0.950 . S
H973 C1000 0.950 . S
H974 C1003 0.950 . S
H975 C1004 0.950 . S
H976 C1006 0.950 . S
H977 C1007 0.950 . S
C978 H960 0.951 . S
C978 C979 1.366 . S
C978 C980 1.388 . S
C979 C978 1.366 . S
C979 C983 1.385 . S
C980 H961 0.951 . S
C980 C978 1.388 . S
C980 C981 1.366 . S
C981 C980 1.366 . S
C981 C982 1.414 . S
C981 C984 1.499 . S
C982 H962 0.950 . S
C982 C981 1.414 . S
C982 C983 1.374 . S
C983 H963 0.950 . S
C983 C979 1.385 . S
C983 C982 1.374 . S
C984 C981 1.499 . S
C984 C985 1.373 . S
C984 C986 1.389 . S
C985 H964 0.950 . S
C985 C984 1.373 . S
C985 C1001 1.377 . S
C986 C984 1.389 . S
C986 C987 1.524 . S
C986 C1000 1.377 . S
C987 C986 1.524 . S
C987 C988 1.397 . S
C987 C992 1.363 . S
C988 H965 0.950 . S
C988 C987 1.397 . S
C988 C989 1.334 . S
C989 H966 0.950 . S
C989 C988 1.334 . S
C989 C990 1.287 . S
C990 C989 1.287 . S
C990 C991 1.524 . S
C990 H1009 0.913 . S
C991 H967 0.950 . S
C991 C990 1.524 . S
C991 C992 1.415 . S
C992 H968 0.950 . S
C992 C987 1.363 . S
C992 C991 1.415 . S
C993 H969 0.951 . S
C993 C994 1.366 . S
C993 C995 1.388 . S
C994 C993 1.366 . S
C994 C998 1.385 . S
C995 H970 0.951 . S
C995 C993 1.388 . S
C995 C996 1.366 . S
C996 C995 1.366 . S
C996 C997 1.414 . S
C996 C999 1.499 . S
C997 H971 0.950 . S
C997 C996 1.414 . S
C997 C998 1.374 . S
C998 H972 0.950 . S
C998 C994 1.385 . S
C998 C997 1.374 . S
C999 C996 1.499 . S
C999 C1000 1.373 . S
C999 C1001 1.389 . S
C1000 H973 0.950 . S
C1000 C986 1.377 . S
C1000 C999 1.373 . S
C1001 C985 1.377 . S
C1001 C999 1.389 . S
C1001 C1002 1.524 . S
C1002 C1001 1.524 . S
C1002 C1003 1.397 . S
C1002 C1007 1.363 . S
C1003 H974 0.950 . S
C1003 C1002 1.397 . S
C1003 C1004 1.334 . S
C1004 H975 0.950 . S
C1004 C1003 1.334 . S
C1004 C1005 1.287 . S
C1005 C1004 1.287 . S
C1005 C1006 1.524 . S
C1005 H1008 0.999 . S
C1006 H976 0.950 . S
C1006 C1005 1.524 . S
C1006 C1007 1.415 . S
C1007 H977 0.950 . S
C1007 C1002 1.363 . S
C1007 C1006 1.415 . S
H1008 C1005 0.999 . S
H1009 C990 0.913 . S
H1010 C1028 0.951 . S
H1011 C1030 0.951 . S
H1012 C1032 0.950 . S
H1013 C1033 0.950 . S
H1014 C1035 0.950 . S
H1015 C1038 0.950 . S
H1016 C1039 0.950 . S
H1017 C1041 0.950 . S
H1018 C1042 0.950 . S
H1019 C1043 0.951 . S
H1020 C1045 0.951 . S
H1021 C1047 0.950 . S
H1022 C1048 0.950 . S
H1023 C1050 0.950 . S
H1024 C1053 0.950 . S
H1025 C1054 0.950 . S
H1026 C1056 0.950 . S
H1027 C1057 0.950 . S
C1028 H1010 0.951 . S
C1028 C1029 1.366 . S
C1028 C1030 1.388 . S
C1029 C1028 1.366 . S
C1029 C1033 1.385 . S
C1030 H1011 0.951 . S
C1030 C1028 1.388 . S
C1030 C1031 1.366 . S
C1031 C1030 1.366 . S
C1031 C1032 1.414 . S
C1031 C1034 1.499 . S
C1032 H1012 0.950 . S
C1032 C1031 1.414 . S
C1032 C1033 1.374 . S
C1033 H1013 0.950 . S
C1033 C1029 1.385 . S
C1033 C1032 1.374 . S
C1034 C1031 1.499 . S
C1034 C1035 1.373 . S
C1034 C1036 1.389 . S
C1035 H1014 0.950 . S
C1035 C1034 1.373 . S
C1035 C1051 1.377 . S
C1036 C1034 1.389 . S
C1036 C1037 1.524 . S
C1036 C1050 1.377 . S
C1037 C1036 1.524 . S
C1037 C1038 1.397 . S
C1037 C1042 1.363 . S
C1038 H1015 0.950 . S
C1038 C1037 1.397 . S
C1038 C1039 1.334 . S
C1039 H1016 0.950 . S
C1039 C1038 1.334 . S
C1039 C1040 1.287 . S
C1040 C1039 1.287 . S
C1040 C1041 1.524 . S
C1040 H1059 0.913 . S
C1041 H1017 0.950 . S
C1041 C1040 1.524 . S
C1041 C1042 1.415 . S
C1042 H1018 0.950 . S
C1042 C1037 1.363 . S
C1042 C1041 1.415 . S
C1043 H1019 0.951 . S
C1043 C1044 1.366 . S
C1043 C1045 1.388 . S
C1044 C1043 1.366 . S
C1044 C1048 1.385 . S
C1045 H1020 0.951 . S
C1045 C1043 1.388 . S
C1045 C1046 1.366 . S
C1046 C1045 1.366 . S
C1046 C1047 1.414 . S
C1046 C1049 1.499 . S
C1047 H1021 0.950 . S
C1047 C1046 1.414 . S
C1047 C1048 1.374 . S
C1048 H1022 0.950 . S
C1048 C1044 1.385 . S
C1048 C1047 1.374 . S
C1049 C1046 1.499 . S
C1049 C1050 1.373 . S
C1049 C1051 1.389 . S
C1050 H1023 0.950 . S
C1050 C1036 1.377 . S
C1050 C1049 1.373 . S
C1051 C1035 1.377 . S
C1051 C1049 1.389 . S
C1051 C1052 1.524 . S
C1052 C1051 1.524 . S
C1052 C1053 1.397 . S
C1052 C1057 1.363 . S
C1053 H1024 0.950 . S
C1053 C1052 1.397 . S
C1053 C1054 1.334 . S
C1054 H1025 0.950 . S
C1054 C1053 1.334 . S
C1054 C1055 1.287 . S
C1055 C1054 1.287 . S
C1055 C1056 1.524 . S
C1055 H1058 0.999 . S
C1056 H1026 0.950 . S
C1056 C1055 1.524 . S
C1056 C1057 1.415 . S
C1057 H1027 0.950 . S
C1057 C1052 1.363 . S
C1057 C1056 1.415 . S
H1058 C1055 0.999 . S
H1059 C1040 0.913 . S
H1060 C1078 0.951 . S
H1061 C1080 0.951 . S
H1062 C1082 0.950 . S
H1063 C1083 0.950 . S
H1064 C1085 0.950 . S
H1065 C1088 0.950 . S
H1066 C1089 0.950 . S
H1067 C1091 0.950 . S
H1068 C1092 0.950 . S
H1069 C1093 0.951 . S
H1070 C1095 0.951 . S
H1071 C1097 0.950 . S
H1072 C1098 0.950 . S
H1073 C1100 0.950 . S
H1074 C1103 0.950 . S
H1075 C1104 0.950 . S
H1076 C1106 0.950 . S
H1077 C1107 0.950 . S
C1078 H1060 0.951 . S
C1078 C1079 1.366 . S
C1078 C1080 1.388 . S
C1079 C1078 1.366 . S
C1079 C1083 1.385 . S
C1080 H1061 0.951 . S
C1080 C1078 1.388 . S
C1080 C1081 1.366 . S
C1081 C1080 1.366 . S
C1081 C1082 1.414 . S
C1081 C1084 1.499 . S
C1082 H1062 0.950 . S
C1082 C1081 1.414 . S
C1082 C1083 1.374 . S
C1083 H1063 0.950 . S
C1083 C1079 1.385 . S
C1083 C1082 1.374 . S
C1084 C1081 1.499 . S
C1084 C1085 1.373 . S
C1084 C1086 1.389 . S
C1085 H1064 0.950 . S
C1085 C1084 1.373 . S
C1085 C1101 1.377 . S
C1086 C1084 1.389 . S
C1086 C1087 1.524 . S
C1086 C1100 1.377 . S
C1087 C1086 1.524 . S
C1087 C1088 1.397 . S
C1087 C1092 1.363 . S
C1088 H1065 0.950 . S
C1088 C1087 1.397 . S
C1088 C1089 1.334 . S
C1089 H1066 0.950 . S
C1089 C1088 1.334 . S
C1089 C1090 1.287 . S
C1090 C1089 1.287 . S
C1090 C1091 1.524 . S
C1090 H1109 0.913 . S
C1091 H1067 0.950 . S
C1091 C1090 1.524 . S
C1091 C1092 1.415 . S
C1092 H1068 0.950 . S
C1092 C1087 1.363 . S
C1092 C1091 1.415 . S
C1093 H1069 0.951 . S
C1093 C1094 1.366 . S
C1093 C1095 1.388 . S
C1094 C1093 1.366 . S
C1094 C1098 1.385 . S
C1095 H1070 0.951 . S
C1095 C1093 1.388 . S
C1095 C1096 1.366 . S
C1096 C1095 1.366 . S
C1096 C1097 1.414 . S
C1096 C1099 1.499 . S
C1097 H1071 0.950 . S
C1097 C1096 1.414 . S
C1097 C1098 1.374 . S
C1098 H1072 0.950 . S
C1098 C1094 1.385 . S
C1098 C1097 1.374 . S
C1099 C1096 1.499 . S
C1099 C1100 1.373 . S
C1099 C1101 1.389 . S
C1100 H1073 0.950 . S
C1100 C1086 1.377 . S
C1100 C1099 1.373 . S
C1101 C1085 1.377 . S
C1101 C1099 1.389 . S
C1101 C1102 1.524 . S
C1102 C1101 1.524 . S
C1102 C1103 1.397 . S
C1102 C1107 1.363 . S
C1103 H1074 0.950 . S
C1103 C1102 1.397 . S
C1103 C1104 1.334 . S
C1104 H1075 0.950 . S
C1104 C1103 1.334 . S
C1104 C1105 1.287 . S
C1105 C1104 1.287 . S
C1105 C1106 1.524 . S
C1105 H1108 0.999 . S
C1106 H1076 0.950 . S
C1106 C1105 1.524 . S
C1106 C1107 1.415 . S
C1107 H1077 0.950 . S
C1107 C1102 1.363 . S
C1107 C1106 1.415 . S
H1108 C1105 0.999 . S
H1109 C1090 0.913 . S
H1110 C1128 0.951 . S
H1111 C1130 0.951 . S
H1112 C1132 0.950 . S
H1113 C1133 0.950 . S
H1114 C1135 0.950 . S
H1115 C1138 0.950 . S
H1116 C1139 0.950 . S
H1117 C1141 0.950 . S
H1118 C1142 0.950 . S
H1119 C1143 0.951 . S
H1120 C1145 0.951 1_556 S
H1121 C1147 0.950 . S
H1122 C1148 0.950 . S
H1123 C1150 0.950 . S
H1124 C1153 0.950 1_554 S
H1125 C1154 0.950 . S
H1126 C1156 0.950 . S
H1127 C1157 0.950 . S
C1128 H1110 0.951 . S
C1128 C1129 1.366 . S
C1128 C1130 1.388 . S
C1129 C1128 1.366 . S
C1129 C1133 1.385 . S
C1130 H1111 0.951 . S
C1130 C1128 1.388 . S
C1130 C1131 1.366 . S
C1131 C1130 1.366 . S
C1131 C1132 1.414 . S
C1131 C1134 1.499 . S
C1132 H1112 0.950 . S
C1132 C1131 1.414 . S
C1132 C1133 1.374 . S
C1133 H1113 0.950 . S
C1133 C1129 1.385 . S
C1133 C1132 1.374 . S
C1134 C1131 1.499 . S
C1134 C1135 1.373 . S
C1134 C1136 1.389 . S
C1135 H1114 0.950 . S
C1135 C1134 1.373 . S
C1135 C1151 1.377 . S
C1136 C1134 1.389 . S
C1136 C1137 1.524 . S
C1136 C1150 1.377 . S
C1137 C1136 1.524 . S
C1137 C1138 1.397 . S
C1137 C1142 1.363 . S
C1138 H1115 0.950 . S
C1138 C1137 1.397 . S
C1138 C1139 1.334 . S
C1139 H1116 0.950 . S
C1139 C1138 1.334 . S
C1139 C1140 1.287 . S
C1140 C1139 1.287 . S
C1140 C1141 1.524 . S
C1140 H1159 0.913 . S
C1141 H1117 0.950 . S
C1141 C1140 1.524 . S
C1141 C1142 1.415 . S
C1142 H1118 0.950 . S
C1142 C1137 1.363 . S
C1142 C1141 1.415 . S
C1143 H1119 0.951 . S
C1143 C1144 1.366 . S
C1143 C1145 1.388 . S
C1144 C1143 1.366 . S
C1144 C1148 1.385 . S
C1145 H1120 0.951 1_554 S
C1145 C1143 1.388 . S
C1145 C1146 1.366 . S
C1146 C1145 1.366 . S
C1146 C1147 1.414 . S
C1146 C1149 1.499 1_554 S
C1147 H1121 0.950 . S
C1147 C1146 1.414 . S
C1147 C1148 1.374 . S
C1148 H1122 0.950 . S
C1148 C1144 1.385 . S
C1148 C1147 1.374 . S
C1149 C1146 1.499 1_556 S
C1149 C1150 1.373 . S
C1149 C1151 1.389 . S
C1150 H1123 0.950 . S
C1150 C1136 1.377 . S
C1150 C1149 1.373 . S
C1151 C1135 1.377 . S
C1151 C1149 1.389 . S
C1151 C1152 1.524 . S
C1152 C1151 1.524 . S
C1152 C1153 1.397 . S
C1152 C1157 1.363 . S
C1153 H1124 0.950 1_556 S
C1153 C1152 1.397 . S
C1153 C1154 1.334 1_556 S
C1154 H1125 0.950 . S
C1154 C1153 1.334 1_554 S
C1154 C1155 1.287 1_554 S
C1155 C1154 1.287 1_556 S
C1155 C1156 1.524 . S
C1155 H1158 0.999 . S
C1156 H1126 0.950 . S
C1156 C1155 1.524 . S
C1156 C1157 1.415 . S
C1157 H1127 0.950 . S
C1157 C1152 1.363 . S
C1157 C1156 1.415 . S
H1158 C1155 0.999 . S
H1159 C1140 0.913 . S
H1160 C1178 0.951 . S
H1161 C1180 0.951 . S
H1162 C1182 0.950 . S
H1163 C1183 0.950 . S
H1164 C1185 0.950 . S
H1165 C1188 0.950 . S
H1166 C1189 0.950 . S
H1167 C1191 0.950 . S
H1168 C1192 0.950 . S
H1169 C1193 0.951 . S
H1170 C1195 0.951 . S
H1171 C1197 0.950 . S
H1172 C1198 0.950 . S
H1173 C1200 0.950 . S
H1174 C1203 0.950 . S
H1175 C1204 0.950 . S
H1176 C1206 0.950 . S
H1177 C1207 0.950 . S
C1178 H1160 0.951 . S
C1178 C1179 1.366 . S
C1178 C1180 1.388 . S
C1179 C1178 1.366 . S
C1179 C1183 1.385 . S
C1180 H1161 0.951 . S
C1180 C1178 1.388 . S
C1180 C1181 1.366 . S
C1181 C1180 1.366 . S
C1181 C1182 1.414 . S
C1181 C1184 1.499 . S
C1182 H1162 0.950 . S
C1182 C1181 1.414 . S
C1182 C1183 1.374 . S
C1183 H1163 0.950 . S
C1183 C1179 1.385 . S
C1183 C1182 1.374 . S
C1184 C1181 1.499 . S
C1184 C1185 1.373 . S
C1184 C1186 1.389 . S
C1185 H1164 0.950 . S
C1185 C1184 1.373 . S
C1185 C1201 1.377 . S
C1186 C1184 1.389 . S
C1186 C1187 1.524 . S
C1186 C1200 1.377 . S
C1187 C1186 1.524 . S
C1187 C1188 1.397 . S
C1187 C1192 1.363 . S
C1188 H1165 0.950 . S
C1188 C1187 1.397 . S
C1188 C1189 1.334 . S
C1189 H1166 0.950 . S
C1189 C1188 1.334 . S
C1189 C1190 1.287 . S
C1190 C1189 1.287 . S
C1190 C1191 1.524 . S
C1190 H1209 0.913 . S
C1191 H1167 0.950 . S
C1191 C1190 1.524 . S
C1191 C1192 1.415 . S
C1192 H1168 0.950 . S
C1192 C1187 1.363 . S
C1192 C1191 1.415 . S
C1193 H1169 0.951 . S
C1193 C1194 1.366 . S
C1193 C1195 1.388 . S
C1194 C1193 1.366 . S
C1194 C1198 1.385 . S
C1195 H1170 0.951 . S
C1195 C1193 1.388 . S
C1195 C1196 1.366 . S
C1196 C1195 1.366 . S
C1196 C1197 1.414 . S
C1196 C1199 1.499 . S
C1197 H1171 0.950 . S
C1197 C1196 1.414 . S
C1197 C1198 1.374 . S
C1198 H1172 0.950 . S
C1198 C1194 1.385 . S
C1198 C1197 1.374 . S
C1199 C1196 1.499 . S
C1199 C1200 1.373 . S
C1199 C1201 1.389 . S
C1200 H1173 0.950 . S
C1200 C1186 1.377 . S
C1200 C1199 1.373 . S
C1201 C1185 1.377 . S
C1201 C1199 1.389 . S
C1201 C1202 1.524 . S
C1202 C1201 1.524 . S
C1202 C1203 1.397 . S
C1202 C1207 1.363 . S
C1203 H1174 0.950 . S
C1203 C1202 1.397 . S
C1203 C1204 1.334 . S
C1204 H1175 0.950 . S
C1204 C1203 1.334 . S
C1204 C1205 1.287 . S
C1205 C1204 1.287 . S
C1205 C1206 1.524 . S
C1205 H1208 0.999 . S
C1206 H1176 0.950 . S
C1206 C1205 1.524 . S
C1206 C1207 1.415 . S
C1207 H1177 0.950 . S
C1207 C1202 1.363 . S
C1207 C1206 1.415 . S
H1208 C1205 0.999 . S
H1209 C1190 0.913 . S
H1210 C1228 0.951 . S
H1211 C1230 0.951 . S
H1212 C1232 0.950 . S
H1213 C1233 0.950 . S
H1214 C1235 0.950 . S
H1215 C1238 0.950 . S
H1216 C1239 0.950 . S
H1217 C1241 0.950 . S
H1218 C1242 0.950 . S
H1219 C1243 0.951 . S
H1220 C1245 0.951 . S
H1221 C1247 0.950 . S
H1222 C1248 0.950 . S
H1223 C1250 0.950 . S
H1224 C1253 0.950 . S
H1225 C1254 0.950 . S
H1226 C1256 0.950 . S
H1227 C1257 0.950 . S
C1228 H1210 0.951 . S
C1228 C1229 1.366 . S
C1228 C1230 1.388 . S
C1229 C1228 1.366 . S
C1229 C1233 1.385 . S
C1230 H1211 0.951 . S
C1230 C1228 1.388 . S
C1230 C1231 1.366 . S
C1231 C1230 1.366 . S
C1231 C1232 1.414 . S
C1231 C1234 1.499 . S
C1232 H1212 0.950 . S
C1232 C1231 1.414 . S
C1232 C1233 1.374 . S
C1233 H1213 0.950 . S
C1233 C1229 1.385 . S
C1233 C1232 1.374 . S
C1234 C1231 1.499 . S
C1234 C1235 1.373 . S
C1234 C1236 1.389 . S
C1235 H1214 0.950 . S
C1235 C1234 1.373 . S
C1235 C1251 1.377 . S
C1236 C1234 1.389 . S
C1236 C1237 1.524 . S
C1236 C1250 1.377 . S
C1237 C1236 1.524 . S
C1237 C1238 1.397 . S
C1237 C1242 1.363 . S
C1238 H1215 0.950 . S
C1238 C1237 1.397 . S
C1238 C1239 1.334 . S
C1239 H1216 0.950 . S
C1239 C1238 1.334 . S
C1239 C1240 1.287 . S
C1240 C1239 1.287 . S
C1240 C1241 1.524 . S
C1240 H1259 0.913 . S
C1241 H1217 0.950 . S
C1241 C1240 1.524 . S
C1241 C1242 1.415 . S
C1242 H1218 0.950 . S
C1242 C1237 1.363 . S
C1242 C1241 1.415 . S
C1243 H1219 0.951 . S
C1243 C1244 1.366 . S
C1243 C1245 1.388 . S
C1244 C1243 1.366 . S
C1244 C1248 1.385 . S
C1245 H1220 0.951 . S
C1245 C1243 1.388 . S
C1245 C1246 1.366 . S
C1246 C1245 1.366 . S
C1246 C1247 1.414 . S
C1246 C1249 1.499 . S
C1247 H1221 0.950 . S
C1247 C1246 1.414 . S
C1247 C1248 1.374 . S
C1248 H1222 0.950 . S
C1248 C1244 1.385 . S
C1248 C1247 1.374 . S
C1249 C1246 1.499 . S
C1249 C1250 1.373 . S
C1249 C1251 1.389 . S
C1250 H1223 0.950 . S
C1250 C1236 1.377 . S
C1250 C1249 1.373 . S
C1251 C1235 1.377 . S
C1251 C1249 1.389 . S
C1251 C1252 1.524 . S
C1252 C1251 1.524 . S
C1252 C1253 1.397 . S
C1252 C1257 1.363 . S
C1253 H1224 0.950 . S
C1253 C1252 1.397 . S
C1253 C1254 1.334 . S
C1254 H1225 0.950 . S
C1254 C1253 1.334 . S
C1254 C1255 1.287 . S
C1255 C1254 1.287 . S
C1255 C1256 1.524 . S
C1255 H1258 0.999 . S
C1256 H1226 0.950 . S
C1256 C1255 1.524 . S
C1256 C1257 1.415 . S
C1257 H1227 0.950 . S
C1257 C1252 1.363 . S
C1257 C1256 1.415 . S
H1258 C1255 0.999 . S
H1259 C1240 0.913 . S
H1260 C1278 0.951 . S
H1261 C1280 0.951 . S
H1262 C1282 0.950 . S
H1263 C1283 0.950 . S
H1264 C1285 0.950 . S
H1265 C1288 0.950 . S
H1266 C1289 0.950 . S
H1267 C1291 0.950 . S
H1268 C1292 0.950 . S
H1269 C1293 0.951 . S
H1270 C1295 0.951 . S
H1271 C1297 0.950 . S
H1272 C1298 0.950 . S
H1273 C1300 0.950 . S
H1274 C1303 0.950 . S
H1275 C1304 0.950 . S
H1276 C1306 0.950 . S
H1277 C1307 0.950 . S
C1278 H1260 0.951 . S
C1278 C1279 1.366 . S
C1278 C1280 1.388 . S
C1279 C1278 1.366 . S
C1279 C1283 1.385 . S
C1280 H1261 0.951 . S
C1280 C1278 1.388 . S
C1280 C1281 1.366 . S
C1281 C1280 1.366 . S
C1281 C1282 1.414 . S
C1281 C1284 1.499 . S
C1282 H1262 0.950 . S
C1282 C1281 1.414 . S
C1282 C1283 1.374 . S
C1283 H1263 0.950 . S
C1283 C1279 1.385 . S
C1283 C1282 1.374 . S
C1284 C1281 1.499 . S
C1284 C1285 1.373 . S
C1284 C1286 1.389 . S
C1285 H1264 0.950 . S
C1285 C1284 1.373 . S
C1285 C1301 1.377 . S
C1286 C1284 1.389 . S
C1286 C1287 1.524 . S
C1286 C1300 1.377 . S
C1287 C1286 1.524 . S
C1287 C1288 1.397 . S
C1287 C1292 1.363 . S
C1288 H1265 0.950 . S
C1288 C1287 1.397 . S
C1288 C1289 1.334 . S
C1289 H1266 0.950 . S
C1289 C1288 1.334 . S
C1289 C1290 1.287 . S
C1290 C1289 1.287 . S
C1290 C1291 1.524 . S
C1290 H1309 0.913 . S
C1291 H1267 0.950 . S
C1291 C1290 1.524 . S
C1291 C1292 1.415 . S
C1292 H1268 0.950 . S
C1292 C1287 1.363 . S
C1292 C1291 1.415 . S
C1293 H1269 0.951 . S
C1293 C1294 1.366 . S
C1293 C1295 1.388 . S
C1294 C1293 1.366 . S
C1294 C1298 1.385 . S
C1295 H1270 0.951 . S
C1295 C1293 1.388 . S
C1295 C1296 1.366 . S
C1296 C1295 1.366 . S
C1296 C1297 1.414 . S
C1296 C1299 1.499 . S
C1297 H1271 0.950 . S
C1297 C1296 1.414 . S
C1297 C1298 1.374 . S
C1298 H1272 0.950 . S
C1298 C1294 1.385 . S
C1298 C1297 1.374 . S
C1299 C1296 1.499 . S
C1299 C1300 1.373 . S
C1299 C1301 1.389 . S
C1300 H1273 0.950 . S
C1300 C1286 1.377 . S
C1300 C1299 1.373 . S
C1301 C1285 1.377 . S
C1301 C1299 1.389 . S
C1301 C1302 1.524 . S
C1302 C1301 1.524 . S
C1302 C1303 1.397 . S
C1302 C1307 1.363 . S
C1303 H1274 0.950 . S
C1303 C1302 1.397 . S
C1303 C1304 1.334 . S
C1304 H1275 0.950 . S
C1304 C1303 1.334 . S
C1304 C1305 1.287 . S
C1305 C1304 1.287 . S
C1305 C1306 1.524 . S
C1305 H1308 0.999 . S
C1306 H1276 0.950 . S
C1306 C1305 1.524 . S
C1306 C1307 1.415 . S
C1307 H1277 0.950 . S
C1307 C1302 1.363 . S
C1307 C1306 1.415 . S
H1308 C1305 0.999 . S
H1309 C1290 0.913 . S
H1310 C1328 0.951 . S
H1311 C1330 0.951 . S
H1312 C1332 0.950 . S
H1313 C1333 0.950 . S
H1314 C1335 0.950 . S
H1315 C1338 0.950 . S
H1316 C1339 0.950 . S
H1317 C1341 0.950 . S
H1318 C1342 0.950 . S
H1319 C1343 0.951 . S
H1320 C1345 0.951 . S
H1321 C1347 0.950 . S
H1322 C1348 0.950 . S
H1323 C1350 0.950 . S
H1324 C1353 0.950 . S
H1325 C1354 0.950 . S
H1326 C1356 0.950 . S
H1327 C1357 0.950 . S
C1328 H1310 0.951 . S
C1328 C1329 1.366 . S
C1328 C1330 1.388 . S
C1329 C1328 1.366 . S
C1329 C1333 1.385 . S
C1330 H1311 0.951 . S
C1330 C1328 1.388 . S
C1330 C1331 1.366 . S
C1331 C1330 1.366 . S
C1331 C1332 1.414 . S
C1331 C1334 1.499 . S
C1332 H1312 0.950 . S
C1332 C1331 1.414 . S
C1332 C1333 1.374 . S
C1333 H1313 0.950 . S
C1333 C1329 1.385 . S
C1333 C1332 1.374 . S
C1334 C1331 1.499 . S
C1334 C1335 1.373 . S
C1334 C1336 1.389 . S
C1335 H1314 0.950 . S
C1335 C1334 1.373 . S
C1335 C1351 1.377 . S
C1336 C1334 1.389 . S
C1336 C1337 1.524 . S
C1336 C1350 1.377 . S
C1337 C1336 1.524 . S
C1337 C1338 1.397 . S
C1337 C1342 1.363 . S
C1338 H1315 0.950 . S
C1338 C1337 1.397 . S
C1338 C1339 1.334 . S
C1339 H1316 0.950 . S
C1339 C1338 1.334 . S
C1339 C1340 1.287 . S
C1340 C1339 1.287 . S
C1340 C1341 1.524 . S
C1340 H1359 0.913 . S
C1341 H1317 0.950 . S
C1341 C1340 1.524 . S
C1341 C1342 1.415 . S
C1342 H1318 0.950 . S
C1342 C1337 1.363 . S
C1342 C1341 1.415 . S
C1343 H1319 0.951 . S
C1343 C1344 1.366 . S
C1343 C1345 1.388 . S
C1344 C1343 1.366 . S
C1344 C1348 1.385 . S
C1345 H1320 0.951 . S
C1345 C1343 1.388 . S
C1345 C1346 1.366 . S
C1346 C1345 1.366 . S
C1346 C1347 1.414 . S
C1346 C1349 1.499 . S
C1347 H1321 0.950 . S
C1347 C1346 1.414 . S
C1347 C1348 1.374 . S
C1348 H1322 0.950 . S
C1348 C1344 1.385 . S
C1348 C1347 1.374 . S
C1349 C1346 1.499 . S
C1349 C1350 1.373 . S
C1349 C1351 1.389 . S
C1350 H1323 0.950 . S
C1350 C1336 1.377 . S
C1350 C1349 1.373 . S
C1351 C1335 1.377 . S
C1351 C1349 1.389 . S
C1351 C1352 1.524 . S
C1352 C1351 1.524 . S
C1352 C1353 1.397 . S
C1352 C1357 1.363 . S
C1353 H1324 0.950 . S
C1353 C1352 1.397 . S
C1353 C1354 1.334 . S
C1354 H1325 0.950 . S
C1354 C1353 1.334 . S
C1354 C1355 1.287 . S
C1355 C1354 1.287 . S
C1355 C1356 1.524 . S
C1355 H1358 0.999 . S
C1356 H1326 0.950 . S
C1356 C1355 1.524 . S
C1356 C1357 1.415 . S
C1357 H1327 0.950 . S
C1357 C1352 1.363 . S
C1357 C1356 1.415 . S
H1358 C1355 0.999 . S
H1359 C1340 0.913 . S
H1360 C1378 0.951 . S
H1361 C1380 0.951 . S
H1362 C1382 0.950 . S
H1363 C1383 0.950 . S
H1364 C1385 0.950 . S
H1365 C1388 0.950 . S
H1366 C1389 0.950 . S
H1367 C1391 0.950 . S
H1368 C1392 0.950 . S
H1369 C1393 0.951 . S
H1370 C1395 0.951 . S
H1371 C1397 0.950 . S
H1372 C1398 0.950 . S
H1373 C1400 0.950 . S
H1374 C1403 0.950 . S
H1375 C1404 0.950 . S
H1376 C1406 0.950 . S
H1377 C1407 0.950 . S
C1378 H1360 0.951 . S
C1378 C1379 1.366 . S
C1378 C1380 1.388 . S
C1379 C1378 1.366 . S
C1379 C1383 1.385 . S
C1380 H1361 0.951 . S
C1380 C1378 1.388 . S
C1380 C1381 1.366 . S
C1381 C1380 1.366 . S
C1381 C1382 1.414 . S
C1381 C1384 1.499 . S
C1382 H1362 0.950 . S
C1382 C1381 1.414 . S
C1382 C1383 1.374 . S
C1383 H1363 0.950 . S
C1383 C1379 1.385 . S
C1383 C1382 1.374 . S
C1384 C1381 1.499 . S
C1384 C1385 1.373 . S
C1384 C1386 1.389 . S
C1385 H1364 0.950 . S
C1385 C1384 1.373 . S
C1385 C1401 1.377 . S
C1386 C1384 1.389 . S
C1386 C1387 1.524 . S
C1386 C1400 1.377 . S
C1387 C1386 1.524 . S
C1387 C1388 1.397 . S
C1387 C1392 1.363 . S
C1388 H1365 0.950 . S
C1388 C1387 1.397 . S
C1388 C1389 1.334 . S
C1389 H1366 0.950 . S
C1389 C1388 1.334 . S
C1389 C1390 1.287 . S
C1390 C1389 1.287 . S
C1390 C1391 1.524 . S
C1390 H1409 0.913 . S
C1391 H1367 0.950 . S
C1391 C1390 1.524 . S
C1391 C1392 1.415 . S
C1392 H1368 0.950 . S
C1392 C1387 1.363 . S
C1392 C1391 1.415 . S
C1393 H1369 0.951 . S
C1393 C1394 1.366 . S
C1393 C1395 1.388 . S
C1394 C1393 1.366 . S
C1394 C1398 1.385 . S
C1395 H1370 0.951 . S
C1395 C1393 1.388 . S
C1395 C1396 1.366 . S
C1396 C1395 1.366 . S
C1396 C1397 1.414 . S
C1396 C1399 1.499 . S
C1397 H1371 0.950 . S
C1397 C1396 1.414 . S
C1397 C1398 1.374 . S
C1398 H1372 0.950 . S
C1398 C1394 1.385 . S
C1398 C1397 1.374 . S
C1399 C1396 1.499 . S
C1399 C1400 1.373 . S
C1399 C1401 1.389 . S
C1400 H1373 0.950 . S
C1400 C1386 1.377 . S
C1400 C1399 1.373 . S
C1401 C1385 1.377 . S
C1401 C1399 1.389 . S
C1401 C1402 1.524 . S
C1402 C1401 1.524 . S
C1402 C1403 1.397 . S
C1402 C1407 1.363 . S
C1403 H1374 0.950 . S
C1403 C1402 1.397 . S
C1403 C1404 1.334 . S
C1404 H1375 0.950 . S
C1404 C1403 1.334 . S
C1404 C1405 1.287 . S
C1405 C1404 1.287 . S
C1405 C1406 1.524 . S
C1405 H1408 0.999 . S
C1406 H1376 0.950 . S
C1406 C1405 1.524 . S
C1406 C1407 1.415 . S
C1407 H1377 0.950 . S
C1407 C1402 1.363 . S
C1407 C1406 1.415 . S
H1408 C1405 0.999 . S
H1409 C1390 0.913 . S
H1410 C1428 0.951 . S
H1411 C1430 0.951 . S
H1412 C1432 0.950 . S
H1413 C1433 0.950 . S
H1414 C1435 0.950 . S
H1415 C1438 0.950 . S
H1416 C1439 0.950 . S
H1417 C1441 0.950 . S
H1418 C1442 0.950 . S
H1419 C1443 0.951 . S
H1420 C1445 0.951 . S
H1421 C1447 0.950 . S
H1422 C1448 0.950 . S
H1423 C1450 0.950 . S
H1424 C1453 0.950 . S
H1425 C1454 0.950 . S
H1426 C1456 0.950 . S
H1427 C1457 0.950 . S
C1428 H1410 0.951 . S
C1428 C1429 1.366 . S
C1428 C1430 1.388 . S
C1429 C1428 1.366 . S
C1429 C1433 1.385 . S
C1430 H1411 0.951 . S
C1430 C1428 1.388 . S
C1430 C1431 1.366 . S
C1431 C1430 1.366 . S
C1431 C1432 1.414 . S
C1431 C1434 1.499 . S
C1432 H1412 0.950 . S
C1432 C1431 1.414 . S
C1432 C1433 1.374 . S
C1433 H1413 0.950 . S
C1433 C1429 1.385 . S
C1433 C1432 1.374 . S
C1434 C1431 1.499 . S
C1434 C1435 1.373 . S
C1434 C1436 1.389 . S
C1435 H1414 0.950 . S
C1435 C1434 1.373 . S
C1435 C1451 1.377 . S
C1436 C1434 1.389 . S
C1436 C1437 1.524 . S
C1436 C1450 1.377 . S
C1437 C1436 1.524 . S
C1437 C1438 1.397 . S
C1437 C1442 1.363 . S
C1438 H1415 0.950 . S
C1438 C1437 1.397 . S
C1438 C1439 1.334 . S
C1439 H1416 0.950 . S
C1439 C1438 1.334 . S
C1439 C1440 1.287 . S
C1440 C1439 1.287 . S
C1440 C1441 1.524 . S
C1440 H1459 0.913 . S
C1441 H1417 0.950 . S
C1441 C1440 1.524 . S
C1441 C1442 1.415 . S
C1442 H1418 0.950 . S
C1442 C1437 1.363 . S
C1442 C1441 1.415 . S
C1443 H1419 0.951 . S
C1443 C1444 1.366 . S
C1443 C1445 1.388 . S
C1444 C1443 1.366 . S
C1444 C1448 1.385 . S
C1445 H1420 0.951 . S
C1445 C1443 1.388 . S
C1445 C1446 1.366 . S
C1446 C1445 1.366 . S
C1446 C1447 1.414 . S
C1446 C1449 1.499 . S
C1447 H1421 0.950 . S
C1447 C1446 1.414 . S
C1447 C1448 1.374 . S
C1448 H1422 0.950 . S
C1448 C1444 1.385 . S
C1448 C1447 1.374 . S
C1449 C1446 1.499 . S
C1449 C1450 1.373 . S
C1449 C1451 1.389 . S
C1450 H1423 0.950 . S
C1450 C1436 1.377 . S
C1450 C1449 1.373 . S
C1451 C1435 1.377 . S
C1451 C1449 1.389 . S
C1451 C1452 1.524 . S
C1452 C1451 1.524 . S
C1452 C1453 1.397 . S
C1452 C1457 1.363 . S
C1453 H1424 0.950 . S
C1453 C1452 1.397 . S
C1453 C1454 1.334 . S
C1454 H1425 0.950 . S
C1454 C1453 1.334 . S
C1454 C1455 1.287 . S
C1455 C1454 1.287 . S
C1455 C1456 1.524 . S
C1455 H1458 0.999 . S
C1456 H1426 0.950 . S
C1456 C1455 1.524 . S
C1456 C1457 1.415 . S
C1457 H1427 0.950 . S
C1457 C1452 1.363 . S
C1457 C1456 1.415 . S
H1458 C1455 0.999 . S
H1459 C1440 0.913 . S
H1460 C1478 0.951 . S
H1461 C1480 0.951 . S
H1462 C1482 0.950 . S
H1463 C1483 0.950 . S
H1464 C1485 0.950 . S
H1465 C1488 0.950 . S
H1466 C1489 0.950 . S
H1467 C1491 0.938 1_556 S
H1468 C1492 0.950 . S
H1469 C1493 0.951 . S
H1470 C1495 0.951 . S
H1471 C1497 0.950 . S
H1472 C1498 0.950 . S
H1473 C1500 0.950 . S
H1474 C1503 0.950 . S
H1475 C1504 0.950 . S
H1476 C1506 0.950 . S
H1477 C1507 0.950 . S
C1478 H1460 0.951 . S
C1478 C1479 1.366 . S
C1478 C1480 1.388 . S
C1479 C1478 1.366 . S
C1479 C1483 1.385 . S
C1480 H1461 0.951 . S
C1480 C1478 1.388 . S
C1480 C1481 1.366 . S
C1481 C1480 1.366 . S
C1481 C1482 1.414 . S
C1481 C1484 1.499 . S
C1482 H1462 0.950 . S
C1482 C1481 1.414 . S
C1482 C1483 1.374 . S
C1483 H1463 0.950 . S
C1483 C1479 1.385 . S
C1483 C1482 1.374 . S
C1484 C1481 1.499 . S
C1484 C1485 1.373 . S
C1484 C1486 1.389 . S
C1485 H1464 0.950 . S
C1485 C1484 1.373 . S
C1485 C1501 1.377 . S
C1486 C1484 1.389 . S
C1486 C1487 1.524 . S
C1486 C1500 1.377 1_554 S
C1487 C1486 1.524 . S
C1487 C1488 1.397 . S
C1487 C1492 1.363 . S
C1488 H1465 0.950 . S
C1488 C1487 1.397 . S
C1488 C1489 1.334 . S
C1489 H1466 0.950 . S
C1489 C1488 1.334 . S
C1489 C1490 1.287 . S
C1490 C1489 1.287 . S
C1490 C1491 1.530 . S
C1490 H1509 0.913 . S
C1491 H1467 0.938 1_554 S
C1491 C1490 1.530 . S
C1491 C1492 1.426 . S
C1492 H1468 0.950 . S
C1492 C1487 1.363 . S
C1492 C1491 1.426 . S
C1493 H1469 0.951 . S
C1493 C1494 1.366 . S
C1493 C1495 1.388 . S
C1494 C1493 1.366 . S
C1494 C1498 1.385 . S
C1495 H1470 0.951 . S
C1495 C1493 1.388 . S
C1495 C1496 1.366 . S
C1496 C1495 1.366 . S
C1496 C1497 1.414 . S
C1496 C1499 1.499 . S
C1497 H1471 0.950 . S
C1497 C1496 1.414 . S
C1497 C1498 1.374 . S
C1498 H1472 0.950 . S
C1498 C1494 1.385 . S
C1498 C1497 1.374 . S
C1499 C1496 1.499 . S
C1499 C1500 1.373 . S
C1499 C1501 1.389 1_556 S
C1500 H1473 0.950 . S
C1500 C1486 1.377 1_556 S
C1500 C1499 1.373 . S
C1501 C1485 1.377 . S
C1501 C1499 1.389 1_554 S
C1501 C1502 1.524 . S
C1502 C1501 1.524 . S
C1502 C1503 1.397 . S
C1502 C1507 1.363 . S
C1503 H1474 0.950 . S
C1503 C1502 1.397 . S
C1503 C1504 1.334 . S
C1504 H1475 0.950 . S
C1504 C1503 1.334 . S
C1504 C1505 1.287 . S
C1505 C1504 1.287 . S
C1505 C1506 1.524 . S
C1505 H1508 0.999 . S
C1506 H1476 0.950 . S
C1506 C1505 1.524 . S
C1506 C1507 1.415 . S
C1507 H1477 0.950 . S
C1507 C1502 1.363 . S
C1507 C1506 1.415 . S
H1508 C1505 0.999 . S
H1509 C1490 0.913 . S
H1510 C1528 0.951 . S
H1511 C1530 0.951 . S
H1512 C1532 0.950 . S
H1513 C1533 0.950 . S
H1514 C1535 0.950 . S
H1515 C1538 0.950 . S
H1516 C1539 0.950 . S
H1517 C1541 0.950 . S
H1518 C1542 0.950 . S
H1519 C1543 0.951 . S
H1520 C1545 0.951 . S
H1521 C1547 0.950 . S
H1522 C1548 0.950 . S
H1523 C1550 0.950 . S
H1524 C1553 0.950 . S
H1525 C1554 0.950 . S
H1526 C1556 0.950 . S
H1527 C1557 0.950 . S
C1528 H1510 0.951 . S
C1528 C1529 1.366 . S
C1528 C1530 1.388 . S
C1529 C1528 1.366 . S
C1529 C1533 1.385 . S
C1530 H1511 0.951 . S
C1530 C1528 1.388 . S
C1530 C1531 1.366 . S
C1531 C1530 1.366 . S
C1531 C1532 1.414 . S
C1531 C1534 1.499 . S
C1532 H1512 0.950 . S
C1532 C1531 1.414 . S
C1532 C1533 1.374 . S
C1533 H1513 0.950 . S
C1533 C1529 1.385 . S
C1533 C1532 1.374 . S
C1534 C1531 1.499 . S
C1534 C1535 1.373 . S
C1534 C1536 1.389 . S
C1535 H1514 0.950 . S
C1535 C1534 1.373 . S
C1535 C1551 1.377 . S
C1536 C1534 1.389 . S
C1536 C1537 1.524 . S
C1536 C1550 1.377 . S
C1537 C1536 1.524 . S
C1537 C1538 1.397 . S
C1537 C1542 1.363 . S
C1538 H1515 0.950 . S
C1538 C1537 1.397 . S
C1538 C1539 1.334 . S
C1539 H1516 0.950 . S
C1539 C1538 1.334 . S
C1539 C1540 1.287 . S
C1540 C1539 1.287 . S
C1540 C1541 1.524 . S
C1540 H1559 0.913 . S
C1541 H1517 0.950 . S
C1541 C1540 1.524 . S
C1541 C1542 1.415 . S
C1542 H1518 0.950 . S
C1542 C1537 1.363 . S
C1542 C1541 1.415 . S
C1543 H1519 0.951 . S
C1543 C1544 1.366 . S
C1543 C1545 1.388 . S
C1544 C1543 1.366 . S
C1544 C1548 1.385 . S
C1545 H1520 0.951 . S
C1545 C1543 1.388 . S
C1545 C1546 1.366 . S
C1546 C1545 1.366 . S
C1546 C1547 1.414 . S
C1546 C1549 1.499 . S
C1547 H1521 0.950 . S
C1547 C1546 1.414 . S
C1547 C1548 1.374 . S
C1548 H1522 0.950 . S
C1548 C1544 1.385 . S
C1548 C1547 1.374 . S
C1549 C1546 1.499 . S
C1549 C1550 1.373 . S
C1549 C1551 1.389 . S
C1550 H1523 0.950 . S
C1550 C1536 1.377 . S
C1550 C1549 1.373 . S
C1551 C1535 1.377 . S
C1551 C1549 1.389 . S
C1551 C1552 1.524 . S
C1552 C1551 1.524 . S
C1552 C1553 1.397 . S
C1552 C1557 1.363 . S
C1553 H1524 0.950 . S
C1553 C1552 1.397 . S
C1553 C1554 1.334 . S
C1554 H1525 0.950 . S
C1554 C1553 1.334 . S
C1554 C1555 1.287 . S
C1555 C1554 1.287 . S
C1555 C1556 1.524 . S
C1555 H1558 0.999 . S
C1556 H1526 0.950 . S
C1556 C1555 1.524 . S
C1556 C1557 1.415 . S
C1557 H1527 0.950 . S
C1557 C1552 1.363 . S
C1557 C1556 1.415 . S
H1558 C1555 0.999 . S
H1559 C1540 0.913 . S
C394 C346 1.603 . S
C379 C15 1.586 . S
C429 C61 1.587 . S
C444 C287 1.610 . S
C479 C114 1.564 . S
C494 C290 1.584 . S
C529 C139 1.596 . S
C544 C304 1.603 . S
C594 C329 1.610 . S
C579 C185 1.598 . S
C629 C245 1.565 . S
C644 C332 1.584 . S
C679 C47 1.556 . S
C694 C301 1.567 . S
C729 C100 1.575 . S
C744 C315 1.585 . S
C779 C153 1.543 . S
C794 C318 1.560 . S
C844 C343 1.567 . S
C829 C199 1.546 . S
C894 C357 1.584 . S
C879 C231 1.575 . S
C944 C276 1.560 . S
C929 C1 1.552 . S
C979 C22 1.457 . S
C994 C299 1.454 . S
C1029 C68 1.479 . S
C1044 C313 1.476 . S
C1094 C323 1.482 . S
C1079 C107 1.480 . S
C1129 C146 1.459 . S
C1144 C341 1.454 . S
C1194 C355 1.477 . S
C1179 C192 1.480 . S
C1244 C281 1.482 . S
C1229 C252 1.480 . S
C1294 C351 1.515 . S
C1279 C54 1.513 . S
C1329 C93 1.488 . S
C1344 C285 1.484 . S
C1394 C295 1.493 . S
C1379 C160 1.489 . S
C1429 C206 1.512 . S
C1444 C309 1.515 . S
C1479 C238 1.487 . S
C1494 C327 1.484 . S
C1529 C8 1.491 . S
C1544 C337 1.493 . S
