# Generated by pormake.
# Topology pyr, (3,6)-cn, num edge types: 1
# Building blocks:
#     Node 0, Type 0, BuildingBlock: MIDCAF_clean_linker_0, # of connection points: 3
#     Node 1, Type 0, BuildingBlock: MIDCAF_clean_linker_0, # of connection points: 3
#     Node 2, Type 0, BuildingBlock: MIDCAF_clean_linker_0, # of connection points: 3
#     Node 3, Type 0, BuildingBlock: MIDCAF_clean_linker_0, # of connection points: 3
#     Node 4, Type 0, BuildingBlock: MIDCAF_clean_linker_0, # of connection points: 3
#     Node 5, Type 0, BuildingBlock: MIDCAF_clean_linker_0, # of connection points: 3
#     Node 6, Type 0, BuildingBlock: MIDCAF_clean_linker_0, # of connection points: 3
#     Node 7, Type 0, BuildingBlock: MIDCAF_clean_linker_0, # of connection points: 3
#     Node 8, Type 1, BuildingBlock: VOLQOD_clean_sbu_1, # of connection points: 6
#     Node 9, Type 1, BuildingBlock: VOLQOD_clean_sbu_1, # of connection points: 6
#     Node 10, Type 1, BuildingBlock: VOLQOD_clean_sbu_1, # of connection points: 6
#     Node 11, Type 1, BuildingBlock: VOLQOD_clean_sbu_1, # of connection points: 6
#     Edge 12, Type (0, 1), None
#     Edge 13, Type (0, 1), None
#     Edge 14, Type (0, 1), None
#     Edge 15, Type (0, 1), None
#     Edge 16, Type (0, 1), None
#     Edge 17, Type (0, 1), None
#     Edge 18, Type (0, 1), None
#     Edge 19, Type (0, 1), None
#     Edge 20, Type (0, 1), None
#     Edge 21, Type (0, 1), None
#     Edge 22, Type (0, 1), None
#     Edge 23, Type (0, 1), None
#     Edge 24, Type (0, 1), None
#     Edge 25, Type (0, 1), None
#     Edge 26, Type (0, 1), None
#     Edge 27, Type (0, 1), None
#     Edge 28, Type (0, 1), None
#     Edge 29, Type (0, 1), None
#     Edge 30, Type (0, 1), None
#     Edge 31, Type (0, 1), None
#     Edge 32, Type (0, 1), None
#     Edge 33, Type (0, 1), None
#     Edge 34, Type (0, 1), None
#     Edge 35, Type (0, 1), None
# Relax obj value: 0.035
# Max RMSD: 0.119
# Mean RMSD: 0.043
data_MOF--net-pry--node1-VOLQOD_clean_sbu_1--node2-MIDCAF_clean_linker_0--edge1-none
_symmetry_space_group_name_H-M    P1
_symmetry_Int_Tables_number       1
_symmetry_cell_setting            triclinic
loop_
_symmetry_equiv_pos_as_xyz
'x, y, z'
_cell_length_a     25.373717
_cell_length_b     25.434937
_cell_length_c     25.532904
_cell_angle_alpha  89.980431
_cell_angle_beta   90.096294
_cell_angle_gamma 90.069697
loop_
_atom_site_label
_atom_site_type_symbol
_atom_site_fract_x
_atom_site_fract_y
_atom_site_fract_z
_atom_type_partial_charge
C0 C 0.01285 0.06243 0.28494 0.0
C1 C 0.05141 0.04685 0.32129 0.0
C2 C 0.10418 0.04352 0.30543 0.0
C3 C 0.11838 0.05602 0.2542 0.0
H4 H 0.21899 0.00871 0.13498 0.0
H5 H 0.30676 0.98336 0.10768 0.0
H6 H 0.30247 0.1004 0.98492 0.0
H7 H 0.21428 0.12603 0.01231 0.0
H8 H 0.12769 0.21073 0.01407 0.0
H9 H 0.10246 0.29905 0.98876 0.0
H10 H 0.98285 0.30004 0.10911 0.0
H11 H 0.00822 0.21139 0.1348 0.0
H12 H -0.00277 0.08989 0.20692 0.0
H13 H 0.97188 0.06542 0.29643 0.0
H14 H 0.13455 0.03132 0.33272 0.0
H15 H 0.15956 0.05376 0.24331 0.0
N16 N 0.14021 0.07045 0.14334 0.0
N17 N 0.13528 0.13218 0.07558 0.0
N18 N 0.07281 0.1334 0.14316 0.0
C19 C 0.15941 0.09012 0.09781 0.0
C20 C 0.09188 0.154 0.09784 0.0
C21 C 0.09677 0.09152 0.16596 0.0
C22 C 0.20973 0.07001 0.0764 0.0
C23 C 0.23633 0.02877 0.10178 0.0
C24 C 0.28685 0.01421 0.08612 0.0
C25 C 0.312 0.0404 0.04461 0.0
C26 C 0.28434 0.07965 0.01728 0.0
C27 C 0.23372 0.09434 0.03304 0.0
C28 C 0.07058 0.20408 0.07709 0.0
C29 C 0.09551 0.22931 0.03482 0.0
C30 C 0.08115 0.28018 0.02035 0.0
C31 C 0.04127 0.30698 0.04753 0.0
C32 C 0.01404 0.28064 0.08763 0.0
C33 C 0.02861 0.22973 0.10234 0.0
C34 C 0.08025 0.07352 0.21828 0.0
C35 C 0.02731 0.0765 0.23396 0.0
C36 C 0.23541 0.0011 0.56739 0.0
C37 C 0.19895 0.96282 0.55112 0.0
C38 C 0.21499 0.91024 0.54708 0.0
C39 C 0.26646 0.89593 0.5597 0.0
H40 H 0.38593 0.79504 0.51398 0.0
H41 H 0.41267 0.70721 0.48885 0.0
H42 H 0.53472 0.70971 0.60719 0.0
H43 H 0.50786 0.79798 0.63262 0.0
H44 H 0.50577 0.88441 0.7174 0.0
H45 H 0.53039 0.90942 0.80571 0.0
H46 H 0.4103 0.02983 0.80512 0.0
H47 H 0.38532 0.00469 0.71648 0.0
H48 H 0.31372 0.01631 0.59558 0.0
H49 H 0.22376 0.04191 0.57093 0.0
H50 H 0.1876 0.8801 0.53434 0.0
H51 H 0.27742 0.85486 0.55697 0.0
N52 N 0.37753 0.87345 0.57562 0.0
N53 N 0.44493 0.87756 0.63812 0.0
N54 N 0.37742 0.94047 0.6386 0.0
C55 C 0.42291 0.85382 0.5958 0.0
C56 C 0.42259 0.92099 0.65969 0.0
C57 C 0.35484 0.9169 0.59645 0.0
C58 C 0.44417 0.80343 0.57592 0.0
C59 C 0.41887 0.77729 0.53439 0.0
C60 C 0.43419 0.72673 0.51996 0.0
C61 C 0.47532 0.70108 0.54656 0.0
C62 C 0.50264 0.72825 0.58612 0.0
C63 C 0.4872 0.77891 0.6007 0.0
C64 C 0.44296 0.94196 0.70994 0.0
C65 C 0.48494 0.9167 0.73564 0.0
C66 C 0.49901 0.93094 0.78652 0.0
C67 C 0.47169 0.97101 0.81285 0.0
C68 C 0.43186 -0.00152 0.78609 0.0
C69 C 0.41757 0.98405 0.73519 0.0
C70 C 0.30245 0.93371 0.57802 0.0
C71 C 0.28664 0.98649 0.58156 0.0
C72 C 0.58295 0.22758 -0.00015 0.0
C73 C 0.54203 0.2015 0.97325 0.0
C74 C 0.51358 0.22881 0.93463 0.0
C75 C 0.52769 0.28012 0.92093 0.0
H76 H 0.51158 0.38185 0.80041 0.0
H77 H 0.48844 0.40637 0.71153 0.0
H78 H 0.60415 0.53123 0.71569 0.0
H79 H 0.62753 0.50667 0.80486 0.0
H80 H 0.71648 0.50209 0.88773 0.0
H81 H 0.80569 0.52569 0.91258 0.0
H82 H 0.80195 0.40997 0.03659 0.0
H83 H 0.71245 0.38612 0.01169 0.0
H84 H 0.62975 0.29697 0.00663 0.0
H85 H 0.60528 0.20793 0.03028 0.0
H86 H 0.4816 0.20997 0.91363 0.0
H87 H 0.50614 0.29933 0.88969 0.0
N88 N 0.56943 0.37829 0.88245 0.0
N89 N 0.63476 0.4434 0.88322 0.0
N90 N 0.63402 0.3783 0.94807 0.0
C91 C 0.59117 0.42201 0.86084 0.0
C92 C 0.65629 0.42199 0.92701 0.0
C93 C 0.59041 0.35635 0.92624 0.0
C94 C 0.57197 0.44178 0.8097 0.0
C95 C 0.53175 0.41496 0.78278 0.0
C96 C 0.51855 0.42894 0.7316 0.0
C97 C 0.54505 0.47024 0.70617 0.0
C98 C 0.58325 0.49895 0.734 0.0
C99 C 0.59663 0.48483 0.78521 0.0
C100 C 0.7074 0.44163 0.94718 0.0
C101 C 0.73426 0.48203 0.92073 0.0
C102 C 0.78563 0.4955 0.9349 0.0
C103 C 0.81129 0.46909 0.97602 0.0
C104 C 0.78345 0.43079 0.00445 0.0
C105 C 0.73206 0.41714 0.99013 0.0
C106 C 0.57044 0.30522 0.9457 0.0
C107 C 0.5969 0.27886 0.98635 0.0
C108 C 0.73419 0.58102 0.50421 0.0
C109 C 0.7073 0.54114 0.47698 0.0
C110 C 0.73366 0.51401 0.4369 0.0
C111 C 0.78462 0.52839 0.42233 0.0
H112 H 0.887 0.50665 0.30286 0.0
H113 H 0.91209 0.47983 0.21481 0.0
H114 H 0.02982 0.6028 0.21111 0.0
H115 H 0.00503 0.62952 0.29873 0.0
H116 H 0.96158 0.73735 0.35924 0.0
H117 H 0.98397 0.82704 0.38454 0.0
H118 H 0.94939 0.7901 0.54594 0.0
H119 H 0.925 0.70029 0.52032 0.0
H120 H 0.80393 0.62796 0.50987 0.0
H121 H 0.71515 0.60244 0.53556 0.0
H122 H 0.71437 0.48258 0.41557 0.0
H123 H 0.80283 0.50774 0.38999 0.0
N124 N 0.8818 0.56934 0.38225 0.0
N125 N 0.9439 0.63724 0.37756 0.0
N126 N 0.88145 0.63658 0.4451 0.0
C127 C 0.92382 0.59179 0.35814 0.0
C128 C 0.92329 0.65958 0.42116 0.0
C129 C 0.86045 0.59134 0.42584 0.0
C130 C 0.94344 0.57077 0.30772 0.0
C131 C 0.91871 0.52755 0.28356 0.0
C132 C 0.93309 0.51213 0.23301 0.0
C133 C 0.9724 0.53966 0.2056 0.0
C134 C -0.00109 0.58109 0.23083 0.0
C135 C 0.98468 0.5964 0.28127 0.0
C136 C 0.94157 0.71195 0.43789 0.0
C137 C 0.95924 0.74814 0.40021 0.0
C138 C 0.97171 0.79953 0.41457 0.0
C139 C 0.96817 0.8153 0.46707 0.0
C140 C 0.95253 0.77867 0.5052 0.0
C141 C 0.93851 0.72752 0.49057 0.0
C142 C 0.81036 0.5705 0.44727 0.0
C143 C 0.78518 0.59562 0.48945 0.0
C144 C 0.74144 0.00076 0.96193 0.0
C145 C 0.70517 0.96134 0.97557 0.0
C146 C 0.72187 0.90889 0.97817 0.0
C147 C 0.77379 0.89579 0.9663 0.0
H148 H 0.93281 0.81235 0.02344 0.0
H149 H 0.95774 0.72199 0.04615 0.0
H150 H 0.9907 0.69008 0.88339 0.0
H151 H 0.96791 0.78054 0.86098 0.0
H152 H 0.01088 0.89304 0.80652 0.0
H153 H 0.03233 0.91847 0.71771 0.0
H154 H 0.90694 0.03333 0.71966 0.0
H155 H 0.88491 0.00758 0.80897 0.0
H156 H 0.82 0.01813 0.93606 0.0
H157 H 0.72926 0.04151 0.95966 0.0
H158 H 0.69462 0.87791 0.98899 0.0
H159 H 0.78519 0.85478 0.96748 0.0
N160 N 0.88467 0.87455 0.9487 0.0
N161 N 0.94903 0.88038 0.88343 0.0
N162 N 0.88286 0.94431 0.88851 0.0
C163 C 0.92861 0.85529 0.92557 0.0
C164 C 0.92683 0.92521 0.86491 0.0
C165 C 0.86175 0.91919 0.93053 0.0
C166 C 0.94866 0.80323 0.94059 0.0
C167 C 0.94629 0.78616 0.99282 0.0
C168 C 0.96055 0.73471 0.00575 0.0
C169 C 0.97564 0.69935 0.96634 0.0
C170 C 0.97883 0.7167 0.91432 0.0
C171 C 0.9662 0.76846 0.90165 0.0
C172 C 0.94548 0.94757 0.81471 0.0
C173 C 0.98813 0.9242 0.78849 0.0
C174 C 0.0004 0.93866 0.73734 0.0
C175 C 0.97063 0.97714 0.71127 0.0
C176 C 0.93032 0.00318 0.73858 0.0
C177 C 0.91776 0.98845 0.78983 0.0
C178 C 0.80954 0.93476 0.95018 0.0
C179 C 0.79313 0.98744 0.94847 0.0
C180 C 0.60448 0.03631 0.22121 0.0
C181 C 0.55221 0.03921 0.20359 0.0
C182 C 0.51229 0.05418 0.23853 0.0
C183 C 0.52494 0.06849 0.28986 0.0
H184 H 0.55093 0.22948 0.35917 0.0
H185 H 0.52987 0.31992 0.38254 0.0
H186 H 0.5573 0.28414 0.54563 0.0
H187 H 0.58044 0.19354 0.52203 0.0
H188 H 0.70811 0.12834 0.51246 0.0
H189 H 0.79779 0.10601 0.53861 0.0
H190 H 0.79979 0.98086 0.42415 0.0
H191 H 0.71061 0.00262 0.39832 0.0
H192 H 0.65772 0.04741 0.28523 0.0
H193 H 0.63581 0.02455 0.19493 0.0
H194 H 0.47169 0.05676 0.22558 0.0
H195 H 0.49391 0.08179 0.31576 0.0
N196 N 0.56886 0.12992 0.37847 0.0
N197 N 0.62859 0.13091 0.44877 0.0
N198 N 0.634 0.06517 0.3848 0.0
C199 C 0.58678 0.15243 0.42331 0.0
C200 C 0.65225 0.08697 0.42982 0.0
C201 C 0.59205 0.08599 0.35936 0.0
C202 C 0.56724 0.20458 0.43889 0.0
C203 C 0.55177 0.24062 0.40011 0.0
C204 C 0.54017 0.29246 0.41335 0.0
C205 C 0.54239 0.3088 0.46574 0.0
C206 C 0.55534 0.27226 0.50493 0.0
C207 C 0.56853 0.22064 0.49149 0.0
C208 C 0.7024 0.06795 0.45258 0.0
C209 C 0.72732 0.09546 0.49352 0.0
C210 C 0.77877 0.08272 0.50849 0.0
C211 C 0.80624 0.04244 0.48262 0.0
C212 C 0.78005 0.01278 0.44418 0.0
C213 C 0.7287 0.02523 0.42949 0.0
C214 C 0.57739 0.06627 0.30726 0.0
C215 C 0.61687 0.04898 0.27288 0.0
C216 C 0.24138 0.5086 0.05746 0.0
C217 C 0.20542 0.54771 0.0424 0.0
C218 C 0.22227 0.60015 0.03918 0.0
C219 C 0.27396 0.61358 0.05212 0.0
H220 H 0.43558 0.69398 -0.00159 0.0
H221 H 0.46052 0.78395 0.97418 0.0
H222 H 0.49184 0.81928 0.13667 0.0
H223 H 0.46895 0.72922 0.16063 0.0
H224 H 0.52202 0.57918 0.20121 0.0
H225 H 0.54575 0.55413 0.29098 0.0
H226 H 0.38191 0.52347 0.32488 0.0
H227 H 0.35845 0.54646 0.23501 0.0
H228 H 0.31927 0.49188 0.08569 0.0
H229 H 0.22911 0.46788 0.06026 0.0
H230 H 0.19523 0.63089 0.0273 0.0
H231 H 0.28547 0.65459 0.05066 0.0
N232 N 0.38536 0.63436 0.07292 0.0
N233 N 0.44734 0.62922 0.14094 0.0
N234 N 0.37933 0.56696 0.13531 0.0
C235 C 0.42898 0.65344 0.09719 0.0
C236 C 0.42295 0.5857 0.15989 0.0
C237 C 0.36065 0.59085 0.09154 0.0
C238 C 0.45049 0.70478 0.0813 0.0
C239 C 0.44884 0.72079 0.02867 0.0
C240 C 0.46308 0.77206 0.01485 0.0
C241 C 0.4775 0.80838 0.05372 0.0
C242 C 0.48043 0.79197 0.1061 0.0
C243 C 0.46777 0.74039 0.1197 0.0
C244 C 0.4385 0.56457 0.21131 0.0
C245 C 0.49135 0.56609 0.22767 0.0
C246 C 0.50488 0.55178 0.27883 0.0
C247 C 0.4655 0.53744 0.31467 0.0
C248 C 0.41288 0.5348 0.29795 0.0
C249 C 0.39957 0.54752 0.24648 0.0
C250 C 0.30921 0.57499 0.06998 0.0
C251 C 0.29275 0.52228 0.07198 0.0
C252 C 0.07336 0.23362 0.51892 0.0
C253 C 0.03527 0.20701 0.54869 0.0
C254 C 0.00942 0.23398 0.58922 0.0
C255 C 0.02411 0.2854 0.60204 0.0
H256 H 0.9952 0.43231 0.70034 0.0
H257 H 0.972 0.45541 0.79072 0.0
H258 H 0.1364 0.48202 0.8258 0.0
H259 H 0.15937 0.46101 0.73555 0.0
H260 H 0.20161 0.51955 0.58879 0.0
H261 H 0.29208 0.54204 0.56322 0.0
H262 H 0.32233 0.37886 0.52788 0.0
H263 H 0.23179 0.35671 0.55129 0.0
H264 H 0.11867 0.30338 0.50869 0.0
H265 H 0.09335 0.21426 0.48682 0.0
H266 H 0.97957 0.21462 0.61261 0.0
H267 H 0.00524 0.30423 0.63509 0.0
N268 N 0.06867 0.38415 0.63746 0.0
N269 N 0.13895 0.44427 0.63608 0.0
N270 N 0.13223 0.37962 0.57122 0.0
C271 C 0.09424 0.42595 0.65886 0.0
C272 C 0.15779 0.42153 0.59194 0.0
C273 C 0.08738 0.36093 0.59333 0.0
C274 C 0.07896 0.44514 0.71104 0.0
C275 C 0.02611 0.444 0.72725 0.0
C276 C 0.01291 0.45716 0.77875 0.0
C277 C 0.05257 0.46993 0.81502 0.0
C278 C 0.10522 0.47187 0.79856 0.0
C279 C 0.11823 0.46031 0.74684 0.0
C280 C 0.20991 0.43653 0.5718 0.0
C281 C 0.22746 0.48881 0.57468 0.0
C282 C 0.27895 0.50162 0.56004 0.0
C283 C 0.31388 0.462 0.54406 0.0
C284 C 0.29605 0.40994 0.54041 0.0
C285 C 0.24423 0.39742 0.55343 0.0
C286 C 0.06473 0.31077 0.57435 0.0
C287 C 0.08775 0.28494 0.53143 0.0
O288 O 0.98552 0.12843 0.56012 0.0
Zn289 Zn 0.95948 0.05362 0.55897 0.0
O290 O 0.00429 0.00945 0.51456 0.0
Zn291 Zn 0.96464 0.98512 0.45402 0.0
Zn292 Zn 0.06494 0.04947 0.49052 0.0
Zn293 Zn 0.0288 0.94883 0.55398 0.0
O294 O 0.96577 0.90642 0.44929 0.0
O295 O 0.0007 0.88076 0.52495 0.0
O296 O 0.88462 0.05427 0.53266 0.0
O297 O 0.88911 0.00644 0.46005 0.0
O298 O 0.99356 0.0137 0.38637 0.0
O299 O 0.06951 0.0489 0.41207 0.0
O300 O 0.13325 0.02069 0.51868 0.0
O301 O 0.95864 0.02717 0.63332 0.0
O302 O 0.10769 0.9446 0.55316 0.0
O303 O 0.00709 0.95465 0.62899 0.0
C304 C 0.02538 0.15057 0.53938 0.0
C305 C 0.9789 0.87033 0.48126 0.0
C306 C 0.03734 0.03581 0.37607 0.0
C307 C 0.86278 0.03336 0.49285 0.0
C308 C 0.14379 0.97687 0.54031 0.0
C309 C 0.97977 0.98736 0.65508 0.0
O310 O 0.05848 0.12466 0.51233 0.0
O311 O 0.49172 0.12297 0.96272 0.0
Zn312 Zn 0.46415 0.04853 0.96521 0.0
O313 O 0.50926 0.00408 0.00916 0.0
Zn314 Zn 0.53522 0.94452 0.96885 0.0
Zn315 Zn 0.56906 0.04472 0.03495 0.0
Zn316 Zn 0.46923 0.97782 0.06863 0.0
O317 O 0.50963 0.87538 -0.00246 0.0
O318 O 0.47131 0.89914 0.07203 0.0
O319 O 0.46129 0.02097 0.89112 0.0
O320 O 0.51196 0.94987 0.89404 0.0
O321 O 0.61423 0.9423 0.96967 0.0
O322 O 0.63807 0.01666 0.0088 0.0
O323 O 0.57202 0.04395 0.1134 0.0
O324 O 0.38981 0.05096 0.99334 0.0
O325 O 0.49734 0.00487 0.13686 0.0
O326 O 0.39383 -0.00011 0.06376 0.0
C327 C 0.53135 0.14533 0.98388 0.0
C328 C 0.48689 0.86383 0.04039 0.0
C329 C 0.6496 0.9742 0.98524 0.0
C330 C 0.48278 0.98171 0.86874 0.0
C331 C 0.53991 0.02857 0.14842 0.0
C332 C 0.36787 0.02912 0.0326 0.0
O333 O 0.56354 0.11978 0.01241 0.0
O334 O 0.55622 0.52076 0.62828 0.0
Zn335 Zn 0.55408 0.54867 0.55426 0.0
O336 O 0.50966 0.50422 0.50954 0.0
Zn337 Zn 0.55016 0.47841 0.45017 0.0
Zn338 Zn 0.48342 0.44446 0.54953 0.0
Zn339 Zn 0.45 0.54461 0.48351 0.0
O340 O 0.52157 0.50462 0.38145 0.0
O341 O 0.44669 0.54305 0.40506 0.0
O342 O 0.62869 0.5513 0.52697 0.0
O343 O 0.62552 0.50119 0.4558 0.0
O344 O 0.54891 0.3996 0.44734 0.0
O345 O 0.50933 0.37566 0.52117 0.0
O346 O 0.40453 0.44197 0.54857 0.0
O347 O 0.52624 0.623 0.55701 0.0
O348 O 0.38111 0.51682 0.51021 0.0
O349 O 0.45542 0.6197 0.50593 0.0
C350 C 0.5347 0.48118 0.6502 0.0
C351 C 0.47861 0.52762 0.36992 0.0
C352 C 0.53299 0.36423 0.47884 0.0
C353 C 0.65111 0.53 0.48773 0.0
C354 C 0.36938 0.47422 0.53348 0.0
C355 C 0.48693 0.64525 0.53524 0.0
O356 O 0.50596 0.44934 0.62441 0.0
O357 O 0.96164 0.48847 0.12806 0.0
Zn358 Zn 0.9642 0.46022 0.05419 0.0
O359 O 0.00924 0.50405 0.00961 0.0
Zn360 Zn 0.96897 0.53007 0.94999 0.0
Zn361 Zn 0.03565 0.56371 0.04954 0.0
Zn362 Zn 0.0688 0.46321 0.98405 0.0
O363 O -0.0028 0.50355 0.8816 0.0
O364 O 0.07142 0.46388 0.90549 0.0
O365 O 0.8897 0.45813 0.02641 0.0
O366 O 0.89355 0.50795 0.95509 0.0
O367 O 0.97038 0.60877 0.94694 0.0
O368 O 0.00922 0.63238 0.02136 0.0
O369 O 0.11455 0.5666 0.04796 0.0
O370 O 0.99139 0.38572 0.05727 0.0
O371 O 0.13812 0.49168 0.00992 0.0
O372 O 0.06289 0.38819 0.00724 0.0
C373 C 0.98361 0.52779 0.15001 0.0
C374 C 0.03964 0.47966 0.87024 0.0
C375 C 0.98585 0.64396 0.97884 0.0
C376 C 0.8676 0.47949 0.98694 0.0
C377 C 0.14983 0.53462 0.03268 0.0
C378 C 0.03073 0.36302 0.03615 0.0
O379 O 0.01314 0.55899 0.12437 0.0
loop_
_geom_bond_atom_site_label_1
_geom_bond_atom_site_label_2
_geom_bond_distance
_geom_bond_site_symmetry_2
_ccdc_geom_bond_type
C0 C1 1.384 . S
C0 H13 0.947 1_455 S
C0 C35 1.382 . S
C1 C0 1.384 . S
C1 C2 1.378 . S
C2 C1 1.378 . S
C2 C3 1.378 . S
C2 H14 0.952 . S
C3 C2 1.378 . S
C3 H15 0.950 . S
C3 C34 1.383 . S
H4 C23 0.947 . S
H5 C24 0.946 . S
H6 C26 0.953 . S
H7 C27 0.945 . S
H8 C29 0.952 . S
H9 C30 0.949 . S
H10 C32 0.950 . S
H11 C33 0.948 . S
H12 C35 0.951 . S
H13 C0 0.947 1_655 S
H14 C2 0.952 . S
H15 C3 0.950 . S
N16 C19 1.382 . S
N16 C21 1.363 . S
N17 C19 1.371 . S
N17 C20 1.372 . S
N18 C20 1.361 . S
N18 C21 1.377 . S
C19 N16 1.382 . S
C19 N17 1.371 . S
C19 C22 1.480 . S
C20 N17 1.372 . S
C20 N18 1.361 . S
C20 C28 1.457 . S
C21 N16 1.363 . S
C21 N18 1.377 . S
C21 C34 1.479 . S
C22 C19 1.480 . S
C22 C23 1.383 . S
C22 C27 1.385 . S
C23 H4 0.947 . S
C23 C22 1.383 . S
C23 C24 1.388 . S
C24 H5 0.946 . S
C24 C23 1.388 . S
C24 C25 1.384 . S
C25 C24 1.384 . S
C25 C26 1.377 . S
C26 H6 0.953 . S
C26 C25 1.377 . S
C26 C27 1.369 . S
C27 H7 0.945 . S
C27 C22 1.385 . S
C27 C26 1.369 . S
C28 C20 1.457 . S
C28 C29 1.372 . S
C28 C33 1.364 . S
C29 H8 0.952 . S
C29 C28 1.372 . S
C29 C30 1.389 . S
C30 H9 0.949 . S
C30 C29 1.389 . S
C30 C31 1.387 . S
C31 C30 1.387 . S
C31 C32 1.372 . S
C32 H10 0.950 . S
C32 C31 1.372 . S
C32 C33 1.379 . S
C33 H11 0.948 . S
C33 C28 1.364 . S
C33 C32 1.379 . S
C34 C3 1.383 . S
C34 C21 1.479 . S
C34 C35 1.398 . S
C35 C0 1.382 . S
C35 H12 0.951 . S
C35 C34 1.398 . S
C36 C37 1.384 . S
C36 H49 0.948 1_565 S
C36 C71 1.382 . S
C37 C36 1.384 . S
C37 C38 1.378 . S
C38 C37 1.378 . S
C38 C39 1.378 . S
C38 H50 0.952 . S
C39 C38 1.378 . S
C39 H51 0.950 . S
C39 C70 1.383 . S
H40 C59 0.947 . S
H41 C60 0.946 . S
H42 C62 0.953 . S
H43 C63 0.945 . S
H44 C65 0.952 . S
H45 C66 0.949 . S
H46 C68 0.950 . S
H47 C69 0.948 . S
H48 C71 0.951 . S
H49 C36 0.948 1_545 S
H50 C38 0.952 . S
H51 C39 0.950 . S
N52 C55 1.382 . S
N52 C57 1.363 . S
N53 C55 1.371 . S
N53 C56 1.372 . S
N54 C56 1.361 . S
N54 C57 1.377 . S
C55 N52 1.382 . S
C55 N53 1.371 . S
C55 C58 1.480 . S
C56 N53 1.372 . S
C56 N54 1.361 . S
C56 C64 1.457 . S
C57 N52 1.363 . S
C57 N54 1.377 . S
C57 C70 1.479 . S
C58 C55 1.480 . S
C58 C59 1.383 . S
C58 C63 1.385 . S
C59 H40 0.947 . S
C59 C58 1.383 . S
C59 C60 1.388 . S
C60 H41 0.946 . S
C60 C59 1.388 . S
C60 C61 1.384 . S
C61 C60 1.384 . S
C61 C62 1.377 . S
C62 H42 0.953 . S
C62 C61 1.377 . S
C62 C63 1.369 . S
C63 H43 0.945 . S
C63 C58 1.385 . S
C63 C62 1.369 . S
C64 C56 1.457 . S
C64 C65 1.372 . S
C64 C69 1.364 . S
C65 H44 0.952 . S
C65 C64 1.372 . S
C65 C66 1.389 . S
C66 H45 0.949 . S
C66 C65 1.389 . S
C66 C67 1.387 . S
C67 C66 1.387 . S
C67 C68 1.372 . S
C68 H46 0.950 . S
C68 C67 1.372 . S
C68 C69 1.379 . S
C69 H47 0.948 . S
C69 C64 1.364 . S
C69 C68 1.379 . S
C70 C39 1.383 . S
C70 C57 1.479 . S
C70 C71 1.398 . S
C71 C36 1.382 . S
C71 H48 0.951 . S
C71 C70 1.398 . S
C72 C73 1.384 . S
C72 H85 0.947 1_556 S
C72 C107 1.382 . S
C73 C72 1.384 . S
C73 C74 1.378 . S
C74 C73 1.378 . S
C74 C75 1.378 . S
C74 H86 0.952 . S
C75 C74 1.378 . S
C75 H87 0.950 . S
C75 C106 1.383 . S
H76 C95 0.947 . S
H77 C96 0.946 . S
H78 C98 0.953 . S
H79 C99 0.945 . S
H80 C101 0.952 . S
H81 C102 0.949 . S
H82 C104 0.950 1_554 S
H83 C105 0.948 . S
H84 C107 0.951 . S
H85 C72 0.947 1_554 S
H86 C74 0.952 . S
H87 C75 0.950 . S
N88 C91 1.382 . S
N88 C93 1.363 . S
N89 C91 1.371 . S
N89 C92 1.372 . S
N90 C92 1.361 . S
N90 C93 1.377 . S
C91 N88 1.382 . S
C91 N89 1.371 . S
C91 C94 1.480 . S
C92 N89 1.372 . S
C92 N90 1.361 . S
C92 C100 1.457 . S
C93 N88 1.363 . S
C93 N90 1.377 . S
C93 C106 1.479 . S
C94 C91 1.480 . S
C94 C95 1.383 . S
C94 C99 1.385 . S
C95 H76 0.947 . S
C95 C94 1.383 . S
C95 C96 1.388 . S
C96 H77 0.946 . S
C96 C95 1.388 . S
C96 C97 1.384 . S
C97 C96 1.384 . S
C97 C98 1.377 . S
C98 H78 0.953 . S
C98 C97 1.377 . S
C98 C99 1.369 . S
C99 H79 0.945 . S
C99 C94 1.385 . S
C99 C98 1.369 . S
C100 C92 1.457 . S
C100 C101 1.372 . S
C100 C105 1.364 . S
C101 H80 0.952 . S
C101 C100 1.372 . S
C101 C102 1.389 . S
C102 H81 0.949 . S
C102 C101 1.389 . S
C102 C103 1.387 . S
C103 C102 1.387 . S
C103 C104 1.372 . S
C104 H82 0.950 1_556 S
C104 C103 1.372 . S
C104 C105 1.379 . S
C105 H83 0.948 . S
C105 C100 1.364 . S
C105 C104 1.379 . S
C106 C75 1.383 . S
C106 C93 1.479 . S
C106 C107 1.398 . S
C107 C72 1.382 . S
C107 H84 0.951 . S
C107 C106 1.398 . S
C108 C109 1.384 . S
C108 H121 0.947 . S
C108 C143 1.382 . S
C109 C108 1.384 . S
C109 C110 1.378 . S
C110 C109 1.378 . S
C110 C111 1.378 . S
C110 H122 0.952 . S
C111 C110 1.378 . S
C111 H123 0.950 . S
C111 C142 1.383 . S
H112 C131 0.947 . S
H113 C132 0.946 . S
H114 C134 0.953 . S
H115 C135 0.945 1_455 S
H116 C137 0.952 . S
H117 C138 0.949 1_455 S
H118 C140 0.950 . S
H119 C141 0.948 . S
H120 C143 0.951 . S
H121 C108 0.947 . S
H122 C110 0.952 . S
H123 C111 0.950 . S
N124 C127 1.382 . S
N124 C129 1.363 . S
N125 C127 1.371 . S
N125 C128 1.372 . S
N126 C128 1.361 . S
N126 C129 1.377 . S
C127 N124 1.382 . S
C127 N125 1.371 . S
C127 C130 1.480 . S
C128 N125 1.372 . S
C128 N126 1.361 . S
C128 C136 1.457 . S
C129 N124 1.363 . S
C129 N126 1.377 . S
C129 C142 1.479 . S
C130 C127 1.480 . S
C130 C131 1.383 . S
C130 C135 1.385 . S
C131 H112 0.947 . S
C131 C130 1.383 . S
C131 C132 1.388 . S
C132 H113 0.946 . S
C132 C131 1.388 . S
C132 C133 1.384 . S
C133 C132 1.384 . S
C133 C134 1.377 1_655 S
C134 H114 0.953 . S
C134 C133 1.377 1_455 S
C134 C135 1.369 1_455 S
C135 H115 0.945 1_655 S
C135 C130 1.385 . S
C135 C134 1.369 1_655 S
C136 C128 1.457 . S
C136 C137 1.372 . S
C136 C141 1.364 . S
C137 H116 0.952 . S
C137 C136 1.372 . S
C137 C138 1.389 . S
C138 H117 0.949 1_655 S
C138 C137 1.389 . S
C138 C139 1.387 . S
C139 C138 1.387 . S
C139 C140 1.372 . S
C140 H118 0.950 . S
C140 C139 1.372 . S
C140 C141 1.379 . S
C141 H119 0.948 . S
C141 C136 1.364 . S
C141 C140 1.379 . S
C142 C111 1.383 . S
C142 C129 1.479 . S
C142 C143 1.398 . S
C143 C108 1.382 . S
C143 H120 0.951 . S
C143 C142 1.398 . S
C144 C145 1.384 1_556 S
C144 H157 0.947 . S
C144 C179 1.382 . S
C145 C144 1.384 1_554 S
C145 C146 1.378 1_545 S
C146 C145 1.378 1_565 S
C146 C147 1.378 . S
C146 H158 0.952 . S
C147 C146 1.378 . S
C147 H159 0.950 . S
C147 C178 1.383 1_554 S
H148 C167 0.947 . S
H149 C168 0.946 . S
H150 C170 0.953 . S
H151 C171 0.945 . S
H152 C173 0.952 1_455 S
H153 C174 0.949 . S
H154 C176 0.950 . S
H155 C177 0.948 . S
H156 C179 0.951 . S
H157 C144 0.947 . S
H158 C146 0.952 . S
H159 C147 0.950 . S
N160 C163 1.382 . S
N160 C165 1.363 . S
N161 C163 1.371 . S
N161 C164 1.372 . S
N162 C164 1.361 . S
N162 C165 1.377 . S
C163 N160 1.382 . S
C163 N161 1.371 . S
C163 C166 1.480 . S
C164 N161 1.372 . S
C164 N162 1.361 . S
C164 C172 1.457 . S
C165 N160 1.363 . S
C165 N162 1.377 . S
C165 C178 1.479 . S
C166 C163 1.480 . S
C166 C167 1.383 1_556 S
C166 C171 1.385 1_655 S
C167 H148 0.947 . S
C167 C166 1.383 1_554 S
C167 C168 1.388 . S
C168 H149 0.946 . S
C168 C167 1.388 . S
C168 C169 1.382 . S
C169 C168 1.382 . S
C169 C170 1.378 1_654 S
C170 H150 0.953 . S
C170 C169 1.378 1_456 S
C170 C171 1.369 . S
C171 H151 0.945 . S
C171 C166 1.385 1_455 S
C171 C170 1.369 . S
C172 C164 1.457 . S
C172 C173 1.372 . S
C172 C177 1.364 1_565 S
C173 H152 0.952 1_655 S
C173 C172 1.372 . S
C173 C174 1.389 1_655 S
C174 H153 0.949 . S
C174 C173 1.389 1_455 S
C174 C175 1.387 1_465 S
C175 C174 1.387 1_645 S
C175 C176 1.372 . S
C176 H154 0.950 . S
C176 C175 1.372 . S
C176 C177 1.379 . S
C177 H155 0.948 . S
C177 C172 1.364 1_545 S
C177 C176 1.379 . S
C178 C147 1.383 1_556 S
C178 C165 1.479 . S
C178 C179 1.398 1_565 S
C179 C144 1.382 . S
C179 H156 0.951 . S
C179 C178 1.398 1_545 S
C180 C181 1.384 1_565 S
C180 H193 0.947 . S
C180 C215 1.382 1_565 S
C181 C180 1.384 1_545 S
C181 C182 1.378 . S
C182 C181 1.378 . S
C182 C183 1.378 . S
C182 H194 0.952 . S
C183 C182 1.378 . S
C183 H195 0.950 . S
C183 C214 1.383 . S
H184 C203 0.947 . S
H185 C204 0.946 . S
H186 C206 0.953 . S
H187 C207 0.945 . S
H188 C209 0.952 . S
H189 C210 0.949 . S
H190 C212 0.950 . S
H191 C213 0.942 1_565 S
H192 C215 0.951 1_565 S
H193 C180 0.947 . S
H194 C182 0.952 . S
H195 C183 0.950 . S
N196 C199 1.382 . S
N196 C201 1.363 . S
N197 C199 1.371 . S
N197 C200 1.372 . S
N198 C200 1.361 . S
N198 C201 1.377 . S
C199 N196 1.382 . S
C199 N197 1.371 . S
C199 C202 1.480 . S
C200 N197 1.372 . S
C200 N198 1.361 . S
C200 C208 1.457 . S
C201 N196 1.363 . S
C201 N198 1.377 . S
C201 C214 1.479 . S
C202 C199 1.480 . S
C202 C203 1.383 . S
C202 C207 1.385 . S
C203 H184 0.947 . S
C203 C202 1.383 . S
C203 C204 1.388 . S
C204 H185 0.946 . S
C204 C203 1.388 . S
C204 C205 1.384 . S
C205 C204 1.384 . S
C205 C206 1.377 . S
C206 H186 0.953 . S
C206 C205 1.377 . S
C206 C207 1.369 . S
C207 H187 0.945 . S
C207 C202 1.385 . S
C207 C206 1.369 . S
C208 C200 1.457 . S
C208 C209 1.372 . S
C208 C213 1.364 . S
C209 H188 0.952 . S
C209 C208 1.372 . S
C209 C210 1.389 . S
C210 H189 0.949 . S
C210 C209 1.389 . S
C210 C211 1.387 . S
C211 C210 1.387 . S
C211 C212 1.372 1_545 S
C212 H190 0.950 . S
C212 C211 1.372 1_565 S
C212 C213 1.379 1_565 S
C213 H191 0.942 1_545 S
C213 C208 1.364 . S
C213 C212 1.379 1_545 S
C214 C183 1.383 . S
C214 C201 1.479 . S
C214 C215 1.398 . S
C215 C180 1.382 1_545 S
C215 H192 0.951 1_545 S
C215 C214 1.398 . S
C216 C217 1.384 . S
C216 H229 0.947 . S
C216 C251 1.382 . S
C217 C216 1.384 . S
C217 C218 1.378 1_554 S
C218 C217 1.378 1_556 S
C218 C219 1.378 1_556 S
C218 H230 0.952 . S
C219 C218 1.378 1_554 S
C219 H231 0.950 1_554 S
C219 C250 1.383 . S
H220 C239 0.947 . S
H221 C240 0.946 1_556 S
H222 C242 0.953 . S
H223 C243 0.945 . S
H224 C245 0.952 . S
H225 C246 0.949 . S
H226 C248 0.950 . S
H227 C249 0.948 . S
H228 C251 0.951 . S
H229 C216 0.947 . S
H230 C218 0.952 . S
H231 C219 0.950 1_556 S
N232 C235 1.382 . S
N232 C237 1.363 . S
N233 C235 1.371 . S
N233 C236 1.372 . S
N234 C236 1.361 . S
N234 C237 1.377 . S
C235 N232 1.382 . S
C235 N233 1.371 . S
C235 C238 1.480 . S
C236 N233 1.372 . S
C236 N234 1.361 . S
C236 C244 1.457 . S
C237 N232 1.363 . S
C237 N234 1.377 . S
C237 C250 1.479 . S
C238 C235 1.480 . S
C238 C239 1.383 . S
C238 C243 1.385 . S
C239 H220 0.947 . S
C239 C238 1.383 . S
C239 C240 1.388 . S
C240 H221 0.946 1_554 S
C240 C239 1.388 . S
C240 C241 1.384 . S
C241 C240 1.384 . S
C241 C242 1.377 . S
C242 H222 0.953 . S
C242 C241 1.377 . S
C242 C243 1.369 . S
C243 H223 0.945 . S
C243 C238 1.385 . S
C243 C242 1.369 . S
C244 C236 1.457 . S
C244 C245 1.372 . S
C244 C249 1.364 . S
C245 H224 0.952 . S
C245 C244 1.372 . S
C245 C246 1.389 . S
C246 H225 0.949 . S
C246 C245 1.389 . S
C246 C247 1.387 . S
C247 C246 1.387 . S
C247 C248 1.372 . S
C248 H226 0.950 . S
C248 C247 1.372 . S
C248 C249 1.379 . S
C249 H227 0.948 . S
C249 C244 1.364 . S
C249 C248 1.379 . S
C250 C219 1.383 . S
C250 C237 1.479 . S
C250 C251 1.398 . S
C251 C216 1.382 . S
C251 H228 0.951 . S
C251 C250 1.398 . S
C252 C253 1.384 . S
C252 H265 0.947 . S
C252 C287 1.382 . S
C253 C252 1.384 . S
C253 C254 1.378 1_455 S
C254 C253 1.378 1_655 S
C254 C255 1.378 1_655 S
C254 H266 0.952 . S
C255 C254 1.378 1_455 S
C255 H267 0.950 1_455 S
C255 C286 1.383 . S
H256 C275 0.947 . S
H257 C276 0.946 1_655 S
H258 C278 0.953 . S
H259 C279 0.945 . S
H260 C281 0.952 . S
H261 C282 0.949 . S
H262 C284 0.950 . S
H263 C285 0.948 . S
H264 C287 0.951 . S
H265 C252 0.947 . S
H266 C254 0.952 . S
H267 C255 0.950 1_655 S
N268 C271 1.382 . S
N268 C273 1.363 . S
N269 C271 1.371 . S
N269 C272 1.372 . S
N270 C272 1.361 . S
N270 C273 1.377 . S
C271 N268 1.382 . S
C271 N269 1.371 . S
C271 C274 1.480 . S
C272 N269 1.372 . S
C272 N270 1.361 . S
C272 C280 1.457 . S
C273 N268 1.363 . S
C273 N270 1.377 . S
C273 C286 1.479 . S
C274 C271 1.480 . S
C274 C275 1.383 . S
C274 C279 1.385 . S
C275 H256 0.947 . S
C275 C274 1.383 . S
C275 C276 1.388 . S
C276 H257 0.946 1_455 S
C276 C275 1.388 . S
C276 C277 1.384 . S
C277 C276 1.384 . S
C277 C278 1.377 . S
C278 H258 0.953 . S
C278 C277 1.377 . S
C278 C279 1.369 . S
C279 H259 0.945 . S
C279 C274 1.385 . S
C279 C278 1.369 . S
C280 C272 1.457 . S
C280 C281 1.372 . S
C280 C285 1.364 . S
C281 H260 0.952 . S
C281 C280 1.372 . S
C281 C282 1.389 . S
C282 H261 0.949 . S
C282 C281 1.389 . S
C282 C283 1.387 . S
C283 C282 1.387 . S
C283 C284 1.372 . S
C284 H262 0.950 . S
C284 C283 1.372 . S
C284 C285 1.379 . S
C285 H263 0.948 . S
C285 C280 1.364 . S
C285 C284 1.379 . S
C286 C255 1.383 . S
C286 C273 1.479 . S
C286 C287 1.398 . S
C287 C252 1.382 . S
C287 H264 0.951 . S
C287 C286 1.398 . S
O288 Zn289 1.953 . S
O288 C304 1.225 1_655 S
Zn289 O288 1.953 . S
Zn289 O290 1.949 1_655 S
Zn289 O296 1.919 . S
Zn289 O301 1.924 . S
O290 Zn289 1.949 1_455 S
O290 Zn291 1.923 1_445 S
O290 Zn292 1.950 . S
O290 Zn293 1.945 1_545 S
Zn291 O290 1.923 1_665 S
Zn291 O294 1.933 . S
Zn291 O297 1.941 1_565 S
Zn291 O298 1.965 1_665 S
Zn292 O290 1.950 . S
Zn292 O299 1.938 . S
Zn292 O300 1.906 1_545 S
Zn292 O310 1.953 . S
Zn293 O290 1.945 1_565 S
Zn293 O295 1.932 1_455 S
Zn293 O302 1.977 . S
Zn293 O303 1.910 1_455 S
O294 Zn291 1.933 . S
O294 C305 1.226 . S
O295 Zn293 1.932 1_655 S
O295 C305 1.307 . S
O296 Zn289 1.919 . S
O296 C307 1.253 . S
O297 Zn291 1.941 1_545 S
O297 C307 1.283 . S
O298 Zn291 1.965 1_445 S
O298 C306 1.303 . S
O299 Zn292 1.938 . S
O299 C306 1.247 . S
O300 Zn292 1.906 1_565 S
O300 C308 1.304 . S
O301 Zn289 1.924 . S
O301 C309 1.311 1_545 S
O302 Zn293 1.977 . S
O302 C308 1.272 . S
O303 Zn293 1.910 1_655 S
O303 C309 1.231 . S
C304 O288 1.225 1_455 S
C304 O310 1.298 . S
C305 O294 1.226 . S
C305 O295 1.307 . S
C306 O298 1.303 . S
C306 O299 1.247 . S
C307 O296 1.253 . S
C307 O297 1.283 . S
C308 O300 1.304 . S
C308 O302 1.272 . S
C309 O301 1.311 1_565 S
C309 O303 1.231 . S
O310 Zn292 1.953 . S
O310 C304 1.298 . S
O311 Zn312 1.953 . S
O311 C327 1.225 . S
Zn312 O311 1.953 . S
Zn312 O313 1.949 1_556 S
Zn312 O319 1.919 . S
Zn312 O324 1.924 . S
O313 Zn312 1.949 1_554 S
O313 Zn314 1.923 1_544 S
O313 Zn315 1.950 . S
O313 Zn316 1.945 1_545 S
Zn314 O313 1.923 1_566 S
Zn314 O317 1.933 1_556 S
Zn314 O320 1.941 . S
Zn314 O321 1.965 . S
Zn315 O313 1.950 . S
Zn315 O322 1.938 . S
Zn315 O323 1.906 . S
Zn315 O333 1.953 . S
Zn316 O313 1.945 1_565 S
Zn316 O318 1.932 . S
Zn316 O325 1.977 1_565 S
Zn316 O326 1.910 1_565 S
O317 Zn314 1.933 1_554 S
O317 C328 1.226 . S
O318 Zn316 1.932 . S
O318 C328 1.307 . S
O319 Zn312 1.919 . S
O319 C330 1.253 1_545 S
O320 Zn314 1.941 . S
O320 C330 1.283 . S
O321 Zn314 1.965 . S
O321 C329 1.303 . S
O322 Zn315 1.938 . S
O322 C329 1.247 1_544 S
O323 Zn315 1.906 . S
O323 C331 1.304 . S
O324 Zn312 1.924 . S
O324 C332 1.311 1_556 S
O325 Zn316 1.977 1_545 S
O325 C331 1.272 . S
O326 Zn316 1.910 1_545 S
O326 C332 1.231 . S
C327 O311 1.225 . S
C327 O333 1.298 1_556 S
C328 O317 1.226 . S
C328 O318 1.307 . S
C329 O321 1.303 . S
C329 O322 1.247 1_566 S
C330 O319 1.253 1_565 S
C330 O320 1.283 . S
C331 O323 1.304 . S
C331 O325 1.272 . S
C332 O324 1.311 1_554 S
C332 O326 1.231 . S
O333 Zn315 1.953 . S
O333 C327 1.298 1_554 S
O334 Zn335 1.953 . S
O334 C350 1.225 . S
Zn335 O334 1.953 . S
Zn335 O336 1.949 . S
Zn335 O342 1.919 . S
Zn335 O347 1.924 . S
O336 Zn335 1.949 . S
O336 Zn337 1.923 . S
O336 Zn338 1.950 . S
O336 Zn339 1.945 . S
Zn337 O336 1.923 . S
Zn337 O340 1.933 . S
Zn337 O343 1.941 . S
Zn337 O344 1.965 . S
Zn338 O336 1.950 . S
Zn338 O345 1.938 . S
Zn338 O346 1.906 . S
Zn338 O356 1.953 . S
Zn339 O336 1.945 . S
Zn339 O341 1.932 . S
Zn339 O348 1.977 . S
Zn339 O349 1.910 . S
O340 Zn337 1.933 . S
O340 C351 1.226 . S
O341 Zn339 1.932 . S
O341 C351 1.307 . S
O342 Zn335 1.919 . S
O342 C353 1.253 . S
O343 Zn337 1.941 . S
O343 C353 1.283 . S
O344 Zn337 1.965 . S
O344 C352 1.303 . S
O345 Zn338 1.938 . S
O345 C352 1.247 . S
O346 Zn338 1.906 . S
O346 C354 1.304 . S
O347 Zn335 1.924 . S
O347 C355 1.311 . S
O348 Zn339 1.977 . S
O348 C354 1.272 . S
O349 Zn339 1.910 . S
O349 C355 1.231 . S
C350 O334 1.225 . S
C350 O356 1.298 . S
C351 O340 1.226 . S
C351 O341 1.307 . S
C352 O344 1.303 . S
C352 O345 1.247 . S
C353 O342 1.253 . S
C353 O343 1.283 . S
C354 O346 1.304 . S
C354 O348 1.272 . S
C355 O347 1.311 . S
C355 O349 1.231 . S
O356 Zn338 1.953 . S
O356 C350 1.298 . S
O357 Zn358 1.953 . S
O357 C373 1.225 . S
Zn358 O357 1.953 . S
Zn358 O359 1.949 1_655 S
Zn358 O365 1.919 . S
Zn358 O370 1.924 . S
O359 Zn358 1.949 1_455 S
O359 Zn360 1.923 1_454 S
O359 Zn361 1.950 . S
O359 Zn362 1.945 1_554 S
Zn360 O359 1.923 1_656 S
Zn360 O363 1.933 1_655 S
Zn360 O366 1.941 . S
Zn360 O367 1.965 . S
Zn361 O359 1.950 . S
Zn361 O368 1.938 . S
Zn361 O369 1.906 . S
Zn361 O379 1.953 . S
Zn362 O359 1.945 1_556 S
Zn362 O364 1.932 . S
Zn362 O371 1.977 1_556 S
Zn362 O372 1.910 1_556 S
O363 Zn360 1.933 1_455 S
O363 C374 1.226 . S
O364 Zn362 1.932 . S
O364 C374 1.307 . S
O365 Zn358 1.919 . S
O365 C376 1.253 1_554 S
O366 Zn360 1.941 . S
O366 C376 1.283 . S
O367 Zn360 1.965 . S
O367 C375 1.303 . S
O368 Zn361 1.938 . S
O368 C375 1.247 1_454 S
O369 Zn361 1.906 . S
O369 C377 1.304 . S
O370 Zn358 1.924 . S
O370 C378 1.311 1_655 S
O371 Zn362 1.977 1_554 S
O371 C377 1.272 . S
O372 Zn362 1.910 1_554 S
O372 C378 1.231 . S
C373 O357 1.225 . S
C373 O379 1.298 1_655 S
C374 O363 1.226 . S
C374 O364 1.307 . S
C375 O367 1.303 . S
C375 O368 1.247 1_656 S
C376 O365 1.253 1_556 S
C376 O366 1.283 . S
C377 O369 1.304 . S
C377 O371 1.272 . S
C378 O370 1.311 1_455 S
C378 O372 1.231 . S
O379 Zn361 1.953 . S
O379 C373 1.298 1_455 S
C1 C306 1.756 . S
C67 C330 1.640 . S
C350 C97 1.633 . S
C133 C373 1.825 . S
C332 C25 1.737 . S
C308 C37 1.767 . S
C376 C103 1.823 . S
C353 C109 1.928 . S
C31 C378 1.415 . S
C327 C73 1.803 . S
C139 C305 1.916 . S
C61 C355 1.393 . S
C309 C175 2.388 1_565 S
C181 C331 2.087 . S
C247 C351 2.388 . S
C277 C374 2.397 . S
C145 C329 2.250 1_544 S
C307 C211 2.348 . S
C377 C217 1.956 . S
C354 C283 2.031 . S
C169 C375 2.496 1_554 S
C328 C241 2.309 . S
C304 C253 2.303 . S
C205 C352 2.294 . S
