# Generated by pormake.
# Topology pyr, (3,6)-cn, num edge types: 1
# Building blocks:
#     Node 0, Type 0, BuildingBlock: ESEHIV_clean_linker_0, # of connection points: 3
#     Node 1, Type 0, BuildingBlock: ESEHIV_clean_linker_0, # of connection points: 3
#     Node 2, Type 0, BuildingBlock: ESEHIV_clean_linker_0, # of connection points: 3
#     Node 3, Type 0, BuildingBlock: ESEHIV_clean_linker_0, # of connection points: 3
#     Node 4, Type 0, BuildingBlock: ESEHIV_clean_linker_0, # of connection points: 3
#     Node 5, Type 0, BuildingBlock: ESEHIV_clean_linker_0, # of connection points: 3
#     Node 6, Type 0, BuildingBlock: ESEHIV_clean_linker_0, # of connection points: 3
#     Node 7, Type 0, BuildingBlock: ESEHIV_clean_linker_0, # of connection points: 3
#     Node 8, Type 1, BuildingBlock: MIDCAF_clean_sbu_0, # of connection points: 6
#     Node 9, Type 1, BuildingBlock: MIDCAF_clean_sbu_0, # of connection points: 6
#     Node 10, Type 1, BuildingBlock: MIDCAF_clean_sbu_0, # of connection points: 6
#     Node 11, Type 1, BuildingBlock: MIDCAF_clean_sbu_0, # of connection points: 6
#     Edge 12, Type (0, 1), BuildingBlock: TEMPAE_clean_linker_10, # of connection points: 2
#     Edge 13, Type (0, 1), BuildingBlock: TEMPAE_clean_linker_10, # of connection points: 2
#     Edge 14, Type (0, 1), BuildingBlock: TEMPAE_clean_linker_10, # of connection points: 2
#     Edge 15, Type (0, 1), BuildingBlock: TEMPAE_clean_linker_10, # of connection points: 2
#     Edge 16, Type (0, 1), BuildingBlock: TEMPAE_clean_linker_10, # of connection points: 2
#     Edge 17, Type (0, 1), BuildingBlock: TEMPAE_clean_linker_10, # of connection points: 2
#     Edge 18, Type (0, 1), BuildingBlock: TEMPAE_clean_linker_10, # of connection points: 2
#     Edge 19, Type (0, 1), BuildingBlock: TEMPAE_clean_linker_10, # of connection points: 2
#     Edge 20, Type (0, 1), BuildingBlock: TEMPAE_clean_linker_10, # of connection points: 2
#     Edge 21, Type (0, 1), BuildingBlock: TEMPAE_clean_linker_10, # of connection points: 2
#     Edge 22, Type (0, 1), BuildingBlock: TEMPAE_clean_linker_10, # of connection points: 2
#     Edge 23, Type (0, 1), BuildingBlock: TEMPAE_clean_linker_10, # of connection points: 2
#     Edge 24, Type (0, 1), BuildingBlock: TEMPAE_clean_linker_10, # of connection points: 2
#     Edge 25, Type (0, 1), BuildingBlock: TEMPAE_clean_linker_10, # of connection points: 2
#     Edge 26, Type (0, 1), BuildingBlock: TEMPAE_clean_linker_10, # of connection points: 2
#     Edge 27, Type (0, 1), BuildingBlock: TEMPAE_clean_linker_10, # of connection points: 2
#     Edge 28, Type (0, 1), BuildingBlock: TEMPAE_clean_linker_10, # of connection points: 2
#     Edge 29, Type (0, 1), BuildingBlock: TEMPAE_clean_linker_10, # of connection points: 2
#     Edge 30, Type (0, 1), BuildingBlock: TEMPAE_clean_linker_10, # of connection points: 2
#     Edge 31, Type (0, 1), BuildingBlock: TEMPAE_clean_linker_10, # of connection points: 2
#     Edge 32, Type (0, 1), BuildingBlock: TEMPAE_clean_linker_10, # of connection points: 2
#     Edge 33, Type (0, 1), BuildingBlock: TEMPAE_clean_linker_10, # of connection points: 2
#     Edge 34, Type (0, 1), BuildingBlock: TEMPAE_clean_linker_10, # of connection points: 2
#     Edge 35, Type (0, 1), BuildingBlock: TEMPAE_clean_linker_10, # of connection points: 2
# Relax obj value: 0.019
# Max RMSD: 0.062
# Mean RMSD: 0.024
data_MOF--net-pry--node1-MIDCAF_clean_sbu_0--node2-ESEHIV_clean_linker_0--edge1-TEMPAE_clean_linker_10
_symmetry_space_group_name_H-M    P1
_symmetry_Int_Tables_number       1
_symmetry_cell_setting            triclinic
loop_
_symmetry_equiv_pos_as_xyz
'x, y, z'
_cell_length_a     34.011156
_cell_length_b     34.027658
_cell_length_c     34.042823
_cell_angle_alpha  90.051973
_cell_angle_beta   90.160044
_cell_angle_gamma 90.26181
loop_
_atom_site_label
_atom_site_type_symbol
_atom_site_fract_x
_atom_site_fract_y
_atom_site_fract_z
_atom_type_partial_charge
H0 H 0.1839 0.28466 0.27809 0.0
H1 H 0.27393 0.19686 0.27594 0.0
H2 H 0.27507 0.29026 0.19072 0.0
C3 C 0.21112 0.27368 0.26583 0.0
C4 C 0.22788 0.29214 0.23292 0.0
C5 C 0.22795 0.23967 0.28154 0.0
C6 C 0.26221 0.22428 0.26483 0.0
C7 C 0.27964 0.24247 0.23217 0.0
C8 C 0.26253 0.27673 0.21667 0.0
H9 H 0.25845 0.85532 0.77406 0.0
H10 H 0.3462 0.76386 0.77552 0.0
H11 H 0.26183 0.76946 0.6818 0.0
C12 C 0.2709 0.82856 0.76225 0.0
C13 C 0.25537 0.81337 0.72709 0.0
C14 C 0.30406 0.81131 0.78023 0.0
C15 C 0.32076 0.77783 0.76249 0.0
C16 C 0.30555 0.76259 0.72719 0.0
C17 C 0.27279 0.78034 0.70973 0.0
H18 H 0.77405 0.26507 0.85513 0.0
H19 H 0.77371 0.35232 0.76369 0.0
H20 H 0.6853 0.26151 0.76508 0.0
C21 C 0.76211 0.27642 0.82785 0.0
C22 C 0.72883 0.25848 0.8112 0.0
C23 C 0.77902 0.30988 0.81047 0.0
C24 C 0.7621 0.32536 0.77616 0.0
C25 C 0.72842 0.30789 0.75953 0.0
C26 C 0.71229 0.27402 0.77676 0.0
H27 H 0.75269 0.77629 0.34071 0.0
H28 H 0.84411 0.7754 0.25295 0.0
H29 H 0.75883 0.68206 0.2574 0.0
C30 C 0.76665 0.76335 0.31526 0.0
C31 C 0.7519 0.72769 0.30058 0.0
C32 C 0.80004 0.78124 0.29844 0.0
C33 C 0.81739 0.76331 0.26539 0.0
C34 C 0.80253 0.72778 0.25018 0.0
C35 C 0.76969 0.71016 0.26798 0.0
H36 H 0.87217 0.9613 0.84628 0.0
H37 H 0.95136 0.86718 0.87423 0.0
H38 H 0.85374 0.89204 0.95011 0.0
C39 C 0.88144 0.9379 0.86572 0.0
C40 C 0.85859 0.92885 0.89877 0.0
C41 C 0.91528 0.91599 0.85684 0.0
C42 C 0.92649 0.88536 0.88203 0.0
C43 C 0.90443 0.87638 0.91576 0.0
C44 C 0.87079 0.89859 0.92406 0.0
H45 H 0.56026 0.16958 0.40215 0.0
H46 H 0.63133 0.06809 0.3796 0.0
H47 H 0.66565 0.15113 0.46899 0.0
C48 C 0.58587 0.15191 0.40871 0.0
C49 C 0.61185 0.16396 0.4386 0.0
C50 C 0.59303 0.11784 0.38664 0.0
C51 C 0.62567 0.09445 0.3964 0.0
C52 C 0.65203 0.10566 0.42642 0.0
C53 C 0.64474 0.14071 0.44727 0.0
H54 H 0.38025 0.63963 0.06793 0.0
H55 H 0.39989 0.56473 0.1674 0.0
H56 H 0.47014 0.66878 0.15232 0.0
C57 C 0.3968 0.63253 0.09415 0.0
C58 C 0.42739 0.65768 0.1064 0.0
C59 C 0.3859 0.59953 0.11651 0.0
C60 C 0.40753 0.59061 0.15049 0.0
C61 C 0.43817 0.61533 0.16347 0.0
C62 C 0.44794 0.64869 0.14123 0.0
H63 H 0.07249 0.36502 0.63997 0.0
H64 H 0.17421 0.38366 0.56747 0.0
H65 H 0.15142 0.46094 0.66459 0.0
C66 C 0.09869 0.38177 0.63288 0.0
C67 C 0.10866 0.41469 0.65576 0.0
C68 C 0.1225 0.36994 0.60131 0.0
C69 C 0.15574 0.3926 0.59173 0.0
C70 C 0.16609 0.4259 0.61413 0.0
C71 C 0.14239 0.43661 0.64604 0.0
Zn72 Zn 0.97051 0.06405 0.55201 0.0
Zn73 Zn 0.06281 0.97387 0.46914 0.0
Zn74 Zn 0.014 0.01972 0.51009 0.0
C75 C 0.08613 0.05166 0.45631 0.0
C76 C 0.98549 0.96136 0.44048 0.0
O77 O 0.01841 0.00054 0.57256 0.0
O78 O 0.98484 0.04572 0.60466 0.0
C79 C 0.02067 0.11523 0.51593 0.0
O80 O 0.05653 0.05776 0.47908 0.0
O81 O 0.09623 0.01703 0.44771 0.0
O82 O 0.02072 0.95066 0.43598 0.0
O83 O 0.9769 0.98759 0.46647 0.0
O84 O 0.98991 0.11605 0.53646 0.0
O85 O 0.03457 0.08202 0.50417 0.0
O86 O 0.95227 0.01367 0.48794 0.0
O87 O 0.91897 0.04882 0.53118 0.0
C88 C 0.91945 0.02715 0.50117 0.0
O89 O 0.04521 0.97843 0.55062 0.0
O90 O 0.08319 0.94158 0.51296 0.0
C91 C 0.00571 0.01521 0.60508 0.0
C92 C 0.07059 0.9506 0.54659 0.0
Zn93 Zn 0.46929 0.06983 0.98474 0.0
Zn94 Zn 0.56123 0.97887 0.06495 0.0
Zn95 Zn 0.51451 0.02088 0.02481 0.0
C96 C 0.60748 0.00711 0.00672 0.0
C97 C 0.50219 0.92878 0.03908 0.0
O98 O 0.48549 0.06157 0.06674 0.0
O99 O 0.4475 0.09947 0.02989 0.0
C100 C 0.54504 0.08211 0.95724 0.0
O101 O 0.57507 0.02534 0.99943 0.0
O102 O 0.60918 0.98238 0.03416 0.0
O103 O 0.53064 0.93007 0.06285 0.0
O104 O 0.49201 0.95962 0.01964 0.0
O105 O 0.51063 0.09509 0.95275 0.0
O106 O 0.55171 0.05419 0.98205 0.0
O107 O 0.46994 0.98352 0.99364 0.0
O108 O 0.43755 0.02804 0.95913 0.0
C109 C 0.44329 0.9925 0.9681 0.0
O110 O 0.51368 0.04083 0.08786 0.0
O111 O 0.56247 0.00738 0.11453 0.0
C112 C 0.4603 0.08959 0.06324 0.0
C113 C 0.53624 0.0332 0.11742 0.0
Zn114 Zn 0.56197 0.56478 0.56563 0.0
Zn115 Zn 0.47366 0.4742 0.4752 0.0
Zn116 Zn 0.51608 0.51832 0.51909 0.0
C117 C 0.51936 0.42276 0.51661 0.0
C118 C 0.51398 0.52085 0.42365 0.0
O119 O 0.4773 0.55163 0.55942 0.0
O120 O 0.51775 0.58439 0.59884 0.0
C121 C 0.58576 0.4864 0.57631 0.0
O122 O 0.53447 0.4559 0.52745 0.0
O123 O 0.4891 0.42221 0.49513 0.0
O124 O 0.49357 0.48982 0.42326 0.0
O125 O 0.52418 0.53654 0.45668 0.0
O126 O 0.59555 0.52106 0.5856 0.0
O127 O 0.55672 0.48019 0.55263 0.0
O128 O 0.54952 0.55894 0.48094 0.0
O129 O 0.58203 0.59824 0.52168 0.0
C130 C 0.57309 0.58811 0.48705 0.0
O131 O 0.45365 0.5263 0.5366 0.0
O132 O 0.42152 0.49389 0.49024 0.0
C133 C 0.48317 0.57518 0.58859 0.0
C134 C 0.42105 0.51526 0.52052 0.0
Zn135 Zn 0.0665 0.56997 0.96888 0.0
Zn136 Zn 0.97989 0.48241 0.05499 0.0
Zn137 Zn 0.02554 0.52908 0.00909 0.0
C138 C 0.05855 0.47517 0.08022 0.0
C139 C 0.97088 0.45752 0.97656 0.0
O140 O 0.00161 0.58967 0.01072 0.0
O141 O 0.0279 0.61083 0.9555 0.0
C142 C 0.11362 0.55468 0.0294 0.0
O143 O 0.06446 0.49902 0.05144 0.0
O144 O 0.02419 0.46403 0.08894 0.0
O145 O 0.96083 0.44823 0.01103 0.0
O146 O 0.99448 0.48663 0.9705 0.0
O147 O 0.10839 0.58347 0.00673 0.0
O148 O 0.08717 0.5275 0.0316 0.0
O149 O 0.02364 0.5057 0.94815 0.0
O150 O 0.07947 0.53145 0.9276 0.0
C151 C 0.05118 0.50795 0.92233 0.0
O152 O 0.9831 0.56732 0.04013 0.0
O153 O 0.94563 0.52607 0.07402 0.0
C154 C 0.00388 0.61555 0.98321 0.0
C155 C 0.95432 0.56072 0.06384 0.0
C156 C 0.18515 0.18349 0.29898 0.0
C157 C 0.20635 0.21663 0.31112 0.0
C158 C 0.16473 0.16033 0.32616 0.0
C159 C 0.16605 0.17035 0.36655 0.0
C160 C 0.18694 0.20435 0.37888 0.0
C161 C 0.20685 0.22729 0.35083 0.0
C162 C 0.14229 0.12472 0.31168 0.0
C163 C 0.18944 0.21577 0.42165 0.0
C164 C 0.08752 0.11854 0.4262 0.0
C165 C 0.1076 0.08483 0.4384 0.0
C166 C 0.10694 0.14832 0.40522 0.0
C167 C 0.14712 0.1437 0.39554 0.0
C168 C 0.16795 0.1106 0.40953 0.0
C169 C 0.14786 0.08144 0.43064 0.0
C170 C 0.08393 0.18361 0.39161 0.0
C171 C 0.21098 0.10495 0.40046 0.0
H172 H 0.1847 0.17568 0.26808 0.0
H173 H 0.22335 0.25308 0.35995 0.0
H174 H 0.15531 0.09766 0.32427 0.0
H175 H 0.11128 0.1261 0.32162 0.0
H176 H 0.14259 0.1222 0.27914 0.0
H177 H 0.19869 0.2469 0.42545 0.0
H178 H 0.16084 0.21127 0.43656 0.0
H179 H 0.21132 0.19682 0.43659 0.0
H180 H 0.05624 0.12092 0.43162 0.0
H181 H 0.16346 0.05544 0.44026 0.0
H182 H 0.07947 0.18187 0.35934 0.0
H183 H 0.10047 0.21111 0.39784 0.0
H184 H 0.05471 0.1854 0.406 0.0
H185 H 0.21466 0.0993 0.36858 0.0
H186 H 0.22383 0.07994 0.41697 0.0
H187 H 0.22785 0.13201 0.40767 0.0
C188 C 0.36441 0.83071 0.81917 0.0
C189 C 0.32323 0.83049 0.81509 0.0
C190 C 0.38312 0.85231 0.8491 0.0
C191 C 0.36036 0.87535 0.87506 0.0
C192 C 0.31882 0.87378 0.87251 0.0
C193 C 0.30079 0.85104 0.84294 0.0
C194 C 0.42747 0.85245 0.85131 0.0
C195 C 0.29339 0.89817 0.89931 0.0
C196 C 0.41164 0.92543 0.96196 0.0
C197 C 0.42119 0.96206 0.94579 0.0
C198 C 0.39133 0.89683 0.93965 0.0
C199 C 0.38012 0.90537 0.90042 0.0
C200 C 0.3888 0.94278 0.88446 0.0
C201 C 0.4092 0.97048 0.90723 0.0
C202 C 0.38225 0.85747 0.95785 0.0
C203 C 0.37699 0.95351 0.84301 0.0
H204 H 0.38244 0.81559 0.79785 0.0
H205 H 0.269 0.85038 0.84099 0.0
H206 H 0.43891 0.88114 0.84078 0.0
H207 H 0.43745 0.84874 0.88214 0.0
H208 H 0.44058 0.8288 0.83311 0.0
H209 H 0.2619 0.88953 0.89745 0.0
H210 H 0.30328 0.89553 0.93025 0.0
H211 H 0.29604 0.92959 0.89098 0.0
H212 H 0.41934 0.91946 0.99217 0.0
H213 H 0.41634 0.9988 0.89446 0.0
H214 H 0.39895 0.83425 0.94237 0.0
H215 H 0.3506 0.85024 0.95449 0.0
H216 H 0.38992 0.85668 0.98957 0.0
H217 H 0.3922 0.93407 0.82179 0.0
H218 H 0.38428 0.9845 0.83569 0.0
H219 H 0.3449 0.94904 0.83891 0.0
C220 C 0.68692 0.36364 0.73839 0.0
C221 C 0.70644 0.32893 0.7286 0.0
C222 C 0.66611 0.38491 0.70998 0.0
C223 C 0.66541 0.37149 0.67056 0.0
C224 C 0.68462 0.33595 0.66061 0.0
C225 C 0.70478 0.31486 0.68995 0.0
C226 C 0.6454 0.42217 0.7221 0.0
C227 C 0.68518 0.32097 0.61889 0.0
C228 C 0.58644 0.4207 0.60908 0.0
C229 C 0.60698 0.45336 0.59463 0.0
C230 C 0.60569 0.39195 0.63158 0.0
C231 C 0.64633 0.39629 0.63995 0.0
C232 C 0.6676 0.42791 0.62315 0.0
C233 C 0.64758 0.45629 0.60105 0.0
C234 C 0.58204 0.35839 0.64842 0.0
C235 C 0.71114 0.43302 0.63039 0.0
H236 H 0.688 0.37414 0.76847 0.0
H237 H 0.71995 0.2879 0.68257 0.0
H238 H 0.6591 0.44778 0.70724 0.0
H239 H 0.61409 0.42098 0.71287 0.0
H240 H 0.64667 0.42714 0.75434 0.0
H241 H 0.69348 0.28947 0.61741 0.0
H242 H 0.65616 0.32479 0.60451 0.0
H243 H 0.70695 0.33821 0.60176 0.0
H244 H 0.55495 0.41861 0.60444 0.0
H245 H 0.66353 0.48145 0.58962 0.0
H246 H 0.57868 0.36272 0.68055 0.0
H247 H 0.59747 0.33009 0.64395 0.0
H248 H 0.55231 0.35625 0.63495 0.0
H249 H 0.71622 0.44146 0.6615 0.0
H250 H 0.72422 0.45605 0.61129 0.0
H251 H 0.72674 0.40494 0.6252 0.0
C252 C 0.83519 0.66782 0.2238 0.0
C253 C 0.82386 0.70697 0.21843 0.0
C254 C 0.85675 0.64788 0.19502 0.0
C255 C 0.86666 0.66729 0.15955 0.0
C256 C 0.85473 0.70672 0.15367 0.0
C257 C 0.83399 0.7263 0.18351 0.0
C258 C 0.86935 0.60608 0.20284 0.0
C259 C 0.86441 0.72878 0.11648 0.0
C260 C 0.95224 0.62015 0.1062 0.0
C261 C 0.93256 0.59336 0.08183 0.0
C262 C 0.93115 0.64633 0.13005 0.0
C263 C 0.8895 0.64574 0.12912 0.0
C264 C 0.86972 0.62067 0.10227 0.0
C265 C 0.8915 0.59423 0.07942 0.0
C266 C 0.95335 0.67273 0.15807 0.0
C267 C 0.82545 0.62038 0.09918 0.0
H268 H 0.82792 0.65304 0.25105 0.0
H269 H 0.82535 0.75665 0.17938 0.0
H270 H 0.85653 0.58617 0.18033 0.0
H271 H 0.90182 0.6038 0.2007 0.0
H272 H 0.86013 0.59558 0.23231 0.0
H273 H 0.84257 0.75225 0.11062 0.0
H274 H 0.89358 0.74308 0.12 0.0
H275 H 0.86566 0.70906 0.09053 0.0
H276 H 0.98404 0.61903 0.1083 0.0
H277 H 0.87639 0.57336 0.06052 0.0
H278 H 0.94806 0.66288 0.18869 0.0
H279 H 0.94262 0.70337 0.15566 0.0
H280 H 0.98552 0.67252 0.1525 0.0
H281 H 0.81267 0.60773 0.12635 0.0
H282 H 0.81488 0.60283 0.07369 0.0
H283 H 0.81431 0.65087 0.09632 0.0
C284 C 0.31091 0.21742 0.17079 0.0
C285 C 0.31266 0.22286 0.21156 0.0
C286 C 0.33968 0.19569 0.15107 0.0
C287 C 0.37127 0.17914 0.17256 0.0
C288 C 0.37399 0.18567 0.21358 0.0
C289 C 0.3444 0.20712 0.23266 0.0
C290 C 0.33552 0.18939 0.10731 0.0
C291 C 0.40703 0.1689 0.23788 0.0
C292 C 0.4145 0.09158 0.11958 0.0
C293 C 0.44439 0.1096 0.09788 0.0
C294 C 0.39225 0.1133 0.14657 0.0
C295 C 0.40017 0.15391 0.15167 0.0
C296 C 0.43256 0.17129 0.13212 0.0
C297 C 0.45401 0.14899 0.10494 0.0
C298 C 0.35853 0.09349 0.16751 0.0
C299 C 0.4429 0.21404 0.13803 0.0
H300 H 0.28612 0.22892 0.15442 0.0
H301 H 0.34593 0.2113 0.2642 0.0
H302 H 0.36234 0.19987 0.09201 0.0
H303 H 0.33233 0.15753 0.10097 0.0
H304 H 0.3097 0.20494 0.09483 0.0
H305 H 0.41329 0.18761 0.26394 0.0
H306 H 0.39807 0.13946 0.24869 0.0
H307 H 0.43447 0.16564 0.22068 0.0
H308 H 0.40704 0.06111 0.11373 0.0
H309 H 0.47713 0.16279 0.08788 0.0
H310 H 0.33027 0.10492 0.15591 0.0
H311 H 0.35963 0.10028 0.19937 0.0
H312 H 0.35886 0.06108 0.16363 0.0
H313 H 0.41988 0.23267 0.12446 0.0
H314 H 0.47169 0.22176 0.1247 0.0
H315 H 0.44389 0.22116 0.16985 0.0
C316 C 0.23313 0.85393 0.67069 0.0
C317 C 0.22408 0.83483 0.7059 0.0
C318 C 0.20418 0.87418 0.64952 0.0
C319 C 0.16494 0.8746 0.66347 0.0
C320 C 0.15575 0.85577 0.69945 0.0
C321 C 0.18562 0.83633 0.72049 0.0
C322 C 0.21553 0.89456 0.61179 0.0
C323 C 0.11422 0.85481 0.71494 0.0
C324 C 0.10166 0.95152 0.61322 0.0
C325 C 0.0875 0.93019 0.58091 0.0
C326 C 0.12471 0.93319 0.64224 0.0
C327 C 0.13364 0.89267 0.63867 0.0
C328 C 0.11669 0.87054 0.60767 0.0
C329 C 0.09424 0.88967 0.57891 0.0
C330 C 0.14183 0.9578 0.67501 0.0
C331 C 0.1244 0.82709 0.60337 0.0
H332 H 0.26304 0.85303 0.65976 0.0
H333 H 0.17878 0.82149 0.74781 0.0
H334 H 0.20056 0.88011 0.58659 0.0
H335 H 0.20583 0.92564 0.61244 0.0
H336 H 0.24775 0.89391 0.60656 0.0
H337 H 0.11315 0.84579 0.74628 0.0
H338 H 0.09999 0.88391 0.71186 0.0
H339 H 0.09661 0.8335 0.69748 0.0
H340 H 0.09672 0.98294 0.61459 0.0
H341 H 0.08308 0.87316 0.55397 0.0
H342 H 0.17372 0.96231 0.66973 0.0
H343 H 0.13872 0.94257 0.70363 0.0
H344 H 0.12753 0.98703 0.67704 0.0
H345 H 0.15535 0.82251 0.59428 0.0
H346 H 0.10484 0.81321 0.58109 0.0
H347 H 0.12019 0.81189 0.63188 0.0
C348 C 0.8458 0.34169 0.81042 0.0
C349 C 0.81149 0.33108 0.83061 0.0
C350 C 0.8765 0.36194 0.82961 0.0
C351 C 0.87208 0.37286 0.86954 0.0
C352 C 0.83718 0.36256 0.8898 0.0
C353 C 0.80754 0.34151 0.8702 0.0
C354 C 0.91306 0.37213 0.80669 0.0
C355 C 0.8309 0.37414 0.93218 0.0
C356 C 0.95449 0.39567 0.94115 0.0
C357 C 0.95226 0.43664 0.94352 0.0
C358 C 0.93086 0.37464 0.91448 0.0
C359 C 0.90345 0.39508 0.89079 0.0
C360 C 0.90274 0.43669 0.89164 0.0
C361 C 0.92733 0.45702 0.918 0.0
C362 C 0.93365 0.33041 0.91321 0.0
C363 C 0.87412 0.45958 0.86676 0.0
H364 H 0.84881 0.33374 0.77973 0.0
H365 H 0.78074 0.33385 0.88566 0.0
H366 H 0.90956 0.40184 0.79383 0.0
H367 H 0.93972 0.37238 0.82555 0.0
H368 H 0.91769 0.35117 0.78211 0.0
H369 H 0.80166 0.36476 0.94332 0.0
H370 H 0.85392 0.36075 0.95095 0.0
H371 H 0.83348 0.40651 0.93537 0.0
H372 H 0.97379 0.38002 0.96108 0.0
H373 H 0.9254 0.48875 0.9203 0.0
H374 H 0.93534 0.32011 0.88231 0.0
H375 H 0.90682 0.31728 0.92635 0.0
H376 H 0.95969 0.31942 0.92954 0.0
H377 H 0.87546 0.44962 0.83576 0.0
H378 H 0.88004 0.4917 0.86777 0.0
H379 H 0.84374 0.45413 0.87735 0.0
C380 C 0.73352 0.68497 0.3564 0.0
C381 C 0.7219 0.70591 0.32307 0.0
C382 C 0.7059 0.66483 0.37936 0.0
C383 C 0.66556 0.66607 0.3689 0.0
C384 C 0.65378 0.68662 0.33464 0.0
C385 C 0.68224 0.70637 0.312 0.0
C386 C 0.71984 0.64288 0.4153 0.0
C387 C 0.61112 0.68895 0.32264 0.0
C388 C 0.60426 0.58843 0.42061 0.0
C389 C 0.5917 0.60904 0.4539 0.0
C390 C 0.62597 0.60733 0.39103 0.0
C391 C 0.63606 0.64754 0.3954 0.0
C392 C 0.62178 0.66886 0.42808 0.0
C393 C 0.59996 0.64929 0.45704 0.0
C394 C 0.63984 0.58375 0.35621 0.0
C395 C 0.63124 0.71193 0.43347 0.0
H396 H 0.76436 0.68463 0.36462 0.0
H397 H 0.67349 0.7227 0.28611 0.0
H398 H 0.70709 0.6563 0.44209 0.0
H399 H 0.70962 0.61189 0.41407 0.0
H400 H 0.75239 0.64316 0.41819 0.0
H401 H 0.60773 0.69789 0.29144 0.0
H402 H 0.596 0.66037 0.32705 0.0
H403 H 0.59607 0.71096 0.3413 0.0
H404 H 0.59853 0.55716 0.41846 0.0
H405 H 0.59013 0.6653 0.48273 0.0
H406 H 0.67203 0.57907 0.3586 0.0
H407 H 0.63432 0.59994 0.32848 0.0
H408 H 0.62503 0.55462 0.3544 0.0
H409 H 0.66314 0.7156 0.43944 0.0
H410 H 0.61461 0.72516 0.45818 0.0
H411 H 0.62444 0.72842 0.40621 0.0
C412 C 0.16646 0.32021 0.20446 0.0
C413 C 0.20666 0.32438 0.21268 0.0
C414 C 0.1461 0.34885 0.1831 0.0
C415 C 0.1663 0.38282 0.16986 0.0
C416 C 0.20674 0.3877 0.17886 0.0
C417 C 0.22656 0.35815 0.19979 0.0
C418 C 0.10308 0.34224 0.17391 0.0
C419 C 0.22976 0.4232 0.16545 0.0
C420 C 0.11583 0.43054 0.08285 0.0
C421 C 0.09172 0.45786 0.10168 0.0
C422 C 0.14234 0.40753 0.10446 0.0
C423 C 0.14473 0.41222 0.14574 0.0
C424 C 0.12239 0.44187 0.16437 0.0
C425 C 0.09558 0.46396 0.14215 0.0
C426 C 0.16587 0.37649 0.08347 0.0
C427 C 0.1253 0.44876 0.20807 0.0
H428 H 0.15111 0.29382 0.21372 0.0
H429 H 0.25768 0.36147 0.20605 0.0
H430 H 0.08538 0.36693 0.18556 0.0
H431 H 0.09859 0.3414 0.14162 0.0
H432 H 0.09167 0.31439 0.18661 0.0
H433 H 0.25382 0.43033 0.18644 0.0
H434 H 0.24346 0.41643 0.13672 0.0
H435 H 0.21094 0.4495 0.16187 0.0
H436 H 0.11237 0.42569 0.05154 0.0
H437 H 0.07669 0.48508 0.15657 0.0
H438 H 0.15462 0.34694 0.09163 0.0
H439 H 0.19719 0.37805 0.09256 0.0
H440 H 0.16413 0.3796 0.05102 0.0
H441 H 0.11252 0.42328 0.22394 0.0
H442 H 0.10953 0.47574 0.2173 0.0
H443 H 0.15661 0.45136 0.21707 0.0
C444 C 0.70899 0.18834 0.8222 0.0
C445 C 0.70759 0.22789 0.83343 0.0
C446 C 0.68726 0.15974 0.84278 0.0
C447 C 0.66297 0.17142 0.87445 0.0
C448 C 0.66241 0.21134 0.8863 0.0
C449 C 0.685 0.23902 0.86579 0.0
C450 C 0.68944 0.11731 0.83005 0.0
C451 C 0.63667 0.22517 0.91961 0.0
C452 C 0.56835 0.1175 0.89774 0.0
C453 C 0.57711 0.10026 0.9341 0.0
C454 C 0.59669 0.13914 0.87712 0.0
C455 C 0.63505 0.14314 0.89288 0.0
C456 C 0.64478 0.12388 0.92847 0.0
C457 C 0.61536 0.1035 0.94917 0.0
C458 C 0.58485 0.15956 0.83953 0.0
C459 C 0.68564 0.12633 0.94568 0.0
H460 H 0.72682 0.17991 0.79725 0.0
H461 H 0.68418 0.26974 0.87431 0.0
H462 H 0.69333 0.09785 0.85589 0.0
H463 H 0.66147 0.10867 0.81552 0.0
H464 H 0.71393 0.11217 0.80917 0.0
H465 H 0.64081 0.25693 0.92608 0.0
H466 H 0.6053 0.21997 0.91207 0.0
H467 H 0.64314 0.20818 0.94663 0.0
H468 H 0.53881 0.11513 0.88594 0.0
H469 H 0.62195 0.0915 0.97788 0.0
H470 H 0.6056 0.15217 0.81559 0.0
H471 H 0.58616 0.19187 0.84385 0.0
H472 H 0.55463 0.15146 0.82996 0.0
H473 H 0.70818 0.12293 0.92244 0.0
H474 H 0.6905 0.10348 0.96847 0.0
H475 H 0.69004 0.15561 0.9594 0.0
C476 C 0.84013 0.84386 0.2956 0.0
C477 C 0.81941 0.81583 0.31781 0.0
C478 C 0.86352 0.87278 0.31386 0.0
C479 C 0.86557 0.87439 0.35537 0.0
C480 C 0.84217 0.84846 0.37794 0.0
C481 C 0.81993 0.81918 0.359 0.0
C482 C 0.88817 0.89975 0.28867 0.0
C483 C 0.84276 0.84978 0.42228 0.0
C484 C 0.96189 0.90233 0.4042 0.0
C485 C 0.95467 0.94071 0.41736 0.0
C486 C 0.93348 0.88109 0.38314 0.0
C487 C 0.89656 0.8984 0.37518 0.0
C488 C 0.88931 0.9375 0.38749 0.0
C489 C 0.91868 0.95833 0.40818 0.0
C490 C 0.94282 0.83971 0.37007 0.0
C491 C 0.85038 0.957 0.37956 0.0
H492 H 0.83921 0.84243 0.26382 0.0
H493 H 0.80468 0.79769 0.37684 0.0
H494 H 0.88633 0.9305 0.29928 0.0
H495 H 0.91945 0.89078 0.29067 0.0
H496 H 0.87908 0.89879 0.25732 0.0
H497 H 0.81861 0.83202 0.4353 0.0
H498 H 0.87118 0.83813 0.43319 0.0
H499 H 0.84018 0.88051 0.43288 0.0
H500 H 0.98974 0.88847 0.41095 0.0
H501 H 0.91375 0.9885 0.41659 0.0
H502 H 0.93773 0.8366 0.338 0.0
H503 H 0.92302 0.81856 0.38509 0.0
H504 H 0.97371 0.83143 0.37661 0.0
H505 H 0.84188 0.95365 0.34826 0.0
H506 H 0.85102 0.98879 0.38698 0.0
H507 H 0.82721 0.94249 0.39733 0.0
C508 C 0.31152 0.69314 0.70293 0.0
C509 C 0.32697 0.73127 0.70609 0.0
C510 C 0.33257 0.66338 0.68342 0.0
C511 C 0.36942 0.6724 0.66616 0.0
C512 C 0.38439 0.71129 0.66847 0.0
C513 C 0.36318 0.74009 0.68878 0.0
C514 C 0.31599 0.62217 0.68228 0.0
C515 C 0.4231 0.72247 0.64981 0.0
C516 C 0.45181 0.59969 0.64983 0.0
C517 C 0.44993 0.59392 0.60913 0.0
C518 C 0.42374 0.62265 0.66928 0.0
C519 C 0.3937 0.64124 0.64729 0.0
C520 C 0.39043 0.63369 0.60644 0.0
C521 C 0.41857 0.60994 0.58784 0.0
C522 C 0.42763 0.62886 0.71303 0.0
C523 C 0.35899 0.65292 0.58183 0.0
H524 H 0.28342 0.68649 0.71638 0.0
H525 H 0.37479 0.76976 0.69102 0.0
H526 H 0.31686 0.61018 0.65199 0.0
H527 H 0.33436 0.60272 0.70087 0.0
H528 H 0.28523 0.62086 0.6931 0.0
H529 H 0.42929 0.75448 0.65201 0.0
H530 H 0.44742 0.70637 0.66434 0.0
H531 H 0.42308 0.71395 0.61834 0.0
H532 H 0.47596 0.58707 0.66635 0.0
H533 H 0.4173 0.60575 0.55629 0.0
H534 H 0.39871 0.62511 0.72758 0.0
H535 H 0.43785 0.65932 0.71893 0.0
H536 H 0.44892 0.60818 0.72655 0.0
H537 H 0.32988 0.65046 0.59625 0.0
H538 H 0.35692 0.63976 0.55201 0.0
H539 H 0.36584 0.68469 0.57876 0.0
C540 C 0.97885 0.92261 0.81952 0.0
C541 C 0.93754 0.92365 0.82007 0.0
C542 C 0.99986 0.9315 0.78513 0.0
C543 C 0.97904 0.94248 0.75084 0.0
C544 C 0.93737 0.94191 0.75084 0.0
C545 C 0.91723 0.93216 0.78528 0.0
C546 C 0.0442 0.93075 0.78635 0.0
C547 C 0.91386 0.95328 0.71487 0.0
C548 C 0.01087 0.01804 0.67752 0.0
C549 C 0.01172 0.99543 0.64312 0.0
C550 C 0.00467 1.00048 0.7141 0.0
C551 C 0.99965 0.95925 0.71625 0.0
C552 C 0.00616 0.93591 0.68244 0.0
C553 C 0.01135 0.95436 0.6459 0.0
C554 C 0.999 0.02646 0.7496 0.0
C555 C 0.00389 0.8917 0.68413 0.0
H556 H 0.99487 0.91592 0.84624 0.0
H557 H 0.88536 0.93169 0.78504 0.0
H558 H 0.05703 0.92465 0.75706 0.0
H559 H 0.05529 0.95976 0.79647 0.0
H560 H 0.05486 0.90826 0.80743 0.0
H561 H 0.88167 0.95022 0.71948 0.0
H562 H 0.92033 0.98428 0.70695 0.0
H563 H 0.92232 0.93467 0.68953 0.0
H564 H 0.01196 0.04984 0.67547 0.0
H565 H 0.01204 0.93671 0.61941 0.0
H566 H 0.01577 0.01496 0.77504 0.0
H567 H 0.96742 0.02662 0.75778 0.0
H568 H 0.00848 0.05724 0.74402 0.0
H569 H 0.0163 0.88051 0.71214 0.0
H570 H 0.01994 0.87808 0.65922 0.0
H571 H 0.97265 0.8823 0.68243 0.0
C572 C 0.55758 0.13937 0.32543 0.0
C573 C 0.56922 0.10891 0.35078 0.0
C574 C 0.54197 0.13121 0.28807 0.0
C575 C 0.53893 0.09177 0.27531 0.0
C576 C 0.54699 0.06094 0.30203 0.0
C577 C 0.56172 0.06989 0.33956 0.0
C578 C 0.53214 0.16489 0.26102 0.0
C579 C 0.54352 0.01842 0.28981 0.0
C580 C 0.4992 0.05942 0.1754 0.0
C581 C 0.53434 0.0553 0.15453 0.0
C582 C 0.49958 0.07341 0.21438 0.0
C583 C 0.53601 0.08287 0.23258 0.0
C584 C 0.57118 0.0808 0.21054 0.0
C585 C 0.56982 0.0671 0.17187 0.0
C586 C 0.46137 0.07548 0.23656 0.0
C587 C 0.61073 0.0907 0.22848 0.0
H588 H 0.56304 0.16971 0.33354 0.0
H589 H 0.56924 0.04617 0.35937 0.0
H590 H 0.55697 0.16991 0.24052 0.0
H591 H 0.50564 0.15805 0.24314 0.0
H592 H 0.527 0.19251 0.27762 0.0
H593 H 0.54603 0.99811 0.31521 0.0
H594 H 0.515 0.01299 0.27484 0.0
H595 H 0.56722 0.01141 0.26861 0.0
H596 H 0.47189 0.04942 0.16227 0.0
H597 H 0.59699 0.06393 0.15556 0.0
H598 H 0.46181 0.09935 0.25878 0.0
H599 H 0.45641 0.04727 0.25211 0.0
H600 H 0.43621 0.08011 0.21626 0.0
H601 H 0.61041 0.12083 0.2409 0.0
H602 H 0.63502 0.08887 0.20682 0.0
H603 H 0.61715 0.07011 0.25292 0.0
C604 C 0.43497 0.59617 0.23419 0.0
C605 C 0.45767 0.60779 0.2019 0.0
C606 C 0.45249 0.58686 0.27021 0.0
C607 C 0.49387 0.58969 0.27442 0.0
C608 C 0.5169 0.60333 0.24259 0.0
C609 C 0.49852 0.612 0.20655 0.0
C610 C 0.42666 0.57266 0.30342 0.0
C611 C 0.561 0.60734 0.24577 0.0
C612 C 0.51809 0.58132 0.38222 0.0
C613 C 0.52144 0.54046 0.38574 0.0
C614 C 0.51409 0.5989 0.34508 0.0
C615 C 0.51229 0.57479 0.31116 0.0
C616 C 0.52018 0.53414 0.31444 0.0
C617 C 0.52466 0.51747 0.35176 0.0
C618 C 0.50785 0.64266 0.34269 0.0
C619 C 0.51957 0.5075 0.27897 0.0
H620 H 0.40329 0.59402 0.23122 0.0
H621 H 0.5163 0.62108 0.18175 0.0
H622 H 0.43471 0.54213 0.31146 0.0
H623 H 0.43123 0.59131 0.32979 0.0
H624 H 0.39492 0.57312 0.29562 0.0
H625 H 0.57479 0.57918 0.23704 0.0
H626 H 0.5722 0.63058 0.22577 0.0
H627 H 0.57053 0.61428 0.27619 0.0
H628 H 0.51558 0.59924 0.40843 0.0
H629 H 0.52783 0.48588 0.35446 0.0
H630 H 0.47585 0.64883 0.3431 0.0
H631 H 0.52013 0.6549 0.3151 0.0
H632 H 0.52165 0.65801 0.36809 0.0
H633 H 0.48887 0.50419 0.26826 0.0
H634 H 0.53127 0.47783 0.28576 0.0
H635 H 0.53714 0.52045 0.2548 0.0
C636 C 0.08032 0.46369 0.70268 0.0
C637 C 0.08622 0.42437 0.69194 0.0
C638 C 0.06621 0.4735 0.74005 0.0
C639 C 0.05733 0.44322 0.76717 0.0
C640 C 0.05927 0.4035 0.7551 0.0
C641 C 0.07407 0.39448 0.71772 0.0
C642 C 0.06411 0.51629 0.75158 0.0
C643 C 0.04874 0.37049 0.78276 0.0
C644 C 0.08627 0.47174 0.87036 0.0
C645 C 0.05052 0.48451 0.88597 0.0
C646 C 0.08831 0.45607 0.83246 0.0
C647 C 0.05364 0.45311 0.80952 0.0
C648 C 0.01695 0.46351 0.8261 0.0
C649 C 0.01585 0.47939 0.86425 0.0
C650 C 0.12808 0.44512 0.81614 0.0
C651 C 0.97929 0.4605 0.8028 0.0
H652 H 0.08852 0.48692 0.68249 0.0
H653 H 0.07838 0.36396 0.70976 0.0
H654 H 0.03576 0.52265 0.76624 0.0
H655 H 0.08798 0.5231 0.77285 0.0
H656 H 0.06732 0.53615 0.72589 0.0
H657 H 0.04472 0.34216 0.76697 0.0
H658 H 0.0726 0.36685 0.80474 0.0
H659 H 0.02135 0.37733 0.79901 0.0
H660 H 0.11307 0.47557 0.88731 0.0
H661 H 0.98839 0.49019 0.87594 0.0
H662 H 0.13581 0.46523 0.79167 0.0
H663 H 0.1273 0.41483 0.8041 0.0
H664 H 0.15171 0.44685 0.83867 0.0
H665 H 0.9765 0.48667 0.78362 0.0
H666 H 0.95325 0.45947 0.82236 0.0
H667 H 0.97913 0.43408 0.78369 0.0
C668 C 0.81698 0.98994 0.90198 0.0
C669 C 0.82058 0.949 0.90571 0.0
C670 C 0.78145 0.00887 0.91114 0.0
C671 C 0.74918 0.98628 0.92465 0.0
C672 C 0.75206 0.94478 0.92612 0.0
C673 C 0.7876 0.92673 0.91648 0.0
C674 C 0.77901 0.05303 0.90809 0.0
C675 C 0.71825 0.91941 0.93998 0.0
C676 C 0.6794 0.01508 0.00417 0.0
C677 C 0.64354 0.01396 0.98397 0.0
C678 C 0.71498 0.01084 0.98427 0.0
C679 C 0.71454 0.00523 0.94308 0.0
C680 C 0.67874 0.00912 0.92201 0.0
C681 C 0.64332 0.01303 0.94286 0.0
C682 C 0.75241 0.00754 0.00801 0.0
C683 C 0.67717 0.00519 0.87794 0.0
H684 H 0.84228 0.0073 0.89326 0.0
H685 H 0.78981 0.895 0.91809 0.0
H686 H 0.75078 0.06192 0.8944 0.0
H687 H 0.78002 0.06616 0.93791 0.0
H688 H 0.80365 0.06549 0.89066 0.0
H689 H 0.72453 0.88752 0.93708 0.0
H690 H 0.71199 0.92581 0.97131 0.0
H691 H 0.69129 0.9261 0.9229 0.0
H692 H 0.67944 0.01649 0.03602 0.0
H693 H 0.61551 0.01254 0.92723 0.0
H694 H 0.77661 0.02434 0.99406 0.0
H695 H 0.76147 0.97626 0.00932 0.0
H696 H 0.74862 0.01838 0.03856 0.0
H697 H 0.70456 0.01618 0.86406 0.0
H698 H 0.65174 0.02149 0.86559 0.0
H699 H 0.6736 0.97372 0.87008 0.0
C700 C 0.70492 0.08108 0.47202 0.0
C701 C 0.68869 0.08264 0.43408 0.0
C702 C 0.74194 0.06432 0.47882 0.0
C703 C 0.76284 0.04728 0.4472 0.0
C704 C 0.74528 0.04568 0.40953 0.0
C705 C 0.70882 0.06395 0.40324 0.0
C706 C 0.75974 0.06717 0.51944 0.0
C707 C 0.76564 0.02583 0.37559 0.0
C708 C 0.87255 0.06048 0.45825 0.0
C709 C 0.88314 0.02603 0.47785 0.0
C710 C 0.83383 0.06663 0.44581 0.0
C711 C 0.8051 0.03715 0.45255 0.0
C712 C 0.81659 0.00064 0.46902 0.0
C713 C 0.85554 0.99575 0.48227 0.0
C714 C 0.82307 0.10618 0.42882 0.0
C715 C 0.7874 0.96772 0.47494 0.0
H716 H 0.68924 0.09409 0.4964 0.0
H717 H 0.69708 0.06488 0.37367 0.0
H718 H 0.76877 0.03768 0.52982 0.0
H719 H 0.78654 0.08589 0.51849 0.0
H720 H 0.73907 0.0799 0.54117 0.0
H721 H 0.74791 0.02678 0.34815 0.0
H722 H 0.79452 0.03996 0.36995 0.0
H723 H 0.77129 0.99466 0.38313 0.0
H724 H 0.89401 0.08399 0.45541 0.0
H725 H 0.86382 0.96923 0.49779 0.0
H726 H 0.80312 0.12173 0.44932 0.0
H727 H 0.80715 0.10247 0.40059 0.0
H728 H 0.84928 0.12507 0.42365 0.0
H729 H 0.77101 0.9727 0.5026 0.0
H730 H 0.80238 0.93885 0.47718 0.0
H731 H 0.76577 0.96647 0.4505 0.0
C732 C 0.33765 0.5719 0.06767 0.0
C733 C 0.34898 0.57777 0.10691 0.0
C734 C 0.29926 0.56004 0.05809 0.0
C735 C 0.2718 0.55312 0.08851 0.0
C736 C 0.28432 0.55449 0.12812 0.0
C737 C 0.32263 0.56729 0.13691 0.0
C738 C 0.28722 0.55826 0.01541 0.0
C739 C 0.25633 0.54567 0.1613 0.0
C740 C 0.16941 0.58737 0.063 0.0
C741 C 0.15108 0.5524 0.05109 0.0
C742 C 0.20813 0.58753 0.07693 0.0
C743 C 0.22912 0.55175 0.07904 0.0
C744 C 0.21001 0.51598 0.06919 0.0
C745 C 0.1711 0.51675 0.05509 0.0
C746 C 0.22725 0.62641 0.0872 0.0
C747 C 0.23121 0.47721 0.07094 0.0
H748 H 0.35818 0.57865 0.04431 0.0
H749 H 0.33088 0.57157 0.16739 0.0
H750 H 0.27099 0.5306 0.0092 0.0
H751 H 0.26715 0.58303 0.00877 0.0
H752 H 0.31288 0.56016 0.99537 0.0
H753 H 0.27221 0.53993 0.18927 0.0
H754 H 0.23662 0.57117 0.1658 0.0
H755 H 0.23761 0.51983 0.15416 0.0
H756 H 0.15387 0.61496 0.05995 0.0
H757 H 0.15736 0.48987 0.04483 0.0
H758 H 0.25197 0.63232 0.06679 0.0
H759 H 0.2396 0.62538 0.11737 0.0
H760 H 0.20632 0.65132 0.08544 0.0
H761 H 0.24678 0.47232 0.04278 0.0
H762 H 0.21025 0.45251 0.07512 0.0
H763 H 0.25332 0.47671 0.09494 0.0
C764 C 0.23729 0.42768 0.59598 0.0
C765 C 0.20298 0.44804 0.60578 0.0
C766 C 0.27203 0.44777 0.58668 0.0
C767 C 0.27281 0.48942 0.58769 0.0
C768 C 0.23887 0.51022 0.5994 0.0
C769 C 0.20421 0.48928 0.60798 0.0
C770 C 0.30763 0.42429 0.57456 0.0
C771 C 0.23854 0.55453 0.60153 0.0
C772 C 0.3786 0.52143 0.58001 0.0
C773 C 0.38264 0.52259 0.53908 0.0
C774 C 0.34144 0.5159 0.59715 0.0
C775 C 0.30818 0.51026 0.5726 0.0
C776 C 0.31162 0.51639 0.53166 0.0
C777 C 0.34886 0.52265 0.51542 0.0
C778 C 0.33859 0.51196 0.64115 0.0
C779 C 0.27682 0.51158 0.50441 0.0
H780 H 0.23698 0.39583 0.59541 0.0
H781 H 0.17782 0.50531 0.61555 0.0
H782 H 0.31571 0.43163 0.54385 0.0
H783 H 0.33311 0.43194 0.59353 0.0
H784 H 0.30247 0.39209 0.57644 0.0
H785 H 0.21529 0.56521 0.62171 0.0
H786 H 0.26734 0.56638 0.61145 0.0
H787 H 0.23243 0.5666 0.57189 0.0
H788 H 0.4046 0.52135 0.59847 0.0
H789 H 0.3519 0.52426 0.48375 0.0
H790 H 0.3396 0.48038 0.64918 0.0
H791 H 0.31047 0.52413 0.65216 0.0
H792 H 0.3634 0.52725 0.65613 0.0
H793 H 0.26911 0.47993 0.50203 0.0
H794 H 0.28312 0.52291 0.47447 0.0
H795 H 0.2508 0.52712 0.51617 0.0
C796 C 0.95431 0.83233 0.94705 0.0
C797 C 0.91478 0.84158 0.94004 0.0
C798 C 0.9649 0.79593 0.96299 0.0
C799 C 0.93519 0.76831 0.9726 0.0
C800 C 0.89521 0.77912 0.96968 0.0
C801 C 0.8854 0.81552 0.95302 0.0
C802 C 0.00796 0.78574 0.96613 0.0
C803 C 0.86276 0.75097 0.98102 0.0
C804 C 0.96617 0.66535 0.94673 0.0
C805 C 0.97941 0.65107 0.98292 0.0
C806 C 0.94949 0.70265 0.94358 0.0
C807 C 0.946 0.72636 0.97759 0.0
C808 C 0.95682 0.71102 0.01475 0.0
C809 C 0.9737 0.6734 0.01696 0.0
C810 C 0.9381 0.71762 0.90334 0.0
C811 C 0.9532 0.73511 0.05173 0.0
H812 H 0.97713 0.85283 0.93824 0.0
H813 H 0.85472 0.82233 0.94791 0.0
H814 H 0.01444 0.7722 0.99503 0.0
H815 H 0.01546 0.76392 0.94311 0.0
H816 H 0.02722 0.81192 0.96232 0.0
H817 H 0.83415 0.76621 0.98441 0.0
H818 H 0.85945 0.7282 0.95788 0.0
H819 H 0.87001 0.73574 0.00891 0.0
H820 H 0.97042 0.64787 0.92043 0.0
H821 H 0.98478 0.66269 0.04476 0.0
H822 H 0.95755 0.74254 0.89509 0.0
H823 H 0.90747 0.72866 0.90359 0.0
H824 H 0.94044 0.69456 0.88036 0.0
H825 H 0.97909 0.75486 0.05442 0.0
H826 H 0.95227 0.7161 0.0782 0.0
H827 H 0.92649 0.75369 0.05107 0.0
C828 C 0.47376 0.71055 0.08326 0.0
C829 C 0.43546 0.69515 0.085 0.0
C830 C 0.48099 0.74822 0.06814 0.0
C831 C 0.44932 0.77073 0.0533 0.0
C832 C 0.41115 0.75418 0.05196 0.0
C833 C 0.40455 0.7169 0.06831 0.0
C834 C 0.52214 0.76495 0.07061 0.0
C835 C 0.377 0.7765 0.03462 0.0
C836 C 0.46247 0.87911 0.07281 0.0
C837 C 0.47952 0.89208 0.03782 0.0
C838 C 0.45032 0.84009 0.07727 0.0
C839 C 0.4552 0.81339 0.04574 0.0
C840 C 0.46962 0.82714 0.00917 0.0
C841 C 0.48215 0.86648 0.00575 0.0
C842 C 0.43518 0.82681 0.11682 0.0
C843 C 0.47407 0.79994 0.97449 0.0
H844 H 0.49806 0.69366 0.09495 0.0
H845 H 0.37471 0.70574 0.06955 0.0
H846 H 0.53133 0.77672 0.04169 0.0
H847 H 0.5227 0.78974 0.09183 0.0
H848 H 0.54395 0.74273 0.08027 0.0
H849 H 0.34882 0.76004 0.037 0.0
H850 H 0.37365 0.80535 0.04943 0.0
H851 H 0.38283 0.78235 0.00313 0.0
H852 H 0.46101 0.89904 0.09766 0.0
H853 H 0.49585 0.87659 0.97885 0.0
H854 H 0.45601 0.80547 0.12994 0.0
H855 H 0.40643 0.81167 0.11345 0.0
H856 H 0.43153 0.85168 0.13764 0.0
H857 H 0.5011 0.78221 0.97818 0.0
H858 H 0.47651 0.81654 0.9465 0.0
H859 H 0.44879 0.77931 0.97238 0.0
C860 C 0.10181 0.29941 0.60156 0.0
C861 C 0.11389 0.33251 0.58021 0.0
C862 C 0.0917 0.26426 0.58264 0.0
C863 C 0.09431 0.26169 0.54118 0.0
C864 C 0.10843 0.29428 0.51947 0.0
C865 C 0.11776 0.32947 0.53923 0.0
C866 C 0.07686 0.23025 0.60709 0.0
C867 C 0.11232 0.29289 0.47535 0.0
C868 C 0.08263 0.15501 0.51332 0.0
C869 C 0.04166 0.15271 0.50961 0.0
C870 C 0.10139 0.19155 0.51853 0.0
C871 C 0.07835 0.22603 0.52132 0.0
C872 C 0.03762 0.2241 0.51301 0.0
C873 C 0.01978 0.18741 0.50718 0.0
C874 C 0.14525 0.19265 0.52489 0.0
C875 C 0.01208 0.26024 0.51461 0.0
H876 H 0.09995 0.30106 0.6333 0.0
H877 H 0.12713 0.35486 0.52242 0.0
H878 H 0.0462 0.22289 0.59849 0.0
H879 H 0.09506 0.20383 0.60173 0.0
H880 H 0.07739 0.23682 0.63906 0.0
H881 H 0.13682 0.31205 0.46529 0.0
H882 H 0.11737 0.26262 0.46444 0.0
H883 H 0.08483 0.30398 0.46179 0.0
H884 H 0.09969 0.12824 0.51515 0.0
H885 H 0.98811 0.18566 0.50368 0.0
H886 H 0.15159 0.19112 0.55684 0.0
H887 H 0.15825 0.22032 0.51342 0.0
H888 H 0.15975 0.1673 0.5104 0.0
H889 H 0.00937 0.27017 0.54555 0.0
H890 H 0.98209 0.25456 0.50281 0.0
H891 H 0.02564 0.28455 0.49766 0.0
C892 C 0.60995 0.20604 0.49961 0.0
C893 C 0.60577 0.20229 0.45871 0.0
C894 C 0.60176 0.24182 0.51864 0.0
C895 C 0.58878 0.27434 0.49621 0.0
C896 C 0.58636 0.2711 0.45477 0.0
C897 C 0.59504 0.23527 0.43661 0.0
C898 C 0.60533 0.24395 0.56278 0.0
C899 C 0.57301 0.30507 0.42953 0.0
C900 C 0.51588 0.35078 0.52694 0.0
C901 C 0.53889 0.38494 0.52461 0.0
C902 C 0.53271 0.31359 0.52235 0.0
C903 C 0.57356 0.3106 0.51527 0.0
C904 C 0.5976 0.3446 0.51822 0.0
C905 C 0.57987 0.38163 0.52229 0.0
C906 C 0.50608 0.27801 0.52061 0.0
C907 C 0.64154 0.34245 0.51312 0.0
H908 H 0.61841 0.18069 0.5169 0.0
H909 H 0.59289 0.23291 0.40492 0.0
H910 H 0.61261 0.27408 0.573 0.0
H911 H 0.57688 0.23522 0.57611 0.0
H912 H 0.62816 0.22342 0.57374 0.0
H913 H 0.57424 0.29816 0.39765 0.0
H914 H 0.5423 0.31292 0.43706 0.0
H915 H 0.59166 0.3313 0.43523 0.0
H916 H 0.48419 0.35329 0.52934 0.0
H917 H 0.59783 0.40796 0.52045 0.0
H918 H 0.51876 0.25347 0.53782 0.0
H919 H 0.50325 0.26802 0.48967 0.0
H920 H 0.47621 0.28443 0.53201 0.0
H921 H 0.65345 0.3149 0.52578 0.0
H922 H 0.6565 0.36794 0.52722 0.0
H923 H 0.64858 0.34282 0.48131 0.0
loop_
_geom_bond_atom_site_label_1
_geom_bond_atom_site_label_2
_geom_bond_distance
_geom_bond_site_symmetry_2
_ccdc_geom_bond_type
H0 C3 0.931 . S
H1 C6 0.928 . S
H2 C8 0.930 . S
C3 H0 0.931 . S
C3 C4 1.413 . S
C3 C5 1.360 . S
C4 C3 1.413 . S
C4 C8 1.429 . S
C5 C3 1.360 . S
C5 C6 1.372 . S
C6 H1 0.928 . S
C6 C5 1.372 . S
C6 C7 1.404 . S
C7 C6 1.404 . S
C7 C8 1.391 . S
C8 H2 0.930 . S
C8 C4 1.429 . S
C8 C7 1.391 . S
H9 C12 0.931 . S
H10 C15 0.928 . S
H11 C17 0.930 . S
C12 H9 0.931 . S
C12 C13 1.413 . S
C12 C14 1.360 . S
C13 C12 1.413 . S
C13 C17 1.429 . S
C14 C12 1.360 . S
C14 C15 1.372 . S
C15 H10 0.928 . S
C15 C14 1.372 . S
C15 C16 1.404 . S
C16 C15 1.404 . S
C16 C17 1.391 . S
C17 H11 0.930 . S
C17 C13 1.429 . S
C17 C16 1.391 . S
H18 C21 0.931 . S
H19 C24 0.928 . S
H20 C26 0.930 . S
C21 H18 0.931 . S
C21 C22 1.413 . S
C21 C23 1.360 . S
C22 C21 1.413 . S
C22 C26 1.429 . S
C23 C21 1.360 . S
C23 C24 1.372 . S
C24 H19 0.928 . S
C24 C23 1.372 . S
C24 C25 1.404 . S
C25 C24 1.404 . S
C25 C26 1.391 . S
C26 H20 0.930 . S
C26 C22 1.429 . S
C26 C25 1.391 . S
H27 C30 0.931 . S
H28 C33 0.928 . S
H29 C35 0.930 . S
C30 H27 0.931 . S
C30 C31 1.413 . S
C30 C32 1.360 . S
C31 C30 1.413 . S
C31 C35 1.429 . S
C32 C30 1.360 . S
C32 C33 1.372 . S
C33 H28 0.928 . S
C33 C32 1.372 . S
C33 C34 1.404 . S
C34 C33 1.404 . S
C34 C35 1.391 . S
C35 H29 0.930 . S
C35 C31 1.429 . S
C35 C34 1.391 . S
H36 C39 0.931 . S
H37 C42 0.928 . S
H38 C44 0.930 . S
C39 H36 0.931 . S
C39 C40 1.413 . S
C39 C41 1.360 . S
C40 C39 1.413 . S
C40 C44 1.429 . S
C41 C39 1.360 . S
C41 C42 1.372 . S
C42 H37 0.928 . S
C42 C41 1.372 . S
C42 C43 1.404 . S
C43 C42 1.404 . S
C43 C44 1.391 . S
C44 H38 0.930 . S
C44 C40 1.429 . S
C44 C43 1.391 . S
H45 C48 0.931 . S
H46 C51 0.928 . S
H47 C53 0.930 . S
C48 H45 0.931 . S
C48 C49 1.413 . S
C48 C50 1.360 . S
C49 C48 1.413 . S
C49 C53 1.429 . S
C50 C48 1.360 . S
C50 C51 1.372 . S
C51 H46 0.928 . S
C51 C50 1.372 . S
C51 C52 1.404 . S
C52 C51 1.404 . S
C52 C53 1.391 . S
C53 H47 0.930 . S
C53 C49 1.429 . S
C53 C52 1.391 . S
H54 C57 0.931 . S
H55 C60 0.928 . S
H56 C62 0.930 . S
C57 H54 0.931 . S
C57 C58 1.413 . S
C57 C59 1.360 . S
C58 C57 1.413 . S
C58 C62 1.429 . S
C59 C57 1.360 . S
C59 C60 1.372 . S
C60 H55 0.928 . S
C60 C59 1.372 . S
C60 C61 1.404 . S
C61 C60 1.404 . S
C61 C62 1.391 . S
C62 H56 0.930 . S
C62 C58 1.429 . S
C62 C61 1.391 . S
H63 C66 0.931 . S
H64 C69 0.928 . S
H65 C71 0.930 . S
C66 H63 0.931 . S
C66 C67 1.413 . S
C66 C68 1.360 . S
C67 C66 1.413 . S
C67 C71 1.429 . S
C68 C66 1.360 . S
C68 C69 1.372 . S
C69 H64 0.928 . S
C69 C68 1.372 . S
C69 C70 1.404 . S
C70 C69 1.404 . S
C70 C71 1.391 . S
C71 H65 0.930 . S
C71 C67 1.429 . S
C71 C70 1.391 . S
Zn72 O78 1.920 . S
Zn72 O84 1.898 . S
Zn72 O87 1.905 . S
Zn73 O81 1.905 1_565 S
Zn73 O82 1.898 . S
Zn73 O90 1.920 . S
Zn74 O77 2.080 1_455 S
Zn74 O80 2.114 . S
Zn74 O83 2.120 1_445 S
Zn74 O85 2.120 . S
Zn74 O86 2.114 1_455 S
Zn74 O89 2.080 . S
C75 O80 1.166 . S
C75 O81 1.182 . S
C76 O82 1.167 1_655 S
C76 O83 1.299 . S
O77 Zn74 2.080 1_655 S
O77 C91 1.305 . S
O78 Zn72 1.920 . S
O78 C91 1.234 . S
C79 O84 1.167 1_455 S
C79 O85 1.299 . S
O80 Zn74 2.114 . S
O80 C75 1.166 . S
O81 Zn73 1.905 1_545 S
O81 C75 1.182 . S
O82 Zn73 1.898 . S
O82 C76 1.167 1_455 S
O83 Zn74 2.120 1_665 S
O83 C76 1.299 . S
O84 Zn72 1.898 . S
O84 C79 1.167 1_655 S
O85 Zn74 2.120 . S
O85 C79 1.299 . S
O86 Zn74 2.114 1_655 S
O86 C88 1.166 . S
O87 Zn72 1.905 . S
O87 C88 1.182 . S
C88 O86 1.166 . S
C88 O87 1.182 . S
O89 Zn74 2.080 . S
O89 C92 1.305 1_545 S
O90 Zn73 1.920 . S
O90 C92 1.234 . S
C91 O77 1.305 . S
C91 O78 1.234 . S
C92 O89 1.305 1_565 S
C92 O90 1.234 . S
Zn93 O99 1.920 1_556 S
Zn93 O105 1.898 . S
Zn93 O108 1.905 . S
Zn94 O102 1.905 . S
Zn94 O103 1.898 . S
Zn94 O111 1.920 . S
Zn95 O98 2.080 . S
Zn95 O101 2.114 1_545 S
Zn95 O104 2.120 1_545 S
Zn95 O106 2.120 . S
Zn95 O107 2.114 1_544 S
Zn95 O110 2.080 . S
C96 O101 1.166 . S
C96 O102 1.182 . S
C97 O103 1.167 . S
C97 O104 1.299 . S
O98 Zn95 2.080 . S
O98 C112 1.305 . S
O99 Zn93 1.920 1_554 S
O99 C112 1.234 . S
C100 O105 1.167 . S
C100 O106 1.299 1_556 S
O101 Zn95 2.114 1_565 S
O101 C96 1.166 . S
O102 Zn94 1.905 . S
O102 C96 1.182 . S
O103 Zn94 1.898 . S
O103 C97 1.167 . S
O104 Zn95 2.120 1_565 S
O104 C97 1.299 . S
O105 Zn93 1.898 . S
O105 C100 1.167 . S
O106 Zn95 2.120 . S
O106 C100 1.299 1_554 S
O107 Zn95 2.114 1_566 S
O107 C109 1.166 . S
O108 Zn93 1.905 . S
O108 C109 1.182 1_545 S
C109 O107 1.166 . S
C109 O108 1.182 1_565 S
O110 Zn95 2.080 . S
O110 C113 1.305 . S
O111 Zn94 1.920 . S
O111 C113 1.234 1_565 S
C112 O98 1.305 . S
C112 O99 1.234 . S
C113 O110 1.305 . S
C113 O111 1.234 1_545 S
Zn114 O120 1.920 . S
Zn114 O126 1.898 . S
Zn114 O129 1.905 . S
Zn115 O123 1.905 . S
Zn115 O124 1.898 . S
Zn115 O132 1.920 . S
Zn116 O119 2.080 . S
Zn116 O122 2.114 . S
Zn116 O125 2.120 . S
Zn116 O127 2.120 . S
Zn116 O128 2.114 . S
Zn116 O131 2.080 . S
C117 O122 1.166 . S
C117 O123 1.182 . S
C118 O124 1.167 . S
C118 O125 1.299 . S
O119 Zn116 2.080 . S
O119 C133 1.305 . S
O120 Zn114 1.920 . S
O120 C133 1.234 . S
C121 O126 1.167 . S
C121 O127 1.299 . S
O122 Zn116 2.114 . S
O122 C117 1.166 . S
O123 Zn115 1.905 . S
O123 C117 1.182 . S
O124 Zn115 1.898 . S
O124 C118 1.167 . S
O125 Zn116 2.120 . S
O125 C118 1.299 . S
O126 Zn114 1.898 . S
O126 C121 1.167 . S
O127 Zn116 2.120 . S
O127 C121 1.299 . S
O128 Zn116 2.114 . S
O128 C130 1.166 . S
O129 Zn114 1.905 . S
O129 C130 1.182 . S
C130 O128 1.166 . S
C130 O129 1.182 . S
O131 Zn116 2.080 . S
O131 C134 1.305 . S
O132 Zn115 1.920 . S
O132 C134 1.234 . S
C133 O119 1.305 . S
C133 O120 1.234 . S
C134 O131 1.305 . S
C134 O132 1.234 . S
Zn135 O141 1.920 . S
Zn135 O147 1.898 . S
Zn135 O150 1.905 . S
Zn136 O144 1.905 1_655 S
Zn136 O145 1.898 . S
Zn136 O153 1.920 . S
Zn137 O140 2.080 1_554 S
Zn137 O143 2.114 . S
Zn137 O146 2.120 1_454 S
Zn137 O148 2.120 . S
Zn137 O149 2.114 1_554 S
Zn137 O152 2.080 . S
C138 O143 1.166 . S
C138 O144 1.182 . S
C139 O145 1.167 1_556 S
C139 O146 1.299 . S
O140 Zn137 2.080 1_556 S
O140 C154 1.305 . S
O141 Zn135 1.920 . S
O141 C154 1.234 . S
C142 O147 1.167 1_554 S
C142 O148 1.299 . S
O143 Zn137 2.114 . S
O143 C138 1.166 . S
O144 Zn136 1.905 1_455 S
O144 C138 1.182 . S
O145 Zn136 1.898 . S
O145 C139 1.167 1_554 S
O146 Zn137 2.120 1_656 S
O146 C139 1.299 . S
O147 Zn135 1.898 . S
O147 C142 1.167 1_556 S
O148 Zn137 2.120 . S
O148 C142 1.299 . S
O149 Zn137 2.114 1_556 S
O149 C151 1.166 . S
O150 Zn135 1.905 . S
O150 C151 1.182 . S
C151 O149 1.166 . S
C151 O150 1.182 . S
O152 Zn137 2.080 . S
O152 C155 1.305 1_455 S
O153 Zn136 1.920 . S
O153 C155 1.234 . S
C154 O140 1.305 . S
C154 O141 1.234 . S
C155 O152 1.305 1_655 S
C155 O153 1.234 . S
C156 C157 1.391 . S
C156 C158 1.394 . S
C156 H172 0.931 . S
C157 C156 1.391 . S
C157 C161 1.376 . S
C158 C156 1.394 . S
C158 C159 1.369 . S
C158 C162 1.531 . S
C159 C158 1.369 . S
C159 C160 1.410 . S
C159 C167 1.503 . S
C160 C159 1.410 . S
C160 C161 1.392 . S
C160 C163 1.511 . S
C161 C157 1.376 . S
C161 C160 1.392 . S
C161 H173 0.929 . S
C162 C158 1.531 . S
C162 H174 0.960 . S
C162 H175 0.962 . S
C162 H176 0.960 . S
C163 C160 1.511 . S
C163 H177 0.961 . S
C163 H178 0.961 . S
C163 H179 0.961 . S
C164 C165 1.370 . S
C164 C166 1.363 . S
C164 H180 0.931 . S
C165 C164 1.370 . S
C165 C169 1.408 . S
C166 C164 1.363 . S
C166 C167 1.370 . S
C166 C170 1.524 . S
C167 C159 1.503 . S
C167 C166 1.370 . S
C167 C168 1.403 . S
C168 C167 1.403 . S
C168 C169 1.404 . S
C168 C171 1.539 . S
C169 C165 1.408 . S
C169 C168 1.404 . S
C169 H181 0.930 . S
C170 C166 1.524 . S
C170 H182 0.956 . S
C170 H183 0.961 . S
C170 H184 0.961 . S
C171 C168 1.539 . S
C171 H185 0.958 . S
C171 H186 0.961 . S
C171 H187 0.960 . S
H172 C156 0.931 . S
H173 C161 0.929 . S
H174 C162 0.960 . S
H175 C162 0.962 . S
H176 C162 0.960 . S
H177 C163 0.961 . S
H178 C163 0.961 . S
H179 C163 0.961 . S
H180 C164 0.931 . S
H181 C169 0.930 . S
H182 C170 0.956 . S
H183 C170 0.961 . S
H184 C170 0.961 . S
H185 C171 0.958 . S
H186 C171 0.961 . S
H187 C171 0.960 . S
C188 C189 1.391 . S
C188 C190 1.394 . S
C188 H204 0.931 . S
C189 C188 1.391 . S
C189 C193 1.376 . S
C190 C188 1.394 . S
C190 C191 1.369 . S
C190 C194 1.531 . S
C191 C190 1.369 . S
C191 C192 1.410 . S
C191 C199 1.503 . S
C192 C191 1.410 . S
C192 C193 1.392 . S
C192 C195 1.511 . S
C193 C189 1.376 . S
C193 C192 1.392 . S
C193 H205 0.929 . S
C194 C190 1.531 . S
C194 H206 0.960 . S
C194 H207 0.962 . S
C194 H208 0.960 . S
C195 C192 1.511 . S
C195 H209 0.961 . S
C195 H210 0.961 . S
C195 H211 0.961 . S
C196 C197 1.370 . S
C196 C198 1.363 . S
C196 H212 0.931 . S
C197 C196 1.370 . S
C197 C201 1.408 . S
C198 C196 1.363 . S
C198 C199 1.370 . S
C198 C202 1.524 . S
C199 C191 1.503 . S
C199 C198 1.370 . S
C199 C200 1.403 . S
C200 C199 1.403 . S
C200 C201 1.404 . S
C200 C203 1.530 1_565 S
C201 C197 1.408 . S
C201 C200 1.404 . S
C201 H213 0.930 1_565 S
C202 C198 1.524 . S
C202 H214 0.956 . S
C202 H215 0.961 . S
C202 H216 0.961 . S
C203 C200 1.530 1_545 S
C203 H217 0.956 1_545 S
C203 H218 0.976 . S
C203 H219 0.956 1_545 S
H204 C188 0.931 . S
H205 C193 0.929 . S
H206 C194 0.960 . S
H207 C194 0.962 . S
H208 C194 0.960 . S
H209 C195 0.961 . S
H210 C195 0.961 . S
H211 C195 0.961 . S
H212 C196 0.931 . S
H213 C201 0.930 1_545 S
H214 C202 0.956 . S
H215 C202 0.961 . S
H216 C202 0.961 . S
H217 C203 0.956 1_565 S
H218 C203 0.976 . S
H219 C203 0.956 1_565 S
C220 C221 1.391 . S
C220 C222 1.394 . S
C220 H236 0.931 . S
C221 C220 1.391 . S
C221 C225 1.376 . S
C222 C220 1.394 . S
C222 C223 1.369 . S
C222 C226 1.531 . S
C223 C222 1.369 . S
C223 C224 1.410 . S
C223 C231 1.503 . S
C224 C223 1.410 . S
C224 C225 1.392 . S
C224 C227 1.511 . S
C225 C221 1.376 . S
C225 C224 1.392 . S
C225 H237 0.929 . S
C226 C222 1.531 . S
C226 H238 0.960 . S
C226 H239 0.962 . S
C226 H240 0.960 . S
C227 C224 1.511 . S
C227 H241 0.961 . S
C227 H242 0.961 . S
C227 H243 0.961 . S
C228 C229 1.370 . S
C228 C230 1.363 . S
C228 H244 0.931 . S
C229 C228 1.370 . S
C229 C233 1.408 . S
C230 C228 1.363 . S
C230 C231 1.370 . S
C230 C234 1.524 . S
C231 C223 1.503 . S
C231 C230 1.370 . S
C231 C232 1.403 . S
C232 C231 1.403 . S
C232 C233 1.404 . S
C232 C235 1.539 . S
C233 C229 1.408 . S
C233 C232 1.404 . S
C233 H245 0.930 . S
C234 C230 1.524 . S
C234 H246 0.956 . S
C234 H247 0.961 . S
C234 H248 0.961 . S
C235 C232 1.539 . S
C235 H249 0.958 . S
C235 H250 0.961 . S
C235 H251 0.960 . S
H236 C220 0.931 . S
H237 C225 0.929 . S
H238 C226 0.960 . S
H239 C226 0.962 . S
H240 C226 0.960 . S
H241 C227 0.961 . S
H242 C227 0.961 . S
H243 C227 0.961 . S
H244 C228 0.931 . S
H245 C233 0.930 . S
H246 C234 0.956 . S
H247 C234 0.961 . S
H248 C234 0.961 . S
H249 C235 0.958 . S
H250 C235 0.961 . S
H251 C235 0.960 . S
C252 C253 1.391 . S
C252 C254 1.394 . S
C252 H268 0.931 . S
C253 C252 1.391 . S
C253 C257 1.376 . S
C254 C252 1.394 . S
C254 C255 1.369 . S
C254 C258 1.531 . S
C255 C254 1.369 . S
C255 C256 1.410 . S
C255 C263 1.503 . S
C256 C255 1.410 . S
C256 C257 1.392 . S
C256 C259 1.511 . S
C257 C253 1.376 . S
C257 C256 1.392 . S
C257 H269 0.929 . S
C258 C254 1.531 . S
C258 H270 0.960 . S
C258 H271 0.962 . S
C258 H272 0.960 . S
C259 C256 1.511 . S
C259 H273 0.961 . S
C259 H274 0.961 . S
C259 H275 0.961 . S
C260 C261 1.370 . S
C260 C262 1.363 . S
C260 H276 0.931 1_655 S
C261 C260 1.370 . S
C261 C265 1.408 . S
C262 C260 1.363 . S
C262 C263 1.370 . S
C262 C266 1.524 . S
C263 C255 1.503 . S
C263 C262 1.370 . S
C263 C264 1.403 . S
C264 C263 1.403 . S
C264 C265 1.404 . S
C264 C267 1.539 . S
C265 C261 1.408 . S
C265 C264 1.404 . S
C265 H277 0.930 . S
C266 C262 1.524 . S
C266 H278 0.956 . S
C266 H279 0.961 . S
C266 H280 0.961 1_655 S
C267 C264 1.539 . S
C267 H281 0.958 . S
C267 H282 0.961 . S
C267 H283 0.960 . S
H268 C252 0.931 . S
H269 C257 0.929 . S
H270 C258 0.960 . S
H271 C258 0.962 . S
H272 C258 0.960 . S
H273 C259 0.961 . S
H274 C259 0.961 . S
H275 C259 0.961 . S
H276 C260 0.931 1_455 S
H277 C265 0.930 . S
H278 C266 0.956 . S
H279 C266 0.961 . S
H280 C266 0.961 1_455 S
H281 C267 0.958 . S
H282 C267 0.961 . S
H283 C267 0.960 . S
C284 C285 1.391 . S
C284 C286 1.394 . S
C284 H300 0.931 . S
C285 C284 1.391 . S
C285 C289 1.376 . S
C286 C284 1.394 . S
C286 C287 1.369 . S
C286 C290 1.531 . S
C287 C286 1.369 . S
C287 C288 1.410 . S
C287 C295 1.503 . S
C288 C287 1.410 . S
C288 C289 1.392 . S
C288 C291 1.511 . S
C289 C285 1.376 . S
C289 C288 1.392 . S
C289 H301 0.929 . S
C290 C286 1.531 . S
C290 H302 0.960 . S
C290 H303 0.962 . S
C290 H304 0.960 . S
C291 C288 1.511 . S
C291 H305 0.961 . S
C291 H306 0.961 . S
C291 H307 0.961 . S
C292 C293 1.370 . S
C292 C294 1.363 . S
C292 H308 0.931 . S
C293 C292 1.370 . S
C293 C297 1.408 . S
C294 C292 1.363 . S
C294 C295 1.370 . S
C294 C298 1.524 . S
C295 C287 1.503 . S
C295 C294 1.370 . S
C295 C296 1.403 . S
C296 C295 1.403 . S
C296 C297 1.404 . S
C296 C299 1.539 . S
C297 C293 1.408 . S
C297 C296 1.404 . S
C297 H309 0.930 . S
C298 C294 1.524 . S
C298 H310 0.956 . S
C298 H311 0.961 . S
C298 H312 0.961 . S
C299 C296 1.539 . S
C299 H313 0.958 . S
C299 H314 0.961 . S
C299 H315 0.960 . S
H300 C284 0.931 . S
H301 C289 0.929 . S
H302 C290 0.960 . S
H303 C290 0.962 . S
H304 C290 0.960 . S
H305 C291 0.961 . S
H306 C291 0.961 . S
H307 C291 0.961 . S
H308 C292 0.931 . S
H309 C297 0.930 . S
H310 C298 0.956 . S
H311 C298 0.961 . S
H312 C298 0.961 . S
H313 C299 0.958 . S
H314 C299 0.961 . S
H315 C299 0.960 . S
C316 C317 1.391 . S
C316 C318 1.394 . S
C316 H332 0.931 . S
C317 C316 1.391 . S
C317 C321 1.376 . S
C318 C316 1.394 . S
C318 C319 1.369 . S
C318 C322 1.531 . S
C319 C318 1.369 . S
C319 C320 1.410 . S
C319 C327 1.503 . S
C320 C319 1.410 . S
C320 C321 1.392 . S
C320 C323 1.511 . S
C321 C317 1.376 . S
C321 C320 1.392 . S
C321 H333 0.929 . S
C322 C318 1.531 . S
C322 H334 0.960 . S
C322 H335 0.962 . S
C322 H336 0.971 . S
C323 C320 1.511 . S
C323 H337 0.961 . S
C323 H338 0.961 . S
C323 H339 0.961 . S
C324 C325 1.370 . S
C324 C326 1.363 . S
C324 H340 0.931 . S
C325 C324 1.370 . S
C325 C329 1.408 . S
C326 C324 1.363 . S
C326 C327 1.370 . S
C326 C330 1.524 . S
C327 C319 1.503 . S
C327 C326 1.370 . S
C327 C328 1.403 . S
C328 C327 1.403 . S
C328 C329 1.404 . S
C328 C331 1.539 . S
C329 C325 1.408 . S
C329 C328 1.404 . S
C329 H341 0.930 . S
C330 C326 1.524 . S
C330 H342 0.956 . S
C330 H343 0.961 . S
C330 H344 0.961 . S
C331 C328 1.539 . S
C331 H345 0.958 . S
C331 H346 0.961 . S
C331 H347 0.960 . S
H332 C316 0.931 . S
H333 C321 0.929 . S
H334 C322 0.960 . S
H335 C322 0.962 . S
H336 C322 0.971 . S
H337 C323 0.961 . S
H338 C323 0.961 . S
H339 C323 0.961 . S
H340 C324 0.931 . S
H341 C329 0.930 . S
H342 C330 0.956 . S
H343 C330 0.961 . S
H344 C330 0.961 . S
H345 C331 0.958 . S
H346 C331 0.961 . S
H347 C331 0.960 . S
C348 C349 1.391 . S
C348 C350 1.394 . S
C348 H364 0.931 . S
C349 C348 1.391 . S
C349 C353 1.376 . S
C350 C348 1.394 . S
C350 C351 1.369 . S
C350 C354 1.531 . S
C351 C350 1.369 . S
C351 C352 1.410 . S
C351 C359 1.503 . S
C352 C351 1.410 . S
C352 C353 1.392 . S
C352 C355 1.511 . S
C353 C349 1.376 . S
C353 C352 1.392 . S
C353 H365 0.929 . S
C354 C350 1.531 . S
C354 H366 0.960 . S
C354 H367 0.962 . S
C354 H368 0.960 . S
C355 C352 1.511 . S
C355 H369 0.961 . S
C355 H370 0.961 . S
C355 H371 0.961 . S
C356 C357 1.370 . S
C356 C358 1.363 . S
C356 H372 0.916 1_556 S
C357 C356 1.370 . S
C357 C361 1.408 . S
C358 C356 1.363 . S
C358 C359 1.370 . S
C358 C362 1.524 . S
C359 C351 1.503 . S
C359 C358 1.370 . S
C359 C360 1.403 . S
C360 C359 1.403 . S
C360 C361 1.404 . S
C360 C363 1.539 . S
C361 C357 1.408 . S
C361 C360 1.404 . S
C361 H373 0.930 . S
C362 C358 1.524 . S
C362 H374 0.956 . S
C362 H375 0.961 . S
C362 H376 0.961 1_556 S
C363 C360 1.539 . S
C363 H377 0.958 . S
C363 H378 0.961 . S
C363 H379 0.960 . S
H364 C348 0.931 . S
H365 C353 0.929 . S
H366 C354 0.960 . S
H367 C354 0.962 . S
H368 C354 0.960 . S
H369 C355 0.961 . S
H370 C355 0.961 . S
H371 C355 0.961 . S
H372 C356 0.916 1_554 S
H373 C361 0.930 . S
H374 C362 0.956 . S
H375 C362 0.961 . S
H376 C362 0.961 1_554 S
H377 C363 0.958 . S
H378 C363 0.961 . S
H379 C363 0.960 . S
C380 C381 1.391 . S
C380 C382 1.394 . S
C380 H396 0.931 . S
C381 C380 1.391 . S
C381 C385 1.376 . S
C382 C380 1.394 . S
C382 C383 1.369 . S
C382 C386 1.531 . S
C383 C382 1.369 . S
C383 C384 1.410 . S
C383 C391 1.503 . S
C384 C383 1.410 . S
C384 C385 1.392 . S
C384 C387 1.511 . S
C385 C381 1.376 . S
C385 C384 1.392 . S
C385 H397 0.929 . S
C386 C382 1.531 . S
C386 H398 0.960 . S
C386 H399 0.962 . S
C386 H400 0.960 . S
C387 C384 1.511 . S
C387 H401 0.961 . S
C387 H402 0.961 . S
C387 H403 0.961 . S
C388 C389 1.370 . S
C388 C390 1.363 . S
C388 H404 0.931 . S
C389 C388 1.370 . S
C389 C393 1.408 . S
C390 C388 1.363 . S
C390 C391 1.370 . S
C390 C394 1.524 . S
C391 C383 1.503 . S
C391 C390 1.370 . S
C391 C392 1.403 . S
C392 C391 1.403 . S
C392 C393 1.404 . S
C392 C395 1.539 . S
C393 C389 1.408 . S
C393 C392 1.404 . S
C393 H405 0.930 . S
C394 C390 1.524 . S
C394 H406 0.956 . S
C394 H407 0.961 . S
C394 H408 0.961 . S
C395 C392 1.539 . S
C395 H409 0.958 . S
C395 H410 0.961 . S
C395 H411 0.960 . S
H396 C380 0.931 . S
H397 C385 0.929 . S
H398 C386 0.960 . S
H399 C386 0.962 . S
H400 C386 0.960 . S
H401 C387 0.961 . S
H402 C387 0.961 . S
H403 C387 0.961 . S
H404 C388 0.931 . S
H405 C393 0.930 . S
H406 C394 0.956 . S
H407 C394 0.961 . S
H408 C394 0.961 . S
H409 C395 0.958 . S
H410 C395 0.961 . S
H411 C395 0.960 . S
C412 C413 1.391 . S
C412 C414 1.394 . S
C412 H428 0.931 . S
C413 C412 1.391 . S
C413 C417 1.376 . S
C414 C412 1.394 . S
C414 C415 1.369 . S
C414 C418 1.531 . S
C415 C414 1.369 . S
C415 C416 1.410 . S
C415 C423 1.503 . S
C416 C415 1.410 . S
C416 C417 1.392 . S
C416 C419 1.511 . S
C417 C413 1.376 . S
C417 C416 1.392 . S
C417 H429 0.929 . S
C418 C414 1.531 . S
C418 H430 0.960 . S
C418 H431 0.962 . S
C418 H432 0.960 . S
C419 C416 1.511 . S
C419 H433 0.961 . S
C419 H434 0.961 . S
C419 H435 0.961 . S
C420 C421 1.370 . S
C420 C422 1.363 . S
C420 H436 0.931 . S
C421 C420 1.370 . S
C421 C425 1.408 . S
C422 C420 1.363 . S
C422 C423 1.370 . S
C422 C426 1.524 . S
C423 C415 1.503 . S
C423 C422 1.370 . S
C423 C424 1.403 . S
C424 C423 1.403 . S
C424 C425 1.404 . S
C424 C427 1.539 . S
C425 C421 1.408 . S
C425 C424 1.404 . S
C425 H437 0.930 . S
C426 C422 1.524 . S
C426 H438 0.956 . S
C426 H439 0.961 . S
C426 H440 0.961 . S
C427 C424 1.539 . S
C427 H441 0.958 . S
C427 H442 0.961 . S
C427 H443 0.960 . S
H428 C412 0.931 . S
H429 C417 0.929 . S
H430 C418 0.960 . S
H431 C418 0.962 . S
H432 C418 0.960 . S
H433 C419 0.961 . S
H434 C419 0.961 . S
H435 C419 0.961 . S
H436 C420 0.931 . S
H437 C425 0.930 . S
H438 C426 0.956 . S
H439 C426 0.961 . S
H440 C426 0.961 . S
H441 C427 0.958 . S
H442 C427 0.961 . S
H443 C427 0.960 . S
C444 C445 1.391 . S
C444 C446 1.394 . S
C444 H460 0.931 . S
C445 C444 1.391 . S
C445 C449 1.376 . S
C446 C444 1.394 . S
C446 C447 1.369 . S
C446 C450 1.531 . S
C447 C446 1.369 . S
C447 C448 1.410 . S
C447 C455 1.503 . S
C448 C447 1.410 . S
C448 C449 1.392 . S
C448 C451 1.511 . S
C449 C445 1.376 . S
C449 C448 1.392 . S
C449 H461 0.929 . S
C450 C446 1.531 . S
C450 H462 0.960 . S
C450 H463 0.962 . S
C450 H464 0.960 . S
C451 C448 1.511 . S
C451 H465 0.961 . S
C451 H466 0.961 . S
C451 H467 0.961 . S
C452 C453 1.370 . S
C452 C454 1.363 . S
C452 H468 0.931 . S
C453 C452 1.370 . S
C453 C457 1.408 . S
C454 C452 1.363 . S
C454 C455 1.370 . S
C454 C458 1.524 . S
C455 C447 1.503 . S
C455 C454 1.370 . S
C455 C456 1.403 . S
C456 C455 1.403 . S
C456 C457 1.404 . S
C456 C459 1.539 . S
C457 C453 1.408 . S
C457 C456 1.404 . S
C457 H469 0.930 . S
C458 C454 1.524 . S
C458 H470 0.956 . S
C458 H471 0.961 . S
C458 H472 0.961 . S
C459 C456 1.539 . S
C459 H473 0.958 . S
C459 H474 0.961 . S
C459 H475 0.960 . S
H460 C444 0.931 . S
H461 C449 0.929 . S
H462 C450 0.960 . S
H463 C450 0.962 . S
H464 C450 0.960 . S
H465 C451 0.961 . S
H466 C451 0.961 . S
H467 C451 0.961 . S
H468 C452 0.931 . S
H469 C457 0.930 . S
H470 C458 0.956 . S
H471 C458 0.961 . S
H472 C458 0.961 . S
H473 C459 0.958 . S
H474 C459 0.961 . S
H475 C459 0.960 . S
C476 C477 1.391 . S
C476 C478 1.394 . S
C476 H492 0.931 . S
C477 C476 1.391 . S
C477 C481 1.376 . S
C478 C476 1.394 . S
C478 C479 1.369 . S
C478 C482 1.531 . S
C479 C478 1.369 . S
C479 C480 1.410 . S
C479 C487 1.503 . S
C480 C479 1.410 . S
C480 C481 1.392 . S
C480 C483 1.511 . S
C481 C477 1.376 . S
C481 C480 1.392 . S
C481 H493 0.929 . S
C482 C478 1.531 . S
C482 H494 0.960 . S
C482 H495 0.962 . S
C482 H496 0.960 . S
C483 C480 1.511 . S
C483 H497 0.961 . S
C483 H498 0.961 . S
C483 H499 0.961 . S
C484 C485 1.370 . S
C484 C486 1.363 . S
C484 H500 0.931 1_655 S
C485 C484 1.370 . S
C485 C489 1.408 . S
C486 C484 1.363 . S
C486 C487 1.370 . S
C486 C490 1.524 . S
C487 C479 1.503 . S
C487 C486 1.370 . S
C487 C488 1.403 . S
C488 C487 1.403 . S
C488 C489 1.404 . S
C488 C491 1.539 . S
C489 C485 1.408 . S
C489 C488 1.404 . S
C489 H501 0.930 . S
C490 C486 1.524 . S
C490 H502 0.956 . S
C490 H503 0.961 . S
C490 H504 0.961 1_655 S
C491 C488 1.539 . S
C491 H505 0.958 . S
C491 H506 0.961 . S
C491 H507 0.960 . S
H492 C476 0.931 . S
H493 C481 0.929 . S
H494 C482 0.960 . S
H495 C482 0.962 . S
H496 C482 0.960 . S
H497 C483 0.961 . S
H498 C483 0.961 . S
H499 C483 0.961 . S
H500 C484 0.931 1_455 S
H501 C489 0.930 . S
H502 C490 0.956 . S
H503 C490 0.961 . S
H504 C490 0.961 1_455 S
H505 C491 0.958 . S
H506 C491 0.961 . S
H507 C491 0.960 . S
C508 C509 1.391 . S
C508 C510 1.394 . S
C508 H524 0.931 . S
C509 C508 1.391 . S
C509 C513 1.376 . S
C510 C508 1.394 . S
C510 C511 1.369 . S
C510 C514 1.531 . S
C511 C510 1.369 . S
C511 C512 1.410 . S
C511 C519 1.503 . S
C512 C511 1.410 . S
C512 C513 1.392 . S
C512 C515 1.511 . S
C513 C509 1.376 . S
C513 C512 1.392 . S
C513 H525 0.929 . S
C514 C510 1.531 . S
C514 H526 0.960 . S
C514 H527 0.962 . S
C514 H528 0.960 . S
C515 C512 1.511 . S
C515 H529 0.961 . S
C515 H530 0.961 . S
C515 H531 0.961 . S
C516 C517 1.370 . S
C516 C518 1.363 . S
C516 H532 0.931 . S
C517 C516 1.370 . S
C517 C521 1.408 . S
C518 C516 1.363 . S
C518 C519 1.370 . S
C518 C522 1.524 . S
C519 C511 1.503 . S
C519 C518 1.370 . S
C519 C520 1.403 . S
C520 C519 1.403 . S
C520 C521 1.404 . S
C520 C523 1.539 . S
C521 C517 1.408 . S
C521 C520 1.404 . S
C521 H533 0.930 . S
C522 C518 1.524 . S
C522 H534 0.956 . S
C522 H535 0.961 . S
C522 H536 0.961 . S
C523 C520 1.539 . S
C523 H537 0.958 . S
C523 H538 0.961 . S
C523 H539 0.960 . S
H524 C508 0.931 . S
H525 C513 0.929 . S
H526 C514 0.960 . S
H527 C514 0.962 . S
H528 C514 0.960 . S
H529 C515 0.961 . S
H530 C515 0.961 . S
H531 C515 0.961 . S
H532 C516 0.931 . S
H533 C521 0.930 . S
H534 C522 0.956 . S
H535 C522 0.961 . S
H536 C522 0.961 . S
H537 C523 0.958 . S
H538 C523 0.961 . S
H539 C523 0.960 . S
C540 C541 1.391 . S
C540 C542 1.394 . S
C540 H556 0.931 1_655 S
C541 C540 1.391 . S
C541 C545 1.376 . S
C542 C540 1.394 . S
C542 C543 1.369 . S
C542 C546 1.531 1_655 S
C543 C542 1.369 . S
C543 C544 1.410 . S
C543 C551 1.503 . S
C544 C543 1.410 . S
C544 C545 1.392 . S
C544 C547 1.511 . S
C545 C541 1.376 . S
C545 C544 1.392 . S
C545 H557 0.929 . S
C546 C542 1.531 1_455 S
C546 H558 0.960 . S
C546 H559 0.962 . S
C546 H560 0.960 . S
C547 C544 1.511 . S
C547 H561 0.961 . S
C547 H562 0.961 . S
C547 H563 0.961 . S
C548 C549 1.370 . S
C548 C550 1.363 . S
C548 H564 0.931 . S
C549 C548 1.370 . S
C549 C553 1.408 1_545 S
C550 C548 1.363 . S
C550 C551 1.370 1_545 S
C550 C554 1.524 . S
C551 C543 1.503 . S
C551 C550 1.370 1_565 S
C551 C552 1.403 . S
C552 C551 1.403 . S
C552 C553 1.404 . S
C552 C555 1.539 . S
C553 C549 1.408 1_565 S
C553 C552 1.404 . S
C553 H565 0.930 . S
C554 C550 1.524 . S
C554 H566 0.956 . S
C554 H567 0.961 . S
C554 H568 0.961 . S
C555 C552 1.539 . S
C555 H569 0.958 . S
C555 H570 0.961 . S
C555 H571 0.960 . S
H556 C540 0.931 1_455 S
H557 C545 0.929 . S
H558 C546 0.960 . S
H559 C546 0.962 . S
H560 C546 0.960 . S
H561 C547 0.961 . S
H562 C547 0.961 . S
H563 C547 0.961 . S
H564 C548 0.931 . S
H565 C553 0.930 . S
H566 C554 0.956 . S
H567 C554 0.961 . S
H568 C554 0.961 . S
H569 C555 0.958 . S
H570 C555 0.961 . S
H571 C555 0.960 . S
C572 C573 1.391 . S
C572 C574 1.394 . S
C572 H588 0.931 . S
C573 C572 1.391 . S
C573 C577 1.376 . S
C574 C572 1.394 . S
C574 C575 1.369 . S
C574 C578 1.531 . S
C575 C574 1.369 . S
C575 C576 1.410 . S
C575 C583 1.503 . S
C576 C575 1.410 . S
C576 C577 1.392 . S
C576 C579 1.511 1_545 S
C577 C573 1.376 . S
C577 C576 1.392 . S
C577 H589 0.929 . S
C578 C574 1.531 . S
C578 H590 0.960 . S
C578 H591 0.962 . S
C578 H592 0.960 . S
C579 C576 1.511 1_565 S
C579 H593 0.961 . S
C579 H594 0.961 . S
C579 H595 0.961 . S
C580 C581 1.370 . S
C580 C582 1.363 . S
C580 H596 0.931 . S
C581 C580 1.370 . S
C581 C585 1.408 . S
C582 C580 1.363 . S
C582 C583 1.370 . S
C582 C586 1.524 . S
C583 C575 1.503 . S
C583 C582 1.370 . S
C583 C584 1.403 . S
C584 C583 1.403 . S
C584 C585 1.404 . S
C584 C587 1.539 . S
C585 C581 1.408 . S
C585 C584 1.404 . S
C585 H597 0.930 . S
C586 C582 1.524 . S
C586 H598 0.956 . S
C586 H599 0.961 . S
C586 H600 0.961 . S
C587 C584 1.539 . S
C587 H601 0.958 . S
C587 H602 0.961 . S
C587 H603 0.960 . S
H588 C572 0.931 . S
H589 C577 0.929 . S
H590 C578 0.960 . S
H591 C578 0.962 . S
H592 C578 0.960 . S
H593 C579 0.961 . S
H594 C579 0.961 . S
H595 C579 0.961 . S
H596 C580 0.931 . S
H597 C585 0.930 . S
H598 C586 0.956 . S
H599 C586 0.961 . S
H600 C586 0.961 . S
H601 C587 0.958 . S
H602 C587 0.961 . S
H603 C587 0.960 . S
C604 C605 1.391 . S
C604 C606 1.394 . S
C604 H620 0.931 . S
C605 C604 1.391 . S
C605 C609 1.376 . S
C606 C604 1.394 . S
C606 C607 1.369 . S
C606 C610 1.531 . S
C607 C606 1.369 . S
C607 C608 1.410 . S
C607 C615 1.503 . S
C608 C607 1.410 . S
C608 C609 1.392 . S
C608 C611 1.511 . S
C609 C605 1.376 . S
C609 C608 1.392 . S
C609 H621 0.929 . S
C610 C606 1.531 . S
C610 H622 0.960 . S
C610 H623 0.962 . S
C610 H624 0.960 . S
C611 C608 1.511 . S
C611 H625 0.961 . S
C611 H626 0.961 . S
C611 H627 0.961 . S
C612 C613 1.370 . S
C612 C614 1.363 . S
C612 H628 0.931 . S
C613 C612 1.370 . S
C613 C617 1.408 . S
C614 C612 1.363 . S
C614 C615 1.370 . S
C614 C618 1.524 . S
C615 C607 1.503 . S
C615 C614 1.370 . S
C615 C616 1.403 . S
C616 C615 1.403 . S
C616 C617 1.404 . S
C616 C619 1.539 . S
C617 C613 1.408 . S
C617 C616 1.404 . S
C617 H629 0.930 . S
C618 C614 1.524 . S
C618 H630 0.956 . S
C618 H631 0.961 . S
C618 H632 0.961 . S
C619 C616 1.539 . S
C619 H633 0.958 . S
C619 H634 0.961 . S
C619 H635 0.960 . S
H620 C604 0.931 . S
H621 C609 0.929 . S
H622 C610 0.960 . S
H623 C610 0.962 . S
H624 C610 0.960 . S
H625 C611 0.961 . S
H626 C611 0.961 . S
H627 C611 0.961 . S
H628 C612 0.931 . S
H629 C617 0.930 . S
H630 C618 0.956 . S
H631 C618 0.961 . S
H632 C618 0.961 . S
H633 C619 0.958 . S
H634 C619 0.961 . S
H635 C619 0.960 . S
C636 C637 1.391 . S
C636 C638 1.394 . S
C636 H652 0.931 . S
C637 C636 1.391 . S
C637 C641 1.376 . S
C638 C636 1.394 . S
C638 C639 1.369 . S
C638 C642 1.531 . S
C639 C638 1.369 . S
C639 C640 1.410 . S
C639 C647 1.503 . S
C640 C639 1.410 . S
C640 C641 1.392 . S
C640 C643 1.511 . S
C641 C637 1.376 . S
C641 C640 1.392 . S
C641 H653 0.929 . S
C642 C638 1.531 . S
C642 H654 0.960 . S
C642 H655 0.962 . S
C642 H656 0.960 . S
C643 C640 1.511 . S
C643 H657 0.961 . S
C643 H658 0.961 . S
C643 H659 0.961 . S
C644 C645 1.370 . S
C644 C646 1.363 . S
C644 H660 0.931 . S
C645 C644 1.370 . S
C645 C649 1.408 . S
C646 C644 1.363 . S
C646 C647 1.370 . S
C646 C650 1.524 . S
C647 C639 1.503 . S
C647 C646 1.370 . S
C647 C648 1.403 . S
C648 C647 1.403 . S
C648 C649 1.404 . S
C648 C651 1.539 1_455 S
C649 C645 1.408 . S
C649 C648 1.404 . S
C649 H661 0.930 1_455 S
C650 C646 1.524 . S
C650 H662 0.956 . S
C650 H663 0.961 . S
C650 H664 0.961 . S
C651 C648 1.539 1_655 S
C651 H665 0.958 . S
C651 H666 0.961 . S
C651 H667 0.960 . S
H652 C636 0.931 . S
H653 C641 0.929 . S
H654 C642 0.960 . S
H655 C642 0.962 . S
H656 C642 0.960 . S
H657 C643 0.961 . S
H658 C643 0.961 . S
H659 C643 0.961 . S
H660 C644 0.931 . S
H661 C649 0.930 1_655 S
H662 C650 0.956 . S
H663 C650 0.961 . S
H664 C650 0.961 . S
H665 C651 0.958 . S
H666 C651 0.961 . S
H667 C651 0.960 . S
C668 C669 1.391 . S
C668 C670 1.394 . S
C668 H684 0.931 1_565 S
C669 C668 1.391 . S
C669 C673 1.376 . S
C670 C668 1.394 . S
C670 C671 1.369 . S
C670 C674 1.531 1_566 S
C671 C670 1.369 . S
C671 C672 1.410 . S
C671 C679 1.503 . S
C672 C671 1.410 . S
C672 C673 1.392 . S
C672 C675 1.511 . S
C673 C669 1.376 . S
C673 C672 1.392 . S
C673 H685 0.929 . S
C674 C670 1.531 1_544 S
C674 H686 0.960 . S
C674 H687 0.962 . S
C674 H688 0.960 . S
C675 C672 1.511 . S
C675 H689 0.961 . S
C675 H690 0.961 . S
C675 H691 0.961 . S
C676 C677 1.370 . S
C676 C678 1.363 . S
C676 H692 0.931 . S
C677 C676 1.370 . S
C677 C681 1.408 1_564 S
C678 C676 1.363 . S
C678 C679 1.370 1_554 S
C678 C682 1.524 . S
C679 C671 1.503 . S
C679 C678 1.370 1_556 S
C679 C680 1.403 1_565 S
C680 C679 1.403 1_545 S
C680 C681 1.404 . S
C680 C683 1.539 . S
C681 C677 1.408 1_546 S
C681 C680 1.404 . S
C681 H693 0.930 . S
C682 C678 1.524 . S
C682 H694 0.956 . S
C682 H695 0.961 . S
C682 H696 0.961 . S
C683 C680 1.539 . S
C683 H697 0.958 . S
C683 H698 0.961 . S
C683 H699 0.960 . S
H684 C668 0.931 1_545 S
H685 C673 0.929 . S
H686 C674 0.960 . S
H687 C674 0.962 . S
H688 C674 0.960 . S
H689 C675 0.961 . S
H690 C675 0.961 . S
H691 C675 0.961 . S
H692 C676 0.931 . S
H693 C681 0.930 . S
H694 C682 0.956 . S
H695 C682 0.961 . S
H696 C682 0.961 . S
H697 C683 0.958 . S
H698 C683 0.961 . S
H699 C683 0.960 . S
C700 C701 1.391 . S
C700 C702 1.394 . S
C700 H716 0.931 . S
C701 C700 1.391 . S
C701 C705 1.376 . S
C702 C700 1.394 . S
C702 C703 1.369 . S
C702 C706 1.531 . S
C703 C702 1.369 . S
C703 C704 1.410 . S
C703 C711 1.503 . S
C704 C703 1.410 . S
C704 C705 1.392 . S
C704 C707 1.511 . S
C705 C701 1.376 . S
C705 C704 1.392 . S
C705 H717 0.929 . S
C706 C702 1.531 . S
C706 H718 0.960 . S
C706 H719 0.962 . S
C706 H720 0.960 . S
C707 C704 1.511 . S
C707 H721 0.961 . S
C707 H722 0.961 . S
C707 H723 0.961 . S
C708 C709 1.370 . S
C708 C710 1.363 . S
C708 H724 0.931 . S
C709 C708 1.370 . S
C709 C713 1.408 . S
C710 C708 1.363 . S
C710 C711 1.370 . S
C710 C714 1.524 . S
C711 C703 1.503 . S
C711 C710 1.370 . S
C711 C712 1.403 . S
C712 C711 1.403 . S
C712 C713 1.404 . S
C712 C715 1.539 1_545 S
C713 C709 1.408 . S
C713 C712 1.404 . S
C713 H725 0.930 1_545 S
C714 C710 1.524 . S
C714 H726 0.956 . S
C714 H727 0.961 . S
C714 H728 0.961 . S
C715 C712 1.539 1_565 S
C715 H729 0.958 . S
C715 H730 0.961 . S
C715 H731 0.960 . S
H716 C700 0.931 . S
H717 C705 0.929 . S
H718 C706 0.960 . S
H719 C706 0.962 . S
H720 C706 0.960 . S
H721 C707 0.961 . S
H722 C707 0.961 . S
H723 C707 0.961 . S
H724 C708 0.931 . S
H725 C713 0.930 1_565 S
H726 C714 0.956 . S
H727 C714 0.961 . S
H728 C714 0.961 . S
H729 C715 0.958 . S
H730 C715 0.961 . S
H731 C715 0.960 . S
C732 C733 1.391 . S
C732 C734 1.394 . S
C732 H748 0.931 . S
C733 C732 1.391 . S
C733 C737 1.376 . S
C734 C732 1.394 . S
C734 C735 1.369 . S
C734 C738 1.531 1_554 S
C735 C734 1.369 . S
C735 C736 1.410 . S
C735 C743 1.503 . S
C736 C735 1.410 . S
C736 C737 1.392 . S
C736 C739 1.511 . S
C737 C733 1.376 . S
C737 C736 1.392 . S
C737 H749 0.929 . S
C738 C734 1.531 1_556 S
C738 H750 0.960 . S
C738 H751 0.962 . S
C738 H752 0.960 . S
C739 C736 1.511 . S
C739 H753 0.961 . S
C739 H754 0.961 . S
C739 H755 0.961 . S
C740 C741 1.370 . S
C740 C742 1.363 . S
C740 H756 0.931 . S
C741 C740 1.370 . S
C741 C745 1.408 . S
C742 C740 1.363 . S
C742 C743 1.370 . S
C742 C746 1.524 . S
C743 C735 1.503 . S
C743 C742 1.370 . S
C743 C744 1.403 . S
C744 C743 1.403 . S
C744 C745 1.404 . S
C744 C747 1.539 . S
C745 C741 1.408 . S
C745 C744 1.404 . S
C745 H757 0.930 . S
C746 C742 1.524 . S
C746 H758 0.956 . S
C746 H759 0.961 . S
C746 H760 0.961 . S
C747 C744 1.539 . S
C747 H761 0.958 . S
C747 H762 0.961 . S
C747 H763 0.960 . S
H748 C732 0.931 . S
H749 C737 0.929 . S
H750 C738 0.960 . S
H751 C738 0.962 . S
H752 C738 0.960 . S
H753 C739 0.961 . S
H754 C739 0.961 . S
H755 C739 0.961 . S
H756 C740 0.931 . S
H757 C745 0.930 . S
H758 C746 0.956 . S
H759 C746 0.961 . S
H760 C746 0.961 . S
H761 C747 0.958 . S
H762 C747 0.961 . S
H763 C747 0.960 . S
C764 C765 1.391 . S
C764 C766 1.394 . S
C764 H780 0.931 . S
C765 C764 1.391 . S
C765 C769 1.376 . S
C766 C764 1.394 . S
C766 C767 1.369 . S
C766 C770 1.531 . S
C767 C766 1.369 . S
C767 C768 1.410 . S
C767 C775 1.503 . S
C768 C767 1.410 . S
C768 C769 1.392 . S
C768 C771 1.511 . S
C769 C765 1.376 . S
C769 C768 1.392 . S
C769 H781 0.929 . S
C770 C766 1.531 . S
C770 H782 0.960 . S
C770 H783 0.962 . S
C770 H784 0.960 . S
C771 C768 1.511 . S
C771 H785 0.961 . S
C771 H786 0.961 . S
C771 H787 0.961 . S
C772 C773 1.370 . S
C772 C774 1.363 . S
C772 H788 0.931 . S
C773 C772 1.370 . S
C773 C777 1.408 . S
C774 C772 1.363 . S
C774 C775 1.370 . S
C774 C778 1.524 . S
C775 C767 1.503 . S
C775 C774 1.370 . S
C775 C776 1.403 . S
C776 C775 1.403 . S
C776 C777 1.404 . S
C776 C779 1.539 . S
C777 C773 1.408 . S
C777 C776 1.404 . S
C777 H789 0.930 . S
C778 C774 1.524 . S
C778 H790 0.956 . S
C778 H791 0.961 . S
C778 H792 0.961 . S
C779 C776 1.539 . S
C779 H793 0.958 . S
C779 H794 0.961 . S
C779 H795 0.960 . S
H780 C764 0.931 . S
H781 C769 0.929 . S
H782 C770 0.960 . S
H783 C770 0.962 . S
H784 C770 0.960 . S
H785 C771 0.961 . S
H786 C771 0.961 . S
H787 C771 0.961 . S
H788 C772 0.931 . S
H789 C777 0.930 . S
H790 C778 0.956 . S
H791 C778 0.961 . S
H792 C778 0.961 . S
H793 C779 0.958 . S
H794 C779 0.961 . S
H795 C779 0.960 . S
C796 C797 1.391 . S
C796 C798 1.394 1_655 S
C796 H812 0.931 1_655 S
C797 C796 1.391 . S
C797 C801 1.376 . S
C798 C796 1.394 1_455 S
C798 C799 1.369 1_455 S
C798 C802 1.531 . S
C799 C798 1.369 1_655 S
C799 C800 1.410 . S
C799 C807 1.503 . S
C800 C799 1.410 . S
C800 C801 1.392 . S
C800 C803 1.511 . S
C801 C797 1.376 . S
C801 C800 1.392 . S
C801 H813 0.929 . S
C802 C798 1.531 . S
C802 H814 0.960 1_556 S
C802 H815 0.962 . S
C802 H816 0.960 1_556 S
C803 C800 1.511 . S
C803 H817 0.961 . S
C803 H818 0.961 . S
C803 H819 0.961 . S
C804 C805 1.370 . S
C804 C806 1.363 1_455 S
C804 H820 0.931 . S
C805 C804 1.370 . S
C805 C809 1.408 1_456 S
C806 C804 1.363 1_655 S
C806 C807 1.370 . S
C806 C810 1.524 . S
C807 C799 1.503 . S
C807 C806 1.370 . S
C807 C808 1.403 1_556 S
C808 C807 1.403 1_554 S
C808 C809 1.404 . S
C808 C811 1.539 . S
C809 C805 1.408 1_654 S
C809 C808 1.404 . S
C809 H821 0.930 . S
C810 C806 1.524 . S
C810 H822 0.956 1_655 S
C810 H823 0.961 . S
C810 H824 0.961 1_655 S
C811 C808 1.539 . S
C811 H825 0.958 . S
C811 H826 0.961 . S
C811 H827 0.960 . S
H812 C796 0.931 1_455 S
H813 C801 0.929 . S
H814 C802 0.960 1_554 S
H815 C802 0.962 . S
H816 C802 0.960 1_554 S
H817 C803 0.961 . S
H818 C803 0.961 . S
H819 C803 0.961 . S
H820 C804 0.931 . S
H821 C809 0.930 . S
H822 C810 0.956 1_455 S
H823 C810 0.961 . S
H824 C810 0.961 1_455 S
H825 C811 0.958 . S
H826 C811 0.961 . S
H827 C811 0.960 . S
C828 C829 1.391 . S
C828 C830 1.394 . S
C828 H844 0.931 . S
C829 C828 1.391 . S
C829 C833 1.376 . S
C830 C828 1.394 . S
C830 C831 1.369 . S
C830 C834 1.531 . S
C831 C830 1.369 . S
C831 C832 1.410 . S
C831 C839 1.503 . S
C832 C831 1.410 . S
C832 C833 1.392 . S
C832 C835 1.511 . S
C833 C829 1.376 . S
C833 C832 1.392 . S
C833 H845 0.929 . S
C834 C830 1.531 . S
C834 H846 0.960 . S
C834 H847 0.962 . S
C834 H848 0.960 . S
C835 C832 1.511 . S
C835 H849 0.961 . S
C835 H850 0.961 . S
C835 H851 0.961 . S
C836 C837 1.370 . S
C836 C838 1.363 . S
C836 H852 0.931 . S
C837 C836 1.370 . S
C837 C841 1.408 . S
C838 C836 1.363 . S
C838 C839 1.370 . S
C838 C842 1.524 . S
C839 C831 1.503 . S
C839 C838 1.370 . S
C839 C840 1.403 . S
C840 C839 1.403 . S
C840 C841 1.404 . S
C840 C843 1.539 1_554 S
C841 C837 1.408 . S
C841 C840 1.404 . S
C841 H853 0.930 1_554 S
C842 C838 1.524 . S
C842 H854 0.956 . S
C842 H855 0.961 . S
C842 H856 0.961 . S
C843 C840 1.539 1_556 S
C843 H857 0.958 . S
C843 H858 0.961 . S
C843 H859 0.960 . S
H844 C828 0.931 . S
H845 C833 0.929 . S
H846 C834 0.960 . S
H847 C834 0.962 . S
H848 C834 0.960 . S
H849 C835 0.961 . S
H850 C835 0.961 . S
H851 C835 0.961 . S
H852 C836 0.931 . S
H853 C841 0.930 1_556 S
H854 C842 0.956 . S
H855 C842 0.961 . S
H856 C842 0.961 . S
H857 C843 0.958 . S
H858 C843 0.961 . S
H859 C843 0.960 . S
C860 C861 1.391 . S
C860 C862 1.394 . S
C860 H876 0.931 . S
C861 C860 1.391 . S
C861 C865 1.376 . S
C862 C860 1.394 . S
C862 C863 1.369 . S
C862 C866 1.531 . S
C863 C862 1.369 . S
C863 C864 1.410 . S
C863 C871 1.503 . S
C864 C863 1.410 . S
C864 C865 1.392 . S
C864 C867 1.511 . S
C865 C861 1.376 . S
C865 C864 1.392 . S
C865 H877 0.929 . S
C866 C862 1.531 . S
C866 H878 0.960 . S
C866 H879 0.962 . S
C866 H880 0.960 . S
C867 C864 1.511 . S
C867 H881 0.961 . S
C867 H882 0.961 . S
C867 H883 0.961 1_455 S
C868 C869 1.370 . S
C868 C870 1.363 . S
C868 H884 0.931 . S
C869 C868 1.370 . S
C869 C873 1.408 1_455 S
C870 C868 1.363 . S
C870 C871 1.370 . S
C870 C874 1.524 . S
C871 C863 1.503 . S
C871 C870 1.370 . S
C871 C872 1.403 . S
C872 C871 1.403 . S
C872 C873 1.404 1_455 S
C872 C875 1.539 1_455 S
C873 C869 1.408 1_655 S
C873 C872 1.404 1_655 S
C873 H885 0.930 . S
C874 C870 1.524 . S
C874 H886 0.956 . S
C874 H887 0.961 . S
C874 H888 0.961 . S
C875 C872 1.539 1_655 S
C875 H889 0.958 . S
C875 H890 0.961 . S
C875 H891 0.960 . S
H876 C860 0.931 . S
H877 C865 0.929 . S
H878 C866 0.960 . S
H879 C866 0.962 . S
H880 C866 0.960 . S
H881 C867 0.961 . S
H882 C867 0.961 . S
H883 C867 0.961 1_655 S
H884 C868 0.931 . S
H885 C873 0.930 . S
H886 C874 0.956 . S
H887 C874 0.961 . S
H888 C874 0.961 . S
H889 C875 0.958 . S
H890 C875 0.961 . S
H891 C875 0.960 . S
C892 C893 1.391 . S
C892 C894 1.394 . S
C892 H908 0.931 . S
C893 C892 1.391 . S
C893 C897 1.376 . S
C894 C892 1.394 . S
C894 C895 1.369 . S
C894 C898 1.531 . S
C895 C894 1.369 . S
C895 C896 1.410 . S
C895 C903 1.503 . S
C896 C895 1.410 . S
C896 C897 1.392 . S
C896 C899 1.511 . S
C897 C893 1.376 . S
C897 C896 1.392 . S
C897 H909 0.929 . S
C898 C894 1.531 . S
C898 H910 0.960 . S
C898 H911 0.962 . S
C898 H912 0.960 . S
C899 C896 1.511 . S
C899 H913 0.961 . S
C899 H914 0.961 . S
C899 H915 0.961 . S
C900 C901 1.370 . S
C900 C902 1.363 . S
C900 H916 0.931 . S
C901 C900 1.370 . S
C901 C905 1.408 . S
C902 C900 1.363 . S
C902 C903 1.370 . S
C902 C906 1.524 . S
C903 C895 1.503 . S
C903 C902 1.370 . S
C903 C904 1.403 . S
C904 C903 1.403 . S
C904 C905 1.404 . S
C904 C907 1.539 . S
C905 C901 1.408 . S
C905 C904 1.404 . S
C905 H917 0.930 . S
C906 C902 1.524 . S
C906 H918 0.956 . S
C906 H919 0.961 . S
C906 H920 0.961 . S
C907 C904 1.539 . S
C907 H921 0.958 . S
C907 H922 0.961 . S
C907 H923 0.960 . S
H908 C892 0.931 . S
H909 C897 0.929 . S
H910 C898 0.960 . S
H911 C898 0.962 . S
H912 C898 0.960 . S
H913 C899 0.961 . S
H914 C899 0.961 . S
H915 C899 0.961 . S
H916 C900 0.931 . S
H917 C905 0.930 . S
H918 C906 0.956 . S
H919 C906 0.961 . S
H920 C906 0.961 . S
H921 C907 0.958 . S
H922 C907 0.961 . S
H923 C907 0.960 . S
C157 C5 1.544 . S
C165 C75 1.425 . S
C189 C14 1.507 . S
C197 C109 1.391 . S
C229 C121 1.370 . S
C221 C25 1.486 . S
C253 C34 1.496 . S
C261 C155 1.401 . S
C293 C112 1.404 . S
C285 C7 1.514 . S
C325 C92 1.396 . S
C317 C13 1.517 . S
C357 C139 1.401 . S
C349 C23 1.489 . S
C389 C130 1.397 . S
C381 C31 1.503 . S
C413 C4 1.528 . S
C421 C138 1.430 . S
C453 C100 1.409 . S
C445 C22 1.498 . S
C477 C32 1.511 . S
C485 C76 1.418 . S
C509 C16 1.507 . S
C517 C133 1.407 . S
C549 C91 1.468 . S
C541 C41 1.527 . S
C573 C50 1.539 . S
C581 C113 1.446 . S
C605 C61 1.561 . S
C613 C118 1.449 . S
C637 C67 1.573 . S
C645 C151 1.495 . S
C669 C40 1.562 . S
C677 C96 1.494 . S
C709 C88 1.481 . S
C701 C52 1.580 . S
C741 C142 1.474 . S
C733 C59 1.566 . S
C773 C134 1.433 . S
C765 C70 1.545 . S
C797 C43 1.549 . S
C805 C154 1.466 . S
C837 C97 1.478 . S
C829 C58 1.568 . S
C869 C79 1.424 . S
C861 C68 1.543 . S
C893 C49 1.555 . S
C901 C117 1.487 . S
