# Generated by pormake.
# Topology pto, (3,4)-cn, num edge types: 1
# Building blocks:
#     Node 0, Type 0, BuildingBlock: MIDCAF_clean_linker_0, # of connection points: 3
#     Node 1, Type 0, BuildingBlock: MIDCAF_clean_linker_0, # of connection points: 3
#     Node 2, Type 0, BuildingBlock: MIDCAF_clean_linker_0, # of connection points: 3
#     Node 3, Type 0, BuildingBlock: MIDCAF_clean_linker_0, # of connection points: 3
#     Node 4, Type 0, BuildingBlock: MIDCAF_clean_linker_0, # of connection points: 3
#     Node 5, Type 0, BuildingBlock: MIDCAF_clean_linker_0, # of connection points: 3
#     Node 6, Type 0, BuildingBlock: MIDCAF_clean_linker_0, # of connection points: 3
#     Node 7, Type 0, BuildingBlock: MIDCAF_clean_linker_0, # of connection points: 3
#     Node 8, Type 1, BuildingBlock: KOZSID_clean_sbu_0, # of connection points: 4
#     Node 9, Type 1, BuildingBlock: KOZSID_clean_sbu_0, # of connection points: 4
#     Node 10, Type 1, BuildingBlock: KOZSID_clean_sbu_0, # of connection points: 4
#     Node 11, Type 1, BuildingBlock: KOZSID_clean_sbu_0, # of connection points: 4
#     Node 12, Type 1, BuildingBlock: KOZSID_clean_sbu_0, # of connection points: 4
#     Node 13, Type 1, BuildingBlock: KOZSID_clean_sbu_0, # of connection points: 4
#     Edge 14, Type (0, 1), BuildingBlock: MIFKUJ_clean_linker_0, # of connection points: 2
#     Edge 15, Type (0, 1), BuildingBlock: MIFKUJ_clean_linker_0, # of connection points: 2
#     Edge 16, Type (0, 1), BuildingBlock: MIFKUJ_clean_linker_0, # of connection points: 2
#     Edge 17, Type (0, 1), BuildingBlock: MIFKUJ_clean_linker_0, # of connection points: 2
#     Edge 18, Type (0, 1), BuildingBlock: MIFKUJ_clean_linker_0, # of connection points: 2
#     Edge 19, Type (0, 1), BuildingBlock: MIFKUJ_clean_linker_0, # of connection points: 2
#     Edge 20, Type (0, 1), BuildingBlock: MIFKUJ_clean_linker_0, # of connection points: 2
#     Edge 21, Type (0, 1), BuildingBlock: MIFKUJ_clean_linker_0, # of connection points: 2
#     Edge 22, Type (0, 1), BuildingBlock: MIFKUJ_clean_linker_0, # of connection points: 2
#     Edge 23, Type (0, 1), BuildingBlock: MIFKUJ_clean_linker_0, # of connection points: 2
#     Edge 24, Type (0, 1), BuildingBlock: MIFKUJ_clean_linker_0, # of connection points: 2
#     Edge 25, Type (0, 1), BuildingBlock: MIFKUJ_clean_linker_0, # of connection points: 2
#     Edge 26, Type (0, 1), BuildingBlock: MIFKUJ_clean_linker_0, # of connection points: 2
#     Edge 27, Type (0, 1), BuildingBlock: MIFKUJ_clean_linker_0, # of connection points: 2
#     Edge 28, Type (0, 1), BuildingBlock: MIFKUJ_clean_linker_0, # of connection points: 2
#     Edge 29, Type (0, 1), BuildingBlock: MIFKUJ_clean_linker_0, # of connection points: 2
#     Edge 30, Type (0, 1), BuildingBlock: MIFKUJ_clean_linker_0, # of connection points: 2
#     Edge 31, Type (0, 1), BuildingBlock: MIFKUJ_clean_linker_0, # of connection points: 2
#     Edge 32, Type (0, 1), BuildingBlock: MIFKUJ_clean_linker_0, # of connection points: 2
#     Edge 33, Type (0, 1), BuildingBlock: MIFKUJ_clean_linker_0, # of connection points: 2
#     Edge 34, Type (0, 1), BuildingBlock: MIFKUJ_clean_linker_0, # of connection points: 2
#     Edge 35, Type (0, 1), BuildingBlock: MIFKUJ_clean_linker_0, # of connection points: 2
#     Edge 36, Type (0, 1), BuildingBlock: MIFKUJ_clean_linker_0, # of connection points: 2
#     Edge 37, Type (0, 1), BuildingBlock: MIFKUJ_clean_linker_0, # of connection points: 2
# Relax obj value: 0.000
# Max RMSD: 0.018
# Mean RMSD: 0.008
data_MOF--net-pto--node1-KOZSID_clean_sbu_0--node2-MIDCAF_clean_linker_0--edge1-MIFKUJ_clean_linker_0
_symmetry_space_group_name_H-M    P1
_symmetry_Int_Tables_number       1
_symmetry_cell_setting            triclinic
loop_
_symmetry_equiv_pos_as_xyz
'x, y, z'
_cell_length_a     57.224882
_cell_length_b     77.418284
_cell_length_c     67.437532
_cell_angle_alpha  87.951518
_cell_angle_beta   87.982451
_cell_angle_gamma 92.300683
loop_
_atom_site_label
_atom_site_type_symbol
_atom_site_fract_x
_atom_site_fract_y
_atom_site_fract_z
_atom_type_partial_charge
C0 C 0.32308 0.24007 0.25183 0.0
C1 C 0.32996 0.2553 0.24088 0.0
C2 C 0.32243 0.27122 0.24749 0.0
C3 C 0.30797 0.27187 0.26459 0.0
H4 H 0.25461 0.30041 0.28855 0.0
H5 H 0.23119 0.3255 0.29394 0.0
H6 H 0.20741 0.30376 0.35133 0.0
H7 H 0.23096 0.27865 0.3461 0.0
H8 H 0.23452 0.23676 0.35214 0.0
H9 H 0.22903 0.21086 0.37366 0.0
H10 H 0.29014 0.18957 0.34587 0.0
H11 H 0.2952 0.21514 0.32397 0.0
H12 H 0.30386 0.2287 0.27708 0.0
H13 H 0.32882 0.22764 0.24714 0.0
H14 H 0.32738 0.28315 0.23925 0.0
H15 H 0.3023 0.28433 0.2692 0.0
N16 N 0.27317 0.27148 0.29712 0.0
N17 N 0.25598 0.25784 0.32597 0.0
N18 N 0.28278 0.24324 0.30629 0.0
C19 C 0.25841 0.27192 0.31332 0.0
C20 C 0.26816 0.24346 0.32258 0.0
C21 C 0.28541 0.25719 0.29351 0.0
C22 C 0.24466 0.28744 0.31686 0.0
C23 C 0.24449 0.30096 0.30237 0.0
C24 C 0.23096 0.31531 0.30539 0.0
C25 C 0.2174 0.31656 0.32302 0.0
C26 C 0.21783 0.30321 0.33766 0.0
C27 C 0.23124 0.28878 0.33459 0.0
C28 C 0.26523 0.22802 0.33623 0.0
C29 C 0.24683 0.22657 0.35064 0.0
C30 C 0.24374 0.21174 0.36306 0.0
C31 C 0.25908 0.19807 0.36146 0.0
C32 C 0.2777 0.19968 0.34726 0.0
C33 C 0.28068 0.21442 0.33475 0.0
C34 C 0.30102 0.25661 0.27555 0.0
C35 C 0.30889 0.24072 0.26904 0.0
C36 C 0.21152 0.70324 0.73381 0.0
C37 C 0.20361 0.69956 0.71489 0.0
C38 C 0.20966 0.71111 0.69883 0.0
C39 C 0.22299 0.72627 0.70173 0.0
H40 H 0.23503 0.77617 0.67784 0.0
H41 H 0.23015 0.80137 0.65589 0.0
H42 H 0.26527 0.83385 0.69727 0.0
H43 H 0.27006 0.80876 0.71935 0.0
H44 H 0.29383 0.79151 0.75599 0.0
H45 H 0.31771 0.79381 0.78501 0.0
H46 H 0.30325 0.73958 0.79977 0.0
H47 H 0.27893 0.73731 0.77106 0.0
H48 H 0.23092 0.72076 0.75145 0.0
H49 H 0.20719 0.69446 0.74639 0.0
H50 H 0.20365 0.70857 0.68412 0.0
H51 H 0.22715 0.73504 0.68911 0.0
N52 N 0.24326 0.76005 0.71098 0.0
N53 N 0.26823 0.77648 0.73048 0.0
N54 N 0.25771 0.74775 0.74013 0.0
C55 C 0.25503 0.77523 0.71419 0.0
C56 C 0.26977 0.76278 0.74347 0.0
C57 C 0.24445 0.74628 0.72391 0.0
C58 C 0.25288 0.79041 0.70043 0.0
C59 C 0.24178 0.78866 0.68228 0.0
C60 C 0.23908 0.80308 0.66962 0.0
C61 C 0.24726 0.81958 0.6749 0.0
C62 C 0.25855 0.82132 0.69292 0.0
C63 C 0.26142 0.8069 0.70551 0.0
C64 C 0.28438 0.76422 0.76113 0.0
C65 C 0.29569 0.78005 0.76541 0.0
C66 C 0.30952 0.78137 0.782 0.0
C67 C 0.31242 0.76688 0.79472 0.0
C68 C 0.30113 0.75106 0.79045 0.0
C69 C 0.28726 0.74974 0.77389 0.0
C70 C 0.23087 0.73002 0.72068 0.0
C71 C 0.2252 0.71824 0.73665 0.0
C72 C 0.71874 0.7491 0.24747 0.0
C73 C 0.70804 0.7646 0.24244 0.0
C74 C 0.71196 0.77904 0.25412 0.0
C75 C 0.72625 0.778 0.27047 0.0
H76 H 0.75564 0.80727 0.3134 0.0
H77 H 0.76197 0.83222 0.33372 0.0
H78 H 0.79629 0.80028 0.37677 0.0
H79 H 0.7906 0.7754 0.35617 0.0
H80 H 0.80271 0.73722 0.34545 0.0
H81 H 0.82474 0.71135 0.35149 0.0
H82 H 0.80284 0.69147 0.29579 0.0
H83 H 0.78094 0.71732 0.28957 0.0
H84 H 0.74108 0.73591 0.26714 0.0
H85 H 0.71629 0.73781 0.23863 0.0
H86 H 0.70375 0.79111 0.25075 0.0
H87 H 0.72882 0.78938 0.27914 0.0
N88 N 0.75528 0.7751 0.3046 0.0
N89 N 0.78019 0.75927 0.32453 0.0
N90 N 0.76347 0.74662 0.29702 0.0
C91 C 0.76919 0.77416 0.32049 0.0
C92 C 0.77746 0.74545 0.31284 0.0
C93 C 0.75226 0.76137 0.29282 0.0
C94 C 0.77262 0.78929 0.3331 0.0
C95 C 0.76452 0.80553 0.32721 0.0
C96 C 0.76805 0.81985 0.33893 0.0
C97 C 0.77963 0.81828 0.35691 0.0
C98 C 0.78763 0.80203 0.36286 0.0
C99 C 0.78423 0.78772 0.35108 0.0
C100 C 0.7901 0.72943 0.31697 0.0
C101 C 0.80251 0.72734 0.33449 0.0
C102 C 0.81503 0.71247 0.33803 0.0
C103 C 0.81557 0.69943 0.32408 0.0
C104 C 0.80296 0.7014 0.3067 0.0
C105 C 0.7903 0.7162 0.30321 0.0
C106 C 0.73702 0.76249 0.2755 0.0
C107 C 0.73308 0.74806 0.26378 0.0
C108 C 0.78544 0.22506 0.68355 0.0
C109 C 0.77588 0.20856 0.68928 0.0
C110 C 0.76376 0.20625 0.70772 0.0
C111 C 0.7613 0.22013 0.72021 0.0
H112 H 0.71919 0.23777 0.76675 0.0
H113 H 0.69382 0.23496 0.79666 0.0
H114 H 0.72695 0.28113 0.8188 0.0
H115 H 0.75237 0.284 0.78902 0.0
H116 H 0.78212 0.30868 0.75869 0.0
H117 H 0.80565 0.33524 0.75193 0.0
H118 H 0.83318 0.31458 0.69764 0.0
H119 H 0.81 0.28784 0.70451 0.0
H120 H 0.79089 0.25142 0.69125 0.0
H121 H 0.79504 0.22719 0.66949 0.0
H122 H 0.756 0.19371 0.71243 0.0
H123 H 0.7519 0.21786 0.73434 0.0
N124 N 0.75487 0.24966 0.74471 0.0
N125 N 0.76601 0.27786 0.75311 0.0
N126 N 0.78158 0.26633 0.72408 0.0
C127 C 0.75325 0.26292 0.75729 0.0
C128 C 0.78018 0.2797 0.73652 0.0
C129 C 0.76902 0.25126 0.72807 0.0
C130 C 0.73785 0.26111 0.77545 0.0
C131 C 0.72113 0.24731 0.778 0.0
C132 C 0.7065 0.24574 0.79507 0.0
C133 C 0.70845 0.25782 0.81005 0.0
C134 C 0.72522 0.27154 0.80758 0.0
C135 C 0.73968 0.27323 0.79044 0.0
C136 C 0.79416 0.29604 0.73218 0.0
C137 C 0.79314 0.30976 0.74528 0.0
C138 C 0.80654 0.32506 0.74136 0.0
C139 C 0.82129 0.32703 0.72425 0.0
C140 C 0.82222 0.31338 0.71109 0.0
C141 C 0.80881 0.29807 0.71499 0.0
C142 C 0.77108 0.23662 0.7146 0.0
C143 C 0.78315 0.23891 0.69609 0.0
C144 C 0.69894 0.77856 0.78856 0.0
C145 C 0.69765 0.76446 0.80231 0.0
C146 C 0.71129 0.75014 0.79868 0.0
C147 C 0.72606 0.74997 0.78174 0.0
H148 H 0.76234 0.71691 0.7439 0.0
H149 H 0.78551 0.69174 0.73746 0.0
H150 H 0.83451 0.72381 0.70089 0.0
H151 H 0.81139 0.74898 0.70713 0.0
H152 H 0.78653 0.78344 0.68688 0.0
H153 H 0.79251 0.80983 0.66617 0.0
H154 H 0.75285 0.83785 0.70915 0.0
H155 H 0.74691 0.81158 0.72997 0.0
H156 H 0.71449 0.78963 0.76153 0.0
H157 H 0.68881 0.78986 0.79105 0.0
H158 H 0.71045 0.73899 0.8089 0.0
H159 H 0.73641 0.73875 0.77948 0.0
N160 N 0.75604 0.75011 0.74619 0.0
N161 N 0.77461 0.76504 0.71874 0.0
N162 N 0.74733 0.77889 0.7387 0.0
C163 C 0.77142 0.75037 0.73035 0.0
C164 C 0.76258 0.77935 0.72278 0.0
C165 C 0.74393 0.76434 0.75048 0.0
C166 C 0.78503 0.73498 0.72606 0.0
C167 C 0.77802 0.7186 0.73444 0.0
C168 C 0.79118 0.70417 0.73068 0.0
C169 C 0.81179 0.70587 0.71872 0.0
C170 C 0.81877 0.72219 0.71028 0.0
C171 C 0.80544 0.73657 0.71379 0.0
C172 C 0.76623 0.79535 0.71012 0.0
C173 C 0.7791 0.79521 0.69197 0.0
C174 C 0.78244 0.81031 0.68003 0.0
C175 C 0.77318 0.82589 0.68607 0.0
C176 C 0.76041 0.82606 0.70423 0.0
C177 C 0.75689 0.81096 0.71609 0.0
C178 C 0.72763 0.76419 0.7681 0.0
C179 C 0.71379 0.77845 0.77168 0.0
C180 C 0.80101 0.2122 0.3613 0.0
C181 C 0.78303 0.19937 0.36402 0.0
C182 C 0.76216 0.2012 0.35396 0.0
C183 C 0.7594 0.21554 0.3412 0.0
H184 H 0.73549 0.22786 0.28331 0.0
H185 H 0.70988 0.22601 0.25525 0.0
H186 H 0.71489 0.28159 0.24681 0.0
H187 H 0.74048 0.28356 0.27488 0.0
H188 H 0.78392 0.30342 0.29387 0.0
H189 H 0.80703 0.32996 0.29858 0.0
H190 H 0.83863 0.30591 0.34925 0.0
H191 H 0.81595 0.27926 0.34437 0.0
H192 H 0.81222 0.23643 0.34711 0.0
H193 H 0.81722 0.21107 0.36898 0.0
H194 H 0.74812 0.1914 0.35575 0.0
H195 H 0.74314 0.21657 0.33357 0.0
N196 N 0.75902 0.24299 0.31035 0.0
N197 N 0.7689 0.27187 0.30085 0.0
N198 N 0.7869 0.25871 0.32783 0.0
C199 C 0.75627 0.25697 0.29802 0.0
C200 C 0.78425 0.27286 0.31574 0.0
C201 C 0.7743 0.24377 0.32528 0.0
C202 C 0.74011 0.25587 0.28136 0.0
C203 C 0.73108 0.23972 0.27556 0.0
C204 C 0.71652 0.23863 0.25941 0.0
C205 C 0.71045 0.25365 0.24883 0.0
C206 C 0.71914 0.26981 0.25479 0.0
C207 C 0.73391 0.2709 0.27081 0.0
C208 C 0.79807 0.28913 0.3187 0.0
C209 C 0.79579 0.30375 0.30602 0.0
C210 C 0.80894 0.31902 0.30879 0.0
C211 C 0.82469 0.32004 0.32428 0.0
C212 C 0.8269 0.30547 0.33699 0.0
C213 C 0.81377 0.2902 0.33425 0.0
C214 C 0.77729 0.22849 0.3386 0.0
C215 C 0.79808 0.22672 0.34886 0.0
C216 C 0.2705 0.20666 0.69365 0.0
C217 C 0.25149 0.20547 0.68108 0.0
C218 C 0.23526 0.21861 0.68102 0.0
C219 C 0.23799 0.23266 0.69328 0.0
H220 H 0.20955 0.27887 0.70665 0.0
H221 H 0.18651 0.30428 0.70097 0.0
H222 H 0.23201 0.33384 0.73797 0.0
H223 H 0.25515 0.30843 0.74377 0.0
H224 H 0.27517 0.2796 0.78067 0.0
H225 H 0.30018 0.27712 0.80892 0.0
H226 H 0.34033 0.23927 0.77852 0.0
H227 H 0.31452 0.24117 0.75067 0.0
H228 H 0.2879 0.2211 0.71566 0.0
H229 H 0.28316 0.19663 0.69412 0.0
H230 H 0.22056 0.21809 0.67134 0.0
H231 H 0.22512 0.24254 0.69285 0.0
N232 N 0.24635 0.26265 0.71673 0.0
N233 N 0.26361 0.27551 0.74387 0.0
N234 N 0.27476 0.24811 0.73424 0.0
C235 C 0.2484 0.27622 0.72886 0.0
C236 C 0.27683 0.26148 0.74667 0.0
C237 C 0.25949 0.24858 0.71927 0.0
C238 C 0.23422 0.2916 0.72567 0.0
C239 C 0.21469 0.29076 0.7136 0.0
C240 C 0.2014 0.30528 0.71041 0.0
C241 C 0.20751 0.321 0.71902 0.0
C242 C 0.22704 0.3219 0.73103 0.0
C243 C 0.24018 0.30731 0.73444 0.0
C244 C 0.29281 0.26055 0.76343 0.0
C245 C 0.28939 0.2708 0.77998 0.0
C246 C 0.30387 0.26943 0.79618 0.0
C247 C 0.32238 0.25799 0.7961 0.0
C248 C 0.326 0.24797 0.77934 0.0
C249 C 0.31129 0.24914 0.76328 0.0
C250 C 0.25689 0.2338 0.70602 0.0
C251 C 0.27312 0.22063 0.70607 0.0
C252 C 0.22266 0.69474 0.30252 0.0
C253 C 0.20499 0.69355 0.31758 0.0
C254 C 0.20097 0.70811 0.3289 0.0
C255 C 0.21409 0.72356 0.32507 0.0
H256 H 0.23785 0.7699 0.3512 0.0
H257 H 0.23329 0.79454 0.37246 0.0
H258 H 0.25912 0.8292 0.32437 0.0
H259 H 0.26391 0.80464 0.30308 0.0
H260 H 0.30036 0.786 0.27192 0.0
H261 H 0.32557 0.78901 0.24201 0.0
H262 H 0.30223 0.73809 0.22503 0.0
H263 H 0.27682 0.73505 0.25478 0.0
H264 H 0.24907 0.71063 0.28682 0.0
H265 H 0.22652 0.68369 0.29375 0.0
H266 H 0.18731 0.70771 0.34046 0.0
H267 H 0.21028 0.73458 0.33392 0.0
N268 N 0.24241 0.75508 0.31702 0.0
N269 N 0.26832 0.77201 0.29592 0.0
N270 N 0.2591 0.74323 0.2886 0.0
C271 C 0.25411 0.77042 0.31251 0.0
C272 C 0.27097 0.75846 0.28391 0.0
C273 C 0.24478 0.74142 0.3051 0.0
C274 C 0.25126 0.7853 0.32544 0.0
C275 C 0.24253 0.78277 0.34513 0.0
C276 C 0.24002 0.79684 0.35734 0.0
C277 C 0.24582 0.81373 0.35001 0.0
C278 C 0.25436 0.8163 0.33031 0.0
C279 C 0.25722 0.80222 0.31819 0.0
C280 C 0.28649 0.76028 0.2658 0.0
C281 C 0.30055 0.77542 0.26184 0.0
C282 C 0.31512 0.77713 0.24475 0.0
C283 C 0.31587 0.76379 0.23118 0.0
C284 C 0.30183 0.74867 0.23511 0.0
C285 C 0.28736 0.74691 0.25224 0.0
C286 C 0.23148 0.72485 0.30975 0.0
C287 C 0.2357 0.7102 0.29862 0.0
C288 C 0.04989 0.53062 0.36258 0.0
C289 C 0.05865 0.53496 0.38077 0.0
C290 C 0.04608 0.52515 0.39491 0.0
C291 C 0.03055 0.51534 0.38459 0.0
N292 N 0.03246 0.51825 0.36469 0.0
Co293 Co 0.01377 0.50643 0.3441 0.0
N294 N 0.99409 0.49302 0.36501 0.0
C295 C 0.995 0.49443 0.38491 0.0
C296 C 0.97907 0.48372 0.39549 0.0
C297 C 0.96732 0.47488 0.38153 0.0
C298 C 0.97691 0.48069 0.36318 0.0
N299 N 0.9958 0.49401 0.32349 0.0
C300 C 0.97905 0.48113 0.32562 0.0
C301 C 0.97207 0.47539 0.30738 0.0
C302 C 0.98493 0.48494 0.2932 0.0
C303 C 0.99904 0.49584 0.30354 0.0
N304 N 0.03274 0.52044 0.32319 0.0
C305 C 0.03031 0.52021 0.30331 0.0
C306 C 0.04473 0.53203 0.29276 0.0
C307 C 0.05698 0.54047 0.30673 0.0
C308 C 0.0494 0.53316 0.32507 0.0
N309 N 0.03672 0.48787 0.34359 0.0
C310 C 0.06769 0.46045 0.3423 0.0
C311 C 0.06321 0.4703 0.32519 0.0
C312 C 0.04777 0.48376 0.32614 0.0
C313 C 0.05675 0.46485 0.36018 0.0
C314 C 0.04157 0.47855 0.36051 0.0
N315 N 0.99084 0.52501 0.34456 0.0
C316 C 0.96544 0.54408 0.32714 0.0
C317 C 0.96041 0.5528 0.34447 0.0
C318 C 0.97038 0.547 0.362 0.0
C319 C 0.9853 0.53314 0.36174 0.0
C320 C 0.98058 0.53043 0.3275 0.0
H321 H 0.99237 0.52938 0.37557 0.0
H322 H 0.98382 0.52457 0.3137 0.0
H323 H 0.04498 0.49056 0.3125 0.0
H324 H 0.03378 0.48122 0.37459 0.0
C325 C 0.01255 0.50457 0.3932 0.0
C326 C 0.0582 0.539 0.34383 0.0
C327 C 0.96964 0.47367 0.34453 0.0
C328 C 0.01486 0.50837 0.29496 0.0
H329 H 0.07242 0.54448 0.38353 0.0
H330 H 0.04764 0.52547 0.41084 0.0
H331 H 0.97677 0.48214 0.41146 0.0
H332 H 0.95357 0.46502 0.3845 0.0
H333 H 0.95912 0.46527 0.30461 0.0
H334 H 0.9841 0.48404 0.27726 0.0
H335 H 0.04612 0.53429 0.27682 0.0
H336 H 0.06991 0.55091 0.30372 0.0
H337 H 0.07163 0.46773 0.31102 0.0
H338 H 0.05947 0.45756 0.37386 0.0
H339 H 0.9577 0.54773 0.31326 0.0
H340 H 0.96713 0.55333 0.37584 0.0
C341 C 0.04937 0.53833 0.71349 0.0
C342 C 0.05952 0.54229 0.73127 0.0
C343 C 0.04746 0.53261 0.74584 0.0
C344 C 0.0309 0.52319 0.73615 0.0
N345 N 0.03179 0.52616 0.71625 0.0
Co346 Co 0.01179 0.51454 0.69643 0.0
N347 N 0.99207 0.50205 0.71804 0.0
C348 C 0.9938 0.50378 0.73784 0.0
C349 C 0.97787 0.49357 0.74904 0.0
C350 C 0.96523 0.48474 0.73561 0.0
C351 C 0.97423 0.49011 0.7169 0.0
N352 N 0.99264 0.50216 0.67658 0.0
C353 C 0.97551 0.48962 0.67938 0.0
C354 C 0.96755 0.48383 0.66147 0.0
C355 C 0.9804 0.49282 0.64682 0.0
C356 C 0.99538 0.50353 0.65658 0.0
N357 N 0.03064 0.52785 0.67487 0.0
C358 C 0.02762 0.52724 0.6551 0.0
C359 C 0.04166 0.53892 0.64399 0.0
C360 C 0.05417 0.54775 0.65747 0.0
C361 C 0.04719 0.54077 0.67611 0.0
N362 N 0.03383 0.49535 0.69587 0.0
C363 C 0.06375 0.46737 0.69511 0.0
C364 C 0.06039 0.4774 0.67793 0.0
C365 C 0.04528 0.49115 0.67859 0.0
C366 C 0.05222 0.47166 0.71269 0.0
C367 C 0.03767 0.48567 0.71278 0.0
N368 N 0.98978 0.53367 0.69705 0.0
C369 C 0.9632 0.55247 0.68055 0.0
C370 C 0.95934 0.56132 0.69796 0.0
C371 C 0.97076 0.55603 0.71493 0.0
C372 C 0.98564 0.54221 0.7142 0.0
C373 C 0.97852 0.53887 0.68037 0.0
H374 H 0.99361 0.53871 0.72772 0.0
H375 H 0.98109 0.53283 0.66655 0.0
H376 H 0.04301 0.49807 0.66489 0.0
H377 H 0.0297 0.48832 0.72677 0.0
C378 C 0.01253 0.51322 0.74544 0.0
C379 C 0.05614 0.54719 0.69458 0.0
C380 C 0.96641 0.48264 0.6986 0.0
C381 C 0.01148 0.51552 0.64743 0.0
H382 H 0.07371 0.55159 0.73355 0.0
H383 H 0.04988 0.53292 0.76168 0.0
H384 H 0.97633 0.49212 0.76506 0.0
H385 H 0.9515 0.47502 0.73927 0.0
H386 H 0.95391 0.47407 0.65924 0.0
H387 H 0.97897 0.49171 0.63095 0.0
H388 H 0.04241 0.54096 0.62801 0.0
H389 H 0.06672 0.55832 0.65391 0.0
H390 H 0.06898 0.47443 0.66396 0.0
H391 H 0.05462 0.46434 0.72641 0.0
H392 H 0.9548 0.55625 0.667 0.0
H393 H 0.96803 0.56241 0.72881 0.0
C394 C 0.24896 0.98171 0.54915 0.0
C395 C 0.26942 0.97568 0.55688 0.0
C396 C 0.2875 0.98481 0.54718 0.0
C397 C 0.2771 0.99586 0.53419 0.0
N398 N 0.25342 0.99459 0.53525 0.0
Co399 Co 0.23124 0.00757 0.51843 0.0
N400 N 0.25786 0.02005 0.50304 0.0
C401 C 0.28102 0.01848 0.50576 0.0
C402 C 0.29507 0.02941 0.49367 0.0
C403 C 0.28002 0.03874 0.48277 0.0
C404 C 0.25756 0.03287 0.48883 0.0
N405 N 0.20907 0.02029 0.50134 0.0
C406 C 0.21349 0.03283 0.48704 0.0
C407 C 0.19305 0.03835 0.4788 0.0
C408 C 0.175 0.02921 0.48857 0.0
C409 C 0.18542 0.01864 0.50206 0.0
N410 N 0.20463 0.99533 0.53405 0.0
C411 C 0.18149 0.99749 0.53196 0.0
C412 C 0.16743 0.98691 0.54445 0.0
C413 C 0.18245 0.97723 0.55498 0.0
C414 C 0.2049 0.98253 0.54829 0.0
N415 N 0.23103 0.02664 0.53738 0.0
C416 C 0.23169 0.05564 0.56161 0.0
C417 C 0.21092 0.04953 0.55348 0.0
C418 C 0.21095 0.03506 0.54169 0.0
C419 C 0.25191 0.04655 0.55793 0.0
C420 C 0.25122 0.03232 0.54584 0.0
N421 N 0.23149 0.98856 0.49946 0.0
C422 C 0.21087 0.96752 0.48012 0.0
C423 C 0.2319 0.96042 0.47415 0.0
C424 C 0.25273 0.96781 0.48074 0.0
C425 C 0.25214 0.98182 0.49316 0.0
C426 C 0.21106 0.98143 0.49276 0.0
H427 H 0.26861 0.98689 0.49759 0.0
H428 H 0.19444 0.98604 0.4971 0.0
H429 H 0.19457 0.03112 0.53594 0.0
H430 H 0.26736 0.02628 0.54338 0.0
C431 C 0.28903 0.00713 0.52033 0.0
C432 C 0.22583 0.97426 0.55487 0.0
C433 C 0.23652 0.04054 0.4815 0.0
C434 C 0.17349 0.00819 0.51675 0.0
H435 H 0.27107 0.96549 0.56809 0.0
H436 H 0.30603 0.98329 0.54904 0.0
H437 H 0.31398 0.03075 0.4932 0.0
H438 H 0.28504 0.04899 0.47195 0.0
H439 H 0.19136 0.04827 0.46728 0.0
H440 H 0.15647 0.03054 0.48653 0.0
H441 H 0.1485 0.98583 0.54521 0.0
H442 H 0.17742 0.96705 0.56589 0.0
H443 H 0.19474 0.0561 0.55576 0.0
H444 H 0.26835 0.0504 0.56429 0.0
H445 H 0.19428 0.96212 0.47544 0.0
H446 H 0.26947 0.96287 0.47624 0.0
C447 C 0.47565 0.7912 0.04579 0.0
C448 C 0.46849 0.80749 0.05066 0.0
C449 C 0.48219 0.81918 0.03943 0.0
C450 C 0.49676 0.80941 0.0283 0.0
N451 N 0.49312 0.79216 0.03165 0.0
Co452 Co 0.51015 0.77325 0.01847 0.0
N453 N 0.53133 0.79049 0.00295 0.0
C454 C 0.53192 0.8079 0.00425 0.0
C455 C 0.54835 0.81631 0.99171 0.0
C456 C 0.55876 0.80353 0.98165 0.0
C457 C 0.54792 0.78802 0.98862 0.0
N458 N 0.52671 0.75436 0.0048 0.0
C459 C 0.54333 0.75535 0.98992 0.0
C460 C 0.5491 0.73907 0.9838 0.0
C461 C 0.53558 0.72736 0.99515 0.0
C462 C 0.5223 0.7371 0.00739 0.0
N463 N 0.48941 0.75599 0.03442 0.0
C464 C 0.49009 0.73854 0.03425 0.0
C465 C 0.4746 0.73009 0.04756 0.0
C466 C 0.46348 0.74288 0.05699 0.0
C467 C 0.47278 0.75848 0.04873 0.0
N468 N 0.48749 0.77366 0.99687 0.0
C469 C 0.45705 0.77397 0.96492 0.0
C470 C 0.46107 0.75861 0.97551 0.0
C471 C 0.47623 0.75874 0.99129 0.0
C472 C 0.46819 0.78922 0.97082 0.0
C473 C 0.48314 0.78879 0.98674 0.0
N474 N 0.53284 0.77285 0.04011 0.0
C475 C 0.55603 0.75689 0.06321 0.0
C476 C 0.56312 0.77209 0.07227 0.0
C477 C 0.55516 0.78771 0.06463 0.0
C478 C 0.5403 0.7878 0.04864 0.0
C479 C 0.541 0.75755 0.04736 0.0
H480 H 0.53487 0.80014 0.04363 0.0
H481 H 0.53614 0.74548 0.04133 0.0
H482 H 0.47877 0.74658 0.99858 0.0
H483 H 0.49109 0.80084 0.99047 0.0
C484 C 0.51525 0.81604 0.01585 0.0
C485 C 0.46582 0.77528 0.05546 0.0
C486 C 0.55339 0.77137 0.98061 0.0
C487 C 0.5054 0.73045 0.02135 0.0
H488 H 0.45503 0.81059 0.06149 0.0
H489 H 0.48197 0.83315 0.03972 0.0
H490 H 0.5518 0.83012 0.98964 0.0
H491 H 0.5724 0.80543 0.97016 0.0
H492 H 0.5615 0.73596 0.97212 0.0
H493 H 0.5352 0.71341 0.99433 0.0
H494 H 0.47189 0.71628 0.05024 0.0
H495 H 0.45024 0.7409 0.06879 0.0
H496 H 0.45299 0.74643 0.97139 0.0
H497 H 0.46533 0.80149 0.96326 0.0
H498 H 0.56208 0.74446 0.06825 0.0
H499 H 0.55993 0.79987 0.07119 0.0
C500 C 0.81774 0.98867 0.55579 0.0
C501 C 0.83872 0.98282 0.56266 0.0
C502 C 0.85617 0.99182 0.55197 0.0
C503 C 0.8449 0.00249 0.53915 0.0
N504 N 0.82131 0.00111 0.54121 0.0
Co505 Co 0.79823 0.01292 0.52418 0.0
N506 N 0.8239 0.02586 0.5081 0.0
C507 C 0.84713 0.02547 0.51109 0.0
C508 C 0.86039 0.03709 0.49925 0.0
C509 C 0.8447 0.04567 0.48825 0.0
C510 C 0.82264 0.03859 0.49385 0.0
N511 N 0.77519 0.02388 0.50648 0.0
C512 C 0.77872 0.03558 0.49117 0.0
C513 C 0.75795 0.03907 0.48204 0.0
C514 C 0.74059 0.02969 0.49242 0.0
C515 C 0.75172 0.02087 0.50705 0.0
N516 N 0.77249 0.00083 0.54092 0.0
C517 C 0.74921 0.00267 0.53934 0.0
C518 C 0.73583 0.99297 0.55322 0.0
C519 C 0.75149 0.98432 0.56423 0.0
C520 C 0.77358 0.98917 0.55627 0.0
N521 N 0.79721 0.0327 0.54208 0.0
C522 C 0.79629 0.06192 0.5657 0.0
C523 C 0.77647 0.05635 0.55589 0.0
C524 C 0.77721 0.04172 0.54443 0.0
C525 C 0.81647 0.05249 0.56383 0.0
C526 C 0.81661 0.03811 0.5519 0.0
N527 N 0.79922 0.99319 0.50621 0.0
C528 C 0.77933 0.96985 0.48985 0.0
C529 C 0.80024 0.9652 0.48058 0.0
C530 C 0.82071 0.97472 0.48453 0.0
C531 C 0.81983 0.98853 0.49732 0.0
C532 C 0.7792 0.98376 0.50242 0.0
H533 H 0.83604 0.99525 0.49974 0.0
H534 H 0.76263 0.98657 0.50892 0.0
H535 H 0.7614 0.03804 0.53753 0.0
H536 H 0.83271 0.0317 0.55071 0.0
C537 C 0.85592 0.0142 0.52531 0.0
C538 C 0.79491 0.98161 0.56305 0.0
C539 C 0.80095 0.04475 0.48584 0.0
C540 C 0.74047 0.01156 0.52301 0.0
H541 H 0.84118 0.97291 0.57403 0.0
H542 H 0.87484 0.99059 0.55325 0.0
H543 H 0.87919 0.03935 0.49899 0.0
H544 H 0.84912 0.0562 0.47766 0.0
H545 H 0.75551 0.04799 0.46962 0.0
H546 H 0.72198 0.02988 0.49011 0.0
H547 H 0.71693 0.99173 0.5546 0.0
H548 H 0.74714 0.97505 0.57633 0.0
H549 H 0.76034 0.06316 0.55722 0.0
H550 H 0.83224 0.05643 0.57119 0.0
H551 H 0.76304 0.96269 0.48763 0.0
H552 H 0.83735 0.97173 0.47759 0.0
C553 C 0.47853 0.26365 0.05119 0.0
C554 C 0.46918 0.27928 0.05612 0.0
C555 C 0.48144 0.29188 0.045 0.0
C556 C 0.49735 0.28325 0.03384 0.0
N557 N 0.4958 0.26588 0.03696 0.0
Co558 Co 0.51504 0.24837 0.02346 0.0
N559 N 0.53502 0.26701 0.009 0.0
C560 C 0.5337 0.28431 0.01081 0.0
C561 C 0.54973 0.29385 0.99895 0.0
C562 C 0.5619 0.28196 0.98882 0.0
C563 C 0.5525 0.2658 0.99511 0.0
N564 N 0.53375 0.23085 0.00939 0.0
C565 C 0.55074 0.23312 0.99491 0.0
C566 C 0.55841 0.21745 0.98835 0.0
C567 C 0.54554 0.20479 0.99885 0.0
C568 C 0.53083 0.21343 0.01114 0.0
N569 N 0.49563 0.22974 0.03857 0.0
C570 C 0.49787 0.21245 0.03761 0.0
C571 C 0.48353 0.20291 0.05089 0.0
C572 C 0.47165 0.21479 0.06123 0.0
C573 C 0.47929 0.23099 0.05346 0.0
N574 N 0.4929 0.24815 0.00139 0.0
C575 C 0.46306 0.24782 0.96891 0.0
C576 C 0.46737 0.23259 0.9797 0.0
C577 C 0.48229 0.23303 0.99567 0.0
C578 C 0.47378 0.26322 0.97487 0.0
C579 C 0.4883 0.26312 0.99105 0.0
N580 N 0.53712 0.24859 0.0455 0.0
C581 C 0.56083 0.23341 0.06885 0.0
C582 C 0.56655 0.24878 0.07815 0.0
C583 C 0.55763 0.26409 0.07055 0.0
C584 C 0.5431 0.26371 0.05437 0.0
C585 C 0.54625 0.23361 0.05267 0.0
H586 H 0.53678 0.2758 0.04941 0.0
H587 H 0.54239 0.22146 0.04637 0.0
H588 H 0.48503 0.22095 0.00306 0.0
H589 H 0.49578 0.27533 0.99472 0.0
C590 C 0.51556 0.29118 0.02204 0.0
C591 C 0.47136 0.2472 0.06125 0.0
C592 C 0.55969 0.24978 0.98653 0.0
C593 C 0.51416 0.20558 0.0245 0.0
H594 H 0.45537 0.2814 0.06704 0.0
H595 H 0.47957 0.30571 0.04556 0.0
H596 H 0.5517 0.30779 0.99727 0.0
H597 H 0.57566 0.28487 0.97764 0.0
H598 H 0.57174 0.21541 0.97697 0.0
H599 H 0.5466 0.19095 0.99753 0.0
H600 H 0.48233 0.18899 0.05316 0.0
H601 H 0.4592 0.21179 0.07341 0.0
H602 H 0.45923 0.22032 0.97596 0.0
H603 H 0.47141 0.27538 0.96688 0.0
H604 H 0.56714 0.22117 0.07427 0.0
H605 H 0.5619 0.27639 0.07699 0.0
H606 H 0.18873 0.33138 0.29641 0.0
H607 H 0.16436 0.35621 0.30102 0.0
H608 H 0.18811 0.36062 0.36073 0.0
H609 H 0.21235 0.33557 0.35626 0.0
H610 H 0.14247 0.36463 0.36011 0.0
H611 H 0.20913 0.38863 0.32279 0.0
H612 H 0.239 0.39093 0.29547 0.0
H613 H 0.18539 0.39781 0.25326 0.0
H614 H 0.15515 0.39531 0.28031 0.0
H615 H 0.09918 0.44994 0.36969 0.0
H616 H 0.12502 0.42558 0.36779 0.0
H617 H 0.09829 0.41338 0.31075 0.0
H618 H 0.07187 0.43726 0.31276 0.0
H619 H 0.14721 0.41439 0.31147 0.0
H620 H 0.08062 0.3892 0.34959 0.0
H621 H 0.05144 0.38739 0.37744 0.0
H622 H 0.10638 0.38366 0.41895 0.0
H623 H 0.13594 0.3857 0.39132 0.0
C624 C 0.1889 0.33773 0.31047 0.0
C625 C 0.20257 0.33162 0.32593 0.0
C626 C 0.17498 0.35192 0.31309 0.0
C627 C 0.1747 0.36047 0.33111 0.0
C628 C 0.18809 0.35425 0.34668 0.0
C629 C 0.2019 0.33994 0.34412 0.0
C630 C 0.16024 0.37578 0.33368 0.0
C631 C 0.14379 0.37564 0.34965 0.0
C632 C 0.16171 0.39006 0.3199 0.0
C633 C 0.17986 0.39163 0.30358 0.0
C634 C 0.20369 0.39051 0.30767 0.0
C635 C 0.22069 0.39187 0.29223 0.0
C636 C 0.21409 0.39447 0.27263 0.0
C637 C 0.19047 0.39577 0.26844 0.0
C638 C 0.1734 0.3944 0.28383 0.0
C639 C 0.09854 0.44195 0.35686 0.0
C640 C 0.08344 0.44563 0.34135 0.0
C641 C 0.11341 0.42809 0.35576 0.0
C642 C 0.11352 0.4177 0.33913 0.0
C643 C 0.09856 0.42133 0.32365 0.0
C644 C 0.08356 0.43506 0.32479 0.0
C645 C 0.12935 0.40309 0.33771 0.0
C646 C 0.14605 0.40341 0.32197 0.0
C647 C 0.12825 0.38908 0.35179 0.0
C648 C 0.1105 0.3878 0.3684 0.0
C649 C 0.0865 0.38816 0.36466 0.0
C650 C 0.06988 0.38706 0.38041 0.0
C651 C 0.07705 0.38547 0.39996 0.0
C652 C 0.10086 0.38492 0.4038 0.0
C653 C 0.11754 0.38604 0.3881 0.0
H654 H 0.06417 0.38461 0.41213 0.0
H655 H 0.22728 0.39553 0.2607 0.0
H656 H 0.20966 0.67504 0.68732 0.0
H657 H 0.18499 0.64901 0.68277 0.0
H658 H 0.13878 0.66318 0.73099 0.0
H659 H 0.164 0.68879 0.73605 0.0
H660 H 0.14448 0.63077 0.73442 0.0
H661 H 0.12553 0.66843 0.68016 0.0
H662 H 0.13303 0.68777 0.65057 0.0
H663 H 0.16296 0.6462 0.6192 0.0
H664 H 0.15593 0.62667 0.64871 0.0
H665 H 0.04561 0.57759 0.71081 0.0
H666 H 0.07125 0.60362 0.71291 0.0
H667 H 0.12588 0.57891 0.68018 0.0
H668 H 0.10048 0.55262 0.67862 0.0
H669 H 0.116 0.61595 0.66822 0.0
H670 H 0.13282 0.57843 0.72457 0.0
H671 H 0.12106 0.55998 0.75408 0.0
H672 H 0.09049 0.60328 0.78163 0.0
H673 H 0.10167 0.62192 0.75209 0.0
C674 C 0.1942 0.67256 0.69688 0.0
C675 C 0.18867 0.68388 0.712 0.0
C676 C 0.18004 0.65775 0.69423 0.0
C677 C 0.15977 0.65424 0.70632 0.0
C678 C 0.15432 0.66556 0.72148 0.0
C679 C 0.1687 0.68019 0.72436 0.0
C680 C 0.14438 0.63867 0.7034 0.0
C681 C 0.13809 0.6277 0.71995 0.0
C682 C 0.13618 0.63444 0.6845 0.0
C683 C 0.14043 0.64614 0.66672 0.0
C684 C 0.13388 0.66345 0.667 0.0
C685 C 0.13802 0.67444 0.65024 0.0
C686 C 0.14852 0.66823 0.63304 0.0
C687 C 0.15486 0.651 0.63255 0.0
C688 C 0.15078 0.63996 0.64929 0.0
C689 C 0.06306 0.57782 0.70398 0.0
C690 C 0.07117 0.56326 0.69448 0.0
C691 C 0.07761 0.59263 0.70515 0.0
C692 C 0.10037 0.59311 0.69667 0.0
C693 C 0.10829 0.57875 0.68668 0.0
C694 C 0.09386 0.56382 0.68581 0.0
C695 C 0.11626 0.60832 0.69918 0.0
C696 C 0.12256 0.61913 0.68259 0.0
C697 C 0.12409 0.61262 0.71808 0.0
C698 C 0.11789 0.60153 0.73605 0.0
C699 C 0.12344 0.58399 0.73686 0.0
C700 C 0.11689 0.5735 0.7536 0.0
C701 C 0.10499 0.58044 0.7697 0.0
C702 C 0.09969 0.59791 0.76913 0.0
C703 C 0.10614 0.60845 0.7524 0.0
H704 H 0.09992 0.57229 0.78264 0.0
H705 H 0.1517 0.67675 0.62007 0.0
H706 H 0.81814 0.67937 0.35814 0.0
H707 H 0.84163 0.65397 0.36339 0.0
H708 H 0.86857 0.6595 0.30281 0.0
H709 H 0.8449 0.6847 0.29743 0.0
H710 H 0.85733 0.62694 0.31158 0.0
H711 H 0.9011 0.67203 0.34283 0.0
H712 H 0.90729 0.69566 0.36589 0.0
H713 H 0.88976 0.66065 0.41549 0.0
H714 H 0.88315 0.63684 0.39268 0.0
H715 H 0.95863 0.57817 0.31532 0.0
H716 H 0.93246 0.60223 0.31381 0.0
H717 H 0.90207 0.5864 0.37132 0.0
H718 H 0.92771 0.56183 0.37274 0.0
H719 H 0.91309 0.62279 0.36611 0.0
H720 H 0.8718 0.57724 0.33373 0.0
H721 H 0.86739 0.55402 0.30989 0.0
H722 H 0.88215 0.59073 0.26139 0.0
H723 H 0.88701 0.61414 0.28497 0.0
C724 C 0.82918 0.6752 0.34599 0.0
C725 C 0.82969 0.68401 0.32738 0.0
C726 C 0.84261 0.6607 0.34901 0.0
C727 C 0.85707 0.65493 0.33355 0.0
C728 C 0.8575 0.66368 0.31494 0.0
C729 C 0.84394 0.67805 0.31187 0.0
C730 C 0.87166 0.63969 0.3366 0.0
C731 C 0.86967 0.62614 0.32339 0.0
C732 C 0.88739 0.63842 0.3523 0.0
C733 C 0.89138 0.6527 0.36604 0.0
C734 C 0.89838 0.6694 0.35864 0.0
C735 C 0.902 0.68282 0.37166 0.0
C736 C 0.89885 0.67967 0.39213 0.0
C737 C 0.89214 0.66307 0.39962 0.0
C738 C 0.88848 0.64961 0.38666 0.0
C739 C 0.94621 0.57962 0.32758 0.0
C740 C 0.94511 0.5679 0.34406 0.0
C741 C 0.93138 0.59347 0.32673 0.0
C742 C 0.91522 0.59596 0.34236 0.0
C743 C 0.91446 0.58465 0.35911 0.0
C744 C 0.92919 0.57067 0.35991 0.0
C745 C 0.89893 0.61028 0.34092 0.0
C746 C 0.90059 0.6236 0.35441 0.0
C747 C 0.88306 0.61145 0.32537 0.0
C748 C 0.87996 0.59742 0.31114 0.0
C749 C 0.87429 0.58034 0.31799 0.0
C750 C 0.87168 0.56715 0.30452 0.0
C751 C 0.87454 0.57089 0.28414 0.0
C752 C 0.87996 0.58785 0.27718 0.0
C753 C 0.88262 0.60109 0.29059 0.0
H754 H 0.87251 0.56066 0.27373 0.0
H755 H 0.90166 0.69007 0.40219 0.0
H756 H 0.80868 0.3604 0.72914 0.0
H757 H 0.83308 0.38689 0.72355 0.0
H758 H 0.89099 0.35678 0.70445 0.0
H759 H 0.86691 0.33019 0.7106 0.0
H760 H 0.90458 0.38083 0.72991 0.0
H761 H 0.86005 0.37953 0.67093 0.0
H762 H 0.82417 0.37769 0.65177 0.0
H763 H 0.80017 0.42373 0.67817 0.0
H764 H 0.83577 0.42572 0.6977 0.0
H765 H 0.97806 0.45002 0.69037 0.0
H766 H 0.95278 0.42362 0.69305 0.0
H767 H 0.89462 0.45362 0.71201 0.0
H768 H 0.91988 0.48009 0.7088 0.0
H769 H 0.88112 0.42963 0.68627 0.0
H770 H 0.92523 0.43084 0.74547 0.0
H771 H 0.96124 0.43303 0.76441 0.0
H772 H 0.98586 0.38725 0.73782 0.0
H773 H 0.95015 0.38494 0.71846 0.0
C774 C 0.82665 0.35941 0.72386 0.0
C775 C 0.83585 0.34318 0.7203 0.0
C776 C 0.8405 0.37457 0.72049 0.0
C777 C 0.86378 0.37382 0.71338 0.0
C778 C 0.87304 0.35765 0.70986 0.0
C779 C 0.8592 0.34248 0.71323 0.0
C780 C 0.87865 0.38986 0.71005 0.0
C781 C 0.89962 0.3914 0.72014 0.0
C782 C 0.87187 0.40382 0.6977 0.0
C783 C 0.85048 0.40268 0.68592 0.0
C784 C 0.84704 0.38919 0.67277 0.0
C785 C 0.82677 0.38813 0.66182 0.0
C786 C 0.80988 0.40056 0.66379 0.0
C787 C 0.81325 0.4141 0.67667 0.0
C788 C 0.83348 0.41521 0.68767 0.0
C789 C 0.95982 0.45089 0.69497 0.0
C790 C 0.95079 0.46688 0.69958 0.0
C791 C 0.94545 0.43587 0.69658 0.0
C792 C 0.92191 0.43663 0.70304 0.0
C793 C 0.91274 0.45275 0.70707 0.0
C794 C 0.9271 0.46779 0.70534 0.0
C795 C 0.90706 0.42056 0.70609 0.0
C796 C 0.88609 0.41904 0.696 0.0
C797 C 0.9138 0.40662 0.71849 0.0
C798 C 0.9351 0.4078 0.73038 0.0
C799 C 0.93839 0.4213 0.74357 0.0
C800 C 0.95874 0.42256 0.75439 0.0
C801 C 0.97585 0.41031 0.75229 0.0
C802 C 0.9726 0.39674 0.73942 0.0
C803 C 0.9523 0.39544 0.72852 0.0
H804 H 0.9916 0.41131 0.76067 0.0
H805 H 0.79419 0.39972 0.6553 0.0
H806 H 0.24516 0.19532 0.4009 0.0
H807 H 0.23954 0.16898 0.42186 0.0
H808 H 0.26041 0.13844 0.37249 0.0
H809 H 0.26485 0.16456 0.35118 0.0
H810 H 0.22396 0.12335 0.39175 0.0
H811 H 0.2979 0.14891 0.41042 0.0
H812 H 0.32429 0.17197 0.42232 0.0
H813 H 0.28347 0.17268 0.47693 0.0
H814 H 0.25664 0.14979 0.46524 0.0
H815 H 0.25054 0.04534 0.44265 0.0
H816 H 0.25311 0.07266 0.42288 0.0
H817 H 0.22859 0.09977 0.47394 0.0
H818 H 0.22641 0.07244 0.49373 0.0
H819 H 0.26513 0.11708 0.45498 0.0
H820 H 0.19228 0.09066 0.43707 0.0
H821 H 0.16627 0.06721 0.42558 0.0
H822 H 0.20498 0.06796 0.36982 0.0
H823 H 0.23149 0.09122 0.38111 0.0
C824 C 0.24828 0.18299 0.39442 0.0
C825 C 0.2556 0.1821 0.37435 0.0
C826 C 0.24531 0.16795 0.4065 0.0
C827 C 0.24991 0.15175 0.39884 0.0
C828 C 0.25687 0.1508 0.37876 0.0
C829 C 0.25966 0.16579 0.36665 0.0
C830 C 0.24748 0.13573 0.41164 0.0
C831 C 0.23318 0.12191 0.40546 0.0
C832 C 0.25898 0.13401 0.42982 0.0
C833 C 0.27511 0.14778 0.43686 0.0
C834 C 0.29444 0.15409 0.4249 0.0
C835 C 0.3095 0.16711 0.43162 0.0
C836 C 0.30552 0.17383 0.45034 0.0
C837 C 0.28651 0.16749 0.46241 0.0
C838 C 0.27138 0.15449 0.45575 0.0
C839 C 0.2458 0.05719 0.44955 0.0
C840 C 0.23836 0.05699 0.46958 0.0
C841 C 0.24714 0.07273 0.4383 0.0
C842 C 0.2408 0.08821 0.44691 0.0
C843 C 0.23354 0.08797 0.46703 0.0
C844 C 0.23224 0.07244 0.47827 0.0
C845 C 0.24188 0.10467 0.43493 0.0
C846 C 0.25586 0.11856 0.44129 0.0
C847 C 0.23008 0.10646 0.41693 0.0
C848 C 0.214 0.09259 0.41001 0.0
C849 C 0.19536 0.08574 0.42241 0.0
C850 C 0.18051 0.07249 0.41593 0.0
C851 C 0.18399 0.06608 0.39699 0.0
C852 C 0.20231 0.07293 0.38449 0.0
C853 C 0.21725 0.08616 0.39092 0.0
H854 H 0.17247 0.05582 0.392 0.0
H855 H 0.3172 0.1839 0.45552 0.0
H856 H 0.30375 0.75222 0.83195 0.0
H857 H 0.32835 0.75409 0.86072 0.0
H858 H 0.37867 0.78691 0.82646 0.0
H859 H 0.35459 0.78454 0.79736 0.0
H860 H 0.40013 0.76297 0.84757 0.0
H861 H 0.34129 0.80366 0.86088 0.0
H862 H 0.30115 0.81376 0.86495 0.0
H863 H 0.28676 0.77624 0.91271 0.0
H864 H 0.32674 0.76575 0.90874 0.0
H865 H 0.46457 0.79143 0.92915 0.0
H866 H 0.43968 0.79101 0.90043 0.0
H867 H 0.39028 0.75593 0.9326 0.0
H868 H 0.41483 0.75661 0.96159 0.0
H869 H 0.36859 0.78168 0.91248 0.0
H870 H 0.42767 0.74086 0.89855 0.0
H871 H 0.46807 0.73126 0.89448 0.0
H872 H 0.48222 0.76978 0.84775 0.0
H873 H 0.44197 0.77978 0.85173 0.0
C874 C 0.32015 0.75972 0.83047 0.0
C875 C 0.32718 0.76825 0.81234 0.0
C876 C 0.33407 0.76093 0.847 0.0
C877 C 0.35521 0.77083 0.84582 0.0
C878 C 0.36237 0.77927 0.82773 0.0
C879 C 0.34849 0.77802 0.81116 0.0
C880 C 0.36999 0.77217 0.86339 0.0
C881 C 0.39332 0.76731 0.86168 0.0
C882 C 0.36098 0.7775 0.88191 0.0
C883 C 0.33695 0.78381 0.88438 0.0
C884 C 0.32951 0.79747 0.87215 0.0
C885 C 0.3068 0.80328 0.87446 0.0
C886 C 0.29139 0.79562 0.88904 0.0
C887 C 0.2987 0.78215 0.90139 0.0
C888 C 0.3214 0.77628 0.89913 0.0
C889 C 0.44828 0.78378 0.9302 0.0
C890 C 0.44169 0.77402 0.94763 0.0
C891 C 0.43418 0.78344 0.91371 0.0
C892 C 0.41327 0.77329 0.91432 0.0
C893 C 0.4064 0.76379 0.93181 0.0
C894 C 0.42053 0.76409 0.94829 0.0
C895 C 0.39865 0.77244 0.89664 0.0
C896 C 0.37537 0.77739 0.89834 0.0
C897 C 0.40773 0.76726 0.87809 0.0
C898 C 0.43188 0.76118 0.87557 0.0
C899 C 0.43945 0.74737 0.88751 0.0
C900 C 0.46231 0.74184 0.8852 0.0
C901 C 0.47772 0.74994 0.8709 0.0
C902 C 0.47027 0.76354 0.85884 0.0
C903 C 0.44743 0.76914 0.8611 0.0
H904 H 0.49542 0.74564 0.86914 0.0
H905 H 0.27381 0.80014 0.89081 0.0
H906 H 0.81838 0.82723 0.37773 0.0
H907 H 0.82419 0.85227 0.39837 0.0
H908 H 0.75551 0.86915 0.38463 0.0
H909 H 0.74928 0.84396 0.36436 0.0
H910 H 0.78961 0.89563 0.38103 0.0
H911 H 0.76384 0.85005 0.42852 0.0
H912 H 0.7655 0.82137 0.44541 0.0
H913 H 0.83476 0.83428 0.46421 0.0
H914 H 0.83363 0.86297 0.44717 0.0
H915 H 0.76773 0.95658 0.45344 0.0
H916 H 0.76704 0.93186 0.4321 0.0
H917 H 0.83297 0.91629 0.45454 0.0
H918 H 0.83322 0.9406 0.47676 0.0
H919 H 0.80376 0.88919 0.45304 0.0
H920 H 0.82929 0.93521 0.40758 0.0
H921 H 0.82845 0.96389 0.39057 0.0
H922 H 0.76143 0.95036 0.36752 0.0
H923 H 0.7617 0.92167 0.38463 0.0
C924 C 0.80438 0.83614 0.37927 0.0
C925 C 0.78333 0.83354 0.3694 0.0
C926 C 0.80779 0.85049 0.391 0.0
C927 C 0.79023 0.8625 0.39308 0.0
C928 C 0.76931 0.86005 0.38313 0.0
C929 C 0.76583 0.84568 0.37149 0.0
C930 C 0.79358 0.87764 0.40565 0.0
C931 C 0.79248 0.89425 0.39682 0.0
C932 C 0.79808 0.87579 0.42609 0.0
C933 C 0.79875 0.85858 0.43638 0.0
C934 C 0.7795 0.84671 0.4361 0.0
C935 C 0.78033 0.83047 0.44574 0.0
C936 C 0.80025 0.82599 0.45583 0.0
C937 C 0.81936 0.83776 0.45636 0.0
C938 C 0.81863 0.85402 0.44673 0.0
C939 C 0.78202 0.94785 0.45399 0.0
C940 C 0.8005 0.95057 0.46688 0.0
C941 C 0.78175 0.93382 0.44156 0.0
C942 C 0.80012 0.92235 0.44149 0.0
C943 C 0.81866 0.92503 0.45427 0.0
C944 C 0.81888 0.93903 0.46683 0.0
C945 C 0.79949 0.90726 0.4285 0.0
C946 C 0.80111 0.89064 0.43723 0.0
C947 C 0.79564 0.9091 0.40791 0.0
C948 C 0.79544 0.92633 0.39752 0.0
C949 C 0.81429 0.93839 0.399 0.0
C950 C 0.81393 0.95464 0.38932 0.0
C951 C 0.79488 0.95896 0.37801 0.0
C952 C 0.77617 0.94701 0.37631 0.0
C953 C 0.77643 0.93074 0.38597 0.0
H954 H 0.79463 0.97155 0.37053 0.0
H955 H 0.80086 0.81341 0.46328 0.0
H956 H 0.66113 0.25135 0.81242 0.0
H957 H 0.6355 0.24942 0.84237 0.0
H958 H 0.69516 0.25878 0.87843 0.0
H959 H 0.7209 0.26062 0.84855 0.0
H960 H 0.66493 0.23181 0.89359 0.0
H961 H 0.66099 0.29077 0.86911 0.0
H962 H 0.65457 0.31389 0.84403 0.0
H963 H 0.58363 0.29489 0.83864 0.0
H964 H 0.58974 0.27148 0.86349 0.0
H965 H 0.60714 0.25332 0.98365 0.0
H966 H 0.63216 0.25413 0.95322 0.0
H967 H 0.57081 0.24832 0.91818 0.0
H968 H 0.54587 0.24769 0.94866 0.0
H969 H 0.6013 0.27293 0.90205 0.0
H970 H 0.60422 0.21457 0.92681 0.0
H971 H 0.60994 0.19126 0.9518 0.0
H972 H 0.68182 0.20833 0.95625 0.0
H973 H 0.67642 0.23197 0.93154 0.0
C974 C 0.66878 0.25286 0.82675 0.0
C975 C 0.69298 0.2562 0.82817 0.0
C976 C 0.65413 0.25185 0.84381 0.0
C977 C 0.66345 0.25409 0.86257 0.0
C978 C 0.68765 0.25706 0.86407 0.0
C979 C 0.70228 0.25822 0.84701 0.0
C980 C 0.64792 0.25357 0.88063 0.0
C981 C 0.65119 0.24092 0.89558 0.0
C982 C 0.62962 0.26518 0.88292 0.0
C983 C 0.62591 0.27926 0.86799 0.0
C984 C 0.64409 0.29142 0.86244 0.0
C985 C 0.64049 0.3046 0.8483 0.0
C986 C 0.61873 0.30583 0.8397 0.0
C987 C 0.60049 0.29391 0.84528 0.0
C988 C 0.60401 0.28069 0.8594 0.0
C989 C 0.59916 0.25224 0.96939 0.0
C990 C 0.57479 0.25043 0.96825 0.0
C991 C 0.61336 0.25264 0.95209 0.0
C992 C 0.60333 0.25111 0.93346 0.0
C993 C 0.57888 0.2495 0.93239 0.0
C994 C 0.5647 0.24909 0.9497 0.0
C995 C 0.61837 0.25122 0.9151 0.0
C996 C 0.61499 0.26378 0.90008 0.0
C997 C 0.63647 0.23945 0.9127 0.0
C998 C 0.63985 0.22516 0.92745 0.0
C999 C 0.6212 0.21345 0.93323 0.0
C1000 C 0.62439 0.20016 0.94734 0.0
C1001 C 0.64622 0.19833 0.95564 0.0
C1002 C 0.66492 0.20978 0.94983 0.0
C1003 C 0.6618 0.22312 0.93576 0.0
H1004 H 0.64866 0.18803 0.96655 0.0
H1005 H 0.61597 0.31605 0.82876 0.0
H1006 H 0.23207 0.851 0.68567 0.0
H1007 H 0.22622 0.87644 0.66414 0.0
H1008 H 0.24819 0.8484 0.61307 0.0
H1009 H 0.25437 0.82292 0.63459 0.0
H1010 H 0.26901 0.88107 0.61345 0.0
H1011 H 0.19183 0.85499 0.62062 0.0
H1012 H 0.15677 0.84226 0.63876 0.0
H1013 H 0.14727 0.89002 0.66791 0.0
H1014 H 0.18251 0.90298 0.65015 0.0
H1015 H 0.23492 0.9426 0.54147 0.0
H1016 H 0.23596 0.9153 0.56103 0.0
H1017 H 0.21436 0.94147 0.61366 0.0
H1018 H 0.2132 0.96877 0.59397 0.0
H1019 H 0.19253 0.90906 0.61151 0.0
H1020 H 0.27047 0.93472 0.60538 0.0
H1021 H 0.30526 0.94765 0.58701 0.0
H1022 H 0.31323 0.90067 0.55593 0.0
H1023 H 0.27824 0.88754 0.57393 0.0
C1024 C 0.23578 0.85029 0.66987 0.0
C1025 C 0.24368 0.83498 0.66181 0.0
C1026 C 0.23225 0.86477 0.65758 0.0
C1027 C 0.23657 0.86423 0.637 0.0
C1028 C 0.24468 0.84904 0.62891 0.0
C1029 C 0.24806 0.83449 0.64119 0.0
C1030 C 0.23299 0.87966 0.62401 0.0
C1031 C 0.2522 0.88704 0.61278 0.0
C1032 C 0.21117 0.88763 0.62349 0.0
C1033 C 0.18995 0.8799 0.63419 0.0
C1034 C 0.18239 0.86274 0.63103 0.0
C1035 C 0.16246 0.85549 0.64122 0.0
C1036 C 0.14984 0.86531 0.65452 0.0
C1037 C 0.15709 0.88242 0.65762 0.0
C1038 C 0.17703 0.88973 0.64748 0.0
C1039 C 0.23008 0.94236 0.55716 0.0
C1040 C 0.22393 0.95758 0.56635 0.0
C1041 C 0.23075 0.92687 0.56831 0.0
C1042 C 0.22548 0.92643 0.58882 0.0
C1043 C 0.21846 0.94155 0.59785 0.0
C1044 C 0.21781 0.95707 0.58668 0.0
C1045 C 0.22856 0.91046 0.60103 0.0
C1046 C 0.20929 0.90303 0.61212 0.0
C1047 C 0.25034 0.90243 0.60146 0.0
C1048 C 0.27161 0.9102 0.59086 0.0
C1049 C 0.27955 0.92718 0.59454 0.0
C1050 C 0.29932 0.93454 0.58421 0.0
C1051 C 0.31141 0.92501 0.57027 0.0
C1052 C 0.30382 0.90805 0.56671 0.0
C1053 C 0.28403 0.90064 0.57698 0.0
H1054 H 0.32669 0.93074 0.56227 0.0
H1055 H 0.1344 0.85967 0.66239 0.0
H1056 H 0.70698 0.79085 0.21427 0.0
H1057 H 0.68226 0.79248 0.18547 0.0
H1058 H 0.65023 0.74249 0.20243 0.0
H1059 H 0.67494 0.74076 0.23123 0.0
H1060 H 0.66095 0.74442 0.16373 0.0
H1061 H 0.62148 0.77977 0.20995 0.0
H1062 H 0.61768 0.80325 0.23346 0.0
H1063 H 0.638 0.84079 0.187 0.0
H1064 H 0.64225 0.8175 0.16326 0.0
H1065 H 0.56209 0.74795 0.10307 0.0
H1066 H 0.5873 0.74702 0.13151 0.0
H1067 H 0.6233 0.79436 0.10998 0.0
H1068 H 0.59863 0.79517 0.0811 0.0
H1069 H 0.61081 0.79409 0.15058 0.0
H1070 H 0.6496 0.75807 0.10433 0.0
H1071 H 0.65227 0.73423 0.08117 0.0
H1072 H 0.63179 0.69749 0.12843 0.0
H1073 H 0.62866 0.72116 0.15182 0.0
C1074 C 0.69451 0.78029 0.21197 0.0
C1075 C 0.69288 0.76569 0.22505 0.0
C1076 C 0.6804 0.78123 0.1955 0.0
C1077 C 0.66422 0.76768 0.19191 0.0
C1078 C 0.66263 0.75307 0.20489 0.0
C1079 C 0.67679 0.75209 0.22132 0.0
C1080 C 0.6492 0.76861 0.17443 0.0
C1081 C 0.64975 0.75518 0.16101 0.0
C1082 C 0.63496 0.78282 0.17065 0.0
C1083 C 0.63242 0.79687 0.18488 0.0
C1084 C 0.62534 0.79302 0.20479 0.0
C1085 C 0.62306 0.8063 0.21814 0.0
C1086 C 0.62766 0.8235 0.21174 0.0
C1087 C 0.63448 0.82746 0.19194 0.0
C1088 C 0.63681 0.81422 0.17853 0.0
C1089 C 0.57558 0.75806 0.10417 0.0
C1090 C 0.57839 0.77159 0.08968 0.0
C1091 C 0.58988 0.75754 0.12052 0.0
C1092 C 0.60724 0.77056 0.12275 0.0
C1093 C 0.60995 0.78422 0.10852 0.0
C1094 C 0.59576 0.78468 0.09207 0.0
C1095 C 0.62256 0.76989 0.13999 0.0
C1096 C 0.62204 0.78337 0.15334 0.0
C1097 C 0.63671 0.75567 0.14379 0.0
C1098 C 0.63868 0.7414 0.12978 0.0
C1099 C 0.64548 0.74492 0.10975 0.0
C1100 C 0.64711 0.73144 0.09659 0.0
C1101 C 0.64215 0.71436 0.10331 0.0
C1102 C 0.6356 0.71073 0.12323 0.0
C1103 C 0.63392 0.72417 0.13645 0.0
H1104 H 0.64342 0.70394 0.0931 0.0
H1105 H 0.62588 0.83377 0.2221 0.0
H1106 H 0.78817 0.1758 0.69958 0.0
H1107 H 0.79276 0.15141 0.67784 0.0
H1108 H 0.77475 0.18356 0.62755 0.0
H1109 H 0.76987 0.20797 0.64927 0.0
H1110 H 0.75131 0.15142 0.62928 0.0
H1111 H 0.83022 0.17453 0.63314 0.0
H1112 H 0.86533 0.18454 0.6503 0.0
H1113 H 0.87009 0.13419 0.67833 0.0
H1114 H 0.83479 0.12394 0.66154 0.0
H1115 H 0.7817 0.09379 0.55475 0.0
H1116 H 0.77973 0.11932 0.57501 0.0
H1117 H 0.80717 0.09043 0.62432 0.0
H1118 H 0.80996 0.06507 0.60378 0.0
H1119 H 0.82613 0.12151 0.62277 0.0
H1120 H 0.74727 0.09829 0.62058 0.0
H1121 H 0.71164 0.08773 0.60453 0.0
H1122 H 0.70585 0.13736 0.575 0.0
H1123 H 0.74165 0.14815 0.59068 0.0
C1124 C 0.78507 0.17763 0.68391 0.0
C1125 C 0.77868 0.19378 0.67611 0.0
C1126 C 0.78787 0.16375 0.67149 0.0
C1127 C 0.78429 0.16575 0.65107 0.0
C1128 C 0.77767 0.18179 0.64327 0.0
C1129 C 0.77504 0.19573 0.65565 0.0
C1130 C 0.78714 0.15101 0.63791 0.0
C1131 C 0.76774 0.14501 0.62761 0.0
C1132 C 0.80842 0.14241 0.63621 0.0
C1133 C 0.82973 0.14852 0.64623 0.0
C1134 C 0.83864 0.16563 0.64309 0.0
C1135 C 0.8586 0.17134 0.65272 0.0
C1136 C 0.8699 0.16002 0.66543 0.0
C1137 C 0.8613 0.14295 0.66849 0.0
C1138 C 0.84133 0.13718 0.65891 0.0
C1139 C 0.78731 0.09294 0.56992 0.0
C1140 C 0.7958 0.07747 0.5778 0.0
C1141 C 0.78612 0.10749 0.58151 0.0
C1142 C 0.79284 0.10671 0.60135 0.0
C1143 C 0.80183 0.09135 0.60908 0.0
C1144 C 0.8034 0.07687 0.59737 0.0
C1145 C 0.79024 0.12182 0.61412 0.0
C1146 C 0.80967 0.1279 0.62438 0.0
C1147 C 0.76889 0.13039 0.61596 0.0
C1148 C 0.74725 0.12398 0.60666 0.0
C1149 C 0.73848 0.10692 0.61057 0.0
C1150 C 0.71824 0.10089 0.60155 0.0
C1151 C 0.70652 0.11185 0.58872 0.0
C1152 C 0.71497 0.12888 0.58493 0.0
C1153 C 0.73521 0.13496 0.59389 0.0
H1154 H 0.69086 0.10716 0.58175 0.0
H1155 H 0.88535 0.16447 0.67288 0.0
H1156 H 0.32382 0.23387 0.21014 0.0
H1157 H 0.34828 0.23237 0.17985 0.0
H1158 H 0.39421 0.27319 0.20002 0.0
H1159 H 0.36931 0.27505 0.23011 0.0
H1160 H 0.38784 0.27857 0.16259 0.0
H1161 H 0.4088 0.22973 0.20198 0.0
H1162 H 0.40265 0.20289 0.22262 0.0
H1163 H 0.37198 0.1774 0.17373 0.0
H1164 H 0.37765 0.20418 0.15286 0.0
H1165 H 0.48384 0.26081 0.09605 0.0
H1166 H 0.45986 0.26203 0.12688 0.0
H1167 H 0.40308 0.23466 0.09952 0.0
H1168 H 0.42675 0.234 0.06842 0.0
H1169 H 0.41622 0.22235 0.14061 0.0
H1170 H 0.39641 0.2732 0.10168 0.0
H1171 H 0.40655 0.30003 0.08193 0.0
H1172 H 0.43964 0.3218 0.13202 0.0
H1173 H 0.4301 0.29493 0.15197 0.0
C1174 C 0.3392 0.24246 0.20812 0.0
C1175 C 0.34477 0.25451 0.22249 0.0
C1176 C 0.35321 0.24157 0.19085 0.0
C1177 C 0.37335 0.25245 0.18779 0.0
C1178 C 0.37878 0.26465 0.20204 0.0
C1179 C 0.36457 0.26571 0.21921 0.0
C1180 C 0.3886 0.25119 0.16964 0.0
C1181 C 0.39425 0.26629 0.15798 0.0
C1182 C 0.39689 0.23516 0.16343 0.0
C1183 C 0.39344 0.21902 0.17592 0.0
C1184 C 0.40057 0.21844 0.19567 0.0
C1185 C 0.3972 0.20323 0.2074 0.0
C1186 C 0.38687 0.18846 0.1995 0.0
C1187 C 0.37995 0.18886 0.17983 0.0
C1188 C 0.38325 0.20405 0.16804 0.0
C1189 C 0.46624 0.25505 0.09672 0.0
C1190 C 0.45708 0.24719 0.08007 0.0
C1191 C 0.45263 0.25573 0.11425 0.0
C1192 C 0.42979 0.24839 0.1154 0.0
C1193 C 0.42074 0.24028 0.09888 0.0
C1194 C 0.4342 0.2399 0.08121 0.0
C1195 C 0.41512 0.24963 0.13371 0.0
C1196 C 0.40969 0.23456 0.14535 0.0
C1197 C 0.40744 0.2657 0.1401 0.0
C1198 C 0.41276 0.28199 0.12825 0.0
C1199 C 0.40603 0.28365 0.10843 0.0
C1200 C 0.41164 0.29887 0.09721 0.0
C1201 C 0.42379 0.3126 0.1057 0.0
C1202 C 0.43027 0.31115 0.12545 0.0
C1203 C 0.42475 0.29593 0.13673 0.0
H1204 H 0.42812 0.32437 0.09698 0.0
H1205 H 0.38429 0.1767 0.20861 0.0
H1206 H 0.79744 0.67379 0.70725 0.0
H1207 H 0.82157 0.64884 0.70185 0.0
H1208 H 0.88277 0.67887 0.71794 0.0
H1209 H 0.85881 0.70395 0.72267 0.0
H1210 H 0.89361 0.66109 0.68765 0.0
H1211 H 0.85324 0.64765 0.75025 0.0
H1212 H 0.81901 0.64305 0.77335 0.0
H1213 H 0.79259 0.60199 0.73813 0.0
H1214 H 0.82653 0.6065 0.71466 0.0
H1215 H 0.96809 0.59297 0.71312 0.0
H1216 H 0.94189 0.61718 0.71461 0.0
H1217 H 0.88892 0.58707 0.68567 0.0
H1218 H 0.91516 0.56279 0.68405 0.0
H1219 H 0.87285 0.60393 0.7206 0.0
H1220 H 0.9162 0.61706 0.65919 0.0
H1221 H 0.95198 0.62169 0.63791 0.0
H1222 H 0.97457 0.66368 0.67351 0.0
H1223 H 0.93906 0.65913 0.69519 0.0
C1224 C 0.81604 0.675 0.70966 0.0
C1225 C 0.82629 0.69075 0.7154 0.0
C1226 C 0.82981 0.66075 0.70663 0.0
C1227 C 0.85397 0.66187 0.70977 0.0
C1228 C 0.8642 0.67767 0.71538 0.0
C1229 C 0.85052 0.69199 0.7181 0.0
C1230 C 0.86868 0.64666 0.70718 0.0
C1231 C 0.88915 0.64866 0.69505 0.0
C1232 C 0.86269 0.6303 0.71648 0.0
C1233 C 0.84229 0.62754 0.73058 0.0
C1234 C 0.84003 0.63773 0.74735 0.0
C1235 C 0.8207 0.63512 0.76052 0.0
C1236 C 0.8036 0.62227 0.75718 0.0
C1237 C 0.80583 0.61196 0.74068 0.0
C1238 C 0.82511 0.61453 0.72744 0.0
C1239 C 0.95085 0.59152 0.7071 0.0
C1240 C 0.94361 0.57604 0.69848 0.0
C1241 C 0.93598 0.60536 0.70787 0.0
C1242 C 0.91356 0.6039 0.70017 0.0
C1243 C 0.9062 0.58842 0.69165 0.0
C1244 C 0.92121 0.57464 0.69064 0.0
C1245 C 0.89774 0.61851 0.70132 0.0
C1246 C 0.87713 0.61637 0.71315 0.0
C1247 C 0.90376 0.63481 0.69202 0.0
C1248 C 0.92506 0.63765 0.67892 0.0
C1249 C 0.92888 0.62719 0.66258 0.0
C1250 C 0.9491 0.62982 0.65043 0.0
C1251 C 0.96557 0.64295 0.65438 0.0
C1252 C 0.96181 0.6535 0.67047 0.0
C1253 C 0.94163 0.65092 0.68269 0.0
H1254 H 0.98121 0.64496 0.64496 0.0
H1255 H 0.78865 0.62026 0.7674 0.0
H1256 H 0.87086 0.32322 0.33331 0.0
H1257 H 0.89409 0.34977 0.33826 0.0
H1258 H 0.8341 0.37999 0.32639 0.0
H1259 H 0.81064 0.35344 0.32155 0.0
H1260 H 0.87329 0.3934 0.30684 0.0
H1261 H 0.85138 0.3738 0.37345 0.0
H1262 H 0.84731 0.35279 0.40184 0.0
H1263 H 0.92191 0.34861 0.40171 0.0
H1264 H 0.92641 0.36942 0.37312 0.0
H1265 H 0.92294 0.47261 0.33843 0.0
H1266 H 0.89682 0.44676 0.33671 0.0
H1267 H 0.95468 0.41436 0.34891 0.0
H1268 H 0.98061 0.44027 0.35094 0.0
H1269 H 0.91529 0.40254 0.36899 0.0
H1270 H 0.93736 0.42126 0.30205 0.0
H1271 H 0.94196 0.44234 0.27378 0.0
H1272 H 0.86758 0.44791 0.27427 0.0
H1273 H 0.86258 0.42708 0.30282 0.0
C1274 C 0.86252 0.3355 0.33195 0.0
C1275 C 0.83886 0.33621 0.32713 0.0
C1276 C 0.87584 0.35066 0.33476 0.0
C1277 C 0.86574 0.36684 0.33292 0.0
C1278 C 0.84222 0.36763 0.32788 0.0
C1279 C 0.82888 0.35246 0.32505 0.0
C1280 C 0.87985 0.38293 0.33605 0.0
C1281 C 0.88217 0.39553 0.32054 0.0
C1282 C 0.89186 0.3855 0.35377 0.0
C1283 C 0.88921 0.37306 0.37103 0.0
C1284 C 0.86691 0.3683 0.37938 0.0
C1285 C 0.86453 0.35644 0.39552 0.0
C1286 C 0.88434 0.34934 0.40354 0.0
C1287 C 0.90658 0.35411 0.39546 0.0
C1288 C 0.90906 0.36595 0.37931 0.0
C1289 C 0.92987 0.45992 0.3409 0.0
C1290 C 0.95359 0.45821 0.34472 0.0
C1291 C 0.91506 0.44522 0.33986 0.0
C1292 C 0.9239 0.42864 0.34242 0.0
C1293 C 0.94753 0.42702 0.34687 0.0
C1294 C 0.96229 0.44173 0.34798 0.0
C1295 C 0.90877 0.41297 0.33977 0.0
C1296 C 0.90629 0.40044 0.35534 0.0
C1297 C 0.89669 0.41042 0.32208 0.0
C1298 C 0.89962 0.42273 0.3047 0.0
C1299 C 0.922 0.42706 0.29622 0.0
C1300 C 0.92468 0.43896 0.28014 0.0
C1301 C 0.90508 0.44649 0.27226 0.0
C1302 C 0.88275 0.44209 0.28041 0.0
C1303 C 0.87998 0.43023 0.29654 0.0
H1304 H 0.90719 0.4557 0.25981 0.0
H1305 H 0.88246 0.34016 0.41604 0.0
H1306 H 0.2234 0.35384 0.70821 0.0
H1307 H 0.20014 0.37918 0.70191 0.0
H1308 H 0.13682 0.34828 0.71585 0.0
H1309 H 0.16002 0.32284 0.7216 0.0
H1310 H 0.13049 0.36799 0.68483 0.0
H1311 H 0.16131 0.37729 0.74896 0.0
H1312 H 0.19187 0.38029 0.77363 0.0
H1313 H 0.22372 0.42356 0.73973 0.0
H1314 H 0.19351 0.42067 0.7147 0.0
H1315 H 0.05311 0.43457 0.70925 0.0
H1316 H 0.07897 0.41012 0.71053 0.0
H1317 H 0.13486 0.44213 0.68226 0.0
H1318 H 0.10887 0.46664 0.6807 0.0
H1319 H 0.14645 0.423 0.7184 0.0
H1320 H 0.11215 0.41403 0.6554 0.0
H1321 H 0.07959 0.41086 0.63264 0.0
H1322 H 0.05196 0.36647 0.66708 0.0
H1323 H 0.08418 0.36954 0.69023 0.0
C1324 C 0.20452 0.35251 0.71001 0.0
C1325 C 0.19349 0.33642 0.71545 0.0
C1326 C 0.19124 0.36699 0.70644 0.0
C1327 C 0.16672 0.36571 0.70866 0.0
C1328 C 0.1557 0.3496 0.714 0.0
C1329 C 0.16895 0.33508 0.7173 0.0
C1330 C 0.15246 0.38111 0.70536 0.0
C1331 C 0.13388 0.37994 0.69234 0.0
C1332 C 0.15711 0.39687 0.71483 0.0
C1333 C 0.1753 0.39864 0.72985 0.0
C1334 C 0.17494 0.38736 0.74668 0.0
C1335 C 0.19218 0.38905 0.76075 0.0
C1336 C 0.20977 0.40207 0.75822 0.0
C1337 C 0.21011 0.41346 0.74165 0.0
C1338 C 0.19293 0.41181 0.72753 0.0
C1339 C 0.07088 0.43634 0.70322 0.0
C1340 C 0.07907 0.45244 0.69489 0.0
C1341 C 0.08557 0.42239 0.7039 0.0
C1342 C 0.10875 0.42436 0.69645 0.0
C1343 C 0.11698 0.4404 0.68804 0.0
C1344 C 0.10215 0.45431 0.68707 0.0
C1345 C 0.1245 0.40973 0.69808 0.0
C1346 C 0.14329 0.41106 0.71079 0.0
C1347 C 0.11981 0.39404 0.6886 0.0
C1348 C 0.10047 0.39211 0.67465 0.0
C1349 C 0.09902 0.40368 0.65822 0.0
C1350 C 0.08065 0.40188 0.64523 0.0
C1351 C 0.06368 0.38849 0.64844 0.0
C1352 C 0.0651 0.37685 0.66463 0.0
C1353 C 0.08343 0.3786 0.67767 0.0
H1354 H 0.04947 0.38712 0.63836 0.0
H1355 H 0.2231 0.40337 0.76913 0.0
H1356 H 0.18945 0.67837 0.35329 0.0
H1357 H 0.16507 0.65187 0.35892 0.0
H1358 H 0.16407 0.64511 0.29572 0.0
H1359 H 0.18752 0.67196 0.28994 0.0
H1360 H 0.12193 0.63897 0.31168 0.0
H1361 H 0.19907 0.62114 0.32576 0.0
H1362 H 0.23695 0.62226 0.34211 0.0
H1363 H 0.20162 0.61327 0.399 0.0
H1364 H 0.16349 0.61233 0.383 0.0
H1365 H 0.10457 0.54076 0.33329 0.0
H1366 H 0.13072 0.56678 0.33047 0.0
H1367 H 0.07434 0.59744 0.35173 0.0
H1368 H 0.0482 0.57145 0.35428 0.0
H1369 H 0.14602 0.59093 0.35616 0.0
H1370 H 0.07664 0.63544 0.32408 0.0
H1371 H 0.04026 0.63281 0.30562 0.0
H1372 H 0.06344 0.58609 0.28023 0.0
H1373 H 0.10011 0.58862 0.29822 0.0
C1374 C 0.18387 0.67133 0.34058 0.0
C1375 C 0.19052 0.67727 0.32116 0.0
C1376 C 0.17013 0.65608 0.34383 0.0
C1377 C 0.16297 0.64639 0.32775 0.0
C1378 C 0.16945 0.65235 0.30836 0.0
C1379 C 0.18307 0.66762 0.30509 0.0
C1380 C 0.14851 0.63013 0.33105 0.0
C1381 C 0.12721 0.6285 0.32144 0.0
C1382 C 0.15552 0.61633 0.34355 0.0
C1383 C 0.17842 0.61683 0.3532 0.0
C1384 C 0.19937 0.61953 0.34177 0.0
C1385 C 0.22089 0.62011 0.35097 0.0
C1386 C 0.22169 0.61788 0.37159 0.0
C1387 C 0.20097 0.61502 0.38304 0.0
C1388 C 0.17941 0.61445 0.37391 0.0
C1389 C 0.09799 0.55308 0.33753 0.0
C1390 C 0.07453 0.55432 0.34384 0.0
C1391 C 0.11286 0.56786 0.336 0.0
C1392 C 0.10438 0.58404 0.3407 0.0
C1393 C 0.08113 0.58511 0.34782 0.0
C1394 C 0.06627 0.57033 0.34932 0.0
C1395 C 0.1194 0.59994 0.337 0.0
C1396 C 0.14075 0.60148 0.3465 0.0
C1397 C 0.11271 0.6135 0.32405 0.0
C1398 C 0.09101 0.61215 0.31267 0.0
C1399 C 0.07403 0.62467 0.31446 0.0
C1400 C 0.05335 0.62319 0.30408 0.0
C1401 C 0.04951 0.60927 0.29181 0.0
C1402 C 0.0664 0.59685 0.28978 0.0
C1403 C 0.08713 0.5983 0.30007 0.0
H1404 H 0.03347 0.60812 0.28384 0.0
H1405 H 0.23836 0.61833 0.37869 0.0
H1406 H 0.78604 0.85826 0.6976 0.0
H1407 H 0.79081 0.88483 0.67689 0.0
H1408 H 0.77273 0.85632 0.62538 0.0
H1409 H 0.76827 0.82966 0.64601 0.0
H1410 H 0.80846 0.87838 0.61653 0.0
H1411 H 0.73299 0.8816 0.64938 0.0
H1412 H 0.70504 0.88116 0.67809 0.0
H1413 H 0.74222 0.9247 0.70158 0.0
H1414 H 0.77059 0.92525 0.67312 0.0
H1415 H 0.78195 0.94923 0.55273 0.0
H1416 H 0.77914 0.92279 0.57404 0.0
H1417 H 0.80136 0.95217 0.62375 0.0
H1418 H 0.80384 0.97866 0.60239 0.0
H1419 H 0.76437 0.93 0.63382 0.0
H1420 H 0.83915 0.92717 0.59986 0.0
H1421 H 0.86616 0.92772 0.57052 0.0
H1422 H 0.82934 0.88337 0.54851 0.0
H1423 H 0.80185 0.88272 0.57757 0.0
C1424 C 0.78301 0.85769 0.68187 0.0
C1425 C 0.77665 0.84192 0.67343 0.0
C1426 C 0.78573 0.87287 0.67005 0.0
C1427 C 0.78178 0.87262 0.64963 0.0
C1428 C 0.77586 0.85682 0.6411 0.0
C1429 C 0.77334 0.8416 0.65289 0.0
C1430 C 0.78364 0.88884 0.63717 0.0
C1431 C 0.7986 0.8896 0.62018 0.0
C1432 C 0.77115 0.9036 0.64216 0.0
C1433 C 0.75404 0.90336 0.65922 0.0
C1434 C 0.7353 0.891 0.66074 0.0
C1435 C 0.71937 0.89075 0.67696 0.0
C1436 C 0.72189 0.90287 0.69168 0.0
C1437 C 0.74031 0.91531 0.69018 0.0
C1438 C 0.75631 0.91561 0.674 0.0
C1439 C 0.78621 0.94993 0.56822 0.0
C1440 C 0.79326 0.96576 0.57604 0.0
C1441 C 0.7847 0.93489 0.58033 0.0
C1442 C 0.79034 0.9355 0.60041 0.0
C1443 C 0.79702 0.95143 0.60828 0.0
C1444 C 0.79852 0.96648 0.59615 0.0
C1445 C 0.78911 0.9195 0.61319 0.0
C1446 C 0.77427 0.91879 0.63022 0.0
C1447 C 0.80161 0.90476 0.60818 0.0
C1448 C 0.81832 0.90499 0.59082 0.0
C1449 C 0.83671 0.9176 0.5887 0.0
C1450 C 0.85212 0.91792 0.57212 0.0
C1451 C 0.84944 0.90561 0.55764 0.0
C1452 C 0.83138 0.89291 0.55973 0.0
C1453 C 0.81589 0.89255 0.57626 0.0
H1454 H 0.86138 0.90588 0.54482 0.0
H1455 H 0.70953 0.90265 0.70422 0.0
H1456 H 0.67294 0.27299 0.24028 0.0
H1457 H 0.6484 0.27125 0.21132 0.0
H1458 H 0.68936 0.22999 0.18927 0.0
H1459 H 0.71405 0.23173 0.21815 0.0
H1460 H 0.6814 0.25561 0.16039 0.0
H1461 H 0.63743 0.2201 0.20938 0.0
H1462 H 0.61768 0.21328 0.24196 0.0
H1463 H 0.57121 0.2547 0.23231 0.0
H1464 H 0.59092 0.26194 0.19977 0.0
H1465 H 0.60556 0.23021 0.08467 0.0
H1466 H 0.62974 0.23027 0.11383 0.0
H1467 H 0.58592 0.26788 0.14037 0.0
H1468 H 0.56112 0.26738 0.11164 0.0
H1469 H 0.59564 0.2434 0.16708 0.0
H1470 H 0.63964 0.27962 0.11885 0.0
H1471 H 0.65943 0.28718 0.08645 0.0
H1472 H 0.70585 0.24552 0.0948 0.0
H1473 H 0.68611 0.23755 0.12715 0.0
C1474 C 0.67673 0.26359 0.22923 0.0
C1475 C 0.69536 0.25247 0.23147 0.0
C1476 C 0.66264 0.26254 0.21277 0.0
C1477 C 0.667 0.25042 0.19824 0.0
C1478 C 0.68569 0.2394 0.20035 0.0
C1479 C 0.69966 0.24033 0.2169 0.0
C1480 C 0.65218 0.24939 0.18072 0.0
C1481 C 0.6627 0.2527 0.16179 0.0
C1482 C 0.62772 0.246 0.18267 0.0
C1483 C 0.61581 0.24167 0.20222 0.0
C1484 C 0.62314 0.22785 0.21428 0.0
C1485 C 0.61192 0.22389 0.23272 0.0
C1486 C 0.59325 0.23358 0.23922 0.0
C1487 C 0.58571 0.24723 0.22726 0.0
C1488 C 0.59688 0.25125 0.20881 0.0
C1489 C 0.60093 0.23838 0.09679 0.0
C1490 C 0.58145 0.24885 0.09577 0.0
C1491 C 0.61491 0.23852 0.11337 0.0
C1492 C 0.60982 0.24925 0.12918 0.0
C1493 C 0.59024 0.25956 0.12831 0.0
C1494 C 0.57622 0.25939 0.11178 0.0
C1495 C 0.62482 0.2497 0.14668 0.0
C1496 C 0.61435 0.24629 0.16563 0.0
C1497 C 0.64931 0.2531 0.14476 0.0
C1498 C 0.66123 0.25787 0.12532 0.0
C1499 C 0.65394 0.27198 0.1137 0.0
C1500 C 0.66517 0.27636 0.09536 0.0
C1501 C 0.68384 0.26681 0.08855 0.0
C1502 C 0.69136 0.25289 0.10008 0.0
C1503 C 0.68016 0.24844 0.11843 0.0
H1504 H 0.69252 0.27022 0.07435 0.0
H1505 H 0.58458 0.23049 0.25351 0.0
H1506 H 0.21149 0.18607 0.67556 0.0
H1507 H 0.20666 0.16112 0.65453 0.0
H1508 H 0.27977 0.16611 0.63652 0.0
H1509 H 0.28468 0.19116 0.65744 0.0
H1510 H 0.24959 0.16084 0.60481 0.0
H1511 H 0.26328 0.13618 0.67006 0.0
H1512 H 0.25548 0.13178 0.70612 0.0
H1513 H 0.18572 0.11253 0.69575 0.0
H1514 H 0.19301 0.11704 0.65962 0.0
H1515 H 0.26705 0.08056 0.56232 0.0
H1516 H 0.26879 0.10612 0.58223 0.0
H1517 H 0.19936 0.09313 0.60669 0.0
H1518 H 0.1981 0.06679 0.58784 0.0
H1519 H 0.22553 0.10313 0.63484 0.0
H1520 H 0.21104 0.12627 0.57015 0.0
H1521 H 0.21721 0.13103 0.53396 0.0
H1522 H 0.28561 0.15377 0.54258 0.0
H1523 H 0.27999 0.14891 0.57882 0.0
C1524 C 0.22648 0.18192 0.667 0.0
C1525 C 0.24848 0.19051 0.66816 0.0
C1526 C 0.22373 0.16763 0.65509 0.0
C1527 C 0.2429 0.16175 0.64408 0.0
C1528 C 0.26478 0.17047 0.64493 0.0
C1529 C 0.2676 0.18467 0.65698 0.0
C1530 C 0.24023 0.1463 0.63191 0.0
C1531 C 0.24457 0.14816 0.61134 0.0
C1532 C 0.23295 0.12993 0.64044 0.0
C1533 C 0.22861 0.12712 0.66215 0.0
C1534 C 0.24621 0.13114 0.67548 0.0
C1535 C 0.2419 0.1286 0.69593 0.0
C1536 C 0.2201 0.12192 0.70323 0.0
C1537 C 0.20259 0.11772 0.69008 0.0
C1538 C 0.20681 0.12026 0.66962 0.0
C1539 C 0.25223 0.08294 0.57213 0.0
C1540 C 0.23244 0.0715 0.57347 0.0
C1541 C 0.25312 0.09777 0.58329 0.0
C1542 C 0.23403 0.10176 0.5957 0.0
C1543 C 0.21425 0.09039 0.59712 0.0
C1544 C 0.21347 0.0754 0.58616 0.0
C1545 C 0.23504 0.11754 0.6076 0.0
C1546 C 0.23039 0.11578 0.62818 0.0
C1547 C 0.24175 0.13405 0.59901 0.0
C1548 C 0.24516 0.13709 0.57721 0.0
C1549 C 0.22746 0.13217 0.56433 0.0
C1550 C 0.23086 0.1349 0.5438 0.0
C1551 C 0.25181 0.14266 0.53597 0.0
C1552 C 0.26939 0.14774 0.54866 0.0
C1553 C 0.2661 0.14502 0.5692 0.0
H1554 H 0.25441 0.14476 0.52008 0.0
H1555 H 0.21679 0.11996 0.71906 0.0
H1556 H 0.36128 0.77625 0.22771 0.0
H1557 H 0.38643 0.77928 0.1976 0.0
H1558 H 0.33016 0.75867 0.16336 0.0
H1559 H 0.30501 0.75548 0.19346 0.0
H1560 H 0.3701 0.74446 0.15327 0.0
H1561 H 0.34523 0.80229 0.16218 0.0
H1562 H 0.33925 0.82887 0.18047 0.0
H1563 H 0.41335 0.83541 0.18736 0.0
H1564 H 0.41975 0.80873 0.16934 0.0
H1565 H 0.41896 0.76773 0.05779 0.0
H1566 H 0.39294 0.76713 0.0876 0.0
H1567 H 0.45092 0.78409 0.12232 0.0
H1568 H 0.47687 0.78472 0.09245 0.0
H1569 H 0.41026 0.80043 0.13202 0.0
H1570 H 0.43503 0.74264 0.12306 0.0
H1571 H 0.44108 0.71643 0.10414 0.0
H1572 H 0.36698 0.70993 0.09717 0.0
H1573 H 0.36052 0.73632 0.11574 0.0
C1574 C 0.35423 0.7725 0.21373 0.0
C1575 C 0.33115 0.76567 0.21293 0.0
C1576 C 0.3686 0.77423 0.19654 0.0
C1577 C 0.36008 0.7694 0.17818 0.0
C1578 C 0.33711 0.76247 0.17737 0.0
C1579 C 0.32277 0.76062 0.19457 0.0
C1580 C 0.37519 0.77137 0.15983 0.0
C1581 C 0.3786 0.75676 0.14848 0.0
C1582 C 0.38674 0.78732 0.15382 0.0
C1583 C 0.38294 0.80342 0.16457 0.0
C1584 C 0.36023 0.80933 0.16772 0.0
C1585 C 0.35677 0.82443 0.17802 0.0
C1586 C 0.3759 0.8338 0.18511 0.0
C1587 C 0.39855 0.82813 0.18187 0.0
C1588 C 0.4021 0.81303 0.1716 0.0
C1589 C 0.42596 0.77144 0.07181 0.0
C1590 C 0.44976 0.77614 0.07307 0.0
C1591 C 0.4112 0.77108 0.08876 0.0
C1592 C 0.4201 0.77537 0.10719 0.0
C1593 C 0.44375 0.78071 0.10825 0.0
C1594 C 0.45851 0.78104 0.09129 0.0
C1595 C 0.40499 0.77357 0.12548 0.0
C1596 C 0.40166 0.78817 0.13682 0.0
C1597 C 0.3935 0.75761 0.13149 0.0
C1598 C 0.39731 0.74156 0.12063 0.0
C1599 C 0.42003 0.73569 0.11738 0.0
C1600 C 0.42354 0.7208 0.10673 0.0
C1601 C 0.40443 0.71154 0.09942 0.0
C1602 C 0.38177 0.71713 0.10282 0.0
C1603 C 0.37817 0.73206 0.11341 0.0
H1604 H 0.40718 0.70001 0.09117 0.0
H1605 H 0.37318 0.84549 0.19308 0.0
H1606 H 0.81879 0.17723 0.36298 0.0
H1607 H 0.8232 0.15123 0.38424 0.0
H1608 H 0.75886 0.16126 0.41621 0.0
H1609 H 0.75411 0.18706 0.39469 0.0
H1610 H 0.80126 0.15243 0.44006 0.0
H1611 H 0.75281 0.1331 0.38656 0.0
H1612 H 0.74423 0.12992 0.35127 0.0
H1613 H 0.8073 0.1025 0.34245 0.0
H1614 H 0.81643 0.10577 0.37766 0.0
H1615 H 0.77875 0.07395 0.4947 0.0
H1616 H 0.77657 0.10044 0.47417 0.0
H1617 H 0.82183 0.07911 0.42947 0.0
H1618 H 0.82214 0.05199 0.44932 0.0
H1619 H 0.79087 0.09447 0.41169 0.0
H1620 H 0.84004 0.11191 0.46377 0.0
H1621 H 0.85149 0.11526 0.49838 0.0
H1622 H 0.79244 0.14654 0.50933 0.0
H1623 H 0.78045 0.1432 0.47485 0.0
C1624 C 0.80569 0.1739 0.37462 0.0
C1625 C 0.78609 0.18404 0.37722 0.0
C1626 C 0.8082 0.15909 0.38669 0.0
C1627 C 0.79135 0.15441 0.40173 0.0
C1628 C 0.77204 0.16474 0.40467 0.0
C1629 C 0.76929 0.17936 0.39235 0.0
C1630 C 0.79348 0.1384 0.41398 0.0
C1631 C 0.79879 0.13972 0.434 0.0
C1632 C 0.79102 0.12193 0.40578 0.0
C1633 C 0.78543 0.11985 0.38467 0.0
C1634 C 0.76496 0.12654 0.37705 0.0
C1635 C 0.75997 0.12469 0.35708 0.0
C1636 C 0.77524 0.11606 0.34461 0.0
C1637 C 0.7955 0.10921 0.35212 0.0
C1638 C 0.80058 0.11105 0.37208 0.0
C1639 C 0.78819 0.07499 0.48047 0.0
C1640 C 0.80092 0.06113 0.47366 0.0
C1641 C 0.78718 0.09019 0.46883 0.0
C1642 C 0.79958 0.09205 0.45045 0.0
C1643 C 0.81225 0.0781 0.44363 0.0
C1644 C 0.81265 0.06269 0.45503 0.0
C1645 C 0.79868 0.1083 0.43807 0.0
C1646 C 0.79356 0.1071 0.41792 0.0
C1647 C 0.80187 0.12489 0.44609 0.0
C1648 C 0.80925 0.12719 0.46676 0.0
C1649 C 0.82943 0.11944 0.47358 0.0
C1650 C 0.83602 0.12134 0.49318 0.0
C1651 C 0.82267 0.13108 0.50606 0.0
C1652 C 0.80276 0.13899 0.49934 0.0
C1653 C 0.79607 0.13712 0.47976 0.0
H1654 H 0.82778 0.13251 0.52123 0.0
H1655 H 0.77135 0.11464 0.32915 0.0
H1656 H 0.34209 0.22877 0.81134 0.0
H1657 H 0.36681 0.22624 0.83989 0.0
H1658 H 0.3606 0.28063 0.84989 0.0
H1659 H 0.3374 0.28357 0.82045 0.0
H1660 H 0.40291 0.2728 0.85559 0.0
H1661 H 0.32838 0.24732 0.87795 0.0
H1662 H 0.29366 0.22747 0.87718 0.0
H1663 H 0.33731 0.18381 0.88233 0.0
H1664 H 0.37235 0.20342 0.88287 0.0
H1665 H 0.43285 0.2725 0.95696 0.0
H1666 H 0.40993 0.27315 0.92713 0.0
H1667 H 0.43474 0.22337 0.91174 0.0
H1668 H 0.45868 0.22288 0.94108 0.0
H1669 H 0.38424 0.22783 0.9087 0.0
H1670 H 0.4588 0.25483 0.88758 0.0
H1671 H 0.4922 0.27568 0.88998 0.0
H1672 H 0.44616 0.31789 0.88428 0.0
H1673 H 0.41241 0.29726 0.88215 0.0
C1674 C 0.34628 0.24029 0.81936 0.0
C1675 C 0.33758 0.25638 0.81353 0.0
C1676 C 0.36015 0.23875 0.83592 0.0
C1677 C 0.36521 0.25316 0.84734 0.0
C1678 C 0.35684 0.26928 0.84142 0.0
C1679 C 0.34329 0.27089 0.82468 0.0
C1680 C 0.3793 0.25153 0.86537 0.0
C1681 C 0.3986 0.26308 0.86727 0.0
C1682 C 0.37404 0.23865 0.88053 0.0
C1683 C 0.353 0.22684 0.88024 0.0
C1684 C 0.33059 0.23349 0.87877 0.0
C1685 C 0.31085 0.22228 0.8784 0.0
C1686 C 0.31328 0.20439 0.87965 0.0
C1687 C 0.33546 0.19767 0.88133 0.0
C1688 C 0.35526 0.20882 0.88169 0.0
C1689 C 0.43372 0.26174 0.94717 0.0
C1690 C 0.44786 0.2477 0.95141 0.0
C1691 C 0.42044 0.2621 0.9302 0.0
C1692 C 0.4208 0.24836 0.91723 0.0
C1693 C 0.43424 0.23407 0.92165 0.0
C1694 C 0.4478 0.23379 0.93849 0.0
C1695 C 0.40751 0.24917 0.89883 0.0
C1696 C 0.38846 0.23748 0.89691 0.0
C1697 C 0.41275 0.26207 0.8838 0.0
C1698 C 0.43305 0.27449 0.8849 0.0
C1699 C 0.45576 0.26855 0.88701 0.0
C1700 C 0.47476 0.28033 0.88829 0.0
C1701 C 0.47129 0.2981 0.88733 0.0
C1702 C 0.44882 0.30412 0.88504 0.0
C1703 C 0.42975 0.29239 0.88378 0.0
H1704 H 0.48603 0.3072 0.88833 0.0
H1705 H 0.29798 0.19574 0.87936 0.0
H1706 H 0.2242 0.84372 0.3416 0.0
H1707 H 0.22023 0.86855 0.36274 0.0
H1708 H 0.25808 0.84236 0.40835 0.0
H1709 H 0.26132 0.81727 0.38748 0.0
H1710 H 0.22347 0.85753 0.42486 0.0
H1711 H 0.28373 0.87549 0.37647 0.0
H1712 H 0.30152 0.88095 0.34288 0.0
H1713 H 0.24878 0.91709 0.32952 0.0
H1714 H 0.23047 0.91166 0.36296 0.0
H1715 H 0.25663 0.93129 0.47905 0.0
H1716 H 0.25734 0.9063 0.45782 0.0
H1717 H 0.20854 0.93029 0.41923 0.0
H1718 H 0.20781 0.9554 0.4404 0.0
H1719 H 0.24752 0.91667 0.39911 0.0
H1720 H 0.18871 0.89882 0.44928 0.0
H1721 H 0.17323 0.89359 0.48365 0.0
H1722 H 0.22656 0.8573 0.49444 0.0
H1723 H 0.24258 0.86251 0.46021 0.0
C1724 C 0.23168 0.84332 0.35614 0.0
C1725 C 0.24316 0.82865 0.36291 0.0
C1726 C 0.22948 0.85751 0.36818 0.0
C1727 C 0.23923 0.85748 0.38703 0.0
C1728 C 0.25043 0.84271 0.39389 0.0
C1729 C 0.25229 0.8284 0.38197 0.0
C1730 C 0.23777 0.8728 0.39959 0.0
C1731 C 0.22901 0.87042 0.41926 0.0
C1732 C 0.24459 0.88971 0.39225 0.0
C1733 C 0.2556 0.89303 0.37215 0.0
C1734 C 0.27582 0.8845 0.36632 0.0
C1735 C 0.28601 0.88761 0.34732 0.0
C1736 C 0.27625 0.89932 0.33406 0.0
C1737 C 0.2563 0.90799 0.3398 0.0
C1738 C 0.24602 0.90492 0.35878 0.0
C1739 C 0.24613 0.93126 0.46599 0.0
C1740 C 0.23217 0.94527 0.46134 0.0
C1741 C 0.24644 0.91695 0.45397 0.0
C1742 C 0.23288 0.91644 0.43706 0.0
C1743 C 0.21907 0.93046 0.43226 0.0
C1744 C 0.21857 0.94471 0.4444 0.0
C1745 C 0.23335 0.90131 0.42427 0.0
C1746 C 0.24194 0.90376 0.4046 0.0
C1747 C 0.22671 0.88445 0.43169 0.0
C1748 C 0.21697 0.88118 0.45223 0.0
C1749 C 0.19725 0.88983 0.45903 0.0
C1750 C 0.18835 0.88684 0.47848 0.0
C1751 C 0.19894 0.87515 0.49124 0.0
C1752 C 0.2184 0.86637 0.48455 0.0
C1753 C 0.22737 0.86932 0.46512 0.0
H1754 H 0.19203 0.87286 0.50629 0.0
H1755 H 0.28417 0.90171 0.31935 0.0
H1756 H 0.70823 0.75477 0.84019 0.0
H1757 H 0.6834 0.75584 0.87032 0.0
H1758 H 0.6279 0.77616 0.83586 0.0
H1759 H 0.65275 0.77522 0.80566 0.0
H1760 H 0.63272 0.79359 0.86888 0.0
H1761 H 0.62608 0.7338 0.85297 0.0
H1762 H 0.64044 0.7052 0.84479 0.0
H1763 H 0.67447 0.70191 0.90047 0.0
H1764 H 0.66057 0.73061 0.90886 0.0
H1765 H 0.54163 0.7798 0.94301 0.0
H1766 H 0.5661 0.77861 0.91247 0.0
H1767 H 0.62313 0.76056 0.94684 0.0
H1768 H 0.59847 0.76163 0.97734 0.0
H1769 H 0.61717 0.74193 0.9138 0.0
H1770 H 0.62308 0.80191 0.92965 0.0
H1771 H 0.60761 0.83016 0.9378 0.0
H1772 H 0.57397 0.83285 0.88192 0.0
H1773 H 0.58891 0.80445 0.87358 0.0
C1774 C 0.69065 0.7593 0.83901 0.0
C1775 C 0.68241 0.76484 0.82055 0.0
C1776 C 0.67649 0.75992 0.85624 0.0
C1777 C 0.65368 0.76589 0.85532 0.0
C1778 C 0.64544 0.77152 0.83692 0.0
C1779 C 0.65966 0.771 0.81969 0.0
C1780 C 0.63854 0.76644 0.87358 0.0
C1781 C 0.62905 0.78223 0.87856 0.0
C1782 C 0.63415 0.75171 0.88643 0.0
C1783 C 0.64247 0.73443 0.88145 0.0
C1784 C 0.63677 0.72703 0.8634 0.0
C1785 C 0.64481 0.7108 0.85874 0.0
C1786 C 0.65841 0.70177 0.87208 0.0
C1787 C 0.66395 0.70893 0.89014 0.0
C1788 C 0.65599 0.72517 0.89486 0.0
C1789 C 0.55942 0.77563 0.94392 0.0
C1790 C 0.56834 0.77079 0.9623 0.0
C1791 C 0.57337 0.77498 0.92657 0.0
C1792 C 0.59649 0.76962 0.92743 0.0
C1793 C 0.60534 0.76472 0.94587 0.0
C1794 C 0.59137 0.76537 0.96322 0.0
C1795 C 0.61142 0.76906 0.90908 0.0
C1796 C 0.62085 0.75327 0.9041 0.0
C1797 C 0.61567 0.78377 0.8962 0.0
C1798 C 0.60695 0.80097 0.90107 0.0
C1799 C 0.61225 0.80846 0.91916 0.0
C1800 C 0.60359 0.82451 0.92381 0.0
C1801 C 0.58978 0.83328 0.91041 0.0
C1802 C 0.58465 0.82603 0.8923 0.0
C1803 C 0.59322 0.80996 0.8876 0.0
H1804 H 0.58308 0.8457 0.91403 0.0
H1805 H 0.66461 0.6892 0.86845 0.0
loop_
_geom_bond_atom_site_label_1
_geom_bond_atom_site_label_2
_geom_bond_distance
_geom_bond_site_symmetry_2
_ccdc_geom_bond_type
C0 C1 1.384 . S
C0 H13 0.947 . S
C0 C35 1.382 . S
C1 C0 1.384 . S
C1 C2 1.378 . S
C2 C1 1.378 . S
C2 C3 1.378 . S
C2 H14 0.952 . S
C3 C2 1.378 . S
C3 H15 0.950 . S
C3 C34 1.383 . S
H4 C23 0.947 . S
H5 C24 0.946 . S
H6 C26 0.953 . S
H7 C27 0.945 . S
H8 C29 0.952 . S
H9 C30 0.949 . S
H10 C32 0.950 . S
H11 C33 0.948 . S
H12 C35 0.951 . S
H13 C0 0.947 . S
H14 C2 0.952 . S
H15 C3 0.950 . S
N16 C19 1.382 . S
N16 C21 1.363 . S
N17 C19 1.371 . S
N17 C20 1.372 . S
N18 C20 1.361 . S
N18 C21 1.377 . S
C19 N16 1.382 . S
C19 N17 1.371 . S
C19 C22 1.480 . S
C20 N17 1.372 . S
C20 N18 1.361 . S
C20 C28 1.457 . S
C21 N16 1.363 . S
C21 N18 1.377 . S
C21 C34 1.479 . S
C22 C19 1.480 . S
C22 C23 1.383 . S
C22 C27 1.385 . S
C23 H4 0.947 . S
C23 C22 1.383 . S
C23 C24 1.388 . S
C24 H5 0.946 . S
C24 C23 1.388 . S
C24 C25 1.384 . S
C25 C24 1.384 . S
C25 C26 1.377 . S
C26 H6 0.953 . S
C26 C25 1.377 . S
C26 C27 1.369 . S
C27 H7 0.945 . S
C27 C22 1.385 . S
C27 C26 1.369 . S
C28 C20 1.457 . S
C28 C29 1.372 . S
C28 C33 1.364 . S
C29 H8 0.952 . S
C29 C28 1.372 . S
C29 C30 1.389 . S
C30 H9 0.949 . S
C30 C29 1.389 . S
C30 C31 1.387 . S
C31 C30 1.387 . S
C31 C32 1.372 . S
C32 H10 0.950 . S
C32 C31 1.372 . S
C32 C33 1.379 . S
C33 H11 0.948 . S
C33 C28 1.364 . S
C33 C32 1.379 . S
C34 C3 1.383 . S
C34 C21 1.479 . S
C34 C35 1.398 . S
C35 C0 1.382 . S
C35 H12 0.951 . S
C35 C34 1.398 . S
C36 C37 1.384 . S
C36 H49 0.947 . S
C36 C71 1.382 . S
C37 C36 1.384 . S
C37 C38 1.378 . S
C38 C37 1.378 . S
C38 C39 1.378 . S
C38 H50 0.952 . S
C39 C38 1.378 . S
C39 H51 0.950 . S
C39 C70 1.383 . S
H40 C59 0.947 . S
H41 C60 0.946 . S
H42 C62 0.953 . S
H43 C63 0.945 . S
H44 C65 0.952 . S
H45 C66 0.949 . S
H46 C68 0.950 . S
H47 C69 0.948 . S
H48 C71 0.951 . S
H49 C36 0.947 . S
H50 C38 0.952 . S
H51 C39 0.950 . S
N52 C55 1.382 . S
N52 C57 1.363 . S
N53 C55 1.371 . S
N53 C56 1.372 . S
N54 C56 1.361 . S
N54 C57 1.377 . S
C55 N52 1.382 . S
C55 N53 1.371 . S
C55 C58 1.480 . S
C56 N53 1.372 . S
C56 N54 1.361 . S
C56 C64 1.457 . S
C57 N52 1.363 . S
C57 N54 1.377 . S
C57 C70 1.479 . S
C58 C55 1.480 . S
C58 C59 1.383 . S
C58 C63 1.385 . S
C59 H40 0.947 . S
C59 C58 1.383 . S
C59 C60 1.388 . S
C60 H41 0.946 . S
C60 C59 1.388 . S
C60 C61 1.384 . S
C61 C60 1.384 . S
C61 C62 1.377 . S
C62 H42 0.953 . S
C62 C61 1.377 . S
C62 C63 1.369 . S
C63 H43 0.945 . S
C63 C58 1.385 . S
C63 C62 1.369 . S
C64 C56 1.457 . S
C64 C65 1.372 . S
C64 C69 1.364 . S
C65 H44 0.952 . S
C65 C64 1.372 . S
C65 C66 1.389 . S
C66 H45 0.949 . S
C66 C65 1.389 . S
C66 C67 1.387 . S
C67 C66 1.387 . S
C67 C68 1.372 . S
C68 H46 0.950 . S
C68 C67 1.372 . S
C68 C69 1.379 . S
C69 H47 0.948 . S
C69 C64 1.364 . S
C69 C68 1.379 . S
C70 C39 1.383 . S
C70 C57 1.479 . S
C70 C71 1.398 . S
C71 C36 1.382 . S
C71 H48 0.951 . S
C71 C70 1.398 . S
C72 C73 1.384 . S
C72 H85 0.947 . S
C72 C107 1.382 . S
C73 C72 1.384 . S
C73 C74 1.378 . S
C74 C73 1.378 . S
C74 C75 1.378 . S
C74 H86 0.952 . S
C75 C74 1.378 . S
C75 H87 0.950 . S
C75 C106 1.383 . S
H76 C95 0.947 . S
H77 C96 0.946 . S
H78 C98 0.953 . S
H79 C99 0.945 . S
H80 C101 0.952 . S
H81 C102 0.949 . S
H82 C104 0.950 . S
H83 C105 0.948 . S
H84 C107 0.951 . S
H85 C72 0.947 . S
H86 C74 0.952 . S
H87 C75 0.950 . S
N88 C91 1.382 . S
N88 C93 1.363 . S
N89 C91 1.371 . S
N89 C92 1.372 . S
N90 C92 1.361 . S
N90 C93 1.377 . S
C91 N88 1.382 . S
C91 N89 1.371 . S
C91 C94 1.480 . S
C92 N89 1.372 . S
C92 N90 1.361 . S
C92 C100 1.457 . S
C93 N88 1.363 . S
C93 N90 1.377 . S
C93 C106 1.479 . S
C94 C91 1.480 . S
C94 C95 1.383 . S
C94 C99 1.385 . S
C95 H76 0.947 . S
C95 C94 1.383 . S
C95 C96 1.388 . S
C96 H77 0.946 . S
C96 C95 1.388 . S
C96 C97 1.384 . S
C97 C96 1.384 . S
C97 C98 1.377 . S
C98 H78 0.953 . S
C98 C97 1.377 . S
C98 C99 1.369 . S
C99 H79 0.945 . S
C99 C94 1.385 . S
C99 C98 1.369 . S
C100 C92 1.457 . S
C100 C101 1.372 . S
C100 C105 1.364 . S
C101 H80 0.952 . S
C101 C100 1.372 . S
C101 C102 1.389 . S
C102 H81 0.949 . S
C102 C101 1.389 . S
C102 C103 1.387 . S
C103 C102 1.387 . S
C103 C104 1.372 . S
C104 H82 0.950 . S
C104 C103 1.372 . S
C104 C105 1.379 . S
C105 H83 0.948 . S
C105 C100 1.364 . S
C105 C104 1.379 . S
C106 C75 1.383 . S
C106 C93 1.479 . S
C106 C107 1.398 . S
C107 C72 1.382 . S
C107 H84 0.951 . S
C107 C106 1.398 . S
C108 C109 1.384 . S
C108 H121 0.947 . S
C108 C143 1.382 . S
C109 C108 1.384 . S
C109 C110 1.378 . S
C110 C109 1.378 . S
C110 C111 1.378 . S
C110 H122 0.952 . S
C111 C110 1.378 . S
C111 H123 0.950 . S
C111 C142 1.383 . S
H112 C131 0.947 . S
H113 C132 0.946 . S
H114 C134 0.953 . S
H115 C135 0.945 . S
H116 C137 0.952 . S
H117 C138 0.949 . S
H118 C140 0.950 . S
H119 C141 0.948 . S
H120 C143 0.951 . S
H121 C108 0.947 . S
H122 C110 0.952 . S
H123 C111 0.950 . S
N124 C127 1.382 . S
N124 C129 1.363 . S
N125 C127 1.371 . S
N125 C128 1.372 . S
N126 C128 1.361 . S
N126 C129 1.377 . S
C127 N124 1.382 . S
C127 N125 1.371 . S
C127 C130 1.480 . S
C128 N125 1.372 . S
C128 N126 1.361 . S
C128 C136 1.457 . S
C129 N124 1.363 . S
C129 N126 1.377 . S
C129 C142 1.479 . S
C130 C127 1.480 . S
C130 C131 1.383 . S
C130 C135 1.385 . S
C131 H112 0.947 . S
C131 C130 1.383 . S
C131 C132 1.388 . S
C132 H113 0.946 . S
C132 C131 1.388 . S
C132 C133 1.384 . S
C133 C132 1.384 . S
C133 C134 1.377 . S
C134 H114 0.953 . S
C134 C133 1.377 . S
C134 C135 1.369 . S
C135 H115 0.945 . S
C135 C130 1.385 . S
C135 C134 1.369 . S
C136 C128 1.457 . S
C136 C137 1.372 . S
C136 C141 1.364 . S
C137 H116 0.952 . S
C137 C136 1.372 . S
C137 C138 1.389 . S
C138 H117 0.949 . S
C138 C137 1.389 . S
C138 C139 1.387 . S
C139 C138 1.387 . S
C139 C140 1.372 . S
C140 H118 0.950 . S
C140 C139 1.372 . S
C140 C141 1.379 . S
C141 H119 0.948 . S
C141 C136 1.364 . S
C141 C140 1.379 . S
C142 C111 1.383 . S
C142 C129 1.479 . S
C142 C143 1.398 . S
C143 C108 1.382 . S
C143 H120 0.951 . S
C143 C142 1.398 . S
C144 C145 1.384 . S
C144 H157 0.947 . S
C144 C179 1.382 . S
C145 C144 1.384 . S
C145 C146 1.378 . S
C146 C145 1.378 . S
C146 C147 1.378 . S
C146 H158 0.952 . S
C147 C146 1.378 . S
C147 H159 0.950 . S
C147 C178 1.383 . S
H148 C167 0.947 . S
H149 C168 0.946 . S
H150 C170 0.953 . S
H151 C171 0.945 . S
H152 C173 0.952 . S
H153 C174 0.949 . S
H154 C176 0.950 . S
H155 C177 0.948 . S
H156 C179 0.951 . S
H157 C144 0.947 . S
H158 C146 0.952 . S
H159 C147 0.950 . S
N160 C163 1.382 . S
N160 C165 1.363 . S
N161 C163 1.371 . S
N161 C164 1.372 . S
N162 C164 1.361 . S
N162 C165 1.377 . S
C163 N160 1.382 . S
C163 N161 1.371 . S
C163 C166 1.480 . S
C164 N161 1.372 . S
C164 N162 1.361 . S
C164 C172 1.457 . S
C165 N160 1.363 . S
C165 N162 1.377 . S
C165 C178 1.479 . S
C166 C163 1.480 . S
C166 C167 1.383 . S
C166 C171 1.385 . S
C167 H148 0.947 . S
C167 C166 1.383 . S
C167 C168 1.388 . S
C168 H149 0.946 . S
C168 C167 1.388 . S
C168 C169 1.384 . S
C169 C168 1.384 . S
C169 C170 1.377 . S
C170 H150 0.953 . S
C170 C169 1.377 . S
C170 C171 1.369 . S
C171 H151 0.945 . S
C171 C166 1.385 . S
C171 C170 1.369 . S
C172 C164 1.457 . S
C172 C173 1.372 . S
C172 C177 1.364 . S
C173 H152 0.952 . S
C173 C172 1.372 . S
C173 C174 1.389 . S
C174 H153 0.949 . S
C174 C173 1.389 . S
C174 C175 1.387 . S
C175 C174 1.387 . S
C175 C176 1.372 . S
C176 H154 0.950 . S
C176 C175 1.372 . S
C176 C177 1.379 . S
C177 H155 0.948 . S
C177 C172 1.364 . S
C177 C176 1.379 . S
C178 C147 1.383 . S
C178 C165 1.479 . S
C178 C179 1.398 . S
C179 C144 1.382 . S
C179 H156 0.951 . S
C179 C178 1.398 . S
C180 C181 1.384 . S
C180 H193 0.947 . S
C180 C215 1.382 . S
C181 C180 1.384 . S
C181 C182 1.378 . S
C182 C181 1.378 . S
C182 C183 1.378 . S
C182 H194 0.952 . S
C183 C182 1.378 . S
C183 H195 0.950 . S
C183 C214 1.383 . S
H184 C203 0.947 . S
H185 C204 0.946 . S
H186 C206 0.953 . S
H187 C207 0.945 . S
H188 C209 0.952 . S
H189 C210 0.949 . S
H190 C212 0.950 . S
H191 C213 0.948 . S
H192 C215 0.951 . S
H193 C180 0.947 . S
H194 C182 0.952 . S
H195 C183 0.950 . S
N196 C199 1.382 . S
N196 C201 1.363 . S
N197 C199 1.371 . S
N197 C200 1.372 . S
N198 C200 1.361 . S
N198 C201 1.377 . S
C199 N196 1.382 . S
C199 N197 1.371 . S
C199 C202 1.480 . S
C200 N197 1.372 . S
C200 N198 1.361 . S
C200 C208 1.457 . S
C201 N196 1.363 . S
C201 N198 1.377 . S
C201 C214 1.479 . S
C202 C199 1.480 . S
C202 C203 1.383 . S
C202 C207 1.385 . S
C203 H184 0.947 . S
C203 C202 1.383 . S
C203 C204 1.388 . S
C204 H185 0.946 . S
C204 C203 1.388 . S
C204 C205 1.384 . S
C205 C204 1.384 . S
C205 C206 1.377 . S
C206 H186 0.953 . S
C206 C205 1.377 . S
C206 C207 1.369 . S
C207 H187 0.945 . S
C207 C202 1.385 . S
C207 C206 1.369 . S
C208 C200 1.457 . S
C208 C209 1.372 . S
C208 C213 1.364 . S
C209 H188 0.952 . S
C209 C208 1.372 . S
C209 C210 1.389 . S
C210 H189 0.949 . S
C210 C209 1.389 . S
C210 C211 1.387 . S
C211 C210 1.387 . S
C211 C212 1.372 . S
C212 H190 0.950 . S
C212 C211 1.372 . S
C212 C213 1.379 . S
C213 H191 0.948 . S
C213 C208 1.364 . S
C213 C212 1.379 . S
C214 C183 1.383 . S
C214 C201 1.479 . S
C214 C215 1.398 . S
C215 C180 1.382 . S
C215 H192 0.951 . S
C215 C214 1.398 . S
C216 C217 1.384 . S
C216 H229 0.947 . S
C216 C251 1.382 . S
C217 C216 1.384 . S
C217 C218 1.378 . S
C218 C217 1.378 . S
C218 C219 1.378 . S
C218 H230 0.952 . S
C219 C218 1.378 . S
C219 H231 0.950 . S
C219 C250 1.383 . S
H220 C239 0.947 . S
H221 C240 0.946 . S
H222 C242 0.953 . S
H223 C243 0.945 . S
H224 C245 0.952 . S
H225 C246 0.949 . S
H226 C248 0.950 . S
H227 C249 0.948 . S
H228 C251 0.951 . S
H229 C216 0.947 . S
H230 C218 0.952 . S
H231 C219 0.950 . S
N232 C235 1.382 . S
N232 C237 1.363 . S
N233 C235 1.371 . S
N233 C236 1.372 . S
N234 C236 1.361 . S
N234 C237 1.377 . S
C235 N232 1.382 . S
C235 N233 1.371 . S
C235 C238 1.480 . S
C236 N233 1.372 . S
C236 N234 1.361 . S
C236 C244 1.457 . S
C237 N232 1.363 . S
C237 N234 1.377 . S
C237 C250 1.479 . S
C238 C235 1.480 . S
C238 C239 1.383 . S
C238 C243 1.385 . S
C239 H220 0.947 . S
C239 C238 1.383 . S
C239 C240 1.388 . S
C240 H221 0.946 . S
C240 C239 1.388 . S
C240 C241 1.384 . S
C241 C240 1.384 . S
C241 C242 1.377 . S
C242 H222 0.953 . S
C242 C241 1.377 . S
C242 C243 1.369 . S
C243 H223 0.945 . S
C243 C238 1.385 . S
C243 C242 1.369 . S
C244 C236 1.457 . S
C244 C245 1.372 . S
C244 C249 1.364 . S
C245 H224 0.952 . S
C245 C244 1.372 . S
C245 C246 1.389 . S
C246 H225 0.949 . S
C246 C245 1.389 . S
C246 C247 1.387 . S
C247 C246 1.387 . S
C247 C248 1.372 . S
C248 H226 0.950 . S
C248 C247 1.372 . S
C248 C249 1.379 . S
C249 H227 0.948 . S
C249 C244 1.364 . S
C249 C248 1.379 . S
C250 C219 1.383 . S
C250 C237 1.479 . S
C250 C251 1.398 . S
C251 C216 1.382 . S
C251 H228 0.951 . S
C251 C250 1.398 . S
C252 C253 1.384 . S
C252 H265 0.947 . S
C252 C287 1.382 . S
C253 C252 1.384 . S
C253 C254 1.378 . S
C254 C253 1.378 . S
C254 C255 1.378 . S
C254 H266 0.952 . S
C255 C254 1.378 . S
C255 H267 0.950 . S
C255 C286 1.383 . S
H256 C275 0.947 . S
H257 C276 0.946 . S
H258 C278 0.953 . S
H259 C279 0.945 . S
H260 C281 0.952 . S
H261 C282 0.949 . S
H262 C284 0.950 . S
H263 C285 0.948 . S
H264 C287 0.951 . S
H265 C252 0.947 . S
H266 C254 0.952 . S
H267 C255 0.950 . S
N268 C271 1.382 . S
N268 C273 1.363 . S
N269 C271 1.371 . S
N269 C272 1.372 . S
N270 C272 1.361 . S
N270 C273 1.377 . S
C271 N268 1.382 . S
C271 N269 1.371 . S
C271 C274 1.480 . S
C272 N269 1.372 . S
C272 N270 1.361 . S
C272 C280 1.457 . S
C273 N268 1.363 . S
C273 N270 1.377 . S
C273 C286 1.479 . S
C274 C271 1.480 . S
C274 C275 1.383 . S
C274 C279 1.385 . S
C275 H256 0.947 . S
C275 C274 1.383 . S
C275 C276 1.388 . S
C276 H257 0.946 . S
C276 C275 1.388 . S
C276 C277 1.384 . S
C277 C276 1.384 . S
C277 C278 1.377 . S
C278 H258 0.953 . S
C278 C277 1.377 . S
C278 C279 1.369 . S
C279 H259 0.945 . S
C279 C274 1.385 . S
C279 C278 1.369 . S
C280 C272 1.457 . S
C280 C281 1.372 . S
C280 C285 1.364 . S
C281 H260 0.952 . S
C281 C280 1.372 . S
C281 C282 1.389 . S
C282 H261 0.949 . S
C282 C281 1.389 . S
C282 C283 1.387 . S
C283 C282 1.387 . S
C283 C284 1.372 . S
C284 H262 0.950 . S
C284 C283 1.372 . S
C284 C285 1.379 . S
C285 H263 0.948 . S
C285 C280 1.364 . S
C285 C284 1.379 . S
C286 C255 1.383 . S
C286 C273 1.479 . S
C286 C287 1.398 . S
C287 C252 1.382 . S
C287 H264 0.951 . S
C287 C286 1.398 . S
C288 C289 1.443 . S
C288 N292 1.376 . S
C288 C326 1.389 . S
C289 C288 1.443 . S
C289 C290 1.340 . S
C289 H329 0.951 . S
C290 C289 1.340 . S
C290 C291 1.439 . S
C290 H330 0.950 . S
C291 C290 1.439 . S
C291 N292 1.374 . S
C291 C325 1.395 . S
N292 C288 1.376 . S
N292 C291 1.374 . S
N292 Co293 2.008 . S
Co293 N292 2.008 . S
Co293 N294 1.995 1_455 S
Co293 N299 2.008 . S
Co293 N304 1.995 . S
Co293 N309 2.282 . S
Co293 N315 2.282 1_455 S
N294 Co293 1.995 1_655 S
N294 C295 1.376 . S
N294 C298 1.383 . S
C295 N294 1.376 . S
C295 C296 1.446 . S
C295 C325 1.391 1_655 S
C296 C295 1.446 . S
C296 C297 1.339 . S
C296 H331 0.949 . S
C297 C296 1.339 . S
C297 C298 1.439 . S
C297 H332 0.950 . S
C298 N294 1.383 . S
C298 C297 1.439 . S
C298 C327 1.392 . S
N299 Co293 2.008 . S
N299 C300 1.376 1_455 S
N299 C303 1.374 . S
C300 N299 1.376 1_655 S
C300 C301 1.443 . S
C300 C327 1.389 . S
C301 C300 1.443 . S
C301 C302 1.340 . S
C301 H333 0.951 . S
C302 C301 1.340 . S
C302 C303 1.439 1_655 S
C302 H334 0.950 . S
C303 N299 1.374 . S
C303 C302 1.439 1_455 S
C303 C328 1.395 . S
N304 Co293 1.995 . S
N304 C305 1.376 . S
N304 C308 1.383 . S
C305 N304 1.376 . S
C305 C306 1.446 . S
C305 C328 1.391 . S
C306 C305 1.446 . S
C306 C307 1.339 . S
C306 H335 0.949 . S
C307 C306 1.339 . S
C307 C308 1.439 . S
C307 H336 0.950 . S
C308 N304 1.383 . S
C308 C307 1.439 . S
C308 C326 1.392 . S
N309 Co293 2.282 . S
N309 C312 1.332 . S
N309 C314 1.332 . S
C310 C311 1.386 . S
C310 C313 1.388 . S
C311 C310 1.386 . S
C311 C312 1.382 . S
C311 H337 0.950 . S
C312 N309 1.332 . S
C312 C311 1.382 . S
C312 H323 0.952 . S
C313 C310 1.388 . S
C313 C314 1.382 . S
C313 H338 0.950 . S
C314 N309 1.332 . S
C314 C313 1.382 . S
C314 H324 0.948 . S
N315 Co293 2.282 1_655 S
N315 C319 1.332 . S
N315 C320 1.332 . S
C316 C317 1.388 . S
C316 C320 1.382 . S
C316 H339 0.950 . S
C317 C316 1.388 . S
C317 C318 1.386 . S
C318 C317 1.386 . S
C318 C319 1.382 . S
C318 H340 0.950 . S
C319 N315 1.332 . S
C319 C318 1.382 . S
C319 H321 0.952 . S
C320 N315 1.332 . S
C320 C316 1.382 . S
C320 H322 0.948 . S
H321 C319 0.952 . S
H322 C320 0.948 . S
H323 C312 0.952 . S
H324 C314 0.948 . S
C325 C291 1.395 . S
C325 C295 1.391 1_455 S
C326 C288 1.389 . S
C326 C308 1.392 . S
C327 C298 1.392 . S
C327 C300 1.389 . S
C328 C303 1.395 . S
C328 C305 1.391 . S
H329 C289 0.951 . S
H330 C290 0.950 . S
H331 C296 0.949 . S
H332 C297 0.950 . S
H333 C301 0.951 . S
H334 C302 0.950 . S
H335 C306 0.949 . S
H336 C307 0.950 . S
H337 C311 0.950 . S
H338 C313 0.950 . S
H339 C316 0.950 . S
H340 C318 0.950 . S
C341 C342 1.443 . S
C341 N345 1.376 . S
C341 C379 1.389 . S
C342 C341 1.443 . S
C342 C343 1.340 . S
C342 H382 0.951 . S
C343 C342 1.340 . S
C343 C344 1.439 . S
C343 H383 0.950 . S
C344 C343 1.439 . S
C344 N345 1.374 . S
C344 C378 1.395 . S
N345 C341 1.376 . S
N345 C344 1.374 . S
N345 Co346 2.008 . S
Co346 N345 2.008 . S
Co346 N347 1.995 1_455 S
Co346 N352 2.008 1_455 S
Co346 N357 1.995 . S
Co346 N362 2.282 . S
Co346 N368 2.282 1_455 S
N347 Co346 1.995 1_655 S
N347 C348 1.376 . S
N347 C351 1.383 . S
C348 N347 1.376 . S
C348 C349 1.446 . S
C348 C378 1.391 1_655 S
C349 C348 1.446 . S
C349 C350 1.339 . S
C349 H384 0.949 . S
C350 C349 1.339 . S
C350 C351 1.439 . S
C350 H385 0.950 . S
C351 N347 1.383 . S
C351 C350 1.439 . S
C351 C380 1.392 . S
N352 Co346 2.008 1_655 S
N352 C353 1.376 . S
N352 C356 1.371 1_655 S
C353 N352 1.376 . S
C353 C354 1.443 . S
C353 C380 1.389 . S
C354 C353 1.443 . S
C354 C355 1.340 . S
C354 H386 0.951 . S
C355 C354 1.340 . S
C355 C356 1.432 1_655 S
C355 H387 0.950 . S
C356 N352 1.371 1_455 S
C356 C355 1.432 1_455 S
C356 C381 1.404 . S
N357 Co346 1.995 . S
N357 C358 1.376 . S
N357 C361 1.383 . S
C358 N357 1.376 . S
C358 C359 1.446 . S
C358 C381 1.391 . S
C359 C358 1.446 . S
C359 C360 1.339 . S
C359 H388 0.949 . S
C360 C359 1.339 . S
C360 C361 1.439 . S
C360 H389 0.950 . S
C361 N357 1.383 . S
C361 C360 1.439 . S
C361 C379 1.392 . S
N362 Co346 2.282 . S
N362 C365 1.332 . S
N362 C367 1.332 . S
C363 C364 1.386 . S
C363 C366 1.388 . S
C364 C363 1.386 . S
C364 C365 1.382 . S
C364 H390 0.950 . S
C365 N362 1.332 . S
C365 C364 1.382 . S
C365 H376 0.952 . S
C366 C363 1.388 . S
C366 C367 1.382 . S
C366 H391 0.950 . S
C367 N362 1.332 . S
C367 C366 1.382 . S
C367 H377 0.948 . S
N368 Co346 2.282 1_655 S
N368 C372 1.332 . S
N368 C373 1.332 . S
C369 C370 1.388 . S
C369 C373 1.382 . S
C369 H392 0.950 . S
C370 C369 1.388 . S
C370 C371 1.386 . S
C371 C370 1.386 . S
C371 C372 1.382 . S
C371 H393 0.950 . S
C372 N368 1.332 . S
C372 C371 1.382 . S
C372 H374 0.952 . S
C373 N368 1.332 . S
C373 C369 1.382 . S
C373 H375 0.948 . S
H374 C372 0.952 . S
H375 C373 0.948 . S
H376 C365 0.952 . S
H377 C367 0.948 . S
C378 C344 1.395 . S
C378 C348 1.391 1_455 S
C379 C341 1.389 . S
C379 C361 1.392 . S
C380 C351 1.392 . S
C380 C353 1.389 . S
C381 C356 1.404 . S
C381 C358 1.391 . S
H382 C342 0.951 . S
H383 C343 0.950 . S
H384 C349 0.949 . S
H385 C350 0.950 . S
H386 C354 0.951 . S
H387 C355 0.950 . S
H388 C359 0.949 . S
H389 C360 0.950 . S
H390 C364 0.950 . S
H391 C366 0.950 . S
H392 C369 0.950 . S
H393 C371 0.950 . S
C394 C395 1.443 . S
C394 N398 1.376 . S
C394 C432 1.389 . S
C395 C394 1.443 . S
C395 C396 1.340 . S
C395 H435 0.951 . S
C396 C395 1.340 . S
C396 C397 1.439 . S
C396 H436 0.950 . S
C397 C396 1.439 . S
C397 N398 1.374 . S
C397 C431 1.395 1_565 S
N398 C394 1.376 . S
N398 C397 1.374 . S
N398 Co399 2.008 1_565 S
Co399 N398 2.008 1_545 S
Co399 N400 1.995 . S
Co399 N405 2.008 . S
Co399 N410 1.995 1_545 S
Co399 N415 2.282 . S
Co399 N421 2.282 1_545 S
N400 Co399 1.995 . S
N400 C401 1.376 . S
N400 C404 1.383 . S
C401 N400 1.376 . S
C401 C402 1.446 . S
C401 C431 1.391 . S
C402 C401 1.446 . S
C402 C403 1.339 . S
C402 H437 0.949 . S
C403 C402 1.339 . S
C403 C404 1.439 . S
C403 H438 0.950 . S
C404 N400 1.383 . S
C404 C403 1.439 . S
C404 C433 1.392 . S
N405 Co399 2.008 . S
N405 C406 1.376 . S
N405 C409 1.374 . S
C406 N405 1.376 . S
C406 C407 1.443 . S
C406 C433 1.389 . S
C407 C406 1.443 . S
C407 C408 1.340 . S
C407 H439 0.951 . S
C408 C407 1.340 . S
C408 C409 1.439 . S
C408 H440 0.950 . S
C409 N405 1.374 . S
C409 C408 1.439 . S
C409 C434 1.395 . S
N410 Co399 1.995 1_565 S
N410 C411 1.376 . S
N410 C414 1.383 . S
C411 N410 1.376 . S
C411 C412 1.446 . S
C411 C434 1.391 1_565 S
C412 C411 1.446 . S
C412 C413 1.339 . S
C412 H441 0.949 . S
C413 C412 1.339 . S
C413 C414 1.439 . S
C413 H442 0.950 . S
C414 N410 1.383 . S
C414 C413 1.439 . S
C414 C432 1.392 . S
N415 Co399 2.282 . S
N415 C418 1.332 . S
N415 C420 1.332 . S
C416 C417 1.386 . S
C416 C419 1.388 . S
C417 C416 1.386 . S
C417 C418 1.382 . S
C417 H443 0.950 . S
C418 N415 1.332 . S
C418 C417 1.382 . S
C418 H429 0.952 . S
C419 C416 1.388 . S
C419 C420 1.382 . S
C419 H444 0.950 . S
C420 N415 1.332 . S
C420 C419 1.382 . S
C420 H430 0.948 . S
N421 Co399 2.282 1_565 S
N421 C425 1.332 . S
N421 C426 1.332 . S
C422 C423 1.388 . S
C422 C426 1.382 . S
C422 H445 0.950 . S
C423 C422 1.388 . S
C423 C424 1.386 . S
C424 C423 1.386 . S
C424 C425 1.382 . S
C424 H446 0.950 . S
C425 N421 1.332 . S
C425 C424 1.382 . S
C425 H427 0.952 . S
C426 N421 1.332 . S
C426 C422 1.382 . S
C426 H428 0.948 . S
H427 C425 0.952 . S
H428 C426 0.948 . S
H429 C418 0.952 . S
H430 C420 0.948 . S
C431 C397 1.395 1_545 S
C431 C401 1.391 . S
C432 C394 1.389 . S
C432 C414 1.392 . S
C433 C404 1.392 . S
C433 C406 1.389 . S
C434 C409 1.395 . S
C434 C411 1.391 1_545 S
H435 C395 0.951 . S
H436 C396 0.950 . S
H437 C402 0.949 . S
H438 C403 0.950 . S
H439 C407 0.951 . S
H440 C408 0.950 . S
H441 C412 0.949 . S
H442 C413 0.950 . S
H443 C417 0.950 . S
H444 C419 0.950 . S
H445 C422 0.950 . S
H446 C424 0.950 . S
C447 C448 1.443 . S
C447 N451 1.376 . S
C447 C485 1.389 . S
C448 C447 1.443 . S
C448 C449 1.340 . S
C448 H488 0.951 . S
C449 C448 1.340 . S
C449 C450 1.439 . S
C449 H489 0.950 . S
C450 C449 1.439 . S
C450 N451 1.374 . S
C450 C484 1.395 . S
N451 C447 1.376 . S
N451 C450 1.374 . S
N451 Co452 2.008 . S
Co452 N451 2.008 . S
Co452 N453 1.995 . S
Co452 N458 2.003 1_554 S
Co452 N463 1.995 . S
Co452 N468 2.282 1_554 S
Co452 N474 2.282 . S
N453 Co452 1.995 . S
N453 C454 1.376 . S
N453 C457 1.383 1_554 S
C454 N453 1.376 . S
C454 C455 1.446 1_554 S
C454 C484 1.391 . S
C455 C454 1.446 1_556 S
C455 C456 1.339 . S
C455 H490 0.949 . S
C456 C455 1.339 . S
C456 C457 1.439 . S
C456 H491 0.950 . S
C457 N453 1.383 1_556 S
C457 C456 1.439 . S
C457 C486 1.392 . S
N458 Co452 2.003 1_556 S
N458 C459 1.383 . S
N458 C462 1.374 1_556 S
C459 N458 1.383 . S
C459 C460 1.443 . S
C459 C486 1.389 . S
C460 C459 1.443 . S
C460 C461 1.340 . S
C460 H492 0.951 . S
C461 C460 1.340 . S
C461 C462 1.407 1_556 S
C461 H493 0.950 . S
C462 N458 1.374 1_554 S
C462 C461 1.407 1_554 S
C462 C487 1.422 . S
N463 Co452 1.995 . S
N463 C464 1.376 . S
N463 C467 1.383 . S
C464 N463 1.376 . S
C464 C465 1.446 . S
C464 C487 1.391 . S
C465 C464 1.446 . S
C465 C466 1.339 . S
C465 H494 0.949 . S
C466 C465 1.339 . S
C466 C467 1.439 . S
C466 H495 0.950 . S
C467 N463 1.383 . S
C467 C466 1.439 . S
C467 C485 1.392 . S
N468 Co452 2.282 1_556 S
N468 C471 1.332 . S
N468 C473 1.332 . S
C469 C470 1.386 . S
C469 C472 1.388 . S
C470 C469 1.386 . S
C470 C471 1.382 . S
C470 H496 0.950 . S
C471 N468 1.332 . S
C471 C470 1.382 . S
C471 H482 0.952 . S
C472 C469 1.388 . S
C472 C473 1.382 . S
C472 H497 0.950 . S
C473 N468 1.332 . S
C473 C472 1.382 . S
C473 H483 0.948 . S
N474 Co452 2.282 . S
N474 C478 1.332 . S
N474 C479 1.332 . S
C475 C476 1.388 . S
C475 C479 1.382 . S
C475 H498 0.950 . S
C476 C475 1.388 . S
C476 C477 1.386 . S
C477 C476 1.386 . S
C477 C478 1.382 . S
C477 H499 0.950 . S
C478 N474 1.332 . S
C478 C477 1.382 . S
C478 H480 0.952 . S
C479 N474 1.332 . S
C479 C475 1.382 . S
C479 H481 0.948 . S
H480 C478 0.952 . S
H481 C479 0.948 . S
H482 C471 0.952 . S
H483 C473 0.948 . S
C484 C450 1.395 . S
C484 C454 1.391 . S
C485 C447 1.389 . S
C485 C467 1.392 . S
C486 C457 1.392 . S
C486 C459 1.389 . S
C487 C462 1.422 . S
C487 C464 1.391 . S
H488 C448 0.951 . S
H489 C449 0.950 . S
H490 C455 0.949 . S
H491 C456 0.950 . S
H492 C460 0.951 . S
H493 C461 0.950 . S
H494 C465 0.949 . S
H495 C466 0.950 . S
H496 C470 0.950 . S
H497 C472 0.950 . S
H498 C475 0.950 . S
H499 C477 0.950 . S
C500 C501 1.443 . S
C500 N504 1.359 1_565 S
C500 C538 1.389 . S
C501 C500 1.443 . S
C501 C502 1.340 . S
C501 H541 0.951 . S
C502 C501 1.340 . S
C502 C503 1.439 1_565 S
C502 H542 0.950 . S
C503 C502 1.439 1_545 S
C503 N504 1.374 . S
C503 C537 1.395 . S
N504 C500 1.359 1_545 S
N504 C503 1.374 . S
N504 Co505 2.021 . S
Co505 N504 2.021 . S
Co505 N506 1.995 . S
Co505 N511 2.008 . S
Co505 N516 1.995 . S
Co505 N521 2.282 . S
Co505 N527 2.282 1_545 S
N506 Co505 1.995 . S
N506 C507 1.376 . S
N506 C510 1.383 . S
C507 N506 1.376 . S
C507 C508 1.446 . S
C507 C537 1.391 . S
C508 C507 1.446 . S
C508 C509 1.339 . S
C508 H543 0.949 . S
C509 C508 1.339 . S
C509 C510 1.439 . S
C509 H544 0.950 . S
C510 N506 1.383 . S
C510 C509 1.439 . S
C510 C539 1.392 . S
N511 Co505 2.008 . S
N511 C512 1.376 . S
N511 C515 1.374 . S
C512 N511 1.376 . S
C512 C513 1.443 . S
C512 C539 1.389 . S
C513 C512 1.443 . S
C513 C514 1.340 . S
C513 H545 0.951 . S
C514 C513 1.340 . S
C514 C515 1.439 . S
C514 H546 0.950 . S
C515 N511 1.374 . S
C515 C514 1.439 . S
C515 C540 1.395 . S
N516 Co505 1.995 . S
N516 C517 1.376 . S
N516 C520 1.383 1_545 S
C517 N516 1.376 . S
C517 C518 1.446 1_545 S
C517 C540 1.391 . S
C518 C517 1.446 1_565 S
C518 C519 1.339 . S
C518 H547 0.949 . S
C519 C518 1.339 . S
C519 C520 1.439 . S
C519 H548 0.950 . S
C520 N516 1.383 1_565 S
C520 C519 1.439 . S
C520 C538 1.392 . S
N521 Co505 2.282 . S
N521 C524 1.332 . S
N521 C526 1.332 . S
C522 C523 1.386 . S
C522 C525 1.388 . S
C523 C522 1.386 . S
C523 C524 1.382 . S
C523 H549 0.950 . S
C524 N521 1.332 . S
C524 C523 1.382 . S
C524 H535 0.952 . S
C525 C522 1.388 . S
C525 C526 1.382 . S
C525 H550 0.950 . S
C526 N521 1.332 . S
C526 C525 1.382 . S
C526 H536 0.948 . S
N527 Co505 2.282 1_565 S
N527 C531 1.332 . S
N527 C532 1.332 . S
C528 C529 1.388 . S
C528 C532 1.382 . S
C528 H551 0.950 . S
C529 C528 1.388 . S
C529 C530 1.386 . S
C530 C529 1.386 . S
C530 C531 1.382 . S
C530 H552 0.950 . S
C531 N527 1.332 . S
C531 C530 1.382 . S
C531 H533 0.952 . S
C532 N527 1.332 . S
C532 C528 1.382 . S
C532 H534 0.948 . S
H533 C531 0.952 . S
H534 C532 0.948 . S
H535 C524 0.952 . S
H536 C526 0.948 . S
C537 C503 1.395 . S
C537 C507 1.391 . S
C538 C500 1.389 . S
C538 C520 1.392 . S
C539 C510 1.392 . S
C539 C512 1.389 . S
C540 C515 1.395 . S
C540 C517 1.391 . S
H541 C501 0.951 . S
H542 C502 0.950 . S
H543 C508 0.949 . S
H544 C509 0.950 . S
H545 C513 0.951 . S
H546 C514 0.950 . S
H547 C518 0.949 . S
H548 C519 0.950 . S
H549 C523 0.950 . S
H550 C525 0.950 . S
H551 C528 0.950 . S
H552 C530 0.950 . S
C553 C554 1.443 . S
C553 N557 1.376 . S
C553 C591 1.389 . S
C554 C553 1.443 . S
C554 C555 1.340 . S
C554 H594 0.951 . S
C555 C554 1.340 . S
C555 C556 1.439 . S
C555 H595 0.950 . S
C556 C555 1.439 . S
C556 N557 1.374 . S
C556 C590 1.395 . S
N557 C553 1.376 . S
N557 C556 1.374 . S
N557 Co558 2.008 . S
Co558 N557 2.008 . S
Co558 N559 1.995 . S
Co558 N564 2.008 . S
Co558 N569 1.995 . S
Co558 N574 2.290 . S
Co558 N580 2.282 . S
N559 Co558 1.995 . S
N559 C560 1.376 . S
N559 C563 1.383 1_554 S
C560 N559 1.376 . S
C560 C561 1.446 1_554 S
C560 C590 1.391 . S
C561 C560 1.446 1_556 S
C561 C562 1.339 . S
C561 H596 0.949 . S
C562 C561 1.339 . S
C562 C563 1.439 . S
C562 H597 0.950 . S
C563 N559 1.383 1_556 S
C563 C562 1.439 . S
C563 C592 1.392 . S
N564 Co558 2.008 . S
N564 C565 1.376 1_554 S
N564 C568 1.374 . S
C565 N564 1.376 1_556 S
C565 C566 1.443 . S
C565 C592 1.389 . S
C566 C565 1.443 . S
C566 C567 1.340 . S
C566 H598 0.951 . S
C567 C566 1.340 . S
C567 C568 1.439 1_556 S
C567 H599 0.950 . S
C568 N564 1.374 . S
C568 C567 1.439 1_554 S
C568 C593 1.395 . S
N569 Co558 1.995 . S
N569 C570 1.376 . S
N569 C573 1.383 . S
C570 N569 1.376 . S
C570 C571 1.446 . S
C570 C593 1.391 . S
C571 C570 1.446 . S
C571 C572 1.339 . S
C571 H600 0.949 . S
C572 C571 1.339 . S
C572 C573 1.439 . S
C572 H601 0.950 . S
C573 N569 1.383 . S
C573 C572 1.439 . S
C573 C591 1.392 . S
N574 Co558 2.290 . S
N574 C577 1.329 1_554 S
N574 C579 1.326 1_554 S
C575 C576 1.386 . S
C575 C578 1.388 . S
C576 C575 1.386 . S
C576 C577 1.382 . S
C576 H602 0.950 . S
C577 N574 1.329 1_556 S
C577 C576 1.382 . S
C577 H588 0.952 1_556 S
C578 C575 1.388 . S
C578 C579 1.382 . S
C578 H603 0.950 . S
C579 N574 1.326 1_556 S
C579 C578 1.382 . S
C579 H589 0.948 . S
N580 Co558 2.282 . S
N580 C584 1.332 . S
N580 C585 1.332 . S
C581 C582 1.388 . S
C581 C585 1.382 . S
C581 H604 0.950 . S
C582 C581 1.388 . S
C582 C583 1.386 . S
C583 C582 1.386 . S
C583 C584 1.382 . S
C583 H605 0.950 . S
C584 N580 1.332 . S
C584 C583 1.382 . S
C584 H586 0.952 . S
C585 N580 1.332 . S
C585 C581 1.382 . S
C585 H587 0.948 . S
H586 C584 0.952 . S
H587 C585 0.948 . S
H588 C577 0.952 1_554 S
H589 C579 0.948 . S
C590 C556 1.395 . S
C590 C560 1.391 . S
C591 C553 1.389 . S
C591 C573 1.392 . S
C592 C563 1.392 . S
C592 C565 1.389 . S
C593 C568 1.395 . S
C593 C570 1.391 . S
H594 C554 0.951 . S
H595 C555 0.950 . S
H596 C561 0.949 . S
H597 C562 0.950 . S
H598 C566 0.951 . S
H599 C567 0.950 . S
H600 C571 0.949 . S
H601 C572 0.950 . S
H602 C576 0.950 . S
H603 C578 0.950 . S
H604 C581 0.950 . S
H605 C583 0.950 . S
H606 C624 0.951 . S
H607 C626 0.951 . S
H608 C628 0.950 . S
H609 C629 0.950 . S
H610 C631 0.950 . S
H611 C634 0.950 . S
H612 C635 0.950 . S
H613 C637 0.950 . S
H614 C638 0.950 . S
H615 C639 0.951 . S
H616 C641 0.951 . S
H617 C643 0.950 . S
H618 C644 0.950 . S
H619 C646 0.950 . S
H620 C649 0.950 . S
H621 C650 0.950 . S
H622 C652 0.950 . S
H623 C653 0.950 . S
C624 H606 0.951 . S
C624 C625 1.366 . S
C624 C626 1.388 . S
C625 C624 1.366 . S
C625 C629 1.385 . S
C626 H607 0.951 . S
C626 C624 1.388 . S
C626 C627 1.366 . S
C627 C626 1.366 . S
C627 C628 1.414 . S
C627 C630 1.499 . S
C628 H608 0.950 . S
C628 C627 1.414 . S
C628 C629 1.374 . S
C629 H609 0.950 . S
C629 C625 1.385 . S
C629 C628 1.374 . S
C630 C627 1.499 . S
C630 C631 1.373 . S
C630 C632 1.389 . S
C631 H610 0.950 . S
C631 C630 1.373 . S
C631 C647 1.377 . S
C632 C630 1.389 . S
C632 C633 1.524 . S
C632 C646 1.377 . S
C633 C632 1.524 . S
C633 C634 1.397 . S
C633 C638 1.363 . S
C634 H611 0.950 . S
C634 C633 1.397 . S
C634 C635 1.334 . S
C635 H612 0.950 . S
C635 C634 1.334 . S
C635 C636 1.287 . S
C636 C635 1.287 . S
C636 C637 1.524 . S
C636 H655 0.913 . S
C637 H613 0.950 . S
C637 C636 1.524 . S
C637 C638 1.415 . S
C638 H614 0.950 . S
C638 C633 1.363 . S
C638 C637 1.415 . S
C639 H615 0.951 . S
C639 C640 1.366 . S
C639 C641 1.388 . S
C640 C639 1.366 . S
C640 C644 1.385 . S
C641 H616 0.951 . S
C641 C639 1.388 . S
C641 C642 1.366 . S
C642 C641 1.366 . S
C642 C643 1.414 . S
C642 C645 1.499 . S
C643 H617 0.950 . S
C643 C642 1.414 . S
C643 C644 1.374 . S
C644 H618 0.950 . S
C644 C640 1.385 . S
C644 C643 1.374 . S
C645 C642 1.499 . S
C645 C646 1.373 . S
C645 C647 1.389 . S
C646 H619 0.950 . S
C646 C632 1.377 . S
C646 C645 1.373 . S
C647 C631 1.377 . S
C647 C645 1.389 . S
C647 C648 1.524 . S
C648 C647 1.524 . S
C648 C649 1.397 . S
C648 C653 1.363 . S
C649 H620 0.950 . S
C649 C648 1.397 . S
C649 C650 1.334 . S
C650 H621 0.950 . S
C650 C649 1.334 . S
C650 C651 1.287 . S
C651 C650 1.287 . S
C651 C652 1.524 . S
C651 H654 0.999 . S
C652 H622 0.950 . S
C652 C651 1.524 . S
C652 C653 1.415 . S
C653 H623 0.950 . S
C653 C648 1.363 . S
C653 C652 1.415 . S
H654 C651 0.999 . S
H655 C636 0.913 . S
H656 C674 0.951 . S
H657 C676 0.951 . S
H658 C678 0.950 . S
H659 C679 0.950 . S
H660 C681 0.950 . S
H661 C684 0.950 . S
H662 C685 0.950 . S
H663 C687 0.950 . S
H664 C688 0.950 . S
H665 C689 0.951 . S
H666 C691 0.951 . S
H667 C693 0.950 . S
H668 C694 0.950 . S
H669 C696 0.950 . S
H670 C699 0.950 . S
H671 C700 0.950 . S
H672 C702 0.950 . S
H673 C703 0.950 . S
C674 H656 0.951 . S
C674 C675 1.366 . S
C674 C676 1.388 . S
C675 C674 1.366 . S
C675 C679 1.385 . S
C676 H657 0.951 . S
C676 C674 1.388 . S
C676 C677 1.366 . S
C677 C676 1.366 . S
C677 C678 1.414 . S
C677 C680 1.499 . S
C678 H658 0.950 . S
C678 C677 1.414 . S
C678 C679 1.374 . S
C679 H659 0.950 . S
C679 C675 1.385 . S
C679 C678 1.374 . S
C680 C677 1.499 . S
C680 C681 1.373 . S
C680 C682 1.389 . S
C681 H660 0.950 . S
C681 C680 1.373 . S
C681 C697 1.377 . S
C682 C680 1.389 . S
C682 C683 1.524 . S
C682 C696 1.377 . S
C683 C682 1.524 . S
C683 C684 1.397 . S
C683 C688 1.363 . S
C684 H661 0.950 . S
C684 C683 1.397 . S
C684 C685 1.334 . S
C685 H662 0.950 . S
C685 C684 1.334 . S
C685 C686 1.287 . S
C686 C685 1.287 . S
C686 C687 1.524 . S
C686 H705 0.913 . S
C687 H663 0.950 . S
C687 C686 1.524 . S
C687 C688 1.415 . S
C688 H664 0.950 . S
C688 C683 1.363 . S
C688 C687 1.415 . S
C689 H665 0.951 . S
C689 C690 1.366 . S
C689 C691 1.388 . S
C690 C689 1.366 . S
C690 C694 1.385 . S
C691 H666 0.951 . S
C691 C689 1.388 . S
C691 C692 1.366 . S
C692 C691 1.366 . S
C692 C693 1.414 . S
C692 C695 1.499 . S
C693 H667 0.950 . S
C693 C692 1.414 . S
C693 C694 1.374 . S
C694 H668 0.950 . S
C694 C690 1.385 . S
C694 C693 1.374 . S
C695 C692 1.499 . S
C695 C696 1.373 . S
C695 C697 1.389 . S
C696 H669 0.950 . S
C696 C682 1.377 . S
C696 C695 1.373 . S
C697 C681 1.377 . S
C697 C695 1.389 . S
C697 C698 1.524 . S
C698 C697 1.524 . S
C698 C699 1.397 . S
C698 C703 1.363 . S
C699 H670 0.950 . S
C699 C698 1.397 . S
C699 C700 1.334 . S
C700 H671 0.950 . S
C700 C699 1.334 . S
C700 C701 1.287 . S
C701 C700 1.287 . S
C701 C702 1.524 . S
C701 H704 0.999 . S
C702 H672 0.950 . S
C702 C701 1.524 . S
C702 C703 1.415 . S
C703 H673 0.950 . S
C703 C698 1.363 . S
C703 C702 1.415 . S
H704 C701 0.999 . S
H705 C686 0.913 . S
H706 C724 0.951 . S
H707 C726 0.951 . S
H708 C728 0.950 . S
H709 C729 0.950 . S
H710 C731 0.950 . S
H711 C734 0.950 . S
H712 C735 0.950 . S
H713 C737 0.950 . S
H714 C738 0.950 . S
H715 C739 0.951 . S
H716 C741 0.951 . S
H717 C743 0.950 . S
H718 C744 0.950 . S
H719 C746 0.950 . S
H720 C749 0.950 . S
H721 C750 0.950 . S
H722 C752 0.950 . S
H723 C753 0.950 . S
C724 H706 0.951 . S
C724 C725 1.366 . S
C724 C726 1.388 . S
C725 C724 1.366 . S
C725 C729 1.385 . S
C726 H707 0.951 . S
C726 C724 1.388 . S
C726 C727 1.366 . S
C727 C726 1.366 . S
C727 C728 1.414 . S
C727 C730 1.499 . S
C728 H708 0.950 . S
C728 C727 1.414 . S
C728 C729 1.374 . S
C729 H709 0.950 . S
C729 C725 1.385 . S
C729 C728 1.374 . S
C730 C727 1.499 . S
C730 C731 1.373 . S
C730 C732 1.389 . S
C731 H710 0.950 . S
C731 C730 1.373 . S
C731 C747 1.377 . S
C732 C730 1.389 . S
C732 C733 1.524 . S
C732 C746 1.377 . S
C733 C732 1.524 . S
C733 C734 1.397 . S
C733 C738 1.363 . S
C734 H711 0.950 . S
C734 C733 1.397 . S
C734 C735 1.334 . S
C735 H712 0.950 . S
C735 C734 1.334 . S
C735 C736 1.287 . S
C736 C735 1.287 . S
C736 C737 1.524 . S
C736 H755 0.913 . S
C737 H713 0.950 . S
C737 C736 1.524 . S
C737 C738 1.415 . S
C738 H714 0.950 . S
C738 C733 1.363 . S
C738 C737 1.415 . S
C739 H715 0.951 . S
C739 C740 1.366 . S
C739 C741 1.388 . S
C740 C739 1.366 . S
C740 C744 1.385 . S
C741 H716 0.951 . S
C741 C739 1.388 . S
C741 C742 1.366 . S
C742 C741 1.366 . S
C742 C743 1.414 . S
C742 C745 1.499 . S
C743 H717 0.950 . S
C743 C742 1.414 . S
C743 C744 1.374 . S
C744 H718 0.950 . S
C744 C740 1.385 . S
C744 C743 1.374 . S
C745 C742 1.499 . S
C745 C746 1.373 . S
C745 C747 1.389 . S
C746 H719 0.950 . S
C746 C732 1.377 . S
C746 C745 1.373 . S
C747 C731 1.377 . S
C747 C745 1.389 . S
C747 C748 1.524 . S
C748 C747 1.524 . S
C748 C749 1.397 . S
C748 C753 1.363 . S
C749 H720 0.950 . S
C749 C748 1.397 . S
C749 C750 1.334 . S
C750 H721 0.950 . S
C750 C749 1.334 . S
C750 C751 1.287 . S
C751 C750 1.287 . S
C751 C752 1.524 . S
C751 H754 0.999 . S
C752 H722 0.950 . S
C752 C751 1.524 . S
C752 C753 1.415 . S
C753 H723 0.950 . S
C753 C748 1.363 . S
C753 C752 1.415 . S
H754 C751 0.999 . S
H755 C736 0.913 . S
H756 C774 0.951 . S
H757 C776 0.951 . S
H758 C778 0.950 . S
H759 C779 0.950 . S
H760 C781 0.950 . S
H761 C784 0.950 . S
H762 C785 0.950 . S
H763 C787 0.950 . S
H764 C788 0.950 . S
H765 C789 0.951 . S
H766 C791 0.951 . S
H767 C793 0.950 . S
H768 C794 0.950 . S
H769 C796 0.950 . S
H770 C799 0.950 . S
H771 C800 0.950 . S
H772 C802 0.950 . S
H773 C803 0.950 . S
C774 H756 0.951 . S
C774 C775 1.366 . S
C774 C776 1.388 . S
C775 C774 1.366 . S
C775 C779 1.385 . S
C776 H757 0.951 . S
C776 C774 1.388 . S
C776 C777 1.366 . S
C777 C776 1.366 . S
C777 C778 1.414 . S
C777 C780 1.499 . S
C778 H758 0.950 . S
C778 C777 1.414 . S
C778 C779 1.374 . S
C779 H759 0.950 . S
C779 C775 1.385 . S
C779 C778 1.374 . S
C780 C777 1.499 . S
C780 C781 1.373 . S
C780 C782 1.389 . S
C781 H760 0.950 . S
C781 C780 1.373 . S
C781 C797 1.377 . S
C782 C780 1.389 . S
C782 C783 1.524 . S
C782 C796 1.377 . S
C783 C782 1.524 . S
C783 C784 1.397 . S
C783 C788 1.363 . S
C784 H761 0.950 . S
C784 C783 1.397 . S
C784 C785 1.334 . S
C785 H762 0.950 . S
C785 C784 1.334 . S
C785 C786 1.287 . S
C786 C785 1.287 . S
C786 C787 1.524 . S
C786 H805 0.913 . S
C787 H763 0.950 . S
C787 C786 1.524 . S
C787 C788 1.415 . S
C788 H764 0.950 . S
C788 C783 1.363 . S
C788 C787 1.415 . S
C789 H765 0.951 . S
C789 C790 1.366 . S
C789 C791 1.388 . S
C790 C789 1.366 . S
C790 C794 1.385 . S
C791 H766 0.951 . S
C791 C789 1.388 . S
C791 C792 1.366 . S
C792 C791 1.366 . S
C792 C793 1.414 . S
C792 C795 1.499 . S
C793 H767 0.950 . S
C793 C792 1.414 . S
C793 C794 1.374 . S
C794 H768 0.950 . S
C794 C790 1.385 . S
C794 C793 1.374 . S
C795 C792 1.499 . S
C795 C796 1.373 . S
C795 C797 1.389 . S
C796 H769 0.950 . S
C796 C782 1.377 . S
C796 C795 1.373 . S
C797 C781 1.377 . S
C797 C795 1.389 . S
C797 C798 1.524 . S
C798 C797 1.524 . S
C798 C799 1.397 . S
C798 C803 1.363 . S
C799 H770 0.950 . S
C799 C798 1.397 . S
C799 C800 1.334 . S
C800 H771 0.950 . S
C800 C799 1.334 . S
C800 C801 1.287 . S
C801 C800 1.287 . S
C801 C802 1.524 . S
C801 H804 0.999 . S
C802 H772 0.950 . S
C802 C801 1.524 . S
C802 C803 1.415 . S
C803 H773 0.950 . S
C803 C798 1.363 . S
C803 C802 1.415 . S
H804 C801 0.999 . S
H805 C786 0.913 . S
H806 C824 0.951 . S
H807 C826 0.951 . S
H808 C828 0.950 . S
H809 C829 0.950 . S
H810 C831 0.950 . S
H811 C834 0.950 . S
H812 C835 0.950 . S
H813 C837 0.950 . S
H814 C838 0.950 . S
H815 C839 0.951 . S
H816 C841 0.951 . S
H817 C843 0.950 . S
H818 C844 0.950 . S
H819 C846 0.950 . S
H820 C849 0.950 . S
H821 C850 0.950 . S
H822 C852 0.950 . S
H823 C853 0.950 . S
C824 H806 0.951 . S
C824 C825 1.366 . S
C824 C826 1.388 . S
C825 C824 1.366 . S
C825 C829 1.385 . S
C826 H807 0.951 . S
C826 C824 1.388 . S
C826 C827 1.366 . S
C827 C826 1.366 . S
C827 C828 1.414 . S
C827 C830 1.499 . S
C828 H808 0.950 . S
C828 C827 1.414 . S
C828 C829 1.374 . S
C829 H809 0.950 . S
C829 C825 1.385 . S
C829 C828 1.374 . S
C830 C827 1.499 . S
C830 C831 1.373 . S
C830 C832 1.389 . S
C831 H810 0.950 . S
C831 C830 1.373 . S
C831 C847 1.377 . S
C832 C830 1.389 . S
C832 C833 1.524 . S
C832 C846 1.377 . S
C833 C832 1.524 . S
C833 C834 1.397 . S
C833 C838 1.363 . S
C834 H811 0.950 . S
C834 C833 1.397 . S
C834 C835 1.334 . S
C835 H812 0.950 . S
C835 C834 1.334 . S
C835 C836 1.287 . S
C836 C835 1.287 . S
C836 C837 1.524 . S
C836 H855 0.913 . S
C837 H813 0.950 . S
C837 C836 1.524 . S
C837 C838 1.415 . S
C838 H814 0.950 . S
C838 C833 1.363 . S
C838 C837 1.415 . S
C839 H815 0.951 . S
C839 C840 1.366 . S
C839 C841 1.388 . S
C840 C839 1.366 . S
C840 C844 1.385 . S
C841 H816 0.951 . S
C841 C839 1.388 . S
C841 C842 1.366 . S
C842 C841 1.366 . S
C842 C843 1.414 . S
C842 C845 1.499 . S
C843 H817 0.950 . S
C843 C842 1.414 . S
C843 C844 1.374 . S
C844 H818 0.950 . S
C844 C840 1.385 . S
C844 C843 1.374 . S
C845 C842 1.499 . S
C845 C846 1.373 . S
C845 C847 1.389 . S
C846 H819 0.950 . S
C846 C832 1.377 . S
C846 C845 1.373 . S
C847 C831 1.377 . S
C847 C845 1.389 . S
C847 C848 1.524 . S
C848 C847 1.524 . S
C848 C849 1.397 . S
C848 C853 1.363 . S
C849 H820 0.950 . S
C849 C848 1.397 . S
C849 C850 1.334 . S
C850 H821 0.950 . S
C850 C849 1.334 . S
C850 C851 1.287 . S
C851 C850 1.287 . S
C851 C852 1.524 . S
C851 H854 0.999 . S
C852 H822 0.950 . S
C852 C851 1.524 . S
C852 C853 1.415 . S
C853 H823 0.950 . S
C853 C848 1.363 . S
C853 C852 1.415 . S
H854 C851 0.999 . S
H855 C836 0.913 . S
H856 C874 0.951 . S
H857 C876 0.951 . S
H858 C878 0.950 . S
H859 C879 0.950 . S
H860 C881 0.950 . S
H861 C884 0.950 . S
H862 C885 0.950 . S
H863 C887 0.950 . S
H864 C888 0.950 . S
H865 C889 0.951 . S
H866 C891 0.951 . S
H867 C893 0.950 . S
H868 C894 0.950 . S
H869 C896 0.950 . S
H870 C899 0.950 . S
H871 C900 0.950 . S
H872 C902 0.950 . S
H873 C903 0.950 . S
C874 H856 0.951 . S
C874 C875 1.366 . S
C874 C876 1.388 . S
C875 C874 1.366 . S
C875 C879 1.385 . S
C876 H857 0.951 . S
C876 C874 1.388 . S
C876 C877 1.366 . S
C877 C876 1.366 . S
C877 C878 1.414 . S
C877 C880 1.499 . S
C878 H858 0.950 . S
C878 C877 1.414 . S
C878 C879 1.374 . S
C879 H859 0.950 . S
C879 C875 1.385 . S
C879 C878 1.374 . S
C880 C877 1.499 . S
C880 C881 1.373 . S
C880 C882 1.389 . S
C881 H860 0.950 . S
C881 C880 1.373 . S
C881 C897 1.377 . S
C882 C880 1.389 . S
C882 C883 1.524 . S
C882 C896 1.377 . S
C883 C882 1.524 . S
C883 C884 1.397 . S
C883 C888 1.363 . S
C884 H861 0.950 . S
C884 C883 1.397 . S
C884 C885 1.334 . S
C885 H862 0.950 . S
C885 C884 1.334 . S
C885 C886 1.287 . S
C886 C885 1.287 . S
C886 C887 1.524 . S
C886 H905 0.913 . S
C887 H863 0.950 . S
C887 C886 1.524 . S
C887 C888 1.415 . S
C888 H864 0.950 . S
C888 C883 1.363 . S
C888 C887 1.415 . S
C889 H865 0.951 . S
C889 C890 1.366 . S
C889 C891 1.388 . S
C890 C889 1.366 . S
C890 C894 1.385 . S
C891 H866 0.951 . S
C891 C889 1.388 . S
C891 C892 1.366 . S
C892 C891 1.366 . S
C892 C893 1.414 . S
C892 C895 1.499 . S
C893 H867 0.950 . S
C893 C892 1.414 . S
C893 C894 1.374 . S
C894 H868 0.950 . S
C894 C890 1.385 . S
C894 C893 1.374 . S
C895 C892 1.499 . S
C895 C896 1.373 . S
C895 C897 1.389 . S
C896 H869 0.950 . S
C896 C882 1.377 . S
C896 C895 1.373 . S
C897 C881 1.377 . S
C897 C895 1.389 . S
C897 C898 1.524 . S
C898 C897 1.524 . S
C898 C899 1.397 . S
C898 C903 1.363 . S
C899 H870 0.950 . S
C899 C898 1.397 . S
C899 C900 1.334 . S
C900 H871 0.950 . S
C900 C899 1.334 . S
C900 C901 1.287 . S
C901 C900 1.287 . S
C901 C902 1.524 . S
C901 H904 0.999 . S
C902 H872 0.950 . S
C902 C901 1.524 . S
C902 C903 1.415 . S
C903 H873 0.950 . S
C903 C898 1.363 . S
C903 C902 1.415 . S
H904 C901 0.999 . S
H905 C886 0.913 . S
H906 C924 0.951 . S
H907 C926 0.951 . S
H908 C928 0.950 . S
H909 C929 0.950 . S
H910 C931 0.950 . S
H911 C934 0.950 . S
H912 C935 0.950 . S
H913 C937 0.950 . S
H914 C938 0.950 . S
H915 C939 0.951 . S
H916 C941 0.951 . S
H917 C943 0.950 . S
H918 C944 0.950 . S
H919 C946 0.950 . S
H920 C949 0.950 . S
H921 C950 0.950 . S
H922 C952 0.950 . S
H923 C953 0.950 . S
C924 H906 0.951 . S
C924 C925 1.366 . S
C924 C926 1.388 . S
C925 C924 1.366 . S
C925 C929 1.385 . S
C926 H907 0.951 . S
C926 C924 1.388 . S
C926 C927 1.366 . S
C927 C926 1.366 . S
C927 C928 1.414 . S
C927 C930 1.499 . S
C928 H908 0.950 . S
C928 C927 1.414 . S
C928 C929 1.374 . S
C929 H909 0.950 . S
C929 C925 1.385 . S
C929 C928 1.374 . S
C930 C927 1.499 . S
C930 C931 1.373 . S
C930 C932 1.389 . S
C931 H910 0.950 . S
C931 C930 1.373 . S
C931 C947 1.377 . S
C932 C930 1.389 . S
C932 C933 1.524 . S
C932 C946 1.377 . S
C933 C932 1.524 . S
C933 C934 1.397 . S
C933 C938 1.363 . S
C934 H911 0.950 . S
C934 C933 1.397 . S
C934 C935 1.334 . S
C935 H912 0.950 . S
C935 C934 1.334 . S
C935 C936 1.287 . S
C936 C935 1.287 . S
C936 C937 1.524 . S
C936 H955 0.913 . S
C937 H913 0.950 . S
C937 C936 1.524 . S
C937 C938 1.415 . S
C938 H914 0.950 . S
C938 C933 1.363 . S
C938 C937 1.415 . S
C939 H915 0.951 . S
C939 C940 1.366 . S
C939 C941 1.388 . S
C940 C939 1.366 . S
C940 C944 1.385 . S
C941 H916 0.951 . S
C941 C939 1.388 . S
C941 C942 1.366 . S
C942 C941 1.366 . S
C942 C943 1.414 . S
C942 C945 1.499 . S
C943 H917 0.950 . S
C943 C942 1.414 . S
C943 C944 1.374 . S
C944 H918 0.950 . S
C944 C940 1.385 . S
C944 C943 1.374 . S
C945 C942 1.499 . S
C945 C946 1.373 . S
C945 C947 1.389 . S
C946 H919 0.950 . S
C946 C932 1.377 . S
C946 C945 1.373 . S
C947 C931 1.377 . S
C947 C945 1.389 . S
C947 C948 1.524 . S
C948 C947 1.524 . S
C948 C949 1.397 . S
C948 C953 1.363 . S
C949 H920 0.950 . S
C949 C948 1.397 . S
C949 C950 1.334 . S
C950 H921 0.950 . S
C950 C949 1.334 . S
C950 C951 1.287 . S
C951 C950 1.287 . S
C951 C952 1.524 . S
C951 H954 0.999 . S
C952 H922 0.950 . S
C952 C951 1.524 . S
C952 C953 1.415 . S
C953 H923 0.950 . S
C953 C948 1.363 . S
C953 C952 1.415 . S
H954 C951 0.999 . S
H955 C936 0.913 . S
H956 C974 0.951 . S
H957 C976 0.951 . S
H958 C978 0.950 . S
H959 C979 0.950 . S
H960 C981 0.950 . S
H961 C984 0.950 . S
H962 C985 0.950 . S
H963 C987 0.950 . S
H964 C988 0.950 . S
H965 C989 0.951 . S
H966 C991 0.951 . S
H967 C993 0.950 . S
H968 C994 0.950 . S
H969 C996 0.950 . S
H970 C999 0.950 . S
H971 C1000 0.950 . S
H972 C1002 0.950 . S
H973 C1003 0.950 . S
C974 H956 0.951 . S
C974 C975 1.366 . S
C974 C976 1.388 . S
C975 C974 1.366 . S
C975 C979 1.385 . S
C976 H957 0.951 . S
C976 C974 1.388 . S
C976 C977 1.366 . S
C977 C976 1.366 . S
C977 C978 1.414 . S
C977 C980 1.499 . S
C978 H958 0.950 . S
C978 C977 1.414 . S
C978 C979 1.374 . S
C979 H959 0.950 . S
C979 C975 1.385 . S
C979 C978 1.374 . S
C980 C977 1.499 . S
C980 C981 1.373 . S
C980 C982 1.389 . S
C981 H960 0.950 . S
C981 C980 1.373 . S
C981 C997 1.377 . S
C982 C980 1.389 . S
C982 C983 1.524 . S
C982 C996 1.377 . S
C983 C982 1.524 . S
C983 C984 1.397 . S
C983 C988 1.363 . S
C984 H961 0.950 . S
C984 C983 1.397 . S
C984 C985 1.334 . S
C985 H962 0.950 . S
C985 C984 1.334 . S
C985 C986 1.287 . S
C986 C985 1.287 . S
C986 C987 1.524 . S
C986 H1005 0.913 . S
C987 H963 0.950 . S
C987 C986 1.524 . S
C987 C988 1.415 . S
C988 H964 0.950 . S
C988 C983 1.363 . S
C988 C987 1.415 . S
C989 H965 0.951 . S
C989 C990 1.366 . S
C989 C991 1.388 . S
C990 C989 1.366 . S
C990 C994 1.385 . S
C991 H966 0.951 . S
C991 C989 1.388 . S
C991 C992 1.366 . S
C992 C991 1.366 . S
C992 C993 1.414 . S
C992 C995 1.499 . S
C993 H967 0.950 . S
C993 C992 1.414 . S
C993 C994 1.374 . S
C994 H968 0.950 . S
C994 C990 1.385 . S
C994 C993 1.374 . S
C995 C992 1.499 . S
C995 C996 1.373 . S
C995 C997 1.389 . S
C996 H969 0.950 . S
C996 C982 1.377 . S
C996 C995 1.373 . S
C997 C981 1.377 . S
C997 C995 1.389 . S
C997 C998 1.524 . S
C998 C997 1.524 . S
C998 C999 1.397 . S
C998 C1003 1.363 . S
C999 H970 0.950 . S
C999 C998 1.397 . S
C999 C1000 1.334 . S
C1000 H971 0.950 . S
C1000 C999 1.334 . S
C1000 C1001 1.287 . S
C1001 C1000 1.287 . S
C1001 C1002 1.524 . S
C1001 H1004 0.999 . S
C1002 H972 0.950 . S
C1002 C1001 1.524 . S
C1002 C1003 1.415 . S
C1003 H973 0.950 . S
C1003 C998 1.363 . S
C1003 C1002 1.415 . S
H1004 C1001 0.999 . S
H1005 C986 0.913 . S
H1006 C1024 0.951 . S
H1007 C1026 0.951 . S
H1008 C1028 0.950 . S
H1009 C1029 0.950 . S
H1010 C1031 0.950 . S
H1011 C1034 0.950 . S
H1012 C1035 0.950 . S
H1013 C1037 0.950 . S
H1014 C1038 0.950 . S
H1015 C1039 0.951 . S
H1016 C1041 0.951 . S
H1017 C1043 0.950 . S
H1018 C1044 0.950 . S
H1019 C1046 0.950 . S
H1020 C1049 0.950 . S
H1021 C1050 0.950 . S
H1022 C1052 0.950 . S
H1023 C1053 0.950 . S
C1024 H1006 0.951 . S
C1024 C1025 1.366 . S
C1024 C1026 1.388 . S
C1025 C1024 1.366 . S
C1025 C1029 1.385 . S
C1026 H1007 0.951 . S
C1026 C1024 1.388 . S
C1026 C1027 1.366 . S
C1027 C1026 1.366 . S
C1027 C1028 1.414 . S
C1027 C1030 1.499 . S
C1028 H1008 0.950 . S
C1028 C1027 1.414 . S
C1028 C1029 1.374 . S
C1029 H1009 0.950 . S
C1029 C1025 1.385 . S
C1029 C1028 1.374 . S
C1030 C1027 1.499 . S
C1030 C1031 1.373 . S
C1030 C1032 1.389 . S
C1031 H1010 0.950 . S
C1031 C1030 1.373 . S
C1031 C1047 1.377 . S
C1032 C1030 1.389 . S
C1032 C1033 1.524 . S
C1032 C1046 1.377 . S
C1033 C1032 1.524 . S
C1033 C1034 1.397 . S
C1033 C1038 1.363 . S
C1034 H1011 0.950 . S
C1034 C1033 1.397 . S
C1034 C1035 1.334 . S
C1035 H1012 0.950 . S
C1035 C1034 1.334 . S
C1035 C1036 1.287 . S
C1036 C1035 1.287 . S
C1036 C1037 1.524 . S
C1036 H1055 0.913 . S
C1037 H1013 0.950 . S
C1037 C1036 1.524 . S
C1037 C1038 1.415 . S
C1038 H1014 0.950 . S
C1038 C1033 1.363 . S
C1038 C1037 1.415 . S
C1039 H1015 0.951 . S
C1039 C1040 1.366 . S
C1039 C1041 1.388 . S
C1040 C1039 1.366 . S
C1040 C1044 1.385 . S
C1041 H1016 0.951 . S
C1041 C1039 1.388 . S
C1041 C1042 1.366 . S
C1042 C1041 1.366 . S
C1042 C1043 1.414 . S
C1042 C1045 1.499 . S
C1043 H1017 0.950 . S
C1043 C1042 1.414 . S
C1043 C1044 1.374 . S
C1044 H1018 0.950 . S
C1044 C1040 1.385 . S
C1044 C1043 1.374 . S
C1045 C1042 1.499 . S
C1045 C1046 1.373 . S
C1045 C1047 1.389 . S
C1046 H1019 0.950 . S
C1046 C1032 1.377 . S
C1046 C1045 1.373 . S
C1047 C1031 1.377 . S
C1047 C1045 1.389 . S
C1047 C1048 1.524 . S
C1048 C1047 1.524 . S
C1048 C1049 1.397 . S
C1048 C1053 1.363 . S
C1049 H1020 0.950 . S
C1049 C1048 1.397 . S
C1049 C1050 1.334 . S
C1050 H1021 0.950 . S
C1050 C1049 1.334 . S
C1050 C1051 1.287 . S
C1051 C1050 1.287 . S
C1051 C1052 1.524 . S
C1051 H1054 0.999 . S
C1052 H1022 0.950 . S
C1052 C1051 1.524 . S
C1052 C1053 1.415 . S
C1053 H1023 0.950 . S
C1053 C1048 1.363 . S
C1053 C1052 1.415 . S
H1054 C1051 0.999 . S
H1055 C1036 0.913 . S
H1056 C1074 0.951 . S
H1057 C1076 0.951 . S
H1058 C1078 0.950 . S
H1059 C1079 0.950 . S
H1060 C1081 0.950 . S
H1061 C1084 0.950 . S
H1062 C1085 0.950 . S
H1063 C1087 0.950 . S
H1064 C1088 0.950 . S
H1065 C1089 0.951 . S
H1066 C1091 0.951 . S
H1067 C1093 0.950 . S
H1068 C1094 0.950 . S
H1069 C1096 0.950 . S
H1070 C1099 0.950 . S
H1071 C1100 0.950 . S
H1072 C1102 0.950 . S
H1073 C1103 0.950 . S
C1074 H1056 0.951 . S
C1074 C1075 1.366 . S
C1074 C1076 1.388 . S
C1075 C1074 1.366 . S
C1075 C1079 1.385 . S
C1076 H1057 0.951 . S
C1076 C1074 1.388 . S
C1076 C1077 1.366 . S
C1077 C1076 1.366 . S
C1077 C1078 1.414 . S
C1077 C1080 1.499 . S
C1078 H1058 0.950 . S
C1078 C1077 1.414 . S
C1078 C1079 1.374 . S
C1079 H1059 0.950 . S
C1079 C1075 1.385 . S
C1079 C1078 1.374 . S
C1080 C1077 1.499 . S
C1080 C1081 1.373 . S
C1080 C1082 1.389 . S
C1081 H1060 0.950 . S
C1081 C1080 1.373 . S
C1081 C1097 1.377 . S
C1082 C1080 1.389 . S
C1082 C1083 1.524 . S
C1082 C1096 1.377 . S
C1083 C1082 1.524 . S
C1083 C1084 1.397 . S
C1083 C1088 1.363 . S
C1084 H1061 0.950 . S
C1084 C1083 1.397 . S
C1084 C1085 1.334 . S
C1085 H1062 0.950 . S
C1085 C1084 1.334 . S
C1085 C1086 1.287 . S
C1086 C1085 1.287 . S
C1086 C1087 1.524 . S
C1086 H1105 0.913 . S
C1087 H1063 0.950 . S
C1087 C1086 1.524 . S
C1087 C1088 1.415 . S
C1088 H1064 0.950 . S
C1088 C1083 1.363 . S
C1088 C1087 1.415 . S
C1089 H1065 0.951 . S
C1089 C1090 1.366 . S
C1089 C1091 1.388 . S
C1090 C1089 1.366 . S
C1090 C1094 1.385 . S
C1091 H1066 0.951 . S
C1091 C1089 1.388 . S
C1091 C1092 1.366 . S
C1092 C1091 1.366 . S
C1092 C1093 1.414 . S
C1092 C1095 1.499 . S
C1093 H1067 0.950 . S
C1093 C1092 1.414 . S
C1093 C1094 1.374 . S
C1094 H1068 0.950 . S
C1094 C1090 1.385 . S
C1094 C1093 1.374 . S
C1095 C1092 1.499 . S
C1095 C1096 1.373 . S
C1095 C1097 1.389 . S
C1096 H1069 0.950 . S
C1096 C1082 1.377 . S
C1096 C1095 1.373 . S
C1097 C1081 1.377 . S
C1097 C1095 1.389 . S
C1097 C1098 1.524 . S
C1098 C1097 1.524 . S
C1098 C1099 1.397 . S
C1098 C1103 1.363 . S
C1099 H1070 0.950 . S
C1099 C1098 1.397 . S
C1099 C1100 1.334 . S
C1100 H1071 0.950 . S
C1100 C1099 1.334 . S
C1100 C1101 1.287 . S
C1101 C1100 1.287 . S
C1101 C1102 1.524 . S
C1101 H1104 0.999 . S
C1102 H1072 0.950 . S
C1102 C1101 1.524 . S
C1102 C1103 1.415 . S
C1103 H1073 0.950 . S
C1103 C1098 1.363 . S
C1103 C1102 1.415 . S
H1104 C1101 0.999 . S
H1105 C1086 0.913 . S
H1106 C1124 0.951 . S
H1107 C1126 0.951 . S
H1108 C1128 0.950 . S
H1109 C1129 0.950 . S
H1110 C1131 0.950 . S
H1111 C1134 0.950 . S
H1112 C1135 0.950 . S
H1113 C1137 0.950 . S
H1114 C1138 0.950 . S
H1115 C1139 0.951 . S
H1116 C1141 0.951 . S
H1117 C1143 0.950 . S
H1118 C1144 0.950 . S
H1119 C1146 0.950 . S
H1120 C1149 0.950 . S
H1121 C1150 0.950 . S
H1122 C1152 0.950 . S
H1123 C1153 0.950 . S
C1124 H1106 0.951 . S
C1124 C1125 1.366 . S
C1124 C1126 1.388 . S
C1125 C1124 1.366 . S
C1125 C1129 1.385 . S
C1126 H1107 0.951 . S
C1126 C1124 1.388 . S
C1126 C1127 1.366 . S
C1127 C1126 1.366 . S
C1127 C1128 1.414 . S
C1127 C1130 1.499 . S
C1128 H1108 0.950 . S
C1128 C1127 1.414 . S
C1128 C1129 1.374 . S
C1129 H1109 0.950 . S
C1129 C1125 1.385 . S
C1129 C1128 1.374 . S
C1130 C1127 1.499 . S
C1130 C1131 1.373 . S
C1130 C1132 1.389 . S
C1131 H1110 0.950 . S
C1131 C1130 1.373 . S
C1131 C1147 1.377 . S
C1132 C1130 1.389 . S
C1132 C1133 1.524 . S
C1132 C1146 1.377 . S
C1133 C1132 1.524 . S
C1133 C1134 1.397 . S
C1133 C1138 1.363 . S
C1134 H1111 0.950 . S
C1134 C1133 1.397 . S
C1134 C1135 1.334 . S
C1135 H1112 0.950 . S
C1135 C1134 1.334 . S
C1135 C1136 1.287 . S
C1136 C1135 1.287 . S
C1136 C1137 1.524 . S
C1136 H1155 0.913 . S
C1137 H1113 0.950 . S
C1137 C1136 1.524 . S
C1137 C1138 1.415 . S
C1138 H1114 0.950 . S
C1138 C1133 1.363 . S
C1138 C1137 1.415 . S
C1139 H1115 0.951 . S
C1139 C1140 1.366 . S
C1139 C1141 1.388 . S
C1140 C1139 1.366 . S
C1140 C1144 1.385 . S
C1141 H1116 0.951 . S
C1141 C1139 1.388 . S
C1141 C1142 1.366 . S
C1142 C1141 1.366 . S
C1142 C1143 1.414 . S
C1142 C1145 1.499 . S
C1143 H1117 0.950 . S
C1143 C1142 1.414 . S
C1143 C1144 1.374 . S
C1144 H1118 0.950 . S
C1144 C1140 1.385 . S
C1144 C1143 1.374 . S
C1145 C1142 1.499 . S
C1145 C1146 1.373 . S
C1145 C1147 1.389 . S
C1146 H1119 0.950 . S
C1146 C1132 1.377 . S
C1146 C1145 1.373 . S
C1147 C1131 1.377 . S
C1147 C1145 1.389 . S
C1147 C1148 1.524 . S
C1148 C1147 1.524 . S
C1148 C1149 1.397 . S
C1148 C1153 1.363 . S
C1149 H1120 0.950 . S
C1149 C1148 1.397 . S
C1149 C1150 1.334 . S
C1150 H1121 0.950 . S
C1150 C1149 1.334 . S
C1150 C1151 1.287 . S
C1151 C1150 1.287 . S
C1151 C1152 1.524 . S
C1151 H1154 0.999 . S
C1152 H1122 0.950 . S
C1152 C1151 1.524 . S
C1152 C1153 1.415 . S
C1153 H1123 0.950 . S
C1153 C1148 1.363 . S
C1153 C1152 1.415 . S
H1154 C1151 0.999 . S
H1155 C1136 0.913 . S
H1156 C1174 0.951 . S
H1157 C1176 0.951 . S
H1158 C1178 0.950 . S
H1159 C1179 0.950 . S
H1160 C1181 0.950 . S
H1161 C1184 0.950 . S
H1162 C1185 0.950 . S
H1163 C1187 0.950 . S
H1164 C1188 0.950 . S
H1165 C1189 0.951 . S
H1166 C1191 0.951 . S
H1167 C1193 0.950 . S
H1168 C1194 0.950 . S
H1169 C1196 0.950 . S
H1170 C1199 0.950 . S
H1171 C1200 0.950 . S
H1172 C1202 0.950 . S
H1173 C1203 0.950 . S
C1174 H1156 0.951 . S
C1174 C1175 1.366 . S
C1174 C1176 1.388 . S
C1175 C1174 1.366 . S
C1175 C1179 1.385 . S
C1176 H1157 0.951 . S
C1176 C1174 1.388 . S
C1176 C1177 1.366 . S
C1177 C1176 1.366 . S
C1177 C1178 1.414 . S
C1177 C1180 1.499 . S
C1178 H1158 0.950 . S
C1178 C1177 1.414 . S
C1178 C1179 1.374 . S
C1179 H1159 0.950 . S
C1179 C1175 1.385 . S
C1179 C1178 1.374 . S
C1180 C1177 1.499 . S
C1180 C1181 1.373 . S
C1180 C1182 1.389 . S
C1181 H1160 0.950 . S
C1181 C1180 1.373 . S
C1181 C1197 1.377 . S
C1182 C1180 1.389 . S
C1182 C1183 1.524 . S
C1182 C1196 1.377 . S
C1183 C1182 1.524 . S
C1183 C1184 1.397 . S
C1183 C1188 1.363 . S
C1184 H1161 0.950 . S
C1184 C1183 1.397 . S
C1184 C1185 1.334 . S
C1185 H1162 0.950 . S
C1185 C1184 1.334 . S
C1185 C1186 1.287 . S
C1186 C1185 1.287 . S
C1186 C1187 1.524 . S
C1186 H1205 0.913 . S
C1187 H1163 0.950 . S
C1187 C1186 1.524 . S
C1187 C1188 1.415 . S
C1188 H1164 0.950 . S
C1188 C1183 1.363 . S
C1188 C1187 1.415 . S
C1189 H1165 0.951 . S
C1189 C1190 1.366 . S
C1189 C1191 1.388 . S
C1190 C1189 1.366 . S
C1190 C1194 1.385 . S
C1191 H1166 0.951 . S
C1191 C1189 1.388 . S
C1191 C1192 1.366 . S
C1192 C1191 1.366 . S
C1192 C1193 1.414 . S
C1192 C1195 1.499 . S
C1193 H1167 0.950 . S
C1193 C1192 1.414 . S
C1193 C1194 1.374 . S
C1194 H1168 0.950 . S
C1194 C1190 1.385 . S
C1194 C1193 1.374 . S
C1195 C1192 1.499 . S
C1195 C1196 1.373 . S
C1195 C1197 1.389 . S
C1196 H1169 0.950 . S
C1196 C1182 1.377 . S
C1196 C1195 1.373 . S
C1197 C1181 1.377 . S
C1197 C1195 1.389 . S
C1197 C1198 1.524 . S
C1198 C1197 1.524 . S
C1198 C1199 1.397 . S
C1198 C1203 1.363 . S
C1199 H1170 0.950 . S
C1199 C1198 1.397 . S
C1199 C1200 1.334 . S
C1200 H1171 0.950 . S
C1200 C1199 1.334 . S
C1200 C1201 1.287 . S
C1201 C1200 1.287 . S
C1201 C1202 1.524 . S
C1201 H1204 0.999 . S
C1202 H1172 0.950 . S
C1202 C1201 1.524 . S
C1202 C1203 1.415 . S
C1203 H1173 0.950 . S
C1203 C1198 1.363 . S
C1203 C1202 1.415 . S
H1204 C1201 0.999 . S
H1205 C1186 0.913 . S
H1206 C1224 0.951 . S
H1207 C1226 0.951 . S
H1208 C1228 0.950 . S
H1209 C1229 0.950 . S
H1210 C1231 0.950 . S
H1211 C1234 0.950 . S
H1212 C1235 0.950 . S
H1213 C1237 0.950 . S
H1214 C1238 0.950 . S
H1215 C1239 0.951 . S
H1216 C1241 0.951 . S
H1217 C1243 0.950 . S
H1218 C1244 0.950 . S
H1219 C1246 0.950 . S
H1220 C1249 0.950 . S
H1221 C1250 0.950 . S
H1222 C1252 0.950 . S
H1223 C1253 0.950 . S
C1224 H1206 0.951 . S
C1224 C1225 1.366 . S
C1224 C1226 1.388 . S
C1225 C1224 1.366 . S
C1225 C1229 1.385 . S
C1226 H1207 0.951 . S
C1226 C1224 1.388 . S
C1226 C1227 1.366 . S
C1227 C1226 1.366 . S
C1227 C1228 1.414 . S
C1227 C1230 1.499 . S
C1228 H1208 0.950 . S
C1228 C1227 1.414 . S
C1228 C1229 1.374 . S
C1229 H1209 0.950 . S
C1229 C1225 1.385 . S
C1229 C1228 1.374 . S
C1230 C1227 1.499 . S
C1230 C1231 1.373 . S
C1230 C1232 1.389 . S
C1231 H1210 0.950 . S
C1231 C1230 1.373 . S
C1231 C1247 1.377 . S
C1232 C1230 1.389 . S
C1232 C1233 1.524 . S
C1232 C1246 1.377 . S
C1233 C1232 1.524 . S
C1233 C1234 1.397 . S
C1233 C1238 1.363 . S
C1234 H1211 0.950 . S
C1234 C1233 1.397 . S
C1234 C1235 1.334 . S
C1235 H1212 0.950 . S
C1235 C1234 1.334 . S
C1235 C1236 1.287 . S
C1236 C1235 1.287 . S
C1236 C1237 1.524 . S
C1236 H1255 0.913 . S
C1237 H1213 0.950 . S
C1237 C1236 1.524 . S
C1237 C1238 1.415 . S
C1238 H1214 0.950 . S
C1238 C1233 1.363 . S
C1238 C1237 1.415 . S
C1239 H1215 0.951 . S
C1239 C1240 1.366 . S
C1239 C1241 1.388 . S
C1240 C1239 1.366 . S
C1240 C1244 1.385 . S
C1241 H1216 0.951 . S
C1241 C1239 1.388 . S
C1241 C1242 1.366 . S
C1242 C1241 1.366 . S
C1242 C1243 1.414 . S
C1242 C1245 1.499 . S
C1243 H1217 0.950 . S
C1243 C1242 1.414 . S
C1243 C1244 1.374 . S
C1244 H1218 0.950 . S
C1244 C1240 1.385 . S
C1244 C1243 1.374 . S
C1245 C1242 1.499 . S
C1245 C1246 1.373 . S
C1245 C1247 1.389 . S
C1246 H1219 0.950 . S
C1246 C1232 1.377 . S
C1246 C1245 1.373 . S
C1247 C1231 1.377 . S
C1247 C1245 1.389 . S
C1247 C1248 1.524 . S
C1248 C1247 1.524 . S
C1248 C1249 1.397 . S
C1248 C1253 1.363 . S
C1249 H1220 0.950 . S
C1249 C1248 1.397 . S
C1249 C1250 1.334 . S
C1250 H1221 0.950 . S
C1250 C1249 1.334 . S
C1250 C1251 1.287 . S
C1251 C1250 1.287 . S
C1251 C1252 1.524 . S
C1251 H1254 0.999 . S
C1252 H1222 0.950 . S
C1252 C1251 1.524 . S
C1252 C1253 1.415 . S
C1253 H1223 0.950 . S
C1253 C1248 1.363 . S
C1253 C1252 1.415 . S
H1254 C1251 0.999 . S
H1255 C1236 0.913 . S
H1256 C1274 0.951 . S
H1257 C1276 0.951 . S
H1258 C1278 0.950 . S
H1259 C1279 0.950 . S
H1260 C1281 0.950 . S
H1261 C1284 0.950 . S
H1262 C1285 0.950 . S
H1263 C1287 0.950 . S
H1264 C1288 0.950 . S
H1265 C1289 0.951 . S
H1266 C1291 0.951 . S
H1267 C1293 0.950 . S
H1268 C1294 0.950 . S
H1269 C1296 0.950 . S
H1270 C1299 0.950 . S
H1271 C1300 0.950 . S
H1272 C1302 0.950 . S
H1273 C1303 0.950 . S
C1274 H1256 0.951 . S
C1274 C1275 1.366 . S
C1274 C1276 1.388 . S
C1275 C1274 1.366 . S
C1275 C1279 1.385 . S
C1276 H1257 0.951 . S
C1276 C1274 1.388 . S
C1276 C1277 1.366 . S
C1277 C1276 1.366 . S
C1277 C1278 1.414 . S
C1277 C1280 1.499 . S
C1278 H1258 0.950 . S
C1278 C1277 1.414 . S
C1278 C1279 1.374 . S
C1279 H1259 0.950 . S
C1279 C1275 1.385 . S
C1279 C1278 1.374 . S
C1280 C1277 1.499 . S
C1280 C1281 1.373 . S
C1280 C1282 1.389 . S
C1281 H1260 0.950 . S
C1281 C1280 1.373 . S
C1281 C1297 1.377 . S
C1282 C1280 1.389 . S
C1282 C1283 1.524 . S
C1282 C1296 1.377 . S
C1283 C1282 1.524 . S
C1283 C1284 1.397 . S
C1283 C1288 1.363 . S
C1284 H1261 0.950 . S
C1284 C1283 1.397 . S
C1284 C1285 1.334 . S
C1285 H1262 0.950 . S
C1285 C1284 1.334 . S
C1285 C1286 1.287 . S
C1286 C1285 1.287 . S
C1286 C1287 1.524 . S
C1286 H1305 0.913 . S
C1287 H1263 0.950 . S
C1287 C1286 1.524 . S
C1287 C1288 1.415 . S
C1288 H1264 0.950 . S
C1288 C1283 1.363 . S
C1288 C1287 1.415 . S
C1289 H1265 0.951 . S
C1289 C1290 1.366 . S
C1289 C1291 1.388 . S
C1290 C1289 1.366 . S
C1290 C1294 1.385 . S
C1291 H1266 0.951 . S
C1291 C1289 1.388 . S
C1291 C1292 1.366 . S
C1292 C1291 1.366 . S
C1292 C1293 1.414 . S
C1292 C1295 1.499 . S
C1293 H1267 0.950 . S
C1293 C1292 1.414 . S
C1293 C1294 1.374 . S
C1294 H1268 0.950 . S
C1294 C1290 1.385 . S
C1294 C1293 1.374 . S
C1295 C1292 1.499 . S
C1295 C1296 1.373 . S
C1295 C1297 1.389 . S
C1296 H1269 0.950 . S
C1296 C1282 1.377 . S
C1296 C1295 1.373 . S
C1297 C1281 1.377 . S
C1297 C1295 1.389 . S
C1297 C1298 1.524 . S
C1298 C1297 1.524 . S
C1298 C1299 1.397 . S
C1298 C1303 1.363 . S
C1299 H1270 0.950 . S
C1299 C1298 1.397 . S
C1299 C1300 1.334 . S
C1300 H1271 0.950 . S
C1300 C1299 1.334 . S
C1300 C1301 1.287 . S
C1301 C1300 1.287 . S
C1301 C1302 1.524 . S
C1301 H1304 0.999 . S
C1302 H1272 0.950 . S
C1302 C1301 1.524 . S
C1302 C1303 1.415 . S
C1303 H1273 0.950 . S
C1303 C1298 1.363 . S
C1303 C1302 1.415 . S
H1304 C1301 0.999 . S
H1305 C1286 0.913 . S
H1306 C1324 0.951 . S
H1307 C1326 0.951 . S
H1308 C1328 0.950 . S
H1309 C1329 0.950 . S
H1310 C1331 0.950 . S
H1311 C1334 0.950 . S
H1312 C1335 0.950 . S
H1313 C1337 0.950 . S
H1314 C1338 0.950 . S
H1315 C1339 0.951 . S
H1316 C1341 0.951 . S
H1317 C1343 0.950 . S
H1318 C1344 0.950 . S
H1319 C1346 0.950 . S
H1320 C1349 0.950 . S
H1321 C1350 0.950 . S
H1322 C1352 0.950 . S
H1323 C1353 0.950 . S
C1324 H1306 0.951 . S
C1324 C1325 1.366 . S
C1324 C1326 1.388 . S
C1325 C1324 1.366 . S
C1325 C1329 1.385 . S
C1326 H1307 0.951 . S
C1326 C1324 1.388 . S
C1326 C1327 1.366 . S
C1327 C1326 1.366 . S
C1327 C1328 1.414 . S
C1327 C1330 1.499 . S
C1328 H1308 0.950 . S
C1328 C1327 1.414 . S
C1328 C1329 1.374 . S
C1329 H1309 0.950 . S
C1329 C1325 1.385 . S
C1329 C1328 1.374 . S
C1330 C1327 1.499 . S
C1330 C1331 1.373 . S
C1330 C1332 1.389 . S
C1331 H1310 0.950 . S
C1331 C1330 1.373 . S
C1331 C1347 1.377 . S
C1332 C1330 1.389 . S
C1332 C1333 1.524 . S
C1332 C1346 1.377 . S
C1333 C1332 1.524 . S
C1333 C1334 1.397 . S
C1333 C1338 1.363 . S
C1334 H1311 0.950 . S
C1334 C1333 1.397 . S
C1334 C1335 1.334 . S
C1335 H1312 0.950 . S
C1335 C1334 1.334 . S
C1335 C1336 1.287 . S
C1336 C1335 1.287 . S
C1336 C1337 1.524 . S
C1336 H1355 0.913 . S
C1337 H1313 0.950 . S
C1337 C1336 1.524 . S
C1337 C1338 1.415 . S
C1338 H1314 0.950 . S
C1338 C1333 1.363 . S
C1338 C1337 1.415 . S
C1339 H1315 0.951 . S
C1339 C1340 1.366 . S
C1339 C1341 1.388 . S
C1340 C1339 1.366 . S
C1340 C1344 1.385 . S
C1341 H1316 0.951 . S
C1341 C1339 1.388 . S
C1341 C1342 1.366 . S
C1342 C1341 1.366 . S
C1342 C1343 1.414 . S
C1342 C1345 1.499 . S
C1343 H1317 0.950 . S
C1343 C1342 1.414 . S
C1343 C1344 1.374 . S
C1344 H1318 0.950 . S
C1344 C1340 1.385 . S
C1344 C1343 1.374 . S
C1345 C1342 1.499 . S
C1345 C1346 1.373 . S
C1345 C1347 1.389 . S
C1346 H1319 0.950 . S
C1346 C1332 1.377 . S
C1346 C1345 1.373 . S
C1347 C1331 1.377 . S
C1347 C1345 1.389 . S
C1347 C1348 1.524 . S
C1348 C1347 1.524 . S
C1348 C1349 1.397 . S
C1348 C1353 1.363 . S
C1349 H1320 0.950 . S
C1349 C1348 1.397 . S
C1349 C1350 1.334 . S
C1350 H1321 0.950 . S
C1350 C1349 1.334 . S
C1350 C1351 1.287 . S
C1351 C1350 1.287 . S
C1351 C1352 1.524 . S
C1351 H1354 0.999 . S
C1352 H1322 0.950 . S
C1352 C1351 1.524 . S
C1352 C1353 1.415 . S
C1353 H1323 0.950 . S
C1353 C1348 1.363 . S
C1353 C1352 1.415 . S
H1354 C1351 0.999 . S
H1355 C1336 0.913 . S
H1356 C1374 0.951 . S
H1357 C1376 0.951 . S
H1358 C1378 0.950 . S
H1359 C1379 0.950 . S
H1360 C1381 0.950 . S
H1361 C1384 0.950 . S
H1362 C1385 0.950 . S
H1363 C1387 0.950 . S
H1364 C1388 0.950 . S
H1365 C1389 0.951 . S
H1366 C1391 0.951 . S
H1367 C1393 0.950 . S
H1368 C1394 0.950 . S
H1369 C1396 0.950 . S
H1370 C1399 0.950 . S
H1371 C1400 0.950 . S
H1372 C1402 0.950 . S
H1373 C1403 0.950 . S
C1374 H1356 0.951 . S
C1374 C1375 1.366 . S
C1374 C1376 1.388 . S
C1375 C1374 1.366 . S
C1375 C1379 1.385 . S
C1376 H1357 0.951 . S
C1376 C1374 1.388 . S
C1376 C1377 1.366 . S
C1377 C1376 1.366 . S
C1377 C1378 1.414 . S
C1377 C1380 1.499 . S
C1378 H1358 0.950 . S
C1378 C1377 1.414 . S
C1378 C1379 1.374 . S
C1379 H1359 0.950 . S
C1379 C1375 1.385 . S
C1379 C1378 1.374 . S
C1380 C1377 1.499 . S
C1380 C1381 1.373 . S
C1380 C1382 1.389 . S
C1381 H1360 0.950 . S
C1381 C1380 1.373 . S
C1381 C1397 1.377 . S
C1382 C1380 1.389 . S
C1382 C1383 1.524 . S
C1382 C1396 1.377 . S
C1383 C1382 1.524 . S
C1383 C1384 1.397 . S
C1383 C1388 1.363 . S
C1384 H1361 0.950 . S
C1384 C1383 1.397 . S
C1384 C1385 1.334 . S
C1385 H1362 0.950 . S
C1385 C1384 1.334 . S
C1385 C1386 1.287 . S
C1386 C1385 1.287 . S
C1386 C1387 1.524 . S
C1386 H1405 0.913 . S
C1387 H1363 0.950 . S
C1387 C1386 1.524 . S
C1387 C1388 1.415 . S
C1388 H1364 0.950 . S
C1388 C1383 1.363 . S
C1388 C1387 1.415 . S
C1389 H1365 0.951 . S
C1389 C1390 1.366 . S
C1389 C1391 1.388 . S
C1390 C1389 1.366 . S
C1390 C1394 1.385 . S
C1391 H1366 0.951 . S
C1391 C1389 1.388 . S
C1391 C1392 1.366 . S
C1392 C1391 1.366 . S
C1392 C1393 1.414 . S
C1392 C1395 1.499 . S
C1393 H1367 0.950 . S
C1393 C1392 1.414 . S
C1393 C1394 1.374 . S
C1394 H1368 0.950 . S
C1394 C1390 1.385 . S
C1394 C1393 1.374 . S
C1395 C1392 1.499 . S
C1395 C1396 1.373 . S
C1395 C1397 1.389 . S
C1396 H1369 0.950 . S
C1396 C1382 1.377 . S
C1396 C1395 1.373 . S
C1397 C1381 1.377 . S
C1397 C1395 1.389 . S
C1397 C1398 1.524 . S
C1398 C1397 1.524 . S
C1398 C1399 1.397 . S
C1398 C1403 1.363 . S
C1399 H1370 0.950 . S
C1399 C1398 1.397 . S
C1399 C1400 1.334 . S
C1400 H1371 0.950 . S
C1400 C1399 1.334 . S
C1400 C1401 1.287 . S
C1401 C1400 1.287 . S
C1401 C1402 1.524 . S
C1401 H1404 0.999 . S
C1402 H1372 0.950 . S
C1402 C1401 1.524 . S
C1402 C1403 1.415 . S
C1403 H1373 0.950 . S
C1403 C1398 1.363 . S
C1403 C1402 1.415 . S
H1404 C1401 0.999 . S
H1405 C1386 0.913 . S
H1406 C1424 0.951 . S
H1407 C1426 0.951 . S
H1408 C1428 0.950 . S
H1409 C1429 0.950 . S
H1410 C1431 0.950 . S
H1411 C1434 0.950 . S
H1412 C1435 0.950 . S
H1413 C1437 0.950 . S
H1414 C1438 0.950 . S
H1415 C1439 0.951 . S
H1416 C1441 0.951 . S
H1417 C1443 0.950 . S
H1418 C1444 0.950 . S
H1419 C1446 0.950 . S
H1420 C1449 0.950 . S
H1421 C1450 0.950 . S
H1422 C1452 0.950 . S
H1423 C1453 0.950 . S
C1424 H1406 0.951 . S
C1424 C1425 1.366 . S
C1424 C1426 1.388 . S
C1425 C1424 1.366 . S
C1425 C1429 1.385 . S
C1426 H1407 0.951 . S
C1426 C1424 1.388 . S
C1426 C1427 1.366 . S
C1427 C1426 1.366 . S
C1427 C1428 1.414 . S
C1427 C1430 1.499 . S
C1428 H1408 0.950 . S
C1428 C1427 1.414 . S
C1428 C1429 1.374 . S
C1429 H1409 0.950 . S
C1429 C1425 1.385 . S
C1429 C1428 1.374 . S
C1430 C1427 1.499 . S
C1430 C1431 1.373 . S
C1430 C1432 1.389 . S
C1431 H1410 0.950 . S
C1431 C1430 1.373 . S
C1431 C1447 1.377 . S
C1432 C1430 1.389 . S
C1432 C1433 1.524 . S
C1432 C1446 1.377 . S
C1433 C1432 1.524 . S
C1433 C1434 1.397 . S
C1433 C1438 1.363 . S
C1434 H1411 0.950 . S
C1434 C1433 1.397 . S
C1434 C1435 1.334 . S
C1435 H1412 0.950 . S
C1435 C1434 1.334 . S
C1435 C1436 1.287 . S
C1436 C1435 1.287 . S
C1436 C1437 1.524 . S
C1436 H1455 0.913 . S
C1437 H1413 0.950 . S
C1437 C1436 1.524 . S
C1437 C1438 1.415 . S
C1438 H1414 0.950 . S
C1438 C1433 1.363 . S
C1438 C1437 1.415 . S
C1439 H1415 0.951 . S
C1439 C1440 1.366 . S
C1439 C1441 1.388 . S
C1440 C1439 1.366 . S
C1440 C1444 1.385 . S
C1441 H1416 0.951 . S
C1441 C1439 1.388 . S
C1441 C1442 1.366 . S
C1442 C1441 1.366 . S
C1442 C1443 1.414 . S
C1442 C1445 1.499 . S
C1443 H1417 0.950 . S
C1443 C1442 1.414 . S
C1443 C1444 1.374 . S
C1444 H1418 0.950 . S
C1444 C1440 1.385 . S
C1444 C1443 1.374 . S
C1445 C1442 1.499 . S
C1445 C1446 1.373 . S
C1445 C1447 1.389 . S
C1446 H1419 0.950 . S
C1446 C1432 1.377 . S
C1446 C1445 1.373 . S
C1447 C1431 1.377 . S
C1447 C1445 1.389 . S
C1447 C1448 1.524 . S
C1448 C1447 1.524 . S
C1448 C1449 1.397 . S
C1448 C1453 1.363 . S
C1449 H1420 0.950 . S
C1449 C1448 1.397 . S
C1449 C1450 1.334 . S
C1450 H1421 0.950 . S
C1450 C1449 1.334 . S
C1450 C1451 1.287 . S
C1451 C1450 1.287 . S
C1451 C1452 1.524 . S
C1451 H1454 0.999 . S
C1452 H1422 0.950 . S
C1452 C1451 1.524 . S
C1452 C1453 1.415 . S
C1453 H1423 0.950 . S
C1453 C1448 1.363 . S
C1453 C1452 1.415 . S
H1454 C1451 0.999 . S
H1455 C1436 0.913 . S
H1456 C1474 0.951 . S
H1457 C1476 0.951 . S
H1458 C1478 0.950 . S
H1459 C1479 0.950 . S
H1460 C1481 0.950 . S
H1461 C1484 0.950 . S
H1462 C1485 0.950 . S
H1463 C1487 0.950 . S
H1464 C1488 0.950 . S
H1465 C1489 0.951 . S
H1466 C1491 0.951 . S
H1467 C1493 0.950 . S
H1468 C1494 0.950 . S
H1469 C1496 0.950 . S
H1470 C1499 0.950 . S
H1471 C1500 0.950 . S
H1472 C1502 0.950 . S
H1473 C1503 0.950 . S
C1474 H1456 0.951 . S
C1474 C1475 1.366 . S
C1474 C1476 1.388 . S
C1475 C1474 1.366 . S
C1475 C1479 1.385 . S
C1476 H1457 0.951 . S
C1476 C1474 1.388 . S
C1476 C1477 1.366 . S
C1477 C1476 1.366 . S
C1477 C1478 1.414 . S
C1477 C1480 1.499 . S
C1478 H1458 0.950 . S
C1478 C1477 1.414 . S
C1478 C1479 1.374 . S
C1479 H1459 0.950 . S
C1479 C1475 1.385 . S
C1479 C1478 1.374 . S
C1480 C1477 1.499 . S
C1480 C1481 1.373 . S
C1480 C1482 1.389 . S
C1481 H1460 0.950 . S
C1481 C1480 1.373 . S
C1481 C1497 1.377 . S
C1482 C1480 1.389 . S
C1482 C1483 1.524 . S
C1482 C1496 1.377 . S
C1483 C1482 1.524 . S
C1483 C1484 1.397 . S
C1483 C1488 1.363 . S
C1484 H1461 0.950 . S
C1484 C1483 1.397 . S
C1484 C1485 1.334 . S
C1485 H1462 0.950 . S
C1485 C1484 1.334 . S
C1485 C1486 1.287 . S
C1486 C1485 1.287 . S
C1486 C1487 1.524 . S
C1486 H1505 0.913 . S
C1487 H1463 0.950 . S
C1487 C1486 1.524 . S
C1487 C1488 1.415 . S
C1488 H1464 0.950 . S
C1488 C1483 1.363 . S
C1488 C1487 1.415 . S
C1489 H1465 0.951 . S
C1489 C1490 1.366 . S
C1489 C1491 1.388 . S
C1490 C1489 1.366 . S
C1490 C1494 1.385 . S
C1491 H1466 0.951 . S
C1491 C1489 1.388 . S
C1491 C1492 1.366 . S
C1492 C1491 1.366 . S
C1492 C1493 1.414 . S
C1492 C1495 1.499 . S
C1493 H1467 0.950 . S
C1493 C1492 1.414 . S
C1493 C1494 1.374 . S
C1494 H1468 0.950 . S
C1494 C1490 1.385 . S
C1494 C1493 1.374 . S
C1495 C1492 1.499 . S
C1495 C1496 1.373 . S
C1495 C1497 1.389 . S
C1496 H1469 0.950 . S
C1496 C1482 1.377 . S
C1496 C1495 1.373 . S
C1497 C1481 1.377 . S
C1497 C1495 1.389 . S
C1497 C1498 1.524 . S
C1498 C1497 1.524 . S
C1498 C1499 1.397 . S
C1498 C1503 1.363 . S
C1499 H1470 0.950 . S
C1499 C1498 1.397 . S
C1499 C1500 1.334 . S
C1500 H1471 0.950 . S
C1500 C1499 1.334 . S
C1500 C1501 1.287 . S
C1501 C1500 1.287 . S
C1501 C1502 1.524 . S
C1501 H1504 0.999 . S
C1502 H1472 0.950 . S
C1502 C1501 1.524 . S
C1502 C1503 1.415 . S
C1503 H1473 0.950 . S
C1503 C1498 1.363 . S
C1503 C1502 1.415 . S
H1504 C1501 0.999 . S
H1505 C1486 0.913 . S
H1506 C1524 0.951 . S
H1507 C1526 0.951 . S
H1508 C1528 0.950 . S
H1509 C1529 0.950 . S
H1510 C1531 0.950 . S
H1511 C1534 0.950 . S
H1512 C1535 0.950 . S
H1513 C1537 0.950 . S
H1514 C1538 0.950 . S
H1515 C1539 0.951 . S
H1516 C1541 0.951 . S
H1517 C1543 0.950 . S
H1518 C1544 0.950 . S
H1519 C1546 0.950 . S
H1520 C1549 0.950 . S
H1521 C1550 0.950 . S
H1522 C1552 0.950 . S
H1523 C1553 0.950 . S
C1524 H1506 0.951 . S
C1524 C1525 1.366 . S
C1524 C1526 1.388 . S
C1525 C1524 1.366 . S
C1525 C1529 1.385 . S
C1526 H1507 0.951 . S
C1526 C1524 1.388 . S
C1526 C1527 1.366 . S
C1527 C1526 1.366 . S
C1527 C1528 1.414 . S
C1527 C1530 1.499 . S
C1528 H1508 0.950 . S
C1528 C1527 1.414 . S
C1528 C1529 1.374 . S
C1529 H1509 0.950 . S
C1529 C1525 1.385 . S
C1529 C1528 1.374 . S
C1530 C1527 1.499 . S
C1530 C1531 1.373 . S
C1530 C1532 1.389 . S
C1531 H1510 0.950 . S
C1531 C1530 1.373 . S
C1531 C1547 1.377 . S
C1532 C1530 1.389 . S
C1532 C1533 1.524 . S
C1532 C1546 1.377 . S
C1533 C1532 1.524 . S
C1533 C1534 1.397 . S
C1533 C1538 1.363 . S
C1534 H1511 0.950 . S
C1534 C1533 1.397 . S
C1534 C1535 1.334 . S
C1535 H1512 0.950 . S
C1535 C1534 1.334 . S
C1535 C1536 1.287 . S
C1536 C1535 1.287 . S
C1536 C1537 1.524 . S
C1536 H1555 0.913 . S
C1537 H1513 0.950 . S
C1537 C1536 1.524 . S
C1537 C1538 1.415 . S
C1538 H1514 0.950 . S
C1538 C1533 1.363 . S
C1538 C1537 1.415 . S
C1539 H1515 0.951 . S
C1539 C1540 1.366 . S
C1539 C1541 1.388 . S
C1540 C1539 1.366 . S
C1540 C1544 1.385 . S
C1541 H1516 0.951 . S
C1541 C1539 1.388 . S
C1541 C1542 1.366 . S
C1542 C1541 1.366 . S
C1542 C1543 1.414 . S
C1542 C1545 1.499 . S
C1543 H1517 0.950 . S
C1543 C1542 1.414 . S
C1543 C1544 1.374 . S
C1544 H1518 0.950 . S
C1544 C1540 1.385 . S
C1544 C1543 1.374 . S
C1545 C1542 1.499 . S
C1545 C1546 1.373 . S
C1545 C1547 1.389 . S
C1546 H1519 0.950 . S
C1546 C1532 1.377 . S
C1546 C1545 1.373 . S
C1547 C1531 1.377 . S
C1547 C1545 1.389 . S
C1547 C1548 1.524 . S
C1548 C1547 1.524 . S
C1548 C1549 1.397 . S
C1548 C1553 1.363 . S
C1549 H1520 0.950 . S
C1549 C1548 1.397 . S
C1549 C1550 1.334 . S
C1550 H1521 0.950 . S
C1550 C1549 1.334 . S
C1550 C1551 1.287 . S
C1551 C1550 1.287 . S
C1551 C1552 1.524 . S
C1551 H1554 0.999 . S
C1552 H1522 0.950 . S
C1552 C1551 1.524 . S
C1552 C1553 1.415 . S
C1553 H1523 0.950 . S
C1553 C1548 1.363 . S
C1553 C1552 1.415 . S
H1554 C1551 0.999 . S
H1555 C1536 0.913 . S
H1556 C1574 0.951 . S
H1557 C1576 0.951 . S
H1558 C1578 0.950 . S
H1559 C1579 0.950 . S
H1560 C1581 0.950 . S
H1561 C1584 0.950 . S
H1562 C1585 0.950 . S
H1563 C1587 0.950 . S
H1564 C1588 0.950 . S
H1565 C1589 0.951 . S
H1566 C1591 0.951 . S
H1567 C1593 0.950 . S
H1568 C1594 0.950 . S
H1569 C1596 0.950 . S
H1570 C1599 0.950 . S
H1571 C1600 0.950 . S
H1572 C1602 0.950 . S
H1573 C1603 0.950 . S
C1574 H1556 0.951 . S
C1574 C1575 1.366 . S
C1574 C1576 1.388 . S
C1575 C1574 1.366 . S
C1575 C1579 1.385 . S
C1576 H1557 0.951 . S
C1576 C1574 1.388 . S
C1576 C1577 1.366 . S
C1577 C1576 1.366 . S
C1577 C1578 1.414 . S
C1577 C1580 1.499 . S
C1578 H1558 0.950 . S
C1578 C1577 1.414 . S
C1578 C1579 1.374 . S
C1579 H1559 0.950 . S
C1579 C1575 1.385 . S
C1579 C1578 1.374 . S
C1580 C1577 1.499 . S
C1580 C1581 1.373 . S
C1580 C1582 1.389 . S
C1581 H1560 0.950 . S
C1581 C1580 1.373 . S
C1581 C1597 1.377 . S
C1582 C1580 1.389 . S
C1582 C1583 1.524 . S
C1582 C1596 1.377 . S
C1583 C1582 1.524 . S
C1583 C1584 1.397 . S
C1583 C1588 1.363 . S
C1584 H1561 0.950 . S
C1584 C1583 1.397 . S
C1584 C1585 1.334 . S
C1585 H1562 0.950 . S
C1585 C1584 1.334 . S
C1585 C1586 1.287 . S
C1586 C1585 1.287 . S
C1586 C1587 1.524 . S
C1586 H1605 0.913 . S
C1587 H1563 0.950 . S
C1587 C1586 1.524 . S
C1587 C1588 1.415 . S
C1588 H1564 0.950 . S
C1588 C1583 1.363 . S
C1588 C1587 1.415 . S
C1589 H1565 0.951 . S
C1589 C1590 1.366 . S
C1589 C1591 1.388 . S
C1590 C1589 1.366 . S
C1590 C1594 1.385 . S
C1591 H1566 0.951 . S
C1591 C1589 1.388 . S
C1591 C1592 1.366 . S
C1592 C1591 1.366 . S
C1592 C1593 1.414 . S
C1592 C1595 1.499 . S
C1593 H1567 0.950 . S
C1593 C1592 1.414 . S
C1593 C1594 1.374 . S
C1594 H1568 0.950 . S
C1594 C1590 1.385 . S
C1594 C1593 1.374 . S
C1595 C1592 1.499 . S
C1595 C1596 1.373 . S
C1595 C1597 1.389 . S
C1596 H1569 0.950 . S
C1596 C1582 1.377 . S
C1596 C1595 1.373 . S
C1597 C1581 1.377 . S
C1597 C1595 1.389 . S
C1597 C1598 1.524 . S
C1598 C1597 1.524 . S
C1598 C1599 1.397 . S
C1598 C1603 1.363 . S
C1599 H1570 0.950 . S
C1599 C1598 1.397 . S
C1599 C1600 1.334 . S
C1600 H1571 0.950 . S
C1600 C1599 1.334 . S
C1600 C1601 1.287 . S
C1601 C1600 1.287 . S
C1601 C1602 1.524 . S
C1601 H1604 0.999 . S
C1602 H1572 0.950 . S
C1602 C1601 1.524 . S
C1602 C1603 1.415 . S
C1603 H1573 0.950 . S
C1603 C1598 1.363 . S
C1603 C1602 1.415 . S
H1604 C1601 0.999 . S
H1605 C1586 0.913 . S
H1606 C1624 0.951 . S
H1607 C1626 0.951 . S
H1608 C1628 0.950 . S
H1609 C1629 0.950 . S
H1610 C1631 0.950 . S
H1611 C1634 0.950 . S
H1612 C1635 0.950 . S
H1613 C1637 0.950 . S
H1614 C1638 0.950 . S
H1615 C1639 0.951 . S
H1616 C1641 0.951 . S
H1617 C1643 0.950 . S
H1618 C1644 0.950 . S
H1619 C1646 0.950 . S
H1620 C1649 0.950 . S
H1621 C1650 0.950 . S
H1622 C1652 0.950 . S
H1623 C1653 0.950 . S
C1624 H1606 0.951 . S
C1624 C1625 1.366 . S
C1624 C1626 1.388 . S
C1625 C1624 1.366 . S
C1625 C1629 1.385 . S
C1626 H1607 0.951 . S
C1626 C1624 1.388 . S
C1626 C1627 1.366 . S
C1627 C1626 1.366 . S
C1627 C1628 1.414 . S
C1627 C1630 1.499 . S
C1628 H1608 0.950 . S
C1628 C1627 1.414 . S
C1628 C1629 1.374 . S
C1629 H1609 0.950 . S
C1629 C1625 1.385 . S
C1629 C1628 1.374 . S
C1630 C1627 1.499 . S
C1630 C1631 1.373 . S
C1630 C1632 1.389 . S
C1631 H1610 0.950 . S
C1631 C1630 1.373 . S
C1631 C1647 1.377 . S
C1632 C1630 1.389 . S
C1632 C1633 1.524 . S
C1632 C1646 1.377 . S
C1633 C1632 1.524 . S
C1633 C1634 1.397 . S
C1633 C1638 1.363 . S
C1634 H1611 0.950 . S
C1634 C1633 1.397 . S
C1634 C1635 1.334 . S
C1635 H1612 0.950 . S
C1635 C1634 1.334 . S
C1635 C1636 1.287 . S
C1636 C1635 1.287 . S
C1636 C1637 1.524 . S
C1636 H1655 0.913 . S
C1637 H1613 0.950 . S
C1637 C1636 1.524 . S
C1637 C1638 1.415 . S
C1638 H1614 0.950 . S
C1638 C1633 1.363 . S
C1638 C1637 1.415 . S
C1639 H1615 0.951 . S
C1639 C1640 1.366 . S
C1639 C1641 1.388 . S
C1640 C1639 1.366 . S
C1640 C1644 1.385 . S
C1641 H1616 0.951 . S
C1641 C1639 1.388 . S
C1641 C1642 1.366 . S
C1642 C1641 1.366 . S
C1642 C1643 1.414 . S
C1642 C1645 1.499 . S
C1643 H1617 0.950 . S
C1643 C1642 1.414 . S
C1643 C1644 1.374 . S
C1644 H1618 0.950 . S
C1644 C1640 1.385 . S
C1644 C1643 1.374 . S
C1645 C1642 1.499 . S
C1645 C1646 1.373 . S
C1645 C1647 1.389 . S
C1646 H1619 0.950 . S
C1646 C1632 1.377 . S
C1646 C1645 1.373 . S
C1647 C1631 1.377 . S
C1647 C1645 1.389 . S
C1647 C1648 1.524 . S
C1648 C1647 1.524 . S
C1648 C1649 1.397 . S
C1648 C1653 1.363 . S
C1649 H1620 0.950 . S
C1649 C1648 1.397 . S
C1649 C1650 1.334 . S
C1650 H1621 0.950 . S
C1650 C1649 1.334 . S
C1650 C1651 1.287 . S
C1651 C1650 1.287 . S
C1651 C1652 1.524 . S
C1651 H1654 0.999 . S
C1652 H1622 0.950 . S
C1652 C1651 1.524 . S
C1652 C1653 1.415 . S
C1653 H1623 0.950 . S
C1653 C1648 1.363 . S
C1653 C1652 1.415 . S
H1654 C1651 0.999 . S
H1655 C1636 0.913 . S
H1656 C1674 0.951 . S
H1657 C1676 0.951 . S
H1658 C1678 0.950 . S
H1659 C1679 0.950 . S
H1660 C1681 0.950 . S
H1661 C1684 0.950 . S
H1662 C1685 0.950 . S
H1663 C1687 0.950 . S
H1664 C1688 0.950 . S
H1665 C1689 0.951 . S
H1666 C1691 0.951 . S
H1667 C1693 0.950 . S
H1668 C1694 0.950 . S
H1669 C1696 0.950 . S
H1670 C1699 0.950 . S
H1671 C1700 0.950 . S
H1672 C1702 0.950 . S
H1673 C1703 0.950 . S
C1674 H1656 0.951 . S
C1674 C1675 1.366 . S
C1674 C1676 1.388 . S
C1675 C1674 1.366 . S
C1675 C1679 1.385 . S
C1676 H1657 0.951 . S
C1676 C1674 1.388 . S
C1676 C1677 1.366 . S
C1677 C1676 1.366 . S
C1677 C1678 1.414 . S
C1677 C1680 1.499 . S
C1678 H1658 0.950 . S
C1678 C1677 1.414 . S
C1678 C1679 1.374 . S
C1679 H1659 0.950 . S
C1679 C1675 1.385 . S
C1679 C1678 1.374 . S
C1680 C1677 1.499 . S
C1680 C1681 1.373 . S
C1680 C1682 1.389 . S
C1681 H1660 0.950 . S
C1681 C1680 1.373 . S
C1681 C1697 1.377 . S
C1682 C1680 1.389 . S
C1682 C1683 1.524 . S
C1682 C1696 1.377 . S
C1683 C1682 1.524 . S
C1683 C1684 1.397 . S
C1683 C1688 1.363 . S
C1684 H1661 0.950 . S
C1684 C1683 1.397 . S
C1684 C1685 1.334 . S
C1685 H1662 0.950 . S
C1685 C1684 1.334 . S
C1685 C1686 1.287 . S
C1686 C1685 1.287 . S
C1686 C1687 1.524 . S
C1686 H1705 0.913 . S
C1687 H1663 0.950 . S
C1687 C1686 1.524 . S
C1687 C1688 1.415 . S
C1688 H1664 0.950 . S
C1688 C1683 1.363 . S
C1688 C1687 1.415 . S
C1689 H1665 0.951 . S
C1689 C1690 1.366 . S
C1689 C1691 1.388 . S
C1690 C1689 1.366 . S
C1690 C1694 1.385 . S
C1691 H1666 0.951 . S
C1691 C1689 1.388 . S
C1691 C1692 1.366 . S
C1692 C1691 1.366 . S
C1692 C1693 1.414 . S
C1692 C1695 1.499 . S
C1693 H1667 0.950 . S
C1693 C1692 1.414 . S
C1693 C1694 1.374 . S
C1694 H1668 0.950 . S
C1694 C1690 1.385 . S
C1694 C1693 1.374 . S
C1695 C1692 1.499 . S
C1695 C1696 1.373 . S
C1695 C1697 1.389 . S
C1696 H1669 0.950 . S
C1696 C1682 1.377 . S
C1696 C1695 1.373 . S
C1697 C1681 1.377 . S
C1697 C1695 1.389 . S
C1697 C1698 1.524 . S
C1698 C1697 1.524 . S
C1698 C1699 1.397 . S
C1698 C1703 1.363 . S
C1699 H1670 0.950 . S
C1699 C1698 1.397 . S
C1699 C1700 1.334 . S
C1700 H1671 0.950 . S
C1700 C1699 1.334 . S
C1700 C1701 1.287 . S
C1701 C1700 1.287 . S
C1701 C1702 1.524 . S
C1701 H1704 0.999 . S
C1702 H1672 0.950 . S
C1702 C1701 1.524 . S
C1702 C1703 1.415 . S
C1703 H1673 0.950 . S
C1703 C1698 1.363 . S
C1703 C1702 1.415 . S
H1704 C1701 0.999 . S
H1705 C1686 0.913 . S
H1706 C1724 0.951 . S
H1707 C1726 0.951 . S
H1708 C1728 0.950 . S
H1709 C1729 0.950 . S
H1710 C1731 0.950 . S
H1711 C1734 0.950 . S
H1712 C1735 0.950 . S
H1713 C1737 0.950 . S
H1714 C1738 0.950 . S
H1715 C1739 0.951 . S
H1716 C1741 0.951 . S
H1717 C1743 0.950 . S
H1718 C1744 0.950 . S
H1719 C1746 0.950 . S
H1720 C1749 0.950 . S
H1721 C1750 0.950 . S
H1722 C1752 0.950 . S
H1723 C1753 0.950 . S
C1724 H1706 0.951 . S
C1724 C1725 1.366 . S
C1724 C1726 1.388 . S
C1725 C1724 1.366 . S
C1725 C1729 1.385 . S
C1726 H1707 0.951 . S
C1726 C1724 1.388 . S
C1726 C1727 1.366 . S
C1727 C1726 1.366 . S
C1727 C1728 1.414 . S
C1727 C1730 1.499 . S
C1728 H1708 0.950 . S
C1728 C1727 1.414 . S
C1728 C1729 1.374 . S
C1729 H1709 0.950 . S
C1729 C1725 1.385 . S
C1729 C1728 1.374 . S
C1730 C1727 1.499 . S
C1730 C1731 1.373 . S
C1730 C1732 1.389 . S
C1731 H1710 0.950 . S
C1731 C1730 1.373 . S
C1731 C1747 1.377 . S
C1732 C1730 1.389 . S
C1732 C1733 1.524 . S
C1732 C1746 1.377 . S
C1733 C1732 1.524 . S
C1733 C1734 1.397 . S
C1733 C1738 1.363 . S
C1734 H1711 0.950 . S
C1734 C1733 1.397 . S
C1734 C1735 1.334 . S
C1735 H1712 0.950 . S
C1735 C1734 1.334 . S
C1735 C1736 1.287 . S
C1736 C1735 1.287 . S
C1736 C1737 1.524 . S
C1736 H1755 0.913 . S
C1737 H1713 0.950 . S
C1737 C1736 1.524 . S
C1737 C1738 1.415 . S
C1738 H1714 0.950 . S
C1738 C1733 1.363 . S
C1738 C1737 1.415 . S
C1739 H1715 0.951 . S
C1739 C1740 1.366 . S
C1739 C1741 1.388 . S
C1740 C1739 1.366 . S
C1740 C1744 1.385 . S
C1741 H1716 0.951 . S
C1741 C1739 1.388 . S
C1741 C1742 1.366 . S
C1742 C1741 1.366 . S
C1742 C1743 1.414 . S
C1742 C1745 1.499 . S
C1743 H1717 0.950 . S
C1743 C1742 1.414 . S
C1743 C1744 1.374 . S
C1744 H1718 0.950 . S
C1744 C1740 1.385 . S
C1744 C1743 1.374 . S
C1745 C1742 1.499 . S
C1745 C1746 1.373 . S
C1745 C1747 1.389 . S
C1746 H1719 0.950 . S
C1746 C1732 1.377 . S
C1746 C1745 1.373 . S
C1747 C1731 1.377 . S
C1747 C1745 1.389 . S
C1747 C1748 1.524 . S
C1748 C1747 1.524 . S
C1748 C1749 1.397 . S
C1748 C1753 1.363 . S
C1749 H1720 0.950 . S
C1749 C1748 1.397 . S
C1749 C1750 1.334 . S
C1750 H1721 0.950 . S
C1750 C1749 1.334 . S
C1750 C1751 1.287 . S
C1751 C1750 1.287 . S
C1751 C1752 1.524 . S
C1751 H1754 0.999 . S
C1752 H1722 0.950 . S
C1752 C1751 1.524 . S
C1752 C1753 1.415 . S
C1753 H1723 0.950 . S
C1753 C1748 1.363 . S
C1753 C1752 1.415 . S
H1754 C1751 0.999 . S
H1755 C1736 0.913 . S
H1756 C1774 0.951 . S
H1757 C1776 0.951 . S
H1758 C1778 0.950 . S
H1759 C1779 0.950 . S
H1760 C1781 0.950 . S
H1761 C1784 0.950 . S
H1762 C1785 0.950 . S
H1763 C1787 0.950 . S
H1764 C1788 0.950 . S
H1765 C1789 0.951 . S
H1766 C1791 0.951 . S
H1767 C1793 0.950 . S
H1768 C1794 0.950 . S
H1769 C1796 0.950 . S
H1770 C1799 0.950 . S
H1771 C1800 0.950 . S
H1772 C1802 0.950 . S
H1773 C1803 0.950 . S
C1774 H1756 0.951 . S
C1774 C1775 1.366 . S
C1774 C1776 1.388 . S
C1775 C1774 1.366 . S
C1775 C1779 1.385 . S
C1776 H1757 0.951 . S
C1776 C1774 1.388 . S
C1776 C1777 1.366 . S
C1777 C1776 1.366 . S
C1777 C1778 1.414 . S
C1777 C1780 1.499 . S
C1778 H1758 0.950 . S
C1778 C1777 1.414 . S
C1778 C1779 1.374 . S
C1779 H1759 0.950 . S
C1779 C1775 1.385 . S
C1779 C1778 1.374 . S
C1780 C1777 1.499 . S
C1780 C1781 1.373 . S
C1780 C1782 1.389 . S
C1781 H1760 0.950 . S
C1781 C1780 1.373 . S
C1781 C1797 1.377 . S
C1782 C1780 1.389 . S
C1782 C1783 1.524 . S
C1782 C1796 1.377 . S
C1783 C1782 1.524 . S
C1783 C1784 1.397 . S
C1783 C1788 1.363 . S
C1784 H1761 0.950 . S
C1784 C1783 1.397 . S
C1784 C1785 1.334 . S
C1785 H1762 0.950 . S
C1785 C1784 1.334 . S
C1785 C1786 1.287 . S
C1786 C1785 1.287 . S
C1786 C1787 1.524 . S
C1786 H1805 0.913 . S
C1787 H1763 0.950 . S
C1787 C1786 1.524 . S
C1787 C1788 1.415 . S
C1788 H1764 0.950 . S
C1788 C1783 1.363 . S
C1788 C1787 1.415 . S
C1789 H1765 0.951 . S
C1789 C1790 1.366 . S
C1789 C1791 1.388 . S
C1790 C1789 1.366 . S
C1790 C1794 1.385 . S
C1791 H1766 0.951 . S
C1791 C1789 1.388 . S
C1791 C1792 1.366 . S
C1792 C1791 1.366 . S
C1792 C1793 1.414 . S
C1792 C1795 1.499 . S
C1793 H1767 0.950 . S
C1793 C1792 1.414 . S
C1793 C1794 1.374 . S
C1794 H1768 0.950 . S
C1794 C1790 1.385 . S
C1794 C1793 1.374 . S
C1795 C1792 1.499 . S
C1795 C1796 1.373 . S
C1795 C1797 1.389 . S
C1796 H1769 0.950 . S
C1796 C1782 1.377 . S
C1796 C1795 1.373 . S
C1797 C1781 1.377 . S
C1797 C1795 1.389 . S
C1797 C1798 1.524 . S
C1798 C1797 1.524 . S
C1798 C1799 1.397 . S
C1798 C1803 1.363 . S
C1799 H1770 0.950 . S
C1799 C1798 1.397 . S
C1799 C1800 1.334 . S
C1800 H1771 0.950 . S
C1800 C1799 1.334 . S
C1800 C1801 1.287 . S
C1801 C1800 1.287 . S
C1801 C1802 1.524 . S
C1801 H1804 0.999 . S
C1802 H1772 0.950 . S
C1802 C1801 1.524 . S
C1802 C1803 1.415 . S
C1803 H1773 0.950 . S
C1803 C1798 1.363 . S
C1803 C1802 1.415 . S
H1804 C1801 0.999 . S
H1805 C1786 0.913 . S
C640 C310 1.560 . S
C625 C25 1.560 . S
C690 C379 1.549 . S
C675 C37 1.553 . S
C740 C317 1.569 . S
C725 C103 1.569 . S
C790 C380 1.556 . S
C775 C139 1.558 . S
C840 C433 1.546 . S
C825 C31 1.549 . S
C890 C469 1.526 . S
C875 C67 1.526 . S
C925 C97 1.562 . S
C940 C529 1.569 . S
C990 C592 1.517 . S
C975 C133 1.517 . S
C1040 C432 1.539 . S
C1025 C61 1.544 . S
C1075 C73 1.524 . S
C1090 C476 1.531 . S
C1140 C522 1.559 . S
C1125 C109 1.563 . S
C1190 C591 1.521 . S
C1175 C1 1.523 . S
C1225 C169 1.553 . S
C1240 C370 1.558 . S
C1290 C327 1.556 . S
C1275 C211 1.555 . S
C1325 C241 1.551 . S
C1340 C363 1.546 . S
C1375 C253 1.550 . S
C1390 C326 1.552 . S
C1440 C538 1.567 . S
C1425 C175 1.559 . S
C1490 C582 1.524 . S
C1475 C205 1.515 . S
C1540 C416 1.545 . S
C1525 C217 1.549 . S
C1575 C283 1.524 . S
C1590 C485 1.531 . S
C1640 C539 1.561 . S
C1625 C181 1.559 . S
C1690 C575 1.525 . S
C1675 C247 1.526 . S
C1740 C423 1.550 . S
C1725 C277 1.543 . S
C1775 C145 1.527 . S
C1790 C486 1.533 . S
