# Generated by pormake.
# Topology pyr, (3,6)-cn, num edge types: 1
# Building blocks:
#     Node 0, Type 0, BuildingBlock: PAMTOO_clean_linker_0, # of connection points: 3
#     Node 1, Type 0, BuildingBlock: PAMTOO_clean_linker_0, # of connection points: 3
#     Node 2, Type 0, BuildingBlock: PAMTOO_clean_linker_0, # of connection points: 3
#     Node 3, Type 0, BuildingBlock: PAMTOO_clean_linker_0, # of connection points: 3
#     Node 4, Type 0, BuildingBlock: PAMTOO_clean_linker_0, # of connection points: 3
#     Node 5, Type 0, BuildingBlock: PAMTOO_clean_linker_0, # of connection points: 3
#     Node 6, Type 0, BuildingBlock: PAMTOO_clean_linker_0, # of connection points: 3
#     Node 7, Type 0, BuildingBlock: PAMTOO_clean_linker_0, # of connection points: 3
#     Node 8, Type 1, BuildingBlock: CIFDUS_clean_sbu_1, # of connection points: 6
#     Node 9, Type 1, BuildingBlock: CIFDUS_clean_sbu_1, # of connection points: 6
#     Node 10, Type 1, BuildingBlock: CIFDUS_clean_sbu_1, # of connection points: 6
#     Node 11, Type 1, BuildingBlock: CIFDUS_clean_sbu_1, # of connection points: 6
#     Edge 12, Type (0, 1), BuildingBlock: TEMPAE_clean_linker_10, # of connection points: 2
#     Edge 13, Type (0, 1), BuildingBlock: TEMPAE_clean_linker_10, # of connection points: 2
#     Edge 14, Type (0, 1), BuildingBlock: TEMPAE_clean_linker_10, # of connection points: 2
#     Edge 15, Type (0, 1), BuildingBlock: TEMPAE_clean_linker_10, # of connection points: 2
#     Edge 16, Type (0, 1), BuildingBlock: TEMPAE_clean_linker_10, # of connection points: 2
#     Edge 17, Type (0, 1), BuildingBlock: TEMPAE_clean_linker_10, # of connection points: 2
#     Edge 18, Type (0, 1), BuildingBlock: TEMPAE_clean_linker_10, # of connection points: 2
#     Edge 19, Type (0, 1), BuildingBlock: TEMPAE_clean_linker_10, # of connection points: 2
#     Edge 20, Type (0, 1), BuildingBlock: TEMPAE_clean_linker_10, # of connection points: 2
#     Edge 21, Type (0, 1), BuildingBlock: TEMPAE_clean_linker_10, # of connection points: 2
#     Edge 22, Type (0, 1), BuildingBlock: TEMPAE_clean_linker_10, # of connection points: 2
#     Edge 23, Type (0, 1), BuildingBlock: TEMPAE_clean_linker_10, # of connection points: 2
#     Edge 24, Type (0, 1), BuildingBlock: TEMPAE_clean_linker_10, # of connection points: 2
#     Edge 25, Type (0, 1), BuildingBlock: TEMPAE_clean_linker_10, # of connection points: 2
#     Edge 26, Type (0, 1), BuildingBlock: TEMPAE_clean_linker_10, # of connection points: 2
#     Edge 27, Type (0, 1), BuildingBlock: TEMPAE_clean_linker_10, # of connection points: 2
#     Edge 28, Type (0, 1), BuildingBlock: TEMPAE_clean_linker_10, # of connection points: 2
#     Edge 29, Type (0, 1), BuildingBlock: TEMPAE_clean_linker_10, # of connection points: 2
#     Edge 30, Type (0, 1), BuildingBlock: TEMPAE_clean_linker_10, # of connection points: 2
#     Edge 31, Type (0, 1), BuildingBlock: TEMPAE_clean_linker_10, # of connection points: 2
#     Edge 32, Type (0, 1), BuildingBlock: TEMPAE_clean_linker_10, # of connection points: 2
#     Edge 33, Type (0, 1), BuildingBlock: TEMPAE_clean_linker_10, # of connection points: 2
#     Edge 34, Type (0, 1), BuildingBlock: TEMPAE_clean_linker_10, # of connection points: 2
#     Edge 35, Type (0, 1), BuildingBlock: TEMPAE_clean_linker_10, # of connection points: 2
# Relax obj value: 0.094
# Max RMSD: 0.205
# Mean RMSD: 0.144
data_MOF--net-pry--node1-CIFDUS_clean_sbu_1--node2-PAMTOO_clean_linker_0--edge1-TEMPAE_clean_linker_10
_symmetry_space_group_name_H-M    P1
_symmetry_Int_Tables_number       1
_symmetry_cell_setting            triclinic
loop_
_symmetry_equiv_pos_as_xyz
'x, y, z'
_cell_length_a     36.499903
_cell_length_b     36.299541
_cell_length_c     35.505767
_cell_angle_alpha  92.231314
_cell_angle_beta   92.428712
_cell_angle_gamma 97.928244
loop_
_atom_site_label
_atom_site_type_symbol
_atom_site_fract_x
_atom_site_fract_y
_atom_site_fract_z
_atom_type_partial_charge
H0 H 0.11798 0.18078 0.20229 0.0
H1 H 0.20261 0.10965 0.21513 0.0
H2 H 0.19908 0.17566 0.11776 0.0
H3 H 0.21025 0.09361 0.10583 0.0
C4 C 0.22971 0.09235 0.13061 0.0
O5 O 0.23349 0.12599 0.1513 0.0
H6 H 0.21771 0.06968 0.14848 0.0
C7 C 0.14156 0.16932 0.1915 0.0
C8 C 0.15646 0.1819 0.15731 0.0
C9 C 0.1583 0.14358 0.21297 0.0
C10 C 0.18952 0.12955 0.19918 0.0
C11 C 0.20373 0.14043 0.16454 0.0
C12 C 0.18746 0.16686 0.14407 0.0
H13 H 0.34901 0.95677 0.68694 0.0
H14 H 0.34142 0.87045 0.59829 0.0
H15 H 0.43087 0.8823 0.68147 0.0
H16 H 0.45014 0.87292 0.60067 0.0
C17 C 0.42617 0.8517 0.59122 0.0
O18 O 0.40197 0.84588 0.61987 0.0
H19 H 0.41189 0.86241 0.56646 0.0
C20 C 0.35957 0.93362 0.67298 0.0
C21 C 0.39187 0.92153 0.68815 0.0
C22 C 0.34078 0.91544 0.64029 0.0
C23 C 0.35545 0.88555 0.62289 0.0
C24 C 0.38811 0.87426 0.6373 0.0
C25 C 0.40601 0.89188 0.67005 0.0
H26 H 0.6988 0.33254 0.94819 0.0
H27 H 0.63092 0.33024 0.84602 0.0
H28 H 0.70865 0.42698 0.87778 0.0
H29 H 0.64006 0.44285 0.83954 0.0
C30 C 0.63465 0.41789 0.81982 0.0
O31 O 0.66116 0.39521 0.82605 0.0
H32 H 0.60681 0.40245 0.8245 0.0
C33 C 0.6889 0.34693 0.92441 0.0
C34 C 0.70604 0.3827 0.91703 0.0
C35 C 0.6617 0.32808 0.89892 0.0
C36 C 0.65066 0.34534 0.86674 0.0
C37 C 0.66753 0.38103 0.85957 0.0
C38 C 0.69477 0.3999 0.8847 0.0
H39 H 0.88743 0.67218 0.49027 0.0
H40 H 0.88114 0.57442 0.4163 0.0
H41 H 0.9698 0.66318 0.40857 0.0
H42 H 0.91047 0.64081 0.342 0.0
C43 C 0.91092 0.61028 0.34349 0.0
O44 O 0.93276 0.60331 0.37452 0.0
H45 H 0.88208 0.59646 0.3466 0.0
C46 C 0.89951 0.65563 0.46942 0.0
C47 C 0.93296 0.67067 0.45392 0.0
C48 C 0.88018 0.62092 0.45634 0.0
C49 C 0.89504 0.60121 0.42722 0.0
C50 C 0.92583 0.61756 0.40881 0.0
C51 C 0.94552 0.65151 0.42282 0.0
H52 H 0.85437 0.92443 0.8569 0.0
H53 H 0.86117 0.8556 0.95153 0.0
H54 H 0.9361 0.84843 0.8627 0.0
H55 H 0.89703 0.77532 0.89147 0.0
C56 C 0.89962 0.78351 0.92211 0.0
O57 O 0.91497 0.82077 0.92655 0.0
H58 H 0.87128 0.78032 0.93303 0.0
C59 C 0.86823 0.90405 0.87109 0.0
C60 C 0.89744 0.88855 0.85404 0.0
C61 C 0.85539 0.89293 0.90631 0.0
C62 C 0.8711 0.86468 0.92462 0.0
C63 C 0.89982 0.84817 0.90847 0.0
C64 C 0.91312 0.8606 0.87371 0.0
H65 H 0.72098 0.09414 0.36821 0.0
H66 H 0.64033 0.16942 0.35503 0.0
H67 H 0.71714 0.18333 0.45114 0.0
H68 H 0.63797 0.18676 0.46545 0.0
C69 C 0.63112 0.20365 0.44126 0.0
O70 O 0.66076 0.20841 0.41816 0.0
H71 H 0.6065 0.18853 0.42501 0.0
C72 C 0.70829 0.11757 0.37871 0.0
C73 C 0.72248 0.13718 0.41235 0.0
C74 C 0.67888 0.12928 0.35769 0.0
C75 C 0.66303 0.16012 0.37102 0.0
C76 C 0.67648 0.17916 0.40499 0.0
C77 C 0.70647 0.16803 0.42525 0.0
H78 H 0.36675 0.70888 0.08483 0.0
H79 H 0.35892 0.62758 0.17076 0.0
H80 H 0.42961 0.73126 0.19039 0.0
H81 H 0.46126 0.66552 0.21376 0.0
C82 C 0.43575 0.64872 0.22337 0.0
O83 O 0.40599 0.66753 0.21788 0.0
H84 H 0.43116 0.62169 0.20677 0.0
C85 C 0.37526 0.69975 0.11216 0.0
C86 C 0.39998 0.72382 0.1361 0.0
C87 C 0.35994 0.66487 0.12441 0.0
C88 C 0.37096 0.65391 0.16016 0.0
C89 C 0.3962 0.67779 0.18346 0.0
C90 C 0.41054 0.71271 0.17167 0.0
H91 H 0.10213 0.33279 0.69528 0.0
H92 H 0.15403 0.44647 0.69286 0.0
H93 H 0.1471 0.37523 0.59273 0.0
H94 H 0.21324 0.45576 0.66361 0.0
C95 C 0.20549 0.46165 0.63397 0.0
O96 O 0.17144 0.44212 0.62204 0.0
H97 H 0.20302 0.49184 0.6347 0.0
C98 C 0.11646 0.35545 0.68021 0.0
C99 C 0.12228 0.35021 0.64158 0.0
C100 C 0.12863 0.38988 0.69927 0.0
C101 C 0.14597 0.41926 0.67898 0.0
C102 C 0.15395 0.41367 0.64103 0.0
C103 C 0.14196 0.37915 0.62235 0.0
O104 O 0.97579 0.04174 0.51999 0.0
Mn105 Mn 0.02535 0.01967 0.53324 0.0
O106 O 0.95982 0.01665 0.46197 0.0
Mn107 Mn 0.9956 0.98592 0.46006 0.0
O108 O 0.07596 0.99799 0.54538 0.0
O109 O 0.04624 0.06833 0.56156 0.0
Mn110 Mn 0.06961 0.05564 0.60273 0.0
O111 O 1.00135 0.99624 0.58277 0.0
O112 O 0.11111 0.04157 0.58301 0.0
O113 O 0.05083 0.04493 0.48477 0.0
O114 O 0.03766 1.00356 0.43697 0.0
O115 O 0.05787 0.10178 0.6138 0.0
O116 O 0.0424 0.01949 0.62893 0.0
C117 C 0.99133 0.93736 0.48771 0.0
C118 C 0.9545 0.0381 0.48972 0.0
C119 C 0.10758 0.01248 0.56126 0.0
C120 C 0.04003 0.09751 0.58127 0.0
C121 C 0.01312 0.99826 0.6178 0.0
C122 C 0.05592 0.03331 0.45077 0.0
O123 O 1.00454 0.96929 0.5054 0.0
O124 O 0.98038 0.93752 0.45247 0.0
O125 O 0.53445 0.00896 0.95963 0.0
Mn126 Mn 0.55328 0.01729 0.01672 0.0
O127 O 0.54156 0.95007 0.94194 0.0
Mn128 Mn 0.56305 0.9375 0.98697 0.0
O129 O 0.57156 0.02631 0.07453 0.0
O130 O 0.56278 0.07222 0.00936 0.0
Mn131 Mn 0.54046 0.0955 0.04382 0.0
O132 O 0.49695 0.02014 0.03156 0.0
O133 O 0.56112 0.08487 0.08945 0.0
O134 O 0.60946 0.01294 1.00207 0.0
O135 O 0.61314 0.95157 0.99325 0.0
O136 O 0.56342 0.13253 0.01655 0.0
O137 O 0.49079 0.08077 0.03653 0.0
C138 C 0.52978 0.93148 0.03494 0.0
C139 C 0.53153 0.98152 0.93498 0.0
C140 C 0.57221 0.05443 0.09828 0.0
C141 C 0.57457 0.10495 0.99812 0.0
C142 C 0.4769 0.04676 0.03554 0.0
C143 C 0.62817 0.98533 0.99635 0.0
O144 O 0.54393 0.96269 0.02257 0.0
O145 O 0.53811 0.90256 0.01649 0.0
O146 O 0.59048 0.55276 0.52158 0.0
Mn147 Mn 0.53611 0.52884 0.52713 0.0
O148 O 0.60861 0.51297 0.48059 0.0
Mn149 Mn 0.56164 0.50143 0.45768 0.0
O150 O 0.48056 0.50797 0.53663 0.0
O151 O 0.54862 0.53166 0.58157 0.0
Mn152 Mn 0.5188 0.55237 0.60963 0.0
O153 O 0.5212 0.58295 0.53015 0.0
O154 O 0.47407 0.5226 0.59849 0.0
O155 O 0.54901 0.47259 0.52491 0.0
O156 O 0.54154 0.45412 0.4641 0.0
O157 O 0.55576 0.53895 0.6418 0.0
O158 O 0.5207 0.59949 0.59214 0.0
C159 C 0.53116 0.54304 0.43968 0.0
C160 C 0.61605 0.53907 0.50525 0.0
C161 C 0.46111 0.50851 0.56623 0.0
C162 C 0.56831 0.52669 0.61092 0.0
C163 C 0.51757 0.60655 0.55739 0.0
C164 C 0.54376 0.4464 0.49849 0.0
O165 O 0.52387 0.52583 0.47054 0.0
O166 O 0.55615 0.53101 0.41946 0.0
O167 O 0.98318 0.46161 0.03212 0.0
Mn168 Mn 0.03759 0.48776 0.03693 0.0
O169 O 0.96506 0.49446 0.98628 0.0
Mn170 Mn 0.01228 0.50295 0.9692 0.0
O171 O 0.09258 0.51333 0.04459 0.0
O172 O 0.02732 0.49968 0.09208 0.0
Mn173 Mn 0.06186 0.47994 0.1166 0.0
O174 O 0.0544 0.43322 0.04787 0.0
O175 O 0.1075 0.50269 0.1048 0.0
O176 O 0.02189 0.54358 0.02863 0.0
O177 O 0.03093 0.55167 0.96911 0.0
O178 O 0.03927 0.4996 0.15443 0.0
O179 O 0.05243 0.43 0.10998 0.0
C180 C 0.0414 0.46893 0.94277 0.0
C181 C 0.95746 0.4729 0.01251 0.0
C182 C 0.11558 0.51638 0.07336 0.0
C183 C 0.01875 0.50843 0.12639 0.0
C184 C 0.05617 0.41457 0.07831 0.0
C185 C 0.02606 0.56579 1.00088 0.0
O186 O 0.04843 0.47518 0.97975 0.0
O187 O 0.01294 0.47984 0.92567 0.0
C188 C 0.10779 0.11404 0.25327 0.0
C189 C 0.14413 0.13186 0.25032 0.0
C190 C 0.09517 0.10066 0.28798 0.0
C191 C 0.11909 0.10606 0.32099 0.0
C192 C 0.15548 0.12503 0.31821 0.0
C193 C 0.16765 0.1372 0.28298 0.0
C194 C 0.05653 0.0798 0.2891 0.0
C195 C 0.18187 0.13192 0.35241 0.0
C196 C 0.07444 0.09256 0.41686 0.0
C197 C 0.0791 0.05563 0.42379 0.0
C198 C 0.08811 0.10978 0.3841 0.0
C199 C 0.10694 0.08969 0.35767 0.0
C200 C 0.11322 0.05309 0.36574 0.0
C201 C 0.09923 0.03666 0.39839 0.0
C202 C 0.08072 0.14879 0.37678 0.0
C203 C 0.13298 0.03032 0.33878 0.0
H204 H 0.08959 0.10951 0.22809 0.0
H205 H 0.19573 0.15104 0.28093 0.0
H206 H 0.0578 0.05118 0.29851 0.0
H207 H 0.04055 0.09379 0.30987 0.0
H208 H 0.04133 0.07787 0.26116 0.0
H209 H 0.20837 0.14905 0.34618 0.0
H210 H 0.16891 0.14629 0.37543 0.0
H211 H 0.18804 0.10498 0.36299 0.0
H212 H 0.05808 0.10713 0.43566 0.0
H213 H 0.10245 0.00793 0.40319 0.0
H214 H 0.06076 0.14808 0.35222 0.0
H215 H 0.1066 0.16635 0.36958 0.0
H216 H 0.06911 0.16206 0.40146 0.0
H217 H 0.11631 0.02479 0.31178 0.0
H218 H 0.13771 1.00323 0.35024 0.0
H219 H 0.16012 0.04595 0.3323 0.0
C220 C 0.40657 0.91731 0.7566 0.0
C221 C 0.40995 0.93793 0.72418 0.0
C222 C 0.42622 0.93026 0.79044 0.0
C223 C 0.45034 0.96449 0.79172 0.0
C224 C 0.45321 0.98585 0.7591 0.0
C225 C 0.43278 0.97235 0.72564 0.0
C226 C 0.4222 0.90653 0.82443 0.0
C227 C 0.47908 0.02205 0.75905 0.0
C228 C 0.48262 1.00149 0.89135 0.0
C229 C 0.51473 0.98478 0.89675 0.0
C230 C 0.46225 0.99702 0.85642 0.0
C231 C 0.47466 0.97581 0.8263 0.0
C232 C 0.50868 0.96154 0.83092 0.0
C233 C 0.52808 0.96598 0.86609 0.0
C234 C 0.42619 0.01274 0.85256 0.0
C235 C 0.5234 0.9393 0.79956 0.0
H236 H 0.389 0.89059 0.75521 0.0
H237 H 0.43562 0.988 0.70029 0.0
H238 H 0.4488 0.89622 0.8314 0.0
H239 H 0.41548 0.92335 0.84932 0.0
H240 H 0.40026 0.88216 0.81962 0.0
H241 H 0.47534 0.03716 0.73286 0.0
H242 H 0.47473 0.04038 0.78372 0.0
H243 H 0.50817 0.01637 0.76152 0.0
H244 H 0.4721 0.01586 0.91505 0.0
H245 H 0.55312 0.95332 0.87009 0.0
H246 H 0.40279 0.98962 0.8512 0.0
H247 H 0.42463 0.02763 0.82597 0.0
H248 H 0.42256 0.03216 0.87665 0.0
H249 H 0.50573 0.91191 0.79511 0.0
H250 H 0.55232 0.93434 0.80602 0.0
H251 H 0.52251 0.95382 0.77269 0.0
C252 C 0.61131 0.45478 0.76875 0.0
C253 C 0.63545 0.43022 0.77993 0.0
C254 C 0.6102 0.4665 0.73176 0.0
C255 C 0.63401 0.45323 0.70533 0.0
C256 C 0.65891 0.42883 0.7165 0.0
C257 C 0.65929 0.41743 0.75372 0.0
C258 C 0.58321 0.49286 0.72106 0.0
C259 C 0.68502 0.41477 0.68921 0.0
C260 C 0.5867 0.46559 0.61384 0.0
C261 C 0.59795 0.50381 0.61206 0.0
C262 C 0.60294 0.44558 0.64132 0.0
C263 C 0.63147 0.46464 0.66594 0.0
C264 C 0.64863 0.5005 0.65739 0.0
C265 C 0.63139 0.51993 0.63011 0.0
C266 C 0.58427 0.40702 0.64883 0.0
C267 C 0.68025 0.52119 0.68183 0.0
H268 H 0.59306 0.4646 0.78906 0.0
H269 H 0.67826 0.39842 0.762 0.0
H270 H 0.59842 0.51904 0.71123 0.0
H271 H 0.56399 0.48016 0.69758 0.0
H272 H 0.56648 0.50004 0.74501 0.0
H273 H 0.70229 0.39534 0.7023 0.0
H274 H 0.66922 0.40028 0.66428 0.0
H275 H 0.7036 0.43858 0.67873 0.0
H276 H 0.56095 0.45314 0.59929 0.0
H277 H 0.64039 0.54949 0.62788 0.0
H278 H 0.56253 0.40926 0.66942 0.0
H279 H 0.60412 0.38968 0.66098 0.0
H280 H 0.57074 0.39272 0.62257 0.0
H281 H 0.6689 0.53593 0.70572 0.0
H282 H 0.69712 0.54235 0.66562 0.0
H283 H 0.69841 0.50199 0.69367 0.0
C284 C 0.90343 0.60184 0.27362 0.0
C285 C 0.92392 0.59621 0.30664 0.0
C286 C 0.91375 0.58974 0.23821 0.0
C287 C 0.94532 0.57145 0.2358 0.0
C288 C 0.96625 0.56551 0.26906 0.0
C289 C 0.95526 0.57797 0.30424 0.0
C290 C 0.89083 0.59638 0.20337 0.0
C291 C 1.00014 0.54595 0.2675 0.0
C292 C 0.95895 0.50696 0.15306 0.0
C293 C 0.98811 0.5281 0.13593 0.0
C294 C 0.94309 0.52144 0.18465 0.0
C295 C 0.95627 0.55818 0.19846 0.0
C296 C 0.98214 0.58116 0.17797 0.0
C297 C 0.99752 0.56582 0.14651 0.0
C298 C 0.91559 0.49601 0.20571 0.0
C299 C 0.99686 0.6205 0.19173 0.0
H300 H 0.87914 0.61583 0.27562 0.0
H301 H 0.9712 0.57339 0.32964 0.0
H302 H 0.90855 0.61204 0.18306 0.0
H303 H 0.87909 0.56933 0.18911 0.0
H304 H 0.86773 0.61216 0.20998 0.0
H305 H 0.01366 0.54408 0.29587 0.0
H306 H 0.9924 0.51736 0.25484 0.0
H307 H 0.02061 0.56092 0.24923 0.0
H308 H 0.95232 0.47751 0.14526 0.0
H309 H 0.02066 0.58185 0.13366 0.0
H310 H 0.89213 0.51047 0.21406 0.0
H311 H 0.92937 0.48786 0.23197 0.0
H312 H 0.9045 0.47027 0.18866 0.0
H313 H 0.974 0.63567 0.20043 0.0
H314 H 0.01233 0.63626 0.16982 0.0
H315 H 0.0159 0.61978 0.21682 0.0
C316 C 0.30096 0.09947 0.13126 0.0
C317 C 0.26617 0.08234 0.11651 0.0
C318 C 0.33404 0.08872 0.11788 0.0
C319 C 0.33246 0.05972 0.08952 0.0
C320 C 0.29738 0.04168 0.07551 0.0
C321 C 0.26489 0.05316 0.08913 0.0
C322 C 0.37074 0.10894 0.13358 0.0
C323 C 0.29413 0.01054 0.0456 0.0
C324 C 0.41429 0.06446 0.02587 0.0
C325 C 0.43662 0.04038 0.04252 0.0
C326 C 0.3802 0.07017 0.04031 0.0
C327 C 0.36723 0.05073 0.07201 0.0
C328 C 0.38817 0.02404 0.08721 0.0
C329 C 0.42282 0.01935 0.07248 0.0
C330 C 0.35935 0.09906 0.02311 0.0
C331 C 0.37509 1.00208 0.12048 0.0
H332 H 0.30244 0.12149 0.15299 0.0
H333 H 0.23813 0.03929 0.07817 0.0
H334 H 0.38807 0.08874 0.14497 0.0
H335 H 0.38598 0.12323 0.11067 0.0
H336 H 0.36744 0.12995 0.15633 0.0
H337 H 0.26494 0.99799 0.03907 0.0
H338 H 0.3061 0.02121 0.01927 0.0
H339 H 0.31017 0.98843 0.05494 0.0
H340 H 0.42493 0.08111 1.00298 0.0
H341 H 0.44014 1.0013 0.08609 0.0
H342 H 0.35867 0.12244 0.04405 0.0
H343 H 0.33026 0.08698 0.01556 0.0
H344 H 0.3722 0.11044 0.99743 0.0
H345 H 0.37791 0.02079 0.14621 0.0
H346 H 0.39133 0.97885 0.12548 0.0
H347 H 0.34537 0.99054 0.11613 0.0
C348 C 0.29769 0.9253 0.5854 0.0
C349 C 0.30556 0.92672 0.6246 0.0
C350 C 0.26427 0.9348 0.57021 0.0
C351 C 0.23833 0.94695 0.59466 0.0
C352 C 0.24594 0.94837 0.63421 0.0
C353 C 0.27926 0.93797 0.64868 0.0
C354 C 0.25714 0.93276 0.52793 0.0
C355 C 0.21927 0.96176 0.66128 0.0
C356 C 0.1756 0.01532 0.56215 0.0
C357 C 0.14073 0.99337 0.55967 0.0
C358 C 0.20772 1.00013 0.57188 0.0
C359 C 0.20507 0.96181 0.57896 0.0
C360 C 0.17034 0.93881 0.57357 0.0
C361 C 0.13839 0.95492 0.56395 0.0
C362 C 0.24403 0.02577 0.57735 0.0
C363 C 0.16658 0.89771 0.58027 0.0
H364 H 0.31793 0.91728 0.56637 0.0
H365 H 0.28457 0.9385 0.67896 0.0
H366 H 0.2293 0.91719 0.52031 0.0
H367 H 0.25751 0.96125 0.51759 0.0
H368 H 0.27816 0.91908 0.51303 0.0
H369 H 0.2286 0.95988 0.69125 0.0
H370 H 0.21624 0.99119 0.65619 0.0
H371 H 0.19149 0.94514 0.65646 0.0
H372 H 0.17744 0.04508 0.55876 0.0
H373 H 0.11144 0.93796 0.56248 0.0
H374 H 0.26582 0.01459 0.56134 0.0
H375 H 0.25331 0.02761 0.60763 0.0
H376 H 0.2418 0.05433 0.5682 0.0
H377 H 0.1879 0.88473 0.56519 0.0
H378 H 0.13875 0.88304 0.57089 0.0
H379 H 0.17119 0.89358 0.61081 0.0
C380 C 0.74116 0.40126 0.97836 0.0
C381 C 0.74004 0.39877 0.93886 0.0
C382 C 0.77456 0.41352 0.99898 0.0
C383 C 0.80732 0.42265 0.97942 0.0
C384 C 0.8061 0.42045 0.93946 0.0
C385 C 0.77239 0.40871 0.9197 0.0
C386 C 0.77493 0.41635 0.0415 0.0
C387 C 0.8405 0.42983 0.91748 0.0
C388 C 0.89324 0.48547 0.01368 0.0
C389 C 0.9183 0.45976 0.01726 0.0
C390 C 0.85569 0.47357 1.00519 0.0
C391 C 0.84321 0.43502 1.00004 0.0
C392 C 0.86774 0.40887 1.0077 0.0
C393 C 0.90534 0.42165 0.0164 0.0
C394 C 0.8305 0.50235 0.99725 0.0
C395 C 0.85526 0.36753 1.0024 0.0
H396 H 0.71598 0.39345 0.99301 0.0
H397 H 0.77155 0.40605 0.88913 0.0
H398 H 0.79305 0.39714 0.05344 0.0
H399 H 0.78663 0.44495 0.05192 0.0
H400 H 0.74681 0.40948 0.05232 0.0
H401 H 0.8346 0.42652 0.88648 0.0
H402 H 0.85321 0.45898 0.92443 0.0
H403 H 0.86126 0.41151 0.92542 0.0
H404 H 0.90357 0.51501 0.01446 0.0
H405 H 0.92495 0.40189 0.01884 0.0
H406 H 0.80299 0.49446 1.00898 0.0
H407 H 0.82618 0.50412 0.96627 0.0
H408 H 0.8425 0.5304 1.00914 0.0
H409 H 0.82793 0.35978 0.01458 0.0
H410 H 0.87551 0.3511 0.01556 0.0
H411 H 0.85211 0.35972 0.97177 0.0
C412 C 0.8332 0.61704 0.50677 0.0
C413 C 0.84266 0.60752 0.47001 0.0
C414 C 0.79685 0.60825 0.51835 0.0
C415 C 0.76963 0.58793 0.49325 0.0
C416 C 0.77925 0.57656 0.45685 0.0
C417 C 0.81528 0.5872 0.4454 0.0
C418 C 0.78733 0.62155 0.55707 0.0
C419 C 0.75121 0.55393 0.42953 0.0
C420 C 0.68086 0.53331 0.52362 0.0
C421 C 0.65483 0.55563 0.51138 0.0
C422 C 0.71884 0.54486 0.52068 0.0
C423 C 0.73071 0.57913 0.50426 0.0
C424 C 0.70446 0.6028 0.49401 0.0
C425 C 0.66664 0.59078 0.49795 0.0
C426 C 0.74588 0.51893 0.53215 0.0
C427 C 0.71602 0.63937 0.47607 0.0
H428 H 0.85404 0.63189 0.52651 0.0
H429 H 0.82141 0.58037 0.41661 0.0
H430 H 0.76576 0.64018 0.55438 0.0
H431 H 0.77566 0.59756 0.57331 0.0
H432 H 0.81176 0.63693 0.57334 0.0
H433 H 0.76388 0.5448 0.40347 0.0
H434 H 0.73777 0.52886 0.44308 0.0
H435 H 0.72915 0.57068 0.42141 0.0
H436 H 0.67137 0.50596 0.5337 0.0
H437 H 0.64622 0.60762 0.48789 0.0
H438 H 0.77028 0.53442 0.54824 0.0
H439 H 0.75602 0.50601 0.50648 0.0
H440 H 0.73296 0.49638 0.54962 0.0
H441 H 0.74006 0.65555 0.49217 0.0
H442 H 0.69314 0.65658 0.47432 0.0
H443 H 0.72477 0.63393 0.44705 0.0
C444 C 0.10267 0.21074 0.12918 0.0
C445 C 0.14097 0.21199 0.13637 0.0
C446 C 0.08791 0.24008 0.11153 0.0
C447 C 0.11178 0.27216 0.10157 0.0
C448 C 0.15058 0.27289 0.1076 0.0
C449 C 0.16462 0.24281 0.12449 0.0
C450 C 0.04647 0.23763 0.10549 0.0
C451 C 0.17727 0.30676 0.09899 0.0
C452 C 0.07566 0.3535 0.05006 0.0
C453 C 0.06813 0.37637 0.08086 0.0
C454 C 0.08916 0.31897 0.05589 0.0
C455 C 0.09618 0.30756 0.09323 0.0
C456 C 0.08871 0.33064 0.124 0.0
C457 C 0.0744 0.3637 0.1175 0.0
C458 C 0.09593 0.29465 0.02227 0.0
C459 C 0.09655 0.32091 0.16439 0.0
H460 H 0.08413 0.18693 0.13777 0.0
H461 H 0.19422 0.24429 0.13013 0.0
H462 H 0.03577 0.2564 0.12648 0.0
H463 H 0.03924 0.24688 0.07702 0.0
H464 H 0.0322 0.20891 0.10856 0.0
H465 H 0.20648 0.30124 0.10036 0.0
H466 H 0.17067 0.31645 0.07059 0.0
H467 H 0.17462 0.32977 0.11977 0.0
H468 H 0.07117 0.36247 0.02169 0.0
H469 H 0.06904 0.38025 0.14217 0.0
H470 H 0.07873 0.26704 0.02343 0.0
H471 H 0.12529 0.28979 0.023 0.0
H472 H 0.08934 0.3071 0.99514 0.0
H473 H 0.0795 0.29433 0.17057 0.0
H474 H 0.09061 0.34269 0.18523 0.0
H475 H 0.12605 0.31709 0.16872 0.0
C476 C 0.67333 0.26327 0.88923 0.0
C477 C 0.6503 0.28824 0.90227 0.0
C478 C 0.66507 0.22522 0.89505 0.0
C479 C 0.63357 0.21242 0.91512 0.0
C480 C 0.60921 0.23758 0.92673 0.0
C481 C 0.61786 0.27543 0.91985 0.0
C482 C 0.69097 0.19914 0.88135 0.0
C483 C 0.57536 0.22504 0.94849 0.0
C484 C 0.58823 0.11594 0.9327 0.0
C485 C 0.6017 0.11322 0.96979 0.0
C486 C 0.60222 0.14624 0.91168 0.0
C487 C 0.62891 0.17437 0.92921 0.0
C488 C 0.64631 0.16837 0.9644 0.0
C489 C 0.6337 0.13639 0.98329 0.0
C490 C 0.585 0.1505 0.87302 0.0
C491 C 0.67352 0.19832 0.98513 0.0
H492 H 0.69832 0.27373 0.87533 0.0
H493 H 0.60018 0.29521 0.9295 0.0
H494 H 0.70859 0.19193 0.90541 0.0
H495 H 0.67512 0.17282 0.86905 0.0
H496 H 0.70945 0.21191 0.8599 0.0
H497 H 0.55952 0.24825 0.95541 0.0
H498 H 0.55667 0.20307 0.93188 0.0
H499 H 0.58371 0.21289 0.9752 0.0
H500 H 0.56358 0.09765 0.92217 0.0
H501 H 0.64399 0.13377 0.01206 0.0
H502 H 0.60549 0.16512 0.85451 0.0
H503 H 0.56188 0.1672 0.87549 0.0
H504 H 0.57359 0.12297 0.85946 0.0
H505 H 0.69647 0.20829 0.96704 0.0
H506 H 0.68547 0.18851 0.01159 0.0
H507 H 0.65924 0.22254 0.99252 0.0
C508 C 0.95094 0.719 0.50657 0.0
C509 C 0.95206 0.70799 0.46826 0.0
C510 C 0.96232 0.75602 0.51944 0.0
C511 C 0.97627 0.78254 0.49368 0.0
C512 C 0.98123 0.77082 0.4559 0.0
C513 C 0.96861 0.73385 0.44351 0.0
C514 C 0.95626 0.76726 0.55982 0.0
C515 C 0.99682 0.79805 0.4276 0.0
C516 C 0.95091 0.8797 0.49747 0.0
C517 C 0.98547 0.90127 0.50535 0.0
C518 C 0.94715 0.84083 0.49589 0.0
C519 C 0.97861 0.82305 0.50367 0.0
C520 C 0.01256 0.84472 0.51639 0.0
C521 C 0.01574 0.88389 0.51671 0.0
C522 C 0.91049 0.81909 0.48169 0.0
C523 C 0.04636 0.82674 0.52614 0.0
H524 H 0.93948 0.69904 0.52635 0.0
H525 H 0.96975 0.72606 0.41387 0.0
H526 H 0.97956 0.78785 0.57172 0.0
H527 H 0.93069 0.78056 0.56078 0.0
H528 H 0.95296 0.74288 0.57797 0.0
H529 H 1.00479 0.78367 0.40162 0.0
H530 H 0.97569 0.81592 0.41951 0.0
H531 H 0.02147 0.81652 0.44001 0.0
H532 H 0.92761 0.89328 0.48825 0.0
H533 H 0.0426 0.90056 0.5222 0.0
H534 H 0.90212 0.79574 0.50013 0.0
H535 H 0.91331 0.80692 0.45295 0.0
H536 H 0.88801 0.8368 0.48022 0.0
H537 H 0.03899 0.80185 0.54289 0.0
H538 H 0.06796 0.84642 0.54229 0.0
H539 H 0.05825 0.81739 0.49976 0.0
C540 C 0.46614 0.80233 0.60459 0.0
C541 C 0.44006 0.81577 0.58068 0.0
C542 C 0.47877 0.76834 0.59601 0.0
C543 C 0.46484 0.74737 0.5627 0.0
C544 C 0.43846 0.76087 0.53844 0.0
C545 C 0.42615 0.79488 0.54787 0.0
C546 C 0.50627 0.75446 0.62309 0.0
C547 C 0.42272 0.73901 0.50298 0.0
C548 C 0.52057 0.67075 0.53315 0.0
C549 C 0.50119 0.6404 0.55015 0.0
C550 C 0.50799 0.70572 0.53528 0.0
C551 C 0.47571 0.70994 0.55506 0.0
C552 C 0.45507 0.6786 0.57022 0.0
C553 C 0.46799 0.64422 0.56733 0.0
C554 C 0.5303 0.73857 0.51839 0.0
C555 C 0.42078 0.68176 0.59188 0.0
H556 H 0.47636 0.81834 0.63023 0.0
H557 H 0.40551 0.80508 0.52971 0.0
H558 H 0.49366 0.72801 0.63478 0.0
H559 H 0.53098 0.74852 0.60805 0.0
H560 H 0.51545 0.77484 0.64694 0.0
H561 H 0.40448 0.75459 0.48574 0.0
H562 H 0.44546 0.73182 0.48553 0.0
H563 H 0.40641 0.71243 0.51047 0.0
H564 H 0.54645 0.66769 0.52028 0.0
H565 H 0.45318 0.62049 0.58055 0.0
H566 H 0.54344 0.75827 0.54133 0.0
H567 H 0.51198 0.75376 0.50089 0.0
H568 H 0.55237 0.73005 0.50072 0.0
H569 H 0.42851 0.69887 0.61834 0.0
H570 H 0.4065 0.65415 0.59938 0.0
H571 H 0.40096 0.69594 0.5752 0.0
C572 C 0.93048 0.87947 0.79263 0.0
C573 C 0.91122 0.90167 0.81614 0.0
C574 C 0.94457 0.89207 0.75817 0.0
C575 C 0.93808 0.92722 0.74531 0.0
C576 C 0.91748 0.94917 0.76785 0.0
C577 C 0.90528 0.93673 0.803 0.0
C578 C 0.96766 0.86822 0.73611 0.0
C579 C 0.9093 0.98664 0.75542 0.0
C580 C 0.00946 0.98151 0.68561 0.0
C581 C 0.9931 0.97731 0.64861 0.0
C582 C 0.99206 0.96518 0.71657 0.0
C583 C 0.95697 0.94328 0.7113 0.0
C584 C 0.94022 0.938 0.67413 0.0
C585 C 0.95839 0.95507 0.64323 0.0
C586 C 0.01132 0.97204 0.75529 0.0
C587 C 0.90282 0.91482 0.66722 0.0
H588 H 0.93497 0.85206 0.80097 0.0
H589 H 0.8918 0.95541 0.82036 0.0
H590 H 0.95623 0.86327 0.70663 0.0
H591 H 0.99628 0.88301 0.73494 0.0
H592 H 0.96903 0.84093 0.74882 0.0
H593 H 0.88892 0.99812 0.77328 0.0
H594 H 0.93522 0.00668 0.75692 0.0
H595 H 0.89835 0.98444 0.72566 0.0
H596 H 0.03624 0.99828 0.69093 0.0
H597 H 0.94524 0.9514 0.61514 0.0
H598 H 0.01417 0.94518 0.76819 0.0
H599 H 0.99452 0.98737 0.77407 0.0
H600 H 0.03928 0.98848 0.75449 0.0
H601 H 0.90387 0.88622 0.67675 0.0
H602 H 0.89338 0.9131 0.63697 0.0
H603 H 0.88205 0.92686 0.68403 0.0
C604 C 0.64014 0.07865 0.31812 0.0
C605 C 0.66616 0.11092 0.32063 0.0
C606 C 0.62596 0.06277 0.28275 0.0
C607 C 0.63822 0.07962 0.24929 0.0
C608 C 0.6656 0.11152 0.25196 0.0
C609 C 0.67912 0.12682 0.28763 0.0
C610 C 0.59662 0.02905 0.2812 0.0
C611 C 0.67916 0.13076 0.2172 0.0
C612 C 0.61549 0.03548 0.14973 0.0
C613 C 0.58564 0.05364 0.13834 0.0
C614 C 0.63201 0.04211 0.18661 0.0
C615 C 0.61859 0.06772 0.2121 0.0
C616 C 0.58727 0.08438 0.20114 0.0
C617 C 0.57097 0.07665 0.16488 0.0
C618 C 0.66479 0.02312 0.19777 0.0
C619 C 0.57214 0.11227 0.22685 0.0
H620 H 0.63014 0.06651 0.34382 0.0
H621 H 0.69928 0.15182 0.28981 0.0
H622 H 0.56975 0.03687 0.27088 0.0
H623 H 0.60385 0.00738 0.26103 0.0
H624 H 0.5929 0.01695 0.30928 0.0
H625 H 0.70283 0.15309 0.2239 0.0
H626 H 0.68783 0.11036 0.19651 0.0
H627 H 0.6563 0.14334 0.20343 0.0
H628 H 0.62702 0.01772 0.12946 0.0
H629 H 0.54746 0.09032 0.15661 0.0
H630 H 0.66071 0.0104 0.22548 0.0
H631 H 0.69009 0.04399 0.20098 0.0
H632 H 0.66946 1.00118 0.17653 0.0
H633 H 0.5654 0.10001 0.25425 0.0
H634 H 0.54685 0.12182 0.21437 0.0
H635 H 0.59343 0.13698 0.23277 0.0
C636 C 0.47215 0.65466 0.28526 0.0
C637 C 0.43951 0.64119 0.26424 0.0
C638 C 0.47761 0.6437 0.32213 0.0
C639 C 0.44959 0.61886 0.33796 0.0
C640 C 0.41488 0.60901 0.31843 0.0
C641 C 0.41044 0.61976 0.28129 0.0
C642 C 0.5149 0.65528 0.34237 0.0
C643 C 0.38379 0.58429 0.33543 0.0
C644 C 0.49323 0.54301 0.38155 0.0
C645 C 0.50193 0.55798 0.41826 0.0
C646 C 0.47396 0.56155 0.35563 0.0
C647 C 0.46084 0.5948 0.36757 0.0
C648 C 0.46475 0.60711 0.40614 0.0
C649 C 0.48615 0.58876 0.43125 0.0
C650 C 0.47154 0.54755 0.31468 0.0
C651 C 0.44883 0.64085 0.42052 0.0
H652 H 0.49418 0.67205 0.27217 0.0
H653 H 0.38483 0.61018 0.26503 0.0
H654 H 0.51132 0.66639 0.37129 0.0
H655 H 0.52974 0.6307 0.34489 0.0
H656 H 0.53252 0.67688 0.32735 0.0
H657 H 0.35663 0.58637 0.32092 0.0
H658 H 0.38873 0.55484 0.33282 0.0
H659 H 0.38249 0.5917 0.36593 0.0
H660 H 0.50425 0.51813 0.37212 0.0
H661 H 0.49215 0.5997 0.46002 0.0
H662 H 0.48608 0.56901 0.29706 0.0
H663 H 0.44229 0.54184 0.30397 0.0
H664 H 0.48413 0.5216 0.3105 0.0
H665 H 0.47093 0.6652 0.42296 0.0
H666 H 0.43845 0.63639 0.44919 0.0
H667 H 0.42588 0.64753 0.40161 0.0
C668 C 0.08815 0.38426 0.7546 0.0
C669 C 0.12278 0.39571 0.7401 0.0
C670 C 0.08123 0.39301 0.79226 0.0
C671 C 0.10981 0.41328 0.81611 0.0
C672 C 0.14546 0.4229 0.80221 0.0
C673 C 0.15145 0.41426 0.76429 0.0
C674 C 0.0425 0.38306 0.80559 0.0
C675 C 0.17672 0.44408 0.82686 0.0
C676 C 0.07506 0.47991 0.88544 0.0
C677 C 0.06911 0.4582 0.91704 0.0
C678 C 0.08936 0.46598 0.8529 0.0
C679 C 0.1004 0.43018 0.85268 0.0
C680 C 0.09886 0.40992 0.88618 0.0
C681 C 0.08237 0.42389 0.91803 0.0
C682 C 0.08906 0.48821 0.8177 0.0
C683 C 0.11228 0.37253 0.88752 0.0
H684 H 0.06588 0.37013 0.73596 0.0
H685 H 0.17847 0.42263 0.75332 0.0
H686 H 0.0432 0.36908 0.83276 0.0
H687 H 0.0299 0.40887 0.81046 0.0
H688 H 0.02439 0.36448 0.78477 0.0
H689 H 0.20387 0.44464 0.81373 0.0
H690 H 0.17156 0.47322 0.83193 0.0
H691 H 0.17829 0.43147 0.85476 0.0
H692 H 0.06515 0.50676 0.88493 0.0
H693 H 0.07778 0.40709 0.94242 0.0
H694 H 0.06975 0.47266 0.79574 0.0
H695 H 0.11691 0.49238 0.806 0.0
H696 H 0.0802 0.51595 0.82304 0.0
H697 H 0.09142 0.35105 0.87285 0.0
H698 H 0.11667 0.36434 0.91702 0.0
H699 H 0.13856 0.37282 0.87284 0.0
C700 C 0.78966 0.89137 0.92593 0.0
C701 C 0.82524 0.91109 0.92346 0.0
C702 C 0.7603 0.909 0.9394 0.0
C703 C 0.76668 0.94722 0.95161 0.0
C704 C 0.80292 0.96694 0.95004 0.0
C705 C 0.83153 0.94883 0.9355 0.0
C706 C 0.72219 0.88681 0.93991 0.0
C707 C 0.81147 0.00721 0.96369 0.0
C708 C 0.67956 0.99545 0.95248 0.0
C709 C 0.66839 0.99043 0.98949 0.0
C710 C 0.71262 0.9836 0.9403 0.0
C711 C 0.73526 0.96625 0.96572 0.0
C712 C 0.72558 0.964 1.00392 0.0
C713 C 0.69226 0.97577 0.01518 0.0
C714 C 0.72151 0.98661 0.89933 0.0
C715 C 0.7488 0.94629 0.03233 0.0
H716 H 0.7846 0.86232 0.91633 0.0
H717 H 0.85901 0.96418 0.93364 0.0
H718 H 0.71253 0.88647 0.96911 0.0
H719 H 0.70224 0.90016 0.92246 0.0
H720 H 0.72159 0.85761 0.92904 0.0
H721 H 0.84122 0.01833 0.9618 0.0
H722 H 0.79469 0.02442 0.94675 0.0
H723 H 0.80383 0.01029 0.99345 0.0
H724 H 0.66071 0.00539 0.93206 0.0
H725 H 0.68329 0.97058 0.04346 0.0
H726 H 0.7174 0.9584 0.88527 0.0
H727 H 0.75091 0.99846 0.89671 0.0
H728 H 0.70367 0.00421 0.88414 0.0
H729 H 0.74508 0.91573 0.02645 0.0
H730 H 0.74092 0.95172 0.0617 0.0
H731 H 0.77862 0.95676 0.03012 0.0
C732 C 0.78809 0.15172 0.43687 0.0
C733 C 0.75524 0.12664 0.43294 0.0
C734 C 0.82065 0.14089 0.45268 0.0
C735 C 0.82004 0.10434 0.46551 0.0
C736 C 0.78616 0.07982 0.46391 0.0
C737 C 0.75424 0.09111 0.4471 0.0
C738 C 0.85628 0.16753 0.45276 0.0
C739 C 0.78414 0.04077 0.47756 0.0
C740 C 0.9047 0.05804 0.44875 0.0
C741 C 0.92183 0.05826 0.48504 0.0
C742 C 0.87192 0.07301 0.44239 0.0
C743 C 0.85556 0.08942 0.47297 0.0
C744 C 0.87303 0.09105 0.50963 0.0
C745 C 0.90613 0.07539 0.51531 0.0
C746 C 0.85444 0.07053 0.40277 0.0
C747 C 0.85638 0.1087 0.54276 0.0
H748 H 0.78875 0.1792 0.42576 0.0
H749 H 0.72863 0.07191 0.44431 0.0
H750 H 0.87189 0.16802 0.4803 0.0
H751 H 0.87404 0.15801 0.43079 0.0
H752 H 0.85131 0.1963 0.44684 0.0
H753 H 0.75508 0.0276 0.48024 0.0
H754 H 0.79745 0.02341 0.45727 0.0
H755 H 0.79935 0.04082 0.50529 0.0
H756 H 0.91664 0.04549 0.42483 0.0
H757 H 0.91911 0.0758 0.54338 0.0
H758 H 0.85084 0.09871 0.39354 0.0
H759 H 0.82657 0.05381 0.40218 0.0
H760 H 0.87122 0.05752 0.38198 0.0
H761 H 0.8543 0.1383 0.53754 0.0
H762 H 0.87297 0.10739 0.56951 0.0
H763 H 0.82784 0.09454 0.54613 0.0
C764 C 0.32576 0.60335 0.10075 0.0
C765 C 0.32869 0.64229 0.10283 0.0
C766 C 0.29255 0.58156 0.08797 0.0
C767 C 0.26185 0.59933 0.07713 0.0
C768 C 0.26569 0.63858 0.07621 0.0
C769 C 0.29916 0.65962 0.08908 0.0
C770 C 0.28928 0.53974 0.08962 0.0
C771 C 0.23331 0.65854 0.06574 0.0
C772 C 0.1713 0.54321 0.03902 0.0
C773 C 0.15245 0.53842 0.07239 0.0
C774 C 0.20743 0.56273 0.03994 0.0
C775 C 0.22432 0.5779 0.07484 0.0
C776 C 0.20498 0.57359 0.10837 0.0
C777 C 0.1694 0.55399 0.10666 0.0
C778 C 0.22771 0.56684 1.00388 0.0
C779 C 0.22177 0.58963 0.14623 0.0
H780 H 0.34875 0.58994 0.11107 0.0
H781 H 0.30108 0.68971 0.09117 0.0
H782 H 0.27325 0.53056 0.11427 0.0
H783 H 0.27414 0.52596 0.06397 0.0
H784 H 0.31682 0.53009 0.09251 0.0
H785 H 0.24226 0.68835 0.06054 0.0
H786 H 0.21773 0.64507 0.04021 0.0
H787 H 0.214 0.65708 0.08914 0.0
H788 H 0.15821 0.53109 0.01258 0.0
H789 H 0.15471 0.55093 0.13253 0.0
H790 H 0.25359 0.55409 1.00648 0.0
H791 H 0.23582 0.59676 0.99882 0.0
H792 H 0.21069 0.55352 0.97906 0.0
H793 H 0.24752 0.57777 0.1532 0.0
H794 H 0.20264 0.58385 0.16948 0.0
H795 H 0.22931 0.62022 0.14518 0.0
C796 C 0.24162 0.47433 0.57583 0.0
C797 C 0.23596 0.45436 0.60855 0.0
C798 C 0.2756 0.47661 0.55824 0.0
C799 C 0.30442 0.4588 0.57414 0.0
C800 C 0.29687 0.4347 0.60417 0.0
C801 C 0.26254 0.43259 0.62089 0.0
C802 C 0.28206 0.50176 0.52564 0.0
C803 C 0.32664 0.41517 0.62213 0.0
C804 C 0.40311 0.46722 0.53971 0.0
C805 C 0.42053 0.49669 0.56365 0.0
C806 C 0.36467 0.45525 0.54127 0.0
C807 C 0.34371 0.47321 0.56733 0.0
C808 C 0.36108 0.50424 0.58986 0.0
C809 C 0.39893 0.5156 0.58749 0.0
C810 C 0.34677 0.4228 0.51605 0.0
C811 C 0.34011 0.52477 0.61784 0.0
H812 H 0.22076 0.49073 0.56597 0.0
H813 H 0.25785 0.41665 0.64587 0.0
H814 H 0.29639 0.52937 0.53632 0.0
H815 H 0.29994 0.49024 0.50498 0.0
H816 H 0.25555 0.50595 0.51098 0.0
H817 H 0.31489 0.39273 0.64035 0.0
H818 H 0.34286 0.40301 0.60034 0.0
H819 H 0.34604 0.4357 0.63985 0.0
H820 H 0.41958 0.45285 0.52086 0.0
H821 H 0.4119 0.53927 0.60516 0.0
H822 H 0.32014 0.42881 0.50313 0.0
H823 H 0.34051 0.39792 0.53306 0.0
H824 H 0.36501 0.41598 0.49327 0.0
H825 H 0.31652 0.53542 0.60324 0.0
H826 H 0.35785 0.5487 0.63276 0.0
H827 H 0.32864 0.5055 0.63927 0.0
C828 C 0.95483 0.76623 0.96352 0.0
C829 C 0.92141 0.75598 0.94206 0.0
C830 C 0.97411 0.73895 0.98004 0.0
C831 C 0.96004 0.70042 0.97474 0.0
C832 C 0.92591 0.6903 0.95383 0.0
C833 C 0.90719 0.71798 0.93813 0.0
C834 C 0.01 0.75133 1.00247 0.0
C835 C 0.90976 0.64994 0.94648 0.0
C836 C 0.02436 0.626 0.96924 0.0
C837 C 0.01563 0.6046 1.00081 0.0
C838 C 0.00778 0.65783 0.96149 0.0
C839 C 0.98254 0.6703 0.98663 0.0
C840 C 0.97603 0.65093 0.02042 0.0
C841 C 0.99221 0.61808 0.0269 0.0
C842 C 0.01519 0.67634 0.92464 0.0
C843 C 0.95068 0.66401 0.04893 0.0
H844 H 0.96617 0.7954 0.9671 0.0
H845 H 0.88138 0.70976 0.92178 0.0
H846 H 0.01023 0.73698 0.02949 0.0
H847 H 0.03348 0.74366 0.98647 0.0
H848 H 0.01467 0.78191 1.0086 0.0
H849 H 0.8822 0.64667 0.93127 0.0
H850 H 0.92876 0.63562 0.92934 0.0
H851 H 0.90688 0.63564 0.97345 0.0
H852 H 0.04266 0.61643 0.94887 0.0
H853 H 0.98508 0.6021 0.05136 0.0
H854 H 0.02406 0.70664 0.92971 0.0
H855 H 0.98931 0.67288 0.90649 0.0
H856 H 0.03683 0.66447 0.90891 0.0
H857 H 0.95855 0.69424 0.05579 0.0
H858 H 0.95148 0.64873 0.0754 0.0
H859 H 0.9218 0.65998 0.03688 0.0
C860 C 0.4379 0.76741 0.09672 0.0
C861 C 0.41296 0.76163 0.12528 0.0
C862 C 0.45217 0.80358 0.08776 0.0
C863 C 0.44053 0.83432 0.10762 0.0
C864 C 0.4145 0.82838 0.13582 0.0
C865 C 0.40124 0.79187 0.14464 0.0
C866 C 0.4802 0.80882 0.05758 0.0
C867 C 0.40103 0.86049 0.15681 0.0
C868 C 0.51422 0.91479 0.09821 0.0
C869 C 0.50245 0.92683 0.06348 0.0
C870 C 0.49166 0.8874 0.11644 0.0
C871 C 0.45686 0.87242 0.09913 0.0
C872 C 0.44248 0.88952 0.0677 0.0
C873 C 0.46562 0.9171 0.05029 0.0
C874 C 0.50776 0.8703 0.15033 0.0
C875 C 0.40538 0.87458 0.04861 0.0
H876 H 0.44684 0.74364 0.08213 0.0
H877 H 0.38172 0.78683 0.16668 0.0
H878 H 0.46997 0.82536 0.03476 0.0
H879 H 0.50658 0.8245 0.06971 0.0
H880 H 0.48608 0.78191 0.04491 0.0
H881 H 0.37974 0.85096 0.17708 0.0
H882 H 0.42463 0.8778 0.1725 0.0
H883 H 0.38909 0.87863 0.13654 0.0
H884 H 0.5429 0.92247 0.10812 0.0
H885 H 0.4568 0.92654 0.02317 0.0
H886 H 0.51926 0.8449 0.1409 0.0
H887 H 0.48624 0.86196 0.17066 0.0
H888 H 0.53049 0.88981 0.16503 0.0
H889 H 0.40858 0.85039 0.02953 0.0
H890 H 0.39445 0.89592 0.03138 0.0
H891 H 0.38481 0.86493 0.06947 0.0
C892 C 0.07982 0.314 0.592 0.0
C893 C 0.10677 0.31468 0.62145 0.0
C894 C 0.06231 0.28004 0.57511 0.0
C895 C 0.07242 0.24615 0.58776 0.0
C896 C 0.1007 0.24698 0.61664 0.0
C897 C 0.11722 0.28123 0.63337 0.0
C898 C 0.03213 0.28038 0.54481 0.0
C899 C 0.11284 0.21161 0.63071 0.0
C900 C 0.01152 0.15372 0.58846 0.0
C901 C 0.03109 0.13204 0.56526 0.0
C902 C 0.02226 0.19227 0.59342 0.0
C903 C 0.0521 0.20952 0.57324 0.0
C904 C 0.0669 0.18868 0.54442 0.0
C905 C 0.05612 0.1499 0.54069 0.0
C906 C 0.00554 0.21316 0.62444 0.0
C907 C 0.09773 0.20625 0.5212 0.0
H908 H 0.07152 0.34001 0.58314 0.0
H909 H 0.13813 0.28193 0.65612 0.0
H910 H 0.03633 0.26158 0.52046 0.0
H911 H 1.00496 0.26992 0.5561 0.0
H912 H 0.03093 0.30878 0.53469 0.0
H913 H 0.13626 0.21722 0.65211 0.0
H914 H 0.08933 0.19463 0.64349 0.0
H915 H 0.12149 0.19472 0.60682 0.0
H916 H 0.99214 0.13985 0.60746 0.0
H917 H 0.07136 0.13324 0.52267 0.0
H918 H 1.00066 0.24108 0.61556 0.0
H919 H 0.02513 0.21722 0.64953 0.0
H920 H 0.97897 0.19773 0.63299 0.0
H921 H 0.09331 0.23473 0.51362 0.0
H922 H 0.10014 0.18926 0.49495 0.0
H923 H 0.12436 0.20857 0.53799 0.0
C924 C 0.63148 0.27379 0.43826 0.0
C925 C 0.62138 0.24042 0.45632 0.0
C926 C 0.61946 0.30707 0.45099 0.0
C927 C 0.59619 0.30679 0.482 0.0
C928 C 0.58625 0.27331 0.50046 0.0
C929 C 0.5989 0.24057 0.48735 0.0
C930 C 0.63049 0.34218 0.43032 0.0
C931 C 0.56097 0.27175 0.53309 0.0
C932 C 0.58283 0.40162 0.52489 0.0
C933 C 0.55065 0.40806 0.50481 0.0
C934 C 0.59727 0.36793 0.51915 0.0
C935 C 0.57916 0.3405 0.49254 0.0
C936 C 0.54526 0.34602 0.4743 0.0
C937 C 0.53125 0.37953 0.48102 0.0
C938 C 0.6333 0.3629 0.53937 0.0
C939 C 0.52524 0.31789 0.4453 0.0
H940 H 0.64822 0.27387 0.41377 0.0
H941 H 0.59049 0.21468 0.50086 0.0
H942 H 0.60561 0.35096 0.41621 0.0
H943 H 0.64262 0.36514 0.45053 0.0
H944 H 0.65088 0.33838 0.40862 0.0
H945 H 0.55818 0.24433 0.54629 0.0
H946 H 0.57152 0.29382 0.55491 0.0
H947 H 0.53304 0.27708 0.5231 0.0
H948 H 0.59843 0.42399 0.54244 0.0
H949 H 0.50663 0.38478 0.46507 0.0
H950 H 0.65561 0.36473 0.51897 0.0
H951 H 0.63126 0.33497 0.55139 0.0
H952 H 0.64137 0.38444 0.56244 0.0
H953 H 0.54231 0.31631 0.42031 0.0
H954 H 0.49788 0.32521 0.43575 0.0
H955 H 0.52101 0.28977 0.4569 0.0
loop_
_geom_bond_atom_site_label_1
_geom_bond_atom_site_label_2
_geom_bond_distance
_geom_bond_site_symmetry_2
_ccdc_geom_bond_type
H0 C7 0.929 . S
H1 C10 0.930 . S
H2 C12 0.929 . S
H3 C4 0.969 . S
C4 H3 0.969 . S
C4 O5 1.550 . S
C4 H6 0.973 . S
O5 C4 1.550 . S
O5 C11 1.412 . S
H6 C4 0.973 . S
C7 H0 0.929 . S
C7 C8 1.400 . S
C7 C9 1.364 . S
C8 C7 1.400 . S
C8 C12 1.377 . S
C9 C7 1.364 . S
C9 C10 1.374 . S
C10 H1 0.930 . S
C10 C9 1.374 . S
C10 C11 1.383 . S
C11 O5 1.412 . S
C11 C10 1.383 . S
C11 C12 1.394 . S
C12 H2 0.929 . S
C12 C8 1.377 . S
C12 C11 1.394 . S
H13 C20 0.929 . S
H14 C23 0.930 . S
H15 C25 0.929 . S
H16 C17 0.969 . S
C17 H16 0.969 . S
C17 O18 1.550 . S
C17 H19 0.973 . S
O18 C17 1.550 . S
O18 C24 1.412 . S
H19 C17 0.973 . S
C20 H13 0.929 . S
C20 C21 1.400 . S
C20 C22 1.364 . S
C21 C20 1.400 . S
C21 C25 1.377 . S
C22 C20 1.364 . S
C22 C23 1.374 . S
C23 H14 0.930 . S
C23 C22 1.374 . S
C23 C24 1.383 . S
C24 O18 1.412 . S
C24 C23 1.383 . S
C24 C25 1.394 . S
C25 H15 0.929 . S
C25 C21 1.377 . S
C25 C24 1.394 . S
H26 C33 0.929 . S
H27 C36 0.930 . S
H28 C38 0.929 . S
H29 C30 0.969 . S
C30 H29 0.969 . S
C30 O31 1.550 . S
C30 H32 0.973 . S
O31 C30 1.550 . S
O31 C37 1.412 . S
H32 C30 0.973 . S
C33 H26 0.929 . S
C33 C34 1.400 . S
C33 C35 1.364 . S
C34 C33 1.400 . S
C34 C38 1.377 . S
C35 C33 1.364 . S
C35 C36 1.374 . S
C36 H27 0.930 . S
C36 C35 1.374 . S
C36 C37 1.383 . S
C37 O31 1.412 . S
C37 C36 1.383 . S
C37 C38 1.394 . S
C38 H28 0.929 . S
C38 C34 1.377 . S
C38 C37 1.394 . S
H39 C46 0.929 . S
H40 C49 0.930 . S
H41 C51 0.929 . S
H42 C43 0.969 . S
C43 H42 0.969 . S
C43 O44 1.550 . S
C43 H45 0.973 . S
O44 C43 1.550 . S
O44 C50 1.412 . S
H45 C43 0.973 . S
C46 H39 0.929 . S
C46 C47 1.400 . S
C46 C48 1.364 . S
C47 C46 1.400 . S
C47 C51 1.377 . S
C48 C46 1.364 . S
C48 C49 1.374 . S
C49 H40 0.930 . S
C49 C48 1.374 . S
C49 C50 1.383 . S
C50 O44 1.412 . S
C50 C49 1.383 . S
C50 C51 1.394 . S
C51 H41 0.929 . S
C51 C47 1.377 . S
C51 C50 1.394 . S
H52 C59 0.929 . S
H53 C62 0.930 . S
H54 C64 0.929 . S
H55 C56 0.969 . S
C56 H55 0.969 . S
C56 O57 1.550 . S
C56 H58 0.973 . S
O57 C56 1.550 . S
O57 C63 1.412 . S
H58 C56 0.973 . S
C59 H52 0.929 . S
C59 C60 1.400 . S
C59 C61 1.364 . S
C60 C59 1.400 . S
C60 C64 1.377 . S
C61 C59 1.364 . S
C61 C62 1.374 . S
C62 H53 0.930 . S
C62 C61 1.374 . S
C62 C63 1.383 . S
C63 O57 1.412 . S
C63 C62 1.383 . S
C63 C64 1.394 . S
C64 H54 0.929 . S
C64 C60 1.377 . S
C64 C63 1.394 . S
H65 C72 0.929 . S
H66 C75 0.930 . S
H67 C77 0.929 . S
H68 C69 0.969 . S
C69 H68 0.969 . S
C69 O70 1.550 . S
C69 H71 0.973 . S
O70 C69 1.550 . S
O70 C76 1.412 . S
H71 C69 0.973 . S
C72 H65 0.929 . S
C72 C73 1.400 . S
C72 C74 1.364 . S
C73 C72 1.400 . S
C73 C77 1.377 . S
C74 C72 1.364 . S
C74 C75 1.374 . S
C75 H66 0.930 . S
C75 C74 1.374 . S
C75 C76 1.383 . S
C76 O70 1.412 . S
C76 C75 1.383 . S
C76 C77 1.394 . S
C77 H67 0.929 . S
C77 C73 1.377 . S
C77 C76 1.394 . S
H78 C85 0.929 . S
H79 C88 0.930 . S
H80 C90 0.929 . S
H81 C82 0.969 . S
C82 H81 0.969 . S
C82 O83 1.550 . S
C82 H84 0.973 . S
O83 C82 1.550 . S
O83 C89 1.412 . S
H84 C82 0.973 . S
C85 H78 0.929 . S
C85 C86 1.400 . S
C85 C87 1.364 . S
C86 C85 1.400 . S
C86 C90 1.377 . S
C87 C85 1.364 . S
C87 C88 1.374 . S
C88 H79 0.930 . S
C88 C87 1.374 . S
C88 C89 1.383 . S
C89 O83 1.412 . S
C89 C88 1.383 . S
C89 C90 1.394 . S
C90 H80 0.929 . S
C90 C86 1.377 . S
C90 C89 1.394 . S
H91 C98 0.929 . S
H92 C101 0.930 . S
H93 C103 0.929 . S
H94 C95 0.969 . S
C95 H94 0.969 . S
C95 O96 1.550 . S
C95 H97 0.973 . S
O96 C95 1.550 . S
O96 C102 1.412 . S
H97 C95 0.973 . S
C98 H91 0.929 . S
C98 C99 1.400 . S
C98 C100 1.364 . S
C99 C98 1.400 . S
C99 C103 1.377 . S
C100 C98 1.364 . S
C100 C101 1.374 . S
C101 H92 0.930 . S
C101 C100 1.374 . S
C101 C102 1.383 . S
C102 O96 1.412 . S
C102 C101 1.383 . S
C102 C103 1.394 . S
C103 H93 0.929 . S
C103 C99 1.377 . S
C103 C102 1.394 . S
O104 Mn105 2.163 1_655 S
O104 C118 1.244 . S
Mn105 O104 2.163 1_455 S
Mn105 O108 2.160 1_545 S
Mn105 O109 2.221 . S
Mn105 O111 2.163 1_445 S
Mn105 O113 2.160 . S
Mn105 O123 2.221 1_445 S
O106 Mn107 2.087 1_545 S
O106 C118 1.256 . S
Mn107 O106 2.087 1_565 S
Mn107 O114 2.106 1_565 S
Mn107 O123 2.290 . S
Mn107 O124 2.251 . S
O108 Mn105 2.160 1_565 S
O108 C119 1.239 . S
O109 Mn105 2.221 . S
O109 Mn110 2.290 . S
O109 C120 1.278 . S
Mn110 O109 2.290 . S
Mn110 O112 2.089 . S
Mn110 O115 2.251 . S
Mn110 O116 2.087 . S
O111 Mn105 2.163 1_665 S
O111 C121 1.244 . S
O112 Mn110 2.089 . S
O112 C119 1.256 1_545 S
O113 Mn105 2.160 . S
O113 C122 1.239 . S
O114 Mn107 2.106 1_545 S
O114 C122 1.232 1_655 S
O115 Mn110 2.251 . S
O115 C120 1.241 . S
O116 Mn110 2.087 . S
O116 C121 1.256 1_445 S
C117 O123 1.278 . S
C117 O124 1.241 . S
C118 O104 1.244 . S
C118 O106 1.256 . S
C119 O108 1.239 . S
C119 O112 1.256 1_565 S
C120 O109 1.278 . S
C120 O115 1.241 . S
C121 O111 1.244 . S
C121 O116 1.256 1_665 S
C122 O113 1.239 . S
C122 O114 1.232 1_455 S
O123 Mn105 2.221 1_665 S
O123 Mn107 2.290 . S
O123 C117 1.278 . S
O124 Mn107 2.251 . S
O124 C117 1.241 . S
O125 Mn126 2.163 1_556 S
O125 C139 1.244 1_545 S
Mn126 O125 2.163 1_554 S
Mn126 O129 2.160 . S
Mn126 O130 2.221 1_554 S
Mn126 O132 2.163 . S
Mn126 O134 2.160 1_554 S
Mn126 O144 2.221 1_545 S
O127 Mn128 2.087 . S
O127 C139 1.256 . S
Mn128 O127 2.087 . S
Mn128 O135 2.089 . S
Mn128 O144 2.290 1_556 S
Mn128 O145 2.251 1_556 S
O129 Mn126 2.160 . S
O129 C140 1.239 . S
O130 Mn126 2.221 1_556 S
O130 Mn131 2.290 1_556 S
O130 C141 1.278 . S
Mn131 O130 2.290 1_554 S
Mn131 O133 2.089 . S
Mn131 O136 2.251 1_554 S
Mn131 O137 2.087 . S
O132 Mn126 2.163 . S
O132 C142 1.244 . S
O133 Mn131 2.089 . S
O133 C140 1.256 . S
O134 Mn126 2.160 1_556 S
O134 C143 1.239 1_545 S
O135 Mn128 2.089 . S
O135 C143 1.256 . S
O136 Mn131 2.251 1_556 S
O136 C141 1.241 . S
O137 Mn131 2.087 . S
O137 C142 1.256 . S
C138 O144 1.278 . S
C138 O145 1.241 . S
C139 O125 1.244 1_565 S
C139 O127 1.256 . S
C140 O129 1.239 . S
C140 O133 1.256 . S
C141 O130 1.278 . S
C141 O136 1.241 . S
C142 O132 1.244 . S
C142 O137 1.256 . S
C143 O134 1.239 1_565 S
C143 O135 1.256 . S
O144 Mn126 2.221 1_565 S
O144 Mn128 2.290 1_554 S
O144 C138 1.278 . S
O145 Mn128 2.251 1_554 S
O145 C138 1.241 . S
O146 Mn147 2.163 . S
O146 C160 1.244 . S
Mn147 O146 2.163 . S
Mn147 O150 2.160 . S
Mn147 O151 2.221 . S
Mn147 O153 2.163 . S
Mn147 O155 2.160 . S
Mn147 O165 2.221 . S
O148 Mn149 2.087 . S
O148 C160 1.256 . S
Mn149 O148 2.087 . S
Mn149 O156 2.089 . S
Mn149 O165 2.290 . S
Mn149 O166 2.251 . S
O150 Mn147 2.160 . S
O150 C161 1.239 . S
O151 Mn147 2.221 . S
O151 Mn152 2.290 . S
O151 C162 1.278 . S
Mn152 O151 2.290 . S
Mn152 O154 2.089 . S
Mn152 O157 2.251 . S
Mn152 O158 2.087 . S
O153 Mn147 2.163 . S
O153 C163 1.244 . S
O154 Mn152 2.089 . S
O154 C161 1.256 . S
O155 Mn147 2.160 . S
O155 C164 1.239 . S
O156 Mn149 2.089 . S
O156 C164 1.256 . S
O157 Mn152 2.251 . S
O157 C162 1.241 . S
O158 Mn152 2.087 . S
O158 C163 1.256 . S
C159 O165 1.278 . S
C159 O166 1.241 . S
C160 O146 1.244 . S
C160 O148 1.256 . S
C161 O150 1.239 . S
C161 O154 1.256 . S
C162 O151 1.278 . S
C162 O157 1.241 . S
C163 O153 1.244 . S
C163 O158 1.256 . S
C164 O155 1.239 . S
C164 O156 1.256 . S
O165 Mn147 2.221 . S
O165 Mn149 2.290 . S
O165 C159 1.278 . S
O166 Mn149 2.251 . S
O166 C159 1.241 . S
O167 Mn168 2.163 1_655 S
O167 C181 1.244 1_554 S
Mn168 O167 2.163 1_455 S
Mn168 O171 2.160 . S
Mn168 O172 2.221 . S
Mn168 O174 2.163 . S
Mn168 O176 2.160 . S
Mn168 O186 2.221 1_554 S
O169 Mn170 2.087 . S
O169 C181 1.256 . S
Mn170 O169 2.087 . S
Mn170 O177 2.089 . S
Mn170 O186 2.290 1_655 S
Mn170 O187 2.251 1_655 S
O171 Mn168 2.160 . S
O171 C182 1.239 . S
O172 Mn168 2.221 . S
O172 Mn173 2.290 . S
O172 C183 1.290 . S
Mn173 O172 2.290 . S
Mn173 O175 2.089 . S
Mn173 O178 2.251 . S
Mn173 O179 2.087 . S
O174 Mn168 2.163 . S
O174 C184 1.244 . S
O175 Mn173 2.089 . S
O175 C182 1.256 . S
O176 Mn168 2.160 . S
O176 C185 1.239 1_554 S
O177 Mn170 2.089 . S
O177 C185 1.256 1_655 S
O178 Mn173 2.251 . S
O178 C183 1.246 . S
O179 Mn173 2.087 . S
O179 C184 1.256 . S
C180 O186 1.278 . S
C180 O187 1.241 . S
C181 O167 1.244 1_556 S
C181 O169 1.256 . S
C182 O171 1.239 . S
C182 O175 1.256 . S
C183 O172 1.290 . S
C183 O178 1.246 . S
C184 O174 1.244 . S
C184 O179 1.256 . S
C185 O176 1.239 1_556 S
C185 O177 1.256 1_455 S
O186 Mn168 2.221 1_556 S
O186 Mn170 2.290 1_455 S
O186 C180 1.278 . S
O187 Mn170 2.251 1_455 S
O187 C180 1.241 . S
C188 C189 1.391 . S
C188 C190 1.394 . S
C188 H204 0.931 . S
C189 C188 1.391 . S
C189 C193 1.376 . S
C190 C188 1.394 . S
C190 C191 1.369 . S
C190 C194 1.531 . S
C191 C190 1.369 . S
C191 C192 1.410 . S
C191 C199 1.503 . S
C192 C191 1.410 . S
C192 C193 1.392 . S
C192 C195 1.511 . S
C193 C189 1.376 . S
C193 C192 1.392 . S
C193 H205 0.929 . S
C194 C190 1.531 . S
C194 H206 0.960 . S
C194 H207 0.962 . S
C194 H208 0.960 . S
C195 C192 1.511 . S
C195 H209 0.961 . S
C195 H210 0.961 . S
C195 H211 0.961 . S
C196 C197 1.370 . S
C196 C198 1.363 . S
C196 H212 0.931 . S
C197 C196 1.370 . S
C197 C201 1.408 . S
C198 C196 1.363 . S
C198 C199 1.370 . S
C198 C202 1.524 . S
C199 C191 1.503 . S
C199 C198 1.370 . S
C199 C200 1.403 . S
C200 C199 1.403 . S
C200 C201 1.404 . S
C200 C203 1.539 . S
C201 C197 1.408 . S
C201 C200 1.404 . S
C201 H213 0.930 . S
C202 C198 1.524 . S
C202 H214 0.956 . S
C202 H215 0.961 . S
C202 H216 0.961 . S
C203 C200 1.539 . S
C203 H217 0.958 1_545 S
C203 H218 0.961 . S
C203 H219 0.960 . S
H204 C188 0.931 . S
H205 C193 0.929 . S
H206 C194 0.960 . S
H207 C194 0.962 . S
H208 C194 0.960 . S
H209 C195 0.961 . S
H210 C195 0.961 . S
H211 C195 0.961 . S
H212 C196 0.931 . S
H213 C201 0.930 . S
H214 C202 0.956 . S
H215 C202 0.961 . S
H216 C202 0.961 . S
H217 C203 0.958 1_565 S
H218 C203 0.961 . S
H219 C203 0.960 . S
C220 C221 1.391 . S
C220 C222 1.394 . S
C220 H236 0.931 . S
C221 C220 1.391 . S
C221 C225 1.376 . S
C222 C220 1.394 . S
C222 C223 1.369 . S
C222 C226 1.531 . S
C223 C222 1.369 . S
C223 C224 1.410 . S
C223 C231 1.503 . S
C224 C223 1.410 . S
C224 C225 1.392 . S
C224 C227 1.511 1_565 S
C225 C221 1.376 . S
C225 C224 1.392 . S
C225 H237 0.929 . S
C226 C222 1.531 . S
C226 H238 0.960 . S
C226 H239 0.962 . S
C226 H240 0.960 . S
C227 C224 1.511 1_545 S
C227 H241 0.961 . S
C227 H242 0.961 . S
C227 H243 0.961 . S
C228 C229 1.370 . S
C228 C230 1.363 . S
C228 H244 0.931 1_565 S
C229 C228 1.370 . S
C229 C233 1.408 . S
C230 C228 1.363 . S
C230 C231 1.370 . S
C230 C234 1.524 . S
C231 C223 1.503 . S
C231 C230 1.370 . S
C231 C232 1.403 . S
C232 C231 1.403 . S
C232 C233 1.404 . S
C232 C235 1.539 . S
C233 C229 1.408 . S
C233 C232 1.404 . S
C233 H245 0.930 . S
C234 C230 1.524 . S
C234 H246 0.956 . S
C234 H247 0.961 1_565 S
C234 H248 0.961 1_565 S
C235 C232 1.539 . S
C235 H249 0.958 . S
C235 H250 0.961 . S
C235 H251 0.960 . S
H236 C220 0.931 . S
H237 C225 0.929 . S
H238 C226 0.960 . S
H239 C226 0.962 . S
H240 C226 0.960 . S
H241 C227 0.961 . S
H242 C227 0.961 . S
H243 C227 0.961 . S
H244 C228 0.931 1_545 S
H245 C233 0.930 . S
H246 C234 0.956 . S
H247 C234 0.961 1_545 S
H248 C234 0.961 1_545 S
H249 C235 0.958 . S
H250 C235 0.961 . S
H251 C235 0.960 . S
C252 C253 1.391 . S
C252 C254 1.394 . S
C252 H268 0.931 . S
C253 C252 1.391 . S
C253 C257 1.376 . S
C254 C252 1.394 . S
C254 C255 1.369 . S
C254 C258 1.531 . S
C255 C254 1.369 . S
C255 C256 1.410 . S
C255 C263 1.503 . S
C256 C255 1.410 . S
C256 C257 1.392 . S
C256 C259 1.511 . S
C257 C253 1.376 . S
C257 C256 1.392 . S
C257 H269 0.929 . S
C258 C254 1.531 . S
C258 H270 0.960 . S
C258 H271 0.962 . S
C258 H272 0.960 . S
C259 C256 1.511 . S
C259 H273 0.961 . S
C259 H274 0.961 . S
C259 H275 0.961 . S
C260 C261 1.370 . S
C260 C262 1.363 . S
C260 H276 0.931 . S
C261 C260 1.370 . S
C261 C265 1.408 . S
C262 C260 1.363 . S
C262 C263 1.370 . S
C262 C266 1.524 . S
C263 C255 1.503 . S
C263 C262 1.370 . S
C263 C264 1.403 . S
C264 C263 1.403 . S
C264 C265 1.404 . S
C264 C267 1.539 . S
C265 C261 1.408 . S
C265 C264 1.404 . S
C265 H277 0.930 . S
C266 C262 1.524 . S
C266 H278 0.956 . S
C266 H279 0.961 . S
C266 H280 0.961 . S
C267 C264 1.539 . S
C267 H281 0.958 . S
C267 H282 0.961 . S
C267 H283 0.960 . S
H268 C252 0.931 . S
H269 C257 0.929 . S
H270 C258 0.960 . S
H271 C258 0.962 . S
H272 C258 0.960 . S
H273 C259 0.961 . S
H274 C259 0.961 . S
H275 C259 0.961 . S
H276 C260 0.931 . S
H277 C265 0.930 . S
H278 C266 0.956 . S
H279 C266 0.961 . S
H280 C266 0.961 . S
H281 C267 0.958 . S
H282 C267 0.961 . S
H283 C267 0.960 . S
C284 C285 1.391 . S
C284 C286 1.394 . S
C284 H300 0.931 . S
C285 C284 1.391 . S
C285 C289 1.376 . S
C286 C284 1.394 . S
C286 C287 1.369 . S
C286 C290 1.531 . S
C287 C286 1.369 . S
C287 C288 1.410 . S
C287 C295 1.503 . S
C288 C287 1.410 . S
C288 C289 1.392 . S
C288 C291 1.511 1_655 S
C289 C285 1.376 . S
C289 C288 1.392 . S
C289 H301 0.929 . S
C290 C286 1.531 . S
C290 H302 0.960 . S
C290 H303 0.962 . S
C290 H304 0.960 . S
C291 C288 1.511 1_455 S
C291 H305 0.961 . S
C291 H306 0.961 . S
C291 H307 0.961 . S
C292 C293 1.370 . S
C292 C294 1.363 . S
C292 H308 0.931 . S
C293 C292 1.370 . S
C293 C297 1.408 . S
C294 C292 1.363 . S
C294 C295 1.370 . S
C294 C298 1.524 . S
C295 C287 1.503 . S
C295 C294 1.370 . S
C295 C296 1.403 . S
C296 C295 1.403 . S
C296 C297 1.404 . S
C296 C299 1.539 . S
C297 C293 1.408 . S
C297 C296 1.404 . S
C297 H309 0.930 1_655 S
C298 C294 1.524 . S
C298 H310 0.956 . S
C298 H311 0.961 . S
C298 H312 0.961 . S
C299 C296 1.539 . S
C299 H313 0.958 . S
C299 H314 0.961 1_655 S
C299 H315 0.960 1_655 S
H300 C284 0.931 . S
H301 C289 0.929 . S
H302 C290 0.960 . S
H303 C290 0.962 . S
H304 C290 0.960 . S
H305 C291 0.961 . S
H306 C291 0.961 . S
H307 C291 0.961 . S
H308 C292 0.931 . S
H309 C297 0.930 1_455 S
H310 C298 0.956 . S
H311 C298 0.961 . S
H312 C298 0.961 . S
H313 C299 0.958 . S
H314 C299 0.961 1_455 S
H315 C299 0.960 1_455 S
C316 C317 1.391 . S
C316 C318 1.394 . S
C316 H332 0.931 . S
C317 C316 1.391 . S
C317 C321 1.376 . S
C318 C316 1.394 . S
C318 C319 1.369 . S
C318 C322 1.531 . S
C319 C318 1.369 . S
C319 C320 1.410 . S
C319 C327 1.503 . S
C320 C319 1.410 . S
C320 C321 1.392 . S
C320 C323 1.511 . S
C321 C317 1.376 . S
C321 C320 1.392 . S
C321 H333 0.929 . S
C322 C318 1.531 . S
C322 H334 0.960 . S
C322 H335 0.962 . S
C322 H336 0.960 . S
C323 C320 1.511 . S
C323 H337 0.961 . S
C323 H338 0.961 . S
C323 H339 0.961 1_545 S
C324 C325 1.370 . S
C324 C326 1.363 . S
C324 H340 0.931 . S
C325 C324 1.370 . S
C325 C329 1.408 . S
C326 C324 1.363 . S
C326 C327 1.370 . S
C326 C330 1.524 . S
C327 C319 1.503 . S
C327 C326 1.370 . S
C327 C328 1.403 . S
C328 C327 1.403 . S
C328 C329 1.404 . S
C328 C331 1.539 . S
C329 C325 1.408 . S
C329 C328 1.404 . S
C329 H341 0.930 . S
C330 C326 1.524 . S
C330 H342 0.956 . S
C330 H343 0.961 . S
C330 H344 0.961 . S
C331 C328 1.539 . S
C331 H345 0.958 . S
C331 H346 0.961 1_545 S
C331 H347 0.960 . S
H332 C316 0.931 . S
H333 C321 0.929 . S
H334 C322 0.960 . S
H335 C322 0.962 . S
H336 C322 0.960 . S
H337 C323 0.961 . S
H338 C323 0.961 . S
H339 C323 0.961 1_565 S
H340 C324 0.931 . S
H341 C329 0.930 . S
H342 C330 0.956 . S
H343 C330 0.961 . S
H344 C330 0.961 . S
H345 C331 0.958 . S
H346 C331 0.961 1_565 S
H347 C331 0.960 . S
C348 C349 1.391 . S
C348 C350 1.394 . S
C348 H364 0.931 . S
C349 C348 1.391 . S
C349 C353 1.376 . S
C350 C348 1.394 . S
C350 C351 1.369 . S
C350 C354 1.531 . S
C351 C350 1.369 . S
C351 C352 1.410 . S
C351 C359 1.503 . S
C352 C351 1.410 . S
C352 C353 1.392 . S
C352 C355 1.511 . S
C353 C349 1.376 . S
C353 C352 1.392 . S
C353 H365 0.929 . S
C354 C350 1.531 . S
C354 H366 0.960 . S
C354 H367 0.962 . S
C354 H368 0.960 . S
C355 C352 1.511 . S
C355 H369 0.961 . S
C355 H370 0.961 . S
C355 H371 0.961 . S
C356 C357 1.370 . S
C356 C358 1.363 . S
C356 H372 0.931 1_565 S
C357 C356 1.370 . S
C357 C361 1.408 . S
C358 C356 1.363 . S
C358 C359 1.370 . S
C358 C362 1.524 1_565 S
C359 C351 1.503 . S
C359 C358 1.370 . S
C359 C360 1.403 . S
C360 C359 1.403 . S
C360 C361 1.404 . S
C360 C363 1.539 . S
C361 C357 1.408 . S
C361 C360 1.404 . S
C361 H373 0.930 . S
C362 C358 1.524 1_545 S
C362 H374 0.956 . S
C362 H375 0.961 . S
C362 H376 0.961 . S
C363 C360 1.539 . S
C363 H377 0.958 . S
C363 H378 0.961 . S
C363 H379 0.960 . S
H364 C348 0.931 . S
H365 C353 0.929 . S
H366 C354 0.960 . S
H367 C354 0.962 . S
H368 C354 0.960 . S
H369 C355 0.961 . S
H370 C355 0.961 . S
H371 C355 0.961 . S
H372 C356 0.931 1_545 S
H373 C361 0.930 . S
H374 C362 0.956 . S
H375 C362 0.961 . S
H376 C362 0.961 . S
H377 C363 0.958 . S
H378 C363 0.961 . S
H379 C363 0.960 . S
C380 C381 1.391 . S
C380 C382 1.394 . S
C380 H396 0.931 . S
C381 C380 1.391 . S
C381 C385 1.376 . S
C382 C380 1.394 . S
C382 C383 1.369 . S
C382 C386 1.531 1_556 S
C383 C382 1.369 . S
C383 C384 1.410 . S
C383 C391 1.503 . S
C384 C383 1.410 . S
C384 C385 1.392 . S
C384 C387 1.511 . S
C385 C381 1.376 . S
C385 C384 1.392 . S
C385 H397 0.929 . S
C386 C382 1.531 1_554 S
C386 H398 0.960 . S
C386 H399 0.962 . S
C386 H400 0.960 . S
C387 C384 1.511 . S
C387 H401 0.961 . S
C387 H402 0.961 . S
C387 H403 0.961 . S
C388 C389 1.370 . S
C388 C390 1.363 . S
C388 H404 0.931 . S
C389 C388 1.370 . S
C389 C393 1.408 . S
C390 C388 1.363 . S
C390 C391 1.370 . S
C390 C394 1.524 . S
C391 C383 1.503 . S
C391 C390 1.370 . S
C391 C392 1.403 . S
C392 C391 1.403 . S
C392 C393 1.404 . S
C392 C395 1.539 . S
C393 C389 1.408 . S
C393 C392 1.404 . S
C393 H405 0.930 1_556 S
C394 C390 1.524 . S
C394 H406 0.956 . S
C394 H407 0.961 . S
C394 H408 0.961 . S
C395 C392 1.539 . S
C395 H409 0.986 . S
C395 H410 0.961 . S
C395 H411 0.960 . S
H396 C380 0.931 . S
H397 C385 0.929 . S
H398 C386 0.960 . S
H399 C386 0.962 . S
H400 C386 0.960 . S
H401 C387 0.961 . S
H402 C387 0.961 . S
H403 C387 0.961 . S
H404 C388 0.931 . S
H405 C393 0.930 1_554 S
H406 C394 0.956 . S
H407 C394 0.961 . S
H408 C394 0.961 . S
H409 C395 0.986 . S
H410 C395 0.961 . S
H411 C395 0.960 . S
C412 C413 1.391 . S
C412 C414 1.394 . S
C412 H428 0.931 . S
C413 C412 1.391 . S
C413 C417 1.376 . S
C414 C412 1.394 . S
C414 C415 1.369 . S
C414 C418 1.531 . S
C415 C414 1.369 . S
C415 C416 1.410 . S
C415 C423 1.503 . S
C416 C415 1.410 . S
C416 C417 1.392 . S
C416 C419 1.511 . S
C417 C413 1.376 . S
C417 C416 1.392 . S
C417 H429 0.929 . S
C418 C414 1.531 . S
C418 H430 0.960 . S
C418 H431 0.962 . S
C418 H432 0.960 . S
C419 C416 1.511 . S
C419 H433 0.961 . S
C419 H434 0.961 . S
C419 H435 0.961 . S
C420 C421 1.370 . S
C420 C422 1.363 . S
C420 H436 0.931 . S
C421 C420 1.370 . S
C421 C425 1.408 . S
C422 C420 1.363 . S
C422 C423 1.370 . S
C422 C426 1.524 . S
C423 C415 1.503 . S
C423 C422 1.370 . S
C423 C424 1.403 . S
C424 C423 1.403 . S
C424 C425 1.404 . S
C424 C427 1.539 . S
C425 C421 1.408 . S
C425 C424 1.404 . S
C425 H437 0.930 . S
C426 C422 1.524 . S
C426 H438 0.956 . S
C426 H439 0.961 . S
C426 H440 0.961 . S
C427 C424 1.539 . S
C427 H441 0.958 . S
C427 H442 0.961 . S
C427 H443 0.960 . S
H428 C412 0.931 . S
H429 C417 0.929 . S
H430 C418 0.960 . S
H431 C418 0.962 . S
H432 C418 0.960 . S
H433 C419 0.961 . S
H434 C419 0.961 . S
H435 C419 0.961 . S
H436 C420 0.931 . S
H437 C425 0.930 . S
H438 C426 0.956 . S
H439 C426 0.961 . S
H440 C426 0.961 . S
H441 C427 0.958 . S
H442 C427 0.961 . S
H443 C427 0.960 . S
C444 C445 1.391 . S
C444 C446 1.394 . S
C444 H460 0.931 . S
C445 C444 1.391 . S
C445 C449 1.376 . S
C446 C444 1.394 . S
C446 C447 1.369 . S
C446 C450 1.531 . S
C447 C446 1.369 . S
C447 C448 1.410 . S
C447 C455 1.503 . S
C448 C447 1.410 . S
C448 C449 1.392 . S
C448 C451 1.511 . S
C449 C445 1.376 . S
C449 C448 1.392 . S
C449 H461 0.929 . S
C450 C446 1.531 . S
C450 H462 0.960 . S
C450 H463 0.962 . S
C450 H464 0.960 . S
C451 C448 1.511 . S
C451 H465 0.961 . S
C451 H466 0.961 . S
C451 H467 0.961 . S
C452 C453 1.370 . S
C452 C454 1.363 . S
C452 H468 0.931 . S
C453 C452 1.370 . S
C453 C457 1.408 . S
C454 C452 1.363 . S
C454 C455 1.370 . S
C454 C458 1.524 . S
C455 C447 1.503 . S
C455 C454 1.370 . S
C455 C456 1.403 . S
C456 C455 1.403 . S
C456 C457 1.404 . S
C456 C459 1.539 . S
C457 C453 1.408 . S
C457 C456 1.404 . S
C457 H469 0.930 . S
C458 C454 1.524 . S
C458 H470 0.956 . S
C458 H471 0.961 . S
C458 H472 0.961 . S
C459 C456 1.539 . S
C459 H473 0.958 . S
C459 H474 0.961 . S
C459 H475 0.960 . S
H460 C444 0.931 . S
H461 C449 0.929 . S
H462 C450 0.960 . S
H463 C450 0.962 . S
H464 C450 0.960 . S
H465 C451 0.961 . S
H466 C451 0.961 . S
H467 C451 0.961 . S
H468 C452 0.931 . S
H469 C457 0.930 . S
H470 C458 0.956 . S
H471 C458 0.961 . S
H472 C458 0.961 . S
H473 C459 0.958 . S
H474 C459 0.961 . S
H475 C459 0.960 . S
C476 C477 1.391 . S
C476 C478 1.394 . S
C476 H492 0.931 . S
C477 C476 1.391 . S
C477 C481 1.376 . S
C478 C476 1.394 . S
C478 C479 1.369 . S
C478 C482 1.531 . S
C479 C478 1.369 . S
C479 C480 1.410 . S
C479 C487 1.503 . S
C480 C479 1.410 . S
C480 C481 1.392 . S
C480 C483 1.511 . S
C481 C477 1.376 . S
C481 C480 1.392 . S
C481 H493 0.929 . S
C482 C478 1.531 . S
C482 H494 0.960 . S
C482 H495 0.962 . S
C482 H496 0.960 . S
C483 C480 1.511 . S
C483 H497 0.961 . S
C483 H498 0.961 . S
C483 H499 0.961 . S
C484 C485 1.370 . S
C484 C486 1.363 . S
C484 H500 0.931 . S
C485 C484 1.370 . S
C485 C489 1.408 . S
C486 C484 1.363 . S
C486 C487 1.370 . S
C486 C490 1.524 . S
C487 C479 1.503 . S
C487 C486 1.370 . S
C487 C488 1.403 . S
C488 C487 1.403 . S
C488 C489 1.404 . S
C488 C491 1.539 1_556 S
C489 C485 1.408 . S
C489 C488 1.404 . S
C489 H501 0.930 1_556 S
C490 C486 1.524 . S
C490 H502 0.956 . S
C490 H503 0.961 . S
C490 H504 0.961 . S
C491 C488 1.539 1_554 S
C491 H505 0.958 . S
C491 H506 0.961 . S
C491 H507 0.960 . S
H492 C476 0.931 . S
H493 C481 0.929 . S
H494 C482 0.960 . S
H495 C482 0.962 . S
H496 C482 0.960 . S
H497 C483 0.961 . S
H498 C483 0.961 . S
H499 C483 0.961 . S
H500 C484 0.931 . S
H501 C489 0.930 1_554 S
H502 C490 0.956 . S
H503 C490 0.961 . S
H504 C490 0.961 . S
H505 C491 0.958 . S
H506 C491 0.961 . S
H507 C491 0.960 . S
C508 C509 1.391 . S
C508 C510 1.394 . S
C508 H524 0.931 . S
C509 C508 1.391 . S
C509 C513 1.376 . S
C510 C508 1.394 . S
C510 C511 1.369 . S
C510 C514 1.531 . S
C511 C510 1.369 . S
C511 C512 1.410 . S
C511 C519 1.503 . S
C512 C511 1.410 . S
C512 C513 1.392 . S
C512 C515 1.534 . S
C513 C509 1.376 . S
C513 C512 1.392 . S
C513 H525 0.929 . S
C514 C510 1.531 . S
C514 H526 0.960 . S
C514 H527 0.962 . S
C514 H528 0.960 . S
C515 C512 1.534 . S
C515 H529 0.955 1_655 S
C515 H530 0.971 . S
C515 H531 0.935 1_655 S
C516 C517 1.370 . S
C516 C518 1.363 . S
C516 H532 0.931 . S
C517 C516 1.370 . S
C517 C521 1.408 . S
C518 C516 1.363 . S
C518 C519 1.370 . S
C518 C522 1.524 . S
C519 C511 1.503 . S
C519 C518 1.370 . S
C519 C520 1.403 . S
C520 C519 1.403 . S
C520 C521 1.404 . S
C520 C523 1.539 1_655 S
C521 C517 1.408 . S
C521 C520 1.404 . S
C521 H533 0.930 1_655 S
C522 C518 1.524 . S
C522 H534 0.956 . S
C522 H535 0.961 . S
C522 H536 0.961 . S
C523 C520 1.539 1_455 S
C523 H537 0.958 1_455 S
C523 H538 0.961 . S
C523 H539 0.960 . S
H524 C508 0.931 . S
H525 C513 0.929 . S
H526 C514 0.960 . S
H527 C514 0.962 . S
H528 C514 0.960 . S
H529 C515 0.955 1_455 S
H530 C515 0.971 . S
H531 C515 0.935 1_455 S
H532 C516 0.931 . S
H533 C521 0.930 1_455 S
H534 C522 0.956 . S
H535 C522 0.961 . S
H536 C522 0.961 . S
H537 C523 0.958 1_655 S
H538 C523 0.961 . S
H539 C523 0.960 . S
C540 C541 1.391 . S
C540 C542 1.394 . S
C540 H556 0.931 . S
C541 C540 1.391 . S
C541 C545 1.376 . S
C542 C540 1.394 . S
C542 C543 1.369 . S
C542 C546 1.531 . S
C543 C542 1.369 . S
C543 C544 1.410 . S
C543 C551 1.503 . S
C544 C543 1.410 . S
C544 C545 1.392 . S
C544 C547 1.511 . S
C545 C541 1.376 . S
C545 C544 1.392 . S
C545 H557 0.929 . S
C546 C542 1.531 . S
C546 H558 0.960 . S
C546 H559 0.962 . S
C546 H560 0.960 . S
C547 C544 1.511 . S
C547 H561 0.961 . S
C547 H562 0.961 . S
C547 H563 0.961 . S
C548 C549 1.370 . S
C548 C550 1.363 . S
C548 H564 0.931 . S
C549 C548 1.370 . S
C549 C553 1.408 . S
C550 C548 1.363 . S
C550 C551 1.370 . S
C550 C554 1.524 . S
C551 C543 1.503 . S
C551 C550 1.370 . S
C551 C552 1.403 . S
C552 C551 1.403 . S
C552 C553 1.404 . S
C552 C555 1.539 . S
C553 C549 1.408 . S
C553 C552 1.404 . S
C553 H565 0.930 . S
C554 C550 1.524 . S
C554 H566 0.956 . S
C554 H567 0.961 . S
C554 H568 0.961 . S
C555 C552 1.539 . S
C555 H569 0.958 . S
C555 H570 0.961 . S
C555 H571 0.960 . S
H556 C540 0.931 . S
H557 C545 0.929 . S
H558 C546 0.960 . S
H559 C546 0.962 . S
H560 C546 0.960 . S
H561 C547 0.961 . S
H562 C547 0.961 . S
H563 C547 0.961 . S
H564 C548 0.931 . S
H565 C553 0.930 . S
H566 C554 0.956 . S
H567 C554 0.961 . S
H568 C554 0.961 . S
H569 C555 0.958 . S
H570 C555 0.961 . S
H571 C555 0.960 . S
C572 C573 1.391 . S
C572 C574 1.394 . S
C572 H588 0.931 . S
C573 C572 1.391 . S
C573 C577 1.376 . S
C574 C572 1.394 . S
C574 C575 1.369 . S
C574 C578 1.531 . S
C575 C574 1.369 . S
C575 C576 1.410 . S
C575 C583 1.503 . S
C576 C575 1.410 . S
C576 C577 1.392 . S
C576 C579 1.511 . S
C577 C573 1.376 . S
C577 C576 1.392 . S
C577 H589 0.929 . S
C578 C574 1.531 . S
C578 H590 0.960 . S
C578 H591 0.962 1_655 S
C578 H592 0.960 . S
C579 C576 1.511 . S
C579 H593 0.961 . S
C579 H594 0.961 . S
C579 H595 0.961 . S
C580 C581 1.370 . S
C580 C582 1.363 . S
C580 H596 0.931 1_665 S
C581 C580 1.370 . S
C581 C585 1.408 . S
C582 C580 1.363 . S
C582 C583 1.370 . S
C582 C586 1.524 1_655 S
C583 C575 1.503 . S
C583 C582 1.370 . S
C583 C584 1.403 . S
C584 C583 1.403 . S
C584 C585 1.404 . S
C584 C587 1.539 . S
C585 C581 1.408 . S
C585 C584 1.404 . S
C585 H597 0.930 . S
C586 C582 1.524 1_455 S
C586 H598 0.956 . S
C586 H599 0.961 1_465 S
C586 H600 0.961 1_565 S
C587 C584 1.539 . S
C587 H601 0.958 . S
C587 H602 0.961 . S
C587 H603 0.960 . S
H588 C572 0.931 . S
H589 C577 0.929 . S
H590 C578 0.960 . S
H591 C578 0.962 1_455 S
H592 C578 0.960 . S
H593 C579 0.961 . S
H594 C579 0.961 . S
H595 C579 0.961 . S
H596 C580 0.931 1_445 S
H597 C585 0.930 . S
H598 C586 0.956 . S
H599 C586 0.961 1_645 S
H600 C586 0.961 1_545 S
H601 C587 0.958 . S
H602 C587 0.961 . S
H603 C587 0.960 . S
C604 C605 1.391 . S
C604 C606 1.394 . S
C604 H620 0.931 . S
C605 C604 1.391 . S
C605 C609 1.376 . S
C606 C604 1.394 . S
C606 C607 1.369 . S
C606 C610 1.531 . S
C607 C606 1.369 . S
C607 C608 1.410 . S
C607 C615 1.503 . S
C608 C607 1.410 . S
C608 C609 1.392 . S
C608 C611 1.511 . S
C609 C605 1.376 . S
C609 C608 1.392 . S
C609 H621 0.929 . S
C610 C606 1.531 . S
C610 H622 0.960 . S
C610 H623 0.962 . S
C610 H624 0.960 . S
C611 C608 1.511 . S
C611 H625 0.961 . S
C611 H626 0.961 . S
C611 H627 0.961 . S
C612 C613 1.370 . S
C612 C614 1.363 . S
C612 H628 0.931 . S
C613 C612 1.370 . S
C613 C617 1.408 . S
C614 C612 1.363 . S
C614 C615 1.370 . S
C614 C618 1.524 . S
C615 C607 1.503 . S
C615 C614 1.370 . S
C615 C616 1.403 . S
C616 C615 1.403 . S
C616 C617 1.404 . S
C616 C619 1.539 . S
C617 C613 1.408 . S
C617 C616 1.404 . S
C617 H629 0.930 . S
C618 C614 1.524 . S
C618 H630 0.956 . S
C618 H631 0.961 . S
C618 H632 0.961 . S
C619 C616 1.539 . S
C619 H633 0.958 . S
C619 H634 0.961 . S
C619 H635 0.960 . S
H620 C604 0.931 . S
H621 C609 0.929 . S
H622 C610 0.960 . S
H623 C610 0.962 . S
H624 C610 0.960 . S
H625 C611 0.961 . S
H626 C611 0.961 . S
H627 C611 0.961 . S
H628 C612 0.931 . S
H629 C617 0.930 . S
H630 C618 0.956 . S
H631 C618 0.961 . S
H632 C618 0.961 . S
H633 C619 0.958 . S
H634 C619 0.961 . S
H635 C619 0.960 . S
C636 C637 1.391 . S
C636 C638 1.394 . S
C636 H652 0.931 . S
C637 C636 1.391 . S
C637 C641 1.376 . S
C638 C636 1.394 . S
C638 C639 1.369 . S
C638 C642 1.531 . S
C639 C638 1.369 . S
C639 C640 1.410 . S
C639 C647 1.503 . S
C640 C639 1.410 . S
C640 C641 1.392 . S
C640 C643 1.511 . S
C641 C637 1.376 . S
C641 C640 1.392 . S
C641 H653 0.929 . S
C642 C638 1.531 . S
C642 H654 0.960 . S
C642 H655 0.962 . S
C642 H656 0.960 . S
C643 C640 1.511 . S
C643 H657 0.961 . S
C643 H658 0.961 . S
C643 H659 0.961 . S
C644 C645 1.370 . S
C644 C646 1.363 . S
C644 H660 0.931 . S
C645 C644 1.370 . S
C645 C649 1.408 . S
C646 C644 1.363 . S
C646 C647 1.370 . S
C646 C650 1.524 . S
C647 C639 1.503 . S
C647 C646 1.370 . S
C647 C648 1.403 . S
C648 C647 1.403 . S
C648 C649 1.404 . S
C648 C651 1.539 . S
C649 C645 1.408 . S
C649 C648 1.404 . S
C649 H661 0.930 . S
C650 C646 1.524 . S
C650 H662 0.956 . S
C650 H663 0.961 . S
C650 H664 0.961 . S
C651 C648 1.539 . S
C651 H665 0.958 . S
C651 H666 0.961 . S
C651 H667 0.960 . S
H652 C636 0.931 . S
H653 C641 0.929 . S
H654 C642 0.960 . S
H655 C642 0.962 . S
H656 C642 0.960 . S
H657 C643 0.961 . S
H658 C643 0.961 . S
H659 C643 0.961 . S
H660 C644 0.931 . S
H661 C649 0.930 . S
H662 C650 0.956 . S
H663 C650 0.961 . S
H664 C650 0.961 . S
H665 C651 0.958 . S
H666 C651 0.961 . S
H667 C651 0.960 . S
C668 C669 1.391 . S
C668 C670 1.394 . S
C668 H684 0.931 . S
C669 C668 1.391 . S
C669 C673 1.376 . S
C670 C668 1.394 . S
C670 C671 1.369 . S
C670 C674 1.531 . S
C671 C670 1.369 . S
C671 C672 1.410 . S
C671 C679 1.503 . S
C672 C671 1.410 . S
C672 C673 1.392 . S
C672 C675 1.511 . S
C673 C669 1.376 . S
C673 C672 1.392 . S
C673 H685 0.929 . S
C674 C670 1.531 . S
C674 H686 0.960 . S
C674 H687 0.962 . S
C674 H688 0.960 . S
C675 C672 1.511 . S
C675 H689 0.961 . S
C675 H690 0.961 . S
C675 H691 0.961 . S
C676 C677 1.370 . S
C676 C678 1.363 . S
C676 H692 0.931 . S
C677 C676 1.370 . S
C677 C681 1.408 . S
C678 C676 1.363 . S
C678 C679 1.370 . S
C678 C682 1.524 . S
C679 C671 1.503 . S
C679 C678 1.370 . S
C679 C680 1.403 . S
C680 C679 1.403 . S
C680 C681 1.404 . S
C680 C683 1.539 . S
C681 C677 1.408 . S
C681 C680 1.404 . S
C681 H693 0.930 . S
C682 C678 1.524 . S
C682 H694 0.956 . S
C682 H695 0.961 . S
C682 H696 0.961 . S
C683 C680 1.539 . S
C683 H697 0.958 . S
C683 H698 0.961 . S
C683 H699 0.960 . S
H684 C668 0.931 . S
H685 C673 0.929 . S
H686 C674 0.960 . S
H687 C674 0.962 . S
H688 C674 0.960 . S
H689 C675 0.961 . S
H690 C675 0.961 . S
H691 C675 0.961 . S
H692 C676 0.931 . S
H693 C681 0.930 . S
H694 C682 0.956 . S
H695 C682 0.961 . S
H696 C682 0.961 . S
H697 C683 0.958 . S
H698 C683 0.961 . S
H699 C683 0.960 . S
C700 C701 1.391 . S
C700 C702 1.394 . S
C700 H716 0.931 . S
C701 C700 1.391 . S
C701 C705 1.376 . S
C702 C700 1.394 . S
C702 C703 1.369 . S
C702 C706 1.531 . S
C703 C702 1.369 . S
C703 C704 1.410 . S
C703 C711 1.503 . S
C704 C703 1.410 . S
C704 C705 1.392 . S
C704 C707 1.511 . S
C705 C701 1.376 . S
C705 C704 1.392 . S
C705 H717 0.929 . S
C706 C702 1.531 . S
C706 H718 0.960 . S
C706 H719 0.962 . S
C706 H720 0.960 . S
C707 C704 1.511 . S
C707 H721 0.961 1_565 S
C707 H722 0.961 1_565 S
C707 H723 0.966 . S
C708 C709 1.370 . S
C708 C710 1.363 . S
C708 H724 0.931 . S
C709 C708 1.370 . S
C709 C713 1.408 . S
C710 C708 1.363 . S
C710 C711 1.370 . S
C710 C714 1.524 . S
C711 C703 1.503 . S
C711 C710 1.370 . S
C711 C712 1.403 . S
C712 C711 1.403 . S
C712 C713 1.404 . S
C712 C715 1.539 1_556 S
C713 C709 1.408 . S
C713 C712 1.404 . S
C713 H725 0.930 1_556 S
C714 C710 1.524 . S
C714 H726 0.956 . S
C714 H727 0.961 . S
C714 H728 0.961 . S
C715 C712 1.539 1_554 S
C715 H729 0.958 . S
C715 H730 0.961 . S
C715 H731 0.960 . S
H716 C700 0.931 . S
H717 C705 0.929 . S
H718 C706 0.960 . S
H719 C706 0.962 . S
H720 C706 0.960 . S
H721 C707 0.961 1_545 S
H722 C707 0.961 1_545 S
H723 C707 0.966 . S
H724 C708 0.931 . S
H725 C713 0.930 1_554 S
H726 C714 0.956 . S
H727 C714 0.961 . S
H728 C714 0.961 . S
H729 C715 0.958 . S
H730 C715 0.961 . S
H731 C715 0.960 . S
C732 C733 1.391 . S
C732 C734 1.394 . S
C732 H748 0.931 . S
C733 C732 1.391 . S
C733 C737 1.376 . S
C734 C732 1.394 . S
C734 C735 1.369 . S
C734 C738 1.531 . S
C735 C734 1.369 . S
C735 C736 1.410 . S
C735 C743 1.503 . S
C736 C735 1.410 . S
C736 C737 1.392 . S
C736 C739 1.511 . S
C737 C733 1.376 . S
C737 C736 1.392 . S
C737 H749 0.929 . S
C738 C734 1.531 . S
C738 H750 0.960 . S
C738 H751 0.962 . S
C738 H752 0.960 . S
C739 C736 1.511 . S
C739 H753 0.961 . S
C739 H754 0.961 . S
C739 H755 0.961 . S
C740 C741 1.370 . S
C740 C742 1.363 . S
C740 H756 0.931 . S
C741 C740 1.370 . S
C741 C745 1.408 . S
C742 C740 1.363 . S
C742 C743 1.370 . S
C742 C746 1.524 . S
C743 C735 1.503 . S
C743 C742 1.370 . S
C743 C744 1.403 . S
C744 C743 1.403 . S
C744 C745 1.404 . S
C744 C747 1.539 . S
C745 C741 1.408 . S
C745 C744 1.404 . S
C745 H757 0.930 . S
C746 C742 1.524 . S
C746 H758 0.956 . S
C746 H759 0.961 . S
C746 H760 0.961 . S
C747 C744 1.539 . S
C747 H761 0.958 . S
C747 H762 0.961 . S
C747 H763 0.960 . S
H748 C732 0.931 . S
H749 C737 0.929 . S
H750 C738 0.960 . S
H751 C738 0.962 . S
H752 C738 0.960 . S
H753 C739 0.961 . S
H754 C739 0.961 . S
H755 C739 0.961 . S
H756 C740 0.931 . S
H757 C745 0.930 . S
H758 C746 0.956 . S
H759 C746 0.961 . S
H760 C746 0.961 . S
H761 C747 0.958 . S
H762 C747 0.961 . S
H763 C747 0.960 . S
C764 C765 1.391 . S
C764 C766 1.394 . S
C764 H780 0.931 . S
C765 C764 1.391 . S
C765 C769 1.376 . S
C766 C764 1.394 . S
C766 C767 1.369 . S
C766 C770 1.531 . S
C767 C766 1.369 . S
C767 C768 1.410 . S
C767 C775 1.503 . S
C768 C767 1.410 . S
C768 C769 1.392 . S
C768 C771 1.511 . S
C769 C765 1.376 . S
C769 C768 1.392 . S
C769 H781 0.929 . S
C770 C766 1.531 . S
C770 H782 0.960 . S
C770 H783 0.962 . S
C770 H784 0.960 . S
C771 C768 1.511 . S
C771 H785 0.961 . S
C771 H786 0.961 . S
C771 H787 0.961 . S
C772 C773 1.370 . S
C772 C774 1.363 . S
C772 H788 0.931 . S
C773 C772 1.370 . S
C773 C777 1.408 . S
C774 C772 1.363 . S
C774 C775 1.370 . S
C774 C778 1.524 . S
C775 C767 1.503 . S
C775 C774 1.370 . S
C775 C776 1.403 . S
C776 C775 1.403 . S
C776 C777 1.404 . S
C776 C779 1.539 . S
C777 C773 1.408 . S
C777 C776 1.404 . S
C777 H789 0.930 . S
C778 C774 1.524 . S
C778 H790 0.956 . S
C778 H791 0.961 . S
C778 H792 0.961 . S
C779 C776 1.539 . S
C779 H793 0.958 . S
C779 H794 0.961 . S
C779 H795 0.960 . S
H780 C764 0.931 . S
H781 C769 0.929 . S
H782 C770 0.960 . S
H783 C770 0.962 . S
H784 C770 0.960 . S
H785 C771 0.961 . S
H786 C771 0.961 . S
H787 C771 0.961 . S
H788 C772 0.931 . S
H789 C777 0.930 . S
H790 C778 0.956 . S
H791 C778 0.961 . S
H792 C778 0.961 . S
H793 C779 0.958 . S
H794 C779 0.961 . S
H795 C779 0.960 . S
C796 C797 1.391 . S
C796 C798 1.394 . S
C796 H812 0.931 . S
C797 C796 1.391 . S
C797 C801 1.376 . S
C798 C796 1.394 . S
C798 C799 1.369 . S
C798 C802 1.531 . S
C799 C798 1.369 . S
C799 C800 1.410 . S
C799 C807 1.503 . S
C800 C799 1.410 . S
C800 C801 1.392 . S
C800 C803 1.511 . S
C801 C797 1.376 . S
C801 C800 1.392 . S
C801 H813 0.929 . S
C802 C798 1.531 . S
C802 H814 0.960 . S
C802 H815 0.962 . S
C802 H816 0.960 . S
C803 C800 1.511 . S
C803 H817 0.961 . S
C803 H818 0.961 . S
C803 H819 0.961 . S
C804 C805 1.370 . S
C804 C806 1.363 . S
C804 H820 0.931 . S
C805 C804 1.370 . S
C805 C809 1.408 . S
C806 C804 1.363 . S
C806 C807 1.370 . S
C806 C810 1.524 . S
C807 C799 1.503 . S
C807 C806 1.370 . S
C807 C808 1.403 . S
C808 C807 1.403 . S
C808 C809 1.404 . S
C808 C811 1.539 . S
C809 C805 1.408 . S
C809 C808 1.404 . S
C809 H821 0.930 . S
C810 C806 1.524 . S
C810 H822 0.956 . S
C810 H823 0.961 . S
C810 H824 0.961 . S
C811 C808 1.539 . S
C811 H825 0.958 . S
C811 H826 0.961 . S
C811 H827 0.960 . S
H812 C796 0.931 . S
H813 C801 0.929 . S
H814 C802 0.960 . S
H815 C802 0.962 . S
H816 C802 0.960 . S
H817 C803 0.961 . S
H818 C803 0.961 . S
H819 C803 0.961 . S
H820 C804 0.931 . S
H821 C809 0.930 . S
H822 C810 0.956 . S
H823 C810 0.961 . S
H824 C810 0.961 . S
H825 C811 0.958 . S
H826 C811 0.961 . S
H827 C811 0.960 . S
C828 C829 1.391 . S
C828 C830 1.394 . S
C828 H844 0.931 . S
C829 C828 1.391 . S
C829 C833 1.376 . S
C830 C828 1.394 . S
C830 C831 1.369 . S
C830 C834 1.531 1_655 S
C831 C830 1.369 . S
C831 C832 1.410 . S
C831 C839 1.503 . S
C832 C831 1.410 . S
C832 C833 1.392 . S
C832 C835 1.511 . S
C833 C829 1.376 . S
C833 C832 1.392 . S
C833 H845 0.929 . S
C834 C830 1.531 1_455 S
C834 H846 0.960 1_556 S
C834 H847 0.962 . S
C834 H848 0.960 1_556 S
C835 C832 1.511 . S
C835 H849 0.961 . S
C835 H850 0.961 . S
C835 H851 0.961 . S
C836 C837 1.370 . S
C836 C838 1.363 . S
C836 H852 0.931 1_655 S
C837 C836 1.370 . S
C837 C841 1.408 1_556 S
C838 C836 1.363 . S
C838 C839 1.370 . S
C838 C842 1.524 . S
C839 C831 1.503 . S
C839 C838 1.370 . S
C839 C840 1.403 1_556 S
C840 C839 1.403 1_554 S
C840 C841 1.404 . S
C840 C843 1.539 . S
C841 C837 1.408 1_554 S
C841 C840 1.404 . S
C841 H853 0.930 . S
C842 C838 1.524 . S
C842 H854 0.956 1_655 S
C842 H855 0.961 . S
C842 H856 0.953 1_655 S
C843 C840 1.539 . S
C843 H857 0.958 . S
C843 H858 0.961 . S
C843 H859 0.960 . S
H844 C828 0.931 . S
H845 C833 0.929 . S
H846 C834 0.960 1_554 S
H847 C834 0.962 . S
H848 C834 0.960 1_554 S
H849 C835 0.961 . S
H850 C835 0.961 . S
H851 C835 0.961 . S
H852 C836 0.931 1_455 S
H853 C841 0.930 . S
H854 C842 0.956 1_455 S
H855 C842 0.961 . S
H856 C842 0.953 1_455 S
H857 C843 0.958 . S
H858 C843 0.961 . S
H859 C843 0.960 . S
C860 C861 1.391 . S
C860 C862 1.394 . S
C860 H876 0.931 . S
C861 C860 1.391 . S
C861 C865 1.376 . S
C862 C860 1.394 . S
C862 C863 1.369 . S
C862 C866 1.531 . S
C863 C862 1.369 . S
C863 C864 1.410 . S
C863 C871 1.503 . S
C864 C863 1.410 . S
C864 C865 1.392 . S
C864 C867 1.511 . S
C865 C861 1.376 . S
C865 C864 1.392 . S
C865 H877 0.929 . S
C866 C862 1.531 . S
C866 H878 0.960 . S
C866 H879 0.962 . S
C866 H880 0.960 . S
C867 C864 1.511 . S
C867 H881 0.961 . S
C867 H882 0.961 . S
C867 H883 0.961 . S
C868 C869 1.370 . S
C868 C870 1.363 . S
C868 H884 0.931 . S
C869 C868 1.370 . S
C869 C873 1.408 . S
C870 C868 1.363 . S
C870 C871 1.370 . S
C870 C874 1.524 . S
C871 C863 1.503 . S
C871 C870 1.370 . S
C871 C872 1.403 . S
C872 C871 1.403 . S
C872 C873 1.404 . S
C872 C875 1.539 . S
C873 C869 1.408 . S
C873 C872 1.404 . S
C873 H885 0.930 . S
C874 C870 1.524 . S
C874 H886 0.956 . S
C874 H887 0.961 . S
C874 H888 0.961 . S
C875 C872 1.539 . S
C875 H889 0.958 1_554 S
C875 H890 0.961 . S
C875 H891 0.960 . S
H876 C860 0.931 . S
H877 C865 0.929 . S
H878 C866 0.960 . S
H879 C866 0.962 . S
H880 C866 0.960 . S
H881 C867 0.961 . S
H882 C867 0.961 . S
H883 C867 0.961 . S
H884 C868 0.931 . S
H885 C873 0.930 . S
H886 C874 0.956 . S
H887 C874 0.961 . S
H888 C874 0.961 . S
H889 C875 0.958 1_556 S
H890 C875 0.961 . S
H891 C875 0.960 . S
C892 C893 1.391 . S
C892 C894 1.394 . S
C892 H908 0.931 . S
C893 C892 1.391 . S
C893 C897 1.376 . S
C894 C892 1.394 . S
C894 C895 1.369 . S
C894 C898 1.531 . S
C895 C894 1.369 . S
C895 C896 1.410 . S
C895 C903 1.503 . S
C896 C895 1.410 . S
C896 C897 1.392 . S
C896 C899 1.511 . S
C897 C893 1.376 . S
C897 C896 1.392 . S
C897 H909 0.929 . S
C898 C894 1.531 . S
C898 H910 0.960 . S
C898 H911 0.962 1_455 S
C898 H912 0.960 . S
C899 C896 1.511 . S
C899 H913 0.961 . S
C899 H914 0.961 . S
C899 H915 0.961 . S
C900 C901 1.370 . S
C900 C902 1.363 . S
C900 H916 0.931 . S
C901 C900 1.370 . S
C901 C905 1.408 . S
C902 C900 1.363 . S
C902 C903 1.370 . S
C902 C906 1.524 . S
C903 C895 1.503 . S
C903 C902 1.370 . S
C903 C904 1.403 . S
C904 C903 1.403 . S
C904 C905 1.404 . S
C904 C907 1.539 . S
C905 C901 1.408 . S
C905 C904 1.404 . S
C905 H917 0.930 . S
C906 C902 1.524 . S
C906 H918 0.956 . S
C906 H919 0.961 . S
C906 H920 0.961 . S
C907 C904 1.539 . S
C907 H921 0.958 . S
C907 H922 0.961 . S
C907 H923 0.960 . S
H908 C892 0.931 . S
H909 C897 0.929 . S
H910 C898 0.960 . S
H911 C898 0.962 1_655 S
H912 C898 0.960 . S
H913 C899 0.961 . S
H914 C899 0.961 . S
H915 C899 0.961 . S
H916 C900 0.931 . S
H917 C905 0.930 . S
H918 C906 0.956 . S
H919 C906 0.961 . S
H920 C906 0.961 . S
H921 C907 0.958 . S
H922 C907 0.961 . S
H923 C907 0.960 . S
C924 C925 1.391 . S
C924 C926 1.394 . S
C924 H940 0.931 . S
C925 C924 1.391 . S
C925 C929 1.376 . S
C926 C924 1.394 . S
C926 C927 1.369 . S
C926 C930 1.531 . S
C927 C926 1.369 . S
C927 C928 1.410 . S
C927 C935 1.503 . S
C928 C927 1.410 . S
C928 C929 1.392 . S
C928 C931 1.511 . S
C929 C925 1.376 . S
C929 C928 1.392 . S
C929 H941 0.929 . S
C930 C926 1.531 . S
C930 H942 0.960 . S
C930 H943 0.962 . S
C930 H944 0.960 . S
C931 C928 1.511 . S
C931 H945 0.961 . S
C931 H946 0.961 . S
C931 H947 0.961 . S
C932 C933 1.370 . S
C932 C934 1.363 . S
C932 H948 0.931 . S
C933 C932 1.370 . S
C933 C937 1.408 . S
C934 C932 1.363 . S
C934 C935 1.370 . S
C934 C938 1.524 . S
C935 C927 1.503 . S
C935 C934 1.370 . S
C935 C936 1.403 . S
C936 C935 1.403 . S
C936 C937 1.404 . S
C936 C939 1.539 . S
C937 C933 1.408 . S
C937 C936 1.404 . S
C937 H949 0.930 . S
C938 C934 1.524 . S
C938 H950 0.956 . S
C938 H951 0.961 . S
C938 H952 0.961 . S
C939 C936 1.539 . S
C939 H953 0.958 . S
C939 H954 0.961 . S
C939 H955 0.960 . S
H940 C924 0.931 . S
H941 C929 0.929 . S
H942 C930 0.960 . S
H943 C930 0.962 . S
H944 C930 0.960 . S
H945 C931 0.961 . S
H946 C931 0.961 . S
H947 C931 0.961 . S
H948 C932 0.931 . S
H949 C937 0.930 . S
H950 C938 0.956 . S
H951 C938 0.961 . S
H952 C938 0.961 . S
H953 C939 0.958 . S
H954 C939 0.961 . S
H955 C939 0.960 . S
C189 C9 1.968 . S
C197 C122 1.915 . S
C221 C21 1.502 . S
C229 C139 1.483 . S
C261 C162 1.043 . S
C253 C30 1.216 . S
C285 C43 1.453 . S
C293 C183 1.262 1_655 S
C325 C142 1.635 . S
C317 C4 1.608 . S
C357 C119 2.100 . S
C349 C22 2.128 . S
C389 C181 1.040 . S
C381 C34 1.073 . S
C421 C160 1.223 . S
C413 C48 1.239 . S
C445 C8 1.785 . S
C453 C184 1.714 . S
C485 C141 1.318 . S
C477 C35 1.634 . S
C509 C47 1.719 . S
C517 C117 1.546 . S
C541 C17 1.371 . S
C549 C163 1.352 . S
C581 C121 1.596 . S
C573 C60 1.622 . S
C605 C74 1.597 . S
C613 C140 1.536 . S
C637 C82 1.036 . S
C645 C159 0.955 . S
C669 C100 1.882 . S
C677 C180 1.591 . S
C701 C61 2.030 . S
C709 C143 1.965 . S
C741 C118 1.713 . S
C733 C73 1.766 . S
C773 C182 1.322 . S
C765 C87 1.374 . S
C805 C161 1.125 . S
C797 C95 1.125 . S
C829 C56 1.537 . S
C837 C185 1.586 1_655 S
C869 C138 1.305 . S
C861 C86 1.562 . S
C901 C120 1.260 . S
C893 C99 1.414 . S
C925 C69 1.285 . S
C933 C164 1.338 . S
