# Generated by pormake.
# Topology tsx, (6,3)-cn, num edge types: 1
# Building blocks:
#     Node 0, Type 0, BuildingBlock: VOLQOD_clean_sbu_1, # of connection points: 6
#     Node 1, Type 0, BuildingBlock: VOLQOD_clean_sbu_1, # of connection points: 6
#     Node 2, Type 1, BuildingBlock: BELTOD_clean_linker_0, # of connection points: 3
#     Node 3, Type 1, BuildingBlock: BELTOD_clean_linker_0, # of connection points: 3
#     Node 4, Type 1, BuildingBlock: BELTOD_clean_linker_0, # of connection points: 3
#     Node 5, Type 1, BuildingBlock: BELTOD_clean_linker_0, # of connection points: 3
#     Edge 6, Type (0, 1), BuildingBlock: TEMPAE_clean_linker_10, # of connection points: 2
#     Edge 7, Type (0, 1), BuildingBlock: TEMPAE_clean_linker_10, # of connection points: 2
#     Edge 8, Type (0, 1), BuildingBlock: TEMPAE_clean_linker_10, # of connection points: 2
#     Edge 9, Type (0, 1), BuildingBlock: TEMPAE_clean_linker_10, # of connection points: 2
#     Edge 10, Type (0, 1), BuildingBlock: TEMPAE_clean_linker_10, # of connection points: 2
#     Edge 11, Type (0, 1), BuildingBlock: TEMPAE_clean_linker_10, # of connection points: 2
#     Edge 12, Type (0, 1), BuildingBlock: TEMPAE_clean_linker_10, # of connection points: 2
#     Edge 13, Type (0, 1), BuildingBlock: TEMPAE_clean_linker_10, # of connection points: 2
#     Edge 14, Type (0, 1), BuildingBlock: TEMPAE_clean_linker_10, # of connection points: 2
#     Edge 15, Type (0, 1), BuildingBlock: TEMPAE_clean_linker_10, # of connection points: 2
#     Edge 16, Type (0, 1), BuildingBlock: TEMPAE_clean_linker_10, # of connection points: 2
#     Edge 17, Type (0, 1), BuildingBlock: TEMPAE_clean_linker_10, # of connection points: 2
# Relax obj value: 0.067
# Max RMSD: 0.102
# Mean RMSD: 0.074
data_MOF--net-tsx--node1-VOLQOD_clean_sbu_1--node2-BELTOD_clean_linker_0--edge1-TEMPAE_clean_linker_10
_symmetry_space_group_name_H-M    P1
_symmetry_Int_Tables_number       1
_symmetry_cell_setting            triclinic
loop_
_symmetry_equiv_pos_as_xyz
'x, y, z'
_cell_length_a     23.387105
_cell_length_b     24.236836
_cell_length_c     45.259699
_cell_angle_alpha  91.085316
_cell_angle_beta   90.215897
_cell_angle_gamma 90.097375
loop_
_atom_site_label
_atom_site_type_symbol
_atom_site_fract_x
_atom_site_fract_y
_atom_site_fract_z
_atom_type_partial_charge
O0 O 0.02043 0.99476 0.0723 0.0
Zn1 Zn 0.04198 0.99013 0.02977 0.0
O2 O 0.97587 0.99449 0.00386 0.0
Zn3 Zn 0.97233 0.92683 0.97981 0.0
Zn4 Zn 0.90686 0.00262 0.02849 0.0
Zn5 Zn 0.98466 0.05737 0.97753 0.0
O6 O 0.97816 0.94238 0.93652 0.0
O7 O 0.98793 0.03329 0.93429 0.0
O8 O 0.08679 0.92111 0.02322 0.0
O9 O 0.03818 0.87598 0.98833 0.0
O10 O 0.89949 0.88611 0.98734 0.0
O11 O 0.85486 0.93634 0.02179 0.0
O12 O 0.86384 0.07241 0.01789 0.0
O13 O 0.09549 0.05224 0.02271 0.0
O14 O 0.91813 0.10832 0.98288 0.0
O15 O 0.05665 0.10126 0.98698 0.0
C16 C 0.97404 0.00241 0.08632 0.0
C17 C 0.98491 0.98593 0.92165 0.0
C18 C 0.85734 0.89399 0.00464 0.0
C19 C 0.08051 0.8795 0.00601 0.0
C20 C 0.87401 0.1101 0.9993 0.0
C21 C 0.0967 0.09311 0.00554 0.0
O22 O 0.92659 0.00724 0.07259 0.0
O23 O 0.51975 0.49934 0.57721 0.0
Zn24 Zn 0.5397 0.49991 0.53456 0.0
O25 O 0.47267 0.50625 0.50943 0.0
Zn26 Zn 0.46768 0.44088 0.48377 0.0
Zn27 Zn 0.40482 0.51195 0.53504 0.0
Zn28 Zn 0.48083 0.57103 0.48443 0.0
O29 O 0.46742 0.46004 0.44092 0.0
O30 O 0.48122 0.55049 0.44068 0.0
O31 O 0.58541 0.43233 0.52505 0.0
O32 O 0.5358 0.39131 0.48904 0.0
O33 O 0.39711 0.39752 0.49241 0.0
O34 O 0.35432 0.44442 0.52879 0.0
O35 O 0.35988 0.58111 0.52548 0.0
O36 O 0.59149 0.56431 0.52964 0.0
O37 O 0.41458 0.62175 0.4921 0.0
O38 O 0.55399 0.61327 0.49344 0.0
C39 C 0.47434 0.50774 0.59193 0.0
C40 C 0.47468 0.50452 0.42693 0.0
C41 C 0.35656 0.40315 0.5109 0.0
C42 C 0.57896 0.39317 0.50624 0.0
C43 C 0.37008 0.62109 0.5083 0.0
C44 C 0.59297 0.60541 0.51263 0.0
O45 O 0.42659 0.51541 0.57891 0.0
P46 P 0.07963 0.09585 0.40352 0.0
H47 H 0.07096 0.1933 0.44265 0.0
H48 H 0.98939 0.23704 0.46749 0.0
H49 H 0.87809 0.10915 0.4323 0.0
H50 H 0.9596 0.06576 0.4076 0.0
H51 H 0.17247 0.07512 0.44514 0.0
H52 H 0.20026 0.99397 0.47276 0.0
H53 H 0.05447 0.90521 0.43676 0.0
H54 H 0.0281 0.98632 0.40845 0.0
H55 H 0.00851 0.15501 0.36175 0.0
H56 H 0.1066 0.00451 0.3619 0.0
O57 O 0.13453 0.13986 0.40263 0.0
H58 H 0.98146 0.13716 0.31028 0.0
H59 H 0.08003 0.98657 0.31021 0.0
C60 C 0.02086 0.12701 0.42286 0.0
C61 C 0.02899 0.17474 0.44031 0.0
C62 C 0.98248 0.1996 0.4545 0.0
C63 C 0.92746 0.17655 0.45168 0.0
C64 C 0.92008 0.12751 0.43506 0.0
C65 C 0.96649 0.10293 0.42078 0.0
C66 C 0.09948 0.03595 0.42395 0.0
C67 C 0.14674 0.03806 0.44303 0.0
C68 C 0.16202 0.99182 0.45921 0.0
C69 C 0.12982 0.9428 0.45682 0.0
C70 C 0.0808 0.94191 0.43868 0.0
C71 C 0.06571 0.98818 0.42245 0.0
C72 C 0.05829 0.08035 0.36593 0.0
C73 C 0.02373 0.11776 0.3508 0.0
C74 C 0.00863 0.10773 0.32129 0.0
C75 C 0.02829 0.06026 0.30619 0.0
C76 C 0.0633 0.02297 0.32139 0.0
C77 C 0.07859 0.03321 0.35094 0.0
P78 P 0.10481 0.89198 0.60613 0.0
H79 H 0.09161 0.82514 0.55225 0.0
H80 H 0.00757 0.78897 0.52585 0.0
H81 H 0.89839 0.86362 0.59239 0.0
H82 H 0.98192 0.9017 0.61747 0.0
H83 H 0.20552 0.95993 0.61558 0.0
H84 H 0.24044 0.04325 0.59249 0.0
H85 H 0.1003 0.03477 0.52981 0.0
H86 H 0.06357 0.95381 0.55444 0.0
H87 H 0.06526 0.82441 0.65439 0.0
H88 H 0.10399 0.99642 0.64147 0.0
O89 O 0.15549 0.84363 0.60598 0.0
H90 H 0.04016 0.84526 0.70601 0.0
H91 H 0.08112 0.01675 0.69316 0.0
C92 C 0.04297 0.8646 0.58725 0.0
C93 C 0.04944 0.83346 0.56108 0.0
C94 C 0.00137 0.81289 0.54603 0.0
C95 C 0.94606 0.8231 0.55703 0.0
C96 C 0.9401 0.85552 0.58297 0.0
C97 C 0.98804 0.8766 0.5977 0.0
C98 C 0.1318 0.95094 0.58701 0.0
C99 C 0.1824 0.9761 0.59686 0.0
C100 C 0.2026 0.02351 0.58335 0.0
C101 C 0.17327 0.04601 0.55915 0.0
C102 C 0.12338 0.01945 0.54874 0.0
C103 C 0.10257 0.97261 0.56271 0.0
C104 C 0.08738 0.90855 0.64412 0.0
C105 C 0.06879 0.86651 0.66268 0.0
C106 C 0.05423 0.87844 0.69206 0.0
C107 C 0.05899 0.93255 0.70348 0.0
C108 C 0.07762 0.97464 0.6849 0.0
C109 C 0.09099 0.96287 0.65534 0.0
P110 P 0.59792 0.60514 0.90686 0.0
H111 H 0.55664 0.61183 0.96802 0.0
H112 H 0.47086 0.65289 0.99009 0.0
H113 H 0.4186 0.70955 0.90414 0.0
H114 H 0.50454 0.66969 0.88245 0.0
H115 H 0.70839 0.56936 0.93 0.0
H116 H 0.73835 0.48691 0.95595 0.0
H117 H 0.56404 0.42736 0.95479 0.0
H118 H 0.5344 0.51005 0.92862 0.0
H119 H 0.65269 0.62954 0.85036 0.0
H120 H 0.506 0.5385 0.88027 0.0
O121 O 0.65043 0.65188 0.90761 0.0
H122 H 0.6255 0.60957 0.79907 0.0
H123 H 0.47821 0.51876 0.82904 0.0
C124 C 0.53592 0.63617 0.92344 0.0
C125 C 0.52646 0.63276 0.95393 0.0
C126 C 0.47745 0.65613 0.96651 0.0
C127 C 0.43779 0.68397 0.94879 0.0
C128 C 0.4485 0.6886 0.9184 0.0
C129 C 0.49738 0.66533 0.90591 0.0
C130 C 0.61929 0.54556 0.92719 0.0
C131 C 0.67653 0.5388 0.93548 0.0
C132 C 0.6935 0.49184 0.95059 0.0
C133 C 0.65348 0.45067 0.9575 0.0
C134 C 0.59589 0.45813 0.94956 0.0
C135 C 0.57897 0.50525 0.93453 0.0
C136 C 0.58144 0.58544 0.86915 0.0
C137 C 0.61487 0.60489 0.84593 0.0
C138 C 0.59899 0.5938 0.81659 0.0
C139 C 0.54936 0.56298 0.80995 0.0
C140 C 0.51689 0.54222 0.83336 0.0
C141 C 0.53281 0.55341 0.86269 0.0
P142 P 0.58323 0.40531 0.11152 0.0
H143 H 0.56723 0.30789 0.07326 0.0
H144 H 0.48367 0.26976 0.04756 0.0
H145 H 0.38228 0.40746 0.0793 0.0
H146 H 0.46573 0.44436 0.1057 0.0
H147 H 0.68341 0.41945 0.0737 0.0
H148 H 0.71997 0.49869 0.04683 0.0
H149 H 0.57511 0.59543 0.07597 0.0
H150 H 0.53925 0.51642 0.1032 0.0
H151 H 0.49586 0.36801 0.15302 0.0
H152 H 0.63299 0.48719 0.15245 0.0
O153 O 0.63371 0.35694 0.1136 0.0
H154 H 0.47413 0.39407 0.20417 0.0
H155 H 0.61143 0.51349 0.2037 0.0
C156 C 0.52218 0.37816 0.09193 0.0
C157 C 0.52697 0.32975 0.07475 0.0
C158 C 0.47932 0.30839 0.05975 0.0
C159 C 0.42624 0.3355 0.06148 0.0
C160 C 0.42232 0.3852 0.07788 0.0
C161 C 0.46998 0.40639 0.09292 0.0
C162 C 0.60923 0.46256 0.09086 0.0
C163 C 0.65953 0.45769 0.07432 0.0
C164 C 0.68019 0.5028 0.05884 0.0
C165 C 0.65027 0.55308 0.05929 0.0
C166 C 0.59867 0.557 0.07497 0.0
C167 C 0.5784 0.51206 0.09069 0.0
C168 C 0.56499 0.42678 0.14864 0.0
C169 C 0.52065 0.4005 0.1637 0.0
C170 C 0.50822 0.41545 0.19296 0.0
C171 C 0.54072 0.45621 0.20788 0.0
C172 C 0.58564 0.48195 0.1928 0.0
C173 C 0.59775 0.46721 0.16346 0.0
C174 C 0.19427 0.11666 0.02398 0.0
C175 C 0.14535 0.13203 0.00813 0.0
C176 C 0.23924 0.1538 0.02898 0.0
C177 C 0.23527 0.20789 0.01796 0.0
C178 C 0.18705 0.22324 1.001 0.0
C179 C 0.14256 0.18497 0.99619 0.0
C180 C 0.29017 0.13561 0.04699 0.0
C181 C 0.18153 0.28059 0.98891 0.0
C182 C 0.32327 0.30837 0.06396 0.0
C183 C 0.37448 0.30986 0.04797 0.0
C184 C 0.27602 0.27831 0.05335 0.0
C185 C 0.28019 0.24879 0.02617 0.0
C186 C 0.33049 0.25281 0.00906 0.0
C187 C 0.37713 0.28332 0.02019 0.0
C188 C 0.22308 0.27509 0.07226 0.0
C189 C 0.33637 0.22219 0.97988 0.0
H190 H 0.19717 0.07561 0.03297 0.0
H191 H 0.1049 0.1971 0.9839 0.0
H192 H 0.33035 0.14304 0.03473 0.0
H193 H 0.29248 0.1602 0.0679 0.0
H194 H 0.28803 0.0912 0.05255 0.0
H195 H 0.14441 0.28427 0.97368 0.0
H196 H 0.17614 0.31074 0.00743 0.0
H197 H 0.22097 0.2922 0.97696 0.0
H198 H 0.321 0.32831 0.08556 0.0
H199 H 0.41627 0.28518 0.00749 0.0
H200 H 0.21949 0.23314 0.0815 0.0
H201 H 0.18418 0.2823 0.0588 0.0
H202 H 0.224 0.30556 0.09091 0.0
H203 H 0.34041 0.17734 0.98389 0.0
H204 H 0.37452 0.23583 0.9674 0.0
H205 H 0.29775 0.22804 0.96599 0.0
C206 C 0.12749 0.79872 0.98098 0.0
C207 C 0.12709 0.83835 0.00397 0.0
C208 C 0.17644 0.76707 0.97518 0.0
C209 C 0.22591 0.77521 0.99285 0.0
C210 C 0.22409 0.81161 0.01761 0.0
C211 C 0.17466 0.8428 0.02289 0.0
C212 C 0.17664 0.72827 0.94868 0.0
C213 C 0.27581 0.82097 0.03716 0.0
C214 C 0.35181 0.67833 0.98152 0.0
C215 C 0.38518 0.7082 0.96166 0.0
C216 C 0.30003 0.69979 0.9923 0.0
C217 C 0.28146 0.75216 0.9829 0.0
C218 C 0.31565 0.78292 0.96338 0.0
C219 C 0.36714 0.76062 0.95309 0.0
C220 C 0.2647 0.66604 0.01319 0.0
C221 C 0.29745 0.83914 0.95297 0.0
H222 H 0.09079 0.79459 0.96641 0.0
H223 H 0.17451 0.87276 0.04098 0.0
H224 H 0.20295 0.74631 0.93092 0.0
H225 H 0.19607 0.68813 0.95439 0.0
H226 H 0.13289 0.7207 0.93984 0.0
H227 H 0.26488 0.84377 0.0579 0.0
H228 H 0.29588 0.78114 0.04292 0.0
H229 H 0.30812 0.84532 0.0251 0.0
H230 H 0.36543 0.63756 0.988 0.0
H231 H 0.39333 0.78422 0.93816 0.0
H232 H 0.22339 0.65476 1.00254 0.0
H233 H 0.25467 0.69067 0.03341 0.0
H234 H 0.28679 0.62759 0.01972 0.0
H235 H 0.25601 0.83581 0.94104 0.0
H236 H 0.32935 0.85787 0.93802 0.0
H237 H 0.29103 0.86746 0.97221 0.0
C238 C 0.81178 0.80675 0.98566 0.0
C239 C 0.81353 0.85003 0.00674 0.0
C240 C 0.77772 0.75993 0.99 0.0
C241 C 0.74526 0.7561 0.01616 0.0
C242 C 0.7432 0.80149 0.0363 0.0
C243 C 0.77724 0.84809 0.03129 0.0
C244 C 0.77971 0.71296 0.96763 0.0
C245 C 0.7083 0.7992 0.06424 0.0
C246 C 0.64133 0.63803 0.02878 0.0
C247 C 0.67516 0.60265 0.04567 0.0
C248 C 0.66369 0.68773 0.01824 0.0
C249 C 0.72113 0.70208 0.02485 0.0
C250 C 0.75579 0.6656 0.04115 0.0
C251 C 0.73239 0.61633 0.0513 0.0
C252 C 0.62582 0.72465 1.00017 0.0
C253 C 0.81721 0.67942 0.04878 0.0
H254 H 0.83887 0.80835 0.96632 0.0
H255 H 0.77786 0.88151 0.04754 0.0
H256 H 0.80464 0.67831 0.97683 0.0
H257 H 0.736 0.69733 0.96277 0.0
H258 H 0.79996 0.72543 0.94661 0.0
H259 H 0.70602 0.83994 0.07584 0.0
H260 H 0.66419 0.78485 0.05919 0.0
H261 H 0.72778 0.76909 0.07946 0.0
H262 H 0.59723 0.62703 0.02407 0.0
H263 H 0.75842 0.58936 0.06464 0.0
H264 H 0.63838 0.72117 0.9766 0.0
H265 H 0.6308 0.76852 0.00718 0.0
H266 H 0.58 0.71308 1.00192 0.0
H267 H 0.84174 0.6873 0.02836 0.0
H268 H 0.83872 0.64585 0.06095 0.0
H269 H 0.81886 0.71765 0.06265 0.0
C270 C 0.78778 0.16467 0.01575 0.0
C271 C 0.83472 0.15782 0.99675 0.0
C272 C 0.75154 0.21072 0.01352 0.0
C273 C 0.76253 0.25054 0.99176 0.0
C274 C 0.80966 0.24368 0.97253 0.0
C275 C 0.84503 0.19757 0.97526 0.0
C276 C 0.70167 0.21689 0.0344 0.0
C277 C 0.82289 0.28518 0.94897 0.0
C278 C 0.65447 0.34758 0.95892 0.0
C279 C 0.67303 0.39844 0.97077 0.0
C280 C 0.68003 0.29808 0.96752 0.0
C281 C 0.72515 0.29959 0.98846 0.0
C282 C 0.74052 0.35031 1.00239 0.0
C283 C 0.71444 0.39919 0.99325 0.0
C284 C 0.6621 0.24485 0.95227 0.0
C285 C 0.78773 0.3537 0.02519 0.0
H286 H 0.77951 0.13427 0.03247 0.0
H287 H 0.88104 0.19281 0.96043 0.0
H288 H 0.70509 0.25651 0.04697 0.0
H289 H 0.66106 0.21809 0.02168 0.0
H290 H 0.69931 0.18265 0.05032 0.0
H291 H 0.86121 0.2737 0.9358 0.0
H292 H 0.78593 0.28884 0.93369 0.0
H293 H 0.83031 0.32647 0.9593 0.0
H294 H 0.6226 0.34667 0.94147 0.0
H295 H 0.72823 0.43834 1.0028 0.0
H296 H 0.65821 0.21117 0.9684 0.0
H297 H 0.69523 0.23238 0.93598 0.0
H298 H 0.62072 0.24909 0.9404 0.0
H299 H 0.78417 0.3196 0.04108 0.0
H300 H 0.78721 0.39364 0.03765 0.0
H301 H 0.82967 0.34956 0.01398 0.0
C302 C 0.66194 0.67299 0.49121 0.0
C303 C 0.64151 0.64412 0.51557 0.0
C304 C 0.71124 0.70609 0.4937 0.0
C305 C 0.73967 0.71108 0.52131 0.0
C306 C 0.71775 0.68362 0.54617 0.0
C307 C 0.66933 0.65009 0.54291 0.0
C308 C 0.73399 0.73408 0.46665 0.0
C309 C 0.74609 0.68875 0.57617 0.0
C310 C 0.89667 0.74297 0.53196 0.0
C311 C 0.89476 0.79758 0.54278 0.0
C312 C 0.84677 0.71561 0.52255 0.0
C313 C 0.79357 0.74317 0.52449 0.0
C314 C 0.79177 0.79932 0.53353 0.0
C315 C 0.84249 0.82601 0.5423 0.0
C316 C 0.85055 0.65594 0.51254 0.0
C317 C 0.73586 0.83009 0.53605 0.0
H318 H 0.64063 0.66812 0.47 0.0
H319 H 0.65324 0.62829 0.56187 0.0
H320 H 0.74076 0.77873 0.47127 0.0
H321 H 0.77615 0.71623 0.46069 0.0
H322 H 0.70478 0.72924 0.44736 0.0
H323 H 0.72169 0.66725 0.59356 0.0
H324 H 0.78972 0.67094 0.57518 0.0
H325 H 0.75053 0.73287 0.58279 0.0
H326 H 0.93663 0.72043 0.53234 0.0
H327 H 0.8408 0.86868 0.54983 0.0
H328 H 0.82448 0.64861 0.49231 0.0
H329 H 0.83322 0.62918 0.53001 0.0
H330 H 0.89531 0.6432 0.50796 0.0
H331 H 0.70943 0.82338 0.5159 0.0
H332 H 0.74239 0.87514 0.53959 0.0
H333 H 0.71126 0.81409 0.55499 0.0
C334 C 0.62877 0.32016 0.47644 0.0
C335 C 0.62531 0.35226 0.50247 0.0
C336 C 0.6769 0.28744 0.47053 0.0
C337 C 0.72219 0.28629 0.49135 0.0
C338 C 0.71732 0.31576 0.51849 0.0
C339 C 0.66904 0.34871 0.52366 0.0
C340 C 0.68072 0.25675 0.44125 0.0
C341 C 0.76436 0.31474 0.54141 0.0
C342 C 0.83494 0.17583 0.47932 0.0
C343 C 0.87716 0.20527 0.46431 0.0
C344 C 0.78482 0.20198 0.48912 0.0
C345 C 0.77669 0.25863 0.48342 0.0
C346 C 0.81984 0.2888 0.46891 0.0
C347 C 0.86968 0.26176 0.45963 0.0
C348 C 0.74005 0.16879 0.50492 0.0
C349 C 0.81253 0.34923 0.46224 0.0
H350 H 0.59517 0.32265 0.45995 0.0
H351 H 0.66637 0.37296 0.54398 0.0
H352 H 0.71508 0.27513 0.42772 0.0
H353 H 0.6921 0.21293 0.44468 0.0
H354 H 0.64002 0.25829 0.42855 0.0
H355 H 0.751 0.33422 0.5627 0.0
H356 H 0.77786 0.27169 0.54552 0.0
H357 H 0.80224 0.33726 0.53316 0.0
H358 H 0.84097 0.1322 0.48316 0.0
H359 H 0.90196 0.28441 0.4477 0.0
H360 H 0.70061 0.16619 0.49127 0.0
H361 H 0.72849 0.18951 0.52613 0.0
H362 H 0.75474 0.12622 0.50951 0.0
H363 H 0.77522 0.35468 0.44737 0.0
H364 H 0.85088 0.36703 0.45156 0.0
H365 H 0.80381 0.37306 0.4829 0.0
C366 C 0.28941 0.3469 0.54072 0.0
C367 C 0.31498 0.35752 0.51347 0.0
C368 C 0.25913 0.29772 0.54508 0.0
C369 C 0.25338 0.25896 0.52142 0.0
C370 C 0.27465 0.27182 0.49316 0.0
C371 C 0.30588 0.3207 0.4896 0.0
C372 C 0.23727 0.28537 0.57561 0.0
C373 C 0.26761 0.23242 0.46715 0.0
C374 C 0.25233 0.10975 0.5445 0.0
C375 C 0.19361 0.09824 0.54587 0.0
C376 C 0.27221 0.16149 0.53587 0.0
C377 C 0.23251 0.20234 0.5274 0.0
C378 C 0.17343 0.18981 0.52656 0.0
C379 C 0.15457 0.13817 0.53623 0.0
C380 C 0.3357 0.17313 0.53702 0.0
C381 C 0.12991 0.23155 0.51662 0.0
H382 H 0.29631 0.37521 0.55923 0.0
H383 H 0.32489 0.32916 0.46834 0.0
H384 H 0.19199 0.27183 0.57453 0.0
H385 H 0.26244 0.25106 0.58501 0.0
H386 H 0.24057 0.32168 0.59088 0.0
H387 H 0.27742 0.25247 0.44589 0.0
H388 H 0.29696 0.19691 0.46972 0.0
H389 H 0.22338 0.21582 0.46613 0.0
H390 H 0.28299 0.07865 0.55088 0.0
H391 H 0.10907 0.13007 0.53725 0.0
H392 H 0.34449 0.2073 0.55308 0.0
H393 H 0.35093 0.18655 0.51512 0.0
H394 H 0.36091 0.13654 0.54362 0.0
H395 H 0.12432 0.2636 0.53419 0.0
H396 H 0.08762 0.21223 0.51196 0.0
H397 H 0.14465 0.25259 0.49645 0.0
C398 C 0.34507 0.71525 0.49118 0.0
C399 C 0.32946 0.66788 0.50656 0.0
C400 C 0.30673 0.75889 0.48758 0.0
C401 C 0.25105 0.75521 0.49955 0.0
C402 C 0.23542 0.70848 0.51601 0.0
C403 C 0.27492 0.66527 0.51938 0.0
C404 C 0.32534 0.80821 0.47003 0.0
C405 C 0.17646 0.70334 0.52915 0.0
C406 C 0.17677 0.89367 0.49889 0.0
C407 C 0.15062 0.89164 0.47092 0.0
C408 C 0.20578 0.8477 0.50989 0.0
C409 C 0.20864 0.79867 0.49247 0.0
C410 C 0.17811 0.79491 0.46544 0.0
C411 C 0.14965 0.84147 0.45496 0.0
C412 C 0.23701 0.85305 0.53904 0.0
C413 C 0.17968 0.74326 0.44626 0.0
H414 H 0.38727 0.71809 0.4815 0.0
H415 H 0.26255 0.62894 0.53142 0.0
H416 H 0.2992 0.81078 0.44959 0.0
H417 H 0.31835 0.84685 0.48304 0.0
H418 H 0.37113 0.80608 0.46368 0.0
H419 H 0.17253 0.66668 0.54337 0.0
H420 H 0.1659 0.74081 0.54246 0.0
H421 H 0.1442 0.6999 0.51117 0.0
H422 H 0.17671 0.93195 0.51164 0.0
H423 H 0.12993 0.83942 0.43326 0.0
H424 H 0.28376 0.85444 0.53503 0.0
H425 H 0.22839 0.81674 0.5529 0.0
H426 H 0.22466 0.89103 0.55154 0.0
H427 H 0.22257 0.73916 0.43604 0.0
H428 H 0.14718 0.74409 0.4283 0.0
H429 H 0.17235 0.70611 0.45967 0.0
C430 C 0.92811 0.02076 0.13588 0.0
C431 C 0.97667 0.00727 0.11911 0.0
C432 C 0.93177 0.02799 0.16678 0.0
C433 C 0.98519 0.02161 0.1812 0.0
C434 C 0.03398 0.00691 0.16446 0.0
C435 C 0.02912 -0.0001 0.13375 0.0
C436 C 0.87878 0.04348 0.18393 0.0
C437 C 0.09177 -0.00031 0.17892 0.0
C438 C 0.01718 0.09431 0.25452 0.0
C439 C 0.01392 0.05075 0.27443 0.0
C440 C 0.00607 0.08573 0.22427 0.0
C441 C 0.99115 0.03229 0.21361 0.0
C442 C 0.98635 0.98842 0.2337 0.0
C443 C -0.002 -0.00188 0.26385 0.0
C444 C 0.01222 0.13352 0.20358 0.0
C445 C 0.97027 0.93094 0.22323 0.0
H446 H 0.8874 0.0265 0.12484 0.0
H447 H 0.06697 0.98922 0.12115 0.0
H448 H 0.87182 0.01397 0.20202 0.0
H449 H 0.88443 0.08497 0.19433 0.0
H450 H 0.83996 0.04405 0.16972 0.0
H451 H 0.12515 0.98657 0.16288 0.0
H452 H 0.10548 0.03912 0.18963 0.0
H453 H 0.08907 0.96846 0.19647 0.0
H454 H 0.0301 0.13493 0.26246 0.0
H455 H 0.99467 0.96446 0.27918 0.0
H456 H 0.9729 0.13796 0.19006 0.0
H457 H 0.0481 0.12546 0.18812 0.0
H458 H 0.02057 0.17315 0.21558 0.0
H459 H 0.93019 0.93201 0.21006 0.0
H460 H 0.96429 0.90233 0.24186 0.0
H461 H 0.00423 0.91413 0.20858 0.0
C462 C 0.9804 0.0246 0.87058 0.0
C463 C 0.99255 0.98053 0.88923 0.0
C464 C 0.98851 0.01951 0.83985 0.0
C465 C 0.01072 0.96974 0.82766 0.0
C466 C 0.02341 0.92534 0.84646 0.0
C467 C 0.01352 0.93105 0.87691 0.0
C468 C 0.97321 0.06728 0.82044 0.0
C469 C 0.04836 0.87202 0.83449 0.0
C470 C 0.99235 0.92958 0.74654 0.0
C471 C 0.04536 0.94482 0.73487 0.0
C472 C 0.97961 0.93949 0.77648 0.0
C473 C 0.02148 0.9639 0.79531 0.0
C474 C 0.07493 0.97978 0.7835 0.0
C475 C 0.08597 0.97062 0.75332 0.0
C476 C 0.92169 0.92308 0.78806 0.0
C477 C 0.12119 0.00474 0.80293 0.0
H478 H 0.96393 0.06283 0.87997 0.0
H479 H 0.02359 0.89701 0.89122 0.0
H480 H 0.01187 0.08214 0.80889 0.0
H481 H 0.94215 0.05358 0.8032 0.0
H482 H 0.95438 0.10234 0.8332 0.0
H483 H 0.0569 0.84188 0.85215 0.0
H484 H 0.01864 0.85281 0.81813 0.0
H485 H 0.08902 0.88048 0.82284 0.0
H486 H 0.96079 0.91007 0.73216 0.0
H487 H 0.1271 0.98205 0.74429 0.0
H488 H 0.90162 0.9585 0.79993 0.0
H489 H 0.92656 0.88943 0.80414 0.0
H490 H 0.89239 0.9087 0.77012 0.0
H491 H 0.10492 0.04208 0.81465 0.0
H492 H 0.15977 0.01624 0.79018 0.0
H493 H 0.1339 0.97485 0.82002 0.0
C494 C 0.43191 0.52582 0.64234 0.0
C495 C 0.47883 0.51091 0.62469 0.0
C496 C 0.43783 0.53245 0.67319 0.0
C497 C 0.4919 0.52407 0.6866 0.0
C498 C 0.53889 0.50752 0.66899 0.0
C499 C 0.53178 0.50108 0.63838 0.0
C500 C 0.38667 0.54979 0.69132 0.0
C501 C 0.5973 0.49813 0.68237 0.0
C502 C 0.53408 0.59661 0.75849 0.0
C503 C 0.53107 0.55357 0.77872 0.0
C504 C 0.51919 0.58808 0.72868 0.0
C505 C 0.50078 0.53517 0.71879 0.0
C506 C 0.49588 0.49196 0.73926 0.0
C507 C 0.51109 0.50167 0.76899 0.0
C508 C 0.52491 0.6353 0.70759 0.0
C509 C 0.47654 0.43497 0.72956 0.0
H510 H 0.39083 0.53339 0.63204 0.0
H511 H 0.56836 0.48921 0.62509 0.0
H512 H 0.38041 0.5211 0.70985 0.0
H513 H 0.39421 0.59146 0.70115 0.0
H514 H 0.3468 0.55086 0.67792 0.0
H515 H 0.62882 0.48306 0.66579 0.0
H516 H 0.61361 0.53723 0.69241 0.0
H517 H 0.5945 0.46761 0.70026 0.0
H518 H 0.54832 0.63712 0.76596 0.0
H519 H 0.50892 0.46812 0.78444 0.0
H520 H 0.48439 0.64102 0.69522 0.0
H521 H 0.55871 0.62569 0.69115 0.0
H522 H 0.53607 0.67476 0.71913 0.0
H523 H 0.43611 0.43737 0.71676 0.0
H524 H 0.46986 0.40738 0.74858 0.0
H525 H 0.50913 0.41607 0.7148 0.0
C526 C 0.48608 0.54959 0.37764 0.0
C527 C 0.47896 0.50165 0.39418 0.0
C528 C 0.49387 0.54648 0.34684 0.0
C529 C 0.49497 0.49423 0.33231 0.0
C530 C 0.48667 0.44585 0.34878 0.0
C531 C 0.47856 0.45015 0.37942 0.0
C532 C 0.50204 0.599 0.32995 0.0
C533 C 0.48778 0.3893 0.33416 0.0
C534 C 0.47285 0.47734 0.24937 0.0
C535 C 0.52912 0.47008 0.23942 0.0
C536 C 0.46117 0.4873 0.27942 0.0
C537 C 0.50683 0.48953 0.30004 0.0
C538 C 0.56383 0.48354 0.29002 0.0
C539 C 0.57428 0.47407 0.25983 0.0
C540 C 0.39989 0.49403 0.2892 0.0
C541 C 0.61368 0.48513 0.31133 0.0
H542 H 0.48632 0.58957 0.38878 0.0
H543 H 0.47314 0.41278 0.39189 0.0
H544 H 0.54546 0.59967 0.32017 0.0
H545 H 0.47093 0.60075 0.31143 0.0
H546 H 0.49677 0.63646 0.3442 0.0
H547 H 0.47915 0.35584 0.34998 0.0
H548 H 0.45548 0.38679 0.31617 0.0
H549 H 0.53024 0.38191 0.32398 0.0
H550 H 0.43785 0.47498 0.23362 0.0
H551 H 0.6178 0.46792 0.25231 0.0
H552 H 0.39507 0.53251 0.30262 0.0
H553 H 0.38765 0.45916 0.30341 0.0
H554 H 0.36972 0.49533 0.27021 0.0
H555 H 0.61253 0.52358 0.325 0.0
H556 H 0.65552 0.48284 0.29983 0.0
H557 H 0.61059 0.44998 0.3266 0.0
loop_
_geom_bond_atom_site_label_1
_geom_bond_atom_site_label_2
_geom_bond_distance
_geom_bond_site_symmetry_2
_ccdc_geom_bond_type
O0 Zn1 1.953 . S
O0 C16 1.225 1_565 S
Zn1 O0 1.953 . S
Zn1 O2 1.949 1_565 S
Zn1 O8 1.919 . S
Zn1 O13 1.924 1_565 S
O2 Zn1 1.949 1_545 S
O2 Zn3 1.923 1_444 S
O2 Zn4 1.950 1_455 S
O2 Zn5 1.945 1_554 S
Zn3 O2 1.923 1_666 S
Zn3 O6 1.933 . S
Zn3 O9 1.941 1_655 S
Zn3 O10 1.965 . S
Zn4 O2 1.950 1_655 S
Zn4 O11 1.938 1_545 S
Zn4 O12 1.906 . S
Zn4 O22 1.953 . S
Zn5 O2 1.945 1_556 S
Zn5 O7 1.932 . S
Zn5 O14 1.977 1_455 S
Zn5 O15 1.910 . S
O6 Zn3 1.933 . S
O6 C17 1.226 1_665 S
O7 Zn5 1.932 . S
O7 C17 1.307 . S
O8 Zn1 1.919 . S
O8 C19 1.253 1_554 S
O9 Zn3 1.941 1_455 S
O9 C19 1.283 . S
O10 Zn3 1.965 . S
O10 C18 1.303 1_556 S
O11 Zn4 1.938 1_565 S
O11 C18 1.247 . S
O12 Zn4 1.906 . S
O12 C20 1.304 1_554 S
O13 Zn1 1.924 1_545 S
O13 C21 1.311 . S
O14 Zn5 1.977 1_655 S
O14 C20 1.272 . S
O15 Zn5 1.910 . S
O15 C21 1.231 1_556 S
C16 O0 1.225 1_545 S
C16 O22 1.298 1_455 S
C17 O6 1.226 1_445 S
C17 O7 1.307 . S
C18 O10 1.303 1_554 S
C18 O11 1.247 . S
C19 O8 1.253 1_556 S
C19 O9 1.283 . S
C20 O12 1.304 1_556 S
C20 O14 1.272 . S
C21 O13 1.311 . S
C21 O15 1.231 1_554 S
O22 Zn4 1.953 . S
O22 C16 1.298 1_655 S
O23 Zn24 1.953 . S
O23 C39 1.225 . S
Zn24 O23 1.953 . S
Zn24 O25 1.949 . S
Zn24 O31 1.919 . S
Zn24 O36 1.924 . S
O25 Zn24 1.949 . S
O25 Zn26 1.923 . S
O25 Zn27 1.950 . S
O25 Zn28 1.945 . S
Zn26 O25 1.923 . S
Zn26 O29 1.933 . S
Zn26 O32 1.941 . S
Zn26 O33 1.965 . S
Zn27 O25 1.950 . S
Zn27 O34 1.938 . S
Zn27 O35 1.906 . S
Zn27 O45 1.953 . S
Zn28 O25 1.945 . S
Zn28 O30 1.932 . S
Zn28 O37 1.977 . S
Zn28 O38 1.910 . S
O29 Zn26 1.933 . S
O29 C40 1.226 . S
O30 Zn28 1.932 . S
O30 C40 1.307 . S
O31 Zn24 1.919 . S
O31 C42 1.253 . S
O32 Zn26 1.941 . S
O32 C42 1.283 . S
O33 Zn26 1.965 . S
O33 C41 1.303 . S
O34 Zn27 1.938 . S
O34 C41 1.247 . S
O35 Zn27 1.906 . S
O35 C43 1.304 . S
O36 Zn24 1.924 . S
O36 C44 1.311 . S
O37 Zn28 1.977 . S
O37 C43 1.272 . S
O38 Zn28 1.910 . S
O38 C44 1.231 . S
C39 O23 1.225 . S
C39 O45 1.298 . S
C40 O29 1.226 . S
C40 O30 1.307 . S
C41 O33 1.303 . S
C41 O34 1.247 . S
C42 O31 1.253 . S
C42 O32 1.283 . S
C43 O35 1.304 . S
C43 O37 1.272 . S
C44 O36 1.311 . S
C44 O38 1.231 . S
O45 Zn27 1.953 . S
O45 C39 1.298 . S
P46 O57 1.490 . S
P46 C60 1.812 1_455 S
P46 C66 1.803 1_545 S
P46 C72 1.819 . S
H47 C61 0.941 1_455 S
H48 C62 0.939 . S
H49 C64 0.940 . S
H50 C65 0.940 . S
H51 C67 0.939 1_545 S
H52 C68 0.942 . S
H53 C70 0.940 . S
H54 C71 0.939 . S
H55 C73 0.941 . S
H56 C77 0.939 . S
O57 P46 1.490 . S
H58 C74 0.939 . S
H59 C76 0.940 . S
C60 P46 1.812 1_655 S
C60 C61 1.389 . S
C60 C65 1.391 . S
C61 H47 0.941 1_655 S
C61 C60 1.389 . S
C61 C62 1.397 . S
C62 H48 0.939 . S
C62 C61 1.397 . S
C62 C63 1.378 . S
C63 C62 1.378 . S
C63 C64 1.378 . S
C64 H49 0.940 . S
C64 C63 1.378 . S
C64 C65 1.396 . S
C65 H50 0.940 . S
C65 C60 1.391 . S
C65 C64 1.396 . S
C66 P46 1.803 1_565 S
C66 C67 1.378 . S
C66 C71 1.400 . S
C67 H51 0.939 1_565 S
C67 C66 1.378 . S
C67 C68 1.361 . S
C68 H52 0.942 . S
C68 C67 1.361 . S
C68 C69 1.369 . S
C69 C68 1.369 . S
C69 C70 1.404 . S
C70 H53 0.940 . S
C70 C69 1.404 . S
C70 C71 1.389 . S
C71 H54 0.939 . S
C71 C66 1.400 . S
C71 C70 1.389 . S
C72 P46 1.819 . S
C72 C73 1.391 . S
C72 C77 1.391 1_545 S
C73 H55 0.941 . S
C73 C72 1.391 . S
C73 C74 1.396 . S
C74 H58 0.939 . S
C74 C73 1.396 . S
C74 C75 1.397 . S
C75 C74 1.397 . S
C75 C76 1.385 1_545 S
C76 H59 0.940 . S
C76 C75 1.385 1_565 S
C76 C77 1.388 . S
C77 H56 0.939 . S
C77 C72 1.391 1_565 S
C77 C76 1.388 . S
P78 O89 1.490 . S
P78 C92 1.812 . S
P78 C98 1.803 1_565 S
P78 C104 1.819 . S
H79 C93 0.941 . S
H80 C94 0.939 . S
H81 C96 0.940 . S
H82 C97 0.940 . S
H83 C99 0.947 . S
H84 C100 0.942 . S
H85 C102 0.940 . S
H86 C103 0.939 . S
H87 C105 0.941 . S
H88 C109 0.939 . S
O89 P78 1.490 . S
H90 C106 0.939 . S
H91 C108 0.940 . S
C92 P78 1.812 . S
C92 C93 1.389 . S
C92 C97 1.391 1_455 S
C93 H79 0.941 . S
C93 C92 1.389 . S
C93 C94 1.397 1_455 S
C94 H80 0.939 . S
C94 C93 1.397 1_655 S
C94 C95 1.378 . S
C95 C94 1.378 . S
C95 C96 1.378 . S
C96 H81 0.940 . S
C96 C95 1.378 . S
C96 C97 1.396 . S
C97 H82 0.940 . S
C97 C92 1.391 1_655 S
C97 C96 1.396 . S
C98 P78 1.803 1_545 S
C98 C99 1.378 . S
C98 C103 1.400 . S
C99 H83 0.947 . S
C99 C98 1.378 . S
C99 C100 1.361 . S
C100 H84 0.942 . S
C100 C99 1.361 . S
C100 C101 1.369 . S
C101 C100 1.369 . S
C101 C102 1.404 . S
C102 H85 0.940 . S
C102 C101 1.404 . S
C102 C103 1.389 . S
C103 H86 0.939 . S
C103 C98 1.400 . S
C103 C102 1.389 . S
C104 P78 1.819 . S
C104 C105 1.391 . S
C104 C109 1.391 1_565 S
C105 H87 0.941 . S
C105 C104 1.391 . S
C105 C106 1.396 . S
C106 H90 0.939 . S
C106 C105 1.396 . S
C106 C107 1.397 . S
C107 C106 1.397 . S
C107 C108 1.385 1_565 S
C108 H91 0.940 . S
C108 C107 1.385 1_545 S
C108 C109 1.388 . S
C109 H88 0.939 . S
C109 C104 1.391 1_545 S
C109 C108 1.388 . S
P110 O121 1.490 . S
P110 C124 1.812 . S
P110 C130 1.803 . S
P110 C136 1.819 . S
H111 C125 0.941 . S
H112 C126 0.939 . S
H113 C128 0.940 . S
H114 C129 0.940 . S
H115 C131 0.939 . S
H116 C132 0.942 . S
H117 C134 0.940 . S
H118 C135 0.939 . S
H119 C137 0.941 . S
H120 C141 0.939 . S
O121 P110 1.490 . S
H122 C138 0.939 . S
H123 C140 0.940 . S
C124 P110 1.812 . S
C124 C125 1.389 . S
C124 C129 1.391 . S
C125 H111 0.941 . S
C125 C124 1.389 . S
C125 C126 1.397 . S
C126 H112 0.939 . S
C126 C125 1.397 . S
C126 C127 1.378 . S
C127 C126 1.378 . S
C127 C128 1.378 . S
C128 H113 0.940 . S
C128 C127 1.378 . S
C128 C129 1.396 . S
C129 H114 0.940 . S
C129 C124 1.391 . S
C129 C128 1.396 . S
C130 P110 1.803 . S
C130 C131 1.378 . S
C130 C135 1.400 . S
C131 H115 0.939 . S
C131 C130 1.378 . S
C131 C132 1.361 . S
C132 H116 0.942 . S
C132 C131 1.361 . S
C132 C133 1.369 . S
C133 C132 1.369 . S
C133 C134 1.404 . S
C134 H117 0.940 . S
C134 C133 1.404 . S
C134 C135 1.389 . S
C135 H118 0.939 . S
C135 C130 1.400 . S
C135 C134 1.389 . S
C136 P110 1.819 . S
C136 C137 1.391 . S
C136 C141 1.391 . S
C137 H119 0.941 . S
C137 C136 1.391 . S
C137 C138 1.396 . S
C138 H122 0.939 . S
C138 C137 1.396 . S
C138 C139 1.397 . S
C139 C138 1.397 . S
C139 C140 1.385 . S
C140 H123 0.940 . S
C140 C139 1.385 . S
C140 C141 1.388 . S
C141 H120 0.939 . S
C141 C136 1.391 . S
C141 C140 1.388 . S
P142 O153 1.490 . S
P142 C156 1.812 . S
P142 C162 1.803 . S
P142 C168 1.819 . S
H143 C157 0.941 . S
H144 C158 0.939 . S
H145 C160 0.940 . S
H146 C161 0.940 . S
H147 C163 0.939 . S
H148 C164 0.942 . S
H149 C166 0.940 . S
H150 C167 0.939 . S
H151 C169 0.941 . S
H152 C173 0.939 . S
O153 P142 1.490 . S
H154 C170 0.939 . S
H155 C172 0.940 . S
C156 P142 1.812 . S
C156 C157 1.389 . S
C156 C161 1.391 . S
C157 H143 0.941 . S
C157 C156 1.389 . S
C157 C158 1.397 . S
C158 H144 0.939 . S
C158 C157 1.397 . S
C158 C159 1.378 . S
C159 C158 1.378 . S
C159 C160 1.378 . S
C160 H145 0.940 . S
C160 C159 1.378 . S
C160 C161 1.396 . S
C161 H146 0.940 . S
C161 C156 1.391 . S
C161 C160 1.396 . S
C162 P142 1.803 . S
C162 C163 1.378 . S
C162 C167 1.400 . S
C163 H147 0.939 . S
C163 C162 1.378 . S
C163 C164 1.361 . S
C164 H148 0.942 . S
C164 C163 1.361 . S
C164 C165 1.369 . S
C165 C164 1.369 . S
C165 C166 1.404 . S
C166 H149 0.940 . S
C166 C165 1.404 . S
C166 C167 1.389 . S
C167 H150 0.939 . S
C167 C162 1.400 . S
C167 C166 1.389 . S
C168 P142 1.819 . S
C168 C169 1.391 . S
C168 C173 1.391 . S
C169 H151 0.941 . S
C169 C168 1.391 . S
C169 C170 1.396 . S
C170 H154 0.939 . S
C170 C169 1.396 . S
C170 C171 1.397 . S
C171 C170 1.397 . S
C171 C172 1.385 . S
C172 H155 0.940 . S
C172 C171 1.385 . S
C172 C173 1.388 . S
C173 H152 0.939 . S
C173 C168 1.391 . S
C173 C172 1.388 . S
C174 C175 1.391 . S
C174 C176 1.394 . S
C174 H190 0.931 . S
C175 C174 1.391 . S
C175 C179 1.376 . S
C176 C174 1.394 . S
C176 C177 1.369 . S
C176 C180 1.531 . S
C177 C176 1.369 . S
C177 C178 1.410 . S
C177 C185 1.503 . S
C178 C177 1.410 . S
C178 C179 1.392 . S
C178 C181 1.511 . S
C179 C175 1.376 . S
C179 C178 1.392 . S
C179 H191 0.929 . S
C180 C176 1.531 . S
C180 H192 0.960 . S
C180 H193 0.962 . S
C180 H194 0.960 . S
C181 C178 1.511 . S
C181 H195 0.961 . S
C181 H196 0.961 . S
C181 H197 0.961 . S
C182 C183 1.370 . S
C182 C184 1.363 . S
C182 H198 0.931 . S
C183 C182 1.370 . S
C183 C187 1.408 . S
C184 C182 1.363 . S
C184 C185 1.370 . S
C184 C188 1.524 . S
C185 C177 1.503 . S
C185 C184 1.370 . S
C185 C186 1.403 . S
C186 C185 1.403 . S
C186 C187 1.404 . S
C186 C189 1.539 1_554 S
C187 C183 1.408 . S
C187 C186 1.404 . S
C187 H199 0.930 . S
C188 C184 1.524 . S
C188 H200 0.956 . S
C188 H201 0.961 . S
C188 H202 0.961 . S
C189 C186 1.539 1_556 S
C189 H203 0.958 . S
C189 H204 0.961 . S
C189 H205 0.960 . S
H190 C174 0.931 . S
H191 C179 0.929 . S
H192 C180 0.960 . S
H193 C180 0.962 . S
H194 C180 0.960 . S
H195 C181 0.961 . S
H196 C181 0.961 . S
H197 C181 0.961 . S
H198 C182 0.931 . S
H199 C187 0.930 . S
H200 C188 0.956 . S
H201 C188 0.961 . S
H202 C188 0.961 . S
H203 C189 0.958 . S
H204 C189 0.961 . S
H205 C189 0.960 . S
C206 C207 1.391 . S
C206 C208 1.394 . S
C206 H222 0.931 . S
C207 C206 1.391 . S
C207 C211 1.376 . S
C208 C206 1.394 . S
C208 C209 1.369 . S
C208 C212 1.531 . S
C209 C208 1.369 . S
C209 C210 1.410 . S
C209 C217 1.503 . S
C210 C209 1.410 . S
C210 C211 1.392 . S
C210 C213 1.511 . S
C211 C207 1.376 . S
C211 C210 1.392 . S
C211 H223 0.929 . S
C212 C208 1.531 . S
C212 H224 0.960 . S
C212 H225 0.962 . S
C212 H226 0.960 . S
C213 C210 1.511 . S
C213 H227 0.960 1_556 S
C213 H228 0.961 . S
C213 H229 0.961 . S
C214 C215 1.370 . S
C214 C216 1.363 . S
C214 H230 0.931 . S
C215 C214 1.370 . S
C215 C219 1.408 . S
C216 C214 1.363 . S
C216 C217 1.370 . S
C216 C220 1.524 1_556 S
C217 C209 1.503 . S
C217 C216 1.370 . S
C217 C218 1.403 . S
C218 C217 1.403 . S
C218 C219 1.404 . S
C218 C221 1.539 . S
C219 C215 1.408 . S
C219 C218 1.404 . S
C219 H231 0.930 . S
C220 C216 1.524 1_554 S
C220 H232 0.956 . S
C220 H233 0.961 . S
C220 H234 0.961 . S
C221 C218 1.539 . S
C221 H235 0.958 . S
C221 H236 0.961 . S
C221 H237 0.960 . S
H222 C206 0.931 . S
H223 C211 0.929 . S
H224 C212 0.960 . S
H225 C212 0.962 . S
H226 C212 0.960 . S
H227 C213 0.960 1_554 S
H228 C213 0.961 . S
H229 C213 0.961 . S
H230 C214 0.931 . S
H231 C219 0.930 . S
H232 C220 0.956 . S
H233 C220 0.961 . S
H234 C220 0.961 . S
H235 C221 0.958 . S
H236 C221 0.961 . S
H237 C221 0.960 . S
C238 C239 1.391 . S
C238 C240 1.394 . S
C238 H254 0.931 . S
C239 C238 1.391 . S
C239 C243 1.376 . S
C240 C238 1.394 . S
C240 C241 1.369 . S
C240 C244 1.531 . S
C241 C240 1.369 . S
C241 C242 1.410 . S
C241 C249 1.503 . S
C242 C241 1.410 . S
C242 C243 1.392 . S
C242 C245 1.511 . S
C243 C239 1.376 . S
C243 C242 1.392 . S
C243 H255 0.929 . S
C244 C240 1.531 . S
C244 H256 0.960 . S
C244 H257 0.962 1_554 S
C244 H258 0.960 . S
C245 C242 1.511 . S
C245 H259 0.961 . S
C245 H260 0.961 . S
C245 H261 0.961 . S
C246 C247 1.370 . S
C246 C248 1.363 . S
C246 H262 0.931 . S
C247 C246 1.370 . S
C247 C251 1.408 . S
C248 C246 1.363 . S
C248 C249 1.370 . S
C248 C252 1.524 . S
C249 C241 1.503 . S
C249 C248 1.370 . S
C249 C250 1.403 . S
C250 C249 1.403 . S
C250 C251 1.404 . S
C250 C253 1.539 . S
C251 C247 1.408 . S
C251 C250 1.404 . S
C251 H263 0.930 . S
C252 C248 1.524 . S
C252 H264 0.956 1_554 S
C252 H265 0.961 . S
C252 H266 0.961 1_554 S
C253 C250 1.539 . S
C253 H267 0.958 . S
C253 H268 0.961 . S
C253 H269 0.960 . S
H254 C238 0.931 . S
H255 C243 0.929 . S
H256 C244 0.960 . S
H257 C244 0.962 1_556 S
H258 C244 0.960 . S
H259 C245 0.961 . S
H260 C245 0.961 . S
H261 C245 0.961 . S
H262 C246 0.931 . S
H263 C251 0.930 . S
H264 C252 0.956 1_556 S
H265 C252 0.961 . S
H266 C252 0.961 1_556 S
H267 C253 0.958 . S
H268 C253 0.961 . S
H269 C253 0.960 . S
C270 C271 1.391 1_554 S
C270 C272 1.384 1_554 S
C270 H286 0.931 . S
C271 C270 1.391 1_556 S
C271 C275 1.376 . S
C272 C270 1.384 1_556 S
C272 C273 1.406 . S
C272 C276 1.503 1_556 S
C273 C272 1.406 . S
C273 C274 1.410 . S
C273 C281 1.503 . S
C274 C273 1.410 . S
C274 C275 1.392 . S
C274 C277 1.511 . S
C275 C271 1.376 . S
C275 C274 1.392 . S
C275 H287 0.929 . S
C276 C272 1.503 1_554 S
C276 H288 0.960 . S
C276 H289 0.962 . S
C276 H290 0.960 . S
C277 C274 1.511 . S
C277 H291 0.961 . S
C277 H292 0.961 . S
C277 H293 0.961 . S
C278 C279 1.370 . S
C278 C280 1.363 . S
C278 H294 0.931 . S
C279 C278 1.370 . S
C279 C283 1.408 . S
C280 C278 1.363 . S
C280 C281 1.370 . S
C280 C284 1.524 . S
C281 C273 1.503 . S
C281 C280 1.370 . S
C281 C282 1.403 . S
C282 C281 1.403 . S
C282 C283 1.404 . S
C282 C285 1.539 . S
C283 C279 1.408 . S
C283 C282 1.404 . S
C283 H295 0.930 . S
C284 C280 1.524 . S
C284 H296 0.956 . S
C284 H297 0.961 . S
C284 H298 0.961 . S
C285 C282 1.539 . S
C285 H299 0.958 . S
C285 H300 0.961 . S
C285 H301 0.960 . S
H286 C270 0.931 . S
H287 C275 0.929 . S
H288 C276 0.960 . S
H289 C276 0.962 . S
H290 C276 0.960 . S
H291 C277 0.961 . S
H292 C277 0.961 . S
H293 C277 0.961 . S
H294 C278 0.931 . S
H295 C283 0.930 . S
H296 C284 0.956 . S
H297 C284 0.961 . S
H298 C284 0.961 . S
H299 C285 0.958 . S
H300 C285 0.961 . S
H301 C285 0.960 . S
C302 C303 1.391 . S
C302 C304 1.394 . S
C302 H318 0.931 . S
C303 C302 1.391 . S
C303 C307 1.376 . S
C304 C302 1.394 . S
C304 C305 1.369 . S
C304 C308 1.531 . S
C305 C304 1.369 . S
C305 C306 1.410 . S
C305 C313 1.503 . S
C306 C305 1.410 . S
C306 C307 1.392 . S
C306 C309 1.511 . S
C307 C303 1.376 . S
C307 C306 1.392 . S
C307 H319 0.929 . S
C308 C304 1.531 . S
C308 H320 0.960 . S
C308 H321 0.962 . S
C308 H322 0.960 . S
C309 C306 1.511 . S
C309 H323 0.961 . S
C309 H324 0.961 . S
C309 H325 0.961 . S
C310 C311 1.370 . S
C310 C312 1.363 . S
C310 H326 0.931 . S
C311 C310 1.370 . S
C311 C315 1.408 . S
C312 C310 1.363 . S
C312 C313 1.370 . S
C312 C316 1.524 . S
C313 C305 1.503 . S
C313 C312 1.370 . S
C313 C314 1.403 . S
C314 C313 1.403 . S
C314 C315 1.404 . S
C314 C317 1.539 . S
C315 C311 1.408 . S
C315 C314 1.404 . S
C315 H327 0.930 . S
C316 C312 1.524 . S
C316 H328 0.956 . S
C316 H329 0.961 . S
C316 H330 0.961 . S
C317 C314 1.539 . S
C317 H331 0.958 . S
C317 H332 0.961 . S
C317 H333 0.960 . S
H318 C302 0.931 . S
H319 C307 0.929 . S
H320 C308 0.960 . S
H321 C308 0.962 . S
H322 C308 0.960 . S
H323 C309 0.961 . S
H324 C309 0.961 . S
H325 C309 0.961 . S
H326 C310 0.931 . S
H327 C315 0.930 . S
H328 C316 0.956 . S
H329 C316 0.961 . S
H330 C316 0.961 . S
H331 C317 0.958 . S
H332 C317 0.961 . S
H333 C317 0.960 . S
C334 C335 1.391 . S
C334 C336 1.394 . S
C334 H350 0.931 . S
C335 C334 1.391 . S
C335 C339 1.376 . S
C336 C334 1.394 . S
C336 C337 1.369 . S
C336 C340 1.531 . S
C337 C336 1.369 . S
C337 C338 1.410 . S
C337 C345 1.503 . S
C338 C337 1.410 . S
C338 C339 1.392 . S
C338 C341 1.511 . S
C339 C335 1.376 . S
C339 C338 1.392 . S
C339 H351 0.929 . S
C340 C336 1.531 . S
C340 H352 0.960 . S
C340 H353 0.962 . S
C340 H354 0.960 . S
C341 C338 1.511 . S
C341 H355 0.961 . S
C341 H356 0.961 . S
C341 H357 0.961 . S
C342 C343 1.370 . S
C342 C344 1.363 . S
C342 H358 0.931 . S
C343 C342 1.370 . S
C343 C347 1.408 . S
C344 C342 1.363 . S
C344 C345 1.370 . S
C344 C348 1.524 . S
C345 C337 1.503 . S
C345 C344 1.370 . S
C345 C346 1.403 . S
C346 C345 1.403 . S
C346 C347 1.404 . S
C346 C349 1.539 . S
C347 C343 1.408 . S
C347 C346 1.404 . S
C347 H359 0.930 . S
C348 C344 1.524 . S
C348 H360 0.956 . S
C348 H361 0.961 . S
C348 H362 0.961 . S
C349 C346 1.539 . S
C349 H363 0.958 . S
C349 H364 0.961 . S
C349 H365 0.960 . S
H350 C334 0.931 . S
H351 C339 0.929 . S
H352 C340 0.960 . S
H353 C340 0.962 . S
H354 C340 0.960 . S
H355 C341 0.961 . S
H356 C341 0.961 . S
H357 C341 0.961 . S
H358 C342 0.931 . S
H359 C347 0.930 . S
H360 C348 0.956 . S
H361 C348 0.961 . S
H362 C348 0.961 . S
H363 C349 0.958 . S
H364 C349 0.961 . S
H365 C349 0.960 . S
C366 C367 1.391 . S
C366 C368 1.394 . S
C366 H382 0.931 . S
C367 C366 1.391 . S
C367 C371 1.376 . S
C368 C366 1.394 . S
C368 C369 1.369 . S
C368 C372 1.531 . S
C369 C368 1.369 . S
C369 C370 1.410 . S
C369 C377 1.503 . S
C370 C369 1.410 . S
C370 C371 1.392 . S
C370 C373 1.511 . S
C371 C367 1.376 . S
C371 C370 1.392 . S
C371 H383 0.929 . S
C372 C368 1.531 . S
C372 H384 0.960 . S
C372 H385 0.962 . S
C372 H386 0.960 . S
C373 C370 1.511 . S
C373 H387 0.961 . S
C373 H388 0.961 . S
C373 H389 0.961 . S
C374 C375 1.370 . S
C374 C376 1.363 . S
C374 H390 0.931 . S
C375 C374 1.370 . S
C375 C379 1.408 . S
C376 C374 1.363 . S
C376 C377 1.370 . S
C376 C380 1.524 . S
C377 C369 1.503 . S
C377 C376 1.370 . S
C377 C378 1.403 . S
C378 C377 1.403 . S
C378 C379 1.404 . S
C378 C381 1.539 . S
C379 C375 1.408 . S
C379 C378 1.404 . S
C379 H391 0.930 . S
C380 C376 1.524 . S
C380 H392 0.956 . S
C380 H393 0.961 . S
C380 H394 0.961 . S
C381 C378 1.539 . S
C381 H395 0.958 . S
C381 H396 0.961 . S
C381 H397 0.960 . S
H382 C366 0.931 . S
H383 C371 0.929 . S
H384 C372 0.960 . S
H385 C372 0.962 . S
H386 C372 0.960 . S
H387 C373 0.961 . S
H388 C373 0.961 . S
H389 C373 0.961 . S
H390 C374 0.931 . S
H391 C379 0.930 . S
H392 C380 0.956 . S
H393 C380 0.961 . S
H394 C380 0.961 . S
H395 C381 0.958 . S
H396 C381 0.961 . S
H397 C381 0.960 . S
C398 C399 1.391 . S
C398 C400 1.394 . S
C398 H414 0.931 . S
C399 C398 1.391 . S
C399 C403 1.376 . S
C400 C398 1.394 . S
C400 C401 1.369 . S
C400 C404 1.531 . S
C401 C400 1.369 . S
C401 C402 1.410 . S
C401 C409 1.503 . S
C402 C401 1.410 . S
C402 C403 1.392 . S
C402 C405 1.511 . S
C403 C399 1.376 . S
C403 C402 1.392 . S
C403 H415 0.929 . S
C404 C400 1.531 . S
C404 H416 0.960 . S
C404 H417 0.962 . S
C404 H418 0.960 . S
C405 C402 1.511 . S
C405 H419 0.961 . S
C405 H420 0.961 . S
C405 H421 0.961 . S
C406 C407 1.370 . S
C406 C408 1.363 . S
C406 H422 0.931 . S
C407 C406 1.370 . S
C407 C411 1.408 . S
C408 C406 1.363 . S
C408 C409 1.370 . S
C408 C412 1.524 . S
C409 C401 1.503 . S
C409 C408 1.370 . S
C409 C410 1.403 . S
C410 C409 1.403 . S
C410 C411 1.404 . S
C410 C413 1.539 . S
C411 C407 1.408 . S
C411 C410 1.404 . S
C411 H423 0.930 . S
C412 C408 1.524 . S
C412 H424 0.956 . S
C412 H425 0.961 . S
C412 H426 0.961 . S
C413 C410 1.539 . S
C413 H427 0.958 . S
C413 H428 0.961 . S
C413 H429 0.960 . S
H414 C398 0.931 . S
H415 C403 0.929 . S
H416 C404 0.960 . S
H417 C404 0.962 . S
H418 C404 0.960 . S
H419 C405 0.961 . S
H420 C405 0.961 . S
H421 C405 0.961 . S
H422 C406 0.931 . S
H423 C411 0.930 . S
H424 C412 0.956 . S
H425 C412 0.961 . S
H426 C412 0.961 . S
H427 C413 0.958 . S
H428 C413 0.961 . S
H429 C413 0.960 . S
C430 C431 1.391 1_655 S
C430 C432 1.394 . S
C430 H446 0.931 . S
C431 C430 1.391 1_455 S
C431 C435 1.376 1_545 S
C432 C430 1.394 . S
C432 C433 1.369 1_545 S
C432 C436 1.531 . S
C433 C432 1.369 1_565 S
C433 C434 1.410 1_655 S
C433 C441 1.503 1_565 S
C434 C433 1.410 1_455 S
C434 C435 1.392 . S
C434 C437 1.511 . S
C435 C431 1.376 1_565 S
C435 C434 1.392 . S
C435 H447 0.929 . S
C436 C432 1.531 . S
C436 H448 0.960 . S
C436 H449 0.962 . S
C436 H450 0.960 . S
C437 C434 1.511 . S
C437 H451 0.961 . S
C437 H452 0.961 . S
C437 H453 0.961 1_455 S
C438 C439 1.374 1_455 S
C438 C440 1.363 . S
C438 H454 0.931 . S
C439 C438 1.374 1_655 S
C439 C443 1.405 1_545 S
C440 C438 1.363 . S
C440 C441 1.370 1_455 S
C440 C444 1.524 . S
C441 C433 1.503 1_545 S
C441 C440 1.370 1_655 S
C441 C442 1.403 1_545 S
C442 C441 1.403 1_565 S
C442 C443 1.404 . S
C442 C445 1.539 . S
C443 C439 1.405 1_565 S
C443 C442 1.404 . S
C443 H455 0.930 . S
C444 C440 1.524 . S
C444 H456 0.956 . S
C444 H457 0.961 . S
C444 H458 0.961 . S
C445 C442 1.539 . S
C445 H459 0.958 . S
C445 H460 0.961 . S
C445 H461 0.960 . S
H446 C430 0.931 . S
H447 C435 0.929 . S
H448 C436 0.960 . S
H449 C436 0.962 . S
H450 C436 0.960 . S
H451 C437 0.961 . S
H452 C437 0.961 . S
H453 C437 0.961 1_655 S
H454 C438 0.931 . S
H455 C443 0.930 . S
H456 C444 0.956 . S
H457 C444 0.961 . S
H458 C444 0.961 . S
H459 C445 0.958 . S
H460 C445 0.961 . S
H461 C445 0.960 . S
C462 C463 1.391 1_655 S
C462 C464 1.394 . S
C462 H478 0.931 . S
C463 C462 1.391 1_455 S
C463 C467 1.376 1_545 S
C464 C462 1.394 . S
C464 C465 1.369 1_655 S
C464 C468 1.531 . S
C465 C464 1.369 1_455 S
C465 C466 1.408 1_545 S
C465 C473 1.503 . S
C466 C465 1.408 1_565 S
C466 C467 1.393 . S
C466 C469 1.513 . S
C467 C463 1.376 1_565 S
C467 C466 1.393 . S
C467 H479 0.929 . S
C468 C464 1.531 . S
C468 H480 0.960 . S
C468 H481 0.962 . S
C468 H482 0.960 . S
C469 C466 1.513 . S
C469 H483 0.961 . S
C469 H484 0.961 . S
C469 H485 0.961 1_565 S
C470 C471 1.370 1_665 S
C470 C472 1.363 . S
C470 H486 0.931 . S
C471 C470 1.370 1_445 S
C471 C475 1.408 . S
C472 C470 1.363 . S
C472 C473 1.370 1_665 S
C472 C476 1.525 . S
C473 C465 1.503 . S
C473 C472 1.370 1_445 S
C473 C474 1.403 . S
C474 C473 1.403 . S
C474 C475 1.404 . S
C474 C477 1.539 . S
C475 C471 1.408 . S
C475 C474 1.404 . S
C475 H487 0.930 . S
C476 C472 1.525 . S
C476 H488 0.956 . S
C476 H489 0.961 1_655 S
C476 H490 0.961 . S
C477 C474 1.539 . S
C477 H491 0.958 . S
C477 H492 0.961 . S
C477 H493 0.960 . S
H478 C462 0.931 . S
H479 C467 0.929 . S
H480 C468 0.960 . S
H481 C468 0.962 . S
H482 C468 0.960 . S
H483 C469 0.961 . S
H484 C469 0.961 . S
H485 C469 0.961 1_545 S
H486 C470 0.931 . S
H487 C475 0.930 . S
H488 C476 0.956 . S
H489 C476 0.961 1_455 S
H490 C476 0.961 . S
H491 C477 0.958 . S
H492 C477 0.961 . S
H493 C477 0.960 . S
C494 C495 1.391 . S
C494 C496 1.394 . S
C494 H510 0.931 . S
C495 C494 1.391 . S
C495 C499 1.376 . S
C496 C494 1.394 . S
C496 C497 1.369 . S
C496 C500 1.531 . S
C497 C496 1.369 . S
C497 C498 1.410 . S
C497 C505 1.503 . S
C498 C497 1.410 . S
C498 C499 1.392 . S
C498 C501 1.511 . S
C499 C495 1.376 . S
C499 C498 1.392 . S
C499 H511 0.929 . S
C500 C496 1.531 . S
C500 H512 0.960 . S
C500 H513 0.962 . S
C500 H514 0.960 . S
C501 C498 1.511 . S
C501 H515 0.961 . S
C501 H516 0.961 . S
C501 H517 0.961 . S
C502 C503 1.370 . S
C502 C504 1.363 . S
C502 H518 0.931 . S
C503 C502 1.370 . S
C503 C507 1.408 . S
C504 C502 1.363 . S
C504 C505 1.370 . S
C504 C508 1.524 . S
C505 C497 1.503 . S
C505 C504 1.370 . S
C505 C506 1.403 . S
C506 C505 1.403 . S
C506 C507 1.404 . S
C506 C509 1.539 . S
C507 C503 1.408 . S
C507 C506 1.404 . S
C507 H519 0.930 . S
C508 C504 1.524 . S
C508 H520 0.956 . S
C508 H521 0.961 . S
C508 H522 0.961 . S
C509 C506 1.539 . S
C509 H523 0.958 . S
C509 H524 0.961 . S
C509 H525 0.960 . S
H510 C494 0.931 . S
H511 C499 0.929 . S
H512 C500 0.960 . S
H513 C500 0.962 . S
H514 C500 0.960 . S
H515 C501 0.961 . S
H516 C501 0.961 . S
H517 C501 0.961 . S
H518 C502 0.931 . S
H519 C507 0.930 . S
H520 C508 0.956 . S
H521 C508 0.961 . S
H522 C508 0.961 . S
H523 C509 0.958 . S
H524 C509 0.961 . S
H525 C509 0.960 . S
C526 C527 1.391 . S
C526 C528 1.394 . S
C526 H542 0.931 . S
C527 C526 1.391 . S
C527 C531 1.376 . S
C528 C526 1.394 . S
C528 C529 1.369 . S
C528 C532 1.531 . S
C529 C528 1.369 . S
C529 C530 1.410 . S
C529 C537 1.503 . S
C530 C529 1.410 . S
C530 C531 1.392 . S
C530 C533 1.511 . S
C531 C527 1.376 . S
C531 C530 1.392 . S
C531 H543 0.929 . S
C532 C528 1.531 . S
C532 H544 0.960 . S
C532 H545 0.962 . S
C532 H546 0.960 . S
C533 C530 1.511 . S
C533 H547 0.961 . S
C533 H548 0.961 . S
C533 H549 0.961 . S
C534 C535 1.370 . S
C534 C536 1.363 . S
C534 H550 0.931 . S
C535 C534 1.370 . S
C535 C539 1.408 . S
C536 C534 1.363 . S
C536 C537 1.370 . S
C536 C540 1.524 . S
C537 C529 1.503 . S
C537 C536 1.370 . S
C537 C538 1.403 . S
C538 C537 1.403 . S
C538 C539 1.404 . S
C538 C541 1.539 . S
C539 C535 1.408 . S
C539 C538 1.404 . S
C539 H551 0.930 . S
C540 C536 1.524 . S
C540 H552 0.956 . S
C540 H553 0.961 . S
C540 H554 0.961 . S
C541 C538 1.539 . S
C541 H555 0.958 . S
C541 H556 0.961 . S
C541 H557 0.960 . S
H542 C526 0.931 . S
H543 C531 0.929 . S
H544 C532 0.960 . S
H545 C532 0.962 . S
H546 C532 0.960 . S
H547 C533 0.961 . S
H548 C533 0.961 . S
H549 C533 0.961 . S
H550 C534 0.931 . S
H551 C539 0.930 . S
H552 C540 0.956 . S
H553 C540 0.961 . S
H554 C540 0.961 . S
H555 C541 0.958 . S
H556 C541 0.961 . S
H557 C541 0.960 . S
C183 C159 1.432 . S
C175 C21 1.425 . S
C207 C19 1.445 . S
C215 C127 1.409 . S
C239 C18 1.415 . S
C247 C165 1.382 . S
C271 C20 1.407 . S
C279 C133 1.387 . S
C303 C44 1.444 . S
C311 C95 1.435 . S
C335 C42 1.440 . S
C343 C63 1.409 . S
C375 C101 1.400 . S
C367 C41 1.383 . S
C407 C69 1.409 . S
C399 C43 1.429 . S
C431 C16 1.492 . S
C439 C75 1.472 1_655 S
C463 C17 1.460 . S
C471 C107 1.432 1_545 S
C503 C139 1.462 . S
C495 C39 1.490 . S
C527 C40 1.462 . S
C535 C171 1.422 . S
