# Generated by pormake.
# Topology bpr, (3,3)-cn, num edge types: 1
# Building blocks:
#     Node 0, Type 0, BuildingBlock: WUSLED_clean_sbu_0, # of connection points: 3
#     Node 1, Type 0, BuildingBlock: WUSLED_clean_sbu_0, # of connection points: 3
#     Node 2, Type 0, BuildingBlock: WUSLED_clean_sbu_0, # of connection points: 3
#     Node 3, Type 0, BuildingBlock: WUSLED_clean_sbu_0, # of connection points: 3
#     Node 4, Type 0, BuildingBlock: WUSLED_clean_sbu_0, # of connection points: 3
#     Node 5, Type 0, BuildingBlock: WUSLED_clean_sbu_0, # of connection points: 3
#     Node 6, Type 0, BuildingBlock: WUSLED_clean_sbu_0, # of connection points: 3
#     Node 7, Type 0, BuildingBlock: WUSLED_clean_sbu_0, # of connection points: 3
#     Node 8, Type 0, BuildingBlock: WUSLED_clean_sbu_0, # of connection points: 3
#     Node 9, Type 0, BuildingBlock: WUSLED_clean_sbu_0, # of connection points: 3
#     Node 10, Type 0, BuildingBlock: WUSLED_clean_sbu_0, # of connection points: 3
#     Node 11, Type 0, BuildingBlock: WUSLED_clean_sbu_0, # of connection points: 3
#     Node 12, Type 0, BuildingBlock: WUSLED_clean_sbu_0, # of connection points: 3
#     Node 13, Type 0, BuildingBlock: WUSLED_clean_sbu_0, # of connection points: 3
#     Node 14, Type 0, BuildingBlock: WUSLED_clean_sbu_0, # of connection points: 3
#     Node 15, Type 0, BuildingBlock: WUSLED_clean_sbu_0, # of connection points: 3
#     Node 16, Type 0, BuildingBlock: WUSLED_clean_sbu_0, # of connection points: 3
#     Node 17, Type 0, BuildingBlock: WUSLED_clean_sbu_0, # of connection points: 3
#     Node 18, Type 0, BuildingBlock: WUSLED_clean_sbu_0, # of connection points: 3
#     Node 19, Type 0, BuildingBlock: WUSLED_clean_sbu_0, # of connection points: 3
#     Node 20, Type 0, BuildingBlock: WUSLED_clean_sbu_0, # of connection points: 3
#     Node 21, Type 0, BuildingBlock: WUSLED_clean_sbu_0, # of connection points: 3
#     Node 22, Type 0, BuildingBlock: WUSLED_clean_sbu_0, # of connection points: 3
#     Node 23, Type 0, BuildingBlock: WUSLED_clean_sbu_0, # of connection points: 3
#     Node 24, Type 0, BuildingBlock: WUSLED_clean_sbu_0, # of connection points: 3
#     Node 25, Type 0, BuildingBlock: WUSLED_clean_sbu_0, # of connection points: 3
#     Node 26, Type 0, BuildingBlock: WUSLED_clean_sbu_0, # of connection points: 3
#     Node 27, Type 0, BuildingBlock: WUSLED_clean_sbu_0, # of connection points: 3
#     Node 28, Type 0, BuildingBlock: WUSLED_clean_sbu_0, # of connection points: 3
#     Node 29, Type 0, BuildingBlock: WUSLED_clean_sbu_0, # of connection points: 3
#     Node 30, Type 0, BuildingBlock: WUSLED_clean_sbu_0, # of connection points: 3
#     Node 31, Type 0, BuildingBlock: WUSLED_clean_sbu_0, # of connection points: 3
#     Node 32, Type 0, BuildingBlock: WUSLED_clean_sbu_0, # of connection points: 3
#     Node 33, Type 0, BuildingBlock: WUSLED_clean_sbu_0, # of connection points: 3
#     Node 34, Type 0, BuildingBlock: WUSLED_clean_sbu_0, # of connection points: 3
#     Node 35, Type 0, BuildingBlock: WUSLED_clean_sbu_0, # of connection points: 3
#     Node 36, Type 0, BuildingBlock: WUSLED_clean_sbu_0, # of connection points: 3
#     Node 37, Type 0, BuildingBlock: WUSLED_clean_sbu_0, # of connection points: 3
#     Node 38, Type 0, BuildingBlock: WUSLED_clean_sbu_0, # of connection points: 3
#     Node 39, Type 0, BuildingBlock: WUSLED_clean_sbu_0, # of connection points: 3
#     Node 40, Type 0, BuildingBlock: WUSLED_clean_sbu_0, # of connection points: 3
#     Node 41, Type 0, BuildingBlock: WUSLED_clean_sbu_0, # of connection points: 3
#     Node 42, Type 0, BuildingBlock: WUSLED_clean_sbu_0, # of connection points: 3
#     Node 43, Type 0, BuildingBlock: WUSLED_clean_sbu_0, # of connection points: 3
#     Node 44, Type 0, BuildingBlock: WUSLED_clean_sbu_0, # of connection points: 3
#     Node 45, Type 0, BuildingBlock: WUSLED_clean_sbu_0, # of connection points: 3
#     Node 46, Type 0, BuildingBlock: WUSLED_clean_sbu_0, # of connection points: 3
#     Node 47, Type 0, BuildingBlock: WUSLED_clean_sbu_0, # of connection points: 3
#     Node 48, Type 1, BuildingBlock: QEWDON_clean_linker_0, # of connection points: 3
#     Node 49, Type 1, BuildingBlock: QEWDON_clean_linker_0, # of connection points: 3
#     Node 50, Type 1, BuildingBlock: QEWDON_clean_linker_0, # of connection points: 3
#     Node 51, Type 1, BuildingBlock: QEWDON_clean_linker_0, # of connection points: 3
#     Node 52, Type 1, BuildingBlock: QEWDON_clean_linker_0, # of connection points: 3
#     Node 53, Type 1, BuildingBlock: QEWDON_clean_linker_0, # of connection points: 3
#     Node 54, Type 1, BuildingBlock: QEWDON_clean_linker_0, # of connection points: 3
#     Node 55, Type 1, BuildingBlock: QEWDON_clean_linker_0, # of connection points: 3
#     Node 56, Type 1, BuildingBlock: QEWDON_clean_linker_0, # of connection points: 3
#     Node 57, Type 1, BuildingBlock: QEWDON_clean_linker_0, # of connection points: 3
#     Node 58, Type 1, BuildingBlock: QEWDON_clean_linker_0, # of connection points: 3
#     Node 59, Type 1, BuildingBlock: QEWDON_clean_linker_0, # of connection points: 3
#     Node 60, Type 1, BuildingBlock: QEWDON_clean_linker_0, # of connection points: 3
#     Node 61, Type 1, BuildingBlock: QEWDON_clean_linker_0, # of connection points: 3
#     Node 62, Type 1, BuildingBlock: QEWDON_clean_linker_0, # of connection points: 3
#     Node 63, Type 1, BuildingBlock: QEWDON_clean_linker_0, # of connection points: 3
#     Node 64, Type 1, BuildingBlock: QEWDON_clean_linker_0, # of connection points: 3
#     Node 65, Type 1, BuildingBlock: QEWDON_clean_linker_0, # of connection points: 3
#     Node 66, Type 1, BuildingBlock: QEWDON_clean_linker_0, # of connection points: 3
#     Node 67, Type 1, BuildingBlock: QEWDON_clean_linker_0, # of connection points: 3
#     Node 68, Type 1, BuildingBlock: QEWDON_clean_linker_0, # of connection points: 3
#     Node 69, Type 1, BuildingBlock: QEWDON_clean_linker_0, # of connection points: 3
#     Node 70, Type 1, BuildingBlock: QEWDON_clean_linker_0, # of connection points: 3
#     Node 71, Type 1, BuildingBlock: QEWDON_clean_linker_0, # of connection points: 3
#     Node 72, Type 1, BuildingBlock: QEWDON_clean_linker_0, # of connection points: 3
#     Node 73, Type 1, BuildingBlock: QEWDON_clean_linker_0, # of connection points: 3
#     Node 74, Type 1, BuildingBlock: QEWDON_clean_linker_0, # of connection points: 3
#     Node 75, Type 1, BuildingBlock: QEWDON_clean_linker_0, # of connection points: 3
#     Node 76, Type 1, BuildingBlock: QEWDON_clean_linker_0, # of connection points: 3
#     Node 77, Type 1, BuildingBlock: QEWDON_clean_linker_0, # of connection points: 3
#     Node 78, Type 1, BuildingBlock: QEWDON_clean_linker_0, # of connection points: 3
#     Node 79, Type 1, BuildingBlock: QEWDON_clean_linker_0, # of connection points: 3
#     Node 80, Type 1, BuildingBlock: QEWDON_clean_linker_0, # of connection points: 3
#     Node 81, Type 1, BuildingBlock: QEWDON_clean_linker_0, # of connection points: 3
#     Node 82, Type 1, BuildingBlock: QEWDON_clean_linker_0, # of connection points: 3
#     Node 83, Type 1, BuildingBlock: QEWDON_clean_linker_0, # of connection points: 3
#     Node 84, Type 1, BuildingBlock: QEWDON_clean_linker_0, # of connection points: 3
#     Node 85, Type 1, BuildingBlock: QEWDON_clean_linker_0, # of connection points: 3
#     Node 86, Type 1, BuildingBlock: QEWDON_clean_linker_0, # of connection points: 3
#     Node 87, Type 1, BuildingBlock: QEWDON_clean_linker_0, # of connection points: 3
#     Node 88, Type 1, BuildingBlock: QEWDON_clean_linker_0, # of connection points: 3
#     Node 89, Type 1, BuildingBlock: QEWDON_clean_linker_0, # of connection points: 3
#     Node 90, Type 1, BuildingBlock: QEWDON_clean_linker_0, # of connection points: 3
#     Node 91, Type 1, BuildingBlock: QEWDON_clean_linker_0, # of connection points: 3
#     Node 92, Type 1, BuildingBlock: QEWDON_clean_linker_0, # of connection points: 3
#     Node 93, Type 1, BuildingBlock: QEWDON_clean_linker_0, # of connection points: 3
#     Node 94, Type 1, BuildingBlock: QEWDON_clean_linker_0, # of connection points: 3
#     Node 95, Type 1, BuildingBlock: QEWDON_clean_linker_0, # of connection points: 3
#     Edge 96, Type (0, 1), BuildingBlock: EZIPEK_clean_linker_0, # of connection points: 2
#     Edge 97, Type (0, 1), BuildingBlock: EZIPEK_clean_linker_0, # of connection points: 2
#     Edge 98, Type (0, 1), BuildingBlock: EZIPEK_clean_linker_0, # of connection points: 2
#     Edge 99, Type (0, 1), BuildingBlock: EZIPEK_clean_linker_0, # of connection points: 2
#     Edge 100, Type (0, 1), BuildingBlock: EZIPEK_clean_linker_0, # of connection points: 2
#     Edge 101, Type (0, 1), BuildingBlock: EZIPEK_clean_linker_0, # of connection points: 2
#     Edge 102, Type (0, 1), BuildingBlock: EZIPEK_clean_linker_0, # of connection points: 2
#     Edge 103, Type (0, 1), BuildingBlock: EZIPEK_clean_linker_0, # of connection points: 2
#     Edge 104, Type (0, 1), BuildingBlock: EZIPEK_clean_linker_0, # of connection points: 2
#     Edge 105, Type (0, 1), BuildingBlock: EZIPEK_clean_linker_0, # of connection points: 2
#     Edge 106, Type (0, 1), BuildingBlock: EZIPEK_clean_linker_0, # of connection points: 2
#     Edge 107, Type (0, 1), BuildingBlock: EZIPEK_clean_linker_0, # of connection points: 2
#     Edge 108, Type (0, 1), BuildingBlock: EZIPEK_clean_linker_0, # of connection points: 2
#     Edge 109, Type (0, 1), BuildingBlock: EZIPEK_clean_linker_0, # of connection points: 2
#     Edge 110, Type (0, 1), BuildingBlock: EZIPEK_clean_linker_0, # of connection points: 2
#     Edge 111, Type (0, 1), BuildingBlock: EZIPEK_clean_linker_0, # of connection points: 2
#     Edge 112, Type (0, 1), BuildingBlock: EZIPEK_clean_linker_0, # of connection points: 2
#     Edge 113, Type (0, 1), BuildingBlock: EZIPEK_clean_linker_0, # of connection points: 2
#     Edge 114, Type (0, 1), BuildingBlock: EZIPEK_clean_linker_0, # of connection points: 2
#     Edge 115, Type (0, 1), BuildingBlock: EZIPEK_clean_linker_0, # of connection points: 2
#     Edge 116, Type (0, 1), BuildingBlock: EZIPEK_clean_linker_0, # of connection points: 2
#     Edge 117, Type (0, 1), BuildingBlock: EZIPEK_clean_linker_0, # of connection points: 2
#     Edge 118, Type (0, 1), BuildingBlock: EZIPEK_clean_linker_0, # of connection points: 2
#     Edge 119, Type (0, 1), BuildingBlock: EZIPEK_clean_linker_0, # of connection points: 2
#     Edge 120, Type (0, 1), BuildingBlock: EZIPEK_clean_linker_0, # of connection points: 2
#     Edge 121, Type (0, 1), BuildingBlock: EZIPEK_clean_linker_0, # of connection points: 2
#     Edge 122, Type (0, 1), BuildingBlock: EZIPEK_clean_linker_0, # of connection points: 2
#     Edge 123, Type (0, 1), BuildingBlock: EZIPEK_clean_linker_0, # of connection points: 2
#     Edge 124, Type (0, 1), BuildingBlock: EZIPEK_clean_linker_0, # of connection points: 2
#     Edge 125, Type (0, 1), BuildingBlock: EZIPEK_clean_linker_0, # of connection points: 2
#     Edge 126, Type (0, 1), BuildingBlock: EZIPEK_clean_linker_0, # of connection points: 2
#     Edge 127, Type (0, 1), BuildingBlock: EZIPEK_clean_linker_0, # of connection points: 2
#     Edge 128, Type (0, 1), BuildingBlock: EZIPEK_clean_linker_0, # of connection points: 2
#     Edge 129, Type (0, 1), BuildingBlock: EZIPEK_clean_linker_0, # of connection points: 2
#     Edge 130, Type (0, 1), BuildingBlock: EZIPEK_clean_linker_0, # of connection points: 2
#     Edge 131, Type (0, 1), BuildingBlock: EZIPEK_clean_linker_0, # of connection points: 2
#     Edge 132, Type (0, 1), BuildingBlock: EZIPEK_clean_linker_0, # of connection points: 2
#     Edge 133, Type (0, 1), BuildingBlock: EZIPEK_clean_linker_0, # of connection points: 2
#     Edge 134, Type (0, 1), BuildingBlock: EZIPEK_clean_linker_0, # of connection points: 2
#     Edge 135, Type (0, 1), BuildingBlock: EZIPEK_clean_linker_0, # of connection points: 2
#     Edge 136, Type (0, 1), BuildingBlock: EZIPEK_clean_linker_0, # of connection points: 2
#     Edge 137, Type (0, 1), BuildingBlock: EZIPEK_clean_linker_0, # of connection points: 2
#     Edge 138, Type (0, 1), BuildingBlock: EZIPEK_clean_linker_0, # of connection points: 2
#     Edge 139, Type (0, 1), BuildingBlock: EZIPEK_clean_linker_0, # of connection points: 2
#     Edge 140, Type (0, 1), BuildingBlock: EZIPEK_clean_linker_0, # of connection points: 2
#     Edge 141, Type (0, 1), BuildingBlock: EZIPEK_clean_linker_0, # of connection points: 2
#     Edge 142, Type (0, 1), BuildingBlock: EZIPEK_clean_linker_0, # of connection points: 2
#     Edge 143, Type (0, 1), BuildingBlock: EZIPEK_clean_linker_0, # of connection points: 2
#     Edge 144, Type (0, 1), BuildingBlock: EZIPEK_clean_linker_0, # of connection points: 2
#     Edge 145, Type (0, 1), BuildingBlock: EZIPEK_clean_linker_0, # of connection points: 2
#     Edge 146, Type (0, 1), BuildingBlock: EZIPEK_clean_linker_0, # of connection points: 2
#     Edge 147, Type (0, 1), BuildingBlock: EZIPEK_clean_linker_0, # of connection points: 2
#     Edge 148, Type (0, 1), BuildingBlock: EZIPEK_clean_linker_0, # of connection points: 2
#     Edge 149, Type (0, 1), BuildingBlock: EZIPEK_clean_linker_0, # of connection points: 2
#     Edge 150, Type (0, 1), BuildingBlock: EZIPEK_clean_linker_0, # of connection points: 2
#     Edge 151, Type (0, 1), BuildingBlock: EZIPEK_clean_linker_0, # of connection points: 2
#     Edge 152, Type (0, 1), BuildingBlock: EZIPEK_clean_linker_0, # of connection points: 2
#     Edge 153, Type (0, 1), BuildingBlock: EZIPEK_clean_linker_0, # of connection points: 2
#     Edge 154, Type (0, 1), BuildingBlock: EZIPEK_clean_linker_0, # of connection points: 2
#     Edge 155, Type (0, 1), BuildingBlock: EZIPEK_clean_linker_0, # of connection points: 2
#     Edge 156, Type (0, 1), BuildingBlock: EZIPEK_clean_linker_0, # of connection points: 2
#     Edge 157, Type (0, 1), BuildingBlock: EZIPEK_clean_linker_0, # of connection points: 2
#     Edge 158, Type (0, 1), BuildingBlock: EZIPEK_clean_linker_0, # of connection points: 2
#     Edge 159, Type (0, 1), BuildingBlock: EZIPEK_clean_linker_0, # of connection points: 2
#     Edge 160, Type (0, 1), BuildingBlock: EZIPEK_clean_linker_0, # of connection points: 2
#     Edge 161, Type (0, 1), BuildingBlock: EZIPEK_clean_linker_0, # of connection points: 2
#     Edge 162, Type (0, 1), BuildingBlock: EZIPEK_clean_linker_0, # of connection points: 2
#     Edge 163, Type (0, 1), BuildingBlock: EZIPEK_clean_linker_0, # of connection points: 2
#     Edge 164, Type (0, 1), BuildingBlock: EZIPEK_clean_linker_0, # of connection points: 2
#     Edge 165, Type (0, 1), BuildingBlock: EZIPEK_clean_linker_0, # of connection points: 2
#     Edge 166, Type (0, 1), BuildingBlock: EZIPEK_clean_linker_0, # of connection points: 2
#     Edge 167, Type (0, 1), BuildingBlock: EZIPEK_clean_linker_0, # of connection points: 2
#     Edge 168, Type (0, 1), BuildingBlock: EZIPEK_clean_linker_0, # of connection points: 2
#     Edge 169, Type (0, 1), BuildingBlock: EZIPEK_clean_linker_0, # of connection points: 2
#     Edge 170, Type (0, 1), BuildingBlock: EZIPEK_clean_linker_0, # of connection points: 2
#     Edge 171, Type (0, 1), BuildingBlock: EZIPEK_clean_linker_0, # of connection points: 2
#     Edge 172, Type (0, 1), BuildingBlock: EZIPEK_clean_linker_0, # of connection points: 2
#     Edge 173, Type (0, 1), BuildingBlock: EZIPEK_clean_linker_0, # of connection points: 2
#     Edge 174, Type (0, 1), BuildingBlock: EZIPEK_clean_linker_0, # of connection points: 2
#     Edge 175, Type (0, 1), BuildingBlock: EZIPEK_clean_linker_0, # of connection points: 2
#     Edge 176, Type (0, 1), BuildingBlock: EZIPEK_clean_linker_0, # of connection points: 2
#     Edge 177, Type (0, 1), BuildingBlock: EZIPEK_clean_linker_0, # of connection points: 2
#     Edge 178, Type (0, 1), BuildingBlock: EZIPEK_clean_linker_0, # of connection points: 2
#     Edge 179, Type (0, 1), BuildingBlock: EZIPEK_clean_linker_0, # of connection points: 2
#     Edge 180, Type (0, 1), BuildingBlock: EZIPEK_clean_linker_0, # of connection points: 2
#     Edge 181, Type (0, 1), BuildingBlock: EZIPEK_clean_linker_0, # of connection points: 2
#     Edge 182, Type (0, 1), BuildingBlock: EZIPEK_clean_linker_0, # of connection points: 2
#     Edge 183, Type (0, 1), BuildingBlock: EZIPEK_clean_linker_0, # of connection points: 2
#     Edge 184, Type (0, 1), BuildingBlock: EZIPEK_clean_linker_0, # of connection points: 2
#     Edge 185, Type (0, 1), BuildingBlock: EZIPEK_clean_linker_0, # of connection points: 2
#     Edge 186, Type (0, 1), BuildingBlock: EZIPEK_clean_linker_0, # of connection points: 2
#     Edge 187, Type (0, 1), BuildingBlock: EZIPEK_clean_linker_0, # of connection points: 2
#     Edge 188, Type (0, 1), BuildingBlock: EZIPEK_clean_linker_0, # of connection points: 2
#     Edge 189, Type (0, 1), BuildingBlock: EZIPEK_clean_linker_0, # of connection points: 2
#     Edge 190, Type (0, 1), BuildingBlock: EZIPEK_clean_linker_0, # of connection points: 2
#     Edge 191, Type (0, 1), BuildingBlock: EZIPEK_clean_linker_0, # of connection points: 2
#     Edge 192, Type (0, 1), BuildingBlock: EZIPEK_clean_linker_0, # of connection points: 2
#     Edge 193, Type (0, 1), BuildingBlock: EZIPEK_clean_linker_0, # of connection points: 2
#     Edge 194, Type (0, 1), BuildingBlock: EZIPEK_clean_linker_0, # of connection points: 2
#     Edge 195, Type (0, 1), BuildingBlock: EZIPEK_clean_linker_0, # of connection points: 2
#     Edge 196, Type (0, 1), BuildingBlock: EZIPEK_clean_linker_0, # of connection points: 2
#     Edge 197, Type (0, 1), BuildingBlock: EZIPEK_clean_linker_0, # of connection points: 2
#     Edge 198, Type (0, 1), BuildingBlock: EZIPEK_clean_linker_0, # of connection points: 2
#     Edge 199, Type (0, 1), BuildingBlock: EZIPEK_clean_linker_0, # of connection points: 2
#     Edge 200, Type (0, 1), BuildingBlock: EZIPEK_clean_linker_0, # of connection points: 2
#     Edge 201, Type (0, 1), BuildingBlock: EZIPEK_clean_linker_0, # of connection points: 2
#     Edge 202, Type (0, 1), BuildingBlock: EZIPEK_clean_linker_0, # of connection points: 2
#     Edge 203, Type (0, 1), BuildingBlock: EZIPEK_clean_linker_0, # of connection points: 2
#     Edge 204, Type (0, 1), BuildingBlock: EZIPEK_clean_linker_0, # of connection points: 2
#     Edge 205, Type (0, 1), BuildingBlock: EZIPEK_clean_linker_0, # of connection points: 2
#     Edge 206, Type (0, 1), BuildingBlock: EZIPEK_clean_linker_0, # of connection points: 2
#     Edge 207, Type (0, 1), BuildingBlock: EZIPEK_clean_linker_0, # of connection points: 2
#     Edge 208, Type (0, 1), BuildingBlock: EZIPEK_clean_linker_0, # of connection points: 2
#     Edge 209, Type (0, 1), BuildingBlock: EZIPEK_clean_linker_0, # of connection points: 2
#     Edge 210, Type (0, 1), BuildingBlock: EZIPEK_clean_linker_0, # of connection points: 2
#     Edge 211, Type (0, 1), BuildingBlock: EZIPEK_clean_linker_0, # of connection points: 2
#     Edge 212, Type (0, 1), BuildingBlock: EZIPEK_clean_linker_0, # of connection points: 2
#     Edge 213, Type (0, 1), BuildingBlock: EZIPEK_clean_linker_0, # of connection points: 2
#     Edge 214, Type (0, 1), BuildingBlock: EZIPEK_clean_linker_0, # of connection points: 2
#     Edge 215, Type (0, 1), BuildingBlock: EZIPEK_clean_linker_0, # of connection points: 2
#     Edge 216, Type (0, 1), BuildingBlock: EZIPEK_clean_linker_0, # of connection points: 2
#     Edge 217, Type (0, 1), BuildingBlock: EZIPEK_clean_linker_0, # of connection points: 2
#     Edge 218, Type (0, 1), BuildingBlock: EZIPEK_clean_linker_0, # of connection points: 2
#     Edge 219, Type (0, 1), BuildingBlock: EZIPEK_clean_linker_0, # of connection points: 2
#     Edge 220, Type (0, 1), BuildingBlock: EZIPEK_clean_linker_0, # of connection points: 2
#     Edge 221, Type (0, 1), BuildingBlock: EZIPEK_clean_linker_0, # of connection points: 2
#     Edge 222, Type (0, 1), BuildingBlock: EZIPEK_clean_linker_0, # of connection points: 2
#     Edge 223, Type (0, 1), BuildingBlock: EZIPEK_clean_linker_0, # of connection points: 2
#     Edge 224, Type (0, 1), BuildingBlock: EZIPEK_clean_linker_0, # of connection points: 2
#     Edge 225, Type (0, 1), BuildingBlock: EZIPEK_clean_linker_0, # of connection points: 2
#     Edge 226, Type (0, 1), BuildingBlock: EZIPEK_clean_linker_0, # of connection points: 2
#     Edge 227, Type (0, 1), BuildingBlock: EZIPEK_clean_linker_0, # of connection points: 2
#     Edge 228, Type (0, 1), BuildingBlock: EZIPEK_clean_linker_0, # of connection points: 2
#     Edge 229, Type (0, 1), BuildingBlock: EZIPEK_clean_linker_0, # of connection points: 2
#     Edge 230, Type (0, 1), BuildingBlock: EZIPEK_clean_linker_0, # of connection points: 2
#     Edge 231, Type (0, 1), BuildingBlock: EZIPEK_clean_linker_0, # of connection points: 2
#     Edge 232, Type (0, 1), BuildingBlock: EZIPEK_clean_linker_0, # of connection points: 2
#     Edge 233, Type (0, 1), BuildingBlock: EZIPEK_clean_linker_0, # of connection points: 2
#     Edge 234, Type (0, 1), BuildingBlock: EZIPEK_clean_linker_0, # of connection points: 2
#     Edge 235, Type (0, 1), BuildingBlock: EZIPEK_clean_linker_0, # of connection points: 2
#     Edge 236, Type (0, 1), BuildingBlock: EZIPEK_clean_linker_0, # of connection points: 2
#     Edge 237, Type (0, 1), BuildingBlock: EZIPEK_clean_linker_0, # of connection points: 2
#     Edge 238, Type (0, 1), BuildingBlock: EZIPEK_clean_linker_0, # of connection points: 2
#     Edge 239, Type (0, 1), BuildingBlock: EZIPEK_clean_linker_0, # of connection points: 2
# Relax obj value: 0.037
# Max RMSD: 0.184
# Mean RMSD: 0.071
data_MOF--net-bpr--node1-WUSLED_clean_sbu_0--node2-QEWDON_clean_linker_0--edge1-EZIPEK_clean_linker_0
_symmetry_space_group_name_H-M    P1
_symmetry_Int_Tables_number       1
_symmetry_cell_setting            triclinic
loop_
_symmetry_equiv_pos_as_xyz
'x, y, z'
_cell_length_a     83.075579
_cell_length_b     83.951502
_cell_length_c     88.152713
_cell_angle_alpha  86.621712
_cell_angle_beta   94.877632
_cell_angle_gamma 113.21547
loop_
_atom_site_label
_atom_site_type_symbol
_atom_site_fract_x
_atom_site_fract_y
_atom_site_fract_z
_atom_type_partial_charge
C0 C 0.98999 0.41473 0.27254 0.0
C1 C 0.99493 0.41778 0.28811 0.0
C2 C 0.97783 0.4356 0.28835 0.0
C3 C 0.98888 0.42819 0.29597 0.0
C4 C 0.97226 0.43183 0.27304 0.0
C5 C 0.97833 0.42153 0.26521 0.0
U6 U 1.01252 0.38328 0.26537 0.0
O7 O 1.01 0.36839 0.24444 0.0
O8 O 0.03526 0.38946 0.25194 0.0
C9 C 0.02655 0.37762 0.24187 0.0
C10 C 0.99805 0.4062 0.26319 0.0
C11 C 0.03589 0.37455 0.2295 0.0
C12 C 0.0369 0.36713 0.20333 0.0
C13 C 0.02764 0.36978 0.21491 0.0
C14 C 0.06276 0.37423 0.22073 0.0
C15 C 0.05458 0.36933 0.20615 0.0
C16 C 0.0535 0.37671 0.23227 0.0
C17 C 0.01952 0.35714 0.30296 0.0
C18 C 0.03845 0.34182 0.31087 0.0
C19 C 0.0232 0.34941 0.32965 0.0
C20 C 1.01522 0.3564 0.31809 0.0
C21 C 0.03551 0.34278 0.32626 0.0
C22 C 0.03073 0.34927 0.29926 0.0
C23 C 1.01387 0.36834 0.29221 0.0
O24 O 1.01496 0.41024 0.26602 0.0
O25 O 0.98917 0.38968 0.26047 0.0
O26 O 1.00123 0.36128 0.28165 0.0
O27 O 0.02602 0.38311 0.28787 0.0
H28 H 1.00386 0.4126 0.29403 0.0
H29 H 0.9931 0.43077 0.30786 0.0
H30 H 0.96361 0.4373 0.26704 0.0
H31 H 0.97437 0.41934 0.25322 0.0
H32 H 0.03026 0.36325 0.19222 0.0
H33 H 1.01409 0.36816 0.21245 0.0
H34 H 0.07628 0.37581 0.22328 0.0
H35 H 0.06013 0.38022 0.24344 0.0
H36 H 0.04785 0.33666 0.30801 0.0
H37 H 0.02065 0.35027 0.34136 0.0
H38 H 1.00655 0.36236 0.32115 0.0
H39 H 0.03422 0.3497 0.28764 0.0
C40 C 0.97346 0.84285 0.5576 0.0
C41 C 0.9663 0.83953 0.57193 0.0
C42 C 0.96818 0.81115 0.57368 0.0
C43 C 0.96368 0.82378 0.57991 0.0
C44 C 0.97664 0.81514 0.55999 0.0
C45 C 0.97919 0.8308 0.55202 0.0
U46 U 0.9733 0.88882 0.54813 0.0
O47 O 0.98471 0.90697 0.52896 0.0
O48 O 0.95622 0.89598 0.53108 0.0
C49 C 0.96925 0.90571 0.52287 0.0
C50 C 0.97297 0.85736 0.54733 0.0
C51 C 0.96616 0.90468 0.50602 0.0
C52 C 0.94778 0.89153 0.4833 0.0
C53 C 0.95276 0.89047 0.49887 0.0
C54 C 0.97041 0.92042 0.48155 0.0
C55 C 0.95616 0.90678 0.47463 0.0
C56 C 0.97525 0.91943 0.49708 0.0
C57 C 0.97661 0.91766 0.58279 0.0
C58 C 0.96664 0.94112 0.58467 0.0
C59 C 0.97835 0.93038 0.60725 0.0
C60 C 0.9815 0.91877 0.59843 0.0
C61 C 0.97029 0.94118 0.60056 0.0
C62 C 0.9697 0.92933 0.57581 0.0
C63 C 0.97664 0.90265 0.57485 0.0
O64 O 0.95872 0.86063 0.54711 0.0
O65 O 0.98741 0.87147 0.54674 0.0
O66 O 0.99009 0.90496 0.56689 0.0
O67 O 0.96153 0.89243 0.56835 0.0
H68 H 0.96186 0.84866 0.57654 0.0
H69 H 0.95713 0.821 0.59044 0.0
H70 H 0.98014 0.80559 0.55493 0.0
H71 H 0.98473 0.83304 0.54102 0.0
H72 H 0.93681 0.8808 0.47823 0.0
H73 H 0.94554 0.87889 0.50543 0.0
H74 H 0.9771 0.93231 0.47513 0.0
H75 H 0.98554 0.93061 0.50229 0.0
H76 H 0.96039 0.94936 0.57933 0.0
H77 H 0.98121 0.9302 0.61947 0.0
H78 H 0.98681 0.90987 0.60403 0.0
H79 H 0.96584 0.92869 0.56374 0.0
C80 C 0.4944 0.63535 0.77199 0.0
C81 C 0.47618 0.63112 0.77111 0.0
C82 C 0.4765 0.63976 0.74411 0.0
C83 C 0.46734 0.6332 0.75731 0.0
C84 C 0.49478 0.64445 0.7451 0.0
C85 C 0.50359 0.64216 0.75884 0.0
U86 U 0.50838 0.63671 0.81548 0.0
O87 O 0.53362 0.63831 0.82704 0.0
O88 O 0.50933 0.61559 0.83111 0.0
C89 C 0.52632 0.62332 0.83432 0.0
C90 C 0.50381 0.63137 0.78593 0.0
C91 C 0.53638 0.61224 0.83759 0.0
C92 C 0.5581 0.60082 0.83224 0.0
C93 C 0.54814 0.61075 0.82771 0.0
C94 C 0.54454 0.59385 0.85636 0.0
C95 C 0.55632 0.59235 0.84666 0.0
C96 C 0.5347 0.60366 0.85187 0.0
C97 C 0.49024 0.66083 0.8418 0.0
C98 C 0.48721 0.65719 0.86924 0.0
C99 C 0.47661 0.67679 0.85452 0.0
C100 C 0.48248 0.67297 0.84134 0.0
C101 C 0.47847 0.6686 0.86849 0.0
C102 C 0.49305 0.65329 0.85594 0.0
C103 C 0.49323 0.65504 0.82714 0.0
O104 O 0.51715 0.64436 0.79214 0.0
O105 O 0.49412 0.62049 0.79608 0.0
O106 O 0.48533 0.63837 0.82465 0.0
O107 O 0.50919 0.66194 0.8224 0.0
H108 H 0.46867 0.62589 0.78099 0.0
H109 H 0.45328 0.62965 0.75692 0.0
H110 H 0.50219 0.64967 0.73516 0.0
H111 H 0.51759 0.64543 0.75913 0.0
H112 H 0.56723 0.59985 0.82464 0.0
H113 H 0.54976 0.61736 0.81667 0.0
H114 H 0.54311 0.58756 0.86754 0.0
H115 H 0.52589 0.6048 0.85974 0.0
H116 H 0.4886 0.65059 0.87989 0.0
H117 H 0.46973 0.68544 0.85366 0.0
H118 H 0.4801 0.67887 0.83057 0.0
H119 H 0.49898 0.64384 0.85658 0.0
C120 C 0.54772 0.17739 0.08438 0.0
C121 C 0.53673 0.17603 0.09616 0.0
C122 C 0.55181 0.20717 0.1005 0.0
C123 C 0.53868 0.19089 0.1041 0.0
C124 C 0.56261 0.20831 0.08875 0.0
C125 C 0.56054 0.19369 0.08079 0.0
U126 U 0.54483 0.13055 0.07741 0.0
O127 O 0.53466 0.11472 0.05689 0.0
O128 O 0.56274 0.12435 0.06411 0.0
C129 C 0.55027 0.11549 0.05408 0.0
C130 C 0.54651 0.16259 0.07524 0.0
C131 C 0.55492 0.11722 0.03805 0.0
C132 C 0.55905 0.13137 0.01292 0.0
C133 C 0.55454 0.13069 0.02808 0.0
C134 C 0.56562 0.1061 0.01798 0.0
C135 C 0.56297 0.11798 1.00696 0.0
C136 C 0.56105 0.10532 0.03297 0.0
C137 C 0.5426 0.09754 0.11017 0.0
C138 C 0.55908 0.07903 0.11247 0.0
C139 C 0.5404 0.07831 0.13236 0.0
C140 C 0.53522 0.09041 0.124 0.0
C141 C 0.55315 0.07333 0.12703 0.0
C142 C 0.55379 0.091 0.10405 0.0
C143 C 0.54116 0.11367 0.10384 0.0
O144 O 0.56033 0.15859 0.07672 0.0
O145 O 0.53157 0.14894 0.07393 0.0
O146 O 0.52777 0.11216 0.0941 0.0
O147 O 0.55599 0.12577 0.09976 0.0
H148 H 0.52669 0.16361 0.09917 0.0
H149 H 0.53004 0.18969 0.11302 0.0
H150 H 0.5727 0.22067 0.08564 0.0
H151 H 0.56908 0.19514 0.07171 0.0
H152 H 0.55988 0.14283 1.0063 0.0
H153 H 0.55107 0.14081 0.03204 0.0
H154 H 0.57154 0.09732 0.01535 0.0
H155 H 0.56258 0.09544 0.04075 0.0
H156 H 0.56901 0.07542 0.10822 0.0
H157 H 0.5358 0.07418 0.14364 0.0
H158 H 0.52656 0.09524 0.12892 0.0
H159 H 0.55957 0.09623 0.09336 0.0
C160 C 0.02699 0.64225 0.22285 0.0
C161 C 0.02869 0.64392 0.207 0.0
C162 C 0.99663 0.63283 0.20223 0.0
C163 C 1.01361 0.63934 0.19677 0.0
C164 C 0.99515 0.63162 0.21804 0.0
C165 C 1.0101 0.63628 0.22816 0.0
U166 U 0.07605 0.65269 0.23902 0.0
O167 O 0.08941 0.66697 0.25984 0.0
O168 O 0.08425 0.63927 0.25852 0.0
C169 C 0.09125 0.65333 0.26658 0.0
C170 C 0.0421 0.64571 0.23437 0.0
C171 C 0.09146 0.65136 0.28339 0.0
C172 C 0.08033 0.65135 0.30814 0.0
C173 C 0.07892 0.65319 0.29213 0.0
C174 C 0.10676 0.64602 0.30669 0.0
C175 C 0.09429 0.6477 0.3155 0.0
C176 C 0.10534 0.64782 0.29085 0.0
C177 C 0.11364 0.65911 0.21213 0.0
C178 C 0.14513 0.67603 0.21041 0.0
C179 C 0.13051 0.65023 0.19564 0.0
C180 C 0.11469 0.64748 0.20185 0.0
C181 C 0.14574 0.66487 0.19935 0.0
C182 C 0.12917 0.67315 0.21681 0.0
C183 C 0.09581 0.65707 0.21603 0.0
O184 O 0.04866 0.63378 0.23641 0.0
O185 O 0.05416 0.66158 0.23531 0.0
O186 O 0.09392 0.67 0.22234 0.0
O187 O 0.08581 0.6418 0.22152 0.0
H188 H 0.04155 0.64846 0.20257 0.0
H189 H 1.01515 0.64043 0.18463 0.0
H190 H 0.98232 0.62667 0.22259 0.0
H191 H 1.00841 0.63487 0.24029 0.0
H192 H 0.07052 0.65261 0.31476 0.0
H193 H 0.06811 0.65597 0.28664 0.0
H194 H 0.11756 0.64316 0.3121 0.0
H195 H 0.1152 0.64644 0.28436 0.0
H196 H 0.15669 0.68748 0.2134 0.0
H197 H 0.13056 0.64157 0.18702 0.0
H198 H 0.10298 0.63666 0.19793 0.0
H199 H 0.12884 0.68232 0.2248 0.0
C200 C 0.6927 0.77092 0.49225 0.0
C201 C 0.68402 0.76432 0.47819 0.0
C202 C 0.70647 0.7535 0.47411 0.0
C203 C 0.69086 0.75559 0.4692 0.0
C204 C 0.7154 0.76059 0.48788 0.0
C205 C 0.70849 0.76912 0.49692 0.0
U206 U 0.67098 0.8014 0.50412 0.0
O207 O 0.65169 0.79539 0.52137 0.0
O208 O 0.67831 0.8159 0.52552 0.0
C209 C 0.66308 0.80639 0.53096 0.0
C210 C 0.68525 0.77867 0.50284 0.0
C211 C 0.65678 0.81224 0.54369 0.0
C212 C 0.65787 0.81535 0.57102 0.0
C213 C 0.66403 0.81077 0.55841 0.0
C214 C 0.63691 0.82267 0.55429 0.0
C215 C 0.64426 0.82133 0.56905 0.0
C216 C 0.64317 0.81819 0.54164 0.0
C217 C 0.66091 0.83017 0.46988 0.0
C218 C 0.65049 0.85355 0.46711 0.0
C219 C 0.65797 0.84308 0.44504 0.0
C220 C 0.66199 0.83085 0.45415 0.0
C221 C 0.65388 0.85602 0.4514 0.0
C222 C 0.6545 0.84116 0.47632 0.0
C223 C 0.66644 0.81757 0.47875 0.0
O224 O 0.69437 0.79506 0.50581 0.0
O225 O 0.66821 0.77456 0.50141 0.0
O226 O 0.65428 0.80316 0.48378 0.0
O227 O 0.68075 0.82353 0.48789 0.0
H228 H 0.67185 0.7656 0.47432 0.0
H229 H 0.68389 0.75027 0.45852 0.0
H230 H 0.72745 0.75909 0.49181 0.0
H231 H 0.71531 0.77403 0.50776 0.0
H232 H 0.66377 0.81433 0.58228 0.0
H233 H 0.67441 0.80597 0.56017 0.0
H234 H 0.6265 0.82743 0.55257 0.0
H235 H 0.63741 0.81933 0.53035 0.0
H236 H 0.64438 0.86066 0.47255 0.0
H237 H 0.65811 0.84211 0.4329 0.0
H238 H 0.66599 0.82181 0.44879 0.0
H239 H 0.6525 0.84011 0.48839 0.0
C240 C 0.49738 0.43743 0.71032 0.0
C241 C 0.4973 0.43403 0.69493 0.0
C242 C 0.5293 0.44145 0.69737 0.0
C243 C 0.5129 0.43554 0.68865 0.0
C244 C 0.52837 0.44274 0.71322 0.0
C245 C 0.51294 0.44132 0.71943 0.0
U246 U 0.44749 0.42782 0.7121 0.0
O247 O 0.43015 0.41308 0.72999 0.0
O248 O 0.43589 0.44079 0.72642 0.0
C249 C 0.42842 0.42675 0.73491 0.0
C250 C 0.48144 0.43594 0.71763 0.0
C251 C 0.42982 0.42831 0.75179 0.0
C252 C 0.443 0.44318 0.77561 0.0
C253 C 0.44266 0.44241 0.75962 0.0
C254 C 0.41785 0.41588 0.77611 0.0
C255 C 0.43068 0.42975 0.78403 0.0
C256 C 0.41741 0.4152 0.76026 0.0
C257 C 0.41757 0.41221 0.67381 0.0
C258 C 0.38587 0.39999 0.6682 0.0
C259 C 0.40494 0.4019 0.64854 0.0
C260 C 0.41953 0.40914 0.65881 0.0
C261 C 0.38766 0.39837 0.65248 0.0
C262 C 0.40057 0.40721 0.67857 0.0
C263 C 0.43358 0.41894 0.68426 0.0
O264 O 0.47469 0.44744 0.71351 0.0
O265 O 0.4695 0.42021 0.71944 0.0
O266 O 0.4359 0.40804 0.69464 0.0
O267 O 0.43884 0.43484 0.68913 0.0
H268 H 0.48514 0.42993 0.68784 0.0
H269 H 0.51138 0.43141 0.67714 0.0
H270 H 0.53963 0.44482 0.72115 0.0
H271 H 0.51315 0.44309 0.73154 0.0
H272 H 0.45295 0.45411 0.78142 0.0
H273 H 0.45238 0.45279 0.75343 0.0
H274 H 0.40813 0.40545 0.78226 0.0
H275 H 0.40726 0.40431 0.75456 0.0
H276 H 0.37332 0.39518 0.67305 0.0
H277 H 0.4075 0.39871 0.63755 0.0
H278 H 0.43249 0.41193 0.65506 0.0
H279 H 0.39863 0.40844 0.69038 0.0
C280 C 0.86172 0.18274 0.02597 0.0
C281 C 0.87308 0.17429 0.02434 0.0
C282 C 0.88034 0.17495 0.05181 0.0
C283 C 0.88242 0.17057 0.03713 0.0
C284 C 0.8684 0.18275 0.05342 0.0
C285 C 0.85928 0.1867 0.04062 0.0
U286 U 0.84849 0.18305 0.98313 0.0
O287 O 0.82597 0.18666 0.97036 0.0
O288 O 0.853 0.2052 0.96714 0.0
C289 C 0.83618 0.20094 0.96341 0.0
C290 C 0.85362 0.18894 0.01252 0.0
C291 C 0.82995 0.21516 0.96017 0.0
C292 C 0.83614 0.24606 0.95789 0.0
C293 C 0.84009 0.2323 0.9645 0.0
C294 C 0.81109 0.22569 0.94353 0.0
C295 C 0.82203 0.24289 0.94688 0.0
C296 C 0.81509 0.21198 0.95004 0.0
C297 C 0.86013 0.15142 0.95938 0.0
C298 C 0.85353 0.14351 0.93272 0.0
C299 C 0.87548 0.13626 0.94799 0.0
C300 C 0.87249 0.14382 0.96054 0.0
C301 C 0.86605 0.13597 0.93399 0.0
C302 C 0.85061 0.15128 0.94536 0.0
C303 C 0.85797 0.15934 0.97316 0.0
O304 O 0.86459 0.19819 1.00241 0.0
O305 O 0.83882 0.17776 1.00628 0.0
O306 O 0.84194 0.15602 0.97689 0.0
O307 O 0.86886 0.17544 0.97542 0.0
H308 H 0.87511 0.17103 0.01315 0.0
H309 H 0.89144 0.16445 0.03557 0.0
H310 H 0.86645 0.18615 0.06459 0.0
H311 H 0.85064 0.19325 0.04215 0.0
H312 H 0.84461 0.25924 0.9608 0.0
H313 H 0.85161 0.23516 0.97231 0.0
H314 H 0.80005 0.22295 0.93518 0.0
H315 H 0.80715 0.19893 0.94642 0.0
H316 H 0.84607 0.14337 0.922 0.0
H317 H 0.88512 0.13048 0.94924 0.0
H318 H 0.87992 0.14377 0.97124 0.0
H319 H 0.84102 0.15713 0.94421 0.0
C320 C 0.21857 1.00262 0.43304 0.0
C321 C 0.22271 0.0192 0.42617 0.0
C322 C 0.19153 0.01354 0.42177 0.0
C323 C 0.20926 0.02463 0.4206 0.0
C324 C 0.1875 0.99746 0.42948 0.0
C325 C 0.2009 0.99208 0.43505 0.0
U326 U 0.26607 1.00355 0.43668 0.0
O327 O 0.27679 0.98621 0.44989 0.0
O328 O 0.27524 0.98674 0.42477 0.0
C329 C 0.28026 0.98053 0.43747 0.0
C330 C 0.23185 0.99488 0.43597 0.0
C331 C 0.28068 0.96311 0.43736 0.0
C332 C 0.26768 0.9315 0.43861 0.0
C333 C 0.26609 0.94753 0.43958 0.0
C334 C 0.29818 0.94662 0.4331 0.0
C335 C 0.28379 0.93098 0.43529 0.0
C336 C 0.29665 0.96244 0.43422 0.0
C337 C 0.30562 0.04734 0.42936 0.0
C338 C 0.33754 0.05939 0.43446 0.0
C339 C 0.32446 0.06943 0.41236 0.0
C340 C 0.30781 0.0583 0.4164 0.0
C341 C 0.33954 0.0704 0.4214 0.0
C342 C 0.32067 0.0478 0.43836 0.0
C343 C 0.2873 0.03625 0.43291 0.0
O344 O 0.24029 0.99465 0.42411 0.0
O345 O 0.24204 0.9987 0.44864 0.0
O346 O 0.28416 0.02861 0.44644 0.0
O347 O 0.27771 0.0264 0.4218 0.0
H348 H 0.23624 0.02754 0.4244 0.0
H349 H 0.21265 0.03706 0.41465 0.0
H350 H 0.17394 0.98869 0.43042 0.0
H351 H 0.19738 0.9792 0.44019 0.0
H352 H 0.25641 0.91955 0.4404 0.0
H353 H 0.2536 0.94775 0.44195 0.0
H354 H 0.3107 0.94657 0.43059 0.0
H355 H 0.30804 0.9743 0.43246 0.0
H356 H 0.34893 0.05998 0.44173 0.0
H357 H 0.32553 0.07783 0.40236 0.0
H358 H 0.29649 0.0584 0.40938 0.0
H359 H 0.31941 0.03949 0.44844 0.0
C360 C 0.17964 0.96003 0.69062 0.0
C361 C 0.16151 0.95353 0.69263 0.0
C362 C 0.15795 0.92513 0.68364 0.0
C363 C 0.15075 0.93613 0.68927 0.0
C364 C 0.17611 0.93162 0.68217 0.0
C365 C 0.18677 0.94878 0.68566 0.0
U366 U 0.19469 0.01096 0.69307 0.0
O367 O 0.21843 0.02889 0.70584 0.0
O368 O 0.21641 0.03024 0.68086 0.0
C369 C 0.22614 0.03638 0.69338 0.0
C370 C 0.19169 0.97847 0.69262 0.0
C371 C 0.24533 0.04108 0.693 0.0
C372 C 0.27175 0.0347 0.69518 0.0
C373 C 0.25336 0.02917 0.69556 0.0
C374 C 0.27402 0.06375 0.6889 0.0
C375 C 0.2828 0.0525 0.69293 0.0
C376 C 0.25584 0.05827 0.6893 0.0
C377 C 0.15963 0.03226 0.68908 0.0
C378 C 0.16325 0.06235 0.68366 0.0
C379 C 0.13409 0.03974 0.68398 0.0
C380 C 0.14137 0.02743 0.68765 0.0
C381 C 0.14488 0.05728 0.68161 0.0
C382 C 0.17059 0.04992 0.68734 0.0
C383 C 0.16636 0.01821 0.69093 0.0
O384 O 0.19358 0.98868 0.68047 0.0
O385 O 0.1918 0.98618 0.70523 0.0
O386 O 0.17442 0.01643 0.70403 0.0
O387 O 0.17355 0.01552 0.67917 0.0
H388 H 0.15566 0.96192 0.69647 0.0
H389 H 0.13678 0.9314 0.69062 0.0
H390 H 0.18201 0.92344 0.67799 0.0
H391 H 0.2007 0.95343 0.6841 0.0
H392 H 0.27669 0.02462 0.69633 0.0
H393 H 0.24542 0.01558 0.69767 0.0
H394 H 0.28113 0.07705 0.68526 0.0
H395 H 0.24993 0.06761 0.68659 0.0
H396 H 0.17187 0.07582 0.68198 0.0
H397 H 0.11994 0.03548 0.68253 0.0
H398 H 0.13265 0.01392 0.68889 0.0
H399 H 0.18472 0.054 0.68839 0.0
C400 C 0.25113 0.06183 0.85702 0.0
C401 C 0.2332 0.05789 0.85845 0.0
C402 C 0.24025 0.08685 0.86816 0.0
C403 C 0.22779 0.07039 0.86384 0.0
C404 C 0.25802 0.09085 0.86612 0.0
C405 C 0.26334 0.07853 0.86058 0.0
U406 U 0.25072 0.01536 0.85153 0.0
O407 O 0.26484 1.00764 0.83495 0.0
O408 O 0.27181 1.00654 0.85957 0.0
C409 C 0.27462 1.00359 0.84578 0.0
C410 C 0.25805 0.04892 0.85278 0.0
C411 C 0.29219 1.00409 0.84281 0.0
C412 C 0.32166 0.01719 0.83344 0.0
C413 C 0.30541 0.01813 0.83578 0.0
C414 C 0.3115 0.98836 0.845 0.0
C415 C 0.32478 1.00222 0.83809 0.0
C416 C 0.29549 0.9893 0.84731 0.0
C417 C 0.20631 0.97554 0.86198 0.0
C418 C 0.19721 0.94426 0.86646 0.0
C419 C 0.17791 0.9582 0.87194 0.0
C420 C 0.19021 0.97414 0.86698 0.0
C421 C 0.18133 0.94313 0.87201 0.0
C422 C 0.20969 0.9604 0.86152 0.0
C423 C 0.2193 0.99331 0.85865 0.0
O424 O 0.26165 0.03968 0.86407 0.0
O425 O 0.25115 0.03991 0.84045 0.0
O426 O 0.22327 0.99825 0.84454 0.0
O427 O 0.23253 1.00017 0.86872 0.0
H428 H 0.22348 0.04512 0.85577 0.0
H429 H 0.21399 0.067 0.86524 0.0
H430 H 0.26789 0.10339 0.86926 0.0
H431 H 0.27721 0.08193 0.85951 0.0
H432 H 0.33176 0.02805 0.82807 0.0
H433 H 0.30323 0.02972 0.83216 0.0
H434 H 0.31354 0.9767 0.84863 0.0
H435 H 0.28553 0.97829 0.85268 0.0
H436 H 0.2001 0.93277 0.86632 0.0
H437 H 0.16581 0.9577 0.87608 0.0
H438 H 0.1873 0.98559 0.86746 0.0
H439 H 0.22201 0.9611 0.85772 0.0
C440 C 0.28553 1.00128 0.1866 0.0
C441 C 0.28129 0.98423 0.19245 0.0
C442 C 0.25003 0.9788 0.18985 0.0
C443 C 0.26364 0.9731 0.19414 0.0
C444 C 0.25438 0.99588 0.18426 0.0
C445 C 0.27192 1.00699 0.18271 0.0
U446 U 0.33425 0.01271 0.1785 0.0
O447 O 0.3503 0.03226 0.16229 0.0
O448 O 0.35833 0.03464 0.1867 0.0
C449 C 0.3616 0.04154 0.17293 0.0
C450 C 0.30381 0.01338 0.18403 0.0
C451 C 0.36824 0.06077 0.17101 0.0
C452 C 0.36635 0.08705 0.15897 0.0
C453 C 0.35841 0.06926 0.1629 0.0
C454 C 0.39374 0.08829 0.17175 0.0
C455 C 0.38423 0.09661 0.16304 0.0
C456 C 0.38584 0.0706 0.17569 0.0
C457 C 0.34782 0.97308 0.17485 0.0
C458 C 0.37415 0.97185 0.16557 0.0
C459 C 0.35085 0.94545 0.17389 0.0
C460 C 0.34124 0.95504 0.17736 0.0
C461 C 0.36731 0.95369 0.16783 0.0
C462 C 0.36445 0.9815 0.16905 0.0
C463 C 0.33639 0.98224 0.17766 0.0
O464 O 0.31607 0.01412 0.19476 0.0
O465 O 0.30888 0.01376 0.17025 0.0
O466 O 0.33132 0.98979 0.16582 0.0
O467 O 0.33996 0.99125 0.1901 0.0
H468 H 0.29154 0.97948 0.19549 0.0
H469 H 0.26056 0.95992 0.19838 0.0
H470 H 0.24413 1.00054 0.18085 0.0
H471 H 0.27484 0.02005 0.1782 0.0
H472 H 0.35874 0.09319 0.15226 0.0
H473 H 0.34484 0.06204 0.1591 0.0
H474 H 0.40753 0.09535 0.175 0.0
H475 H 0.39377 0.0644 0.18182 0.0
H476 H 0.38686 0.97848 0.16096 0.0
H477 H 0.34534 0.93152 0.17579 0.0
H478 H 0.32844 0.94828 0.18179 0.0
H479 H 0.36978 0.99541 0.16701 0.0
C480 C 0.4749 0.33537 0.06115 0.0
C481 C 0.47997 0.33758 0.07679 0.0
C482 C 0.4715 0.30621 0.08073 0.0
C483 C 0.47847 0.32313 0.08647 0.0
C484 C 0.46709 0.30426 0.06501 0.0
C485 C 0.46882 0.31863 0.05538 0.0
U486 U 0.47669 0.38198 0.0495 0.0
O487 O 0.48771 0.39808 0.0291 0.0
O488 O 0.45947 0.38851 0.03214 0.0
C489 C 0.47224 0.39706 0.02326 0.0
C490 C 0.47484 0.34978 0.05053 0.0
C491 C 0.46831 0.39493 1.00651 0.0
C492 C 0.448 0.38163 0.98477 0.0
C493 C 0.45354 0.38116 1.00027 0.0
C494 C 0.47271 0.40879 0.98122 0.0
C495 C 0.45717 0.39578 0.97521 0.0
C496 C 0.47808 0.40846 0.9967 0.0
C497 C 0.48284 0.41499 0.08149 0.0
C498 C 0.47602 0.4408 0.08047 0.0
C499 C 0.48644 0.43127 0.10437 0.0
C500 C 0.48785 0.4176 0.09704 0.0
C501 C 0.48004 0.44269 0.09627 0.0
C502 C 0.47735 0.42697 0.07311 0.0
C503 C 0.48176 0.39867 0.07503 0.0
O504 O 0.46107 0.35383 0.05036 0.0
O505 O 0.48961 0.36344 0.04935 0.0
O506 O 0.49466 0.39936 0.06701 0.0
O507 O 0.46624 0.38832 0.06936 0.0
H508 H 0.48472 0.35037 0.08154 0.0
H509 H 0.48207 0.32505 0.09853 0.0
H510 H 0.46181 0.29147 0.06023 0.0
H511 H 0.46493 0.31659 0.04337 0.0
H512 H 0.43605 0.37137 0.98044 0.0
H513 H 0.44575 0.3705 1.0075 0.0
H514 H 0.48006 0.41984 0.97413 0.0
H515 H 0.48939 0.41932 1.00118 0.0
H516 H 0.4709 0.44939 0.07405 0.0
H517 H 0.48946 0.43239 0.11656 0.0
H518 H 0.49206 0.40851 0.10373 0.0
H519 H 0.47339 0.42519 0.06109 0.0
C520 C 1.00596 0.9507 0.20881 0.0
C521 C 1.00518 0.93804 0.19865 0.0
C522 C 0.03718 0.94968 0.19905 0.0
C523 C 0.02067 0.93752 0.19385 0.0
C524 C 0.03788 0.96291 0.20846 0.0
C525 C 0.02243 0.96339 0.2133 0.0
U526 U 0.95642 0.94228 0.21092 0.0
O527 O 0.93887 0.92765 0.22868 0.0
O528 O 0.94478 0.95539 0.22517 0.0
C529 C 0.93714 0.94134 0.23359 0.0
C530 C 0.99028 0.94972 0.21641 0.0
C531 C 0.93827 0.94313 0.25046 0.0
C532 C 0.94373 0.93313 0.27625 0.0
C533 C 0.94576 0.93388 0.26053 0.0
C534 C 0.92795 0.952 0.27245 0.0
C535 C 0.93425 0.94164 0.28233 0.0
C536 C 0.92976 0.95256 0.25668 0.0
C537 C 0.92636 0.92815 0.17263 0.0
C538 C 0.89552 0.90933 0.16783 0.0
C539 C 0.91323 0.92263 0.14656 0.0
C540 C 0.92772 0.93087 0.1568 0.0
C541 C 0.89711 0.9113 0.15196 0.0
C542 C 0.90998 0.91766 0.17807 0.0
C543 C 0.94266 0.93441 0.18284 0.0
O544 O 0.9839 0.96157 0.21259 0.0
O545 O 0.97802 0.93417 0.21838 0.0
O546 O 0.94476 0.92316 0.19299 0.0
O547 O 0.94835 0.95021 0.18803 0.0
H548 H 0.99266 0.92813 0.19493 0.0
H549 H 0.0198 0.92725 0.18653 0.0
H550 H 0.05044 0.97246 0.21257 0.0
H551 H 0.02342 0.97326 0.22113 0.0
H552 H 0.94904 0.92535 0.28365 0.0
H553 H 0.95256 0.92661 0.2562 0.0
H554 H 0.92083 0.95892 0.27685 0.0
H555 H 0.92385 0.9598 0.24925 0.0
H556 H 0.88317 0.90088 0.1723 0.0
H557 H 0.91479 0.92456 0.13443 0.0
H558 H 0.94023 0.93883 0.15232 0.0
H559 H 0.90855 0.91537 0.19019 0.0
C560 C 0.05039 0.68849 0.58653 0.0
C561 C 0.05283 0.68715 0.60249 0.0
C562 C 0.05889 0.71801 0.60456 0.0
C563 C 0.05697 0.70181 0.61147 0.0
C564 C 0.05527 0.7189 0.58878 0.0
C565 C 0.05103 0.70432 0.5799 0.0
U566 U 0.0475 0.64265 0.57523 0.0
O567 O 0.03618 0.62874 0.55375 0.0
O568 O 0.06445 0.63767 0.55995 0.0
C569 C 0.05153 0.62984 0.54986 0.0
C570 C 0.04966 0.67481 0.57619 0.0
C571 C 0.05539 0.63277 0.53352 0.0
C572 C 0.07425 0.64886 0.51333 0.0
C573 C 0.06871 0.64794 0.52812 0.0
C574 C 0.0527 0.61983 0.50886 0.0
C575 C 0.06654 0.63466 0.50367 0.0
C576 C 0.04723 0.61889 0.52362 0.0
C577 C 0.04375 0.60583 0.60481 0.0
C578 C 0.0573 0.58499 0.60367 0.0
C579 C 0.04081 0.58428 0.62526 0.0
C580 C 0.03686 0.59801 0.61863 0.0
C581 C 0.05178 0.57827 0.61817 0.0
C582 C 0.05327 0.59866 0.59701 0.0
C583 C 0.04337 0.6229 0.60011 0.0
O584 O 0.06332 0.67054 0.5773 0.0
O585 O 0.03468 0.66146 0.57382 0.0
O586 O 0.0301 0.62303 0.59092 0.0
O587 O 0.05851 0.6348 0.59643 0.0
H588 H 0.05246 0.67509 0.6079 0.0
H589 H 0.05984 0.70081 0.62362 0.0
H590 H 0.05681 0.7312 0.58318 0.0
H591 H 0.04928 0.70573 0.56764 0.0
H592 H 0.08487 0.66047 0.50957 0.0
H593 H 0.07529 0.65882 0.53551 0.0
H594 H 0.04651 0.60873 0.50164 0.0
H595 H 0.03708 0.60698 0.52753 0.0
H596 H 0.06584 0.58057 0.59808 0.0
H597 H 0.03653 0.57935 0.63649 0.0
H598 H 0.02947 0.60331 0.62483 0.0
H599 H 0.05865 0.60444 0.58629 0.0
C600 C 1.00581 0.64381 0.78778 0.0
C601 C 0.99657 0.65469 0.78506 0.0
C602 C 0.98784 0.64968 0.81133 0.0
C603 C 0.98765 0.65764 0.79681 0.0
C604 C 0.99728 0.63903 0.81395 0.0
C605 C 1.00616 0.63616 0.80232 0.0
U606 U 0.02021 0.63874 0.74696 0.0
O607 O 0.04455 0.63558 0.74244 0.0
O608 O 0.01876 0.61323 0.7402 0.0
C609 C 0.03582 0.61917 0.73919 0.0
C610 C 1.01416 0.63882 0.77579 0.0
C611 C 0.04463 0.60814 0.73481 0.0
C612 C 0.04902 0.58114 0.73795 0.0
C613 C 0.04257 0.59278 0.74313 0.0
C614 C 0.06006 0.6003 0.7162 0.0
C615 C 0.05749 0.58465 0.72431 0.0
C616 C 0.05371 0.61202 0.72147 0.0
C617 C 1.00318 0.66464 0.71284 0.0
C618 C 1.00886 0.68193 0.68919 0.0
C619 C 0.97946 0.66954 0.69798 0.0
C620 C 0.98547 0.6623 0.71077 0.0
C621 C 0.99101 0.67912 0.68694 0.0
C622 C 1.01489 0.67471 0.70205 0.0
C623 C 1.00898 0.65515 0.72529 0.0
O624 O 1.00365 0.6274 0.76609 0.0
O625 O 0.02793 0.65063 0.76963 0.0
O626 O 0.02465 0.66211 0.73236 0.0
O627 O 0.99896 0.63961 0.73031 0.0
H628 H 0.99603 0.66063 0.77389 0.0
H629 H 0.98046 0.66592 0.79455 0.0
H630 H 0.99763 0.63276 0.82501 0.0
H631 H 1.01308 0.62761 0.80462 0.0
H632 H 0.04691 0.56912 0.74431 0.0
H633 H 0.03558 0.58958 0.75344 0.0
H634 H 0.06642 0.60314 0.70557 0.0
H635 H 0.05524 0.62373 0.7148 0.0
H636 H 0.01796 0.6893 0.6808 0.0
H637 H 0.96567 0.66734 0.69649 0.0
H638 H 0.9762 0.65457 0.7189 0.0
H639 H 0.02857 0.67647 0.70328 0.0
C640 C 0.05013 0.1881 0.46174 0.0
C641 C 0.0438 0.18633 0.44631 0.0
C642 C 0.05587 0.21788 0.44246 0.0
C643 C 0.04652 0.20114 0.43676 0.0
C644 C 0.06206 0.21948 0.45784 0.0
C645 C 0.05922 0.20482 0.46733 0.0
U646 U 0.04624 0.14119 0.47214 0.0
O647 O 0.05935 0.1315 0.4909 0.0
O648 O 0.03059 0.12216 0.48919 0.0
C649 C 0.04462 0.12135 0.49676 0.0
C650 C 0.04763 0.17307 0.47246 0.0
C651 C 0.04516 0.11976 0.51356 0.0
C652 C 0.04717 0.13129 0.53869 0.0
C653 C 0.04368 0.13211 0.52281 0.0
C654 C 0.05288 0.10545 0.53617 0.0
C655 C 0.05242 0.11827 0.54541 0.0
C656 C 0.04919 0.10615 0.52044 0.0
C657 C 0.04946 0.11408 0.43897 0.0
C658 C 0.05818 0.08955 0.43878 0.0
C659 C 0.04772 0.09993 0.41547 0.0
C660 C 0.04547 0.11264 0.42337 0.0
C661 C 0.05407 0.08787 0.42284 0.0
C662 C 0.05562 0.10231 0.44679 0.0
C663 C 0.0486 0.12916 0.44602 0.0
O664 O 0.03283 0.15935 0.47086 0.0
O665 O 0.06139 0.1691 0.47553 0.0
O666 O 0.06233 0.13847 0.45476 0.0
O667 O 0.03352 0.12724 0.45114 0.0
H668 H 0.03675 0.17358 0.44167 0.0
H669 H 0.04142 0.19956 0.42498 0.0
H670 H 0.06909 0.23221 0.46255 0.0
H671 H 0.06415 0.20656 0.47916 0.0
H672 H 0.04688 0.14141 0.5456 0.0
H673 H 0.04064 0.14275 0.51774 0.0
H674 H 0.05701 0.0954 0.54105 0.0
H675 H 0.05041 0.09649 0.5135 0.0
H676 H 0.06424 0.08169 0.44507 0.0
H677 H 0.04495 0.10063 0.40345 0.0
H678 H 0.04113 0.12188 0.41705 0.0
H679 H 0.05912 0.10342 0.45892 0.0
C680 C 0.51441 0.42887 0.23893 0.0
C681 C 0.52166 0.43597 0.225 0.0
C682 C 0.49724 0.44471 0.21771 0.0
C683 C 0.51319 0.44387 0.21454 0.0
C684 C 0.48983 0.43735 0.23149 0.0
C685 C 0.49841 0.42964 0.24203 0.0
U686 U 0.53833 0.39844 0.24974 0.0
O687 O 0.5607 0.40097 0.26614 0.0
O688 O 0.53518 0.37931 0.26876 0.0
C689 C 0.55162 0.38693 0.27401 0.0
C690 C 0.52323 0.42067 0.25036 0.0
C691 C 0.55578 0.38632 0.29065 0.0
C692 C 0.56817 0.40025 0.31486 0.0
C693 C 0.56139 0.40099 0.29976 0.0
C694 C 0.56294 0.37005 0.31206 0.0
C695 C 0.56948 0.38488 0.32094 0.0
C696 C 0.55619 0.37078 0.29709 0.0
C697 C 0.54513 0.37383 0.21622 0.0
C698 C 0.5682 0.36627 0.20746 0.0
C699 C 0.53802 0.35102 0.19794 0.0
C700 C 0.53273 0.36084 0.20711 0.0
C701 C 0.55587 0.35419 0.19754 0.0
C702 C 0.56287 0.37603 0.21677 0.0
C703 C 0.53941 0.38617 0.22327 0.0
O704 O 0.51493 0.40391 0.25284 0.0
O705 O 0.54027 0.42539 0.24973 0.0
O706 O 0.55164 0.40049 0.22872 0.0
O707 O 0.52595 0.3794 0.23176 0.0
H708 H 0.53385 0.4354 0.22216 0.0
H709 H 0.51897 0.44916 0.20386 0.0
H710 H 0.47743 0.43761 0.23407 0.0
H711 H 0.49249 0.42421 0.25263 0.0
H712 H 0.57324 0.41186 0.3215 0.0
H713 H 0.56125 0.41314 0.29504 0.0
H714 H 0.564 0.35814 0.31644 0.0
H715 H 0.55213 0.35937 0.29025 0.0
H716 H 0.58204 0.36887 0.20732 0.0
H717 H 0.52834 0.3418 0.19033 0.0
H718 H 0.51901 0.35893 0.20643 0.0
H719 H 0.57274 0.38586 0.22375 0.0
C720 C 0.46346 0.83406 0.97195 0.0
C721 C 0.47065 0.83524 0.9578 0.0
C722 C 0.46025 0.80357 0.95732 0.0
C723 C 0.46916 0.82008 0.95059 0.0
C724 C 0.45324 0.80258 0.97144 0.0
C725 C 0.45483 0.81759 0.97864 0.0
U726 U 0.46461 0.88083 0.97638 0.0
O727 O 0.44876 0.88827 0.99108 0.0
O728 O 0.47742 0.89907 0.99507 0.0
C729 C 0.46239 0.89827 0.99954 0.0
C730 C 0.46458 0.84939 0.98033 0.0
C731 C 0.46013 0.89761 0.01612 0.0
C732 C 0.4576 0.88361 0.04138 0.0
C733 C 0.4617 0.8845 0.02608 0.0
C734 C 0.45074 0.90904 0.03697 0.0
C735 C 0.45168 0.89568 0.04686 0.0
C736 C 0.45499 0.91003 0.02183 0.0
C737 C 0.46178 0.90764 0.93846 0.0
C738 C 0.46901 0.93792 0.93022 0.0
C739 C 0.44976 0.91467 0.91414 0.0
C740 C 0.45136 0.90247 0.92489 0.0
C741 C 0.45884 0.93253 0.91642 0.0
C742 C 0.47039 0.92552 0.94126 0.0
C743 C 0.46398 0.8937 0.94846 0.0
O744 O 0.47905 0.86354 0.98 0.0
O745 O 0.4503 0.85264 0.9795 0.0
O746 O 0.44995 0.88292 0.95492 0.0
O747 O 0.47859 0.89705 0.95711 0.0
H748 H 0.4774 0.84778 0.95238 0.0
H749 H 0.47485 0.82121 0.93977 0.0
H750 H 0.44651 0.79008 0.97696 0.0
H751 H 0.44928 0.8163 0.98955 0.0
H752 H 0.45829 0.87309 0.04877 0.0
H753 H 0.46558 0.87473 0.02193 0.0
H754 H 0.44614 0.91841 0.04087 0.0
H755 H 0.45368 0.92024 0.01437 0.0
H756 H 0.47631 0.95159 0.93221 0.0
H757 H 0.44201 0.91009 0.90357 0.0
H758 H 0.44477 0.88884 0.92235 0.0
H759 H 0.47852 0.92986 0.95168 0.0
C760 C 0.98659 0.37236 0.80685 0.0
C761 C 0.98569 0.36631 0.82207 0.0
C762 C 0.01803 0.37753 0.8258 0.0
C763 C 1.00112 0.36831 0.83124 0.0
C764 C 0.01856 0.38397 0.81057 0.0
C765 C 1.0032 0.3811 0.80122 0.0
U766 U 0.93612 0.35818 0.79528 0.0
O767 O 0.92361 0.36981 0.77745 0.0
O768 O 0.92126 0.34311 0.77524 0.0
C769 C 0.91766 0.35603 0.76899 0.0
C770 C 0.9707 0.36885 0.79622 0.0
C771 C 0.91899 0.35914 0.7523 0.0
C772 C 0.93468 0.37464 0.73028 0.0
C773 C 0.93465 0.37014 0.74592 0.0
C774 C 0.90367 0.35661 0.72711 0.0
C775 C 0.91907 0.36825 0.72083 0.0
C776 C 0.90365 0.35212 0.74268 0.0
C777 C 0.90317 0.34442 0.82827 0.0
C778 C 0.87446 0.34532 0.83087 0.0
C779 C 0.88783 0.33336 0.85145 0.0
C780 C 0.90218 0.33642 0.84279 0.0
C781 C 0.87404 0.33815 0.84577 0.0
C782 C 0.88897 0.3485 0.82218 0.0
C783 C 0.92011 0.35013 0.82095 0.0
O784 O 0.95986 0.35256 0.7947 0.0
O785 O 0.96251 0.37939 0.79642 0.0
O786 O 0.9263 0.36587 0.81486 0.0
O787 O 0.92312 0.33879 0.81319 0.0
H788 H 0.97303 0.35932 0.82667 0.0
H789 H 0.99932 0.36149 0.84207 0.0
H790 H 0.03105 0.39086 0.80564 0.0
H791 H 1.00433 0.38561 0.78943 0.0
H792 H 0.94671 0.38365 0.72567 0.0
H793 H 0.94665 0.37572 0.75309 0.0
H794 H 0.89148 0.35158 0.72009 0.0
H795 H 0.89141 0.34365 0.74733 0.0
H796 H 0.86393 0.34907 0.82624 0.0
H797 H 0.88781 0.32781 0.86286 0.0
H798 H 0.91295 0.33322 0.84777 0.0
H799 H 0.88939 0.35469 0.81101 0.0
C800 C 0.3169 0.21127 0.54295 0.0
C801 C 0.32308 0.21632 0.55797 0.0
C802 C 0.3117 0.23912 0.55514 0.0
C803 C 0.32046 0.23015 0.56403 0.0
C804 C 0.30462 0.23337 0.54047 0.0
C805 C 0.30722 0.21957 0.53444 0.0
U806 U 0.33538 0.17609 0.5321 0.0
O807 O 0.3571 0.18516 0.517 0.0
O808 O 0.33138 0.16582 0.50885 0.0
C809 C 0.34741 0.17605 0.50554 0.0
C810 C 0.32331 0.20032 0.53475 0.0
C811 C 0.3563 0.17111 0.49404 0.0
C812 C 0.36753 0.17699 0.46886 0.0
C813 C 0.35768 0.17959 0.47981 0.0
C814 C 0.37519 0.15761 0.48635 0.0
C815 C 0.37538 0.16475 0.47126 0.0
C816 C 0.36546 0.16039 0.49742 0.0
C817 C 0.33965 0.14412 0.56768 0.0
C818 C 0.34987 0.12182 0.57773 0.0
C819 C 0.34082 0.13771 0.59493 0.0
C820 C 0.33684 0.14706 0.58254 0.0
C821 C 0.3478 0.12533 0.59268 0.0
C822 C 0.34578 0.13114 0.5653 0.0
C823 C 0.33798 0.15586 0.55505 0.0
O824 O 0.33983 0.20263 0.53753 0.0
O825 O 0.31291 0.18436 0.53119 0.0
O826 O 0.32416 0.15136 0.54527 0.0
O827 O 0.35046 0.17112 0.55247 0.0
H828 H 0.33074 0.21024 0.56468 0.0
H829 H 0.32598 0.23438 0.57537 0.0
H830 H 0.2979 0.24014 0.5334 0.0
H831 H 0.30261 0.21611 0.52274 0.0
H832 H 0.3694 0.18536 0.45886 0.0
H833 H 0.3517 0.18892 0.47733 0.0
H834 H 0.38307 0.1504 0.49017 0.0
H835 H 0.36559 0.15465 0.50874 0.0
H836 H 0.35527 0.11235 0.57574 0.0
H837 H 0.33912 0.14062 0.60635 0.0
H838 H 0.33216 0.15704 0.58461 0.0
H839 H 0.34809 0.12872 0.55391 0.0
C840 C 0.52983 0.67479 0.32935 0.0
C841 C 0.53206 0.68274 0.34346 0.0
C842 C 0.50137 0.66534 0.34827 0.0
C843 C 0.51782 0.67822 0.35277 0.0
C844 C 0.49939 0.65745 0.33425 0.0
C845 C 0.51338 0.66216 0.32491 0.0
U846 U 0.57836 0.68882 0.31981 0.0
O847 O 0.5893 0.67651 0.30459 0.0
O848 O 0.59207 0.70338 0.29973 0.0
C849 C 0.59483 0.69005 0.29523 0.0
C850 C 0.54408 0.67912 0.31885 0.0
C851 C 0.59217 0.68642 0.27876 0.0
C852 C 0.57779 0.66672 0.25801 0.0
C853 C 0.57799 0.67192 0.27288 0.0
C854 C 0.60524 0.6911 0.25429 0.0
C855 C 0.5917 0.67595 0.24879 0.0
C856 C 0.60549 0.69624 0.26918 0.0
C857 C 0.61364 0.69768 0.35366 0.0
C858 C 0.64562 0.70931 0.35441 0.0
C859 C 0.63025 0.69103 0.37522 0.0
C860 C 0.61428 0.68964 0.36791 0.0
C861 C 0.64611 0.70089 0.36864 0.0
C862 C 0.62941 0.70752 0.34683 0.0
C863 C 0.59611 0.69475 0.3464 0.0
O864 O 0.55503 0.69544 0.31759 0.0
O865 O 0.55185 0.66817 0.31916 0.0
O866 O 0.58744 0.67918 0.34107 0.0
O867 O 0.59414 0.70715 0.33758 0.0
H868 H 0.54467 0.69249 0.34718 0.0
H869 H 0.51963 0.68476 0.36339 0.0
H870 H 0.48683 0.64769 0.3304 0.0
H871 H 0.51131 0.6559 0.31409 0.0
H872 H 0.56717 0.65506 0.25392 0.0
H873 H 0.56753 0.66414 0.28001 0.0
H874 H 0.61606 0.6984 0.24735 0.0
H875 H 0.6166 0.7074 0.27348 0.0
H876 H 0.6577 0.71716 0.3492 0.0
H877 H 0.63023 0.68453 0.38622 0.0
H878 H 0.6023 0.68206 0.37339 0.0
H879 H 0.62919 0.71377 0.33575 0.0
C880 C 0.13058 0.80746 0.03969 0.0
C881 C 0.12662 0.82226 0.03899 0.0
C882 C 0.1253 0.82307 0.01082 0.0
C883 C 0.12355 0.82969 0.02482 0.0
C884 C 0.12694 0.80684 0.01198 0.0
C885 C 0.12994 0.79944 0.02606 0.0
U886 U 0.1407 0.80535 0.08386 0.0
O887 O 0.13765 0.78248 0.09895 0.0
O888 O 0.16383 0.80277 0.09617 0.0
C889 C 0.15458 0.78784 0.1027 0.0
C890 C 0.1363 0.80053 0.05417 0.0
C891 C 0.16249 0.77475 0.10458 0.0
C892 C 0.17178 0.75323 0.09501 0.0
C893 C 0.16364 0.76514 0.09247 0.0
C894 C 0.1775 0.76036 0.12168 0.0
C895 C 0.1788 0.75078 0.10967 0.0
C896 C 0.16946 0.77219 0.11915 0.0
C897 C 0.13186 0.83786 0.10906 0.0
C898 C 0.14341 0.84804 0.13469 0.0
C899 C 0.12335 0.85882 0.1205 0.0
C900 C 0.12217 0.84832 0.10839 0.0
C901 C 0.13429 0.85914 0.13361 0.0
C902 C 0.14221 0.83744 0.12246 0.0
C903 C 0.13199 0.82909 0.09499 0.0
O904 O 0.15106 0.81085 0.06111 0.0
O905 O 0.12426 0.79191 0.0637 0.0
O906 O 0.12106 0.81284 0.09352 0.0
O907 O 0.14738 0.83241 0.08979 0.0
H908 H 0.12615 0.82825 0.04941 0.0
H909 H 0.11989 0.8405 0.02542 0.0
H910 H 0.12647 0.79991 1.00187 0.0
H911 H 0.13223 0.78758 0.02624 0.0
H912 H 0.1726 0.74593 0.08559 0.0
H913 H 0.15835 0.76689 0.08113 0.0
H914 H 0.18276 0.75868 0.13306 0.0
H915 H 0.16875 0.77947 0.12865 0.0
H916 H 0.15205 0.8482 0.14465 0.0
H917 H 0.11639 0.8674 0.11933 0.0
H918 H 0.1142 0.84894 0.09815 0.0
H919 H 0.14983 0.82948 0.12324 0.0
C920 C 0.80885 0.01667 0.62854 0.0
C921 C 0.80865 1.00194 0.6215 0.0
C922 C 0.83748 1.00609 0.63402 0.0
C923 C 0.82297 0.99685 0.62404 0.0
C924 C 0.83751 0.02073 0.64098 0.0
C925 C 0.82346 0.02597 0.63823 0.0
U926 U 0.76013 0.01249 0.62206 0.0
O927 O 0.74766 0.02761 0.63239 0.0
O928 O 0.74909 0.02876 0.60759 0.0
C929 C 0.74405 0.03421 0.61929 0.0
C930 C 0.79463 0.02331 0.62573 0.0
C931 C 0.74543 0.05246 0.61899 0.0
C932 C 0.75782 0.08189 0.62861 0.0
C933 C 0.75869 0.06557 0.62744 0.0
C934 C 0.73089 0.07245 0.61248 0.0
C935 C 0.74369 0.08532 0.6214 0.0
C936 C 0.73174 0.05622 0.61132 0.0
C937 C 0.72299 0.96563 0.62158 0.0
C938 C 0.6924 0.95557 0.62774 0.0
C939 C 0.70389 0.93499 0.62034 0.0
C940 C 0.7202 0.94852 0.61839 0.0
C941 C 0.69001 0.93832 0.62545 0.0
C942 C 0.70882 0.96916 0.62586 0.0
C943 C 0.74121 0.97883 0.62213 0.0
O944 O 0.78592 0.0208 0.61231 0.0
O945 O 0.78454 0.02129 0.63699 0.0
O946 O 0.74669 0.98794 0.63452 0.0
O947 O 0.74676 0.98805 0.60964 0.0
H948 H 0.79758 0.99453 0.61392 0.0
H949 H 0.82273 0.98573 0.61824 0.0
H950 H 0.84861 0.02831 0.64846 0.0
H951 H 0.8241 0.03749 0.64364 0.0
H952 H 0.76792 0.09167 0.63547 0.0
H953 H 0.76938 0.06304 0.63349 0.0
H954 H 0.71988 0.07477 0.60683 0.0
H955 H 0.72128 0.04632 0.60485 0.0
H956 H 0.68182 0.9584 0.63164 0.0
H957 H 0.70231 0.9218 0.61846 0.0
H958 H 0.73092 0.94548 0.61509 0.0
H959 H 0.71065 0.98227 0.62836 0.0
C960 C 0.76785 1.00116 0.42667 0.0
C961 C 0.76409 0.98408 0.42277 0.0
C962 C 0.73224 0.97747 0.4203 0.0
C963 C 0.74669 0.97261 0.4192 0.0
C964 C 0.73671 0.99531 0.42274 0.0
C965 C 0.75405 1.00674 0.42629 0.0
U966 U 0.81795 0.01397 0.43165 0.0
O967 O 0.83903 0.0361 0.4216 0.0
O968 O 0.83821 0.03344 0.44648 0.0
C969 C 0.84597 0.04305 0.4348 0.0
C970 C 0.78608 0.01384 0.42972 0.0
C971 C 0.8519 0.06218 0.43552 0.0
C972 C 0.85483 0.08984 0.42307 0.0
C973 C 0.84596 0.07177 0.42446 0.0
C974 C 0.87459 0.08924 0.44469 0.0
C975 C 0.86969 0.09863 0.43276 0.0
C976 C 0.86586 0.07117 0.44598 0.0
C977 C 0.83355 0.9763 0.4263 0.0
C978 C 0.8628 0.97585 0.42803 0.0
C979 C 0.83841 0.95277 0.41541 0.0
C980 C 0.82716 0.96062 0.41863 0.0
C981 C 0.85634 0.96032 0.41995 0.0
C982 C 0.85147 0.98389 0.4311 0.0
C983 C 0.82103 0.9844 0.42822 0.0
O984 O 0.79427 0.01186 0.44269 0.0
O985 O 0.79608 0.0176 0.41817 0.0
O986 O 0.8191 0.9944 0.41681 0.0
O987 O 0.8208 0.99035 0.44164 0.0
H988 H 0.77467 0.97973 0.42207 0.0
H989 H 0.74517 0.96028 0.41503 0.0
H990 H 0.72697 1.00089 0.42156 0.0
H991 H 0.75671 0.02016 0.42839 0.0
H992 H 0.8507 0.09681 0.41386 0.0
H993 H 0.83515 0.06524 0.4163 0.0
H994 H 0.88595 0.09574 0.45236 0.0
H995 H 0.87074 0.06412 0.45458 0.0
H996 H 0.8766 0.98186 0.43167 0.0
H997 H 0.83314 0.94082 0.40922 0.0
H998 H 0.81339 0.95456 0.41484 0.0
H999 H 0.85668 0.99604 0.437 0.0
C1000 C 0.76434 0.95629 0.09934 0.0
C1001 C 0.78136 0.96351 0.09412 0.0
C1002 C 0.78182 0.93458 0.09294 0.0
C1003 C 0.78991 0.95274 0.09074 0.0
C1004 C 0.7646 0.92747 0.0977 0.0
C1005 C 0.75595 0.93818 0.10075 0.0
U1006 U 0.76477 0.99976 0.11192 0.0
O1007 O 0.74477 0.01122 0.10933 0.0
O1008 O 0.75395 1.00506 0.13223 0.0
C1009 C 0.744 0.01175 0.12413 0.0
C1010 C 0.75555 0.96718 0.10457 0.0
C1011 C 0.72769 0.01122 0.13037 0.0
C1012 C 0.69664 0.99774 0.13558 0.0
C1013 C 0.71165 0.9968 0.12985 0.0
C1014 C 0.71385 0.02688 0.14328 0.0
C1015 C 0.69694 0.01346 0.14119 0.0
C1016 C 0.72867 0.02598 0.13759 0.0
C1017 C 0.81174 0.03787 0.11111 0.0
C1018 C 0.82294 0.06882 0.11583 0.0
C1019 C 0.84304 0.05431 0.11604 0.0
C1020 C 0.829 0.03876 0.11263 0.0
C1021 C 0.84023 0.06949 0.11776 0.0
C1022 C 0.80872 0.05303 0.11263 0.0
C1023 C 0.79765 0.02063 0.10837 0.0
O1024 O 0.76036 0.97274 0.1185 0.0
O1025 O 0.75382 0.97911 0.09497 0.0
O1026 O 0.78479 0.01923 0.09805 0.0
O1027 O 0.79248 0.01053 0.12045 0.0
H1028 H 0.78819 0.97745 0.09302 0.0
H1029 H 0.80313 0.95863 0.087 0.0
H1030 H 0.75797 0.91359 0.09948 0.0
H1031 H 0.74284 0.93229 0.10472 0.0
H1032 H 0.68516 0.98583 0.13583 0.0
H1033 H 0.71073 0.98479 0.12519 0.0
H1034 H 0.71605 0.0383 0.14953 0.0
H1035 H 0.74111 0.03699 0.13895 0.0
H1036 H 0.82048 0.08042 0.11698 0.0
H1037 H 0.8562 0.0545 0.11733 0.0
H1038 H 0.83163 0.02727 0.11137 0.0
H1039 H 0.79548 0.05263 0.11148 0.0
C1040 C 0.67535 0.95629 0.87645 0.0
C1041 C 0.6592 0.95395 0.8821 0.0
C1042 C 0.65142 0.92264 0.88482 0.0
C1043 C 0.64727 0.93722 0.88617 0.0
C1044 C 0.66745 0.9251 0.87893 0.0
C1045 C 0.6792 0.94169 0.87474 0.0
U1046 U 0.69401 1.00676 0.87135 0.0
O1047 O 0.71981 0.02565 0.8798 0.0
O1048 O 0.71307 0.02336 0.85519 0.0
C1049 C 0.72505 0.03101 0.86608 0.0
C1050 C 0.68896 0.97366 0.87306 0.0
C1051 C 0.74364 0.03463 0.86374 0.0
C1052 C 0.76767 0.02607 0.85916 0.0
C1053 C 0.74964 0.02174 0.86061 0.0
C1054 C 0.77369 0.05609 0.86382 0.0
C1055 C 0.77988 0.04329 0.86102 0.0
C1056 C 0.75581 0.05181 0.86514 0.0
C1057 C 0.66249 0.0302 0.87809 0.0
C1058 C 0.66845 0.06093 0.88005 0.0
C1059 C 0.63948 0.03929 0.88437 0.0
C1060 C 0.64512 0.0262 0.88149 0.0
C1061 C 0.65105 0.05678 0.8838 0.0
C1062 C 0.67418 0.0477 0.8773 0.0
C1063 C 0.66781 0.01556 0.87638 0.0
O1064 O 0.68656 0.98164 0.86031 0.0
O1065 O 0.6952 0.98413 0.88456 0.0
O1066 O 0.67857 0.01321 0.88723 0.0
O1067 O 0.67111 0.01264 0.86272 0.0
H1068 H 0.65594 0.96503 0.88354 0.0
H1069 H 0.63494 0.93567 0.89057 0.0
H1070 H 0.67093 0.91411 0.87767 0.0
H1071 H 0.69154 0.94315 0.8704 0.0
H1072 H 0.77215 0.01601 0.85689 0.0
H1073 H 0.74048 1.00839 0.85945 0.0
H1074 H 0.78278 0.06943 0.8652 0.0
H1075 H 0.75149 0.06197 0.86749 0.0
H1076 H 0.67757 0.07435 0.87941 0.0
H1077 H 0.62602 0.03576 0.88711 0.0
H1078 H 0.6359 0.01282 0.88217 0.0
H1079 H 0.68767 0.05108 0.87472 0.0
C1080 C 0.56913 0.68545 0.98243 0.0
C1081 C 0.56133 0.683 0.96746 0.0
C1082 C 0.57169 0.71438 0.96302 0.0
C1083 C 0.5625 0.69738 0.95785 0.0
C1084 C 0.57954 0.71669 0.9779 0.0
C1085 C 0.57826 0.70241 0.98747 0.0
U1086 U 0.56623 0.63887 0.99378 0.0
O1087 O 0.58068 0.63073 0.01264 0.0
O1088 O 0.55194 0.62113 0.01207 0.0
C1089 C 0.56642 0.62134 0.01954 0.0
C1090 C 0.56776 0.67084 0.99329 0.0
C1091 C 0.56772 0.6223 0.03631 0.0
C1092 C 0.56582 0.63502 0.05992 0.0
C1093 C 0.56374 0.63443 0.04392 0.0
C1094 C 0.57566 0.61138 0.06074 0.0
C1095 C 0.57207 0.62364 0.06842 0.0
C1096 C 0.57348 0.61071 0.04488 0.0
C1097 C 0.56667 0.6083 0.96272 0.0
C1098 C 0.56438 0.57848 0.96659 0.0
C1099 C 0.57294 0.59364 0.94246 0.0
C1100 C 0.5715 0.60827 0.94788 0.0
C1101 C 0.56956 0.57869 0.95178 0.0
C1102 C 0.56304 0.59328 0.97208 0.0
C1103 C 0.56616 0.6244 0.96809 0.0
O1104 O 0.55292 0.65707 0.99278 0.0
O1105 O 0.58167 0.66699 0.99536 0.0
O1106 O 0.58053 0.63469 0.97554 0.0
O1107 O 0.55174 0.62312 0.97412 0.0
H1108 H 0.55421 0.67004 0.96327 0.0
H1109 H 0.55619 0.69529 0.94645 0.0
H1110 H 0.58651 0.72963 0.9822 0.0
H1111 H 0.58431 0.70464 0.99896 0.0
H1112 H 0.5629 0.64454 0.06564 0.0
H1113 H 0.55925 0.64349 0.03752 0.0
H1114 H 0.5804 0.60244 0.06706 0.0
H1115 H 0.57654 0.60121 0.03925 0.0
H1116 H 0.56171 0.56704 0.97392 0.0
H1117 H 0.57691 0.59402 0.931 0.0
H1118 H 0.57437 0.61971 0.9405 0.0
H1119 H 0.55937 0.59307 0.98362 0.0
C1120 C 0.02851 0.15706 0.80787 0.0
C1121 C 0.03162 0.15744 0.82382 0.0
C1122 C 1.00003 0.14563 0.82687 0.0
C1123 C 0.01745 0.15191 0.83327 0.0
C1124 C 0.9971 0.146 0.81096 0.0
C1125 C 1.01118 0.15167 0.80158 0.0
U1126 U 0.0771 0.17117 0.79806 0.0
O1127 O 0.08801 0.1589 0.78274 0.0
O1128 O 0.08993 0.18544 0.77755 0.0
C1129 C 0.0929 0.17222 0.77311 0.0
C1130 C 0.04271 0.16088 0.79743 0.0
C1131 C 0.08944 0.16805 0.75677 0.0
C1132 C 0.07178 0.14912 0.73644 0.0
C1133 C 0.07332 0.1557 0.75102 0.0
C1134 C 0.10196 0.16816 0.73275 0.0
C1135 C 0.08633 0.15476 0.72748 0.0
C1136 C 0.10348 0.17472 0.74728 0.0
C1137 C 0.11368 0.18376 0.83114 0.0
C1138 C 0.14452 0.18885 0.8298 0.0
C1139 C 0.13265 0.18724 0.85429 0.0
C1140 C 0.11627 0.18467 0.84703 0.0
C1141 C 0.1468 0.18901 0.8458 0.0
C1142 C 0.12797 0.18613 0.82249 0.0
C1143 C 0.09563 0.17898 0.82429 0.0
O1144 O 0.05339 0.17719 0.79558 0.0
O1145 O 0.05085 0.15021 0.7985 0.0
O1146 O 0.08791 0.16311 0.81934 0.0
O1147 O 0.09242 0.19053 0.8152 0.0
H1148 H 0.04491 0.16158 0.82892 0.0
H1149 H 0.02002 0.1519 0.84552 0.0
H1150 H 0.98383 0.14142 0.80576 0.0
H1151 H 1.00847 0.15133 0.78933 0.0
H1152 H 0.05968 0.13868 0.73266 0.0
H1153 H 0.06231 0.15037 0.75814 0.0
H1154 H 0.1134 0.17255 0.72612 0.0
H1155 H 0.11605 0.18418 0.75149 0.0
H1156 H 0.15532 0.19013 0.82309 0.0
H1157 H 0.13415 0.18729 0.86662 0.0
H1158 H 0.10541 0.18281 0.85389 0.0
H1159 H 0.1262 0.1854 0.81019 0.0
C1160 C 0.97134 0.34954 0.45709 0.0
C1161 C 0.97721 0.3508 0.44235 0.0
C1162 C 0.96683 0.31916 0.44166 0.0
C1163 C 0.97505 0.33569 0.43471 0.0
C1164 C 0.96115 0.31809 0.45636 0.0
C1165 C 0.96338 0.33305 0.46395 0.0
U1166 U 0.97472 0.39692 0.46261 0.0
O1167 O 0.9585 0.4046 0.47668 0.0
O1168 O 0.98686 0.4137 0.48239 0.0
C1169 C 0.97173 0.41342 0.48611 0.0
C1170 C 0.97282 0.36477 0.46576 0.0
C1171 C 0.96801 0.41178 0.50244 0.0
C1172 C 0.96731 0.39893 0.52809 0.0
C1173 C 0.97234 0.40062 0.513 0.0
C1174 C 0.95397 0.41972 0.52225 0.0
C1175 C 0.95775 0.40825 0.53273 0.0
C1176 C 0.9591 0.4215 0.50733 0.0
C1177 C 0.97462 0.42611 0.42579 0.0
C1178 C 0.98196 0.45689 0.41946 0.0
C1179 C 0.96349 0.43502 0.40182 0.0
C1180 C 0.96476 0.42204 0.41183 0.0
C1181 C 0.97228 0.45261 0.4053 0.0
C1182 C 0.98304 0.44369 0.42972 0.0
C1183 C 0.97608 0.41139 0.43515 0.0
O1184 O 0.98778 0.37842 0.46617 0.0
O1185 O 0.95905 0.36886 0.4645 0.0
O1186 O 0.96154 0.40047 0.44079 0.0
O1187 O 0.99017 0.41391 0.44433 0.0
H1188 H 0.98337 0.36337 0.43678 0.0
H1189 H 0.97967 0.33685 0.42342 0.0
H1190 H 0.95494 0.30556 0.462 0.0
H1191 H 0.95877 0.33171 0.47528 0.0
H1192 H 0.97032 0.38994 0.53599 0.0
H1193 H 0.97922 0.39298 0.50953 0.0
H1194 H 0.94664 0.427 0.52554 0.0
H1195 H 0.95569 0.43024 0.49944 0.0
H1196 H 0.98909 0.47036 0.42234 0.0
H1197 H 0.95617 0.4313 0.39093 0.0
H1198 H 0.9583 0.40867 0.40843 0.0
H1199 H 0.99074 0.4472 0.44046 0.0
C1200 C 0.46434 0.87929 0.78878 0.0
C1201 C 0.47206 0.88702 0.80272 0.0
C1202 C 0.45184 0.90158 0.8018 0.0
C1203 C 0.46583 0.89814 0.80919 0.0
C1204 C 0.44349 0.89306 0.78837 0.0
C1205 C 0.44977 0.88205 0.78188 0.0
U1206 U 0.49167 0.85233 0.77921 0.0
O1207 O 0.5113 0.86269 0.7623 0.0
O1208 O 0.48815 0.83856 0.75765 0.0
C1209 C 0.50262 0.85044 0.75259 0.0
C1210 C 0.47291 0.87111 0.77977 0.0
C1211 C 0.5128 0.84582 0.74201 0.0
C1212 C 0.51516 0.83926 0.71594 0.0
C1213 C 0.50507 0.84049 0.7274 0.0
C1214 C 0.5409 0.84851 0.73361 0.0
C1215 C 0.53324 0.84357 0.71887 0.0
C1216 C 0.53076 0.84955 0.74511 0.0
C1217 C 0.50577 0.83076 0.81807 0.0
C1218 C 0.52155 0.81381 0.82996 0.0
C1219 C 0.51381 0.83244 0.84527 0.0
C1220 C 0.50546 0.83713 0.83236 0.0
C1221 C 0.52269 0.82145 0.844 0.0
C1222 C 0.5132 0.8185 0.81705 0.0
C1223 C 0.50064 0.83865 0.80414 0.0
O1224 O 0.49013 0.87751 0.78105 0.0
O1225 O 0.46573 0.8542 0.77824 0.0
O1226 O 0.48655 0.83003 0.79541 0.0
O1227 O 0.51004 0.85454 0.79945 0.0
H1228 H 0.48337 0.88511 0.80821 0.0
H1229 H 0.47219 0.90442 0.81971 0.0
H1230 H 0.43257 0.89546 0.78264 0.0
H1231 H 0.44379 0.87636 0.77103 0.0
H1232 H 0.50894 0.8353 0.70472 0.0
H1233 H 0.49131 0.83791 0.72467 0.0
H1234 H 0.55479 0.85169 0.73615 0.0
H1235 H 0.53709 0.85385 0.75624 0.0
H1236 H 0.5284 0.80537 0.82874 0.0
H1237 H 0.51449 0.83844 0.85599 0.0
H1238 H 0.49967 0.8465 0.83337 0.0
H1239 H 0.51362 0.8135 0.8061 0.0
C1240 C 1.00179 0.14758 0.25775 0.0
C1241 C 0.99015 0.15594 0.25769 0.0
C1242 C 0.98742 0.15697 0.22952 0.0
C1243 C 0.98263 0.16002 0.24387 0.0
C1244 C 0.99738 0.14653 0.2301 0.0
C1245 C 1.00482 0.1424 0.24386 0.0
U1246 U 1.01324 0.14898 0.30151 0.0
O1247 O 1.01463 0.12837 0.31743 0.0
O1248 O 0.03844 0.15166 0.314 0.0
C1249 C 0.0316 0.13627 0.32071 0.0
C1250 C 1.01043 0.14353 0.27203 0.0
C1251 C 0.04187 0.12522 0.32168 0.0
C1252 C 0.04589 0.0996 0.31422 0.0
C1253 C 0.03855 0.11203 0.31129 0.0
C1254 C 0.06086 0.11399 0.33742 0.0
C1255 C 0.05661 0.10015 0.32758 0.0
C1256 C 0.05356 0.12643 0.33447 0.0
C1257 C 0.99219 0.17271 0.32567 0.0
C1258 C 0.98794 0.17051 0.35291 0.0
C1259 C 0.97659 0.1882 0.33623 0.0
C1260 C 0.98347 0.18406 0.32383 0.0
C1261 C 0.9783 0.18111 0.35078 0.0
C1262 C 0.99479 0.16625 0.34038 0.0
C1263 C 0.99649 0.16663 0.31175 0.0
O1264 O 0.02316 0.15669 0.27864 0.0
O1265 O 1.00008 0.13268 0.2818 0.0
O1266 O 0.98933 0.14984 0.30966 0.0
O1267 O 1.01273 0.17394 0.30768 0.0
H1268 H 0.9867 0.15914 0.26836 0.0
H1269 H 0.97277 0.16507 0.24496 0.0
H1270 H 0.99957 0.14137 0.21988 0.0
H1271 H 1.01297 0.13504 0.24362 0.0
H1272 H 0.04247 0.08901 0.3065 0.0
H1273 H 0.02959 0.11083 0.30134 0.0
H1274 H 0.06908 0.11465 0.34779 0.0
H1275 H 0.05631 0.13647 0.34264 0.0
H1276 H 0.98932 0.16483 0.36404 0.0
H1277 H 0.96913 0.19629 0.33432 0.0
H1278 H 0.98124 0.18911 0.31261 0.0
H1279 H 1.00145 0.15743 0.34204 0.0
C1280 C 0.53366 0.14952 0.73428 0.0
C1281 C 0.53359 0.15717 0.71962 0.0
C1282 C 0.50196 0.14001 0.71531 0.0
C1283 C 0.51784 0.1525 0.71024 0.0
C1284 C 0.50218 0.1326 0.72999 0.0
C1285 C 0.51777 0.13729 0.73931 0.0
U1286 U 0.58424 0.16458 0.74685 0.0
O1287 O 0.59814 0.17816 0.76781 0.0
O1288 O 0.59632 0.15185 0.76412 0.0
C1289 C 0.60201 0.16506 0.77323 0.0
C1290 C 0.54966 0.15384 0.74491 0.0
C1291 C 0.60158 0.16097 0.78984 0.0
C1292 C 0.59104 0.16041 0.81498 0.0
C1293 C 0.59022 0.16403 0.79919 0.0
C1294 C 0.61451 0.15078 0.81222 0.0
C1295 C 0.60317 0.15365 0.82159 0.0
C1296 C 0.61374 0.15442 0.79656 0.0
C1297 C 0.62006 0.17821 0.71741 0.0
C1298 C 0.64722 0.17331 0.71809 0.0
C1299 C 0.64022 0.19015 0.69729 0.0
C1300 C 0.6248 0.18816 0.70393 0.0
C1301 C 0.65123 0.18223 0.70401 0.0
C1302 C 0.63174 0.17133 0.72477 0.0
C1303 C 0.60197 0.17327 0.72219 0.0
O1304 O 0.55798 0.14336 0.74525 0.0
O1305 O 0.56033 0.17022 0.74632 0.0
O1306 O 0.59883 0.18453 0.72994 0.0
O1307 O 0.59412 0.15721 0.72723 0.0
H1308 H 0.54564 0.16667 0.71544 0.0
H1309 H 0.51806 0.1585 0.69899 0.0
H1310 H 0.4902 0.12304 0.73425 0.0
H1311 H 0.5174 0.13128 0.75057 0.0
H1312 H 0.58214 0.1627 0.82203 0.0
H1313 H 0.5808 0.16918 0.79432 0.0
H1314 H 0.62396 0.14562 0.81704 0.0
H1315 H 0.62276 0.15214 0.78965 0.0
H1316 H 0.65548 0.16701 0.72341 0.0
H1317 H 0.64299 0.19696 0.68638 0.0
H1318 H 0.61603 0.19356 0.69803 0.0
H1319 H 0.62842 0.16363 0.73521 0.0
C1320 C 0.18436 0.26092 0.98009 0.0
C1321 C 0.18678 0.26558 0.96461 0.0
C1322 C 0.1925 0.23977 0.96092 0.0
C1323 C 0.19091 0.25509 0.95509 0.0
C1324 C 0.19014 0.23523 0.97638 0.0
C1325 C 0.18617 0.24575 0.98588 0.0
U1326 U 0.1668 0.29552 0.9887 0.0
O1327 O 0.14895 0.29364 1.00631 0.0
O1328 O 0.17563 0.31476 1.00717 0.0
C1329 C 0.1606 0.30703 0.01354 0.0
C1330 C 0.17954 0.27128 0.99043 0.0
C1331 C 0.15657 0.31243 0.02793 0.0
C1332 C 0.14167 0.30504 0.05158 0.0
C1333 C 0.14617 0.29995 0.03825 0.0
C1334 C 0.15824 0.33513 0.04466 0.0
C1335 C 0.14743 0.32268 0.05474 0.0
C1336 C 0.16286 0.33004 0.0314 0.0
C1337 C 0.15406 0.31928 0.95275 0.0
C1338 C 0.14583 0.3441 0.95069 0.0
C1339 C 0.14953 0.33166 0.92804 0.0
C1340 C 0.1532 0.31902 0.93689 0.0
C1341 C 0.14779 0.34577 0.93473 0.0
C1342 C 0.14957 0.3314 0.95964 0.0
C1343 C 0.16012 0.30695 0.96146 0.0
O1344 O 0.18945 0.28793 0.99082 0.0
O1345 O 0.16271 0.26795 0.99036 0.0
O1346 O 0.14845 0.29391 0.96866 0.0
O1347 O 0.17541 0.31362 0.96917 0.0
H1348 H 0.18532 0.27719 0.9599 0.0
H1349 H 0.19256 0.25872 0.94315 0.0
H1350 H 0.19126 0.22345 0.98105 0.0
H1351 H 0.18433 0.24193 0.99777 0.0
H1352 H 0.13337 0.29526 0.05925 0.0
H1353 H 0.14139 0.28626 0.03594 0.0
H1354 H 0.16277 0.34881 0.04692 0.0
H1355 H 0.17095 0.33988 0.02366 0.0
H1356 H 0.14122 0.35215 0.95661 0.0
H1357 H 0.14839 0.33032 0.91583 0.0
H1358 H 0.15567 0.30915 0.93127 0.0
H1359 H 0.14903 0.33112 0.9719 0.0
C1360 C 0.3496 0.67905 0.54714 0.0
C1361 C 0.35499 0.6652 0.54643 0.0
C1362 C 0.36436 0.66777 0.57348 0.0
C1363 C 0.36226 0.65953 0.55957 0.0
C1364 C 0.35875 0.68142 0.57413 0.0
C1365 C 0.35138 0.68694 0.5611 0.0
U1366 U 0.34021 0.68269 0.50379 0.0
O1367 O 0.31892 0.68783 0.49039 0.0
O1368 O 0.34644 0.70622 0.4892 0.0
C1369 C 0.32994 0.70237 0.48442 0.0
C1370 C 0.34322 0.68639 0.53344 0.0
C1371 C 0.32407 0.71669 0.48045 0.0
C1372 C 0.32995 0.74755 0.47864 0.0
C1373 C 0.3334 0.73364 0.48564 0.0
C1374 C 0.30709 0.72762 0.46202 0.0
C1375 C 0.31721 0.74468 0.46638 0.0
C1376 C 0.31055 0.71381 0.46894 0.0
C1377 C 0.35052 0.65315 0.47744 0.0
C1378 C 0.36385 0.65888 0.45309 0.0
C1379 C 0.34903 0.62927 0.46227 0.0
C1380 C 0.34488 0.6353 0.47525 0.0
C1381 C 0.35909 0.64104 0.45137 0.0
C1382 C 0.35948 0.6649 0.46597 0.0
C1383 C 0.34882 0.65913 0.49244 0.0
O1384 O 0.35538 0.69579 0.52432 0.0
O1385 O 0.32868 0.6761 0.52612 0.0
O1386 O 0.33285 0.65594 0.49624 0.0
O1387 O 0.36025 0.67459 0.4963 0.0
H1388 H 0.3538 0.65898 0.53573 0.0
H1389 H 0.36642 0.6489 0.55887 0.0
H1390 H 0.36016 0.68786 0.58474 0.0
H1391 H 0.34734 0.69765 0.56187 0.0
H1392 H 0.33779 0.76062 0.48229 0.0
H1393 H 0.3439 0.73625 0.49449 0.0
H1394 H 0.29717 0.7251 0.45265 0.0
H1395 H 0.30333 0.70091 0.46462 0.0
H1396 H 0.37139 0.66815 0.44469 0.0
H1397 H 0.34505 0.61545 0.46104 0.0
H1398 H 0.3379 0.62601 0.48389 0.0
H1399 H 0.36378 0.67875 0.46726 0.0
C1400 C 0.72452 0.49349 0.94148 0.0
C1401 C 0.72677 0.50958 0.93429 0.0
C1402 C 0.69538 0.50263 0.93449 0.0
C1403 C 0.71228 0.51411 0.93082 0.0
C1404 C 0.69341 0.4872 0.94269 0.0
C1405 C 0.70786 0.48265 0.9461 0.0
U1406 U 0.77275 0.49808 0.94096 0.0
O1407 O 0.78619 0.48189 0.95189 0.0
O1408 O 0.78319 0.48415 0.9269 0.0
C1409 C 0.78931 0.47748 0.93871 0.0
C1410 C 0.73848 0.48661 0.94229 0.0
C1411 C 0.7884 0.45981 0.93718 0.0
C1412 C 0.77274 0.42864 0.93472 0.0
C1413 C 0.77268 0.44498 0.93736 0.0
C1414 C 0.80402 0.44203 0.93158 0.0
C1415 C 0.78845 0.42713 0.93164 0.0
C1416 C 0.804 0.45814 0.93443 0.0
C1417 C 0.80965 0.5431 0.9356 0.0
C1418 C 0.84124 0.55078 0.93518 0.0
C1419 C 0.82777 0.56923 0.92236 0.0
C1420 C 0.8115 0.55819 0.92708 0.0
C1421 C 0.84289 0.56586 0.92644 0.0
C1422 C 0.82458 0.53926 0.93956 0.0
C1423 C 0.79165 0.53146 0.93902 0.0
O1424 O 0.7463 0.48819 0.92961 0.0
O1425 O 0.7494 0.48983 0.95452 0.0
O1426 O 0.7893 0.52267 0.95207 0.0
O1427 O 0.78219 0.52235 0.92747 0.0
H1428 H 0.73951 0.51816 0.93062 0.0
H1429 H 0.71407 0.52607 0.92447 0.0
H1430 H 0.6805 0.47814 0.94555 0.0
H1431 H 0.7058 0.47018 0.95159 0.0
H1432 H 0.76059 0.41725 0.93491 0.0
H1433 H 0.76047 0.44607 0.93938 0.0
H1434 H 0.81627 0.44115 0.92935 0.0
H1435 H 0.81623 0.46946 0.93422 0.0
H1436 H 0.85272 0.54802 0.93865 0.0
H1437 H 0.82865 0.58082 0.91577 0.0
H1438 H 0.80021 0.56138 0.92388 0.0
H1439 H 0.82336 0.52749 0.946 0.0
C1440 C 0.67445 0.46271 0.12226 0.0
C1441 C 0.65728 0.4573 0.12696 0.0
C1442 C 0.65206 0.42714 0.12254 0.0
C1443 C 0.64613 0.4396 0.12707 0.0
C1444 C 0.66894 0.4327 0.11732 0.0
C1445 C 0.67999 0.4503 0.11716 0.0
U1446 U 0.6908 0.51263 0.12861 0.0
O1447 O 0.71432 0.52888 0.1423 0.0
O1448 O 0.71246 0.53366 0.1176 0.0
C1449 C 0.7222 0.5379 0.13045 0.0
C1450 C 0.68747 0.48078 0.12365 0.0
C1451 C 0.74104 0.54139 0.13015 0.0
C1452 C 0.76557 0.53215 0.1326 0.0
C1453 C 0.74739 0.52807 0.13111 0.0
C1454 C 0.7711 0.56276 0.13176 0.0
C1455 C 0.77751 0.54956 0.13326 0.0
C1456 C 0.75306 0.55871 0.13019 0.0
C1457 C 0.65754 0.53338 0.13584 0.0
C1458 C 0.66245 0.56388 0.13729 0.0
C1459 C 0.63417 0.54186 0.14205 0.0
C1460 C 0.64042 0.52901 0.13993 0.0
C1461 C 0.64435 0.55965 0.13909 0.0
C1462 C 0.6688 0.55094 0.13518 0.0
C1463 C 0.66296 0.51919 0.13258 0.0
O1464 O 0.68711 0.49193 0.11265 0.0
O1465 O 0.69046 0.48738 0.13725 0.0
O1466 O 0.67162 0.51416 0.14368 0.0
O1467 O 0.669 0.51969 0.11917 0.0
H1468 H 0.65274 0.46665 0.13098 0.0
H1469 H 0.63317 0.43554 0.13123 0.0
H1470 H 0.6738 0.42332 0.11388 0.0
H1471 H 0.69317 0.45417 0.11353 0.0
H1472 H 0.77031 0.5218 0.13366 0.0
H1473 H 0.73833 0.51461 0.1311 0.0
H1474 H 0.78011 0.57624 0.13215 0.0
H1475 H 0.74845 0.56916 0.12948 0.0
H1476 H 0.67213 0.57695 0.13776 0.0
H1477 H 0.62108 0.53752 0.14591 0.0
H1478 H 0.63173 0.51552 0.14142 0.0
H1479 H 0.68249 0.55465 0.13307 0.0
C1480 C 0.76955 0.58485 0.36065 0.0
C1481 C 0.75137 0.58091 0.35954 0.0
C1482 C 0.75605 0.60735 0.37297 0.0
C1483 C 0.7447 0.59214 0.36551 0.0
C1484 C 0.77419 0.61142 0.37361 0.0
C1485 C 0.78082 0.60037 0.3675 0.0
U1486 U 0.76973 0.5398 0.35141 0.0
O1487 O 0.784 0.5332 0.33425 0.0
O1488 O 0.79002 0.52952 0.35864 0.0
C1489 C 0.79325 0.52785 0.34462 0.0
C1490 C 0.77738 0.57306 0.3554 0.0
C1491 C 0.81118 0.52926 0.34155 0.0
C1492 C 0.84072 0.54427 0.33258 0.0
C1493 C 0.82433 0.54436 0.33577 0.0
C1494 C 0.83102 0.51421 0.34099 0.0
C1495 C 0.84417 0.52911 0.33514 0.0
C1496 C 0.81481 0.5143 0.34413 0.0
C1497 C 0.72532 0.49921 0.35797 0.0
C1498 C 0.71826 0.46803 0.35909 0.0
C1499 C 0.6971 0.47889 0.36635 0.0
C1500 C 0.70866 0.49584 0.36298 0.0
C1501 C 0.70185 0.46484 0.36471 0.0
C1502 C 0.72999 0.48514 0.3558 0.0
C1503 C 0.73761 0.51762 0.35648 0.0
O1504 O 0.78053 0.56269 0.36589 0.0
O1505 O 0.77134 0.5655 0.34226 0.0
O1506 O 0.74242 0.52415 0.34288 0.0
O1507 O 0.75032 0.52336 0.36719 0.0
H1508 H 0.74233 0.56905 0.35431 0.0
H1509 H 0.73065 0.58869 0.36479 0.0
H1510 H 0.78326 0.62302 0.37919 0.0
H1511 H 0.79487 0.6038 0.36844 0.0
H1512 H 0.85064 0.55594 0.32804 0.0
H1513 H 0.82192 0.55608 0.33362 0.0
H1514 H 0.83323 0.50235 0.34297 0.0
H1515 H 0.80491 0.50246 0.34847 0.0
H1516 H 0.72216 0.45735 0.35767 0.0
H1517 H 0.68452 0.47677 0.37057 0.0
H1518 H 0.70477 0.50644 0.36474 0.0
H1519 H 0.74277 0.48741 0.35195 0.0
C1520 C 0.77684 0.50072 0.671 0.0
C1521 C 0.77047 0.48255 0.67132 0.0
C1522 C 0.74165 0.48037 0.6789 0.0
C1523 C 0.75303 0.47254 0.6749 0.0
C1524 C 0.74812 0.49868 0.67703 0.0
C1525 C 0.76539 0.50857 0.67359 0.0
U1526 U 0.82561 0.51199 0.66224 0.0
O1527 O 0.84086 0.53099 0.64516 0.0
O1528 O 0.84901 0.53494 0.66952 0.0
C1529 C 0.85223 0.5408 0.65547 0.0
C1530 C 0.79488 0.51214 0.66726 0.0
C1531 C 0.85983 0.5598 0.65252 0.0
C1532 C 0.85899 0.58861 0.64955 0.0
C1533 C 0.85056 0.5706 0.65271 0.0
C1534 C 0.88528 0.58471 0.64496 0.0
C1535 C 0.87718 0.59646 0.64684 0.0
C1536 C 0.87708 0.56704 0.64831 0.0
C1537 C 0.84322 0.47525 0.66094 0.0
C1538 C 0.8646 0.47196 0.64539 0.0
C1539 C 0.85329 0.45176 0.66641 0.0
C1540 C 0.84312 0.4608 0.66988 0.0
C1541 C 0.86375 0.45697 0.65388 0.0
C1542 C 0.85443 0.48106 0.6489 0.0
C1543 C 0.83003 0.48253 0.66334 0.0
O1544 O 0.80746 0.51428 0.67803 0.0
O1545 O 0.79951 0.51086 0.65364 0.0
O1546 O 0.82372 0.48851 0.65116 0.0
O1547 O 0.83275 0.49212 0.67531 0.0
H1548 H 0.77885 0.47612 0.66861 0.0
H1549 H 0.74852 0.45865 0.67405 0.0
H1550 H 0.74013 0.50598 0.67761 0.0
H1551 H 0.76974 0.52256 0.67266 0.0
H1552 H 0.85084 0.59597 0.64873 0.0
H1553 H 0.8368 0.56513 0.65502 0.0
H1554 H 0.89795 0.58868 0.64042 0.0
H1555 H 0.88424 0.55885 0.64721 0.0
H1556 H 0.87268 0.47626 0.63575 0.0
H1557 H 0.85251 0.44029 0.67315 0.0
H1558 H 0.83458 0.45607 0.6792 0.0
H1559 H 0.85483 0.4922 0.64185 0.0
C1560 C 0.5229 0.15043 0.3022 0.0
C1561 C 0.50908 0.1559 0.29815 0.0
C1562 C 0.50294 0.15506 0.32495 0.0
C1563 C 0.49919 0.1582 0.30943 0.0
C1564 C 0.51712 0.15015 0.32894 0.0
C1565 C 0.52695 0.14786 0.31771 0.0
U1566 U 0.53711 0.14871 0.26126 0.0
O1567 O 0.56131 0.1469 0.25458 0.0
O1568 O 0.53568 0.12502 0.25004 0.0
C1569 C 0.55276 0.1314 0.24896 0.0
C1570 C 0.53209 0.14551 0.29068 0.0
C1571 C 0.56238 0.12117 0.24399 0.0
C1572 C 0.58445 0.10858 0.24823 0.0
C1573 C 0.57611 0.1189 0.25313 0.0
C1574 C 0.56566 0.10288 0.22497 0.0
C1575 C 0.57917 0.10036 0.23413 0.0
C1576 C 0.55734 0.11312 0.22986 0.0
C1577 C 0.51807 0.17327 0.22905 0.0
C1578 C 0.52313 0.18437 0.20287 0.0
C1579 C 0.49538 0.17909 0.21329 0.0
C1580 C 0.50132 0.17372 0.22712 0.0
C1581 C 0.50606 0.1843 0.20095 0.0
C1582 C 0.52908 0.17878 0.21684 0.0
C1583 C 0.52315 0.16748 0.24425 0.0
O1584 O 0.52197 0.13449 0.28052 0.0
O1585 O 0.54578 0.15777 0.28485 0.0
O1586 O 0.5397 0.17363 0.24951 0.0
O1587 O 0.51444 0.1512 0.24823 0.0
H1588 H 0.50563 0.15792 0.28627 0.0
H1589 H 0.48838 0.16205 0.30605 0.0
H1590 H 0.52032 0.14768 0.34078 0.0
H1591 H 0.53744 0.14354 0.32113 0.0
H1592 H 0.59492 0.1069 0.25545 0.0
H1593 H 0.58022 0.12492 0.26411 0.0
H1594 H 0.56151 0.09687 0.21399 0.0
H1595 H 0.54689 0.11474 0.22256 0.0
H1596 H 0.53166 0.18848 0.19353 0.0
H1597 H 0.48227 0.17905 0.21219 0.0
H1598 H 0.4927 0.16983 0.23642 0.0
H1599 H 0.54214 0.17871 0.21807 0.0
C1600 C 0.99254 0.91091 0.74976 0.0
C1601 C 0.9952 0.90986 0.73448 0.0
C1602 C 0.97655 0.92595 0.72608 0.0
C1603 C 0.98784 0.91763 0.72295 0.0
C1604 C 0.9755 0.92821 0.74177 0.0
C1605 C 0.98294 0.92047 0.75333 0.0
U1606 U 0.01755 0.88226 0.76138 0.0
O1607 O 0.03831 0.88419 0.77927 0.0
O1608 O 1.01331 0.86138 0.77903 0.0
C1609 C 0.02903 0.86921 0.78577 0.0
C1610 C 1.00022 0.90256 0.76194 0.0
C1611 C 0.03143 0.86741 0.80253 0.0
C1612 C 0.03917 0.87976 0.82781 0.0
C1613 C 0.03303 0.88052 0.81249 0.0
C1614 C 0.04095 0.8523 0.82351 0.0
C1615 C 0.04384 0.86594 0.83324 0.0
C1616 C 0.03481 0.85303 0.80834 0.0
C1617 C 0.0309 0.86445 0.72659 0.0
C1618 C 0.04534 0.84426 0.72634 0.0
C1619 C 0.03561 0.85462 0.7027 0.0
C1620 C 0.02959 0.86478 0.71071 0.0
C1621 C 0.04252 0.84309 0.71024 0.0
C1622 C 0.03923 0.8545 0.73441 0.0
C1623 C 0.02323 0.8746 0.73436 0.0
O1624 O 0.99268 0.88555 0.76284 0.0
O1625 O 0.01746 0.90834 0.76306 0.0
O1626 O 0.03414 0.88812 0.74188 0.0
O1627 O 1.00896 0.86568 0.74142 0.0
H1628 H 1.00333 0.90328 0.73143 0.0
H1629 H 0.99195 0.91745 0.71176 0.0
H1630 H 0.96956 0.9365 0.74549 0.0
H1631 H 0.98144 0.92222 0.76513 0.0
H1632 H 0.04148 0.89051 0.83507 0.0
H1633 H 0.03053 0.89176 0.80826 0.0
H1634 H 0.04473 0.84168 0.82736 0.0
H1635 H 0.03384 0.84286 0.80086 0.0
H1636 H 0.05246 0.83775 0.73304 0.0
H1637 H 0.03491 0.85618 0.69044 0.0
H1638 H 0.02384 0.87294 0.70441 0.0
H1639 H 0.04106 0.85467 0.74673 0.0
C1640 C 0.48375 0.86627 0.32188 0.0
C1641 C 0.4839 0.86111 0.33738 0.0
C1642 C 0.51597 0.87608 0.34004 0.0
C1643 C 0.49992 0.8659 0.34637 0.0
C1644 C 0.51566 0.881 0.32456 0.0
C1645 C 0.4998 0.87616 0.31563 0.0
U1646 U 0.43294 0.85136 0.31097 0.0
O1647 O 0.4204 0.86256 0.29278 0.0
O1648 O 0.41784 0.8357 0.29131 0.0
C1649 C 0.41421 0.84847 0.28472 0.0
C1650 C 0.46744 0.86167 0.31166 0.0
C1651 C 0.41515 0.85101 0.26794 0.0
C1652 C 0.43119 0.86252 0.24513 0.0
C1653 C 0.43112 0.85861 0.2609 0.0
C1654 C 0.39943 0.8509 0.24323 0.0
C1655 C 0.41532 0.85913 0.23622 0.0
C1656 C 0.39937 0.84687 0.25888 0.0
C1657 C 0.40124 0.84025 0.34493 0.0
C1658 C 0.37164 0.83913 0.34703 0.0
C1659 C 0.38778 0.83315 0.36927 0.0
C1660 C 0.40183 0.8356 0.36045 0.0
C1661 C 0.37269 0.83519 0.36276 0.0
C1662 C 0.38588 0.84172 0.33816 0.0
C1663 C 0.41761 0.84508 0.33694 0.0
O1664 O 0.45655 0.84529 0.3112 0.0
O1665 O 0.45935 0.87237 0.31104 0.0
O1666 O 0.4238 0.86046 0.33016 0.0
O1667 O 0.41993 0.83307 0.32956 0.0
H1668 H 0.47171 0.85342 0.34249 0.0
H1669 H 0.4998 0.86178 0.35825 0.0
H1670 H 0.5278 0.88864 0.31934 0.0
H1671 H 0.50008 0.88019 0.30371 0.0
H1672 H 0.44362 0.86884 0.23998 0.0
H1673 H 0.44347 0.86195 0.26763 0.0
H1674 H 0.38705 0.84814 0.23666 0.0
H1675 H 0.38689 0.84101 0.26403 0.0
H1676 H 0.36008 0.84071 0.34177 0.0
H1677 H 0.38888 0.83011 0.38133 0.0
H1678 H 0.41352 0.83447 0.36595 0.0
H1679 H 0.3851 0.84532 0.3262 0.0
C1680 C 0.83028 0.73404 0.02761 0.0
C1681 C 0.83443 0.73558 0.04344 0.0
C1682 C 0.82589 0.76039 0.04366 0.0
C1683 C 0.83227 0.74865 0.05138 0.0
C1684 C 0.82085 0.75817 0.02804 0.0
C1685 C 0.82302 0.74518 0.02014 0.0
U1686 U 0.8435 0.69514 0.02073 0.0
O1687 O 0.8649 0.69546 1.00749 0.0
O1688 O 0.83765 0.67841 1.00059 0.0
C1689 C 0.85439 0.68359 0.99811 0.0
C1690 C 0.83526 0.72262 0.01825 0.0
C1691 C 0.86012 0.6831 0.98265 0.0
C1692 C 0.87869 0.69697 0.96165 0.0
C1693 C 0.87033 0.69817 0.97454 0.0
C1694 C 0.8661 0.66569 0.96437 0.0
C1695 C 0.87708 0.68072 0.95674 0.0
C1696 C 0.85771 0.66689 0.97714 0.0
C1697 C 0.84646 0.66557 0.05629 0.0
C1698 C 0.86604 0.6506 0.06325 0.0
C1699 C 0.84396 0.64897 0.08021 0.0
C1700 C 0.83807 0.65907 0.06981 0.0
C1701 C 0.8584 0.64517 0.07728 0.0
C1702 C 0.86011 0.66075 0.0528 0.0
C1703 C 0.84246 0.67936 0.04759 0.0
O1704 O 0.85137 0.72342 0.02078 0.0
O1705 O 0.82371 0.70675 0.01584 0.0
O1706 O 0.82906 0.67473 0.03739 0.0
O1707 O 0.85599 0.69299 0.04327 0.0
H1708 H 0.84004 0.72718 0.04952 0.0
H1709 H 0.8363 0.75009 0.06341 0.0
H1710 H 0.81603 0.76707 0.02179 0.0
H1711 H 0.81977 0.74436 1.00797 0.0
H1712 H 0.88705 0.70873 0.95591 0.0
H1713 H 0.8725 0.71085 0.97854 0.0
H1714 H 0.86467 0.65302 0.96086 0.0
H1715 H 0.8501 0.65508 0.98326 0.0
H1716 H 0.87709 0.64766 0.06071 0.0
H1717 H 0.83781 0.64485 0.0909 0.0
H1718 H 0.82755 0.66263 0.07276 0.0
H1719 H 0.86675 0.66554 0.04241 0.0
C1720 C 0.64323 0.3165 0.52744 0.0
C1721 C 0.62701 0.31747 0.52258 0.0
C1722 C 0.6385 0.33124 0.49829 0.0
C1723 C 0.62466 0.32471 0.50812 0.0
C1724 C 0.65485 0.33096 0.50353 0.0
C1725 C 0.65712 0.32357 0.5178 0.0
U1726 U 0.64472 0.30833 0.57152 0.0
O1727 O 0.63938 0.28404 0.58516 0.0
O1728 O 0.66574 0.30484 0.58662 0.0
C1729 C 0.6556 0.28917 0.59121 0.0
C1730 C 0.64599 0.30726 0.54182 0.0
C1731 C 0.66371 0.27624 0.59396 0.0
C1732 C 0.66632 0.24905 0.58899 0.0
C1733 C 0.65961 0.26182 0.58476 0.0
C1734 C 0.68166 0.2652 0.6113 0.0
C1735 C 0.67722 0.25056 0.60243 0.0
C1736 C 0.67497 0.27785 0.60712 0.0
C1737 C 0.63175 0.33913 0.59532 0.0
C1738 C 0.63977 0.34789 0.62171 0.0
C1739 C 0.623 0.36073 0.60521 0.0
C1740 C 0.62298 0.35042 0.59334 0.0
C1741 C 0.6318 0.35993 0.61934 0.0
C1742 C 0.63978 0.33754 0.60972 0.0
C1743 C 0.63404 0.33117 0.5816 0.0
O1744 O 0.65959 0.31607 0.55094 0.0
O1745 O 0.63219 0.2975 0.54921 0.0
O1746 O 0.62341 0.31506 0.57885 0.0
O1747 O 0.65029 0.33478 0.57843 0.0
H1748 H 0.61601 0.31221 0.52972 0.0
H1749 H 0.61188 0.3247 0.50439 0.0
H1750 H 0.66572 0.33576 0.49622 0.0
H1751 H 0.66971 0.32292 0.52113 0.0
H1752 H 0.66262 0.23777 0.58205 0.0
H1753 H 0.65091 0.26021 0.57458 0.0
H1754 H 0.68982 0.26652 0.6218 0.0
H1755 H 0.67818 0.28871 0.6145 0.0
H1756 H 0.64675 0.3472 0.63251 0.0
H1757 H 0.61697 0.37005 0.60311 0.0
H1758 H 0.61684 0.35196 0.58231 0.0
H1759 H 0.64669 0.32894 0.61147 0.0
C1760 C 0.32391 0.52944 0.11485 0.0
C1761 C 0.32092 0.5118 0.11489 0.0
C1762 C 0.35262 0.51836 0.11997 0.0
C1763 C 0.33493 0.50631 0.11766 0.0
C1764 C 0.35499 0.53596 0.12097 0.0
C1765 C 0.34103 0.54139 0.11819 0.0
U1766 U 0.27487 0.52335 0.1082 0.0
O1767 O 0.26095 0.5366 0.11915 0.0
O1768 O 0.26294 0.53932 0.09438 0.0
C1769 C 0.25699 0.5434 0.10631 0.0
C1770 C 0.30947 0.53576 0.11214 0.0
C1771 C 0.25704 0.56102 0.10691 0.0
C1772 C 0.27101 0.59168 0.11294 0.0
C1773 C 0.27227 0.57579 0.11047 0.0
C1774 C 0.23948 0.5783 0.10787 0.0
C1775 C 0.2545 0.59292 0.11206 0.0
C1776 C 0.24076 0.56258 0.10528 0.0
C1777 C 0.23971 0.47536 0.10845 0.0
C1778 C 0.20785 0.46284 0.10327 0.0
C1779 C 0.22246 0.44588 0.1169 0.0
C1780 C 0.23861 0.45968 0.11564 0.0
C1781 C 0.20685 0.44715 0.11071 0.0
C1782 C 0.22419 0.47696 0.10228 0.0
C1783 C 0.25739 0.48948 0.10818 0.0
O1784 O 0.30091 0.53315 0.09865 0.0
O1785 O 0.29907 0.53291 0.1233 0.0
O1786 O 0.26311 0.49845 0.12061 0.0
O1787 O 0.26188 0.49898 0.09562 0.0
H1788 H 0.30767 0.5022 0.11294 0.0
H1789 H 0.33122 0.49256 0.11813 0.0
H1790 H 0.36778 0.54582 0.12404 0.0
H1791 H 0.34366 0.55505 0.11881 0.0
H1792 H 0.28278 0.60281 0.11613 0.0
H1793 H 0.28497 0.57489 0.1118 0.0
H1794 H 0.22665 0.57892 0.10711 0.0
H1795 H 0.22884 0.55137 0.10259 0.0
H1796 H 0.19605 0.46413 0.09823 0.0
H1797 H 0.22218 0.43397 0.12256 0.0
H1798 H 0.25038 0.45811 0.1204 0.0
H1799 H 0.2247 0.48899 0.09672 0.0
C1800 C 0.33524 0.55016 0.94751 0.0
C1801 C 0.35282 0.55193 0.94762 0.0
C1802 C 0.36274 0.58351 0.94682 0.0
C1803 C 0.3665 0.56852 0.94735 0.0
C1804 C 0.34526 0.58163 0.94745 0.0
C1805 C 0.33168 0.56514 0.94783 0.0
U1806 U 0.31445 0.50071 0.94042 0.0
O1807 O 0.28953 0.4805 0.9479 0.0
O1808 O 0.29338 0.48665 0.92358 0.0
C1809 C 0.28263 0.47743 0.93384 0.0
C1810 C 0.32026 0.53324 0.94541 0.0
C1811 C 0.26383 0.47434 0.9306 0.0
C1812 C 0.24108 0.48132 0.91592 0.0
C1813 C 0.2585 0.48631 0.92203 0.0
C1814 C 0.23382 0.45279 0.92773 0.0
C1815 C 0.22877 0.46432 0.91828 0.0
C1816 C 0.25118 0.45777 0.93384 0.0
C1817 C 0.34667 0.47787 0.93619 0.0
C1818 C 0.3404 0.44839 0.9286 0.0
C1819 C 0.37032 0.46973 0.93032 0.0
C1820 C 0.36455 0.48201 0.93497 0.0
C1821 C 0.3584 0.45281 0.92701 0.0
C1822 C 0.33452 0.46095 0.933 0.0
C1823 C 0.34155 0.49207 0.9398 0.0
O1824 O 0.3179 0.52686 0.93177 0.0
O1825 O 0.31795 0.52138 0.95639 0.0
O1826 O 0.33305 0.49037 0.95212 0.0
O1827 O 0.33567 0.49917 0.92815 0.0
H1828 H 0.35589 0.54055 0.94731 0.0
H1829 H 0.37989 0.56967 0.94678 0.0
H1830 H 0.34205 0.59297 0.94698 0.0
H1831 H 0.31825 0.56411 0.94769 0.0
H1832 H 0.23746 0.4904 0.90865 0.0
H1833 H 0.26799 0.49915 0.91932 0.0
H1834 H 0.22457 0.43961 0.92967 0.0
H1835 H 0.25497 0.44827 0.94031 0.0
H1836 H 0.33098 0.43535 0.92636 0.0
H1837 H 0.38427 0.47346 0.92936 0.0
H1838 H 0.37412 0.49495 0.93738 0.0
H1839 H 0.32061 0.45754 0.93382 0.0
C1840 C 0.2513 0.43685 0.61054 0.0
C1841 C 0.26938 0.44318 0.60834 0.0
C1842 C 0.26705 0.41385 0.60383 0.0
C1843 C 0.27719 0.43175 0.60497 0.0
C1844 C 0.24897 0.40768 0.60565 0.0
C1845 C 0.2412 0.41906 0.60894 0.0
U1846 U 0.25165 0.48047 0.62339 0.0
O1847 O 0.23214 0.49232 0.6186 0.0
O1848 O 0.23815 0.48516 0.64219 0.0
C1849 C 0.22929 0.49223 0.63307 0.0
C1850 C 0.24274 0.44811 0.61539 0.0
C1851 C 0.21201 0.4914 0.63737 0.0
C1852 C 0.18005 0.47816 0.63835 0.0
C1853 C 0.19596 0.47731 0.63466 0.0
C1854 C 0.19619 0.50648 0.64835 0.0
C1855 C 0.17958 0.49355 0.64398 0.0
C1856 C 0.2119 0.50565 0.64474 0.0
C1857 C 0.2995 0.51819 0.62531 0.0
C1858 C 0.31158 0.54812 0.63357 0.0
C1859 C 0.33108 0.5349 0.62686 0.0
C1860 C 0.31662 0.5196 0.62347 0.0
C1861 C 0.3288 0.54932 0.63199 0.0
C1862 C 0.297 0.53259 0.63032 0.0
C1863 C 0.28508 0.50113 0.62241 0.0
O1864 O 0.24656 0.45317 0.62954 0.0
O1865 O 0.24215 0.46051 0.60579 0.0
O1866 O 0.27336 0.49985 0.61104 0.0
O1867 O 0.27844 0.49129 0.63431 0.0
H1868 H 0.27749 0.45684 0.60957 0.0
H1869 H 0.2912 0.43677 0.60374 0.0
H1870 H 0.24095 0.39395 0.60494 0.0
H1871 H 0.22728 0.41385 0.61062 0.0
H1872 H 0.16847 0.46642 0.637 0.0
H1873 H 0.19569 0.46564 0.62982 0.0
H1874 H 0.19737 0.51753 0.65472 0.0
H1875 H 0.22416 0.51636 0.64773 0.0
H1876 H 0.30948 0.55912 0.63742 0.0
H1877 H 0.34414 0.53548 0.62548 0.0
H1878 H 0.31886 0.50868 0.61959 0.0
H1879 H 0.28389 0.53179 0.63183 0.0
C1880 C 0.24652 0.52954 0.36357 0.0
C1881 C 0.25256 0.54719 0.36698 0.0
C1882 C 0.28291 0.55 0.36657 0.0
C1883 C 0.27068 0.55738 0.36844 0.0
C1884 C 0.27679 0.53258 0.36255 0.0
C1885 C 0.25877 0.52246 0.36106 0.0
U1886 U 0.19684 0.51812 0.36769 0.0
O1887 O 0.17377 0.49678 0.3573 0.0
O1888 O 0.17926 0.49744 0.3821 0.0
C1889 C 0.1692 0.48886 0.37053 0.0
C1890 C 0.22784 0.51769 0.3641 0.0
C1891 C 0.16342 0.46974 0.37148 0.0
C1892 C 0.16792 0.44364 0.38049 0.0
C1893 C 0.17471 0.46158 0.37712 0.0
C1894 C 0.13878 0.44172 0.37187 0.0
C1895 C 0.1498 0.43367 0.37827 0.0
C1896 C 0.14553 0.45955 0.3685 0.0
C1897 C 0.18206 0.55613 0.37413 0.0
C1898 C 0.15333 0.5578 0.37373 0.0
C1899 C 0.17879 0.58006 0.38596 0.0
C1900 C 0.18931 0.57163 0.38209 0.0
C1901 C 0.16072 0.57336 0.38179 0.0
C1902 C 0.16392 0.54917 0.37 0.0
C1903 C 0.19414 0.54803 0.37047 0.0
O1904 O 0.22118 0.51599 0.37737 0.0
O1905 O 0.21697 0.5185 0.35261 0.0
O1906 O 0.19143 0.54031 0.35738 0.0
O1907 O 0.19911 0.53975 0.38179 0.0
H1908 H 0.24333 0.5529 0.36903 0.0
H1909 H 0.27516 0.57079 0.37161 0.0
H1910 H 0.28599 0.52663 0.36113 0.0
H1911 H 0.25441 0.50887 0.35852 0.0
H1912 H 0.17666 0.43766 0.38538 0.0
H1913 H 0.18857 0.46916 0.37952 0.0
H1914 H 0.12478 0.4343 0.37007 0.0
H1915 H 0.13657 0.46555 0.36423 0.0
H1916 H 0.13944 0.55242 0.37029 0.0
H1917 H 0.18484 0.59205 0.39206 0.0
H1918 H 0.20325 0.5773 0.38531 0.0
H1919 H 0.158 0.5372 0.36387 0.0
H1920 H 0.13741 0.38253 0.13939 0.0
C1921 C 0.13493 0.37512 0.12918 0.0
C1922 C 0.14557 0.38223 0.11666 0.0
C1923 C 0.12146 0.35817 0.12854 0.0
H1924 H 0.15069 0.37713 0.09417 0.0
C1925 C 0.14263 0.37208 0.10379 0.0
C1926 C 0.1309 0.35487 0.10373 0.0
C1927 C 0.11962 0.34836 0.11547 0.0
C1928 C 0.10969 0.34975 0.14137 0.0
H1929 H 0.10975 0.33532 0.11442 0.0
C1930 C 0.10343 0.35892 0.15087 0.0
C1931 C 0.09006 0.34966 0.16095 0.0
C1932 C 0.10362 0.33156 0.14348 0.0
H1933 H 0.10905 0.32403 0.13764 0.0
C1934 C 0.09008 0.32254 0.15279 0.0
H1935 H 0.1086 0.37295 0.15029 0.0
C1936 C 0.08293 0.33143 0.16099 0.0
H1937 H 0.07237 0.32398 0.16816 0.0
H1938 H 0.08514 0.30853 0.1537 0.0
H1939 H 0.89737 0.92595 0.3792 0.0
C1940 C 0.90481 0.9235 0.38911 0.0
C1941 C 0.90091 0.92617 0.40374 0.0
C1942 C 0.91823 0.91761 0.38735 0.0
H1943 H 0.90599 0.92324 0.42777 0.0
C1944 C 0.90964 0.92182 0.41656 0.0
C1945 C 0.92381 0.91699 0.41525 0.0
C1946 C 0.92822 0.91521 0.40049 0.0
C1947 C 0.92091 0.91251 0.37207 0.0
H1948 H 0.93922 0.91165 0.39922 0.0
C1949 C 0.92166 0.92297 0.35866 0.0
C1950 C 0.9239 0.9173 0.34445 0.0
C1951 C 0.92204 0.89636 0.37087 0.0
H1952 H 0.92112 0.88789 0.38081 0.0
C1953 C 0.92393 0.89069 0.35685 0.0
H1954 H 0.92076 0.93544 0.35928 0.0
C1955 C 0.9249 0.90106 0.34376 0.0
H1956 H 0.92645 0.89641 0.33299 0.0
H1957 H 0.92462 0.87815 0.35612 0.0
H1958 H 0.40291 0.61618 0.66194 0.0
C1959 C 0.40018 0.62392 0.65267 0.0
C1960 C 0.38601 0.61555 0.64187 0.0
C1961 C 0.41029 0.64215 0.65139 0.0
H1962 H 0.37106 0.6192 0.6218 0.0
C1963 C 0.38215 0.62536 0.62988 0.0
C1964 C 0.39237 0.64282 0.62774 0.0
C1965 C 0.40645 0.65107 0.63822 0.0
C1966 C 0.42453 0.65218 0.66343 0.0
H1967 H 0.41415 0.66449 0.63562 0.0
C1968 C 0.43066 0.64411 0.67607 0.0
C1969 C 0.44413 0.65424 0.68675 0.0
C1970 C 0.43192 0.6706 0.66263 0.0
H1971 H 0.4272 0.6781 0.65451 0.0
C1972 C 0.44566 0.68032 0.67265 0.0
H1973 H 0.42502 0.63023 0.67793 0.0
C1974 C 0.45194 0.67224 0.68441 0.0
H1975 H 0.46236 0.68022 0.69229 0.0
H1976 H 0.45119 0.69433 0.67151 0.0
H1977 H 0.61098 0.09737 0.91776 0.0
C1978 C 0.61229 0.10696 0.90865 0.0
C1979 C 0.62158 0.10704 0.8959 0.0
C1980 C 0.60324 0.11809 0.90887 0.0
H1981 H 0.62804 0.11785 0.87333 0.0
C1982 C 0.62174 0.11837 0.88347 0.0
C1983 C 0.61219 0.12889 0.88324 0.0
C1984 C 0.60365 0.1293 0.8962 0.0
C1985 C 0.58923 0.11457 0.9196 0.0
H1986 H 0.59571 0.13694 0.89574 0.0
C1987 C 0.59252 0.11879 0.93524 0.0
C1988 C 0.5782 0.11562 0.94435 0.0
C1989 C 0.57178 0.10714 0.91347 0.0
H1990 H 0.56892 0.10375 0.90159 0.0
C1991 C 0.55783 0.10403 0.92244 0.0
H1992 H 0.60588 0.12453 0.94016 0.0
C1993 C 0.56099 0.10824 0.93771 0.0
H1994 H 0.54986 0.10562 0.94446 0.0
H1995 H 0.54448 0.09834 0.91752 0.0
H1996 H 0.11542 0.61044 0.41769 0.0
C1997 C 0.11353 0.61677 0.40702 0.0
C1998 C 0.12087 0.61442 0.39377 0.0
C1999 C 0.10233 0.62595 0.40601 0.0
H2000 H 0.12197 0.61937 0.36947 0.0
C2001 C 0.11717 0.62172 0.37984 0.0
C2002 C 0.10711 0.6317 0.37889 0.0
C2003 C 0.10006 0.63414 0.392 0.0
C2004 C 0.08915 0.62313 0.41748 0.0
H2005 H 0.09131 0.64097 0.39095 0.0
C2006 C 0.09336 0.62873 0.43275 0.0
C2007 C 0.07964 0.62627 0.44241 0.0
C2008 C 0.07136 0.61497 0.41235 0.0
H2009 H 0.06772 0.61046 0.4008 0.0
C2010 C 0.05804 0.61263 0.42183 0.0
H2011 H 0.10695 0.63512 0.43694 0.0
C2012 C 0.06211 0.61824 0.4367 0.0
H2013 H 0.05147 0.61631 0.44384 0.0
H2014 H 0.04446 0.60648 0.41759 0.0
H2015 H 0.61722 0.87185 0.65416 0.0
C2016 C 0.61912 0.86489 0.645 0.0
C2017 C 0.63372 0.87322 0.63607 0.0
C2018 C 0.60728 0.84761 0.64187 0.0
H2019 H 0.64888 0.86998 0.61887 0.0
C2020 C 0.63715 0.86387 0.6251 0.0
C2021 C 0.62481 0.84766 0.62078 0.0
C2022 C 0.60955 0.84008 0.62865 0.0
C2023 C 0.59281 0.83685 0.65201 0.0
H2024 H 0.59965 0.82806 0.62444 0.0
C2025 C 0.58555 0.84401 0.6625 0.0
C2026 C 0.5715 0.83302 0.67117 0.0
C2027 C 0.58633 0.81854 0.65142 0.0
H2028 H 0.59225 0.81209 0.64485 0.0
C2029 C 0.57211 0.80792 0.65943 0.0
H2030 H 0.59063 0.85786 0.66402 0.0
C2031 C 0.5645 0.81508 0.66895 0.0
H2032 H 0.55362 0.80646 0.67529 0.0
H2033 H 0.56718 0.79398 0.65848 0.0
H2034 H 0.39832 0.42185 0.88393 0.0
C2035 C 0.40486 0.4171 0.89315 0.0
C2036 C 0.4006 0.41716 0.90837 0.0
C2037 C 0.41687 0.40992 0.88974 0.0
H2038 H 0.40556 0.40961 0.9316 0.0
C2039 C 0.40901 0.41025 0.91992 0.0
C2040 C 0.423 0.40575 0.91703 0.0
C2041 C 0.42666 0.40529 0.90182 0.0
C2042 C 0.41699 0.40428 0.87401 0.0
H2043 H 0.43682 0.40096 0.89934 0.0
C2044 C 0.42068 0.41567 0.86104 0.0
C2045 C 0.42033 0.40913 0.84647 0.0
C2046 C 0.41268 0.38652 0.87208 0.0
H2047 H 0.40956 0.37748 0.88174 0.0
C2048 C 0.412 0.38011 0.85773 0.0
H2049 H 0.42409 0.4294 0.86229 0.0
C2050 C 0.41583 0.39129 0.84504 0.0
H2051 H 0.41542 0.38603 0.83401 0.0
H2052 H 0.40855 0.36639 0.85645 0.0
H2053 H 0.91419 0.13535 0.1482 0.0
C2054 C 0.91321 0.14216 0.1376 0.0
C2055 C 0.89841 0.13451 0.12744 0.0
C2056 C 0.92635 0.15855 0.13392 0.0
H2057 H 0.88423 0.13799 0.10698 0.0
C2058 C 0.89617 0.14366 0.11428 0.0
C2059 C 0.90977 0.15858 0.10927 0.0
C2060 C 0.92514 0.1657 0.11897 0.0
C2061 C 0.94063 0.16873 0.14563 0.0
H2062 H 0.93594 0.17688 0.11484 0.0
C2063 C 0.94592 0.16101 0.15896 0.0
C2064 C 0.95845 0.17147 0.17004 0.0
C2065 C 0.94828 0.18701 0.14398 0.0
H2066 H 0.94426 0.19381 0.1346 0.0
C2067 C 0.96088 0.19714 0.15469 0.0
H2068 H 0.94042 0.14712 0.1609 0.0
C2069 C 0.96592 0.18948 0.16758 0.0
H2070 H 0.97552 0.19772 0.17588 0.0
H2071 H 0.96652 0.21111 0.15313 0.0
H2072 H 0.10748 0.05218 0.39659 0.0
C2073 C 0.09901 0.05053 0.38624 0.0
C2074 C 0.08377 0.05389 0.38626 0.0
C2075 C 0.10397 0.04645 0.37255 0.0
H2076 H 0.06234 0.05656 0.37287 0.0
C2077 C 0.0736 0.05315 0.37256 0.0
C2078 C 0.07931 0.05143 0.35846 0.0
C2079 C 0.09374 0.0465 0.35882 0.0
C2080 C 0.12126 0.04494 0.37203 0.0
H2081 H 0.09729 0.04268 0.34862 0.0
C2082 C 0.12783 0.03638 0.38376 0.0
C2083 C 0.14479 0.03633 0.38332 0.0
C2084 C 0.13185 0.0531 0.35989 0.0
H2085 H 0.12753 0.06017 0.3509 0.0
C2086 C 0.1484 0.05275 0.35935 0.0
H2087 H 0.11992 0.02991 0.39317 0.0
C2088 C 0.15486 0.04451 0.37097 0.0
H2089 H 0.16784 0.04453 0.37037 0.0
H2090 H 0.15636 0.05911 0.34995 0.0
H2091 H 0.07874 0.80788 0.66201 0.0
C2092 C 0.08858 0.82103 0.6623 0.0
C2093 C 0.0864 0.83312 0.67139 0.0
C2094 C 0.10409 0.82543 0.65472 0.0
H2095 H 0.09755 0.859 0.67975 0.0
C2096 C 0.09934 0.84983 0.67258 0.0
C2097 C 0.11482 0.85474 0.66516 0.0
C2098 C 0.11727 0.8425 0.6562 0.0
C2099 C 0.10791 0.81107 0.64866 0.0
H2100 H 0.12958 0.84602 0.65094 0.0
C2101 C 0.09584 0.79833 0.63866 0.0
C2102 C 0.09782 0.78247 0.63658 0.0
C2103 C 0.12272 0.80851 0.65522 0.0
H2104 H 0.13218 0.81793 0.66281 0.0
C2105 C 0.12484 0.79321 0.65312 0.0
H2106 H 0.08499 0.80076 0.63281 0.0
C2107 C 0.11229 0.78016 0.64446 0.0
H2108 H 0.11421 0.76821 0.64362 0.0
H2109 H 0.13606 0.7912 0.65866 0.0
H2110 H 0.41627 0.96042 0.86745 0.0
C2111 C 0.42266 0.95988 0.8574 0.0
C2112 C 0.43889 0.95779 0.85892 0.0
C2113 C 0.41382 0.9597 0.84292 0.0
H2114 H 0.45844 0.95455 0.84613 0.0
C2115 C 0.44603 0.95606 0.84547 0.0
C2116 C 0.43547 0.95195 0.83187 0.0
C2117 C 0.42019 0.95529 0.83022 0.0
C2118 C 0.39546 0.9585 0.84155 0.0
H2119 H 0.41205 0.95212 0.81965 0.0
C2120 C 0.39111 0.97325 0.83997 0.0
C2121 C 0.37325 0.9711 0.83792 0.0
C2122 C 0.38201 0.94189 0.84068 0.0
H2123 H 0.38508 0.93045 0.84157 0.0
C2124 C 0.36453 0.9398 0.83844 0.0
H2125 H 0.4014 0.98615 0.84026 0.0
C2126 C 0.36017 0.95424 0.83713 0.0
H2127 H 0.34644 0.95224 0.83545 0.0
H2128 H 0.35429 0.92692 0.83768 0.0
H2129 H 0.46517 0.21374 0.14188 0.0
C2130 C 0.45481 0.201 0.14272 0.0
C2131 C 0.45758 0.18885 0.15333 0.0
C2132 C 0.43874 0.19665 0.13366 0.0
H2133 H 0.44615 0.1632 0.16349 0.0
C2134 C 0.4442 0.17241 0.15514 0.0
C2135 C 0.42855 0.16743 0.14609 0.0
C2136 C 0.42611 0.17925 0.13511 0.0
C2137 C 0.43473 0.20991 0.12306 0.0
H2138 H 0.4142 0.17442 0.12782 0.0
C2139 C 0.4476 0.22661 0.11905 0.0
C2140 C 0.44292 0.23836 0.10914 0.0
C2141 C 0.41724 0.20605 0.11714 0.0
H2142 H 0.40639 0.19447 0.12039 0.0
C2143 C 0.4129 0.21729 0.10702 0.0
H2144 H 0.46108 0.23073 0.12354 0.0
C2145 C 0.42559 0.23316 0.10293 0.0
H2146 H 0.42169 0.24179 0.09528 0.0
H2147 H 0.39944 0.21381 0.10256 0.0
H2148 H 0.12428 0.91956 0.17228 0.0
C2149 C 0.13783 0.92474 0.17679 0.0
C2150 C 0.14859 0.91574 0.17442 0.0
C2151 C 0.14499 0.94106 0.18374 0.0
H2152 H 0.17472 0.91607 0.17729 0.0
C2153 C 0.16642 0.92281 0.17951 0.0
C2154 C 0.17414 0.93942 0.1856 0.0
C2155 C 0.16323 0.94813 0.18811 0.0
C2156 C 0.13424 0.95176 0.18507 0.0
H2157 H 0.16927 0.96075 0.19315 0.0
C2158 C 0.11601 0.94434 0.18761 0.0
C2159 C 0.10672 0.95514 0.18906 0.0
C2160 C 0.14248 0.97 0.18361 0.0
H2161 H 0.15603 0.97637 0.18085 0.0
C2162 C 0.13339 0.98051 0.1854 0.0
H2163 H 0.10911 0.9304 0.18854 0.0
C2164 C 0.11572 0.97318 0.18817 0.0
H2165 H 0.10889 0.98165 0.18935 0.0
H2166 H 0.14007 0.99447 0.18442 0.0
H2167 H 0.31713 0.84702 0.40878 0.0
C2168 C 0.31588 0.83508 0.41485 0.0
C2169 C 0.32601 0.82603 0.41066 0.0
C2170 C 0.30434 0.82846 0.42682 0.0
H2171 H 0.335 0.80569 0.41736 0.0
C2172 C 0.32597 0.8116 0.41957 0.0
C2173 C 0.31355 0.80397 0.43041 0.0
C2174 C 0.30163 0.81152 0.43253 0.0
C2175 C 0.29595 0.83892 0.43431 0.0
H2176 H 0.29095 0.80432 0.43956 0.0
C2177 C 0.29669 0.85546 0.42869 0.0
C2178 C 0.28936 0.86486 0.43676 0.0
C2179 C 0.28819 0.83282 0.4484 0.0
H2180 H 0.28829 0.82128 0.45433 0.0
C2181 C 0.28049 0.84182 0.45587 0.0
H2182 H 0.30314 0.86131 0.41844 0.0
C2183 C 0.28093 0.85761 0.45006 0.0
H2184 H 0.27525 0.86461 0.45636 0.0
H2185 H 0.27458 0.83672 0.46653 0.0
H2186 H 0.39508 0.10377 0.6501 0.0
C2187 C 0.38359 0.09862 0.65669 0.0
C2188 C 0.36719 0.0979 0.65001 0.0
C2189 C 0.38498 0.09222 0.67172 0.0
H2190 H 0.33961 0.08975 0.65336 0.0
C2191 C 0.35223 0.09044 0.65842 0.0
C2192 C 0.35321 0.08365 0.67318 0.0
C2193 C 0.36963 0.08482 0.67985 0.0
C2194 C 0.40153 0.09065 0.67838 0.0
H2195 H 0.37036 0.07953 0.69129 0.0
C2196 C 0.41782 0.10503 0.6809 0.0
C2197 C 0.43257 0.10248 0.68836 0.0
C2198 C 0.40054 0.07397 0.68288 0.0
H2199 H 0.3884 0.06274 0.68098 0.0
C2200 C 0.41504 0.07147 0.68991 0.0
H2201 H 0.41888 0.118 0.67751 0.0
C2202 C 0.43082 0.08554 0.69272 0.0
H2203 H 0.44182 0.0832 0.69839 0.0
H2204 H 0.41399 0.05852 0.69333 0.0
H2205 H 0.21145 0.17251 0.88435 0.0
C2206 C 0.20943 0.17847 0.89417 0.0
C2207 C 0.19906 0.18834 0.89205 0.0
C2208 C 0.21614 0.17554 0.90887 0.0
H2209 H 0.18981 0.2053 0.90261 0.0
C2210 C 0.19737 0.19727 0.90432 0.0
C2211 C 0.20457 0.19544 0.91892 0.0
C2212 C 0.21321 0.18394 0.92127 0.0
C2213 C 0.22602 0.16377 0.91124 0.0
H2214 H 0.21753 0.18166 0.93282 0.0
C2215 C 0.22336 0.15019 0.90114 0.0
C2216 C 0.23327 0.13978 0.90333 0.0
C2217 C 0.23854 0.16621 0.92368 0.0
H2218 H 0.24154 0.17659 0.93151 0.0
C2219 C 0.24784 0.15552 0.92612 0.0
H2220 H 0.21366 0.14755 0.89161 0.0
C2221 C 0.24531 0.14248 0.91602 0.0
H2222 H 0.2529 0.13452 0.91804 0.0
H2223 H 0.25729 0.15753 0.93581 0.0
H2224 H 0.81707 0.3456 0.89373 0.0
C2225 C 0.81659 0.33357 0.89918 0.0
C2226 C 0.82725 0.3256 0.89393 0.0
C2227 C 0.80536 0.32567 0.91122 0.0
H2228 H 0.83718 0.30553 0.89864 0.0
C2229 C 0.82797 0.31083 0.90174 0.0
C2230 C 0.81622 0.30227 0.91284 0.0
C2231 C 0.80393 0.30883 0.91616 0.0
C2232 C 0.79583 0.33462 0.91935 0.0
H2233 H 0.79406 0.3007 0.92349 0.0
C2234 C 0.7977 0.35205 0.91593 0.0
C2235 C 0.78946 0.36006 0.9246 0.0
C2236 C 0.78574 0.32611 0.9319 0.0
H2237 H 0.78414 0.31339 0.9362 0.0
C2238 C 0.77742 0.33396 0.94003 0.0
H2239 H 0.80586 0.3597 0.90709 0.0
C2240 C 0.77911 0.35071 0.93635 0.0
H2241 H 0.77285 0.35671 0.94313 0.0
H2242 H 0.7699 0.32709 0.94953 0.0
H2243 H 0.90132 0.61353 0.13543 0.0
C2244 C 0.88783 0.60576 0.13779 0.0
C2245 C 0.87417 0.60848 0.12878 0.0
C2246 C 0.88386 0.59241 0.14926 0.0
H2247 H 0.84631 0.60028 0.1243 0.0
C2248 C 0.85671 0.59825 0.1314 0.0
C2249 C 0.85236 0.58423 0.14171 0.0
C2250 C 0.86583 0.58164 0.15089 0.0
C2251 C 0.89804 0.58878 0.15904 0.0
H2252 H 0.86197 0.57104 0.15918 0.0
C2253 C 0.91506 0.60172 0.16283 0.0
C2254 C 0.92724 0.59777 0.17315 0.0
C2255 C 0.8943 0.5718 0.16503 0.0
H2256 H 0.8823 0.56104 0.16169 0.0
C2257 C 0.90596 0.56812 0.17546 0.0
H2258 H 0.9188 0.61474 0.15803 0.0
C2259 C 0.92206 0.581 0.17972 0.0
H2260 H 0.9309 0.57765 0.1878 0.0
H2261 H 0.90254 0.55508 0.18016 0.0
H2262 H 0.70591 0.67619 0.4028 0.0
C2263 C 0.7113 0.68687 0.41052 0.0
C2264 C 0.70455 0.69999 0.40927 0.0
C2265 C 0.72465 0.68743 0.42189 0.0
H2266 H 0.70554 0.72324 0.41915 0.0
C2267 C 0.71079 0.71324 0.41984 0.0
C2268 C 0.72184 0.71262 0.4324 0.0
C2269 C 0.72988 0.7007 0.43277 0.0
C2270 C 0.73239 0.67382 0.42313 0.0
H2271 H 0.73961 0.70156 0.44199 0.0
C2272 C 0.73329 0.66464 0.41034 0.0
C2273 C 0.7414 0.65252 0.41195 0.0
C2274 C 0.73916 0.66991 0.43746 0.0
H2275 H 0.7379 0.67553 0.44779 0.0
C2276 C 0.74755 0.65841 0.43892 0.0
H2277 H 0.7279 0.66689 0.3992 0.0
C2278 C 0.74885 0.64996 0.4263 0.0
H2279 H 0.75525 0.64089 0.42782 0.0
H2280 H 0.75288 0.65585 0.45 0.0
H2281 H 0.93334 0.48634 0.35512 0.0
C2282 C 0.94136 0.48709 0.34583 0.0
C2283 C 0.95725 0.48435 0.34873 0.0
C2284 C 0.93496 0.48926 0.3307 0.0
H2285 H 0.97884 0.48274 0.33769 0.0
C2286 C 0.96652 0.4844 0.33604 0.0
C2287 C 0.95813 0.4822 0.32143 0.0
C2288 C 0.9433 0.48622 0.31857 0.0
C2289 C 0.91689 0.48896 0.32735 0.0
H2290 H 0.93698 0.48476 0.30716 0.0
C2291 C 0.9124 0.50352 0.32872 0.0
C2292 C 0.89474 0.50202 0.3253 0.0
C2293 C 0.90396 0.47353 0.32168 0.0
H2294 H 0.9071 0.46239 0.32014 0.0
C2295 C 0.88694 0.47221 0.31783 0.0
H2296 H 0.92253 0.51577 0.33223 0.0
C2297 C 0.88231 0.48611 0.31985 0.0
H2298 H 0.86878 0.48438 0.31703 0.0
H2299 H 0.87718 0.46024 0.31337 0.0
H2300 H 0.60174 0.52785 0.91669 0.0
C2301 C 0.59741 0.53393 0.90697 0.0
C2302 C 0.58641 0.54263 0.90947 0.0
C2303 C 0.60377 0.53451 0.89239 0.0
H2304 H 0.57278 0.55804 0.89892 0.0
C2305 C 0.58065 0.55072 0.8971 0.0
C2306 C 0.58545 0.55024 0.88247 0.0
C2307 C 0.59642 0.54171 0.88005 0.0
C2308 C 0.61949 0.53008 0.89025 0.0
H2309 H 0.59948 0.5415 0.86844 0.0
C2310 C 0.62684 0.52196 0.90194 0.0
C2311 C 0.64304 0.52056 0.90032 0.0
C2312 C 0.62863 0.53568 0.87677 0.0
H2313 H 0.62457 0.54243 0.86746 0.0
C2314 C 0.64411 0.53356 0.87502 0.0
H2315 H 0.62048 0.51704 0.91239 0.0
C2316 C 0.6514 0.5263 0.88673 0.0
H2317 H 0.66374 0.52523 0.88521 0.0
H2318 H 0.6508 0.53804 0.86461 0.0
H2319 H 0.91295 0.62212 0.89136 0.0
C2320 C 0.91008 0.63241 0.89561 0.0
C2321 C 0.89488 0.62891 0.90377 0.0
C2322 C 0.92326 0.64942 0.89438 0.0
H2323 H 0.88553 0.64121 0.92014 0.0
C2324 C 0.89475 0.643 0.9117 0.0
C2325 C 0.9075 0.65969 0.91085 0.0
C2326 C 0.92169 0.66307 0.90194 0.0
C2327 C 0.94046 0.65229 0.88833 0.0
H2328 H 0.93214 0.67588 0.90189 0.0
C2329 C 0.94265 0.65134 0.87266 0.0
C2330 C 0.95944 0.65411 0.86775 0.0
C2331 C 0.95511 0.65619 0.8988 0.0
H2332 H 0.95378 0.65705 0.91082 0.0
C2333 C 0.97153 0.65885 0.89401 0.0
H2334 H 0.93153 0.64861 0.86441 0.0
C2335 C 0.97368 0.65773 0.87867 0.0
H2336 H 0.98662 0.65986 0.87526 0.0
H2337 H 0.98268 0.66179 0.90224 0.0
H2338 H 0.11194 0.1082 0.63985 0.0
C2339 C 0.10564 0.11011 0.64945 0.0
C2340 C 0.10579 0.10083 0.66337 0.0
C2341 C 0.09777 0.12232 0.64822 0.0
H2342 H 0.09319 0.09315 0.68438 0.0
C2343 C 0.09631 0.10273 0.6752 0.0
C2344 C 0.09209 0.11739 0.67556 0.0
C2345 C 0.09273 0.12689 0.6617 0.0
C2346 C 0.09551 0.13138 0.63347 0.0
H2347 H 0.08893 0.13784 0.66131 0.0
C2348 C 0.08763 0.12238 0.61982 0.0
C2349 C 0.08272 0.13118 0.60712 0.0
C2350 C 0.09943 0.1493 0.63363 0.0
H2351 H 0.10606 0.15677 0.64355 0.0
C2352 C 0.09437 0.15777 0.6213 0.0
H2353 H 0.08496 0.10871 0.61921 0.0
C2354 C 0.08578 0.14876 0.60834 0.0
H2355 H 0.08205 0.15575 0.59889 0.0
H2356 H 0.09707 0.17145 0.62183 0.0
H2357 H 0.6548 0.3887 0.40204 0.0
C2358 C 0.64328 0.38879 0.39535 0.0
C2359 C 0.64503 0.40203 0.38396 0.0
C2360 C 0.62666 0.37524 0.39755 0.0
H2361 H 0.63111 0.41099 0.36592 0.0
C2362 C 0.62997 0.40128 0.3749 0.0
C2363 C 0.6139 0.38721 0.37595 0.0
C2364 C 0.61211 0.37475 0.38764 0.0
C2365 C 0.62416 0.36005 0.40847 0.0
H2366 H 0.59947 0.36406 0.38842 0.0
C2367 C 0.63038 0.36154 0.42414 0.0
C2368 C 0.62505 0.3466 0.43413 0.0
C2369 C 0.61389 0.34338 0.403 0.0
H2370 H 0.6096 0.34149 0.39105 0.0
C2371 C 0.60846 0.32894 0.41277 0.0
H2372 H 0.63886 0.37409 0.42853 0.0
C2373 C 0.61357 0.33059 0.42818 0.0
H2374 H 0.60904 0.31904 0.43548 0.0
H2375 H 0.60015 0.31636 0.40836 0.0
H2376 H 0.40278 0.90573 0.13411 0.0
C2377 C 0.40457 0.89997 0.14511 0.0
C2378 C 0.39928 0.90504 0.15828 0.0
C2379 C 0.41158 0.88701 0.14621 0.0
H2380 H 0.39647 0.90032 0.18246 0.0
C2381 C 0.40088 0.89684 0.17239 0.0
C2382 C 0.40898 0.88498 0.17393 0.0
C2383 C 0.41469 0.88055 0.1609 0.0
C2384 C 0.41467 0.87891 0.13248 0.0
H2385 H 0.42126 0.87162 0.16229 0.0
C2386 C 0.42095 0.88816 0.11868 0.0
C2387 C 0.42487 0.87971 0.1068 0.0
C2388 C 0.41129 0.86105 0.13348 0.0
H2389 H 0.4055 0.85315 0.1433 0.0
C2390 C 0.41531 0.85291 0.12196 0.0
H2391 H 0.42304 0.90172 0.11725 0.0
C2392 C 0.42232 0.86219 0.10891 0.0
H2393 H 0.42529 0.85546 0.10011 0.0
H2394 H 0.4129 0.83927 0.12315 0.0
H2395 H 0.90172 0.41182 0.61835 0.0
C2396 C 0.90457 0.4071 0.62952 0.0
C2397 C 0.89812 0.41126 0.64246 0.0
C2398 C 0.91444 0.39659 0.63125 0.0
H2399 H 0.89476 0.40651 0.66646 0.0
C2400 C 0.90055 0.40401 0.65676 0.0
C2401 C 0.91122 0.39456 0.65893 0.0
C2402 C 0.91882 0.39177 0.64623 0.0
C2403 C 0.91945 0.3893 0.61798 0.0
H2404 H 0.92762 0.38505 0.64808 0.0
C2405 C 0.92426 0.39826 0.60376 0.0
C2406 C 0.93072 0.39107 0.59258 0.0
C2407 C 0.91961 0.37255 0.61993 0.0
H2408 H 0.91489 0.36462 0.63002 0.0
C2409 C 0.92597 0.36563 0.60909 0.0
H2410 H 0.92332 0.41069 0.60152 0.0
C2411 C 0.93188 0.37494 0.59576 0.0
H2412 H 0.93682 0.36918 0.58756 0.0
H2413 H 0.92632 0.35292 0.61104 0.0
H2414 H 0.4201 0.12737 0.39299 0.0
C2415 C 0.41919 0.13442 0.40256 0.0
C2416 C 0.40458 0.12709 0.41164 0.0
C2417 C 0.43283 0.1507 0.40636 0.0
H2418 H 0.39305 0.13003 0.43157 0.0
C2419 C 0.40399 0.1359 0.42435 0.0
C2420 C 0.41583 0.15265 0.42723 0.0
C2421 C 0.43028 0.16013 0.41825 0.0
C2422 C 0.45037 0.15742 0.3993 0.0
H2423 H 0.43961 0.17313 0.42075 0.0
C2424 C 0.45265 0.15455 0.38396 0.0
C2425 C 0.4698 0.16082 0.37845 0.0
C2426 C 0.46554 0.16652 0.40868 0.0
H2427 H 0.46474 0.16851 0.42056 0.0
C2428 C 0.48217 0.17285 0.40318 0.0
H2429 H 0.44137 0.14759 0.37641 0.0
C2430 C 0.48431 0.17001 0.38828 0.0
H2431 H 0.49748 0.17492 0.3844 0.0
H2432 H 0.49356 0.17983 0.41064 0.0
H2433 H 0.60876 0.60732 0.17211 0.0
C2434 C 0.60512 0.61169 0.16103 0.0
C2435 C 0.61057 0.60718 0.14779 0.0
C2436 C 0.59369 0.62055 0.1598 0.0
H2437 H 0.60853 0.60792 0.12324 0.0
C2438 C 0.60483 0.61188 0.13346 0.0
C2439 C 0.59327 0.62036 0.13209 0.0
C2440 C 0.5878 0.62478 0.14526 0.0
C2441 C 0.5847 0.62194 0.17317 0.0
H2442 H 0.57827 0.63071 0.14419 0.0
C2443 C 0.59239 0.63536 0.18372 0.0
C2444 C 0.58271 0.63648 0.19578 0.0
C2445 C 0.56746 0.60988 0.17478 0.0
H2446 H 0.56129 0.59959 0.16671 0.0
C2447 C 0.55796 0.61101 0.18666 0.0
H2448 H 0.60562 0.64486 0.18252 0.0
C2449 C 0.5655 0.62421 0.19708 0.0
H2450 H 0.55789 0.62487 0.20623 0.0
H2451 H 0.54467 0.60166 0.18776 0.0
H2452 H 0.13188 0.8723 0.91448 0.0
C2453 C 0.12056 0.87198 0.90723 0.0
C2454 C 0.1228 0.88449 0.89518 0.0
C2455 C 0.10384 0.85861 0.90939 0.0
H2456 H 0.10976 0.89323 0.87642 0.0
C2457 C 0.10808 0.88369 0.88565 0.0
C2458 C 0.0917 0.86987 0.88669 0.0
C2459 C 0.08964 0.85763 0.89875 0.0
C2460 C 0.10109 0.84463 0.92172 0.0
H2461 H 0.07694 0.84709 0.89957 0.0
C2462 C 0.10925 0.84787 0.93676 0.0
C2463 C 0.10523 0.83426 0.94808 0.0
C2464 C 0.08958 0.82749 0.91833 0.0
H2465 H 0.08368 0.8241 0.90693 0.0
C2466 C 0.08547 0.8143 0.92948 0.0
H2467 H 0.11846 0.86077 0.9397 0.0
C2468 C 0.09306 0.81766 0.94423 0.0
H2469 H 0.0898 0.80711 0.95264 0.0
H2470 H 0.07644 0.80131 0.92661 0.0
H2471 H 0.93502 0.98367 0.64137 0.0
C2472 C 0.93972 0.9784 0.65148 0.0
C2473 C 0.94922 0.96813 0.64994 0.0
C2474 C 0.93612 0.9816 0.66601 0.0
H2475 H 0.96107 0.95211 0.66092 0.0
C2476 C 0.95545 0.96134 0.66291 0.0
C2477 C 0.95395 0.96568 0.67785 0.0
C2478 C 0.94292 0.97487 0.67904 0.0
C2479 C 0.92575 0.99244 0.66766 0.0
H2480 H 0.93865 0.97637 0.68982 0.0
C2481 C 0.91089 0.99095 0.65773 0.0
C2482 C 0.90134 1.00134 0.6596 0.0
C2483 C 0.93101 1.00474 0.67918 0.0
H2484 H 0.94251 1.00653 0.68677 0.0
C2485 C 0.92172 0.01513 0.6809 0.0
H2486 H 0.90648 0.98152 0.64882 0.0
C2487 C 0.90697 0.01342 0.67125 0.0
H2488 H 0.89988 0.02154 0.67288 0.0
H2489 H 0.92597 0.02457 0.68979 0.0
H2490 H 0.95039 0.21438 0.40488 0.0
C2491 C 0.93958 0.20231 0.40672 0.0
C2492 C 0.936 0.18796 0.39721 0.0
C2493 C 0.92981 0.20096 0.41952 0.0
H2494 H 0.92288 0.15983 0.39722 0.0
C2495 C 0.92439 0.17159 0.40266 0.0
C2496 C 0.91497 0.16963 0.41554 0.0
C2497 C 0.91721 0.1844 0.42344 0.0
C2498 C 0.93278 0.21647 0.42912 0.0
H2499 H 0.90905 0.18257 0.43282 0.0
C2500 C 0.94066 0.23402 0.42365 0.0
C2501 C 0.94247 0.24792 0.433 0.0
C2502 C 0.92745 0.21367 0.44422 0.0
H2503 H 0.9226 0.20096 0.44964 0.0
C2504 C 0.9285 0.2273 0.45301 0.0
H2505 H 0.94538 0.23703 0.41235 0.0
C2506 C 0.93581 0.24424 0.44744 0.0
H2507 H 0.93689 0.25465 0.45469 0.0
H2508 H 0.92397 0.22473 0.4644 0.0
H2509 H 0.60455 0.03518 0.16385 0.0
C2510 C 0.60308 0.04064 0.17422 0.0
C2511 C 0.59155 0.04929 0.1739 0.0
C2512 C 0.61263 0.03912 0.18792 0.0
H2513 H 0.58076 0.06313 0.18688 0.0
C2514 C 0.58943 0.05622 0.18726 0.0
C2515 C 0.59964 0.05616 0.20061 0.0
C2516 C 0.61113 0.04744 0.20103 0.0
C2517 C 0.62379 0.0286 0.18878 0.0
H2518 H 0.61909 0.04748 0.21143 0.0
C2519 C 0.63402 0.02834 0.17671 0.0
C2520 C 0.64443 0.01827 0.17809 0.0
C2521 C 0.62392 0.01829 0.20194 0.0
H2522 H 0.61596 0.01772 0.21123 0.0
C2523 C 0.63402 1.00831 0.20325 0.0
H2524 H 0.63423 0.03615 0.16645 0.0
C2525 C 0.64427 1.00837 0.1915 0.0
H2526 H 0.65209 1.0006 0.19285 0.0
H2527 H 0.63389 1.00045 0.21346 0.0
H2528 H 0.56927 0.80466 0.90459 0.0
C2529 C 0.57897 0.8178 0.90388 0.0
C2530 C 0.57626 0.82924 0.89257 0.0
C2531 C 0.59385 0.82351 0.91436 0.0
H2532 H 0.58627 0.85541 0.88334 0.0
C2533 C 0.58845 0.8465 0.89188 0.0
C2534 C 0.60409 0.85212 0.90112 0.0
C2535 C 0.60682 0.84051 0.91221 0.0
C2536 C 0.59561 0.81229 0.9279 0.0
H2537 H 0.61909 0.84487 0.91913 0.0
C2538 C 0.58773 0.79383 0.92795 0.0
C2539 C 0.58946 0.78394 0.94113 0.0
C2540 C 0.60476 0.82031 0.94144 0.0
H2541 H 0.61029 0.83427 0.94235 0.0
C2542 C 0.60658 0.81055 0.9543 0.0
H2543 H 0.58047 0.78707 0.9179 0.0
C2544 C 0.59908 0.79254 0.95415 0.0
H2545 H 0.60054 0.78524 0.96435 0.0
H2546 H 0.6137 0.817 0.96453 0.0
H2547 H 0.90134 0.11251 0.87705 0.0
C2548 C 0.88865 0.10241 0.87417 0.0
C2549 C 0.8745 0.10038 0.88298 0.0
C2550 C 0.88601 0.09203 0.86132 0.0
H2551 H 0.84675 0.08699 0.88534 0.0
C2552 C 0.85776 0.08811 0.87893 0.0
C2553 C 0.85487 0.07725 0.86677 0.0
C2554 C 0.86907 0.07872 0.85841 0.0
C2555 C 0.90002 0.0959 0.8501 0.0
H2556 H 0.8665 0.06973 0.84935 0.0
C2557 C 0.91829 0.10516 0.85394 0.0
C2558 C 0.93063 0.10937 0.84263 0.0
C2559 C 0.89485 0.09108 0.83478 0.0
H2560 H 0.88121 0.08489 0.8308 0.0
C2561 C 0.90709 0.09468 0.82391 0.0
H2562 H 0.92301 0.10924 0.86546 0.0
C2563 C 0.9248 0.10376 0.82776 0.0
H2564 H 0.93404 0.1067 0.819 0.0
H2565 H 0.90276 0.09073 0.81229 0.0
H2566 H 0.71166 0.16824 0.66341 0.0
C2567 C 0.709 0.17737 0.65543 0.0
C2568 C 0.69926 0.18656 0.65979 0.0
C2569 C 0.71549 0.18018 0.64081 0.0
H2570 H 0.68942 0.20623 0.65341 0.0
C2571 C 0.69672 0.19904 0.64979 0.0
C2572 C 0.70146 0.2009 0.63468 0.0
C2573 C 0.71097 0.19137 0.63025 0.0
C2574 C 0.72952 0.17418 0.63772 0.0
H2575 H 0.71521 0.19295 0.61877 0.0
C2576 C 0.72625 0.15684 0.63419 0.0
C2577 C 0.7405 0.15181 0.63267 0.0
C2578 C 0.74692 0.18627 0.63941 0.0
H2579 H 0.74974 0.19956 0.64217 0.0
C2580 C 0.76088 0.18134 0.63801 0.0
H2581 H 0.71287 0.14739 0.63277 0.0
C2582 C 0.75773 0.16428 0.63481 0.0
H2583 H 0.76884 0.16079 0.63386 0.0
H2584 H 0.77424 0.19078 0.63954 0.0
H2585 H 0.61587 0.8933 0.39581 0.0
C2586 C 0.62756 0.90497 0.39761 0.0
C2587 C 0.63973 0.90506 0.40975 0.0
C2588 C 0.63117 0.91945 0.38737 0.0
H2589 H 0.66473 0.91933 0.42119 0.0
C2590 C 0.6553 0.91957 0.41193 0.0
C2591 C 0.65989 0.9336 0.40165 0.0
C2592 C 0.6477 0.93378 0.38955 0.0
C2593 C 0.61843 0.91906 0.37389 0.0
H2594 H 0.65132 0.94502 0.38193 0.0
C2595 C 0.60004 0.90874 0.3739 0.0
C2596 C 0.58861 0.90846 0.36091 0.0
C2597 C 0.62477 0.92881 0.36049 0.0
H2598 H 0.63861 0.93629 0.35944 0.0
C2599 C 0.61344 0.92878 0.34788 0.0
H2600 H 0.59451 0.90101 0.38387 0.0
C2601 C 0.59555 0.91874 0.34807 0.0
H2602 H 0.58707 0.91876 0.33803 0.0
H2603 H 0.61862 0.93642 0.33777 0.0
H2604 H 0.8466 0.85949 0.09574 0.0
C2605 C 0.83785 0.86605 0.09591 0.0
C2606 C 0.83865 0.87683 0.10821 0.0
C2607 C 0.82628 0.8644 0.08273 0.0
H2608 H 0.8283 0.89542 0.11447 0.0
C2609 C 0.82785 0.88643 0.1061 0.0
C2610 C 0.81754 0.88646 0.09267 0.0
C2611 C 0.81669 0.8752 0.08121 0.0
C2612 C 0.82461 0.85229 0.06997 0.0
H2613 H 0.80847 0.87503 0.07099 0.0
C2614 C 0.82598 0.83583 0.07235 0.0
C2615 C 0.82278 0.82454 0.05993 0.0
C2616 C 0.82087 0.85714 0.05489 0.0
H2617 H 0.82079 0.86982 0.0521 0.0
C2618 C 0.8172 0.84586 0.04294 0.0
H2619 H 0.82938 0.83178 0.08363 0.0
C2620 C 0.81795 0.82969 0.04545 0.0
H2621 H 0.81537 0.82133 0.03584 0.0
H2622 H 0.814 0.84981 0.03156 0.0
H2623 H 0.21222 0.66412 0.15908 0.0
C2624 C 0.21135 0.67506 0.15242 0.0
C2625 C 0.19998 0.68279 0.15647 0.0
C2626 C 0.22187 0.68187 0.13988 0.0
H2627 H 0.19081 0.70327 0.15088 0.0
C2628 C 0.19945 0.69722 0.14788 0.0
C2629 C 0.20808 0.7027 0.13449 0.0
C2630 C 0.21957 0.69527 0.13063 0.0
C2631 C 0.23659 0.6767 0.13705 0.0
H2632 H 0.22676 0.69994 0.12048 0.0
C2633 C 0.23417 0.65958 0.13359 0.0
C2634 C 0.24869 0.65601 0.12984 0.0
C2635 C 0.25359 0.68979 0.13713 0.0
H2636 H 0.25584 0.70297 0.13983 0.0
C2637 C 0.26784 0.68618 0.13371 0.0
H2638 H 0.22118 0.64931 0.13341 0.0
C2639 C 0.26541 0.66947 0.12999 0.0
H2640 H 0.27666 0.66698 0.12724 0.0
H2641 H 0.28082 0.69643 0.13383 0.0
H2642 H 0.11579 0.38951 0.87975 0.0
C2643 C 0.12752 0.40072 0.88278 0.0
C2644 C 0.13899 0.39887 0.8948 0.0
C2645 C 0.13171 0.41669 0.87445 0.0
H2646 H 0.16369 0.41105 0.90756 0.0
C2647 C 0.15468 0.41275 0.89855 0.0
C2648 C 0.15949 0.42847 0.89052 0.0
C2649 C 0.14793 0.43062 0.87868 0.0
C2650 C 0.11977 0.41859 0.86106 0.0
H2651 H 0.15183 0.44315 0.87291 0.0
C2652 C 0.10157 0.40763 0.8593 0.0
C2653 C 0.09083 0.40964 0.84655 0.0
C2654 C 0.12669 0.43136 0.84954 0.0
H2655 H 0.1405 0.43955 0.84967 0.0
C2656 C 0.11599 0.43367 0.83726 0.0
H2657 H 0.09555 0.3976 0.86773 0.0
C2658 C 0.09823 0.42301 0.8358 0.0
H2659 H 0.09027 0.42492 0.82604 0.0
H2660 H 0.12161 0.44366 0.82867 0.0
H2661 H 0.33246 0.34068 0.60069 0.0
C2662 C 0.32389 0.34764 0.60037 0.0
C2663 C 0.32871 0.36256 0.6093 0.0
C2664 C 0.30834 0.34239 0.59053 0.0
H2665 H 0.32213 0.38397 0.61437 0.0
C2666 C 0.31815 0.37217 0.60803 0.0
C2667 C 0.30214 0.36653 0.59941 0.0
C2668 C 0.29702 0.35131 0.59117 0.0
C2669 C 0.30428 0.32903 0.57844 0.0
H2670 H 0.28439 0.34687 0.58477 0.0
C2671 C 0.30858 0.31416 0.58019 0.0
C2672 C 0.30389 0.30208 0.56826 0.0
C2673 C 0.296 0.33165 0.56439 0.0
H2674 H 0.29328 0.34318 0.56207 0.0
C2675 C 0.29125 0.31969 0.55289 0.0
H2676 H 0.31533 0.31188 0.59061 0.0
C2677 C 0.29502 0.30498 0.55483 0.0
H2678 H 0.29138 0.29597 0.5456 0.0
H2679 H 0.28478 0.32196 0.54229 0.0
H2680 H 0.09167 0.52596 0.6536 0.0
C2681 C 0.08827 0.53025 0.66375 0.0
C2682 C 0.08008 0.54218 0.6622 0.0
C2683 C 0.09157 0.52368 0.67835 0.0
H2684 H 0.06997 0.55757 0.67383 0.0
C2685 C 0.07588 0.54806 0.67515 0.0
C2686 C 0.07867 0.54179 0.68969 0.0
C2687 C 0.08616 0.52929 0.69125 0.0
C2688 C 0.10052 0.51103 0.68031 0.0
H2689 H 0.08806 0.52436 0.70257 0.0
C2690 C 0.11313 0.51104 0.67031 0.0
C2691 C 0.12216 0.49975 0.67307 0.0
C2692 C 0.09673 0.49891 0.69263 0.0
H2693 H 0.08666 0.49766 0.70017 0.0
C2694 C 0.10577 0.48802 0.69547 0.0
H2695 H 0.11631 0.52 0.66062 0.0
C2696 C 0.11854 0.4886 0.68595 0.0
H2697 H 0.12538 0.48 0.68844 0.0
H2698 H 0.1028 0.479 0.70513 0.0
H2699 H 0.44858 0.4934 0.1319 0.0
C2700 C 0.45396 0.48924 0.14226 0.0
C2701 C 0.46565 0.48096 0.14129 0.0
C2702 C 0.44897 0.49167 0.15659 0.0
H2703 H 0.48249 0.47015 0.15376 0.0
C2704 C 0.47329 0.47626 0.15464 0.0
C2705 C 0.46728 0.47688 0.16891 0.0
C2706 C 0.45497 0.48448 0.16975 0.0
C2707 C 0.438 0.50201 0.15811 0.0
H2708 H 0.45014 0.48486 0.1807 0.0
C2709 C 0.42381 0.50121 0.14754 0.0
C2710 C 0.41395 0.51134 0.1495 0.0
C2711 C 0.44218 0.51332 0.17036 0.0
H2712 H 0.45317 0.51468 0.17845 0.0
C2713 C 0.43253 0.52332 0.17221 0.0
H2714 H 0.42028 0.49266 0.13799 0.0
C2715 C 0.41849 0.52231 0.16193 0.0
H2716 H 0.4112 0.53023 0.16359 0.0
H2717 H 0.43601 0.53199 0.18167 0.0
H2718 H 0.57819 0.30852 0.14725 0.0
C2719 C 0.58713 0.32105 0.14317 0.0
C2720 C 0.58761 0.33614 0.14972 0.0
C2721 C 0.59876 0.32223 0.13194 0.0
H2722 H 0.59975 0.36401 0.14987 0.0
C2723 C 0.59934 0.35238 0.14476 0.0
C2724 C 0.61048 0.35402 0.1333 0.0
C2725 C 0.61022 0.33896 0.12689 0.0
C2726 C 0.60002 0.30622 0.12637 0.0
H2727 H 0.61907 0.34036 0.11809 0.0
C2728 C 0.58516 0.29035 0.1244 0.0
C2729 C 0.58712 0.27547 0.11954 0.0
C2730 C 0.61662 0.30665 0.12351 0.0
H2731 H 0.62839 0.31826 0.12532 0.0
C2732 C 0.61847 0.292 0.11866 0.0
H2733 H 0.5722 0.28954 0.12648 0.0
C2734 C 0.60386 0.27655 0.11669 0.0
H2735 H 0.60563 0.26531 0.11294 0.0
H2736 H 0.63134 0.29259 0.11654 0.0
H2737 H 0.9548 0.71529 0.62864 0.0
C2738 C 0.94459 0.70235 0.62862 0.0
C2739 C 0.94668 0.6896 0.63869 0.0
C2740 C 0.92881 0.69864 0.61946 0.0
H2741 H 0.93463 0.6638 0.64794 0.0
C2742 C 0.93306 0.67329 0.63968 0.0
C2743 C 0.91777 0.6687 0.63 0.0
C2744 C 0.91589 0.68135 0.61957 0.0
C2745 C 0.92468 0.71315 0.61175 0.0
H2746 H 0.90413 0.67792 0.61199 0.0
C2747 C 0.93761 0.72815 0.60518 0.0
C2748 C 0.9334 0.74242 0.59982 0.0
C2749 C 0.90761 0.71265 0.61238 0.0
H2750 H 0.89745 0.70171 0.61759 0.0
C2751 C 0.90348 0.72658 0.607 0.0
H2752 H 0.95078 0.72879 0.60429 0.0
C2753 C 0.91624 0.74136 0.60095 0.0
H2754 H 0.91265 0.75205 0.59693 0.0
H2755 H 0.89032 0.72601 0.60773 0.0
H2756 H 0.61789 0.41664 0.65917 0.0
C2757 C 0.63123 0.4222 0.66417 0.0
C2758 C 0.64362 0.41568 0.66037 0.0
C2759 C 0.63647 0.4367 0.67348 0.0
H2760 H 0.67105 0.41993 0.66168 0.0
C2761 C 0.66135 0.42419 0.66548 0.0
C2762 C 0.66685 0.43859 0.67478 0.0
C2763 C 0.65408 0.44407 0.67943 0.0
C2764 C 0.62512 0.44667 0.67426 0.0
H2765 H 0.6582 0.45524 0.6866 0.0
C2766 C 0.60771 0.43927 0.679 0.0
C2767 C 0.59783 0.44971 0.67923 0.0
C2768 C 0.63215 0.46432 0.66973 0.0
H2769 H 0.64527 0.47035 0.66585 0.0
C2770 C 0.62237 0.47444 0.66986 0.0
H2771 H 0.60208 0.42576 0.68268 0.0
C2772 C 0.60537 0.46722 0.67451 0.0
H2773 H 0.59807 0.47543 0.67462 0.0
H2774 H 0.62802 0.48798 0.66633 0.0
H2775 H 0.44572 0.69952 0.92015 0.0
C2776 C 0.43653 0.68692 0.92378 0.0
C2777 C 0.43682 0.672 0.91733 0.0
C2778 C 0.42482 0.68543 0.93509 0.0
H2779 H 0.42601 0.64399 0.91804 0.0
C2780 C 0.42548 0.65552 0.92253 0.0
C2781 C 0.41266 0.65364 0.93261 0.0
C2782 C 0.41202 0.66864 0.93833 0.0
C2783 C 0.42637 0.70077 0.94431 0.0
H2784 H 0.40156 0.66692 0.94558 0.0
C2785 C 0.43521 0.71845 0.9395 0.0
C2786 C 0.43675 0.73214 0.94903 0.0
C2787 C 0.41966 0.69757 0.95891 0.0
H2788 H 0.41383 0.68463 0.96381 0.0
C2789 C 0.42078 0.71103 0.96797 0.0
H2790 H 0.44091 0.72173 0.92859 0.0
C2791 C 0.42918 0.72812 0.96308 0.0
H2792 H 0.43016 0.73836 0.97051 0.0
H2793 H 0.41541 0.70816 0.97905 0.0
H2794 H 0.07215 0.31553 0.38794 0.0
C2795 C 0.08175 0.32856 0.38966 0.0
C2796 C 0.08106 0.34183 0.37937 0.0
C2797 C 0.09447 0.33228 0.40216 0.0
H2798 H 0.09248 0.3693 0.37412 0.0
C2799 C 0.09312 0.35889 0.38174 0.0
C2800 C 0.10717 0.36254 0.39259 0.0
C2801 C 0.10788 0.34929 0.40281 0.0
C2802 C 0.09354 0.31892 0.41475 0.0
H2803 H 0.119 0.35239 0.41106 0.0
C2804 C 0.08413 0.30074 0.41287 0.0
C2805 C 0.08293 0.28885 0.42524 0.0
C2806 C 0.10143 0.32454 0.42938 0.0
H2807 H 0.108 0.33814 0.43186 0.0
C2808 C 0.10055 0.31276 0.44141 0.0
H2809 H 0.07775 0.29564 0.40199 0.0
C2810 C 0.09141 0.29509 0.43938 0.0
H2811 H 0.09066 0.28622 0.44899 0.0
H2812 H 0.10674 0.31742 0.45249 0.0
H2813 H 0.40288 0.62113 0.39866 0.0
C2814 C 0.39027 0.61206 0.39417 0.0
C2815 C 0.37527 0.60969 0.40184 0.0
C2816 C 0.38876 0.60294 0.38075 0.0
H2817 H 0.3473 0.59632 0.40234 0.0
C2818 C 0.35884 0.59791 0.39647 0.0
C2819 C 0.35681 0.58896 0.38318 0.0
C2820 C 0.37172 0.59144 0.37535 0.0
C2821 C 0.4046 0.60556 0.37214 0.0
H2822 H 0.36971 0.5848 0.36477 0.0
C2823 C 0.41999 0.62114 0.37281 0.0
C2824 C 0.4344 0.62319 0.36429 0.0
C2825 C 0.40435 0.59227 0.36289 0.0
H2826 H 0.39339 0.57984 0.36239 0.0
C2827 C 0.41838 0.59457 0.35418 0.0
H2828 H 0.42087 0.63175 0.37966 0.0
C2829 C 0.43327 0.6099 0.35485 0.0
H2830 H 0.4441 0.61133 0.3481 0.0
H2831 H 0.41777 0.5843 0.347 0.0
C2832 C 0.18961 0.41562 0.10617 0.0
C2833 C 0.19003 0.43137 0.11146 0.0
C2834 C 0.16013 0.41534 0.11987 0.0
C2835 C 0.16124 0.39933 0.11684 0.0
N2836 N 0.18066 0.38517 0.11211 0.0
N2837 N 0.17654 0.44545 0.12632 0.0
C2838 C 0.17715 0.39978 0.11158 0.0
C2839 C 0.17552 0.43107 0.11918 0.0
N2840 N 0.20091 0.41571 0.09576 0.0
N2841 N 0.14444 0.4158 0.12274 0.0
H2842 H 0.18762 0.45703 0.12635 0.0
H2843 H 0.167 0.44531 0.13334 0.0
H2844 H 0.13278 0.40482 0.12267 0.0
H2845 H 0.14277 0.42737 0.12368 0.0
H2846 H 0.20002 0.40442 0.09074 0.0
H2847 H 0.20968 0.42717 0.09092 0.0
H2848 H 0.19261 0.3853 0.10916 0.0
H2849 H 0.17254 0.37354 0.11719 0.0
C2850 C 0.86516 0.93479 0.42133 0.0
C2851 C 0.86809 0.95187 0.41578 0.0
C2852 C 0.89269 0.95221 0.402 0.0
C2853 C 0.88846 0.93448 0.4062 0.0
N2854 N 0.86807 0.90786 0.41702 0.0
N2855 N 0.88224 0.97536 0.39804 0.0
C2856 C 0.87384 0.92544 0.41497 0.0
C2857 C 0.88116 0.96017 0.40529 0.0
N2858 N 0.85462 0.92774 0.4331 0.0
N2859 N 0.90814 0.96178 0.3956 0.0
H2860 H 0.87391 0.98153 0.39991 0.0
H2861 H 0.89029 0.98094 0.3891 0.0
H2862 H 0.91724 0.95672 0.39325 0.0
H2863 H 0.91269 0.97519 0.39391 0.0
H2864 H 0.85341 0.91602 0.43857 0.0
H2865 H 0.84854 0.93445 0.43843 0.0
H2866 H 0.85651 0.9004 0.42215 0.0
H2867 H 0.8739 0.90058 0.41217 0.0
C2868 C 0.35622 0.57413 0.62402 0.0
C2869 C 0.34463 0.56556 0.63556 0.0
C2870 C 0.36265 0.58848 0.65329 0.0
C2871 C 0.37466 0.59648 0.64188 0.0
N2872 N 0.38574 0.59327 0.61836 0.0
N2873 N 0.33996 0.56198 0.66241 0.0
C2874 C 0.37246 0.58784 0.628 0.0
C2875 C 0.34884 0.5719 0.65061 0.0
N2876 N 0.35132 0.56996 0.60911 0.0
N2877 N 0.36368 0.59697 0.6663 0.0
H2878 H 0.32999 0.54972 0.66093 0.0
H2879 H 0.34368 0.5652 0.67378 0.0
H2880 H 0.37347 0.60905 0.66878 0.0
H2881 H 0.35406 0.59252 0.67415 0.0
H2882 H 0.35859 0.57708 0.60015 0.0
H2883 H 0.33911 0.56062 0.60558 0.0
H2884 H 0.38529 0.58675 0.60852 0.0
H2885 H 0.39787 0.60322 0.62114 0.0
C2886 C 0.63075 0.07217 0.87708 0.0
C2887 C 0.64443 0.07043 0.8869 0.0
C2888 C 0.64352 0.09306 0.90303 0.0
C2889 C 0.62869 0.09344 0.89396 0.0
N2890 N 0.60538 0.07968 0.87487 0.0
N2891 N 0.66173 0.07701 0.91085 0.0
C2892 C 0.62146 0.08187 0.88174 0.0
C2893 C 0.65026 0.08028 0.90035 0.0
N2894 N 0.62693 0.06497 0.86304 0.0
N2895 N 0.65153 0.1052 0.91386 0.0
H2896 H 0.66691 0.06778 0.90935 0.0
H2897 H 0.66497 0.0824 0.92159 0.0
H2898 H 0.64691 0.11462 0.91621 0.0
H2899 H 0.66347 0.10674 0.9197 0.0
H2900 H 0.61827 0.06732 0.85483 0.0
H2901 H 0.63378 0.05818 0.85902 0.0
H2902 H 0.59879 0.07026 0.86684 0.0
H2903 H 0.59776 0.08594 0.87842 0.0
C2904 C 0.15503 0.60074 0.37981 0.0
C2905 C 0.1501 0.58339 0.38538 0.0
C2906 C 0.12566 0.586 0.39755 0.0
C2907 C 0.132 0.60399 0.39342 0.0
N2908 N 0.1562 0.62918 0.38465 0.0
N2909 N 0.133 0.56084 0.40266 0.0
C2910 C 0.14789 0.61156 0.38593 0.0
C2911 C 0.13611 0.5764 0.39523 0.0
N2912 N 0.16594 0.60673 0.36816 0.0
N2913 N 0.10934 0.57772 0.40282 0.0
H2914 H 0.14045 0.55356 0.4014 0.0
H2915 H 0.12413 0.55603 0.41113 0.0
H2916 H 0.10086 0.58389 0.40407 0.0
H2917 H 0.10355 0.56432 0.40456 0.0
H2918 H 0.16853 0.6188 0.36277 0.0
H2919 H 0.17072 0.59891 0.36278 0.0
H2920 H 0.16848 0.6353 0.38023 0.0
H2921 H 0.1517 0.63755 0.38956 0.0
C2922 C 0.67374 0.91471 0.64409 0.0
C2923 C 0.67371 0.92346 0.62978 0.0
C2924 C 0.64382 0.90248 0.62341 0.0
C2925 C 0.64513 0.89212 0.63643 0.0
N2926 N 0.66144 0.88792 0.65904 0.0
N2927 N 0.65927 0.92503 0.60518 0.0
C2928 C 0.66 0.89826 0.6469 0.0
C2929 C 0.65879 0.9173 0.61932 0.0
N2930 N 0.68699 0.92212 0.65496 0.0
N2931 N 0.62824 0.89784 0.61487 0.0
H2932 H 0.66991 0.93605 0.60191 0.0
H2933 H 0.64971 0.91984 0.59638 0.0
H2934 H 0.61709 0.88713 0.6178 0.0
H2935 H 0.62591 0.9054 0.60584 0.0
H2936 H 0.68696 0.91726 0.6661 0.0
H2937 H 0.69736 0.934 0.65321 0.0
H2938 H 0.67289 0.89055 0.66603 0.0
H2939 H 0.65132 0.87615 0.66168 0.0
C2940 C 0.36241 0.43273 0.9082 0.0
C2941 C 0.36569 0.44007 0.92286 0.0
C2942 C 0.39231 0.43466 0.92644 0.0
C2943 C 0.3882 0.42509 0.91283 0.0
N2944 N 0.36538 0.41084 0.89328 0.0
N2945 N 0.38013 0.44121 0.9479 0.0
C2946 C 0.37203 0.42282 0.90438 0.0
C2947 C 0.3792 0.43834 0.93272 0.0
N2948 N 0.35079 0.43571 0.89772 0.0
N2949 N 0.40913 0.44197 0.93253 0.0
H2950 H 0.37044 0.44375 0.95285 0.0
H2951 H 0.38951 0.43919 0.95554 0.0
H2952 H 0.41962 0.44266 0.92651 0.0
H2953 H 0.41262 0.44966 0.94211 0.0
H2954 H 0.34939 0.43206 0.88642 0.0
H2955 H 0.34367 0.44301 0.89999 0.0
H2956 H 0.35313 0.40816 0.88755 0.0
H2957 H 0.37102 0.40214 0.89121 0.0
C2958 C 0.86964 0.09212 0.11159 0.0
C2959 C 0.85568 0.0859 0.12145 0.0
C2960 C 0.8718 0.1106 0.13805 0.0
C2961 C 0.88599 0.11602 0.12851 0.0
N2962 N 0.90078 0.10829 0.10972 0.0
N2963 N 0.84572 0.08683 0.14624 0.0
C2964 C 0.88569 0.10539 0.11654 0.0
C2965 C 0.85741 0.09441 0.13538 0.0
N2966 N 0.86731 0.08611 0.09716 0.0
N2967 N 0.8718 0.12109 0.14929 0.0
H2968 H 0.8353 0.07484 0.14486 0.0
H2969 H 0.84734 0.09165 0.15713 0.0
H2970 H 0.88243 0.13266 0.15181 0.0
H2971 H 0.86094 0.11873 0.15553 0.0
H2972 H 0.87663 0.09155 0.08911 0.0
H2973 H 0.85536 0.07707 0.09273 0.0
H2974 H 0.90155 0.10021 0.10151 0.0
H2975 H 0.91282 0.11773 0.11351 0.0
C2976 C 0.06492 0.08161 0.39902 0.0
C2977 C 0.0591 0.07589 0.41367 0.0
C2978 C 0.0711 0.05337 0.41169 0.0
C2979 C 0.08019 0.0628 0.39895 0.0
N2980 N 0.08968 0.08961 0.38409 0.0
N2981 N 0.05293 0.05237 0.4324 0.0
C2982 C 0.07939 0.07894 0.39478 0.0
C2983 C 0.06135 0.06064 0.41983 0.0
N2984 N 0.05383 0.08398 0.38768 0.0
N2985 N 0.07119 0.0374 0.41545 0.0
H2986 H 0.04328 0.05557 0.43666 0.0
H2987 H 0.05524 0.0423 0.43833 0.0
H2988 H 0.0786 0.03233 0.40982 0.0
H2989 H 0.06378 0.02911 0.42379 0.0
H2990 H 0.05736 0.08677 0.37643 0.0
H2991 H 0.04044 0.08003 0.38913 0.0
H2992 H 0.08817 0.10097 0.3802 0.0
H2993 H 0.10009 0.08742 0.38009 0.0
C2994 C 0.04327 0.82996 0.68502 0.0
C2995 C 0.04827 0.83179 0.70082 0.0
C2996 C 0.07338 0.82473 0.69674 0.0
C2997 C 0.07126 0.8284 0.68094 0.0
N2998 N 0.05315 0.83274 0.65958 0.0
N2999 N 0.05842 0.81571 0.72001 0.0
C3000 C 0.05565 0.83003 0.67485 0.0
C3001 C 0.06065 0.8248 0.70651 0.0
N3002 N 0.02637 0.82691 0.68001 0.0
N3003 N 0.08771 0.82165 0.70246 0.0
H3004 H 0.04685 0.81229 0.72554 0.0
H3005 H 0.06636 0.80923 0.72422 0.0
H3006 H 0.09682 0.82067 0.6955 0.0
H3007 H 0.09082 0.82083 0.71411 0.0
H3008 H 0.02153 0.82407 0.66876 0.0
H3009 H 1.01687 0.82541 0.68764 0.0
H3010 H 0.04296 0.83611 0.65483 0.0
H3011 H 0.06181 0.83246 0.65178 0.0
C3012 C 0.4502 0.95594 0.9023 0.0
C3013 C 0.45915 0.94455 0.90307 0.0
C3014 C 0.45483 0.94189 0.87579 0.0
C3015 C 0.44693 0.95432 0.87427 0.0
N3016 N 0.44365 0.97776 0.88673 0.0
N3017 N 0.47709 0.93424 0.88978 0.0
C3018 C 0.44666 0.96289 0.88774 0.0
C3019 C 0.4644 0.94075 0.88946 0.0
N3020 N 0.44451 0.95966 0.91516 0.0
N3021 N 0.45126 0.92937 0.86537 0.0
H3022 H 0.48408 0.93307 0.89992 0.0
H3023 H 0.48162 0.93184 0.87982 0.0
H3024 H 0.44116 0.92686 0.85692 0.0
H3025 H 0.45629 0.91974 0.86675 0.0
H3026 H 0.43642 0.96654 0.91489 0.0
H3027 H 0.44709 0.95495 0.92591 0.0
H3028 H 0.44441 0.98492 0.89623 0.0
H3029 H 0.44257 0.98395 0.87631 0.0
C3030 C 0.49303 0.20325 0.18601 0.0
C3031 C 0.4986 0.18927 0.18622 0.0
C3032 C 0.48346 0.18135 0.16097 0.0
C3033 C 0.47449 0.19238 0.16266 0.0
N3034 N 0.4704 0.21372 0.17734 0.0
N3035 N 0.49816 0.16411 0.1739 0.0
C3036 C 0.47945 0.20363 0.17516 0.0
C3037 C 0.49391 0.17828 0.17353 0.0
N3038 N 0.50057 0.21599 0.1964 0.0
N3039 N 0.48152 0.17344 0.14744 0.0
H3040 H 0.5056 0.16118 0.1829 0.0
H3041 H 0.49319 0.15453 0.16578 0.0
H3042 H 0.47393 0.17556 0.13809 0.0
H3043 H 0.48878 0.16633 0.14505 0.0
H3044 H 0.49814 0.22728 0.19606 0.0
H3045 H 0.51062 0.21599 0.20436 0.0
H3046 H 0.47209 0.22057 0.18723 0.0
H3047 H 0.46035 0.21435 0.16973 0.0
C3048 C 0.13 0.86961 0.15893 0.0
C3049 C 0.13802 0.87308 0.14481 0.0
C3050 C 0.14865 0.90425 0.14897 0.0
C3051 C 0.14267 0.90089 0.16386 0.0
N3052 N 0.12858 0.88037 0.18366 0.0
N3053 N 0.15832 0.89364 0.1281 0.0
C3054 C 0.13354 0.88353 0.16905 0.0
C3055 C 0.14835 0.8904 0.14036 0.0
N3056 N 0.11872 0.85314 0.16249 0.0
N3057 N 0.15411 0.92069 0.14281 0.0
H3058 H 0.15873 0.88382 0.1216 0.0
H3059 H 0.16752 0.90591 0.12536 0.0
H3060 H 0.15365 0.93103 0.14852 0.0
H3061 H 0.15718 0.92365 0.1315 0.0
H3062 H 0.11103 0.85002 0.17181 0.0
H3063 H 0.11622 0.84272 0.15549 0.0
H3064 H 0.12349 0.86802 0.1887 0.0
H3065 H 0.13045 0.89032 0.19104 0.0
C3066 C 0.36175 0.84831 0.3825 0.0
C3067 C 0.35874 0.83423 0.37294 0.0
C3068 C 0.33134 0.81767 0.38519 0.0
C3069 C 0.33606 0.83042 0.39654 0.0
N3070 N 0.35684 0.85743 0.40669 0.0
N3071 N 0.34129 0.80473 0.36601 0.0
C3072 C 0.35144 0.84577 0.39528 0.0
C3073 C 0.3436 0.81873 0.37441 0.0
N3074 N 0.37449 0.86416 0.37933 0.0
N3075 N 0.31498 0.80466 0.38462 0.0
H3076 H 0.34976 0.80515 0.35778 0.0
H3077 H 0.3317 0.79242 0.36796 0.0
H3078 H 0.30549 0.80392 0.39199 0.0
H3079 H 0.31022 0.79575 0.37594 0.0
H3080 H 0.37621 0.87536 0.38492 0.0
H3081 H 0.38225 0.86642 0.37008 0.0
H3082 H 0.36897 0.86785 0.40722 0.0
H3083 H 0.3498 0.85598 0.41627 0.0
C3084 C 0.34572 0.09978 0.61045 0.0
C3085 C 0.35451 0.11748 0.60615 0.0
C3086 C 0.37324 0.12226 0.62996 0.0
C3087 C 0.36492 0.10439 0.63406 0.0
N3088 N 0.34694 0.07539 0.62596 0.0
N3089 N 0.37999 0.1441 0.60958 0.0
C3090 C 0.35235 0.0929 0.62353 0.0
C3091 C 0.3694 0.12822 0.61519 0.0
N3092 N 0.3306 0.08971 0.6025 0.0
N3093 N 0.38392 0.13383 0.64041 0.0
H3094 H 0.37769 0.14881 0.59875 0.0
H3095 H 0.39198 0.15176 0.61502 0.0
H3096 H 0.38675 0.13027 0.65151 0.0
H3097 H 0.38871 0.14721 0.63848 0.0
H3098 H 0.32256 0.07728 0.60617 0.0
H3099 H 0.32534 0.09429 0.59289 0.0
H3100 H 0.33892 0.06638 0.61808 0.0
H3101 H 0.35199 0.06997 0.63516 0.0
C3102 C 0.16443 0.17341 0.85874 0.0
C3103 C 0.16329 0.18938 0.85413 0.0
C3104 C 0.1898 0.20457 0.87045 0.0
C3105 C 0.18855 0.18845 0.87743 0.0
N3106 N 0.17225 0.15732 0.87952 0.0
N3107 N 0.17438 0.22041 0.85607 0.0
C3108 C 0.17546 0.17274 0.87175 0.0
C3109 C 0.17597 0.2051 0.85999 0.0
N3110 N 0.15453 0.15875 0.85098 0.0
N3111 N 0.20418 0.21931 0.87384 0.0
H3112 H 0.16478 0.22127 0.848 0.0
H3113 H 0.18191 0.232 0.86144 0.0
H3114 H 0.2147 0.21919 0.88116 0.0
H3115 H 0.20644 0.23123 0.8683 0.0
H3116 H 0.15615 0.14709 0.85294 0.0
H3117 H 0.14603 0.15875 0.84156 0.0
H3118 H 0.16161 0.14592 0.87663 0.0
H3119 H 0.17886 0.15607 0.88979 0.0
C3120 C 0.844 0.32227 0.85599 0.0
C3121 C 0.86018 0.33691 0.85616 0.0
C3122 C 0.85342 0.34616 0.88001 0.0
C3123 C 0.83723 0.33154 0.87985 0.0
N3124 N 0.81511 0.30819 0.86586 0.0
N3125 N 0.87826 0.36497 0.86603 0.0
C3126 C 0.83188 0.32046 0.86716 0.0
C3127 C 0.86416 0.34959 0.86742 0.0
N3128 N 0.84057 0.30969 0.8456 0.0
N3129 N 0.85904 0.35619 0.89258 0.0
H3130 H 0.8864 0.36784 0.85701 0.0
H3131 H 0.88093 0.37544 0.87299 0.0
H3132 H 0.85144 0.35425 0.90187 0.0
H3133 H 0.87164 0.36571 0.89423 0.0
H3134 H 0.83007 0.29771 0.84602 0.0
H3135 H 0.84893 0.31084 0.83703 0.0
H3136 H 0.80982 0.30063 0.85632 0.0
H3137 H 0.80592 0.30673 0.87376 0.0
C3138 C 0.87469 0.64634 0.10293 0.0
C3139 C 0.86633 0.63693 0.0896 0.0
C3140 C 0.87187 0.61194 0.10066 0.0
C3141 C 0.87688 0.62008 0.11492 0.0
N3142 N 0.88285 0.64497 0.12997 0.0
N3143 N 0.85531 0.60995 0.07637 0.0
C3144 C 0.87853 0.63741 0.1161 0.0
C3145 C 0.86471 0.61956 0.0885 0.0
N3146 N 0.87902 0.66382 0.10296 0.0
N3147 N 0.87349 0.59658 0.099 0.0
H3148 H 0.84967 0.61501 0.06734 0.0
H3149 H 0.85189 0.59664 0.07589 0.0
H3150 H 0.87879 0.59087 0.10781 0.0
H3151 H 0.87127 0.59051 0.08861 0.0
H3152 H 0.88646 0.67164 0.11184 0.0
H3153 H 0.87657 0.67077 0.09347 0.0
H3154 H 0.88207 0.65673 0.13205 0.0
H3155 H 0.88643 0.63896 0.1396 0.0
C3156 C 0.67503 0.69665 0.37241 0.0
C3157 C 0.66283 0.70282 0.3776 0.0
C3158 C 0.67577 0.70314 0.40338 0.0
C3159 C 0.68969 0.69956 0.39812 0.0
N3160 N 0.70449 0.69729 0.37632 0.0
N3161 N 0.65643 0.71802 0.39712 0.0
C3162 C 0.68994 0.69757 0.38222 0.0
C3163 C 0.66491 0.7082 0.39277 0.0
N3164 N 0.67215 0.68929 0.35853 0.0
N3165 N 0.67227 0.70092 0.4184 0.0
H3166 H 0.64883 0.72251 0.38937 0.0
H3167 H 0.65865 0.72318 0.40795 0.0
H3168 H 0.67873 0.69547 0.42642 0.0
H3169 H 0.66153 0.70251 0.42237 0.0
H3170 H 0.6798 0.68308 0.355 0.0
H3171 H 0.66126 0.68803 0.35115 0.0
H3172 H 0.70564 0.69725 0.36464 0.0
H3173 H 0.71605 0.69902 0.38289 0.0
C3174 C 0.96339 0.47648 0.39241 0.0
C3175 C 0.97298 0.46568 0.39274 0.0
C3176 C 0.97116 0.46628 0.36527 0.0
C3177 C 0.96304 0.47857 0.36429 0.0
N3178 N 0.95737 0.49954 0.37842 0.0
N3179 N 0.99259 0.4576 0.37948 0.0
C3180 C 0.96093 0.48503 0.37833 0.0
C3181 C 0.97956 0.46367 0.37915 0.0
N3182 N 0.95626 0.47825 0.40524 0.0
N3183 N 0.9689 0.45523 0.35382 0.0
H3184 H 0.99882 0.45541 0.38971 0.0
H3185 H 0.99816 0.45659 0.36958 0.0
H3186 H 0.95966 0.45372 0.34475 0.0
H3187 H 0.97403 0.44566 0.35469 0.0
H3188 H 0.9477 0.48459 0.40519 0.0
H3189 H 0.95816 0.47245 0.41566 0.0
H3190 H 0.95677 0.50519 0.38847 0.0
H3191 H 0.95726 0.50706 0.3686 0.0
C3192 C 0.58898 0.56329 0.94731 0.0
C3193 C 0.57207 0.56372 0.94568 0.0
C3194 C 0.56347 0.54155 0.9264 0.0
C3195 C 0.58146 0.5451 0.92487 0.0
N3196 N 0.61177 0.55939 0.93466 0.0
N3197 N 0.54263 0.55271 0.93404 0.0
C3198 C 0.59433 0.55549 0.93587 0.0
C3199 C 0.55898 0.55236 0.93557 0.0
N3200 N 0.60011 0.5709 0.9595 0.0
N3201 N 0.55087 0.52843 0.9184 0.0
H3202 H 0.53885 0.56012 0.94097 0.0
H3203 H 0.53321 0.54638 0.92546 0.0
H3204 H 0.5541 0.52049 0.9116 0.0
H3205 H 0.53748 0.5245 0.91965 0.0
H3206 H 0.61198 0.56956 0.96215 0.0
H3207 H 0.59656 0.577 0.96782 0.0
H3208 H 0.62168 0.56863 0.94124 0.0
H3209 H 0.61664 0.55434 0.92654 0.0
C3210 C 0.86863 0.57874 0.90956 0.0
C3211 C 0.86008 0.57972 0.92264 0.0
C3212 C 0.86784 0.60979 0.91714 0.0
C3213 C 0.88049 0.61089 0.90692 0.0
N3214 N 0.88724 0.594 0.88905 0.0
N3215 N 0.85747 0.59807 0.94146 0.0
C3216 C 0.87969 0.5946 0.90199 0.0
C3217 C 0.86278 0.59611 0.92775 0.0
N3218 N 0.86518 0.56287 0.90389 0.0
N3219 N 0.85802 0.61953 0.91474 0.0
H3220 H 0.85306 0.58777 0.94938 0.0
H3221 H 0.85892 0.61025 0.945 0.0
H3222 H 0.85952 0.62801 0.9053 0.0
H3223 H 0.84768 0.6179 0.92147 0.0
H3224 H 0.86954 0.561 0.89369 0.0
H3225 H 0.85749 0.55139 0.90945 0.0
H3226 H 0.88944 0.58327 0.88601 0.0
H3227 H 0.8898 0.60391 0.88075 0.0
C3228 C 0.12733 0.06775 0.66155 0.0
C3229 C 0.13665 0.06982 0.67609 0.0
C3230 C 0.12974 0.09511 0.67963 0.0
C3231 C 0.11738 0.09078 0.66673 0.0
N3232 N 0.1032 0.07117 0.64623 0.0
N3233 N 0.14419 0.0842 0.70015 0.0
C3234 C 0.11594 0.07668 0.6578 0.0
C3235 C 0.13718 0.08317 0.68548 0.0
N3236 N 0.12964 0.05753 0.65117 0.0
N3237 N 0.13516 0.11105 0.68583 0.0
H3238 H 0.14964 0.07563 0.70491 0.0
H3239 H 0.1431 0.09259 0.7079 0.0
H3240 H 0.13105 0.12066 0.68119 0.0
H3241 H 0.145 0.11525 0.6946 0.0
H3242 H 0.12458 0.05692 0.63989 0.0
H3243 H 0.13814 0.05112 0.65341 0.0
H3244 H 0.10056 0.05994 0.64031 0.0
H3245 H 0.09417 0.07685 0.64351 0.0
C3246 C 0.678 0.43536 0.35898 0.0
C3247 C 0.68971 0.44706 0.36968 0.0
C3248 C 0.67377 0.42817 0.39057 0.0
C3249 C 0.66241 0.41605 0.37984 0.0
N3250 N 0.65883 0.40555 0.35434 0.0
N3251 N 0.70196 0.45195 0.39555 0.0
C3252 C 0.66622 0.41885 0.36419 0.0
C3253 C 0.68869 0.44251 0.38545 0.0
N3254 N 0.67761 0.44014 0.34392 0.0
N3255 N 0.66979 0.42687 0.40542 0.0
H3256 H 0.71298 0.4625 0.39213 0.0
H3257 H 0.70284 0.44821 0.40697 0.0
H3258 H 0.65866 0.41719 0.4096 0.0
H3259 H 0.67674 0.43637 0.4133 0.0
H3260 H 0.66784 0.43282 0.33597 0.0
H3261 H 0.68619 0.45205 0.33965 0.0
H3262 H 0.66182 0.40657 0.34299 0.0
H3263 H 0.65152 0.39297 0.35816 0.0
C3264 C 0.39222 0.94344 0.17257 0.0
C3265 C 0.37701 0.943 0.16369 0.0
C3266 C 0.37684 0.91828 0.14983 0.0
C3267 C 0.39268 0.91939 0.15815 0.0
N3268 N 0.41813 0.9368 0.17382 0.0
N3269 N 0.35764 0.93304 0.14122 0.0
C3270 C 0.40122 0.93323 0.16835 0.0
C3271 C 0.37026 0.93141 0.15143 0.0
N3272 N 0.39765 0.95292 0.18547 0.0
N3273 N 0.36745 0.90422 0.14117 0.0
H3274 H 0.35265 0.94256 0.14201 0.0
H3275 H 0.35345 0.92611 0.13122 0.0
H3276 H 0.37141 0.89405 0.14004 0.0
H3277 H 0.35493 0.90192 0.13618 0.0
H3278 H 0.40742 0.95203 0.19329 0.0
H3279 H 0.39136 0.96047 0.18905 0.0
H3280 H 0.42544 0.94747 0.18045 0.0
H3281 H 0.42543 0.93026 0.1702 0.0
C3282 C 0.89132 0.45149 0.65184 0.0
C3283 C 0.87286 0.44602 0.64914 0.0
C3284 C 0.87108 0.41825 0.63976 0.0
C3285 C 0.8896 0.42401 0.64194 0.0
N3286 N 0.91771 0.44717 0.64718 0.0
N3287 N 0.84552 0.42568 0.63789 0.0
C3288 C 0.89981 0.44104 0.64699 0.0
C3289 C 0.86285 0.42984 0.64226 0.0
N3290 N 0.90062 0.46619 0.65978 0.0
N3291 N 0.86131 0.40147 0.63591 0.0
H3292 H 0.83905 0.43381 0.63952 0.0
H3293 H 0.83789 0.4149 0.63153 0.0
H3294 H 0.86697 0.39292 0.63336 0.0
H3295 H 0.84769 0.39574 0.63606 0.0
H3296 H 0.91371 0.4698 0.66372 0.0
H3297 H 0.89487 0.47414 0.66354 0.0
H3298 H 0.92594 0.45998 0.64937 0.0
H3299 H 0.92429 0.4398 0.64376 0.0
C3300 C 0.35816 0.10156 0.41568 0.0
C3301 C 0.35688 0.08423 0.41755 0.0
C3302 C 0.38778 0.09432 0.41118 0.0
C3303 C 0.38822 0.1113 0.40823 0.0
N3304 N 0.37158 0.12899 0.40227 0.0
N3305 N 0.36954 0.06353 0.41341 0.0
C3306 C 0.37235 0.11388 0.40816 0.0
C3307 C 0.37141 0.08036 0.41414 0.0
N3308 N 0.3466 0.10663 0.4221 0.0
N3309 N 0.40297 0.09162 0.41178 0.0
H3310 H 0.35776 0.05311 0.4153 0.0
H3311 H 0.3792 0.06002 0.40963 0.0
H3312 H 0.41491 0.10142 0.40919 0.0
H3313 H 0.40377 0.07993 0.4155 0.0
H3314 H 0.34816 0.11957 0.42225 0.0
H3315 H 0.33683 0.09827 0.42885 0.0
H3316 H 0.36005 0.13123 0.40149 0.0
H3317 H 0.38213 0.1384 0.39696 0.0
C3318 C 0.6173 0.56733 0.13876 0.0
C3319 C 0.6359 0.57301 0.13922 0.0
C3320 C 0.6381 0.60196 0.14593 0.0
C3321 C 0.61988 0.59516 0.14806 0.0
N3322 N 0.59237 0.57041 0.14841 0.0
N3323 N 0.65993 0.59892 0.13148 0.0
C3324 C 0.60963 0.57749 0.14524 0.0
C3325 C 0.64563 0.59129 0.13982 0.0
N3326 N 0.60699 0.55388 0.12978 0.0
N3327 N 0.64815 0.61879 0.14935 0.0
H3328 H 0.66237 0.59223 0.12294 0.0
H3329 H 0.66693 0.61229 0.13067 0.0
H3330 H 0.64289 0.6269 0.15365 0.0
H3331 H 0.66179 0.62404 0.14926 0.0
H3332 H 0.59347 0.55025 0.12785 0.0
H3333 H 0.61237 0.54813 0.12258 0.0
H3334 H 0.58478 0.55715 0.1477 0.0
H3335 H 0.58623 0.57749 0.15311 0.0
C3336 C 0.16617 0.925 0.89456 0.0
C3337 C 0.16842 0.92658 0.87863 0.0
C3338 C 0.14535 0.89752 0.87577 0.0
C3339 C 0.1405 0.89756 0.89085 0.0
N3340 N 0.1461 0.91241 0.91455 0.0
N3341 N 0.15792 0.91497 0.85363 0.0
C3342 C 0.151 0.9115 0.90034 0.0
C3343 C 0.15743 0.91297 0.86909 0.0
N3344 N 0.17862 0.93634 0.90417 0.0
N3345 N 0.13878 0.88247 0.86801 0.0
H3346 H 0.16653 0.92612 0.84828 0.0
H3347 H 0.14871 0.90614 0.8462 0.0
H3348 H 0.13158 0.87068 0.87338 0.0
H3349 H 0.14248 0.8814 0.85724 0.0
H3350 H 0.17862 0.93486 0.91598 0.0
H3351 H 0.18989 0.94623 0.90031 0.0
H3352 H 0.15223 0.9232 0.92132 0.0
H3353 H 0.13511 0.90291 0.91915 0.0
C3354 C 0.97418 0.9668 0.61629 0.0
C3355 C 0.96329 0.9502 0.61068 0.0
C3356 C 0.94124 0.94731 0.6287 0.0
C3357 C 0.95243 0.96354 0.63475 0.0
N3358 N 0.97768 0.99033 0.63288 0.0
N3359 N 0.93527 0.92601 0.60927 0.0
C3360 C 0.96828 0.97387 0.62797 0.0
C3361 C 0.94636 0.94096 0.61611 0.0
N3362 N 0.99039 0.9754 0.61085 0.0
N3363 N 0.92612 0.93759 0.63556 0.0
H3364 H 0.93873 0.92067 0.60033 0.0
H3365 H 0.92219 0.91943 0.61163 0.0
H3366 H 0.92152 0.94227 0.64424 0.0
H3367 H 0.91843 0.92471 0.63318 0.0
H3368 H 0.99985 0.98669 0.61542 0.0
H3369 H 0.9947 0.97079 0.60193 0.0
H3370 H 0.9887 0.99916 0.62783 0.0
H3371 H 0.97369 0.99568 0.64149 0.0
C3372 C 0.95059 0.17054 0.36443 0.0
C3373 C 0.96781 0.18317 0.36291 0.0
C3374 C 0.96096 0.20265 0.37866 0.0
C3375 C 0.94527 0.18872 0.38265 0.0
N3376 N 0.92111 0.16608 0.36975 0.0
N3377 N 0.98974 0.21145 0.36894 0.0
C3378 C 0.93879 0.17444 0.37276 0.0
C3379 C 0.97313 0.19928 0.37019 0.0
N3380 N 0.94536 0.15474 0.35796 0.0
N3381 N 0.96246 0.21929 0.37985 0.0
H3382 H 0.9989 0.20946 0.36273 0.0
H3383 H 0.99473 0.22279 0.37513 0.0
H3384 H 0.95156 0.222 0.38168 0.0
H3385 H 0.97306 0.23003 0.3761 0.0
H3386 H 0.93354 0.14452 0.3602 0.0
H3387 H 0.95336 0.15137 0.35143 0.0
H3388 H 0.91557 0.15665 0.36153 0.0
H3389 H 0.9122 0.17024 0.37417 0.0
C3390 C 0.5784 0.07831 0.14622 0.0
C3391 C 0.56357 0.06634 0.13798 0.0
C3392 C 0.56849 0.04208 0.15171 0.0
C3393 C 0.58365 0.05419 0.1595 0.0
N3394 N 0.60566 0.08326 0.16114 0.0
N3395 N 0.54586 0.03696 0.13095 0.0
C3396 C 0.58944 0.07212 0.15568 0.0
C3397 C 0.55908 0.04821 0.14007 0.0
N3398 N 0.58165 0.09563 0.14547 0.0
N3399 N 0.56273 0.02491 0.15588 0.0
H3400 H 0.53849 0.04113 0.1227 0.0
H3401 H 0.54295 0.02372 0.13085 0.0
H3402 H 0.56959 0.02009 0.16407 0.0
H3403 H 0.55082 0.01559 0.15181 0.0
H3404 H 0.59075 0.10454 0.15287 0.0
H3405 H 0.57434 0.101 0.13833 0.0
H3406 H 0.61129 0.09628 0.15776 0.0
H3407 H 0.61428 0.07906 0.16785 0.0
C3408 C 0.55396 0.82902 0.85373 0.0
C3409 C 0.53588 0.82087 0.85634 0.0
C3410 C 0.54368 0.81642 0.88332 0.0
C3411 C 0.56175 0.82342 0.88025 0.0
N3412 N 0.58273 0.82958 0.86117 0.0
N3413 N 0.51355 0.8029 0.87275 0.0
C3414 C 0.5664 0.82742 0.86497 0.0
C3415 C 0.53072 0.81322 0.87087 0.0
N3416 N 0.55947 0.83919 0.84098 0.0
N3417 N 0.53884 0.81383 0.89797 0.0
H3418 H 0.50387 0.80036 0.86381 0.0
H3419 H 0.50932 0.79563 0.88271 0.0
H3420 H 0.54786 0.81671 0.90739 0.0
H3421 H 0.5259 0.81024 0.90074 0.0
H3422 H 0.57268 0.84673 0.83953 0.0
H3423 H 0.55093 0.84164 0.8327 0.0
H3424 H 0.5864 0.83162 0.84997 0.0
H3425 H 0.59164 0.82707 0.86899 0.0
C3426 C 0.86541 0.10931 0.9219 0.0
C3427 C 0.86931 0.12737 0.9209 0.0
C3428 C 0.87922 0.12867 0.89519 0.0
C3429 C 0.87627 0.1108 0.89665 0.0
N3430 N 0.87151 0.08562 0.91309 0.0
N3431 N 0.88397 0.155 0.90816 0.0
C3432 C 0.87107 0.10167 0.91064 0.0
C3433 C 0.87748 0.13731 0.90802 0.0
N3434 N 0.85554 0.09926 0.93319 0.0
N3435 N 0.88277 0.1372 0.88142 0.0
H3436 H 0.88298 0.16178 0.91733 0.0
H3437 H 0.8917 0.16292 0.89979 0.0
H3438 H 0.88417 0.13145 0.87174 0.0
H3439 H 0.88306 0.14965 0.87932 0.0
H3440 H 0.85082 0.08576 0.9335 0.0
H3441 H 0.85055 0.10424 0.94135 0.0
H3442 H 0.86929 0.07895 0.92356 0.0
H3443 H 0.87594 0.07985 0.9051 0.0
C3444 C 0.65929 0.16864 0.68293 0.0
C3445 C 0.66487 0.18071 0.69484 0.0
C3446 C 0.69508 0.19157 0.68678 0.0
C3447 C 0.68881 0.1816 0.6735 0.0
N3448 N 0.66511 0.16052 0.65869 0.0
N3449 N 0.68799 0.20348 0.7086 0.0
C3450 C 0.67102 0.16983 0.67168 0.0
C3451 C 0.68285 0.19195 0.69708 0.0
N3452 N 0.64271 0.15596 0.68244 0.0
N3453 N 0.71273 0.2007 0.68936 0.0
H3454 H 0.67938 0.20377 0.71643 0.0
H3455 H 0.70047 0.21324 0.71002 0.0
H3456 H 0.72174 0.20045 0.68191 0.0
H3457 H 0.71852 0.20723 0.69934 0.0
H3458 H 0.63833 0.14574 0.67496 0.0
H3459 H 0.63368 0.15474 0.69041 0.0
H3460 H 0.65189 0.1538 0.65547 0.0
H3461 H 0.67346 0.16019 0.65064 0.0
C3462 C 0.64436 0.88196 0.44593 0.0
C3463 C 0.65166 0.8705 0.44112 0.0
C3464 C 0.64807 0.8801 0.41467 0.0
C3465 C 0.63859 0.88952 0.4193 0.0
N3466 N 0.62593 0.898 0.43926 0.0
N3467 N 0.67192 0.87159 0.42267 0.0
C3468 C 0.63589 0.88968 0.43492 0.0
C3469 C 0.65672 0.87293 0.42586 0.0
N3470 N 0.64906 0.8887 0.4601 0.0
N3471 N 0.64963 0.87876 0.39956 0.0
H3472 H 0.68043 0.86958 0.43126 0.0
H3473 H 0.67719 0.87494 0.41205 0.0
H3474 H 0.64357 0.88406 0.39103 0.0
H3475 H 0.65549 0.87098 0.39565 0.0
H3476 H 0.64528 0.89817 0.46384 0.0
H3477 H 0.65939 0.88727 0.46683 0.0
H3478 H 0.6225 0.8975 0.45043 0.0
H3479 H 0.61984 0.90394 0.43133 0.0
C3480 C 0.88247 0.88724 0.13274 0.0
C3481 C 0.88192 0.90097 0.14125 0.0
C3482 C 0.85058 0.89086 0.13411 0.0
C3483 C 0.85193 0.88071 0.12232 0.0
N3484 N 0.8656 0.86085 0.11903 0.0
N3485 N 0.86524 0.9172 0.14782 0.0
C3486 C 0.86708 0.87658 0.1237 0.0
C3487 C 0.86592 0.90317 0.14129 0.0
N3488 N 0.89742 0.88403 0.13369 0.0
N3489 N 0.83472 0.88729 0.13978 0.0
H3490 H 0.87635 0.92702 0.15268 0.0
H3491 H 0.85386 0.91976 0.14693 0.0
H3492 H 0.82348 0.87685 0.1359 0.0
H3493 H 0.83336 0.8935 0.1492 0.0
H3494 H 0.8995 0.87556 0.12669 0.0
H3495 H 0.90818 0.89034 0.14121 0.0
H3496 H 0.87584 0.85662 0.11957 0.0
H3497 H 0.85328 0.85088 0.11715 0.0
C3498 C 0.15739 0.67311 0.17366 0.0
C3499 C 0.16073 0.66985 0.18928 0.0
C3500 C 0.19088 0.67413 0.18395 0.0
C3501 C 0.18647 0.67523 0.16806 0.0
N3502 N 0.16321 0.66925 0.14817 0.0
N3503 N 0.17998 0.66446 0.20909 0.0
C3504 C 0.16891 0.67249 0.16309 0.0
C3505 C 0.17731 0.66949 0.19442 0.0
N3506 N 0.14349 0.6774 0.16889 0.0
N3507 N 0.20794 0.67814 0.18912 0.0
H3508 H 0.17041 0.66126 0.21695 0.0
H3509 H 0.19112 0.66225 0.21305 0.0
H3510 H 0.21812 0.68167 0.18185 0.0
H3511 H 0.21211 0.67913 0.20064 0.0
H3512 H 0.14159 0.68145 0.15771 0.0
H3513 H 0.13515 0.67885 0.17642 0.0
H3514 H 0.15018 0.66623 0.1442 0.0
H3515 H 0.17105 0.66755 0.1403 0.0
C3516 C 0.1408 0.37326 0.92977 0.0
C3517 C 0.14676 0.36091 0.92465 0.0
C3518 C 0.14444 0.372 0.89842 0.0
C3519 C 0.13618 0.38237 0.90345 0.0
N3520 N 0.12394 0.39089 0.92368 0.0
N3521 N 0.16565 0.35964 0.90582 0.0
C3522 C 0.13314 0.38194 0.91903 0.0
C3523 C 0.15168 0.36311 0.90931 0.0
N3524 N 0.14633 0.37996 0.94388 0.0
N3525 N 0.14596 0.37116 0.88323 0.0
H3526 H 0.17347 0.35626 0.91422 0.0
H3527 H 0.17094 0.36256 0.89521 0.0
H3528 H 0.14089 0.37771 0.87501 0.0
H3529 H 0.15065 0.36265 0.87886 0.0
H3530 H 0.14342 0.38993 0.9478 0.0
H3531 H 0.15668 0.37809 0.95022 0.0
H3532 H 0.12046 0.39016 0.93488 0.0
H3533 H 0.11848 0.39762 0.91597 0.0
C3534 C 0.35434 0.38404 0.6447 0.0
C3535 C 0.37199 0.39123 0.64059 0.0
C3536 C 0.36132 0.37885 0.61507 0.0
C3537 C 0.34449 0.36908 0.62042 0.0
N3538 N 0.32588 0.36066 0.64151 0.0
N3539 N 0.38749 0.40494 0.6184 0.0
C3540 C 0.34148 0.37092 0.63572 0.0
C3541 C 0.37442 0.3912 0.62475 0.0
N3542 N 0.34895 0.39234 0.65475 0.0
N3543 N 0.36481 0.37667 0.60067 0.0
H3544 H 0.3951 0.41591 0.62462 0.0
H3545 H 0.38901 0.40663 0.60673 0.0
H3546 H 0.35547 0.36824 0.59308 0.0
H3547 H 0.37741 0.38209 0.5968 0.0
H3548 H 0.33583 0.38847 0.65713 0.0
H3549 H 0.35701 0.40478 0.65833 0.0
H3550 H 0.32349 0.36101 0.65289 0.0
H3551 H 0.31618 0.35078 0.63528 0.0
C3552 C 0.0765 0.57717 0.63595 0.0
C3553 C 0.06056 0.56808 0.62729 0.0
C3554 C 0.06007 0.54042 0.63863 0.0
C3555 C 0.07592 0.54965 0.64735 0.0
N3556 N 0.10152 0.57581 0.65143 0.0
N3557 N 0.03875 0.54112 0.61811 0.0
C3558 C 0.08494 0.56771 0.64487 0.0
C3559 C 0.05291 0.54967 0.62782 0.0
N3560 N 0.08309 0.59489 0.63632 0.0
N3561 N 0.05141 0.52303 0.64134 0.0
H3562 H 0.03304 0.54763 0.61042 0.0
H3563 H 0.03342 0.52774 0.61691 0.0
H3564 H 0.05665 0.51588 0.64875 0.0
H3565 H 0.03883 0.51577 0.63674 0.0
H3566 H 0.09323 0.60208 0.64401 0.0
H3567 H 0.07765 0.60247 0.6297 0.0
H3568 H 0.10949 0.58873 0.64918 0.0
H3569 H 0.10793 0.56904 0.65802 0.0
C3570 C 0.45834 0.44762 0.11138 0.0
C3571 C 0.47493 0.4545 0.10501 0.0
C3572 C 0.48275 0.48148 0.11884 0.0
C3573 C 0.46729 0.47353 0.12682 0.0
N3574 N 0.44061 0.44873 0.13139 0.0
N3575 N 0.50307 0.47784 0.10234 0.0
C3576 C 0.45499 0.45664 0.12307 0.0
C3577 C 0.48711 0.47153 0.10848 0.0
N3578 N 0.44577 0.43234 0.10628 0.0
N3579 N 0.49318 0.49849 0.12128 0.0
H3580 H 0.50632 0.47104 0.09439 0.0
H3581 H 0.51334 0.48936 0.10552 0.0
H3582 H 0.49012 0.50587 0.1288 0.0
H3583 H 0.50398 0.50565 0.11509 0.0
H3584 H 0.43281 0.42753 0.10923 0.0
H3585 H 0.44785 0.42508 0.09802 0.0
H3586 H 0.43267 0.43557 0.13092 0.0
H3587 H 0.43709 0.45504 0.13955 0.0
C3588 C 0.56959 0.33468 0.18843 0.0
C3589 C 0.56184 0.34695 0.18513 0.0
C3590 C 0.56487 0.34529 0.15799 0.0
C3591 C 0.57568 0.33593 0.16151 0.0
N3592 N 0.58931 0.32233 0.1804 0.0
N3593 N 0.55507 0.3664 0.16677 0.0
C3594 C 0.57812 0.33051 0.17681 0.0
C3595 C 0.56009 0.35281 0.16988 0.0
N3596 N 0.56873 0.32701 0.2026 0.0
N3597 N 0.55959 0.34737 0.14317 0.0
H3598 H 0.55221 0.37294 0.17517 0.0
H3599 H 0.55553 0.37234 0.15601 0.0
H3600 H 0.56284 0.34182 0.13422 0.0
H3601 H 0.55058 0.35298 0.14 0.0
H3602 H 0.57262 0.31674 0.20526 0.0
H3603 H 0.56265 0.3299 0.21131 0.0
H3604 H 0.59312 0.31985 0.19156 0.0
H3605 H 0.5957 0.31895 0.17225 0.0
C3606 C 0.98173 0.67758 0.65884 0.0
C3607 C 0.98397 0.68574 0.67298 0.0
C3608 C 0.96535 0.70094 0.66277 0.0
C3609 C 0.9628 0.69247 0.64879 0.0
N3610 N 0.97254 0.67715 0.63191 0.0
N3611 N 0.98252 0.70893 0.68685 0.0
C3612 C 0.97258 0.68244 0.64628 0.0
C3613 C 0.97737 0.69877 0.67436 0.0
N3614 N 0.98715 0.66432 0.65769 0.0
N3615 N 0.95542 0.71003 0.66538 0.0
H3616 H 0.99138 0.70762 0.69546 0.0
H3617 H 0.97938 0.71965 0.68792 0.0
H3618 H 0.94675 0.7122 0.65707 0.0
H3619 H 0.95504 0.71456 0.67604 0.0
H3620 H 0.98396 0.65653 0.64822 0.0
H3621 H 0.99377 0.66022 0.66664 0.0
H3622 H 0.98047 0.67094 0.62902 0.0
H3623 H 0.96579 0.68056 0.6226 0.0
C3624 C 0.64721 0.39062 0.62739 0.0
C3625 C 0.63484 0.37365 0.63051 0.0
C3626 C 0.62772 0.38399 0.65357 0.0
C3627 C 0.63892 0.40125 0.64953 0.0
N3628 N 0.65543 0.42131 0.63032 0.0
N3629 N 0.61131 0.35449 0.64525 0.0
C3630 C 0.64748 0.40464 0.63573 0.0
C3631 C 0.62446 0.37041 0.64322 0.0
N3632 N 0.65905 0.39331 0.61668 0.0
N3633 N 0.6208 0.38043 0.66749 0.0
H3634 H 0.60895 0.34419 0.63812 0.0
H3635 H 0.60203 0.35187 0.65328 0.0
H3636 H 0.62294 0.38996 0.67537 0.0
H3637 H 0.61405 0.36789 0.6717 0.0
H3638 H 0.66956 0.40512 0.61513 0.0
H3639 H 0.65946 0.38333 0.61041 0.0
H3640 H 0.66048 0.4244 0.61962 0.0
H3641 H 0.65523 0.43192 0.63577 0.0
C3642 C 0.45031 0.65946 0.88123 0.0
C3643 C 0.46851 0.66979 0.88142 0.0
C3644 C 0.46664 0.68211 0.90554 0.0
C3645 C 0.44805 0.67297 0.90446 0.0
N3646 N 0.42231 0.65818 0.88793 0.0
N3647 N 0.4933 0.69388 0.89193 0.0
C3648 C 0.43992 0.66316 0.89131 0.0
C3649 C 0.47648 0.6821 0.89299 0.0
N3650 N 0.44284 0.64604 0.87147 0.0
N3651 N 0.47507 0.69002 0.91871 0.0
H3652 H 0.50092 0.69393 0.88308 0.0
H3653 H 0.49908 0.70439 0.89908 0.0
H3654 H 0.46858 0.68949 0.92844 0.0
H3655 H 0.48869 0.69563 0.92045 0.0
H3656 H 0.42994 0.63708 0.87207 0.0
H3657 H 0.44996 0.64289 0.8638 0.0
H3658 H 0.41592 0.65196 0.87794 0.0
H3659 H 0.41467 0.66243 0.8941 0.0
C3660 C 0.06546 0.34989 0.33954 0.0
C3661 C 0.04717 0.33974 0.33895 0.0
C3662 C 0.05049 0.32954 0.36529 0.0
C3663 C 0.06904 0.33845 0.36515 0.0
N3664 N 0.09378 0.35108 0.34945 0.0
N3665 N 0.02316 0.31618 0.34993 0.0
C3666 C 0.07636 0.34649 0.35131 0.0
C3667 C 0.03997 0.32823 0.35138 0.0
N3668 N 0.07244 0.36369 0.32971 0.0
N3669 N 0.0427 0.32344 0.37864 0.0
H3670 H 1.0153 0.31484 0.33981 0.0
H3671 H 0.01781 0.30651 0.35819 0.0
H3672 H 0.04966 0.32531 0.38923 0.0
H3673 H 0.02913 0.31815 0.37932 0.0
H3674 H 0.08554 0.37231 0.33091 0.0
H3675 H 0.06489 0.36779 0.32162 0.0
H3676 H 0.09939 0.35625 0.33919 0.0
H3677 H 0.10201 0.34783 0.35751 0.0
C3678 C 0.35973 0.63733 0.42329 0.0
C3679 C 0.36534 0.6347 0.43853 0.0
C3680 C 0.38059 0.61756 0.42955 0.0
C3681 C 0.37554 0.62091 0.41434 0.0
N3682 N 0.36494 0.63805 0.39661 0.0
N3683 N 0.38485 0.62615 0.45586 0.0
C3684 C 0.36677 0.63231 0.41122 0.0
C3685 C 0.37698 0.62601 0.44158 0.0
N3686 N 0.34682 0.64355 0.42032 0.0
N3687 N 0.38811 0.60579 0.43256 0.0
H3688 H 0.38287 0.63256 0.46485 0.0
H3689 H 0.39461 0.62135 0.45841 0.0
H3690 H 0.39137 0.59978 0.42397 0.0
H3691 H 0.39014 0.60126 0.44351 0.0
H3692 H 0.34091 0.64385 0.40946 0.0
H3693 H 0.34079 0.64678 0.42886 0.0
H3694 H 0.35991 0.6475 0.39379 0.0
H3695 H 0.37015 0.63466 0.38754 0.0
C3696 C 0.12767 0.33477 0.06537 0.0
C3697 C 0.14114 0.32833 0.06796 0.0
C3698 C 0.14363 0.33461 0.09511 0.0
C3699 C 0.13214 0.34342 0.09199 0.0
N3700 N 0.11331 0.35228 0.07438 0.0
N3701 N 0.16249 0.3224 0.08502 0.0
C3702 C 0.12403 0.34344 0.0772 0.0
C3703 C 0.14911 0.32809 0.08282 0.0
N3704 N 0.11816 0.3323 0.05164 0.0
N3705 N 0.14937 0.33258 0.10982 0.0
H3706 H 0.16662 0.31729 0.07633 0.0
H3707 H 0.17025 0.32371 0.09515 0.0
H3708 H 0.14605 0.3376 0.11906 0.0
H3709 H 0.15624 0.32477 0.11307 0.0
H3710 H 0.10705 0.33513 0.04947 0.0
H3711 H 0.12049 0.32601 0.04273 0.0
H3712 H 0.10874 0.35475 0.0635 0.0
H3713 H 0.10964 0.35795 0.08298 0.0
C3714 C 0.94427 0.946 0.31026 0.0
C3715 C 0.93041 0.93885 0.2989 0.0
C3716 C 0.91066 0.92269 0.31892 0.0
C3717 C 0.92522 0.92779 0.32986 0.0
N3718 N 0.9558 0.94446 0.33636 0.0
N3719 N 0.89954 0.92294 0.29246 0.0
C3720 C 0.94192 0.93981 0.3257 0.0
C3721 C 0.91326 0.92811 0.30329 0.0
N3722 N 0.95955 0.95902 0.30625 0.0
N3723 N 0.89455 0.9118 0.3235 0.0
H3724 H 0.90106 0.92564 0.28086 0.0
H3725 H 0.88645 0.91642 0.29477 0.0
H3726 H 0.89226 0.90839 0.33493 0.0
H3727 H 0.88344 0.906 0.31625 0.0
H3728 H 0.96963 0.96604 0.31406 0.0
H3729 H 0.96151 0.96389 0.29509 0.0
H3730 H 0.96879 0.95133 0.33382 0.0
H3731 H 0.95439 0.94075 0.34783 0.0
C3732 C 0.39036 0.66499 0.58883 0.0
C3733 C 0.37227 0.66219 0.58756 0.0
C3734 C 0.36997 0.65236 0.61427 0.0
C3735 C 0.38702 0.65225 0.61474 0.0
N3736 N 0.41314 0.65704 0.60189 0.0
N3737 N 0.34405 0.65013 0.59842 0.0
C3738 C 0.39725 0.65832 0.6019 0.0
C3739 C 0.36185 0.65508 0.60014 0.0
N3740 N 0.40105 0.67438 0.57776 0.0
N3741 N 0.36159 0.64995 0.62742 0.0
H3742 H 0.33747 0.65133 0.58808 0.0
H3743 H 0.33571 0.64323 0.60683 0.0
H3744 H 0.36744 0.64837 0.63805 0.0
H3745 H 0.34975 0.65138 0.62795 0.0
H3746 H 0.41466 0.67838 0.57885 0.0
H3747 H 0.39651 0.67953 0.56809 0.0
H3748 H 0.42027 0.65952 0.59224 0.0
H3749 H 0.41866 0.6523 0.61122 0.0
C3750 C 0.59098 0.13346 0.84398 0.0
C3751 C 0.60394 0.14895 0.83823 0.0
C3752 C 0.62177 0.15219 0.86255 0.0
C3753 C 0.60869 0.13688 0.86837 0.0
N3754 N 0.57969 0.11415 0.8656 0.0
N3755 N 0.62989 0.17485 0.84277 0.0
C3756 C 0.59286 0.12802 0.85942 0.0
C3757 C 0.6188 0.15887 0.84778 0.0
N3758 N 0.57746 0.12332 0.83439 0.0
N3759 N 0.63726 0.16004 0.87098 0.0
H3760 H 0.62796 0.18012 0.83209 0.0
H3761 H 0.64008 0.18349 0.84957 0.0
H3762 H 0.63951 0.156 0.88209 0.0
H3763 H 0.64823 0.16992 0.86674 0.0
H3764 H 0.56881 0.11085 0.83724 0.0
H3765 H 0.57548 0.12683 0.82306 0.0
H3766 H 0.56702 0.10863 0.86051 0.0
H3767 H 0.58099 0.10869 0.87631 0.0
C3768 C 0.08166 0.62338 0.48575 0.0
C3769 C 0.07337 0.63484 0.48838 0.0
C3770 C 0.07742 0.64564 0.46186 0.0
C3771 C 0.08245 0.63199 0.45856 0.0
N3772 N 0.08936 0.6076 0.46729 0.0
N3773 N 0.06173 0.65579 0.47831 0.0
C3774 C 0.08486 0.62095 0.47055 0.0
C3775 C 0.07106 0.6459 0.47632 0.0
N3776 N 0.08663 0.61497 0.49782 0.0
N3777 N 0.07848 0.6582 0.45096 0.0
H3778 H 0.05645 0.65604 0.48857 0.0
H3779 H 0.05792 0.66258 0.46943 0.0
H3780 H 0.08318 0.65821 0.44034 0.0
H3781 H 0.07648 0.66936 0.453 0.0
H3782 H 0.0941 0.60767 0.49686 0.0
H3783 H 0.08466 0.61659 0.50906 0.0
H3784 H 0.08914 0.59772 0.47509 0.0
H3785 H 0.09255 0.60599 0.45646 0.0
C3786 C 0.55274 0.83073 0.70887 0.0
C3787 C 0.5441 0.84232 0.7067 0.0
C3788 C 0.55474 0.84967 0.68094 0.0
C3789 C 0.56459 0.83916 0.68379 0.0
N3790 N 0.57718 0.82438 0.70242 0.0
N3791 N 0.54019 0.86586 0.69192 0.0
C3792 C 0.56503 0.83134 0.69846 0.0
C3793 C 0.54613 0.85277 0.69311 0.0
N3794 N 0.54848 0.81838 0.72033 0.0
N3795 N 0.55287 0.85599 0.66657 0.0
H3796 H 0.53415 0.86871 0.70068 0.0
H3797 H 0.54276 0.87487 0.68286 0.0
H3798 H 0.55892 0.85398 0.6574 0.0
H3799 H 0.54427 0.8621 0.66354 0.0
H3800 H 0.5532 0.80852 0.72135 0.0
H3801 H 0.53878 0.81678 0.72774 0.0
H3802 H 0.57887 0.8197 0.7134 0.0
H3803 H 0.58677 0.82508 0.69518 0.0
C3804 C 0.44613 0.41332 0.95607 0.0
C3805 C 0.44954 0.39819 0.95956 0.0
C3806 C 0.43637 0.38747 0.93407 0.0
C3807 C 0.43448 0.40339 0.9304 0.0
N3808 N 0.44523 0.43369 0.93596 0.0
N3809 N 0.45201 0.3729 0.95009 0.0
C3810 C 0.44183 0.41703 0.9408 0.0
C3811 C 0.44593 0.38584 0.948 0.0
N3812 N 0.44606 0.4238 0.96732 0.0
N3813 N 0.42859 0.37375 0.9247 0.0
H3814 H 0.45935 0.37163 0.95995 0.0
H3815 H 0.45125 0.3646 0.94148 0.0
H3816 H 0.42135 0.3744 0.9146 0.0
H3817 H 0.42823 0.3614 0.92757 0.0
H3818 H 0.44214 0.43414 0.96516 0.0
H3819 H 0.44785 0.42096 0.97886 0.0
H3820 H 0.45151 0.44423 0.94303 0.0
H3821 H 0.44378 0.43693 0.92445 0.0
C3822 C 0.98896 0.16228 0.20032 0.0
C3823 C 0.98119 0.1629 0.21401 0.0
C3824 C 0.95727 0.16735 0.19829 0.0
C3825 C 0.96385 0.1646 0.18482 0.0
N3826 N 0.98522 0.15762 0.17309 0.0
N3827 N 0.96693 0.18051 0.22253 0.0
C3828 C 0.97942 0.16138 0.1859 0.0
C3829 C 0.96748 0.16916 0.21236 0.0
N3830 N 1.00647 0.16566 0.20082 0.0
N3831 N 0.94159 0.16912 0.19758 0.0
H3832 H 0.9777 0.18677 0.23008 0.0
H3833 H 0.95789 0.18636 0.22132 0.0
H3834 H 0.93385 0.16802 0.1874 0.0
H3835 H 0.9357 0.16998 0.20732 0.0
H3836 H 1.01334 0.16699 0.19116 0.0
H3837 H 1.01458 0.16969 0.21075 0.0
H3838 H 0.99554 0.15348 0.17335 0.0
H3839 H 0.97857 0.15703 0.1624 0.0
C3840 C 0.04912 0.07028 0.33948 0.0
C3841 C 0.06147 0.08511 0.33226 0.0
C3842 C 0.08276 0.07126 0.33466 0.0
C3843 C 0.07164 0.05809 0.34437 0.0
N3844 N 0.04176 0.0407 0.34918 0.0
N3845 N 0.09017 0.09991 0.32281 0.0
C3846 C 0.05388 0.05613 0.34427 0.0
C3847 C 0.0783 0.0856 0.3297 0.0
N3848 N 0.03336 0.07027 0.34288 0.0
N3849 N 0.09634 0.06909 0.32869 0.0
H3850 H 0.0871 0.11028 0.31846 0.0
H3851 H 0.10333 0.10199 0.3223 0.0
H3852 H 0.09737 0.05715 0.32908 0.0
H3853 H 0.10438 0.07776 0.3209 0.0
H3854 H 0.02479 0.06086 0.34986 0.0
H3855 H 0.02937 0.08039 0.3397 0.0
H3856 H 0.02831 0.03771 0.34845 0.0
H3857 H 0.04532 0.03035 0.35268 0.0
C3858 C 0.05822 0.7434 0.61886 0.0
C3859 C 0.06784 0.73467 0.61293 0.0
C3860 C 0.09466 0.76064 0.61702 0.0
C3861 C 0.0861 0.768 0.62606 0.0
N3862 N 0.05863 0.7657 0.63548 0.0
N3863 N 0.09609 0.73425 0.60912 0.0
C3864 C 0.06746 0.75935 0.62678 0.0
C3865 C 0.0863 0.74306 0.61289 0.0
N3866 N 0.04031 0.73636 0.61705 0.0
N3867 N 0.1108 0.77066 0.61206 0.0
H3868 H 0.09062 0.72133 0.60596 0.0
H3869 H 0.10976 0.7394 0.61058 0.0
H3870 H 0.11686 0.78391 0.61412 0.0
H3871 H 0.11704 0.76625 0.60451 0.0
H3872 H 0.03249 0.74289 0.61943 0.0
H3873 H 0.03331 0.72435 0.61213 0.0
H3874 H 0.04533 0.75939 0.6372 0.0
H3875 H 0.06474 0.77665 0.642 0.0
C3876 C 0.45238 0.93172 0.80244 0.0
C3877 C 0.446 0.91427 0.8081 0.0
C3878 C 0.42898 0.92104 0.82614 0.0
C3879 C 0.43737 0.93898 0.82209 0.0
N3880 N 0.45665 0.96162 0.80637 0.0
N3881 N 0.429 0.89222 0.8257 0.0
C3882 C 0.44883 0.94437 0.8101 0.0
C3883 C 0.43438 0.90887 0.81996 0.0
N3884 N 0.46176 0.93612 0.78975 0.0
N3885 N 0.41573 0.91559 0.83585 0.0
H3886 H 0.43194 0.88265 0.821 0.0
H3887 H 0.42257 0.88811 0.83573 0.0
H3888 H 0.41189 0.92399 0.84139 0.0
H3889 H 0.40769 0.90261 0.83773 0.0
H3890 H 0.46524 0.9481 0.78405 0.0
H3891 H 0.46517 0.92736 0.78422 0.0
H3892 H 0.46658 0.96679 0.79887 0.0
H3893 H 0.45362 0.97099 0.81134 0.0
C3894 C 0.4754 0.27828 0.08873 0.0
C3895 C 0.46758 0.29025 0.09096 0.0
C3896 C 0.45013 0.27014 0.11043 0.0
C3897 C 0.45495 0.25685 0.10573 0.0
N3898 N 0.47224 0.24818 0.09001 0.0
N3899 N 0.44545 0.29621 0.1029 0.0
C3900 C 0.46786 0.26096 0.09495 0.0
C3901 C 0.45462 0.28597 0.10176 0.0
N3902 N 0.49008 0.28352 0.08074 0.0
N3903 N 0.44077 0.26735 0.12302 0.0
H3904 H 0.44757 0.3075 0.09635 0.0
H3905 H 0.43452 0.29259 0.10931 0.0
H3906 H 0.43739 0.25586 0.12956 0.0
H3907 H 0.43808 0.27702 0.12781 0.0
H3908 H 0.49731 0.27596 0.07981 0.0
H3909 H 0.49599 0.29614 0.0763 0.0
H3910 H 0.47999 0.24987 0.08089 0.0
H3911 H 0.4673 0.23556 0.09457 0.0
C3912 C 0.06345 0.94267 0.20775 0.0
C3913 C 0.05379 0.94786 0.19578 0.0
C3914 C 0.07639 0.95054 0.17839 0.0
C3915 C 0.08738 0.94845 0.1909 0.0
N3916 N 0.09168 0.94273 0.21767 0.0
N3917 N 0.05162 0.95795 0.1698 0.0
C3918 C 0.08089 0.9443 0.20561 0.0
C3919 C 0.06028 0.95187 0.18104 0.0
N3920 N 0.05584 0.93598 0.2211 0.0
N3921 N 0.08154 0.95136 0.16395 0.0
H3922 H 0.03986 0.9592 0.17132 0.0
H3923 H 0.05674 0.96299 0.15937 0.0
H3924 H 0.09324 0.9503 0.16178 0.0
H3925 H 0.07354 0.95135 0.15419 0.0
H3926 H 0.06148 0.93048 0.22975 0.0
H3927 H 0.04309 0.93449 0.223 0.0
H3928 H 0.08862 0.9419 0.22897 0.0
H3929 H 0.1042 0.94312 0.21637 0.0
C3930 C 0.31891 0.76167 0.44156 0.0
C3931 C 0.31542 0.7595 0.4572 0.0
C3932 C 0.31186 0.78713 0.4558 0.0
C3933 C 0.31313 0.78816 0.43967 0.0
N3934 N 0.31147 0.77233 0.41712 0.0
N3935 N 0.30344 0.76786 0.47788 0.0
C3936 C 0.31471 0.77419 0.4325 0.0
C3937 C 0.3102 0.77147 0.46391 0.0
N3938 N 0.32682 0.75231 0.43539 0.0
N3939 N 0.31347 0.8013 0.46364 0.0
H3940 H 0.3018 0.75636 0.48401 0.0
H3941 H 0.29783 0.77544 0.48252 0.0
H3942 H 0.31683 0.81363 0.45865 0.0
H3943 H 0.31372 0.80123 0.47549 0.0
H3944 H 0.33098 0.75472 0.42434 0.0
H3945 H 0.33093 0.74357 0.44177 0.0
H3946 H 0.31134 0.76161 0.41164 0.0
H3947 H 0.30673 0.78028 0.41025 0.0
C3948 C 0.47059 0.13757 0.71043 0.0
C3949 C 0.48487 0.13429 0.7056 0.0
C3950 C 0.46502 0.1165 0.68513 0.0
C3951 C 0.45027 0.11678 0.69199 0.0
N3952 N 0.439 0.1275 0.71163 0.0
N3953 N 0.49539 0.11962 0.68855 0.0
C3954 C 0.45306 0.12758 0.7046 0.0
C3955 C 0.48209 0.12374 0.6928 0.0
N3956 N 0.47384 0.15031 0.7206 0.0
N3957 N 0.46256 0.10899 0.67134 0.0
H3958 H 0.508 0.12447 0.69387 0.0
H3959 H 0.49359 0.11036 0.68052 0.0
H3960 H 0.45019 0.10369 0.66555 0.0
H3961 H 0.47283 0.10959 0.66502 0.0
H3962 H 0.46429 0.15448 0.72358 0.0
H3963 H 0.48651 0.1579 0.7249 0.0
H3964 H 0.44014 0.13336 0.72198 0.0
H3965 H 0.42606 0.1207 0.70754 0.0
C3966 C 0.18156 0.21549 0.94243 0.0
C3967 C 0.19585 0.22793 0.9508 0.0
C3968 C 0.21632 0.21816 0.93943 0.0
C3969 C 0.20186 0.20512 0.93159 0.0
N3970 N 0.17066 0.18836 0.92925 0.0
N3971 N 0.22641 0.23898 0.95968 0.0
C3972 C 0.18445 0.20289 0.93423 0.0
C3973 C 0.2131 0.22851 0.95012 0.0
N3974 N 0.16523 0.21586 0.94206 0.0
N3975 N 0.2331 0.22138 0.93605 0.0
H3976 H 0.22474 0.24738 0.96709 0.0
H3977 H 0.23876 0.23843 0.96108 0.0
H3978 H 0.23611 0.21439 0.92817 0.0
H3979 H 0.24401 0.23189 0.94017 0.0
H3980 H 0.15484 0.20851 0.93464 0.0
H3981 H 0.16238 0.22448 0.9483 0.0
H3982 H 0.15779 0.18521 0.93197 0.0
H3983 H 0.17237 0.1785 0.92378 0.0
C3984 C 0.3922 0.12904 0.1642 0.0
C3985 C 0.39359 0.11487 0.15717 0.0
C3986 C 0.41635 0.1353 0.1413 0.0
C3987 C 0.41493 0.14945 0.14831 0.0
N3988 N 0.39924 0.16007 0.16405 0.0
N3989 N 0.40412 0.10434 0.13689 0.0
C3990 C 0.40205 0.14637 0.15896 0.0
C3991 C 0.40479 0.11799 0.14503 0.0
N3992 N 0.38211 0.12596 0.17636 0.0
N3993 N 0.42916 0.13843 0.13143 0.0
H3994 H 0.39584 0.09154 0.13928 0.0
H3995 H 0.41061 0.10574 0.12699 0.0
H3996 H 0.4372 0.1509 0.12784 0.0
H3997 H 0.43247 0.12879 0.12738 0.0
H3998 H 0.38204 0.13566 0.18315 0.0
H3999 H 0.37455 0.11349 0.18031 0.0
H4000 H 0.38892 0.15873 0.17061 0.0
H4001 H 0.40641 0.17288 0.16064 0.0
C4002 C 0.79962 0.40385 0.93909 0.0
C4003 C 0.78915 0.41007 0.92883 0.0
C4004 C 0.78146 0.38441 0.91324 0.0
C4005 C 0.79262 0.37878 0.92318 0.0
N4006 N 0.81603 0.38549 0.94281 0.0
N4007 N 0.77298 0.40814 0.90444 0.0
C4008 C 0.80304 0.38943 0.93511 0.0
C4009 C 0.78091 0.40091 0.91535 0.0
N4010 N 0.80547 0.41108 0.95303 0.0
N4011 N 0.77095 0.37371 0.90216 0.0
H4012 H 0.77239 0.42019 0.90555 0.0
H4013 H 0.76824 0.40287 0.89377 0.0
H4014 H 0.77175 0.36198 0.89992 0.0
H4015 H 0.76097 0.37606 0.89571 0.0
H4016 H 0.81164 0.40591 0.96153 0.0
H4017 H 0.80253 0.42116 0.9567 0.0
H4018 H 0.82509 0.39361 0.95077 0.0
H4019 H 0.81881 0.37497 0.94 0.0
C4020 C 0.80456 0.55819 0.15114 0.0
C4021 C 0.79678 0.55438 0.13612 0.0
C4022 C 0.82605 0.564 0.12662 0.0
C4023 C 0.83369 0.57133 0.14095 0.0
N4024 N 0.82994 0.57592 0.16697 0.0
N4025 N 0.8001 0.55455 0.10921 0.0
C4026 C 0.82293 0.56829 0.15337 0.0
C4027 C 0.80752 0.55735 0.12376 0.0
N4028 N 0.79432 0.55229 0.16324 0.0
N4029 N 0.83659 0.56334 0.11579 0.0
H4030 H 0.78655 0.54921 0.10672 0.0
H4031 H 0.80738 0.5586 0.09963 0.0
H4032 H 0.85017 0.56745 0.11783 0.0
H4033 H 0.83177 0.55707 0.10552 0.0
H4034 H 0.79943 0.55315 0.17451 0.0
H4035 H 0.78083 0.54504 0.16191 0.0
H4036 H 0.82238 0.57566 0.1759 0.0
H4037 H 0.84322 0.58365 0.169 0.0
C4038 C 0.73897 0.61196 0.39377 0.0
C4039 C 0.74925 0.61862 0.38099 0.0
C4040 C 0.75218 0.64811 0.38685 0.0
C4041 C 0.7415 0.64126 0.39933 0.0
N4042 N 0.72019 0.61624 0.41133 0.0
N4043 N 0.76138 0.64236 0.36303 0.0
C4044 C 0.73331 0.62301 0.40156 0.0
C4045 C 0.75445 0.63651 0.37676 0.0
N4046 N 0.73567 0.5955 0.39928 0.0
N4047 N 0.76095 0.66562 0.38506 0.0
H4048 H 0.7629 0.63415 0.35534 0.0
H4049 H 0.76393 0.65487 0.35867 0.0
H4050 H 0.7596 0.67448 0.39212 0.0
H4051 H 0.77047 0.67129 0.37724 0.0
H4052 H 0.72998 0.59077 0.40956 0.0
H4053 H 0.74016 0.5871 0.39447 0.0
H4054 H 0.71269 0.603 0.41247 0.0
H4055 H 0.71562 0.62402 0.41703 0.0
C4056 C 0.22078 0.96734 0.20196 0.0
C4057 C 0.23108 0.96684 0.19006 0.0
C4058 C 0.20424 0.94977 0.175 0.0
C4059 C 0.19389 0.94858 0.18745 0.0
N4060 N 0.1933 0.9534 0.21411 0.0
N4061 N 0.2327 0.95386 0.16686 0.0
C4062 C 0.20245 0.95657 0.20135 0.0
C4063 C 0.22283 0.95666 0.17721 0.0
N4064 N 0.22841 0.97831 0.21371 0.0
N4065 N 0.19648 0.9458 0.16067 0.0
H4066 H 0.24639 0.95912 0.16778 0.0
H4067 H 0.22723 0.94497 0.1582 0.0
H4068 H 0.18319 0.94283 0.15807 0.0
H4069 H 0.20357 0.9478 0.15103 0.0
H4070 H 0.22121 0.98084 0.22169 0.0
H4071 H 0.24187 0.98577 0.21487 0.0
H4072 H 0.19918 0.95774 0.22483 0.0
H4073 H 0.18015 0.94497 0.2143 0.0
C4074 C 0.14861 0.89261 0.68687 0.0
C4075 C 0.14679 0.90699 0.67866 0.0
C4076 C 0.12602 0.88697 0.65984 0.0
C4077 C 0.12826 0.87273 0.66788 0.0
N4078 N 0.14383 0.86207 0.68735 0.0
N4079 N 0.13506 0.91824 0.65659 0.0
C4080 C 0.14031 0.87563 0.68085 0.0
C4081 C 0.1358 0.90425 0.66493 0.0
N4082 N 0.1576 0.89511 0.70086 0.0
N4083 N 0.11428 0.88378 0.64741 0.0
H4084 H 0.142 0.93101 0.65987 0.0
H4085 H 0.1283 0.9175 0.646 0.0
H4086 H 0.10796 0.87148 0.64286 0.0
H4087 H 0.11039 0.89302 0.64174 0.0
H4088 H 0.158 0.88507 0.70819 0.0
H4089 H 0.16344 0.90724 0.70579 0.0
H4090 H 0.15373 0.86344 0.69586 0.0
H4091 H 0.13785 0.84952 0.68326 0.0
C4092 C 0.86286 0.52315 0.31671 0.0
C4093 C 0.86112 0.52814 0.33138 0.0
C4094 C 0.88733 0.52274 0.34117 0.0
C4095 C 0.88801 0.51623 0.32676 0.0
N4096 N 0.88166 0.51784 0.29975 0.0
N4097 N 0.87483 0.53817 0.35602 0.0
C4098 C 0.87761 0.51925 0.31416 0.0
C4099 C 0.87454 0.52988 0.34306 0.0
N4100 N 0.84989 0.52105 0.30546 0.0
N4101 N 0.8981 0.52123 0.35325 0.0
H4102 H 0.86548 0.54322 0.35765 0.0
H4103 H 0.88507 0.54145 0.36444 0.0
H4104 H 0.90789 0.51664 0.35235 0.0
H4105 H 0.89702 0.524 0.36438 0.0
H4106 H 0.84937 0.51532 0.29516 0.0
H4107 H 0.83906 0.52407 0.30681 0.0
H4108 H 0.87543 0.52107 0.29001 0.0
H4109 H 0.89253 0.51514 0.29777 0.0
C4110 C 0.66988 0.49568 0.91495 0.0
C4111 C 0.67957 0.50542 0.92771 0.0
C4112 C 0.66147 0.52275 0.92517 0.0
C4113 C 0.65196 0.51298 0.91234 0.0
N4114 N 0.64314 0.48679 0.89847 0.0
N4115 N 0.6819 0.52521 0.94726 0.0
C4116 C 0.65479 0.4982 0.90853 0.0
C4117 C 0.67442 0.51796 0.93361 0.0
N4118 N 0.67572 0.48483 0.90828 0.0
N4119 N 0.65883 0.5371 0.92876 0.0
H4120 H 0.69153 0.52207 0.95353 0.0
H4121 H 0.67757 0.53316 0.95294 0.0
H4122 H 0.64917 0.54068 0.92313 0.0
H4123 H 0.66672 0.5459 0.93684 0.0
H4124 H 0.67031 0.47902 0.89791 0.0
H4125 H 0.68695 0.48281 0.91232 0.0
H4126 H 0.64364 0.47497 0.89614 0.0
H4127 H 0.63192 0.48842 0.89371 0.0
C4128 C 0.90239 0.67429 0.94887 0.0
C4129 C 0.8881 0.6793 0.94463 0.0
C4130 C 0.89419 0.67992 0.91769 0.0
C4131 C 0.90621 0.67202 0.92181 0.0
N4132 N 0.92206 0.66161 0.94119 0.0
N4133 N 0.86951 0.68578 0.92486 0.0
C4134 C 0.91074 0.66963 0.93742 0.0
C4135 C 0.88395 0.68214 0.92899 0.0
N4136 N 0.90795 0.67396 0.96389 0.0
N4137 N 0.8923 0.68479 0.90283 0.0
H4138 H 0.86162 0.6873 0.93278 0.0
H4139 H 0.86461 0.68604 0.91362 0.0
H4140 H 0.89973 0.68311 0.89455 0.0
H4141 H 0.88481 0.69187 0.89906 0.0
H4142 H 0.91919 0.67186 0.96767 0.0
H4143 H 0.90213 0.6772 0.97259 0.0
H4144 H 0.92395 0.65693 0.9521 0.0
H4145 H 0.92905 0.65895 0.93308 0.0
C4146 C 0.07745 0.14448 0.70035 0.0
C4147 C 0.08656 0.14413 0.71456 0.0
C4148 C 0.09806 0.12443 0.70439 0.0
C4149 C 0.08803 0.12375 0.69013 0.0
N4150 N 0.06297 0.12842 0.67783 0.0
N4151 N 0.10159 0.12993 0.73127 0.0
C4152 C 0.07612 0.13237 0.68913 0.0
C4153 C 0.09564 0.13298 0.71688 0.0
N4154 N 0.07045 0.15666 0.69735 0.0
N4155 N 0.11067 0.11781 0.70635 0.0
H4156 H 0.10001 0.13561 0.74094 0.0
H4157 H 0.10666 0.12044 0.7338 0.0
H4158 H 0.10987 0.1066 0.70157 0.0
H4159 H 0.12125 0.12261 0.71442 0.0
H4160 H 0.06533 0.15869 0.68654 0.0
H4161 H 0.0713 0.16572 0.70533 0.0
H4162 H 0.05334 0.13354 0.67716 0.0
H4163 H 0.0606 0.11853 0.67025 0.0
C4164 C 0.63124 0.35104 0.47795 0.0
C4165 C 0.63568 0.3365 0.48194 0.0
C4166 C 0.63915 0.33388 0.45496 0.0
C4167 C 0.63172 0.34622 0.45061 0.0
N4168 N 0.61892 0.36547 0.4584 0.0
N4169 N 0.63924 0.3114 0.47327 0.0
C4170 C 0.6274 0.35466 0.46224 0.0
C4171 C 0.63839 0.3272 0.47016 0.0
N4172 N 0.63105 0.36159 0.48908 0.0
N4173 N 0.64686 0.32839 0.44445 0.0
H4174 H 0.63766 0.30545 0.48408 0.0
H4175 H 0.63945 0.30337 0.46477 0.0
H4176 H 0.64811 0.33343 0.4333 0.0
H4177 H 0.65364 0.32038 0.44731 0.0
H4178 H 0.62964 0.3733 0.48677 0.0
H4179 H 0.63386 0.35936 0.50058 0.0
H4180 H 0.61379 0.37052 0.46639 0.0
H4181 H 0.61592 0.36843 0.44715 0.0
C4182 C 0.42167 0.88355 0.21642 0.0
C4183 C 0.41514 0.86547 0.21992 0.0
C4184 C 0.40415 0.85976 0.19308 0.0
C4185 C 0.41203 0.87783 0.18945 0.0
N4186 N 0.43275 0.90607 0.19708 0.0
N4187 N 0.40351 0.83628 0.21082 0.0
C4188 C 0.42217 0.88945 0.20095 0.0
C4189 C 0.40742 0.85353 0.20798 0.0
N4190 N 0.42659 0.8952 0.22783 0.0
N4191 N 0.39286 0.84863 0.18261 0.0
H4192 H 0.40591 0.83135 0.22152 0.0
H4193 H 0.3995 0.82718 0.20228 0.0
H4194 H 0.38972 0.85268 0.17176 0.0
H4195 H 0.3854 0.83565 0.18514 0.0
H4196 H 0.42959 0.90838 0.22581 0.0
H4197 H 0.42595 0.89155 0.23935 0.0
H4198 H 0.44156 0.91468 0.20488 0.0
H4199 H 0.43424 0.91057 0.18579 0.0
C4200 C 0.9345 0.39046 0.55037 0.0
C4201 C 0.95026 0.40511 0.54806 0.0
C4202 C 0.95078 0.41391 0.5745 0.0
C4203 C 0.93538 0.39877 0.57686 0.0
N4204 N 0.90962 0.37631 0.56576 0.0
N4205 N 0.97317 0.4314 0.55726 0.0
C4206 C 0.92633 0.38827 0.56431 0.0
C4207 C 0.95816 0.41721 0.55989 0.0
N4208 N 0.9276 0.37825 0.53942 0.0
N4209 N 0.95833 0.42494 0.58624 0.0
H4210 H 0.97905 0.43381 0.54692 0.0
H4211 H 0.98013 0.44078 0.56518 0.0
H4212 H 0.95347 0.42268 0.597 0.0
H4213 H 0.96908 0.43665 0.58545 0.0
H4214 H 0.91763 0.36615 0.54128 0.0
H4215 H 0.93261 0.3796 0.52876 0.0
H4216 H 0.90158 0.36924 0.55673 0.0
H4217 H 0.90314 0.37483 0.57571 0.0
C4218 C 0.48091 0.14077 0.34483 0.0
C4219 C 0.49173 0.15615 0.33709 0.0
C4220 C 0.48201 0.17318 0.35323 0.0
C4221 C 0.47369 0.15824 0.36259 0.0
N4222 N 0.46628 0.12775 0.36783 0.0
N4223 N 0.50408 0.18738 0.3351 0.0
C4224 C 0.4732 0.14195 0.3584 0.0
C4225 C 0.49252 0.17247 0.34148 0.0
N4226 N 0.47786 0.12499 0.33909 0.0
N4227 N 0.47988 0.18812 0.35569 0.0
H4228 H 0.5121 0.18743 0.32659 0.0
H4229 H 0.50678 0.19966 0.33909 0.0
H4230 H 0.47211 0.18889 0.3641 0.0
H4231 H 0.48429 0.19907 0.34851 0.0
H4232 H 0.46877 0.11336 0.34328 0.0
H4233 H 0.48321 0.12365 0.32919 0.0
H4234 H 0.46755 0.11608 0.36646 0.0
H4235 H 0.4602 0.12794 0.37764 0.0
C4236 C 0.56498 0.61056 0.09467 0.0
C4237 C 0.57546 0.62457 0.08534 0.0
C4238 C 0.59447 0.638 0.10791 0.0
C4239 C 0.58563 0.6228 0.11666 0.0
N4240 N 0.56289 0.59412 0.11855 0.0
N4241 N 0.60115 0.65104 0.08275 0.0
C4242 C 0.57086 0.60899 0.11013 0.0
C4243 C 0.59033 0.63829 0.09191 0.0
N4244 N 0.54929 0.59891 0.08875 0.0
N4245 N 0.60692 0.65211 0.11493 0.0
H4246 H 0.59869 0.65177 0.07099 0.0
H4247 H 0.61327 0.66021 0.0866 0.0
H4248 H 0.61044 0.65214 0.12658 0.0
H4249 H 0.61261 0.66421 0.10953 0.0
H4250 H 0.54024 0.58929 0.09523 0.0
H4251 H 0.54458 0.59984 0.07751 0.0
H4252 H 0.55355 0.58276 0.11395 0.0
H4253 H 0.56635 0.59278 0.13007 0.0
C4254 C 0.07334 0.87138 0.84609 0.0
C4255 C 0.05534 0.86737 0.84752 0.0
C4256 C 0.06036 0.865 0.87538 0.0
C4257 C 0.07803 0.86721 0.87356 0.0
N4258 N 0.09764 0.8645 0.85617 0.0
N4259 N 0.03079 0.85668 0.86335 0.0
C4260 C 0.08344 0.86809 0.85859 0.0
C4261 C 0.0485 0.863 0.86213 0.0
N4262 N 0.08091 0.87831 0.83279 0.0
N4263 N 0.05505 0.86548 0.88951 0.0
H4264 H 0.02195 0.85538 0.85389 0.0
H4265 H 0.02495 0.85149 0.87349 0.0
H4266 H 0.06348 0.86767 0.89931 0.0
H4267 H 0.04272 0.86526 0.89129 0.0
H4268 H 0.09443 0.88278 0.83184 0.0
H4269 H 0.07403 0.88122 0.82331 0.0
H4270 H 0.10154 0.86405 0.84532 0.0
H4271 H 0.10361 0.85936 0.86487 0.0
C4272 C 0.95742 0.94325 0.71651 0.0
C4273 C 0.96809 0.93419 0.71339 0.0
C4274 C 0.97345 0.95 0.68897 0.0
C4275 C 0.96223 0.95855 0.69151 0.0
N4276 N 0.95458 0.97059 0.71266 0.0
N4277 N 0.97324 0.92158 0.69128 0.0
C4278 C 0.95696 0.95718 0.70664 0.0
C4279 C 0.97275 0.93547 0.69813 0.0
N4280 N 0.94584 0.93724 0.7276 0.0
N4281 N 0.98588 0.95645 0.67862 0.0
H4282 H 0.96855 0.90923 0.69646 0.0
H4283 H 0.97566 0.92204 0.67979 0.0
H4284 H 0.98836 0.96841 0.673 0.0
H4285 H 0.99464 0.95063 0.67706 0.0
H4286 H 0.93705 0.94288 0.7295 0.0
H4287 H 0.94335 0.92523 0.73311 0.0
H4288 H 0.95172 0.97042 0.72399 0.0
H4289 H 0.95888 0.98283 0.7073 0.0
C4290 C 0.9493 0.29438 0.42416 0.0
C4291 C 0.9643 0.30264 0.4342 0.0
C4292 C 0.96899 0.27539 0.43707 0.0
C4293 C 0.95248 0.26668 0.42906 0.0
N4294 N 0.92875 0.26831 0.4123 0.0
N4295 N 0.99088 0.30247 0.4471 0.0
C4296 C 0.94349 0.27641 0.4215 0.0
C4297 C 0.97506 0.29359 0.43951 0.0
N4298 N 0.93976 0.30316 0.41745 0.0
N4299 N 0.97823 0.26586 0.44302 0.0
H4300 H 0.99555 0.31579 0.44873 0.0
H4301 H 0.99983 0.2971 0.45107 0.0
H4302 H 0.97427 0.25275 0.44073 0.0
H4303 H 0.98964 0.27067 0.45012 0.0
H4304 H 0.94305 0.31638 0.41872 0.0
H4305 H 0.94305 0.31638 0.41872 0.0
H4306 H 0.92153 0.27493 0.40672 0.0
H4307 H 0.92421 0.25516 0.40997 0.0
C4308 C 0.60103 0.09654 0.21795 0.0
C4309 C 0.58787 0.08937 0.22855 0.0
C4310 C 0.58671 0.06015 0.2243 0.0
C4311 C 0.59909 0.06726 0.21309 0.0
N4312 N 0.62147 0.09214 0.20212 0.0
N4313 N 0.57107 0.06517 0.24445 0.0
C4314 C 0.60746 0.0855 0.21099 0.0
C4315 C 0.58176 0.07142 0.23267 0.0
N4316 N 0.6068 0.1138 0.21407 0.0
N4317 N 0.57904 0.04255 0.22632 0.0
H4318 H 0.56688 0.07299 0.25048 0.0
H4319 H 0.56737 0.05261 0.249 0.0
H4320 H 0.58305 0.03419 0.22083 0.0
H4321 H 0.56844 0.03619 0.23294 0.0
H4322 H 0.61469 0.11953 0.20508 0.0
H4323 H 0.603 0.12239 0.21944 0.0
H4324 H 0.62914 0.1053 0.20089 0.0
H4325 H 0.62639 0.08424 0.19702 0.0
C4326 C 0.56228 0.73924 0.95716 0.0
C4327 C 0.57256 0.73009 0.95352 0.0
C4328 C 0.5894 0.75444 0.9367 0.0
C4329 C 0.58091 0.76451 0.94218 0.0
N4330 N 0.55822 0.76646 0.95623 0.0
N4331 N 0.59276 0.72681 0.93721 0.0
C4332 C 0.56674 0.75671 0.95174 0.0
C4333 C 0.58502 0.73697 0.9423 0.0
N4334 N 0.54817 0.73101 0.96572 0.0
N4335 N 0.60242 0.76203 0.92692 0.0
H4336 H 0.59009 0.71421 0.94137 0.0
H4337 H 0.60106 0.73028 0.92833 0.0
H4338 H 0.60553 0.77456 0.92239 0.0
H4339 H 0.61039 0.75625 0.92336 0.0
H4340 H 0.53927 0.73626 0.96811 0.0
H4341 H 0.54455 0.71816 0.9696 0.0
H4342 H 0.54922 0.76261 0.96459 0.0
H4343 H 0.56051 0.77887 0.95168 0.0
C4344 C 0.97908 0.12032 0.84167 0.0
C4345 C 0.98448 0.13789 0.83638 0.0
C4346 C 0.95623 0.13809 0.84268 0.0
C4347 C 0.94989 0.1199 0.84542 0.0
N4348 N 0.95542 0.09414 0.85064 0.0
N4349 N 0.97987 0.16446 0.83412 0.0
C4350 C 0.96157 0.11127 0.84621 0.0
C4351 C 0.97362 0.14715 0.83787 0.0
N4352 N 0.9905 0.11222 0.84172 0.0
N4353 N 0.9453 0.14642 0.84428 0.0
H4354 H 0.99278 0.17139 0.83122 0.0
H4355 H 0.97259 0.1721 0.83386 0.0
H4356 H 0.93268 0.13993 0.84797 0.0
H4357 H 0.94877 0.1597 0.84279 0.0
H4358 H 0.98783 0.09957 0.84561 0.0
H4359 H 1.00321 0.11838 0.8382 0.0
H4360 H 0.96251 0.08633 0.85084 0.0
H4361 H 0.94286 0.08767 0.85448 0.0
C4362 C 0.67153 0.22287 0.61782 0.0
C4363 C 0.6826 0.23617 0.60831 0.0
C4364 C 0.70634 0.22588 0.61489 0.0
C4365 C 0.69489 0.21193 0.62378 0.0
N4366 N 0.66481 0.19419 0.62897 0.0
N4367 N 0.7088 0.24746 0.59459 0.0
C4368 C 0.6769 0.2095 0.62371 0.0
C4369 C 0.69941 0.23665 0.60572 0.0
N4370 N 0.65609 0.22324 0.62168 0.0
N4371 N 0.72397 0.22977 0.61597 0.0
H4372 H 0.7041 0.25557 0.58786 0.0
H4373 H 0.72032 0.2471 0.5911 0.0
H4374 H 0.72984 0.22309 0.62325 0.0
H4375 H 0.73301 0.24072 0.61076 0.0
H4376 H 0.64871 0.21513 0.63016 0.0
H4377 H 0.65137 0.2325 0.61729 0.0
H4378 H 0.65138 0.19133 0.6283 0.0
H4379 H 0.66799 0.1836 0.63233 0.0
C4380 C 0.54517 0.87367 0.34631 0.0
C4381 C 0.53342 0.88154 0.34911 0.0
C4382 C 0.5571 0.9036 0.36451 0.0
C4383 C 0.56932 0.89714 0.35987 0.0
N4384 N 0.57528 0.8757 0.34714 0.0
N4385 N 0.527 0.90202 0.36287 0.0
C4386 C 0.56332 0.88185 0.35124 0.0
C4387 C 0.539 0.8958 0.35902 0.0
N4388 N 0.53878 0.85821 0.33909 0.0
N4389 N 0.56313 0.91775 0.37354 0.0
H4390 H 0.51387 0.89683 0.3588 0.0
H4391 H 0.52964 0.91194 0.3704 0.0
H4392 H 0.57614 0.92333 0.37791 0.0
H4393 H 0.55553 0.92404 0.3769 0.0
H4394 H 0.5461 0.85089 0.33763 0.0
H4395 H 0.52554 0.8519 0.33555 0.0
H4396 H 0.5725 0.86604 0.33929 0.0
H4397 H 0.5884 0.88077 0.35131 0.0
C4398 C 0.84105 0.79237 0.04886 0.0
C4399 C 0.82661 0.77637 0.0512 0.0
C4400 C 0.81206 0.79187 0.06427 0.0
C4401 C 0.82583 0.80794 0.06073 0.0
N4402 N 0.85514 0.82341 0.05313 0.0
N4403 N 0.79861 0.76044 0.06149 0.0
C4404 C 0.8409 0.80807 0.05417 0.0
C4405 C 0.81231 0.77596 0.05929 0.0
N4406 N 0.85457 0.79262 0.04086 0.0
N4407 N 0.79882 0.792 0.07239 0.0
H4408 H 0.79864 0.74871 0.05819 0.0
H4409 H 0.78705 0.759 0.06619 0.0
H4410 H 0.7986 0.80347 0.07614 0.0
H4411 H 0.78869 0.78096 0.07626 0.0
H4412 H 0.86438 0.80387 0.0369 0.0
H4413 H 0.85565 0.78139 0.03751 0.0
H4414 H 0.86719 0.8246 0.04956 0.0
H4415 H 0.85537 0.83497 0.0571 0.0
C4416 C 0.63541 0.90018 0.90494 0.0
C4417 C 0.63919 0.90468 0.88943 0.0
C4418 C 0.62407 0.87401 0.88319 0.0
C4419 C 0.61781 0.86991 0.898 0.0
N4420 N 0.61596 0.87991 0.92266 0.0
N4421 N 0.63357 0.89601 0.86323 0.0
C4422 C 0.62309 0.88321 0.90885 0.0
C4423 C 0.63246 0.89162 0.87839 0.0
N4424 N 0.64402 0.91183 0.91602 0.0
N4425 N 0.6226 0.86101 0.87388 0.0
H4426 H 0.63908 0.90883 0.8592 0.0
H4427 H 0.62735 0.88708 0.85472 0.0
H4428 H 0.6179 0.84806 0.87759 0.0
H4429 H 0.6281 0.86327 0.86337 0.0
H4430 H 0.64318 0.90864 0.92761 0.0
H4431 H 0.65328 0.92422 0.91368 0.0
H4432 H 0.61796 0.88957 0.93037 0.0
H4433 H 0.60689 0.86777 0.92593 0.0
C4434 C 0.25444 0.6129 0.13239 0.0
C4435 C 0.25247 0.60891 0.11671 0.0
C4436 C 0.24341 0.63331 0.11039 0.0
C4437 C 0.24721 0.63837 0.12581 0.0
N4438 N 0.25735 0.63379 0.15145 0.0
N4439 N 0.24684 0.61623 0.09051 0.0
C4440 C 0.25294 0.62832 0.1368 0.0
C4441 C 0.2473 0.6193 0.10564 0.0
N4442 N 0.25711 0.60161 0.14314 0.0
N4443 N 0.23605 0.64193 0.10031 0.0
H4444 H 0.2498 0.60625 0.08664 0.0
H4445 H 0.24494 0.62431 0.08176 0.0
H4446 H 0.23334 0.65238 0.10339 0.0
H4447 H 0.23127 0.63791 0.08929 0.0
H4448 H 0.25679 0.60274 0.15479 0.0
H4449 H 0.25829 0.59021 0.14045 0.0
H4450 H 0.26388 0.62855 0.15956 0.0
H4451 H 0.25523 0.64426 0.15535 0.0
C4452 C 0.19699 0.4609 0.91405 0.0
C4453 C 0.21139 0.45776 0.90933 0.0
C4454 C 0.1921 0.43877 0.88933 0.0
C4455 C 0.17762 0.4416 0.89426 0.0
N4456 N 0.1667 0.458 0.90882 0.0
N4457 N 0.22364 0.44671 0.89066 0.0
C4458 C 0.18028 0.45366 0.90577 0.0
C4459 C 0.20923 0.44767 0.89634 0.0
N4460 N 0.1991 0.47006 0.9269 0.0
N4461 N 0.18924 0.42687 0.8784 0.0
H4462 H 0.23635 0.45289 0.89557 0.0
H4463 H 0.2233 0.44094 0.88045 0.0
H4464 H 0.17711 0.421 0.87235 0.0
H4465 H 0.19854 0.42223 0.87573 0.0
H4466 H 0.1888 0.47124 0.932 0.0
H4467 H 0.21117 0.47568 0.93308 0.0
H4468 H 0.16797 0.46778 0.91613 0.0
H4469 H 0.1544 0.45276 0.90295 0.0
C4470 C 0.27988 0.39296 0.61548 0.0
C4471 C 0.27544 0.40121 0.60223 0.0
C4472 C 0.28738 0.38571 0.58645 0.0
C4473 C 0.29089 0.37676 0.59971 0.0
N4474 N 0.28584 0.3684 0.62606 0.0
N4475 N 0.2717 0.40292 0.57486 0.0
C4476 C 0.28568 0.37934 0.61398 0.0
C4477 C 0.27813 0.39675 0.58762 0.0
N4478 N 0.27901 0.39844 0.62957 0.0
N4479 N 0.29363 0.38443 0.57292 0.0
H4480 H 0.26535 0.4114 0.57532 0.0
H4481 H 0.27143 0.3986 0.56397 0.0
H4482 H 0.30065 0.37676 0.57159 0.0
H4483 H 0.29306 0.39201 0.56327 0.0
H4484 H 0.28406 0.39431 0.63954 0.0
H4485 H 0.27465 0.40825 0.63121 0.0
H4486 H 0.28073 0.36864 0.63639 0.0
H4487 H 0.28932 0.35784 0.62519 0.0
C4488 C 0.80808 0.05993 0.84851 0.0
C4489 C 0.79927 0.04841 0.86037 0.0
C4490 C 0.82786 0.05129 0.87289 0.0
C4491 C 0.83641 0.06517 0.86265 0.0
N4492 N 0.83461 0.08361 0.84108 0.0
N4493 N 0.80081 0.03381 0.88455 0.0
C4494 C 0.82656 0.06955 0.85037 0.0
C4495 C 0.80916 0.044 0.87263 0.0
N4496 N 0.79871 0.06167 0.83547 0.0
N4497 N 0.8377 0.04527 0.88299 0.0
H4498 H 0.78719 0.02824 0.88487 0.0
H4499 H 0.80737 0.03187 0.89463 0.0
H4500 H 0.8514 0.05045 0.88338 0.0
H4501 H 0.83236 0.03419 0.88987 0.0
H4502 H 0.80452 0.06864 0.82584 0.0
H4503 H 0.78519 0.0547 0.83379 0.0
H4504 H 0.82777 0.08879 0.8332 0.0
H4505 H 0.8481 0.09089 0.84188 0.0
C4506 C 0.89869 0.12112 0.42508 0.0
C4507 C 0.88134 0.11709 0.42923 0.0
C4508 C 0.88532 0.14735 0.4234 0.0
C4509 C 0.90335 0.15176 0.42104 0.0
N4510 N 0.92803 0.14315 0.42451 0.0
N4511 N 0.85968 0.1275 0.43577 0.0
C4512 C 0.9103 0.13873 0.42339 0.0
C4513 C 0.87512 0.13057 0.42948 0.0
N4514 N 0.90396 0.10822 0.42202 0.0
N4515 N 0.87758 0.1587 0.41906 0.0
H4516 H 0.85205 0.11545 0.4405 0.0
H4517 H 0.85543 0.13732 0.43761 0.0
H4518 H 0.88419 0.17063 0.41366 0.0
H4519 H 0.86414 0.15546 0.41934 0.0
H4520 H 0.91594 0.11069 0.41749 0.0
H4521 H 0.8957 0.09511 0.42237 0.0
H4522 H 0.93366 0.13418 0.42744 0.0
H4523 H 0.93708 0.15599 0.42432 0.0
C4524 C 0.16346 0.51265 0.65077 0.0
C4525 C 0.16265 0.49613 0.64686 0.0
C4526 C 0.13229 0.48361 0.6549 0.0
C4527 C 0.13534 0.49914 0.6626 0.0
N4528 N 0.155 0.52863 0.66816 0.0
N4529 N 0.14087 0.47119 0.63453 0.0
C4530 C 0.15115 0.5138 0.66045 0.0
C4531 C 0.14553 0.48272 0.64598 0.0
N4532 N 0.17449 0.52724 0.64362 0.0
N4533 N 0.11664 0.46975 0.65589 0.0
H4534 H 0.14864 0.47334 0.62533 0.0
H4535 H 0.12828 0.46173 0.63258 0.0
H4536 H 0.10594 0.47042 0.66078 0.0
H4537 H 0.11459 0.45743 0.65235 0.0
H4538 H 0.17448 0.53949 0.64502 0.0
H4539 H 0.1818 0.52658 0.63478 0.0
H4540 H 0.1672 0.53897 0.66793 0.0
H4541 H 0.14676 0.53001 0.6758 0.0
C4542 C 0.36798 0.4974 0.12917 0.0
C4543 C 0.36873 0.51352 0.12255 0.0
C4544 C 0.40081 0.52546 0.12859 0.0
C4545 C 0.39891 0.51101 0.13861 0.0
N4546 N 0.38012 0.48304 0.14865 0.0
N4547 N 0.3876 0.53772 0.10793 0.0
C4548 C 0.38236 0.49689 0.13892 0.0
C4549 C 0.38577 0.52612 0.11984 0.0
N4550 N 0.35554 0.48229 0.12387 0.0
N4551 N 0.41684 0.53884 0.12782 0.0
H4552 H 0.37691 0.53717 0.10051 0.0
H4553 H 0.39966 0.54638 0.10437 0.0
H4554 H 0.42828 0.53833 0.13328 0.0
H4555 H 0.41866 0.55072 0.12238 0.0
H4556 H 0.35497 0.47014 0.12784 0.0
H4557 H 0.34873 0.482 0.11333 0.0
H4558 H 0.3678 0.47329 0.15025 0.0
H4559 H 0.39029 0.48195 0.15584 0.0
C4560 C 0.63084 0.81578 0.59454 0.0
C4561 C 0.63851 0.82735 0.5823 0.0
C4562 C 0.63236 0.84988 0.59366 0.0
C4563 C 0.62769 0.83957 0.60717 0.0
N4564 N 0.62547 0.81319 0.62131 0.0
N4565 N 0.65107 0.85699 0.57278 0.0
C4566 C 0.62762 0.82255 0.60788 0.0
C4567 C 0.6406 0.84488 0.58259 0.0
N4568 N 0.62635 0.79838 0.59336 0.0
N4569 N 0.62853 0.86425 0.59117 0.0
H4570 H 0.65816 0.85405 0.56494 0.0
H4571 H 0.6542 0.87023 0.57368 0.0
H4572 H 0.62121 0.86757 0.59849 0.0
H4573 H 0.63076 0.87149 0.58097 0.0
H4574 H 0.61919 0.78926 0.60137 0.0
H4575 H 0.62827 0.79296 0.58367 0.0
H4576 H 0.6269 0.80139 0.6226 0.0
H4577 H 0.624 0.81794 0.63153 0.0
C4578 C 0.44386 0.4266 0.81064 0.0
C4579 C 0.43065 0.42974 0.80111 0.0
C4580 C 0.41236 0.42401 0.82299 0.0
C4581 C 0.42528 0.42031 0.83234 0.0
N4582 N 0.45517 0.423 0.83644 0.0
N4583 N 0.40512 0.43677 0.79927 0.0
C4584 C 0.44172 0.42344 0.82659 0.0
C4585 C 0.41583 0.43026 0.8077 0.0
N4586 N 0.45782 0.42541 0.80438 0.0
N4587 N 0.39639 0.42062 0.82843 0.0
H4588 H 0.40756 0.44165 0.78816 0.0
H4589 H 0.39496 0.4389 0.80375 0.0
H4590 H 0.39368 0.41662 0.8397 0.0
H4591 H 0.38563 0.42093 0.82162 0.0
H4592 H 0.46674 0.42114 0.81045 0.0
H4593 H 0.45989 0.42755 0.79282 0.0
H4594 H 0.46798 0.42664 0.83334 0.0
H4595 H 0.4538 0.42061 0.84812 0.0
C4596 C 0.88998 0.15482 0.06934 0.0
C4597 C 0.89081 0.17175 0.0655 0.0
C4598 C 0.90778 0.18193 0.08983 0.0
C4599 C 0.90744 0.16504 0.09325 0.0
N4600 N 0.90501 0.13824 0.0828 0.0
N4601 N 0.90603 0.2024 0.06979 0.0
C4602 C 0.90095 0.15252 0.08171 0.0
C4603 C 0.90155 0.18566 0.07499 0.0
N4604 N 0.87795 0.14074 0.062 0.0
N4605 N 0.91299 0.19412 0.10077 0.0
H4606 H 0.90217 0.20553 0.05883 0.0
H4607 H 0.9151 0.21295 0.07571 0.0
H4608 H 0.91718 0.19191 0.11185 0.0
H4609 H 0.91181 0.20602 0.0991 0.0
H4610 H 0.87588 0.12806 0.06559 0.0
H4611 H 0.86881 0.14164 0.05349 0.0
H4612 H 0.90121 0.12907 0.07431 0.0
H4613 H 0.91392 0.1369 0.09134 0.0
C4614 C 0.10929 0.6575 0.34139 0.0
C4615 C 0.09581 0.64486 0.33237 0.0
C4616 C 0.0874 0.62563 0.35499 0.0
C4617 C 0.10211 0.63737 0.36353 0.0
N4618 N 0.12796 0.66384 0.3649 0.0
N4619 N 0.07358 0.61589 0.33004 0.0
C4620 C 0.11325 0.65322 0.35677 0.0
C4621 C 0.08513 0.62872 0.33906 0.0
N4622 N 0.11817 0.67363 0.33522 0.0
N4623 N 0.07563 0.61142 0.36211 0.0
H4624 H 0.07142 0.61759 0.31834 0.0
H4625 H 0.06713 0.60314 0.33389 0.0
H4626 H 0.07712 0.60841 0.37366 0.0
H4627 H 0.06366 0.60338 0.35692 0.0
H4628 H 0.12707 0.68396 0.34147 0.0
H4629 H 0.11558 0.67712 0.32401 0.0
H4630 H 0.13781 0.67453 0.36016 0.0
H4631 H 0.13084 0.66139 0.37634 0.0
C4632 C 0.56562 0.12998 0.97887 0.0
C4633 C 0.56607 0.11712 0.99004 0.0
C4634 C 0.57875 0.10541 0.97133 0.0
C4635 C 0.57991 0.11922 0.96098 0.0
N4636 N 0.57751 0.14662 0.95609 0.0
N4637 N 0.56064 0.08664 0.9901 0.0
C4638 C 0.57464 0.1323 0.96534 0.0
C4639 C 0.56946 0.1031 0.98464 0.0
N4640 N 0.55344 0.13704 0.9793 0.0
N4641 N 0.58582 0.09394 0.96812 0.0
H4642 H 0.55043 0.08374 0.99729 0.0
H4643 H 0.56143 0.07576 0.98564 0.0
H4644 H 0.59261 0.09531 0.95837 0.0
H4645 H 0.58642 0.08431 0.97591 0.0
H4646 H 0.5516 0.1455 0.97085 0.0
H4647 H 0.54307 0.13182 0.98642 0.0
H4648 H 0.57511 0.15723 0.95922 0.0
H4649 H 0.58392 0.14842 0.94604 0.0
C4650 C 0.06748 0.37487 0.18015 0.0
C4651 C 0.06439 0.36547 0.19432 0.0
C4652 C 0.08349 0.35134 0.18786 0.0
C4653 C 0.08378 0.35794 0.17261 0.0
N4654 N 0.07366 0.37465 0.15378 0.0
N4655 N 0.06593 0.34115 0.20952 0.0
C4656 C 0.07523 0.36949 0.1686 0.0
C4657 C 0.07143 0.3527 0.1976 0.0
N4658 N 0.0634 0.3891 0.17781 0.0
N4659 N 0.09475 0.34369 0.19306 0.0
H4660 H 0.05624 0.34093 0.21642 0.0
H4661 H 0.06952 0.33057 0.21138 0.0
H4662 H 0.10434 0.34316 0.18642 0.0
H4663 H 0.09578 0.33972 0.20441 0.0
H4664 H 0.06689 0.39735 0.16827 0.0
H4665 H 0.05807 0.39359 0.18608 0.0
H4666 H 0.06605 0.38165 0.1501 0.0
H4667 H 0.0787 0.37071 0.14496 0.0
C4668 C 0.94265 0.92296 0.45629 0.0
C4669 C 0.94877 0.90942 0.45899 0.0
C4670 C 0.93816 0.89991 0.4328 0.0
C4671 C 0.93413 0.91484 0.42963 0.0
N4672 N 0.93906 0.94361 0.43761 0.0
N4673 N 0.95625 0.88764 0.44832 0.0
C4674 C 0.93847 0.92734 0.44114 0.0
C4675 C 0.9478 0.89872 0.44676 0.0
N4676 N 0.94002 0.93121 0.46816 0.0
N4677 N 0.93193 0.88633 0.42316 0.0
H4678 H 0.96357 0.88664 0.45828 0.0
H4679 H 0.95739 0.88083 0.43923 0.0
H4680 H 0.92361 0.88587 0.41353 0.0
H4681 H 0.93343 0.87469 0.42569 0.0
H4682 H 0.93399 0.94004 0.46662 0.0
H4683 H 0.94194 0.92779 0.47953 0.0
H4684 H 0.9432 0.95339 0.44557 0.0
H4685 H 0.93748 0.94787 0.42644 0.0
C4686 C 0.46683 0.63287 0.7162 0.0
C4687 C 0.46698 0.642 0.72938 0.0
C4688 C 0.44717 0.6537 0.71522 0.0
C4689 C 0.44946 0.6471 0.70145 0.0
N4690 N 0.46329 0.63182 0.68858 0.0
N4691 N 0.46021 0.66429 0.74007 0.0
C4692 C 0.4597 0.63694 0.70186 0.0
C4693 C 0.45786 0.65323 0.72855 0.0
N4694 N 0.47308 0.62001 0.71742 0.0
N4695 N 0.43476 0.66053 0.71551 0.0
H4696 H 0.46861 0.66503 0.74974 0.0
H4697 H 0.45531 0.67401 0.73925 0.0
H4698 H 0.42641 0.6607 0.70601 0.0
H4699 H 0.43154 0.66425 0.72553 0.0
H4700 H 0.47181 0.61185 0.70854 0.0
H4701 H 0.47801 0.6164 0.72773 0.0
H4702 H 0.47232 0.62611 0.68806 0.0
H4703 H 0.45817 0.63439 0.67795 0.0
C4704 C 0.56019 0.5641 0.84981 0.0
C4705 C 0.56696 0.58219 0.85229 0.0
C4706 C 0.58935 0.57944 0.8711 0.0
C4707 C 0.58091 0.56111 0.87024 0.0
N4708 N 0.55926 0.53567 0.85847 0.0
N4709 N 0.58892 0.6077 0.86365 0.0
C4710 C 0.56682 0.55335 0.85925 0.0
C4711 C 0.58203 0.59007 0.86232 0.0
N4712 N 0.54725 0.55731 0.83854 0.0
N4713 N 0.60422 0.58651 0.88054 0.0
H4714 H 0.58424 0.61575 0.85684 0.0
H4715 H 0.59913 0.61453 0.8714 0.0
H4716 H 0.61011 0.57902 0.88672 0.0
H4717 H 0.61138 0.59971 0.88185 0.0
H4718 H 0.54235 0.54448 0.83527 0.0
H4719 H 0.54211 0.56493 0.83163 0.0
H4720 H 0.54794 0.52888 0.85177 0.0
H4721 H 0.56406 0.52754 0.86502 0.0
C4722 C 0.55213 0.23714 0.09921 0.0
C4723 C 0.55453 0.22358 0.10823 0.0
C4724 C 0.57075 0.24462 0.12794 0.0
C4725 C 0.57211 0.25834 0.11728 0.0
N4726 N 0.56346 0.26793 0.09284 0.0
N4727 N 0.56511 0.21406 0.13192 0.0
C4728 C 0.56223 0.2547 0.10306 0.0
C4729 C 0.56314 0.22713 0.12302 0.0
N4730 N 0.54038 0.23307 0.08681 0.0
N4731 N 0.57716 0.24848 0.14264 0.0
H4732 H 0.55947 0.20113 0.12881 0.0
H4733 H 0.57297 0.21609 0.14205 0.0
H4734 H 0.58279 0.26124 0.14632 0.0
H4735 H 0.5754 0.23918 0.15138 0.0
H4736 H 0.53694 0.24219 0.08037 0.0
H4737 H 0.53281 0.22024 0.08395 0.0
H4738 H 0.55839 0.266 0.08157 0.0
H4739 H 0.57034 0.28093 0.09549 0.0
C4740 C 0.95737 0.44076 0.30503 0.0
C4741 C 0.97225 0.44765 0.29623 0.0
C4742 C 0.97594 0.47743 0.30164 0.0
C4743 C 0.96162 0.47058 0.31107 0.0
N4744 N 0.93803 0.44593 0.32152 0.0
N4745 N 0.9945 0.47206 0.28434 0.0
C4746 C 0.95199 0.45227 0.31252 0.0
C4747 C 0.98116 0.46589 0.29398 0.0
N4748 N 0.94827 0.42315 0.30595 0.0
N4749 N 0.98473 0.49502 0.30039 0.0
H4750 H 0.99918 0.46405 0.27912 0.0
H4751 H 1.00066 0.485 0.28096 0.0
H4752 H 0.9806 0.50366 0.30529 0.0
H4753 H 0.99621 0.50122 0.29482 0.0
H4754 H 0.93661 0.41691 0.31123 0.0
H4755 H 0.95207 0.4144 0.30084 0.0
H4756 H 0.93122 0.43293 0.32429 0.0
H4757 H 0.93342 0.45377 0.32702 0.0
C4758 C 0.96879 0.78811 0.59362 0.0
C4759 C 0.96129 0.79285 0.57989 0.0
C4760 C 0.94093 0.76251 0.57711 0.0
C4761 C 0.94594 0.75845 0.59214 0.0
N4762 N 0.96472 0.76763 0.61509 0.0
N4763 N 0.93817 0.78475 0.55973 0.0
C4764 C 0.96012 0.77125 0.60046 0.0
C4765 C 0.94691 0.78005 0.57187 0.0
N4766 N 0.98423 0.79966 0.60004 0.0
N4767 N 0.93026 0.74946 0.56788 0.0
H4768 H 0.94165 0.79752 0.5557 0.0
H4769 H 0.9264 0.77619 0.55461 0.0
H4770 H 0.92593 0.73643 0.57139 0.0
H4771 H 0.92735 0.75145 0.55637 0.0
H4772 H 0.99132 0.79647 0.60916 0.0
H4773 H 0.99067 0.81208 0.59536 0.0
H4774 H 0.97362 0.77693 0.6223 0.0
H4775 H 0.9589 0.75545 0.62034 0.0
C4776 C 0.56294 0.45426 0.70008 0.0
C4777 C 0.54723 0.44505 0.69112 0.0
C4778 C 0.56499 0.43646 0.67472 0.0
C4779 C 0.57989 0.44366 0.68502 0.0
N4780 N 0.59198 0.45648 0.70921 0.0
N4781 N 0.53881 0.43987 0.66442 0.0
C4782 C 0.57838 0.45141 0.69833 0.0
C4783 C 0.54934 0.43904 0.67689 0.0
N4784 N 0.56393 0.46782 0.70846 0.0
N4785 N 0.56599 0.42772 0.66251 0.0
H4786 H 0.53165 0.44767 0.66428 0.0
H4787 H 0.5402 0.43648 0.65357 0.0
H4788 H 0.57736 0.42593 0.66054 0.0
H4789 H 0.55506 0.4209 0.65533 0.0
H4790 H 0.57555 0.47606 0.71406 0.0
H4791 H 0.55373 0.47218 0.70798 0.0
H4792 H 0.591 0.46102 0.71971 0.0
H4793 H 0.60345 0.45444 0.70822 0.0
C4794 C 0.81594 0.27011 0.94561 0.0
C4795 C 0.81952 0.25757 0.93805 0.0
C4796 C 0.8172 0.27242 0.91367 0.0
C4797 C 0.81694 0.28661 0.92149 0.0
N4798 N 0.82025 0.30022 0.94577 0.0
N4799 N 0.82745 0.24917 0.91491 0.0
C4800 C 0.81739 0.28581 0.93773 0.0
C4801 C 0.82124 0.25937 0.92206 0.0
N4802 N 0.81087 0.26697 0.96019 0.0
N4803 N 0.81292 0.27096 0.89837 0.0
H4804 H 0.83134 0.23993 0.92067 0.0
H4805 H 0.83047 0.25122 0.90353 0.0
H4806 H 0.8087 0.27962 0.89197 0.0
H4807 H 0.81159 0.26007 0.89246 0.0
H4808 H 0.80641 0.27501 0.96561 0.0
H4809 H 0.80936 0.25543 0.9662 0.0
H4810 H 0.8219 0.3004 0.95763 0.0
H4811 H 0.82314 0.31247 0.9407 0.0
C4812 C 0.96781 0.63423 0.19155 0.0
C4813 C 0.98015 0.6263 0.19177 0.0
C4814 C 0.95957 0.60445 0.17442 0.0
C4815 C 0.94597 0.61007 0.17691 0.0
N4816 N 0.93712 0.63017 0.1889 0.0
N4817 N 0.98642 0.60203 0.1848 0.0
C4818 C 0.95013 0.62513 0.18556 0.0
C4819 C 0.97578 0.61104 0.18339 0.0
N4820 N 0.97304 0.6505 0.19705 0.0
N4821 N 0.95683 0.59254 0.16355 0.0
H4822 H 0.99817 0.606 0.19154 0.0
H4823 H 0.98275 0.58975 0.1804 0.0
H4824 H 0.94521 0.58775 0.1566 0.0
H4825 H 0.96668 0.58892 0.16037 0.0
H4826 H 0.96519 0.65765 0.19595 0.0
H4827 H 0.98589 0.65748 0.20134 0.0
H4828 H 0.93906 0.63986 0.19656 0.0
H4829 H 0.92408 0.62386 0.18488 0.0
C4830 C 0.70968 0.72584 0.46894 0.0
C4831 C 0.71328 0.74348 0.46498 0.0
C4832 C 0.729 0.74161 0.44328 0.0
C4833 C 0.72276 0.72338 0.44562 0.0
N4834 N 0.7064 0.69775 0.46053 0.0
N4835 N 0.726 0.76838 0.44832 0.0
C4836 C 0.71325 0.7154 0.45862 0.0
C4837 C 0.72301 0.75149 0.45221 0.0
N4838 N 0.70255 0.71896 0.48245 0.0
N4839 N 0.74061 0.74935 0.43238 0.0
H4840 H 0.72244 0.77622 0.45493 0.0
H4841 H 0.73109 0.77436 0.43812 0.0
H4842 H 0.74527 0.74228 0.42588 0.0
H4843 H 0.74681 0.76272 0.43077 0.0
H4844 H 0.70166 0.70689 0.48689 0.0
H4845 H 0.69868 0.72581 0.48986 0.0
H4846 H 0.69743 0.69109 0.46855 0.0
H4847 H 0.70878 0.68947 0.45354 0.0
C4848 C 0.88032 0.62901 0.64538 0.0
C4849 C 0.8874 0.61613 0.6442 0.0
C4850 C 0.91167 0.63736 0.63086 0.0
C4851 C 0.90476 0.65021 0.6313 0.0
N4852 N 0.88129 0.65789 0.63813 0.0
N4853 N 0.91676 0.61693 0.64833 0.0
C4854 C 0.88857 0.64587 0.63816 0.0
C4855 C 0.90509 0.62246 0.6403 0.0
N4856 N 0.86827 0.62652 0.65581 0.0
N4857 N 0.92569 0.64006 0.62258 0.0
H4858 H 0.91325 0.60866 0.6579 0.0
H4859 H 0.93019 0.62246 0.64673 0.0
H4860 H 0.93094 0.65099 0.61545 0.0
H4861 H 0.93085 0.63061 0.62199 0.0
H4862 H 0.86318 0.6356 0.65802 0.0
H4863 H 0.86571 0.61663 0.66412 0.0
H4864 H 0.86864 0.65501 0.64132 0.0
H4865 H 0.88735 0.67047 0.63376 0.0
C4866 C 0.27783 0.90289 0.42218 0.0
C4867 C 0.28614 0.91428 0.4344 0.0
C4868 C 0.30212 0.89596 0.44314 0.0
C4869 C 0.29144 0.88308 0.43284 0.0
N4870 N 0.26888 0.8739 0.41249 0.0
N4871 N 0.30451 0.92029 0.45786 0.0
C4872 C 0.27935 0.88652 0.42219 0.0
C4873 C 0.29798 0.91053 0.44518 0.0
N4874 N 0.26887 0.90787 0.41043 0.0
N4875 N 0.31606 0.89401 0.45116 0.0
H4876 H 0.30123 0.93065 0.46015 0.0
H4877 H 0.31176 0.91705 0.46683 0.0
H4878 H 0.31934 0.88342 0.44972 0.0
H4879 H 0.32529 0.90365 0.4579 0.0
H4880 H 0.26404 0.90092 0.40049 0.0
H4881 H 0.26753 0.91973 0.41004 0.0
H4882 H 0.25836 0.87475 0.40568 0.0
H4883 H 0.27029 0.86216 0.4118 0.0
C4884 C 0.31283 0.07803 0.69432 0.0
C4885 C 0.30301 0.05986 0.69324 0.0
C4886 C 0.32882 0.05715 0.68382 0.0
C4887 C 0.3368 0.07545 0.68155 0.0
N4888 N 0.3366 0.10361 0.68535 0.0
N4889 N 0.30915 0.0344 0.69936 0.0
C4890 C 0.32895 0.08599 0.68716 0.0
C4891 C 0.31288 0.04968 0.69139 0.0
N4892 N 0.30767 0.08729 0.70364 0.0
N4893 N 0.33617 0.04677 0.67855 0.0
H4894 H 0.30108 0.03126 0.70844 0.0
H4895 H 0.31665 0.02696 0.69922 0.0
H4896 H 0.34788 0.05163 0.67309 0.0
H4897 H 0.32988 0.03329 0.67867 0.0
H4898 H 0.31505 0.10025 0.70608 0.0
H4899 H 0.29704 0.08126 0.71039 0.0
H4900 H 0.33024 0.1117 0.68738 0.0
H4901 H 0.34889 0.11006 0.68102 0.0
C4902 C 0.2287 0.09576 0.89061 0.0
C4903 C 0.23529 0.09966 0.87587 0.0
C4904 C 0.23872 0.13 0.87821 0.0
C4905 C 0.2314 0.1258 0.89263 0.0
N4906 N 0.21491 0.10372 0.91039 0.0
N4907 N 0.24254 0.11952 0.85422 0.0
C4908 C 0.22483 0.10832 0.89804 0.0
C4909 C 0.23896 0.11649 0.8692 0.0
N4910 N 0.22735 0.08061 0.89809 0.0
N4911 N 0.2463 0.14696 0.87344 0.0
H4912 H 0.24258 0.10986 0.84731 0.0
H4913 H 0.24377 0.13102 0.84832 0.0
H4914 H 0.24628 0.15718 0.87959 0.0
H4915 H 0.25369 0.15099 0.86393 0.0
H4916 H 0.22457 0.07806 0.9095 0.0
H4917 H 0.23069 0.07127 0.89347 0.0
H4918 H 0.20835 0.09089 0.91401 0.0
H4919 H 0.21176 0.11262 0.91599 0.0
C4920 C 0.71625 0.45151 0.68689 0.0
C4921 C 0.72268 0.46961 0.68302 0.0
C4922 C 0.69303 0.46724 0.67591 0.0
C4923 C 0.68614 0.449 0.67833 0.0
N4924 N 0.6908 0.42415 0.68973 0.0
N4925 N 0.71305 0.49196 0.68906 0.0
C4926 C 0.69767 0.44114 0.68491 0.0
C4927 C 0.71007 0.47709 0.68184 0.0
N4928 N 0.72753 0.44487 0.6941 0.0
N4929 N 0.68376 0.47544 0.66768 0.0
H4930 H 0.72397 0.4974 0.69671 0.0
H4931 H 0.70343 0.49705 0.68913 0.0
H4932 H 0.67208 0.46874 0.66134 0.0
H4933 H 0.68905 0.48887 0.66578 0.0
H4934 H 0.72445 0.43179 0.69665 0.0
H4935 H 0.74001 0.45294 0.69844 0.0
H4936 H 0.69818 0.41718 0.69402 0.0
H4937 H 0.67733 0.41697 0.68996 0.0
C4938 C 0.64429 0.39974 0.13858 0.0
C4939 C 0.64156 0.40816 0.12475 0.0
C4940 C 0.61948 0.3804 0.11545 0.0
C4941 C 0.62287 0.37191 0.12902 0.0
N4942 N 0.64119 0.37266 0.15186 0.0
N4943 N 0.62874 0.4063 0.09903 0.0
C4944 C 0.63616 0.38137 0.14006 0.0
C4945 C 0.62984 0.3984 0.11285 0.0
N4946 N 0.65427 0.40937 0.15051 0.0
N4947 N 0.60585 0.37148 0.1054 0.0
H4948 H 0.63564 0.41954 0.09695 0.0
H4949 H 0.62197 0.3996 0.08936 0.0
H4950 H 0.59827 0.35827 0.10676 0.0
H4951 H 0.60135 0.37732 0.0962 0.0
H4952 H 0.65503 0.4042 0.16145 0.0
H4953 H 0.66071 0.42283 0.14985 0.0
H4954 H 0.65192 0.37856 0.15951 0.0
H4955 H 0.63568 0.35917 0.1531 0.0
C4956 C 0.35407 1.00273 0.84879 0.0
C4957 C 0.34174 1.00041 0.83607 0.0
C4958 C 0.35781 0.98731 0.82241 0.0
C4959 C 0.36721 0.98581 0.83623 0.0
N4960 N 0.37604 0.99378 0.86233 0.0
N4961 N 0.33196 0.99078 0.81044 0.0
C4962 C 0.36622 0.99445 0.84926 0.0
C4963 C 0.3439 0.99317 0.82262 0.0
N4964 N 0.35382 0.01256 0.8605 0.0
N4965 N 0.36204 0.98269 0.80918 0.0
H4966 H 0.32188 0.99529 0.8101 0.0
H4967 H 0.33149 0.98358 0.80107 0.0
H4968 H 0.37228 0.97846 0.80895 0.0
H4969 H 0.35669 0.98466 0.79847 0.0
H4970 H 0.3632 0.01598 0.86964 0.0
H4971 H 0.34494 0.01857 0.86038 0.0
H4972 H 0.37458 0.99804 0.87277 0.0
H4973 H 0.38544 0.9884 0.86283 0.0
C4974 C 0.17018 0.00993 0.39891 0.0
C4975 C 0.17726 0.01765 0.41319 0.0
C4976 C 0.15943 0.03524 0.40961 0.0
C4977 C 0.15257 0.02757 0.39528 0.0
N4978 N 0.14689 1.00385 0.37883 0.0
N4979 N 0.1755 0.03432 0.43383 0.0
C4980 C 0.15644 0.0136 0.39084 0.0
C4981 C 0.17081 0.02922 0.41911 0.0
N4982 N 0.1772 0.9998 0.39266 0.0
N4983 N 0.15581 0.04883 0.4138 0.0
H4984 H 0.184 0.03031 0.44091 0.0
H4985 H 0.1699 0.04128 0.43937 0.0
H4986 H 0.14725 0.05329 0.40734 0.0
H4987 H 0.16195 0.05626 0.42326 0.0
H4988 H 0.17395 0.99552 0.38152 0.0
H4989 H 0.18734 0.9968 0.3981 0.0
H4990 H 0.14795 0.9925 0.37584 0.0
H4991 H 0.13658 1.00619 0.37289 0.0
C4992 C 0.39451 0.15002 0.46195 0.0
C4993 C 0.38545 0.1612 0.45891 0.0
C4994 C 0.40093 0.17092 0.43524 0.0
C4995 C 0.41141 0.16139 0.43959 0.0
N4996 N 0.42075 0.14505 0.45903 0.0
N4997 N 0.37227 0.17111 0.43686 0.0
C4998 C 0.40942 0.15261 0.45393 0.0
C4999 C 0.38658 0.16904 0.44399 0.0
N5000 N 0.38664 0.13463 0.46961 0.0
N5001 N 0.40417 0.18114 0.42233 0.0
H5002 H 0.36 0.16566 0.4414 0.0
H5003 H 0.37179 0.17544 0.42557 0.0
H5004 H 0.41447 0.18254 0.41568 0.0
H5005 H 0.39782 0.18949 0.41925 0.0
H5006 H 0.3919 0.12518 0.47082 0.0
H5007 H 0.37362 0.13032 0.47248 0.0
H5008 H 0.42013 0.13892 0.46974 0.0
H5009 H 0.43152 0.14639 0.45298 0.0
C5010 C 0.60203 0.65769 0.23368 0.0
C5011 C 0.59278 0.66874 0.23399 0.0
C5012 C 0.5833 0.66347 0.20693 0.0
C5013 C 0.58989 0.6502 0.20744 0.0
N5014 N 0.60625 0.63496 0.22075 0.0
N5015 N 0.57516 0.68291 0.22102 0.0
C5016 C 0.59982 0.64766 0.22056 0.0
C5017 C 0.58377 0.67205 0.22056 0.0
N5018 N 0.6128 0.65667 0.24599 0.0
N5019 N 0.5766 0.66774 0.19334 0.0
H5020 H 0.57583 0.68987 0.23065 0.0
H5021 H 0.56672 0.68448 0.21219 0.0
H5022 H 0.57634 0.66167 0.18326 0.0
H5023 H 0.57277 0.67815 0.19172 0.0
H5024 H 0.62133 0.65033 0.246 0.0
H5025 H 0.6142 0.66325 0.25601 0.0
H5026 H 0.61171 0.63084 0.23046 0.0
H5027 H 0.60549 0.62794 0.21115 0.0
C5028 C 0.13316 0.82784 0.9829 0.0
C5029 C 0.12498 0.83177 0.99489 0.0
C5030 C 0.10895 0.84354 0.97561 0.0
C5031 C 0.11428 0.83626 0.96381 0.0
N5032 N 0.13231 0.822 0.95617 0.0
N5033 N 0.11755 0.85574 1.00049 0.0
C5034 C 0.12685 0.8288 0.96744 0.0
C5035 C 0.11611 0.84306 0.99089 0.0
N5036 N 0.14811 0.82487 0.98625 0.0
N5037 N 0.0969 0.85077 0.97236 0.0
H5038 H 0.12776 0.85979 1.00894 0.0
H5039 H 0.1119 0.86475 0.99791 0.0
H5040 H 0.09184 0.85193 0.96129 0.0
H5041 H 0.09122 0.85459 0.9808 0.0
H5042 H 0.15566 0.82339 0.97803 0.0
H5043 H 0.15411 0.82613 0.99726 0.0
H5044 H 0.13939 0.81417 0.95833 0.0
H5045 H 0.12899 0.82347 0.94464 0.0
C5046 C 0.91575 0.36439 0.69226 0.0
C5047 C 0.91827 0.37512 0.70484 0.0
C5048 C 0.91979 0.39922 0.6871 0.0
C5049 C 0.91452 0.38785 0.67462 0.0
N5050 N 0.90381 0.35824 0.66626 0.0
N5051 N 0.91856 0.40173 0.7141 0.0
C5052 C 0.9116 0.37004 0.67741 0.0
C5053 C 0.9191 0.39225 0.70222 0.0
N5054 N 0.91743 0.34887 0.69446 0.0
N5055 N 0.92614 0.41677 0.68458 0.0
H5056 H 0.91782 0.3971 0.72537 0.0
H5057 H 0.9171 0.41351 0.71253 0.0
H5058 H 0.92811 0.42252 0.67371 0.0
H5059 H 0.93137 0.42557 0.69332 0.0
H5060 H 0.91756 0.34136 0.6855 0.0
H5061 H 0.92038 0.34436 0.70519 0.0
H5062 H 0.90013 0.34493 0.66814 0.0
H5063 H 0.89916 0.3614 0.65565 0.0
C5064 C 0.42711 0.88117 0.06424 0.0
C5065 C 0.44449 0.89331 0.06227 0.0
C5066 C 0.44792 0.90016 0.08954 0.0
C5067 C 0.43056 0.88783 0.09144 0.0
N5068 N 0.40209 0.87092 0.07982 0.0
N5069 N 0.47017 0.91701 0.07214 0.0
C5070 C 0.41969 0.8798 0.07846 0.0
C5071 C 0.45445 0.90375 0.07464 0.0
N5072 N 0.41775 0.87059 0.05261 0.0
N5073 N 0.45845 0.90778 0.10204 0.0
H5074 H 0.47572 0.91939 0.06164 0.0
H5075 H 0.47716 0.92634 0.08013 0.0
H5076 H 0.45399 0.90578 0.11296 0.0
H5077 H 0.47178 0.91543 0.10176 0.0
H5078 H 0.40603 0.85994 0.05402 0.0
H5079 H 0.42222 0.87168 0.04175 0.0
H5080 H 0.39308 0.866 0.0706 0.0
H5081 H 0.39628 0.87008 0.09005 0.0
C5082 C 0.98476 0.66759 0.83216 0.0
C5083 C 0.97805 0.65202 0.82396 0.0
C5084 C 0.95658 0.63819 0.84325 0.0
C5085 C 0.9631 0.6539 0.85134 0.0
N5086 N 0.97969 0.68478 0.85094 0.0
N5087 N 0.95478 0.6241 0.81948 0.0
C5088 C 0.97595 0.66901 0.84487 0.0
C5089 C 0.96297 0.63786 0.82878 0.0
N5090 N 1.00012 0.68067 0.82841 0.0
N5091 N 0.94514 0.6233 0.84975 0.0
H5092 H 0.95917 0.62351 0.80886 0.0
H5093 H 0.94278 0.61414 0.82162 0.0
H5094 H 0.94015 0.62289 0.86028 0.0
H5095 H 0.94155 0.6111 0.84522 0.0
H5096 H 1.00676 0.69141 0.83514 0.0
H5097 H 1.00697 0.68017 0.81919 0.0
H5098 H 0.98781 0.69646 0.84598 0.0
H5099 H 0.97318 0.68624 0.86005 0.0
C5100 C 0.05086 0.10881 0.57342 0.0
C5101 C 0.06036 0.11962 0.56143 0.0
C5102 C 0.08623 0.13172 0.5793 0.0
C5103 C 0.07591 0.12352 0.59171 0.0
N5104 N 0.0484 0.10361 0.60078 0.0
N5105 N 0.08708 0.14207 0.55308 0.0
C5106 C 0.05827 0.11161 0.58882 0.0
C5107 C 0.07807 0.1312 0.5644 0.0
N5108 N 0.03478 0.09599 0.57006 0.0
N5109 N 0.10401 0.13995 0.58186 0.0
H5110 H 0.08214 0.14155 0.54176 0.0
H5111 H 0.09906 0.15243 0.55508 0.0
H5112 H 0.11034 0.14015 0.59265 0.0
H5113 H 0.11257 0.14491 0.5732 0.0
H5114 H 0.02793 0.08647 0.57791 0.0
H5115 H 0.02873 0.09418 0.55907 0.0
H5116 H 0.03498 0.09614 0.59965 0.0
H5117 H 0.05359 0.10505 0.61204 0.0
C5118 C 0.5733 0.3845 0.3499 0.0
C5119 C 0.58002 0.38479 0.33553 0.0
C5120 C 0.60542 0.3808 0.34848 0.0
C5121 C 0.6006 0.38395 0.36268 0.0
N5122 N 0.57973 0.38875 0.3772 0.0
N5123 N 0.60429 0.38631 0.32136 0.0
C5124 C 0.58436 0.38565 0.36353 0.0
C5125 C 0.5966 0.3838 0.33489 0.0
N5126 N 0.55631 0.38272 0.35053 0.0
N5127 N 0.61804 0.37427 0.34803 0.0
H5128 H 0.59853 0.38901 0.31109 0.0
H5129 H 0.61717 0.38745 0.32067 0.0
H5130 H 0.62379 0.37068 0.35791 0.0
H5131 H 0.62111 0.37046 0.338 0.0
H5132 H 0.55005 0.38061 0.36064 0.0
H5133 H 0.54804 0.38199 0.34076 0.0
H5134 H 0.56887 0.39173 0.37837 0.0
H5135 H 0.58738 0.38925 0.38732 0.0
C5136 C 0.47872 0.44269 0.19313 0.0
C5137 C 0.48786 0.45236 0.20609 0.0
C5138 C 0.4817 0.47747 0.19577 0.0
C5139 C 0.47293 0.46804 0.18252 0.0
N5140 N 0.46121 0.44102 0.16928 0.0
N5141 N 0.49417 0.47703 0.22166 0.0
C5142 C 0.47083 0.45039 0.18149 0.0
C5143 C 0.48803 0.46911 0.20803 0.0
N5144 N 0.47684 0.42578 0.19245 0.0
N5145 N 0.48526 0.4948 0.19621 0.0
H5146 H 0.49984 0.47186 0.23058 0.0
H5147 H 0.49238 0.48802 0.22461 0.0
H5148 H 0.48176 0.50175 0.18729 0.0
H5149 H 0.4931 0.50277 0.20484 0.0
H5150 H 0.46964 0.41736 0.1839 0.0
H5151 H 0.48198 0.41962 0.20098 0.0
H5152 H 0.46121 0.42927 0.16621 0.0
H5153 H 0.45289 0.44507 0.16204 0.0
C5154 C 0.46853 0.77777 0.95689 0.0
C5155 C 0.45841 0.78698 0.95032 0.0
C5156 C 0.43835 0.76075 0.93707 0.0
C5157 C 0.44689 0.75102 0.94545 0.0
N5158 N 0.47216 0.75025 0.96027 0.0
N5159 N 0.43712 0.78896 0.93086 0.0
C5160 C 0.46289 0.75969 0.95418 0.0
C5161 C 0.44453 0.77903 0.93917 0.0
N5162 N 0.48322 0.78637 0.96605 0.0
N5163 N 0.42366 0.75223 0.9279 0.0
H5164 H 0.44123 0.80223 0.9324 0.0
H5165 H 0.42784 0.78448 0.92176 0.0
H5166 H 0.41939 0.73904 0.92581 0.0
H5167 H 0.41553 0.75793 0.92257 0.0
H5168 H 0.49099 0.78064 0.97198 0.0
H5169 H 0.48788 0.79971 0.96758 0.0
H5170 H 0.48391 0.75527 0.96689 0.0
H5171 H 0.46829 0.73714 0.95803 0.0
C5172 C 0.07913 0.57085 0.72156 0.0
C5173 C 0.0623 0.57124 0.71784 0.0
C5174 C 0.05468 0.54665 0.70118 0.0
C5175 C 0.0724 0.54829 0.70258 0.0
N5176 N 0.10088 0.55949 0.71618 0.0
N5177 N 0.03423 0.56028 0.70353 0.0
C5178 C 0.08442 0.55949 0.7136 0.0
C5179 C 0.05002 0.55918 0.70766 0.0
N5180 N 0.09022 0.58195 0.73218 0.0
N5181 N 0.04236 0.53304 0.69346 0.0
H5182 H 0.03007 0.56898 0.70828 0.0
H5183 H 0.02576 0.55343 0.69461 0.0
H5184 H 0.0455 0.52353 0.68885 0.0
H5185 H 0.02894 0.53021 0.69296 0.0
H5186 H 0.10289 0.58296 0.73545 0.0
H5187 H 0.08665 0.59035 0.73805 0.0
H5188 H 0.11026 0.56674 0.72434 0.0
H5189 H 0.10529 0.55179 0.7103 0.0
C5190 C 0.04948 0.24445 0.43594 0.0
C5191 C 0.05886 0.23415 0.43302 0.0
C5192 C 0.07998 0.25878 0.4191 0.0
C5193 C 0.0723 0.26973 0.42424 0.0
N5194 N 0.04869 0.27316 0.43576 0.0
N5195 N 0.07954 0.22964 0.4181 0.0
C5196 C 0.05644 0.26247 0.43181 0.0
C5197 C 0.07292 0.24071 0.42325 0.0
N5198 N 0.0339 0.23679 0.44265 0.0
N5199 N 0.09475 0.26597 0.41118 0.0
H5200 H 0.07478 0.2165 0.42118 0.0
H5201 H 0.08879 0.23302 0.40998 0.0
H5202 H 0.09982 0.27898 0.40765 0.0
H5203 H 0.10229 0.25934 0.40837 0.0
H5204 H 0.02565 0.24302 0.44447 0.0
H5205 H 0.02852 0.22355 0.44544 0.0
H5206 H 0.03826 0.26944 0.44272 0.0
H5207 H 0.05305 0.28616 0.43215 0.0
C5208 C 0.47094 0.66367 0.35042 0.0
C5209 C 0.48542 0.66032 0.35719 0.0
C5210 C 0.46582 0.63807 0.37405 0.0
C5211 C 0.45117 0.63892 0.36499 0.0
N5212 N 0.43925 0.65351 0.34579 0.0
N5213 N 0.49762 0.64881 0.3787 0.0
C5214 C 0.45358 0.6524 0.35384 0.0
C5215 C 0.48319 0.64906 0.37021 0.0
N5216 N 0.47401 0.67761 0.34061 0.0
N5217 N 0.46295 0.62583 0.38556 0.0
H5218 H 0.51037 0.65653 0.37597 0.0
H5219 H 0.49714 0.64198 0.389 0.0
H5220 H 0.45035 0.61819 0.38884 0.0
H5221 H 0.47275 0.62297 0.39173 0.0
H5222 H 0.46432 0.68169 0.33589 0.0
H5223 H 0.48672 0.68605 0.33825 0.0
H5224 H 0.43992 0.66161 0.33626 0.0
H5225 H 0.42644 0.64579 0.34849 0.0
C5226 C 0.17729 0.72009 0.11305 0.0
C5227 C 0.18749 0.73821 0.11279 0.0
C5228 C 0.21322 0.73287 0.12388 0.0
C5229 C 0.20292 0.71481 0.12406 0.0
N5230 N 0.17726 0.69114 0.11438 0.0
N5231 N 0.2161 0.76153 0.11426 0.0
C5232 C 0.18566 0.70844 0.11706 0.0
C5233 C 0.20581 0.74448 0.11698 0.0
N5234 N 0.15946 0.71398 0.11047 0.0
N5235 N 0.22972 0.73893 0.13091 0.0
H5236 H 0.21105 0.77026 0.10913 0.0
H5237 H 0.22974 0.76662 0.1158 0.0
H5238 H 0.23564 0.7307 0.13558 0.0
H5239 H 0.23715 0.75201 0.13279 0.0
H5240 H 0.15122 0.70106 0.11237 0.0
H5241 H 0.15272 0.72204 0.10766 0.0
H5242 H 0.16514 0.6858 0.10827 0.0
H5243 H 0.18336 0.68245 0.11688 0.0
C5244 C 0.04846 0.37703 0.82708 0.0
C5245 C 0.03548 0.37999 0.83469 0.0
C5246 C 0.05885 0.39856 0.85269 0.0
C5247 C 0.07187 0.3976 0.8438 0.0
N5248 N 0.07932 0.38496 0.82302 0.0
N5249 N 0.02905 0.38499 0.85992 0.0
C5250 C 0.06671 0.38629 0.83128 0.0
C5251 C 0.04075 0.38822 0.84905 0.0
N5252 N 0.04306 0.36465 0.81626 0.0
N5253 N 0.06358 0.41008 0.86421 0.0
H5254 H 1.01629 0.37595 0.85885 0.0
H5255 H 0.03281 0.38916 0.87106 0.0
H5256 H 0.0766 0.41783 0.8674 0.0
H5257 H 0.0545 0.41292 0.86977 0.0
H5258 H 0.05144 0.36065 0.81088 0.0
H5259 H 0.02978 0.35708 0.81378 0.0
H5260 H 0.07674 0.37898 0.81258 0.0
H5261 H 0.09267 0.39047 0.82641 0.0
C5262 C 0.29834 0.25481 0.57041 0.0
C5263 C 0.31131 0.25551 0.56058 0.0
C5264 C 0.32238 0.28742 0.55947 0.0
C5265 C 0.30878 0.28667 0.56857 0.0
N5266 N 0.28599 0.27045 0.5851 0.0
N5267 N 0.33535 0.27208 0.54518 0.0
C5268 C 0.29748 0.27056 0.57484 0.0
C5269 C 0.32339 0.27175 0.55509 0.0
N5270 N 0.2862 0.23902 0.57473 0.0
N5271 N 0.33445 0.30328 0.55523 0.0
H5272 H 0.3371 0.26101 0.54233 0.0
H5273 H 0.34314 0.2831 0.53921 0.0
H5274 H 0.33412 0.31488 0.55854 0.0
H5275 H 0.34549 0.30517 0.54946 0.0
H5276 H 0.27521 0.23732 0.5805 0.0
H5277 H 0.28653 0.2273 0.57178 0.0
H5278 H 0.27834 0.25949 0.59122 0.0
H5279 H 0.28508 0.28178 0.5884 0.0
C5280 C 0.13261 0.41118 0.39732 0.0
C5281 C 0.14186 0.4152 0.38383 0.0
C5282 C 0.13321 0.38408 0.38003 0.0
C5283 C 0.1216 0.38018 0.3919 0.0
N5284 N 0.1098 0.3898 0.41182 0.0
N5285 N 0.1504 0.40556 0.36179 0.0
C5286 C 0.12137 0.39367 0.4007 0.0
C5287 C 0.14223 0.40166 0.37514 0.0
N5288 N 0.13471 0.42415 0.40693 0.0
N5289 N 0.13552 0.37087 0.37343 0.0
H5290 H 0.15733 0.41826 0.35798 0.0
H5291 H 0.14934 0.39628 0.354 0.0
H5292 H 0.12916 0.35792 0.37691 0.0
H5293 H 0.14486 0.37279 0.36561 0.0
H5294 H 0.12966 0.42197 0.41762 0.0
H5295 H 0.14284 0.43708 0.40479 0.0
H5296 H 0.10733 0.39912 0.41738 0.0
H5297 H 0.10195 0.37708 0.41496 0.0
C5298 C 0.73192 0.10318 0.63586 0.0
C5299 C 0.74165 0.102 0.62376 0.0
C5300 C 0.74568 0.13171 0.61531 0.0
C5301 C 0.73826 0.1338 0.62865 0.0
N5302 N 0.72579 0.12178 0.65255 0.0
N5303 N 0.75933 0.11574 0.60273 0.0
C5304 C 0.73156 0.11953 0.6391 0.0
C5305 C 0.74892 0.11644 0.61367 0.0
N5306 N 0.72292 0.08861 0.64425 0.0
N5307 N 0.74926 0.14424 0.60401 0.0
H5308 H 0.76166 0.10468 0.60098 0.0
H5309 H 0.7667 0.1265 0.5962 0.0
H5310 H 0.74653 0.1553 0.60466 0.0
H5311 H 0.7532 0.1429 0.59342 0.0
H5312 H 0.71391 0.08811 0.65197 0.0
H5313 H 0.72341 0.0766 0.64265 0.0
H5314 H 0.72266 0.1125 0.66137 0.0
H5315 H 0.72533 0.13345 0.65543 0.0
C5316 C 0.70806 0.94818 0.41154 0.0
C5317 C 0.71291 0.96503 0.41726 0.0
C5318 C 0.68212 0.96191 0.41162 0.0
C5319 C 0.67846 0.94665 0.40356 0.0
N5320 N 0.68918 0.92668 0.39387 0.0
N5321 N 0.70014 0.97978 0.43201 0.0
C5322 C 0.69201 0.94053 0.40262 0.0
C5323 C 0.69876 0.96996 0.4198 0.0
N5324 N 0.71631 0.93782 0.4175 0.0
N5325 N 0.66961 0.96862 0.41171 0.0
H5326 H 0.7108 0.98292 0.44007 0.0
H5327 H 0.68979 0.9825 0.43537 0.0
H5328 H 0.65725 0.96288 0.40602 0.0
H5329 H 0.67216 0.98067 0.41616 0.0
H5330 H 0.71231 0.92487 0.41463 0.0
H5331 H 0.72477 0.94119 0.4273 0.0
H5332 H 0.69908 0.92238 0.39221 0.0
H5333 H 0.67749 0.9207 0.38724 0.0
C5334 C 0.78405 0.90787 0.08243 0.0
C5335 C 0.79158 0.923 0.0913 0.0
C5336 C 0.81777 0.91644 0.09623 0.0
C5337 C 0.80868 0.89933 0.09073 0.0
N5338 N 0.7805 0.878 0.08139 0.0
N5339 N 0.81435 0.93841 0.1104 0.0
C5340 C 0.79108 0.8948 0.08443 0.0
C5341 C 0.80812 0.92642 0.09928 0.0
N5342 N 0.77039 0.906 0.07199 0.0
N5343 N 0.83565 0.9235 0.09818 0.0
H5344 H 0.80717 0.94509 0.11397 0.0
H5345 H 0.82574 0.94005 0.11725 0.0
H5346 H 0.8434 0.91737 0.09468 0.0
H5347 H 0.84264 0.93626 0.10152 0.0
H5348 H 0.76549 0.89584 0.0644 0.0
H5349 H 0.76542 0.91562 0.06982 0.0
H5350 H 0.7673 0.87422 0.07766 0.0
H5351 H 0.78414 0.86765 0.08444 0.0
C5352 C 0.31257 0.57233 0.35983 0.0
C5353 C 0.30208 0.5598 0.37029 0.0
C5354 C 0.32847 0.56356 0.38693 0.0
C5355 C 0.33859 0.57766 0.37751 0.0
N5356 N 0.33956 0.59734 0.35615 0.0
N5357 N 0.29959 0.54571 0.39514 0.0
C5358 C 0.3305 0.5825 0.36418 0.0
C5359 C 0.30992 0.55601 0.38422 0.0
N5360 N 0.30548 0.57434 0.34565 0.0
N5361 N 0.33666 0.55721 0.39836 0.0
H5362 H 0.28592 0.54006 0.39368 0.0
H5363 H 0.30444 0.54409 0.40616 0.0
H5364 H 0.35028 0.56221 0.40044 0.0
H5365 H 0.33015 0.54596 0.40472 0.0
H5366 H 0.31295 0.58186 0.33696 0.0
H5367 H 0.29234 0.56735 0.3422 0.0
H5368 H 0.33373 0.6025 0.34736 0.0
H5369 H 0.35256 0.60537 0.35903 0.0
C5370 C 0.37924 0.60694 0.92826 0.0
C5371 C 0.37648 0.60111 0.94361 0.0
C5372 C 0.39833 0.62939 0.95209 0.0
C5373 C 0.39961 0.63579 0.93671 0.0
N5374 N 0.38717 0.63167 0.9108 0.0
N5375 N 0.38133 0.60761 0.97027 0.0
C5376 C 0.38897 0.6248 0.92496 0.0
C5377 C 0.38539 0.61261 0.95558 0.0
N5378 N 0.37252 0.59545 0.91674 0.0
N5379 N 0.40993 0.63896 0.96328 0.0
H5380 H 0.37247 0.59523 0.97326 0.0
H5381 H 0.38579 0.61609 0.97929 0.0
H5382 H 0.41992 0.65098 0.96117 0.0
H5383 H 0.41067 0.63429 0.97441 0.0
H5384 H 0.37583 0.59868 0.90551 0.0
H5385 H 0.36491 0.58232 0.91858 0.0
H5386 H 0.37847 0.62457 0.90211 0.0
H5387 H 0.39266 0.64496 0.9084 0.0
C5388 C 0.68185 0.03211 0.15117 0.0
C5389 C 0.68068 0.01575 0.14642 0.0
C5390 C 0.65194 1.00257 0.15767 0.0
C5391 C 0.65583 0.01799 0.1658 0.0
N5392 N 0.67558 0.04764 0.17048 0.0
N5393 N 0.6577 0.9906 0.13544 0.0
C5394 C 0.67098 0.03288 0.16248 0.0
C5395 C 0.66376 1.00209 0.14694 0.0
N5396 N 0.69138 0.04686 0.1433 0.0
N5397 N 0.63694 0.98837 0.1601 0.0
H5398 H 0.6643 0.9927 0.12549 0.0
H5399 H 0.64502 0.98107 0.13449 0.0
H5400 H 0.62728 0.98862 0.16681 0.0
H5401 H 0.63452 0.9762 0.15598 0.0
H5402 H 0.69143 0.05896 0.14544 0.0
H5403 H 0.69712 0.04641 0.13333 0.0
H5404 H 0.68752 0.05816 0.16935 0.0
H5405 H 0.66827 0.04883 0.17906 0.0
C5406 C 0.85281 0.98692 0.646 0.0
C5407 C 0.8534 1.00167 0.63688 0.0
C5408 C 0.88574 0.01326 0.63907 0.0
C5409 C 0.88514 0.99971 0.64976 0.0
N5410 N 0.86833 0.97361 0.66361 0.0
N5411 N 0.86992 0.0255 0.62064 0.0
C5412 C 0.86874 0.98625 0.65294 0.0
C5413 C 0.86978 0.01379 0.63214 0.0
N5414 N 0.83704 0.97353 0.648 0.0
N5415 N 0.9016 0.02612 0.63617 0.0
H5416 H 0.85839 0.02574 0.61512 0.0
H5417 H 0.88119 0.03384 0.6156 0.0
H5418 H 0.91352 0.0256 0.64034 0.0
H5419 H 0.90302 0.03762 0.63021 0.0
H5420 H 0.8358 0.96148 0.65273 0.0
H5421 H 0.82508 0.9739 0.64384 0.0
H5422 H 0.8569 0.96473 0.66805 0.0
H5423 H 0.87962 0.9725 0.66877 0.0
loop_
_geom_bond_atom_site_label_1
_geom_bond_atom_site_label_2
_geom_bond_distance
_geom_bond_site_symmetry_2
_ccdc_geom_bond_type
C0 C1 1.264 . S
C0 C5 1.479 . S
C0 C10 1.465 . S
C1 C0 1.264 . S
C1 C3 1.339 . S
C1 H28 0.931 . S
C2 C3 1.395 . S
C2 C4 1.320 . S
C3 C1 1.339 . S
C3 C2 1.395 . S
C3 H29 0.929 . S
C4 C2 1.320 . S
C4 C5 1.405 . S
C4 H30 0.930 . S
C5 C0 1.479 . S
C5 C4 1.405 . S
C5 H31 0.931 . S
U6 O7 2.454 . S
U6 O8 2.458 1_655 S
U6 C9 2.984 1_655 S
U6 C10 2.847 . S
U6 C23 2.906 . S
U6 O24 2.441 . S
U6 O25 2.420 . S
U6 O26 2.455 1_655 S
U6 O27 2.449 . S
O7 U6 2.454 . S
O7 C9 1.353 1_655 S
O8 U6 2.458 1_455 S
O8 C9 1.286 . S
C9 U6 2.984 1_455 S
C9 O7 1.353 1_455 S
C9 O8 1.286 . S
C9 C11 1.363 . S
C10 C0 1.465 . S
C10 U6 2.847 . S
C10 O24 1.249 . S
C10 O25 1.202 . S
C11 C9 1.363 . S
C11 C13 1.408 . S
C11 C16 1.342 . S
C12 C13 1.310 . S
C12 C15 1.461 . S
C12 H32 0.932 . S
C13 C11 1.408 . S
C13 C12 1.310 . S
C13 H33 0.930 . S
C14 C15 1.474 . S
C14 C16 1.285 . S
C14 H34 0.929 . S
C15 C12 1.461 . S
C15 C14 1.474 . S
C16 C11 1.342 . S
C16 C14 1.285 . S
C16 H35 0.930 . S
C17 C20 1.424 . S
C17 C22 1.245 . S
C17 C23 1.399 1_455 S
C18 C21 1.260 . S
C18 C22 1.477 . S
C18 H36 0.932 . S
C19 C20 1.384 . S
C19 C21 1.479 . S
C19 H37 0.929 . S
C20 C17 1.424 . S
C20 C19 1.384 . S
C20 H38 0.928 1_455 S
C21 C18 1.260 . S
C21 C19 1.479 . S
C22 C17 1.245 . S
C22 C18 1.477 . S
C22 H39 0.932 . S
C23 U6 2.906 . S
C23 C17 1.399 1_655 S
C23 O26 1.279 1_655 S
C23 O27 1.337 . S
O24 U6 2.441 . S
O24 C10 1.249 . S
O25 U6 2.420 . S
O25 C10 1.202 . S
O26 U6 2.455 1_455 S
O26 C23 1.279 1_455 S
O27 U6 2.449 . S
O27 C23 1.337 . S
H28 C1 0.931 . S
H29 C3 0.929 . S
H30 C4 0.930 . S
H31 C5 0.931 . S
H32 C12 0.932 . S
H33 C13 0.930 . S
H34 C14 0.929 . S
H35 C16 0.930 . S
H36 C18 0.932 . S
H37 C19 0.929 . S
H38 C20 0.928 1_655 S
H39 C22 0.932 . S
C40 C41 1.264 . S
C40 C45 1.479 . S
C40 C50 1.465 . S
C41 C40 1.264 . S
C41 C43 1.339 . S
C41 H68 0.931 . S
C42 C43 1.395 . S
C42 C44 1.320 . S
C43 C41 1.339 . S
C43 C42 1.395 . S
C43 H69 0.929 . S
C44 C42 1.320 . S
C44 C45 1.405 . S
C44 H70 0.930 . S
C45 C40 1.479 . S
C45 C44 1.405 . S
C45 H71 0.931 . S
U46 O47 2.454 . S
U46 O48 2.458 . S
U46 C49 2.984 . S
U46 C50 2.847 . S
U46 C63 2.882 . S
U46 O64 2.441 . S
U46 O65 2.420 . S
U46 O66 2.455 . S
U46 O67 2.449 . S
O47 U46 2.454 . S
O47 C49 1.353 . S
O48 U46 2.458 . S
O48 C49 1.286 . S
C49 U46 2.984 . S
C49 O47 1.353 . S
C49 O48 1.286 . S
C49 C51 1.363 . S
C50 C40 1.465 . S
C50 U46 2.847 . S
C50 O64 1.249 . S
C50 O65 1.202 . S
C51 C49 1.363 . S
C51 C53 1.408 . S
C51 C56 1.342 . S
C52 C53 1.310 . S
C52 C55 1.461 . S
C52 H72 0.932 . S
C53 C51 1.408 . S
C53 C52 1.310 . S
C53 H73 0.930 . S
C54 C55 1.474 . S
C54 C56 1.285 . S
C54 H74 0.929 . S
C55 C52 1.461 . S
C55 C54 1.474 . S
C56 C51 1.342 . S
C56 C54 1.285 . S
C56 H75 0.930 . S
C57 C60 1.424 . S
C57 C62 1.245 . S
C57 C63 1.428 . S
C58 C61 1.260 . S
C58 C62 1.477 . S
C58 H76 0.932 . S
C59 C60 1.384 . S
C59 C61 1.479 . S
C59 H77 0.929 . S
C60 C57 1.424 . S
C60 C59 1.384 . S
C60 H78 0.928 . S
C61 C58 1.260 . S
C61 C59 1.479 . S
C62 C57 1.245 . S
C62 C58 1.477 . S
C62 H79 0.932 . S
C63 U46 2.882 . S
C63 C57 1.428 . S
C63 O66 1.301 . S
C63 O67 1.282 . S
O64 U46 2.441 . S
O64 C50 1.249 . S
O65 U46 2.420 . S
O65 C50 1.202 . S
O66 U46 2.455 . S
O66 C63 1.301 . S
O67 U46 2.449 . S
O67 C63 1.282 . S
H68 C41 0.931 . S
H69 C43 0.929 . S
H70 C44 0.930 . S
H71 C45 0.931 . S
H72 C52 0.932 . S
H73 C53 0.930 . S
H74 C54 0.929 . S
H75 C56 0.930 . S
H76 C58 0.932 . S
H77 C59 0.929 . S
H78 C60 0.928 . S
H79 C62 0.932 . S
C80 C81 1.264 . S
C80 C85 1.479 . S
C80 C90 1.465 . S
C81 C80 1.264 . S
C81 C83 1.339 . S
C81 H108 0.931 . S
C82 C83 1.395 . S
C82 C84 1.320 . S
C83 C81 1.339 . S
C83 C82 1.395 . S
C83 H109 0.929 . S
C84 C82 1.320 . S
C84 C85 1.405 . S
C84 H110 0.930 . S
C85 C80 1.479 . S
C85 C84 1.405 . S
C85 H111 0.931 . S
U86 O87 2.454 . S
U86 O88 2.458 . S
U86 C89 2.984 . S
U86 C90 2.847 . S
U86 C103 2.882 . S
U86 O104 2.441 . S
U86 O105 2.420 . S
U86 O106 2.455 . S
U86 O107 2.449 . S
O87 U86 2.454 . S
O87 C89 1.353 . S
O88 U86 2.458 . S
O88 C89 1.286 . S
C89 U86 2.984 . S
C89 O87 1.353 . S
C89 O88 1.286 . S
C89 C91 1.363 . S
C90 C80 1.465 . S
C90 U86 2.847 . S
C90 O104 1.249 . S
C90 O105 1.202 . S
C91 C89 1.363 . S
C91 C93 1.408 . S
C91 C96 1.342 . S
C92 C93 1.310 . S
C92 C95 1.461 . S
C92 H112 0.932 . S
C93 C91 1.408 . S
C93 C92 1.310 . S
C93 H113 0.930 . S
C94 C95 1.474 . S
C94 C96 1.285 . S
C94 H114 0.929 . S
C95 C92 1.461 . S
C95 C94 1.474 . S
C96 C91 1.342 . S
C96 C94 1.285 . S
C96 H115 0.930 . S
C97 C100 1.424 . S
C97 C102 1.245 . S
C97 C103 1.428 . S
C98 C101 1.260 . S
C98 C102 1.477 . S
C98 H116 0.932 . S
C99 C100 1.384 . S
C99 C101 1.479 . S
C99 H117 0.929 . S
C100 C97 1.424 . S
C100 C99 1.384 . S
C100 H118 0.928 . S
C101 C98 1.260 . S
C101 C99 1.479 . S
C102 C97 1.245 . S
C102 C98 1.477 . S
C102 H119 0.932 . S
C103 U86 2.882 . S
C103 C97 1.428 . S
C103 O106 1.301 . S
C103 O107 1.282 . S
O104 U86 2.441 . S
O104 C90 1.249 . S
O105 U86 2.420 . S
O105 C90 1.202 . S
O106 U86 2.455 . S
O106 C103 1.301 . S
O107 U86 2.449 . S
O107 C103 1.282 . S
H108 C81 0.931 . S
H109 C83 0.929 . S
H110 C84 0.930 . S
H111 C85 0.931 . S
H112 C92 0.932 . S
H113 C93 0.930 . S
H114 C94 0.929 . S
H115 C96 0.930 . S
H116 C98 0.932 . S
H117 C99 0.929 . S
H118 C100 0.928 . S
H119 C102 0.932 . S
C120 C121 1.264 . S
C120 C125 1.479 . S
C120 C130 1.465 . S
C121 C120 1.264 . S
C121 C123 1.339 . S
C121 H148 0.931 . S
C122 C123 1.395 . S
C122 C124 1.320 . S
C123 C121 1.339 . S
C123 C122 1.395 . S
C123 H149 0.929 . S
C124 C122 1.320 . S
C124 C125 1.405 . S
C124 H150 0.930 . S
C125 C120 1.479 . S
C125 C124 1.405 . S
C125 H151 0.931 . S
U126 O127 2.454 . S
U126 O128 2.458 . S
U126 C129 2.984 . S
U126 C130 2.847 . S
U126 C143 2.882 . S
U126 O144 2.441 . S
U126 O145 2.420 . S
U126 O146 2.455 . S
U126 O147 2.449 . S
O127 U126 2.454 . S
O127 C129 1.353 . S
O128 U126 2.458 . S
O128 C129 1.286 . S
C129 U126 2.984 . S
C129 O127 1.353 . S
C129 O128 1.286 . S
C129 C131 1.363 . S
C130 C120 1.465 . S
C130 U126 2.847 . S
C130 O144 1.249 . S
C130 O145 1.202 . S
C131 C129 1.363 . S
C131 C133 1.408 . S
C131 C136 1.342 . S
C132 C133 1.310 1_556 S
C132 C135 1.461 . S
C132 H152 0.932 . S
C133 C131 1.408 . S
C133 C132 1.310 1_554 S
C133 H153 0.930 . S
C134 C135 1.474 1_554 S
C134 C136 1.285 . S
C134 H154 0.929 . S
C135 C132 1.461 . S
C135 C134 1.474 1_556 S
C136 C131 1.342 . S
C136 C134 1.285 . S
C136 H155 0.930 . S
C137 C140 1.424 . S
C137 C142 1.245 . S
C137 C143 1.428 . S
C138 C141 1.260 . S
C138 C142 1.477 . S
C138 H156 0.932 . S
C139 C140 1.384 . S
C139 C141 1.479 . S
C139 H157 0.929 . S
C140 C137 1.424 . S
C140 C139 1.384 . S
C140 H158 0.928 . S
C141 C138 1.260 . S
C141 C139 1.479 . S
C142 C137 1.245 . S
C142 C138 1.477 . S
C142 H159 0.932 . S
C143 U126 2.882 . S
C143 C137 1.428 . S
C143 O146 1.301 . S
C143 O147 1.282 . S
O144 U126 2.441 . S
O144 C130 1.249 . S
O145 U126 2.420 . S
O145 C130 1.202 . S
O146 U126 2.455 . S
O146 C143 1.301 . S
O147 U126 2.449 . S
O147 C143 1.282 . S
H148 C121 0.931 . S
H149 C123 0.929 . S
H150 C124 0.930 . S
H151 C125 0.931 . S
H152 C132 0.932 . S
H153 C133 0.930 . S
H154 C134 0.929 . S
H155 C136 0.930 . S
H156 C138 0.932 . S
H157 C139 0.929 . S
H158 C140 0.928 . S
H159 C142 0.932 . S
C160 C161 1.264 . S
C160 C165 1.479 1_455 S
C160 C170 1.465 . S
C161 C160 1.264 . S
C161 C163 1.339 1_455 S
C161 H188 0.931 . S
C162 C163 1.395 . S
C162 C164 1.320 . S
C163 C161 1.339 1_655 S
C163 C162 1.395 . S
C163 H189 0.929 . S
C164 C162 1.320 . S
C164 C165 1.405 . S
C164 H190 0.930 . S
C165 C160 1.479 1_655 S
C165 C164 1.405 . S
C165 H191 0.931 . S
U166 O167 2.454 . S
U166 O168 2.458 . S
U166 C169 2.984 . S
U166 C170 2.847 . S
U166 C183 2.882 . S
U166 O184 2.441 . S
U166 O185 2.420 . S
U166 O186 2.455 . S
U166 O187 2.449 . S
O167 U166 2.454 . S
O167 C169 1.353 . S
O168 U166 2.458 . S
O168 C169 1.286 . S
C169 U166 2.984 . S
C169 O167 1.353 . S
C169 O168 1.286 . S
C169 C171 1.363 . S
C170 C160 1.465 . S
C170 U166 2.847 . S
C170 O184 1.249 . S
C170 O185 1.202 . S
C171 C169 1.363 . S
C171 C173 1.408 . S
C171 C176 1.342 . S
C172 C173 1.310 . S
C172 C175 1.461 . S
C172 H192 0.932 . S
C173 C171 1.408 . S
C173 C172 1.310 . S
C173 H193 0.930 . S
C174 C175 1.474 . S
C174 C176 1.285 . S
C174 H194 0.929 . S
C175 C172 1.461 . S
C175 C174 1.474 . S
C176 C171 1.342 . S
C176 C174 1.285 . S
C176 H195 0.930 . S
C177 C180 1.424 . S
C177 C182 1.245 . S
C177 C183 1.428 . S
C178 C181 1.260 . S
C178 C182 1.477 . S
C178 H196 0.932 . S
C179 C180 1.384 . S
C179 C181 1.479 . S
C179 H197 0.929 . S
C180 C177 1.424 . S
C180 C179 1.384 . S
C180 H198 0.928 . S
C181 C178 1.260 . S
C181 C179 1.479 . S
C182 C177 1.245 . S
C182 C178 1.477 . S
C182 H199 0.932 . S
C183 U166 2.882 . S
C183 C177 1.428 . S
C183 O186 1.301 . S
C183 O187 1.282 . S
O184 U166 2.441 . S
O184 C170 1.249 . S
O185 U166 2.420 . S
O185 C170 1.202 . S
O186 U166 2.455 . S
O186 C183 1.301 . S
O187 U166 2.449 . S
O187 C183 1.282 . S
H188 C161 0.931 . S
H189 C163 0.929 . S
H190 C164 0.930 . S
H191 C165 0.931 . S
H192 C172 0.932 . S
H193 C173 0.930 . S
H194 C174 0.929 . S
H195 C176 0.930 . S
H196 C178 0.932 . S
H197 C179 0.929 . S
H198 C180 0.928 . S
H199 C182 0.932 . S
C200 C201 1.264 . S
C200 C205 1.479 . S
C200 C210 1.465 . S
C201 C200 1.264 . S
C201 C203 1.339 . S
C201 H228 0.931 . S
C202 C203 1.395 . S
C202 C204 1.320 . S
C203 C201 1.339 . S
C203 C202 1.395 . S
C203 H229 0.929 . S
C204 C202 1.320 . S
C204 C205 1.405 . S
C204 H230 0.930 . S
C205 C200 1.479 . S
C205 C204 1.405 . S
C205 H231 0.931 . S
U206 O207 2.454 . S
U206 O208 2.458 . S
U206 C209 2.984 . S
U206 C210 2.847 . S
U206 C223 2.882 . S
U206 O224 2.441 . S
U206 O225 2.420 . S
U206 O226 2.455 . S
U206 O227 2.449 . S
O207 U206 2.454 . S
O207 C209 1.353 . S
O208 U206 2.458 . S
O208 C209 1.286 . S
C209 U206 2.984 . S
C209 O207 1.353 . S
C209 O208 1.286 . S
C209 C211 1.363 . S
C210 C200 1.465 . S
C210 U206 2.847 . S
C210 O224 1.249 . S
C210 O225 1.202 . S
C211 C209 1.363 . S
C211 C213 1.408 . S
C211 C216 1.342 . S
C212 C213 1.310 . S
C212 C215 1.461 . S
C212 H232 0.932 . S
C213 C211 1.408 . S
C213 C212 1.310 . S
C213 H233 0.930 . S
C214 C215 1.474 . S
C214 C216 1.285 . S
C214 H234 0.929 . S
C215 C212 1.461 . S
C215 C214 1.474 . S
C216 C211 1.342 . S
C216 C214 1.285 . S
C216 H235 0.930 . S
C217 C220 1.424 . S
C217 C222 1.245 . S
C217 C223 1.428 . S
C218 C221 1.260 . S
C218 C222 1.477 . S
C218 H236 0.932 . S
C219 C220 1.384 . S
C219 C221 1.479 . S
C219 H237 0.929 . S
C220 C217 1.424 . S
C220 C219 1.384 . S
C220 H238 0.928 . S
C221 C218 1.260 . S
C221 C219 1.479 . S
C222 C217 1.245 . S
C222 C218 1.477 . S
C222 H239 0.932 . S
C223 U206 2.882 . S
C223 C217 1.428 . S
C223 O226 1.301 . S
C223 O227 1.282 . S
O224 U206 2.441 . S
O224 C210 1.249 . S
O225 U206 2.420 . S
O225 C210 1.202 . S
O226 U206 2.455 . S
O226 C223 1.301 . S
O227 U206 2.449 . S
O227 C223 1.282 . S
H228 C201 0.931 . S
H229 C203 0.929 . S
H230 C204 0.930 . S
H231 C205 0.931 . S
H232 C212 0.932 . S
H233 C213 0.930 . S
H234 C214 0.929 . S
H235 C216 0.930 . S
H236 C218 0.932 . S
H237 C219 0.929 . S
H238 C220 0.928 . S
H239 C222 0.932 . S
C240 C241 1.264 . S
C240 C245 1.479 . S
C240 C250 1.465 . S
C241 C240 1.264 . S
C241 C243 1.339 . S
C241 H268 0.931 . S
C242 C243 1.395 . S
C242 C244 1.320 . S
C243 C241 1.339 . S
C243 C242 1.395 . S
C243 H269 0.929 . S
C244 C242 1.320 . S
C244 C245 1.405 . S
C244 H270 0.930 . S
C245 C240 1.479 . S
C245 C244 1.405 . S
C245 H271 0.931 . S
U246 O247 2.454 . S
U246 O248 2.458 . S
U246 C249 2.984 . S
U246 C250 2.847 . S
U246 C263 2.882 . S
U246 O264 2.441 . S
U246 O265 2.420 . S
U246 O266 2.455 . S
U246 O267 2.449 . S
O247 U246 2.454 . S
O247 C249 1.353 . S
O248 U246 2.458 . S
O248 C249 1.286 . S
C249 U246 2.984 . S
C249 O247 1.353 . S
C249 O248 1.286 . S
C249 C251 1.363 . S
C250 C240 1.465 . S
C250 U246 2.847 . S
C250 O264 1.249 . S
C250 O265 1.202 . S
C251 C249 1.363 . S
C251 C253 1.408 . S
C251 C256 1.342 . S
C252 C253 1.310 . S
C252 C255 1.461 . S
C252 H272 0.932 . S
C253 C251 1.408 . S
C253 C252 1.310 . S
C253 H273 0.930 . S
C254 C255 1.474 . S
C254 C256 1.285 . S
C254 H274 0.929 . S
C255 C252 1.461 . S
C255 C254 1.474 . S
C256 C251 1.342 . S
C256 C254 1.285 . S
C256 H275 0.930 . S
C257 C260 1.424 . S
C257 C262 1.245 . S
C257 C263 1.428 . S
C258 C261 1.260 . S
C258 C262 1.477 . S
C258 H276 0.932 . S
C259 C260 1.384 . S
C259 C261 1.479 . S
C259 H277 0.929 . S
C260 C257 1.424 . S
C260 C259 1.384 . S
C260 H278 0.928 . S
C261 C258 1.260 . S
C261 C259 1.479 . S
C262 C257 1.245 . S
C262 C258 1.477 . S
C262 H279 0.932 . S
C263 U246 2.882 . S
C263 C257 1.428 . S
C263 O266 1.301 . S
C263 O267 1.282 . S
O264 U246 2.441 . S
O264 C250 1.249 . S
O265 U246 2.420 . S
O265 C250 1.202 . S
O266 U246 2.455 . S
O266 C263 1.301 . S
O267 U246 2.449 . S
O267 C263 1.282 . S
H268 C241 0.931 . S
H269 C243 0.929 . S
H270 C244 0.930 . S
H271 C245 0.931 . S
H272 C252 0.932 . S
H273 C253 0.930 . S
H274 C254 0.929 . S
H275 C256 0.930 . S
H276 C258 0.932 . S
H277 C259 0.929 . S
H278 C260 0.928 . S
H279 C262 0.932 . S
C280 C281 1.264 . S
C280 C285 1.479 . S
C280 C290 1.465 . S
C281 C280 1.264 . S
C281 C283 1.339 . S
C281 H308 0.931 . S
C282 C283 1.395 . S
C282 C284 1.320 . S
C283 C281 1.339 . S
C283 C282 1.395 . S
C283 H309 0.929 . S
C284 C282 1.320 . S
C284 C285 1.405 . S
C284 H310 0.930 . S
C285 C280 1.479 . S
C285 C284 1.405 . S
C285 H311 0.931 . S
U286 O287 2.454 . S
U286 O288 2.458 . S
U286 C289 2.984 . S
U286 C290 2.847 1_556 S
U286 C303 2.882 . S
U286 O304 2.441 . S
U286 O305 2.420 . S
U286 O306 2.455 . S
U286 O307 2.449 . S
O287 U286 2.454 . S
O287 C289 1.353 . S
O288 U286 2.458 . S
O288 C289 1.286 . S
C289 U286 2.984 . S
C289 O287 1.353 . S
C289 O288 1.286 . S
C289 C291 1.363 . S
C290 C280 1.465 . S
C290 U286 2.847 1_554 S
C290 O304 1.249 1_554 S
C290 O305 1.202 1_554 S
C291 C289 1.363 . S
C291 C293 1.408 . S
C291 C296 1.342 . S
C292 C293 1.310 . S
C292 C295 1.461 . S
C292 H312 0.932 . S
C293 C291 1.408 . S
C293 C292 1.310 . S
C293 H313 0.930 . S
C294 C295 1.474 . S
C294 C296 1.285 . S
C294 H314 0.929 . S
C295 C292 1.461 . S
C295 C294 1.474 . S
C296 C291 1.342 . S
C296 C294 1.285 . S
C296 H315 0.930 . S
C297 C300 1.424 . S
C297 C302 1.245 . S
C297 C303 1.428 . S
C298 C301 1.260 . S
C298 C302 1.477 . S
C298 H316 0.932 . S
C299 C300 1.384 . S
C299 C301 1.479 . S
C299 H317 0.929 . S
C300 C297 1.424 . S
C300 C299 1.384 . S
C300 H318 0.928 . S
C301 C298 1.260 . S
C301 C299 1.479 . S
C302 C297 1.245 . S
C302 C298 1.477 . S
C302 H319 0.932 . S
C303 U286 2.882 . S
C303 C297 1.428 . S
C303 O306 1.301 . S
C303 O307 1.282 . S
O304 U286 2.441 . S
O304 C290 1.249 1_556 S
O305 U286 2.420 . S
O305 C290 1.202 1_556 S
O306 U286 2.455 . S
O306 C303 1.301 . S
O307 U286 2.449 . S
O307 C303 1.282 . S
H308 C281 0.931 . S
H309 C283 0.929 . S
H310 C284 0.930 . S
H311 C285 0.931 . S
H312 C292 0.932 . S
H313 C293 0.930 . S
H314 C294 0.929 . S
H315 C296 0.930 . S
H316 C298 0.932 . S
H317 C299 0.929 . S
H318 C300 0.928 . S
H319 C302 0.932 . S
C320 C321 1.264 . S
C320 C325 1.479 1_545 S
C320 C330 1.495 . S
C321 C320 1.264 . S
C321 C323 1.339 . S
C321 H348 0.931 . S
C322 C323 1.395 . S
C322 C324 1.320 1_545 S
C323 C321 1.339 . S
C323 C322 1.395 . S
C323 H349 0.929 . S
C324 C322 1.320 1_565 S
C324 C325 1.405 . S
C324 H350 0.930 . S
C325 C320 1.479 1_565 S
C325 C324 1.405 . S
C325 H351 0.931 . S
U326 O327 2.454 . S
U326 O328 2.458 . S
U326 C329 2.984 . S
U326 C330 2.822 1_565 S
U326 C343 2.882 1_565 S
U326 O344 2.441 . S
U326 O345 2.420 1_565 S
U326 O346 2.455 1_565 S
U326 O347 2.449 1_565 S
O327 U326 2.454 . S
O327 C329 1.353 . S
O328 U326 2.458 . S
O328 C329 1.286 . S
C329 U326 2.984 . S
C329 O327 1.353 . S
C329 O328 1.286 . S
C329 C331 1.363 . S
C330 C320 1.495 . S
C330 U326 2.822 1_545 S
C330 O344 1.194 1_545 S
C330 O345 1.230 . S
C331 C329 1.363 . S
C331 C333 1.408 . S
C331 C336 1.342 . S
C332 C333 1.310 . S
C332 C335 1.461 . S
C332 H352 0.932 . S
C333 C331 1.408 . S
C333 C332 1.310 . S
C333 H353 0.930 . S
C334 C335 1.474 . S
C334 C336 1.285 . S
C334 H354 0.929 . S
C335 C332 1.461 . S
C335 C334 1.474 . S
C336 C331 1.342 . S
C336 C334 1.285 . S
C336 H355 0.930 . S
C337 C340 1.424 . S
C337 C342 1.245 . S
C337 C343 1.428 . S
C338 C341 1.260 . S
C338 C342 1.477 . S
C338 H356 0.932 . S
C339 C340 1.384 . S
C339 C341 1.479 . S
C339 H357 0.929 . S
C340 C337 1.424 . S
C340 C339 1.384 . S
C340 H358 0.928 . S
C341 C338 1.260 . S
C341 C339 1.479 . S
C342 C337 1.245 . S
C342 C338 1.477 . S
C342 H359 0.932 . S
C343 U326 2.882 1_545 S
C343 C337 1.428 . S
C343 O346 1.301 . S
C343 O347 1.282 . S
O344 U326 2.441 . S
O344 C330 1.194 1_565 S
O345 U326 2.420 1_545 S
O345 C330 1.230 . S
O346 U326 2.455 1_545 S
O346 C343 1.301 . S
O347 U326 2.449 1_545 S
O347 C343 1.282 . S
H348 C321 0.931 . S
H349 C323 0.929 . S
H350 C324 0.930 . S
H351 C325 0.931 . S
H352 C332 0.932 . S
H353 C333 0.930 . S
H354 C334 0.929 . S
H355 C336 0.930 . S
H356 C338 0.932 . S
H357 C339 0.929 . S
H358 C340 0.928 . S
H359 C342 0.932 . S
C360 C361 1.264 . S
C360 C365 1.479 . S
C360 C370 1.465 . S
C361 C360 1.264 . S
C361 C363 1.339 . S
C361 H388 0.931 . S
C362 C363 1.395 . S
C362 C364 1.320 . S
C363 C361 1.339 . S
C363 C362 1.395 . S
C363 H389 0.929 . S
C364 C362 1.320 . S
C364 C365 1.405 . S
C364 H390 0.930 . S
C365 C360 1.479 . S
C365 C364 1.405 . S
C365 H391 0.931 . S
U366 O367 2.454 . S
U366 O368 2.458 . S
U366 C369 2.984 . S
U366 C370 2.847 1_545 S
U366 C383 2.882 . S
U366 O384 2.441 1_545 S
U366 O385 2.420 1_545 S
U366 O386 2.455 . S
U366 O387 2.449 . S
O367 U366 2.454 . S
O367 C369 1.353 . S
O368 U366 2.458 . S
O368 C369 1.286 . S
C369 U366 2.984 . S
C369 O367 1.353 . S
C369 O368 1.286 . S
C369 C371 1.363 . S
C370 C360 1.465 . S
C370 U366 2.847 1_565 S
C370 O384 1.249 . S
C370 O385 1.202 . S
C371 C369 1.363 . S
C371 C373 1.408 . S
C371 C376 1.342 . S
C372 C373 1.310 . S
C372 C375 1.461 . S
C372 H392 0.932 . S
C373 C371 1.408 . S
C373 C372 1.310 . S
C373 H393 0.930 . S
C374 C375 1.474 . S
C374 C376 1.285 . S
C374 H394 0.929 . S
C375 C372 1.461 . S
C375 C374 1.474 . S
C376 C371 1.342 . S
C376 C374 1.285 . S
C376 H395 0.930 . S
C377 C380 1.424 . S
C377 C382 1.245 . S
C377 C383 1.428 . S
C378 C381 1.260 . S
C378 C382 1.477 . S
C378 H396 0.932 . S
C379 C380 1.384 . S
C379 C381 1.479 . S
C379 H397 0.929 . S
C380 C377 1.424 . S
C380 C379 1.384 . S
C380 H398 0.928 . S
C381 C378 1.260 . S
C381 C379 1.479 . S
C382 C377 1.245 . S
C382 C378 1.477 . S
C382 H399 0.932 . S
C383 U366 2.882 . S
C383 C377 1.428 . S
C383 O386 1.301 . S
C383 O387 1.282 . S
O384 U366 2.441 1_565 S
O384 C370 1.249 . S
O385 U366 2.420 1_565 S
O385 C370 1.202 . S
O386 U366 2.455 . S
O386 C383 1.301 . S
O387 U366 2.449 . S
O387 C383 1.282 . S
H388 C361 0.931 . S
H389 C363 0.929 . S
H390 C364 0.930 . S
H391 C365 0.931 . S
H392 C372 0.932 . S
H393 C373 0.930 . S
H394 C374 0.929 . S
H395 C376 0.930 . S
H396 C378 0.932 . S
H397 C379 0.929 . S
H398 C380 0.928 . S
H399 C382 0.932 . S
C400 C401 1.264 . S
C400 C405 1.479 . S
C400 C410 1.465 . S
C401 C400 1.264 . S
C401 C403 1.339 . S
C401 H428 0.931 . S
C402 C403 1.395 . S
C402 C404 1.320 . S
C403 C401 1.339 . S
C403 C402 1.395 . S
C403 H429 0.929 . S
C404 C402 1.320 . S
C404 C405 1.405 . S
C404 H430 0.930 . S
C405 C400 1.479 . S
C405 C404 1.405 . S
C405 H431 0.931 . S
U406 O407 2.454 . S
U406 O408 2.458 1_545 S
U406 C409 2.984 1_545 S
U406 C410 2.847 . S
U406 C423 2.882 1_545 S
U406 O424 2.441 . S
U406 O425 2.420 . S
U406 O426 2.455 1_545 S
U406 O427 2.449 1_545 S
O407 U406 2.454 . S
O407 C409 1.353 1_545 S
O408 U406 2.458 1_565 S
O408 C409 1.286 . S
C409 U406 2.984 1_565 S
C409 O407 1.353 1_565 S
C409 O408 1.286 . S
C409 C411 1.363 . S
C410 C400 1.465 . S
C410 U406 2.847 . S
C410 O424 1.249 . S
C410 O425 1.202 . S
C411 C409 1.363 . S
C411 C413 1.408 1_565 S
C411 C416 1.342 . S
C412 C413 1.310 . S
C412 C415 1.461 1_545 S
C412 H432 0.932 . S
C413 C411 1.408 1_545 S
C413 C412 1.310 . S
C413 H433 0.930 . S
C414 C415 1.474 . S
C414 C416 1.285 . S
C414 H434 0.929 . S
C415 C412 1.461 1_565 S
C415 C414 1.474 . S
C416 C411 1.342 . S
C416 C414 1.285 . S
C416 H435 0.930 . S
C417 C420 1.424 . S
C417 C422 1.245 . S
C417 C423 1.428 . S
C418 C421 1.260 . S
C418 C422 1.477 . S
C418 H436 0.932 . S
C419 C420 1.384 . S
C419 C421 1.479 . S
C419 H437 0.929 . S
C420 C417 1.424 . S
C420 C419 1.384 . S
C420 H438 0.928 . S
C421 C418 1.260 . S
C421 C419 1.479 . S
C422 C417 1.245 . S
C422 C418 1.477 . S
C422 H439 0.932 . S
C423 U406 2.882 1_565 S
C423 C417 1.428 . S
C423 O426 1.301 . S
C423 O427 1.282 . S
O424 U406 2.441 . S
O424 C410 1.249 . S
O425 U406 2.420 . S
O425 C410 1.202 . S
O426 U406 2.455 1_565 S
O426 C423 1.301 . S
O427 U406 2.449 1_565 S
O427 C423 1.282 . S
H428 C401 0.931 . S
H429 C403 0.929 . S
H430 C404 0.930 . S
H431 C405 0.931 . S
H432 C412 0.932 . S
H433 C413 0.930 . S
H434 C414 0.929 . S
H435 C416 0.930 . S
H436 C418 0.932 . S
H437 C419 0.929 . S
H438 C420 0.928 . S
H439 C422 0.932 . S
C440 C441 1.264 . S
C440 C445 1.479 . S
C440 C450 1.465 . S
C441 C440 1.264 . S
C441 C443 1.339 . S
C441 H468 0.931 . S
C442 C443 1.395 . S
C442 C444 1.320 . S
C443 C441 1.339 . S
C443 C442 1.395 . S
C443 H469 0.929 . S
C444 C442 1.320 . S
C444 C445 1.405 . S
C444 H470 0.930 . S
C445 C440 1.479 . S
C445 C444 1.405 . S
C445 H471 0.931 1_565 S
U446 O447 2.454 . S
U446 O448 2.458 . S
U446 C449 2.984 . S
U446 C450 2.847 1_545 S
U446 C463 2.882 1_545 S
U446 O464 2.441 . S
U446 O465 2.420 1_545 S
U446 O466 2.455 1_545 S
U446 O467 2.449 1_545 S
O447 U446 2.454 . S
O447 C449 1.353 . S
O448 U446 2.458 . S
O448 C449 1.286 . S
C449 U446 2.984 . S
C449 O447 1.353 . S
C449 O448 1.286 . S
C449 C451 1.363 . S
C450 C440 1.465 . S
C450 U446 2.847 1_565 S
C450 O464 1.249 1_565 S
C450 O465 1.202 . S
C451 C449 1.363 . S
C451 C453 1.408 . S
C451 C456 1.342 . S
C452 C453 1.310 . S
C452 C455 1.461 . S
C452 H472 0.932 . S
C453 C451 1.408 . S
C453 C452 1.310 . S
C453 H473 0.930 . S
C454 C455 1.474 . S
C454 C456 1.285 . S
C454 H474 0.929 . S
C455 C452 1.461 . S
C455 C454 1.474 . S
C456 C451 1.342 . S
C456 C454 1.285 . S
C456 H475 0.930 . S
C457 C460 1.424 . S
C457 C462 1.245 . S
C457 C463 1.428 . S
C458 C461 1.260 . S
C458 C462 1.477 . S
C458 H476 0.932 . S
C459 C460 1.384 . S
C459 C461 1.479 . S
C459 H477 0.929 . S
C460 C457 1.424 . S
C460 C459 1.384 . S
C460 H478 0.928 . S
C461 C458 1.260 . S
C461 C459 1.479 . S
C462 C457 1.245 . S
C462 C458 1.477 . S
C462 H479 0.932 . S
C463 U446 2.882 1_565 S
C463 C457 1.428 . S
C463 O466 1.301 . S
C463 O467 1.282 . S
O464 U446 2.441 . S
O464 C450 1.249 1_545 S
O465 U446 2.420 1_565 S
O465 C450 1.202 . S
O466 U446 2.455 1_565 S
O466 C463 1.301 . S
O467 U446 2.449 1_565 S
O467 C463 1.282 . S
H468 C441 0.931 . S
H469 C443 0.929 . S
H470 C444 0.930 . S
H471 C445 0.931 1_545 S
H472 C452 0.932 . S
H473 C453 0.930 . S
H474 C454 0.929 . S
H475 C456 0.930 . S
H476 C458 0.932 . S
H477 C459 0.929 . S
H478 C460 0.928 . S
H479 C462 0.932 . S
C480 C481 1.264 . S
C480 C485 1.479 . S
C480 C490 1.465 . S
C481 C480 1.264 . S
C481 C483 1.339 . S
C481 H508 0.931 . S
C482 C483 1.395 . S
C482 C484 1.320 . S
C483 C481 1.339 . S
C483 C482 1.395 . S
C483 H509 0.929 . S
C484 C482 1.320 . S
C484 C485 1.405 . S
C484 H510 0.930 . S
C485 C480 1.479 . S
C485 C484 1.405 . S
C485 H511 0.931 . S
U486 O487 2.454 . S
U486 O488 2.458 . S
U486 C489 2.984 . S
U486 C490 2.847 . S
U486 C503 2.882 . S
U486 O504 2.441 . S
U486 O505 2.420 . S
U486 O506 2.455 . S
U486 O507 2.449 . S
O487 U486 2.454 . S
O487 C489 1.353 . S
O488 U486 2.458 . S
O488 C489 1.286 . S
C489 U486 2.984 . S
C489 O487 1.353 . S
C489 O488 1.286 . S
C489 C491 1.363 1_554 S
C490 C480 1.465 . S
C490 U486 2.847 . S
C490 O504 1.249 . S
C490 O505 1.202 . S
C491 C489 1.363 1_556 S
C491 C493 1.408 . S
C491 C496 1.342 . S
C492 C493 1.310 . S
C492 C495 1.461 . S
C492 H512 0.932 . S
C493 C491 1.408 . S
C493 C492 1.310 . S
C493 H513 0.930 . S
C494 C495 1.474 . S
C494 C496 1.285 . S
C494 H514 0.929 . S
C495 C492 1.461 . S
C495 C494 1.474 . S
C496 C491 1.342 . S
C496 C494 1.285 . S
C496 H515 0.930 . S
C497 C500 1.424 . S
C497 C502 1.245 . S
C497 C503 1.428 . S
C498 C501 1.260 . S
C498 C502 1.477 . S
C498 H516 0.932 . S
C499 C500 1.384 . S
C499 C501 1.479 . S
C499 H517 0.929 . S
C500 C497 1.424 . S
C500 C499 1.384 . S
C500 H518 0.928 . S
C501 C498 1.260 . S
C501 C499 1.479 . S
C502 C497 1.245 . S
C502 C498 1.477 . S
C502 H519 0.932 . S
C503 U486 2.882 . S
C503 C497 1.428 . S
C503 O506 1.301 . S
C503 O507 1.282 . S
O504 U486 2.441 . S
O504 C490 1.249 . S
O505 U486 2.420 . S
O505 C490 1.202 . S
O506 U486 2.455 . S
O506 C503 1.301 . S
O507 U486 2.449 . S
O507 C503 1.282 . S
H508 C481 0.931 . S
H509 C483 0.929 . S
H510 C484 0.930 . S
H511 C485 0.931 . S
H512 C492 0.932 . S
H513 C493 0.930 . S
H514 C494 0.929 . S
H515 C496 0.930 . S
H516 C498 0.932 . S
H517 C499 0.929 . S
H518 C500 0.928 . S
H519 C502 0.932 . S
C520 C521 1.264 . S
C520 C525 1.479 1_655 S
C520 C530 1.465 . S
C521 C520 1.264 . S
C521 C523 1.339 1_655 S
C521 H548 0.931 . S
C522 C523 1.395 . S
C522 C524 1.320 . S
C523 C521 1.339 1_455 S
C523 C522 1.395 . S
C523 H549 0.929 . S
C524 C522 1.320 . S
C524 C525 1.405 . S
C524 H550 0.930 . S
C525 C520 1.479 1_455 S
C525 C524 1.405 . S
C525 H551 0.931 . S
U526 O527 2.454 . S
U526 O528 2.458 . S
U526 C529 2.984 . S
U526 C530 2.847 . S
U526 C543 2.882 . S
U526 O544 2.441 . S
U526 O545 2.420 . S
U526 O546 2.455 . S
U526 O547 2.449 . S
O527 U526 2.454 . S
O527 C529 1.353 . S
O528 U526 2.458 . S
O528 C529 1.286 . S
C529 U526 2.984 . S
C529 O527 1.353 . S
C529 O528 1.286 . S
C529 C531 1.363 . S
C530 C520 1.465 . S
C530 U526 2.847 . S
C530 O544 1.249 . S
C530 O545 1.202 . S
C531 C529 1.363 . S
C531 C533 1.408 . S
C531 C536 1.342 . S
C532 C533 1.310 . S
C532 C535 1.461 . S
C532 H552 0.932 . S
C533 C531 1.408 . S
C533 C532 1.310 . S
C533 H553 0.930 . S
C534 C535 1.474 . S
C534 C536 1.285 . S
C534 H554 0.929 . S
C535 C532 1.461 . S
C535 C534 1.474 . S
C536 C531 1.342 . S
C536 C534 1.285 . S
C536 H555 0.930 . S
C537 C540 1.424 . S
C537 C542 1.245 . S
C537 C543 1.428 . S
C538 C541 1.260 . S
C538 C542 1.477 . S
C538 H556 0.932 . S
C539 C540 1.384 . S
C539 C541 1.479 . S
C539 H557 0.929 . S
C540 C537 1.424 . S
C540 C539 1.384 . S
C540 H558 0.928 . S
C541 C538 1.260 . S
C541 C539 1.479 . S
C542 C537 1.245 . S
C542 C538 1.477 . S
C542 H559 0.932 . S
C543 U526 2.882 . S
C543 C537 1.428 . S
C543 O546 1.301 . S
C543 O547 1.282 . S
O544 U526 2.441 . S
O544 C530 1.249 . S
O545 U526 2.420 . S
O545 C530 1.202 . S
O546 U526 2.455 . S
O546 C543 1.301 . S
O547 U526 2.449 . S
O547 C543 1.282 . S
H548 C521 0.931 . S
H549 C523 0.929 . S
H550 C524 0.930 . S
H551 C525 0.931 . S
H552 C532 0.932 . S
H553 C533 0.930 . S
H554 C534 0.929 . S
H555 C536 0.930 . S
H556 C538 0.932 . S
H557 C539 0.929 . S
H558 C540 0.928 . S
H559 C542 0.932 . S
C560 C561 1.264 . S
C560 C565 1.479 . S
C560 C570 1.465 . S
C561 C560 1.264 . S
C561 C563 1.339 . S
C561 H588 0.931 . S
C562 C563 1.395 . S
C562 C564 1.320 . S
C563 C561 1.339 . S
C563 C562 1.395 . S
C563 H589 0.929 . S
C564 C562 1.320 . S
C564 C565 1.405 . S
C564 H590 0.930 . S
C565 C560 1.479 . S
C565 C564 1.405 . S
C565 H591 0.931 . S
U566 O567 2.454 . S
U566 O568 2.458 . S
U566 C569 2.984 . S
U566 C570 2.847 . S
U566 C583 2.882 . S
U566 O584 2.441 . S
U566 O585 2.420 . S
U566 O586 2.455 . S
U566 O587 2.449 . S
O567 U566 2.454 . S
O567 C569 1.353 . S
O568 U566 2.458 . S
O568 C569 1.286 . S
C569 U566 2.984 . S
C569 O567 1.353 . S
C569 O568 1.286 . S
C569 C571 1.363 . S
C570 C560 1.465 . S
C570 U566 2.847 . S
C570 O584 1.249 . S
C570 O585 1.202 . S
C571 C569 1.363 . S
C571 C573 1.408 . S
C571 C576 1.342 . S
C572 C573 1.310 . S
C572 C575 1.461 . S
C572 H592 0.932 . S
C573 C571 1.408 . S
C573 C572 1.310 . S
C573 H593 0.930 . S
C574 C575 1.474 . S
C574 C576 1.285 . S
C574 H594 0.929 . S
C575 C572 1.461 . S
C575 C574 1.474 . S
C576 C571 1.342 . S
C576 C574 1.285 . S
C576 H595 0.930 . S
C577 C580 1.424 . S
C577 C582 1.245 . S
C577 C583 1.428 . S
C578 C581 1.260 . S
C578 C582 1.477 . S
C578 H596 0.932 . S
C579 C580 1.384 . S
C579 C581 1.479 . S
C579 H597 0.929 . S
C580 C577 1.424 . S
C580 C579 1.384 . S
C580 H598 0.928 . S
C581 C578 1.260 . S
C581 C579 1.479 . S
C582 C577 1.245 . S
C582 C578 1.477 . S
C582 H599 0.932 . S
C583 U566 2.882 . S
C583 C577 1.428 . S
C583 O586 1.301 . S
C583 O587 1.282 . S
O584 U566 2.441 . S
O584 C570 1.249 . S
O585 U566 2.420 . S
O585 C570 1.202 . S
O586 U566 2.455 . S
O586 C583 1.301 . S
O587 U566 2.449 . S
O587 C583 1.282 . S
H588 C561 0.931 . S
H589 C563 0.929 . S
H590 C564 0.930 . S
H591 C565 0.931 . S
H592 C572 0.932 . S
H593 C573 0.930 . S
H594 C574 0.929 . S
H595 C576 0.930 . S
H596 C578 0.932 . S
H597 C579 0.929 . S
H598 C580 0.928 . S
H599 C582 0.932 . S
C600 C601 1.264 . S
C600 C605 1.479 . S
C600 C610 1.465 1_655 S
C601 C600 1.264 . S
C601 C603 1.339 . S
C601 H628 0.931 . S
C602 C603 1.395 . S
C602 C604 1.320 . S
C603 C601 1.339 . S
C603 C602 1.395 . S
C603 H629 0.929 . S
C604 C602 1.320 . S
C604 C605 1.405 . S
C604 H630 0.930 . S
C605 C600 1.479 . S
C605 C604 1.405 . S
C605 H631 0.931 1_655 S
U606 O607 2.454 . S
U606 O608 2.458 . S
U606 C609 2.984 . S
U606 C610 2.847 . S
U606 C623 2.870 1_455 S
U606 O624 2.441 . S
U606 O625 2.423 . S
U606 O626 2.455 . S
U606 O627 2.449 1_455 S
O607 U606 2.454 . S
O607 C609 1.353 . S
O608 U606 2.458 . S
O608 C609 1.286 . S
C609 U606 2.984 . S
C609 O607 1.353 . S
C609 O608 1.286 . S
C609 C611 1.363 . S
C610 C600 1.465 1_455 S
C610 U606 2.847 . S
C610 O624 1.249 . S
C610 O625 1.203 . S
C611 C609 1.363 . S
C611 C613 1.408 . S
C611 C616 1.342 . S
C612 C613 1.310 . S
C612 C615 1.461 . S
C612 H632 0.932 . S
C613 C611 1.408 . S
C613 C612 1.310 . S
C613 H633 0.930 . S
C614 C615 1.474 . S
C614 C616 1.285 . S
C614 H634 0.929 . S
C615 C612 1.461 . S
C615 C614 1.474 . S
C616 C611 1.342 . S
C616 C614 1.285 . S
C616 H635 0.930 . S
C617 C620 1.424 . S
C617 C622 1.245 . S
C617 C623 1.442 . S
C618 C621 1.260 . S
C618 C622 1.477 . S
C618 H636 0.932 . S
C619 C620 1.384 . S
C619 C621 1.479 . S
C619 H637 0.929 . S
C620 C617 1.424 . S
C620 C619 1.384 . S
C620 H638 0.928 . S
C621 C618 1.260 . S
C621 C619 1.479 . S
C622 C617 1.245 . S
C622 C618 1.477 . S
C622 H639 0.934 . S
C623 U606 2.870 1_655 S
C623 C617 1.442 . S
C623 O626 1.278 1_655 S
C623 O627 1.289 . S
O624 U606 2.441 . S
O624 C610 1.249 . S
O625 U606 2.423 . S
O625 C610 1.203 . S
O626 U606 2.455 . S
O626 C623 1.278 1_455 S
O627 U606 2.449 1_655 S
O627 C623 1.289 . S
H628 C601 0.931 . S
H629 C603 0.929 . S
H630 C604 0.930 . S
H631 C605 0.931 1_455 S
H632 C612 0.932 . S
H633 C613 0.930 . S
H634 C614 0.929 . S
H635 C616 0.930 . S
H636 C618 0.932 . S
H637 C619 0.929 . S
H638 C620 0.928 . S
H639 C622 0.934 . S
C640 C641 1.264 . S
C640 C645 1.479 . S
C640 C650 1.465 . S
C641 C640 1.264 . S
C641 C643 1.339 . S
C641 H668 0.931 . S
C642 C643 1.395 . S
C642 C644 1.320 . S
C643 C641 1.339 . S
C643 C642 1.395 . S
C643 H669 0.929 . S
C644 C642 1.320 . S
C644 C645 1.405 . S
C644 H670 0.930 . S
C645 C640 1.479 . S
C645 C644 1.405 . S
C645 H671 0.931 . S
U646 O647 2.454 . S
U646 O648 2.458 . S
U646 C649 2.984 . S
U646 C650 2.847 . S
U646 C663 2.882 . S
U646 O664 2.441 . S
U646 O665 2.420 . S
U646 O666 2.455 . S
U646 O667 2.449 . S
O647 U646 2.454 . S
O647 C649 1.353 . S
O648 U646 2.458 . S
O648 C649 1.286 . S
C649 U646 2.984 . S
C649 O647 1.353 . S
C649 O648 1.286 . S
C649 C651 1.363 . S
C650 C640 1.465 . S
C650 U646 2.847 . S
C650 O664 1.249 . S
C650 O665 1.202 . S
C651 C649 1.363 . S
C651 C653 1.408 . S
C651 C656 1.342 . S
C652 C653 1.310 . S
C652 C655 1.461 . S
C652 H672 0.932 . S
C653 C651 1.408 . S
C653 C652 1.310 . S
C653 H673 0.930 . S
C654 C655 1.474 . S
C654 C656 1.285 . S
C654 H674 0.929 . S
C655 C652 1.461 . S
C655 C654 1.474 . S
C656 C651 1.342 . S
C656 C654 1.285 . S
C656 H675 0.930 . S
C657 C660 1.424 . S
C657 C662 1.245 . S
C657 C663 1.428 . S
C658 C661 1.260 . S
C658 C662 1.477 . S
C658 H676 0.932 . S
C659 C660 1.384 . S
C659 C661 1.479 . S
C659 H677 0.929 . S
C660 C657 1.424 . S
C660 C659 1.384 . S
C660 H678 0.928 . S
C661 C658 1.260 . S
C661 C659 1.479 . S
C662 C657 1.245 . S
C662 C658 1.477 . S
C662 H679 0.932 . S
C663 U646 2.882 . S
C663 C657 1.428 . S
C663 O666 1.301 . S
C663 O667 1.282 . S
O664 U646 2.441 . S
O664 C650 1.249 . S
O665 U646 2.420 . S
O665 C650 1.202 . S
O666 U646 2.455 . S
O666 C663 1.301 . S
O667 U646 2.449 . S
O667 C663 1.282 . S
H668 C641 0.931 . S
H669 C643 0.929 . S
H670 C644 0.930 . S
H671 C645 0.931 . S
H672 C652 0.932 . S
H673 C653 0.930 . S
H674 C654 0.929 . S
H675 C656 0.930 . S
H676 C658 0.932 . S
H677 C659 0.929 . S
H678 C660 0.928 . S
H679 C662 0.932 . S
C680 C681 1.264 . S
C680 C685 1.479 . S
C680 C690 1.465 . S
C681 C680 1.264 . S
C681 C683 1.339 . S
C681 H708 0.931 . S
C682 C683 1.395 . S
C682 C684 1.320 . S
C683 C681 1.339 . S
C683 C682 1.395 . S
C683 H709 0.929 . S
C684 C682 1.320 . S
C684 C685 1.405 . S
C684 H710 0.930 . S
C685 C680 1.479 . S
C685 C684 1.405 . S
C685 H711 0.931 . S
U686 O687 2.454 . S
U686 O688 2.458 . S
U686 C689 2.984 . S
U686 C690 2.847 . S
U686 C703 2.882 . S
U686 O704 2.441 . S
U686 O705 2.420 . S
U686 O706 2.455 . S
U686 O707 2.449 . S
O687 U686 2.454 . S
O687 C689 1.353 . S
O688 U686 2.458 . S
O688 C689 1.286 . S
C689 U686 2.984 . S
C689 O687 1.353 . S
C689 O688 1.286 . S
C689 C691 1.363 . S
C690 C680 1.465 . S
C690 U686 2.847 . S
C690 O704 1.249 . S
C690 O705 1.202 . S
C691 C689 1.363 . S
C691 C693 1.408 . S
C691 C696 1.342 . S
C692 C693 1.310 . S
C692 C695 1.461 . S
C692 H712 0.932 . S
C693 C691 1.408 . S
C693 C692 1.310 . S
C693 H713 0.930 . S
C694 C695 1.474 . S
C694 C696 1.285 . S
C694 H714 0.929 . S
C695 C692 1.461 . S
C695 C694 1.474 . S
C696 C691 1.342 . S
C696 C694 1.285 . S
C696 H715 0.930 . S
C697 C700 1.424 . S
C697 C702 1.245 . S
C697 C703 1.428 . S
C698 C701 1.260 . S
C698 C702 1.477 . S
C698 H716 0.932 . S
C699 C700 1.384 . S
C699 C701 1.479 . S
C699 H717 0.929 . S
C700 C697 1.424 . S
C700 C699 1.384 . S
C700 H718 0.928 . S
C701 C698 1.260 . S
C701 C699 1.479 . S
C702 C697 1.245 . S
C702 C698 1.477 . S
C702 H719 0.932 . S
C703 U686 2.882 . S
C703 C697 1.428 . S
C703 O706 1.301 . S
C703 O707 1.282 . S
O704 U686 2.441 . S
O704 C690 1.249 . S
O705 U686 2.420 . S
O705 C690 1.202 . S
O706 U686 2.455 . S
O706 C703 1.301 . S
O707 U686 2.449 . S
O707 C703 1.282 . S
H708 C681 0.931 . S
H709 C683 0.929 . S
H710 C684 0.930 . S
H711 C685 0.931 . S
H712 C692 0.932 . S
H713 C693 0.930 . S
H714 C694 0.929 . S
H715 C696 0.930 . S
H716 C698 0.932 . S
H717 C699 0.929 . S
H718 C700 0.928 . S
H719 C702 0.932 . S
C720 C721 1.264 . S
C720 C725 1.479 . S
C720 C730 1.465 . S
C721 C720 1.264 . S
C721 C723 1.339 . S
C721 H748 0.931 . S
C722 C723 1.395 . S
C722 C724 1.320 . S
C723 C721 1.339 . S
C723 C722 1.395 . S
C723 H749 0.929 . S
C724 C722 1.320 . S
C724 C725 1.405 . S
C724 H750 0.930 . S
C725 C720 1.479 . S
C725 C724 1.405 . S
C725 H751 0.931 . S
U726 O727 2.454 . S
U726 O728 2.458 . S
U726 C729 2.984 . S
U726 C730 2.847 . S
U726 C743 2.882 . S
U726 O744 2.441 . S
U726 O745 2.420 . S
U726 O746 2.455 . S
U726 O747 2.449 . S
O727 U726 2.454 . S
O727 C729 1.353 . S
O728 U726 2.458 . S
O728 C729 1.286 . S
C729 U726 2.984 . S
C729 O727 1.353 . S
C729 O728 1.286 . S
C729 C731 1.363 1_556 S
C730 C720 1.465 . S
C730 U726 2.847 . S
C730 O744 1.249 . S
C730 O745 1.202 . S
C731 C729 1.363 1_554 S
C731 C733 1.408 . S
C731 C736 1.342 . S
C732 C733 1.310 . S
C732 C735 1.461 . S
C732 H752 0.932 . S
C733 C731 1.408 . S
C733 C732 1.310 . S
C733 H753 0.930 . S
C734 C735 1.474 . S
C734 C736 1.285 . S
C734 H754 0.929 . S
C735 C732 1.461 . S
C735 C734 1.474 . S
C736 C731 1.342 . S
C736 C734 1.285 . S
C736 H755 0.930 . S
C737 C740 1.424 . S
C737 C742 1.245 . S
C737 C743 1.428 . S
C738 C741 1.260 . S
C738 C742 1.477 . S
C738 H756 0.932 . S
C739 C740 1.384 . S
C739 C741 1.479 . S
C739 H757 0.929 . S
C740 C737 1.424 . S
C740 C739 1.384 . S
C740 H758 0.928 . S
C741 C738 1.260 . S
C741 C739 1.479 . S
C742 C737 1.245 . S
C742 C738 1.477 . S
C742 H759 0.932 . S
C743 U726 2.882 . S
C743 C737 1.428 . S
C743 O746 1.301 . S
C743 O747 1.282 . S
O744 U726 2.441 . S
O744 C730 1.249 . S
O745 U726 2.420 . S
O745 C730 1.202 . S
O746 U726 2.455 . S
O746 C743 1.301 . S
O747 U726 2.449 . S
O747 C743 1.282 . S
H748 C721 0.931 . S
H749 C723 0.929 . S
H750 C724 0.930 . S
H751 C725 0.931 . S
H752 C732 0.932 . S
H753 C733 0.930 . S
H754 C734 0.929 . S
H755 C736 0.930 . S
H756 C738 0.932 . S
H757 C739 0.929 . S
H758 C740 0.928 . S
H759 C742 0.932 . S
C760 C761 1.264 . S
C760 C765 1.479 . S
C760 C770 1.465 . S
C761 C760 1.264 . S
C761 C763 1.339 . S
C761 H788 0.931 . S
C762 C763 1.388 . S
C762 C764 1.320 . S
C763 C761 1.339 . S
C763 C762 1.388 . S
C763 H789 0.929 . S
C764 C762 1.320 . S
C764 C765 1.405 . S
C764 H790 0.930 1_655 S
C765 C760 1.479 . S
C765 C764 1.405 . S
C765 H791 0.931 . S
U766 O767 2.454 . S
U766 O768 2.458 . S
U766 C769 2.984 . S
U766 C770 2.847 . S
U766 C783 2.882 . S
U766 O784 2.441 . S
U766 O785 2.420 . S
U766 O786 2.455 . S
U766 O787 2.449 . S
O767 U766 2.454 . S
O767 C769 1.353 . S
O768 U766 2.458 . S
O768 C769 1.286 . S
C769 U766 2.984 . S
C769 O767 1.353 . S
C769 O768 1.286 . S
C769 C771 1.363 . S
C770 C760 1.465 . S
C770 U766 2.847 . S
C770 O784 1.249 . S
C770 O785 1.202 . S
C771 C769 1.363 . S
C771 C773 1.408 . S
C771 C776 1.342 . S
C772 C773 1.310 . S
C772 C775 1.461 . S
C772 H792 0.932 . S
C773 C771 1.408 . S
C773 C772 1.310 . S
C773 H793 0.930 . S
C774 C775 1.474 . S
C774 C776 1.285 . S
C774 H794 0.929 . S
C775 C772 1.461 . S
C775 C774 1.474 . S
C776 C771 1.342 . S
C776 C774 1.285 . S
C776 H795 0.930 . S
C777 C780 1.424 . S
C777 C782 1.245 . S
C777 C783 1.428 . S
C778 C781 1.260 . S
C778 C782 1.477 . S
C778 H796 0.932 . S
C779 C780 1.384 . S
C779 C781 1.479 . S
C779 H797 0.929 . S
C780 C777 1.424 . S
C780 C779 1.384 . S
C780 H798 0.928 . S
C781 C778 1.260 . S
C781 C779 1.479 . S
C782 C777 1.245 . S
C782 C778 1.477 . S
C782 H799 0.932 . S
C783 U766 2.882 . S
C783 C777 1.428 . S
C783 O786 1.301 . S
C783 O787 1.282 . S
O784 U766 2.441 . S
O784 C770 1.249 . S
O785 U766 2.420 . S
O785 C770 1.202 . S
O786 U766 2.455 . S
O786 C783 1.301 . S
O787 U766 2.449 . S
O787 C783 1.282 . S
H788 C761 0.931 . S
H789 C763 0.929 . S
H790 C764 0.930 1_455 S
H791 C765 0.931 . S
H792 C772 0.932 . S
H793 C773 0.930 . S
H794 C774 0.929 . S
H795 C776 0.930 . S
H796 C778 0.932 . S
H797 C779 0.929 . S
H798 C780 0.928 . S
H799 C782 0.932 . S
C800 C801 1.264 . S
C800 C805 1.479 . S
C800 C810 1.465 . S
C801 C800 1.264 . S
C801 C803 1.339 . S
C801 H828 0.931 . S
C802 C803 1.395 . S
C802 C804 1.320 . S
C803 C801 1.339 . S
C803 C802 1.395 . S
C803 H829 0.929 . S
C804 C802 1.320 . S
C804 C805 1.405 . S
C804 H830 0.930 . S
C805 C800 1.479 . S
C805 C804 1.405 . S
C805 H831 0.931 . S
U806 O807 2.454 . S
U806 O808 2.458 . S
U806 C809 2.984 . S
U806 C810 2.847 . S
U806 C823 2.882 . S
U806 O824 2.441 . S
U806 O825 2.420 . S
U806 O826 2.455 . S
U806 O827 2.449 . S
O807 U806 2.454 . S
O807 C809 1.353 . S
O808 U806 2.458 . S
O808 C809 1.286 . S
C809 U806 2.984 . S
C809 O807 1.353 . S
C809 O808 1.286 . S
C809 C811 1.363 . S
C810 C800 1.465 . S
C810 U806 2.847 . S
C810 O824 1.249 . S
C810 O825 1.202 . S
C811 C809 1.363 . S
C811 C813 1.408 . S
C811 C816 1.342 . S
C812 C813 1.310 . S
C812 C815 1.461 . S
C812 H832 0.932 . S
C813 C811 1.408 . S
C813 C812 1.310 . S
C813 H833 0.930 . S
C814 C815 1.474 . S
C814 C816 1.285 . S
C814 H834 0.929 . S
C815 C812 1.461 . S
C815 C814 1.474 . S
C816 C811 1.342 . S
C816 C814 1.285 . S
C816 H835 0.930 . S
C817 C820 1.424 . S
C817 C822 1.245 . S
C817 C823 1.428 . S
C818 C821 1.260 . S
C818 C822 1.477 . S
C818 H836 0.932 . S
C819 C820 1.384 . S
C819 C821 1.479 . S
C819 H837 0.929 . S
C820 C817 1.424 . S
C820 C819 1.384 . S
C820 H838 0.928 . S
C821 C818 1.260 . S
C821 C819 1.479 . S
C822 C817 1.245 . S
C822 C818 1.477 . S
C822 H839 0.932 . S
C823 U806 2.882 . S
C823 C817 1.428 . S
C823 O826 1.301 . S
C823 O827 1.282 . S
O824 U806 2.441 . S
O824 C810 1.249 . S
O825 U806 2.420 . S
O825 C810 1.202 . S
O826 U806 2.455 . S
O826 C823 1.301 . S
O827 U806 2.449 . S
O827 C823 1.282 . S
H828 C801 0.931 . S
H829 C803 0.929 . S
H830 C804 0.930 . S
H831 C805 0.931 . S
H832 C812 0.932 . S
H833 C813 0.930 . S
H834 C814 0.929 . S
H835 C816 0.930 . S
H836 C818 0.932 . S
H837 C819 0.929 . S
H838 C820 0.928 . S
H839 C822 0.932 . S
C840 C841 1.264 . S
C840 C845 1.479 . S
C840 C850 1.465 . S
C841 C840 1.264 . S
C841 C843 1.339 . S
C841 H868 0.931 . S
C842 C843 1.395 . S
C842 C844 1.320 . S
C843 C841 1.339 . S
C843 C842 1.395 . S
C843 H869 0.929 . S
C844 C842 1.320 . S
C844 C845 1.405 . S
C844 H870 0.930 . S
C845 C840 1.479 . S
C845 C844 1.405 . S
C845 H871 0.931 . S
U846 O847 2.454 . S
U846 O848 2.458 . S
U846 C849 2.984 . S
U846 C850 2.847 . S
U846 C863 2.882 . S
U846 O864 2.441 . S
U846 O865 2.420 . S
U846 O866 2.455 . S
U846 O867 2.449 . S
O847 U846 2.454 . S
O847 C849 1.353 . S
O848 U846 2.458 . S
O848 C849 1.286 . S
C849 U846 2.984 . S
C849 O847 1.353 . S
C849 O848 1.286 . S
C849 C851 1.363 . S
C850 C840 1.465 . S
C850 U846 2.847 . S
C850 O864 1.249 . S
C850 O865 1.202 . S
C851 C849 1.363 . S
C851 C853 1.408 . S
C851 C856 1.342 . S
C852 C853 1.310 . S
C852 C855 1.461 . S
C852 H872 0.932 . S
C853 C851 1.408 . S
C853 C852 1.310 . S
C853 H873 0.930 . S
C854 C855 1.474 . S
C854 C856 1.285 . S
C854 H874 0.929 . S
C855 C852 1.461 . S
C855 C854 1.474 . S
C856 C851 1.342 . S
C856 C854 1.285 . S
C856 H875 0.930 . S
C857 C860 1.424 . S
C857 C862 1.245 . S
C857 C863 1.428 . S
C858 C861 1.260 . S
C858 C862 1.477 . S
C858 H876 0.932 . S
C859 C860 1.384 . S
C859 C861 1.479 . S
C859 H877 0.929 . S
C860 C857 1.424 . S
C860 C859 1.384 . S
C860 H878 0.928 . S
C861 C858 1.260 . S
C861 C859 1.479 . S
C862 C857 1.245 . S
C862 C858 1.477 . S
C862 H879 0.932 . S
C863 U846 2.882 . S
C863 C857 1.428 . S
C863 O866 1.301 . S
C863 O867 1.282 . S
O864 U846 2.441 . S
O864 C850 1.249 . S
O865 U846 2.420 . S
O865 C850 1.202 . S
O866 U846 2.455 . S
O866 C863 1.301 . S
O867 U846 2.449 . S
O867 C863 1.282 . S
H868 C841 0.931 . S
H869 C843 0.929 . S
H870 C844 0.930 . S
H871 C845 0.931 . S
H872 C852 0.932 . S
H873 C853 0.930 . S
H874 C854 0.929 . S
H875 C856 0.930 . S
H876 C858 0.932 . S
H877 C859 0.929 . S
H878 C860 0.928 . S
H879 C862 0.932 . S
C880 C881 1.264 . S
C880 C885 1.479 . S
C880 C890 1.465 . S
C881 C880 1.264 . S
C881 C883 1.339 . S
C881 H908 0.931 . S
C882 C883 1.371 1_556 S
C882 C884 1.316 1_556 S
C883 C881 1.339 . S
C883 C882 1.371 1_554 S
C883 H909 0.929 . S
C884 C882 1.316 1_554 S
C884 C885 1.405 . S
C884 H910 0.930 1_554 S
C885 C880 1.479 . S
C885 C884 1.405 . S
C885 H911 0.931 . S
U886 O887 2.454 . S
U886 O888 2.458 . S
U886 C889 2.984 . S
U886 C890 2.847 . S
U886 C903 2.882 . S
U886 O904 2.441 . S
U886 O905 2.420 . S
U886 O906 2.455 . S
U886 O907 2.449 . S
O887 U886 2.454 . S
O887 C889 1.353 . S
O888 U886 2.458 . S
O888 C889 1.286 . S
C889 U886 2.984 . S
C889 O887 1.353 . S
C889 O888 1.286 . S
C889 C891 1.363 . S
C890 C880 1.465 . S
C890 U886 2.847 . S
C890 O904 1.249 . S
C890 O905 1.202 . S
C891 C889 1.363 . S
C891 C893 1.408 . S
C891 C896 1.342 . S
C892 C893 1.310 . S
C892 C895 1.461 . S
C892 H912 0.932 . S
C893 C891 1.408 . S
C893 C892 1.310 . S
C893 H913 0.930 . S
C894 C895 1.474 . S
C894 C896 1.285 . S
C894 H914 0.929 . S
C895 C892 1.461 . S
C895 C894 1.474 . S
C896 C891 1.342 . S
C896 C894 1.285 . S
C896 H915 0.930 . S
C897 C900 1.424 . S
C897 C902 1.245 . S
C897 C903 1.428 . S
C898 C901 1.260 . S
C898 C902 1.477 . S
C898 H916 0.932 . S
C899 C900 1.384 . S
C899 C901 1.479 . S
C899 H917 0.929 . S
C900 C897 1.424 . S
C900 C899 1.384 . S
C900 H918 0.928 . S
C901 C898 1.260 . S
C901 C899 1.479 . S
C902 C897 1.245 . S
C902 C898 1.477 . S
C902 H919 0.932 . S
C903 U886 2.882 . S
C903 C897 1.428 . S
C903 O906 1.301 . S
C903 O907 1.282 . S
O904 U886 2.441 . S
O904 C890 1.249 . S
O905 U886 2.420 . S
O905 C890 1.202 . S
O906 U886 2.455 . S
O906 C903 1.301 . S
O907 U886 2.449 . S
O907 C903 1.282 . S
H908 C881 0.931 . S
H909 C883 0.929 . S
H910 C884 0.930 1_556 S
H911 C885 0.931 . S
H912 C892 0.932 . S
H913 C893 0.930 . S
H914 C894 0.929 . S
H915 C896 0.930 . S
H916 C898 0.932 . S
H917 C899 0.929 . S
H918 C900 0.928 . S
H919 C902 0.932 . S
C920 C921 1.264 . S
C920 C925 1.479 1_565 S
C920 C930 1.465 1_565 S
C921 C920 1.264 . S
C921 C923 1.339 . S
C921 H948 0.931 . S
C922 C923 1.395 . S
C922 C924 1.320 1_565 S
C923 C921 1.339 . S
C923 C922 1.395 . S
C923 H949 0.929 . S
C924 C922 1.320 1_545 S
C924 C925 1.405 . S
C924 H950 0.930 . S
C925 C920 1.479 1_545 S
C925 C924 1.405 . S
C925 H951 0.931 . S
U926 O927 2.454 . S
U926 O928 2.458 . S
U926 C929 2.984 . S
U926 C930 2.847 . S
U926 C943 2.882 1_545 S
U926 O944 2.441 . S
U926 O945 2.420 1_545 S
U926 O946 2.455 1_545 S
U926 O947 2.449 1_545 S
O927 U926 2.454 . S
O927 C929 1.353 . S
O928 U926 2.458 . S
O928 C929 1.286 . S
C929 U926 2.984 . S
C929 O927 1.353 . S
C929 O928 1.286 . S
C929 C931 1.363 . S
C930 C920 1.465 1_545 S
C930 U926 2.847 . S
C930 O944 1.249 . S
C930 O945 1.202 1_545 S
C931 C929 1.363 . S
C931 C933 1.408 . S
C931 C936 1.342 . S
C932 C933 1.310 . S
C932 C935 1.461 . S
C932 H952 0.932 . S
C933 C931 1.408 . S
C933 C932 1.310 . S
C933 H953 0.930 . S
C934 C935 1.474 . S
C934 C936 1.285 . S
C934 H954 0.929 . S
C935 C932 1.461 . S
C935 C934 1.474 . S
C936 C931 1.342 . S
C936 C934 1.285 . S
C936 H955 0.930 . S
C937 C940 1.424 . S
C937 C942 1.245 . S
C937 C943 1.428 . S
C938 C941 1.260 . S
C938 C942 1.477 . S
C938 H956 0.932 . S
C939 C940 1.384 . S
C939 C941 1.479 . S
C939 H957 0.929 . S
C940 C937 1.424 . S
C940 C939 1.384 . S
C940 H958 0.928 . S
C941 C938 1.260 . S
C941 C939 1.479 . S
C942 C937 1.245 . S
C942 C938 1.477 . S
C942 H959 0.932 . S
C943 U926 2.882 1_565 S
C943 C937 1.428 . S
C943 O946 1.301 . S
C943 O947 1.282 . S
O944 U926 2.441 . S
O944 C930 1.249 . S
O945 U926 2.420 1_565 S
O945 C930 1.202 1_565 S
O946 U926 2.455 1_565 S
O946 C943 1.301 . S
O947 U926 2.449 1_565 S
O947 C943 1.282 . S
H948 C921 0.931 . S
H949 C923 0.929 . S
H950 C924 0.930 . S
H951 C925 0.931 . S
H952 C932 0.932 . S
H953 C933 0.930 . S
H954 C934 0.929 . S
H955 C936 0.930 . S
H956 C938 0.932 . S
H957 C939 0.929 . S
H958 C940 0.928 . S
H959 C942 0.932 . S
C960 C961 1.264 . S
C960 C965 1.479 . S
C960 C970 1.465 . S
C961 C960 1.264 . S
C961 C963 1.339 . S
C961 H988 0.931 . S
C962 C963 1.395 . S
C962 C964 1.320 . S
C963 C961 1.339 . S
C963 C962 1.395 . S
C963 H989 0.929 . S
C964 C962 1.320 . S
C964 C965 1.405 . S
C964 H990 0.930 . S
C965 C960 1.479 . S
C965 C964 1.405 . S
C965 H991 0.971 . S
U966 O967 2.454 . S
U966 O968 2.458 . S
U966 C969 2.984 . S
U966 C970 2.847 1_545 S
U966 C983 2.882 1_545 S
U966 O984 2.441 . S
U966 O985 2.420 1_545 S
U966 O986 2.455 1_545 S
U966 O987 2.449 1_545 S
O967 U966 2.454 . S
O967 C969 1.353 . S
O968 U966 2.458 . S
O968 C969 1.286 . S
C969 U966 2.984 . S
C969 O967 1.353 . S
C969 O968 1.286 . S
C969 C971 1.363 . S
C970 C960 1.465 . S
C970 U966 2.847 1_565 S
C970 O984 1.249 1_565 S
C970 O985 1.202 . S
C971 C969 1.363 . S
C971 C973 1.408 . S
C971 C976 1.342 . S
C972 C973 1.310 . S
C972 C975 1.461 . S
C972 H992 0.932 . S
C973 C971 1.408 . S
C973 C972 1.310 . S
C973 H993 0.930 . S
C974 C975 1.474 . S
C974 C976 1.285 . S
C974 H994 0.929 . S
C975 C972 1.461 . S
C975 C974 1.474 . S
C976 C971 1.342 . S
C976 C974 1.285 . S
C976 H995 0.930 . S
C977 C980 1.424 . S
C977 C982 1.245 . S
C977 C983 1.428 . S
C978 C981 1.260 . S
C978 C982 1.477 . S
C978 H996 0.932 . S
C979 C980 1.384 . S
C979 C981 1.479 . S
C979 H997 0.929 . S
C980 C977 1.424 . S
C980 C979 1.384 . S
C980 H998 0.928 . S
C981 C978 1.260 . S
C981 C979 1.479 . S
C982 C977 1.245 . S
C982 C978 1.477 . S
C982 H999 0.932 . S
C983 U966 2.882 1_565 S
C983 C977 1.428 . S
C983 O986 1.301 . S
C983 O987 1.282 . S
O984 U966 2.441 . S
O984 C970 1.249 1_545 S
O985 U966 2.420 1_565 S
O985 C970 1.202 . S
O986 U966 2.455 1_565 S
O986 C983 1.301 . S
O987 U966 2.449 1_565 S
O987 C983 1.282 . S
H988 C961 0.931 . S
H989 C963 0.929 . S
H990 C964 0.930 . S
H991 C965 0.971 . S
H992 C972 0.932 . S
H993 C973 0.930 . S
H994 C974 0.929 . S
H995 C976 0.930 . S
H996 C978 0.932 . S
H997 C979 0.929 . S
H998 C980 0.928 . S
H999 C982 0.932 . S
C1000 C1001 1.264 . S
C1000 C1005 1.479 . S
C1000 C1010 1.465 . S
C1001 C1000 1.264 . S
C1001 C1003 1.339 . S
C1001 H1028 0.931 . S
C1002 C1003 1.395 . S
C1002 C1004 1.320 . S
C1003 C1001 1.339 . S
C1003 C1002 1.395 . S
C1003 H1029 0.929 . S
C1004 C1002 1.320 . S
C1004 C1005 1.405 . S
C1004 H1030 0.930 . S
C1005 C1000 1.479 . S
C1005 C1004 1.405 . S
C1005 H1031 0.931 . S
U1006 O1007 2.454 . S
U1006 O1008 2.455 1_565 S
U1006 C1009 2.990 . S
U1006 C1010 2.850 . S
U1006 C1023 2.880 1_565 S
U1006 O1024 2.444 . S
U1006 O1025 2.423 . S
U1006 O1026 2.452 1_565 S
U1006 O1027 2.448 1_565 S
O1007 U1006 2.454 . S
O1007 C1009 1.370 . S
O1008 U1006 2.455 1_545 S
O1008 C1009 1.278 1_545 S
C1009 U1006 2.990 . S
C1009 O1007 1.370 . S
C1009 O1008 1.278 1_565 S
C1009 C1011 1.361 . S
C1010 C1000 1.465 . S
C1010 U1006 2.850 . S
C1010 O1024 1.249 . S
C1010 O1025 1.202 . S
C1011 C1009 1.361 . S
C1011 C1013 1.414 . S
C1011 C1016 1.332 1_565 S
C1012 C1013 1.310 . S
C1012 C1015 1.446 1_565 S
C1012 H1032 0.932 . S
C1013 C1011 1.414 . S
C1013 C1012 1.310 . S
C1013 H1033 0.930 . S
C1014 C1015 1.482 . S
C1014 C1016 1.285 . S
C1014 H1034 0.929 . S
C1015 C1012 1.446 1_545 S
C1015 C1014 1.482 . S
C1016 C1011 1.332 1_545 S
C1016 C1014 1.285 . S
C1016 H1035 0.930 . S
C1017 C1020 1.424 . S
C1017 C1022 1.245 . S
C1017 C1023 1.428 . S
C1018 C1021 1.260 . S
C1018 C1022 1.477 . S
C1018 H1036 0.932 . S
C1019 C1020 1.384 . S
C1019 C1021 1.479 . S
C1019 H1037 0.929 . S
C1020 C1017 1.424 . S
C1020 C1019 1.384 . S
C1020 H1038 0.928 . S
C1021 C1018 1.260 . S
C1021 C1019 1.479 . S
C1022 C1017 1.245 . S
C1022 C1018 1.477 . S
C1022 H1039 0.932 . S
C1023 U1006 2.880 1_545 S
C1023 C1017 1.428 . S
C1023 O1026 1.301 . S
C1023 O1027 1.282 . S
O1024 U1006 2.444 . S
O1024 C1010 1.249 . S
O1025 U1006 2.423 . S
O1025 C1010 1.202 . S
O1026 U1006 2.452 1_545 S
O1026 C1023 1.301 . S
O1027 U1006 2.448 1_545 S
O1027 C1023 1.282 . S
H1028 C1001 0.931 . S
H1029 C1003 0.929 . S
H1030 C1004 0.930 . S
H1031 C1005 0.931 . S
H1032 C1012 0.932 . S
H1033 C1013 0.930 . S
H1034 C1014 0.929 . S
H1035 C1016 0.930 . S
H1036 C1018 0.932 . S
H1037 C1019 0.929 . S
H1038 C1020 0.928 . S
H1039 C1022 0.932 . S
C1040 C1041 1.264 . S
C1040 C1045 1.479 . S
C1040 C1050 1.465 . S
C1041 C1040 1.264 . S
C1041 C1043 1.339 . S
C1041 H1068 0.931 . S
C1042 C1043 1.395 . S
C1042 C1044 1.320 . S
C1043 C1041 1.339 . S
C1043 C1042 1.395 . S
C1043 H1069 0.929 . S
C1044 C1042 1.320 . S
C1044 C1045 1.405 . S
C1044 H1070 0.930 . S
C1045 C1040 1.479 . S
C1045 C1044 1.405 . S
C1045 H1071 0.931 . S
U1046 O1047 2.479 . S
U1046 O1048 2.434 1_565 S
U1046 C1049 2.984 1_565 S
U1046 C1050 2.895 . S
U1046 C1063 2.833 1_565 S
U1046 O1064 2.497 . S
U1046 O1065 2.453 . S
U1046 O1066 2.399 1_565 S
U1046 O1067 2.417 1_565 S
O1047 U1046 2.479 . S
O1047 C1049 1.353 1_565 S
O1048 U1046 2.434 1_545 S
O1048 C1049 1.286 . S
C1049 U1046 2.984 1_545 S
C1049 O1047 1.353 1_545 S
C1049 O1048 1.286 . S
C1049 C1051 1.363 . S
C1050 C1040 1.465 . S
C1050 U1046 2.895 . S
C1050 O1064 1.249 . S
C1050 O1065 1.202 . S
C1051 C1049 1.363 . S
C1051 C1053 1.408 . S
C1051 C1056 1.342 . S
C1052 C1053 1.310 . S
C1052 C1055 1.461 . S
C1052 H1072 0.932 . S
C1053 C1051 1.408 . S
C1053 C1052 1.310 . S
C1053 H1073 0.868 1_545 S
C1054 C1055 1.474 . S
C1054 C1056 1.285 . S
C1054 H1074 0.929 . S
C1055 C1052 1.461 . S
C1055 C1054 1.474 . S
C1056 C1051 1.342 . S
C1056 C1054 1.285 . S
C1056 H1075 0.930 . S
C1057 C1060 1.424 . S
C1057 C1062 1.245 . S
C1057 C1063 1.428 . S
C1058 C1061 1.260 . S
C1058 C1062 1.477 . S
C1058 H1076 0.932 . S
C1059 C1060 1.384 . S
C1059 C1061 1.479 . S
C1059 H1077 0.929 . S
C1060 C1057 1.424 . S
C1060 C1059 1.384 . S
C1060 H1078 0.928 . S
C1061 C1058 1.260 . S
C1061 C1059 1.479 . S
C1062 C1057 1.245 . S
C1062 C1058 1.477 . S
C1062 H1079 0.932 . S
C1063 U1046 2.833 1_545 S
C1063 C1057 1.428 . S
C1063 O1066 1.301 . S
C1063 O1067 1.282 . S
O1064 U1046 2.497 . S
O1064 C1050 1.249 . S
O1065 U1046 2.453 . S
O1065 C1050 1.202 . S
O1066 U1046 2.399 1_545 S
O1066 C1063 1.301 . S
O1067 U1046 2.417 1_545 S
O1067 C1063 1.282 . S
H1068 C1041 0.931 . S
H1069 C1043 0.929 . S
H1070 C1044 0.930 . S
H1071 C1045 0.931 . S
H1072 C1052 0.932 . S
H1073 C1053 0.868 1_565 S
H1074 C1054 0.929 . S
H1075 C1056 0.930 . S
H1076 C1058 0.932 . S
H1077 C1059 0.929 . S
H1078 C1060 0.928 . S
H1079 C1062 0.932 . S
C1080 C1081 1.264 . S
C1080 C1085 1.479 . S
C1080 C1090 1.465 . S
C1081 C1080 1.264 . S
C1081 C1083 1.339 . S
C1081 H1108 0.931 . S
C1082 C1083 1.395 . S
C1082 C1084 1.320 . S
C1083 C1081 1.339 . S
C1083 C1082 1.395 . S
C1083 H1109 0.929 . S
C1084 C1082 1.320 . S
C1084 C1085 1.405 . S
C1084 H1110 0.930 . S
C1085 C1080 1.479 . S
C1085 C1084 1.405 . S
C1085 H1111 0.931 . S
U1086 O1087 2.454 1_556 S
U1086 O1088 2.458 1_556 S
U1086 C1089 2.984 1_556 S
U1086 C1090 2.847 . S
U1086 C1103 2.882 . S
U1086 O1104 2.441 . S
U1086 O1105 2.420 . S
U1086 O1106 2.455 . S
U1086 O1107 2.449 . S
O1087 U1086 2.454 1_554 S
O1087 C1089 1.353 . S
O1088 U1086 2.458 1_554 S
O1088 C1089 1.286 . S
C1089 U1086 2.984 1_554 S
C1089 O1087 1.353 . S
C1089 O1088 1.286 . S
C1089 C1091 1.363 . S
C1090 C1080 1.465 . S
C1090 U1086 2.847 . S
C1090 O1104 1.249 . S
C1090 O1105 1.202 . S
C1091 C1089 1.363 . S
C1091 C1093 1.408 . S
C1091 C1096 1.342 . S
C1092 C1093 1.310 . S
C1092 C1095 1.461 . S
C1092 H1112 0.932 . S
C1093 C1091 1.408 . S
C1093 C1092 1.310 . S
C1093 H1113 0.930 . S
C1094 C1095 1.474 . S
C1094 C1096 1.285 . S
C1094 H1114 0.929 . S
C1095 C1092 1.461 . S
C1095 C1094 1.474 . S
C1096 C1091 1.342 . S
C1096 C1094 1.285 . S
C1096 H1115 0.930 . S
C1097 C1100 1.424 . S
C1097 C1102 1.245 . S
C1097 C1103 1.428 . S
C1098 C1101 1.260 . S
C1098 C1102 1.477 . S
C1098 H1116 0.932 . S
C1099 C1100 1.384 . S
C1099 C1101 1.479 . S
C1099 H1117 0.929 . S
C1100 C1097 1.424 . S
C1100 C1099 1.384 . S
C1100 H1118 0.928 . S
C1101 C1098 1.260 . S
C1101 C1099 1.479 . S
C1102 C1097 1.245 . S
C1102 C1098 1.477 . S
C1102 H1119 0.932 . S
C1103 U1086 2.882 . S
C1103 C1097 1.428 . S
C1103 O1106 1.301 . S
C1103 O1107 1.282 . S
O1104 U1086 2.441 . S
O1104 C1090 1.249 . S
O1105 U1086 2.420 . S
O1105 C1090 1.202 . S
O1106 U1086 2.455 . S
O1106 C1103 1.301 . S
O1107 U1086 2.449 . S
O1107 C1103 1.282 . S
H1108 C1081 0.931 . S
H1109 C1083 0.929 . S
H1110 C1084 0.930 . S
H1111 C1085 0.931 . S
H1112 C1092 0.932 . S
H1113 C1093 0.930 . S
H1114 C1094 0.929 . S
H1115 C1096 0.930 . S
H1116 C1098 0.932 . S
H1117 C1099 0.929 . S
H1118 C1100 0.928 . S
H1119 C1102 0.932 . S
C1120 C1121 1.264 . S
C1120 C1125 1.479 1_455 S
C1120 C1130 1.465 . S
C1121 C1120 1.264 . S
C1121 C1123 1.289 1_455 S
C1121 H1148 0.931 . S
C1122 C1123 1.438 . S
C1122 C1124 1.320 . S
C1123 C1121 1.289 1_655 S
C1123 C1122 1.438 . S
C1123 H1149 0.927 . S
C1124 C1122 1.320 . S
C1124 C1125 1.405 . S
C1124 H1150 0.930 . S
C1125 C1120 1.479 1_655 S
C1125 C1124 1.405 . S
C1125 H1151 0.931 . S
U1126 O1127 2.454 . S
U1126 O1128 2.458 . S
U1126 C1129 2.984 . S
U1126 C1130 2.847 . S
U1126 C1143 2.882 . S
U1126 O1144 2.441 . S
U1126 O1145 2.420 . S
U1126 O1146 2.455 . S
U1126 O1147 2.449 . S
O1127 U1126 2.454 . S
O1127 C1129 1.353 . S
O1128 U1126 2.458 . S
O1128 C1129 1.286 . S
C1129 U1126 2.984 . S
C1129 O1127 1.353 . S
C1129 O1128 1.286 . S
C1129 C1131 1.363 . S
C1130 C1120 1.465 . S
C1130 U1126 2.847 . S
C1130 O1144 1.249 . S
C1130 O1145 1.202 . S
C1131 C1129 1.363 . S
C1131 C1133 1.408 . S
C1131 C1136 1.342 . S
C1132 C1133 1.310 . S
C1132 C1135 1.461 . S
C1132 H1152 0.932 . S
C1133 C1131 1.408 . S
C1133 C1132 1.310 . S
C1133 H1153 0.930 . S
C1134 C1135 1.474 . S
C1134 C1136 1.285 . S
C1134 H1154 0.929 . S
C1135 C1132 1.461 . S
C1135 C1134 1.474 . S
C1136 C1131 1.342 . S
C1136 C1134 1.285 . S
C1136 H1155 0.930 . S
C1137 C1140 1.424 . S
C1137 C1142 1.245 . S
C1137 C1143 1.428 . S
C1138 C1141 1.260 . S
C1138 C1142 1.477 . S
C1138 H1156 0.932 . S
C1139 C1140 1.384 . S
C1139 C1141 1.479 . S
C1139 H1157 0.929 . S
C1140 C1137 1.424 . S
C1140 C1139 1.384 . S
C1140 H1158 0.928 . S
C1141 C1138 1.260 . S
C1141 C1139 1.479 . S
C1142 C1137 1.245 . S
C1142 C1138 1.477 . S
C1142 H1159 0.932 . S
C1143 U1126 2.882 . S
C1143 C1137 1.428 . S
C1143 O1146 1.301 . S
C1143 O1147 1.282 . S
O1144 U1126 2.441 . S
O1144 C1130 1.249 . S
O1145 U1126 2.420 . S
O1145 C1130 1.202 . S
O1146 U1126 2.455 . S
O1146 C1143 1.301 . S
O1147 U1126 2.449 . S
O1147 C1143 1.282 . S
H1148 C1121 0.931 . S
H1149 C1123 0.927 . S
H1150 C1124 0.930 . S
H1151 C1125 0.931 . S
H1152 C1132 0.932 . S
H1153 C1133 0.930 . S
H1154 C1134 0.929 . S
H1155 C1136 0.930 . S
H1156 C1138 0.932 . S
H1157 C1139 0.929 . S
H1158 C1140 0.928 . S
H1159 C1142 0.932 . S
C1160 C1161 1.264 . S
C1160 C1165 1.479 . S
C1160 C1170 1.465 . S
C1161 C1160 1.264 . S
C1161 C1163 1.339 . S
C1161 H1188 0.931 . S
C1162 C1163 1.395 . S
C1162 C1164 1.320 . S
C1163 C1161 1.339 . S
C1163 C1162 1.395 . S
C1163 H1189 0.929 . S
C1164 C1162 1.320 . S
C1164 C1165 1.405 . S
C1164 H1190 0.930 . S
C1165 C1160 1.479 . S
C1165 C1164 1.405 . S
C1165 H1191 0.931 . S
U1166 O1167 2.454 . S
U1166 O1168 2.458 . S
U1166 C1169 2.984 . S
U1166 C1170 2.847 . S
U1166 C1183 2.882 . S
U1166 O1184 2.441 . S
U1166 O1185 2.420 . S
U1166 O1186 2.455 . S
U1166 O1187 2.449 . S
O1167 U1166 2.454 . S
O1167 C1169 1.353 . S
O1168 U1166 2.458 . S
O1168 C1169 1.286 . S
C1169 U1166 2.984 . S
C1169 O1167 1.353 . S
C1169 O1168 1.286 . S
C1169 C1171 1.363 . S
C1170 C1160 1.465 . S
C1170 U1166 2.847 . S
C1170 O1184 1.249 . S
C1170 O1185 1.202 . S
C1171 C1169 1.363 . S
C1171 C1173 1.408 . S
C1171 C1176 1.342 . S
C1172 C1173 1.310 . S
C1172 C1175 1.461 . S
C1172 H1192 0.932 . S
C1173 C1171 1.408 . S
C1173 C1172 1.310 . S
C1173 H1193 0.930 . S
C1174 C1175 1.474 . S
C1174 C1176 1.285 . S
C1174 H1194 0.929 . S
C1175 C1172 1.461 . S
C1175 C1174 1.474 . S
C1176 C1171 1.342 . S
C1176 C1174 1.285 . S
C1176 H1195 0.930 . S
C1177 C1180 1.424 . S
C1177 C1182 1.245 . S
C1177 C1183 1.428 . S
C1178 C1181 1.260 . S
C1178 C1182 1.477 . S
C1178 H1196 0.932 . S
C1179 C1180 1.384 . S
C1179 C1181 1.479 . S
C1179 H1197 0.929 . S
C1180 C1177 1.424 . S
C1180 C1179 1.384 . S
C1180 H1198 0.928 . S
C1181 C1178 1.260 . S
C1181 C1179 1.479 . S
C1182 C1177 1.245 . S
C1182 C1178 1.477 . S
C1182 H1199 0.932 . S
C1183 U1166 2.882 . S
C1183 C1177 1.428 . S
C1183 O1186 1.301 . S
C1183 O1187 1.282 . S
O1184 U1166 2.441 . S
O1184 C1170 1.249 . S
O1185 U1166 2.420 . S
O1185 C1170 1.202 . S
O1186 U1166 2.455 . S
O1186 C1183 1.301 . S
O1187 U1166 2.449 . S
O1187 C1183 1.282 . S
H1188 C1161 0.931 . S
H1189 C1163 0.929 . S
H1190 C1164 0.930 . S
H1191 C1165 0.931 . S
H1192 C1172 0.932 . S
H1193 C1173 0.930 . S
H1194 C1174 0.929 . S
H1195 C1176 0.930 . S
H1196 C1178 0.932 . S
H1197 C1179 0.929 . S
H1198 C1180 0.928 . S
H1199 C1182 0.932 . S
C1200 C1201 1.264 . S
C1200 C1205 1.479 . S
C1200 C1210 1.465 . S
C1201 C1200 1.264 . S
C1201 C1203 1.339 . S
C1201 H1228 0.931 . S
C1202 C1203 1.395 . S
C1202 C1204 1.320 . S
C1203 C1201 1.339 . S
C1203 C1202 1.395 . S
C1203 H1229 0.929 . S
C1204 C1202 1.320 . S
C1204 C1205 1.405 . S
C1204 H1230 0.930 . S
C1205 C1200 1.479 . S
C1205 C1204 1.405 . S
C1205 H1231 0.931 . S
U1206 O1207 2.454 . S
U1206 O1208 2.458 . S
U1206 C1209 2.984 . S
U1206 C1210 2.847 . S
U1206 C1223 2.882 . S
U1206 O1224 2.441 . S
U1206 O1225 2.420 . S
U1206 O1226 2.455 . S
U1206 O1227 2.449 . S
O1207 U1206 2.454 . S
O1207 C1209 1.353 . S
O1208 U1206 2.458 . S
O1208 C1209 1.286 . S
C1209 U1206 2.984 . S
C1209 O1207 1.353 . S
C1209 O1208 1.286 . S
C1209 C1211 1.363 . S
C1210 C1200 1.465 . S
C1210 U1206 2.847 . S
C1210 O1224 1.249 . S
C1210 O1225 1.202 . S
C1211 C1209 1.363 . S
C1211 C1213 1.408 . S
C1211 C1216 1.342 . S
C1212 C1213 1.310 . S
C1212 C1215 1.461 . S
C1212 H1232 0.932 . S
C1213 C1211 1.408 . S
C1213 C1212 1.310 . S
C1213 H1233 0.930 . S
C1214 C1215 1.474 . S
C1214 C1216 1.285 . S
C1214 H1234 0.929 . S
C1215 C1212 1.461 . S
C1215 C1214 1.474 . S
C1216 C1211 1.342 . S
C1216 C1214 1.285 . S
C1216 H1235 0.930 . S
C1217 C1220 1.424 . S
C1217 C1222 1.245 . S
C1217 C1223 1.428 . S
C1218 C1221 1.260 . S
C1218 C1222 1.477 . S
C1218 H1236 0.932 . S
C1219 C1220 1.384 . S
C1219 C1221 1.479 . S
C1219 H1237 0.929 . S
C1220 C1217 1.424 . S
C1220 C1219 1.384 . S
C1220 H1238 0.928 . S
C1221 C1218 1.260 . S
C1221 C1219 1.479 . S
C1222 C1217 1.245 . S
C1222 C1218 1.477 . S
C1222 H1239 0.932 . S
C1223 U1206 2.882 . S
C1223 C1217 1.428 . S
C1223 O1226 1.301 . S
C1223 O1227 1.282 . S
O1224 U1206 2.441 . S
O1224 C1210 1.249 . S
O1225 U1206 2.420 . S
O1225 C1210 1.202 . S
O1226 U1206 2.455 . S
O1226 C1223 1.301 . S
O1227 U1206 2.449 . S
O1227 C1223 1.282 . S
H1228 C1201 0.931 . S
H1229 C1203 0.929 . S
H1230 C1204 0.930 . S
H1231 C1205 0.931 . S
H1232 C1212 0.932 . S
H1233 C1213 0.930 . S
H1234 C1214 0.929 . S
H1235 C1216 0.930 . S
H1236 C1218 0.932 . S
H1237 C1219 0.929 . S
H1238 C1220 0.928 . S
H1239 C1222 0.932 . S
C1240 C1241 1.264 . S
C1240 C1245 1.479 . S
C1240 C1250 1.465 . S
C1241 C1240 1.264 . S
C1241 C1243 1.339 . S
C1241 H1268 0.931 . S
C1242 C1243 1.395 . S
C1242 C1244 1.320 . S
C1243 C1241 1.339 . S
C1243 C1242 1.395 . S
C1243 H1269 0.929 . S
C1244 C1242 1.320 . S
C1244 C1245 1.405 . S
C1244 H1270 0.930 . S
C1245 C1240 1.479 . S
C1245 C1244 1.405 . S
C1245 H1271 0.931 . S
U1246 O1247 2.454 1_655 S
U1246 O1248 2.458 1_655 S
U1246 C1249 2.984 1_655 S
U1246 C1250 2.847 . S
U1246 C1263 2.882 . S
U1246 O1264 2.441 . S
U1246 O1265 2.420 . S
U1246 O1266 2.455 . S
U1246 O1267 2.449 . S
O1247 U1246 2.454 1_455 S
O1247 C1249 1.353 . S
O1248 U1246 2.458 1_455 S
O1248 C1249 1.286 . S
C1249 U1246 2.984 1_455 S
C1249 O1247 1.353 . S
C1249 O1248 1.286 . S
C1249 C1251 1.363 . S
C1250 C1240 1.465 . S
C1250 U1246 2.847 . S
C1250 O1264 1.249 . S
C1250 O1265 1.202 . S
C1251 C1249 1.363 . S
C1251 C1253 1.408 . S
C1251 C1256 1.342 . S
C1252 C1253 1.310 . S
C1252 C1255 1.461 . S
C1252 H1272 0.932 . S
C1253 C1251 1.408 . S
C1253 C1252 1.310 . S
C1253 H1273 0.930 . S
C1254 C1255 1.474 . S
C1254 C1256 1.285 . S
C1254 H1274 0.929 . S
C1255 C1252 1.461 . S
C1255 C1254 1.474 . S
C1256 C1251 1.342 . S
C1256 C1254 1.285 . S
C1256 H1275 0.930 . S
C1257 C1260 1.424 . S
C1257 C1262 1.245 . S
C1257 C1263 1.428 . S
C1258 C1261 1.260 . S
C1258 C1262 1.477 . S
C1258 H1276 0.932 . S
C1259 C1260 1.384 . S
C1259 C1261 1.479 . S
C1259 H1277 0.929 . S
C1260 C1257 1.424 . S
C1260 C1259 1.384 . S
C1260 H1278 0.928 . S
C1261 C1258 1.260 . S
C1261 C1259 1.479 . S
C1262 C1257 1.245 . S
C1262 C1258 1.477 . S
C1262 H1279 0.932 . S
C1263 U1246 2.882 . S
C1263 C1257 1.428 . S
C1263 O1266 1.301 . S
C1263 O1267 1.282 . S
O1264 U1246 2.441 . S
O1264 C1250 1.249 . S
O1265 U1246 2.420 . S
O1265 C1250 1.202 . S
O1266 U1246 2.455 . S
O1266 C1263 1.301 . S
O1267 U1246 2.449 . S
O1267 C1263 1.282 . S
H1268 C1241 0.931 . S
H1269 C1243 0.929 . S
H1270 C1244 0.930 . S
H1271 C1245 0.931 . S
H1272 C1252 0.932 . S
H1273 C1253 0.930 . S
H1274 C1254 0.929 . S
H1275 C1256 0.930 . S
H1276 C1258 0.932 . S
H1277 C1259 0.929 . S
H1278 C1260 0.928 . S
H1279 C1262 0.932 . S
C1280 C1281 1.264 . S
C1280 C1285 1.479 . S
C1280 C1290 1.465 . S
C1281 C1280 1.264 . S
C1281 C1283 1.339 . S
C1281 H1308 0.931 . S
C1282 C1283 1.395 . S
C1282 C1284 1.320 . S
C1283 C1281 1.339 . S
C1283 C1282 1.395 . S
C1283 H1309 0.929 . S
C1284 C1282 1.320 . S
C1284 C1285 1.405 . S
C1284 H1310 0.930 . S
C1285 C1280 1.479 . S
C1285 C1284 1.405 . S
C1285 H1311 0.931 . S
U1286 O1287 2.454 . S
U1286 O1288 2.458 . S
U1286 C1289 2.984 . S
U1286 C1290 2.847 . S
U1286 C1303 2.882 . S
U1286 O1304 2.441 . S
U1286 O1305 2.420 . S
U1286 O1306 2.455 . S
U1286 O1307 2.449 . S
O1287 U1286 2.454 . S
O1287 C1289 1.353 . S
O1288 U1286 2.458 . S
O1288 C1289 1.286 . S
C1289 U1286 2.984 . S
C1289 O1287 1.353 . S
C1289 O1288 1.286 . S
C1289 C1291 1.363 . S
C1290 C1280 1.465 . S
C1290 U1286 2.847 . S
C1290 O1304 1.249 . S
C1290 O1305 1.202 . S
C1291 C1289 1.363 . S
C1291 C1293 1.408 . S
C1291 C1296 1.342 . S
C1292 C1293 1.310 . S
C1292 C1295 1.461 . S
C1292 H1312 0.932 . S
C1293 C1291 1.408 . S
C1293 C1292 1.310 . S
C1293 H1313 0.930 . S
C1294 C1295 1.474 . S
C1294 C1296 1.285 . S
C1294 H1314 0.929 . S
C1295 C1292 1.461 . S
C1295 C1294 1.474 . S
C1296 C1291 1.342 . S
C1296 C1294 1.285 . S
C1296 H1315 0.930 . S
C1297 C1300 1.424 . S
C1297 C1302 1.245 . S
C1297 C1303 1.428 . S
C1298 C1301 1.260 . S
C1298 C1302 1.477 . S
C1298 H1316 0.932 . S
C1299 C1300 1.384 . S
C1299 C1301 1.479 . S
C1299 H1317 0.929 . S
C1300 C1297 1.424 . S
C1300 C1299 1.384 . S
C1300 H1318 0.928 . S
C1301 C1298 1.260 . S
C1301 C1299 1.479 . S
C1302 C1297 1.245 . S
C1302 C1298 1.477 . S
C1302 H1319 0.932 . S
C1303 U1286 2.882 . S
C1303 C1297 1.428 . S
C1303 O1306 1.301 . S
C1303 O1307 1.282 . S
O1304 U1286 2.441 . S
O1304 C1290 1.249 . S
O1305 U1286 2.420 . S
O1305 C1290 1.202 . S
O1306 U1286 2.455 . S
O1306 C1303 1.301 . S
O1307 U1286 2.449 . S
O1307 C1303 1.282 . S
H1308 C1281 0.931 . S
H1309 C1283 0.929 . S
H1310 C1284 0.930 . S
H1311 C1285 0.931 . S
H1312 C1292 0.932 . S
H1313 C1293 0.930 . S
H1314 C1294 0.929 . S
H1315 C1296 0.930 . S
H1316 C1298 0.932 . S
H1317 C1299 0.929 . S
H1318 C1300 0.928 . S
H1319 C1302 0.932 . S
C1320 C1321 1.264 . S
C1320 C1325 1.479 . S
C1320 C1330 1.465 . S
C1321 C1320 1.264 . S
C1321 C1323 1.339 . S
C1321 H1348 0.931 . S
C1322 C1323 1.395 . S
C1322 C1324 1.320 . S
C1323 C1321 1.339 . S
C1323 C1322 1.395 . S
C1323 H1349 0.929 . S
C1324 C1322 1.320 . S
C1324 C1325 1.405 . S
C1324 H1350 0.930 . S
C1325 C1320 1.479 . S
C1325 C1324 1.405 . S
C1325 H1351 0.931 . S
U1326 O1327 2.396 1_556 S
U1326 O1328 2.458 . S
U1326 C1329 2.984 1_556 S
U1326 C1330 2.847 . S
U1326 C1343 2.882 . S
U1326 O1344 2.441 . S
U1326 O1345 2.420 . S
U1326 O1346 2.455 . S
U1326 O1347 2.449 . S
O1327 U1326 2.396 1_554 S
O1327 C1329 1.378 . S
O1328 U1326 2.458 . S
O1328 C1329 1.286 1_556 S
C1329 U1326 2.984 1_554 S
C1329 O1327 1.378 . S
C1329 O1328 1.286 1_554 S
C1329 C1331 1.363 . S
C1330 C1320 1.465 . S
C1330 U1326 2.847 . S
C1330 O1344 1.249 . S
C1330 O1345 1.202 . S
C1331 C1329 1.363 . S
C1331 C1333 1.408 . S
C1331 C1336 1.342 . S
C1332 C1333 1.310 . S
C1332 C1335 1.461 . S
C1332 H1352 0.932 . S
C1333 C1331 1.408 . S
C1333 C1332 1.310 . S
C1333 H1353 0.930 . S
C1334 C1335 1.474 . S
C1334 C1336 1.285 . S
C1334 H1354 0.929 . S
C1335 C1332 1.461 . S
C1335 C1334 1.474 . S
C1336 C1331 1.342 . S
C1336 C1334 1.285 . S
C1336 H1355 0.930 . S
C1337 C1340 1.424 . S
C1337 C1342 1.245 . S
C1337 C1343 1.428 . S
C1338 C1341 1.260 . S
C1338 C1342 1.477 . S
C1338 H1356 0.932 . S
C1339 C1340 1.384 . S
C1339 C1341 1.479 . S
C1339 H1357 0.929 . S
C1340 C1337 1.424 . S
C1340 C1339 1.384 . S
C1340 H1358 0.928 . S
C1341 C1338 1.260 . S
C1341 C1339 1.479 . S
C1342 C1337 1.245 . S
C1342 C1338 1.477 . S
C1342 H1359 0.932 . S
C1343 U1326 2.882 . S
C1343 C1337 1.428 . S
C1343 O1346 1.301 . S
C1343 O1347 1.282 . S
O1344 U1326 2.441 . S
O1344 C1330 1.249 . S
O1345 U1326 2.420 . S
O1345 C1330 1.202 . S
O1346 U1326 2.455 . S
O1346 C1343 1.301 . S
O1347 U1326 2.449 . S
O1347 C1343 1.282 . S
H1348 C1321 0.931 . S
H1349 C1323 0.929 . S
H1350 C1324 0.930 . S
H1351 C1325 0.931 . S
H1352 C1332 0.932 . S
H1353 C1333 0.930 . S
H1354 C1334 0.929 . S
H1355 C1336 0.930 . S
H1356 C1338 0.932 . S
H1357 C1339 0.929 . S
H1358 C1340 0.928 . S
H1359 C1342 0.932 . S
C1360 C1361 1.264 . S
C1360 C1365 1.479 . S
C1360 C1370 1.465 . S
C1361 C1360 1.264 . S
C1361 C1363 1.339 . S
C1361 H1388 0.931 . S
C1362 C1363 1.395 . S
C1362 C1364 1.320 . S
C1363 C1361 1.339 . S
C1363 C1362 1.395 . S
C1363 H1389 0.929 . S
C1364 C1362 1.320 . S
C1364 C1365 1.405 . S
C1364 H1390 0.930 . S
C1365 C1360 1.479 . S
C1365 C1364 1.405 . S
C1365 H1391 0.931 . S
U1366 O1367 2.454 . S
U1366 O1368 2.458 . S
U1366 C1369 2.984 . S
U1366 C1370 2.847 . S
U1366 C1383 2.882 . S
U1366 O1384 2.441 . S
U1366 O1385 2.420 . S
U1366 O1386 2.455 . S
U1366 O1387 2.449 . S
O1367 U1366 2.454 . S
O1367 C1369 1.353 . S
O1368 U1366 2.458 . S
O1368 C1369 1.286 . S
C1369 U1366 2.984 . S
C1369 O1367 1.353 . S
C1369 O1368 1.286 . S
C1369 C1371 1.363 . S
C1370 C1360 1.465 . S
C1370 U1366 2.847 . S
C1370 O1384 1.249 . S
C1370 O1385 1.202 . S
C1371 C1369 1.363 . S
C1371 C1373 1.408 . S
C1371 C1376 1.342 . S
C1372 C1373 1.310 . S
C1372 C1375 1.461 . S
C1372 H1392 0.932 . S
C1373 C1371 1.408 . S
C1373 C1372 1.310 . S
C1373 H1393 0.930 . S
C1374 C1375 1.474 . S
C1374 C1376 1.285 . S
C1374 H1394 0.929 . S
C1375 C1372 1.461 . S
C1375 C1374 1.474 . S
C1376 C1371 1.342 . S
C1376 C1374 1.285 . S
C1376 H1395 0.930 . S
C1377 C1380 1.424 . S
C1377 C1382 1.245 . S
C1377 C1383 1.428 . S
C1378 C1381 1.260 . S
C1378 C1382 1.477 . S
C1378 H1396 0.932 . S
C1379 C1380 1.384 . S
C1379 C1381 1.479 . S
C1379 H1397 0.929 . S
C1380 C1377 1.424 . S
C1380 C1379 1.384 . S
C1380 H1398 0.928 . S
C1381 C1378 1.260 . S
C1381 C1379 1.479 . S
C1382 C1377 1.245 . S
C1382 C1378 1.477 . S
C1382 H1399 0.932 . S
C1383 U1366 2.882 . S
C1383 C1377 1.428 . S
C1383 O1386 1.301 . S
C1383 O1387 1.282 . S
O1384 U1366 2.441 . S
O1384 C1370 1.249 . S
O1385 U1366 2.420 . S
O1385 C1370 1.202 . S
O1386 U1366 2.455 . S
O1386 C1383 1.301 . S
O1387 U1366 2.449 . S
O1387 C1383 1.282 . S
H1388 C1361 0.931 . S
H1389 C1363 0.929 . S
H1390 C1364 0.930 . S
H1391 C1365 0.931 . S
H1392 C1372 0.932 . S
H1393 C1373 0.930 . S
H1394 C1374 0.929 . S
H1395 C1376 0.930 . S
H1396 C1378 0.932 . S
H1397 C1379 0.929 . S
H1398 C1380 0.928 . S
H1399 C1382 0.932 . S
C1400 C1401 1.264 . S
C1400 C1405 1.479 . S
C1400 C1410 1.465 . S
C1401 C1400 1.264 . S
C1401 C1403 1.339 . S
C1401 H1428 0.931 . S
C1402 C1403 1.395 . S
C1402 C1404 1.320 . S
C1403 C1401 1.339 . S
C1403 C1402 1.395 . S
C1403 H1429 0.929 . S
C1404 C1402 1.320 . S
C1404 C1405 1.405 . S
C1404 H1430 0.930 . S
C1405 C1400 1.479 . S
C1405 C1404 1.405 . S
C1405 H1431 0.931 . S
U1406 O1407 2.454 . S
U1406 O1408 2.458 . S
U1406 C1409 2.984 . S
U1406 C1410 2.847 . S
U1406 C1423 2.882 . S
U1406 O1424 2.441 . S
U1406 O1425 2.420 . S
U1406 O1426 2.455 . S
U1406 O1427 2.449 . S
O1407 U1406 2.454 . S
O1407 C1409 1.353 . S
O1408 U1406 2.458 . S
O1408 C1409 1.286 . S
C1409 U1406 2.984 . S
C1409 O1407 1.353 . S
C1409 O1408 1.286 . S
C1409 C1411 1.363 . S
C1410 C1400 1.465 . S
C1410 U1406 2.847 . S
C1410 O1424 1.249 . S
C1410 O1425 1.202 . S
C1411 C1409 1.363 . S
C1411 C1413 1.408 . S
C1411 C1416 1.342 . S
C1412 C1413 1.310 . S
C1412 C1415 1.461 . S
C1412 H1432 0.932 . S
C1413 C1411 1.408 . S
C1413 C1412 1.310 . S
C1413 H1433 0.930 . S
C1414 C1415 1.474 . S
C1414 C1416 1.285 . S
C1414 H1434 0.929 . S
C1415 C1412 1.461 . S
C1415 C1414 1.474 . S
C1416 C1411 1.342 . S
C1416 C1414 1.285 . S
C1416 H1435 0.930 . S
C1417 C1420 1.424 . S
C1417 C1422 1.245 . S
C1417 C1423 1.428 . S
C1418 C1421 1.260 . S
C1418 C1422 1.477 . S
C1418 H1436 0.932 . S
C1419 C1420 1.384 . S
C1419 C1421 1.479 . S
C1419 H1437 0.929 . S
C1420 C1417 1.424 . S
C1420 C1419 1.384 . S
C1420 H1438 0.928 . S
C1421 C1418 1.260 . S
C1421 C1419 1.479 . S
C1422 C1417 1.245 . S
C1422 C1418 1.477 . S
C1422 H1439 0.932 . S
C1423 U1406 2.882 . S
C1423 C1417 1.428 . S
C1423 O1426 1.301 . S
C1423 O1427 1.282 . S
O1424 U1406 2.441 . S
O1424 C1410 1.249 . S
O1425 U1406 2.420 . S
O1425 C1410 1.202 . S
O1426 U1406 2.455 . S
O1426 C1423 1.301 . S
O1427 U1406 2.449 . S
O1427 C1423 1.282 . S
H1428 C1401 0.931 . S
H1429 C1403 0.929 . S
H1430 C1404 0.930 . S
H1431 C1405 0.931 . S
H1432 C1412 0.932 . S
H1433 C1413 0.930 . S
H1434 C1414 0.929 . S
H1435 C1416 0.930 . S
H1436 C1418 0.932 . S
H1437 C1419 0.929 . S
H1438 C1420 0.928 . S
H1439 C1422 0.932 . S
C1440 C1441 1.264 . S
C1440 C1445 1.479 . S
C1440 C1450 1.465 . S
C1441 C1440 1.264 . S
C1441 C1443 1.339 . S
C1441 H1468 0.931 . S
C1442 C1443 1.395 . S
C1442 C1444 1.320 . S
C1443 C1441 1.339 . S
C1443 C1442 1.395 . S
C1443 H1469 0.929 . S
C1444 C1442 1.320 . S
C1444 C1445 1.405 . S
C1444 H1470 0.930 . S
C1445 C1440 1.479 . S
C1445 C1444 1.405 . S
C1445 H1471 0.931 . S
U1446 O1447 2.454 . S
U1446 O1448 2.458 . S
U1446 C1449 2.984 . S
U1446 C1450 2.847 . S
U1446 C1463 2.882 . S
U1446 O1464 2.441 . S
U1446 O1465 2.420 . S
U1446 O1466 2.455 . S
U1446 O1467 2.449 . S
O1447 U1446 2.454 . S
O1447 C1449 1.353 . S
O1448 U1446 2.458 . S
O1448 C1449 1.286 . S
C1449 U1446 2.984 . S
C1449 O1447 1.353 . S
C1449 O1448 1.286 . S
C1449 C1451 1.363 . S
C1450 C1440 1.465 . S
C1450 U1446 2.847 . S
C1450 O1464 1.249 . S
C1450 O1465 1.202 . S
C1451 C1449 1.363 . S
C1451 C1453 1.408 . S
C1451 C1456 1.342 . S
C1452 C1453 1.310 . S
C1452 C1455 1.461 . S
C1452 H1472 0.932 . S
C1453 C1451 1.408 . S
C1453 C1452 1.310 . S
C1453 H1473 0.930 . S
C1454 C1455 1.474 . S
C1454 C1456 1.285 . S
C1454 H1474 0.929 . S
C1455 C1452 1.461 . S
C1455 C1454 1.474 . S
C1456 C1451 1.342 . S
C1456 C1454 1.285 . S
C1456 H1475 0.930 . S
C1457 C1460 1.424 . S
C1457 C1462 1.245 . S
C1457 C1463 1.428 . S
C1458 C1461 1.260 . S
C1458 C1462 1.477 . S
C1458 H1476 0.932 . S
C1459 C1460 1.384 . S
C1459 C1461 1.479 . S
C1459 H1477 0.929 . S
C1460 C1457 1.424 . S
C1460 C1459 1.384 . S
C1460 H1478 0.928 . S
C1461 C1458 1.260 . S
C1461 C1459 1.479 . S
C1462 C1457 1.245 . S
C1462 C1458 1.477 . S
C1462 H1479 0.932 . S
C1463 U1446 2.882 . S
C1463 C1457 1.428 . S
C1463 O1466 1.301 . S
C1463 O1467 1.282 . S
O1464 U1446 2.441 . S
O1464 C1450 1.249 . S
O1465 U1446 2.420 . S
O1465 C1450 1.202 . S
O1466 U1446 2.455 . S
O1466 C1463 1.301 . S
O1467 U1446 2.449 . S
O1467 C1463 1.282 . S
H1468 C1441 0.931 . S
H1469 C1443 0.929 . S
H1470 C1444 0.930 . S
H1471 C1445 0.931 . S
H1472 C1452 0.932 . S
H1473 C1453 0.930 . S
H1474 C1454 0.929 . S
H1475 C1456 0.930 . S
H1476 C1458 0.932 . S
H1477 C1459 0.929 . S
H1478 C1460 0.928 . S
H1479 C1462 0.932 . S
C1480 C1481 1.264 . S
C1480 C1485 1.479 . S
C1480 C1490 1.465 . S
C1481 C1480 1.264 . S
C1481 C1483 1.339 . S
C1481 H1508 0.931 . S
C1482 C1483 1.395 . S
C1482 C1484 1.320 . S
C1483 C1481 1.339 . S
C1483 C1482 1.395 . S
C1483 H1509 0.929 . S
C1484 C1482 1.320 . S
C1484 C1485 1.405 . S
C1484 H1510 0.930 . S
C1485 C1480 1.479 . S
C1485 C1484 1.405 . S
C1485 H1511 0.931 . S
U1486 O1487 2.454 . S
U1486 O1488 2.458 . S
U1486 C1489 2.984 . S
U1486 C1490 2.847 . S
U1486 C1503 2.882 . S
U1486 O1504 2.441 . S
U1486 O1505 2.420 . S
U1486 O1506 2.455 . S
U1486 O1507 2.449 . S
O1487 U1486 2.454 . S
O1487 C1489 1.353 . S
O1488 U1486 2.458 . S
O1488 C1489 1.286 . S
C1489 U1486 2.984 . S
C1489 O1487 1.353 . S
C1489 O1488 1.286 . S
C1489 C1491 1.363 . S
C1490 C1480 1.465 . S
C1490 U1486 2.847 . S
C1490 O1504 1.249 . S
C1490 O1505 1.202 . S
C1491 C1489 1.363 . S
C1491 C1493 1.408 . S
C1491 C1496 1.342 . S
C1492 C1493 1.310 . S
C1492 C1495 1.461 . S
C1492 H1512 0.932 . S
C1493 C1491 1.408 . S
C1493 C1492 1.310 . S
C1493 H1513 0.930 . S
C1494 C1495 1.474 . S
C1494 C1496 1.285 . S
C1494 H1514 0.929 . S
C1495 C1492 1.461 . S
C1495 C1494 1.474 . S
C1496 C1491 1.342 . S
C1496 C1494 1.285 . S
C1496 H1515 0.930 . S
C1497 C1500 1.424 . S
C1497 C1502 1.245 . S
C1497 C1503 1.428 . S
C1498 C1501 1.260 . S
C1498 C1502 1.477 . S
C1498 H1516 0.932 . S
C1499 C1500 1.384 . S
C1499 C1501 1.479 . S
C1499 H1517 0.929 . S
C1500 C1497 1.424 . S
C1500 C1499 1.384 . S
C1500 H1518 0.928 . S
C1501 C1498 1.260 . S
C1501 C1499 1.479 . S
C1502 C1497 1.245 . S
C1502 C1498 1.477 . S
C1502 H1519 0.932 . S
C1503 U1486 2.882 . S
C1503 C1497 1.428 . S
C1503 O1506 1.301 . S
C1503 O1507 1.282 . S
O1504 U1486 2.441 . S
O1504 C1490 1.249 . S
O1505 U1486 2.420 . S
O1505 C1490 1.202 . S
O1506 U1486 2.455 . S
O1506 C1503 1.301 . S
O1507 U1486 2.449 . S
O1507 C1503 1.282 . S
H1508 C1481 0.931 . S
H1509 C1483 0.929 . S
H1510 C1484 0.930 . S
H1511 C1485 0.931 . S
H1512 C1492 0.932 . S
H1513 C1493 0.930 . S
H1514 C1494 0.929 . S
H1515 C1496 0.930 . S
H1516 C1498 0.932 . S
H1517 C1499 0.929 . S
H1518 C1500 0.928 . S
H1519 C1502 0.932 . S
C1520 C1521 1.264 . S
C1520 C1525 1.479 . S
C1520 C1530 1.465 . S
C1521 C1520 1.264 . S
C1521 C1523 1.339 . S
C1521 H1548 0.931 . S
C1522 C1523 1.395 . S
C1522 C1524 1.320 . S
C1523 C1521 1.339 . S
C1523 C1522 1.395 . S
C1523 H1549 0.929 . S
C1524 C1522 1.320 . S
C1524 C1525 1.405 . S
C1524 H1550 0.930 . S
C1525 C1520 1.479 . S
C1525 C1524 1.405 . S
C1525 H1551 0.931 . S
U1526 O1527 2.454 . S
U1526 O1528 2.458 . S
U1526 C1529 2.984 . S
U1526 C1530 2.847 . S
U1526 C1543 2.882 . S
U1526 O1544 2.441 . S
U1526 O1545 2.420 . S
U1526 O1546 2.455 . S
U1526 O1547 2.449 . S
O1527 U1526 2.454 . S
O1527 C1529 1.353 . S
O1528 U1526 2.458 . S
O1528 C1529 1.286 . S
C1529 U1526 2.984 . S
C1529 O1527 1.353 . S
C1529 O1528 1.286 . S
C1529 C1531 1.363 . S
C1530 C1520 1.465 . S
C1530 U1526 2.847 . S
C1530 O1544 1.249 . S
C1530 O1545 1.202 . S
C1531 C1529 1.363 . S
C1531 C1533 1.408 . S
C1531 C1536 1.342 . S
C1532 C1533 1.310 . S
C1532 C1535 1.461 . S
C1532 H1552 0.932 . S
C1533 C1531 1.408 . S
C1533 C1532 1.310 . S
C1533 H1553 0.930 . S
C1534 C1535 1.474 . S
C1534 C1536 1.285 . S
C1534 H1554 0.929 . S
C1535 C1532 1.461 . S
C1535 C1534 1.474 . S
C1536 C1531 1.342 . S
C1536 C1534 1.285 . S
C1536 H1555 0.930 . S
C1537 C1540 1.424 . S
C1537 C1542 1.245 . S
C1537 C1543 1.428 . S
C1538 C1541 1.260 . S
C1538 C1542 1.477 . S
C1538 H1556 0.932 . S
C1539 C1540 1.384 . S
C1539 C1541 1.479 . S
C1539 H1557 0.929 . S
C1540 C1537 1.424 . S
C1540 C1539 1.384 . S
C1540 H1558 0.928 . S
C1541 C1538 1.260 . S
C1541 C1539 1.479 . S
C1542 C1537 1.245 . S
C1542 C1538 1.477 . S
C1542 H1559 0.932 . S
C1543 U1526 2.882 . S
C1543 C1537 1.428 . S
C1543 O1546 1.301 . S
C1543 O1547 1.282 . S
O1544 U1526 2.441 . S
O1544 C1530 1.249 . S
O1545 U1526 2.420 . S
O1545 C1530 1.202 . S
O1546 U1526 2.455 . S
O1546 C1543 1.301 . S
O1547 U1526 2.449 . S
O1547 C1543 1.282 . S
H1548 C1521 0.931 . S
H1549 C1523 0.929 . S
H1550 C1524 0.930 . S
H1551 C1525 0.931 . S
H1552 C1532 0.932 . S
H1553 C1533 0.930 . S
H1554 C1534 0.929 . S
H1555 C1536 0.930 . S
H1556 C1538 0.932 . S
H1557 C1539 0.929 . S
H1558 C1540 0.928 . S
H1559 C1542 0.932 . S
C1560 C1561 1.264 . S
C1560 C1565 1.479 . S
C1560 C1570 1.465 . S
C1561 C1560 1.264 . S
C1561 C1563 1.339 . S
C1561 H1588 0.931 . S
C1562 C1563 1.395 . S
C1562 C1564 1.320 . S
C1563 C1561 1.339 . S
C1563 C1562 1.395 . S
C1563 H1589 0.929 . S
C1564 C1562 1.320 . S
C1564 C1565 1.405 . S
C1564 H1590 0.930 . S
C1565 C1560 1.479 . S
C1565 C1564 1.405 . S
C1565 H1591 0.931 . S
U1566 O1567 2.454 . S
U1566 O1568 2.458 . S
U1566 C1569 2.984 . S
U1566 C1570 2.847 . S
U1566 C1583 2.882 . S
U1566 O1584 2.441 . S
U1566 O1585 2.420 . S
U1566 O1586 2.455 . S
U1566 O1587 2.449 . S
O1567 U1566 2.454 . S
O1567 C1569 1.353 . S
O1568 U1566 2.458 . S
O1568 C1569 1.286 . S
C1569 U1566 2.984 . S
C1569 O1567 1.353 . S
C1569 O1568 1.286 . S
C1569 C1571 1.363 . S
C1570 C1560 1.465 . S
C1570 U1566 2.847 . S
C1570 O1584 1.249 . S
C1570 O1585 1.202 . S
C1571 C1569 1.363 . S
C1571 C1573 1.408 . S
C1571 C1576 1.342 . S
C1572 C1573 1.310 . S
C1572 C1575 1.461 . S
C1572 H1592 0.932 . S
C1573 C1571 1.408 . S
C1573 C1572 1.310 . S
C1573 H1593 0.930 . S
C1574 C1575 1.474 . S
C1574 C1576 1.285 . S
C1574 H1594 0.929 . S
C1575 C1572 1.461 . S
C1575 C1574 1.474 . S
C1576 C1571 1.342 . S
C1576 C1574 1.285 . S
C1576 H1595 0.930 . S
C1577 C1580 1.424 . S
C1577 C1582 1.245 . S
C1577 C1583 1.428 . S
C1578 C1581 1.260 . S
C1578 C1582 1.477 . S
C1578 H1596 0.932 . S
C1579 C1580 1.384 . S
C1579 C1581 1.479 . S
C1579 H1597 0.929 . S
C1580 C1577 1.424 . S
C1580 C1579 1.384 . S
C1580 H1598 0.928 . S
C1581 C1578 1.260 . S
C1581 C1579 1.479 . S
C1582 C1577 1.245 . S
C1582 C1578 1.477 . S
C1582 H1599 0.932 . S
C1583 U1566 2.882 . S
C1583 C1577 1.428 . S
C1583 O1586 1.301 . S
C1583 O1587 1.282 . S
O1584 U1566 2.441 . S
O1584 C1570 1.249 . S
O1585 U1566 2.420 . S
O1585 C1570 1.202 . S
O1586 U1566 2.455 . S
O1586 C1583 1.301 . S
O1587 U1566 2.449 . S
O1587 C1583 1.282 . S
H1588 C1561 0.931 . S
H1589 C1563 0.929 . S
H1590 C1564 0.930 . S
H1591 C1565 0.931 . S
H1592 C1572 0.932 . S
H1593 C1573 0.930 . S
H1594 C1574 0.929 . S
H1595 C1576 0.930 . S
H1596 C1578 0.932 . S
H1597 C1579 0.929 . S
H1598 C1580 0.928 . S
H1599 C1582 0.932 . S
C1600 C1601 1.264 . S
C1600 C1605 1.479 . S
C1600 C1610 1.465 . S
C1601 C1600 1.264 . S
C1601 C1603 1.339 . S
C1601 H1628 0.931 . S
C1602 C1603 1.395 . S
C1602 C1604 1.320 . S
C1603 C1601 1.339 . S
C1603 C1602 1.395 . S
C1603 H1629 0.929 . S
C1604 C1602 1.320 . S
C1604 C1605 1.405 . S
C1604 H1630 0.930 . S
C1605 C1600 1.479 . S
C1605 C1604 1.405 . S
C1605 H1631 0.931 . S
U1606 O1607 2.454 . S
U1606 O1608 2.458 . S
U1606 C1609 2.984 . S
U1606 C1610 2.847 1_455 S
U1606 C1623 2.882 . S
U1606 O1624 2.441 1_455 S
U1606 O1625 2.420 1_455 S
U1606 O1626 2.455 . S
U1606 O1627 2.449 . S
O1607 U1606 2.454 . S
O1607 C1609 1.353 . S
O1608 U1606 2.458 . S
O1608 C1609 1.286 . S
C1609 U1606 2.984 . S
C1609 O1607 1.353 . S
C1609 O1608 1.286 . S
C1609 C1611 1.363 . S
C1610 C1600 1.465 . S
C1610 U1606 2.847 1_655 S
C1610 O1624 1.249 . S
C1610 O1625 1.202 . S
C1611 C1609 1.363 . S
C1611 C1613 1.408 . S
C1611 C1616 1.342 . S
C1612 C1613 1.310 . S
C1612 C1615 1.461 . S
C1612 H1632 0.932 . S
C1613 C1611 1.408 . S
C1613 C1612 1.310 . S
C1613 H1633 0.930 . S
C1614 C1615 1.474 . S
C1614 C1616 1.285 . S
C1614 H1634 0.929 . S
C1615 C1612 1.461 . S
C1615 C1614 1.474 . S
C1616 C1611 1.342 . S
C1616 C1614 1.285 . S
C1616 H1635 0.930 . S
C1617 C1620 1.424 . S
C1617 C1622 1.245 . S
C1617 C1623 1.428 . S
C1618 C1621 1.260 . S
C1618 C1622 1.477 . S
C1618 H1636 0.932 . S
C1619 C1620 1.384 . S
C1619 C1621 1.479 . S
C1619 H1637 0.929 . S
C1620 C1617 1.424 . S
C1620 C1619 1.384 . S
C1620 H1638 0.928 . S
C1621 C1618 1.260 . S
C1621 C1619 1.479 . S
C1622 C1617 1.245 . S
C1622 C1618 1.477 . S
C1622 H1639 0.932 . S
C1623 U1606 2.882 . S
C1623 C1617 1.428 . S
C1623 O1626 1.301 . S
C1623 O1627 1.282 . S
O1624 U1606 2.441 1_655 S
O1624 C1610 1.249 . S
O1625 U1606 2.420 1_655 S
O1625 C1610 1.202 . S
O1626 U1606 2.455 . S
O1626 C1623 1.301 . S
O1627 U1606 2.449 . S
O1627 C1623 1.282 . S
H1628 C1601 0.931 . S
H1629 C1603 0.929 . S
H1630 C1604 0.930 . S
H1631 C1605 0.931 . S
H1632 C1612 0.932 . S
H1633 C1613 0.930 . S
H1634 C1614 0.929 . S
H1635 C1616 0.930 . S
H1636 C1618 0.932 . S
H1637 C1619 0.929 . S
H1638 C1620 0.928 . S
H1639 C1622 0.932 . S
C1640 C1641 1.264 . S
C1640 C1645 1.479 . S
C1640 C1650 1.465 . S
C1641 C1640 1.264 . S
C1641 C1643 1.339 . S
C1641 H1668 0.931 . S
C1642 C1643 1.395 . S
C1642 C1644 1.320 . S
C1643 C1641 1.339 . S
C1643 C1642 1.395 . S
C1643 H1669 0.929 . S
C1644 C1642 1.320 . S
C1644 C1645 1.405 . S
C1644 H1670 0.930 . S
C1645 C1640 1.479 . S
C1645 C1644 1.405 . S
C1645 H1671 0.931 . S
U1646 O1647 2.454 . S
U1646 O1648 2.458 . S
U1646 C1649 2.984 . S
U1646 C1650 2.847 . S
U1646 C1663 2.882 . S
U1646 O1664 2.441 . S
U1646 O1665 2.420 . S
U1646 O1666 2.455 . S
U1646 O1667 2.449 . S
O1647 U1646 2.454 . S
O1647 C1649 1.353 . S
O1648 U1646 2.458 . S
O1648 C1649 1.286 . S
C1649 U1646 2.984 . S
C1649 O1647 1.353 . S
C1649 O1648 1.286 . S
C1649 C1651 1.363 . S
C1650 C1640 1.465 . S
C1650 U1646 2.847 . S
C1650 O1664 1.249 . S
C1650 O1665 1.202 . S
C1651 C1649 1.363 . S
C1651 C1653 1.408 . S
C1651 C1656 1.342 . S
C1652 C1653 1.310 . S
C1652 C1655 1.461 . S
C1652 H1672 0.932 . S
C1653 C1651 1.408 . S
C1653 C1652 1.310 . S
C1653 H1673 0.930 . S
C1654 C1655 1.474 . S
C1654 C1656 1.285 . S
C1654 H1674 0.929 . S
C1655 C1652 1.461 . S
C1655 C1654 1.474 . S
C1656 C1651 1.342 . S
C1656 C1654 1.285 . S
C1656 H1675 0.930 . S
C1657 C1660 1.424 . S
C1657 C1662 1.245 . S
C1657 C1663 1.428 . S
C1658 C1661 1.260 . S
C1658 C1662 1.477 . S
C1658 H1676 0.932 . S
C1659 C1660 1.384 . S
C1659 C1661 1.479 . S
C1659 H1677 0.929 . S
C1660 C1657 1.424 . S
C1660 C1659 1.384 . S
C1660 H1678 0.928 . S
C1661 C1658 1.260 . S
C1661 C1659 1.479 . S
C1662 C1657 1.245 . S
C1662 C1658 1.477 . S
C1662 H1679 0.932 . S
C1663 U1646 2.882 . S
C1663 C1657 1.428 . S
C1663 O1666 1.301 . S
C1663 O1667 1.282 . S
O1664 U1646 2.441 . S
O1664 C1650 1.249 . S
O1665 U1646 2.420 . S
O1665 C1650 1.202 . S
O1666 U1646 2.455 . S
O1666 C1663 1.301 . S
O1667 U1646 2.449 . S
O1667 C1663 1.282 . S
H1668 C1641 0.931 . S
H1669 C1643 0.929 . S
H1670 C1644 0.930 . S
H1671 C1645 0.931 . S
H1672 C1652 0.932 . S
H1673 C1653 0.930 . S
H1674 C1654 0.929 . S
H1675 C1656 0.930 . S
H1676 C1658 0.932 . S
H1677 C1659 0.929 . S
H1678 C1660 0.928 . S
H1679 C1662 0.932 . S
C1680 C1681 1.264 . S
C1680 C1685 1.479 . S
C1680 C1690 1.465 . S
C1681 C1680 1.264 . S
C1681 C1683 1.339 . S
C1681 H1708 0.931 . S
C1682 C1683 1.395 . S
C1682 C1684 1.320 . S
C1683 C1681 1.339 . S
C1683 C1682 1.395 . S
C1683 H1709 0.929 . S
C1684 C1682 1.320 . S
C1684 C1685 1.405 . S
C1684 H1710 0.930 . S
C1685 C1680 1.479 . S
C1685 C1684 1.405 . S
C1685 H1711 0.931 1_554 S
U1686 O1687 2.454 1_554 S
U1686 O1688 2.458 1_554 S
U1686 C1689 2.984 1_554 S
U1686 C1690 2.847 . S
U1686 C1703 2.882 . S
U1686 O1704 2.450 . S
U1686 O1705 2.420 . S
U1686 O1706 2.455 . S
U1686 O1707 2.449 . S
O1687 U1686 2.454 1_556 S
O1687 C1689 1.353 . S
O1688 U1686 2.458 1_556 S
O1688 C1689 1.286 . S
C1689 U1686 2.984 1_556 S
C1689 O1687 1.353 . S
C1689 O1688 1.286 . S
C1689 C1691 1.363 . S
C1690 C1680 1.465 . S
C1690 U1686 2.847 . S
C1690 O1704 1.287 . S
C1690 O1705 1.202 . S
C1691 C1689 1.363 . S
C1691 C1693 1.408 . S
C1691 C1696 1.342 . S
C1692 C1693 1.310 . S
C1692 C1695 1.461 . S
C1692 H1712 0.932 . S
C1693 C1691 1.408 . S
C1693 C1692 1.310 . S
C1693 H1713 0.930 . S
C1694 C1695 1.474 . S
C1694 C1696 1.285 . S
C1694 H1714 0.929 . S
C1695 C1692 1.461 . S
C1695 C1694 1.474 . S
C1696 C1691 1.342 . S
C1696 C1694 1.285 . S
C1696 H1715 0.930 . S
C1697 C1700 1.424 . S
C1697 C1702 1.245 . S
C1697 C1703 1.428 . S
C1698 C1701 1.260 . S
C1698 C1702 1.477 . S
C1698 H1716 0.932 . S
C1699 C1700 1.384 . S
C1699 C1701 1.479 . S
C1699 H1717 0.929 . S
C1700 C1697 1.424 . S
C1700 C1699 1.384 . S
C1700 H1718 0.928 . S
C1701 C1698 1.260 . S
C1701 C1699 1.479 . S
C1702 C1697 1.245 . S
C1702 C1698 1.477 . S
C1702 H1719 0.932 . S
C1703 U1686 2.882 . S
C1703 C1697 1.428 . S
C1703 O1706 1.301 . S
C1703 O1707 1.282 . S
O1704 U1686 2.450 . S
O1704 C1690 1.287 . S
O1705 U1686 2.420 . S
O1705 C1690 1.202 . S
O1706 U1686 2.455 . S
O1706 C1703 1.301 . S
O1707 U1686 2.449 . S
O1707 C1703 1.282 . S
H1708 C1681 0.931 . S
H1709 C1683 0.929 . S
H1710 C1684 0.930 . S
H1711 C1685 0.931 1_556 S
H1712 C1692 0.932 . S
H1713 C1693 0.930 . S
H1714 C1694 0.929 . S
H1715 C1696 0.930 . S
H1716 C1698 0.932 . S
H1717 C1699 0.929 . S
H1718 C1700 0.928 . S
H1719 C1702 0.932 . S
C1720 C1721 1.264 . S
C1720 C1725 1.479 . S
C1720 C1730 1.465 . S
C1721 C1720 1.264 . S
C1721 C1723 1.339 . S
C1721 H1748 0.931 . S
C1722 C1723 1.395 . S
C1722 C1724 1.320 . S
C1723 C1721 1.339 . S
C1723 C1722 1.395 . S
C1723 H1749 0.929 . S
C1724 C1722 1.320 . S
C1724 C1725 1.405 . S
C1724 H1750 0.930 . S
C1725 C1720 1.479 . S
C1725 C1724 1.405 . S
C1725 H1751 0.931 . S
U1726 O1727 2.454 . S
U1726 O1728 2.458 . S
U1726 C1729 2.984 . S
U1726 C1730 2.847 . S
U1726 C1743 2.882 . S
U1726 O1744 2.441 . S
U1726 O1745 2.420 . S
U1726 O1746 2.455 . S
U1726 O1747 2.449 . S
O1727 U1726 2.454 . S
O1727 C1729 1.353 . S
O1728 U1726 2.458 . S
O1728 C1729 1.286 . S
C1729 U1726 2.984 . S
C1729 O1727 1.353 . S
C1729 O1728 1.286 . S
C1729 C1731 1.363 . S
C1730 C1720 1.465 . S
C1730 U1726 2.847 . S
C1730 O1744 1.249 . S
C1730 O1745 1.202 . S
C1731 C1729 1.363 . S
C1731 C1733 1.408 . S
C1731 C1736 1.342 . S
C1732 C1733 1.310 . S
C1732 C1735 1.461 . S
C1732 H1752 0.932 . S
C1733 C1731 1.408 . S
C1733 C1732 1.310 . S
C1733 H1753 0.930 . S
C1734 C1735 1.474 . S
C1734 C1736 1.285 . S
C1734 H1754 0.929 . S
C1735 C1732 1.461 . S
C1735 C1734 1.474 . S
C1736 C1731 1.342 . S
C1736 C1734 1.285 . S
C1736 H1755 0.930 . S
C1737 C1740 1.424 . S
C1737 C1742 1.245 . S
C1737 C1743 1.428 . S
C1738 C1741 1.260 . S
C1738 C1742 1.477 . S
C1738 H1756 0.932 . S
C1739 C1740 1.384 . S
C1739 C1741 1.479 . S
C1739 H1757 0.929 . S
C1740 C1737 1.424 . S
C1740 C1739 1.384 . S
C1740 H1758 0.928 . S
C1741 C1738 1.260 . S
C1741 C1739 1.479 . S
C1742 C1737 1.245 . S
C1742 C1738 1.477 . S
C1742 H1759 0.932 . S
C1743 U1726 2.882 . S
C1743 C1737 1.428 . S
C1743 O1746 1.301 . S
C1743 O1747 1.282 . S
O1744 U1726 2.441 . S
O1744 C1730 1.249 . S
O1745 U1726 2.420 . S
O1745 C1730 1.202 . S
O1746 U1726 2.455 . S
O1746 C1743 1.301 . S
O1747 U1726 2.449 . S
O1747 C1743 1.282 . S
H1748 C1721 0.931 . S
H1749 C1723 0.929 . S
H1750 C1724 0.930 . S
H1751 C1725 0.931 . S
H1752 C1732 0.932 . S
H1753 C1733 0.930 . S
H1754 C1734 0.929 . S
H1755 C1736 0.930 . S
H1756 C1738 0.932 . S
H1757 C1739 0.929 . S
H1758 C1740 0.928 . S
H1759 C1742 0.932 . S
C1760 C1761 1.264 . S
C1760 C1765 1.479 . S
C1760 C1770 1.465 . S
C1761 C1760 1.264 . S
C1761 C1763 1.339 . S
C1761 H1788 0.931 . S
C1762 C1763 1.395 . S
C1762 C1764 1.320 . S
C1763 C1761 1.339 . S
C1763 C1762 1.395 . S
C1763 H1789 0.929 . S
C1764 C1762 1.320 . S
C1764 C1765 1.405 . S
C1764 H1790 0.930 . S
C1765 C1760 1.479 . S
C1765 C1764 1.405 . S
C1765 H1791 0.931 . S
U1766 O1767 2.454 . S
U1766 O1768 2.458 . S
U1766 C1769 2.984 . S
U1766 C1770 2.847 . S
U1766 C1783 2.882 . S
U1766 O1784 2.441 . S
U1766 O1785 2.420 . S
U1766 O1786 2.455 . S
U1766 O1787 2.449 . S
O1767 U1766 2.454 . S
O1767 C1769 1.353 . S
O1768 U1766 2.458 . S
O1768 C1769 1.286 . S
C1769 U1766 2.984 . S
C1769 O1767 1.353 . S
C1769 O1768 1.286 . S
C1769 C1771 1.363 . S
C1770 C1760 1.465 . S
C1770 U1766 2.847 . S
C1770 O1784 1.249 . S
C1770 O1785 1.202 . S
C1771 C1769 1.363 . S
C1771 C1773 1.408 . S
C1771 C1776 1.342 . S
C1772 C1773 1.310 . S
C1772 C1775 1.461 . S
C1772 H1792 0.932 . S
C1773 C1771 1.408 . S
C1773 C1772 1.310 . S
C1773 H1793 0.930 . S
C1774 C1775 1.474 . S
C1774 C1776 1.285 . S
C1774 H1794 0.929 . S
C1775 C1772 1.461 . S
C1775 C1774 1.474 . S
C1776 C1771 1.342 . S
C1776 C1774 1.285 . S
C1776 H1795 0.930 . S
C1777 C1780 1.424 . S
C1777 C1782 1.245 . S
C1777 C1783 1.428 . S
C1778 C1781 1.260 . S
C1778 C1782 1.477 . S
C1778 H1796 0.932 . S
C1779 C1780 1.384 . S
C1779 C1781 1.479 . S
C1779 H1797 0.929 . S
C1780 C1777 1.424 . S
C1780 C1779 1.384 . S
C1780 H1798 0.928 . S
C1781 C1778 1.260 . S
C1781 C1779 1.479 . S
C1782 C1777 1.245 . S
C1782 C1778 1.477 . S
C1782 H1799 0.932 . S
C1783 U1766 2.882 . S
C1783 C1777 1.428 . S
C1783 O1786 1.301 . S
C1783 O1787 1.282 . S
O1784 U1766 2.441 . S
O1784 C1770 1.249 . S
O1785 U1766 2.420 . S
O1785 C1770 1.202 . S
O1786 U1766 2.455 . S
O1786 C1783 1.301 . S
O1787 U1766 2.449 . S
O1787 C1783 1.282 . S
H1788 C1761 0.931 . S
H1789 C1763 0.929 . S
H1790 C1764 0.930 . S
H1791 C1765 0.931 . S
H1792 C1772 0.932 . S
H1793 C1773 0.930 . S
H1794 C1774 0.929 . S
H1795 C1776 0.930 . S
H1796 C1778 0.932 . S
H1797 C1779 0.929 . S
H1798 C1780 0.928 . S
H1799 C1782 0.932 . S
C1800 C1801 1.264 . S
C1800 C1805 1.479 . S
C1800 C1810 1.465 . S
C1801 C1800 1.264 . S
C1801 C1803 1.339 . S
C1801 H1828 0.931 . S
C1802 C1803 1.395 . S
C1802 C1804 1.320 . S
C1803 C1801 1.339 . S
C1803 C1802 1.395 . S
C1803 H1829 0.929 . S
C1804 C1802 1.320 . S
C1804 C1805 1.405 . S
C1804 H1830 0.930 . S
C1805 C1800 1.479 . S
C1805 C1804 1.405 . S
C1805 H1831 0.931 . S
U1806 O1807 2.454 . S
U1806 O1808 2.458 . S
U1806 C1809 2.984 . S
U1806 C1810 2.847 . S
U1806 C1823 2.882 . S
U1806 O1824 2.441 . S
U1806 O1825 2.420 . S
U1806 O1826 2.455 . S
U1806 O1827 2.449 . S
O1807 U1806 2.454 . S
O1807 C1809 1.353 . S
O1808 U1806 2.458 . S
O1808 C1809 1.286 . S
C1809 U1806 2.984 . S
C1809 O1807 1.353 . S
C1809 O1808 1.286 . S
C1809 C1811 1.363 . S
C1810 C1800 1.465 . S
C1810 U1806 2.847 . S
C1810 O1824 1.249 . S
C1810 O1825 1.202 . S
C1811 C1809 1.363 . S
C1811 C1813 1.408 . S
C1811 C1816 1.342 . S
C1812 C1813 1.310 . S
C1812 C1815 1.461 . S
C1812 H1832 0.932 . S
C1813 C1811 1.408 . S
C1813 C1812 1.310 . S
C1813 H1833 0.930 . S
C1814 C1815 1.474 . S
C1814 C1816 1.285 . S
C1814 H1834 0.929 . S
C1815 C1812 1.461 . S
C1815 C1814 1.474 . S
C1816 C1811 1.342 . S
C1816 C1814 1.285 . S
C1816 H1835 0.930 . S
C1817 C1820 1.424 . S
C1817 C1822 1.245 . S
C1817 C1823 1.428 . S
C1818 C1821 1.260 . S
C1818 C1822 1.477 . S
C1818 H1836 0.932 . S
C1819 C1820 1.384 . S
C1819 C1821 1.479 . S
C1819 H1837 0.929 . S
C1820 C1817 1.424 . S
C1820 C1819 1.384 . S
C1820 H1838 0.928 . S
C1821 C1818 1.260 . S
C1821 C1819 1.479 . S
C1822 C1817 1.245 . S
C1822 C1818 1.477 . S
C1822 H1839 0.932 . S
C1823 U1806 2.882 . S
C1823 C1817 1.428 . S
C1823 O1826 1.301 . S
C1823 O1827 1.282 . S
O1824 U1806 2.441 . S
O1824 C1810 1.249 . S
O1825 U1806 2.420 . S
O1825 C1810 1.202 . S
O1826 U1806 2.455 . S
O1826 C1823 1.301 . S
O1827 U1806 2.449 . S
O1827 C1823 1.282 . S
H1828 C1801 0.931 . S
H1829 C1803 0.929 . S
H1830 C1804 0.930 . S
H1831 C1805 0.931 . S
H1832 C1812 0.932 . S
H1833 C1813 0.930 . S
H1834 C1814 0.929 . S
H1835 C1816 0.930 . S
H1836 C1818 0.932 . S
H1837 C1819 0.929 . S
H1838 C1820 0.928 . S
H1839 C1822 0.932 . S
C1840 C1841 1.264 . S
C1840 C1845 1.479 . S
C1840 C1850 1.465 . S
C1841 C1840 1.264 . S
C1841 C1843 1.339 . S
C1841 H1868 0.931 . S
C1842 C1843 1.395 . S
C1842 C1844 1.320 . S
C1843 C1841 1.339 . S
C1843 C1842 1.395 . S
C1843 H1869 0.929 . S
C1844 C1842 1.320 . S
C1844 C1845 1.405 . S
C1844 H1870 0.930 . S
C1845 C1840 1.479 . S
C1845 C1844 1.405 . S
C1845 H1871 0.931 . S
U1846 O1847 2.454 . S
U1846 O1848 2.458 . S
U1846 C1849 2.984 . S
U1846 C1850 2.847 . S
U1846 C1863 2.882 . S
U1846 O1864 2.441 . S
U1846 O1865 2.420 . S
U1846 O1866 2.455 . S
U1846 O1867 2.449 . S
O1847 U1846 2.454 . S
O1847 C1849 1.353 . S
O1848 U1846 2.458 . S
O1848 C1849 1.286 . S
C1849 U1846 2.984 . S
C1849 O1847 1.353 . S
C1849 O1848 1.286 . S
C1849 C1851 1.363 . S
C1850 C1840 1.465 . S
C1850 U1846 2.847 . S
C1850 O1864 1.249 . S
C1850 O1865 1.202 . S
C1851 C1849 1.363 . S
C1851 C1853 1.408 . S
C1851 C1856 1.342 . S
C1852 C1853 1.310 . S
C1852 C1855 1.461 . S
C1852 H1872 0.932 . S
C1853 C1851 1.408 . S
C1853 C1852 1.310 . S
C1853 H1873 0.930 . S
C1854 C1855 1.474 . S
C1854 C1856 1.285 . S
C1854 H1874 0.929 . S
C1855 C1852 1.461 . S
C1855 C1854 1.474 . S
C1856 C1851 1.342 . S
C1856 C1854 1.285 . S
C1856 H1875 0.930 . S
C1857 C1860 1.424 . S
C1857 C1862 1.245 . S
C1857 C1863 1.428 . S
C1858 C1861 1.260 . S
C1858 C1862 1.477 . S
C1858 H1876 0.932 . S
C1859 C1860 1.384 . S
C1859 C1861 1.479 . S
C1859 H1877 0.929 . S
C1860 C1857 1.424 . S
C1860 C1859 1.384 . S
C1860 H1878 0.928 . S
C1861 C1858 1.260 . S
C1861 C1859 1.479 . S
C1862 C1857 1.245 . S
C1862 C1858 1.477 . S
C1862 H1879 0.932 . S
C1863 U1846 2.882 . S
C1863 C1857 1.428 . S
C1863 O1866 1.301 . S
C1863 O1867 1.282 . S
O1864 U1846 2.441 . S
O1864 C1850 1.249 . S
O1865 U1846 2.420 . S
O1865 C1850 1.202 . S
O1866 U1846 2.455 . S
O1866 C1863 1.301 . S
O1867 U1846 2.449 . S
O1867 C1863 1.282 . S
H1868 C1841 0.931 . S
H1869 C1843 0.929 . S
H1870 C1844 0.930 . S
H1871 C1845 0.931 . S
H1872 C1852 0.932 . S
H1873 C1853 0.930 . S
H1874 C1854 0.929 . S
H1875 C1856 0.930 . S
H1876 C1858 0.932 . S
H1877 C1859 0.929 . S
H1878 C1860 0.928 . S
H1879 C1862 0.932 . S
C1880 C1881 1.264 . S
C1880 C1885 1.479 . S
C1880 C1890 1.465 . S
C1881 C1880 1.264 . S
C1881 C1883 1.339 . S
C1881 H1908 0.931 . S
C1882 C1883 1.395 . S
C1882 C1884 1.320 . S
C1883 C1881 1.339 . S
C1883 C1882 1.395 . S
C1883 H1909 0.929 . S
C1884 C1882 1.320 . S
C1884 C1885 1.405 . S
C1884 H1910 0.930 . S
C1885 C1880 1.479 . S
C1885 C1884 1.405 . S
C1885 H1911 0.931 . S
U1886 O1887 2.454 . S
U1886 O1888 2.458 . S
U1886 C1889 2.984 . S
U1886 C1890 2.847 . S
U1886 C1903 2.882 . S
U1886 O1904 2.441 . S
U1886 O1905 2.420 . S
U1886 O1906 2.455 . S
U1886 O1907 2.449 . S
O1887 U1886 2.454 . S
O1887 C1889 1.353 . S
O1888 U1886 2.458 . S
O1888 C1889 1.286 . S
C1889 U1886 2.984 . S
C1889 O1887 1.353 . S
C1889 O1888 1.286 . S
C1889 C1891 1.363 . S
C1890 C1880 1.465 . S
C1890 U1886 2.847 . S
C1890 O1904 1.249 . S
C1890 O1905 1.202 . S
C1891 C1889 1.363 . S
C1891 C1893 1.408 . S
C1891 C1896 1.342 . S
C1892 C1893 1.310 . S
C1892 C1895 1.461 . S
C1892 H1912 0.932 . S
C1893 C1891 1.408 . S
C1893 C1892 1.310 . S
C1893 H1913 0.930 . S
C1894 C1895 1.474 . S
C1894 C1896 1.285 . S
C1894 H1914 0.929 . S
C1895 C1892 1.461 . S
C1895 C1894 1.474 . S
C1896 C1891 1.342 . S
C1896 C1894 1.285 . S
C1896 H1915 0.930 . S
C1897 C1900 1.424 . S
C1897 C1902 1.245 . S
C1897 C1903 1.428 . S
C1898 C1901 1.260 . S
C1898 C1902 1.477 . S
C1898 H1916 0.932 . S
C1899 C1900 1.384 . S
C1899 C1901 1.479 . S
C1899 H1917 0.929 . S
C1900 C1897 1.424 . S
C1900 C1899 1.384 . S
C1900 H1918 0.928 . S
C1901 C1898 1.260 . S
C1901 C1899 1.479 . S
C1902 C1897 1.245 . S
C1902 C1898 1.477 . S
C1902 H1919 0.932 . S
C1903 U1886 2.882 . S
C1903 C1897 1.428 . S
C1903 O1906 1.301 . S
C1903 O1907 1.282 . S
O1904 U1886 2.441 . S
O1904 C1890 1.249 . S
O1905 U1886 2.420 . S
O1905 C1890 1.202 . S
O1906 U1886 2.455 . S
O1906 C1903 1.301 . S
O1907 U1886 2.449 . S
O1907 C1903 1.282 . S
H1908 C1881 0.931 . S
H1909 C1883 0.929 . S
H1910 C1884 0.930 . S
H1911 C1885 0.931 . S
H1912 C1892 0.932 . S
H1913 C1893 0.930 . S
H1914 C1894 0.929 . S
H1915 C1896 0.930 . S
H1916 C1898 0.932 . S
H1917 C1899 0.929 . S
H1918 C1900 0.928 . S
H1919 C1902 0.932 . S
H1920 C1921 0.949 . S
C1921 H1920 0.949 . S
C1921 C1922 1.395 . S
C1921 C1923 1.391 . S
C1922 C1921 1.395 . S
C1922 C1925 1.390 . S
C1923 C1921 1.391 . S
C1923 C1927 1.387 . S
C1923 C1928 1.491 . S
H1924 C1925 0.950 . S
C1925 C1922 1.390 . S
C1925 H1924 0.950 . S
C1925 C1926 1.378 . S
C1926 C1925 1.378 . S
C1926 C1927 1.409 . S
C1927 C1923 1.387 . S
C1927 C1926 1.409 . S
C1927 H1929 0.951 . S
C1928 C1923 1.491 . S
C1928 C1930 1.382 . S
C1928 C1932 1.404 . S
H1929 C1927 0.951 . S
C1930 C1928 1.382 . S
C1930 C1931 1.390 . S
C1930 H1935 0.949 . S
C1931 C1930 1.390 . S
C1931 C1936 1.399 . S
C1932 C1928 1.404 . S
C1932 H1933 0.950 . S
C1932 C1934 1.375 . S
H1933 C1932 0.950 . S
C1934 C1932 1.375 . S
C1934 C1936 1.382 . S
C1934 H1938 0.950 . S
H1935 C1930 0.949 . S
C1936 C1931 1.399 . S
C1936 C1934 1.382 . S
C1936 H1937 0.952 . S
H1937 C1936 0.952 . S
H1938 C1934 0.950 . S
H1939 C1940 0.949 . S
C1940 H1939 0.949 . S
C1940 C1941 1.395 . S
C1940 C1942 1.391 . S
C1941 C1940 1.395 . S
C1941 C1944 1.390 . S
C1942 C1940 1.391 . S
C1942 C1946 1.387 . S
C1942 C1947 1.491 . S
H1943 C1944 0.950 . S
C1944 C1941 1.390 . S
C1944 H1943 0.950 . S
C1944 C1945 1.378 . S
C1945 C1944 1.378 . S
C1945 C1946 1.409 . S
C1946 C1942 1.387 . S
C1946 C1945 1.409 . S
C1946 H1948 0.951 . S
C1947 C1942 1.491 . S
C1947 C1949 1.382 . S
C1947 C1951 1.404 . S
H1948 C1946 0.951 . S
C1949 C1947 1.382 . S
C1949 C1950 1.390 . S
C1949 H1954 0.949 . S
C1950 C1949 1.390 . S
C1950 C1955 1.399 . S
C1951 C1947 1.404 . S
C1951 H1952 0.950 . S
C1951 C1953 1.375 . S
H1952 C1951 0.950 . S
C1953 C1951 1.375 . S
C1953 C1955 1.382 . S
C1953 H1957 0.950 . S
H1954 C1949 0.949 . S
C1955 C1950 1.399 . S
C1955 C1953 1.382 . S
C1955 H1956 0.952 . S
H1956 C1955 0.952 . S
H1957 C1953 0.950 . S
H1958 C1959 0.949 . S
C1959 H1958 0.949 . S
C1959 C1960 1.395 . S
C1959 C1961 1.391 . S
C1960 C1959 1.395 . S
C1960 C1963 1.390 . S
C1961 C1959 1.391 . S
C1961 C1965 1.387 . S
C1961 C1966 1.491 . S
H1962 C1963 0.950 . S
C1963 C1960 1.390 . S
C1963 H1962 0.950 . S
C1963 C1964 1.378 . S
C1964 C1963 1.378 . S
C1964 C1965 1.409 . S
C1965 C1961 1.387 . S
C1965 C1964 1.409 . S
C1965 H1967 0.951 . S
C1966 C1961 1.491 . S
C1966 C1968 1.382 . S
C1966 C1970 1.404 . S
H1967 C1965 0.951 . S
C1968 C1966 1.382 . S
C1968 C1969 1.390 . S
C1968 H1973 0.949 . S
C1969 C1968 1.390 . S
C1969 C1974 1.399 . S
C1970 C1966 1.404 . S
C1970 H1971 0.950 . S
C1970 C1972 1.375 . S
H1971 C1970 0.950 . S
C1972 C1970 1.375 . S
C1972 C1974 1.382 . S
C1972 H1976 0.950 . S
H1973 C1968 0.949 . S
C1974 C1969 1.399 . S
C1974 C1972 1.382 . S
C1974 H1975 0.952 . S
H1975 C1974 0.952 . S
H1976 C1972 0.950 . S
H1977 C1978 0.949 . S
C1978 H1977 0.949 . S
C1978 C1979 1.395 . S
C1978 C1980 1.391 . S
C1979 C1978 1.395 . S
C1979 C1982 1.390 . S
C1980 C1978 1.391 . S
C1980 C1984 1.387 . S
C1980 C1985 1.491 . S
H1981 C1982 0.950 . S
C1982 C1979 1.390 . S
C1982 H1981 0.950 . S
C1982 C1983 1.378 . S
C1983 C1982 1.378 . S
C1983 C1984 1.409 . S
C1984 C1980 1.387 . S
C1984 C1983 1.409 . S
C1984 H1986 0.951 . S
C1985 C1980 1.491 . S
C1985 C1987 1.382 . S
C1985 C1989 1.404 . S
H1986 C1984 0.951 . S
C1987 C1985 1.382 . S
C1987 C1988 1.390 . S
C1987 H1992 0.949 . S
C1988 C1987 1.390 . S
C1988 C1993 1.399 . S
C1989 C1985 1.404 . S
C1989 H1990 0.950 . S
C1989 C1991 1.375 . S
H1990 C1989 0.950 . S
C1991 C1989 1.375 . S
C1991 C1993 1.382 . S
C1991 H1995 0.950 . S
H1992 C1987 0.949 . S
C1993 C1988 1.399 . S
C1993 C1991 1.382 . S
C1993 H1994 0.952 . S
H1994 C1993 0.952 . S
H1995 C1991 0.950 . S
H1996 C1997 0.949 . S
C1997 H1996 0.949 . S
C1997 C1998 1.395 . S
C1997 C1999 1.391 . S
C1998 C1997 1.395 . S
C1998 C2001 1.390 . S
C1999 C1997 1.391 . S
C1999 C2003 1.387 . S
C1999 C2004 1.491 . S
H2000 C2001 0.950 . S
C2001 C1998 1.390 . S
C2001 H2000 0.950 . S
C2001 C2002 1.378 . S
C2002 C2001 1.378 . S
C2002 C2003 1.409 . S
C2003 C1999 1.387 . S
C2003 C2002 1.409 . S
C2003 H2005 0.951 . S
C2004 C1999 1.491 . S
C2004 C2006 1.382 . S
C2004 C2008 1.404 . S
H2005 C2003 0.951 . S
C2006 C2004 1.382 . S
C2006 C2007 1.390 . S
C2006 H2011 0.949 . S
C2007 C2006 1.390 . S
C2007 C2012 1.399 . S
C2008 C2004 1.404 . S
C2008 H2009 0.950 . S
C2008 C2010 1.375 . S
H2009 C2008 0.950 . S
C2010 C2008 1.375 . S
C2010 C2012 1.382 . S
C2010 H2014 0.950 . S
H2011 C2006 0.949 . S
C2012 C2007 1.399 . S
C2012 C2010 1.382 . S
C2012 H2013 0.952 . S
H2013 C2012 0.952 . S
H2014 C2010 0.950 . S
H2015 C2016 0.949 . S
C2016 H2015 0.949 . S
C2016 C2017 1.395 . S
C2016 C2018 1.391 . S
C2017 C2016 1.395 . S
C2017 C2020 1.390 . S
C2018 C2016 1.391 . S
C2018 C2022 1.387 . S
C2018 C2023 1.491 . S
H2019 C2020 0.950 . S
C2020 C2017 1.390 . S
C2020 H2019 0.950 . S
C2020 C2021 1.378 . S
C2021 C2020 1.378 . S
C2021 C2022 1.409 . S
C2022 C2018 1.387 . S
C2022 C2021 1.409 . S
C2022 H2024 0.951 . S
C2023 C2018 1.491 . S
C2023 C2025 1.382 . S
C2023 C2027 1.404 . S
H2024 C2022 0.951 . S
C2025 C2023 1.382 . S
C2025 C2026 1.390 . S
C2025 H2030 0.949 . S
C2026 C2025 1.390 . S
C2026 C2031 1.399 . S
C2027 C2023 1.404 . S
C2027 H2028 0.950 . S
C2027 C2029 1.375 . S
H2028 C2027 0.950 . S
C2029 C2027 1.375 . S
C2029 C2031 1.382 . S
C2029 H2033 0.950 . S
H2030 C2025 0.949 . S
C2031 C2026 1.399 . S
C2031 C2029 1.382 . S
C2031 H2032 0.952 . S
H2032 C2031 0.952 . S
H2033 C2029 0.950 . S
H2034 C2035 0.949 . S
C2035 H2034 0.949 . S
C2035 C2036 1.395 . S
C2035 C2037 1.391 . S
C2036 C2035 1.395 . S
C2036 C2039 1.390 . S
C2037 C2035 1.391 . S
C2037 C2041 1.387 . S
C2037 C2042 1.491 . S
H2038 C2039 0.950 . S
C2039 C2036 1.390 . S
C2039 H2038 0.950 . S
C2039 C2040 1.378 . S
C2040 C2039 1.378 . S
C2040 C2041 1.409 . S
C2041 C2037 1.387 . S
C2041 C2040 1.409 . S
C2041 H2043 0.951 . S
C2042 C2037 1.491 . S
C2042 C2044 1.382 . S
C2042 C2046 1.404 . S
H2043 C2041 0.951 . S
C2044 C2042 1.382 . S
C2044 C2045 1.390 . S
C2044 H2049 0.949 . S
C2045 C2044 1.390 . S
C2045 C2050 1.399 . S
C2046 C2042 1.404 . S
C2046 H2047 0.950 . S
C2046 C2048 1.375 . S
H2047 C2046 0.950 . S
C2048 C2046 1.375 . S
C2048 C2050 1.382 . S
C2048 H2052 0.950 . S
H2049 C2044 0.949 . S
C2050 C2045 1.399 . S
C2050 C2048 1.382 . S
C2050 H2051 0.952 . S
H2051 C2050 0.952 . S
H2052 C2048 0.950 . S
H2053 C2054 0.949 . S
C2054 H2053 0.949 . S
C2054 C2055 1.395 . S
C2054 C2056 1.391 . S
C2055 C2054 1.395 . S
C2055 C2058 1.390 . S
C2056 C2054 1.391 . S
C2056 C2060 1.387 . S
C2056 C2061 1.491 . S
H2057 C2058 0.950 . S
C2058 C2055 1.390 . S
C2058 H2057 0.950 . S
C2058 C2059 1.378 . S
C2059 C2058 1.378 . S
C2059 C2060 1.409 . S
C2060 C2056 1.387 . S
C2060 C2059 1.409 . S
C2060 H2062 0.951 . S
C2061 C2056 1.491 . S
C2061 C2063 1.382 . S
C2061 C2065 1.404 . S
H2062 C2060 0.951 . S
C2063 C2061 1.382 . S
C2063 C2064 1.390 . S
C2063 H2068 0.949 . S
C2064 C2063 1.390 . S
C2064 C2069 1.399 . S
C2065 C2061 1.404 . S
C2065 H2066 0.950 . S
C2065 C2067 1.375 . S
H2066 C2065 0.950 . S
C2067 C2065 1.375 . S
C2067 C2069 1.382 . S
C2067 H2071 0.950 . S
H2068 C2063 0.949 . S
C2069 C2064 1.399 . S
C2069 C2067 1.382 . S
C2069 H2070 0.952 . S
H2070 C2069 0.952 . S
H2071 C2067 0.950 . S
H2072 C2073 0.949 . S
C2073 H2072 0.949 . S
C2073 C2074 1.395 . S
C2073 C2075 1.391 . S
C2074 C2073 1.395 . S
C2074 C2077 1.390 . S
C2075 C2073 1.391 . S
C2075 C2079 1.387 . S
C2075 C2080 1.491 . S
H2076 C2077 0.950 . S
C2077 C2074 1.390 . S
C2077 H2076 0.950 . S
C2077 C2078 1.378 . S
C2078 C2077 1.378 . S
C2078 C2079 1.409 . S
C2079 C2075 1.387 . S
C2079 C2078 1.409 . S
C2079 H2081 0.951 . S
C2080 C2075 1.491 . S
C2080 C2082 1.382 . S
C2080 C2084 1.404 . S
H2081 C2079 0.951 . S
C2082 C2080 1.382 . S
C2082 C2083 1.390 . S
C2082 H2087 0.949 . S
C2083 C2082 1.390 . S
C2083 C2088 1.399 . S
C2084 C2080 1.404 . S
C2084 H2085 0.950 . S
C2084 C2086 1.375 . S
H2085 C2084 0.950 . S
C2086 C2084 1.375 . S
C2086 C2088 1.382 . S
C2086 H2090 0.950 . S
H2087 C2082 0.949 . S
C2088 C2083 1.399 . S
C2088 C2086 1.382 . S
C2088 H2089 0.952 . S
H2089 C2088 0.952 . S
H2090 C2086 0.950 . S
H2091 C2092 0.949 . S
C2092 H2091 0.949 . S
C2092 C2093 1.395 . S
C2092 C2094 1.391 . S
C2093 C2092 1.395 . S
C2093 C2096 1.390 . S
C2094 C2092 1.391 . S
C2094 C2098 1.387 . S
C2094 C2099 1.491 . S
H2095 C2096 0.950 . S
C2096 C2093 1.390 . S
C2096 H2095 0.950 . S
C2096 C2097 1.378 . S
C2097 C2096 1.378 . S
C2097 C2098 1.409 . S
C2098 C2094 1.387 . S
C2098 C2097 1.409 . S
C2098 H2100 0.951 . S
C2099 C2094 1.491 . S
C2099 C2101 1.382 . S
C2099 C2103 1.404 . S
H2100 C2098 0.951 . S
C2101 C2099 1.382 . S
C2101 C2102 1.390 . S
C2101 H2106 0.949 . S
C2102 C2101 1.390 . S
C2102 C2107 1.399 . S
C2103 C2099 1.404 . S
C2103 H2104 0.950 . S
C2103 C2105 1.375 . S
H2104 C2103 0.950 . S
C2105 C2103 1.375 . S
C2105 C2107 1.382 . S
C2105 H2109 0.950 . S
H2106 C2101 0.949 . S
C2107 C2102 1.399 . S
C2107 C2105 1.382 . S
C2107 H2108 0.952 . S
H2108 C2107 0.952 . S
H2109 C2105 0.950 . S
H2110 C2111 0.949 . S
C2111 H2110 0.949 . S
C2111 C2112 1.395 . S
C2111 C2113 1.391 . S
C2112 C2111 1.395 . S
C2112 C2115 1.390 . S
C2113 C2111 1.391 . S
C2113 C2117 1.387 . S
C2113 C2118 1.491 . S
H2114 C2115 0.950 . S
C2115 C2112 1.390 . S
C2115 H2114 0.950 . S
C2115 C2116 1.378 . S
C2116 C2115 1.378 . S
C2116 C2117 1.409 . S
C2117 C2113 1.387 . S
C2117 C2116 1.409 . S
C2117 H2119 0.951 . S
C2118 C2113 1.491 . S
C2118 C2120 1.382 . S
C2118 C2122 1.404 . S
H2119 C2117 0.951 . S
C2120 C2118 1.382 . S
C2120 C2121 1.390 . S
C2120 H2125 0.949 . S
C2121 C2120 1.390 . S
C2121 C2126 1.399 . S
C2122 C2118 1.404 . S
C2122 H2123 0.950 . S
C2122 C2124 1.375 . S
H2123 C2122 0.950 . S
C2124 C2122 1.375 . S
C2124 C2126 1.382 . S
C2124 H2128 0.950 . S
H2125 C2120 0.949 . S
C2126 C2121 1.399 . S
C2126 C2124 1.382 . S
C2126 H2127 0.952 . S
H2127 C2126 0.952 . S
H2128 C2124 0.950 . S
H2129 C2130 0.949 . S
C2130 H2129 0.949 . S
C2130 C2131 1.395 . S
C2130 C2132 1.391 . S
C2131 C2130 1.395 . S
C2131 C2134 1.390 . S
C2132 C2130 1.391 . S
C2132 C2136 1.387 . S
C2132 C2137 1.491 . S
H2133 C2134 0.950 . S
C2134 C2131 1.390 . S
C2134 H2133 0.950 . S
C2134 C2135 1.378 . S
C2135 C2134 1.378 . S
C2135 C2136 1.409 . S
C2136 C2132 1.387 . S
C2136 C2135 1.409 . S
C2136 H2138 0.951 . S
C2137 C2132 1.491 . S
C2137 C2139 1.382 . S
C2137 C2141 1.404 . S
H2138 C2136 0.951 . S
C2139 C2137 1.382 . S
C2139 C2140 1.390 . S
C2139 H2144 0.949 . S
C2140 C2139 1.390 . S
C2140 C2145 1.399 . S
C2141 C2137 1.404 . S
C2141 H2142 0.950 . S
C2141 C2143 1.375 . S
H2142 C2141 0.950 . S
C2143 C2141 1.375 . S
C2143 C2145 1.382 . S
C2143 H2147 0.950 . S
H2144 C2139 0.949 . S
C2145 C2140 1.399 . S
C2145 C2143 1.382 . S
C2145 H2146 0.952 . S
H2146 C2145 0.952 . S
H2147 C2143 0.950 . S
H2148 C2149 0.949 . S
C2149 H2148 0.949 . S
C2149 C2150 1.395 . S
C2149 C2151 1.391 . S
C2150 C2149 1.395 . S
C2150 C2153 1.390 . S
C2151 C2149 1.391 . S
C2151 C2155 1.387 . S
C2151 C2156 1.491 . S
H2152 C2153 0.950 . S
C2153 C2150 1.390 . S
C2153 H2152 0.950 . S
C2153 C2154 1.378 . S
C2154 C2153 1.378 . S
C2154 C2155 1.409 . S
C2155 C2151 1.387 . S
C2155 C2154 1.409 . S
C2155 H2157 0.951 . S
C2156 C2151 1.491 . S
C2156 C2158 1.382 . S
C2156 C2160 1.404 . S
H2157 C2155 0.951 . S
C2158 C2156 1.382 . S
C2158 C2159 1.390 . S
C2158 H2163 0.949 . S
C2159 C2158 1.390 . S
C2159 C2164 1.399 . S
C2160 C2156 1.404 . S
C2160 H2161 0.950 . S
C2160 C2162 1.375 . S
H2161 C2160 0.950 . S
C2162 C2160 1.375 . S
C2162 C2164 1.382 . S
C2162 H2166 0.950 . S
H2163 C2158 0.949 . S
C2164 C2159 1.399 . S
C2164 C2162 1.382 . S
C2164 H2165 0.952 . S
H2165 C2164 0.952 . S
H2166 C2162 0.950 . S
H2167 C2168 0.949 . S
C2168 H2167 0.949 . S
C2168 C2169 1.395 . S
C2168 C2170 1.391 . S
C2169 C2168 1.395 . S
C2169 C2172 1.390 . S
C2170 C2168 1.391 . S
C2170 C2174 1.387 . S
C2170 C2175 1.491 . S
H2171 C2172 0.950 . S
C2172 C2169 1.390 . S
C2172 H2171 0.950 . S
C2172 C2173 1.378 . S
C2173 C2172 1.378 . S
C2173 C2174 1.409 . S
C2174 C2170 1.387 . S
C2174 C2173 1.409 . S
C2174 H2176 0.951 . S
C2175 C2170 1.491 . S
C2175 C2177 1.382 . S
C2175 C2179 1.404 . S
H2176 C2174 0.951 . S
C2177 C2175 1.382 . S
C2177 C2178 1.390 . S
C2177 H2182 0.949 . S
C2178 C2177 1.390 . S
C2178 C2183 1.399 . S
C2179 C2175 1.404 . S
C2179 H2180 0.950 . S
C2179 C2181 1.375 . S
H2180 C2179 0.950 . S
C2181 C2179 1.375 . S
C2181 C2183 1.382 . S
C2181 H2185 0.950 . S
H2182 C2177 0.949 . S
C2183 C2178 1.399 . S
C2183 C2181 1.382 . S
C2183 H2184 0.952 . S
H2184 C2183 0.952 . S
H2185 C2181 0.950 . S
H2186 C2187 0.949 . S
C2187 H2186 0.949 . S
C2187 C2188 1.395 . S
C2187 C2189 1.391 . S
C2188 C2187 1.395 . S
C2188 C2191 1.390 . S
C2189 C2187 1.391 . S
C2189 C2193 1.387 . S
C2189 C2194 1.491 . S
H2190 C2191 0.950 . S
C2191 C2188 1.390 . S
C2191 H2190 0.950 . S
C2191 C2192 1.378 . S
C2192 C2191 1.378 . S
C2192 C2193 1.409 . S
C2193 C2189 1.387 . S
C2193 C2192 1.409 . S
C2193 H2195 0.951 . S
C2194 C2189 1.491 . S
C2194 C2196 1.382 . S
C2194 C2198 1.404 . S
H2195 C2193 0.951 . S
C2196 C2194 1.382 . S
C2196 C2197 1.390 . S
C2196 H2201 0.949 . S
C2197 C2196 1.390 . S
C2197 C2202 1.399 . S
C2198 C2194 1.404 . S
C2198 H2199 0.950 . S
C2198 C2200 1.375 . S
H2199 C2198 0.950 . S
C2200 C2198 1.375 . S
C2200 C2202 1.382 . S
C2200 H2204 0.950 . S
H2201 C2196 0.949 . S
C2202 C2197 1.399 . S
C2202 C2200 1.382 . S
C2202 H2203 0.952 . S
H2203 C2202 0.952 . S
H2204 C2200 0.950 . S
H2205 C2206 0.949 . S
C2206 H2205 0.949 . S
C2206 C2207 1.395 . S
C2206 C2208 1.391 . S
C2207 C2206 1.395 . S
C2207 C2210 1.390 . S
C2208 C2206 1.391 . S
C2208 C2212 1.387 . S
C2208 C2213 1.491 . S
H2209 C2210 0.950 . S
C2210 C2207 1.390 . S
C2210 H2209 0.950 . S
C2210 C2211 1.378 . S
C2211 C2210 1.378 . S
C2211 C2212 1.409 . S
C2212 C2208 1.387 . S
C2212 C2211 1.409 . S
C2212 H2214 0.951 . S
C2213 C2208 1.491 . S
C2213 C2215 1.382 . S
C2213 C2217 1.404 . S
H2214 C2212 0.951 . S
C2215 C2213 1.382 . S
C2215 C2216 1.390 . S
C2215 H2220 0.949 . S
C2216 C2215 1.390 . S
C2216 C2221 1.399 . S
C2217 C2213 1.404 . S
C2217 H2218 0.950 . S
C2217 C2219 1.375 . S
H2218 C2217 0.950 . S
C2219 C2217 1.375 . S
C2219 C2221 1.382 . S
C2219 H2223 0.950 . S
H2220 C2215 0.949 . S
C2221 C2216 1.399 . S
C2221 C2219 1.382 . S
C2221 H2222 0.952 . S
H2222 C2221 0.952 . S
H2223 C2219 0.950 . S
H2224 C2225 0.949 . S
C2225 H2224 0.949 . S
C2225 C2226 1.395 . S
C2225 C2227 1.391 . S
C2226 C2225 1.395 . S
C2226 C2229 1.390 . S
C2227 C2225 1.391 . S
C2227 C2231 1.387 . S
C2227 C2232 1.491 . S
H2228 C2229 0.950 . S
C2229 C2226 1.390 . S
C2229 H2228 0.950 . S
C2229 C2230 1.378 . S
C2230 C2229 1.378 . S
C2230 C2231 1.409 . S
C2231 C2227 1.387 . S
C2231 C2230 1.409 . S
C2231 H2233 0.951 . S
C2232 C2227 1.491 . S
C2232 C2234 1.382 . S
C2232 C2236 1.404 . S
H2233 C2231 0.951 . S
C2234 C2232 1.382 . S
C2234 C2235 1.390 . S
C2234 H2239 0.949 . S
C2235 C2234 1.390 . S
C2235 C2240 1.399 . S
C2236 C2232 1.404 . S
C2236 H2237 0.950 . S
C2236 C2238 1.375 . S
H2237 C2236 0.950 . S
C2238 C2236 1.375 . S
C2238 C2240 1.382 . S
C2238 H2242 0.950 . S
H2239 C2234 0.949 . S
C2240 C2235 1.399 . S
C2240 C2238 1.382 . S
C2240 H2241 0.952 . S
H2241 C2240 0.952 . S
H2242 C2238 0.950 . S
H2243 C2244 0.949 . S
C2244 H2243 0.949 . S
C2244 C2245 1.395 . S
C2244 C2246 1.391 . S
C2245 C2244 1.395 . S
C2245 C2248 1.390 . S
C2246 C2244 1.391 . S
C2246 C2250 1.387 . S
C2246 C2251 1.491 . S
H2247 C2248 0.950 . S
C2248 C2245 1.390 . S
C2248 H2247 0.950 . S
C2248 C2249 1.378 . S
C2249 C2248 1.378 . S
C2249 C2250 1.409 . S
C2250 C2246 1.387 . S
C2250 C2249 1.409 . S
C2250 H2252 0.951 . S
C2251 C2246 1.491 . S
C2251 C2253 1.382 . S
C2251 C2255 1.404 . S
H2252 C2250 0.951 . S
C2253 C2251 1.382 . S
C2253 C2254 1.390 . S
C2253 H2258 0.949 . S
C2254 C2253 1.390 . S
C2254 C2259 1.399 . S
C2255 C2251 1.404 . S
C2255 H2256 0.950 . S
C2255 C2257 1.375 . S
H2256 C2255 0.950 . S
C2257 C2255 1.375 . S
C2257 C2259 1.382 . S
C2257 H2261 0.950 . S
H2258 C2253 0.949 . S
C2259 C2254 1.399 . S
C2259 C2257 1.382 . S
C2259 H2260 0.952 . S
H2260 C2259 0.952 . S
H2261 C2257 0.950 . S
H2262 C2263 0.949 . S
C2263 H2262 0.949 . S
C2263 C2264 1.395 . S
C2263 C2265 1.391 . S
C2264 C2263 1.395 . S
C2264 C2267 1.390 . S
C2265 C2263 1.391 . S
C2265 C2269 1.387 . S
C2265 C2270 1.491 . S
H2266 C2267 0.950 . S
C2267 C2264 1.390 . S
C2267 H2266 0.950 . S
C2267 C2268 1.378 . S
C2268 C2267 1.378 . S
C2268 C2269 1.409 . S
C2269 C2265 1.387 . S
C2269 C2268 1.409 . S
C2269 H2271 0.951 . S
C2270 C2265 1.491 . S
C2270 C2272 1.382 . S
C2270 C2274 1.404 . S
H2271 C2269 0.951 . S
C2272 C2270 1.382 . S
C2272 C2273 1.390 . S
C2272 H2277 0.949 . S
C2273 C2272 1.390 . S
C2273 C2278 1.399 . S
C2274 C2270 1.404 . S
C2274 H2275 0.950 . S
C2274 C2276 1.375 . S
H2275 C2274 0.950 . S
C2276 C2274 1.375 . S
C2276 C2278 1.382 . S
C2276 H2280 0.950 . S
H2277 C2272 0.949 . S
C2278 C2273 1.399 . S
C2278 C2276 1.382 . S
C2278 H2279 0.952 . S
H2279 C2278 0.952 . S
H2280 C2276 0.950 . S
H2281 C2282 0.949 . S
C2282 H2281 0.949 . S
C2282 C2283 1.395 . S
C2282 C2284 1.391 . S
C2283 C2282 1.395 . S
C2283 C2286 1.390 . S
C2284 C2282 1.391 . S
C2284 C2288 1.387 . S
C2284 C2289 1.491 . S
H2285 C2286 0.950 . S
C2286 C2283 1.390 . S
C2286 H2285 0.950 . S
C2286 C2287 1.378 . S
C2287 C2286 1.378 . S
C2287 C2288 1.409 . S
C2288 C2284 1.387 . S
C2288 C2287 1.409 . S
C2288 H2290 0.951 . S
C2289 C2284 1.491 . S
C2289 C2291 1.382 . S
C2289 C2293 1.404 . S
H2290 C2288 0.951 . S
C2291 C2289 1.382 . S
C2291 C2292 1.390 . S
C2291 H2296 0.949 . S
C2292 C2291 1.390 . S
C2292 C2297 1.399 . S
C2293 C2289 1.404 . S
C2293 H2294 0.950 . S
C2293 C2295 1.375 . S
H2294 C2293 0.950 . S
C2295 C2293 1.375 . S
C2295 C2297 1.382 . S
C2295 H2299 0.950 . S
H2296 C2291 0.949 . S
C2297 C2292 1.399 . S
C2297 C2295 1.382 . S
C2297 H2298 0.952 . S
H2298 C2297 0.952 . S
H2299 C2295 0.950 . S
H2300 C2301 0.949 . S
C2301 H2300 0.949 . S
C2301 C2302 1.395 . S
C2301 C2303 1.391 . S
C2302 C2301 1.395 . S
C2302 C2305 1.390 . S
C2303 C2301 1.391 . S
C2303 C2307 1.387 . S
C2303 C2308 1.491 . S
H2304 C2305 0.950 . S
C2305 C2302 1.390 . S
C2305 H2304 0.950 . S
C2305 C2306 1.378 . S
C2306 C2305 1.378 . S
C2306 C2307 1.409 . S
C2307 C2303 1.387 . S
C2307 C2306 1.409 . S
C2307 H2309 0.951 . S
C2308 C2303 1.491 . S
C2308 C2310 1.382 . S
C2308 C2312 1.404 . S
H2309 C2307 0.951 . S
C2310 C2308 1.382 . S
C2310 C2311 1.390 . S
C2310 H2315 0.949 . S
C2311 C2310 1.390 . S
C2311 C2316 1.399 . S
C2312 C2308 1.404 . S
C2312 H2313 0.950 . S
C2312 C2314 1.375 . S
H2313 C2312 0.950 . S
C2314 C2312 1.375 . S
C2314 C2316 1.382 . S
C2314 H2318 0.950 . S
H2315 C2310 0.949 . S
C2316 C2311 1.399 . S
C2316 C2314 1.382 . S
C2316 H2317 0.952 . S
H2317 C2316 0.952 . S
H2318 C2314 0.950 . S
H2319 C2320 0.949 . S
C2320 H2319 0.949 . S
C2320 C2321 1.395 . S
C2320 C2322 1.391 . S
C2321 C2320 1.395 . S
C2321 C2324 1.390 . S
C2322 C2320 1.391 . S
C2322 C2326 1.387 . S
C2322 C2327 1.491 . S
H2323 C2324 0.950 . S
C2324 C2321 1.390 . S
C2324 H2323 0.950 . S
C2324 C2325 1.378 . S
C2325 C2324 1.378 . S
C2325 C2326 1.409 . S
C2326 C2322 1.387 . S
C2326 C2325 1.409 . S
C2326 H2328 0.951 . S
C2327 C2322 1.491 . S
C2327 C2329 1.382 . S
C2327 C2331 1.404 . S
H2328 C2326 0.951 . S
C2329 C2327 1.382 . S
C2329 C2330 1.390 . S
C2329 H2334 0.949 . S
C2330 C2329 1.390 . S
C2330 C2335 1.399 . S
C2331 C2327 1.404 . S
C2331 H2332 0.950 . S
C2331 C2333 1.375 . S
H2332 C2331 0.950 . S
C2333 C2331 1.375 . S
C2333 C2335 1.382 . S
C2333 H2337 0.950 . S
H2334 C2329 0.949 . S
C2335 C2330 1.399 . S
C2335 C2333 1.382 . S
C2335 H2336 0.952 . S
H2336 C2335 0.952 . S
H2337 C2333 0.950 . S
H2338 C2339 0.949 . S
C2339 H2338 0.949 . S
C2339 C2340 1.395 . S
C2339 C2341 1.391 . S
C2340 C2339 1.395 . S
C2340 C2343 1.390 . S
C2341 C2339 1.391 . S
C2341 C2345 1.387 . S
C2341 C2346 1.491 . S
H2342 C2343 0.950 . S
C2343 C2340 1.390 . S
C2343 H2342 0.950 . S
C2343 C2344 1.378 . S
C2344 C2343 1.378 . S
C2344 C2345 1.409 . S
C2345 C2341 1.387 . S
C2345 C2344 1.409 . S
C2345 H2347 0.951 . S
C2346 C2341 1.491 . S
C2346 C2348 1.382 . S
C2346 C2350 1.404 . S
H2347 C2345 0.951 . S
C2348 C2346 1.382 . S
C2348 C2349 1.390 . S
C2348 H2353 0.949 . S
C2349 C2348 1.390 . S
C2349 C2354 1.399 . S
C2350 C2346 1.404 . S
C2350 H2351 0.950 . S
C2350 C2352 1.375 . S
H2351 C2350 0.950 . S
C2352 C2350 1.375 . S
C2352 C2354 1.382 . S
C2352 H2356 0.950 . S
H2353 C2348 0.949 . S
C2354 C2349 1.399 . S
C2354 C2352 1.382 . S
C2354 H2355 0.952 . S
H2355 C2354 0.952 . S
H2356 C2352 0.950 . S
H2357 C2358 0.949 . S
C2358 H2357 0.949 . S
C2358 C2359 1.395 . S
C2358 C2360 1.391 . S
C2359 C2358 1.395 . S
C2359 C2362 1.390 . S
C2360 C2358 1.391 . S
C2360 C2364 1.387 . S
C2360 C2365 1.491 . S
H2361 C2362 0.950 . S
C2362 C2359 1.390 . S
C2362 H2361 0.950 . S
C2362 C2363 1.378 . S
C2363 C2362 1.378 . S
C2363 C2364 1.409 . S
C2364 C2360 1.387 . S
C2364 C2363 1.409 . S
C2364 H2366 0.951 . S
C2365 C2360 1.491 . S
C2365 C2367 1.382 . S
C2365 C2369 1.404 . S
H2366 C2364 0.951 . S
C2367 C2365 1.382 . S
C2367 C2368 1.390 . S
C2367 H2372 0.949 . S
C2368 C2367 1.390 . S
C2368 C2373 1.399 . S
C2369 C2365 1.404 . S
C2369 H2370 0.950 . S
C2369 C2371 1.375 . S
H2370 C2369 0.950 . S
C2371 C2369 1.375 . S
C2371 C2373 1.382 . S
C2371 H2375 0.950 . S
H2372 C2367 0.949 . S
C2373 C2368 1.399 . S
C2373 C2371 1.382 . S
C2373 H2374 0.952 . S
H2374 C2373 0.952 . S
H2375 C2371 0.950 . S
H2376 C2377 0.949 . S
C2377 H2376 0.949 . S
C2377 C2378 1.395 . S
C2377 C2379 1.391 . S
C2378 C2377 1.395 . S
C2378 C2381 1.390 . S
C2379 C2377 1.391 . S
C2379 C2383 1.387 . S
C2379 C2384 1.491 . S
H2380 C2381 0.950 . S
C2381 C2378 1.390 . S
C2381 H2380 0.950 . S
C2381 C2382 1.378 . S
C2382 C2381 1.378 . S
C2382 C2383 1.409 . S
C2383 C2379 1.387 . S
C2383 C2382 1.409 . S
C2383 H2385 0.951 . S
C2384 C2379 1.491 . S
C2384 C2386 1.382 . S
C2384 C2388 1.404 . S
H2385 C2383 0.951 . S
C2386 C2384 1.382 . S
C2386 C2387 1.390 . S
C2386 H2391 0.949 . S
C2387 C2386 1.390 . S
C2387 C2392 1.399 . S
C2388 C2384 1.404 . S
C2388 H2389 0.950 . S
C2388 C2390 1.375 . S
H2389 C2388 0.950 . S
C2390 C2388 1.375 . S
C2390 C2392 1.382 . S
C2390 H2394 0.950 . S
H2391 C2386 0.949 . S
C2392 C2387 1.399 . S
C2392 C2390 1.382 . S
C2392 H2393 0.952 . S
H2393 C2392 0.952 . S
H2394 C2390 0.950 . S
H2395 C2396 0.949 . S
C2396 H2395 0.949 . S
C2396 C2397 1.395 . S
C2396 C2398 1.391 . S
C2397 C2396 1.395 . S
C2397 C2400 1.390 . S
C2398 C2396 1.391 . S
C2398 C2402 1.387 . S
C2398 C2403 1.491 . S
H2399 C2400 0.950 . S
C2400 C2397 1.390 . S
C2400 H2399 0.950 . S
C2400 C2401 1.378 . S
C2401 C2400 1.378 . S
C2401 C2402 1.409 . S
C2402 C2398 1.387 . S
C2402 C2401 1.409 . S
C2402 H2404 0.951 . S
C2403 C2398 1.491 . S
C2403 C2405 1.382 . S
C2403 C2407 1.404 . S
H2404 C2402 0.951 . S
C2405 C2403 1.382 . S
C2405 C2406 1.390 . S
C2405 H2410 0.949 . S
C2406 C2405 1.390 . S
C2406 C2411 1.399 . S
C2407 C2403 1.404 . S
C2407 H2408 0.950 . S
C2407 C2409 1.375 . S
H2408 C2407 0.950 . S
C2409 C2407 1.375 . S
C2409 C2411 1.382 . S
C2409 H2413 0.950 . S
H2410 C2405 0.949 . S
C2411 C2406 1.399 . S
C2411 C2409 1.382 . S
C2411 H2412 0.952 . S
H2412 C2411 0.952 . S
H2413 C2409 0.950 . S
H2414 C2415 0.949 . S
C2415 H2414 0.949 . S
C2415 C2416 1.395 . S
C2415 C2417 1.391 . S
C2416 C2415 1.395 . S
C2416 C2419 1.390 . S
C2417 C2415 1.391 . S
C2417 C2421 1.387 . S
C2417 C2422 1.491 . S
H2418 C2419 0.950 . S
C2419 C2416 1.390 . S
C2419 H2418 0.950 . S
C2419 C2420 1.378 . S
C2420 C2419 1.378 . S
C2420 C2421 1.409 . S
C2421 C2417 1.387 . S
C2421 C2420 1.409 . S
C2421 H2423 0.951 . S
C2422 C2417 1.491 . S
C2422 C2424 1.382 . S
C2422 C2426 1.404 . S
H2423 C2421 0.951 . S
C2424 C2422 1.382 . S
C2424 C2425 1.390 . S
C2424 H2429 0.949 . S
C2425 C2424 1.390 . S
C2425 C2430 1.399 . S
C2426 C2422 1.404 . S
C2426 H2427 0.950 . S
C2426 C2428 1.375 . S
H2427 C2426 0.950 . S
C2428 C2426 1.375 . S
C2428 C2430 1.382 . S
C2428 H2432 0.950 . S
H2429 C2424 0.949 . S
C2430 C2425 1.399 . S
C2430 C2428 1.382 . S
C2430 H2431 0.952 . S
H2431 C2430 0.952 . S
H2432 C2428 0.950 . S
H2433 C2434 0.949 . S
C2434 H2433 0.949 . S
C2434 C2435 1.395 . S
C2434 C2436 1.391 . S
C2435 C2434 1.395 . S
C2435 C2438 1.390 . S
C2436 C2434 1.391 . S
C2436 C2440 1.387 . S
C2436 C2441 1.491 . S
H2437 C2438 0.950 . S
C2438 C2435 1.390 . S
C2438 H2437 0.950 . S
C2438 C2439 1.378 . S
C2439 C2438 1.378 . S
C2439 C2440 1.409 . S
C2440 C2436 1.387 . S
C2440 C2439 1.409 . S
C2440 H2442 0.951 . S
C2441 C2436 1.491 . S
C2441 C2443 1.382 . S
C2441 C2445 1.404 . S
H2442 C2440 0.951 . S
C2443 C2441 1.382 . S
C2443 C2444 1.390 . S
C2443 H2448 0.949 . S
C2444 C2443 1.390 . S
C2444 C2449 1.399 . S
C2445 C2441 1.404 . S
C2445 H2446 0.950 . S
C2445 C2447 1.375 . S
H2446 C2445 0.950 . S
C2447 C2445 1.375 . S
C2447 C2449 1.382 . S
C2447 H2451 0.950 . S
H2448 C2443 0.949 . S
C2449 C2444 1.399 . S
C2449 C2447 1.382 . S
C2449 H2450 0.952 . S
H2450 C2449 0.952 . S
H2451 C2447 0.950 . S
H2452 C2453 0.949 . S
C2453 H2452 0.949 . S
C2453 C2454 1.395 . S
C2453 C2455 1.391 . S
C2454 C2453 1.395 . S
C2454 C2457 1.390 . S
C2455 C2453 1.391 . S
C2455 C2459 1.387 . S
C2455 C2460 1.491 . S
H2456 C2457 0.950 . S
C2457 C2454 1.390 . S
C2457 H2456 0.950 . S
C2457 C2458 1.378 . S
C2458 C2457 1.378 . S
C2458 C2459 1.409 . S
C2459 C2455 1.387 . S
C2459 C2458 1.409 . S
C2459 H2461 0.951 . S
C2460 C2455 1.491 . S
C2460 C2462 1.382 . S
C2460 C2464 1.404 . S
H2461 C2459 0.951 . S
C2462 C2460 1.382 . S
C2462 C2463 1.390 . S
C2462 H2467 0.949 . S
C2463 C2462 1.390 . S
C2463 C2468 1.399 . S
C2464 C2460 1.404 . S
C2464 H2465 0.950 . S
C2464 C2466 1.375 . S
H2465 C2464 0.950 . S
C2466 C2464 1.375 . S
C2466 C2468 1.382 . S
C2466 H2470 0.950 . S
H2467 C2462 0.949 . S
C2468 C2463 1.399 . S
C2468 C2466 1.382 . S
C2468 H2469 0.952 . S
H2469 C2468 0.952 . S
H2470 C2466 0.950 . S
H2471 C2472 0.949 . S
C2472 H2471 0.949 . S
C2472 C2473 1.395 . S
C2472 C2474 1.391 . S
C2473 C2472 1.395 . S
C2473 C2476 1.390 . S
C2474 C2472 1.391 . S
C2474 C2478 1.387 . S
C2474 C2479 1.491 . S
H2475 C2476 0.950 . S
C2476 C2473 1.390 . S
C2476 H2475 0.950 . S
C2476 C2477 1.378 . S
C2477 C2476 1.378 . S
C2477 C2478 1.409 . S
C2478 C2474 1.387 . S
C2478 C2477 1.409 . S
C2478 H2480 0.951 . S
C2479 C2474 1.491 . S
C2479 C2481 1.382 . S
C2479 C2483 1.404 1_565 S
H2480 C2478 0.951 . S
C2481 C2479 1.382 . S
C2481 C2482 1.385 1_565 S
C2481 H2486 0.949 . S
C2482 C2481 1.385 1_545 S
C2482 C2487 1.403 . S
C2483 C2479 1.404 1_545 S
C2483 H2484 0.950 . S
C2483 C2485 1.375 . S
H2484 C2483 0.950 . S
C2485 C2483 1.375 . S
C2485 C2487 1.382 . S
C2485 H2489 0.950 . S
H2486 C2481 0.949 . S
C2487 C2482 1.403 . S
C2487 C2485 1.382 . S
C2487 H2488 0.952 . S
H2488 C2487 0.952 . S
H2489 C2485 0.950 . S
H2490 C2491 0.949 . S
C2491 H2490 0.949 . S
C2491 C2492 1.395 . S
C2491 C2493 1.391 . S
C2492 C2491 1.395 . S
C2492 C2495 1.390 . S
C2493 C2491 1.391 . S
C2493 C2497 1.387 . S
C2493 C2498 1.491 . S
H2494 C2495 0.950 . S
C2495 C2492 1.390 . S
C2495 H2494 0.950 . S
C2495 C2496 1.378 . S
C2496 C2495 1.378 . S
C2496 C2497 1.409 . S
C2497 C2493 1.387 . S
C2497 C2496 1.409 . S
C2497 H2499 0.951 . S
C2498 C2493 1.491 . S
C2498 C2500 1.382 . S
C2498 C2502 1.404 . S
H2499 C2497 0.951 . S
C2500 C2498 1.382 . S
C2500 C2501 1.390 . S
C2500 H2505 0.949 . S
C2501 C2500 1.390 . S
C2501 C2506 1.399 . S
C2502 C2498 1.404 . S
C2502 H2503 0.950 . S
C2502 C2504 1.375 . S
H2503 C2502 0.950 . S
C2504 C2502 1.375 . S
C2504 C2506 1.382 . S
C2504 H2508 0.950 . S
H2505 C2500 0.949 . S
C2506 C2501 1.399 . S
C2506 C2504 1.382 . S
C2506 H2507 0.952 . S
H2507 C2506 0.952 . S
H2508 C2504 0.950 . S
H2509 C2510 0.949 . S
C2510 H2509 0.949 . S
C2510 C2511 1.395 . S
C2510 C2512 1.391 . S
C2511 C2510 1.395 . S
C2511 C2514 1.390 . S
C2512 C2510 1.391 . S
C2512 C2516 1.387 . S
C2512 C2517 1.491 . S
H2513 C2514 0.950 . S
C2514 C2511 1.390 . S
C2514 H2513 0.950 . S
C2514 C2515 1.378 . S
C2515 C2514 1.378 . S
C2515 C2516 1.409 . S
C2516 C2512 1.387 . S
C2516 C2515 1.409 . S
C2516 H2518 0.951 . S
C2517 C2512 1.491 . S
C2517 C2519 1.382 . S
C2517 C2521 1.404 1_545 S
H2518 C2516 0.951 . S
C2519 C2517 1.382 . S
C2519 C2520 1.400 . S
C2519 H2524 0.949 . S
C2520 C2519 1.400 . S
C2520 C2525 1.392 1_545 S
C2521 C2517 1.404 1_565 S
C2521 H2522 0.950 . S
C2521 C2523 1.375 . S
H2522 C2521 0.950 . S
C2523 C2521 1.375 . S
C2523 C2525 1.382 . S
C2523 H2527 0.950 . S
H2524 C2519 0.949 . S
C2525 C2520 1.392 1_565 S
C2525 C2523 1.382 . S
C2525 H2526 0.952 . S
H2526 C2525 0.952 . S
H2527 C2523 0.950 . S
H2528 C2529 0.949 . S
C2529 H2528 0.949 . S
C2529 C2530 1.395 . S
C2529 C2531 1.391 . S
C2530 C2529 1.395 . S
C2530 C2533 1.390 . S
C2531 C2529 1.391 . S
C2531 C2535 1.387 . S
C2531 C2536 1.491 . S
H2532 C2533 0.950 . S
C2533 C2530 1.390 . S
C2533 H2532 0.950 . S
C2533 C2534 1.378 . S
C2534 C2533 1.378 . S
C2534 C2535 1.409 . S
C2535 C2531 1.387 . S
C2535 C2534 1.409 . S
C2535 H2537 0.951 . S
C2536 C2531 1.491 . S
C2536 C2538 1.382 . S
C2536 C2540 1.404 . S
H2537 C2535 0.951 . S
C2538 C2536 1.382 . S
C2538 C2539 1.390 . S
C2538 H2543 0.949 . S
C2539 C2538 1.390 . S
C2539 C2544 1.399 . S
C2540 C2536 1.404 . S
C2540 H2541 0.950 . S
C2540 C2542 1.375 . S
H2541 C2540 0.950 . S
C2542 C2540 1.375 . S
C2542 C2544 1.382 . S
C2542 H2546 0.950 . S
H2543 C2538 0.949 . S
C2544 C2539 1.399 . S
C2544 C2542 1.382 . S
C2544 H2545 0.952 . S
H2545 C2544 0.952 . S
H2546 C2542 0.950 . S
H2547 C2548 0.949 . S
C2548 H2547 0.949 . S
C2548 C2549 1.395 . S
C2548 C2550 1.391 . S
C2549 C2548 1.395 . S
C2549 C2552 1.390 . S
C2550 C2548 1.391 . S
C2550 C2554 1.387 . S
C2550 C2555 1.491 . S
H2551 C2552 0.950 . S
C2552 C2549 1.390 . S
C2552 H2551 0.950 . S
C2552 C2553 1.378 . S
C2553 C2552 1.378 . S
C2553 C2554 1.409 . S
C2554 C2550 1.387 . S
C2554 C2553 1.409 . S
C2554 H2556 0.951 . S
C2555 C2550 1.491 . S
C2555 C2557 1.382 . S
C2555 C2559 1.404 . S
H2556 C2554 0.951 . S
C2557 C2555 1.382 . S
C2557 C2558 1.390 . S
C2557 H2562 0.949 . S
C2558 C2557 1.390 . S
C2558 C2563 1.399 . S
C2559 C2555 1.404 . S
C2559 H2560 0.950 . S
C2559 C2561 1.375 . S
H2560 C2559 0.950 . S
C2561 C2559 1.375 . S
C2561 C2563 1.382 . S
C2561 H2565 0.950 . S
H2562 C2557 0.949 . S
C2563 C2558 1.399 . S
C2563 C2561 1.382 . S
C2563 H2564 0.952 . S
H2564 C2563 0.952 . S
H2565 C2561 0.950 . S
H2566 C2567 0.949 . S
C2567 H2566 0.949 . S
C2567 C2568 1.395 . S
C2567 C2569 1.391 . S
C2568 C2567 1.395 . S
C2568 C2571 1.390 . S
C2569 C2567 1.391 . S
C2569 C2573 1.387 . S
C2569 C2574 1.491 . S
H2570 C2571 0.950 . S
C2571 C2568 1.390 . S
C2571 H2570 0.950 . S
C2571 C2572 1.378 . S
C2572 C2571 1.378 . S
C2572 C2573 1.409 . S
C2573 C2569 1.387 . S
C2573 C2572 1.409 . S
C2573 H2575 0.951 . S
C2574 C2569 1.491 . S
C2574 C2576 1.382 . S
C2574 C2578 1.404 . S
H2575 C2573 0.951 . S
C2576 C2574 1.382 . S
C2576 C2577 1.390 . S
C2576 H2581 0.949 . S
C2577 C2576 1.390 . S
C2577 C2582 1.399 . S
C2578 C2574 1.404 . S
C2578 H2579 0.950 . S
C2578 C2580 1.375 . S
H2579 C2578 0.950 . S
C2580 C2578 1.375 . S
C2580 C2582 1.382 . S
C2580 H2584 0.950 . S
H2581 C2576 0.949 . S
C2582 C2577 1.399 . S
C2582 C2580 1.382 . S
C2582 H2583 0.952 . S
H2583 C2582 0.952 . S
H2584 C2580 0.950 . S
H2585 C2586 0.949 . S
C2586 H2585 0.949 . S
C2586 C2587 1.395 . S
C2586 C2588 1.391 . S
C2587 C2586 1.395 . S
C2587 C2590 1.390 . S
C2588 C2586 1.391 . S
C2588 C2592 1.387 . S
C2588 C2593 1.491 . S
H2589 C2590 0.950 . S
C2590 C2587 1.390 . S
C2590 H2589 0.950 . S
C2590 C2591 1.378 . S
C2591 C2590 1.378 . S
C2591 C2592 1.409 . S
C2592 C2588 1.387 . S
C2592 C2591 1.409 . S
C2592 H2594 0.951 . S
C2593 C2588 1.491 . S
C2593 C2595 1.382 . S
C2593 C2597 1.404 . S
H2594 C2592 0.951 . S
C2595 C2593 1.382 . S
C2595 C2596 1.390 . S
C2595 H2600 0.949 . S
C2596 C2595 1.390 . S
C2596 C2601 1.399 . S
C2597 C2593 1.404 . S
C2597 H2598 0.950 . S
C2597 C2599 1.375 . S
H2598 C2597 0.950 . S
C2599 C2597 1.375 . S
C2599 C2601 1.382 . S
C2599 H2603 0.950 . S
H2600 C2595 0.949 . S
C2601 C2596 1.399 . S
C2601 C2599 1.382 . S
C2601 H2602 0.952 . S
H2602 C2601 0.952 . S
H2603 C2599 0.950 . S
H2604 C2605 0.949 . S
C2605 H2604 0.949 . S
C2605 C2606 1.395 . S
C2605 C2607 1.391 . S
C2606 C2605 1.395 . S
C2606 C2609 1.390 . S
C2607 C2605 1.391 . S
C2607 C2611 1.387 . S
C2607 C2612 1.491 . S
H2608 C2609 0.950 . S
C2609 C2606 1.390 . S
C2609 H2608 0.950 . S
C2609 C2610 1.378 . S
C2610 C2609 1.378 . S
C2610 C2611 1.409 . S
C2611 C2607 1.387 . S
C2611 C2610 1.409 . S
C2611 H2613 0.951 . S
C2612 C2607 1.491 . S
C2612 C2614 1.382 . S
C2612 C2616 1.404 . S
H2613 C2611 0.951 . S
C2614 C2612 1.382 . S
C2614 C2615 1.390 . S
C2614 H2619 0.949 . S
C2615 C2614 1.390 . S
C2615 C2620 1.399 . S
C2616 C2612 1.404 . S
C2616 H2617 0.950 . S
C2616 C2618 1.375 . S
H2617 C2616 0.950 . S
C2618 C2616 1.375 . S
C2618 C2620 1.382 . S
C2618 H2622 0.950 . S
H2619 C2614 0.949 . S
C2620 C2615 1.399 . S
C2620 C2618 1.382 . S
C2620 H2621 0.952 . S
H2621 C2620 0.952 . S
H2622 C2618 0.950 . S
H2623 C2624 0.949 . S
C2624 H2623 0.949 . S
C2624 C2625 1.395 . S
C2624 C2626 1.391 . S
C2625 C2624 1.395 . S
C2625 C2628 1.390 . S
C2626 C2624 1.391 . S
C2626 C2630 1.387 . S
C2626 C2631 1.491 . S
H2627 C2628 0.950 . S
C2628 C2625 1.390 . S
C2628 H2627 0.950 . S
C2628 C2629 1.378 . S
C2629 C2628 1.378 . S
C2629 C2630 1.409 . S
C2630 C2626 1.387 . S
C2630 C2629 1.409 . S
C2630 H2632 0.951 . S
C2631 C2626 1.491 . S
C2631 C2633 1.382 . S
C2631 C2635 1.404 . S
H2632 C2630 0.951 . S
C2633 C2631 1.382 . S
C2633 C2634 1.390 . S
C2633 H2638 0.949 . S
C2634 C2633 1.390 . S
C2634 C2639 1.399 . S
C2635 C2631 1.404 . S
C2635 H2636 0.950 . S
C2635 C2637 1.375 . S
H2636 C2635 0.950 . S
C2637 C2635 1.375 . S
C2637 C2639 1.382 . S
C2637 H2641 0.950 . S
H2638 C2633 0.949 . S
C2639 C2634 1.399 . S
C2639 C2637 1.382 . S
C2639 H2640 0.952 . S
H2640 C2639 0.952 . S
H2641 C2637 0.950 . S
H2642 C2643 0.949 . S
C2643 H2642 0.949 . S
C2643 C2644 1.395 . S
C2643 C2645 1.391 . S
C2644 C2643 1.395 . S
C2644 C2647 1.390 . S
C2645 C2643 1.391 . S
C2645 C2649 1.387 . S
C2645 C2650 1.491 . S
H2646 C2647 0.950 . S
C2647 C2644 1.390 . S
C2647 H2646 0.950 . S
C2647 C2648 1.378 . S
C2648 C2647 1.378 . S
C2648 C2649 1.409 . S
C2649 C2645 1.387 . S
C2649 C2648 1.409 . S
C2649 H2651 0.951 . S
C2650 C2645 1.491 . S
C2650 C2652 1.382 . S
C2650 C2654 1.404 . S
H2651 C2649 0.951 . S
C2652 C2650 1.382 . S
C2652 C2653 1.390 . S
C2652 H2657 0.949 . S
C2653 C2652 1.390 . S
C2653 C2658 1.399 . S
C2654 C2650 1.404 . S
C2654 H2655 0.950 . S
C2654 C2656 1.375 . S
H2655 C2654 0.950 . S
C2656 C2654 1.375 . S
C2656 C2658 1.382 . S
C2656 H2660 0.950 . S
H2657 C2652 0.949 . S
C2658 C2653 1.399 . S
C2658 C2656 1.382 . S
C2658 H2659 0.952 . S
H2659 C2658 0.952 . S
H2660 C2656 0.950 . S
H2661 C2662 0.949 . S
C2662 H2661 0.949 . S
C2662 C2663 1.395 . S
C2662 C2664 1.391 . S
C2663 C2662 1.395 . S
C2663 C2666 1.390 . S
C2664 C2662 1.391 . S
C2664 C2668 1.387 . S
C2664 C2669 1.491 . S
H2665 C2666 0.950 . S
C2666 C2663 1.390 . S
C2666 H2665 0.950 . S
C2666 C2667 1.378 . S
C2667 C2666 1.378 . S
C2667 C2668 1.409 . S
C2668 C2664 1.387 . S
C2668 C2667 1.409 . S
C2668 H2670 0.951 . S
C2669 C2664 1.491 . S
C2669 C2671 1.382 . S
C2669 C2673 1.404 . S
H2670 C2668 0.951 . S
C2671 C2669 1.382 . S
C2671 C2672 1.390 . S
C2671 H2676 0.949 . S
C2672 C2671 1.390 . S
C2672 C2677 1.399 . S
C2673 C2669 1.404 . S
C2673 H2674 0.950 . S
C2673 C2675 1.375 . S
H2674 C2673 0.950 . S
C2675 C2673 1.375 . S
C2675 C2677 1.382 . S
C2675 H2679 0.950 . S
H2676 C2671 0.949 . S
C2677 C2672 1.399 . S
C2677 C2675 1.382 . S
C2677 H2678 0.952 . S
H2678 C2677 0.952 . S
H2679 C2675 0.950 . S
H2680 C2681 0.949 . S
C2681 H2680 0.949 . S
C2681 C2682 1.395 . S
C2681 C2683 1.391 . S
C2682 C2681 1.395 . S
C2682 C2685 1.390 . S
C2683 C2681 1.391 . S
C2683 C2687 1.387 . S
C2683 C2688 1.491 . S
H2684 C2685 0.950 . S
C2685 C2682 1.390 . S
C2685 H2684 0.950 . S
C2685 C2686 1.378 . S
C2686 C2685 1.378 . S
C2686 C2687 1.409 . S
C2687 C2683 1.387 . S
C2687 C2686 1.409 . S
C2687 H2689 0.951 . S
C2688 C2683 1.491 . S
C2688 C2690 1.382 . S
C2688 C2692 1.404 . S
H2689 C2687 0.951 . S
C2690 C2688 1.382 . S
C2690 C2691 1.390 . S
C2690 H2695 0.949 . S
C2691 C2690 1.390 . S
C2691 C2696 1.399 . S
C2692 C2688 1.404 . S
C2692 H2693 0.950 . S
C2692 C2694 1.375 . S
H2693 C2692 0.950 . S
C2694 C2692 1.375 . S
C2694 C2696 1.382 . S
C2694 H2698 0.950 . S
H2695 C2690 0.949 . S
C2696 C2691 1.399 . S
C2696 C2694 1.382 . S
C2696 H2697 0.952 . S
H2697 C2696 0.952 . S
H2698 C2694 0.950 . S
H2699 C2700 0.949 . S
C2700 H2699 0.949 . S
C2700 C2701 1.395 . S
C2700 C2702 1.391 . S
C2701 C2700 1.395 . S
C2701 C2704 1.390 . S
C2702 C2700 1.391 . S
C2702 C2706 1.387 . S
C2702 C2707 1.491 . S
H2703 C2704 0.950 . S
C2704 C2701 1.390 . S
C2704 H2703 0.950 . S
C2704 C2705 1.378 . S
C2705 C2704 1.378 . S
C2705 C2706 1.409 . S
C2706 C2702 1.387 . S
C2706 C2705 1.409 . S
C2706 H2708 0.951 . S
C2707 C2702 1.491 . S
C2707 C2709 1.382 . S
C2707 C2711 1.404 . S
H2708 C2706 0.951 . S
C2709 C2707 1.382 . S
C2709 C2710 1.390 . S
C2709 H2714 0.949 . S
C2710 C2709 1.390 . S
C2710 C2715 1.399 . S
C2711 C2707 1.404 . S
C2711 H2712 0.950 . S
C2711 C2713 1.375 . S
H2712 C2711 0.950 . S
C2713 C2711 1.375 . S
C2713 C2715 1.382 . S
C2713 H2717 0.950 . S
H2714 C2709 0.949 . S
C2715 C2710 1.399 . S
C2715 C2713 1.382 . S
C2715 H2716 0.952 . S
H2716 C2715 0.952 . S
H2717 C2713 0.950 . S
H2718 C2719 0.949 . S
C2719 H2718 0.949 . S
C2719 C2720 1.395 . S
C2719 C2721 1.391 . S
C2720 C2719 1.395 . S
C2720 C2723 1.390 . S
C2721 C2719 1.391 . S
C2721 C2725 1.387 . S
C2721 C2726 1.491 . S
H2722 C2723 0.950 . S
C2723 C2720 1.390 . S
C2723 H2722 0.950 . S
C2723 C2724 1.378 . S
C2724 C2723 1.378 . S
C2724 C2725 1.409 . S
C2725 C2721 1.387 . S
C2725 C2724 1.409 . S
C2725 H2727 0.951 . S
C2726 C2721 1.491 . S
C2726 C2728 1.382 . S
C2726 C2730 1.404 . S
H2727 C2725 0.951 . S
C2728 C2726 1.382 . S
C2728 C2729 1.390 . S
C2728 H2733 0.949 . S
C2729 C2728 1.390 . S
C2729 C2734 1.399 . S
C2730 C2726 1.404 . S
C2730 H2731 0.950 . S
C2730 C2732 1.375 . S
H2731 C2730 0.950 . S
C2732 C2730 1.375 . S
C2732 C2734 1.382 . S
C2732 H2736 0.950 . S
H2733 C2728 0.949 . S
C2734 C2729 1.399 . S
C2734 C2732 1.382 . S
C2734 H2735 0.952 . S
H2735 C2734 0.952 . S
H2736 C2732 0.950 . S
H2737 C2738 0.949 . S
C2738 H2737 0.949 . S
C2738 C2739 1.395 . S
C2738 C2740 1.391 . S
C2739 C2738 1.395 . S
C2739 C2742 1.390 . S
C2740 C2738 1.391 . S
C2740 C2744 1.387 . S
C2740 C2745 1.491 . S
H2741 C2742 0.950 . S
C2742 C2739 1.390 . S
C2742 H2741 0.950 . S
C2742 C2743 1.378 . S
C2743 C2742 1.378 . S
C2743 C2744 1.409 . S
C2744 C2740 1.387 . S
C2744 C2743 1.409 . S
C2744 H2746 0.951 . S
C2745 C2740 1.491 . S
C2745 C2747 1.382 . S
C2745 C2749 1.404 . S
H2746 C2744 0.951 . S
C2747 C2745 1.382 . S
C2747 C2748 1.390 . S
C2747 H2752 0.949 . S
C2748 C2747 1.390 . S
C2748 C2753 1.399 . S
C2749 C2745 1.404 . S
C2749 H2750 0.950 . S
C2749 C2751 1.375 . S
H2750 C2749 0.950 . S
C2751 C2749 1.375 . S
C2751 C2753 1.382 . S
C2751 H2755 0.950 . S
H2752 C2747 0.949 . S
C2753 C2748 1.399 . S
C2753 C2751 1.382 . S
C2753 H2754 0.952 . S
H2754 C2753 0.952 . S
H2755 C2751 0.950 . S
H2756 C2757 0.949 . S
C2757 H2756 0.949 . S
C2757 C2758 1.395 . S
C2757 C2759 1.391 . S
C2758 C2757 1.395 . S
C2758 C2761 1.390 . S
C2759 C2757 1.391 . S
C2759 C2763 1.387 . S
C2759 C2764 1.491 . S
H2760 C2761 0.950 . S
C2761 C2758 1.390 . S
C2761 H2760 0.950 . S
C2761 C2762 1.378 . S
C2762 C2761 1.378 . S
C2762 C2763 1.409 . S
C2763 C2759 1.387 . S
C2763 C2762 1.409 . S
C2763 H2765 0.951 . S
C2764 C2759 1.491 . S
C2764 C2766 1.382 . S
C2764 C2768 1.404 . S
H2765 C2763 0.951 . S
C2766 C2764 1.382 . S
C2766 C2767 1.390 . S
C2766 H2771 0.949 . S
C2767 C2766 1.390 . S
C2767 C2772 1.399 . S
C2768 C2764 1.404 . S
C2768 H2769 0.950 . S
C2768 C2770 1.375 . S
H2769 C2768 0.950 . S
C2770 C2768 1.375 . S
C2770 C2772 1.382 . S
C2770 H2774 0.950 . S
H2771 C2766 0.949 . S
C2772 C2767 1.399 . S
C2772 C2770 1.382 . S
C2772 H2773 0.952 . S
H2773 C2772 0.952 . S
H2774 C2770 0.950 . S
H2775 C2776 0.949 . S
C2776 H2775 0.949 . S
C2776 C2777 1.395 . S
C2776 C2778 1.391 . S
C2777 C2776 1.395 . S
C2777 C2780 1.390 . S
C2778 C2776 1.391 . S
C2778 C2782 1.387 . S
C2778 C2783 1.491 . S
H2779 C2780 0.950 . S
C2780 C2777 1.390 . S
C2780 H2779 0.950 . S
C2780 C2781 1.378 . S
C2781 C2780 1.378 . S
C2781 C2782 1.409 . S
C2782 C2778 1.387 . S
C2782 C2781 1.409 . S
C2782 H2784 0.951 . S
C2783 C2778 1.491 . S
C2783 C2785 1.382 . S
C2783 C2787 1.404 . S
H2784 C2782 0.951 . S
C2785 C2783 1.382 . S
C2785 C2786 1.390 . S
C2785 H2790 0.949 . S
C2786 C2785 1.390 . S
C2786 C2791 1.399 . S
C2787 C2783 1.404 . S
C2787 H2788 0.950 . S
C2787 C2789 1.375 . S
H2788 C2787 0.950 . S
C2789 C2787 1.375 . S
C2789 C2791 1.382 . S
C2789 H2793 0.950 . S
H2790 C2785 0.949 . S
C2791 C2786 1.399 . S
C2791 C2789 1.382 . S
C2791 H2792 0.952 . S
H2792 C2791 0.952 . S
H2793 C2789 0.950 . S
H2794 C2795 0.949 . S
C2795 H2794 0.949 . S
C2795 C2796 1.395 . S
C2795 C2797 1.391 . S
C2796 C2795 1.395 . S
C2796 C2799 1.390 . S
C2797 C2795 1.391 . S
C2797 C2801 1.387 . S
C2797 C2802 1.491 . S
H2798 C2799 0.950 . S
C2799 C2796 1.390 . S
C2799 H2798 0.950 . S
C2799 C2800 1.378 . S
C2800 C2799 1.378 . S
C2800 C2801 1.409 . S
C2801 C2797 1.387 . S
C2801 C2800 1.409 . S
C2801 H2803 0.951 . S
C2802 C2797 1.491 . S
C2802 C2804 1.382 . S
C2802 C2806 1.404 . S
H2803 C2801 0.951 . S
C2804 C2802 1.382 . S
C2804 C2805 1.390 . S
C2804 H2809 0.949 . S
C2805 C2804 1.390 . S
C2805 C2810 1.399 . S
C2806 C2802 1.404 . S
C2806 H2807 0.950 . S
C2806 C2808 1.375 . S
H2807 C2806 0.950 . S
C2808 C2806 1.375 . S
C2808 C2810 1.382 . S
C2808 H2812 0.950 . S
H2809 C2804 0.949 . S
C2810 C2805 1.399 . S
C2810 C2808 1.382 . S
C2810 H2811 0.952 . S
H2811 C2810 0.952 . S
H2812 C2808 0.950 . S
H2813 C2814 0.949 . S
C2814 H2813 0.949 . S
C2814 C2815 1.395 . S
C2814 C2816 1.391 . S
C2815 C2814 1.395 . S
C2815 C2818 1.390 . S
C2816 C2814 1.391 . S
C2816 C2820 1.387 . S
C2816 C2821 1.491 . S
H2817 C2818 0.950 . S
C2818 C2815 1.390 . S
C2818 H2817 0.950 . S
C2818 C2819 1.378 . S
C2819 C2818 1.378 . S
C2819 C2820 1.409 . S
C2820 C2816 1.387 . S
C2820 C2819 1.409 . S
C2820 H2822 0.951 . S
C2821 C2816 1.491 . S
C2821 C2823 1.382 . S
C2821 C2825 1.404 . S
H2822 C2820 0.951 . S
C2823 C2821 1.382 . S
C2823 C2824 1.390 . S
C2823 H2828 0.949 . S
C2824 C2823 1.390 . S
C2824 C2829 1.399 . S
C2825 C2821 1.404 . S
C2825 H2826 0.950 . S
C2825 C2827 1.375 . S
H2826 C2825 0.950 . S
C2827 C2825 1.375 . S
C2827 C2829 1.382 . S
C2827 H2831 0.950 . S
H2828 C2823 0.949 . S
C2829 C2824 1.399 . S
C2829 C2827 1.382 . S
C2829 H2830 0.952 . S
H2830 C2829 0.952 . S
H2831 C2827 0.950 . S
C2832 C2833 1.363 . S
C2832 C2838 1.379 . S
C2832 N2840 1.356 . S
C2833 C2832 1.363 . S
C2833 C2839 1.363 . S
C2834 C2835 1.363 . S
C2834 C2839 1.379 . S
C2834 N2841 1.356 . S
C2835 C2834 1.363 . S
C2835 C2838 1.363 . S
N2836 C2838 1.356 . S
N2836 H2848 0.984 . S
N2836 H2849 0.985 . S
N2837 C2839 1.356 . S
N2837 H2842 0.984 . S
N2837 H2843 0.985 . S
C2838 C2832 1.379 . S
C2838 C2835 1.363 . S
C2838 N2836 1.356 . S
C2839 C2833 1.363 . S
C2839 C2834 1.379 . S
C2839 N2837 1.356 . S
N2840 C2832 1.356 . S
N2840 H2846 0.984 . S
N2840 H2847 0.984 . S
N2841 C2834 1.356 . S
N2841 H2844 0.984 . S
N2841 H2845 0.985 . S
H2842 N2837 0.984 . S
H2843 N2837 0.985 . S
H2844 N2841 0.984 . S
H2845 N2841 0.985 . S
H2846 N2840 0.984 . S
H2847 N2840 0.984 . S
H2848 N2836 0.984 . S
H2849 N2836 0.985 . S
C2850 C2851 1.363 . S
C2850 C2856 1.379 . S
C2850 N2858 1.356 . S
C2851 C2850 1.363 . S
C2851 C2857 1.363 . S
C2852 C2853 1.363 . S
C2852 C2857 1.379 . S
C2852 N2859 1.356 . S
C2853 C2852 1.363 . S
C2853 C2856 1.363 . S
N2854 C2856 1.356 . S
N2854 H2866 0.984 . S
N2854 H2867 0.985 . S
N2855 C2857 1.356 . S
N2855 H2860 0.984 . S
N2855 H2861 0.985 . S
C2856 C2850 1.379 . S
C2856 C2853 1.363 . S
C2856 N2854 1.356 . S
C2857 C2851 1.363 . S
C2857 C2852 1.379 . S
C2857 N2855 1.356 . S
N2858 C2850 1.356 . S
N2858 H2864 0.984 . S
N2858 H2865 0.984 . S
N2859 C2852 1.356 . S
N2859 H2862 0.984 . S
N2859 H2863 0.985 . S
H2860 N2855 0.984 . S
H2861 N2855 0.985 . S
H2862 N2859 0.984 . S
H2863 N2859 0.985 . S
H2864 N2858 0.984 . S
H2865 N2858 0.984 . S
H2866 N2854 0.984 . S
H2867 N2854 0.985 . S
C2868 C2869 1.363 . S
C2868 C2874 1.379 . S
C2868 N2876 1.356 . S
C2869 C2868 1.363 . S
C2869 C2875 1.363 . S
C2870 C2871 1.363 . S
C2870 C2875 1.379 . S
C2870 N2877 1.356 . S
C2871 C2870 1.363 . S
C2871 C2874 1.363 . S
N2872 C2874 1.356 . S
N2872 H2884 0.984 . S
N2872 H2885 0.985 . S
N2873 C2875 1.356 . S
N2873 H2878 0.984 . S
N2873 H2879 0.985 . S
C2874 C2868 1.379 . S
C2874 C2871 1.363 . S
C2874 N2872 1.356 . S
C2875 C2869 1.363 . S
C2875 C2870 1.379 . S
C2875 N2873 1.356 . S
N2876 C2868 1.356 . S
N2876 H2882 0.984 . S
N2876 H2883 0.984 . S
N2877 C2870 1.356 . S
N2877 H2880 0.984 . S
N2877 H2881 0.985 . S
H2878 N2873 0.984 . S
H2879 N2873 0.985 . S
H2880 N2877 0.984 . S
H2881 N2877 0.985 . S
H2882 N2876 0.984 . S
H2883 N2876 0.984 . S
H2884 N2872 0.984 . S
H2885 N2872 0.985 . S
C2886 C2887 1.363 . S
C2886 C2892 1.379 . S
C2886 N2894 1.356 . S
C2887 C2886 1.363 . S
C2887 C2893 1.363 . S
C2888 C2889 1.363 . S
C2888 C2893 1.379 . S
C2888 N2895 1.356 . S
C2889 C2888 1.363 . S
C2889 C2892 1.363 . S
N2890 C2892 1.356 . S
N2890 H2902 0.984 . S
N2890 H2903 0.985 . S
N2891 C2893 1.356 . S
N2891 H2896 0.984 . S
N2891 H2897 0.985 . S
C2892 C2886 1.379 . S
C2892 C2889 1.363 . S
C2892 N2890 1.356 . S
C2893 C2887 1.363 . S
C2893 C2888 1.379 . S
C2893 N2891 1.356 . S
N2894 C2886 1.356 . S
N2894 H2900 0.984 . S
N2894 H2901 0.984 . S
N2895 C2888 1.356 . S
N2895 H2898 0.984 . S
N2895 H2899 0.985 . S
H2896 N2891 0.984 . S
H2897 N2891 0.985 . S
H2898 N2895 0.984 . S
H2899 N2895 0.985 . S
H2900 N2894 0.984 . S
H2901 N2894 0.984 . S
H2902 N2890 0.984 . S
H2903 N2890 0.985 . S
C2904 C2905 1.363 . S
C2904 C2910 1.379 . S
C2904 N2912 1.356 . S
C2905 C2904 1.363 . S
C2905 C2911 1.363 . S
C2906 C2907 1.363 . S
C2906 C2911 1.379 . S
C2906 N2913 1.356 . S
C2907 C2906 1.363 . S
C2907 C2910 1.363 . S
N2908 C2910 1.356 . S
N2908 H2920 0.984 . S
N2908 H2921 0.985 . S
N2909 C2911 1.356 . S
N2909 H2914 0.984 . S
N2909 H2915 0.985 . S
C2910 C2904 1.379 . S
C2910 C2907 1.363 . S
C2910 N2908 1.356 . S
C2911 C2905 1.363 . S
C2911 C2906 1.379 . S
C2911 N2909 1.356 . S
N2912 C2904 1.356 . S
N2912 H2918 0.984 . S
N2912 H2919 0.984 . S
N2913 C2906 1.356 . S
N2913 H2916 0.984 . S
N2913 H2917 0.985 . S
H2914 N2909 0.984 . S
H2915 N2909 0.985 . S
H2916 N2913 0.984 . S
H2917 N2913 0.985 . S
H2918 N2912 0.984 . S
H2919 N2912 0.984 . S
H2920 N2908 0.984 . S
H2921 N2908 0.985 . S
C2922 C2923 1.363 . S
C2922 C2928 1.379 . S
C2922 N2930 1.356 . S
C2923 C2922 1.363 . S
C2923 C2929 1.363 . S
C2924 C2925 1.363 . S
C2924 C2929 1.379 . S
C2924 N2931 1.356 . S
C2925 C2924 1.363 . S
C2925 C2928 1.363 . S
N2926 C2928 1.356 . S
N2926 H2938 0.984 . S
N2926 H2939 0.985 . S
N2927 C2929 1.356 . S
N2927 H2932 0.984 . S
N2927 H2933 0.985 . S
C2928 C2922 1.379 . S
C2928 C2925 1.363 . S
C2928 N2926 1.356 . S
C2929 C2923 1.363 . S
C2929 C2924 1.379 . S
C2929 N2927 1.356 . S
N2930 C2922 1.356 . S
N2930 H2936 0.984 . S
N2930 H2937 0.984 . S
N2931 C2924 1.356 . S
N2931 H2934 0.984 . S
N2931 H2935 0.985 . S
H2932 N2927 0.984 . S
H2933 N2927 0.985 . S
H2934 N2931 0.984 . S
H2935 N2931 0.985 . S
H2936 N2930 0.984 . S
H2937 N2930 0.984 . S
H2938 N2926 0.984 . S
H2939 N2926 0.985 . S
C2940 C2941 1.363 . S
C2940 C2946 1.379 . S
C2940 N2948 1.356 . S
C2941 C2940 1.363 . S
C2941 C2947 1.363 . S
C2942 C2943 1.363 . S
C2942 C2947 1.379 . S
C2942 N2949 1.356 . S
C2943 C2942 1.363 . S
C2943 C2946 1.363 . S
N2944 C2946 1.356 . S
N2944 H2956 0.984 . S
N2944 H2957 0.985 . S
N2945 C2947 1.356 . S
N2945 H2950 0.984 . S
N2945 H2951 0.985 . S
C2946 C2940 1.379 . S
C2946 C2943 1.363 . S
C2946 N2944 1.356 . S
C2947 C2941 1.363 . S
C2947 C2942 1.379 . S
C2947 N2945 1.356 . S
N2948 C2940 1.356 . S
N2948 H2954 0.984 . S
N2948 H2955 0.984 . S
N2949 C2942 1.356 . S
N2949 H2952 0.984 . S
N2949 H2953 0.985 . S
H2950 N2945 0.984 . S
H2951 N2945 0.985 . S
H2952 N2949 0.984 . S
H2953 N2949 0.985 . S
H2954 N2948 0.984 . S
H2955 N2948 0.984 . S
H2956 N2944 0.984 . S
H2957 N2944 0.985 . S
C2958 C2959 1.363 . S
C2958 C2964 1.379 . S
C2958 N2966 1.356 . S
C2959 C2958 1.363 . S
C2959 C2965 1.363 . S
C2960 C2961 1.363 . S
C2960 C2965 1.379 . S
C2960 N2967 1.356 . S
C2961 C2960 1.363 . S
C2961 C2964 1.363 . S
N2962 C2964 1.356 . S
N2962 H2974 0.984 . S
N2962 H2975 0.985 . S
N2963 C2965 1.356 . S
N2963 H2968 0.984 . S
N2963 H2969 0.985 . S
C2964 C2958 1.379 . S
C2964 C2961 1.363 . S
C2964 N2962 1.356 . S
C2965 C2959 1.363 . S
C2965 C2960 1.379 . S
C2965 N2963 1.356 . S
N2966 C2958 1.356 . S
N2966 H2972 0.984 . S
N2966 H2973 0.984 . S
N2967 C2960 1.356 . S
N2967 H2970 0.984 . S
N2967 H2971 0.985 . S
H2968 N2963 0.984 . S
H2969 N2963 0.985 . S
H2970 N2967 0.984 . S
H2971 N2967 0.985 . S
H2972 N2966 0.984 . S
H2973 N2966 0.984 . S
H2974 N2962 0.984 . S
H2975 N2962 0.985 . S
C2976 C2977 1.363 . S
C2976 C2982 1.379 . S
C2976 N2984 1.356 . S
C2977 C2976 1.363 . S
C2977 C2983 1.363 . S
C2978 C2979 1.363 . S
C2978 C2983 1.379 . S
C2978 N2985 1.356 . S
C2979 C2978 1.363 . S
C2979 C2982 1.363 . S
N2980 C2982 1.356 . S
N2980 H2992 0.984 . S
N2980 H2993 0.985 . S
N2981 C2983 1.356 . S
N2981 H2986 0.984 . S
N2981 H2987 0.985 . S
C2982 C2976 1.379 . S
C2982 C2979 1.363 . S
C2982 N2980 1.356 . S
C2983 C2977 1.363 . S
C2983 C2978 1.379 . S
C2983 N2981 1.356 . S
N2984 C2976 1.356 . S
N2984 H2990 0.984 . S
N2984 H2991 0.984 . S
N2985 C2978 1.356 . S
N2985 H2988 0.984 . S
N2985 H2989 0.985 . S
H2986 N2981 0.984 . S
H2987 N2981 0.985 . S
H2988 N2985 0.984 . S
H2989 N2985 0.985 . S
H2990 N2984 0.984 . S
H2991 N2984 0.984 . S
H2992 N2980 0.984 . S
H2993 N2980 0.985 . S
C2994 C2995 1.363 . S
C2994 C3000 1.379 . S
C2994 N3002 1.356 . S
C2995 C2994 1.363 . S
C2995 C3001 1.363 . S
C2996 C2997 1.363 . S
C2996 C3001 1.379 . S
C2996 N3003 1.356 . S
C2997 C2996 1.363 . S
C2997 C3000 1.363 . S
N2998 C3000 1.356 . S
N2998 H3010 0.984 . S
N2998 H3011 0.985 . S
N2999 C3001 1.356 . S
N2999 H3004 0.984 . S
N2999 H3005 0.985 . S
C3000 C2994 1.379 . S
C3000 C2997 1.363 . S
C3000 N2998 1.356 . S
C3001 C2995 1.363 . S
C3001 C2996 1.379 . S
C3001 N2999 1.356 . S
N3002 C2994 1.356 . S
N3002 H3008 0.984 . S
N3002 H3009 0.984 . S
N3003 C2996 1.356 . S
N3003 H3006 0.984 . S
N3003 H3007 0.985 . S
H3004 N2999 0.984 . S
H3005 N2999 0.985 . S
H3006 N3003 0.984 . S
H3007 N3003 0.985 . S
H3008 N3002 0.984 . S
H3009 N3002 0.984 . S
H3010 N2998 0.984 . S
H3011 N2998 0.985 . S
C3012 C3013 1.363 . S
C3012 C3018 1.379 . S
C3012 N3020 1.356 . S
C3013 C3012 1.363 . S
C3013 C3019 1.363 . S
C3014 C3015 1.363 . S
C3014 C3019 1.379 . S
C3014 N3021 1.356 . S
C3015 C3014 1.363 . S
C3015 C3018 1.363 . S
N3016 C3018 1.356 . S
N3016 H3028 0.984 . S
N3016 H3029 0.985 . S
N3017 C3019 1.356 . S
N3017 H3022 0.984 . S
N3017 H3023 0.985 . S
C3018 C3012 1.379 . S
C3018 C3015 1.363 . S
C3018 N3016 1.356 . S
C3019 C3013 1.363 . S
C3019 C3014 1.379 . S
C3019 N3017 1.356 . S
N3020 C3012 1.356 . S
N3020 H3026 0.984 . S
N3020 H3027 0.984 . S
N3021 C3014 1.356 . S
N3021 H3024 0.984 . S
N3021 H3025 0.985 . S
H3022 N3017 0.984 . S
H3023 N3017 0.985 . S
H3024 N3021 0.984 . S
H3025 N3021 0.985 . S
H3026 N3020 0.984 . S
H3027 N3020 0.984 . S
H3028 N3016 0.984 . S
H3029 N3016 0.985 . S
C3030 C3031 1.363 . S
C3030 C3036 1.379 . S
C3030 N3038 1.356 . S
C3031 C3030 1.363 . S
C3031 C3037 1.363 . S
C3032 C3033 1.363 . S
C3032 C3037 1.379 . S
C3032 N3039 1.356 . S
C3033 C3032 1.363 . S
C3033 C3036 1.363 . S
N3034 C3036 1.356 . S
N3034 H3046 0.984 . S
N3034 H3047 0.985 . S
N3035 C3037 1.356 . S
N3035 H3040 0.984 . S
N3035 H3041 0.985 . S
C3036 C3030 1.379 . S
C3036 C3033 1.363 . S
C3036 N3034 1.356 . S
C3037 C3031 1.363 . S
C3037 C3032 1.379 . S
C3037 N3035 1.356 . S
N3038 C3030 1.356 . S
N3038 H3044 0.984 . S
N3038 H3045 0.984 . S
N3039 C3032 1.356 . S
N3039 H3042 0.984 . S
N3039 H3043 0.985 . S
H3040 N3035 0.984 . S
H3041 N3035 0.985 . S
H3042 N3039 0.984 . S
H3043 N3039 0.985 . S
H3044 N3038 0.984 . S
H3045 N3038 0.984 . S
H3046 N3034 0.984 . S
H3047 N3034 0.985 . S
C3048 C3049 1.363 . S
C3048 C3054 1.379 . S
C3048 N3056 1.356 . S
C3049 C3048 1.363 . S
C3049 C3055 1.363 . S
C3050 C3051 1.363 . S
C3050 C3055 1.379 . S
C3050 N3057 1.356 . S
C3051 C3050 1.363 . S
C3051 C3054 1.363 . S
N3052 C3054 1.356 . S
N3052 H3064 0.984 . S
N3052 H3065 0.985 . S
N3053 C3055 1.356 . S
N3053 H3058 0.984 . S
N3053 H3059 0.985 . S
C3054 C3048 1.379 . S
C3054 C3051 1.363 . S
C3054 N3052 1.356 . S
C3055 C3049 1.363 . S
C3055 C3050 1.379 . S
C3055 N3053 1.356 . S
N3056 C3048 1.356 . S
N3056 H3062 0.984 . S
N3056 H3063 0.984 . S
N3057 C3050 1.356 . S
N3057 H3060 0.984 . S
N3057 H3061 0.985 . S
H3058 N3053 0.984 . S
H3059 N3053 0.985 . S
H3060 N3057 0.984 . S
H3061 N3057 0.985 . S
H3062 N3056 0.984 . S
H3063 N3056 0.984 . S
H3064 N3052 0.984 . S
H3065 N3052 0.985 . S
C3066 C3067 1.363 . S
C3066 C3072 1.379 . S
C3066 N3074 1.356 . S
C3067 C3066 1.363 . S
C3067 C3073 1.363 . S
C3068 C3069 1.363 . S
C3068 C3073 1.379 . S
C3068 N3075 1.356 . S
C3069 C3068 1.363 . S
C3069 C3072 1.363 . S
N3070 C3072 1.356 . S
N3070 H3082 0.984 . S
N3070 H3083 0.985 . S
N3071 C3073 1.356 . S
N3071 H3076 0.984 . S
N3071 H3077 0.985 . S
C3072 C3066 1.379 . S
C3072 C3069 1.363 . S
C3072 N3070 1.356 . S
C3073 C3067 1.363 . S
C3073 C3068 1.379 . S
C3073 N3071 1.356 . S
N3074 C3066 1.356 . S
N3074 H3080 0.984 . S
N3074 H3081 0.984 . S
N3075 C3068 1.356 . S
N3075 H3078 0.984 . S
N3075 H3079 0.985 . S
H3076 N3071 0.984 . S
H3077 N3071 0.985 . S
H3078 N3075 0.984 . S
H3079 N3075 0.985 . S
H3080 N3074 0.984 . S
H3081 N3074 0.984 . S
H3082 N3070 0.984 . S
H3083 N3070 0.985 . S
C3084 C3085 1.363 . S
C3084 C3090 1.379 . S
C3084 N3092 1.356 . S
C3085 C3084 1.363 . S
C3085 C3091 1.363 . S
C3086 C3087 1.363 . S
C3086 C3091 1.379 . S
C3086 N3093 1.356 . S
C3087 C3086 1.363 . S
C3087 C3090 1.363 . S
N3088 C3090 1.356 . S
N3088 H3100 0.984 . S
N3088 H3101 0.985 . S
N3089 C3091 1.356 . S
N3089 H3094 0.984 . S
N3089 H3095 0.985 . S
C3090 C3084 1.379 . S
C3090 C3087 1.363 . S
C3090 N3088 1.356 . S
C3091 C3085 1.363 . S
C3091 C3086 1.379 . S
C3091 N3089 1.356 . S
N3092 C3084 1.356 . S
N3092 H3098 0.984 . S
N3092 H3099 0.984 . S
N3093 C3086 1.356 . S
N3093 H3096 0.984 . S
N3093 H3097 0.985 . S
H3094 N3089 0.984 . S
H3095 N3089 0.985 . S
H3096 N3093 0.984 . S
H3097 N3093 0.985 . S
H3098 N3092 0.984 . S
H3099 N3092 0.984 . S
H3100 N3088 0.984 . S
H3101 N3088 0.985 . S
C3102 C3103 1.363 . S
C3102 C3108 1.379 . S
C3102 N3110 1.356 . S
C3103 C3102 1.363 . S
C3103 C3109 1.363 . S
C3104 C3105 1.363 . S
C3104 C3109 1.379 . S
C3104 N3111 1.356 . S
C3105 C3104 1.363 . S
C3105 C3108 1.363 . S
N3106 C3108 1.356 . S
N3106 H3118 0.984 . S
N3106 H3119 0.985 . S
N3107 C3109 1.356 . S
N3107 H3112 0.984 . S
N3107 H3113 0.985 . S
C3108 C3102 1.379 . S
C3108 C3105 1.363 . S
C3108 N3106 1.356 . S
C3109 C3103 1.363 . S
C3109 C3104 1.379 . S
C3109 N3107 1.356 . S
N3110 C3102 1.356 . S
N3110 H3116 0.984 . S
N3110 H3117 0.984 . S
N3111 C3104 1.356 . S
N3111 H3114 0.984 . S
N3111 H3115 0.985 . S
H3112 N3107 0.984 . S
H3113 N3107 0.985 . S
H3114 N3111 0.984 . S
H3115 N3111 0.985 . S
H3116 N3110 0.984 . S
H3117 N3110 0.984 . S
H3118 N3106 0.984 . S
H3119 N3106 0.985 . S
C3120 C3121 1.363 . S
C3120 C3126 1.379 . S
C3120 N3128 1.356 . S
C3121 C3120 1.363 . S
C3121 C3127 1.363 . S
C3122 C3123 1.363 . S
C3122 C3127 1.379 . S
C3122 N3129 1.356 . S
C3123 C3122 1.363 . S
C3123 C3126 1.363 . S
N3124 C3126 1.356 . S
N3124 H3136 0.984 . S
N3124 H3137 0.985 . S
N3125 C3127 1.356 . S
N3125 H3130 0.984 . S
N3125 H3131 0.985 . S
C3126 C3120 1.379 . S
C3126 C3123 1.363 . S
C3126 N3124 1.356 . S
C3127 C3121 1.363 . S
C3127 C3122 1.379 . S
C3127 N3125 1.356 . S
N3128 C3120 1.356 . S
N3128 H3134 0.984 . S
N3128 H3135 0.984 . S
N3129 C3122 1.356 . S
N3129 H3132 0.984 . S
N3129 H3133 0.985 . S
H3130 N3125 0.984 . S
H3131 N3125 0.985 . S
H3132 N3129 0.984 . S
H3133 N3129 0.985 . S
H3134 N3128 0.984 . S
H3135 N3128 0.984 . S
H3136 N3124 0.984 . S
H3137 N3124 0.985 . S
C3138 C3139 1.363 . S
C3138 C3144 1.379 . S
C3138 N3146 1.356 . S
C3139 C3138 1.363 . S
C3139 C3145 1.363 . S
C3140 C3141 1.363 . S
C3140 C3145 1.379 . S
C3140 N3147 1.356 . S
C3141 C3140 1.363 . S
C3141 C3144 1.363 . S
N3142 C3144 1.356 . S
N3142 H3154 0.984 . S
N3142 H3155 0.985 . S
N3143 C3145 1.356 . S
N3143 H3148 0.984 . S
N3143 H3149 0.985 . S
C3144 C3138 1.379 . S
C3144 C3141 1.363 . S
C3144 N3142 1.356 . S
C3145 C3139 1.363 . S
C3145 C3140 1.379 . S
C3145 N3143 1.356 . S
N3146 C3138 1.356 . S
N3146 H3152 0.984 . S
N3146 H3153 0.984 . S
N3147 C3140 1.356 . S
N3147 H3150 0.984 . S
N3147 H3151 0.985 . S
H3148 N3143 0.984 . S
H3149 N3143 0.985 . S
H3150 N3147 0.984 . S
H3151 N3147 0.985 . S
H3152 N3146 0.984 . S
H3153 N3146 0.984 . S
H3154 N3142 0.984 . S
H3155 N3142 0.985 . S
C3156 C3157 1.363 . S
C3156 C3162 1.379 . S
C3156 N3164 1.356 . S
C3157 C3156 1.363 . S
C3157 C3163 1.363 . S
C3158 C3159 1.363 . S
C3158 C3163 1.379 . S
C3158 N3165 1.356 . S
C3159 C3158 1.363 . S
C3159 C3162 1.363 . S
N3160 C3162 1.356 . S
N3160 H3172 0.984 . S
N3160 H3173 0.985 . S
N3161 C3163 1.356 . S
N3161 H3166 0.984 . S
N3161 H3167 0.985 . S
C3162 C3156 1.379 . S
C3162 C3159 1.363 . S
C3162 N3160 1.356 . S
C3163 C3157 1.363 . S
C3163 C3158 1.379 . S
C3163 N3161 1.356 . S
N3164 C3156 1.356 . S
N3164 H3170 0.984 . S
N3164 H3171 0.984 . S
N3165 C3158 1.356 . S
N3165 H3168 0.984 . S
N3165 H3169 0.985 . S
H3166 N3161 0.984 . S
H3167 N3161 0.985 . S
H3168 N3165 0.984 . S
H3169 N3165 0.985 . S
H3170 N3164 0.984 . S
H3171 N3164 0.984 . S
H3172 N3160 0.984 . S
H3173 N3160 0.985 . S
C3174 C3175 1.363 . S
C3174 C3180 1.379 . S
C3174 N3182 1.356 . S
C3175 C3174 1.363 . S
C3175 C3181 1.363 . S
C3176 C3177 1.363 . S
C3176 C3181 1.379 . S
C3176 N3183 1.356 . S
C3177 C3176 1.363 . S
C3177 C3180 1.363 . S
N3178 C3180 1.356 . S
N3178 H3190 0.984 . S
N3178 H3191 0.985 . S
N3179 C3181 1.356 . S
N3179 H3184 0.984 . S
N3179 H3185 0.985 . S
C3180 C3174 1.379 . S
C3180 C3177 1.363 . S
C3180 N3178 1.356 . S
C3181 C3175 1.363 . S
C3181 C3176 1.379 . S
C3181 N3179 1.356 . S
N3182 C3174 1.356 . S
N3182 H3188 0.984 . S
N3182 H3189 0.984 . S
N3183 C3176 1.356 . S
N3183 H3186 0.984 . S
N3183 H3187 0.985 . S
H3184 N3179 0.984 . S
H3185 N3179 0.985 . S
H3186 N3183 0.984 . S
H3187 N3183 0.985 . S
H3188 N3182 0.984 . S
H3189 N3182 0.984 . S
H3190 N3178 0.984 . S
H3191 N3178 0.985 . S
C3192 C3193 1.363 . S
C3192 C3198 1.379 . S
C3192 N3200 1.356 . S
C3193 C3192 1.363 . S
C3193 C3199 1.363 . S
C3194 C3195 1.363 . S
C3194 C3199 1.379 . S
C3194 N3201 1.356 . S
C3195 C3194 1.363 . S
C3195 C3198 1.363 . S
N3196 C3198 1.356 . S
N3196 H3208 0.984 . S
N3196 H3209 0.985 . S
N3197 C3199 1.356 . S
N3197 H3202 0.984 . S
N3197 H3203 0.985 . S
C3198 C3192 1.379 . S
C3198 C3195 1.363 . S
C3198 N3196 1.356 . S
C3199 C3193 1.363 . S
C3199 C3194 1.379 . S
C3199 N3197 1.356 . S
N3200 C3192 1.356 . S
N3200 H3206 0.984 . S
N3200 H3207 0.984 . S
N3201 C3194 1.356 . S
N3201 H3204 0.984 . S
N3201 H3205 0.985 . S
H3202 N3197 0.984 . S
H3203 N3197 0.985 . S
H3204 N3201 0.984 . S
H3205 N3201 0.985 . S
H3206 N3200 0.984 . S
H3207 N3200 0.984 . S
H3208 N3196 0.984 . S
H3209 N3196 0.985 . S
C3210 C3211 1.363 . S
C3210 C3216 1.379 . S
C3210 N3218 1.356 . S
C3211 C3210 1.363 . S
C3211 C3217 1.363 . S
C3212 C3213 1.363 . S
C3212 C3217 1.379 . S
C3212 N3219 1.356 . S
C3213 C3212 1.363 . S
C3213 C3216 1.363 . S
N3214 C3216 1.356 . S
N3214 H3226 0.984 . S
N3214 H3227 0.985 . S
N3215 C3217 1.356 . S
N3215 H3220 0.984 . S
N3215 H3221 0.985 . S
C3216 C3210 1.379 . S
C3216 C3213 1.363 . S
C3216 N3214 1.356 . S
C3217 C3211 1.363 . S
C3217 C3212 1.379 . S
C3217 N3215 1.356 . S
N3218 C3210 1.356 . S
N3218 H3224 0.984 . S
N3218 H3225 0.984 . S
N3219 C3212 1.356 . S
N3219 H3222 0.984 . S
N3219 H3223 0.985 . S
H3220 N3215 0.984 . S
H3221 N3215 0.985 . S
H3222 N3219 0.984 . S
H3223 N3219 0.985 . S
H3224 N3218 0.984 . S
H3225 N3218 0.984 . S
H3226 N3214 0.984 . S
H3227 N3214 0.985 . S
C3228 C3229 1.363 . S
C3228 C3234 1.379 . S
C3228 N3236 1.356 . S
C3229 C3228 1.363 . S
C3229 C3235 1.363 . S
C3230 C3231 1.363 . S
C3230 C3235 1.379 . S
C3230 N3237 1.356 . S
C3231 C3230 1.363 . S
C3231 C3234 1.363 . S
N3232 C3234 1.356 . S
N3232 H3244 0.984 . S
N3232 H3245 0.985 . S
N3233 C3235 1.356 . S
N3233 H3238 0.984 . S
N3233 H3239 0.985 . S
C3234 C3228 1.379 . S
C3234 C3231 1.363 . S
C3234 N3232 1.356 . S
C3235 C3229 1.363 . S
C3235 C3230 1.379 . S
C3235 N3233 1.356 . S
N3236 C3228 1.356 . S
N3236 H3242 0.984 . S
N3236 H3243 0.984 . S
N3237 C3230 1.356 . S
N3237 H3240 0.984 . S
N3237 H3241 0.985 . S
H3238 N3233 0.984 . S
H3239 N3233 0.985 . S
H3240 N3237 0.984 . S
H3241 N3237 0.985 . S
H3242 N3236 0.984 . S
H3243 N3236 0.984 . S
H3244 N3232 0.984 . S
H3245 N3232 0.985 . S
C3246 C3247 1.363 . S
C3246 C3252 1.379 . S
C3246 N3254 1.356 . S
C3247 C3246 1.363 . S
C3247 C3253 1.363 . S
C3248 C3249 1.363 . S
C3248 C3253 1.379 . S
C3248 N3255 1.356 . S
C3249 C3248 1.363 . S
C3249 C3252 1.363 . S
N3250 C3252 1.356 . S
N3250 H3262 0.984 . S
N3250 H3263 0.985 . S
N3251 C3253 1.356 . S
N3251 H3256 0.984 . S
N3251 H3257 0.985 . S
C3252 C3246 1.379 . S
C3252 C3249 1.363 . S
C3252 N3250 1.356 . S
C3253 C3247 1.363 . S
C3253 C3248 1.379 . S
C3253 N3251 1.356 . S
N3254 C3246 1.356 . S
N3254 H3260 0.984 . S
N3254 H3261 0.984 . S
N3255 C3248 1.356 . S
N3255 H3258 0.984 . S
N3255 H3259 0.985 . S
H3256 N3251 0.984 . S
H3257 N3251 0.985 . S
H3258 N3255 0.984 . S
H3259 N3255 0.985 . S
H3260 N3254 0.984 . S
H3261 N3254 0.984 . S
H3262 N3250 0.984 . S
H3263 N3250 0.985 . S
C3264 C3265 1.363 . S
C3264 C3270 1.379 . S
C3264 N3272 1.356 . S
C3265 C3264 1.363 . S
C3265 C3271 1.363 . S
C3266 C3267 1.363 . S
C3266 C3271 1.379 . S
C3266 N3273 1.356 . S
C3267 C3266 1.363 . S
C3267 C3270 1.363 . S
N3268 C3270 1.356 . S
N3268 H3280 0.984 . S
N3268 H3281 0.985 . S
N3269 C3271 1.356 . S
N3269 H3274 0.984 . S
N3269 H3275 0.985 . S
C3270 C3264 1.379 . S
C3270 C3267 1.363 . S
C3270 N3268 1.356 . S
C3271 C3265 1.363 . S
C3271 C3266 1.379 . S
C3271 N3269 1.356 . S
N3272 C3264 1.356 . S
N3272 H3278 0.984 . S
N3272 H3279 0.984 . S
N3273 C3266 1.356 . S
N3273 H3276 0.984 . S
N3273 H3277 0.985 . S
H3274 N3269 0.984 . S
H3275 N3269 0.985 . S
H3276 N3273 0.984 . S
H3277 N3273 0.985 . S
H3278 N3272 0.984 . S
H3279 N3272 0.984 . S
H3280 N3268 0.984 . S
H3281 N3268 0.985 . S
C3282 C3283 1.363 . S
C3282 C3288 1.379 . S
C3282 N3290 1.356 . S
C3283 C3282 1.363 . S
C3283 C3289 1.363 . S
C3284 C3285 1.363 . S
C3284 C3289 1.379 . S
C3284 N3291 1.356 . S
C3285 C3284 1.363 . S
C3285 C3288 1.363 . S
N3286 C3288 1.356 . S
N3286 H3298 0.984 . S
N3286 H3299 0.985 . S
N3287 C3289 1.356 . S
N3287 H3292 0.984 . S
N3287 H3293 0.985 . S
C3288 C3282 1.379 . S
C3288 C3285 1.363 . S
C3288 N3286 1.356 . S
C3289 C3283 1.363 . S
C3289 C3284 1.379 . S
C3289 N3287 1.356 . S
N3290 C3282 1.356 . S
N3290 H3296 0.984 . S
N3290 H3297 0.984 . S
N3291 C3284 1.356 . S
N3291 H3294 0.984 . S
N3291 H3295 0.985 . S
H3292 N3287 0.984 . S
H3293 N3287 0.985 . S
H3294 N3291 0.984 . S
H3295 N3291 0.985 . S
H3296 N3290 0.984 . S
H3297 N3290 0.984 . S
H3298 N3286 0.984 . S
H3299 N3286 0.985 . S
C3300 C3301 1.363 . S
C3300 C3306 1.379 . S
C3300 N3308 1.356 . S
C3301 C3300 1.363 . S
C3301 C3307 1.363 . S
C3302 C3303 1.363 . S
C3302 C3307 1.379 . S
C3302 N3309 1.356 . S
C3303 C3302 1.363 . S
C3303 C3306 1.363 . S
N3304 C3306 1.356 . S
N3304 H3316 0.984 . S
N3304 H3317 0.985 . S
N3305 C3307 1.356 . S
N3305 H3310 0.984 . S
N3305 H3311 0.985 . S
C3306 C3300 1.379 . S
C3306 C3303 1.363 . S
C3306 N3304 1.356 . S
C3307 C3301 1.363 . S
C3307 C3302 1.379 . S
C3307 N3305 1.356 . S
N3308 C3300 1.356 . S
N3308 H3314 0.984 . S
N3308 H3315 0.984 . S
N3309 C3302 1.356 . S
N3309 H3312 0.984 . S
N3309 H3313 0.985 . S
H3310 N3305 0.984 . S
H3311 N3305 0.985 . S
H3312 N3309 0.984 . S
H3313 N3309 0.985 . S
H3314 N3308 0.984 . S
H3315 N3308 0.984 . S
H3316 N3304 0.984 . S
H3317 N3304 0.985 . S
C3318 C3319 1.363 . S
C3318 C3324 1.379 . S
C3318 N3326 1.356 . S
C3319 C3318 1.363 . S
C3319 C3325 1.363 . S
C3320 C3321 1.363 . S
C3320 C3325 1.379 . S
C3320 N3327 1.356 . S
C3321 C3320 1.363 . S
C3321 C3324 1.363 . S
N3322 C3324 1.356 . S
N3322 H3334 0.984 . S
N3322 H3335 0.985 . S
N3323 C3325 1.356 . S
N3323 H3328 0.984 . S
N3323 H3329 0.985 . S
C3324 C3318 1.379 . S
C3324 C3321 1.363 . S
C3324 N3322 1.356 . S
C3325 C3319 1.363 . S
C3325 C3320 1.379 . S
C3325 N3323 1.356 . S
N3326 C3318 1.356 . S
N3326 H3332 0.984 . S
N3326 H3333 0.984 . S
N3327 C3320 1.356 . S
N3327 H3330 0.984 . S
N3327 H3331 0.985 . S
H3328 N3323 0.984 . S
H3329 N3323 0.985 . S
H3330 N3327 0.984 . S
H3331 N3327 0.985 . S
H3332 N3326 0.984 . S
H3333 N3326 0.984 . S
H3334 N3322 0.984 . S
H3335 N3322 0.985 . S
C3336 C3337 1.363 . S
C3336 C3342 1.379 . S
C3336 N3344 1.356 . S
C3337 C3336 1.363 . S
C3337 C3343 1.363 . S
C3338 C3339 1.363 . S
C3338 C3343 1.379 . S
C3338 N3345 1.356 . S
C3339 C3338 1.363 . S
C3339 C3342 1.363 . S
N3340 C3342 1.356 . S
N3340 H3352 0.984 . S
N3340 H3353 0.985 . S
N3341 C3343 1.356 . S
N3341 H3346 0.984 . S
N3341 H3347 0.985 . S
C3342 C3336 1.379 . S
C3342 C3339 1.363 . S
C3342 N3340 1.356 . S
C3343 C3337 1.363 . S
C3343 C3338 1.379 . S
C3343 N3341 1.356 . S
N3344 C3336 1.356 . S
N3344 H3350 0.984 . S
N3344 H3351 0.984 . S
N3345 C3338 1.356 . S
N3345 H3348 0.984 . S
N3345 H3349 0.985 . S
H3346 N3341 0.984 . S
H3347 N3341 0.985 . S
H3348 N3345 0.984 . S
H3349 N3345 0.985 . S
H3350 N3344 0.984 . S
H3351 N3344 0.984 . S
H3352 N3340 0.984 . S
H3353 N3340 0.985 . S
C3354 C3355 1.363 . S
C3354 C3360 1.379 . S
C3354 N3362 1.356 . S
C3355 C3354 1.363 . S
C3355 C3361 1.363 . S
C3356 C3357 1.363 . S
C3356 C3361 1.379 . S
C3356 N3363 1.356 . S
C3357 C3356 1.363 . S
C3357 C3360 1.363 . S
N3358 C3360 1.356 . S
N3358 H3370 0.984 . S
N3358 H3371 0.985 . S
N3359 C3361 1.356 . S
N3359 H3364 0.984 . S
N3359 H3365 0.985 . S
C3360 C3354 1.379 . S
C3360 C3357 1.363 . S
C3360 N3358 1.356 . S
C3361 C3355 1.363 . S
C3361 C3356 1.379 . S
C3361 N3359 1.356 . S
N3362 C3354 1.356 . S
N3362 H3368 0.984 . S
N3362 H3369 0.984 . S
N3363 C3356 1.356 . S
N3363 H3366 0.984 . S
N3363 H3367 0.985 . S
H3364 N3359 0.984 . S
H3365 N3359 0.985 . S
H3366 N3363 0.984 . S
H3367 N3363 0.985 . S
H3368 N3362 0.984 . S
H3369 N3362 0.984 . S
H3370 N3358 0.984 . S
H3371 N3358 0.985 . S
C3372 C3373 1.363 . S
C3372 C3378 1.379 . S
C3372 N3380 1.356 . S
C3373 C3372 1.363 . S
C3373 C3379 1.363 . S
C3374 C3375 1.363 . S
C3374 C3379 1.379 . S
C3374 N3381 1.356 . S
C3375 C3374 1.363 . S
C3375 C3378 1.363 . S
N3376 C3378 1.356 . S
N3376 H3388 0.984 . S
N3376 H3389 0.985 . S
N3377 C3379 1.356 . S
N3377 H3382 0.984 . S
N3377 H3383 0.985 . S
C3378 C3372 1.379 . S
C3378 C3375 1.363 . S
C3378 N3376 1.356 . S
C3379 C3373 1.363 . S
C3379 C3374 1.379 . S
C3379 N3377 1.356 . S
N3380 C3372 1.356 . S
N3380 H3386 0.984 . S
N3380 H3387 0.984 . S
N3381 C3374 1.356 . S
N3381 H3384 0.984 . S
N3381 H3385 0.985 . S
H3382 N3377 0.984 . S
H3383 N3377 0.985 . S
H3384 N3381 0.984 . S
H3385 N3381 0.985 . S
H3386 N3380 0.984 . S
H3387 N3380 0.984 . S
H3388 N3376 0.984 . S
H3389 N3376 0.985 . S
C3390 C3391 1.363 . S
C3390 C3396 1.379 . S
C3390 N3398 1.356 . S
C3391 C3390 1.363 . S
C3391 C3397 1.363 . S
C3392 C3393 1.363 . S
C3392 C3397 1.379 . S
C3392 N3399 1.356 . S
C3393 C3392 1.363 . S
C3393 C3396 1.363 . S
N3394 C3396 1.356 . S
N3394 H3406 0.984 . S
N3394 H3407 0.985 . S
N3395 C3397 1.356 . S
N3395 H3400 0.984 . S
N3395 H3401 0.985 . S
C3396 C3390 1.379 . S
C3396 C3393 1.363 . S
C3396 N3394 1.356 . S
C3397 C3391 1.363 . S
C3397 C3392 1.379 . S
C3397 N3395 1.356 . S
N3398 C3390 1.356 . S
N3398 H3404 0.984 . S
N3398 H3405 0.984 . S
N3399 C3392 1.356 . S
N3399 H3402 0.984 . S
N3399 H3403 0.985 . S
H3400 N3395 0.984 . S
H3401 N3395 0.985 . S
H3402 N3399 0.984 . S
H3403 N3399 0.985 . S
H3404 N3398 0.984 . S
H3405 N3398 0.984 . S
H3406 N3394 0.984 . S
H3407 N3394 0.985 . S
C3408 C3409 1.363 . S
C3408 C3414 1.379 . S
C3408 N3416 1.356 . S
C3409 C3408 1.363 . S
C3409 C3415 1.363 . S
C3410 C3411 1.363 . S
C3410 C3415 1.379 . S
C3410 N3417 1.356 . S
C3411 C3410 1.363 . S
C3411 C3414 1.363 . S
N3412 C3414 1.356 . S
N3412 H3424 0.984 . S
N3412 H3425 0.985 . S
N3413 C3415 1.356 . S
N3413 H3418 0.984 . S
N3413 H3419 0.985 . S
C3414 C3408 1.379 . S
C3414 C3411 1.363 . S
C3414 N3412 1.356 . S
C3415 C3409 1.363 . S
C3415 C3410 1.379 . S
C3415 N3413 1.356 . S
N3416 C3408 1.356 . S
N3416 H3422 0.984 . S
N3416 H3423 0.984 . S
N3417 C3410 1.356 . S
N3417 H3420 0.984 . S
N3417 H3421 0.985 . S
H3418 N3413 0.984 . S
H3419 N3413 0.985 . S
H3420 N3417 0.984 . S
H3421 N3417 0.985 . S
H3422 N3416 0.984 . S
H3423 N3416 0.984 . S
H3424 N3412 0.984 . S
H3425 N3412 0.985 . S
C3426 C3427 1.363 . S
C3426 C3432 1.379 . S
C3426 N3434 1.356 . S
C3427 C3426 1.363 . S
C3427 C3433 1.363 . S
C3428 C3429 1.363 . S
C3428 C3433 1.379 . S
C3428 N3435 1.356 . S
C3429 C3428 1.363 . S
C3429 C3432 1.363 . S
N3430 C3432 1.356 . S
N3430 H3442 0.984 . S
N3430 H3443 0.985 . S
N3431 C3433 1.356 . S
N3431 H3436 0.984 . S
N3431 H3437 0.985 . S
C3432 C3426 1.379 . S
C3432 C3429 1.363 . S
C3432 N3430 1.356 . S
C3433 C3427 1.363 . S
C3433 C3428 1.379 . S
C3433 N3431 1.356 . S
N3434 C3426 1.356 . S
N3434 H3440 0.984 . S
N3434 H3441 0.984 . S
N3435 C3428 1.356 . S
N3435 H3438 0.984 . S
N3435 H3439 0.985 . S
H3436 N3431 0.984 . S
H3437 N3431 0.985 . S
H3438 N3435 0.984 . S
H3439 N3435 0.985 . S
H3440 N3434 0.984 . S
H3441 N3434 0.984 . S
H3442 N3430 0.984 . S
H3443 N3430 0.985 . S
C3444 C3445 1.363 . S
C3444 C3450 1.379 . S
C3444 N3452 1.356 . S
C3445 C3444 1.363 . S
C3445 C3451 1.363 . S
C3446 C3447 1.363 . S
C3446 C3451 1.379 . S
C3446 N3453 1.356 . S
C3447 C3446 1.363 . S
C3447 C3450 1.363 . S
N3448 C3450 1.356 . S
N3448 H3460 0.984 . S
N3448 H3461 0.985 . S
N3449 C3451 1.356 . S
N3449 H3454 0.984 . S
N3449 H3455 0.985 . S
C3450 C3444 1.379 . S
C3450 C3447 1.363 . S
C3450 N3448 1.356 . S
C3451 C3445 1.363 . S
C3451 C3446 1.379 . S
C3451 N3449 1.356 . S
N3452 C3444 1.356 . S
N3452 H3458 0.984 . S
N3452 H3459 0.984 . S
N3453 C3446 1.356 . S
N3453 H3456 0.984 . S
N3453 H3457 0.985 . S
H3454 N3449 0.984 . S
H3455 N3449 0.985 . S
H3456 N3453 0.984 . S
H3457 N3453 0.985 . S
H3458 N3452 0.984 . S
H3459 N3452 0.984 . S
H3460 N3448 0.984 . S
H3461 N3448 0.985 . S
C3462 C3463 1.363 . S
C3462 C3468 1.379 . S
C3462 N3470 1.356 . S
C3463 C3462 1.363 . S
C3463 C3469 1.363 . S
C3464 C3465 1.363 . S
C3464 C3469 1.379 . S
C3464 N3471 1.356 . S
C3465 C3464 1.363 . S
C3465 C3468 1.363 . S
N3466 C3468 1.356 . S
N3466 H3478 0.984 . S
N3466 H3479 0.985 . S
N3467 C3469 1.356 . S
N3467 H3472 0.984 . S
N3467 H3473 0.985 . S
C3468 C3462 1.379 . S
C3468 C3465 1.363 . S
C3468 N3466 1.356 . S
C3469 C3463 1.363 . S
C3469 C3464 1.379 . S
C3469 N3467 1.356 . S
N3470 C3462 1.356 . S
N3470 H3476 0.984 . S
N3470 H3477 0.984 . S
N3471 C3464 1.356 . S
N3471 H3474 0.984 . S
N3471 H3475 0.985 . S
H3472 N3467 0.984 . S
H3473 N3467 0.985 . S
H3474 N3471 0.984 . S
H3475 N3471 0.985 . S
H3476 N3470 0.984 . S
H3477 N3470 0.984 . S
H3478 N3466 0.984 . S
H3479 N3466 0.985 . S
C3480 C3481 1.363 . S
C3480 C3486 1.379 . S
C3480 N3488 1.356 . S
C3481 C3480 1.363 . S
C3481 C3487 1.363 . S
C3482 C3483 1.363 . S
C3482 C3487 1.379 . S
C3482 N3489 1.356 . S
C3483 C3482 1.363 . S
C3483 C3486 1.363 . S
N3484 C3486 1.356 . S
N3484 H3496 0.984 . S
N3484 H3497 0.985 . S
N3485 C3487 1.356 . S
N3485 H3490 0.984 . S
N3485 H3491 0.985 . S
C3486 C3480 1.379 . S
C3486 C3483 1.363 . S
C3486 N3484 1.356 . S
C3487 C3481 1.363 . S
C3487 C3482 1.379 . S
C3487 N3485 1.356 . S
N3488 C3480 1.356 . S
N3488 H3494 0.984 . S
N3488 H3495 0.984 . S
N3489 C3482 1.356 . S
N3489 H3492 0.984 . S
N3489 H3493 0.985 . S
H3490 N3485 0.984 . S
H3491 N3485 0.985 . S
H3492 N3489 0.984 . S
H3493 N3489 0.985 . S
H3494 N3488 0.984 . S
H3495 N3488 0.984 . S
H3496 N3484 0.984 . S
H3497 N3484 0.985 . S
C3498 C3499 1.363 . S
C3498 C3504 1.379 . S
C3498 N3506 1.356 . S
C3499 C3498 1.363 . S
C3499 C3505 1.363 . S
C3500 C3501 1.363 . S
C3500 C3505 1.379 . S
C3500 N3507 1.356 . S
C3501 C3500 1.363 . S
C3501 C3504 1.363 . S
N3502 C3504 1.356 . S
N3502 H3514 0.984 . S
N3502 H3515 0.985 . S
N3503 C3505 1.356 . S
N3503 H3508 0.984 . S
N3503 H3509 0.985 . S
C3504 C3498 1.379 . S
C3504 C3501 1.363 . S
C3504 N3502 1.356 . S
C3505 C3499 1.363 . S
C3505 C3500 1.379 . S
C3505 N3503 1.356 . S
N3506 C3498 1.356 . S
N3506 H3512 0.984 . S
N3506 H3513 0.984 . S
N3507 C3500 1.356 . S
N3507 H3510 0.984 . S
N3507 H3511 0.985 . S
H3508 N3503 0.984 . S
H3509 N3503 0.985 . S
H3510 N3507 0.984 . S
H3511 N3507 0.985 . S
H3512 N3506 0.984 . S
H3513 N3506 0.984 . S
H3514 N3502 0.984 . S
H3515 N3502 0.985 . S
C3516 C3517 1.363 . S
C3516 C3522 1.379 . S
C3516 N3524 1.356 . S
C3517 C3516 1.363 . S
C3517 C3523 1.363 . S
C3518 C3519 1.363 . S
C3518 C3523 1.379 . S
C3518 N3525 1.356 . S
C3519 C3518 1.363 . S
C3519 C3522 1.363 . S
N3520 C3522 1.356 . S
N3520 H3532 0.984 . S
N3520 H3533 0.985 . S
N3521 C3523 1.356 . S
N3521 H3526 0.984 . S
N3521 H3527 0.985 . S
C3522 C3516 1.379 . S
C3522 C3519 1.363 . S
C3522 N3520 1.356 . S
C3523 C3517 1.363 . S
C3523 C3518 1.379 . S
C3523 N3521 1.356 . S
N3524 C3516 1.356 . S
N3524 H3530 0.984 . S
N3524 H3531 0.984 . S
N3525 C3518 1.356 . S
N3525 H3528 0.984 . S
N3525 H3529 0.985 . S
H3526 N3521 0.984 . S
H3527 N3521 0.985 . S
H3528 N3525 0.984 . S
H3529 N3525 0.985 . S
H3530 N3524 0.984 . S
H3531 N3524 0.984 . S
H3532 N3520 0.984 . S
H3533 N3520 0.985 . S
C3534 C3535 1.363 . S
C3534 C3540 1.379 . S
C3534 N3542 1.356 . S
C3535 C3534 1.363 . S
C3535 C3541 1.363 . S
C3536 C3537 1.363 . S
C3536 C3541 1.379 . S
C3536 N3543 1.356 . S
C3537 C3536 1.363 . S
C3537 C3540 1.363 . S
N3538 C3540 1.356 . S
N3538 H3550 0.984 . S
N3538 H3551 0.985 . S
N3539 C3541 1.356 . S
N3539 H3544 0.984 . S
N3539 H3545 0.985 . S
C3540 C3534 1.379 . S
C3540 C3537 1.363 . S
C3540 N3538 1.356 . S
C3541 C3535 1.363 . S
C3541 C3536 1.379 . S
C3541 N3539 1.356 . S
N3542 C3534 1.356 . S
N3542 H3548 0.984 . S
N3542 H3549 0.984 . S
N3543 C3536 1.356 . S
N3543 H3546 0.984 . S
N3543 H3547 0.985 . S
H3544 N3539 0.984 . S
H3545 N3539 0.985 . S
H3546 N3543 0.984 . S
H3547 N3543 0.985 . S
H3548 N3542 0.984 . S
H3549 N3542 0.984 . S
H3550 N3538 0.984 . S
H3551 N3538 0.985 . S
C3552 C3553 1.363 . S
C3552 C3558 1.379 . S
C3552 N3560 1.356 . S
C3553 C3552 1.363 . S
C3553 C3559 1.363 . S
C3554 C3555 1.363 . S
C3554 C3559 1.379 . S
C3554 N3561 1.356 . S
C3555 C3554 1.363 . S
C3555 C3558 1.363 . S
N3556 C3558 1.356 . S
N3556 H3568 0.984 . S
N3556 H3569 0.985 . S
N3557 C3559 1.356 . S
N3557 H3562 0.984 . S
N3557 H3563 0.985 . S
C3558 C3552 1.379 . S
C3558 C3555 1.363 . S
C3558 N3556 1.356 . S
C3559 C3553 1.363 . S
C3559 C3554 1.379 . S
C3559 N3557 1.356 . S
N3560 C3552 1.356 . S
N3560 H3566 0.984 . S
N3560 H3567 0.984 . S
N3561 C3554 1.356 . S
N3561 H3564 0.984 . S
N3561 H3565 0.985 . S
H3562 N3557 0.984 . S
H3563 N3557 0.985 . S
H3564 N3561 0.984 . S
H3565 N3561 0.985 . S
H3566 N3560 0.984 . S
H3567 N3560 0.984 . S
H3568 N3556 0.984 . S
H3569 N3556 0.985 . S
C3570 C3571 1.363 . S
C3570 C3576 1.379 . S
C3570 N3578 1.356 . S
C3571 C3570 1.363 . S
C3571 C3577 1.363 . S
C3572 C3573 1.363 . S
C3572 C3577 1.379 . S
C3572 N3579 1.356 . S
C3573 C3572 1.363 . S
C3573 C3576 1.363 . S
N3574 C3576 1.356 . S
N3574 H3586 0.984 . S
N3574 H3587 0.985 . S
N3575 C3577 1.356 . S
N3575 H3580 0.984 . S
N3575 H3581 0.985 . S
C3576 C3570 1.379 . S
C3576 C3573 1.363 . S
C3576 N3574 1.356 . S
C3577 C3571 1.363 . S
C3577 C3572 1.379 . S
C3577 N3575 1.356 . S
N3578 C3570 1.356 . S
N3578 H3584 0.984 . S
N3578 H3585 0.984 . S
N3579 C3572 1.356 . S
N3579 H3582 0.984 . S
N3579 H3583 0.985 . S
H3580 N3575 0.984 . S
H3581 N3575 0.985 . S
H3582 N3579 0.984 . S
H3583 N3579 0.985 . S
H3584 N3578 0.984 . S
H3585 N3578 0.984 . S
H3586 N3574 0.984 . S
H3587 N3574 0.985 . S
C3588 C3589 1.363 . S
C3588 C3594 1.379 . S
C3588 N3596 1.356 . S
C3589 C3588 1.363 . S
C3589 C3595 1.363 . S
C3590 C3591 1.363 . S
C3590 C3595 1.379 . S
C3590 N3597 1.356 . S
C3591 C3590 1.363 . S
C3591 C3594 1.363 . S
N3592 C3594 1.356 . S
N3592 H3604 0.984 . S
N3592 H3605 0.985 . S
N3593 C3595 1.356 . S
N3593 H3598 0.984 . S
N3593 H3599 0.985 . S
C3594 C3588 1.379 . S
C3594 C3591 1.363 . S
C3594 N3592 1.356 . S
C3595 C3589 1.363 . S
C3595 C3590 1.379 . S
C3595 N3593 1.356 . S
N3596 C3588 1.356 . S
N3596 H3602 0.984 . S
N3596 H3603 0.984 . S
N3597 C3590 1.356 . S
N3597 H3600 0.984 . S
N3597 H3601 0.985 . S
H3598 N3593 0.984 . S
H3599 N3593 0.985 . S
H3600 N3597 0.984 . S
H3601 N3597 0.985 . S
H3602 N3596 0.984 . S
H3603 N3596 0.984 . S
H3604 N3592 0.984 . S
H3605 N3592 0.985 . S
C3606 C3607 1.363 . S
C3606 C3612 1.379 . S
C3606 N3614 1.356 . S
C3607 C3606 1.363 . S
C3607 C3613 1.363 . S
C3608 C3609 1.363 . S
C3608 C3613 1.379 . S
C3608 N3615 1.356 . S
C3609 C3608 1.363 . S
C3609 C3612 1.363 . S
N3610 C3612 1.356 . S
N3610 H3622 0.984 . S
N3610 H3623 0.985 . S
N3611 C3613 1.356 . S
N3611 H3616 0.984 . S
N3611 H3617 0.985 . S
C3612 C3606 1.379 . S
C3612 C3609 1.363 . S
C3612 N3610 1.356 . S
C3613 C3607 1.363 . S
C3613 C3608 1.379 . S
C3613 N3611 1.356 . S
N3614 C3606 1.356 . S
N3614 H3620 0.984 . S
N3614 H3621 0.984 . S
N3615 C3608 1.356 . S
N3615 H3618 0.984 . S
N3615 H3619 0.985 . S
H3616 N3611 0.984 . S
H3617 N3611 0.985 . S
H3618 N3615 0.984 . S
H3619 N3615 0.985 . S
H3620 N3614 0.984 . S
H3621 N3614 0.984 . S
H3622 N3610 0.984 . S
H3623 N3610 0.985 . S
C3624 C3625 1.363 . S
C3624 C3630 1.379 . S
C3624 N3632 1.356 . S
C3625 C3624 1.363 . S
C3625 C3631 1.363 . S
C3626 C3627 1.363 . S
C3626 C3631 1.379 . S
C3626 N3633 1.356 . S
C3627 C3626 1.363 . S
C3627 C3630 1.363 . S
N3628 C3630 1.356 . S
N3628 H3640 0.984 . S
N3628 H3641 0.985 . S
N3629 C3631 1.356 . S
N3629 H3634 0.984 . S
N3629 H3635 0.985 . S
C3630 C3624 1.379 . S
C3630 C3627 1.363 . S
C3630 N3628 1.356 . S
C3631 C3625 1.363 . S
C3631 C3626 1.379 . S
C3631 N3629 1.356 . S
N3632 C3624 1.356 . S
N3632 H3638 0.984 . S
N3632 H3639 0.984 . S
N3633 C3626 1.356 . S
N3633 H3636 0.984 . S
N3633 H3637 0.985 . S
H3634 N3629 0.984 . S
H3635 N3629 0.985 . S
H3636 N3633 0.984 . S
H3637 N3633 0.985 . S
H3638 N3632 0.984 . S
H3639 N3632 0.984 . S
H3640 N3628 0.984 . S
H3641 N3628 0.985 . S
C3642 C3643 1.363 . S
C3642 C3648 1.379 . S
C3642 N3650 1.356 . S
C3643 C3642 1.363 . S
C3643 C3649 1.363 . S
C3644 C3645 1.363 . S
C3644 C3649 1.379 . S
C3644 N3651 1.356 . S
C3645 C3644 1.363 . S
C3645 C3648 1.363 . S
N3646 C3648 1.356 . S
N3646 H3658 0.984 . S
N3646 H3659 0.985 . S
N3647 C3649 1.356 . S
N3647 H3652 0.984 . S
N3647 H3653 0.985 . S
C3648 C3642 1.379 . S
C3648 C3645 1.363 . S
C3648 N3646 1.356 . S
C3649 C3643 1.363 . S
C3649 C3644 1.379 . S
C3649 N3647 1.356 . S
N3650 C3642 1.356 . S
N3650 H3656 0.984 . S
N3650 H3657 0.984 . S
N3651 C3644 1.356 . S
N3651 H3654 0.984 . S
N3651 H3655 0.985 . S
H3652 N3647 0.984 . S
H3653 N3647 0.985 . S
H3654 N3651 0.984 . S
H3655 N3651 0.985 . S
H3656 N3650 0.984 . S
H3657 N3650 0.984 . S
H3658 N3646 0.984 . S
H3659 N3646 0.985 . S
C3660 C3661 1.363 . S
C3660 C3666 1.379 . S
C3660 N3668 1.356 . S
C3661 C3660 1.363 . S
C3661 C3667 1.363 . S
C3662 C3663 1.363 . S
C3662 C3667 1.379 . S
C3662 N3669 1.356 . S
C3663 C3662 1.363 . S
C3663 C3666 1.363 . S
N3664 C3666 1.356 . S
N3664 H3676 0.984 . S
N3664 H3677 0.985 . S
N3665 C3667 1.356 . S
N3665 H3670 0.984 . S
N3665 H3671 0.985 . S
C3666 C3660 1.379 . S
C3666 C3663 1.363 . S
C3666 N3664 1.356 . S
C3667 C3661 1.363 . S
C3667 C3662 1.379 . S
C3667 N3665 1.356 . S
N3668 C3660 1.356 . S
N3668 H3674 0.984 . S
N3668 H3675 0.984 . S
N3669 C3662 1.356 . S
N3669 H3672 0.984 . S
N3669 H3673 0.985 . S
H3670 N3665 0.984 . S
H3671 N3665 0.985 . S
H3672 N3669 0.984 . S
H3673 N3669 0.985 . S
H3674 N3668 0.984 . S
H3675 N3668 0.984 . S
H3676 N3664 0.984 . S
H3677 N3664 0.985 . S
C3678 C3679 1.363 . S
C3678 C3684 1.379 . S
C3678 N3686 1.356 . S
C3679 C3678 1.363 . S
C3679 C3685 1.363 . S
C3680 C3681 1.363 . S
C3680 C3685 1.379 . S
C3680 N3687 1.356 . S
C3681 C3680 1.363 . S
C3681 C3684 1.363 . S
N3682 C3684 1.356 . S
N3682 H3694 0.984 . S
N3682 H3695 0.985 . S
N3683 C3685 1.356 . S
N3683 H3688 0.984 . S
N3683 H3689 0.985 . S
C3684 C3678 1.379 . S
C3684 C3681 1.363 . S
C3684 N3682 1.356 . S
C3685 C3679 1.363 . S
C3685 C3680 1.379 . S
C3685 N3683 1.356 . S
N3686 C3678 1.356 . S
N3686 H3692 0.984 . S
N3686 H3693 0.984 . S
N3687 C3680 1.356 . S
N3687 H3690 0.984 . S
N3687 H3691 0.985 . S
H3688 N3683 0.984 . S
H3689 N3683 0.985 . S
H3690 N3687 0.984 . S
H3691 N3687 0.985 . S
H3692 N3686 0.984 . S
H3693 N3686 0.984 . S
H3694 N3682 0.984 . S
H3695 N3682 0.985 . S
C3696 C3697 1.363 . S
C3696 C3702 1.379 . S
C3696 N3704 1.356 . S
C3697 C3696 1.363 . S
C3697 C3703 1.363 . S
C3698 C3699 1.363 . S
C3698 C3703 1.379 . S
C3698 N3705 1.356 . S
C3699 C3698 1.363 . S
C3699 C3702 1.363 . S
N3700 C3702 1.356 . S
N3700 H3712 0.984 . S
N3700 H3713 0.985 . S
N3701 C3703 1.356 . S
N3701 H3706 0.984 . S
N3701 H3707 0.985 . S
C3702 C3696 1.379 . S
C3702 C3699 1.363 . S
C3702 N3700 1.356 . S
C3703 C3697 1.363 . S
C3703 C3698 1.379 . S
C3703 N3701 1.356 . S
N3704 C3696 1.356 . S
N3704 H3710 0.984 . S
N3704 H3711 0.984 . S
N3705 C3698 1.356 . S
N3705 H3708 0.984 . S
N3705 H3709 0.985 . S
H3706 N3701 0.984 . S
H3707 N3701 0.985 . S
H3708 N3705 0.984 . S
H3709 N3705 0.985 . S
H3710 N3704 0.984 . S
H3711 N3704 0.984 . S
H3712 N3700 0.984 . S
H3713 N3700 0.985 . S
C3714 C3715 1.363 . S
C3714 C3720 1.379 . S
C3714 N3722 1.356 . S
C3715 C3714 1.363 . S
C3715 C3721 1.363 . S
C3716 C3717 1.363 . S
C3716 C3721 1.379 . S
C3716 N3723 1.356 . S
C3717 C3716 1.363 . S
C3717 C3720 1.363 . S
N3718 C3720 1.356 . S
N3718 H3730 0.984 . S
N3718 H3731 0.985 . S
N3719 C3721 1.356 . S
N3719 H3724 0.984 . S
N3719 H3725 0.985 . S
C3720 C3714 1.379 . S
C3720 C3717 1.363 . S
C3720 N3718 1.356 . S
C3721 C3715 1.363 . S
C3721 C3716 1.379 . S
C3721 N3719 1.356 . S
N3722 C3714 1.356 . S
N3722 H3728 0.984 . S
N3722 H3729 0.984 . S
N3723 C3716 1.356 . S
N3723 H3726 0.984 . S
N3723 H3727 0.985 . S
H3724 N3719 0.984 . S
H3725 N3719 0.985 . S
H3726 N3723 0.984 . S
H3727 N3723 0.985 . S
H3728 N3722 0.984 . S
H3729 N3722 0.984 . S
H3730 N3718 0.984 . S
H3731 N3718 0.985 . S
C3732 C3733 1.363 . S
C3732 C3738 1.379 . S
C3732 N3740 1.356 . S
C3733 C3732 1.363 . S
C3733 C3739 1.363 . S
C3734 C3735 1.363 . S
C3734 C3739 1.379 . S
C3734 N3741 1.356 . S
C3735 C3734 1.363 . S
C3735 C3738 1.363 . S
N3736 C3738 1.356 . S
N3736 H3748 0.984 . S
N3736 H3749 0.985 . S
N3737 C3739 1.356 . S
N3737 H3742 0.984 . S
N3737 H3743 0.985 . S
C3738 C3732 1.379 . S
C3738 C3735 1.363 . S
C3738 N3736 1.356 . S
C3739 C3733 1.363 . S
C3739 C3734 1.379 . S
C3739 N3737 1.356 . S
N3740 C3732 1.356 . S
N3740 H3746 0.984 . S
N3740 H3747 0.984 . S
N3741 C3734 1.356 . S
N3741 H3744 0.984 . S
N3741 H3745 0.985 . S
H3742 N3737 0.984 . S
H3743 N3737 0.985 . S
H3744 N3741 0.984 . S
H3745 N3741 0.985 . S
H3746 N3740 0.984 . S
H3747 N3740 0.984 . S
H3748 N3736 0.984 . S
H3749 N3736 0.985 . S
C3750 C3751 1.363 . S
C3750 C3756 1.379 . S
C3750 N3758 1.356 . S
C3751 C3750 1.363 . S
C3751 C3757 1.363 . S
C3752 C3753 1.363 . S
C3752 C3757 1.379 . S
C3752 N3759 1.356 . S
C3753 C3752 1.363 . S
C3753 C3756 1.363 . S
N3754 C3756 1.356 . S
N3754 H3766 0.984 . S
N3754 H3767 0.985 . S
N3755 C3757 1.356 . S
N3755 H3760 0.984 . S
N3755 H3761 0.985 . S
C3756 C3750 1.379 . S
C3756 C3753 1.363 . S
C3756 N3754 1.356 . S
C3757 C3751 1.363 . S
C3757 C3752 1.379 . S
C3757 N3755 1.356 . S
N3758 C3750 1.356 . S
N3758 H3764 0.984 . S
N3758 H3765 0.984 . S
N3759 C3752 1.356 . S
N3759 H3762 0.984 . S
N3759 H3763 0.985 . S
H3760 N3755 0.984 . S
H3761 N3755 0.985 . S
H3762 N3759 0.984 . S
H3763 N3759 0.985 . S
H3764 N3758 0.984 . S
H3765 N3758 0.984 . S
H3766 N3754 0.984 . S
H3767 N3754 0.985 . S
C3768 C3769 1.363 . S
C3768 C3774 1.379 . S
C3768 N3776 1.356 . S
C3769 C3768 1.363 . S
C3769 C3775 1.363 . S
C3770 C3771 1.363 . S
C3770 C3775 1.379 . S
C3770 N3777 1.356 . S
C3771 C3770 1.363 . S
C3771 C3774 1.363 . S
N3772 C3774 1.356 . S
N3772 H3784 0.984 . S
N3772 H3785 0.985 . S
N3773 C3775 1.356 . S
N3773 H3778 0.984 . S
N3773 H3779 0.985 . S
C3774 C3768 1.379 . S
C3774 C3771 1.363 . S
C3774 N3772 1.356 . S
C3775 C3769 1.363 . S
C3775 C3770 1.379 . S
C3775 N3773 1.356 . S
N3776 C3768 1.356 . S
N3776 H3782 0.984 . S
N3776 H3783 0.984 . S
N3777 C3770 1.356 . S
N3777 H3780 0.984 . S
N3777 H3781 0.985 . S
H3778 N3773 0.984 . S
H3779 N3773 0.985 . S
H3780 N3777 0.984 . S
H3781 N3777 0.985 . S
H3782 N3776 0.984 . S
H3783 N3776 0.984 . S
H3784 N3772 0.984 . S
H3785 N3772 0.985 . S
C3786 C3787 1.363 . S
C3786 C3792 1.379 . S
C3786 N3794 1.356 . S
C3787 C3786 1.363 . S
C3787 C3793 1.363 . S
C3788 C3789 1.363 . S
C3788 C3793 1.379 . S
C3788 N3795 1.356 . S
C3789 C3788 1.363 . S
C3789 C3792 1.363 . S
N3790 C3792 1.356 . S
N3790 H3802 0.984 . S
N3790 H3803 0.985 . S
N3791 C3793 1.356 . S
N3791 H3796 0.984 . S
N3791 H3797 0.985 . S
C3792 C3786 1.379 . S
C3792 C3789 1.363 . S
C3792 N3790 1.356 . S
C3793 C3787 1.363 . S
C3793 C3788 1.379 . S
C3793 N3791 1.356 . S
N3794 C3786 1.356 . S
N3794 H3800 0.984 . S
N3794 H3801 0.984 . S
N3795 C3788 1.356 . S
N3795 H3798 0.984 . S
N3795 H3799 0.985 . S
H3796 N3791 0.984 . S
H3797 N3791 0.985 . S
H3798 N3795 0.984 . S
H3799 N3795 0.985 . S
H3800 N3794 0.984 . S
H3801 N3794 0.984 . S
H3802 N3790 0.984 . S
H3803 N3790 0.985 . S
C3804 C3805 1.363 . S
C3804 C3810 1.379 . S
C3804 N3812 1.356 . S
C3805 C3804 1.363 . S
C3805 C3811 1.363 . S
C3806 C3807 1.363 . S
C3806 C3811 1.379 . S
C3806 N3813 1.356 . S
C3807 C3806 1.363 . S
C3807 C3810 1.363 . S
N3808 C3810 1.356 . S
N3808 H3820 0.984 . S
N3808 H3821 0.985 . S
N3809 C3811 1.356 . S
N3809 H3814 0.984 . S
N3809 H3815 0.985 . S
C3810 C3804 1.379 . S
C3810 C3807 1.363 . S
C3810 N3808 1.356 . S
C3811 C3805 1.363 . S
C3811 C3806 1.379 . S
C3811 N3809 1.356 . S
N3812 C3804 1.356 . S
N3812 H3818 0.984 . S
N3812 H3819 0.984 . S
N3813 C3806 1.356 . S
N3813 H3816 0.984 . S
N3813 H3817 0.985 . S
H3814 N3809 0.984 . S
H3815 N3809 0.985 . S
H3816 N3813 0.984 . S
H3817 N3813 0.985 . S
H3818 N3812 0.984 . S
H3819 N3812 0.984 . S
H3820 N3808 0.984 . S
H3821 N3808 0.985 . S
C3822 C3823 1.363 . S
C3822 C3828 1.379 . S
C3822 N3830 1.356 . S
C3823 C3822 1.363 . S
C3823 C3829 1.363 . S
C3824 C3825 1.363 . S
C3824 C3829 1.379 . S
C3824 N3831 1.356 . S
C3825 C3824 1.363 . S
C3825 C3828 1.363 . S
N3826 C3828 1.356 . S
N3826 H3838 0.984 . S
N3826 H3839 0.985 . S
N3827 C3829 1.356 . S
N3827 H3832 0.984 . S
N3827 H3833 0.985 . S
C3828 C3822 1.379 . S
C3828 C3825 1.363 . S
C3828 N3826 1.356 . S
C3829 C3823 1.363 . S
C3829 C3824 1.379 . S
C3829 N3827 1.356 . S
N3830 C3822 1.356 . S
N3830 H3836 0.984 . S
N3830 H3837 0.984 . S
N3831 C3824 1.356 . S
N3831 H3834 0.984 . S
N3831 H3835 0.985 . S
H3832 N3827 0.984 . S
H3833 N3827 0.985 . S
H3834 N3831 0.984 . S
H3835 N3831 0.985 . S
H3836 N3830 0.984 . S
H3837 N3830 0.984 . S
H3838 N3826 0.984 . S
H3839 N3826 0.985 . S
C3840 C3841 1.363 . S
C3840 C3846 1.379 . S
C3840 N3848 1.356 . S
C3841 C3840 1.363 . S
C3841 C3847 1.363 . S
C3842 C3843 1.363 . S
C3842 C3847 1.379 . S
C3842 N3849 1.356 . S
C3843 C3842 1.363 . S
C3843 C3846 1.363 . S
N3844 C3846 1.356 . S
N3844 H3856 0.984 . S
N3844 H3857 0.985 . S
N3845 C3847 1.356 . S
N3845 H3850 0.984 . S
N3845 H3851 0.985 . S
C3846 C3840 1.379 . S
C3846 C3843 1.363 . S
C3846 N3844 1.356 . S
C3847 C3841 1.363 . S
C3847 C3842 1.379 . S
C3847 N3845 1.356 . S
N3848 C3840 1.356 . S
N3848 H3854 0.984 . S
N3848 H3855 0.984 . S
N3849 C3842 1.356 . S
N3849 H3852 0.984 . S
N3849 H3853 0.985 . S
H3850 N3845 0.984 . S
H3851 N3845 0.985 . S
H3852 N3849 0.984 . S
H3853 N3849 0.985 . S
H3854 N3848 0.984 . S
H3855 N3848 0.984 . S
H3856 N3844 0.984 . S
H3857 N3844 0.985 . S
C3858 C3859 1.363 . S
C3858 C3864 1.379 . S
C3858 N3866 1.356 . S
C3859 C3858 1.363 . S
C3859 C3865 1.363 . S
C3860 C3861 1.363 . S
C3860 C3865 1.379 . S
C3860 N3867 1.356 . S
C3861 C3860 1.363 . S
C3861 C3864 1.363 . S
N3862 C3864 1.356 . S
N3862 H3874 0.984 . S
N3862 H3875 0.985 . S
N3863 C3865 1.356 . S
N3863 H3868 0.984 . S
N3863 H3869 0.985 . S
C3864 C3858 1.379 . S
C3864 C3861 1.363 . S
C3864 N3862 1.356 . S
C3865 C3859 1.363 . S
C3865 C3860 1.379 . S
C3865 N3863 1.356 . S
N3866 C3858 1.356 . S
N3866 H3872 0.984 . S
N3866 H3873 0.984 . S
N3867 C3860 1.356 . S
N3867 H3870 0.984 . S
N3867 H3871 0.985 . S
H3868 N3863 0.984 . S
H3869 N3863 0.985 . S
H3870 N3867 0.984 . S
H3871 N3867 0.985 . S
H3872 N3866 0.984 . S
H3873 N3866 0.984 . S
H3874 N3862 0.984 . S
H3875 N3862 0.985 . S
C3876 C3877 1.363 . S
C3876 C3882 1.379 . S
C3876 N3884 1.356 . S
C3877 C3876 1.363 . S
C3877 C3883 1.363 . S
C3878 C3879 1.363 . S
C3878 C3883 1.379 . S
C3878 N3885 1.356 . S
C3879 C3878 1.363 . S
C3879 C3882 1.363 . S
N3880 C3882 1.356 . S
N3880 H3892 0.984 . S
N3880 H3893 0.985 . S
N3881 C3883 1.356 . S
N3881 H3886 0.984 . S
N3881 H3887 0.985 . S
C3882 C3876 1.379 . S
C3882 C3879 1.363 . S
C3882 N3880 1.356 . S
C3883 C3877 1.363 . S
C3883 C3878 1.379 . S
C3883 N3881 1.356 . S
N3884 C3876 1.356 . S
N3884 H3890 0.984 . S
N3884 H3891 0.984 . S
N3885 C3878 1.356 . S
N3885 H3888 0.984 . S
N3885 H3889 0.985 . S
H3886 N3881 0.984 . S
H3887 N3881 0.985 . S
H3888 N3885 0.984 . S
H3889 N3885 0.985 . S
H3890 N3884 0.984 . S
H3891 N3884 0.984 . S
H3892 N3880 0.984 . S
H3893 N3880 0.985 . S
C3894 C3895 1.363 . S
C3894 C3900 1.379 . S
C3894 N3902 1.356 . S
C3895 C3894 1.363 . S
C3895 C3901 1.363 . S
C3896 C3897 1.363 . S
C3896 C3901 1.379 . S
C3896 N3903 1.356 . S
C3897 C3896 1.363 . S
C3897 C3900 1.363 . S
N3898 C3900 1.356 . S
N3898 H3910 0.984 . S
N3898 H3911 0.985 . S
N3899 C3901 1.356 . S
N3899 H3904 0.984 . S
N3899 H3905 0.985 . S
C3900 C3894 1.379 . S
C3900 C3897 1.363 . S
C3900 N3898 1.356 . S
C3901 C3895 1.363 . S
C3901 C3896 1.379 . S
C3901 N3899 1.356 . S
N3902 C3894 1.356 . S
N3902 H3908 0.984 . S
N3902 H3909 0.984 . S
N3903 C3896 1.356 . S
N3903 H3906 0.984 . S
N3903 H3907 0.985 . S
H3904 N3899 0.984 . S
H3905 N3899 0.985 . S
H3906 N3903 0.984 . S
H3907 N3903 0.985 . S
H3908 N3902 0.984 . S
H3909 N3902 0.984 . S
H3910 N3898 0.984 . S
H3911 N3898 0.985 . S
C3912 C3913 1.363 . S
C3912 C3918 1.379 . S
C3912 N3920 1.356 . S
C3913 C3912 1.363 . S
C3913 C3919 1.363 . S
C3914 C3915 1.363 . S
C3914 C3919 1.379 . S
C3914 N3921 1.356 . S
C3915 C3914 1.363 . S
C3915 C3918 1.363 . S
N3916 C3918 1.356 . S
N3916 H3928 0.984 . S
N3916 H3929 0.985 . S
N3917 C3919 1.356 . S
N3917 H3922 0.984 . S
N3917 H3923 0.985 . S
C3918 C3912 1.379 . S
C3918 C3915 1.363 . S
C3918 N3916 1.356 . S
C3919 C3913 1.363 . S
C3919 C3914 1.379 . S
C3919 N3917 1.356 . S
N3920 C3912 1.356 . S
N3920 H3926 0.984 . S
N3920 H3927 0.984 . S
N3921 C3914 1.356 . S
N3921 H3924 0.984 . S
N3921 H3925 0.985 . S
H3922 N3917 0.984 . S
H3923 N3917 0.985 . S
H3924 N3921 0.984 . S
H3925 N3921 0.985 . S
H3926 N3920 0.984 . S
H3927 N3920 0.984 . S
H3928 N3916 0.984 . S
H3929 N3916 0.985 . S
C3930 C3931 1.363 . S
C3930 C3936 1.379 . S
C3930 N3938 1.356 . S
C3931 C3930 1.363 . S
C3931 C3937 1.363 . S
C3932 C3933 1.363 . S
C3932 C3937 1.379 . S
C3932 N3939 1.356 . S
C3933 C3932 1.363 . S
C3933 C3936 1.363 . S
N3934 C3936 1.356 . S
N3934 H3946 0.984 . S
N3934 H3947 0.985 . S
N3935 C3937 1.356 . S
N3935 H3940 0.984 . S
N3935 H3941 0.985 . S
C3936 C3930 1.379 . S
C3936 C3933 1.363 . S
C3936 N3934 1.356 . S
C3937 C3931 1.363 . S
C3937 C3932 1.379 . S
C3937 N3935 1.356 . S
N3938 C3930 1.356 . S
N3938 H3944 0.984 . S
N3938 H3945 0.984 . S
N3939 C3932 1.356 . S
N3939 H3942 0.984 . S
N3939 H3943 0.985 . S
H3940 N3935 0.984 . S
H3941 N3935 0.985 . S
H3942 N3939 0.984 . S
H3943 N3939 0.985 . S
H3944 N3938 0.984 . S
H3945 N3938 0.984 . S
H3946 N3934 0.984 . S
H3947 N3934 0.985 . S
C3948 C3949 1.363 . S
C3948 C3954 1.379 . S
C3948 N3956 1.356 . S
C3949 C3948 1.363 . S
C3949 C3955 1.363 . S
C3950 C3951 1.363 . S
C3950 C3955 1.379 . S
C3950 N3957 1.356 . S
C3951 C3950 1.363 . S
C3951 C3954 1.363 . S
N3952 C3954 1.356 . S
N3952 H3964 0.984 . S
N3952 H3965 0.985 . S
N3953 C3955 1.356 . S
N3953 H3958 0.984 . S
N3953 H3959 0.985 . S
C3954 C3948 1.379 . S
C3954 C3951 1.363 . S
C3954 N3952 1.356 . S
C3955 C3949 1.363 . S
C3955 C3950 1.379 . S
C3955 N3953 1.356 . S
N3956 C3948 1.356 . S
N3956 H3962 0.984 . S
N3956 H3963 0.984 . S
N3957 C3950 1.356 . S
N3957 H3960 0.984 . S
N3957 H3961 0.985 . S
H3958 N3953 0.984 . S
H3959 N3953 0.985 . S
H3960 N3957 0.984 . S
H3961 N3957 0.985 . S
H3962 N3956 0.984 . S
H3963 N3956 0.984 . S
H3964 N3952 0.984 . S
H3965 N3952 0.985 . S
C3966 C3967 1.363 . S
C3966 C3972 1.379 . S
C3966 N3974 1.356 . S
C3967 C3966 1.363 . S
C3967 C3973 1.363 . S
C3968 C3969 1.363 . S
C3968 C3973 1.379 . S
C3968 N3975 1.356 . S
C3969 C3968 1.363 . S
C3969 C3972 1.363 . S
N3970 C3972 1.356 . S
N3970 H3982 0.984 . S
N3970 H3983 0.985 . S
N3971 C3973 1.356 . S
N3971 H3976 0.984 . S
N3971 H3977 0.985 . S
C3972 C3966 1.379 . S
C3972 C3969 1.363 . S
C3972 N3970 1.356 . S
C3973 C3967 1.363 . S
C3973 C3968 1.379 . S
C3973 N3971 1.356 . S
N3974 C3966 1.356 . S
N3974 H3980 0.984 . S
N3974 H3981 0.984 . S
N3975 C3968 1.356 . S
N3975 H3978 0.984 . S
N3975 H3979 0.985 . S
H3976 N3971 0.984 . S
H3977 N3971 0.985 . S
H3978 N3975 0.984 . S
H3979 N3975 0.985 . S
H3980 N3974 0.984 . S
H3981 N3974 0.984 . S
H3982 N3970 0.984 . S
H3983 N3970 0.985 . S
C3984 C3985 1.363 . S
C3984 C3990 1.379 . S
C3984 N3992 1.356 . S
C3985 C3984 1.363 . S
C3985 C3991 1.363 . S
C3986 C3987 1.363 . S
C3986 C3991 1.379 . S
C3986 N3993 1.356 . S
C3987 C3986 1.363 . S
C3987 C3990 1.363 . S
N3988 C3990 1.356 . S
N3988 H4000 0.984 . S
N3988 H4001 0.985 . S
N3989 C3991 1.356 . S
N3989 H3994 0.984 . S
N3989 H3995 0.985 . S
C3990 C3984 1.379 . S
C3990 C3987 1.363 . S
C3990 N3988 1.356 . S
C3991 C3985 1.363 . S
C3991 C3986 1.379 . S
C3991 N3989 1.356 . S
N3992 C3984 1.356 . S
N3992 H3998 0.984 . S
N3992 H3999 0.984 . S
N3993 C3986 1.356 . S
N3993 H3996 0.984 . S
N3993 H3997 0.985 . S
H3994 N3989 0.984 . S
H3995 N3989 0.985 . S
H3996 N3993 0.984 . S
H3997 N3993 0.985 . S
H3998 N3992 0.984 . S
H3999 N3992 0.984 . S
H4000 N3988 0.984 . S
H4001 N3988 0.985 . S
C4002 C4003 1.363 . S
C4002 C4008 1.379 . S
C4002 N4010 1.356 . S
C4003 C4002 1.363 . S
C4003 C4009 1.363 . S
C4004 C4005 1.363 . S
C4004 C4009 1.379 . S
C4004 N4011 1.356 . S
C4005 C4004 1.363 . S
C4005 C4008 1.363 . S
N4006 C4008 1.356 . S
N4006 H4018 0.984 . S
N4006 H4019 0.985 . S
N4007 C4009 1.356 . S
N4007 H4012 0.984 . S
N4007 H4013 0.985 . S
C4008 C4002 1.379 . S
C4008 C4005 1.363 . S
C4008 N4006 1.356 . S
C4009 C4003 1.363 . S
C4009 C4004 1.379 . S
C4009 N4007 1.356 . S
N4010 C4002 1.356 . S
N4010 H4016 0.984 . S
N4010 H4017 0.984 . S
N4011 C4004 1.356 . S
N4011 H4014 0.984 . S
N4011 H4015 0.985 . S
H4012 N4007 0.984 . S
H4013 N4007 0.985 . S
H4014 N4011 0.984 . S
H4015 N4011 0.985 . S
H4016 N4010 0.984 . S
H4017 N4010 0.984 . S
H4018 N4006 0.984 . S
H4019 N4006 0.985 . S
C4020 C4021 1.363 . S
C4020 C4026 1.379 . S
C4020 N4028 1.356 . S
C4021 C4020 1.363 . S
C4021 C4027 1.363 . S
C4022 C4023 1.363 . S
C4022 C4027 1.379 . S
C4022 N4029 1.356 . S
C4023 C4022 1.363 . S
C4023 C4026 1.363 . S
N4024 C4026 1.356 . S
N4024 H4036 0.984 . S
N4024 H4037 0.985 . S
N4025 C4027 1.356 . S
N4025 H4030 0.984 . S
N4025 H4031 0.985 . S
C4026 C4020 1.379 . S
C4026 C4023 1.363 . S
C4026 N4024 1.356 . S
C4027 C4021 1.363 . S
C4027 C4022 1.379 . S
C4027 N4025 1.356 . S
N4028 C4020 1.356 . S
N4028 H4034 0.984 . S
N4028 H4035 0.984 . S
N4029 C4022 1.356 . S
N4029 H4032 0.984 . S
N4029 H4033 0.985 . S
H4030 N4025 0.984 . S
H4031 N4025 0.985 . S
H4032 N4029 0.984 . S
H4033 N4029 0.985 . S
H4034 N4028 0.984 . S
H4035 N4028 0.984 . S
H4036 N4024 0.984 . S
H4037 N4024 0.985 . S
C4038 C4039 1.363 . S
C4038 C4044 1.379 . S
C4038 N4046 1.356 . S
C4039 C4038 1.363 . S
C4039 C4045 1.363 . S
C4040 C4041 1.363 . S
C4040 C4045 1.379 . S
C4040 N4047 1.356 . S
C4041 C4040 1.363 . S
C4041 C4044 1.363 . S
N4042 C4044 1.356 . S
N4042 H4054 0.984 . S
N4042 H4055 0.985 . S
N4043 C4045 1.356 . S
N4043 H4048 0.984 . S
N4043 H4049 0.985 . S
C4044 C4038 1.379 . S
C4044 C4041 1.363 . S
C4044 N4042 1.356 . S
C4045 C4039 1.363 . S
C4045 C4040 1.379 . S
C4045 N4043 1.356 . S
N4046 C4038 1.356 . S
N4046 H4052 0.984 . S
N4046 H4053 0.984 . S
N4047 C4040 1.356 . S
N4047 H4050 0.984 . S
N4047 H4051 0.985 . S
H4048 N4043 0.984 . S
H4049 N4043 0.985 . S
H4050 N4047 0.984 . S
H4051 N4047 0.985 . S
H4052 N4046 0.984 . S
H4053 N4046 0.984 . S
H4054 N4042 0.984 . S
H4055 N4042 0.985 . S
C4056 C4057 1.363 . S
C4056 C4062 1.379 . S
C4056 N4064 1.356 . S
C4057 C4056 1.363 . S
C4057 C4063 1.363 . S
C4058 C4059 1.363 . S
C4058 C4063 1.379 . S
C4058 N4065 1.356 . S
C4059 C4058 1.363 . S
C4059 C4062 1.363 . S
N4060 C4062 1.356 . S
N4060 H4072 0.984 . S
N4060 H4073 0.985 . S
N4061 C4063 1.356 . S
N4061 H4066 0.984 . S
N4061 H4067 0.985 . S
C4062 C4056 1.379 . S
C4062 C4059 1.363 . S
C4062 N4060 1.356 . S
C4063 C4057 1.363 . S
C4063 C4058 1.379 . S
C4063 N4061 1.356 . S
N4064 C4056 1.356 . S
N4064 H4070 0.984 . S
N4064 H4071 0.984 . S
N4065 C4058 1.356 . S
N4065 H4068 0.984 . S
N4065 H4069 0.985 . S
H4066 N4061 0.984 . S
H4067 N4061 0.985 . S
H4068 N4065 0.984 . S
H4069 N4065 0.985 . S
H4070 N4064 0.984 . S
H4071 N4064 0.984 . S
H4072 N4060 0.984 . S
H4073 N4060 0.985 . S
C4074 C4075 1.363 . S
C4074 C4080 1.379 . S
C4074 N4082 1.356 . S
C4075 C4074 1.363 . S
C4075 C4081 1.363 . S
C4076 C4077 1.363 . S
C4076 C4081 1.379 . S
C4076 N4083 1.356 . S
C4077 C4076 1.363 . S
C4077 C4080 1.363 . S
N4078 C4080 1.356 . S
N4078 H4090 0.984 . S
N4078 H4091 0.985 . S
N4079 C4081 1.356 . S
N4079 H4084 0.984 . S
N4079 H4085 0.985 . S
C4080 C4074 1.379 . S
C4080 C4077 1.363 . S
C4080 N4078 1.356 . S
C4081 C4075 1.363 . S
C4081 C4076 1.379 . S
C4081 N4079 1.356 . S
N4082 C4074 1.356 . S
N4082 H4088 0.984 . S
N4082 H4089 0.984 . S
N4083 C4076 1.356 . S
N4083 H4086 0.984 . S
N4083 H4087 0.985 . S
H4084 N4079 0.984 . S
H4085 N4079 0.985 . S
H4086 N4083 0.984 . S
H4087 N4083 0.985 . S
H4088 N4082 0.984 . S
H4089 N4082 0.984 . S
H4090 N4078 0.984 . S
H4091 N4078 0.985 . S
C4092 C4093 1.363 . S
C4092 C4098 1.379 . S
C4092 N4100 1.356 . S
C4093 C4092 1.363 . S
C4093 C4099 1.363 . S
C4094 C4095 1.363 . S
C4094 C4099 1.379 . S
C4094 N4101 1.356 . S
C4095 C4094 1.363 . S
C4095 C4098 1.363 . S
N4096 C4098 1.356 . S
N4096 H4108 0.984 . S
N4096 H4109 0.985 . S
N4097 C4099 1.356 . S
N4097 H4102 0.984 . S
N4097 H4103 0.985 . S
C4098 C4092 1.379 . S
C4098 C4095 1.363 . S
C4098 N4096 1.356 . S
C4099 C4093 1.363 . S
C4099 C4094 1.379 . S
C4099 N4097 1.356 . S
N4100 C4092 1.356 . S
N4100 H4106 0.984 . S
N4100 H4107 0.984 . S
N4101 C4094 1.356 . S
N4101 H4104 0.984 . S
N4101 H4105 0.985 . S
H4102 N4097 0.984 . S
H4103 N4097 0.985 . S
H4104 N4101 0.984 . S
H4105 N4101 0.985 . S
H4106 N4100 0.984 . S
H4107 N4100 0.984 . S
H4108 N4096 0.984 . S
H4109 N4096 0.985 . S
C4110 C4111 1.363 . S
C4110 C4116 1.379 . S
C4110 N4118 1.356 . S
C4111 C4110 1.363 . S
C4111 C4117 1.363 . S
C4112 C4113 1.363 . S
C4112 C4117 1.379 . S
C4112 N4119 1.356 . S
C4113 C4112 1.363 . S
C4113 C4116 1.363 . S
N4114 C4116 1.356 . S
N4114 H4126 0.984 . S
N4114 H4127 0.985 . S
N4115 C4117 1.356 . S
N4115 H4120 0.984 . S
N4115 H4121 0.985 . S
C4116 C4110 1.379 . S
C4116 C4113 1.363 . S
C4116 N4114 1.356 . S
C4117 C4111 1.363 . S
C4117 C4112 1.379 . S
C4117 N4115 1.356 . S
N4118 C4110 1.356 . S
N4118 H4124 0.984 . S
N4118 H4125 0.984 . S
N4119 C4112 1.356 . S
N4119 H4122 0.984 . S
N4119 H4123 0.985 . S
H4120 N4115 0.984 . S
H4121 N4115 0.985 . S
H4122 N4119 0.984 . S
H4123 N4119 0.985 . S
H4124 N4118 0.984 . S
H4125 N4118 0.984 . S
H4126 N4114 0.984 . S
H4127 N4114 0.985 . S
C4128 C4129 1.363 . S
C4128 C4134 1.379 . S
C4128 N4136 1.356 . S
C4129 C4128 1.363 . S
C4129 C4135 1.363 . S
C4130 C4131 1.363 . S
C4130 C4135 1.379 . S
C4130 N4137 1.356 . S
C4131 C4130 1.363 . S
C4131 C4134 1.363 . S
N4132 C4134 1.356 . S
N4132 H4144 0.984 . S
N4132 H4145 0.985 . S
N4133 C4135 1.356 . S
N4133 H4138 0.984 . S
N4133 H4139 0.985 . S
C4134 C4128 1.379 . S
C4134 C4131 1.363 . S
C4134 N4132 1.356 . S
C4135 C4129 1.363 . S
C4135 C4130 1.379 . S
C4135 N4133 1.356 . S
N4136 C4128 1.356 . S
N4136 H4142 0.984 . S
N4136 H4143 0.984 . S
N4137 C4130 1.356 . S
N4137 H4140 0.984 . S
N4137 H4141 0.985 . S
H4138 N4133 0.984 . S
H4139 N4133 0.985 . S
H4140 N4137 0.984 . S
H4141 N4137 0.985 . S
H4142 N4136 0.984 . S
H4143 N4136 0.984 . S
H4144 N4132 0.984 . S
H4145 N4132 0.985 . S
C4146 C4147 1.363 . S
C4146 C4152 1.379 . S
C4146 N4154 1.356 . S
C4147 C4146 1.363 . S
C4147 C4153 1.363 . S
C4148 C4149 1.363 . S
C4148 C4153 1.379 . S
C4148 N4155 1.356 . S
C4149 C4148 1.363 . S
C4149 C4152 1.363 . S
N4150 C4152 1.356 . S
N4150 H4162 0.984 . S
N4150 H4163 0.985 . S
N4151 C4153 1.356 . S
N4151 H4156 0.984 . S
N4151 H4157 0.985 . S
C4152 C4146 1.379 . S
C4152 C4149 1.363 . S
C4152 N4150 1.356 . S
C4153 C4147 1.363 . S
C4153 C4148 1.379 . S
C4153 N4151 1.356 . S
N4154 C4146 1.356 . S
N4154 H4160 0.984 . S
N4154 H4161 0.984 . S
N4155 C4148 1.356 . S
N4155 H4158 0.984 . S
N4155 H4159 0.985 . S
H4156 N4151 0.984 . S
H4157 N4151 0.985 . S
H4158 N4155 0.984 . S
H4159 N4155 0.985 . S
H4160 N4154 0.984 . S
H4161 N4154 0.984 . S
H4162 N4150 0.984 . S
H4163 N4150 0.985 . S
C4164 C4165 1.363 . S
C4164 C4170 1.379 . S
C4164 N4172 1.356 . S
C4165 C4164 1.363 . S
C4165 C4171 1.363 . S
C4166 C4167 1.363 . S
C4166 C4171 1.379 . S
C4166 N4173 1.356 . S
C4167 C4166 1.363 . S
C4167 C4170 1.363 . S
N4168 C4170 1.356 . S
N4168 H4180 0.984 . S
N4168 H4181 0.985 . S
N4169 C4171 1.356 . S
N4169 H4174 0.984 . S
N4169 H4175 0.985 . S
C4170 C4164 1.379 . S
C4170 C4167 1.363 . S
C4170 N4168 1.356 . S
C4171 C4165 1.363 . S
C4171 C4166 1.379 . S
C4171 N4169 1.356 . S
N4172 C4164 1.356 . S
N4172 H4178 0.984 . S
N4172 H4179 0.984 . S
N4173 C4166 1.356 . S
N4173 H4176 0.984 . S
N4173 H4177 0.985 . S
H4174 N4169 0.984 . S
H4175 N4169 0.985 . S
H4176 N4173 0.984 . S
H4177 N4173 0.985 . S
H4178 N4172 0.984 . S
H4179 N4172 0.984 . S
H4180 N4168 0.984 . S
H4181 N4168 0.985 . S
C4182 C4183 1.363 . S
C4182 C4188 1.379 . S
C4182 N4190 1.356 . S
C4183 C4182 1.363 . S
C4183 C4189 1.363 . S
C4184 C4185 1.363 . S
C4184 C4189 1.379 . S
C4184 N4191 1.356 . S
C4185 C4184 1.363 . S
C4185 C4188 1.363 . S
N4186 C4188 1.356 . S
N4186 H4198 0.984 . S
N4186 H4199 0.985 . S
N4187 C4189 1.356 . S
N4187 H4192 0.984 . S
N4187 H4193 0.985 . S
C4188 C4182 1.379 . S
C4188 C4185 1.363 . S
C4188 N4186 1.356 . S
C4189 C4183 1.363 . S
C4189 C4184 1.379 . S
C4189 N4187 1.356 . S
N4190 C4182 1.356 . S
N4190 H4196 0.984 . S
N4190 H4197 0.984 . S
N4191 C4184 1.356 . S
N4191 H4194 0.984 . S
N4191 H4195 0.985 . S
H4192 N4187 0.984 . S
H4193 N4187 0.985 . S
H4194 N4191 0.984 . S
H4195 N4191 0.985 . S
H4196 N4190 0.984 . S
H4197 N4190 0.984 . S
H4198 N4186 0.984 . S
H4199 N4186 0.985 . S
C4200 C4201 1.363 . S
C4200 C4206 1.379 . S
C4200 N4208 1.356 . S
C4201 C4200 1.363 . S
C4201 C4207 1.363 . S
C4202 C4203 1.363 . S
C4202 C4207 1.379 . S
C4202 N4209 1.356 . S
C4203 C4202 1.363 . S
C4203 C4206 1.363 . S
N4204 C4206 1.356 . S
N4204 H4216 0.984 . S
N4204 H4217 0.985 . S
N4205 C4207 1.356 . S
N4205 H4210 0.984 . S
N4205 H4211 0.985 . S
C4206 C4200 1.379 . S
C4206 C4203 1.363 . S
C4206 N4204 1.356 . S
C4207 C4201 1.363 . S
C4207 C4202 1.379 . S
C4207 N4205 1.356 . S
N4208 C4200 1.356 . S
N4208 H4214 0.984 . S
N4208 H4215 0.984 . S
N4209 C4202 1.356 . S
N4209 H4212 0.984 . S
N4209 H4213 0.985 . S
H4210 N4205 0.984 . S
H4211 N4205 0.985 . S
H4212 N4209 0.984 . S
H4213 N4209 0.985 . S
H4214 N4208 0.984 . S
H4215 N4208 0.984 . S
H4216 N4204 0.984 . S
H4217 N4204 0.985 . S
C4218 C4219 1.363 . S
C4218 C4224 1.379 . S
C4218 N4226 1.356 . S
C4219 C4218 1.363 . S
C4219 C4225 1.363 . S
C4220 C4221 1.363 . S
C4220 C4225 1.379 . S
C4220 N4227 1.356 . S
C4221 C4220 1.363 . S
C4221 C4224 1.363 . S
N4222 C4224 1.356 . S
N4222 H4234 0.984 . S
N4222 H4235 0.985 . S
N4223 C4225 1.356 . S
N4223 H4228 0.984 . S
N4223 H4229 0.985 . S
C4224 C4218 1.379 . S
C4224 C4221 1.363 . S
C4224 N4222 1.356 . S
C4225 C4219 1.363 . S
C4225 C4220 1.379 . S
C4225 N4223 1.356 . S
N4226 C4218 1.356 . S
N4226 H4232 0.984 . S
N4226 H4233 0.984 . S
N4227 C4220 1.356 . S
N4227 H4230 0.984 . S
N4227 H4231 0.985 . S
H4228 N4223 0.984 . S
H4229 N4223 0.985 . S
H4230 N4227 0.984 . S
H4231 N4227 0.985 . S
H4232 N4226 0.984 . S
H4233 N4226 0.984 . S
H4234 N4222 0.984 . S
H4235 N4222 0.985 . S
C4236 C4237 1.363 . S
C4236 C4242 1.379 . S
C4236 N4244 1.356 . S
C4237 C4236 1.363 . S
C4237 C4243 1.363 . S
C4238 C4239 1.363 . S
C4238 C4243 1.379 . S
C4238 N4245 1.356 . S
C4239 C4238 1.363 . S
C4239 C4242 1.363 . S
N4240 C4242 1.356 . S
N4240 H4252 0.984 . S
N4240 H4253 0.985 . S
N4241 C4243 1.356 . S
N4241 H4246 0.984 . S
N4241 H4247 0.985 . S
C4242 C4236 1.379 . S
C4242 C4239 1.363 . S
C4242 N4240 1.356 . S
C4243 C4237 1.363 . S
C4243 C4238 1.379 . S
C4243 N4241 1.356 . S
N4244 C4236 1.356 . S
N4244 H4250 0.984 . S
N4244 H4251 0.984 . S
N4245 C4238 1.356 . S
N4245 H4248 0.984 . S
N4245 H4249 0.985 . S
H4246 N4241 0.984 . S
H4247 N4241 0.985 . S
H4248 N4245 0.984 . S
H4249 N4245 0.985 . S
H4250 N4244 0.984 . S
H4251 N4244 0.984 . S
H4252 N4240 0.984 . S
H4253 N4240 0.985 . S
C4254 C4255 1.363 . S
C4254 C4260 1.379 . S
C4254 N4262 1.356 . S
C4255 C4254 1.363 . S
C4255 C4261 1.363 . S
C4256 C4257 1.363 . S
C4256 C4261 1.379 . S
C4256 N4263 1.356 . S
C4257 C4256 1.363 . S
C4257 C4260 1.363 . S
N4258 C4260 1.356 . S
N4258 H4270 0.984 . S
N4258 H4271 0.985 . S
N4259 C4261 1.356 . S
N4259 H4264 0.984 . S
N4259 H4265 0.985 . S
C4260 C4254 1.379 . S
C4260 C4257 1.363 . S
C4260 N4258 1.356 . S
C4261 C4255 1.363 . S
C4261 C4256 1.379 . S
C4261 N4259 1.356 . S
N4262 C4254 1.356 . S
N4262 H4268 0.984 . S
N4262 H4269 0.984 . S
N4263 C4256 1.356 . S
N4263 H4266 0.984 . S
N4263 H4267 0.985 . S
H4264 N4259 0.984 . S
H4265 N4259 0.985 . S
H4266 N4263 0.984 . S
H4267 N4263 0.985 . S
H4268 N4262 0.984 . S
H4269 N4262 0.984 . S
H4270 N4258 0.984 . S
H4271 N4258 0.985 . S
C4272 C4273 1.363 . S
C4272 C4278 1.379 . S
C4272 N4280 1.356 . S
C4273 C4272 1.363 . S
C4273 C4279 1.363 . S
C4274 C4275 1.363 . S
C4274 C4279 1.379 . S
C4274 N4281 1.356 . S
C4275 C4274 1.363 . S
C4275 C4278 1.363 . S
N4276 C4278 1.356 . S
N4276 H4288 0.984 . S
N4276 H4289 0.985 . S
N4277 C4279 1.356 . S
N4277 H4282 0.984 . S
N4277 H4283 0.985 . S
C4278 C4272 1.379 . S
C4278 C4275 1.363 . S
C4278 N4276 1.356 . S
C4279 C4273 1.363 . S
C4279 C4274 1.379 . S
C4279 N4277 1.356 . S
N4280 C4272 1.356 . S
N4280 H4286 0.984 . S
N4280 H4287 0.984 . S
N4281 C4274 1.356 . S
N4281 H4284 0.984 . S
N4281 H4285 0.985 . S
H4282 N4277 0.984 . S
H4283 N4277 0.985 . S
H4284 N4281 0.984 . S
H4285 N4281 0.985 . S
H4286 N4280 0.984 . S
H4287 N4280 0.984 . S
H4288 N4276 0.984 . S
H4289 N4276 0.985 . S
C4290 C4291 1.363 . S
C4290 C4296 1.379 . S
C4290 N4298 1.356 . S
C4291 C4290 1.363 . S
C4291 C4297 1.363 . S
C4292 C4293 1.363 . S
C4292 C4297 1.379 . S
C4292 N4299 1.356 . S
C4293 C4292 1.363 . S
C4293 C4296 1.363 . S
N4294 C4296 1.356 . S
N4294 H4306 0.984 . S
N4294 H4307 0.985 . S
N4295 C4297 1.356 . S
N4295 H4300 0.984 . S
N4295 H4301 0.985 . S
C4296 C4290 1.379 . S
C4296 C4293 1.363 . S
C4296 N4294 1.356 . S
C4297 C4291 1.363 . S
C4297 C4292 1.379 . S
C4297 N4295 1.356 . S
N4298 C4290 1.356 . S
N4298 H4304 0.984 . S
N4298 H4305 0.984 . S
N4299 C4292 1.356 . S
N4299 H4302 0.984 . S
N4299 H4303 0.985 . S
H4300 N4295 0.984 . S
H4301 N4295 0.985 . S
H4302 N4299 0.984 . S
H4303 N4299 0.985 . S
H4304 N4298 0.984 . S
H4305 N4298 0.984 . S
H4306 N4294 0.984 . S
H4307 N4294 0.985 . S
C4308 C4309 1.363 . S
C4308 C4314 1.379 . S
C4308 N4316 1.356 . S
C4309 C4308 1.363 . S
C4309 C4315 1.363 . S
C4310 C4311 1.363 . S
C4310 C4315 1.379 . S
C4310 N4317 1.356 . S
C4311 C4310 1.363 . S
C4311 C4314 1.363 . S
N4312 C4314 1.356 . S
N4312 H4324 0.984 . S
N4312 H4325 0.985 . S
N4313 C4315 1.356 . S
N4313 H4318 0.984 . S
N4313 H4319 0.985 . S
C4314 C4308 1.379 . S
C4314 C4311 1.363 . S
C4314 N4312 1.356 . S
C4315 C4309 1.363 . S
C4315 C4310 1.379 . S
C4315 N4313 1.356 . S
N4316 C4308 1.356 . S
N4316 H4322 0.984 . S
N4316 H4323 0.984 . S
N4317 C4310 1.356 . S
N4317 H4320 0.984 . S
N4317 H4321 0.985 . S
H4318 N4313 0.984 . S
H4319 N4313 0.985 . S
H4320 N4317 0.984 . S
H4321 N4317 0.985 . S
H4322 N4316 0.984 . S
H4323 N4316 0.984 . S
H4324 N4312 0.984 . S
H4325 N4312 0.985 . S
C4326 C4327 1.363 . S
C4326 C4332 1.379 . S
C4326 N4334 1.356 . S
C4327 C4326 1.363 . S
C4327 C4333 1.363 . S
C4328 C4329 1.363 . S
C4328 C4333 1.379 . S
C4328 N4335 1.356 . S
C4329 C4328 1.363 . S
C4329 C4332 1.363 . S
N4330 C4332 1.356 . S
N4330 H4342 0.984 . S
N4330 H4343 0.985 . S
N4331 C4333 1.356 . S
N4331 H4336 0.984 . S
N4331 H4337 0.985 . S
C4332 C4326 1.379 . S
C4332 C4329 1.363 . S
C4332 N4330 1.356 . S
C4333 C4327 1.363 . S
C4333 C4328 1.379 . S
C4333 N4331 1.356 . S
N4334 C4326 1.356 . S
N4334 H4340 0.984 . S
N4334 H4341 0.984 . S
N4335 C4328 1.356 . S
N4335 H4338 0.984 . S
N4335 H4339 0.985 . S
H4336 N4331 0.984 . S
H4337 N4331 0.985 . S
H4338 N4335 0.984 . S
H4339 N4335 0.985 . S
H4340 N4334 0.984 . S
H4341 N4334 0.984 . S
H4342 N4330 0.984 . S
H4343 N4330 0.985 . S
C4344 C4345 1.363 . S
C4344 C4350 1.379 . S
C4344 N4352 1.356 . S
C4345 C4344 1.363 . S
C4345 C4351 1.363 . S
C4346 C4347 1.363 . S
C4346 C4351 1.379 . S
C4346 N4353 1.356 . S
C4347 C4346 1.363 . S
C4347 C4350 1.363 . S
N4348 C4350 1.356 . S
N4348 H4360 0.984 . S
N4348 H4361 0.985 . S
N4349 C4351 1.356 . S
N4349 H4354 0.984 . S
N4349 H4355 0.985 . S
C4350 C4344 1.379 . S
C4350 C4347 1.363 . S
C4350 N4348 1.356 . S
C4351 C4345 1.363 . S
C4351 C4346 1.379 . S
C4351 N4349 1.356 . S
N4352 C4344 1.356 . S
N4352 H4358 0.984 . S
N4352 H4359 0.984 . S
N4353 C4346 1.356 . S
N4353 H4356 0.984 . S
N4353 H4357 0.985 . S
H4354 N4349 0.984 . S
H4355 N4349 0.985 . S
H4356 N4353 0.984 . S
H4357 N4353 0.985 . S
H4358 N4352 0.984 . S
H4359 N4352 0.984 . S
H4360 N4348 0.984 . S
H4361 N4348 0.985 . S
C4362 C4363 1.363 . S
C4362 C4368 1.379 . S
C4362 N4370 1.356 . S
C4363 C4362 1.363 . S
C4363 C4369 1.363 . S
C4364 C4365 1.363 . S
C4364 C4369 1.379 . S
C4364 N4371 1.356 . S
C4365 C4364 1.363 . S
C4365 C4368 1.363 . S
N4366 C4368 1.356 . S
N4366 H4378 0.984 . S
N4366 H4379 0.985 . S
N4367 C4369 1.356 . S
N4367 H4372 0.984 . S
N4367 H4373 0.985 . S
C4368 C4362 1.379 . S
C4368 C4365 1.363 . S
C4368 N4366 1.356 . S
C4369 C4363 1.363 . S
C4369 C4364 1.379 . S
C4369 N4367 1.356 . S
N4370 C4362 1.356 . S
N4370 H4376 0.984 . S
N4370 H4377 0.984 . S
N4371 C4364 1.356 . S
N4371 H4374 0.984 . S
N4371 H4375 0.985 . S
H4372 N4367 0.984 . S
H4373 N4367 0.985 . S
H4374 N4371 0.984 . S
H4375 N4371 0.985 . S
H4376 N4370 0.984 . S
H4377 N4370 0.984 . S
H4378 N4366 0.984 . S
H4379 N4366 0.985 . S
C4380 C4381 1.363 . S
C4380 C4386 1.379 . S
C4380 N4388 1.356 . S
C4381 C4380 1.363 . S
C4381 C4387 1.363 . S
C4382 C4383 1.363 . S
C4382 C4387 1.379 . S
C4382 N4389 1.356 . S
C4383 C4382 1.363 . S
C4383 C4386 1.363 . S
N4384 C4386 1.356 . S
N4384 H4396 0.984 . S
N4384 H4397 0.985 . S
N4385 C4387 1.356 . S
N4385 H4390 0.984 . S
N4385 H4391 0.985 . S
C4386 C4380 1.379 . S
C4386 C4383 1.363 . S
C4386 N4384 1.356 . S
C4387 C4381 1.363 . S
C4387 C4382 1.379 . S
C4387 N4385 1.356 . S
N4388 C4380 1.356 . S
N4388 H4394 0.984 . S
N4388 H4395 0.984 . S
N4389 C4382 1.356 . S
N4389 H4392 0.984 . S
N4389 H4393 0.985 . S
H4390 N4385 0.984 . S
H4391 N4385 0.985 . S
H4392 N4389 0.984 . S
H4393 N4389 0.985 . S
H4394 N4388 0.984 . S
H4395 N4388 0.984 . S
H4396 N4384 0.984 . S
H4397 N4384 0.985 . S
C4398 C4399 1.363 . S
C4398 C4404 1.379 . S
C4398 N4406 1.356 . S
C4399 C4398 1.363 . S
C4399 C4405 1.363 . S
C4400 C4401 1.363 . S
C4400 C4405 1.379 . S
C4400 N4407 1.356 . S
C4401 C4400 1.363 . S
C4401 C4404 1.363 . S
N4402 C4404 1.356 . S
N4402 H4414 0.984 . S
N4402 H4415 0.985 . S
N4403 C4405 1.356 . S
N4403 H4408 0.984 . S
N4403 H4409 0.985 . S
C4404 C4398 1.379 . S
C4404 C4401 1.363 . S
C4404 N4402 1.356 . S
C4405 C4399 1.363 . S
C4405 C4400 1.379 . S
C4405 N4403 1.356 . S
N4406 C4398 1.356 . S
N4406 H4412 0.984 . S
N4406 H4413 0.984 . S
N4407 C4400 1.356 . S
N4407 H4410 0.984 . S
N4407 H4411 0.985 . S
H4408 N4403 0.984 . S
H4409 N4403 0.985 . S
H4410 N4407 0.984 . S
H4411 N4407 0.985 . S
H4412 N4406 0.984 . S
H4413 N4406 0.984 . S
H4414 N4402 0.984 . S
H4415 N4402 0.985 . S
C4416 C4417 1.363 . S
C4416 C4422 1.379 . S
C4416 N4424 1.356 . S
C4417 C4416 1.363 . S
C4417 C4423 1.363 . S
C4418 C4419 1.363 . S
C4418 C4423 1.379 . S
C4418 N4425 1.356 . S
C4419 C4418 1.363 . S
C4419 C4422 1.363 . S
N4420 C4422 1.356 . S
N4420 H4432 0.984 . S
N4420 H4433 0.985 . S
N4421 C4423 1.356 . S
N4421 H4426 0.984 . S
N4421 H4427 0.985 . S
C4422 C4416 1.379 . S
C4422 C4419 1.363 . S
C4422 N4420 1.356 . S
C4423 C4417 1.363 . S
C4423 C4418 1.379 . S
C4423 N4421 1.356 . S
N4424 C4416 1.356 . S
N4424 H4430 0.984 . S
N4424 H4431 0.984 . S
N4425 C4418 1.356 . S
N4425 H4428 0.984 . S
N4425 H4429 0.985 . S
H4426 N4421 0.984 . S
H4427 N4421 0.985 . S
H4428 N4425 0.984 . S
H4429 N4425 0.985 . S
H4430 N4424 0.984 . S
H4431 N4424 0.984 . S
H4432 N4420 0.984 . S
H4433 N4420 0.985 . S
C4434 C4435 1.363 . S
C4434 C4440 1.379 . S
C4434 N4442 1.356 . S
C4435 C4434 1.363 . S
C4435 C4441 1.363 . S
C4436 C4437 1.363 . S
C4436 C4441 1.379 . S
C4436 N4443 1.356 . S
C4437 C4436 1.363 . S
C4437 C4440 1.363 . S
N4438 C4440 1.356 . S
N4438 H4450 0.984 . S
N4438 H4451 0.985 . S
N4439 C4441 1.356 . S
N4439 H4444 0.984 . S
N4439 H4445 0.985 . S
C4440 C4434 1.379 . S
C4440 C4437 1.363 . S
C4440 N4438 1.356 . S
C4441 C4435 1.363 . S
C4441 C4436 1.379 . S
C4441 N4439 1.356 . S
N4442 C4434 1.356 . S
N4442 H4448 0.984 . S
N4442 H4449 0.984 . S
N4443 C4436 1.356 . S
N4443 H4446 0.984 . S
N4443 H4447 0.985 . S
H4444 N4439 0.984 . S
H4445 N4439 0.985 . S
H4446 N4443 0.984 . S
H4447 N4443 0.985 . S
H4448 N4442 0.984 . S
H4449 N4442 0.984 . S
H4450 N4438 0.984 . S
H4451 N4438 0.985 . S
C4452 C4453 1.363 . S
C4452 C4458 1.379 . S
C4452 N4460 1.356 . S
C4453 C4452 1.363 . S
C4453 C4459 1.363 . S
C4454 C4455 1.363 . S
C4454 C4459 1.379 . S
C4454 N4461 1.356 . S
C4455 C4454 1.363 . S
C4455 C4458 1.363 . S
N4456 C4458 1.356 . S
N4456 H4468 0.984 . S
N4456 H4469 0.985 . S
N4457 C4459 1.356 . S
N4457 H4462 0.984 . S
N4457 H4463 0.985 . S
C4458 C4452 1.379 . S
C4458 C4455 1.363 . S
C4458 N4456 1.356 . S
C4459 C4453 1.363 . S
C4459 C4454 1.379 . S
C4459 N4457 1.356 . S
N4460 C4452 1.356 . S
N4460 H4466 0.984 . S
N4460 H4467 0.984 . S
N4461 C4454 1.356 . S
N4461 H4464 0.984 . S
N4461 H4465 0.985 . S
H4462 N4457 0.984 . S
H4463 N4457 0.985 . S
H4464 N4461 0.984 . S
H4465 N4461 0.985 . S
H4466 N4460 0.984 . S
H4467 N4460 0.984 . S
H4468 N4456 0.984 . S
H4469 N4456 0.985 . S
C4470 C4471 1.363 . S
C4470 C4476 1.379 . S
C4470 N4478 1.356 . S
C4471 C4470 1.363 . S
C4471 C4477 1.363 . S
C4472 C4473 1.363 . S
C4472 C4477 1.379 . S
C4472 N4479 1.356 . S
C4473 C4472 1.363 . S
C4473 C4476 1.363 . S
N4474 C4476 1.356 . S
N4474 H4486 0.984 . S
N4474 H4487 0.985 . S
N4475 C4477 1.356 . S
N4475 H4480 0.984 . S
N4475 H4481 0.985 . S
C4476 C4470 1.379 . S
C4476 C4473 1.363 . S
C4476 N4474 1.356 . S
C4477 C4471 1.363 . S
C4477 C4472 1.379 . S
C4477 N4475 1.356 . S
N4478 C4470 1.356 . S
N4478 H4484 0.984 . S
N4478 H4485 0.984 . S
N4479 C4472 1.356 . S
N4479 H4482 0.984 . S
N4479 H4483 0.985 . S
H4480 N4475 0.984 . S
H4481 N4475 0.985 . S
H4482 N4479 0.984 . S
H4483 N4479 0.985 . S
H4484 N4478 0.984 . S
H4485 N4478 0.984 . S
H4486 N4474 0.984 . S
H4487 N4474 0.985 . S
C4488 C4489 1.363 . S
C4488 C4494 1.379 . S
C4488 N4496 1.356 . S
C4489 C4488 1.363 . S
C4489 C4495 1.363 . S
C4490 C4491 1.363 . S
C4490 C4495 1.379 . S
C4490 N4497 1.356 . S
C4491 C4490 1.363 . S
C4491 C4494 1.363 . S
N4492 C4494 1.356 . S
N4492 H4504 0.984 . S
N4492 H4505 0.985 . S
N4493 C4495 1.356 . S
N4493 H4498 0.984 . S
N4493 H4499 0.985 . S
C4494 C4488 1.379 . S
C4494 C4491 1.363 . S
C4494 N4492 1.356 . S
C4495 C4489 1.363 . S
C4495 C4490 1.379 . S
C4495 N4493 1.356 . S
N4496 C4488 1.356 . S
N4496 H4502 0.984 . S
N4496 H4503 0.984 . S
N4497 C4490 1.356 . S
N4497 H4500 0.984 . S
N4497 H4501 0.985 . S
H4498 N4493 0.984 . S
H4499 N4493 0.985 . S
H4500 N4497 0.984 . S
H4501 N4497 0.985 . S
H4502 N4496 0.984 . S
H4503 N4496 0.984 . S
H4504 N4492 0.984 . S
H4505 N4492 0.985 . S
C4506 C4507 1.363 . S
C4506 C4512 1.379 . S
C4506 N4514 1.356 . S
C4507 C4506 1.363 . S
C4507 C4513 1.363 . S
C4508 C4509 1.363 . S
C4508 C4513 1.379 . S
C4508 N4515 1.356 . S
C4509 C4508 1.363 . S
C4509 C4512 1.363 . S
N4510 C4512 1.356 . S
N4510 H4522 0.984 . S
N4510 H4523 0.985 . S
N4511 C4513 1.356 . S
N4511 H4516 0.984 . S
N4511 H4517 0.985 . S
C4512 C4506 1.379 . S
C4512 C4509 1.363 . S
C4512 N4510 1.356 . S
C4513 C4507 1.363 . S
C4513 C4508 1.379 . S
C4513 N4511 1.356 . S
N4514 C4506 1.356 . S
N4514 H4520 0.984 . S
N4514 H4521 0.984 . S
N4515 C4508 1.356 . S
N4515 H4518 0.984 . S
N4515 H4519 0.985 . S
H4516 N4511 0.984 . S
H4517 N4511 0.985 . S
H4518 N4515 0.984 . S
H4519 N4515 0.985 . S
H4520 N4514 0.984 . S
H4521 N4514 0.984 . S
H4522 N4510 0.984 . S
H4523 N4510 0.985 . S
C4524 C4525 1.363 . S
C4524 C4530 1.379 . S
C4524 N4532 1.356 . S
C4525 C4524 1.363 . S
C4525 C4531 1.363 . S
C4526 C4527 1.363 . S
C4526 C4531 1.379 . S
C4526 N4533 1.356 . S
C4527 C4526 1.363 . S
C4527 C4530 1.363 . S
N4528 C4530 1.356 . S
N4528 H4540 0.984 . S
N4528 H4541 0.985 . S
N4529 C4531 1.356 . S
N4529 H4534 0.984 . S
N4529 H4535 0.985 . S
C4530 C4524 1.379 . S
C4530 C4527 1.363 . S
C4530 N4528 1.356 . S
C4531 C4525 1.363 . S
C4531 C4526 1.379 . S
C4531 N4529 1.356 . S
N4532 C4524 1.356 . S
N4532 H4538 0.984 . S
N4532 H4539 0.984 . S
N4533 C4526 1.356 . S
N4533 H4536 0.984 . S
N4533 H4537 0.985 . S
H4534 N4529 0.984 . S
H4535 N4529 0.985 . S
H4536 N4533 0.984 . S
H4537 N4533 0.985 . S
H4538 N4532 0.984 . S
H4539 N4532 0.984 . S
H4540 N4528 0.984 . S
H4541 N4528 0.985 . S
C4542 C4543 1.363 . S
C4542 C4548 1.379 . S
C4542 N4550 1.356 . S
C4543 C4542 1.363 . S
C4543 C4549 1.363 . S
C4544 C4545 1.363 . S
C4544 C4549 1.379 . S
C4544 N4551 1.356 . S
C4545 C4544 1.363 . S
C4545 C4548 1.363 . S
N4546 C4548 1.356 . S
N4546 H4558 0.984 . S
N4546 H4559 0.985 . S
N4547 C4549 1.356 . S
N4547 H4552 0.984 . S
N4547 H4553 0.985 . S
C4548 C4542 1.379 . S
C4548 C4545 1.363 . S
C4548 N4546 1.356 . S
C4549 C4543 1.363 . S
C4549 C4544 1.379 . S
C4549 N4547 1.356 . S
N4550 C4542 1.356 . S
N4550 H4556 0.984 . S
N4550 H4557 0.984 . S
N4551 C4544 1.356 . S
N4551 H4554 0.984 . S
N4551 H4555 0.985 . S
H4552 N4547 0.984 . S
H4553 N4547 0.985 . S
H4554 N4551 0.984 . S
H4555 N4551 0.985 . S
H4556 N4550 0.984 . S
H4557 N4550 0.984 . S
H4558 N4546 0.984 . S
H4559 N4546 0.985 . S
C4560 C4561 1.363 . S
C4560 C4566 1.379 . S
C4560 N4568 1.356 . S
C4561 C4560 1.363 . S
C4561 C4567 1.363 . S
C4562 C4563 1.363 . S
C4562 C4567 1.379 . S
C4562 N4569 1.356 . S
C4563 C4562 1.363 . S
C4563 C4566 1.363 . S
N4564 C4566 1.356 . S
N4564 H4576 0.984 . S
N4564 H4577 0.985 . S
N4565 C4567 1.356 . S
N4565 H4570 0.984 . S
N4565 H4571 0.985 . S
C4566 C4560 1.379 . S
C4566 C4563 1.363 . S
C4566 N4564 1.356 . S
C4567 C4561 1.363 . S
C4567 C4562 1.379 . S
C4567 N4565 1.356 . S
N4568 C4560 1.356 . S
N4568 H4574 0.984 . S
N4568 H4575 0.984 . S
N4569 C4562 1.356 . S
N4569 H4572 0.984 . S
N4569 H4573 0.985 . S
H4570 N4565 0.984 . S
H4571 N4565 0.985 . S
H4572 N4569 0.984 . S
H4573 N4569 0.985 . S
H4574 N4568 0.984 . S
H4575 N4568 0.984 . S
H4576 N4564 0.984 . S
H4577 N4564 0.985 . S
C4578 C4579 1.363 . S
C4578 C4584 1.379 . S
C4578 N4586 1.356 . S
C4579 C4578 1.363 . S
C4579 C4585 1.363 . S
C4580 C4581 1.363 . S
C4580 C4585 1.379 . S
C4580 N4587 1.356 . S
C4581 C4580 1.363 . S
C4581 C4584 1.363 . S
N4582 C4584 1.356 . S
N4582 H4594 0.984 . S
N4582 H4595 0.985 . S
N4583 C4585 1.356 . S
N4583 H4588 0.984 . S
N4583 H4589 0.985 . S
C4584 C4578 1.379 . S
C4584 C4581 1.363 . S
C4584 N4582 1.356 . S
C4585 C4579 1.363 . S
C4585 C4580 1.379 . S
C4585 N4583 1.356 . S
N4586 C4578 1.356 . S
N4586 H4592 0.984 . S
N4586 H4593 0.984 . S
N4587 C4580 1.356 . S
N4587 H4590 0.984 . S
N4587 H4591 0.985 . S
H4588 N4583 0.984 . S
H4589 N4583 0.985 . S
H4590 N4587 0.984 . S
H4591 N4587 0.985 . S
H4592 N4586 0.984 . S
H4593 N4586 0.984 . S
H4594 N4582 0.984 . S
H4595 N4582 0.985 . S
C4596 C4597 1.363 . S
C4596 C4602 1.379 . S
C4596 N4604 1.356 . S
C4597 C4596 1.363 . S
C4597 C4603 1.363 . S
C4598 C4599 1.363 . S
C4598 C4603 1.379 . S
C4598 N4605 1.356 . S
C4599 C4598 1.363 . S
C4599 C4602 1.363 . S
N4600 C4602 1.356 . S
N4600 H4612 0.984 . S
N4600 H4613 0.985 . S
N4601 C4603 1.356 . S
N4601 H4606 0.984 . S
N4601 H4607 0.985 . S
C4602 C4596 1.379 . S
C4602 C4599 1.363 . S
C4602 N4600 1.356 . S
C4603 C4597 1.363 . S
C4603 C4598 1.379 . S
C4603 N4601 1.356 . S
N4604 C4596 1.356 . S
N4604 H4610 0.984 . S
N4604 H4611 0.984 . S
N4605 C4598 1.356 . S
N4605 H4608 0.984 . S
N4605 H4609 0.985 . S
H4606 N4601 0.984 . S
H4607 N4601 0.985 . S
H4608 N4605 0.984 . S
H4609 N4605 0.985 . S
H4610 N4604 0.984 . S
H4611 N4604 0.984 . S
H4612 N4600 0.984 . S
H4613 N4600 0.985 . S
C4614 C4615 1.363 . S
C4614 C4620 1.379 . S
C4614 N4622 1.356 . S
C4615 C4614 1.363 . S
C4615 C4621 1.363 . S
C4616 C4617 1.363 . S
C4616 C4621 1.379 . S
C4616 N4623 1.356 . S
C4617 C4616 1.363 . S
C4617 C4620 1.363 . S
N4618 C4620 1.356 . S
N4618 H4630 0.984 . S
N4618 H4631 0.985 . S
N4619 C4621 1.356 . S
N4619 H4624 0.984 . S
N4619 H4625 0.985 . S
C4620 C4614 1.379 . S
C4620 C4617 1.363 . S
C4620 N4618 1.356 . S
C4621 C4615 1.363 . S
C4621 C4616 1.379 . S
C4621 N4619 1.356 . S
N4622 C4614 1.356 . S
N4622 H4628 0.984 . S
N4622 H4629 0.984 . S
N4623 C4616 1.356 . S
N4623 H4626 0.984 . S
N4623 H4627 0.985 . S
H4624 N4619 0.984 . S
H4625 N4619 0.985 . S
H4626 N4623 0.984 . S
H4627 N4623 0.985 . S
H4628 N4622 0.984 . S
H4629 N4622 0.984 . S
H4630 N4618 0.984 . S
H4631 N4618 0.985 . S
C4632 C4633 1.363 . S
C4632 C4638 1.379 . S
C4632 N4640 1.356 . S
C4633 C4632 1.363 . S
C4633 C4639 1.363 . S
C4634 C4635 1.363 . S
C4634 C4639 1.379 . S
C4634 N4641 1.356 . S
C4635 C4634 1.363 . S
C4635 C4638 1.363 . S
N4636 C4638 1.356 . S
N4636 H4648 0.984 . S
N4636 H4649 0.985 . S
N4637 C4639 1.356 . S
N4637 H4642 0.984 . S
N4637 H4643 0.985 . S
C4638 C4632 1.379 . S
C4638 C4635 1.363 . S
C4638 N4636 1.356 . S
C4639 C4633 1.363 . S
C4639 C4634 1.379 . S
C4639 N4637 1.356 . S
N4640 C4632 1.356 . S
N4640 H4646 0.984 . S
N4640 H4647 0.984 . S
N4641 C4634 1.356 . S
N4641 H4644 0.984 . S
N4641 H4645 0.985 . S
H4642 N4637 0.984 . S
H4643 N4637 0.985 . S
H4644 N4641 0.984 . S
H4645 N4641 0.985 . S
H4646 N4640 0.984 . S
H4647 N4640 0.984 . S
H4648 N4636 0.984 . S
H4649 N4636 0.985 . S
C4650 C4651 1.363 . S
C4650 C4656 1.379 . S
C4650 N4658 1.356 . S
C4651 C4650 1.363 . S
C4651 C4657 1.363 . S
C4652 C4653 1.363 . S
C4652 C4657 1.379 . S
C4652 N4659 1.356 . S
C4653 C4652 1.363 . S
C4653 C4656 1.363 . S
N4654 C4656 1.356 . S
N4654 H4666 0.984 . S
N4654 H4667 0.985 . S
N4655 C4657 1.356 . S
N4655 H4660 0.984 . S
N4655 H4661 0.985 . S
C4656 C4650 1.379 . S
C4656 C4653 1.363 . S
C4656 N4654 1.356 . S
C4657 C4651 1.363 . S
C4657 C4652 1.379 . S
C4657 N4655 1.356 . S
N4658 C4650 1.356 . S
N4658 H4664 0.984 . S
N4658 H4665 0.984 . S
N4659 C4652 1.356 . S
N4659 H4662 0.984 . S
N4659 H4663 0.985 . S
H4660 N4655 0.984 . S
H4661 N4655 0.985 . S
H4662 N4659 0.984 . S
H4663 N4659 0.985 . S
H4664 N4658 0.984 . S
H4665 N4658 0.984 . S
H4666 N4654 0.984 . S
H4667 N4654 0.985 . S
C4668 C4669 1.363 . S
C4668 C4674 1.379 . S
C4668 N4676 1.356 . S
C4669 C4668 1.363 . S
C4669 C4675 1.363 . S
C4670 C4671 1.363 . S
C4670 C4675 1.379 . S
C4670 N4677 1.356 . S
C4671 C4670 1.363 . S
C4671 C4674 1.363 . S
N4672 C4674 1.356 . S
N4672 H4684 0.984 . S
N4672 H4685 0.985 . S
N4673 C4675 1.356 . S
N4673 H4678 0.984 . S
N4673 H4679 0.985 . S
C4674 C4668 1.379 . S
C4674 C4671 1.363 . S
C4674 N4672 1.356 . S
C4675 C4669 1.363 . S
C4675 C4670 1.379 . S
C4675 N4673 1.356 . S
N4676 C4668 1.356 . S
N4676 H4682 0.984 . S
N4676 H4683 0.984 . S
N4677 C4670 1.356 . S
N4677 H4680 0.984 . S
N4677 H4681 0.985 . S
H4678 N4673 0.984 . S
H4679 N4673 0.985 . S
H4680 N4677 0.984 . S
H4681 N4677 0.985 . S
H4682 N4676 0.984 . S
H4683 N4676 0.984 . S
H4684 N4672 0.984 . S
H4685 N4672 0.985 . S
C4686 C4687 1.363 . S
C4686 C4692 1.379 . S
C4686 N4694 1.356 . S
C4687 C4686 1.363 . S
C4687 C4693 1.363 . S
C4688 C4689 1.363 . S
C4688 C4693 1.379 . S
C4688 N4695 1.356 . S
C4689 C4688 1.363 . S
C4689 C4692 1.363 . S
N4690 C4692 1.356 . S
N4690 H4702 0.984 . S
N4690 H4703 0.985 . S
N4691 C4693 1.356 . S
N4691 H4696 0.984 . S
N4691 H4697 0.985 . S
C4692 C4686 1.379 . S
C4692 C4689 1.363 . S
C4692 N4690 1.356 . S
C4693 C4687 1.363 . S
C4693 C4688 1.379 . S
C4693 N4691 1.356 . S
N4694 C4686 1.356 . S
N4694 H4700 0.984 . S
N4694 H4701 0.984 . S
N4695 C4688 1.356 . S
N4695 H4698 0.984 . S
N4695 H4699 0.985 . S
H4696 N4691 0.984 . S
H4697 N4691 0.985 . S
H4698 N4695 0.984 . S
H4699 N4695 0.985 . S
H4700 N4694 0.984 . S
H4701 N4694 0.984 . S
H4702 N4690 0.984 . S
H4703 N4690 0.985 . S
C4704 C4705 1.363 . S
C4704 C4710 1.379 . S
C4704 N4712 1.356 . S
C4705 C4704 1.363 . S
C4705 C4711 1.363 . S
C4706 C4707 1.363 . S
C4706 C4711 1.379 . S
C4706 N4713 1.356 . S
C4707 C4706 1.363 . S
C4707 C4710 1.363 . S
N4708 C4710 1.356 . S
N4708 H4720 0.984 . S
N4708 H4721 0.985 . S
N4709 C4711 1.356 . S
N4709 H4714 0.984 . S
N4709 H4715 0.985 . S
C4710 C4704 1.379 . S
C4710 C4707 1.363 . S
C4710 N4708 1.356 . S
C4711 C4705 1.363 . S
C4711 C4706 1.379 . S
C4711 N4709 1.356 . S
N4712 C4704 1.356 . S
N4712 H4718 0.984 . S
N4712 H4719 0.984 . S
N4713 C4706 1.356 . S
N4713 H4716 0.984 . S
N4713 H4717 0.985 . S
H4714 N4709 0.984 . S
H4715 N4709 0.985 . S
H4716 N4713 0.984 . S
H4717 N4713 0.985 . S
H4718 N4712 0.984 . S
H4719 N4712 0.984 . S
H4720 N4708 0.984 . S
H4721 N4708 0.985 . S
C4722 C4723 1.363 . S
C4722 C4728 1.379 . S
C4722 N4730 1.356 . S
C4723 C4722 1.363 . S
C4723 C4729 1.363 . S
C4724 C4725 1.363 . S
C4724 C4729 1.379 . S
C4724 N4731 1.356 . S
C4725 C4724 1.363 . S
C4725 C4728 1.363 . S
N4726 C4728 1.356 . S
N4726 H4738 0.984 . S
N4726 H4739 0.985 . S
N4727 C4729 1.356 . S
N4727 H4732 0.984 . S
N4727 H4733 0.985 . S
C4728 C4722 1.379 . S
C4728 C4725 1.363 . S
C4728 N4726 1.356 . S
C4729 C4723 1.363 . S
C4729 C4724 1.379 . S
C4729 N4727 1.356 . S
N4730 C4722 1.356 . S
N4730 H4736 0.984 . S
N4730 H4737 0.984 . S
N4731 C4724 1.356 . S
N4731 H4734 0.984 . S
N4731 H4735 0.985 . S
H4732 N4727 0.984 . S
H4733 N4727 0.985 . S
H4734 N4731 0.984 . S
H4735 N4731 0.985 . S
H4736 N4730 0.984 . S
H4737 N4730 0.984 . S
H4738 N4726 0.984 . S
H4739 N4726 0.985 . S
C4740 C4741 1.363 . S
C4740 C4746 1.379 . S
C4740 N4748 1.356 . S
C4741 C4740 1.363 . S
C4741 C4747 1.363 . S
C4742 C4743 1.363 . S
C4742 C4747 1.379 . S
C4742 N4749 1.356 . S
C4743 C4742 1.363 . S
C4743 C4746 1.363 . S
N4744 C4746 1.356 . S
N4744 H4756 0.984 . S
N4744 H4757 0.985 . S
N4745 C4747 1.356 . S
N4745 H4750 0.984 . S
N4745 H4751 0.985 . S
C4746 C4740 1.379 . S
C4746 C4743 1.363 . S
C4746 N4744 1.356 . S
C4747 C4741 1.363 . S
C4747 C4742 1.379 . S
C4747 N4745 1.356 . S
N4748 C4740 1.356 . S
N4748 H4754 0.984 . S
N4748 H4755 0.984 . S
N4749 C4742 1.356 . S
N4749 H4752 0.984 . S
N4749 H4753 0.985 . S
H4750 N4745 0.984 . S
H4751 N4745 0.985 . S
H4752 N4749 0.984 . S
H4753 N4749 0.985 . S
H4754 N4748 0.984 . S
H4755 N4748 0.984 . S
H4756 N4744 0.984 . S
H4757 N4744 0.985 . S
C4758 C4759 1.363 . S
C4758 C4764 1.379 . S
C4758 N4766 1.356 . S
C4759 C4758 1.363 . S
C4759 C4765 1.363 . S
C4760 C4761 1.363 . S
C4760 C4765 1.379 . S
C4760 N4767 1.356 . S
C4761 C4760 1.363 . S
C4761 C4764 1.363 . S
N4762 C4764 1.356 . S
N4762 H4774 0.984 . S
N4762 H4775 0.985 . S
N4763 C4765 1.356 . S
N4763 H4768 0.984 . S
N4763 H4769 0.985 . S
C4764 C4758 1.379 . S
C4764 C4761 1.363 . S
C4764 N4762 1.356 . S
C4765 C4759 1.363 . S
C4765 C4760 1.379 . S
C4765 N4763 1.356 . S
N4766 C4758 1.356 . S
N4766 H4772 0.984 . S
N4766 H4773 0.984 . S
N4767 C4760 1.356 . S
N4767 H4770 0.984 . S
N4767 H4771 0.985 . S
H4768 N4763 0.984 . S
H4769 N4763 0.985 . S
H4770 N4767 0.984 . S
H4771 N4767 0.985 . S
H4772 N4766 0.984 . S
H4773 N4766 0.984 . S
H4774 N4762 0.984 . S
H4775 N4762 0.985 . S
C4776 C4777 1.363 . S
C4776 C4782 1.379 . S
C4776 N4784 1.356 . S
C4777 C4776 1.363 . S
C4777 C4783 1.363 . S
C4778 C4779 1.363 . S
C4778 C4783 1.379 . S
C4778 N4785 1.356 . S
C4779 C4778 1.363 . S
C4779 C4782 1.363 . S
N4780 C4782 1.356 . S
N4780 H4792 0.984 . S
N4780 H4793 0.985 . S
N4781 C4783 1.356 . S
N4781 H4786 0.984 . S
N4781 H4787 0.985 . S
C4782 C4776 1.379 . S
C4782 C4779 1.363 . S
C4782 N4780 1.356 . S
C4783 C4777 1.363 . S
C4783 C4778 1.379 . S
C4783 N4781 1.356 . S
N4784 C4776 1.356 . S
N4784 H4790 0.984 . S
N4784 H4791 0.984 . S
N4785 C4778 1.356 . S
N4785 H4788 0.984 . S
N4785 H4789 0.985 . S
H4786 N4781 0.984 . S
H4787 N4781 0.985 . S
H4788 N4785 0.984 . S
H4789 N4785 0.985 . S
H4790 N4784 0.984 . S
H4791 N4784 0.984 . S
H4792 N4780 0.984 . S
H4793 N4780 0.985 . S
C4794 C4795 1.363 . S
C4794 C4800 1.379 . S
C4794 N4802 1.356 . S
C4795 C4794 1.363 . S
C4795 C4801 1.363 . S
C4796 C4797 1.363 . S
C4796 C4801 1.379 . S
C4796 N4803 1.356 . S
C4797 C4796 1.363 . S
C4797 C4800 1.363 . S
N4798 C4800 1.356 . S
N4798 H4810 0.984 . S
N4798 H4811 0.985 . S
N4799 C4801 1.356 . S
N4799 H4804 0.984 . S
N4799 H4805 0.985 . S
C4800 C4794 1.379 . S
C4800 C4797 1.363 . S
C4800 N4798 1.356 . S
C4801 C4795 1.363 . S
C4801 C4796 1.379 . S
C4801 N4799 1.356 . S
N4802 C4794 1.356 . S
N4802 H4808 0.984 . S
N4802 H4809 0.984 . S
N4803 C4796 1.356 . S
N4803 H4806 0.984 . S
N4803 H4807 0.985 . S
H4804 N4799 0.984 . S
H4805 N4799 0.985 . S
H4806 N4803 0.984 . S
H4807 N4803 0.985 . S
H4808 N4802 0.984 . S
H4809 N4802 0.984 . S
H4810 N4798 0.984 . S
H4811 N4798 0.985 . S
C4812 C4813 1.363 . S
C4812 C4818 1.379 . S
C4812 N4820 1.356 . S
C4813 C4812 1.363 . S
C4813 C4819 1.363 . S
C4814 C4815 1.363 . S
C4814 C4819 1.379 . S
C4814 N4821 1.356 . S
C4815 C4814 1.363 . S
C4815 C4818 1.363 . S
N4816 C4818 1.356 . S
N4816 H4828 0.984 . S
N4816 H4829 0.985 . S
N4817 C4819 1.356 . S
N4817 H4822 0.984 . S
N4817 H4823 0.985 . S
C4818 C4812 1.379 . S
C4818 C4815 1.363 . S
C4818 N4816 1.356 . S
C4819 C4813 1.363 . S
C4819 C4814 1.379 . S
C4819 N4817 1.356 . S
N4820 C4812 1.356 . S
N4820 H4826 0.984 . S
N4820 H4827 0.984 . S
N4821 C4814 1.356 . S
N4821 H4824 0.984 . S
N4821 H4825 0.985 . S
H4822 N4817 0.984 . S
H4823 N4817 0.985 . S
H4824 N4821 0.984 . S
H4825 N4821 0.985 . S
H4826 N4820 0.984 . S
H4827 N4820 0.984 . S
H4828 N4816 0.984 . S
H4829 N4816 0.985 . S
C4830 C4831 1.363 . S
C4830 C4836 1.379 . S
C4830 N4838 1.356 . S
C4831 C4830 1.363 . S
C4831 C4837 1.363 . S
C4832 C4833 1.363 . S
C4832 C4837 1.379 . S
C4832 N4839 1.356 . S
C4833 C4832 1.363 . S
C4833 C4836 1.363 . S
N4834 C4836 1.356 . S
N4834 H4846 0.984 . S
N4834 H4847 0.985 . S
N4835 C4837 1.356 . S
N4835 H4840 0.984 . S
N4835 H4841 0.985 . S
C4836 C4830 1.379 . S
C4836 C4833 1.363 . S
C4836 N4834 1.356 . S
C4837 C4831 1.363 . S
C4837 C4832 1.379 . S
C4837 N4835 1.356 . S
N4838 C4830 1.356 . S
N4838 H4844 0.984 . S
N4838 H4845 0.984 . S
N4839 C4832 1.356 . S
N4839 H4842 0.984 . S
N4839 H4843 0.985 . S
H4840 N4835 0.984 . S
H4841 N4835 0.985 . S
H4842 N4839 0.984 . S
H4843 N4839 0.985 . S
H4844 N4838 0.984 . S
H4845 N4838 0.984 . S
H4846 N4834 0.984 . S
H4847 N4834 0.985 . S
C4848 C4849 1.363 . S
C4848 C4854 1.379 . S
C4848 N4856 1.356 . S
C4849 C4848 1.363 . S
C4849 C4855 1.363 . S
C4850 C4851 1.363 . S
C4850 C4855 1.379 . S
C4850 N4857 1.356 . S
C4851 C4850 1.363 . S
C4851 C4854 1.363 . S
N4852 C4854 1.356 . S
N4852 H4864 0.984 . S
N4852 H4865 0.985 . S
N4853 C4855 1.356 . S
N4853 H4858 0.984 . S
N4853 H4859 0.985 . S
C4854 C4848 1.379 . S
C4854 C4851 1.363 . S
C4854 N4852 1.356 . S
C4855 C4849 1.363 . S
C4855 C4850 1.379 . S
C4855 N4853 1.356 . S
N4856 C4848 1.356 . S
N4856 H4862 0.984 . S
N4856 H4863 0.984 . S
N4857 C4850 1.356 . S
N4857 H4860 0.984 . S
N4857 H4861 0.985 . S
H4858 N4853 0.984 . S
H4859 N4853 0.985 . S
H4860 N4857 0.984 . S
H4861 N4857 0.985 . S
H4862 N4856 0.984 . S
H4863 N4856 0.984 . S
H4864 N4852 0.984 . S
H4865 N4852 0.985 . S
C4866 C4867 1.363 . S
C4866 C4872 1.379 . S
C4866 N4874 1.356 . S
C4867 C4866 1.363 . S
C4867 C4873 1.363 . S
C4868 C4869 1.363 . S
C4868 C4873 1.379 . S
C4868 N4875 1.356 . S
C4869 C4868 1.363 . S
C4869 C4872 1.363 . S
N4870 C4872 1.356 . S
N4870 H4882 0.984 . S
N4870 H4883 0.985 . S
N4871 C4873 1.356 . S
N4871 H4876 0.984 . S
N4871 H4877 0.985 . S
C4872 C4866 1.379 . S
C4872 C4869 1.363 . S
C4872 N4870 1.356 . S
C4873 C4867 1.363 . S
C4873 C4868 1.379 . S
C4873 N4871 1.356 . S
N4874 C4866 1.356 . S
N4874 H4880 0.984 . S
N4874 H4881 0.984 . S
N4875 C4868 1.356 . S
N4875 H4878 0.984 . S
N4875 H4879 0.985 . S
H4876 N4871 0.984 . S
H4877 N4871 0.985 . S
H4878 N4875 0.984 . S
H4879 N4875 0.985 . S
H4880 N4874 0.984 . S
H4881 N4874 0.984 . S
H4882 N4870 0.984 . S
H4883 N4870 0.985 . S
C4884 C4885 1.363 . S
C4884 C4890 1.379 . S
C4884 N4892 1.356 . S
C4885 C4884 1.363 . S
C4885 C4891 1.363 . S
C4886 C4887 1.363 . S
C4886 C4891 1.379 . S
C4886 N4893 1.356 . S
C4887 C4886 1.363 . S
C4887 C4890 1.363 . S
N4888 C4890 1.356 . S
N4888 H4900 0.984 . S
N4888 H4901 0.985 . S
N4889 C4891 1.356 . S
N4889 H4894 0.984 . S
N4889 H4895 0.985 . S
C4890 C4884 1.379 . S
C4890 C4887 1.363 . S
C4890 N4888 1.356 . S
C4891 C4885 1.363 . S
C4891 C4886 1.379 . S
C4891 N4889 1.356 . S
N4892 C4884 1.356 . S
N4892 H4898 0.984 . S
N4892 H4899 0.984 . S
N4893 C4886 1.356 . S
N4893 H4896 0.984 . S
N4893 H4897 0.985 . S
H4894 N4889 0.984 . S
H4895 N4889 0.985 . S
H4896 N4893 0.984 . S
H4897 N4893 0.985 . S
H4898 N4892 0.984 . S
H4899 N4892 0.984 . S
H4900 N4888 0.984 . S
H4901 N4888 0.985 . S
C4902 C4903 1.363 . S
C4902 C4908 1.379 . S
C4902 N4910 1.356 . S
C4903 C4902 1.363 . S
C4903 C4909 1.363 . S
C4904 C4905 1.363 . S
C4904 C4909 1.379 . S
C4904 N4911 1.356 . S
C4905 C4904 1.363 . S
C4905 C4908 1.363 . S
N4906 C4908 1.356 . S
N4906 H4918 0.984 . S
N4906 H4919 0.985 . S
N4907 C4909 1.356 . S
N4907 H4912 0.984 . S
N4907 H4913 0.985 . S
C4908 C4902 1.379 . S
C4908 C4905 1.363 . S
C4908 N4906 1.356 . S
C4909 C4903 1.363 . S
C4909 C4904 1.379 . S
C4909 N4907 1.356 . S
N4910 C4902 1.356 . S
N4910 H4916 0.984 . S
N4910 H4917 0.984 . S
N4911 C4904 1.356 . S
N4911 H4914 0.984 . S
N4911 H4915 0.985 . S
H4912 N4907 0.984 . S
H4913 N4907 0.985 . S
H4914 N4911 0.984 . S
H4915 N4911 0.985 . S
H4916 N4910 0.984 . S
H4917 N4910 0.984 . S
H4918 N4906 0.984 . S
H4919 N4906 0.985 . S
C4920 C4921 1.363 . S
C4920 C4926 1.379 . S
C4920 N4928 1.356 . S
C4921 C4920 1.363 . S
C4921 C4927 1.363 . S
C4922 C4923 1.363 . S
C4922 C4927 1.379 . S
C4922 N4929 1.356 . S
C4923 C4922 1.363 . S
C4923 C4926 1.363 . S
N4924 C4926 1.356 . S
N4924 H4936 0.984 . S
N4924 H4937 0.985 . S
N4925 C4927 1.356 . S
N4925 H4930 0.984 . S
N4925 H4931 0.985 . S
C4926 C4920 1.379 . S
C4926 C4923 1.363 . S
C4926 N4924 1.356 . S
C4927 C4921 1.363 . S
C4927 C4922 1.379 . S
C4927 N4925 1.356 . S
N4928 C4920 1.356 . S
N4928 H4934 0.984 . S
N4928 H4935 0.984 . S
N4929 C4922 1.356 . S
N4929 H4932 0.984 . S
N4929 H4933 0.985 . S
H4930 N4925 0.984 . S
H4931 N4925 0.985 . S
H4932 N4929 0.984 . S
H4933 N4929 0.985 . S
H4934 N4928 0.984 . S
H4935 N4928 0.984 . S
H4936 N4924 0.984 . S
H4937 N4924 0.985 . S
C4938 C4939 1.363 . S
C4938 C4944 1.379 . S
C4938 N4946 1.356 . S
C4939 C4938 1.363 . S
C4939 C4945 1.363 . S
C4940 C4941 1.363 . S
C4940 C4945 1.379 . S
C4940 N4947 1.356 . S
C4941 C4940 1.363 . S
C4941 C4944 1.363 . S
N4942 C4944 1.356 . S
N4942 H4954 0.984 . S
N4942 H4955 0.985 . S
N4943 C4945 1.356 . S
N4943 H4948 0.984 . S
N4943 H4949 0.985 . S
C4944 C4938 1.379 . S
C4944 C4941 1.363 . S
C4944 N4942 1.356 . S
C4945 C4939 1.363 . S
C4945 C4940 1.379 . S
C4945 N4943 1.356 . S
N4946 C4938 1.356 . S
N4946 H4952 0.984 . S
N4946 H4953 0.984 . S
N4947 C4940 1.356 . S
N4947 H4950 0.984 . S
N4947 H4951 0.985 . S
H4948 N4943 0.984 . S
H4949 N4943 0.985 . S
H4950 N4947 0.984 . S
H4951 N4947 0.985 . S
H4952 N4946 0.984 . S
H4953 N4946 0.984 . S
H4954 N4942 0.984 . S
H4955 N4942 0.985 . S
C4956 C4957 1.363 1_545 S
C4956 C4962 1.414 . S
C4956 N4964 1.356 . S
C4957 C4956 1.363 1_565 S
C4957 C4963 1.363 . S
C4958 C4959 1.363 . S
C4958 C4963 1.379 . S
C4958 N4965 1.356 . S
C4959 C4958 1.363 . S
C4959 C4962 1.303 1_565 S
N4960 C4962 1.368 . S
N4960 H4972 0.984 . S
N4960 H4973 0.985 . S
N4961 C4963 1.356 . S
N4961 H4966 0.984 . S
N4961 H4967 0.985 . S
C4962 C4956 1.414 . S
C4962 C4959 1.303 1_545 S
C4962 N4960 1.368 . S
C4963 C4957 1.363 . S
C4963 C4958 1.379 . S
C4963 N4961 1.356 . S
N4964 C4956 1.356 . S
N4964 H4970 0.984 . S
N4964 H4971 0.984 . S
N4965 C4958 1.356 . S
N4965 H4968 0.984 . S
N4965 H4969 0.985 . S
H4966 N4961 0.984 . S
H4967 N4961 0.985 . S
H4968 N4965 0.984 . S
H4969 N4965 0.985 . S
H4970 N4964 0.984 . S
H4971 N4964 0.984 . S
H4972 N4960 0.984 . S
H4973 N4960 0.985 . S
C4974 C4975 1.347 1_565 S
C4974 C4980 1.372 . S
C4974 N4982 1.378 . S
C4975 C4974 1.347 1_545 S
C4975 C4981 1.363 . S
C4976 C4977 1.363 . S
C4976 C4981 1.379 . S
C4976 N4983 1.356 . S
C4977 C4976 1.363 . S
C4977 C4980 1.363 1_545 S
N4978 C4980 1.356 . S
N4978 H4990 0.984 . S
N4978 H4991 0.985 . S
N4979 C4981 1.356 . S
N4979 H4984 0.984 . S
N4979 H4985 0.985 . S
C4980 C4974 1.372 . S
C4980 C4977 1.363 1_565 S
C4980 N4978 1.356 . S
C4981 C4975 1.363 . S
C4981 C4976 1.379 . S
C4981 N4979 1.356 . S
N4982 C4974 1.378 . S
N4982 H4988 0.984 . S
N4982 H4989 0.984 . S
N4983 C4976 1.356 . S
N4983 H4986 0.984 . S
N4983 H4987 0.985 . S
H4984 N4979 0.984 . S
H4985 N4979 0.985 . S
H4986 N4983 0.984 . S
H4987 N4983 0.985 . S
H4988 N4982 0.984 . S
H4989 N4982 0.984 . S
H4990 N4978 0.984 . S
H4991 N4978 0.985 . S
C4992 C4993 1.363 . S
C4992 C4998 1.379 . S
C4992 N5000 1.356 . S
C4993 C4992 1.363 . S
C4993 C4999 1.363 . S
C4994 C4995 1.363 . S
C4994 C4999 1.379 . S
C4994 N5001 1.356 . S
C4995 C4994 1.363 . S
C4995 C4998 1.363 . S
N4996 C4998 1.356 . S
N4996 H5008 0.984 . S
N4996 H5009 0.985 . S
N4997 C4999 1.356 . S
N4997 H5002 0.984 . S
N4997 H5003 0.985 . S
C4998 C4992 1.379 . S
C4998 C4995 1.363 . S
C4998 N4996 1.356 . S
C4999 C4993 1.363 . S
C4999 C4994 1.379 . S
C4999 N4997 1.356 . S
N5000 C4992 1.356 . S
N5000 H5006 0.984 . S
N5000 H5007 0.984 . S
N5001 C4994 1.356 . S
N5001 H5004 0.984 . S
N5001 H5005 0.985 . S
H5002 N4997 0.984 . S
H5003 N4997 0.985 . S
H5004 N5001 0.984 . S
H5005 N5001 0.985 . S
H5006 N5000 0.984 . S
H5007 N5000 0.984 . S
H5008 N4996 0.984 . S
H5009 N4996 0.985 . S
C5010 C5011 1.363 . S
C5010 C5016 1.379 . S
C5010 N5018 1.356 . S
C5011 C5010 1.363 . S
C5011 C5017 1.363 . S
C5012 C5013 1.363 . S
C5012 C5017 1.379 . S
C5012 N5019 1.356 . S
C5013 C5012 1.363 . S
C5013 C5016 1.363 . S
N5014 C5016 1.356 . S
N5014 H5026 0.984 . S
N5014 H5027 0.985 . S
N5015 C5017 1.356 . S
N5015 H5020 0.984 . S
N5015 H5021 0.985 . S
C5016 C5010 1.379 . S
C5016 C5013 1.363 . S
C5016 N5014 1.356 . S
C5017 C5011 1.363 . S
C5017 C5012 1.379 . S
C5017 N5015 1.356 . S
N5018 C5010 1.356 . S
N5018 H5024 0.984 . S
N5018 H5025 0.984 . S
N5019 C5012 1.356 . S
N5019 H5022 0.984 . S
N5019 H5023 0.985 . S
H5020 N5015 0.984 . S
H5021 N5015 0.985 . S
H5022 N5019 0.984 . S
H5023 N5019 0.985 . S
H5024 N5018 0.984 . S
H5025 N5018 0.984 . S
H5026 N5014 0.984 . S
H5027 N5014 0.985 . S
C5028 C5029 1.363 . S
C5028 C5034 1.379 . S
C5028 N5036 1.356 . S
C5029 C5028 1.363 . S
C5029 C5035 1.363 . S
C5030 C5031 1.363 . S
C5030 C5035 1.379 . S
C5030 N5037 1.356 . S
C5031 C5030 1.363 . S
C5031 C5034 1.363 . S
N5032 C5034 1.356 . S
N5032 H5044 0.984 . S
N5032 H5045 0.985 . S
N5033 C5035 1.356 . S
N5033 H5038 0.984 1_556 S
N5033 H5039 0.985 . S
C5034 C5028 1.379 . S
C5034 C5031 1.363 . S
C5034 N5032 1.356 . S
C5035 C5029 1.363 . S
C5035 C5030 1.379 . S
C5035 N5033 1.356 . S
N5036 C5028 1.356 . S
N5036 H5042 0.984 . S
N5036 H5043 0.984 . S
N5037 C5030 1.356 . S
N5037 H5040 0.984 . S
N5037 H5041 0.985 . S
H5038 N5033 0.984 1_554 S
H5039 N5033 0.985 . S
H5040 N5037 0.984 . S
H5041 N5037 0.985 . S
H5042 N5036 0.984 . S
H5043 N5036 0.984 . S
H5044 N5032 0.984 . S
H5045 N5032 0.985 . S
C5046 C5047 1.363 . S
C5046 C5052 1.379 . S
C5046 N5054 1.356 . S
C5047 C5046 1.363 . S
C5047 C5053 1.363 . S
C5048 C5049 1.363 . S
C5048 C5053 1.379 . S
C5048 N5055 1.356 . S
C5049 C5048 1.363 . S
C5049 C5052 1.363 . S
N5050 C5052 1.356 . S
N5050 H5062 0.984 . S
N5050 H5063 0.985 . S
N5051 C5053 1.356 . S
N5051 H5056 0.984 . S
N5051 H5057 0.985 . S
C5052 C5046 1.379 . S
C5052 C5049 1.363 . S
C5052 N5050 1.356 . S
C5053 C5047 1.363 . S
C5053 C5048 1.379 . S
C5053 N5051 1.356 . S
N5054 C5046 1.356 . S
N5054 H5060 0.984 . S
N5054 H5061 0.984 . S
N5055 C5048 1.356 . S
N5055 H5058 0.984 . S
N5055 H5059 0.985 . S
H5056 N5051 0.984 . S
H5057 N5051 0.985 . S
H5058 N5055 0.984 . S
H5059 N5055 0.985 . S
H5060 N5054 0.984 . S
H5061 N5054 0.984 . S
H5062 N5050 0.984 . S
H5063 N5050 0.985 . S
C5064 C5065 1.363 . S
C5064 C5070 1.379 . S
C5064 N5072 1.356 . S
C5065 C5064 1.363 . S
C5065 C5071 1.363 . S
C5066 C5067 1.363 . S
C5066 C5071 1.379 . S
C5066 N5073 1.356 . S
C5067 C5066 1.363 . S
C5067 C5070 1.363 . S
N5068 C5070 1.356 . S
N5068 H5080 0.984 . S
N5068 H5081 0.985 . S
N5069 C5071 1.356 . S
N5069 H5074 0.984 . S
N5069 H5075 0.985 . S
C5070 C5064 1.379 . S
C5070 C5067 1.363 . S
C5070 N5068 1.356 . S
C5071 C5065 1.363 . S
C5071 C5066 1.379 . S
C5071 N5069 1.356 . S
N5072 C5064 1.356 . S
N5072 H5078 0.984 . S
N5072 H5079 0.984 . S
N5073 C5066 1.356 . S
N5073 H5076 0.984 . S
N5073 H5077 0.985 . S
H5074 N5069 0.984 . S
H5075 N5069 0.985 . S
H5076 N5073 0.984 . S
H5077 N5073 0.985 . S
H5078 N5072 0.984 . S
H5079 N5072 0.984 . S
H5080 N5068 0.984 . S
H5081 N5068 0.985 . S
C5082 C5083 1.363 . S
C5082 C5088 1.379 . S
C5082 N5090 1.356 . S
C5083 C5082 1.363 . S
C5083 C5089 1.363 . S
C5084 C5085 1.363 . S
C5084 C5089 1.379 . S
C5084 N5091 1.356 . S
C5085 C5084 1.363 . S
C5085 C5088 1.363 . S
N5086 C5088 1.356 . S
N5086 H5098 0.984 . S
N5086 H5099 0.985 . S
N5087 C5089 1.356 . S
N5087 H5092 0.984 . S
N5087 H5093 0.985 . S
C5088 C5082 1.379 . S
C5088 C5085 1.363 . S
C5088 N5086 1.356 . S
C5089 C5083 1.363 . S
C5089 C5084 1.379 . S
C5089 N5087 1.356 . S
N5090 C5082 1.356 . S
N5090 H5096 0.984 . S
N5090 H5097 0.984 . S
N5091 C5084 1.356 . S
N5091 H5094 0.984 . S
N5091 H5095 0.985 . S
H5092 N5087 0.984 . S
H5093 N5087 0.985 . S
H5094 N5091 0.984 . S
H5095 N5091 0.985 . S
H5096 N5090 0.984 . S
H5097 N5090 0.984 . S
H5098 N5086 0.984 . S
H5099 N5086 0.985 . S
C5100 C5101 1.363 . S
C5100 C5106 1.379 . S
C5100 N5108 1.356 . S
C5101 C5100 1.363 . S
C5101 C5107 1.363 . S
C5102 C5103 1.363 . S
C5102 C5107 1.379 . S
C5102 N5109 1.356 . S
C5103 C5102 1.363 . S
C5103 C5106 1.363 . S
N5104 C5106 1.356 . S
N5104 H5116 0.984 . S
N5104 H5117 0.985 . S
N5105 C5107 1.356 . S
N5105 H5110 0.984 . S
N5105 H5111 0.985 . S
C5106 C5100 1.379 . S
C5106 C5103 1.363 . S
C5106 N5104 1.356 . S
C5107 C5101 1.363 . S
C5107 C5102 1.379 . S
C5107 N5105 1.356 . S
N5108 C5100 1.356 . S
N5108 H5114 0.984 . S
N5108 H5115 0.984 . S
N5109 C5102 1.356 . S
N5109 H5112 0.984 . S
N5109 H5113 0.985 . S
H5110 N5105 0.984 . S
H5111 N5105 0.985 . S
H5112 N5109 0.984 . S
H5113 N5109 0.985 . S
H5114 N5108 0.984 . S
H5115 N5108 0.984 . S
H5116 N5104 0.984 . S
H5117 N5104 0.985 . S
C5118 C5119 1.363 . S
C5118 C5124 1.379 . S
C5118 N5126 1.356 . S
C5119 C5118 1.363 . S
C5119 C5125 1.363 . S
C5120 C5121 1.363 . S
C5120 C5125 1.379 . S
C5120 N5127 1.356 . S
C5121 C5120 1.363 . S
C5121 C5124 1.363 . S
N5122 C5124 1.356 . S
N5122 H5134 0.984 . S
N5122 H5135 0.985 . S
N5123 C5125 1.356 . S
N5123 H5128 0.984 . S
N5123 H5129 0.985 . S
C5124 C5118 1.379 . S
C5124 C5121 1.363 . S
C5124 N5122 1.356 . S
C5125 C5119 1.363 . S
C5125 C5120 1.379 . S
C5125 N5123 1.356 . S
N5126 C5118 1.356 . S
N5126 H5132 0.984 . S
N5126 H5133 0.984 . S
N5127 C5120 1.356 . S
N5127 H5130 0.984 . S
N5127 H5131 0.985 . S
H5128 N5123 0.984 . S
H5129 N5123 0.985 . S
H5130 N5127 0.984 . S
H5131 N5127 0.985 . S
H5132 N5126 0.984 . S
H5133 N5126 0.984 . S
H5134 N5122 0.984 . S
H5135 N5122 0.985 . S
C5136 C5137 1.363 . S
C5136 C5142 1.379 . S
C5136 N5144 1.356 . S
C5137 C5136 1.363 . S
C5137 C5143 1.363 . S
C5138 C5139 1.363 . S
C5138 C5143 1.379 . S
C5138 N5145 1.356 . S
C5139 C5138 1.363 . S
C5139 C5142 1.363 . S
N5140 C5142 1.356 . S
N5140 H5152 0.984 . S
N5140 H5153 0.985 . S
N5141 C5143 1.356 . S
N5141 H5146 0.984 . S
N5141 H5147 0.985 . S
C5142 C5136 1.379 . S
C5142 C5139 1.363 . S
C5142 N5140 1.356 . S
C5143 C5137 1.363 . S
C5143 C5138 1.379 . S
C5143 N5141 1.356 . S
N5144 C5136 1.356 . S
N5144 H5150 0.984 . S
N5144 H5151 0.984 . S
N5145 C5138 1.356 . S
N5145 H5148 0.984 . S
N5145 H5149 0.985 . S
H5146 N5141 0.984 . S
H5147 N5141 0.985 . S
H5148 N5145 0.984 . S
H5149 N5145 0.985 . S
H5150 N5144 0.984 . S
H5151 N5144 0.984 . S
H5152 N5140 0.984 . S
H5153 N5140 0.985 . S
C5154 C5155 1.363 . S
C5154 C5160 1.379 . S
C5154 N5162 1.356 . S
C5155 C5154 1.363 . S
C5155 C5161 1.363 . S
C5156 C5157 1.363 . S
C5156 C5161 1.379 . S
C5156 N5163 1.356 . S
C5157 C5156 1.363 . S
C5157 C5160 1.363 . S
N5158 C5160 1.356 . S
N5158 H5170 0.984 . S
N5158 H5171 0.985 . S
N5159 C5161 1.356 . S
N5159 H5164 0.984 . S
N5159 H5165 0.985 . S
C5160 C5154 1.379 . S
C5160 C5157 1.363 . S
C5160 N5158 1.356 . S
C5161 C5155 1.363 . S
C5161 C5156 1.379 . S
C5161 N5159 1.356 . S
N5162 C5154 1.356 . S
N5162 H5168 0.984 . S
N5162 H5169 0.984 . S
N5163 C5156 1.356 . S
N5163 H5166 0.984 . S
N5163 H5167 0.985 . S
H5164 N5159 0.984 . S
H5165 N5159 0.985 . S
H5166 N5163 0.984 . S
H5167 N5163 0.985 . S
H5168 N5162 0.984 . S
H5169 N5162 0.984 . S
H5170 N5158 0.984 . S
H5171 N5158 0.985 . S
C5172 C5173 1.363 . S
C5172 C5178 1.379 . S
C5172 N5180 1.356 . S
C5173 C5172 1.363 . S
C5173 C5179 1.363 . S
C5174 C5175 1.363 . S
C5174 C5179 1.379 . S
C5174 N5181 1.356 . S
C5175 C5174 1.363 . S
C5175 C5178 1.363 . S
N5176 C5178 1.356 . S
N5176 H5188 0.984 . S
N5176 H5189 0.985 . S
N5177 C5179 1.356 . S
N5177 H5182 0.984 . S
N5177 H5183 0.985 . S
C5178 C5172 1.379 . S
C5178 C5175 1.363 . S
C5178 N5176 1.356 . S
C5179 C5173 1.363 . S
C5179 C5174 1.379 . S
C5179 N5177 1.356 . S
N5180 C5172 1.356 . S
N5180 H5186 0.984 . S
N5180 H5187 0.984 . S
N5181 C5174 1.356 . S
N5181 H5184 0.984 . S
N5181 H5185 0.985 . S
H5182 N5177 0.984 . S
H5183 N5177 0.985 . S
H5184 N5181 0.984 . S
H5185 N5181 0.985 . S
H5186 N5180 0.984 . S
H5187 N5180 0.984 . S
H5188 N5176 0.984 . S
H5189 N5176 0.985 . S
C5190 C5191 1.363 . S
C5190 C5196 1.379 . S
C5190 N5198 1.356 . S
C5191 C5190 1.363 . S
C5191 C5197 1.363 . S
C5192 C5193 1.363 . S
C5192 C5197 1.379 . S
C5192 N5199 1.356 . S
C5193 C5192 1.363 . S
C5193 C5196 1.363 . S
N5194 C5196 1.356 . S
N5194 H5206 0.984 . S
N5194 H5207 0.985 . S
N5195 C5197 1.356 . S
N5195 H5200 0.984 . S
N5195 H5201 0.985 . S
C5196 C5190 1.379 . S
C5196 C5193 1.363 . S
C5196 N5194 1.356 . S
C5197 C5191 1.363 . S
C5197 C5192 1.379 . S
C5197 N5195 1.356 . S
N5198 C5190 1.356 . S
N5198 H5204 0.984 . S
N5198 H5205 0.984 . S
N5199 C5192 1.356 . S
N5199 H5202 0.984 . S
N5199 H5203 0.985 . S
H5200 N5195 0.984 . S
H5201 N5195 0.985 . S
H5202 N5199 0.984 . S
H5203 N5199 0.985 . S
H5204 N5198 0.984 . S
H5205 N5198 0.984 . S
H5206 N5194 0.984 . S
H5207 N5194 0.985 . S
C5208 C5209 1.363 . S
C5208 C5214 1.379 . S
C5208 N5216 1.356 . S
C5209 C5208 1.363 . S
C5209 C5215 1.363 . S
C5210 C5211 1.363 . S
C5210 C5215 1.379 . S
C5210 N5217 1.356 . S
C5211 C5210 1.363 . S
C5211 C5214 1.363 . S
N5212 C5214 1.356 . S
N5212 H5224 0.984 . S
N5212 H5225 0.985 . S
N5213 C5215 1.356 . S
N5213 H5218 0.984 . S
N5213 H5219 0.985 . S
C5214 C5208 1.379 . S
C5214 C5211 1.363 . S
C5214 N5212 1.356 . S
C5215 C5209 1.363 . S
C5215 C5210 1.379 . S
C5215 N5213 1.356 . S
N5216 C5208 1.356 . S
N5216 H5222 0.984 . S
N5216 H5223 0.984 . S
N5217 C5210 1.356 . S
N5217 H5220 0.984 . S
N5217 H5221 0.985 . S
H5218 N5213 0.984 . S
H5219 N5213 0.985 . S
H5220 N5217 0.984 . S
H5221 N5217 0.985 . S
H5222 N5216 0.984 . S
H5223 N5216 0.984 . S
H5224 N5212 0.984 . S
H5225 N5212 0.985 . S
C5226 C5227 1.363 . S
C5226 C5232 1.379 . S
C5226 N5234 1.356 . S
C5227 C5226 1.363 . S
C5227 C5233 1.363 . S
C5228 C5229 1.363 . S
C5228 C5233 1.379 . S
C5228 N5235 1.356 . S
C5229 C5228 1.363 . S
C5229 C5232 1.363 . S
N5230 C5232 1.356 . S
N5230 H5242 0.984 . S
N5230 H5243 0.985 . S
N5231 C5233 1.356 . S
N5231 H5236 0.984 . S
N5231 H5237 0.985 . S
C5232 C5226 1.379 . S
C5232 C5229 1.363 . S
C5232 N5230 1.356 . S
C5233 C5227 1.363 . S
C5233 C5228 1.379 . S
C5233 N5231 1.356 . S
N5234 C5226 1.356 . S
N5234 H5240 0.984 . S
N5234 H5241 0.984 . S
N5235 C5228 1.356 . S
N5235 H5238 0.984 . S
N5235 H5239 0.985 . S
H5236 N5231 0.984 . S
H5237 N5231 0.985 . S
H5238 N5235 0.984 . S
H5239 N5235 0.985 . S
H5240 N5234 0.984 . S
H5241 N5234 0.984 . S
H5242 N5230 0.984 . S
H5243 N5230 0.985 . S
C5244 C5245 1.363 . S
C5244 C5250 1.379 . S
C5244 N5252 1.356 . S
C5245 C5244 1.363 . S
C5245 C5251 1.363 . S
C5246 C5247 1.363 . S
C5246 C5251 1.379 . S
C5246 N5253 1.356 . S
C5247 C5246 1.363 . S
C5247 C5250 1.363 . S
N5248 C5250 1.356 . S
N5248 H5260 0.984 . S
N5248 H5261 0.985 . S
N5249 C5251 1.356 . S
N5249 H5254 0.984 1_455 S
N5249 H5255 0.985 . S
C5250 C5244 1.379 . S
C5250 C5247 1.363 . S
C5250 N5248 1.356 . S
C5251 C5245 1.363 . S
C5251 C5246 1.379 . S
C5251 N5249 1.356 . S
N5252 C5244 1.356 . S
N5252 H5258 0.984 . S
N5252 H5259 0.984 . S
N5253 C5246 1.356 . S
N5253 H5256 0.984 . S
N5253 H5257 0.985 . S
H5254 N5249 0.984 1_655 S
H5255 N5249 0.985 . S
H5256 N5253 0.984 . S
H5257 N5253 0.985 . S
H5258 N5252 0.984 . S
H5259 N5252 0.984 . S
H5260 N5248 0.984 . S
H5261 N5248 0.985 . S
C5262 C5263 1.363 . S
C5262 C5268 1.379 . S
C5262 N5270 1.356 . S
C5263 C5262 1.363 . S
C5263 C5269 1.363 . S
C5264 C5265 1.363 . S
C5264 C5269 1.379 . S
C5264 N5271 1.356 . S
C5265 C5264 1.363 . S
C5265 C5268 1.363 . S
N5266 C5268 1.356 . S
N5266 H5278 0.984 . S
N5266 H5279 0.985 . S
N5267 C5269 1.356 . S
N5267 H5272 0.984 . S
N5267 H5273 0.985 . S
C5268 C5262 1.379 . S
C5268 C5265 1.363 . S
C5268 N5266 1.356 . S
C5269 C5263 1.363 . S
C5269 C5264 1.379 . S
C5269 N5267 1.356 . S
N5270 C5262 1.356 . S
N5270 H5276 0.984 . S
N5270 H5277 0.984 . S
N5271 C5264 1.356 . S
N5271 H5274 0.984 . S
N5271 H5275 0.985 . S
H5272 N5267 0.984 . S
H5273 N5267 0.985 . S
H5274 N5271 0.984 . S
H5275 N5271 0.985 . S
H5276 N5270 0.984 . S
H5277 N5270 0.984 . S
H5278 N5266 0.984 . S
H5279 N5266 0.985 . S
C5280 C5281 1.363 . S
C5280 C5286 1.379 . S
C5280 N5288 1.356 . S
C5281 C5280 1.363 . S
C5281 C5287 1.363 . S
C5282 C5283 1.363 . S
C5282 C5287 1.379 . S
C5282 N5289 1.356 . S
C5283 C5282 1.363 . S
C5283 C5286 1.363 . S
N5284 C5286 1.356 . S
N5284 H5296 0.984 . S
N5284 H5297 0.985 . S
N5285 C5287 1.356 . S
N5285 H5290 0.984 . S
N5285 H5291 0.985 . S
C5286 C5280 1.379 . S
C5286 C5283 1.363 . S
C5286 N5284 1.356 . S
C5287 C5281 1.363 . S
C5287 C5282 1.379 . S
C5287 N5285 1.356 . S
N5288 C5280 1.356 . S
N5288 H5294 0.984 . S
N5288 H5295 0.984 . S
N5289 C5282 1.356 . S
N5289 H5292 0.984 . S
N5289 H5293 0.985 . S
H5290 N5285 0.984 . S
H5291 N5285 0.985 . S
H5292 N5289 0.984 . S
H5293 N5289 0.985 . S
H5294 N5288 0.984 . S
H5295 N5288 0.984 . S
H5296 N5284 0.984 . S
H5297 N5284 0.985 . S
C5298 C5299 1.363 . S
C5298 C5304 1.379 . S
C5298 N5306 1.356 . S
C5299 C5298 1.363 . S
C5299 C5305 1.363 . S
C5300 C5301 1.363 . S
C5300 C5305 1.379 . S
C5300 N5307 1.356 . S
C5301 C5300 1.363 . S
C5301 C5304 1.363 . S
N5302 C5304 1.356 . S
N5302 H5314 0.984 . S
N5302 H5315 0.985 . S
N5303 C5305 1.356 . S
N5303 H5308 0.984 . S
N5303 H5309 0.985 . S
C5304 C5298 1.379 . S
C5304 C5301 1.363 . S
C5304 N5302 1.356 . S
C5305 C5299 1.363 . S
C5305 C5300 1.379 . S
C5305 N5303 1.356 . S
N5306 C5298 1.356 . S
N5306 H5312 0.984 . S
N5306 H5313 0.984 . S
N5307 C5300 1.356 . S
N5307 H5310 0.984 . S
N5307 H5311 0.985 . S
H5308 N5303 0.984 . S
H5309 N5303 0.985 . S
H5310 N5307 0.984 . S
H5311 N5307 0.985 . S
H5312 N5306 0.984 . S
H5313 N5306 0.984 . S
H5314 N5302 0.984 . S
H5315 N5302 0.985 . S
C5316 C5317 1.363 . S
C5316 C5322 1.379 . S
C5316 N5324 1.356 . S
C5317 C5316 1.363 . S
C5317 C5323 1.363 . S
C5318 C5319 1.363 . S
C5318 C5323 1.379 . S
C5318 N5325 1.356 . S
C5319 C5318 1.363 . S
C5319 C5322 1.363 . S
N5320 C5322 1.356 . S
N5320 H5332 0.984 . S
N5320 H5333 0.985 . S
N5321 C5323 1.356 . S
N5321 H5326 0.984 . S
N5321 H5327 0.985 . S
C5322 C5316 1.379 . S
C5322 C5319 1.363 . S
C5322 N5320 1.356 . S
C5323 C5317 1.363 . S
C5323 C5318 1.379 . S
C5323 N5321 1.356 . S
N5324 C5316 1.356 . S
N5324 H5330 0.984 . S
N5324 H5331 0.984 . S
N5325 C5318 1.356 . S
N5325 H5328 0.984 . S
N5325 H5329 0.985 . S
H5326 N5321 0.984 . S
H5327 N5321 0.985 . S
H5328 N5325 0.984 . S
H5329 N5325 0.985 . S
H5330 N5324 0.984 . S
H5331 N5324 0.984 . S
H5332 N5320 0.984 . S
H5333 N5320 0.985 . S
C5334 C5335 1.363 . S
C5334 C5340 1.379 . S
C5334 N5342 1.356 . S
C5335 C5334 1.363 . S
C5335 C5341 1.363 . S
C5336 C5337 1.363 . S
C5336 C5341 1.379 . S
C5336 N5343 1.356 . S
C5337 C5336 1.363 . S
C5337 C5340 1.363 . S
N5338 C5340 1.356 . S
N5338 H5350 0.984 . S
N5338 H5351 0.985 . S
N5339 C5341 1.356 . S
N5339 H5344 0.984 . S
N5339 H5345 0.985 . S
C5340 C5334 1.379 . S
C5340 C5337 1.363 . S
C5340 N5338 1.356 . S
C5341 C5335 1.363 . S
C5341 C5336 1.379 . S
C5341 N5339 1.356 . S
N5342 C5334 1.356 . S
N5342 H5348 0.984 . S
N5342 H5349 0.984 . S
N5343 C5336 1.356 . S
N5343 H5346 0.984 . S
N5343 H5347 0.985 . S
H5344 N5339 0.984 . S
H5345 N5339 0.985 . S
H5346 N5343 0.984 . S
H5347 N5343 0.985 . S
H5348 N5342 0.984 . S
H5349 N5342 0.984 . S
H5350 N5338 0.984 . S
H5351 N5338 0.985 . S
C5352 C5353 1.363 . S
C5352 C5358 1.379 . S
C5352 N5360 1.356 . S
C5353 C5352 1.363 . S
C5353 C5359 1.363 . S
C5354 C5355 1.363 . S
C5354 C5359 1.379 . S
C5354 N5361 1.356 . S
C5355 C5354 1.363 . S
C5355 C5358 1.363 . S
N5356 C5358 1.356 . S
N5356 H5368 0.984 . S
N5356 H5369 0.985 . S
N5357 C5359 1.356 . S
N5357 H5362 0.984 . S
N5357 H5363 0.985 . S
C5358 C5352 1.379 . S
C5358 C5355 1.363 . S
C5358 N5356 1.356 . S
C5359 C5353 1.363 . S
C5359 C5354 1.379 . S
C5359 N5357 1.356 . S
N5360 C5352 1.356 . S
N5360 H5366 0.984 . S
N5360 H5367 0.984 . S
N5361 C5354 1.356 . S
N5361 H5364 0.984 . S
N5361 H5365 0.985 . S
H5362 N5357 0.984 . S
H5363 N5357 0.985 . S
H5364 N5361 0.984 . S
H5365 N5361 0.985 . S
H5366 N5360 0.984 . S
H5367 N5360 0.984 . S
H5368 N5356 0.984 . S
H5369 N5356 0.985 . S
C5370 C5371 1.363 . S
C5370 C5376 1.379 . S
C5370 N5378 1.356 . S
C5371 C5370 1.363 . S
C5371 C5377 1.363 . S
C5372 C5373 1.363 . S
C5372 C5377 1.379 . S
C5372 N5379 1.356 . S
C5373 C5372 1.363 . S
C5373 C5376 1.363 . S
N5374 C5376 1.356 . S
N5374 H5386 0.984 . S
N5374 H5387 0.985 . S
N5375 C5377 1.356 . S
N5375 H5380 0.984 . S
N5375 H5381 0.985 . S
C5376 C5370 1.379 . S
C5376 C5373 1.363 . S
C5376 N5374 1.356 . S
C5377 C5371 1.363 . S
C5377 C5372 1.379 . S
C5377 N5375 1.356 . S
N5378 C5370 1.356 . S
N5378 H5384 0.984 . S
N5378 H5385 0.984 . S
N5379 C5372 1.356 . S
N5379 H5382 0.984 . S
N5379 H5383 0.985 . S
H5380 N5375 0.984 . S
H5381 N5375 0.985 . S
H5382 N5379 0.984 . S
H5383 N5379 0.985 . S
H5384 N5378 0.984 . S
H5385 N5378 0.984 . S
H5386 N5374 0.984 . S
H5387 N5374 0.985 . S
C5388 C5389 1.398 . S
C5388 C5394 1.379 . S
C5388 N5396 1.356 . S
C5389 C5388 1.398 . S
C5389 C5395 1.343 1_545 S
C5390 C5391 1.363 1_565 S
C5390 C5395 1.379 . S
C5390 N5397 1.356 . S
C5391 C5390 1.363 1_545 S
C5391 C5394 1.363 . S
N5392 C5394 1.356 . S
N5392 H5404 0.984 . S
N5392 H5405 0.985 . S
N5393 C5395 1.356 . S
N5393 H5398 0.984 . S
N5393 H5399 0.985 . S
C5394 C5388 1.379 . S
C5394 C5391 1.363 . S
C5394 N5392 1.356 . S
C5395 C5389 1.343 1_565 S
C5395 C5390 1.379 . S
C5395 N5393 1.356 . S
N5396 C5388 1.356 . S
N5396 H5402 0.984 . S
N5396 H5403 0.984 . S
N5397 C5390 1.356 . S
N5397 H5400 0.984 . S
N5397 H5401 0.985 . S
H5398 N5393 0.984 . S
H5399 N5393 0.985 . S
H5400 N5397 0.984 . S
H5401 N5397 0.985 . S
H5402 N5396 0.984 . S
H5403 N5396 0.984 . S
H5404 N5392 0.984 . S
H5405 N5392 0.985 . S
C5406 C5407 1.363 . S
C5406 C5412 1.379 . S
C5406 N5414 1.356 . S
C5407 C5406 1.363 . S
C5407 C5413 1.363 1_565 S
C5408 C5409 1.363 1_545 S
C5408 C5413 1.379 . S
C5408 N5415 1.356 . S
C5409 C5408 1.363 1_565 S
C5409 C5412 1.363 . S
N5410 C5412 1.356 . S
N5410 H5422 0.984 . S
N5410 H5423 0.985 . S
N5411 C5413 1.356 . S
N5411 H5416 0.984 . S
N5411 H5417 0.985 . S
C5412 C5406 1.379 . S
C5412 C5409 1.363 . S
C5412 N5410 1.356 . S
C5413 C5407 1.363 1_545 S
C5413 C5408 1.379 . S
C5413 N5411 1.356 . S
N5414 C5406 1.356 . S
N5414 H5420 0.984 . S
N5414 H5421 0.984 . S
N5415 C5408 1.356 . S
N5415 H5418 0.984 . S
N5415 H5419 0.985 . S
H5416 N5411 0.984 . S
H5417 N5411 0.985 . S
H5418 N5415 0.984 . S
H5419 N5415 0.985 . S
H5420 N5414 0.984 . S
H5421 N5414 0.984 . S
H5422 N5410 0.984 . S
H5423 N5410 0.985 . S
C2833 C1781 1.723 . S
C2835 C1922 1.801 . S
C2851 C981 1.595 . S
C2853 C1941 1.646 . S
C2871 C1960 1.458 . S
C2869 C1861 1.497 . S
C2887 C1061 1.729 . S
C2889 C1979 1.737 . S
C2905 C1901 1.834 . S
C2907 C1998 1.745 . S
C2923 C941 1.623 . S
C2925 C2017 1.657 . S
C2941 C1821 1.805 . S
C2943 C2036 1.727 . S
C2959 C1021 1.407 . S
C2961 C2055 1.350 . S
C2977 C661 1.596 . S
C2979 C2074 1.640 . S
C2995 C1621 1.256 . S
C2997 C2093 1.335 . S
C3013 C741 1.799 . S
C3015 C2112 1.886 . S
C3031 C1581 1.728 . S
C3033 C2131 1.758 . S
C3049 C901 1.572 . S
C3051 C2150 1.567 . S
C3069 C2169 1.855 . S
C3067 C1661 1.818 . S
C3087 C2188 1.771 . S
C3085 C821 1.857 . S
C3103 C1141 1.608 . S
C3105 C2207 1.704 . S
C3123 C2226 1.771 . S
C3121 C781 1.749 . S
C3141 C2245 1.564 . S
C3139 C1701 1.668 . S
C3157 C861 1.775 . S
C3159 C2264 1.912 . S
C3175 C1181 1.832 . S
C3177 C2283 1.921 . S
C3195 C2302 1.452 . S
C3193 C1101 1.452 . S
C3211 C1421 1.721 . S
C3213 C2321 1.628 . S
C3231 C2340 1.892 . S
C3229 C381 1.951 . S
C3249 C2359 1.687 . S
C3247 C1501 1.758 . S
C3267 C2378 1.567 . S
C3265 C461 1.543 . S
C3285 C2397 1.612 . S
C3283 C1541 1.598 . S
C3301 C341 1.599 . S
C3303 C2416 1.481 . S
C3321 C2435 1.707 . S
C3319 C1461 1.714 . S
C3337 C421 1.659 . S
C3339 C2454 1.594 . S
C3357 C2473 1.790 . S
C3355 C61 1.815 . S
C3375 C2492 1.746 . S
C3373 C1261 1.617 . S
C3391 C141 1.842 . S
C3393 C2511 1.809 . S
C3411 C2530 1.760 . S
C3409 C1221 1.708 . S
C3429 C2549 1.388 . S
C3427 C301 1.454 . S
C3445 C1301 1.711 . S
C3447 C2568 1.640 . S
C3465 C2587 1.332 . S
C3463 C221 1.345 . S
C3483 C2606 1.963 . S
C3481 C541 1.890 . S
C3499 C181 1.650 . S
C3501 C2625 1.588 . S
C3519 C2644 1.268 . S
C3517 C1341 1.285 . S
C3535 C261 1.877 . S
C3537 C2663 1.949 . S
C3555 C2682 1.699 . S
C3553 C581 1.764 . S
C3571 C501 1.762 . S
C3573 C2701 1.725 . S
C3589 C701 1.277 . S
C3591 C2720 1.317 . S
C3609 C2739 1.526 . S
C3607 C621 1.518 . S
C3625 C1741 1.579 . S
C3627 C2758 1.575 . S
C3643 C101 1.565 . S
C3645 C2777 1.698 . S
C3663 C2796 1.417 . S
C3661 C21 1.391 . S
C3681 C2815 1.346 . S
C3679 C1381 1.422 . S
C3697 C1335 1.833 . S
C3699 C1926 1.869 . S
C3715 C535 1.857 . S
C3717 C1950 2.021 . S
C3733 C1362 1.844 . S
C3735 C1964 1.765 . S
C3753 C1983 1.663 . S
C3751 C1295 1.625 . S
C3769 C575 1.752 . S
C3771 C2007 1.530 . S
C3787 C1215 1.841 . S
C3789 C2026 1.867 . S
C3807 C2040 1.992 . S
C3805 C495 1.949 . S
C3823 C1242 1.499 . S
C3825 C2064 1.483 . S
C3841 C1255 1.676 . S
C3843 C2078 1.613 . S
C3861 C2102 1.862 . S
C3859 C562 1.819 . S
C3877 C1202 2.223 . S
C3879 C2116 2.165 . S
C3897 C2140 1.763 . S
C3895 C482 1.770 . S
C3913 C522 1.583 . S
C3915 C2159 1.481 . S
C3931 C1375 1.873 . S
C3933 C2173 1.921 . S
C3951 C2197 1.717 . S
C3949 C1282 1.715 . S
C3969 C2211 1.906 . S
C3967 C1322 1.914 . S
C3985 C455 1.819 . S
C3987 C2135 1.786 . S
C4003 C1415 1.614 . S
C4005 C2235 1.391 . S
C4021 C1455 1.589 . S
C4023 C2249 1.550 . S
C4041 C2273 2.164 . S
C4039 C1482 2.125 . S
C4059 C2154 1.656 . S
C4057 C442 1.565 . S
C4075 C362 1.911 . S
C4077 C2097 1.811 . S
C4093 C1495 1.868 . S
C4095 C2292 1.679 . S
C4113 C2311 1.813 . S
C4111 C1402 1.909 . S
C4131 C2325 1.780 . S
C4129 C1695 1.804 . S
C4147 C1135 1.956 . S
C4149 C2344 2.040 . S
C4167 C2368 1.477 . S
C4165 C1722 1.567 . S
C4185 C2382 1.866 . S
C4183 C1655 1.819 . S
C4201 C1175 1.815 . S
C4203 C2406 1.857 . S
C4219 C1562 1.940 . S
C4221 C2425 1.794 . S
C4237 C1095 1.526 . S
C4239 C2439 1.562 . S
C4257 C2458 1.808 . S
C4255 C1615 1.739 . S
C4275 C2477 2.016 . S
C4273 C1602 1.950 . S
C4291 C1162 1.588 . S
C4293 C2501 1.638 . S
C4311 C2515 2.137 . S
C4309 C1575 2.137 . S
C4327 C1082 1.513 . S
C4329 C2539 1.571 . S
C4347 C2558 1.781 . S
C4345 C1122 1.777 . S
C4363 C1735 1.711 . S
C4365 C2572 1.673 . S
C4383 C2596 1.700 . S
C4381 C1642 1.646 . S
C4399 C1682 1.788 . S
C4401 C2615 1.644 . S
C4417 C1042 1.786 . S
C4419 C2534 1.830 . S
C4435 C1775 1.808 . S
C4437 C2634 1.768 . S
C4453 C1815 1.906 . S
C4455 C2648 1.859 . S
C4473 C2667 1.655 . S
C4471 C1842 1.649 . S
C4489 C1055 1.740 . S
C4491 C2553 1.766 . S
C4507 C975 1.965 . S
C4509 C2496 2.068 . S
C4527 C2691 2.028 . S
C4525 C1855 1.999 . S
C4543 C1762 1.873 . S
C4545 C2710 2.084 . S
C4563 C2021 1.802 . S
C4561 C215 1.786 . S
C4581 C2045 2.011 . S
C4579 C255 1.854 . S
C4599 C2059 1.636 . S
C4597 C282 1.750 . S
C4617 C2002 1.496 . S
C4615 C175 1.496 . S
C4635 C1988 1.623 . S
C4633 C135 1.849 . S
C4651 C15 1.831 . S
C4653 C1931 1.881 . S
C4669 C55 2.002 . S
C4671 C1945 2.044 . S
C4687 C82 1.566 . S
C4689 C1969 1.562 . S
C4705 C95 1.793 . S
C4707 C2306 1.757 . S
C4723 C122 1.830 . S
C4725 C2729 1.894 . S
C4741 C2 2.165 . S
C4743 C2287 2.112 . S
C4759 C42 1.739 . S
C4761 C2748 1.739 . S
C4777 C242 1.577 . S
C4779 C2767 1.479 . S
C4797 C2230 1.820 . S
C4795 C295 1.798 . S
C4813 C162 1.588 . S
C4815 C2254 1.556 . S
C4831 C202 1.775 . S
C4833 C2268 1.791 . S
C4851 C2743 1.650 . S
C4849 C1535 1.706 . S
C4867 C335 1.589 . S
C4869 C2178 1.421 . S
C4885 C375 1.893 . S
C4887 C2192 1.959 . S
C4903 C402 2.040 . S
C4905 C2216 2.056 . S
C4923 C2762 1.661 . S
C4921 C1522 1.571 . S
C4941 C2724 1.615 . S
C4939 C1442 1.543 . S
C4959 C2121 1.570 . S
C4957 C415 1.785 . S
C4975 C322 1.953 . S
C4977 C2083 1.834 . S
C4993 C815 2.003 . S
C4995 C2420 1.929 . S
C5011 C855 1.838 . S
C5013 C2444 1.786 . S
C5029 C882 1.536 . S
C5031 C2463 1.430 . S
C5047 C775 1.771 . S
C5049 C2401 1.809 . S
C5067 C2387 1.831 . S
C5065 C735 1.778 . S
C5085 C2330 1.640 . S
C5083 C602 1.757 . S
C5103 C2349 1.546 . S
C5101 C655 1.550 . S
C5119 C695 1.729 . S
C5121 C2363 1.765 . S
C5139 C2705 1.839 . S
C5137 C682 1.794 . S
C5155 C722 1.510 . S
C5157 C2786 1.586 . S
C5173 C615 1.991 . S
C5175 C2686 1.942 . S
C5193 C2805 1.731 . S
C5191 C642 1.598 . S
C5209 C842 1.877 . S
C5211 C2824 1.895 . S
C5229 C2629 1.573 . S
C5227 C895 1.626 . S
C5245 C762 1.610 1_455 S
C5247 C2653 1.664 . S
C5263 C802 1.827 . S
C5265 C2672 1.701 . S
C5281 C1895 1.743 . S
C5283 C2800 1.694 . S
C5301 C2577 1.646 . S
C5299 C935 1.697 . S
C5317 C962 1.767 . S
C5319 C2591 1.826 . S
C5335 C1002 1.756 . S
C5337 C2610 1.769 . S
C5353 C1882 1.771 . S
C5355 C2819 1.752 . S
C5371 C1802 1.946 . S
C5373 C2781 1.977 . S
C5391 C2520 2.188 . S
C5389 C1015 2.117 . S
C5409 C2482 1.953 1_565 S
C5407 C922 1.770 . S
