# Generated by pormake.
# Topology zzz, (3,6)-cn, num edge types: 1
# Building blocks:
#     Node 0, Type 0, BuildingBlock: QEWDON_clean_linker_0, # of connection points: 3
#     Node 1, Type 0, BuildingBlock: QEWDON_clean_linker_0, # of connection points: 3
#     Node 2, Type 0, BuildingBlock: QEWDON_clean_linker_0, # of connection points: 3
#     Node 3, Type 0, BuildingBlock: QEWDON_clean_linker_0, # of connection points: 3
#     Node 4, Type 0, BuildingBlock: QEWDON_clean_linker_0, # of connection points: 3
#     Node 5, Type 0, BuildingBlock: QEWDON_clean_linker_0, # of connection points: 3
#     Node 6, Type 0, BuildingBlock: QEWDON_clean_linker_0, # of connection points: 3
#     Node 7, Type 0, BuildingBlock: QEWDON_clean_linker_0, # of connection points: 3
#     Node 8, Type 1, BuildingBlock: BETDIP_clean_sbu_0, # of connection points: 6
#     Node 9, Type 1, BuildingBlock: BETDIP_clean_sbu_0, # of connection points: 6
#     Node 10, Type 1, BuildingBlock: BETDIP_clean_sbu_0, # of connection points: 6
#     Node 11, Type 1, BuildingBlock: BETDIP_clean_sbu_0, # of connection points: 6
#     Edge 12, Type (0, 1), BuildingBlock: XUDNAN_clean_linker_2, # of connection points: 2
#     Edge 13, Type (0, 1), BuildingBlock: XUDNAN_clean_linker_2, # of connection points: 2
#     Edge 14, Type (0, 1), BuildingBlock: XUDNAN_clean_linker_2, # of connection points: 2
#     Edge 15, Type (0, 1), BuildingBlock: XUDNAN_clean_linker_2, # of connection points: 2
#     Edge 16, Type (0, 1), BuildingBlock: XUDNAN_clean_linker_2, # of connection points: 2
#     Edge 17, Type (0, 1), BuildingBlock: XUDNAN_clean_linker_2, # of connection points: 2
#     Edge 18, Type (0, 1), BuildingBlock: XUDNAN_clean_linker_2, # of connection points: 2
#     Edge 19, Type (0, 1), BuildingBlock: XUDNAN_clean_linker_2, # of connection points: 2
#     Edge 20, Type (0, 1), BuildingBlock: XUDNAN_clean_linker_2, # of connection points: 2
#     Edge 21, Type (0, 1), BuildingBlock: XUDNAN_clean_linker_2, # of connection points: 2
#     Edge 22, Type (0, 1), BuildingBlock: XUDNAN_clean_linker_2, # of connection points: 2
#     Edge 23, Type (0, 1), BuildingBlock: XUDNAN_clean_linker_2, # of connection points: 2
#     Edge 24, Type (0, 1), BuildingBlock: XUDNAN_clean_linker_2, # of connection points: 2
#     Edge 25, Type (0, 1), BuildingBlock: XUDNAN_clean_linker_2, # of connection points: 2
#     Edge 26, Type (0, 1), BuildingBlock: XUDNAN_clean_linker_2, # of connection points: 2
#     Edge 27, Type (0, 1), BuildingBlock: XUDNAN_clean_linker_2, # of connection points: 2
#     Edge 28, Type (0, 1), BuildingBlock: XUDNAN_clean_linker_2, # of connection points: 2
#     Edge 29, Type (0, 1), BuildingBlock: XUDNAN_clean_linker_2, # of connection points: 2
#     Edge 30, Type (0, 1), BuildingBlock: XUDNAN_clean_linker_2, # of connection points: 2
#     Edge 31, Type (0, 1), BuildingBlock: XUDNAN_clean_linker_2, # of connection points: 2
#     Edge 32, Type (0, 1), BuildingBlock: XUDNAN_clean_linker_2, # of connection points: 2
#     Edge 33, Type (0, 1), BuildingBlock: XUDNAN_clean_linker_2, # of connection points: 2
#     Edge 34, Type (0, 1), BuildingBlock: XUDNAN_clean_linker_2, # of connection points: 2
#     Edge 35, Type (0, 1), BuildingBlock: XUDNAN_clean_linker_2, # of connection points: 2
# Relax obj value: 0.168
# Max RMSD: 0.151
# Mean RMSD: 0.109
data_MOF--net-zzz--node1-BETDIP_clean_sbu_0--node2-QEWDON_clean_linker_0--edge1-XUDNAN_clean_linker_2
_symmetry_space_group_name_H-M    P1
_symmetry_Int_Tables_number       1
_symmetry_cell_setting            triclinic
loop_
_symmetry_equiv_pos_as_xyz
'x, y, z'
_cell_length_a     55.011278
_cell_length_b     55.213644
_cell_length_c     12.993716
_cell_angle_alpha  90.029571
_cell_angle_beta   89.836502
_cell_angle_gamma 89.942736
loop_
_atom_site_label
_atom_site_type_symbol
_atom_site_fract_x
_atom_site_fract_y
_atom_site_fract_z
_atom_type_partial_charge
H0 H 0.76116 0.52274 0.27257 0.0
C1 C 0.77239 0.52596 0.33867 0.0
C2 C 0.79706 0.52213 0.32421 0.0
C3 C 0.76292 0.5328 0.43552 0.0
H4 H 0.83279 0.52366 0.38851 0.0
C5 C 0.81353 0.5266 0.40285 0.0
C6 C 0.80578 0.53283 0.50104 0.0
C7 C 0.78025 0.53556 0.51861 0.0
C8 C 0.73536 0.53643 0.44677 0.0
H9 H 0.77442 0.53964 0.59604 0.0
C10 C 0.71847 0.53162 0.36468 0.0
C11 C 0.69307 0.53583 0.37446 0.0
C12 C 0.72541 0.54536 0.53934 0.0
H13 H 0.73667 0.54974 0.60453 0.0
C14 C 0.70042 0.54916 0.55024 0.0
H15 H 0.72443 0.52489 0.29134 0.0
C16 C 0.68446 0.54453 0.46927 0.0
H17 H 0.66523 0.54749 0.48187 0.0
H18 H 0.69331 0.55589 0.62259 0.0
H19 H 1.00333 0.75715 0.28625 0.0
C20 C 1.00767 0.76964 0.34769 0.0
C21 C 1.00358 0.79415 0.32978 0.0
C22 C 1.01897 0.76161 0.43847 0.0
H23 H 1.00409 0.82994 0.39476 0.0
C24 C 1.0071 0.81082 0.40949 0.0
C25 C 1.0195 0.80444 0.49899 0.0
C26 C 1.0256 0.77951 0.51386 0.0
C27 C 1.02369 0.73465 0.44955 0.0
H28 H 0.03607 0.77434 0.58075 0.0
C29 C 1.02706 0.71926 0.36192 0.0
C30 C 1.0264 0.69346 0.36913 0.0
C31 C 1.02209 0.72364 0.54645 0.0
H32 H 1.0194 0.73444 0.61513 0.0
C33 C 1.02269 0.69843 0.55568 0.0
H34 H 0.03015 0.72751 0.28777 0.0
C35 C 1.0243 0.68354 0.46865 0.0
H36 H 1.02323 0.6642 0.48049 0.0
H37 H 1.02098 0.69027 0.6311 0.0
H38 H 0.80012 0.0346 0.28661 0.0
C39 C 0.78705 0.03032 0.34606 0.0
C40 C 0.76273 0.03352 0.32264 0.0
C41 C 0.79422 1.02159 0.44291 0.0
H42 H 0.72585 0.03293 0.37618 0.0
C43 C 0.7447 0.0297 0.39671 0.0
C44 C 0.75032 1.02177 0.49559 0.0
C45 C 0.77538 1.01763 0.51917 0.0
C46 C 0.82125 1.0173 0.46092 0.0
H47 H 0.77985 1.01093 0.59492 0.0
C48 C 0.83847 1.01448 0.37788 0.0
C49 C 0.86376 1.01188 0.39636 0.0
C50 C 0.83043 1.01692 0.56179 0.0
H51 H 0.81864 1.01949 0.62757 0.0
C52 C 0.85523 1.01382 0.58016 0.0
H53 H 0.83257 1.01359 0.29876 0.0
C54 C 0.87168 1.01137 0.49884 0.0
H55 H 0.89081 1.00922 0.51622 0.0
H56 H 0.86183 1.01356 0.65855 0.0
H57 H 0.54054 0.79269 0.27981 0.0
C58 C 0.53579 0.78082 0.34291 0.0
C59 C 0.54015 0.75617 0.33046 0.0
C60 C 0.52617 0.78995 0.43598 0.0
H61 H 0.53867 0.72076 0.39763 0.0
C62 C 0.53554 0.73998 0.41036 0.0
C63 C 0.52585 0.74761 0.5038 0.0
C64 C 0.52075 0.77281 0.51671 0.0
C65 C 0.52365 0.81728 0.44785 0.0
H66 H 0.51274 0.77884 0.5884 0.0
C67 C 0.52123 0.83317 0.3612 0.0
C68 C 0.52311 0.85892 0.37052 0.0
C69 C 0.52612 0.82797 0.54529 0.0
H70 H 0.5284 0.81699 0.61349 0.0
C71 C 0.52688 0.85312 0.55621 0.0
H72 H 0.51786 0.82547 0.28624 0.0
C73 C 0.52581 0.86837 0.47045 0.0
H74 H 0.52785 0.8876 0.48334 0.0
H75 H 0.52917 0.86091 0.63204 0.0
H76 H 0.29868 0.53198 0.2252 0.0
C77 C 0.28527 0.52798 0.1667 0.0
C78 C 0.26099 0.52657 0.19617 0.0
C79 C 0.29196 0.52657 0.06249 0.0
H80 H 0.22406 0.52442 0.14704 0.0
C81 C 0.24286 0.52354 0.12203 0.0
C82 C 0.24818 0.52203 0.01679 0.0
C83 C 0.27309 0.52362 0.98708 0.0
C84 C 0.31803 0.53214 0.03495 0.0
H85 H 0.27767 0.52287 0.9061 0.0
C86 C 0.33799 0.52642 0.10169 0.0
C87 C 0.3618 0.53567 0.08304 0.0
C88 C 0.32268 0.5463 0.94752 0.0
H89 H 0.30819 0.55157 0.896 0.0
C90 C 0.34576 0.55548 0.92875 0.0
H91 H 0.3349 0.51497 0.16795 0.0
C92 C 0.3648 0.55081 0.99625 0.0
H93 H 0.38183 0.55978 0.98016 0.0
H94 H 0.34877 0.56707 0.86274 0.0
H95 H 1.01878 0.2962 0.20509 0.0
C96 C 1.0235 0.28298 0.14669 0.0
C97 C 1.02075 0.2586 0.1698 0.0
C98 C 0.0307 0.29023 0.04771 0.0
H99 H 1.02349 0.2218 0.1168 0.0
C100 C 1.0254 0.24076 0.09588 0.0
C101 C 0.03304 0.24666 0.99699 0.0
C102 C 0.03593 0.27169 0.97243 0.0
C103 C 0.02913 0.31691 0.0225 0.0
H104 H 0.04198 0.27661 0.89593 0.0
C105 C 0.03309 0.33573 0.09743 0.0
C106 C 1.02694 0.36038 0.07633 0.0
C107 C 1.01996 0.32348 0.92595 0.0
H108 H 1.01623 0.30997 0.86771 0.0
C109 C 1.01353 0.34729 0.90526 0.0
H110 H 0.04077 0.33118 0.17151 0.0
C111 C 1.01629 0.36523 0.97956 0.0
H112 H 1.0095 0.38301 0.96008 0.0
H113 H 1.00556 0.3518 0.83163 0.0
H114 H 0.25596 1.00238 0.17879 0.0
C115 C 0.26896 1.00867 0.12237 0.0
C116 C 0.29276 1.00034 0.13064 0.0
C117 C 0.2623 1.02484 0.04342 0.0
H118 H 0.32887 1.00073 0.06884 0.0
C119 C 0.31029 1.00697 0.05835 0.0
C120 C 0.30517 1.02358 0.98079 0.0
C121 C 0.28109 0.03294 0.97423 0.0
C122 C 0.23577 0.03209 0.0326 0.0
H123 H 0.27727 0.04643 0.91616 0.0
C124 C 0.21856 0.03031 0.11562 0.0
C125 C 0.1933 0.03377 0.09898 0.0
C126 C 0.22684 0.03871 0.93516 0.0
H127 H 0.23869 0.03976 0.86883 0.0
C128 C 0.20212 0.04303 0.91976 0.0
H129 H 0.22435 0.02562 0.19246 0.0
C130 C 0.18552 0.04032 1.00014 0.0
H131 H 0.16637 0.04306 0.98467 0.0
H132 H 0.19568 0.04786 0.84384 0.0
H133 H 0.53293 0.25613 0.22712 0.0
C134 C 0.53167 0.26938 0.16607 0.0
C135 C 0.52874 0.29339 0.19395 0.0
C136 C 0.53418 0.26285 0.06197 0.0
H137 H 0.52785 0.33027 0.14631 0.0
C138 C 0.52881 0.31165 0.11988 0.0
C139 C 0.53041 0.30662 0.01476 0.0
C140 C 0.53337 0.28184 0.98557 0.0
C141 C 0.53969 0.23659 0.03765 0.0
H142 H 0.53479 0.27749 0.90462 0.0
C143 C 0.53308 0.21716 0.10572 0.0
C144 C 0.54169 0.19314 0.09004 0.0
C145 C 0.55396 0.23098 0.95113 0.0
H146 H 0.55988 0.24491 0.89825 0.0
C147 C 0.56211 0.20745 0.93409 0.0
H148 H 0.52121 0.22054 0.17061 0.0
C149 C 0.55654 0.18895 1.00316 0.0
H150 H 0.56446 0.17134 0.98854 0.0
H151 H 0.57352 0.20362 0.86804 0.0
Tb152 Tb 0.04943 1.02169 0.83939 0.0
Tb153 Tb 1.01289 0.02827 0.66478 0.0
C154 C 0.06968 1.00772 1.00047 0.0
C155 C 0.0721 0.98284 0.0391 0.0
C156 C 0.05865 0.97568 0.12568 0.0
C157 C 0.05484 0.95116 0.14525 0.0
C158 C 0.06434 0.93352 0.07805 0.0
C159 C 0.07982 0.94071 0.99776 0.0
C160 C 0.08378 0.96515 0.97873 0.0
C161 C 0.06878 0.03141 0.65653 0.0
C162 C 0.02883 0.97444 0.71985 0.0
C163 C 0.99785 0.03587 0.4859 0.0
C164 C 0.99624 0.05889 0.42965 0.0
C165 C 1.01716 0.06846 0.38237 0.0
C166 C 1.01866 0.09312 0.36229 0.0
C167 C 0.99918 0.10834 0.388 0.0
C168 C 0.9771 0.0983 0.42115 0.0
C169 C 0.9756 0.07362 0.44146 0.0
C170 C 0.98868 1.02419 0.84298 0.0
C171 C 0.03364 0.07508 0.78628 0.0
O172 O 0.04732 1.01597 0.99847 0.0
O173 O 0.08161 1.01265 0.91567 0.0
O174 O 0.05049 1.01824 0.67605 0.0
O175 O 0.07725 0.03931 0.74352 0.0
O176 O 0.04306 0.98345 0.79326 0.0
O177 O 1.01533 0.98858 0.66035 0.0
O178 O 1.01995 0.02869 0.50684 0.0
O179 O 0.98339 0.03367 0.56555 0.0
O180 O 1.01136 1.0238 0.82665 0.0
O181 O 0.97855 0.02713 0.75404 0.0
O182 O 1.02323 0.06656 0.70077 0.0
O183 O 0.0426 0.06034 0.85721 0.0
H184 H 0.04961 0.98902 0.17363 0.0
H185 H 0.04338 0.94609 0.20965 0.0
H186 H 0.08739 0.92762 0.94448 0.0
H187 H 0.0944 0.97004 0.9116 0.0
H188 H 0.03317 0.05739 0.36961 0.0
H189 H 0.03559 0.1005 0.33333 0.0
H190 H 0.96171 0.10974 0.44008 0.0
H191 H 0.95905 0.06658 0.47549 0.0
Tb192 Tb 0.53081 0.04882 0.83288 0.0
Tb193 Tb 0.52401 1.01617 0.65899 0.0
C194 C 0.54449 0.06931 0.99404 0.0
C195 C 0.56821 0.06648 0.04188 0.0
C196 C 0.57957 0.04386 0.03482 0.0
C197 C 0.60461 0.04221 0.03798 0.0
C198 C 0.61894 0.06302 0.05343 0.0
C199 C 0.60719 0.08526 0.07287 0.0
C200 C 0.58199 0.08705 0.06504 0.0
C201 C 0.52496 0.0711 0.65304 0.0
C202 C 0.57838 0.02609 0.72296 0.0
C203 C 0.51061 1.00515 0.48184 0.0
C204 C 0.48819 0.99339 0.4479 0.0
C205 C 0.47399 1.00527 0.37413 0.0
C206 C 0.44961 0.99918 0.36226 0.0
C207 C 0.4392 0.98094 0.42324 0.0
C208 C 0.45382 0.96778 0.49144 0.0
C209 C 0.47817 0.97411 0.5045 0.0
C210 C 0.52369 0.98686 0.82055 0.0
C211 C 0.47721 0.03556 0.7861 0.0
O212 O 0.53061 0.05005 0.99427 0.0
O213 O 0.54571 0.0794 0.90337 0.0
O214 O 0.5371 0.05217 0.67121 0.0
O215 O 0.51544 0.07836 0.73886 0.0
O216 O 0.56878 0.03738 0.80377 0.0
O217 O 0.56413 1.017 0.65023 0.0
O218 O 0.50656 0.0263 0.52412 0.0
O219 O 0.52622 0.99203 0.53409 0.0
O220 O 0.52634 1.00992 0.82525 0.0
O221 O 0.52122 0.9807 0.72528 0.0
O222 O 0.48572 1.0239 0.70432 0.0
O223 O 0.49196 0.04587 0.8521 0.0
H224 H 0.5694 0.0277 0.0152 0.0
H225 H 0.61238 1.02476 0.0197 0.0
H226 H 0.61735 0.10155 0.08942 0.0
H227 H 0.57355 0.10475 0.06891 0.0
H228 H 0.48129 1.02043 0.33107 0.0
H229 H 0.43864 1.00933 0.30813 0.0
H230 H 0.44605 0.95362 0.53893 0.0
H231 H 0.48863 0.96498 0.56335 0.0
Tb232 Tb 0.50784 0.52755 0.81486 0.0
Tb233 Tb 0.54384 0.52621 0.65393 0.0
C234 C 0.48728 0.54025 0.9774 0.0
C235 C 0.4958 0.56116 0.03695 0.0
C236 C 0.52094 0.56504 0.04256 0.0
C237 C 0.53007 0.58768 0.06637 0.0
C238 C 0.51443 0.60703 0.08917 0.0
C239 C 0.48914 0.60269 0.09171 0.0
C240 C 0.47988 0.57994 0.06434 0.0
C241 C 0.48781 0.51946 0.63177 0.0
C242 C 0.52697 0.57767 0.71519 0.0
C243 C 0.56431 0.51389 0.49031 0.0
C244 C 0.55653 0.49237 0.43337 0.0
C245 C 0.53237 0.48493 0.44602 0.0
C246 C 0.52545 0.46149 0.4237 0.0
C247 C 0.54243 0.44479 0.3853 0.0
C248 C 0.56623 0.4529 0.3629 0.0
C249 C 0.57334 0.47651 0.38843 0.0
C250 C 0.56392 0.53481 0.83773 0.0
C251 C 0.52469 0.47602 0.75725 0.0
O252 O 0.50239 0.52196 0.97307 0.0
O253 O 0.47883 0.54582 0.88662 0.0
O254 O 0.50554 0.53328 0.6517 0.0
O255 O 0.47996 0.51057 0.71802 0.0
O256 O 0.51699 0.56643 0.79488 0.0
O257 O 0.53797 0.5652 0.64211 0.0
O258 O 0.54817 0.53124 0.49475 0.0
O259 O 0.5734 0.50911 0.58086 0.0
O260 O 0.54652 0.52051 0.81718 0.0
O261 O 0.57088 0.54407 0.75079 0.0
O262 O 0.53485 0.48712 0.67727 0.0
O263 O 0.51355 0.48878 0.82888 0.0
H264 H 0.5337 0.55112 0.01969 0.0
H265 H 0.54947 0.59025 0.06009 0.0
H266 H 0.47645 0.61697 0.11102 0.0
H267 H 0.4604 0.57745 0.05874 0.0
H268 H 0.51923 0.49641 0.48376 0.0
H269 H 0.50721 0.45622 0.44537 0.0
H270 H 0.5797 0.4408 0.33049 0.0
H271 H 0.59216 0.48185 0.37902 0.0
Tb272 Tb 0.02747 0.50931 0.81032 0.0
Tb273 Tb 0.02888 0.54216 0.64663 0.0
C274 C 1.01692 0.48921 0.97687 0.0
C275 C 0.99311 0.48942 0.02722 0.0
C276 C 0.98094 0.51159 0.04138 0.0
C277 C 0.95588 0.51201 0.05298 0.0
C278 C 0.94268 0.49034 0.05048 0.0
C279 C 0.95503 0.46809 0.04748 0.0
C280 C 0.98021 0.46764 0.0362 0.0
C281 C 0.03469 0.48674 0.63104 0.0
C282 C 0.97691 0.52614 0.7071 0.0
C283 C 0.04053 0.56463 0.48628 0.0
C284 C 0.06527 0.56985 0.44874 0.0
C285 C 0.07672 0.55362 0.3808 0.0
C286 C 0.10189 0.55401 0.3691 0.0
C287 C 0.11597 0.57063 0.4251 0.0
C288 C 0.10428 0.5885 0.48394 0.0
C289 C 0.07912 0.58819 0.4953 0.0
C290 C 1.01972 0.56483 0.82326 0.0
C291 C 0.0794 0.52488 0.75192 0.0
O292 O 0.02801 0.51009 0.97151 0.0
O293 O 1.01728 0.47778 0.8889 0.0
O294 O 1.02053 0.50443 0.64799 0.0
O295 O 0.0448 0.48074 0.71725 0.0
O296 O 0.98807 0.517 0.78881 0.0
O297 O 0.98986 0.53564 0.63161 0.0
O298 O 0.03462 0.54175 0.4874 0.0
O299 O 0.03412 0.57541 0.57161 0.0
O300 O 0.03524 0.5479 0.80969 0.0
O301 O 1.00852 0.56804 0.73695 0.0
O302 O 0.06848 0.53565 0.67322 0.0
O303 O 0.06635 0.5139 0.82242 0.0
H304 H 0.99037 0.52874 0.0351 0.0
H305 H 0.94674 0.52935 0.05882 0.0
H306 H 0.94513 0.45114 0.04673 0.0
H307 H 0.98929 0.4504 0.02515 0.0
H308 H 0.06644 0.53954 0.34244 0.0
H309 H 0.11041 0.5405 0.32036 0.0
H310 H 0.11464 0.60161 0.52762 0.0
H311 H 0.07081 0.6012 0.54697 0.0
H312 H 0.1847 0.05694 0.28702 0.0
H313 H 0.15782 0.99975 0.0894 0.0
H314 H 0.12285 0.9936 0.20628 0.0
H315 H 0.16677 0.0302 0.533 0.0
H316 H 0.15756 0.05866 0.5889 0.0
H317 H 0.18095 0.05798 0.49163 0.0
H318 H 0.15625 0.08855 0.38228 0.0
H319 H 0.13267 0.08908 0.47885 0.0
H320 H 0.12536 0.08143 0.3477 0.0
H321 H 0.08953 0.99459 0.34218 0.0
H322 H 0.06238 1.00078 0.49201 0.0
H323 H 0.11027 0.05711 0.60492 0.0
C324 C 0.17172 0.04279 0.26981 0.0
C325 C 0.17425 0.02859 0.1793 0.0
C326 C 0.15643 1.0107 0.1584 0.0
C327 C 0.13641 1.00714 0.22429 0.0
C328 C 0.13413 1.02168 0.31163 0.0
C329 C 0.15136 0.03907 0.335 0.0
C330 C 0.1441 0.05265 0.43257 0.0
C331 C 0.1635 0.04969 0.5165 0.0
C332 C 0.13932 0.07952 0.40893 0.0
C333 C 0.12057 0.03976 0.46178 0.0
C334 C 0.11496 1.0222 0.38997 0.0
C335 C 0.09388 1.00824 0.39905 0.0
C336 C 0.07843 1.01197 0.48444 0.0
C337 C 0.08406 0.0294 0.56092 0.0
C338 C 0.10539 0.04359 0.54822 0.0
H339 H 0.53323 0.19298 0.30542 0.0
H340 H 0.53613 0.14494 0.04029 0.0
H341 H 0.5334 0.10985 0.15448 0.0
H342 H 0.56606 0.15613 0.48323 0.0
H343 H 0.54662 0.16189 0.5924 0.0
H344 H 0.5493 0.18415 0.49163 0.0
H345 H 0.50262 0.18369 0.46638 0.0
H346 H 0.49983 0.16161 0.56788 0.0
H347 H 0.48745 0.15531 0.44242 0.0
H348 H 0.53756 0.07947 0.29757 0.0
H349 H 0.53621 0.05572 0.45784 0.0
H350 H 0.52139 0.12115 0.63156 0.0
C351 C 0.53303 0.17515 0.27083 0.0
C352 C 0.53608 0.1722 0.16239 0.0
C353 C 0.53524 0.14821 0.1223 0.0
C354 C 0.53353 0.12791 0.18682 0.0
C355 C 0.53186 0.13141 0.29252 0.0
C356 C 0.5306 0.15438 0.33449 0.0
C357 C 0.52713 0.15263 0.45104 0.0
C358 C 0.54855 0.16441 0.50791 0.0
C359 C 0.50281 0.16399 0.48386 0.0
C360 C 0.52696 0.12521 0.46717 0.0
C361 C 0.53043 0.11345 0.37456 0.0
C362 C 0.5337 0.0884 0.37 0.0
C363 C 0.53266 0.07493 0.4618 0.0
C364 C 0.52716 0.08615 0.55716 0.0
C365 C 0.52457 0.1118 0.5595 0.0
H366 H 0.36401 0.52254 0.29477 0.0
H367 H 0.4106 0.53559 0.02917 0.0
H368 H 0.44622 0.53445 0.13956 0.0
H369 H 0.39762 0.55348 0.48613 0.0
H370 H 0.39472 0.53064 0.58445 0.0
H371 H 0.37176 0.53342 0.48657 0.0
H372 H 0.37775 0.48835 0.43717 0.0
H373 H 0.40062 0.48542 0.53555 0.0
H374 H 0.40772 0.47756 0.40424 0.0
H375 H 0.47716 0.53718 0.28135 0.0
H376 H 0.50183 0.53437 0.43928 0.0
H377 H 0.43825 0.51092 0.60997 0.0
C378 C 0.38161 0.52491 0.25892 0.0
C379 C 0.38367 0.5307 0.1521 0.0
C380 C 0.4076 0.53294 0.11061 0.0
C381 C 0.42835 0.53194 0.17289 0.0
C382 C 0.42557 0.5274 0.27735 0.0
C383 C 0.40295 0.52293 0.31978 0.0
C384 C 0.40566 0.5166 0.43366 0.0
C385 C 0.3916 0.53461 0.5017 0.0
C386 C 0.39744 0.49043 0.45385 0.0
C387 C 0.43308 0.51918 0.44855 0.0
C388 C 0.44409 0.52577 0.35726 0.0
C389 C 0.46885 0.53123 0.3526 0.0
C390 C 0.48282 0.5295 0.44294 0.0
C391 C 0.4724 0.52149 0.53676 0.0
C392 C 0.44704 0.51637 0.53905 0.0
H393 H 0.03008 0.36156 0.2966 0.0
H394 H 0.03487 0.40843 0.02798 0.0
H395 H 0.03439 0.44386 0.13855 0.0
H396 H 0.9945 0.40002 0.46191 0.0
H397 H 1.01198 0.39489 0.577 0.0
H398 H 1.01083 0.37196 0.47837 0.0
H399 H 0.05781 0.37191 0.46687 0.0
H400 H 0.05902 0.39471 0.56611 0.0
H401 H 0.07362 0.39999 0.44383 0.0
H402 H 0.02914 0.4752 0.27449 0.0
H403 H 0.02917 0.50039 0.43046 0.0
H404 H 0.03664 0.43611 0.61887 0.0
C405 C 0.03123 0.37919 0.2606 0.0
C406 C 0.03083 0.38153 0.15088 0.0
C407 C 0.03318 0.40537 0.10983 0.0
C408 C 0.03334 0.426 0.17263 0.0
C409 C 0.03254 0.42311 0.27868 0.0
C410 C 0.03254 0.40039 0.32321 0.0
C411 C 0.03391 0.40303 0.44055 0.0
C412 C 1.01146 0.3918 0.4925 0.0
C413 C 0.05749 0.39173 0.48178 0.0
C414 C 0.03411 0.43062 0.45364 0.0
C415 C 0.03278 0.44167 0.35865 0.0
C416 C 0.03089 0.46677 0.3493 0.0
C417 C 0.03093 0.48107 0.43888 0.0
C418 C 0.03364 0.47062 0.53755 0.0
C419 C 0.03516 0.44486 0.54461 0.0
H420 H 0.8761 0.0433 0.23543 0.0
H421 H 0.89483 0.97396 0.36948 0.0
H422 H 0.92969 0.97036 0.24987 0.0
H423 H 0.89242 0.02915 0.96932 0.0
H424 H 0.9052 0.05862 0.94428 0.0
H425 H 0.88131 0.05529 0.03826 0.0
H426 H 0.90878 0.07567 0.17494 0.0
H427 H 0.9329 0.07864 0.08162 0.0
H428 H 0.93836 0.06308 0.20121 0.0
H429 H 0.96487 0.97552 0.12143 0.0
H430 H 0.99332 0.98655 0.98015 0.0
H431 H 0.95121 0.05139 0.92206 0.0
C432 C 0.88723 0.02713 0.23792 0.0
C433 C 0.88245 1.00875 0.31188 0.0
C434 C 0.89795 0.9882 0.31371 0.0
C435 C 0.91794 0.98607 0.24621 0.0
C436 C 0.92262 1.00471 0.17642 0.0
C437 C 0.90751 1.02474 0.17083 0.0
C438 C 0.91692 0.04236 0.08958 0.0
C439 C 0.89782 0.04659 0.00535 0.0
C440 C 0.92469 0.06636 0.13982 0.0
C441 C 0.939 0.02872 0.04793 0.0
C442 C 0.9424 1.00735 0.1011 0.0
C443 C 0.96222 0.9922 0.07916 0.0
C444 C 0.97851 0.9987 0.99938 0.0
C445 C 0.97472 1.01993 0.94054 0.0
C446 C 0.95471 0.03512 0.96611 0.0
H447 H 0.51171 0.90907 0.35468 0.0
H448 H 0.53722 0.84808 0.17079 0.0
H449 H 0.54024 0.87468 0.02125 0.0
H450 H 0.47739 0.93967 0.15867 0.0
H451 H 0.48671 0.96977 0.19497 0.0
H452 H 0.48559 0.94608 0.29012 0.0
H453 H 0.53045 0.95396 0.33585 0.0
H454 H 0.53183 0.9777 0.24086 0.0
H455 H 0.55324 0.95298 0.23598 0.0
H456 H 0.54178 0.90671 0.89148 0.0
H457 H 0.53996 0.94238 0.782 0.0
H458 H 0.51494 0.98588 0.04058 0.0
C459 C 0.51816 0.9011 0.28369 0.0
C460 C 0.52391 0.87576 0.27718 0.0
C461 C 0.5319 0.8668 0.18029 0.0
C462 C 0.53406 0.882 0.09402 0.0
C463 C 0.52858 0.90657 0.10405 0.0
C464 C 0.52083 0.91624 0.19607 0.0
C465 C 0.51654 0.94362 0.18419 0.0
C466 C 0.48997 0.95016 0.2084 0.0
C467 C 0.53406 0.95791 0.25333 0.0
C468 C 0.52255 0.94759 0.06997 0.0
C469 C 0.52969 0.92573 0.02707 0.0
C470 C 0.53621 0.92388 0.92422 0.0
C471 C 0.53507 0.94453 0.86231 0.0
C472 C 0.52728 0.96735 0.90097 0.0
C473 C 0.52123 0.96896 0.00783 0.0
H474 H 0.65118 0.56143 0.32154 0.0
H475 H 0.69432 0.49933 0.2273 0.0
H476 H 0.66527 0.49135 0.08685 0.0
H477 H 0.59203 0.53331 0.26806 0.0
H478 H 0.57855 0.56126 0.22479 0.0
H479 H 0.60239 0.56177 0.31969 0.0
H480 H 0.62764 0.59066 0.20417 0.0
H481 H 0.60378 0.59034 0.10965 0.0
H482 H 0.63433 0.58199 0.07329 0.0
H483 H 0.63054 0.4898 0.95481 0.0
H484 H 0.59572 0.49699 0.8378 0.0
H485 H 0.57626 0.5608 0.01258 0.0
C486 C 0.65452 0.54595 0.27242 0.0
C487 C 0.67542 0.53109 0.28701 0.0
C488 C 0.67891 0.51133 0.21832 0.0
C489 C 0.66226 0.50646 0.13842 0.0
C490 C 0.64189 0.52137 0.12714 0.0
C491 C 0.63804 0.54079 0.19223 0.0
C492 C 0.61496 0.55436 0.16251 0.0
C493 C 0.59586 0.55257 0.24889 0.0
C494 C 0.62052 0.58091 0.13578 0.0
C495 C 0.60693 0.54017 0.06809 0.0
C496 C 0.62236 0.5208 0.05052 0.0
C497 C 0.6184 0.5049 0.9685 0.0
C498 C 0.59848 0.50906 0.90249 0.0
C499 C 0.58281 0.52916 0.91712 0.0
C500 C 0.58731 0.54491 1.00103 0.0
H501 H 0.03825 0.64346 0.34934 0.0
H502 H 1.01338 0.7051 0.16846 0.0
H503 H 1.01208 0.67936 0.01609 0.0
H504 H 0.07396 0.61353 0.15059 0.0
H505 H 0.06439 0.58353 0.18721 0.0
H506 H 0.06552 0.60737 0.28198 0.0
H507 H 1.02017 0.5994 0.32667 0.0
H508 H 1.01928 0.57569 0.23137 0.0
H509 H 0.99784 0.60037 0.22556 0.0
H510 H 1.01187 0.64767 0.88242 0.0
H511 H 1.01126 0.61152 0.77455 0.0
H512 H 0.03356 0.56746 0.03498 0.0
C513 C 0.03236 0.65182 0.27853 0.0
C514 C 1.02638 0.67711 0.27398 0.0
C515 C 1.01902 0.68647 0.17693 0.0
C516 C 1.01789 0.67175 0.08874 0.0
C517 C 1.02371 0.64725 0.09684 0.0
C518 C 0.03061 0.63718 0.18912 0.0
C519 C 0.03475 0.60986 0.17608 0.0
C520 C 0.06123 0.60317 0.20042 0.0
C521 C 1.01695 0.59547 0.24394 0.0
C522 C 0.02918 0.60628 0.06161 0.0
C523 C 1.02294 0.62834 0.01852 0.0
C524 C 1.01667 0.63033 0.91543 0.0
C525 C 1.01635 0.60942 0.8545 0.0
C526 C 1.0223 0.58625 0.89494 0.0
C527 C 0.0291 0.58476 1.00068 0.0
H528 H 0.9773 0.24089 0.21746 0.0
H529 H 0.04862 0.25538 0.33976 0.0
H530 H 0.0456 0.21946 0.45043 0.0
H531 H 0.9513 0.20135 0.44808 0.0
H532 H 0.9378 0.18164 0.35355 0.0
H533 H 0.93934 0.21381 0.33038 0.0
H534 H 0.96092 0.2047 0.15702 0.0
H535 H 0.96101 0.17284 0.18167 0.0
H536 H 0.98928 0.18826 0.15746 0.0
H537 H 0.04373 0.17631 0.48062 0.0
H538 H 0.03771 0.1322 0.47085 0.0
H539 H 0.96894 0.14334 0.31564 0.0
C540 C 0.99113 0.23752 0.27495 0.0
C541 C 1.01307 0.25047 0.27148 0.0
C542 C 0.03155 0.24563 0.34343 0.0
C543 C 0.03006 0.22502 0.40535 0.0
C544 C 1.0099 0.20997 0.39392 0.0
C545 C 0.99024 0.21635 0.3329 0.0
C546 C 0.97396 0.19484 0.31176 0.0
C547 C 0.94912 0.1981 0.36413 0.0
C548 C 0.97118 0.18991 0.19521 0.0
C549 C 0.98847 0.17516 0.363 0.0
C550 C 1.00894 0.18423 0.41096 0.0
C551 C 1.02719 0.16908 0.44781 0.0
C552 C 1.02387 0.1441 0.43999 0.0
C553 C 1.00277 0.13461 0.39288 0.0
C554 C 0.98488 0.15031 0.35444 0.0
H555 H 0.30959 1.02432 0.2903 0.0
H556 H 0.29924 0.95229 0.16949 0.0
H557 H 0.33193 0.937 0.28172 0.0
H558 H 0.36633 1.02271 0.24206 0.0
H559 H 0.37747 0.04116 0.34619 0.0
H560 H 0.34687 0.04486 0.30264 0.0
H561 H 0.32883 0.03556 0.48427 0.0
H562 H 0.35977 0.03513 0.5281 0.0
H563 H 0.33995 1.00974 0.55462 0.0
H564 H 0.37218 0.93222 0.35813 0.0
H565 H 0.41605 0.93805 0.39037 0.0
H566 H 0.40354 1.0145 0.44307 0.0
C567 C 0.31302 1.00501 0.29461 0.0
C568 C 0.30161 0.9892 0.22526 0.0
C569 C 0.3073 0.96431 0.22573 0.0
C570 C 0.32602 0.95562 0.2886 0.0
C571 C 0.33895 0.97223 0.34827 0.0
C572 C 0.33259 0.99652 0.35181 0.0
C573 C 0.35285 1.01192 0.395 0.0
C574 C 0.36136 0.03125 0.31678 0.0
C575 C 0.34491 1.02372 0.49673 0.0
C576 C 0.37206 0.99272 0.41096 0.0
C577 C 0.36349 0.96987 0.38654 0.0
C578 C 0.37892 0.94983 0.38075 0.0
C579 C 0.40377 0.95328 0.39845 0.0
C580 C 0.41286 0.97667 0.41901 0.0
C581 C 0.39678 0.99642 0.42811 0.0
H582 H 0.56426 0.30645 0.32255 0.0
H583 H 0.48647 0.29992 0.29443 0.0
H584 H 0.48106 0.33909 0.37993 0.0
H585 H 0.56278 0.35005 0.56925 0.0
H586 H 0.58841 0.36643 0.51783 0.0
H587 H 0.58655 0.33397 0.50264 0.0
H588 H 0.59127 0.33884 0.30685 0.0
H589 H 0.59217 0.37116 0.31671 0.0
H590 H 0.56959 0.35694 0.23668 0.0
H591 H 0.48521 0.38254 0.37062 0.0
H592 H 0.49721 0.42481 0.34913 0.0
H593 H 0.57247 0.40503 0.4079 0.0
C594 C 0.54617 0.31228 0.3445 0.0
C595 C 0.52579 0.30089 0.30098 0.0
C596 C 0.5022 0.30867 0.32788 0.0
C597 C 0.49903 0.3312 0.3747 0.0
C598 C 0.51972 0.34458 0.39854 0.0
C599 C 0.54293 0.33492 0.3904 0.0
C600 C 0.56211 0.3544 0.40266 0.0
C601 C 0.57583 0.35103 0.50419 0.0
C602 C 0.57978 0.35536 0.31019 0.0
C603 C 0.54611 0.37659 0.40635 0.0
C604 C 0.52178 0.37055 0.40353 0.0
C605 C 0.504 0.38769 0.38175 0.0
C606 C 0.51109 0.41176 0.36912 0.0
C607 C 0.53573 0.41876 0.38177 0.0
C608 C 0.55342 0.4007 0.39953 0.0
H609 H 0.23425 0.49979 0.32675 0.0
H610 H 0.26789 0.56976 0.28856 0.0
H611 H 0.23623 0.58837 0.39563 0.0
H612 H 0.18436 0.51459 0.26337 0.0
H613 H 0.16399 0.49831 0.34744 0.0
H614 H 0.19405 0.48706 0.32576 0.0
H615 H 0.20433 0.4879 0.51877 0.0
H616 H 0.17369 0.49784 0.5457 0.0
H617 H 0.19917 0.51501 0.59274 0.0
H618 H 0.19497 0.60126 0.42993 0.0
H619 H 0.15052 0.60642 0.42383 0.0
H620 H 0.14151 0.52847 0.43852 0.0
C621 C 0.2359 0.51859 0.34934 0.0
C622 C 0.25315 0.53344 0.30031 0.0
C623 C 0.25487 0.55814 0.32701 0.0
C624 C 0.23674 0.56888 0.38718 0.0
C625 C 0.21752 0.55446 0.42115 0.0
C626 C 0.21746 0.52952 0.40712 0.0
C627 C 0.19248 0.51897 0.4274 0.0
C628 C 0.18318 0.50387 0.33554 0.0
C629 C 0.19241 0.50404 0.5271 0.0
C630 C 0.17804 0.542 0.44068 0.0
C631 C 0.19284 0.56221 0.44076 0.0
C632 C 0.18326 0.58557 0.43523 0.0
C633 C 0.158 0.58834 0.4307 0.0
C634 C 0.14263 0.56784 0.43057 0.0
C635 C 0.15285 0.54448 0.43757 0.0
H636 H 0.97633 0.83003 0.2443 0.0
H637 H 0.03612 0.7811 0.18318 0.0
H638 H 0.05569 0.81173 0.07607 0.0
H639 H 0.98216 0.86842 0.99294 0.0
H640 H 0.97672 0.89608 0.06315 0.0
H641 H 0.9612 0.86857 0.09904 0.0
H642 H 0.97647 0.87153 0.28412 0.0
H643 H 0.99206 0.89917 0.25521 0.0
H644 H 1.00863 0.87399 0.3087 0.0
H645 H 0.07615 0.85017 0.04493 0.0
H646 H 0.09109 0.89221 0.04512 0.0
H647 H 1.01864 0.91755 0.124 0.0
C648 C 0.99248 0.82523 0.20105 0.0
C649 C 1.00496 0.80361 0.2237 0.0
C650 C 1.02621 0.79764 0.16725 0.0
C651 C 0.03773 0.81516 0.10707 0.0
C652 C 1.0272 0.83803 0.10163 0.0
C653 C 1.00448 0.84289 0.14331 0.0
C654 C 0.99937 0.86983 0.14504 0.0
C655 C 0.97867 0.87613 0.07055 0.0
C656 C 0.99383 0.87912 0.25474 0.0
C657 C 1.0235 0.87927 0.10694 0.0
C658 C 0.03922 0.86071 0.08135 0.0
C659 C 0.06368 0.86494 0.05963 0.0
C660 C 0.07205 0.88885 0.06072 0.0
C661 C 0.05599 0.90817 0.08361 0.0
C662 C 0.03142 0.9032 0.1065 0.0
H663 H 0.73985 1.00299 0.20196 0.0
H664 H 0.76632 0.07631 0.21818 0.0
H665 H 0.73645 0.08887 0.08746 0.0
H666 H 0.70472 1.00394 0.93929 0.0
H667 H 0.67994 0.98877 1.00337 0.0
H668 H 0.7109 0.98189 0.03828 0.0
H669 H 0.70036 0.99176 0.2294 0.0
H670 H 0.66994 0.99895 0.19444 0.0
H671 H 0.68812 1.02121 0.26025 0.0
H672 H 0.69657 0.09637 0.00851 0.0
H673 H 0.65206 0.09907 1.00076 0.0
H674 H 0.64742 1.02326 0.08864 0.0
C675 C 0.74029 1.02123 0.17129 0.0
C676 C 0.75506 0.03871 0.21754 0.0
C677 C 0.7552 0.0627 0.18105 0.0
C678 C 0.73818 0.0699 0.10715 0.0
C679 C 0.72098 0.05297 0.07429 0.0
C680 C 0.72196 0.02893 0.106 0.0
C681 C 0.6976 1.0166 0.09655 0.0
C682 C 0.69835 0.99662 0.0144 0.0
C683 C 0.68851 1.00662 0.20121 0.0
C684 C 0.68249 0.03768 0.0615 0.0
C685 C 0.69632 0.05807 0.04305 0.0
C686 C 0.68563 0.08035 0.02114 0.0
C687 C 0.66022 0.08184 0.0198 0.0
C688 C 0.6458 0.0614 0.04557 0.0
C689 C 0.65739 0.03911 0.0648 0.0
H690 H 0.51109 0.74655 0.17106 0.0
H691 H 0.58469 0.73945 0.28126 0.0
H692 H 0.58877 0.7007 0.19085 0.0
H693 H 0.49254 0.69658 0.22628 0.0
H694 H 0.47404 0.68757 0.1186 0.0
H695 H 0.47937 0.71906 0.1424 0.0
H696 H 0.49709 0.7252 0.96076 0.0
H697 H 0.49113 0.6938 0.93181 0.0
H698 H 0.52127 0.70596 0.91509 0.0
H699 H 0.5781 0.65888 0.17483 0.0
H700 H 0.55905 0.61912 0.16982 0.0
H701 H 0.49324 0.65136 0.04503 0.0
C702 C 0.52872 0.73785 0.16704 0.0
C703 C 0.54762 0.74567 0.23198 0.0
C704 C 0.57028 0.73375 0.23 0.0
C705 C 0.57257 0.71152 0.17991 0.0
C706 C 0.55231 0.70223 0.12936 0.0
C707 C 0.53115 0.71555 0.11692 0.0
C708 C 0.51074 0.69976 0.076 0.0
C709 C 0.48787 0.70082 0.14503 0.0
C710 C 0.50471 0.70657 0.96427 0.0
C711 C 0.5228 0.67519 0.08115 0.0
C712 C 0.54679 0.6771 0.11116 0.0
C713 C 0.56 0.65704 0.14342 0.0
C714 C 0.54887 0.63439 0.14051 0.0
C715 C 0.52488 0.63165 0.10236 0.0
C716 C 0.51172 0.65251 0.07276 0.0
H717 H 0.81823 0.47921 0.3121 0.0
H718 H 0.79866 0.5419 0.132 0.0
H719 H 0.8297 0.53102 1.00257 0.0
H720 H 0.87351 0.49482 0.3143 0.0
H721 H 0.88777 0.46544 0.31773 0.0
H722 H 0.85743 0.46899 0.36486 0.0
H723 H 0.84159 0.43625 0.23878 0.0
H724 H 0.87225 0.43179 0.19299 0.0
H725 H 0.84827 0.43863 0.10318 0.0
H726 H 0.87025 0.52428 0.93777 0.0
H727 H 0.91473 0.52037 0.93392 0.0
H728 H 0.91115 0.46354 0.16281 0.0
C729 C 0.81952 0.48949 0.24127 0.0
C730 C 0.80634 0.51108 0.22998 0.0
C731 C 0.80855 0.52503 0.13984 0.0
C732 C 0.82622 0.51897 0.06658 0.0
C733 C 0.84142 0.49923 0.08666 0.0
C734 C 0.83805 0.48448 0.17188 0.0
C735 C 0.86039 0.46957 0.19538 0.0
C736 C 0.87033 0.47506 0.30431 0.0
C737 C 0.85532 0.44244 0.18165 0.0
C738 C 0.87726 0.47893 0.11329 0.0
C739 C 0.86591 0.49568 0.05014 0.0
C740 C 0.87905 0.51042 0.9833 0.0
C741 C 0.90431 0.50822 0.98215 0.0
C742 C 0.91608 0.49115 0.0461 0.0
C743 C 0.90235 0.47597 0.11026 0.0
H744 H 1.00272 0.21755 0.87789 0.0
H745 H 0.07717 0.2254 0.97919 0.0
H746 H 0.08563 0.18319 0.92709 0.0
H747 H 0.99227 0.15903 0.95628 0.0
H748 H 0.97558 0.1487 0.84534 0.0
H749 H 0.97581 0.18039 0.87797 0.0
H750 H 0.99127 0.19052 0.69665 0.0
H751 H 0.99246 0.15895 0.66062 0.0
H752 H 1.01933 0.17754 0.65174 0.0
H753 H 0.08416 0.13825 0.89356 0.0
H754 H 0.07514 0.09553 0.85505 0.0
H755 H 1.00258 0.11551 0.75684 0.0
C756 C 1.02115 0.21079 0.88369 0.0
C757 C 0.03959 0.22541 0.92931 0.0
C758 C 0.06307 0.2152 0.94063 0.0
C759 C 0.06791 0.19098 0.91261 0.0
C760 C 0.04924 0.17691 0.87107 0.0
C761 C 1.02648 0.18661 0.85348 0.0
C762 C 1.00967 0.16721 0.80847 0.0
C763 C 0.98699 0.16362 0.87609 0.0
C764 C 1.0027 0.17392 0.69775 0.0
C765 C 1.02604 0.14476 0.80976 0.0
C766 C 0.04881 0.15097 0.84624 0.0
C767 C 0.0666 0.13339 0.86245 0.0
C768 C 0.06123 0.109 0.84061 0.0
C769 C 0.03829 0.10186 0.80125 0.0
C770 C 1.02049 0.12024 0.78457 0.0
H771 H 0.33736 0.99646 0.86587 0.0
H772 H 0.32333 0.06968 0.96973 0.0
H773 H 0.36529 0.08122 0.92065 0.0
H774 H 0.39488 0.99194 0.96355 0.0
H775 H 0.4083 0.97455 0.86058 0.0
H776 H 0.37614 0.97262 0.8849 0.0
H777 H 0.36608 0.98623 0.69574 0.0
H778 H 0.39846 0.98529 0.67338 0.0
H779 H 0.38175 1.01239 0.64542 0.0
H780 H 0.41082 0.08289 0.88806 0.0
H781 H 0.45446 0.07627 0.85289 0.0
H782 H 0.43944 1.00229 0.76155 0.0
C783 C 0.34274 1.01524 0.87324 0.0
C784 C 0.32665 0.03235 0.91935 0.0
C785 C 0.33484 0.05647 0.93173 0.0
C786 C 0.35884 0.06308 0.90521 0.0
C787 C 0.37452 0.04547 0.86472 0.0
C788 C 0.3666 1.02216 0.84613 0.0
C789 C 0.3876 1.00621 0.80918 0.0
C790 C 0.39198 0.98509 0.88404 0.0
C791 C 0.38314 0.99694 0.69946 0.0
C792 C 0.40863 1.02407 0.81097 0.0
C793 C 0.40068 0.04657 0.84406 0.0
C794 C 0.41701 0.06552 0.85961 0.0
C795 C 0.44186 0.06154 0.83967 0.0
C796 C 0.45045 0.03891 0.80263 0.0
C797 C 0.43344 1.01996 0.78747 0.0
H798 H 0.50228 0.34787 0.03287 0.0
H799 H 0.55722 0.31576 0.83532 0.0
H800 H 0.56065 0.35489 0.74196 0.0
H801 H 0.47339 0.38882 0.85774 0.0
H802 H 0.47104 0.4127 0.95195 0.0
H803 H 0.47105 0.38152 0.99266 0.0
H804 H 0.5075 0.39012 0.11315 0.0
H805 H 0.50769 0.42131 0.07284 0.0
H806 H 0.53481 0.4032 0.06048 0.0
H807 H 0.55695 0.39946 0.66711 0.0
H808 H 0.55142 0.44356 0.63969 0.0
H809 H 0.50296 0.44645 0.90325 0.0
C810 C 0.51493 0.34869 0.96902 0.0
C811 C 0.52946 0.32822 0.94219 0.0
C812 C 0.54544 0.33065 0.85692 0.0
C813 C 0.54752 0.35297 0.80324 0.0
C814 C 0.53351 0.3729 0.83489 0.0
C815 C 0.51778 0.37084 0.91725 0.0
C816 C 0.50674 0.3952 0.94553 0.0
C817 C 0.4789 0.39451 0.93638 0.0
C818 C 0.51465 0.40291 0.05439 0.0
C819 C 0.51796 0.41146 0.86407 0.0
C820 C 0.53323 0.39835 0.8 0.0
C821 C 0.54522 0.40972 0.71804 0.0
C822 C 0.54187 0.43491 0.70269 0.0
C823 C 0.52679 0.44886 0.76923 0.0
C824 C 0.51466 0.43663 0.85061 0.0
H825 H 0.20468 0.49774 0.04167 0.0
H826 H 0.24204 0.54496 0.82664 0.0
H827 H 0.20371 0.54928 0.72741 0.0
H828 H 0.16266 0.46866 0.86723 0.0
H829 H 0.13815 0.46934 0.95963 0.0
H830 H 0.16917 0.46773 1.00309 0.0
H831 H 0.16192 0.50564 0.11383 0.0
H832 H 0.13118 0.50843 0.06924 0.0
H833 H 0.15196 0.53343 0.05457 0.0
H834 H 0.1585 0.55067 0.65964 0.0
H835 H 0.11387 0.54844 0.63185 0.0
H836 H 0.10704 0.50295 0.90194 0.0
C837 C 0.20511 0.5089 0.97322 0.0
C838 C 0.22679 0.52108 0.9431 0.0
C839 C 0.22606 0.53512 0.85158 0.0
C840 C 0.20417 0.53788 0.79514 0.0
C841 C 0.18294 0.52654 0.83074 0.0
C842 C 0.18345 0.5123 0.91804 0.0
C843 C 0.15818 0.50345 0.94646 0.0
C844 C 0.15697 0.47564 0.94389 0.0
C845 C 0.15035 0.51335 0.05225 0.0
C846 C 0.14316 0.51456 0.86103 0.0
C847 C 0.1576 0.5278 0.7944 0.0
C848 C 0.14725 0.5401 0.7111 0.0
C849 C 0.12178 0.5388 0.69594 0.0
C850 C 0.10664 0.5255 0.76417 0.0
C851 C 0.11781 0.51322 0.8475 0.0
H852 H 1.00292 0.83014 0.67288 0.0
H853 H 0.05902 0.82898 0.43838 0.0
H854 H 0.0677 0.872 0.47151 0.0
H855 H 0.97916 0.88613 0.64161 0.0
H856 H 0.97721 0.89569 0.77416 0.0
H857 H 0.97692 0.86393 0.74308 0.0
H858 H 1.01367 0.85677 0.86259 0.0
H859 H 1.01424 0.88869 0.8939 0.0
H860 H 0.04104 0.87413 0.84393 0.0
H861 H 0.06534 0.91677 0.50689 0.0
H862 H 0.05823 0.95858 0.56806 0.0
H863 H 1.00724 0.93188 0.7958 0.0
C864 C 1.018 0.83855 0.63297 0.0
C865 C 0.03072 0.82566 0.55438 0.0
C866 C 0.04962 0.83794 0.50119 0.0
C867 C 0.05441 0.86263 0.5183 0.0
C868 C 0.04092 0.87502 0.59253 0.0
C869 C 1.0239 0.8632 0.65268 0.0
C870 C 1.01269 0.88105 0.72951 0.0
C871 C 0.98484 0.88173 0.72148 0.0
C872 C 1.02086 0.87473 0.83905 0.0
C873 C 1.02413 0.90499 0.69585 0.0
C874 C 0.04064 0.9009 0.61737 0.0
C875 C 0.05293 0.92003 0.57017 0.0
C876 C 0.04871 0.94381 0.60521 0.0
C877 C 0.03242 0.94861 0.68728 0.0
C878 C 1.01997 0.92882 0.73344 0.0
H879 H 0.70917 0.9939 0.46929 0.0
H880 H 0.74157 0.04526 0.67995 0.0
H881 H 0.70173 0.04985 0.76841 0.0
H882 H 0.65545 1.02195 0.42969 0.0
H883 H 0.63567 0.99592 0.43057 0.0
H884 H 0.6671 0.99243 0.39572 0.0
H885 H 0.67407 0.96051 0.53581 0.0
H886 H 0.64232 0.9625 0.56979 0.0
H887 H 0.66526 0.96695 0.66668 0.0
H888 H 0.65631 0.05349 0.8158 0.0
H889 H 0.61163 0.0531 0.82933 0.0
H890 H 0.60807 0.99853 0.58996 0.0
C891 C 0.70816 1.00537 0.53681 0.0
C892 C 0.72895 1.01885 0.56861 0.0
C893 C 0.72639 0.03421 0.65545 0.0
C894 C 0.70362 0.03715 0.70538 0.0
C895 C 0.68334 1.02443 0.66872 0.0
C896 C 0.6856 1.00835 0.58785 0.0
C897 C 0.66089 0.9975 0.56058 0.0
C898 C 0.6544 1.00228 0.44741 0.0
C899 C 0.66061 0.97024 0.58461 0.0
C900 C 0.64401 1.01119 0.63347 0.0
C901 C 0.65742 0.02627 0.69671 0.0
C902 C 0.64586 0.04129 0.7681 0.0
C903 C 0.62026 0.04081 0.77566 0.0
C904 C 0.60588 1.0254 0.71276 0.0
C905 C 0.61822 1.01041 0.64028 0.0
H906 H 0.55789 0.71815 0.60703 0.0
H907 H 0.48117 0.72917 0.55244 0.0
H908 H 0.47285 0.68749 0.61336 0.0
H909 H 0.56293 0.66173 0.51574 0.0
H910 H 0.58333 0.64927 0.61036 0.0
H911 H 0.58311 0.68134 0.5864 0.0
H912 H 0.57401 0.69033 0.77956 0.0
H913 H 0.57567 0.65819 0.8036 0.0
H914 H 0.54908 0.67497 0.84167 0.0
H915 H 0.47364 0.6423 0.65833 0.0
H916 H 0.48314 0.59908 0.68978 0.0
H917 H 0.55979 0.61628 0.70704 0.0
C918 C 0.53918 0.71229 0.61403 0.0
C919 C 0.52005 0.72754 0.57854 0.0
C920 C 0.49598 0.7185 0.5833 0.0
C921 C 0.49116 0.69459 0.61651 0.0
C922 C 0.51055 0.67972 0.6462 0.0
C923 C 0.53408 0.68845 0.64766 0.0
C924 C 0.55188 0.66826 0.67558 0.0
C925 C 0.57146 0.66497 0.59199 0.0
C926 C 0.56335 0.67325 0.78131 0.0
C927 C 0.53505 0.64642 0.68149 0.0
C928 C 0.51116 0.65359 0.66768 0.0
C929 C 0.49228 0.6367 0.67031 0.0
C930 C 0.49784 0.61212 0.68816 0.0
C931 C 0.52216 0.6042 0.70087 0.0
C932 C 0.54102 0.62171 0.69725 0.0
H933 H 0.84306 0.56563 0.51775 0.0
H934 H 0.81572 0.49908 0.64945 0.0
H935 H 0.85623 0.49101 0.72526 0.0
H936 H 0.89788 0.5453 0.43867 0.0
H937 H 0.91576 0.57154 0.47135 0.0
H938 H 0.88383 0.57478 0.44546 0.0
H939 H 0.8769 0.59483 0.6233 0.0
H940 H 0.90901 0.59233 0.64901 0.0
H941 H 0.88727 0.57963 0.73779 0.0
H942 H 0.90209 0.48717 0.76326 0.0
H943 H 0.94682 0.49046 0.77911 0.0
H944 H 0.94493 0.55896 0.61687 0.0
C945 C 0.84521 0.55009 0.56772 0.0
C946 C 0.82567 0.53346 0.58059 0.0
C947 C 0.82983 0.51263 0.64188 0.0
C948 C 0.85304 0.5077 0.68373 0.0
C949 C 0.87217 0.52382 0.66463 0.0
C950 C 0.86828 0.54497 0.61028 0.0
C951 C 0.89209 0.55872 0.59566 0.0
C952 C 0.89771 0.56281 0.48096 0.0
C953 C 0.89127 0.58282 0.65492 0.0
C954 C 0.91026 0.54138 0.6444 0.0
C955 C 0.89836 0.52153 0.6854 0.0
C956 C 0.91139 0.50286 0.73263 0.0
C957 C 0.93691 0.50486 0.74122 0.0
C958 C 0.94961 0.52495 0.6995 0.0
C959 C 0.93591 0.54335 0.64974 0.0
loop_
_geom_bond_atom_site_label_1
_geom_bond_atom_site_label_2
_geom_bond_distance
_geom_bond_site_symmetry_2
_ccdc_geom_bond_type
H0 C1 0.949 . S
C1 H0 0.949 . S
C1 C2 1.395 . S
C1 C3 1.391 . S
C2 C1 1.395 . S
C2 C5 1.390 . S
C3 C1 1.391 . S
C3 C7 1.387 . S
C3 C8 1.491 . S
H4 C5 0.950 . S
C5 C2 1.390 . S
C5 H4 0.950 . S
C5 C6 1.378 . S
C6 C5 1.378 . S
C6 C7 1.409 . S
C7 C3 1.387 . S
C7 C6 1.409 . S
C7 H9 0.951 . S
C8 C3 1.491 . S
C8 C10 1.382 . S
C8 C12 1.404 . S
H9 C7 0.951 . S
C10 C8 1.382 . S
C10 C11 1.390 . S
C10 H15 0.949 . S
C11 C10 1.390 . S
C11 C16 1.399 . S
C12 C8 1.404 . S
C12 H13 0.950 . S
C12 C14 1.375 . S
H13 C12 0.950 . S
C14 C12 1.375 . S
C14 C16 1.382 . S
C14 H18 0.950 . S
H15 C10 0.949 . S
C16 C11 1.399 . S
C16 C14 1.382 . S
C16 H17 0.952 . S
H17 C16 0.952 . S
H18 C14 0.950 . S
H19 C20 0.949 . S
C20 H19 0.949 . S
C20 C21 1.395 . S
C20 C22 1.391 . S
C21 C20 1.395 . S
C21 C24 1.390 1_655 S
C22 C20 1.391 . S
C22 C26 1.387 . S
C22 C27 1.491 . S
H23 C24 0.950 . S
C24 C21 1.390 1_455 S
C24 H23 0.950 . S
C24 C25 1.377 1_455 S
C25 C24 1.377 1_655 S
C25 C26 1.413 . S
C26 C22 1.387 . S
C26 C25 1.413 . S
C26 H28 0.951 . S
C27 C22 1.491 . S
C27 C29 1.382 . S
C27 C31 1.404 . S
H28 C26 0.951 . S
C29 C27 1.382 . S
C29 C30 1.390 . S
C29 H34 0.949 1_655 S
C30 C29 1.390 . S
C30 C35 1.399 . S
C31 C27 1.404 . S
C31 H32 0.950 . S
C31 C33 1.375 . S
H32 C31 0.950 . S
C33 C31 1.375 . S
C33 C35 1.382 . S
C33 H37 0.950 . S
H34 C29 0.949 1_455 S
C35 C30 1.399 . S
C35 C33 1.382 . S
C35 H36 0.952 . S
H36 C35 0.952 . S
H37 C33 0.950 . S
H38 C39 0.949 . S
C39 H38 0.949 . S
C39 C40 1.395 . S
C39 C41 1.391 . S
C40 C39 1.395 . S
C40 C43 1.390 1_565 S
C41 C39 1.391 . S
C41 C45 1.387 . S
C41 C46 1.491 . S
H42 C43 0.950 . S
C43 C40 1.390 1_545 S
C43 H42 0.950 . S
C43 C44 1.377 1_545 S
C44 C43 1.377 1_565 S
C44 C45 1.413 . S
C45 C41 1.387 . S
C45 C44 1.413 . S
C45 H47 0.951 . S
C46 C41 1.491 . S
C46 C48 1.382 . S
C46 C50 1.404 . S
H47 C45 0.951 . S
C48 C46 1.382 . S
C48 C49 1.390 . S
C48 H53 0.949 1_565 S
C49 C48 1.390 . S
C49 C54 1.399 . S
C50 C46 1.404 . S
C50 H51 0.950 . S
C50 C52 1.375 . S
H51 C50 0.950 . S
C52 C50 1.375 . S
C52 C54 1.382 . S
C52 H56 0.950 . S
H53 C48 0.949 1_545 S
C54 C49 1.399 . S
C54 C52 1.382 . S
C54 H55 0.952 . S
H55 C54 0.952 . S
H56 C52 0.950 . S
H57 C58 0.949 . S
C58 H57 0.949 . S
C58 C59 1.395 . S
C58 C60 1.391 . S
C59 C58 1.395 . S
C59 C62 1.390 . S
C60 C58 1.391 . S
C60 C64 1.387 . S
C60 C65 1.491 . S
H61 C62 0.950 . S
C62 C59 1.390 . S
C62 H61 0.950 . S
C62 C63 1.378 . S
C63 C62 1.378 . S
C63 C64 1.409 . S
C64 C60 1.387 . S
C64 C63 1.409 . S
C64 H66 0.951 . S
C65 C60 1.491 . S
C65 C67 1.382 . S
C65 C69 1.404 . S
H66 C64 0.951 . S
C67 C65 1.382 . S
C67 C68 1.390 . S
C67 H72 0.949 . S
C68 C67 1.390 . S
C68 C73 1.399 . S
C69 C65 1.404 . S
C69 H70 0.950 . S
C69 C71 1.375 . S
H70 C69 0.950 . S
C71 C69 1.375 . S
C71 C73 1.382 . S
C71 H75 0.950 . S
H72 C67 0.949 . S
C73 C68 1.399 . S
C73 C71 1.382 . S
C73 H74 0.952 . S
H74 C73 0.952 . S
H75 C71 0.950 . S
H76 C77 0.949 . S
C77 H76 0.949 . S
C77 C78 1.395 . S
C77 C79 1.391 1_554 S
C78 C77 1.395 . S
C78 C81 1.390 1_554 S
C79 C77 1.391 1_556 S
C79 C83 1.387 . S
C79 C84 1.491 . S
H80 C81 0.950 . S
C81 C78 1.390 1_556 S
C81 H80 0.950 . S
C81 C82 1.378 . S
C82 C81 1.378 . S
C82 C83 1.409 . S
C83 C79 1.387 . S
C83 C82 1.409 . S
C83 H85 0.951 . S
C84 C79 1.491 . S
C84 C86 1.382 1_556 S
C84 C88 1.404 . S
H85 C83 0.951 . S
C86 C84 1.382 1_554 S
C86 C87 1.390 . S
C86 H91 0.949 . S
C87 C86 1.390 . S
C87 C92 1.399 . S
C88 C84 1.404 . S
C88 H89 0.950 . S
C88 C90 1.375 . S
H89 C88 0.950 . S
C90 C88 1.375 . S
C90 C92 1.382 1_556 S
C90 H94 0.950 . S
H91 C86 0.949 . S
C92 C87 1.399 . S
C92 C90 1.382 1_554 S
C92 H93 0.952 . S
H93 C92 0.952 . S
H94 C90 0.950 . S
H95 C96 0.949 . S
C96 H95 0.949 . S
C96 C97 1.395 1_655 S
C96 C98 1.391 1_554 S
C97 C96 1.395 1_455 S
C97 C100 1.390 1_554 S
C98 C96 1.391 1_556 S
C98 C102 1.387 . S
C98 C103 1.491 1_556 S
H99 C100 0.950 . S
C100 C97 1.390 1_556 S
C100 H99 0.950 . S
C100 C101 1.377 1_455 S
C101 C100 1.377 1_655 S
C101 C102 1.411 . S
C102 C98 1.387 . S
C102 C101 1.411 . S
C102 H104 0.951 . S
C103 C98 1.491 1_554 S
C103 C105 1.402 . S
C103 C107 1.404 1_554 S
H104 C102 0.951 . S
C105 C103 1.402 . S
C105 C106 1.400 . S
C105 H110 0.920 1_655 S
C106 C105 1.400 . S
C106 C111 1.399 . S
C107 C103 1.404 1_556 S
C107 H108 0.950 . S
C107 C109 1.375 . S
H108 C107 0.950 . S
C109 C107 1.375 . S
C109 C111 1.382 1_556 S
C109 H113 0.950 . S
H110 C105 0.920 1_455 S
C111 C106 1.399 . S
C111 C109 1.382 1_554 S
C111 H112 0.952 . S
H112 C111 0.952 . S
H113 C109 0.950 . S
H114 C115 0.949 . S
C115 H114 0.949 . S
C115 C116 1.395 1_565 S
C115 C117 1.391 1_554 S
C116 C115 1.395 1_545 S
C116 C119 1.390 1_554 S
C117 C115 1.391 1_556 S
C117 C121 1.387 . S
C117 C122 1.491 . S
H118 C119 0.950 . S
C119 C116 1.390 1_556 S
C119 H118 0.950 . S
C119 C120 1.377 1_545 S
C120 C119 1.377 1_565 S
C120 C121 1.411 . S
C121 C117 1.387 . S
C121 C120 1.411 . S
C121 H123 0.951 . S
C122 C117 1.491 . S
C122 C124 1.398 1_556 S
C122 C126 1.408 . S
H123 C121 0.951 . S
C124 C122 1.398 1_554 S
C124 C125 1.400 . S
C124 H129 0.920 1_565 S
C125 C124 1.400 . S
C125 C130 1.399 . S
C126 C122 1.408 . S
C126 H127 0.950 . S
C126 C128 1.375 . S
H127 C126 0.950 . S
C128 C126 1.375 . S
C128 C130 1.382 1_556 S
C128 H132 0.950 . S
H129 C124 0.920 1_545 S
C130 C125 1.399 . S
C130 C128 1.382 1_554 S
C130 H131 0.952 . S
H131 C130 0.952 . S
H132 C128 0.950 . S
H133 C134 0.949 . S
C134 H133 0.949 . S
C134 C135 1.395 . S
C134 C136 1.391 1_554 S
C135 C134 1.395 . S
C135 C138 1.390 1_554 S
C136 C134 1.391 1_556 S
C136 C140 1.387 . S
C136 C141 1.491 . S
H137 C138 0.950 . S
C138 C135 1.390 1_556 S
C138 H137 0.950 . S
C138 C139 1.378 . S
C139 C138 1.378 . S
C139 C140 1.409 . S
C140 C136 1.387 . S
C140 C139 1.409 . S
C140 H142 0.951 . S
C141 C136 1.491 . S
C141 C143 1.382 1_556 S
C141 C145 1.404 . S
H142 C140 0.951 . S
C143 C141 1.382 1_554 S
C143 C144 1.390 . S
C143 H148 0.949 . S
C144 C143 1.390 . S
C144 C149 1.399 . S
C145 C141 1.404 . S
C145 H146 0.950 . S
C145 C147 1.375 . S
H146 C145 0.950 . S
C147 C145 1.375 . S
C147 C149 1.382 1_556 S
C147 H151 0.950 . S
H148 C143 0.949 . S
C149 C144 1.399 . S
C149 C147 1.382 1_554 S
C149 H150 0.952 . S
H150 C149 0.952 . S
H151 C147 0.950 . S
Tb152 C154 2.809 . S
Tb152 O172 2.472 1_455 S
Tb152 O173 2.440 . S
Tb152 O174 2.658 1_565 S
Tb152 O175 2.409 . S
Tb152 O176 2.378 . S
Tb152 O180 2.325 1_455 S
Tb152 O183 2.341 1_565 S
Tb153 C163 2.809 . S
Tb153 O174 2.325 1_655 S
Tb153 O177 2.341 1_545 S
Tb153 O178 2.467 1_655 S
Tb153 O179 2.440 . S
Tb153 O180 2.658 1_545 S
Tb153 O181 2.409 . S
Tb153 O182 2.378 . S
C154 Tb152 2.809 . S
C154 C155 1.514 1_556 S
C154 O172 1.219 1_455 S
C154 O173 1.266 . S
C155 C154 1.514 1_554 S
C155 C156 1.359 . S
C155 C160 1.348 . S
C156 C155 1.359 . S
C156 C157 1.380 . S
C156 H184 0.929 1_455 S
C157 C156 1.380 . S
C157 C158 1.347 . S
C157 H185 0.931 1_455 S
C158 C157 1.347 . S
C158 C159 1.369 . S
C159 C158 1.369 . S
C159 C160 1.408 . S
C159 H186 0.930 . S
C160 C155 1.348 . S
C160 C159 1.408 . S
C160 H187 0.930 1_554 S
C161 O174 1.281 1_565 S
C161 O175 1.254 . S
C162 O176 1.236 1_655 S
C162 O177 1.266 . S
C163 Tb153 2.809 . S
C163 C164 1.514 . S
C163 O178 1.209 1_655 S
C163 O179 1.266 . S
C164 C163 1.514 . S
C164 C165 1.359 . S
C164 C169 1.348 . S
C165 C164 1.359 . S
C165 C166 1.380 . S
C165 H188 0.929 1_655 S
C166 C165 1.380 . S
C166 C167 1.347 . S
C166 H189 0.931 1_655 S
C167 C166 1.347 . S
C167 C168 1.369 . S
C168 C167 1.369 . S
C168 C169 1.408 . S
C168 H190 0.930 . S
C169 C164 1.348 . S
C169 C168 1.408 . S
C169 H191 0.930 . S
C170 O180 1.281 1_545 S
C170 O181 1.254 . S
C171 O182 1.236 1_455 S
C171 O183 1.266 . S
O172 Tb152 2.472 1_655 S
O172 C154 1.219 1_655 S
O173 Tb152 2.440 . S
O173 C154 1.266 . S
O174 Tb152 2.658 1_545 S
O174 Tb153 2.325 1_455 S
O174 C161 1.281 1_545 S
O175 Tb152 2.409 . S
O175 C161 1.254 . S
O176 Tb152 2.378 . S
O176 C162 1.236 1_455 S
O177 Tb153 2.341 1_565 S
O177 C162 1.266 . S
O178 Tb153 2.467 1_455 S
O178 C163 1.209 1_455 S
O179 Tb153 2.440 . S
O179 C163 1.266 . S
O180 Tb152 2.325 1_655 S
O180 Tb153 2.658 1_565 S
O180 C170 1.281 1_565 S
O181 Tb153 2.409 . S
O181 C170 1.254 . S
O182 Tb153 2.378 . S
O182 C171 1.236 1_655 S
O183 Tb152 2.341 1_545 S
O183 C171 1.266 . S
H184 C156 0.929 1_655 S
H185 C157 0.931 1_655 S
H186 C159 0.930 . S
H187 C160 0.930 1_556 S
H188 C165 0.929 1_455 S
H189 C166 0.931 1_455 S
H190 C168 0.930 . S
H191 C169 0.930 . S
Tb192 C194 2.809 . S
Tb192 O212 2.466 1_545 S
Tb192 O213 2.440 . S
Tb192 O214 2.658 . S
Tb192 O215 2.409 . S
Tb192 O216 2.378 . S
Tb192 O220 2.325 1_545 S
Tb192 O223 2.341 . S
Tb193 C203 2.809 . S
Tb193 O214 2.325 1_565 S
Tb193 O217 2.341 . S
Tb193 O218 2.484 1_565 S
Tb193 O219 2.440 . S
Tb193 O220 2.658 . S
Tb193 O221 2.409 . S
Tb193 O222 2.378 . S
C194 Tb192 2.809 . S
C194 C195 1.514 1_556 S
C194 O212 1.207 1_545 S
C194 O213 1.266 . S
C195 C194 1.514 1_554 S
C195 C196 1.359 . S
C195 C200 1.348 . S
C196 C195 1.359 . S
C196 C197 1.380 . S
C196 H224 0.929 1_545 S
C197 C196 1.380 . S
C197 C198 1.347 . S
C197 H225 0.931 1_545 S
C198 C197 1.347 . S
C198 C199 1.369 . S
C199 C198 1.369 . S
C199 C200 1.408 . S
C199 H226 0.930 . S
C200 C195 1.348 . S
C200 C199 1.408 . S
C200 H227 0.930 1_554 S
C201 O214 1.281 . S
C201 O215 1.254 . S
C202 O216 1.236 1_565 S
C202 O217 1.266 . S
C203 Tb193 2.809 . S
C203 C204 1.514 . S
C203 O218 1.248 1_565 S
C203 O219 1.266 . S
C204 C203 1.514 . S
C204 C205 1.359 . S
C204 C209 1.348 . S
C205 C204 1.359 . S
C205 C206 1.380 . S
C205 H228 0.929 1_565 S
C206 C205 1.380 . S
C206 C207 1.347 . S
C206 H229 0.931 1_565 S
C207 C206 1.347 . S
C207 C208 1.369 . S
C208 C207 1.369 . S
C208 C209 1.408 . S
C208 H230 0.930 . S
C209 C204 1.348 . S
C209 C208 1.408 . S
C209 H231 0.930 . S
C210 O220 1.281 . S
C210 O221 1.254 . S
C211 O222 1.236 1_545 S
C211 O223 1.266 . S
O212 Tb192 2.466 1_565 S
O212 C194 1.207 1_565 S
O213 Tb192 2.440 . S
O213 C194 1.266 . S
O214 Tb192 2.658 . S
O214 Tb193 2.325 1_545 S
O214 C201 1.281 . S
O215 Tb192 2.409 . S
O215 C201 1.254 . S
O216 Tb192 2.378 . S
O216 C202 1.236 1_545 S
O217 Tb193 2.341 . S
O217 C202 1.266 . S
O218 Tb193 2.484 1_545 S
O218 C203 1.248 1_545 S
O219 Tb193 2.440 . S
O219 C203 1.266 . S
O220 Tb192 2.325 1_565 S
O220 Tb193 2.658 . S
O220 C210 1.281 . S
O221 Tb193 2.409 . S
O221 C210 1.254 . S
O222 Tb193 2.378 . S
O222 C211 1.236 1_565 S
O223 Tb192 2.341 . S
O223 C211 1.266 . S
H224 C196 0.929 1_565 S
H225 C197 0.931 1_565 S
H226 C199 0.930 . S
H227 C200 0.930 1_556 S
H228 C205 0.929 1_545 S
H229 C206 0.931 1_545 S
H230 C208 0.930 . S
H231 C209 0.930 . S
Tb232 C234 2.809 . S
Tb232 O252 2.484 . S
Tb232 O253 2.440 . S
Tb232 O254 2.658 . S
Tb232 O255 2.409 . S
Tb232 O256 2.378 . S
Tb232 O260 2.325 . S
Tb232 O263 2.341 . S
Tb233 C243 2.809 . S
Tb233 O254 2.325 . S
Tb233 O257 2.341 . S
Tb233 O258 2.484 . S
Tb233 O259 2.440 . S
Tb233 O260 2.658 . S
Tb233 O261 2.409 . S
Tb233 O262 2.378 . S
C234 Tb232 2.809 . S
C234 C235 1.514 1_556 S
C234 O252 1.248 . S
C234 O253 1.266 . S
C235 C234 1.514 1_554 S
C235 C236 1.359 . S
C235 C240 1.348 . S
C236 C235 1.359 . S
C236 C237 1.380 . S
C236 H264 0.929 . S
C237 C236 1.380 . S
C237 C238 1.347 . S
C237 H265 0.931 . S
C238 C237 1.347 . S
C238 C239 1.369 . S
C239 C238 1.369 . S
C239 C240 1.408 . S
C239 H266 0.930 . S
C240 C235 1.348 . S
C240 C239 1.408 . S
C240 H267 0.930 1_554 S
C241 O254 1.281 . S
C241 O255 1.254 . S
C242 O256 1.236 . S
C242 O257 1.266 . S
C243 Tb233 2.809 . S
C243 C244 1.514 . S
C243 O258 1.248 . S
C243 O259 1.266 . S
C244 C243 1.514 . S
C244 C245 1.359 . S
C244 C249 1.348 . S
C245 C244 1.359 . S
C245 C246 1.380 . S
C245 H268 0.929 . S
C246 C245 1.380 . S
C246 C247 1.347 . S
C246 H269 0.931 . S
C247 C246 1.347 . S
C247 C248 1.369 . S
C248 C247 1.369 . S
C248 C249 1.408 . S
C248 H270 0.930 . S
C249 C244 1.348 . S
C249 C248 1.408 . S
C249 H271 0.930 . S
C250 O260 1.281 . S
C250 O261 1.254 . S
C251 O262 1.236 . S
C251 O263 1.266 . S
O252 Tb232 2.484 . S
O252 C234 1.248 . S
O253 Tb232 2.440 . S
O253 C234 1.266 . S
O254 Tb232 2.658 . S
O254 Tb233 2.325 . S
O254 C241 1.281 . S
O255 Tb232 2.409 . S
O255 C241 1.254 . S
O256 Tb232 2.378 . S
O256 C242 1.236 . S
O257 Tb233 2.341 . S
O257 C242 1.266 . S
O258 Tb233 2.484 . S
O258 C243 1.248 . S
O259 Tb233 2.440 . S
O259 C243 1.266 . S
O260 Tb232 2.325 . S
O260 Tb233 2.658 . S
O260 C250 1.281 . S
O261 Tb233 2.409 . S
O261 C250 1.254 . S
O262 Tb233 2.378 . S
O262 C251 1.236 . S
O263 Tb232 2.341 . S
O263 C251 1.266 . S
H264 C236 0.929 . S
H265 C237 0.931 . S
H266 C239 0.930 . S
H267 C240 0.930 1_556 S
H268 C245 0.929 . S
H269 C246 0.931 . S
H270 C248 0.930 . S
H271 C249 0.930 . S
Tb272 C274 2.809 . S
Tb272 O292 2.484 . S
Tb272 O293 2.440 . S
Tb272 O294 2.658 1_655 S
Tb272 O295 2.409 . S
Tb272 O296 2.378 . S
Tb272 O300 2.325 . S
Tb272 O303 2.341 1_655 S
Tb273 C283 2.809 . S
Tb273 O294 2.325 . S
Tb273 O297 2.341 1_455 S
Tb273 O298 2.484 . S
Tb273 O299 2.440 . S
Tb273 O300 2.658 1_455 S
Tb273 O301 2.409 . S
Tb273 O302 2.378 . S
C274 Tb272 2.809 . S
C274 C275 1.514 1_556 S
C274 O292 1.248 . S
C274 O293 1.266 . S
C275 C274 1.514 1_554 S
C275 C276 1.359 . S
C275 C280 1.348 . S
C276 C275 1.359 . S
C276 C277 1.380 . S
C276 H304 0.929 . S
C277 C276 1.380 . S
C277 C278 1.347 . S
C277 H305 0.931 . S
C278 C277 1.347 . S
C278 C279 1.369 . S
C279 C278 1.369 . S
C279 C280 1.408 . S
C279 H306 0.930 . S
C280 C275 1.348 . S
C280 C279 1.408 . S
C280 H307 0.930 1_554 S
C281 O294 1.271 1_655 S
C281 O295 1.268 . S
C282 O296 1.236 . S
C282 O297 1.266 . S
C283 Tb273 2.809 . S
C283 C284 1.514 . S
C283 O298 1.248 . S
C283 O299 1.266 . S
C284 C283 1.514 . S
C284 C285 1.359 . S
C284 C289 1.348 . S
C285 C284 1.359 . S
C285 C286 1.380 . S
C285 H308 0.929 . S
C286 C285 1.380 . S
C286 C287 1.347 . S
C286 H309 0.931 . S
C287 C286 1.347 . S
C287 C288 1.369 . S
C288 C287 1.369 . S
C288 C289 1.408 . S
C288 H310 0.930 . S
C289 C284 1.348 . S
C289 C288 1.408 . S
C289 H311 0.930 . S
C290 O300 1.267 1_455 S
C290 O301 1.273 . S
C291 O302 1.236 . S
C291 O303 1.266 . S
O292 Tb272 2.484 . S
O292 C274 1.248 . S
O293 Tb272 2.440 . S
O293 C274 1.266 . S
O294 Tb272 2.658 1_455 S
O294 Tb273 2.325 . S
O294 C281 1.271 1_455 S
O295 Tb272 2.409 . S
O295 C281 1.268 . S
O296 Tb272 2.378 . S
O296 C282 1.236 . S
O297 Tb273 2.341 1_655 S
O297 C282 1.266 . S
O298 Tb273 2.484 . S
O298 C283 1.248 . S
O299 Tb273 2.440 . S
O299 C283 1.266 . S
O300 Tb272 2.325 . S
O300 Tb273 2.658 1_655 S
O300 C290 1.267 1_655 S
O301 Tb273 2.409 . S
O301 C290 1.273 . S
O302 Tb273 2.378 . S
O302 C291 1.236 . S
O303 Tb272 2.341 1_455 S
O303 C291 1.266 . S
H304 C276 0.929 . S
H305 C277 0.931 . S
H306 C279 0.930 . S
H307 C280 0.930 1_556 S
H308 C285 0.929 . S
H309 C286 0.931 . S
H310 C288 0.930 . S
H311 C289 0.930 . S
H312 C324 0.930 . S
H313 C326 0.930 . S
H314 C327 0.930 . S
H315 C331 0.959 . S
H316 C331 0.959 . S
H317 C331 0.961 . S
H318 C332 0.960 . S
H319 C332 0.961 . S
H320 C332 0.959 . S
H321 C335 0.929 . S
H322 C336 0.931 . S
H323 C338 0.930 . S
C324 H312 0.930 . S
C324 C325 1.399 1_545 S
C324 C329 1.399 . S
C325 C324 1.399 1_565 S
C325 C326 1.376 . S
C326 H313 0.930 . S
C326 C325 1.376 . S
C326 C327 1.388 . S
C327 H314 0.930 . S
C327 C326 1.388 . S
C327 C328 1.390 . S
C328 C327 1.390 . S
C328 C329 1.394 1_565 S
C328 C334 1.465 . S
C329 C324 1.399 . S
C329 C328 1.394 1_545 S
C329 C330 1.516 . S
C330 C329 1.516 . S
C330 C331 1.502 . S
C330 C332 1.561 . S
C330 C333 1.526 . S
C331 H315 0.959 . S
C331 H316 0.959 . S
C331 H317 0.961 . S
C331 C330 1.502 . S
C332 H318 0.960 . S
C332 H319 0.961 . S
C332 H320 0.959 . S
C332 C330 1.561 . S
C333 C330 1.526 . S
C333 C334 1.396 1_545 S
C333 C338 1.390 . S
C334 C328 1.465 . S
C334 C333 1.396 1_565 S
C334 C335 1.399 . S
C335 H321 0.929 . S
C335 C334 1.399 . S
C335 C336 1.385 . S
C336 H322 0.931 . S
C336 C335 1.385 . S
C336 C337 1.389 . S
C337 C336 1.389 . S
C337 C338 1.387 1_565 S
C338 H323 0.930 . S
C338 C333 1.390 . S
C338 C337 1.387 1_545 S
H339 C351 0.930 . S
H340 C353 0.930 . S
H341 C354 0.930 . S
H342 C358 0.959 . S
H343 C358 0.959 . S
H344 C358 0.961 . S
H345 C359 0.960 . S
H346 C359 0.961 . S
H347 C359 0.959 . S
H348 C362 0.929 . S
H349 C363 0.931 . S
H350 C365 0.930 . S
C351 H339 0.930 . S
C351 C352 1.399 . S
C351 C356 1.399 . S
C352 C351 1.399 . S
C352 C353 1.376 . S
C353 H340 0.930 . S
C353 C352 1.376 . S
C353 C354 1.388 . S
C354 H341 0.930 . S
C354 C353 1.388 . S
C354 C355 1.390 . S
C355 C354 1.390 . S
C355 C356 1.394 . S
C355 C361 1.465 . S
C356 C351 1.399 . S
C356 C355 1.394 . S
C356 C357 1.516 . S
C357 C356 1.516 . S
C357 C358 1.502 . S
C357 C359 1.561 . S
C357 C360 1.526 . S
C358 H342 0.959 . S
C358 H343 0.959 . S
C358 H344 0.961 . S
C358 C357 1.502 . S
C359 H345 0.960 . S
C359 H346 0.961 . S
C359 H347 0.959 . S
C359 C357 1.561 . S
C360 C357 1.526 . S
C360 C361 1.396 . S
C360 C365 1.390 . S
C361 C355 1.465 . S
C361 C360 1.396 . S
C361 C362 1.399 . S
C362 H348 0.929 . S
C362 C361 1.399 . S
C362 C363 1.385 . S
C363 H349 0.931 . S
C363 C362 1.385 . S
C363 C364 1.389 . S
C364 C363 1.389 . S
C364 C365 1.387 . S
C365 H350 0.930 . S
C365 C360 1.390 . S
C365 C364 1.387 . S
H366 C378 0.930 . S
H367 C380 0.930 . S
H368 C381 0.930 . S
H369 C385 0.959 . S
H370 C385 0.959 . S
H371 C385 0.961 . S
H372 C386 0.960 . S
H373 C386 0.961 . S
H374 C386 0.959 . S
H375 C389 0.929 . S
H376 C390 0.931 . S
H377 C392 0.930 . S
C378 H366 0.930 . S
C378 C379 1.399 . S
C378 C383 1.399 . S
C379 C378 1.399 . S
C379 C380 1.376 . S
C380 H367 0.930 . S
C380 C379 1.376 . S
C380 C381 1.388 . S
C381 H368 0.930 . S
C381 C380 1.388 . S
C381 C382 1.390 . S
C382 C381 1.390 . S
C382 C383 1.394 . S
C382 C388 1.465 . S
C383 C378 1.399 . S
C383 C382 1.394 . S
C383 C384 1.516 . S
C384 C383 1.516 . S
C384 C385 1.502 . S
C384 C386 1.561 . S
C384 C387 1.526 . S
C385 H369 0.959 . S
C385 H370 0.959 . S
C385 H371 0.961 . S
C385 C384 1.502 . S
C386 H372 0.960 . S
C386 H373 0.961 . S
C386 H374 0.959 . S
C386 C384 1.561 . S
C387 C384 1.526 . S
C387 C388 1.396 . S
C387 C392 1.390 . S
C388 C382 1.465 . S
C388 C387 1.396 . S
C388 C389 1.399 . S
C389 H375 0.929 . S
C389 C388 1.399 . S
C389 C390 1.385 . S
C390 H376 0.931 . S
C390 C389 1.385 . S
C390 C391 1.389 . S
C391 C390 1.389 . S
C391 C392 1.387 . S
C392 H377 0.930 . S
C392 C387 1.390 . S
C392 C391 1.387 . S
H393 C405 0.930 . S
H394 C407 0.932 . S
H395 C408 0.932 . S
H396 C412 0.959 . S
H397 C412 0.959 . S
H398 C412 0.961 . S
H399 C413 0.960 . S
H400 C413 0.961 . S
H401 C413 0.959 . S
H402 C416 0.929 . S
H403 C417 0.929 1_655 S
H404 C419 0.930 . S
C405 H393 0.930 . S
C405 C406 1.399 . S
C405 C410 1.399 . S
C406 C405 1.399 . S
C406 C407 1.376 . S
C407 H394 0.932 . S
C407 C406 1.376 . S
C407 C408 1.388 . S
C408 H395 0.932 . S
C408 C407 1.388 . S
C408 C409 1.390 . S
C409 C408 1.390 . S
C409 C410 1.394 . S
C409 C415 1.465 . S
C410 C405 1.399 . S
C410 C409 1.394 . S
C410 C411 1.516 . S
C411 C410 1.516 . S
C411 C412 1.502 1_455 S
C411 C413 1.561 . S
C411 C414 1.526 . S
C412 H396 0.959 . S
C412 H397 0.959 . S
C412 H398 0.961 . S
C412 C411 1.502 1_655 S
C413 H399 0.960 . S
C413 H400 0.961 . S
C413 H401 0.959 . S
C413 C411 1.561 . S
C414 C411 1.526 . S
C414 C415 1.396 . S
C414 C419 1.390 . S
C415 C409 1.465 . S
C415 C414 1.396 . S
C415 C416 1.401 . S
C416 H402 0.929 . S
C416 C415 1.401 . S
C416 C417 1.385 . S
C417 H403 0.929 1_455 S
C417 C416 1.385 . S
C417 C418 1.388 . S
C418 C417 1.388 . S
C418 C419 1.391 . S
C419 H404 0.930 . S
C419 C414 1.390 . S
C419 C418 1.391 . S
H420 C432 0.930 . S
H421 C434 0.930 . S
H422 C435 0.930 . S
H423 C439 0.959 1_556 S
H424 C439 0.959 1_556 S
H425 C439 0.961 . S
H426 C440 0.960 . S
H427 C440 0.961 . S
H428 C440 0.959 . S
H429 C443 0.929 . S
H430 C444 0.931 . S
H431 C446 0.930 . S
C432 H420 0.930 . S
C432 C433 1.399 1_545 S
C432 C437 1.399 . S
C433 C432 1.399 1_565 S
C433 C434 1.376 . S
C434 H421 0.930 . S
C434 C433 1.376 . S
C434 C435 1.388 . S
C435 H422 0.930 . S
C435 C434 1.388 . S
C435 C436 1.390 . S
C436 C435 1.390 . S
C436 C437 1.394 1_565 S
C436 C442 1.465 . S
C437 C432 1.399 . S
C437 C436 1.394 1_545 S
C437 C438 1.516 . S
C438 C437 1.516 . S
C438 C439 1.502 . S
C438 C440 1.561 . S
C438 C441 1.526 . S
C439 H423 0.959 1_554 S
C439 H424 0.959 1_554 S
C439 H425 0.961 . S
C439 C438 1.502 . S
C440 H426 0.960 . S
C440 H427 0.961 . S
C440 H428 0.959 . S
C440 C438 1.561 . S
C441 C438 1.526 . S
C441 C442 1.396 1_545 S
C441 C446 1.390 1_554 S
C442 C436 1.465 . S
C442 C441 1.396 1_565 S
C442 C443 1.399 . S
C443 H429 0.929 . S
C443 C442 1.399 . S
C443 C444 1.385 1_554 S
C444 H430 0.931 . S
C444 C443 1.385 1_556 S
C444 C445 1.389 . S
C445 C444 1.389 . S
C445 C446 1.387 1_565 S
C446 H431 0.930 . S
C446 C441 1.390 1_556 S
C446 C445 1.387 1_545 S
H447 C459 0.930 . S
H448 C461 0.930 . S
H449 C462 0.930 . S
H450 C466 0.959 . S
H451 C466 0.959 . S
H452 C466 0.961 . S
H453 C467 0.960 . S
H454 C467 0.961 . S
H455 C467 0.959 . S
H456 C470 0.929 . S
H457 C471 0.931 . S
H458 C473 0.930 . S
C459 H447 0.930 . S
C459 C460 1.399 . S
C459 C464 1.399 . S
C460 C459 1.399 . S
C460 C461 1.376 . S
C461 H448 0.930 . S
C461 C460 1.376 . S
C461 C462 1.388 . S
C462 H449 0.930 . S
C462 C461 1.388 . S
C462 C463 1.390 . S
C463 C462 1.390 . S
C463 C464 1.394 . S
C463 C469 1.465 . S
C464 C459 1.399 . S
C464 C463 1.394 . S
C464 C465 1.516 . S
C465 C464 1.516 . S
C465 C466 1.502 . S
C465 C467 1.561 . S
C465 C468 1.526 . S
C466 H450 0.959 . S
C466 H451 0.959 . S
C466 H452 0.961 . S
C466 C465 1.502 . S
C467 H453 0.960 . S
C467 H454 0.961 . S
C467 H455 0.959 . S
C467 C465 1.561 . S
C468 C465 1.526 . S
C468 C469 1.396 . S
C468 C473 1.390 . S
C469 C463 1.465 . S
C469 C468 1.396 . S
C469 C470 1.399 1_554 S
C470 H456 0.929 . S
C470 C469 1.399 1_556 S
C470 C471 1.385 . S
C471 H457 0.931 . S
C471 C470 1.385 . S
C471 C472 1.389 . S
C472 C471 1.389 . S
C472 C473 1.387 1_556 S
C473 H458 0.930 . S
C473 C468 1.390 . S
C473 C472 1.387 1_554 S
H474 C486 0.930 . S
H475 C488 0.930 . S
H476 C489 0.930 . S
H477 C493 0.959 . S
H478 C493 0.959 . S
H479 C493 0.961 . S
H480 C494 0.960 . S
H481 C494 0.961 . S
H482 C494 0.959 . S
H483 C497 0.929 . S
H484 C498 0.931 . S
H485 C500 0.930 1_554 S
C486 H474 0.930 . S
C486 C487 1.399 . S
C486 C491 1.399 . S
C487 C486 1.399 . S
C487 C488 1.376 . S
C488 H475 0.930 . S
C488 C487 1.376 . S
C488 C489 1.388 . S
C489 H476 0.930 . S
C489 C488 1.388 . S
C489 C490 1.390 . S
C490 C489 1.390 . S
C490 C491 1.394 . S
C490 C496 1.465 . S
C491 C486 1.399 . S
C491 C490 1.394 . S
C491 C492 1.516 . S
C492 C491 1.516 . S
C492 C493 1.502 . S
C492 C494 1.561 . S
C492 C495 1.526 . S
C493 H477 0.959 . S
C493 H478 0.959 . S
C493 H479 0.961 . S
C493 C492 1.502 . S
C494 H480 0.960 . S
C494 H481 0.961 . S
C494 H482 0.959 . S
C494 C492 1.561 . S
C495 C492 1.526 . S
C495 C496 1.396 . S
C495 C500 1.390 1_554 S
C496 C490 1.465 . S
C496 C495 1.396 . S
C496 C497 1.399 1_554 S
C497 H483 0.929 . S
C497 C496 1.399 1_556 S
C497 C498 1.385 . S
C498 H484 0.931 . S
C498 C497 1.385 . S
C498 C499 1.389 . S
C499 C498 1.389 . S
C499 C500 1.387 . S
C500 H485 0.930 1_556 S
C500 C495 1.390 1_556 S
C500 C499 1.387 . S
H501 C513 0.930 . S
H502 C515 0.930 . S
H503 C516 0.930 . S
H504 C520 0.959 . S
H505 C520 0.959 . S
H506 C520 0.961 . S
H507 C521 0.960 . S
H508 C521 0.961 . S
H509 C521 0.959 . S
H510 C524 0.929 . S
H511 C525 0.931 . S
H512 C527 0.930 . S
C513 H501 0.930 . S
C513 C514 1.399 1_455 S
C513 C518 1.401 . S
C514 C513 1.399 1_655 S
C514 C515 1.376 . S
C515 H502 0.930 . S
C515 C514 1.376 . S
C515 C516 1.388 . S
C516 H503 0.930 . S
C516 C515 1.388 . S
C516 C517 1.390 . S
C517 C516 1.390 . S
C517 C518 1.388 1_655 S
C517 C523 1.465 . S
C518 C513 1.401 . S
C518 C517 1.388 1_455 S
C518 C519 1.519 . S
C519 C518 1.519 . S
C519 C520 1.502 . S
C519 C521 1.561 1_455 S
C519 C522 1.527 . S
C520 H504 0.959 . S
C520 H505 0.959 . S
C520 H506 0.961 . S
C520 C519 1.502 . S
C521 H507 0.960 . S
C521 H508 0.961 . S
C521 H509 0.959 . S
C521 C519 1.561 1_655 S
C522 C519 1.527 . S
C522 C523 1.393 1_455 S
C522 C527 1.390 . S
C523 C517 1.465 . S
C523 C522 1.393 1_655 S
C523 C524 1.399 1_554 S
C524 H510 0.929 . S
C524 C523 1.399 1_556 S
C524 C525 1.385 . S
C525 H511 0.931 . S
C525 C524 1.385 . S
C525 C526 1.389 . S
C526 C525 1.389 . S
C526 C527 1.387 1_656 S
C527 H512 0.930 . S
C527 C522 1.390 . S
C527 C526 1.387 1_454 S
H528 C540 0.930 . S
H529 C542 0.930 . S
H530 C543 0.930 . S
H531 C547 0.959 . S
H532 C547 0.959 . S
H533 C547 0.961 . S
H534 C548 0.960 . S
H535 C548 0.961 . S
H536 C548 0.959 . S
H537 C551 0.929 . S
H538 C552 0.931 1_455 S
H539 C554 0.930 . S
C540 H528 0.930 . S
C540 C541 1.399 1_655 S
C540 C545 1.399 . S
C541 C540 1.399 1_455 S
C541 C542 1.376 . S
C542 H529 0.930 . S
C542 C541 1.376 . S
C542 C543 1.388 . S
C543 H530 0.930 . S
C543 C542 1.388 . S
C543 C544 1.390 . S
C544 C543 1.390 . S
C544 C545 1.394 1_455 S
C544 C550 1.465 1_455 S
C545 C540 1.399 . S
C545 C544 1.394 1_655 S
C545 C546 1.516 . S
C546 C545 1.516 . S
C546 C547 1.502 . S
C546 C548 1.561 . S
C546 C549 1.526 . S
C547 H531 0.959 . S
C547 H532 0.959 . S
C547 H533 0.961 . S
C547 C546 1.502 . S
C548 H534 0.960 . S
C548 H535 0.961 . S
C548 H536 0.959 . S
C548 C546 1.561 . S
C549 C546 1.526 . S
C549 C550 1.396 . S
C549 C554 1.390 . S
C550 C544 1.465 1_655 S
C550 C549 1.396 . S
C550 C551 1.399 1_655 S
C551 H537 0.929 . S
C551 C550 1.399 1_455 S
C551 C552 1.385 1_455 S
C552 H538 0.931 1_655 S
C552 C551 1.385 1_655 S
C552 C553 1.389 . S
C553 C552 1.389 . S
C553 C554 1.387 . S
C554 H539 0.930 . S
C554 C549 1.390 . S
C554 C553 1.387 . S
H555 C567 0.930 . S
H556 C569 0.930 . S
H557 C570 0.930 . S
H558 C574 0.959 . S
H559 C574 0.959 . S
H560 C574 0.961 . S
H561 C575 0.972 . S
H562 C575 0.961 . S
H563 C575 0.959 . S
H564 C578 0.929 . S
H565 C579 0.931 . S
H566 C581 0.930 . S
C567 H555 0.930 . S
C567 C568 1.399 1_545 S
C567 C572 1.399 1_545 S
C568 C567 1.399 1_565 S
C568 C569 1.376 . S
C569 H556 0.930 . S
C569 C568 1.376 . S
C569 C570 1.388 . S
C570 H557 0.930 . S
C570 C569 1.388 . S
C570 C571 1.390 . S
C571 C570 1.390 . S
C571 C572 1.394 . S
C571 C577 1.465 . S
C572 C567 1.399 1_565 S
C572 C571 1.394 . S
C572 C573 1.516 1_565 S
C573 C572 1.516 1_545 S
C573 C574 1.502 . S
C573 C575 1.561 1_545 S
C573 C576 1.526 1_545 S
C574 H558 0.959 . S
C574 H559 0.959 . S
C574 H560 0.961 . S
C574 C573 1.502 . S
C575 H561 0.972 . S
C575 H562 0.961 . S
C575 H563 0.959 . S
C575 C573 1.561 1_565 S
C576 C573 1.526 1_565 S
C576 C577 1.396 . S
C576 C581 1.390 . S
C577 C571 1.465 . S
C577 C576 1.396 . S
C577 C578 1.399 . S
C578 H564 0.929 . S
C578 C577 1.399 . S
C578 C579 1.385 . S
C579 H565 0.931 . S
C579 C578 1.385 . S
C579 C580 1.389 . S
C580 C579 1.389 . S
C580 C581 1.387 . S
C581 H566 0.930 . S
C581 C576 1.390 . S
C581 C580 1.387 . S
H582 C594 0.930 . S
H583 C596 0.930 1_556 S
H584 C597 0.930 . S
H585 C601 0.959 . S
H586 C601 0.959 . S
H587 C601 0.961 . S
H588 C602 0.960 . S
H589 C602 0.961 . S
H590 C602 0.959 . S
H591 C605 0.929 . S
H592 C606 0.931 . S
H593 C608 0.930 . S
C594 H582 0.930 . S
C594 C595 1.399 . S
C594 C599 1.399 . S
C595 C594 1.399 . S
C595 C596 1.376 . S
C596 H583 0.930 1_554 S
C596 C595 1.376 . S
C596 C597 1.388 . S
C597 H584 0.930 . S
C597 C596 1.388 . S
C597 C598 1.390 . S
C598 C597 1.390 . S
C598 C599 1.394 . S
C598 C604 1.465 . S
C599 C594 1.399 . S
C599 C598 1.394 . S
C599 C600 1.516 . S
C600 C599 1.516 . S
C600 C601 1.502 . S
C600 C602 1.561 . S
C600 C603 1.526 . S
C601 H585 0.959 . S
C601 H586 0.959 . S
C601 H587 0.961 . S
C601 C600 1.502 . S
C602 H588 0.960 . S
C602 H589 0.961 . S
C602 H590 0.959 . S
C602 C600 1.561 . S
C603 C600 1.526 . S
C603 C604 1.396 . S
C603 C608 1.390 . S
C604 C598 1.465 . S
C604 C603 1.396 . S
C604 C605 1.399 . S
C605 H591 0.929 . S
C605 C604 1.399 . S
C605 C606 1.385 . S
C606 H592 0.931 . S
C606 C605 1.385 . S
C606 C607 1.389 . S
C607 C606 1.389 . S
C607 C608 1.387 . S
C608 H593 0.930 . S
C608 C603 1.390 . S
C608 C607 1.387 . S
H609 C621 0.930 . S
H610 C623 0.930 . S
H611 C624 0.930 . S
H612 C628 0.959 . S
H613 C628 0.959 . S
H614 C628 0.961 . S
H615 C629 0.960 . S
H616 C629 0.961 . S
H617 C629 0.959 . S
H618 C632 0.929 . S
H619 C633 0.931 . S
H620 C635 0.930 . S
C621 H609 0.930 . S
C621 C622 1.399 . S
C621 C626 1.399 . S
C622 C621 1.399 . S
C622 C623 1.376 . S
C623 H610 0.930 . S
C623 C622 1.376 . S
C623 C624 1.388 . S
C624 H611 0.930 . S
C624 C623 1.388 . S
C624 C625 1.390 . S
C625 C624 1.390 . S
C625 C626 1.394 . S
C625 C631 1.465 . S
C626 C621 1.399 . S
C626 C625 1.394 . S
C626 C627 1.516 . S
C627 C626 1.516 . S
C627 C628 1.502 . S
C627 C629 1.561 . S
C627 C630 1.526 . S
C628 H612 0.959 . S
C628 H613 0.959 . S
C628 H614 0.961 . S
C628 C627 1.502 . S
C629 H615 0.960 . S
C629 H616 0.961 . S
C629 H617 0.959 . S
C629 C627 1.561 . S
C630 C627 1.526 . S
C630 C631 1.396 . S
C630 C635 1.390 . S
C631 C625 1.465 . S
C631 C630 1.396 . S
C631 C632 1.399 . S
C632 H618 0.929 . S
C632 C631 1.399 . S
C632 C633 1.385 . S
C633 H619 0.931 . S
C633 C632 1.385 . S
C633 C634 1.389 . S
C634 C633 1.389 . S
C634 C635 1.387 . S
C635 H620 0.930 . S
C635 C630 1.390 . S
C635 C634 1.387 . S
H636 C648 0.930 . S
H637 C650 0.930 . S
H638 C651 0.930 . S
H639 C655 0.959 . S
H640 C655 0.959 . S
H641 C655 0.961 . S
H642 C656 0.960 . S
H643 C656 0.961 . S
H644 C656 0.959 . S
H645 C659 0.929 . S
H646 C660 0.931 . S
H647 C662 0.930 1_655 S
C648 H636 0.930 . S
C648 C649 1.374 1_655 S
C648 C653 1.399 . S
C649 C648 1.374 1_455 S
C649 C650 1.419 . S
C650 H637 0.930 . S
C650 C649 1.419 . S
C650 C651 1.388 . S
C651 H638 0.930 . S
C651 C650 1.388 . S
C651 C652 1.390 . S
C652 C651 1.390 . S
C652 C653 1.394 1_455 S
C652 C658 1.465 . S
C653 C648 1.399 . S
C653 C652 1.394 1_655 S
C653 C654 1.516 . S
C654 C653 1.516 . S
C654 C655 1.502 . S
C654 C656 1.561 . S
C654 C657 1.526 1_655 S
C655 H639 0.959 . S
C655 H640 0.959 . S
C655 H641 0.961 . S
C655 C654 1.502 . S
C656 H642 0.960 . S
C656 H643 0.961 . S
C656 H644 0.959 . S
C656 C654 1.561 . S
C657 C654 1.526 1_455 S
C657 C658 1.396 . S
C657 C662 1.390 . S
C658 C652 1.465 . S
C658 C657 1.396 . S
C658 C659 1.399 . S
C659 H645 0.929 . S
C659 C658 1.399 . S
C659 C660 1.385 . S
C660 H646 0.931 . S
C660 C659 1.385 . S
C660 C661 1.389 . S
C661 C660 1.389 . S
C661 C662 1.387 . S
C662 H647 0.930 1_455 S
C662 C657 1.390 . S
C662 C661 1.387 . S
H663 C675 0.930 . S
H664 C677 0.930 . S
H665 C678 0.930 . S
H666 C682 0.959 . S
H667 C682 0.959 . S
H668 C682 0.961 . S
H669 C683 0.960 . S
H670 C683 0.961 . S
H671 C683 0.959 . S
H672 C686 0.929 . S
H673 C687 0.931 . S
H674 C689 0.930 . S
C675 H663 0.930 . S
C675 C676 1.399 1_565 S
C675 C680 1.399 1_565 S
C676 C675 1.399 1_545 S
C676 C677 1.376 . S
C677 H664 0.930 . S
C677 C676 1.376 . S
C677 C678 1.388 . S
C678 H665 0.930 . S
C678 C677 1.388 . S
C678 C679 1.390 . S
C679 C678 1.390 . S
C679 C680 1.394 . S
C679 C685 1.465 . S
C680 C675 1.399 1_545 S
C680 C679 1.394 . S
C680 C681 1.516 1_545 S
C681 C680 1.516 1_565 S
C681 C682 1.502 . S
C681 C683 1.561 1_565 S
C681 C684 1.526 1_565 S
C682 H666 0.959 . S
C682 H667 0.959 . S
C682 H668 0.961 . S
C682 C681 1.502 . S
C683 H669 0.960 . S
C683 H670 0.961 . S
C683 H671 0.959 . S
C683 C681 1.561 1_545 S
C684 C681 1.526 1_545 S
C684 C685 1.396 . S
C684 C689 1.390 . S
C685 C679 1.465 . S
C685 C684 1.396 . S
C685 C686 1.399 . S
C686 H672 0.929 . S
C686 C685 1.399 . S
C686 C687 1.385 . S
C687 H673 0.931 . S
C687 C686 1.385 . S
C687 C688 1.389 . S
C688 C687 1.389 . S
C688 C689 1.387 . S
C689 H674 0.930 . S
C689 C684 1.390 . S
C689 C688 1.387 . S
H690 C702 0.930 . S
H691 C704 0.930 . S
H692 C705 0.930 . S
H693 C709 0.959 . S
H694 C709 0.959 . S
H695 C709 0.961 . S
H696 C710 0.960 . S
H697 C710 0.961 1_556 S
H698 C710 0.959 . S
H699 C713 0.929 . S
H700 C714 0.931 . S
H701 C716 0.930 . S
C702 H690 0.930 . S
C702 C703 1.399 . S
C702 C707 1.399 . S
C703 C702 1.399 . S
C703 C704 1.376 . S
C704 H691 0.930 . S
C704 C703 1.376 . S
C704 C705 1.388 . S
C705 H692 0.930 . S
C705 C704 1.388 . S
C705 C706 1.390 . S
C706 C705 1.390 . S
C706 C707 1.394 . S
C706 C712 1.465 . S
C707 C702 1.399 . S
C707 C706 1.394 . S
C707 C708 1.516 . S
C708 C707 1.516 . S
C708 C709 1.502 . S
C708 C710 1.561 . S
C708 C711 1.526 . S
C709 H693 0.959 . S
C709 H694 0.959 . S
C709 H695 0.961 . S
C709 C708 1.502 . S
C710 H696 0.960 . S
C710 H697 0.961 1_554 S
C710 H698 0.959 . S
C710 C708 1.561 . S
C711 C708 1.526 . S
C711 C712 1.396 . S
C711 C716 1.390 . S
C712 C706 1.465 . S
C712 C711 1.396 . S
C712 C713 1.399 . S
C713 H699 0.929 . S
C713 C712 1.399 . S
C713 C714 1.385 . S
C714 H700 0.931 . S
C714 C713 1.385 . S
C714 C715 1.389 . S
C715 C714 1.389 . S
C715 C716 1.387 . S
C716 H701 0.930 . S
C716 C711 1.390 . S
C716 C715 1.387 . S
H717 C729 0.930 . S
H718 C731 0.930 . S
H719 C732 0.930 . S
H720 C736 0.959 . S
H721 C736 0.959 . S
H722 C736 0.961 . S
H723 C737 0.960 . S
H724 C737 0.961 . S
H725 C737 0.959 . S
H726 C740 0.929 . S
H727 C741 0.931 1_556 S
H728 C743 0.930 . S
C729 H717 0.930 . S
C729 C730 1.399 . S
C729 C734 1.399 . S
C730 C729 1.399 . S
C730 C731 1.376 . S
C731 H718 0.930 . S
C731 C730 1.376 . S
C731 C732 1.388 . S
C732 H719 0.930 . S
C732 C731 1.388 . S
C732 C733 1.390 . S
C733 C732 1.390 . S
C733 C734 1.394 . S
C733 C739 1.465 . S
C734 C729 1.399 . S
C734 C733 1.394 . S
C734 C735 1.516 . S
C735 C734 1.516 . S
C735 C736 1.502 . S
C735 C737 1.561 . S
C735 C738 1.526 . S
C736 H720 0.959 . S
C736 H721 0.959 . S
C736 H722 0.961 . S
C736 C735 1.502 . S
C737 H723 0.960 . S
C737 H724 0.961 . S
C737 H725 0.959 . S
C737 C735 1.561 . S
C738 C735 1.526 . S
C738 C739 1.396 . S
C738 C743 1.390 . S
C739 C733 1.465 . S
C739 C738 1.396 . S
C739 C740 1.399 . S
C740 H726 0.929 . S
C740 C739 1.399 . S
C740 C741 1.385 . S
C741 H727 0.931 1_554 S
C741 C740 1.385 . S
C741 C742 1.389 . S
C742 C741 1.389 . S
C742 C743 1.387 . S
C743 H728 0.930 . S
C743 C738 1.390 . S
C743 C742 1.387 . S
H744 C756 0.930 . S
H745 C758 0.930 . S
H746 C759 0.930 . S
H747 C763 0.959 . S
H748 C763 0.959 . S
H749 C763 0.961 . S
H750 C764 0.960 . S
H751 C764 0.961 . S
H752 C764 0.959 . S
H753 C767 0.929 . S
H754 C768 0.931 . S
H755 C770 0.950 . S
C756 H744 0.930 . S
C756 C757 1.399 1_655 S
C756 C761 1.407 . S
C757 C756 1.399 1_455 S
C757 C758 1.376 . S
C758 H745 0.930 . S
C758 C757 1.376 . S
C758 C759 1.388 . S
C759 H746 0.930 . S
C759 C758 1.388 . S
C759 C760 1.390 . S
C760 C759 1.390 . S
C760 C761 1.373 1_455 S
C760 C766 1.465 . S
C761 C756 1.407 . S
C761 C760 1.373 1_655 S
C761 C762 1.527 . S
C762 C761 1.527 . S
C762 C763 1.502 . S
C762 C764 1.561 1_655 S
C762 C765 1.526 1_655 S
C763 H747 0.959 . S
C763 H748 0.959 . S
C763 H749 0.961 . S
C763 C762 1.502 . S
C764 H750 0.960 . S
C764 H751 0.961 . S
C764 H752 0.959 . S
C764 C762 1.561 1_455 S
C765 C762 1.526 1_455 S
C765 C766 1.396 . S
C765 C770 1.387 1_455 S
C766 C760 1.465 . S
C766 C765 1.396 . S
C766 C767 1.399 . S
C767 H753 0.929 . S
C767 C766 1.399 . S
C767 C768 1.385 . S
C768 H754 0.931 . S
C768 C767 1.385 . S
C768 C769 1.389 . S
C769 C768 1.389 . S
C769 C770 1.371 1_455 S
C770 H755 0.950 . S
C770 C765 1.387 1_655 S
C770 C769 1.371 1_655 S
H771 C783 0.930 . S
H772 C785 0.930 . S
H773 C786 0.930 . S
H774 C790 0.959 . S
H775 C790 0.959 . S
H776 C790 0.961 . S
H777 C791 0.960 1_565 S
H778 C791 0.961 1_565 S
H779 C791 0.959 . S
H780 C794 0.929 . S
H781 C795 0.931 . S
H782 C797 0.930 . S
C783 H771 0.930 . S
C783 C784 1.399 1_565 S
C783 C788 1.399 . S
C784 C783 1.399 1_545 S
C784 C785 1.376 . S
C785 H772 0.930 . S
C785 C784 1.376 . S
C785 C786 1.388 . S
C786 H773 0.930 . S
C786 C785 1.388 . S
C786 C787 1.390 . S
C787 C786 1.390 . S
C787 C788 1.394 1_545 S
C787 C793 1.465 . S
C788 C783 1.399 . S
C788 C787 1.394 1_565 S
C788 C789 1.516 . S
C789 C788 1.516 . S
C789 C790 1.502 . S
C789 C791 1.561 1_565 S
C789 C792 1.515 1_565 S
C790 H774 0.959 . S
C790 H775 0.959 . S
C790 H776 0.961 . S
C790 C789 1.502 . S
C791 H777 0.960 1_545 S
C791 H778 0.961 1_545 S
C791 H779 0.959 . S
C791 C789 1.561 1_545 S
C792 C789 1.515 1_545 S
C792 C793 1.412 . S
C792 C797 1.387 1_545 S
C793 C787 1.465 . S
C793 C792 1.412 . S
C793 C794 1.399 . S
C794 H780 0.929 . S
C794 C793 1.399 . S
C794 C795 1.385 . S
C795 H781 0.931 . S
C795 C794 1.385 . S
C795 C796 1.389 . S
C796 C795 1.389 . S
C796 C797 1.387 1_545 S
C797 H782 0.930 . S
C797 C792 1.387 1_565 S
C797 C796 1.387 1_565 S
H798 C810 0.930 . S
H799 C812 0.930 . S
H800 C813 0.930 . S
H801 C817 0.959 . S
H802 C817 0.959 1_554 S
H803 C817 0.961 1_554 S
H804 C818 0.960 . S
H805 C818 0.961 . S
H806 C818 0.959 . S
H807 C821 0.929 . S
H808 C822 0.931 . S
H809 C824 0.930 . S
C810 H798 0.930 . S
C810 C811 1.399 . S
C810 C815 1.399 . S
C811 C810 1.399 . S
C811 C812 1.376 . S
C812 H799 0.930 . S
C812 C811 1.376 . S
C812 C813 1.388 . S
C813 H800 0.930 . S
C813 C812 1.388 . S
C813 C814 1.390 . S
C814 C813 1.390 . S
C814 C815 1.394 . S
C814 C820 1.465 . S
C815 C810 1.399 . S
C815 C814 1.394 . S
C815 C816 1.516 . S
C816 C815 1.516 . S
C816 C817 1.502 . S
C816 C818 1.561 1_556 S
C816 C819 1.526 . S
C817 H801 0.959 . S
C817 H802 0.959 1_556 S
C817 H803 0.961 1_556 S
C817 C816 1.502 . S
C818 H804 0.960 . S
C818 H805 0.961 . S
C818 H806 0.959 . S
C818 C816 1.561 1_554 S
C819 C816 1.526 . S
C819 C820 1.396 . S
C819 C824 1.390 . S
C820 C814 1.465 . S
C820 C819 1.396 . S
C820 C821 1.399 . S
C821 H807 0.929 . S
C821 C820 1.399 . S
C821 C822 1.385 . S
C822 H808 0.931 . S
C822 C821 1.385 . S
C822 C823 1.389 . S
C823 C822 1.389 . S
C823 C824 1.387 . S
C824 H809 0.930 . S
C824 C819 1.390 . S
C824 C823 1.387 . S
H825 C837 0.930 . S
H826 C839 0.930 . S
H827 C840 0.930 . S
H828 C844 0.959 . S
H829 C844 0.959 1_554 S
H830 C844 0.961 1_554 S
H831 C845 0.960 . S
H832 C845 0.961 . S
H833 C845 0.959 . S
H834 C848 0.929 . S
H835 C849 0.931 . S
H836 C851 0.930 . S
C837 H825 0.930 . S
C837 C838 1.399 . S
C837 C842 1.399 . S
C838 C837 1.399 . S
C838 C839 1.376 . S
C839 H826 0.930 . S
C839 C838 1.376 . S
C839 C840 1.388 . S
C840 H827 0.930 . S
C840 C839 1.388 . S
C840 C841 1.390 . S
C841 C840 1.390 . S
C841 C842 1.394 . S
C841 C847 1.465 . S
C842 C837 1.399 . S
C842 C841 1.394 . S
C842 C843 1.516 . S
C843 C842 1.516 . S
C843 C844 1.502 . S
C843 C845 1.561 1_556 S
C843 C846 1.526 . S
C844 H828 0.959 . S
C844 H829 0.959 1_556 S
C844 H830 0.961 1_556 S
C844 C843 1.502 . S
C845 H831 0.960 . S
C845 H832 0.961 . S
C845 H833 0.959 . S
C845 C843 1.561 1_554 S
C846 C843 1.526 . S
C846 C847 1.396 . S
C846 C851 1.390 . S
C847 C841 1.465 . S
C847 C846 1.396 . S
C847 C848 1.399 . S
C848 H834 0.929 . S
C848 C847 1.399 . S
C848 C849 1.385 . S
C849 H835 0.931 . S
C849 C848 1.385 . S
C849 C850 1.389 . S
C850 C849 1.389 . S
C850 C851 1.387 . S
C851 H836 0.930 . S
C851 C846 1.390 . S
C851 C850 1.387 . S
H852 C864 0.930 . S
H853 C866 0.930 . S
H854 C867 0.930 . S
H855 C871 0.959 . S
H856 C871 0.959 . S
H857 C871 0.961 . S
H858 C872 0.962 . S
H859 C872 0.961 1_655 S
H860 C872 0.959 . S
H861 C875 0.929 . S
H862 C876 0.931 . S
H863 C878 0.930 . S
C864 H852 0.930 . S
C864 C865 1.390 1_655 S
C864 C869 1.399 . S
C865 C864 1.390 1_455 S
C865 C866 1.388 . S
C866 H853 0.930 . S
C866 C865 1.388 . S
C866 C867 1.388 . S
C867 H854 0.930 . S
C867 C866 1.388 . S
C867 C868 1.390 . S
C868 C867 1.390 . S
C868 C869 1.394 1_455 S
C868 C874 1.465 . S
C869 C864 1.399 . S
C869 C868 1.394 1_655 S
C869 C870 1.516 . S
C870 C869 1.516 . S
C870 C871 1.502 . S
C870 C872 1.561 1_655 S
C870 C873 1.526 . S
C871 H855 0.959 . S
C871 H856 0.959 . S
C871 H857 0.961 . S
C871 C870 1.502 . S
C872 H858 0.962 . S
C872 H859 0.961 1_455 S
C872 H860 0.959 . S
C872 C870 1.561 1_455 S
C873 C870 1.526 . S
C873 C874 1.396 1_655 S
C873 C878 1.390 . S
C874 C868 1.465 . S
C874 C873 1.396 1_455 S
C874 C875 1.399 . S
C875 H861 0.929 . S
C875 C874 1.399 . S
C875 C876 1.385 . S
C876 H862 0.931 . S
C876 C875 1.385 . S
C876 C877 1.389 1_455 S
C877 C876 1.389 1_655 S
C877 C878 1.387 . S
C878 H863 0.930 . S
C878 C873 1.390 . S
C878 C877 1.387 . S
H879 C891 0.930 . S
H880 C893 0.930 . S
H881 C894 0.930 . S
H882 C898 0.959 1_545 S
H883 C898 0.959 . S
H884 C898 0.961 . S
H885 C899 0.960 . S
H886 C899 0.961 . S
H887 C899 0.959 . S
H888 C902 0.929 . S
H889 C903 0.927 1_545 S
H890 C905 0.930 . S
C891 H879 0.930 . S
C891 C892 1.399 . S
C891 C896 1.399 . S
C892 C891 1.399 . S
C892 C893 1.376 1_565 S
C893 H880 0.930 . S
C893 C892 1.376 1_545 S
C893 C894 1.388 . S
C894 H881 0.930 . S
C894 C893 1.388 . S
C894 C895 1.390 1_545 S
C895 C894 1.390 1_565 S
C895 C896 1.394 . S
C895 C901 1.465 . S
C896 C891 1.399 . S
C896 C895 1.394 . S
C896 C897 1.516 . S
C897 C896 1.516 . S
C897 C898 1.502 . S
C897 C899 1.561 . S
C897 C900 1.526 . S
C898 H882 0.959 1_565 S
C898 H883 0.959 . S
C898 H884 0.961 . S
C898 C897 1.502 . S
C899 H885 0.960 . S
C899 H886 0.961 . S
C899 H887 0.959 . S
C899 C897 1.561 . S
C900 C897 1.526 . S
C900 C901 1.396 . S
C900 C905 1.390 . S
C901 C895 1.465 . S
C901 C900 1.396 . S
C901 C902 1.399 1_565 S
C902 H888 0.929 . S
C902 C901 1.399 1_545 S
C902 C903 1.384 1_545 S
C903 H889 0.927 1_565 S
C903 C902 1.384 1_565 S
C903 C904 1.394 . S
C904 C903 1.394 . S
C904 C905 1.387 . S
C905 H890 0.930 . S
C905 C900 1.390 . S
C905 C904 1.387 . S
H906 C918 0.930 . S
H907 C920 0.930 . S
H908 C921 0.930 . S
H909 C925 0.959 . S
H910 C925 0.959 . S
H911 C925 0.961 . S
H912 C926 0.960 . S
H913 C926 0.961 . S
H914 C926 0.959 . S
H915 C929 0.929 . S
H916 C930 0.931 . S
H917 C932 0.930 . S
C918 H906 0.930 . S
C918 C919 1.399 . S
C918 C923 1.399 . S
C919 C918 1.399 . S
C919 C920 1.376 . S
C920 H907 0.930 . S
C920 C919 1.376 . S
C920 C921 1.388 . S
C921 H908 0.930 . S
C921 C920 1.388 . S
C921 C922 1.390 . S
C922 C921 1.390 . S
C922 C923 1.394 . S
C922 C928 1.465 . S
C923 C918 1.399 . S
C923 C922 1.394 . S
C923 C924 1.516 . S
C924 C923 1.516 . S
C924 C925 1.502 . S
C924 C926 1.561 . S
C924 C927 1.526 . S
C925 H909 0.959 . S
C925 H910 0.959 . S
C925 H911 0.961 . S
C925 C924 1.502 . S
C926 H912 0.960 . S
C926 H913 0.961 . S
C926 H914 0.959 . S
C926 C924 1.561 . S
C927 C924 1.526 . S
C927 C928 1.396 . S
C927 C932 1.390 . S
C928 C922 1.465 . S
C928 C927 1.396 . S
C928 C929 1.399 . S
C929 H915 0.929 . S
C929 C928 1.399 . S
C929 C930 1.385 . S
C930 H916 0.931 . S
C930 C929 1.385 . S
C930 C931 1.389 . S
C931 C930 1.389 . S
C931 C932 1.387 . S
C932 H917 0.930 . S
C932 C927 1.390 . S
C932 C931 1.387 . S
H933 C945 0.930 . S
H934 C947 0.930 . S
H935 C948 0.930 . S
H936 C952 0.959 . S
H937 C952 0.959 . S
H938 C952 0.961 . S
H939 C953 0.960 . S
H940 C953 0.961 . S
H941 C953 0.959 . S
H942 C956 0.929 . S
H943 C957 0.931 . S
H944 C959 0.930 . S
C945 H933 0.930 . S
C945 C946 1.399 . S
C945 C950 1.399 . S
C946 C945 1.399 . S
C946 C947 1.376 . S
C947 H934 0.930 . S
C947 C946 1.376 . S
C947 C948 1.388 . S
C948 H935 0.930 . S
C948 C947 1.388 . S
C948 C949 1.390 . S
C949 C948 1.390 . S
C949 C950 1.394 . S
C949 C955 1.465 . S
C950 C945 1.399 . S
C950 C949 1.394 . S
C950 C951 1.516 . S
C951 C950 1.516 . S
C951 C952 1.502 . S
C951 C953 1.561 . S
C951 C954 1.526 . S
C952 H936 0.959 . S
C952 H937 0.959 . S
C952 H938 0.961 . S
C952 C951 1.502 . S
C953 H939 0.960 . S
C953 H940 0.961 . S
C953 H941 0.959 . S
C953 C951 1.561 . S
C954 C951 1.526 . S
C954 C955 1.396 . S
C954 C959 1.390 . S
C955 C949 1.465 . S
C955 C954 1.396 . S
C955 C956 1.399 . S
C956 H942 0.929 . S
C956 C955 1.399 . S
C956 C957 1.385 . S
C957 H943 0.931 . S
C957 C956 1.385 . S
C957 C958 1.389 . S
C958 C957 1.389 . S
C958 C959 1.387 . S
C959 H944 0.930 . S
C959 C954 1.390 . S
C959 C958 1.387 . S
C325 C125 1.882 . S
C337 C161 1.939 . S
C364 C201 1.963 . S
C352 C144 1.924 . S
C391 C241 1.964 . S
C379 C87 1.918 . S
C418 C281 1.954 1_455 S
C406 C106 1.911 1_455 S
C445 C170 1.950 1_565 S
C433 C49 1.880 . S
C460 C68 1.886 . S
C472 C210 1.950 . S
C487 C11 1.922 . S
C499 C250 1.946 . S
C514 C30 1.889 . S
C526 C290 1.941 1_655 S
C553 C167 0.444 . S
C541 C97 0.614 . S
C580 C207 0.592 . S
C568 C116 0.491 1_565 S
C607 C247 0.533 . S
C595 C135 0.473 . S
C622 C78 0.594 . S
C634 C287 0.587 . S
C649 C21 0.465 1_455 S
C661 C158 0.591 . S
C688 C198 0.572 . S
C676 C40 0.589 1_545 S
C715 C238 0.541 . S
C703 C59 0.507 . S
C730 C2 0.662 . S
C742 C278 0.503 . S
C757 C101 2.051 1_455 S
C769 C171 2.301 . S
C784 C120 2.028 1_545 S
C796 C211 2.281 . S
C823 C251 2.240 . S
C811 C139 2.068 . S
C850 C291 2.265 . S
C838 C82 2.082 . S
C865 C25 2.049 1_455 S
C877 C162 2.294 . S
C904 C202 2.259 . S
C892 C44 2.092 . S
C931 C242 2.242 . S
C919 C63 2.014 . S
C946 C6 2.090 . S
C958 C282 2.268 . S
