# Generated by pormake.
# Topology pth, (4,4)-cn, num edge types: 1
# Building blocks:
#     Node 0, Type 0, BuildingBlock: KUFVIS_clean_sbu_0, # of connection points: 4
#     Node 1, Type 0, BuildingBlock: KUFVIS_clean_sbu_0, # of connection points: 4
#     Node 2, Type 0, BuildingBlock: KUFVIS_clean_sbu_0, # of connection points: 4
#     Node 3, Type 1, BuildingBlock: MUDLON_clean_linker_0, # of connection points: 4
#     Node 4, Type 1, BuildingBlock: MUDLON_clean_linker_0, # of connection points: 4
#     Node 5, Type 1, BuildingBlock: MUDLON_clean_linker_0, # of connection points: 4
#     Edge 6, Type (0, 1), BuildingBlock: CIFDUS_clean_linker_0, # of connection points: 2
#     Edge 7, Type (0, 1), BuildingBlock: CIFDUS_clean_linker_0, # of connection points: 2
#     Edge 8, Type (0, 1), BuildingBlock: CIFDUS_clean_linker_0, # of connection points: 2
#     Edge 9, Type (0, 1), BuildingBlock: CIFDUS_clean_linker_0, # of connection points: 2
#     Edge 10, Type (0, 1), BuildingBlock: CIFDUS_clean_linker_0, # of connection points: 2
#     Edge 11, Type (0, 1), BuildingBlock: CIFDUS_clean_linker_0, # of connection points: 2
#     Edge 12, Type (0, 1), BuildingBlock: CIFDUS_clean_linker_0, # of connection points: 2
#     Edge 13, Type (0, 1), BuildingBlock: CIFDUS_clean_linker_0, # of connection points: 2
#     Edge 14, Type (0, 1), BuildingBlock: CIFDUS_clean_linker_0, # of connection points: 2
#     Edge 15, Type (0, 1), BuildingBlock: CIFDUS_clean_linker_0, # of connection points: 2
#     Edge 16, Type (0, 1), BuildingBlock: CIFDUS_clean_linker_0, # of connection points: 2
#     Edge 17, Type (0, 1), BuildingBlock: CIFDUS_clean_linker_0, # of connection points: 2
# Relax obj value: 0.038
# Max RMSD: 0.104
# Mean RMSD: 0.093
data_MOF--net-pth--node1-KUFVIS_clean_sbu_0--node2-MUDLON_clean_linker_0--edge1-CIFDUS_clean_linker_0
_symmetry_space_group_name_H-M    P1
_symmetry_Int_Tables_number       1
_symmetry_cell_setting            triclinic
loop_
_symmetry_equiv_pos_as_xyz
'x, y, z'
_cell_length_a     30.017784
_cell_length_b     30.026265
_cell_length_c     62.936812
_cell_angle_alpha  90.348386
_cell_angle_beta   91.799778
_cell_angle_gamma 120.2581
loop_
_atom_site_label
_atom_site_type_symbol
_atom_site_fract_x
_atom_site_fract_y
_atom_site_fract_z
_atom_type_partial_charge
Mn0 Mn 1.00362 0.02565 0.03134 0.0
Mn1 Mn 0.94889 0.07833 0.00076 0.0
C2 C 0.95552 0.98189 0.00104 0.0
C3 C 0.99843 0.9753 0.06031 0.0
C4 C 0.06363 0.11491 0.00191 0.0
O5 O 1.00698 0.08249 0.05041 0.0
O6 O 0.96102 0.10808 0.03015 0.0
C7 C 0.84795 0.03559 0.02076 0.0
N8 N 0.87571 0.04152 0.00323 0.0
C9 C 0.79828 0.99196 0.98141 0.0
C10 C 0.76884 0.9856 -0.00079 0.0
C11 C 0.7938 0.00744 0.01897 0.0
C12 C 0.85211 0.02076 0.98413 0.0
H13 H 0.86704 0.05215 0.03599 0.0
C14 C 0.98552 0.10961 0.04747 0.0
O15 O 0.04279 0.00879 0.05302 0.0
O16 O 0.9577 0.97224 0.05113 0.0
N17 N 0.93495 0.05249 0.97199 0.0
C18 C 0.96896 0.05903 0.9568 0.0
C19 C 0.95022 0.03768 0.9363 0.0
C20 C 0.8968 0.01012 0.93161 0.0
C21 C 0.86257 1.00426 0.94746 0.0
C22 C 0.8835 0.02669 0.96756 0.0
H23 H 0.01004 0.08001 0.96033 0.0
O24 O 0.98853 0.97073 0.00952 0.0
O25 O 0.95136 0.01794 0.01072 0.0
O26 O 0.06212 0.07989 0.01379 0.0
O27 O 0.02406 0.11853 0.99682 0.0
C28 C 0.80849 0.97597 0.94425 0.0
C29 C 0.77637 0.96983 0.96122 0.0
H30 H 0.72707 0.96358 -0.00207 0.0
H31 H 0.77134 1.00245 0.0328 0.0
H32 H 0.97688 0.04221 0.92417 0.0
H33 H 0.88249 0.9932 0.91585 0.0
H34 H 0.79119 0.95803 0.9289 0.0
H35 H 0.73486 0.94731 0.95864 0.0
Mn36 Mn 0.0269 0.02512 0.36294 0.0
Mn37 Mn 0.10164 0.13266 0.39263 0.0
C38 C 0.07835 0.02311 0.39061 0.0
C39 C 0.0171 0.97539 0.33265 0.0
C40 C 0.98489 0.06801 0.39509 0.0
O41 O 0.02832 0.08313 0.34547 0.0
O42 O 0.09158 0.15281 0.36361 0.0
C43 C 0.20048 0.17548 0.37087 0.0
N44 N 0.1734 0.15819 0.38887 0.0
C45 C 0.24987 0.17598 0.4094 0.0
C46 C 0.27871 0.19464 0.39113 0.0
C47 C 0.25385 0.19418 0.37177 0.0
C48 C 0.19685 0.15811 0.40756 0.0
H49 H 0.18142 0.17471 0.35595 0.0
C50 C 0.06006 0.13165 0.34756 0.0
O51 O 0.97722 0.97076 0.34216 0.0
O52 O 0.06221 0.00975 0.34037 0.0
N53 N 0.11451 0.1177 0.42096 0.0
C54 C 0.08052 0.09438 0.43665 0.0
C55 C 0.09877 0.08919 0.45677 0.0
C56 C 0.15176 0.1083 0.46061 0.0
C57 C 0.18605 0.1324 0.44427 0.0
C58 C 0.16566 0.13666 0.42456 0.0
H59 H 0.03978 0.07966 0.43384 0.0
O60 O 0.03957 0.9805 0.38292 0.0
O61 O 0.08587 0.06507 0.38168 0.0
O62 O 0.97809 0.0298 0.38362 0.0
O63 O 0.02849 0.10927 0.39816 0.0
C64 C 0.2395 0.15127 0.44662 0.0
C65 C 0.27139 0.17303 0.4292 0.0
H66 H 0.31981 0.20872 0.39172 0.0
H67 H 0.27575 0.20803 0.35756 0.0
H68 H 0.07202 0.07037 0.46927 0.0
H69 H 0.16562 0.10376 0.47608 0.0
H70 H 0.25633 0.14831 0.46165 0.0
H71 H 0.31226 0.18648 0.43109 0.0
Mn72 Mn 0.04513 0.04112 0.70224 0.0
Mn73 Mn 0.99813 0.10591 0.72854 0.0
C74 C 0.08155 0.07903 0.73486 0.0
C75 C 0.10172 0.04285 0.67722 0.0
C76 C 0.94646 0.98914 0.72751 0.0
O77 O 1.00192 0.05108 0.67952 0.0
O78 O 0.9744 0.09654 0.69798 0.0
C79 C 0.05725 0.20633 0.70773 0.0
N80 N 0.04361 0.17831 0.72574 0.0
C81 C 0.09567 0.2543 0.74769 0.0
C82 C 0.10999 0.28405 0.72939 0.0
C83 C 0.09079 0.25992 0.70932 0.0
C84 C 0.06199 0.20109 0.74512 0.0
H85 H 0.04267 0.18788 0.69228 0.0
C86 C 0.97684 0.07476 0.68083 0.0
O87 O 0.06094 0.99968 0.68188 0.0
O88 O 0.10847 0.08429 0.68668 0.0
N89 N 0.01747 0.11806 0.75819 0.0
C90 C 1.00209 0.08349 0.77414 0.0
C91 C 0.01943 0.10115 0.79516 0.0
C92 C 0.05181 0.15414 0.79959 0.0
C93 C 0.06642 0.18905 0.78295 0.0
C94 C 0.04783 0.16922 0.76233 0.0
H95 H 0.97719 0.04272 0.77082 0.0
O96 O 0.08785 0.04252 0.72715 0.0
O97 O 0.05488 0.09335 0.72294 0.0
O98 O 0.9792 0.98531 0.71621 0.0
O99 O 0.95017 0.03218 0.73261 0.0
C100 C 0.09955 0.24263 0.78597 0.0
C101 C 0.11418 0.27523 0.76835 0.0
H102 H 0.13604 0.32537 0.73054 0.0
H103 H 0.10188 0.28259 0.69511 0.0
H104 H 1.00795 0.07397 0.80791 0.0
H105 H 0.06543 0.16757 0.8158 0.0
H106 H 0.11468 0.25908 0.80172 0.0
H107 H 0.1403 0.31626 0.77083 0.0
H108 H 0.88214 0.67659 0.20543 0.0
N109 N 0.96133 0.66867 0.19274 0.0
H110 H 0.88128 0.72913 0.23513 0.0
H111 H 0.03796 0.71767 0.22389 0.0
H112 H 0.03703 0.76884 0.25376 0.0
H113 H 0.05471 0.75664 0.18802 0.0
H114 H 0.07498 0.81983 0.16028 0.0
H115 H 0.90537 0.65766 0.15758 0.0
H116 H 0.92569 0.72023 0.12944 0.0
H117 H 0.89684 0.56767 0.19087 0.0
H118 H 0.05864 0.68156 0.19627 0.0
H119 H 0.91775 0.49891 0.19183 0.0
H120 H 0.08001 0.61375 0.19899 0.0
H121 H 0.97077 0.29926 0.20917 0.0
H122 H 0.95984 0.24467 0.23912 0.0
H123 H 0.10183 0.36676 0.26865 0.0
H124 H 0.11448 0.41948 0.23751 0.0
H125 H 0.12969 0.37798 0.18621 0.0
H126 H 0.12144 0.32121 0.15644 0.0
H127 H 0.96303 0.28266 0.14505 0.0
H128 H 0.97241 0.34087 0.17444 0.0
H129 H 0.96689 0.38611 0.21459 0.0
H130 H 0.94485 0.45372 0.21281 0.0
H131 H 0.08621 0.55079 0.18069 0.0
N132 N 0.05673 0.39272 0.20164 0.0
H133 H 0.1095 0.48414 0.18409 0.0
C134 C 0.95979 0.69282 0.21237 0.0
C135 C 0.91564 0.69585 0.21622 0.0
C136 C 0.91526 0.72588 0.2332 0.0
C137 C 0.95929 0.75365 0.24673 0.0
C138 C 1.00278 0.74872 0.24342 0.0
C139 C 1.00315 0.71882 0.22638 0.0
C140 C 0.97822 0.70234 0.17488 0.0
C141 C 0.02676 0.74782 0.17508 0.0
C142 C 0.03834 0.78403 0.15917 0.0
C143 C 1.00165 0.77544 0.14281 0.0
C144 C 0.95439 0.72852 0.14205 0.0
C145 C 0.94288 0.69248 0.15795 0.0
C146 C 0.97585 0.62967 0.1938 0.0
C147 C 0.93689 0.57774 0.19259 0.0
C148 C 0.94902 0.53849 0.19334 0.0
C149 C 1.00071 0.55031 0.19565 0.0
C150 C 0.0398 0.60272 0.19687 0.0
C151 C 0.02758 0.64191 0.19568 0.0
C152 C 0.04444 0.36317 0.2208 0.0
C153 C 0.99968 0.31436 0.22202 0.0
C154 C 0.99313 0.28321 0.23943 0.0
C155 C 0.03044 0.30058 0.25629 0.0
C156 C 0.07311 0.3511 0.2557 0.0
C157 C 0.08017 0.38173 0.23805 0.0
C158 C 0.05189 0.36368 0.1825 0.0
C159 C 0.09356 0.3579 0.17701 0.0
C160 C 0.08851 0.32501 0.16016 0.0
C161 C 0.04135 0.29682 0.14849 0.0
C162 C 1.00002 0.30405 0.15357 0.0
C163 C 1.00525 0.33725 0.17039 0.0
C164 C 0.04056 0.43047 0.19981 0.0
C165 C 0.99339 0.42208 0.20736 0.0
C166 C 0.98053 0.46085 0.20608 0.0
C167 C 0.01383 0.50839 0.19674 0.0
C168 C 0.0601 0.51561 0.18855 0.0
C169 C 0.07335 0.47731 0.19025 0.0
H170 H 0.81488 0.15958 0.54596 0.0
N171 N 0.72129 0.0922 0.53033 0.0
H172 H 0.85812 0.15315 0.57853 0.0
H173 H 0.67967 0.01417 0.55875 0.0
H174 H 0.72225 0.00833 0.59182 0.0
H175 H 0.70469 0.99664 0.51944 0.0
H176 H 0.74322 0.97586 0.4902 0.0
H177 H 0.77786 0.1546 0.50027 0.0
H178 H 0.82016 0.13581 0.47211 0.0
H179 H 0.69349 0.15626 0.54593 0.0
H180 H 0.63075 1.00566 0.51627 0.0
H181 H 0.60678 0.1433 0.54795 0.0
H182 H 0.54436 0.99355 0.51694 0.0
H183 H 0.35315 0.11676 0.55254 0.0
H184 H 0.29822 0.10618 0.58211 0.0
H185 H 0.26702 0.94994 0.58934 0.0
H186 H 0.32053 0.96069 0.55906 0.0
H187 H 0.29073 0.95016 0.51992 0.0
H188 H 0.2271 0.93277 0.49079 0.0
H189 H 0.30725 0.09483 0.47654 0.0
H190 H 0.36984 0.11175 0.50588 0.0
H191 H 0.45472 0.13101 0.52887 0.0
H192 H 0.54059 0.14141 0.52728 0.0
H193 H 0.47515 0.97821 0.53789 0.0
N194 N 0.36594 0.04435 0.53415 0.0
H195 H 0.38898 0.96823 0.53802 0.0
C196 C 0.7441 0.08779 0.55009 0.0
C197 C 0.79446 0.12656 0.55595 0.0
C198 C 0.81907 0.12275 0.57444 0.0
C199 C 0.79338 0.08031 0.58761 0.0
C200 C 0.74261 0.04158 0.58194 0.0
C201 C 0.71832 0.04491 0.56313 0.0
C202 C 0.73764 0.07707 0.5117 0.0
C203 C 0.72829 0.02664 0.50863 0.0
C204 C 0.75126 0.01511 0.49208 0.0
C205 C 0.78538 0.0541 0.47867 0.0
C206 C 0.79341 0.10425 0.48161 0.0
C207 C 0.76947 0.11533 0.49782 0.0
C208 C 0.66909 0.08258 0.53071 0.0
C209 C 0.66098 0.12065 0.5396 0.0
C210 C 0.61128 0.11322 0.54057 0.0
C211 C 0.56818 0.06756 0.53235 0.0
C212 C 0.57633 0.02902 0.52363 0.0
C213 C 0.62615 0.03619 0.523 0.0
C214 C 0.34128 0.03984 0.55383 0.0
C215 C 0.33532 0.08073 0.56087 0.0
C216 C 0.3039 0.07447 0.57781 0.0
C217 C 0.27798 0.02708 0.58818 0.0
C218 C 0.28576 0.98669 0.58157 0.0
C219 C 0.31696 0.99296 0.56446 0.0
C220 C 0.33474 0.03224 0.51492 0.0
C221 C 0.29499 0.9816 0.51021 0.0
C222 C 0.25865 0.97184 0.49371 0.0
C223 C 0.2622 0.01251 0.48151 0.0
C224 C 0.30386 0.0627 0.48555 0.0
C225 C 0.33963 0.07246 0.50222 0.0
C226 C 0.41593 0.04913 0.5338 0.0
C227 C 0.45918 0.09763 0.53081 0.0
C228 C 0.50828 0.10343 0.53011 0.0
C229 C 0.51532 0.06076 0.5327 0.0
C230 C 0.47146 0.01193 0.53562 0.0
C231 C 0.42214 1.00613 0.53598 0.0
H232 H 0.68565 0.76417 0.87335 0.0
N233 N 0.69175 0.68728 0.85502 0.0
H234 H 0.74325 0.82421 0.90172 0.0
H235 H 0.76755 0.68069 0.87742 0.0
H236 H 0.82548 0.74073 0.90524 0.0
H237 H 0.77834 0.68942 0.84133 0.0
H238 H 0.82467 0.73224 0.80988 0.0
H239 H 0.65474 0.71573 0.82213 0.0
H240 H 0.69797 0.7538 0.78935 0.0
H241 H 0.59159 0.65447 0.85093 0.0
H242 H 0.6994 0.60328 0.86539 0.0
H243 H 0.51969 0.5677 0.85611 0.0
H244 H 0.62829 0.51741 0.87265 0.0
H245 H 0.32134 0.34831 0.89227 0.0
H246 H 0.26917 0.30938 0.92269 0.0
H247 H 0.36916 0.25069 0.94213 0.0
H248 H 0.41956 0.28774 0.91059 0.0
H249 H 0.30413 0.24059 0.87705 0.0
H250 H 0.24029 0.20443 0.84858 0.0
H251 H 0.34206 0.32712 0.80789 0.0
H252 H 0.40322 0.36758 0.83742 0.0
H253 H 0.39917 0.42231 0.88504 0.0
H254 H 0.47218 0.5081 0.88042 0.0
H255 H 0.56182 0.44105 0.85911 0.0
N256 N 0.39624 0.33032 0.87822 0.0
H257 H 0.48945 0.3553 0.86569 0.0
C258 C 0.72237 0.71821 0.87317 0.0
C259 C 0.7156 0.75847 0.88054 0.0
C260 C 0.74843 0.79261 0.89667 0.0
C261 C 0.78908 0.78732 0.90547 0.0
C262 C 0.79485 0.74603 0.89851 0.0
C263 C 0.76155 0.71153 0.88264 0.0
C264 C 0.7139 0.70118 0.83446 0.0
C265 C 0.76058 0.70342 0.8301 0.0
C266 C 0.78679 0.72738 0.8118 0.0
C267 C 0.76603 0.74815 0.79717 0.0
C268 C 0.71645 0.74044 0.80058 0.0
C269 C 0.69116 0.71798 0.81919 0.0
C270 C 0.65064 0.63545 0.85807 0.0
C271 C 0.59958 0.6244 0.85552 0.0
C272 C 0.55853 0.57476 0.85879 0.0
C273 C 0.56762 0.53503 0.86518 0.0
C274 C 0.61927 0.54641 0.86754 0.0
C275 C 0.66031 0.59592 0.86372 0.0
C276 C 0.37419 0.32044 0.89901 0.0
C277 C 0.33326 0.32875 0.90348 0.0
C278 C 0.30318 0.3061 0.92102 0.0
C279 C 0.31403 0.2757 0.93484 0.0
C280 C 0.35846 0.27231 0.93153 0.0
C281 C 0.38792 0.29415 0.91369 0.0
C282 C 0.35829 0.30913 0.86041 0.0
C283 C 0.31243 0.26135 0.86235 0.0
C284 C 0.27592 0.23953 0.8456 0.0
C285 C 0.28537 0.26228 0.82554 0.0
C286 C 0.33212 0.30887 0.82314 0.0
C287 C 0.36783 0.3321 0.84027 0.0
C288 C 0.43917 0.38215 0.87616 0.0
C289 C 0.4348 0.42598 0.87986 0.0
C290 C 0.4767 0.47536 0.8768 0.0
C291 C 0.52347 0.48221 0.86926 0.0
C292 C 0.52726 0.43798 0.86538 0.0
C293 C 0.48577 0.38872 0.86899 0.0
H294 H 0.03532 0.12723 0.08641 0.0
H295 H 0.94549 0.17379 0.04741 0.0
H296 H 0.95483 0.23538 0.07503 0.0
H297 H 0.98996 0.27768 0.10992 0.0
H298 H 0.07802 0.22987 0.14926 0.0
H299 H 0.06846 0.1679 0.1217 0.0
C300 C 0.0176 0.15067 0.08392 0.0
C301 C 0.98987 0.14573 0.06474 0.0
C302 C 0.02313 0.18626 0.09988 0.0
C303 C 0.96719 0.1766 0.06194 0.0
C304 C 0.97251 0.212 0.07774 0.0
C305 C 1.00665 0.25338 0.11257 0.0
C306 C 0.03496 0.25882 0.13162 0.0
C307 C 1.00058 0.21733 0.09673 0.0
C308 C 0.05685 0.22733 0.13461 0.0
C309 C 0.05108 0.19152 0.11891 0.0
H310 H 0.93408 1.00498 0.42702 0.0
H311 H 0.93963 0.12524 0.38828 0.0
H312 H 0.87317 0.12717 0.40928 0.0
H313 H 0.81838 0.09888 0.44007 0.0
H314 H 0.82192 0.98661 0.48169 0.0
H315 H 0.87818 0.97599 0.45783 0.0
C316 C 0.91986 0.03084 0.42304 0.0
C317 C 0.94087 0.06452 0.40611 0.0
C318 C 0.88328 0.03314 0.43572 0.0
C319 C 0.92341 0.09879 0.40122 0.0
C320 C 0.88565 0.09997 0.41325 0.0
C321 C 0.83159 0.07229 0.44411 0.0
C322 C 0.81567 0.04389 0.46289 0.0
C323 C 0.86614 0.0681 0.43083 0.0
C324 C 0.83242 0.00856 0.4673 0.0
C325 C 0.86528 1.0028 0.45374 0.0
H326 H 0.93731 0.89428 0.73406 0.0
H327 H 0.85788 0.97948 0.74178 0.0
H328 H 0.79332 0.9107 0.76249 0.0
H329 H 0.76541 0.83247 0.78195 0.0
H330 H 0.84041 0.74316 0.77389 0.0
H331 H 0.90097 0.8079 0.75008 0.0
C332 C 0.90528 0.89723 0.73991 0.0
C333 C 0.90312 0.94251 0.73661 0.0
C334 C 0.86795 0.85734 0.75211 0.0
C335 C 0.86119 0.94559 0.74432 0.0
C336 C 0.82411 0.90622 0.75622 0.0
C337 C 0.79369 0.82577 0.77455 0.0
C338 C 0.79814 0.78275 0.78003 0.0
C339 C 0.82796 0.86271 0.76073 0.0
C340 C 0.83643 0.77629 0.77046 0.0
C341 C 0.87103 0.81323 0.75669 0.0
H342 H 0.07132 0.95376 0.07605 0.0
H343 H 0.91361 0.91641 0.08291 0.0
H344 H 0.9013 0.85224 0.10913 0.0
H345 H 0.93397 0.80486 0.12933 0.0
H346 H 0.09048 0.83907 0.12218 0.0
H347 H 0.10476 0.90659 0.09705 0.0
C348 C 0.03447 0.93191 0.08346 0.0
C349 C 0.99343 0.93984 0.0775 0.0
C350 C 0.02731 0.89428 0.09838 0.0
C351 C 0.9458 0.91098 0.08714 0.0
C352 C 0.93865 0.87417 0.10212 0.0
C353 C 0.97108 0.82664 0.12211 0.0
C354 C 0.01087 0.81646 0.12745 0.0
C355 C 0.97885 0.86502 0.10764 0.0
C356 C 0.05917 0.84614 0.11837 0.0
C357 C 0.06731 0.88466 0.10396 0.0
H358 H 0.06433 0.97755 0.42874 0.0
H359 H 0.17894 0.0624 0.38288 0.0
H360 H 0.24606 0.06343 0.40632 0.0
H361 H 0.27299 0.0458 0.44101 0.0
H362 H 0.15858 0.96056 0.48702 0.0
H363 H 0.0905 0.95401 0.46252 0.0
C364 C 0.10407 0.9961 0.424 0.0
C365 C 0.11751 0.02173 0.40467 0.0
C366 C 0.14235 0.99658 0.4376 0.0
C367 C 0.16848 0.04419 0.39816 0.0
C368 C 0.20666 0.04445 0.41146 0.0
C369 C 0.23306 0.02539 0.44554 0.0
C370 C 0.22074 1.00378 0.46574 0.0
C371 C 0.19426 0.02186 0.43143 0.0
C372 C 0.16887 0.97709 0.47144 0.0
C373 C 0.13 0.97359 0.4575 0.0
H374 H 0.14476 0.18231 0.74057 0.0
H375 H 0.08911 0.03708 0.77145 0.0
H376 H 0.14804 0.08077 0.80205 0.0
H377 H 0.21799 0.15875 0.81874 0.0
H378 H 0.2667 0.30646 0.79037 0.0
H379 H 0.20857 0.26296 0.75974 0.0
C380 C 0.14444 0.16068 0.75436 0.0
C381 C 0.11154 0.10695 0.75423 0.0
C382 C 0.17789 0.18622 0.77203 0.0
C383 C 0.11335 0.0787 0.77156 0.0
C384 C 0.14711 0.10361 0.78895 0.0
C385 C 0.21518 0.18218 0.80636 0.0
C386 C 0.24754 0.23628 0.80718 0.0
C387 C 0.17983 0.15728 0.78926 0.0
C388 C 0.24372 0.26481 0.79021 0.0
C389 C 0.20993 0.23999 0.77269 0.0
H390 H 0.88498 0.07201 0.6783 0.0
H391 H 1.00575 0.08106 0.63996 0.0
H392 H 0.95966 0.08376 0.60772 0.0
H393 H 0.88509 0.08381 0.59041 0.0
H394 H 0.76134 0.06875 0.62828 0.0
H395 H 0.8081 0.06764 0.66076 0.0
C396 C 0.90122 0.07484 0.66288 0.0
C397 C 0.94886 0.07683 0.66148 0.0
C398 C 0.87382 0.07497 0.64436 0.0
C399 C 0.96912 0.07951 0.6414 0.0
C400 C 0.94283 0.08108 0.62298 0.0
C401 C 0.86849 0.08023 0.60581 0.0
C402 C 0.82016 0.07667 0.60709 0.0
C403 C 0.89518 0.07881 0.62427 0.0
C404 C 0.7985 0.07137 0.62701 0.0
C405 C 0.8253 0.07098 0.64553 0.0
H406 H 0.97602 0.95117 0.96407 0.0
H407 H 0.85138 0.93134 0.00244 0.0
H408 H 0.78819 0.87037 0.97592 0.0
H409 H 0.76865 0.82213 0.94179 0.0
H410 H 0.89373 0.83851 0.90439 0.0
H411 H 0.95656 0.90157 0.93034 0.0
C412 C 0.93496 0.93371 0.96642 0.0
C413 C 0.91799 0.94712 0.98458 0.0
C414 C 0.89908 0.8981 0.95129 0.0
C415 C 0.86496 0.92303 0.98803 0.0
C416 C 0.82895 0.88788 0.973 0.0
C417 C 0.80968 0.83975 0.93934 0.0
C418 C 0.82664 0.82574 0.92127 0.0
C419 C 0.84556 0.8753 0.9545 0.0
C420 C 0.87987 0.84841 0.91831 0.0
C421 C 0.91576 0.88452 0.93309 0.0
H422 H 0.93339 0.88298 0.32031 0.0
H423 H 0.09054 0.99082 0.3048 0.0
H424 H 0.08618 0.9321 0.2768 0.0
H425 H 0.03883 0.84954 0.25729 0.0
H426 H 0.88299 0.73936 0.27354 0.0
H427 H 0.88558 0.7997 0.30051 0.0
C428 C 0.96643 0.89378 0.31064 0.0
C429 C 0.01217 0.94122 0.3146 0.0
C430 C 0.96403 0.85931 0.29478 0.0
C431 C 0.05489 0.9545 0.30209 0.0
C432 C 0.0525 0.9209 0.2861 0.0
C433 C 1.0056 0.83836 0.26689 0.0
C434 C 0.96092 0.78977 0.26346 0.0
C435 C 1.00753 0.87298 0.28248 0.0
C436 C 0.91779 0.7766 0.27573 0.0
C437 C 0.9193 0.81104 0.29121 0.0
H438 H 0.094 0.96768 0.64982 0.0
H439 H 0.19649 0.12513 0.6713 0.0
H440 H 0.26091 0.13279 0.64683 0.0
H441 H 0.28794 0.09613 0.61887 0.0
H442 H 0.18454 0.94073 0.59535 0.0
H443 H 0.12169 0.93057 0.62141 0.0
C444 C 0.13049 1.00354 0.64915 0.0
C445 C 0.14021 0.04577 0.66231 0.0
C446 C 0.16752 0.00804 0.63478 0.0
C447 C 0.18772 0.09206 0.66125 0.0
C448 C 0.22478 0.09653 0.64729 0.0
C449 C 0.25154 0.06009 0.61929 0.0
C450 C 0.24114 0.01943 0.60504 0.0
C451 C 0.21496 0.05497 0.63387 0.0
C452 C 0.1941 0.97259 0.60626 0.0
C453 C 0.15781 0.96687 0.62105 0.0
H454 H 0.14089 0.1001 0.98872 0.0
H455 H 0.09691 0.21574 0.99507 0.0
H456 H 0.17458 0.27813 0.97745 0.0
H457 H 0.25122 0.29786 0.9579 0.0
H458 H 0.28953 0.1788 0.94767 0.0
H459 H 0.21955 0.12092 0.96979 0.0
C460 C 0.14883 0.1392 0.9865 0.0
C461 C 0.11325 0.15331 0.99311 0.0
C462 C 0.19278 0.17447 0.97569 0.0
C463 C 0.1236 0.2039 0.98995 0.0
C464 C 0.16802 0.23961 0.9799 0.0
C465 C 0.24435 0.25924 0.96038 0.0
C466 C 0.2759 0.24311 0.95085 0.0
C467 C 0.20225 0.22497 0.97226 0.0
C468 C 0.26683 0.19313 0.95493 0.0
C469 C 0.22618 0.15948 0.96741 0.0
H470 H 0.97953 0.13047 0.32583 0.0
H471 H 0.14576 0.21002 0.33114 0.0
H472 H 0.15118 0.26851 0.30332 0.0
H473 H 0.10912 0.29658 0.2774 0.0
H474 H 0.94284 0.22392 0.27439 0.0
H475 H 0.93707 0.16288 0.30109 0.0
C476 C 0.01681 0.1605 0.32075 0.0
C477 C 0.06219 0.16572 0.33034 0.0
C478 C 0.01968 0.19522 0.30517 0.0
C479 C 0.11033 0.20524 0.32396 0.0
C480 C 0.11346 0.23872 0.30806 0.0
C481 C 0.0715 0.26828 0.28282 0.0
C482 C 0.02656 0.26522 0.27369 0.0
C483 C 0.06842 0.23423 0.29863 0.0
C484 C 0.97824 0.22697 0.28072 0.0
C485 C 0.97483 0.19209 0.29614 0.0
loop_
_geom_bond_atom_site_label_1
_geom_bond_atom_site_label_2
_geom_bond_distance
_geom_bond_site_symmetry_2
_ccdc_geom_bond_type
Mn0 O5 2.095 . S
Mn0 O15 2.162 1_545 S
Mn0 O16 2.303 1_545 S
Mn0 O24 2.385 1_545 S
Mn0 O25 2.215 1_445 S
Mn0 O26 2.094 . S
Mn1 O6 2.121 . S
Mn1 N8 2.257 . S
Mn1 N17 2.282 1_554 S
Mn1 O25 2.194 1_545 S
Mn1 O27 2.130 1_655 S
C2 O24 1.234 1_655 S
C2 O25 1.302 . S
C3 O15 1.281 . S
C3 O16 1.262 . S
C4 O26 1.240 . S
C4 O27 1.270 . S
O5 Mn0 2.095 . S
O5 C14 1.250 . S
O6 Mn1 2.121 . S
O6 C14 1.258 1_655 S
C7 N8 1.326 . S
C7 C11 1.460 . S
C7 H13 0.929 . S
N8 Mn1 2.257 . S
N8 C7 1.326 . S
N8 C12 1.362 1_554 S
C9 C10 1.258 . S
C9 C12 1.431 . S
C9 C29 1.449 . S
C10 C9 1.258 . S
C10 C11 1.477 1_556 S
C10 H30 0.931 . S
C11 C7 1.460 . S
C11 C10 1.477 1_554 S
C11 H31 0.930 . S
C12 N8 1.362 1_556 S
C12 C9 1.431 . S
C12 C22 1.476 . S
H13 C7 0.929 . S
C14 O5 1.250 . S
C14 O6 1.258 1_455 S
O15 Mn0 2.162 1_565 S
O15 C3 1.281 . S
O16 Mn0 2.303 1_565 S
O16 C3 1.262 . S
N17 Mn1 2.282 1_556 S
N17 C18 1.328 . S
N17 C22 1.318 . S
C18 N17 1.328 . S
C18 C19 1.457 . S
C18 H23 0.929 1_655 S
C19 C18 1.457 . S
C19 C20 1.291 . S
C19 H32 0.931 . S
C20 C19 1.291 . S
C20 C21 1.373 . S
C20 H33 0.929 1_545 S
C21 C20 1.373 . S
C21 C22 1.396 . S
C21 C28 1.403 1_545 S
C22 C12 1.476 . S
C22 N17 1.318 . S
C22 C21 1.396 . S
H23 C18 0.929 1_455 S
O24 Mn0 2.385 1_565 S
O24 C2 1.234 1_455 S
O25 Mn0 2.215 1_665 S
O25 Mn1 2.194 1_565 S
O25 C2 1.302 . S
O26 Mn0 2.094 . S
O26 C4 1.240 . S
O27 Mn1 2.130 1_455 S
O27 C4 1.270 . S
C28 C21 1.403 1_565 S
C28 C29 1.399 1_565 S
C28 H34 0.929 . S
C29 C9 1.449 . S
C29 C28 1.399 1_545 S
C29 H35 0.930 1_545 S
H30 C10 0.931 . S
H31 C11 0.930 . S
H32 C19 0.931 . S
H33 C20 0.929 1_565 S
H34 C28 0.929 . S
H35 C29 0.930 1_565 S
Mn36 O41 2.095 1_565 S
Mn36 O51 2.162 . S
Mn36 O52 2.297 1_655 S
Mn36 O60 2.385 1_655 S
Mn36 O61 2.209 1_665 S
Mn36 O62 2.094 . S
Mn37 O42 2.121 . S
Mn37 N44 2.257 . S
Mn37 N53 2.282 . S
Mn37 O61 2.215 . S
Mn37 O63 2.117 1_455 S
C38 O60 1.234 1_545 S
C38 O61 1.283 . S
C39 O51 1.283 1_455 S
C39 O52 1.235 . S
C40 O62 1.240 1_545 S
C40 O63 1.264 . S
O41 Mn36 2.095 1_545 S
O41 C50 1.250 1_655 S
O42 Mn37 2.121 . S
O42 C50 1.258 . S
C43 N44 1.326 . S
C43 C47 1.460 . S
C43 H49 0.929 . S
N44 Mn37 2.257 . S
N44 C43 1.326 . S
N44 C48 1.362 . S
C45 C46 1.258 . S
C45 C48 1.431 . S
C45 C65 1.449 . S
C46 C45 1.258 . S
C46 C47 1.477 . S
C46 H66 0.931 . S
C47 C43 1.460 . S
C47 C46 1.477 . S
C47 H67 0.930 . S
C48 N44 1.362 . S
C48 C45 1.431 . S
C48 C58 1.476 . S
H49 C43 0.929 . S
C50 O41 1.250 1_455 S
C50 O42 1.258 . S
O51 Mn36 2.162 . S
O51 C39 1.283 1_655 S
O52 Mn36 2.297 1_455 S
O52 C39 1.235 . S
N53 Mn37 2.282 . S
N53 C54 1.328 . S
N53 C58 1.318 . S
C54 N53 1.328 . S
C54 C55 1.457 . S
C54 H59 0.929 . S
C55 C54 1.457 . S
C55 C56 1.291 . S
C55 H68 0.931 . S
C56 C55 1.291 . S
C56 C57 1.373 . S
C56 H69 0.929 . S
C57 C56 1.373 . S
C57 C58 1.396 . S
C57 C64 1.403 . S
C58 C48 1.476 . S
C58 N53 1.318 . S
C58 C57 1.396 . S
H59 C54 0.929 . S
O60 Mn36 2.385 1_455 S
O60 C38 1.234 1_565 S
O61 Mn36 2.209 1_445 S
O61 Mn37 2.215 . S
O61 C38 1.283 . S
O62 Mn36 2.094 . S
O62 C40 1.240 1_565 S
O63 Mn37 2.117 1_655 S
O63 C40 1.264 . S
C64 C57 1.403 . S
C64 C65 1.399 . S
C64 H70 0.929 . S
C65 C45 1.449 . S
C65 C64 1.399 . S
C65 H71 0.930 . S
H66 C46 0.931 . S
H67 C47 0.930 . S
H68 C55 0.931 . S
H69 C56 0.929 . S
H70 C64 0.929 . S
H71 C65 0.930 . S
Mn72 O77 2.095 1_445 S
Mn72 O87 2.162 1_545 S
Mn72 O88 2.297 . S
Mn72 O96 2.385 . S
Mn72 O97 2.209 . S
Mn72 O98 2.094 1_445 S
Mn73 O78 2.121 . S
Mn73 N80 2.257 . S
Mn73 N89 2.282 . S
Mn73 O97 2.215 1_655 S
Mn73 O99 2.117 1_545 S
C74 O96 1.234 . S
C74 O97 1.283 . S
C75 O87 1.281 1_545 S
C75 O88 1.236 . S
C76 O98 1.240 . S
C76 O99 1.264 . S
O77 Mn72 2.095 1_665 S
O77 C86 1.252 1_565 S
O78 Mn73 2.121 . S
O78 C86 1.258 . S
C79 N80 1.326 . S
C79 C83 1.460 . S
C79 H85 0.929 . S
N80 Mn73 2.257 . S
N80 C79 1.326 . S
N80 C84 1.362 1_655 S
C81 C82 1.258 . S
C81 C84 1.431 . S
C81 C101 1.449 . S
C82 C81 1.258 . S
C82 C83 1.477 1_455 S
C82 H102 0.931 . S
C83 C79 1.460 . S
C83 C82 1.477 1_655 S
C83 H103 0.930 . S
C84 N80 1.362 1_455 S
C84 C81 1.431 . S
C84 C94 1.476 . S
H85 C79 0.929 . S
C86 O77 1.252 1_545 S
C86 O78 1.258 . S
O87 Mn72 2.162 1_565 S
O87 C75 1.281 1_565 S
O88 Mn72 2.297 . S
O88 C75 1.236 . S
N89 Mn73 2.282 . S
N89 C90 1.328 1_655 S
N89 C94 1.318 1_655 S
C90 N89 1.328 1_455 S
C90 C91 1.457 . S
C90 H95 0.929 1_455 S
C91 C90 1.457 . S
C91 C92 1.291 . S
C91 H104 0.931 . S
C92 C91 1.291 . S
C92 C93 1.373 . S
C92 H105 0.929 . S
C93 C92 1.373 . S
C93 C94 1.396 . S
C93 C100 1.403 . S
C94 C84 1.476 . S
C94 N89 1.318 1_455 S
C94 C93 1.396 . S
H95 C90 0.929 1_655 S
O96 Mn72 2.385 . S
O96 C74 1.234 . S
O97 Mn72 2.209 . S
O97 Mn73 2.215 1_455 S
O97 C74 1.283 . S
O98 Mn72 2.094 1_665 S
O98 C76 1.240 . S
O99 Mn73 2.117 1_565 S
O99 C76 1.264 . S
C100 C93 1.403 . S
C100 C101 1.399 . S
C100 H106 0.929 . S
C101 C81 1.449 . S
C101 C100 1.399 . S
C101 H107 0.930 . S
H102 C82 0.931 . S
H103 C83 0.930 . S
H104 C91 0.931 . S
H105 C92 0.929 . S
H106 C100 0.929 . S
H107 C101 0.930 . S
H108 C135 0.929 . S
N109 C134 1.433 1_655 S
N109 C140 1.435 1_655 S
N109 C146 1.423 . S
H110 C136 0.930 . S
H111 C139 0.931 . S
H112 C138 0.929 . S
H113 C141 0.930 . S
H114 C142 0.932 . S
H115 C145 0.929 . S
H116 C144 0.931 . S
H117 C147 0.929 . S
H118 C151 0.932 . S
H119 C148 0.931 . S
H120 C150 0.929 . S
H121 C153 0.929 . S
H122 C154 0.930 . S
H123 C156 0.929 . S
H124 C157 0.931 . S
H125 C159 0.930 . S
H126 C160 0.932 . S
H127 C162 0.931 . S
H128 C163 0.929 . S
H129 C165 0.929 . S
H130 C166 0.931 . S
H131 C168 0.929 . S
N132 C152 1.433 1_655 S
N132 C158 1.435 1_655 S
N132 C164 1.423 . S
H133 C169 0.932 . S
C134 N109 1.433 1_455 S
C134 C135 1.363 1_455 S
C134 C139 1.370 . S
C135 H108 0.929 . S
C135 C134 1.363 1_655 S
C135 C136 1.385 . S
C136 H110 0.930 . S
C136 C135 1.385 . S
C136 C137 1.357 1_655 S
C137 C136 1.357 1_455 S
C137 C138 1.406 . S
C138 H112 0.929 . S
C138 C137 1.406 . S
C138 C139 1.391 . S
C139 H111 0.931 . S
C139 C134 1.370 . S
C139 C138 1.391 . S
C140 N109 1.435 1_455 S
C140 C141 1.358 . S
C140 C145 1.371 1_455 S
C141 H113 0.930 . S
C141 C140 1.358 . S
C141 C142 1.405 . S
C142 H114 0.932 . S
C142 C141 1.405 . S
C142 C143 1.383 . S
C143 C142 1.383 . S
C143 C144 1.393 1_455 S
C144 H116 0.931 . S
C144 C143 1.393 1_655 S
C144 C145 1.382 . S
C145 H115 0.929 . S
C145 C140 1.371 1_655 S
C145 C144 1.382 . S
C146 N109 1.423 . S
C146 C147 1.362 . S
C146 C151 1.388 1_655 S
C147 H117 0.929 . S
C147 C146 1.362 . S
C147 C148 1.376 . S
C148 H119 0.931 . S
C148 C147 1.376 . S
C148 C149 1.396 . S
C149 C148 1.396 . S
C149 C150 1.348 1_655 S
C149 C167 1.472 . S
C150 H120 0.929 . S
C150 C149 1.348 1_455 S
C150 C151 1.443 . S
C151 H118 0.932 . S
C151 C146 1.388 1_455 S
C151 C150 1.443 . S
C152 N132 1.433 1_455 S
C152 C153 1.363 1_455 S
C152 C157 1.370 . S
C153 H121 0.929 . S
C153 C152 1.363 1_655 S
C153 C154 1.385 . S
C154 H122 0.930 . S
C154 C153 1.385 . S
C154 C155 1.357 1_655 S
C155 C154 1.357 1_455 S
C155 C156 1.406 . S
C156 H123 0.929 . S
C156 C155 1.406 . S
C156 C157 1.391 . S
C157 H124 0.931 . S
C157 C152 1.370 . S
C157 C156 1.391 . S
C158 N132 1.435 1_455 S
C158 C159 1.358 . S
C158 C163 1.371 1_455 S
C159 H125 0.930 . S
C159 C158 1.358 . S
C159 C160 1.405 . S
C160 H126 0.932 . S
C160 C159 1.405 . S
C160 C161 1.383 . S
C161 C160 1.383 . S
C161 C162 1.393 1_455 S
C162 H127 0.931 . S
C162 C161 1.393 1_655 S
C162 C163 1.382 . S
C163 H128 0.929 . S
C163 C158 1.371 1_655 S
C163 C162 1.382 . S
C164 N132 1.423 . S
C164 C165 1.362 . S
C164 C169 1.388 1_655 S
C165 H129 0.929 . S
C165 C164 1.362 . S
C165 C166 1.376 . S
C166 H130 0.931 . S
C166 C165 1.376 . S
C166 C167 1.396 . S
C167 C149 1.472 . S
C167 C166 1.396 . S
C167 C168 1.348 1_655 S
C168 H131 0.929 . S
C168 C167 1.348 1_455 S
C168 C169 1.443 . S
C169 H133 0.932 . S
C169 C164 1.388 1_455 S
C169 C168 1.443 . S
H170 C197 0.929 . S
N171 C196 1.433 . S
N171 C202 1.435 . S
N171 C208 1.423 . S
H172 C198 0.930 . S
H173 C201 0.931 . S
H174 C200 0.929 . S
H175 C203 0.930 . S
H176 C204 0.932 1_565 S
H177 C207 0.929 . S
H178 C206 0.931 . S
H179 C209 0.929 . S
H180 C213 0.932 . S
H181 C210 0.931 . S
H182 C212 0.929 . S
H183 C215 0.929 . S
H184 C216 0.930 . S
H185 C218 0.929 . S
H186 C219 0.931 . S
H187 C221 0.930 . S
H188 C222 0.932 1_565 S
H189 C224 0.931 . S
H190 C225 0.929 . S
H191 C227 0.929 . S
H192 C228 0.931 . S
H193 C230 0.929 . S
N194 C214 1.433 . S
N194 C220 1.435 . S
N194 C226 1.423 . S
H195 C231 0.932 . S
C196 N171 1.433 . S
C196 C197 1.363 . S
C196 C201 1.370 . S
C197 H170 0.929 . S
C197 C196 1.363 . S
C197 C198 1.385 . S
C198 H172 0.930 . S
C198 C197 1.385 . S
C198 C199 1.357 . S
C199 C198 1.357 . S
C199 C200 1.406 . S
C200 H174 0.929 . S
C200 C199 1.406 . S
C200 C201 1.391 . S
C201 H173 0.931 . S
C201 C196 1.370 . S
C201 C200 1.391 . S
C202 N171 1.435 . S
C202 C203 1.358 . S
C202 C207 1.371 . S
C203 H175 0.930 . S
C203 C202 1.358 . S
C203 C204 1.405 . S
C204 H176 0.932 1_545 S
C204 C203 1.405 . S
C204 C205 1.383 . S
C205 C204 1.383 . S
C205 C206 1.393 . S
C206 H178 0.931 . S
C206 C205 1.393 . S
C206 C207 1.382 . S
C207 H177 0.929 . S
C207 C202 1.371 . S
C207 C206 1.382 . S
C208 N171 1.423 . S
C208 C209 1.362 . S
C208 C213 1.388 . S
C209 H179 0.929 . S
C209 C208 1.362 . S
C209 C210 1.376 . S
C210 H181 0.931 . S
C210 C209 1.376 . S
C210 C211 1.396 . S
C211 C210 1.396 . S
C211 C212 1.348 . S
C211 C229 1.472 . S
C212 H182 0.929 . S
C212 C211 1.348 . S
C212 C213 1.443 . S
C213 H180 0.932 . S
C213 C208 1.388 . S
C213 C212 1.443 . S
C214 N194 1.433 . S
C214 C215 1.363 . S
C214 C219 1.370 . S
C215 H183 0.929 . S
C215 C214 1.363 . S
C215 C216 1.385 . S
C216 H184 0.930 . S
C216 C215 1.385 . S
C216 C217 1.357 . S
C217 C216 1.357 . S
C217 C218 1.406 . S
C218 H185 0.929 . S
C218 C217 1.406 . S
C218 C219 1.391 . S
C219 H186 0.931 . S
C219 C214 1.370 . S
C219 C218 1.391 . S
C220 N194 1.435 . S
C220 C221 1.358 . S
C220 C225 1.371 . S
C221 H187 0.930 . S
C221 C220 1.358 . S
C221 C222 1.405 . S
C222 H188 0.932 1_545 S
C222 C221 1.405 . S
C222 C223 1.383 . S
C223 C222 1.383 . S
C223 C224 1.393 . S
C224 H189 0.931 . S
C224 C223 1.393 . S
C224 C225 1.382 . S
C225 H190 0.929 . S
C225 C220 1.371 . S
C225 C224 1.382 . S
C226 N194 1.423 . S
C226 C227 1.362 . S
C226 C231 1.388 . S
C227 H191 0.929 . S
C227 C226 1.362 . S
C227 C228 1.376 . S
C228 H192 0.931 . S
C228 C227 1.376 . S
C228 C229 1.396 . S
C229 C211 1.472 . S
C229 C228 1.396 . S
C229 C230 1.348 . S
C230 H193 0.929 . S
C230 C229 1.348 . S
C230 C231 1.443 . S
C231 H195 0.932 . S
C231 C226 1.388 . S
C231 C230 1.443 . S
H232 C259 0.929 . S
N233 C258 1.433 . S
N233 C264 1.435 . S
N233 C270 1.423 . S
H234 C260 0.930 . S
H235 C263 0.931 . S
H236 C262 0.929 . S
H237 C265 0.930 . S
H238 C266 0.932 . S
H239 C269 0.929 . S
H240 C268 0.931 . S
H241 C271 0.929 . S
H242 C275 0.932 . S
H243 C272 0.931 . S
H244 C274 0.929 . S
H245 C277 0.929 . S
H246 C278 0.930 . S
H247 C280 0.929 . S
H248 C281 0.931 . S
H249 C283 0.930 . S
H250 C284 0.932 . S
H251 C286 0.931 . S
H252 C287 0.929 . S
H253 C289 0.929 . S
H254 C290 0.931 . S
H255 C292 0.929 . S
N256 C276 1.433 . S
N256 C282 1.435 . S
N256 C288 1.423 . S
H257 C293 0.932 . S
C258 N233 1.433 . S
C258 C259 1.363 . S
C258 C263 1.370 . S
C259 H232 0.929 . S
C259 C258 1.363 . S
C259 C260 1.385 . S
C260 H234 0.930 . S
C260 C259 1.385 . S
C260 C261 1.357 . S
C261 C260 1.357 . S
C261 C262 1.406 . S
C262 H236 0.929 . S
C262 C261 1.406 . S
C262 C263 1.391 . S
C263 H235 0.931 . S
C263 C258 1.370 . S
C263 C262 1.391 . S
C264 N233 1.435 . S
C264 C265 1.358 . S
C264 C269 1.371 . S
C265 H237 0.930 . S
C265 C264 1.358 . S
C265 C266 1.405 . S
C266 H238 0.932 . S
C266 C265 1.405 . S
C266 C267 1.383 . S
C267 C266 1.383 . S
C267 C268 1.393 . S
C268 H240 0.931 . S
C268 C267 1.393 . S
C268 C269 1.382 . S
C269 H239 0.929 . S
C269 C264 1.371 . S
C269 C268 1.382 . S
C270 N233 1.423 . S
C270 C271 1.362 . S
C270 C275 1.388 . S
C271 H241 0.929 . S
C271 C270 1.362 . S
C271 C272 1.376 . S
C272 H243 0.931 . S
C272 C271 1.376 . S
C272 C273 1.396 . S
C273 C272 1.396 . S
C273 C274 1.348 . S
C273 C291 1.472 . S
C274 H244 0.929 . S
C274 C273 1.348 . S
C274 C275 1.443 . S
C275 H242 0.932 . S
C275 C270 1.388 . S
C275 C274 1.443 . S
C276 N256 1.433 . S
C276 C277 1.363 . S
C276 C281 1.370 . S
C277 H245 0.929 . S
C277 C276 1.363 . S
C277 C278 1.385 . S
C278 H246 0.930 . S
C278 C277 1.385 . S
C278 C279 1.357 . S
C279 C278 1.357 . S
C279 C280 1.406 . S
C280 H247 0.929 . S
C280 C279 1.406 . S
C280 C281 1.391 . S
C281 H248 0.931 . S
C281 C276 1.370 . S
C281 C280 1.391 . S
C282 N256 1.435 . S
C282 C283 1.358 . S
C282 C287 1.371 . S
C283 H249 0.930 . S
C283 C282 1.358 . S
C283 C284 1.405 . S
C284 H250 0.932 . S
C284 C283 1.405 . S
C284 C285 1.383 . S
C285 C284 1.383 . S
C285 C286 1.393 . S
C286 H251 0.931 . S
C286 C285 1.393 . S
C286 C287 1.382 . S
C287 H252 0.929 . S
C287 C282 1.371 . S
C287 C286 1.382 . S
C288 N256 1.423 . S
C288 C289 1.362 . S
C288 C293 1.388 . S
C289 H253 0.929 . S
C289 C288 1.362 . S
C289 C290 1.376 . S
C290 H254 0.931 . S
C290 C289 1.376 . S
C290 C291 1.396 . S
C291 C273 1.472 . S
C291 C290 1.396 . S
C291 C292 1.348 . S
C292 H255 0.929 . S
C292 C291 1.348 . S
C292 C293 1.443 . S
C293 H257 0.932 . S
C293 C288 1.388 . S
C293 C292 1.443 . S
H294 C300 0.930 . S
H295 C303 0.930 . S
H296 C304 0.930 . S
H297 C305 0.930 . S
H298 C308 0.930 . S
H299 C309 0.930 . S
C300 H294 0.930 . S
C300 C301 1.355 . S
C300 C302 1.415 . S
C301 C300 1.355 . S
C301 C303 1.419 . S
C302 C300 1.415 . S
C302 C307 1.425 . S
C302 C309 1.409 . S
C303 H295 0.930 . S
C303 C301 1.419 . S
C303 C304 1.362 . S
C304 H296 0.930 . S
C304 C303 1.362 . S
C304 C307 1.409 . S
C305 H297 0.930 . S
C305 C306 1.355 . S
C305 C307 1.415 . S
C306 C305 1.355 . S
C306 C308 1.419 . S
C307 C302 1.425 . S
C307 C304 1.409 . S
C307 C305 1.415 . S
C308 H298 0.930 . S
C308 C306 1.419 . S
C308 C309 1.362 . S
C309 H299 0.930 . S
C309 C302 1.409 . S
C309 C308 1.362 . S
H310 C316 0.930 . S
H311 C319 0.930 . S
H312 C320 0.930 . S
H313 C321 0.930 . S
H314 C324 0.930 . S
H315 C325 0.930 . S
C316 H310 0.930 . S
C316 C317 1.355 1_565 S
C316 C318 1.415 1_565 S
C317 C316 1.355 1_545 S
C317 C319 1.419 . S
C318 C316 1.415 1_545 S
C318 C323 1.425 . S
C318 C325 1.409 1_545 S
C319 H311 0.930 . S
C319 C317 1.419 . S
C319 C320 1.362 . S
C320 H312 0.930 . S
C320 C319 1.362 . S
C320 C323 1.409 . S
C321 H313 0.930 . S
C321 C322 1.355 . S
C321 C323 1.415 . S
C322 C321 1.355 . S
C322 C324 1.419 1_545 S
C323 C318 1.425 . S
C323 C320 1.409 . S
C323 C321 1.415 . S
C324 H314 0.930 . S
C324 C322 1.419 1_565 S
C324 C325 1.362 . S
C325 H315 0.930 . S
C325 C318 1.409 1_565 S
C325 C324 1.362 . S
H326 C332 0.930 . S
H327 C335 0.930 . S
H328 C336 0.930 . S
H329 C337 0.930 . S
H330 C340 0.930 . S
H331 C341 0.930 . S
C332 H326 0.930 . S
C332 C333 1.355 . S
C332 C334 1.415 . S
C333 C332 1.355 . S
C333 C335 1.419 . S
C334 C332 1.415 . S
C334 C339 1.425 . S
C334 C341 1.409 . S
C335 H327 0.930 . S
C335 C333 1.419 . S
C335 C336 1.362 . S
C336 H328 0.930 . S
C336 C335 1.362 . S
C336 C339 1.409 . S
C337 H329 0.930 . S
C337 C338 1.355 . S
C337 C339 1.415 . S
C338 C337 1.355 . S
C338 C340 1.419 . S
C339 C334 1.425 . S
C339 C336 1.409 . S
C339 C337 1.415 . S
C340 H330 0.930 . S
C340 C338 1.419 . S
C340 C341 1.362 . S
C341 H331 0.930 . S
C341 C334 1.409 . S
C341 C340 1.362 . S
H342 C348 0.930 . S
H343 C351 0.930 . S
H344 C352 0.930 . S
H345 C353 0.930 . S
H346 C356 0.930 . S
H347 C357 0.930 . S
C348 H342 0.930 . S
C348 C349 1.355 . S
C348 C350 1.415 . S
C349 C348 1.355 . S
C349 C351 1.419 1_455 S
C350 C348 1.415 . S
C350 C355 1.425 . S
C350 C357 1.409 . S
C351 H343 0.930 . S
C351 C349 1.419 1_655 S
C351 C352 1.362 . S
C352 H344 0.930 . S
C352 C351 1.362 . S
C352 C355 1.409 1_655 S
C353 H345 0.930 . S
C353 C354 1.355 1_655 S
C353 C355 1.415 1_655 S
C354 C353 1.355 1_455 S
C354 C356 1.419 . S
C355 C350 1.425 . S
C355 C352 1.409 1_455 S
C355 C353 1.415 1_455 S
C356 H346 0.930 . S
C356 C354 1.419 . S
C356 C357 1.362 . S
C357 H347 0.930 . S
C357 C350 1.409 . S
C357 C356 1.362 . S
H358 C364 0.930 . S
H359 C367 0.930 1_565 S
H360 C368 0.930 1_565 S
H361 C369 0.930 . S
H362 C372 0.930 . S
H363 C373 0.930 . S
C364 H358 0.930 . S
C364 C365 1.355 . S
C364 C366 1.415 . S
C365 C364 1.355 . S
C365 C367 1.419 . S
C366 C364 1.415 . S
C366 C371 1.425 . S
C366 C373 1.409 . S
C367 H359 0.930 1_545 S
C367 C365 1.419 . S
C367 C368 1.362 . S
C368 H360 0.930 1_545 S
C368 C367 1.362 . S
C368 C371 1.409 . S
C369 H361 0.930 . S
C369 C370 1.355 . S
C369 C371 1.415 . S
C370 C369 1.355 . S
C370 C372 1.419 . S
C371 C366 1.425 . S
C371 C368 1.409 . S
C371 C369 1.415 . S
C372 H362 0.930 . S
C372 C370 1.419 . S
C372 C373 1.362 . S
C373 H363 0.930 . S
C373 C366 1.409 . S
C373 C372 1.362 . S
H374 C380 0.930 . S
H375 C383 0.930 . S
H376 C384 0.930 . S
H377 C385 0.930 . S
H378 C388 0.930 . S
H379 C389 0.930 . S
C380 H374 0.930 . S
C380 C381 1.355 . S
C380 C382 1.415 . S
C381 C380 1.355 . S
C381 C383 1.419 . S
C382 C380 1.415 . S
C382 C387 1.425 . S
C382 C389 1.409 . S
C383 H375 0.930 . S
C383 C381 1.419 . S
C383 C384 1.362 . S
C384 H376 0.930 . S
C384 C383 1.362 . S
C384 C387 1.409 . S
C385 H377 0.930 . S
C385 C386 1.355 . S
C385 C387 1.415 . S
C386 C385 1.355 . S
C386 C388 1.419 . S
C387 C382 1.425 . S
C387 C384 1.409 . S
C387 C385 1.415 . S
C388 H378 0.930 . S
C388 C386 1.419 . S
C388 C389 1.362 . S
C389 H379 0.930 . S
C389 C382 1.409 . S
C389 C388 1.362 . S
H390 C396 0.930 1_565 S
H391 C399 0.930 . S
H392 C400 0.930 . S
H393 C401 0.930 . S
H394 C404 0.930 1_565 S
H395 C405 0.930 1_565 S
C396 H390 0.930 1_545 S
C396 C397 1.355 . S
C396 C398 1.415 . S
C397 C396 1.355 . S
C397 C399 1.419 . S
C398 C396 1.415 . S
C398 C403 1.425 . S
C398 C405 1.409 . S
C399 H391 0.930 . S
C399 C397 1.419 . S
C399 C400 1.362 . S
C400 H392 0.930 . S
C400 C399 1.362 . S
C400 C403 1.409 . S
C401 H393 0.930 . S
C401 C402 1.355 . S
C401 C403 1.415 . S
C402 C401 1.355 . S
C402 C404 1.419 . S
C403 C398 1.425 . S
C403 C400 1.409 . S
C403 C401 1.415 . S
C404 H394 0.930 1_545 S
C404 C402 1.419 . S
C404 C405 1.362 . S
C405 H395 0.930 1_545 S
C405 C398 1.409 . S
C405 C404 1.362 . S
H406 C412 0.930 . S
H407 C415 0.930 1_554 S
H408 C416 0.930 . S
H409 C417 0.930 . S
H410 C420 0.930 . S
H411 C421 0.930 . S
C412 H406 0.930 . S
C412 C413 1.355 . S
C412 C414 1.415 . S
C413 C412 1.355 . S
C413 C415 1.419 . S
C414 C412 1.415 . S
C414 C419 1.425 . S
C414 C421 1.409 . S
C415 H407 0.930 1_556 S
C415 C413 1.419 . S
C415 C416 1.362 . S
C416 H408 0.930 . S
C416 C415 1.362 . S
C416 C419 1.409 . S
C417 H409 0.930 . S
C417 C418 1.355 . S
C417 C419 1.415 . S
C418 C417 1.355 . S
C418 C420 1.419 . S
C419 C414 1.425 . S
C419 C416 1.409 . S
C419 C417 1.415 . S
C420 H410 0.930 . S
C420 C418 1.419 . S
C420 C421 1.362 . S
C421 H411 0.930 . S
C421 C414 1.409 . S
C421 C420 1.362 . S
H422 C428 0.930 . S
H423 C431 0.930 . S
H424 C432 0.930 . S
H425 C433 0.930 . S
H426 C436 0.930 . S
H427 C437 0.930 . S
C428 H422 0.930 . S
C428 C429 1.355 1_655 S
C428 C430 1.415 . S
C429 C428 1.355 1_455 S
C429 C431 1.419 . S
C430 C428 1.415 . S
C430 C435 1.425 1_655 S
C430 C437 1.409 . S
C431 H423 0.930 . S
C431 C429 1.419 . S
C431 C432 1.362 . S
C432 H424 0.930 . S
C432 C431 1.362 . S
C432 C435 1.409 . S
C433 H425 0.930 . S
C433 C434 1.355 . S
C433 C435 1.415 . S
C434 C433 1.355 . S
C434 C436 1.419 1_455 S
C435 C430 1.425 1_455 S
C435 C432 1.409 . S
C435 C433 1.415 . S
C436 H426 0.930 . S
C436 C434 1.419 1_655 S
C436 C437 1.362 . S
C437 H427 0.930 . S
C437 C430 1.409 . S
C437 C436 1.362 . S
H438 C444 0.930 . S
H439 C447 0.930 . S
H440 C448 0.930 . S
H441 C449 0.930 . S
H442 C452 0.925 1_565 S
H443 C453 0.930 . S
C444 H438 0.930 . S
C444 C445 1.355 1_565 S
C444 C446 1.415 1_565 S
C445 C444 1.355 1_545 S
C445 C447 1.419 . S
C446 C444 1.415 1_545 S
C446 C451 1.425 . S
C446 C453 1.409 1_545 S
C447 H439 0.930 . S
C447 C445 1.419 . S
C447 C448 1.362 . S
C448 H440 0.930 . S
C448 C447 1.362 . S
C448 C451 1.409 . S
C449 H441 0.930 . S
C449 C450 1.355 . S
C449 C451 1.415 . S
C450 C449 1.355 . S
C450 C452 1.422 . S
C451 C446 1.425 . S
C451 C448 1.409 . S
C451 C449 1.415 . S
C452 H442 0.925 1_545 S
C452 C450 1.422 . S
C452 C453 1.364 1_545 S
C453 H443 0.930 . S
C453 C446 1.409 1_565 S
C453 C452 1.364 1_565 S
H454 C460 0.930 . S
H455 C463 0.930 . S
H456 C464 0.930 . S
H457 C465 0.930 . S
H458 C468 0.930 . S
H459 C469 0.930 . S
C460 H454 0.930 . S
C460 C461 1.355 . S
C460 C462 1.415 . S
C461 C460 1.355 . S
C461 C463 1.419 . S
C462 C460 1.415 . S
C462 C467 1.425 . S
C462 C469 1.409 . S
C463 H455 0.930 . S
C463 C461 1.419 . S
C463 C464 1.362 . S
C464 H456 0.930 . S
C464 C463 1.362 . S
C464 C467 1.409 . S
C465 H457 0.930 . S
C465 C466 1.355 . S
C465 C467 1.415 . S
C466 C465 1.355 . S
C466 C468 1.419 . S
C467 C462 1.425 . S
C467 C464 1.409 . S
C467 C465 1.415 . S
C468 H458 0.930 . S
C468 C466 1.419 . S
C468 C469 1.362 . S
C469 H459 0.930 . S
C469 C462 1.409 . S
C469 C468 1.362 . S
H470 C476 0.930 . S
H471 C479 0.930 . S
H472 C480 0.930 . S
H473 C481 0.930 . S
H474 C484 0.930 . S
H475 C485 0.930 . S
C476 H470 0.930 . S
C476 C477 1.355 1_655 S
C476 C478 1.415 1_655 S
C477 C476 1.355 1_455 S
C477 C479 1.419 . S
C478 C476 1.415 1_455 S
C478 C483 1.425 . S
C478 C485 1.409 1_455 S
C479 H471 0.930 . S
C479 C477 1.419 . S
C479 C480 1.362 . S
C480 H472 0.930 . S
C480 C479 1.362 . S
C480 C483 1.409 . S
C481 H473 0.930 . S
C481 C482 1.355 . S
C481 C483 1.415 . S
C482 C481 1.355 . S
C482 C484 1.419 1_455 S
C483 C478 1.425 . S
C483 C480 1.409 . S
C483 C481 1.415 . S
C484 H474 0.930 . S
C484 C482 1.419 1_655 S
C484 C485 1.362 . S
C485 H475 0.930 . S
C485 C478 1.409 1_655 S
C485 C484 1.362 . S
C306 C161 1.382 . S
C301 C14 1.343 . S
C317 C40 1.407 . S
C322 C205 1.414 . S
C333 C76 1.370 . S
C338 C267 1.414 . S
C349 C3 1.382 . S
C354 C143 1.380 . S
C370 C223 1.407 . S
C365 C38 1.418 . S
C381 C74 1.378 . S
C386 C285 1.381 . S
C402 C199 1.609 . S
C397 C86 1.629 . S
C413 C2 1.689 1_556 S
C418 C261 1.589 . S
C434 C137 1.544 . S
C429 C39 1.680 . S
C450 C217 1.549 . S
C445 C75 1.674 . S
C466 C279 1.615 . S
C461 C4 1.669 1_556 S
C477 C50 1.589 . S
C482 C155 1.553 . S
