# Generated by pormake.
# Topology anh, (6,3)-cn, num edge types: 1
# Building blocks:
#     Node 0, Type 0, BuildingBlock: MIFKUJ_clean_sbu_0, # of connection points: 6
#     Node 1, Type 0, BuildingBlock: MIFKUJ_clean_sbu_0, # of connection points: 6
#     Node 2, Type 0, BuildingBlock: MIFKUJ_clean_sbu_0, # of connection points: 6
#     Node 3, Type 1, BuildingBlock: BETDIP_clean_linker_0, # of connection points: 3
#     Node 4, Type 1, BuildingBlock: BETDIP_clean_linker_0, # of connection points: 3
#     Node 5, Type 1, BuildingBlock: BETDIP_clean_linker_0, # of connection points: 3
#     Node 6, Type 1, BuildingBlock: BETDIP_clean_linker_0, # of connection points: 3
#     Node 7, Type 1, BuildingBlock: BETDIP_clean_linker_0, # of connection points: 3
#     Node 8, Type 1, BuildingBlock: BETDIP_clean_linker_0, # of connection points: 3
#     Edge 9, Type (0, 1), BuildingBlock: CIFDUS_clean_linker_0, # of connection points: 2
#     Edge 10, Type (0, 1), BuildingBlock: CIFDUS_clean_linker_0, # of connection points: 2
#     Edge 11, Type (0, 1), BuildingBlock: CIFDUS_clean_linker_0, # of connection points: 2
#     Edge 12, Type (0, 1), BuildingBlock: CIFDUS_clean_linker_0, # of connection points: 2
#     Edge 13, Type (0, 1), BuildingBlock: CIFDUS_clean_linker_0, # of connection points: 2
#     Edge 14, Type (0, 1), BuildingBlock: CIFDUS_clean_linker_0, # of connection points: 2
#     Edge 15, Type (0, 1), BuildingBlock: CIFDUS_clean_linker_0, # of connection points: 2
#     Edge 16, Type (0, 1), BuildingBlock: CIFDUS_clean_linker_0, # of connection points: 2
#     Edge 17, Type (0, 1), BuildingBlock: CIFDUS_clean_linker_0, # of connection points: 2
#     Edge 18, Type (0, 1), BuildingBlock: CIFDUS_clean_linker_0, # of connection points: 2
#     Edge 19, Type (0, 1), BuildingBlock: CIFDUS_clean_linker_0, # of connection points: 2
#     Edge 20, Type (0, 1), BuildingBlock: CIFDUS_clean_linker_0, # of connection points: 2
#     Edge 21, Type (0, 1), BuildingBlock: CIFDUS_clean_linker_0, # of connection points: 2
#     Edge 22, Type (0, 1), BuildingBlock: CIFDUS_clean_linker_0, # of connection points: 2
#     Edge 23, Type (0, 1), BuildingBlock: CIFDUS_clean_linker_0, # of connection points: 2
#     Edge 24, Type (0, 1), BuildingBlock: CIFDUS_clean_linker_0, # of connection points: 2
#     Edge 25, Type (0, 1), BuildingBlock: CIFDUS_clean_linker_0, # of connection points: 2
#     Edge 26, Type (0, 1), BuildingBlock: CIFDUS_clean_linker_0, # of connection points: 2
# Relax obj value: 0.083
# Max RMSD: 0.185
# Mean RMSD: 0.118
data_MOF--net-anh--node1-MIFKUJ_clean_sbu_0--node2-BETDIP_clean_linker_0--edge1-CIFDUS_clean_linker_0
_symmetry_space_group_name_H-M    P1
_symmetry_Int_Tables_number       1
_symmetry_cell_setting            triclinic
loop_
_symmetry_equiv_pos_as_xyz
'x, y, z'
_cell_length_a     28.094773
_cell_length_b     28.135612
_cell_length_c     40.859084
_cell_angle_alpha  97.730508
_cell_angle_beta   90.6981
_cell_angle_gamma 119.76013
loop_
_atom_site_label
_atom_site_type_symbol
_atom_site_fract_x
_atom_site_fract_y
_atom_site_fract_z
_atom_type_partial_charge
Zn0 Zn 0.0455 0.64606 0.17166 0.0
Zn1 Zn 0.90408 0.52359 0.16384 0.0
C2 C 0.11456 0.59569 0.17084 0.0
O3 O 0.11412 0.60436 0.20321 0.0
C4 C 0.81394 0.54821 0.17851 0.0
O5 O 0.81967 0.54076 0.20904 0.0
O6 O 0.10618 0.72622 0.17674 0.0
O7 O 0.98464 0.63339 0.13932 0.0
O8 O 0.94977 0.54348 0.1243 0.0
C9 C 0.11602 0.76305 0.20169 0.0
O10 O 0.0823 0.7506 0.2252 0.0
O11 O 0.08479 0.606 0.15259 0.0
C12 C 0.81479 0.41201 0.14017 0.0
O13 O 0.80233 0.43734 0.11977 0.0
O14 O 0.85846 0.43999 0.15992 0.0
O15 O 0.94168 0.5507 0.21076 0.0
O16 O 0.02343 0.62806 0.21643 0.0
O17 O 0.8468 0.54644 0.15784 0.0
C18 C 0.96906 0.59174 0.11673 0.0
C19 C 0.98399 0.58974 0.22865 0.0
Zn20 Zn 0.66505 0.10123 0.50439 0.0
Zn21 Zn 0.57575 0.93362 0.49813 0.0
C22 C 0.78068 0.16514 0.51665 0.0
O23 O 0.76678 0.18462 0.54362 0.0
C24 C 0.47418 0.83853 0.47189 0.0
O25 O 0.5015 0.84505 0.44546 0.0
O26 O 0.66371 0.17272 0.51419 0.0
O27 O 0.61838 0.0589 0.46185 0.0
O28 O 0.57318 0.96708 0.4577 0.0
C29 C 0.65754 0.20024 0.49391 0.0
O30 O 0.64958 0.1816 0.46194 0.0
O31 O 0.74311 0.12431 0.49687 0.0
C32 C 0.62743 0.87093 0.46733 0.0
O33 O 0.61313 0.87862 0.43864 0.0
O34 O 0.61931 0.89392 0.49398 0.0
O35 O 0.59307 0.97822 0.54386 0.0
O36 O 0.64358 0.06935 0.54617 0.0
O37 O 0.49773 0.87245 0.49855 0.0
C38 C 0.58707 0.01088 0.44539 0.0
C39 C 0.61835 0.02703 0.56026 0.0
Zn40 Zn 0.5278 0.47093 0.82802 0.0
Zn41 Zn 0.42247 0.53787 0.82792 0.0
C42 C 0.482 0.35354 0.83326 0.0
O43 O 0.44852 0.35994 0.85316 0.0
C44 C 0.43856 0.63654 0.81251 0.0
O45 O 0.3976 0.59854 0.79122 0.0
O46 O 0.60956 0.5202 0.82713 0.0
O47 O 0.48571 0.48223 0.79324 0.0
O48 O 0.42744 0.50882 0.78104 0.0
C49 C 0.63255 0.50546 0.80454 0.0
O50 O 0.60151 0.46284 0.78147 0.0
O51 O 0.51548 0.39366 0.81935 0.0
C52 C 0.33943 0.551 0.85627 0.0
O53 O 0.3828 0.58574 0.87699 0.0
O54 O 0.34391 0.51861 0.83327 0.0
O55 O 0.4503 0.51522 0.86562 0.0
O56 O 0.5054 0.48173 0.87352 0.0
O57 O 0.46255 0.62128 0.83167 0.0
C58 C 0.4584 0.48978 0.77167 0.0
C59 C 0.47338 0.49864 0.88456 0.0
H60 H 0.45266 0.03237 0.17351 0.0
H61 H 0.58461 0.09947 0.25097 0.0
H62 H 0.42133 0.97723 0.26831 0.0
H63 H 0.51091 0.10668 0.15051 0.0
C64 C 0.55258 0.12445 0.1618 0.0
C65 C 0.46736 0.03455 0.19855 0.0
C66 C 0.43021 0.00055 0.21953 0.0
C67 C 0.52317 0.07081 0.21021 0.0
C68 C 0.54145 0.07204 0.24244 0.0
C69 C 0.50504 0.03896 0.26373 0.0
C70 C 0.44957 0.00324 0.25204 0.0
N71 N 0.56284 0.10725 0.19091 0.0
H72 H 0.64217 0.51257 0.5122 0.0
H73 H 0.58184 0.56368 0.59821 0.0
H74 H 0.57365 0.40582 0.58562 0.0
H75 H 0.63621 0.58293 0.49164 0.0
C76 C 0.64047 0.61247 0.51313 0.0
C77 C 0.62218 0.50398 0.53488 0.0
C78 C 0.60955 0.45466 0.54684 0.0
C79 C 0.61157 0.54314 0.55352 0.0
C80 C 0.58813 0.53243 0.5836 0.0
C81 C 0.57445 0.48316 0.59547 0.0
C82 C 0.58475 0.44434 0.57675 0.0
N83 N 0.62668 0.59551 0.54453 0.0
H84 H 0.97323 0.60649 0.82907 0.0
H85 H 0.06017 0.59808 0.91345 0.0
H86 H 0.90525 0.5914 0.9237 0.0
H87 H 0.12662 0.6906 0.87592 0.0
C88 C 0.12011 0.65226 0.86125 0.0
C89 C 0.97554 0.6028 0.85503 0.0
C90 C 0.93388 0.59997 0.87483 0.0
C91 C 0.02162 0.60342 0.86916 0.0
C92 C 0.02486 0.59839 0.90271 0.0
C93 C 0.98294 0.59408 0.9224 0.0
C94 C 0.93801 0.59551 0.90845 0.0
N95 N 0.06539 0.61006 0.84989 0.0
H96 H 0.17084 0.55006 0.47124 0.0
H97 H 0.01358 0.46796 0.41407 0.0
H98 H 0.14875 0.61443 0.38632 0.0
H99 H 0.03823 0.39223 0.42612 0.0
C100 C 0.03804 0.40598 0.45228 0.0
C101 C 0.14461 0.54831 0.45088 0.0
C102 C 0.16613 0.58748 0.42938 0.0
C103 C 0.09023 0.50441 0.44482 0.0
C104 C 0.05605 0.50132 0.41818 0.0
C105 C 0.0764 0.54175 0.39735 0.0
C106 C 0.13176 0.58419 0.40298 0.0
N107 N 0.07047 0.46318 0.46551 0.0
H108 H 0.51294 0.07149 0.83781 0.0
H109 H 0.52781 0.95918 0.76228 0.0
H110 H 0.55869 0.11772 0.74191 0.0
H111 H 0.4147 0.92859 0.80495 0.0
C112 C 0.44679 0.92397 0.81672 0.0
C113 C 0.52266 0.06257 0.81296 0.0
C114 C 0.53752 0.10147 0.79128 0.0
C115 C 0.51894 0.01135 0.80227 0.0
C116 C 0.53075 0.99899 0.77008 0.0
C117 C 0.54626 0.0376 0.74822 0.0
C118 C 0.54932 0.08864 0.75907 0.0
N119 N 0.50061 0.97065 0.82317 0.0
H120 H 0.40747 0.55613 0.16993 0.0
H121 H 0.48979 0.54332 0.08454 0.0
H122 H 0.33287 0.53158 0.0713 0.0
H123 H 0.50384 0.4876 0.11542 0.0
C124 C 0.52073 0.51756 0.13819 0.0
C125 C 0.40764 0.55012 0.14322 0.0
C126 C 0.36468 0.54639 0.12252 0.0
C127 C 0.45126 0.54583 0.12948 0.0
C128 C 0.45398 0.54189 0.09501 0.0
C129 C 0.41171 0.53722 0.07391 0.0
C130 C 0.36671 0.53811 0.08782 0.0
N131 N 0.49257 0.5459 0.15024 0.0
H132 H 0.17063 0.55234 0.19849 0.0
H133 H 0.15396 0.61443 0.11055 0.0
H134 H 0.23077 0.60686 0.08893 0.0
H135 H 0.30545 0.58798 0.0962 0.0
H136 H 0.31699 0.51575 0.18079 0.0
H137 H 0.24098 0.52433 0.20306 0.0
C138 C 0.18347 0.56362 0.17443 0.0
C139 C 0.15657 0.58409 0.15625 0.0
C140 C 0.22749 0.55851 0.16183 0.0
C141 C 0.17357 0.59827 0.12503 0.0
C142 C 0.21784 0.59435 0.11273 0.0
C143 C 0.29086 0.57253 0.11909 0.0
C144 C 0.31767 0.55104 0.13652 0.0
C145 C 0.24544 0.57512 0.13106 0.0
C146 C 0.2985 0.53351 0.16686 0.0
C147 C 0.25437 0.53777 0.17952 0.0
H148 H 0.86221 0.26749 0.54518 0.0
H149 H 0.82206 0.13809 0.46169 0.0
H150 H 0.90272 0.20088 0.43595 0.0
H151 H 0.9767 0.29582 0.43358 0.0
H152 H 0.01501 0.42589 0.5161 0.0
H153 H 0.94311 0.35956 0.54583 0.0
C154 C 0.87171 0.25259 0.5217 0.0
C155 C 0.83563 0.19846 0.50513 0.0
C156 C 0.91733 0.28933 0.5066 0.0
C157 C 0.84882 0.17976 0.47482 0.0
C158 C 0.89478 0.21572 0.45998 0.0
C159 C 0.96975 0.30931 0.4583 0.0
C160 C 1.00038 0.36552 0.47246 0.0
C161 C 0.928 0.27113 0.47504 0.0
C162 C 0.99159 0.38278 0.50456 0.0
C163 C 0.95044 0.3449 0.52156 0.0
H164 H 0.3668 0.66977 0.7994 0.0
H165 H 0.53452 0.73186 0.83749 0.0
H166 H 0.55164 0.82726 0.84417 0.0
H167 H 0.51933 0.89269 0.8367 0.0
H168 H 0.35068 0.82869 0.79944 0.0
H169 H 0.33312 0.73384 0.79539 0.0
C170 C 0.40726 0.70421 0.80897 0.0
C171 C 0.44974 0.69414 0.8173 0.0
C172 C 0.41637 0.75835 0.8131 0.0
C173 C 0.50141 0.73887 0.83062 0.0
C174 C 0.51112 0.79326 0.83445 0.0
C175 C 0.47866 0.85796 0.82797 0.0
C176 C 0.43632 0.86745 0.81812 0.0
C177 C 0.46899 0.8035 0.82546 0.0
C178 C 0.38381 0.82217 0.80704 0.0
C179 C 0.37383 0.76805 0.80459 0.0
H180 H 0.74272 0.56916 0.21481 0.0
H181 H 0.77217 0.52648 0.11451 0.0
H182 H 0.6849 0.51466 0.09379 0.0
H183 H 0.59758 0.51046 0.104 0.0
H184 H 0.56794 0.55829 0.20282 0.0
H185 H 0.65783 0.57432 0.22435 0.0
C186 C 0.73024 0.5579 0.18841 0.0
C187 C 0.76396 0.54832 0.16633 0.0
C188 C 0.67983 0.55175 0.17642 0.0
C189 C 0.74734 0.53421 0.13214 0.0
C190 C 0.69719 0.52714 0.1202 0.0
C191 C 0.61108 0.52485 0.13025 0.0
C192 C 0.57632 0.53273 0.15189 0.0
C193 C 0.66278 0.53485 0.14212 0.0
C194 C 0.59423 0.55199 0.18574 0.0
C195 C 0.64546 0.56094 0.19799 0.0
H196 H 0.41331 0.76326 0.41813 0.0
H197 H 0.406 0.81111 0.52203 0.0
H198 H 0.31029 0.736 0.5185 0.0
H199 H 0.22774 0.65802 0.48522 0.0
H200 H 0.2364 0.6122 0.38131 0.0
H201 H 0.33266 0.68532 0.38553 0.0
C202 C 0.39094 0.75729 0.44008 0.0
C203 C 0.4167 0.79277 0.47025 0.0
C204 C 0.33611 0.71443 0.43783 0.0
C205 C 0.38704 0.78438 0.49844 0.0
C206 C 0.33234 0.74145 0.49646 0.0
C207 C 0.25103 0.66391 0.46367 0.0
C208 C 0.22515 0.63021 0.43298 0.0
C209 C 0.30636 0.70636 0.46622 0.0
C210 C 0.25542 0.63825 0.40509 0.0
C211 C 0.31041 0.67987 0.4075 0.0
H212 H 0.56325 0.33867 0.80846 0.0
H213 H 0.40697 0.25279 0.84928 0.0
H214 H 0.4121 0.16767 0.84205 0.0
H215 H 0.45951 0.11689 0.82181 0.0
H216 H 0.61639 0.20444 0.78197 0.0
H217 H 0.61268 0.29 0.7914 0.0
C218 C 0.53013 0.30131 0.8157 0.0
C219 C 0.48444 0.30183 0.82899 0.0
C220 C 0.53363 0.25297 0.81179 0.0
C221 C 0.44242 0.25334 0.83878 0.0
C222 C 0.44538 0.20472 0.83471 0.0
C223 C 0.49328 0.15497 0.81577 0.0
C224 C 0.53801 0.15437 0.80104 0.0
C225 C 0.49068 0.20399 0.82105 0.0
C226 C 0.58125 0.20382 0.79299 0.0
C227 C 0.57915 0.25269 0.79836 0.0
H228 H 0.65972 0.8461 0.52227 0.0
H229 H 0.62538 0.79571 0.41617 0.0
H230 H 0.63162 0.7131 0.42057 0.0
H231 H 0.63636 0.64972 0.45555 0.0
H232 H 0.66778 0.70062 0.56172 0.0
H233 H 0.67323 0.78814 0.55623 0.0
C234 C 0.65439 0.81755 0.49999 0.0
C235 C 0.64144 0.82687 0.469 0.0
C236 C 0.65682 0.76963 0.50276 0.0
C237 C 0.63523 0.78959 0.44039 0.0
C238 C 0.63845 0.74207 0.4429 0.0
C239 C 0.64517 0.68042 0.47735 0.0
C240 C 0.65068 0.66823 0.50897 0.0
C241 C 0.64757 0.73079 0.47409 0.0
C242 C 0.66237 0.70841 0.53708 0.0
C243 C 0.66564 0.75866 0.534 0.0
H244 H 0.70848 0.59027 0.85042 0.0
H245 H 0.69201 0.47093 0.7662 0.0
H246 H 0.78733 0.49511 0.7781 0.0
H247 H 0.87074 0.54027 0.81712 0.0
H248 H 0.88656 0.65867 0.90159 0.0
H249 H 0.7964 0.64498 0.88478 0.0
C250 C 0.726 0.57025 0.83431 0.0
C251 C 0.69279 0.52812 0.80788 0.0
C252 C 0.78063 0.58369 0.84157 0.0
C253 C 0.71641 0.50312 0.78698 0.0
C254 C 0.77095 0.51675 0.79382 0.0
C255 C 0.85502 0.5641 0.83133 0.0
C256 C 0.8847 0.59958 0.86087 0.0
C257 C 0.80279 0.55551 0.82175 0.0
C258 C 0.86384 0.63017 0.87911 0.0
C259 C 0.81235 0.62243 0.86951 0.0
H260 H 0.19935 0.79674 0.16105 0.0
H261 H 0.15251 0.84904 0.2533 0.0
H262 H 0.24433 0.93065 0.2651 0.0
H263 H 0.34023 0.98226 0.25193 0.0
H264 H 0.38846 0.92841 0.16094 0.0
H265 H 0.29351 0.85308 0.1456 0.0
C266 C 0.20891 0.82634 0.18354 0.0
C267 C 0.16911 0.8163 0.20644 0.0
C268 C 0.26216 0.87287 0.19045 0.0
C269 C 0.18231 0.85538 0.23534 0.0
C270 C 0.23492 0.90208 0.24216 0.0
C271 C 0.32985 0.95422 0.22862 0.0
C272 C 0.37147 0.96049 0.2078 0.0
C273 C 0.27553 0.91041 0.22034 0.0
C274 C 0.3572 0.92462 0.17736 0.0
C275 C 0.303 0.88126 0.16872 0.0
H276 H 0.62531 0.25965 0.46085 0.0
H277 H 0.6924 0.25854 0.55628 0.0
H278 H 0.68889 0.34076 0.57969 0.0
H279 H 0.6611 0.40885 0.5745 0.0
H280 H 0.58978 0.40946 0.48069 0.0
H281 H 0.60204 0.33261 0.45493 0.0
C282 C 0.63957 0.27773 0.48668 0.0
C283 C 0.65848 0.25249 0.50685 0.0
C284 C 0.6368 0.32496 0.50025 0.0
C285 C 0.67698 0.27656 0.54026 0.0
C286 C 0.67516 0.32374 0.55371 0.0
C287 C 0.64838 0.39227 0.54836 0.0
C288 C 0.6238 0.41409 0.52962 0.0
C289 C 0.65419 0.34755 0.53413 0.0
C290 C 0.60877 0.39324 0.49561 0.0
C291 C 0.61537 0.34906 0.481 0.0
H292 H 0.33843 0.6448 0.87873 0.0
H293 H 0.23403 0.47647 0.82932 0.0
H294 H 0.15655 0.4932 0.825 0.0
H295 H 0.11872 0.55599 0.83611 0.0
H296 H 0.22539 0.72486 0.88417 0.0
H297 H 0.30236 0.70789 0.88764 0.0
C298 C 0.29854 0.61147 0.86738 0.0
C299 C 0.29151 0.55912 0.85496 0.0
C300 C 0.25495 0.62178 0.86436 0.0
C301 C 0.24011 0.51692 0.83941 0.0
C302 C 0.19598 0.52656 0.83683 0.0
C303 C 0.15891 0.5891 0.84711 0.0
C304 C 0.16653 0.64162 0.86001 0.0
C305 C 0.20294 0.5789 0.84924 0.0
C306 C 0.21874 0.68415 0.87414 0.0
C307 C 0.26261 0.67441 0.87627 0.0
H308 H 0.7115 0.34611 0.10872 0.0
H309 H 0.82735 0.34731 0.17975 0.0
H310 H 0.75751 0.25633 0.19077 0.0
H311 H 0.66186 0.1802 0.18371 0.0
H312 H 0.54478 0.17935 0.114 0.0
H313 H 0.61706 0.26628 0.09872 0.0
C314 C 0.72177 0.32621 0.1263 0.0
C315 C 0.7746 0.35386 0.14357 0.0
C316 C 0.68107 0.27413 0.13293 0.0
C317 C 0.78704 0.32725 0.16622 0.0
C318 C 0.74704 0.27521 0.17261 0.0
C319 C 0.65209 0.19871 0.16499 0.0
C320 C 0.5978 0.17372 0.15024 0.0
C321 C 0.69362 0.24888 0.15669 0.0
C322 C 0.5862 0.19802 0.12578 0.0
C323 C 0.62747 0.24774 0.11713 0.0
H324 H 0.97989 0.52805 0.06429 0.0
H325 H 0.96655 0.67443 0.09102 0.0
H326 H 0.9709 0.68868 0.03333 0.0
H327 H 0.97644 0.65861 0.97508 0.0
H328 H 0.99458 0.51547 0.94802 0.0
H329 H 0.99106 0.50104 0.00604 0.0
C330 C 0.97782 0.56293 0.05738 0.0
C331 C 0.97241 0.59984 0.08174 0.0
C332 C 0.98149 0.57157 0.02419 0.0
C333 C 0.9707 0.64543 0.07266 0.0
C334 C 0.97313 0.65361 0.03969 0.0
C335 C 0.97982 0.62444 0.98204 0.0
C336 C 0.9854 0.58792 0.95759 0.0
C337 C 0.97828 0.61686 0.01528 0.0
C338 C 0.99045 0.54413 0.96666 0.0
C339 C 0.98814 0.53575 -0.00029 0.0
H340 H 0.61092 0.09475 0.41065 0.0
H341 H 0.51665 0.91633 0.40213 0.0
H342 H 0.48292 0.90924 0.34533 0.0
H343 H 0.48075 0.95384 0.29785 0.0
H344 H 0.57405 0.13236 0.30728 0.0
H345 H 0.60792 0.13913 0.36393 0.0
C346 C 0.58287 0.05422 0.39652 0.0
C347 C 0.56635 0.00619 0.41084 0.0
C348 C 0.5636 0.05044 0.36392 0.0
C349 C 0.53014 0.95407 0.39188 0.0
C350 C 0.51078 0.94995 0.35934 0.0
C351 C 0.50811 0.99422 0.31242 0.0
C352 C 0.52497 0.0425 0.2983 0.0
C353 C 0.52723 0.99788 0.34512 0.0
C354 C 0.56106 0.0945 0.31736 0.0
C355 C 0.58021 0.09845 0.34983 0.0
H356 H 0.52096 0.44975 0.7429 0.0
H357 H 0.41464 0.51306 0.72021 0.0
H358 H 0.43843 0.51308 0.66302 0.0
H359 H 0.49518 0.50238 0.62063 0.0
H360 H 0.60482 0.44328 0.64417 0.0
H361 H 0.57396 0.43426 0.69974 0.0
C362 C 0.50284 0.46332 0.72544 0.0
C363 C 0.46681 0.48216 0.73605 0.0
C364 C 0.51757 0.46432 0.69273 0.0
C365 C 0.44278 0.49859 0.71285 0.0
C366 C 0.45654 0.49888 0.68012 0.0
C367 C 0.51225 0.48749 0.63794 0.0
C368 C 0.55244 0.47384 0.62832 0.0
C369 C 0.49492 0.48314 0.67002 0.0
C370 C 0.57349 0.45364 0.65082 0.0
C371 C 0.55611 0.44877 0.68269 0.0
H372 H 0.54915 0.95208 0.59765 0.0
H373 H 0.68226 0.12125 0.60464 0.0
H374 H 0.67421 0.1379 0.66387 0.0
H375 H 0.62651 0.1062 0.713 0.0
H376 H 0.48981 0.93894 0.7056 0.0
H377 H 0.50313 0.91947 0.64744 0.0
C378 C 0.57679 0.99243 0.61218 0.0
C379 C 0.61603 0.0354 0.59663 0.0
C380 C 0.57137 0.0021 0.64619 0.0
C381 C 0.65138 0.08751 0.61587 0.0
C382 C 0.64686 0.09711 0.64977 0.0
C383 C 0.59946 0.06551 0.69865 0.0
C384 C 0.55701 0.02427 0.71363 0.0
C385 C 0.60642 0.05502 0.66505 0.0
C386 C 0.52317 0.97137 0.69484 0.0
C387 C 0.53046 0.9603 0.66148 0.0
H388 H 0.42585 0.55019 0.92064 0.0
H389 H 0.49734 0.4467 0.92826 0.0
H390 H 0.48168 0.44705 0.98678 0.0
H391 H 0.44926 0.4777 0.03596 0.0
H392 H 0.38243 0.58547 0.0296 0.0
H393 H 0.39317 0.58103 0.97021 0.0
C394 C 0.43776 0.52752 0.93505 0.0
C395 C 0.46289 0.49864 0.92001 0.0
C396 C 0.42913 0.52829 0.96888 0.0
C397 C 0.4783 0.46967 0.93917 0.0
C398 C 0.46922 0.46967 0.97266 0.0
C399 C 0.43745 0.50068 0.02171 0.0
C400 C 0.41534 0.53211 0.03738 0.0
C401 C 0.44506 0.49915 0.98781 0.0
C402 C 0.39901 0.56043 0.01821 0.0
C403 C 0.40559 0.55832 0.98427 0.0
H404 H 0.95265 0.49891 0.25792 0.0
H405 H 0.03284 0.67745 0.27853 0.0
H406 H 0.06065 0.67705 0.3353 0.0
H407 H 0.0728 0.62731 0.37618 0.0
H408 H 0.00241 0.44979 0.35359 0.0
H409 H 0.95856 0.44805 0.30105 0.0
C410 C 0.97501 0.53751 0.27517 0.0
C411 C 0.99093 0.58816 0.26419 0.0
C412 C 0.99297 0.53711 0.30732 0.0
C413 C 0.02046 0.63804 0.28651 0.0
C414 C 0.03648 0.63782 0.31889 0.0
C415 C 0.04766 0.58816 0.35983 0.0
C416 C 0.04182 0.53895 0.36852 0.0
C417 C 0.02479 0.58781 0.3291 0.0
C418 C 0.00766 0.48834 0.34755 0.0
C419 C 0.98297 0.48737 0.31734 0.0
loop_
_geom_bond_atom_site_label_1
_geom_bond_atom_site_label_2
_geom_bond_distance
_geom_bond_site_symmetry_2
_ccdc_geom_bond_type
Zn0 O6 1.969 . S
Zn0 O7 1.965 . S
Zn0 O11 2.024 . S
Zn0 O16 1.969 . S
Zn1 O8 1.969 . S
Zn1 O14 1.969 . S
Zn1 O15 1.965 1_655 S
Zn1 O17 2.024 . S
C2 O3 1.229 . S
C2 O11 1.058 . S
O3 C2 1.229 . S
C4 O5 1.229 . S
C4 O17 1.058 . S
O5 C4 1.229 . S
O6 Zn0 1.969 . S
O6 C9 1.267 . S
O7 Zn0 1.965 . S
O7 C18 1.260 . S
O8 Zn1 1.969 . S
O8 C18 1.258 1_655 S
C9 O6 1.267 . S
C9 O10 1.228 . S
O10 C9 1.228 . S
O11 Zn0 2.024 . S
O11 C2 1.058 . S
C12 O13 1.228 . S
C12 O14 1.267 . S
O13 C12 1.228 . S
O14 Zn1 1.969 . S
O14 C12 1.267 . S
O15 Zn1 1.965 1_455 S
O15 C19 1.260 . S
O16 Zn0 1.969 . S
O16 C19 1.258 . S
O17 Zn1 2.024 . S
O17 C4 1.058 . S
C18 O7 1.260 . S
C18 O8 1.258 1_455 S
C19 O15 1.260 . S
C19 O16 1.258 . S
Zn20 O26 1.969 . S
Zn20 O27 1.965 . S
Zn20 O31 2.024 . S
Zn20 O36 1.969 . S
Zn21 O28 1.969 . S
Zn21 O34 1.969 . S
Zn21 O35 1.965 1_565 S
Zn21 O37 2.024 . S
C22 O23 1.229 . S
C22 O31 1.058 . S
O23 C22 1.229 . S
C24 O25 1.229 . S
C24 O37 1.058 . S
O25 C24 1.229 . S
O26 Zn20 1.969 . S
O26 C29 1.267 . S
O27 Zn20 1.965 . S
O27 C38 1.260 . S
O28 Zn21 1.969 . S
O28 C38 1.258 1_565 S
C29 O26 1.267 . S
C29 O30 1.228 . S
O30 C29 1.228 . S
O31 Zn20 2.024 . S
O31 C22 1.058 . S
C32 O33 1.228 . S
C32 O34 1.267 . S
O33 C32 1.228 . S
O34 Zn21 1.969 . S
O34 C32 1.267 . S
O35 Zn21 1.965 1_545 S
O35 C39 1.260 . S
O36 Zn20 1.969 . S
O36 C39 1.258 . S
O37 Zn21 2.024 . S
O37 C24 1.058 . S
C38 O27 1.260 . S
C38 O28 1.258 1_545 S
C39 O35 1.260 . S
C39 O36 1.258 . S
Zn40 O46 1.969 . S
Zn40 O47 1.965 . S
Zn40 O51 2.024 . S
Zn40 O56 1.969 . S
Zn41 O48 1.969 . S
Zn41 O54 1.969 . S
Zn41 O55 1.965 . S
Zn41 O57 2.024 . S
C42 O43 1.229 . S
C42 O51 1.058 . S
O43 C42 1.229 . S
C44 O45 1.229 . S
C44 O57 1.058 . S
O45 C44 1.229 . S
O46 Zn40 1.969 . S
O46 C49 1.267 . S
O47 Zn40 1.965 . S
O47 C58 1.260 . S
O48 Zn41 1.969 . S
O48 C58 1.258 . S
C49 O46 1.267 . S
C49 O50 1.228 . S
O50 C49 1.228 . S
O51 Zn40 2.024 . S
O51 C42 1.058 . S
C52 O53 1.228 . S
C52 O54 1.267 . S
O53 C52 1.228 . S
O54 Zn41 1.969 . S
O54 C52 1.267 . S
O55 Zn41 1.965 . S
O55 C59 1.260 . S
O56 Zn40 1.969 . S
O56 C59 1.258 . S
O57 Zn41 2.024 . S
O57 C44 1.058 . S
C58 O47 1.260 . S
C58 O48 1.258 . S
C59 O55 1.260 . S
C59 O56 1.258 . S
H60 C65 0.930 . S
H61 C68 0.930 . S
H62 C70 0.935 . S
H63 C64 1.016 . S
C64 H63 1.016 . S
C64 N71 1.286 . S
C65 H60 0.930 . S
C65 C66 1.397 1_545 S
C65 C67 1.361 . S
C66 C65 1.397 1_565 S
C66 C70 1.391 . S
C67 C65 1.361 . S
C67 C68 1.393 . S
C67 N71 1.413 . S
C68 H61 0.930 . S
C68 C67 1.393 . S
C68 C69 1.399 . S
C69 C68 1.399 . S
C69 C70 1.377 1_545 S
C70 H62 0.935 . S
C70 C66 1.391 . S
C70 C69 1.377 1_565 S
N71 C64 1.286 . S
N71 C67 1.413 . S
H72 C77 0.930 . S
H73 C80 0.930 . S
H74 C82 0.930 . S
H75 C76 1.016 . S
C76 H75 1.016 . S
C76 N83 1.286 . S
C77 H72 0.930 . S
C77 C78 1.397 . S
C77 C79 1.361 . S
C78 C77 1.397 . S
C78 C82 1.390 . S
C79 C77 1.361 . S
C79 C80 1.393 . S
C79 N83 1.413 . S
C80 H73 0.930 . S
C80 C79 1.393 . S
C80 C81 1.399 . S
C81 C80 1.399 . S
C81 C82 1.381 . S
C82 H74 0.930 . S
C82 C78 1.390 . S
C82 C81 1.381 . S
N83 C76 1.286 . S
N83 C79 1.413 . S
H84 C89 0.930 . S
H85 C92 0.930 . S
H86 C94 0.930 . S
H87 C88 1.016 . S
C88 H87 1.016 . S
C88 N95 1.286 . S
C89 H84 0.930 . S
C89 C90 1.397 . S
C89 C91 1.361 1_655 S
C90 C89 1.397 . S
C90 C94 1.390 . S
C91 C89 1.361 1_455 S
C91 C92 1.393 . S
C91 N95 1.413 . S
C92 H85 0.930 . S
C92 C91 1.393 . S
C92 C93 1.399 . S
C93 C92 1.399 . S
C93 C94 1.381 1_455 S
C94 H86 0.930 . S
C94 C90 1.390 . S
C94 C93 1.381 1_655 S
N95 C88 1.286 . S
N95 C91 1.413 . S
H96 C101 0.930 . S
H97 C104 0.930 . S
H98 C106 0.930 . S
H99 C100 1.016 . S
C100 H99 1.016 . S
C100 N107 1.286 . S
C101 H96 0.930 . S
C101 C102 1.397 . S
C101 C103 1.361 . S
C102 C101 1.397 . S
C102 C106 1.390 . S
C103 C101 1.361 . S
C103 C104 1.393 1_455 S
C103 N107 1.413 1_455 S
C104 H97 0.930 . S
C104 C103 1.393 1_655 S
C104 C105 1.399 1_655 S
C105 C104 1.399 1_455 S
C105 C106 1.381 . S
C106 H98 0.930 . S
C106 C102 1.390 . S
C106 C105 1.381 . S
N107 C100 1.286 . S
N107 C103 1.413 1_655 S
H108 C113 0.930 . S
H109 C116 0.930 1_565 S
H110 C118 0.930 . S
H111 C112 1.016 . S
C112 H111 1.016 . S
C112 N119 1.286 . S
C113 H108 0.930 . S
C113 C114 1.397 . S
C113 C115 1.361 . S
C114 C113 1.397 . S
C114 C118 1.390 . S
C115 C113 1.361 . S
C115 C116 1.393 . S
C115 N119 1.413 1_545 S
C116 H109 0.930 1_545 S
C116 C115 1.393 . S
C116 C117 1.399 . S
C117 C116 1.399 . S
C117 C118 1.381 . S
C118 H110 0.930 . S
C118 C114 1.390 . S
C118 C117 1.381 . S
N119 C112 1.286 . S
N119 C115 1.413 1_565 S
H120 C125 0.930 . S
H121 C128 0.930 . S
H122 C130 0.930 . S
H123 C124 1.016 . S
C124 H123 1.016 . S
C124 N131 1.286 . S
C125 H120 0.930 . S
C125 C126 1.397 . S
C125 C127 1.361 . S
C126 C125 1.397 . S
C126 C130 1.390 . S
C127 C125 1.361 . S
C127 C128 1.393 . S
C127 N131 1.413 . S
C128 H121 0.930 . S
C128 C127 1.393 . S
C128 C129 1.399 . S
C129 C128 1.399 . S
C129 C130 1.381 . S
C130 H122 0.930 . S
C130 C126 1.390 . S
C130 C129 1.381 . S
N131 C124 1.286 . S
N131 C127 1.413 . S
H132 C138 0.930 . S
H133 C141 0.930 . S
H134 C142 0.930 . S
H135 C143 0.930 . S
H136 C146 0.930 . S
H137 C147 0.930 . S
C138 H132 0.930 . S
C138 C139 1.355 . S
C138 C140 1.415 . S
C139 C138 1.355 . S
C139 C141 1.419 . S
C140 C138 1.415 . S
C140 C145 1.425 . S
C140 C147 1.409 . S
C141 H133 0.930 . S
C141 C139 1.419 . S
C141 C142 1.362 . S
C142 H134 0.930 . S
C142 C141 1.362 . S
C142 C145 1.409 . S
C143 H135 0.930 . S
C143 C144 1.355 . S
C143 C145 1.415 . S
C144 C143 1.355 . S
C144 C146 1.419 . S
C145 C140 1.425 . S
C145 C142 1.409 . S
C145 C143 1.415 . S
C146 H136 0.930 . S
C146 C144 1.419 . S
C146 C147 1.362 . S
C147 H137 0.930 . S
C147 C140 1.409 . S
C147 C146 1.362 . S
H148 C154 0.930 . S
H149 C157 0.930 . S
H150 C158 0.930 . S
H151 C159 0.930 . S
H152 C162 0.930 . S
H153 C163 0.930 . S
C154 H148 0.930 . S
C154 C155 1.355 . S
C154 C156 1.415 . S
C155 C154 1.355 . S
C155 C157 1.419 . S
C156 C154 1.415 . S
C156 C161 1.425 . S
C156 C163 1.409 . S
C157 H149 0.930 . S
C157 C155 1.419 . S
C157 C158 1.362 . S
C158 H150 0.930 . S
C158 C157 1.362 . S
C158 C161 1.409 . S
C159 H151 0.930 . S
C159 C160 1.355 . S
C159 C161 1.415 . S
C160 C159 1.355 . S
C160 C162 1.419 . S
C161 C156 1.425 . S
C161 C158 1.409 . S
C161 C159 1.415 . S
C162 H152 0.930 . S
C162 C160 1.419 . S
C162 C163 1.362 . S
C163 H153 0.930 . S
C163 C156 1.409 . S
C163 C162 1.362 . S
H164 C170 0.930 . S
H165 C173 0.930 . S
H166 C174 0.930 . S
H167 C175 0.930 . S
H168 C178 0.930 . S
H169 C179 0.930 . S
C170 H164 0.930 . S
C170 C171 1.355 . S
C170 C172 1.415 . S
C171 C170 1.355 . S
C171 C173 1.419 . S
C172 C170 1.415 . S
C172 C177 1.425 . S
C172 C179 1.409 . S
C173 H165 0.930 . S
C173 C171 1.419 . S
C173 C174 1.362 . S
C174 H166 0.930 . S
C174 C173 1.362 . S
C174 C177 1.409 . S
C175 H167 0.930 . S
C175 C176 1.355 . S
C175 C177 1.415 . S
C176 C175 1.355 . S
C176 C178 1.419 . S
C177 C172 1.425 . S
C177 C174 1.409 . S
C177 C175 1.415 . S
C178 H168 0.930 . S
C178 C176 1.419 . S
C178 C179 1.362 . S
C179 H169 0.930 . S
C179 C172 1.409 . S
C179 C178 1.362 . S
H180 C186 0.930 . S
H181 C189 0.930 . S
H182 C190 0.930 . S
H183 C191 0.930 . S
H184 C194 0.930 . S
H185 C195 0.930 . S
C186 H180 0.930 . S
C186 C187 1.355 . S
C186 C188 1.415 . S
C187 C186 1.355 . S
C187 C189 1.419 . S
C188 C186 1.415 . S
C188 C193 1.425 . S
C188 C195 1.409 . S
C189 H181 0.930 . S
C189 C187 1.419 . S
C189 C190 1.362 . S
C190 H182 0.930 . S
C190 C189 1.362 . S
C190 C193 1.409 . S
C191 H183 0.930 . S
C191 C192 1.355 . S
C191 C193 1.415 . S
C192 C191 1.355 . S
C192 C194 1.419 . S
C193 C188 1.425 . S
C193 C190 1.409 . S
C193 C191 1.415 . S
C194 H184 0.930 . S
C194 C192 1.419 . S
C194 C195 1.362 . S
C195 H185 0.930 . S
C195 C188 1.409 . S
C195 C194 1.362 . S
H196 C202 0.930 . S
H197 C205 0.930 . S
H198 C206 0.930 . S
H199 C207 0.930 . S
H200 C210 0.930 . S
H201 C211 0.930 . S
C202 H196 0.930 . S
C202 C203 1.355 . S
C202 C204 1.415 . S
C203 C202 1.355 . S
C203 C205 1.419 . S
C204 C202 1.415 . S
C204 C209 1.425 . S
C204 C211 1.409 . S
C205 H197 0.930 . S
C205 C203 1.419 . S
C205 C206 1.362 . S
C206 H198 0.930 . S
C206 C205 1.362 . S
C206 C209 1.409 . S
C207 H199 0.930 . S
C207 C208 1.355 . S
C207 C209 1.415 . S
C208 C207 1.355 . S
C208 C210 1.419 . S
C209 C204 1.425 . S
C209 C206 1.409 . S
C209 C207 1.415 . S
C210 H200 0.930 . S
C210 C208 1.419 . S
C210 C211 1.362 . S
C211 H201 0.930 . S
C211 C204 1.409 . S
C211 C210 1.362 . S
H212 C218 0.930 . S
H213 C221 0.930 . S
H214 C222 0.930 . S
H215 C223 0.930 . S
H216 C226 0.930 . S
H217 C227 0.930 . S
C218 H212 0.930 . S
C218 C219 1.355 . S
C218 C220 1.415 . S
C219 C218 1.355 . S
C219 C221 1.419 . S
C220 C218 1.415 . S
C220 C225 1.425 . S
C220 C227 1.409 . S
C221 H213 0.930 . S
C221 C219 1.419 . S
C221 C222 1.362 . S
C222 H214 0.930 . S
C222 C221 1.362 . S
C222 C225 1.409 . S
C223 H215 0.930 . S
C223 C224 1.355 . S
C223 C225 1.415 . S
C224 C223 1.355 . S
C224 C226 1.419 . S
C225 C220 1.425 . S
C225 C222 1.409 . S
C225 C223 1.415 . S
C226 H216 0.930 . S
C226 C224 1.419 . S
C226 C227 1.362 . S
C227 H217 0.930 . S
C227 C220 1.409 . S
C227 C226 1.362 . S
H228 C234 0.930 . S
H229 C237 0.930 . S
H230 C238 0.930 . S
H231 C239 0.930 . S
H232 C242 0.930 . S
H233 C243 0.930 . S
C234 H228 0.930 . S
C234 C235 1.355 . S
C234 C236 1.415 . S
C235 C234 1.355 . S
C235 C237 1.419 . S
C236 C234 1.415 . S
C236 C241 1.425 . S
C236 C243 1.409 . S
C237 H229 0.930 . S
C237 C235 1.419 . S
C237 C238 1.362 . S
C238 H230 0.930 . S
C238 C237 1.362 . S
C238 C241 1.409 . S
C239 H231 0.930 . S
C239 C240 1.355 . S
C239 C241 1.415 . S
C240 C239 1.355 . S
C240 C242 1.419 . S
C241 C236 1.425 . S
C241 C238 1.409 . S
C241 C239 1.415 . S
C242 H232 0.930 . S
C242 C240 1.419 . S
C242 C243 1.362 . S
C243 H233 0.930 . S
C243 C236 1.409 . S
C243 C242 1.362 . S
H244 C250 0.930 . S
H245 C253 0.930 . S
H246 C254 0.930 . S
H247 C255 0.930 . S
H248 C258 0.930 . S
H249 C259 0.930 . S
C250 H244 0.930 . S
C250 C251 1.355 . S
C250 C252 1.415 . S
C251 C250 1.355 . S
C251 C253 1.419 . S
C252 C250 1.415 . S
C252 C257 1.425 . S
C252 C259 1.409 . S
C253 H245 0.930 . S
C253 C251 1.419 . S
C253 C254 1.362 . S
C254 H246 0.930 . S
C254 C253 1.362 . S
C254 C257 1.409 . S
C255 H247 0.930 . S
C255 C256 1.355 . S
C255 C257 1.415 . S
C256 C255 1.355 . S
C256 C258 1.419 . S
C257 C252 1.425 . S
C257 C254 1.409 . S
C257 C255 1.415 . S
C258 H248 0.930 . S
C258 C256 1.419 . S
C258 C259 1.362 . S
C259 H249 0.930 . S
C259 C252 1.409 . S
C259 C258 1.362 . S
H260 C266 0.930 . S
H261 C269 0.930 . S
H262 C270 0.930 . S
H263 C271 0.930 . S
H264 C274 0.930 . S
H265 C275 0.930 . S
C266 H260 0.930 . S
C266 C267 1.355 . S
C266 C268 1.415 . S
C267 C266 1.355 . S
C267 C269 1.419 . S
C268 C266 1.415 . S
C268 C273 1.425 . S
C268 C275 1.409 . S
C269 H261 0.930 . S
C269 C267 1.419 . S
C269 C270 1.362 . S
C270 H262 0.930 . S
C270 C269 1.362 . S
C270 C273 1.409 . S
C271 H263 0.930 . S
C271 C272 1.355 . S
C271 C273 1.415 . S
C272 C271 1.355 . S
C272 C274 1.419 . S
C273 C268 1.425 . S
C273 C270 1.409 . S
C273 C271 1.415 . S
C274 H264 0.930 . S
C274 C272 1.419 . S
C274 C275 1.362 . S
C275 H265 0.930 . S
C275 C268 1.409 . S
C275 C274 1.362 . S
H276 C282 0.930 . S
H277 C285 0.930 . S
H278 C286 0.930 . S
H279 C287 0.930 . S
H280 C290 0.930 . S
H281 C291 0.930 . S
C282 H276 0.930 . S
C282 C283 1.355 . S
C282 C284 1.415 . S
C283 C282 1.355 . S
C283 C285 1.419 . S
C284 C282 1.415 . S
C284 C289 1.425 . S
C284 C291 1.409 . S
C285 H277 0.930 . S
C285 C283 1.419 . S
C285 C286 1.362 . S
C286 H278 0.930 . S
C286 C285 1.362 . S
C286 C289 1.409 . S
C287 H279 0.930 . S
C287 C288 1.355 . S
C287 C289 1.415 . S
C288 C287 1.355 . S
C288 C290 1.419 . S
C289 C284 1.425 . S
C289 C286 1.409 . S
C289 C287 1.415 . S
C290 H280 0.930 . S
C290 C288 1.419 . S
C290 C291 1.362 . S
C291 H281 0.930 . S
C291 C284 1.409 . S
C291 C290 1.362 . S
H292 C298 0.930 . S
H293 C301 0.930 . S
H294 C302 0.930 . S
H295 C303 0.930 . S
H296 C306 0.930 . S
H297 C307 0.930 . S
C298 H292 0.930 . S
C298 C299 1.355 . S
C298 C300 1.415 . S
C299 C298 1.355 . S
C299 C301 1.419 . S
C300 C298 1.415 . S
C300 C305 1.425 . S
C300 C307 1.409 . S
C301 H293 0.930 . S
C301 C299 1.419 . S
C301 C302 1.362 . S
C302 H294 0.930 . S
C302 C301 1.362 . S
C302 C305 1.409 . S
C303 H295 0.930 . S
C303 C304 1.355 . S
C303 C305 1.415 . S
C304 C303 1.355 . S
C304 C306 1.419 . S
C305 C300 1.425 . S
C305 C302 1.409 . S
C305 C303 1.415 . S
C306 H296 0.930 . S
C306 C304 1.419 . S
C306 C307 1.362 . S
C307 H297 0.930 . S
C307 C300 1.409 . S
C307 C306 1.362 . S
H308 C314 0.930 . S
H309 C317 0.930 . S
H310 C318 0.930 . S
H311 C319 0.930 . S
H312 C322 0.930 . S
H313 C323 0.930 . S
C314 H308 0.930 . S
C314 C315 1.355 . S
C314 C316 1.415 . S
C315 C314 1.355 . S
C315 C317 1.419 . S
C316 C314 1.415 . S
C316 C321 1.425 . S
C316 C323 1.409 . S
C317 H309 0.930 . S
C317 C315 1.419 . S
C317 C318 1.362 . S
C318 H310 0.930 . S
C318 C317 1.362 . S
C318 C321 1.409 . S
C319 H311 0.930 . S
C319 C320 1.355 . S
C319 C321 1.415 . S
C320 C319 1.355 . S
C320 C322 1.419 . S
C321 C316 1.425 . S
C321 C318 1.409 . S
C321 C319 1.415 . S
C322 H312 0.930 . S
C322 C320 1.419 . S
C322 C323 1.362 . S
C323 H313 0.930 . S
C323 C316 1.409 . S
C323 C322 1.362 . S
H324 C330 0.930 . S
H325 C333 0.930 . S
H326 C334 0.930 . S
H327 C335 0.930 . S
H328 C338 0.930 . S
H329 C339 0.930 . S
C330 H324 0.930 . S
C330 C331 1.355 . S
C330 C332 1.415 . S
C331 C330 1.355 . S
C331 C333 1.419 1_455 S
C332 C330 1.415 . S
C332 C337 1.425 . S
C332 C339 1.409 . S
C333 H325 0.930 . S
C333 C331 1.419 1_655 S
C333 C334 1.362 . S
C334 H326 0.930 . S
C334 C333 1.362 . S
C334 C337 1.409 1_655 S
C335 H327 0.930 . S
C335 C336 1.355 1_655 S
C335 C337 1.415 1_656 S
C336 C335 1.355 1_455 S
C336 C338 1.419 . S
C337 C332 1.425 . S
C337 C334 1.409 1_455 S
C337 C335 1.415 1_454 S
C338 H328 0.930 . S
C338 C336 1.419 . S
C338 C339 1.362 1_556 S
C339 H329 0.930 . S
C339 C332 1.409 . S
C339 C338 1.362 1_554 S
H340 C346 0.930 . S
H341 C349 0.930 . S
H342 C350 0.930 . S
H343 C351 0.930 1_565 S
H344 C354 0.930 . S
H345 C355 0.930 . S
C346 H340 0.930 . S
C346 C347 1.355 . S
C346 C348 1.415 . S
C347 C346 1.355 . S
C347 C349 1.419 1_545 S
C348 C346 1.415 . S
C348 C353 1.425 . S
C348 C355 1.409 . S
C349 H341 0.930 . S
C349 C347 1.419 1_565 S
C349 C350 1.362 . S
C350 H342 0.930 . S
C350 C349 1.362 . S
C350 C353 1.409 1_565 S
C351 H343 0.930 1_545 S
C351 C352 1.355 . S
C351 C353 1.415 . S
C352 C351 1.355 . S
C352 C354 1.419 . S
C353 C348 1.425 . S
C353 C350 1.409 1_545 S
C353 C351 1.415 . S
C354 H344 0.930 . S
C354 C352 1.419 . S
C354 C355 1.362 . S
C355 H345 0.930 . S
C355 C348 1.409 . S
C355 C354 1.362 . S
H356 C362 0.930 . S
H357 C365 0.930 . S
H358 C366 0.930 . S
H359 C367 0.930 . S
H360 C370 0.930 . S
H361 C371 0.930 . S
C362 H356 0.930 . S
C362 C363 1.355 . S
C362 C364 1.415 . S
C363 C362 1.355 . S
C363 C365 1.419 . S
C364 C362 1.415 . S
C364 C369 1.425 . S
C364 C371 1.409 . S
C365 H357 0.930 . S
C365 C363 1.419 . S
C365 C366 1.362 . S
C366 H358 0.930 . S
C366 C365 1.362 . S
C366 C369 1.409 . S
C367 H359 0.930 . S
C367 C368 1.355 . S
C367 C369 1.415 . S
C368 C367 1.355 . S
C368 C370 1.419 . S
C369 C364 1.425 . S
C369 C366 1.409 . S
C369 C367 1.415 . S
C370 H360 0.930 . S
C370 C368 1.419 . S
C370 C371 1.362 . S
C371 H361 0.930 . S
C371 C364 1.409 . S
C371 C370 1.362 . S
H372 C378 0.930 1_565 S
H373 C381 0.930 . S
H374 C382 0.930 . S
H375 C383 0.930 . S
H376 C386 0.930 . S
H377 C387 0.930 . S
C378 H372 0.930 1_545 S
C378 C379 1.355 . S
C378 C380 1.415 . S
C379 C378 1.355 . S
C379 C381 1.419 . S
C380 C378 1.415 . S
C380 C385 1.425 . S
C380 C387 1.409 1_545 S
C381 H373 0.930 . S
C381 C379 1.419 . S
C381 C382 1.362 . S
C382 H374 0.930 . S
C382 C381 1.362 . S
C382 C385 1.409 . S
C383 H375 0.930 . S
C383 C384 1.355 . S
C383 C385 1.415 . S
C384 C383 1.355 . S
C384 C386 1.419 1_545 S
C385 C380 1.425 . S
C385 C382 1.409 . S
C385 C383 1.415 . S
C386 H376 0.930 . S
C386 C384 1.419 1_565 S
C386 C387 1.362 . S
C387 H377 0.930 . S
C387 C380 1.409 1_565 S
C387 C386 1.362 . S
H388 C394 0.930 . S
H389 C397 0.930 . S
H390 C398 0.930 . S
H391 C399 0.930 . S
H392 C402 0.930 . S
H393 C403 0.930 . S
C394 H388 0.930 . S
C394 C395 1.355 . S
C394 C396 1.415 . S
C395 C394 1.355 . S
C395 C397 1.419 . S
C396 C394 1.415 . S
C396 C401 1.425 . S
C396 C403 1.409 . S
C397 H389 0.930 . S
C397 C395 1.419 . S
C397 C398 1.362 . S
C398 H390 0.930 . S
C398 C397 1.362 . S
C398 C401 1.409 . S
C399 H391 0.930 . S
C399 C400 1.355 . S
C399 C401 1.415 1_554 S
C400 C399 1.355 . S
C400 C402 1.419 . S
C401 C396 1.425 . S
C401 C398 1.409 . S
C401 C399 1.415 1_556 S
C402 H392 0.930 . S
C402 C400 1.419 . S
C402 C403 1.362 1_554 S
C403 H393 0.930 . S
C403 C396 1.409 . S
C403 C402 1.362 1_556 S
H404 C410 0.930 . S
H405 C413 0.930 . S
H406 C414 0.930 . S
H407 C415 0.930 . S
H408 C418 0.930 . S
H409 C419 0.930 . S
C410 H404 0.930 . S
C410 C411 1.355 . S
C410 C412 1.415 . S
C411 C410 1.355 . S
C411 C413 1.419 1_455 S
C412 C410 1.415 . S
C412 C417 1.430 . S
C412 C419 1.409 . S
C413 H405 0.930 . S
C413 C411 1.419 1_655 S
C413 C414 1.362 . S
C414 H406 0.930 . S
C414 C413 1.362 . S
C414 C417 1.405 1_655 S
C415 H407 0.930 . S
C415 C416 1.355 1_655 S
C415 C417 1.414 1_655 S
C416 C415 1.355 1_455 S
C416 C418 1.419 . S
C417 C412 1.430 . S
C417 C414 1.405 1_455 S
C417 C415 1.414 1_455 S
C418 H408 0.930 . S
C418 C416 1.419 . S
C418 C419 1.362 . S
C419 H409 0.930 . S
C419 C412 1.409 . S
C419 C418 1.362 . S
C139 C2 1.596 . S
C144 C126 1.711 . S
C155 C22 1.514 . S
C160 C100 1.521 . S
C171 C44 1.527 . S
C176 C112 1.502 . S
C187 C4 1.304 . S
C192 C124 1.365 . S
C208 C102 1.490 . S
C203 C24 1.455 . S
C224 C114 1.491 . S
C219 C42 1.450 . S
C235 C32 1.392 . S
C240 C76 1.387 . S
C251 C49 1.473 . S
C256 C90 1.509 . S
C267 C9 1.213 . S
C272 C66 1.184 . S
C288 C78 1.223 . S
C283 C29 1.120 . S
C304 C88 1.099 . S
C299 C52 1.171 . S
C315 C12 1.351 . S
C320 C64 1.341 . S
C336 C93 1.492 . S
C331 C18 1.453 . S
C347 C38 1.455 . S
C352 C69 1.482 . S
C363 C58 1.474 . S
C368 C81 1.500 . S
C384 C117 1.520 . S
C379 C39 1.481 . S
C400 C129 1.573 . S
C395 C59 1.542 . S
C411 C19 1.497 . S
C416 C105 1.502 . S
