# Generated by pormake.
# Topology tsx, (6,3)-cn, num edge types: 1
# Building blocks:
#     Node 0, Type 0, BuildingBlock: FUNLAD_clean_sbu_0, # of connection points: 6
#     Node 1, Type 0, BuildingBlock: FUNLAD_clean_sbu_0, # of connection points: 6
#     Node 2, Type 1, BuildingBlock: BELTOD_clean_linker_0, # of connection points: 3
#     Node 3, Type 1, BuildingBlock: BELTOD_clean_linker_0, # of connection points: 3
#     Node 4, Type 1, BuildingBlock: BELTOD_clean_linker_0, # of connection points: 3
#     Node 5, Type 1, BuildingBlock: BELTOD_clean_linker_0, # of connection points: 3
#     Edge 6, Type (0, 1), BuildingBlock: FUNLAD_clean_linker_1, # of connection points: 2
#     Edge 7, Type (0, 1), BuildingBlock: FUNLAD_clean_linker_1, # of connection points: 2
#     Edge 8, Type (0, 1), BuildingBlock: FUNLAD_clean_linker_1, # of connection points: 2
#     Edge 9, Type (0, 1), BuildingBlock: FUNLAD_clean_linker_1, # of connection points: 2
#     Edge 10, Type (0, 1), BuildingBlock: FUNLAD_clean_linker_1, # of connection points: 2
#     Edge 11, Type (0, 1), BuildingBlock: FUNLAD_clean_linker_1, # of connection points: 2
#     Edge 12, Type (0, 1), BuildingBlock: FUNLAD_clean_linker_1, # of connection points: 2
#     Edge 13, Type (0, 1), BuildingBlock: FUNLAD_clean_linker_1, # of connection points: 2
#     Edge 14, Type (0, 1), BuildingBlock: FUNLAD_clean_linker_1, # of connection points: 2
#     Edge 15, Type (0, 1), BuildingBlock: FUNLAD_clean_linker_1, # of connection points: 2
#     Edge 16, Type (0, 1), BuildingBlock: FUNLAD_clean_linker_1, # of connection points: 2
#     Edge 17, Type (0, 1), BuildingBlock: FUNLAD_clean_linker_1, # of connection points: 2
# Relax obj value: 0.152
# Max RMSD: 0.149
# Mean RMSD: 0.079
data_MOF--net-tsx--node1-FUNLAD_clean_sbu_0--node2-BELTOD_clean_linker_0--edge1-FUNLAD_clean_linker_1
_symmetry_space_group_name_H-M    P1
_symmetry_Int_Tables_number       1
_symmetry_cell_setting            triclinic
loop_
_symmetry_equiv_pos_as_xyz
'x, y, z'
_cell_length_a     22.34619
_cell_length_b     24.747266
_cell_length_c     47.64993
_cell_angle_alpha  91.710576
_cell_angle_beta   92.131466
_cell_angle_gamma 89.775405
loop_
_atom_site_label
_atom_site_type_symbol
_atom_site_fract_x
_atom_site_fract_y
_atom_site_fract_z
_atom_type_partial_charge
C0 C 0.89359 0.91861 0.99186 0.0
N1 N 0.97234 0.00321 0.06216 0.0
C2 C 0.91851 0.00466 0.0746 0.0
C3 C 0.91588 0.00853 0.10387 0.0
C4 C 0.96902 0.01059 0.12054 0.0
C5 C 0.024 0.00901 0.10705 0.0
C6 C 0.02454 0.00511 0.07778 0.0
Zn7 Zn 0.97662 0.00045 0.01927 0.0
C8 C 0.06741 0.92331 0.99906 0.0
N9 N 0.98696 0.99703 0.92993 0.0
C10 C 0.93828 0.99149 0.91208 0.0
C11 C 0.04326 0.99875 0.9201 0.0
C12 C 0.05242 0.99418 0.89141 0.0
C13 C 0.00339 0.98787 0.87242 0.0
C14 C 0.94542 0.98674 0.88305 0.0
Zn15 Zn 0.97937 -0.00014 0.97253 0.0
O16 O 0.91013 0.93855 0.01585 0.0
C17 C 0.88905 0.07725 0.99202 0.0
O18 O 0.91584 0.93655 0.96985 0.0
H19 H 0.08146 0.00291 0.93459 0.0
H20 H 0.87752 0.00335 0.06179 0.0
H21 H 0.89394 0.98992 0.92038 0.0
O22 O 0.90868 0.06142 0.01585 0.0
O23 O 0.91027 0.0571 0.96968 0.0
H24 H 0.06688 0.00441 0.06749 0.0
O25 O 0.04236 0.0635 0.97572 0.0
O26 O 0.04376 0.06203 0.02175 0.0
O27 O 0.04891 0.94239 0.97591 0.0
O28 O 0.04444 0.93974 0.02178 0.0
C29 C 0.0627 0.08151 0.99935 0.0
H30 H 0.87262 0.01014 0.1134 0.0
H31 H 0.0664 0.01218 0.11865 0.0
H32 H 0.09777 0.99514 0.88413 0.0
H33 H 0.90598 0.98116 0.86948 0.0
C34 C 0.40727 0.42991 0.5035 0.0
N35 N 0.49115 0.52425 0.56882 0.0
C36 C 0.43948 0.52354 0.58309 0.0
C37 C 0.44102 0.52965 0.61246 0.0
C38 C 0.49634 0.53688 0.62717 0.0
C39 C 0.54857 0.53809 0.61182 0.0
C40 C 0.54509 0.53117 0.58266 0.0
Zn41 Zn 0.4914 0.51389 0.5258 0.0
C42 C 0.58035 0.42962 0.50916 0.0
N43 N 0.49895 0.49153 0.43644 0.0
C44 C 0.44823 0.4904 0.41971 0.0
C45 C 0.55391 0.4853 0.42538 0.0
C46 C 0.55942 0.47718 0.39653 0.0
C47 C 0.50814 0.47633 0.37871 0.0
C48 C 0.45177 0.48292 0.39058 0.0
Zn49 Zn 0.49524 0.50228 0.47912 0.0
O50 O 0.42412 0.45417 0.52634 0.0
C51 C 0.40642 0.58635 0.49583 0.0
O52 O 0.43015 0.44198 0.48055 0.0
H53 H 0.59375 0.48655 0.43896 0.0
H54 H 0.39701 0.51826 0.57171 0.0
H55 H 0.40497 0.495 0.42896 0.0
O56 O 0.42498 0.57438 0.52045 0.0
O57 O 0.42785 0.56203 0.47456 0.0
H58 H 0.58577 0.53115 0.57108 0.0
O59 O 0.56066 0.56225 0.47798 0.0
O60 O 0.55858 0.57389 0.52381 0.0
O61 O 0.5624 0.44297 0.48473 0.0
O62 O 0.55805 0.45266 0.53053 0.0
C63 C 0.57953 0.58623 0.50041 0.0
H64 H 0.39934 0.52966 0.62331 0.0
H65 H 0.59201 0.54374 0.62236 0.0
H66 H 0.6036 0.47201 0.38818 0.0
H67 H 0.41081 0.48124 0.37775 0.0
P68 P 0.09396 0.08377 0.43049 0.0
H69 H 0.08391 0.19665 0.44849 0.0
H70 H 0.00241 0.25044 0.46723 0.0
H71 H 0.89292 0.10687 0.46815 0.0
H72 H 0.97546 0.05336 0.44963 0.0
H73 H 0.19932 0.06794 0.4673 0.0
H74 H 0.2386 0.98941 0.49184 0.0
H75 H 0.08167 0.89814 0.46427 0.0
H76 H 0.04322 0.97662 0.43919 0.0
H77 H 0.99833 0.12045 0.39144 0.0
H78 H 0.1378 -0.00049 0.39233 0.0
O79 O 0.15218 0.12458 0.42661 0.0
H80 H 0.97227 0.09604 0.34273 0.0
H81 H 0.11282 0.97537 0.34317 0.0
C82 C 0.03603 0.12101 0.44788 0.0
C83 C 0.04298 0.17653 0.45329 0.0
C84 C 0.99619 0.20727 0.46396 0.0
C85 C 0.94136 0.1831 0.46949 0.0
C86 C 0.93488 0.12688 0.46479 0.0
C87 C 0.98202 0.09611 0.45404 0.0
C88 C 0.11887 0.02771 0.45105 0.0
C89 C 0.17325 0.0311 0.46656 0.0
C90 C 0.1955 0.98633 0.48072 0.0
C91 C 0.16383 0.93746 0.4796 0.0
C92 C 0.10786 0.93488 0.46507 0.0
C93 C 0.08555 0.97983 0.45091 0.0
C94 C 0.06933 0.06114 0.3957 0.0
C95 C 0.02294 0.08814 0.38123 0.0
C96 C 0.00865 0.07456 0.35306 0.0
C97 C 0.04146 0.03434 0.33871 0.0
C98 C 0.08688 0.00659 0.35359 0.0
C99 C 0.10105 0.0202 0.38172 0.0
P100 P 0.0991 0.92729 0.56429 0.0
H101 H 0.06658 0.86324 0.51388 0.0
H102 H 0.97123 0.8265 0.49544 0.0
H103 H 0.88023 0.91082 0.56239 0.0
H104 H 0.97541 0.94792 0.58014 0.0
H105 H 0.21545 0.97722 0.56388 0.0
H106 H 0.24838 0.0651 0.54947 0.0
H107 H 0.06968 0.09962 0.51661 0.0
H108 H 0.03672 0.01121 0.53172 0.0
H109 H 0.1 0.85648 0.6121 0.0
H110 H 0.07463 0.02625 0.5973 0.0
O111 O 0.14958 0.87824 0.55972 0.0
H112 H 0.07531 0.8717 0.66115 0.0
H113 H 0.05055 0.042 0.64637 0.0
C114 C 0.0283 0.90585 0.54907 0.0
C115 C 0.026 0.87343 0.52452 0.0
C116 C 0.97137 0.85246 0.51411 0.0
C117 C 0.91835 0.86403 0.52826 0.0
C118 C 0.92049 0.90043 0.55141 0.0
C119 C 0.97504 0.92124 0.56174 0.0
C120 C 0.12414 0.98741 0.54843 0.0
C121 C 0.18377 0.00311 0.55292 0.0
C122 C 0.20254 0.05347 0.54447 0.0
C123 C 0.1617 0.08902 0.53129 0.0
C124 C 0.10205 0.07275 0.52645 0.0
C125 C 0.08335 0.02218 0.53493 0.0
C126 C 0.0908 0.94037 0.60126 0.0
C127 C 0.09083 0.89728 0.61965 0.0
C128 C 0.0768 0.90618 0.64777 0.0
C129 C 0.0621 0.95851 0.65782 0.0
C130 C 0.0623 0.00146 0.63927 0.0
C131 C 0.07656 0.99253 0.61125 0.0
P132 P 0.57368 0.58023 0.94009 0.0
H133 H 0.55747 0.67619 0.97639 0.0
H134 H 0.47066 0.71466 0.9993 0.0
H135 H 0.36214 0.58171 0.9663 0.0
H136 H 0.44928 0.54354 0.94296 0.0
H137 H 0.69401 0.55451 0.96191 0.0
H138 H 0.73654 0.47613 0.98554 0.0
H139 H 0.56359 0.39903 0.98101 0.0
H140 H 0.5201 0.47867 0.9586 0.0
H141 H 0.57749 0.6457 0.89048 0.0
H142 H 0.52188 0.48445 0.9092 0.0
O143 O 0.62644 0.62794 0.941 0.0
H144 H 0.54826 0.62949 0.84125 0.0
H145 H 0.49256 0.46786 0.85978 0.0
C146 C 0.5099 0.60701 0.95787 0.0
C147 C 0.5152 0.65508 0.97409 0.0
C148 C 0.46539 0.67728 0.98706 0.0
C149 C 0.40945 0.65151 0.98412 0.0
C150 C 0.40479 0.60231 0.9688 0.0
C151 C 0.45453 0.5805 0.95549 0.0
C152 C 0.60392 0.52236 0.95799 0.0
C153 C 0.66491 0.52108 0.96606 0.0
C154 C 0.68925 0.47638 0.97963 0.0
C155 C 0.65336 0.43165 0.98463 0.0
C156 C 0.59216 0.43297 0.97694 0.0
C157 C 0.56745 0.47841 0.96405 0.0
C158 C 0.55349 0.56589 0.90356 0.0
C159 C 0.55993 0.60641 0.88395 0.0
C160 C 0.54345 0.59691 0.85564 0.0
C161 C 0.51963 0.54662 0.84639 0.0
C162 C 0.51159 0.50667 0.86624 0.0
C163 C 0.52855 0.51612 0.89455 0.0
P164 P 0.60644 0.40934 0.07226 0.0
H165 H 0.59234 0.30564 0.04237 0.0
H166 H 0.50378 0.25347 0.02763 0.0
H167 H 0.39156 0.39009 0.04868 0.0
H168 H 0.48039 0.44191 0.06376 0.0
H169 H 0.72601 0.45254 0.07278 0.0
H170 H 0.76807 0.53575 0.05634 0.0
H171 H 0.5936 0.58179 0.02248 0.0
H172 H 0.55205 0.4974 0.03863 0.0
H173 H 0.61295 0.34916 0.12389 0.0
H174 H 0.54907 0.50502 0.09764 0.0
O175 O 0.66179 0.36389 0.07425 0.0
H176 H 0.58005 0.36914 0.17124 0.0
H177 H 0.51622 0.52565 0.14527 0.0
C178 C 0.5431 0.37779 0.05407 0.0
C179 C 0.54892 0.32502 0.04306 0.0
C180 C 0.49823 0.2951 0.0347 0.0
C181 C 0.44076 0.31749 0.03678 0.0
C182 C 0.43511 0.37167 0.04626 0.0
C183 C 0.48604 0.4015 0.05492 0.0
C184 C 0.63612 0.46828 0.05655 0.0
C185 C 0.69693 0.47996 0.06133 0.0
C186 C 0.72091 0.52776 0.05205 0.0
C187 C 0.68462 0.56535 0.03793 0.0
C188 C 0.62337 0.55357 0.0329 0.0
C189 C 0.59934 0.50524 0.04221 0.0
C190 C 0.58505 0.42619 0.10747 0.0
C191 C 0.59289 0.38817 0.12849 0.0
C192 C 0.57429 0.39986 0.15567 0.0
C193 C 0.54705 0.44984 0.16223 0.0
C194 C 0.53786 0.48722 0.14088 0.0
C195 C 0.55686 0.47557 0.11372 0.0
H196 H 0.11668 0.14435 0.98065 0.0
C197 C 0.10863 0.12417 1.00011 0.0
H198 H 0.13499 0.11696 0.04282 0.0
H199 H 0.36028 0.24009 0.98044 0.0
H200 H 0.36705 0.15889 0.95095 0.0
H201 H 0.29611 0.08378 0.95547 0.0
H202 H 0.21689 0.09027 0.98871 0.0
C203 C 0.14293 0.13644 0.02316 0.0
C204 C 0.19092 0.17824 0.02283 0.0
C205 C 0.23958 0.17198 0.00461 0.0
C206 C 0.28342 0.21336 0.00359 0.0
C207 C 0.32813 0.20838 0.98335 0.0
C208 C 0.3322 0.1622 0.9661 0.0
C209 C 0.29206 0.12007 0.96853 0.0
C210 C 0.24631 0.12462 0.98754 0.0
H211 H 0.39633 0.23806 0.03401 0.0
C212 C 0.38845 0.28117 0.03177 0.0
H213 H 0.32297 0.34045 0.02218 0.0
H214 H 0.10292 0.20407 0.05946 0.0
H215 H 0.0998 0.28282 0.09085 0.0
H216 H 0.18032 0.35079 0.09186 0.0
H217 H 0.26401 0.34088 0.06123 0.0
C218 C 0.33263 0.29786 0.02479 0.0
C219 C 0.28189 0.25858 0.02261 0.0
C220 C 0.23355 0.26467 0.04095 0.0
C221 C 0.18777 0.22477 0.04084 0.0
C222 C 0.13945 0.23254 0.05898 0.0
C223 C 0.137 0.27765 0.07709 0.0
C224 C 0.1823 0.31595 0.07764 0.0
C225 C 0.23011 0.30975 0.05987 0.0
H226 H 0.13647 0.87481 0.97869 0.0
C227 C 0.11569 0.88282 0.99869 0.0
H228 H 0.11527 0.86325 0.04158 0.0
H229 H 0.26452 0.68235 0.96066 0.0
H230 H 0.16719 0.65967 0.9399 0.0
H231 H 0.076 0.7055 0.95621 0.0
H232 H 0.08242 0.77581 0.99288 0.0
C233 C 0.13444 0.85527 0.02124 0.0
C234 C 0.18477 0.8159 0.01869 0.0
C235 C 0.17987 0.77185 0.999 0.0
C236 C 0.23194 0.74285 0.99108 0.0
C237 C 0.22635 0.70343 0.96894 0.0
C238 C 0.1706 0.69033 0.95656 0.0
C239 C 0.11931 0.7163 0.96563 0.0
C240 C 0.12365 0.75676 0.98653 0.0
H241 H 0.32059 0.64963 0.00329 0.0
C242 C 0.35502 0.67615 0.99596 0.0
H243 H 0.37795 0.75627 0.98699 0.0
H244 H 0.20774 0.8926 0.06023 0.0
H245 H 0.30326 0.90972 0.08468 0.0
H246 H 0.39248 0.85538 0.07341 0.0
H247 H 0.38688 0.78398 0.03739 0.0
C248 C 0.34439 0.72957 0.99489 0.0
C249 C 0.28814 0.75512 0.00469 0.0
C250 C 0.29168 0.79552 0.02645 0.0
C251 C 0.24002 0.82622 0.03333 0.0
C252 C 0.24544 0.86777 0.05434 0.0
C253 C 0.3 0.87798 0.06857 0.0
C254 C 0.35025 0.84742 0.06221 0.0
C255 C 0.34644 0.80667 0.04141 0.0
H256 H 0.8387 0.85768 0.96813 0.0
C257 C 0.85109 0.87308 0.98915 0.0
H258 H 0.84154 0.86351 0.03265 0.0
H259 H 0.60869 0.72136 0.02528 0.0
H260 H 0.56752 0.8073 0.04127 0.0
H261 H 0.62843 0.89033 0.04206 0.0
H262 H 0.73101 0.88793 0.02692 0.0
C263 C 0.83072 0.848 0.0115 0.0
C264 C 0.79237 0.79886 0.00825 0.0
C265 C 0.73224 0.80107 0.01678 0.0
C266 C 0.69691 0.75326 0.01613 0.0
C267 C 0.63741 0.75646 0.02528 0.0
C268 C 0.6132 0.80554 0.03448 0.0
C269 C 0.6475 0.85229 0.03492 0.0
C270 C 0.70635 0.85034 0.02623 0.0
H271 H 0.75583 0.62675 0.04062 0.0
C272 C 0.71266 0.617 0.0304 0.0
H273 H 0.64691 0.64448 1.00091 0.0
H274 H 0.9068 0.77906 0.99097 0.0
H275 H 0.94465 0.69471 0.9716 0.0
H276 H 0.8802 0.61396 0.96683 0.0
H277 H 0.77775 0.61707 0.98212 0.0
C278 C 0.68962 0.65191 0.01178 0.0
C279 C 0.72187 0.70333 0.00705 0.0
C280 C 0.78034 0.70192 0.99643 0.0
C281 C 0.81633 0.74928 0.99778 0.0
C282 C 0.87631 0.74526 0.98923 0.0
C283 C 0.89886 0.69684 0.97824 0.0
C284 C 0.86268 0.65134 0.97566 0.0
C285 C 0.80414 0.65357 0.98467 0.0
H286 H 0.83064 0.13318 0.96871 0.0
C287 C 0.84449 0.12094 0.98972 0.0
H288 H 0.83744 0.13802 0.03333 0.0
H289 H 0.78531 0.37257 0.97574 0.0
H290 H 0.89303 0.37898 0.98046 0.0
H291 H 0.95347 0.30322 0.99871 0.0
H292 H 0.90601 0.22003 0.01169 0.0
C293 C 0.82393 0.14853 0.01205 0.0
C294 C 0.78636 0.19739 0.00759 0.0
C295 C 0.81424 0.24698 0.00199 0.0
C296 C 0.77903 0.29177 0.99316 0.0
C297 C 0.80896 0.33867 0.98467 0.0
C298 C 0.87113 0.34261 0.98682 0.0
C299 C 0.90517 0.29989 0.99695 0.0
C300 C 0.87735 0.25238 0.00428 0.0
H301 H 0.71275 0.38883 0.0147 0.0
C302 C 0.68143 0.38327 0.99684 0.0
H303 H 0.64784 0.32978 0.96489 0.0
H304 H 0.71972 0.10851 0.01787 0.0
H305 H 0.61132 0.10131 0.01361 0.0
H306 H 0.54947 0.17925 0.99938 0.0
H307 H 0.59527 0.26516 0.98976 0.0
C308 C 0.67772 0.33493 0.9833 0.0
C309 C 0.71542 0.28795 0.99192 0.0
C310 C 0.68765 0.23825 0.99784 0.0
C311 C 0.72323 0.19304 0.00581 0.0
C312 C 0.6946 0.14387 0.01153 0.0
C313 C 0.63251 0.13925 0.00923 0.0
C314 C 0.59768 0.18321 1.00128 0.0
C315 C 0.62461 0.23227 0.99574 0.0
H316 H 0.6465 0.6323 0.47861 0.0
C317 C 0.62681 0.62675 0.49886 0.0
H318 H 0.62948 0.64948 0.54198 0.0
H319 H 0.90266 0.71471 0.54081 0.0
H320 H 0.90666 0.63586 0.56969 0.0
H321 H 0.81652 0.58073 0.57559 0.0
H322 H 0.72167 0.60462 0.55288 0.0
C323 C 0.64734 0.65555 0.52141 0.0
C324 C 0.70008 0.69106 0.5192 0.0
C325 C 0.7552 0.67617 0.53246 0.0
C326 C 0.80731 0.7073 0.52859 0.0
C327 C 0.86171 0.6921 0.54254 0.0
C328 C 0.86469 0.64691 0.55928 0.0
C329 C 0.81394 0.61592 0.56263 0.0
C330 C 0.75974 0.63015 0.54945 0.0
H331 H 0.82086 0.85232 0.53059 0.0
C332 C 0.86113 0.83587 0.52136 0.0
H333 H 0.89815 0.76688 0.50113 0.0
H334 H 0.59959 0.73439 0.49378 0.0
H335 H 0.59577 0.81186 0.4637 0.0
H336 H 0.6877 0.86205 0.45416 0.0
H337 H 0.78374 0.83558 0.47506 0.0
C338 C 0.85825 0.78664 0.50877 0.0
C339 C 0.80409 0.75296 0.51127 0.0
C340 C 0.7489 0.76782 0.49798 0.0
C341 C 0.69648 0.73751 0.50248 0.0
C342 C 0.64123 0.75476 0.49018 0.0
C343 C 0.63835 0.79938 0.47302 0.0
C344 C 0.69006 0.82774 0.46774 0.0
C345 C 0.74483 0.81232 0.48 0.0
H346 H 0.63622 0.37288 0.53382 0.0
C347 C 0.62643 0.38738 0.51283 0.0
H348 H 0.64603 0.38077 0.46991 0.0
H349 H 0.88551 0.26554 0.53048 0.0
H350 H 0.90279 0.35092 0.55592 0.0
H351 H 0.82969 0.42556 0.55205 0.0
H352 H 0.73845 0.41487 0.52349 0.0
C353 C 0.65664 0.36719 0.49101 0.0
C354 C 0.70144 0.32286 0.494 0.0
C355 C 0.7558 0.33099 0.50994 0.0
C356 C 0.7997 0.28924 0.51082 0.0
C357 C 0.85208 0.29699 0.52809 0.0
C358 C 0.86233 0.3456 0.54293 0.0
C359 C 0.82106 0.38751 0.54085 0.0
C360 C 0.76847 0.38062 0.52452 0.0
H361 H 0.89446 0.26138 0.4725 0.0
C362 C 0.89103 0.21892 0.47754 0.0
H363 H 0.83622 0.16076 0.49576 0.0
H364 H 0.59976 0.2919 0.46394 0.0
H365 H 0.58403 0.20721 0.43786 0.0
H366 H 0.66286 0.13718 0.43708 0.0
H367 H 0.75763 0.15117 0.46262 0.0
C368 C 0.84169 0.20257 0.49016 0.0
C369 C 0.79105 0.24105 0.4943 0.0
C370 C 0.73584 0.23206 0.47933 0.0
C371 C 0.69085 0.27287 0.47933 0.0
C372 C 0.63596 0.26273 0.46427 0.0
C373 C 0.62622 0.21419 0.44927 0.0
C374 C 0.67057 0.17475 0.44886 0.0
C375 C 0.72483 0.18335 0.46363 0.0
H376 H 0.36512 0.35652 0.48547 0.0
C377 C 0.36538 0.38463 0.50347 0.0
H378 H 0.33081 0.40316 0.54318 0.0
H379 H 0.18798 0.19453 0.47398 0.0
H380 H 0.15847 0.25955 0.43863 0.0
H381 H 0.18711 0.35531 0.44456 0.0
H382 H 0.24854 0.38637 0.48496 0.0
C383 C 0.33046 0.37541 0.52507 0.0
C384 C 0.29786 0.32335 0.52608 0.0
C385 C 0.25764 0.30698 0.5037 0.0
C386 C 0.23776 0.25257 0.50131 0.0
C387 C 0.20232 0.23598 0.47737 0.0
C388 C 0.18504 0.27277 0.45698 0.0
C389 C 0.20158 0.3267 0.46019 0.0
C390 C 0.23725 0.34389 0.4833 0.0
H391 H 0.14484 0.17634 0.52626 0.0
C392 C 0.17895 0.14494 0.52511 0.0
H393 H 0.27028 0.12808 0.51854 0.0
H394 H 0.36988 0.34311 0.57331 0.0
H395 H 0.39482 0.27998 0.60976 0.0
H396 H 0.35493 0.1871 0.60719 0.0
H397 H 0.29048 0.15673 0.5679 0.0
C398 C 0.23555 0.15867 0.52024 0.0
C399 C 0.25482 0.21584 0.52239 0.0
C400 C 0.29107 0.23337 0.54596 0.0
C401 C 0.313 0.28716 0.54773 0.0
C402 C 0.35112 0.30297 0.57096 0.0
C403 C 0.36589 0.26708 0.59211 0.0
C404 C 0.3435 0.2148 0.59065 0.0
C405 C 0.3066 0.19788 0.56791 0.0
H406 H 0.35038 0.64003 0.46986 0.0
C407 C 0.36274 0.63018 0.4914 0.0
H408 H 0.35156 0.65074 0.53436 0.0
H409 H 0.28582 0.87086 0.46123 0.0
H410 H 0.39237 0.87411 0.45418 0.0
H411 H 0.45967 0.80285 0.47226 0.0
H412 H 0.42027 0.72729 0.49693 0.0
C413 C 0.34094 0.66029 0.51263 0.0
C414 C 0.30224 0.70792 0.50667 0.0
C415 C 0.32648 0.75341 0.49373 0.0
C416 C 0.28816 0.796 0.48478 0.0
C417 C 0.31302 0.83875 0.46987 0.0
C418 C 0.3742 0.84091 0.46542 0.0
C419 C 0.41204 0.80069 0.47547 0.0
C420 C 0.38872 0.75734 0.48944 0.0
H421 H 0.2264 0.89658 0.5091 0.0
C422 C 0.19247 0.88959 0.49243 0.0
H423 H 0.15392 0.83084 0.46405 0.0
H424 H 0.24271 0.62854 0.53286 0.0
H425 H 0.13656 0.62715 0.54214 0.0
H426 H 0.07028 0.70214 0.52765 0.0
H427 H 0.10972 0.77872 0.50369 0.0
C428 C 0.186 0.83934 0.48126 0.0
C429 C 0.22617 0.79455 0.49036 0.0
C430 C 0.20239 0.74991 0.50415 0.0
C431 C 0.24057 0.70666 0.51247 0.0
C432 C 0.21566 0.66247 0.52614 0.0
C433 C 0.15485 0.66118 0.53159 0.0
C434 C 0.11754 0.70341 0.52345 0.0
C435 C 0.14076 0.74726 0.50981 0.0
H436 H 0.92326 0.03158 0.15991 0.0
C437 C 0.96531 0.01716 0.1516 0.0
H438 H 0.05348 0.99131 0.16266 0.0
H439 H 0.07241 0.12998 0.27566 0.0
H440 H 0.13042 0.18537 0.24565 0.0
H441 H 0.13234 0.16572 0.19464 0.0
H442 H 0.07642 0.09035 0.17334 0.0
C443 C 0.01092 0.0064 0.16985 0.0
C444 C 0.00692 0.01911 0.20044 0.0
C445 C 0.03944 0.06357 0.21254 0.0
C446 C 0.03769 0.0753 0.2419 0.0
C447 C 0.07141 0.11955 0.25344 0.0
C448 C 0.10507 0.15166 0.23646 0.0
C449 C 0.10621 0.14056 0.20775 0.0
C450 C 0.07394 0.0971 0.19581 0.0
H451 H 0.05114 0.984 0.29991 0.0
C452 C 0.03126 0.02108 0.30821 0.0
H453 H 0.98693 0.09352 0.29692 0.0
H454 H 0.94163 0.92943 0.18415 0.0
H455 H 0.88089 0.87563 0.21386 0.0
H456 H 0.87394 0.89855 0.26438 0.0
H457 H 0.9283 0.97498 0.28559 0.0
C458 C 0.00358 0.05433 0.28999 0.0
C459 C 0.00338 0.04251 0.25913 0.0
C460 C 0.96985 0.99865 0.24693 0.0
C461 C 0.97229 0.98649 0.2176 0.0
C462 C 0.9402 0.94127 0.20615 0.0
C463 C 0.90532 0.90994 0.22299 0.0
C464 C 0.90153 0.92276 0.25145 0.0
C465 C 0.93324 0.96658 0.26339 0.0
H466 H 0.06219 0.97461 0.83667 0.0
C467 C 0.01573 0.98096 0.84211 0.0
H468 H 0.92714 0.98859 0.82483 0.0
H469 H 0.11619 0.02764 0.72151 0.0
H470 H 0.1407 0.11178 0.74653 0.0
H471 H 0.09547 0.13508 0.79179 0.0
H472 H 0.02644 0.07368 0.81253 0.0
C473 C 0.97426 0.98282 0.82099 0.0
C474 C 0.99229 0.97385 0.79147 0.0
C475 C 0.03001 0.0115 0.77894 0.0
C476 C 0.05351 -0.00062 0.75216 0.0
C477 C 0.09464 0.03589 0.74113 0.0
C478 C 0.10953 0.0842 0.7554 0.0
C479 C 0.08428 0.09722 0.78092 0.0
C480 C 0.04502 0.06144 0.79268 0.0
H481 H 0.01601 0.00545 0.69081 0.0
C482 C 0.04302 0.9695 0.68693 0.0
H483 H 0.08626 0.90282 0.70594 0.0
H484 H 0.91901 0.89427 0.80912 0.0
H485 H 0.89037 0.81204 0.78312 0.0
H486 H 0.92737 0.79282 0.7357 0.0
H487 H 0.99361 0.85545 0.71408 0.0
C488 C 0.05881 0.93869 0.70876 0.0
C489 C 0.03639 0.95102 0.73726 0.0
C490 C 0.99706 0.91426 0.74942 0.0
C491 C 0.97508 0.92565 0.77659 0.0
C492 C 0.93668 0.88781 0.78845 0.0
C493 C 0.91986 0.84045 0.77375 0.0
C494 C 0.94073 0.82961 0.74707 0.0
C495 C 0.97882 0.86592 0.73492 0.0
H496 H 0.5419 0.56481 0.66692 0.0
C497 C 0.50175 0.54487 0.6582 0.0
H498 H 0.42352 0.50284 0.66863 0.0
H499 H 0.55572 0.45729 0.78777 0.0
H500 H 0.56629 0.36978 0.76437 0.0
H501 H 0.53376 0.35563 0.71467 0.0
H502 H 0.491 0.42933 0.68798 0.0
C503 C 0.46211 0.52632 0.67614 0.0
C504 C 0.4737 0.53322 0.70705 0.0
C505 C 0.49633 0.48932 0.7227 0.0
C506 C 0.5136 0.49718 0.75162 0.0
C507 C 0.5397 0.45333 0.76614 0.0
C508 C 0.54652 0.40287 0.75287 0.0
C509 C 0.52833 0.39493 0.72487 0.0
C510 C 0.50381 0.43756 0.70981 0.0
H511 H 0.46621 0.50539 0.81195 0.0
C512 C 0.50101 0.53533 0.81648 0.0
H513 H 0.56256 0.58806 0.79877 0.0
H514 H 0.42668 0.62434 0.6837 0.0
H515 H 0.4134 0.71167 0.70722 0.0
H516 H 0.44175 0.72528 0.75745 0.0
H517 H 0.48358 0.65176 0.78449 0.0
C518 C 0.52697 0.55876 0.79489 0.0
C519 C 0.50623 0.54868 0.76506 0.0
C520 C 0.48169 0.5921 0.74954 0.0
C521 C 0.46539 0.58434 0.72055 0.0
C522 C 0.44058 0.62828 0.70566 0.0
C523 C 0.43244 0.67854 0.71893 0.0
C524 C 0.4484 0.68619 0.74722 0.0
C525 C 0.47259 0.64364 0.76246 0.0
H526 H 0.55677 0.44735 0.34165 0.0
C527 C 0.51554 0.46677 0.34816 0.0
H528 H 0.4364 0.50607 0.33344 0.0
H529 H 0.57583 0.5458 0.22022 0.0
H530 H 0.58085 0.6354 0.24205 0.0
H531 H 0.54332 0.65269 0.28953 0.0
H532 H 0.50099 0.58011 0.31558 0.0
C533 C 0.47615 0.48315 0.32816 0.0
C534 C 0.48959 0.47437 0.29805 0.0
C535 C 0.51192 0.51756 0.28267 0.0
C536 C 0.53219 0.50781 0.25501 0.0
C537 C 0.55779 0.55111 0.24086 0.0
C538 C 0.5614 0.60276 0.25325 0.0
C539 C 0.54038 0.61248 0.28 0.0
C540 C 0.51618 0.57048 0.29471 0.0
H541 H 0.48911 0.4918 0.19278 0.0
C542 C 0.52595 0.46325 0.19079 0.0
H543 H 0.58947 0.41549 0.21295 0.0
H544 H 0.44339 0.38419 0.32088 0.0
H545 H 0.43573 0.29468 0.29879 0.0
H546 H 0.4697 0.27766 0.25064 0.0
H547 H 0.51154 0.34993 0.22429 0.0
C548 C 0.55189 0.44326 0.21421 0.0
C549 C 0.52822 0.45506 0.24252 0.0
C550 C 0.50378 0.41232 0.25759 0.0
C551 C 0.48433 0.42203 0.28536 0.0
C552 C 0.45966 0.37877 0.29987 0.0
C553 C 0.45472 0.32728 0.28739 0.0
C554 C 0.47383 0.31771 0.26028 0.0
C555 C 0.49796 0.35956 0.24543 0.0
loop_
_geom_bond_atom_site_label_1
_geom_bond_atom_site_label_2
_geom_bond_distance
_geom_bond_site_symmetry_2
_ccdc_geom_bond_type
C0 O16 1.251 . S
C0 O18 1.254 1_554 S
N1 C2 1.333 1_445 S
N1 C6 1.307 . S
N1 Zn7 2.020 . S
C2 N1 1.333 1_665 S
C2 C3 1.379 . S
C2 H20 0.952 . S
C3 C2 1.379 . S
C3 C4 1.390 1_665 S
C3 H30 0.949 . S
C4 C3 1.390 1_445 S
C4 C5 1.357 . S
C5 C4 1.357 . S
C5 C6 1.370 . S
C5 H31 0.950 . S
C6 N1 1.307 . S
C6 C5 1.370 . S
C6 H24 0.948 . S
Zn7 N1 2.020 . S
Zn7 O16 2.039 1_445 S
Zn7 O22 2.034 1_455 S
Zn7 O26 2.025 . S
Zn7 O28 2.024 1_545 S
C8 O27 1.246 1_554 S
C8 O28 1.249 . S
N9 C10 1.303 1_445 S
N9 C11 1.340 . S
N9 Zn15 2.020 . S
C10 N9 1.303 1_665 S
C10 C14 1.370 . S
C10 H21 0.948 . S
C11 N9 1.340 . S
C11 C12 1.379 . S
C11 H19 0.952 . S
C12 C11 1.379 . S
C12 C13 1.390 . S
C12 H32 0.949 . S
C13 C12 1.390 . S
C13 C14 1.357 1_445 S
C14 C10 1.370 . S
C14 C13 1.357 1_665 S
C14 H33 0.950 . S
Zn15 N9 2.020 . S
Zn15 O18 2.025 1_445 S
Zn15 O23 2.024 1_455 S
Zn15 O25 2.039 . S
Zn15 O27 2.034 1_545 S
O16 C0 1.251 . S
O16 Zn7 2.039 1_665 S
C17 O22 1.246 . S
C17 O23 1.249 1_554 S
O18 C0 1.254 1_556 S
O18 Zn15 2.025 1_665 S
H19 C11 0.952 . S
H20 C2 0.952 . S
H21 C10 0.948 . S
O22 Zn7 2.034 1_655 S
O22 C17 1.246 . S
O23 Zn15 2.024 1_655 S
O23 C17 1.249 1_556 S
H24 C6 0.948 . S
O25 Zn15 2.039 . S
O25 C29 1.251 1_556 S
O26 Zn7 2.025 . S
O26 C29 1.254 . S
O27 C8 1.246 1_556 S
O27 Zn15 2.034 1_565 S
O28 Zn7 2.024 1_565 S
O28 C8 1.249 . S
C29 O25 1.251 1_554 S
C29 O26 1.254 . S
H30 C3 0.949 . S
H31 C5 0.950 . S
H32 C12 0.949 . S
H33 C14 0.950 . S
C34 O50 1.251 . S
C34 O52 1.254 . S
N35 C36 1.333 . S
N35 C40 1.307 . S
N35 Zn41 2.020 . S
C36 N35 1.333 . S
C36 C37 1.379 . S
C36 H54 0.952 . S
C37 C36 1.379 . S
C37 C38 1.390 . S
C37 H64 0.949 . S
C38 C37 1.390 . S
C38 C39 1.357 . S
C39 C38 1.357 . S
C39 C40 1.370 . S
C39 H65 0.950 . S
C40 N35 1.307 . S
C40 C39 1.370 . S
C40 H58 0.948 . S
Zn41 N35 2.020 . S
Zn41 O50 2.039 . S
Zn41 O56 2.034 . S
Zn41 O60 2.025 . S
Zn41 O62 2.024 . S
C42 O61 1.246 . S
C42 O62 1.249 . S
N43 C44 1.307 . S
N43 C45 1.333 . S
N43 Zn49 2.020 . S
C44 N43 1.307 . S
C44 C48 1.370 . S
C44 H55 0.948 . S
C45 N43 1.333 . S
C45 C46 1.379 . S
C45 H53 0.952 . S
C46 C45 1.379 . S
C46 C47 1.390 . S
C46 H66 0.949 . S
C47 C46 1.390 . S
C47 C48 1.357 . S
C48 C44 1.370 . S
C48 C47 1.357 . S
C48 H67 0.950 . S
Zn49 N43 2.020 . S
Zn49 O52 2.025 . S
Zn49 O57 2.024 . S
Zn49 O59 2.039 . S
Zn49 O61 2.034 . S
O50 C34 1.251 . S
O50 Zn41 2.039 . S
C51 O56 1.246 . S
C51 O57 1.249 . S
O52 C34 1.254 . S
O52 Zn49 2.025 . S
H53 C45 0.952 . S
H54 C36 0.952 . S
H55 C44 0.948 . S
O56 Zn41 2.034 . S
O56 C51 1.246 . S
O57 Zn49 2.024 . S
O57 C51 1.249 . S
H58 C40 0.948 . S
O59 Zn49 2.039 . S
O59 C63 1.251 . S
O60 Zn41 2.025 . S
O60 C63 1.254 . S
O61 C42 1.246 . S
O61 Zn49 2.034 . S
O62 Zn41 2.024 . S
O62 C42 1.249 . S
C63 O59 1.251 . S
C63 O60 1.254 . S
H64 C37 0.949 . S
H65 C39 0.950 . S
H66 C46 0.949 . S
H67 C48 0.950 . S
P68 O79 1.490 . S
P68 C82 1.812 1_455 S
P68 C88 1.803 1_545 S
P68 C94 1.819 . S
H69 C83 0.941 . S
H70 C84 0.939 . S
H71 C86 0.940 . S
H72 C87 0.940 . S
H73 C89 0.939 . S
H74 C90 0.942 . S
H75 C92 0.940 . S
H76 C93 0.939 . S
H77 C95 0.941 . S
H78 C99 0.939 . S
O79 P68 1.490 . S
H80 C96 0.939 . S
H81 C98 0.940 . S
C82 P68 1.812 1_655 S
C82 C83 1.389 1_655 S
C82 C87 1.391 . S
C83 H69 0.941 . S
C83 C82 1.389 1_455 S
C83 C84 1.397 1_455 S
C84 H70 0.939 . S
C84 C83 1.397 1_655 S
C84 C85 1.378 . S
C85 C84 1.378 . S
C85 C86 1.378 . S
C86 H71 0.940 . S
C86 C85 1.378 . S
C86 C87 1.396 . S
C87 H72 0.940 . S
C87 C82 1.391 . S
C87 C86 1.396 . S
C88 P68 1.803 1_565 S
C88 C89 1.378 . S
C88 C93 1.400 . S
C89 H73 0.939 . S
C89 C88 1.378 . S
C89 C90 1.361 . S
C90 H74 0.942 . S
C90 C89 1.361 . S
C90 C91 1.369 . S
C91 C90 1.369 . S
C91 C92 1.404 . S
C92 H75 0.940 . S
C92 C91 1.404 . S
C92 C93 1.389 . S
C93 H76 0.939 . S
C93 C88 1.400 . S
C93 C92 1.389 . S
C94 P68 1.819 . S
C94 C95 1.391 . S
C94 C99 1.391 1_545 S
C95 H77 0.941 . S
C95 C94 1.391 . S
C95 C96 1.396 . S
C96 H80 0.939 . S
C96 C95 1.396 . S
C96 C97 1.397 . S
C97 C96 1.397 . S
C97 C98 1.385 1_545 S
C98 H81 0.940 . S
C98 C97 1.385 1_565 S
C98 C99 1.388 . S
C99 H78 0.939 . S
C99 C94 1.391 1_565 S
C99 C98 1.388 . S
P100 O111 1.490 . S
P100 C114 1.812 . S
P100 C120 1.803 1_565 S
P100 C126 1.819 . S
H101 C115 0.941 . S
H102 C116 0.939 . S
H103 C118 0.940 . S
H104 C119 0.940 . S
H105 C121 0.939 . S
H106 C122 0.942 . S
H107 C124 0.940 . S
H108 C125 0.939 . S
H109 C127 0.941 . S
H110 C131 0.939 . S
O111 P100 1.490 . S
H112 C128 0.939 . S
H113 C130 0.940 . S
C114 P100 1.812 . S
C114 C115 1.389 . S
C114 C119 1.391 1_455 S
C115 H101 0.941 . S
C115 C114 1.389 . S
C115 C116 1.397 1_455 S
C116 H102 0.939 . S
C116 C115 1.397 1_655 S
C116 C117 1.378 . S
C117 C116 1.378 . S
C117 C118 1.378 . S
C118 H103 0.940 . S
C118 C117 1.378 . S
C118 C119 1.396 . S
C119 H104 0.940 . S
C119 C114 1.391 1_655 S
C119 C118 1.396 . S
C120 P100 1.803 1_545 S
C120 C121 1.378 . S
C120 C125 1.400 . S
C121 H105 0.939 . S
C121 C120 1.378 . S
C121 C122 1.361 . S
C122 H106 0.942 . S
C122 C121 1.361 . S
C122 C123 1.369 . S
C123 C122 1.369 . S
C123 C124 1.404 . S
C124 H107 0.940 . S
C124 C123 1.404 . S
C124 C125 1.389 . S
C125 H108 0.939 . S
C125 C120 1.400 . S
C125 C124 1.389 . S
C126 P100 1.819 . S
C126 C127 1.391 . S
C126 C131 1.391 1_565 S
C127 H109 0.941 . S
C127 C126 1.391 . S
C127 C128 1.396 . S
C128 H112 0.939 . S
C128 C127 1.396 . S
C128 C129 1.397 . S
C129 C128 1.397 . S
C129 C130 1.385 1_565 S
C130 H113 0.940 . S
C130 C129 1.385 1_545 S
C130 C131 1.388 . S
C131 H110 0.939 . S
C131 C126 1.391 1_545 S
C131 C130 1.388 . S
P132 O143 1.490 . S
P132 C146 1.812 . S
P132 C152 1.803 . S
P132 C158 1.819 . S
H133 C147 0.941 . S
H134 C148 0.939 1_554 S
H135 C150 0.940 . S
H136 C151 0.940 . S
H137 C153 0.939 . S
H138 C154 0.942 . S
H139 C156 0.940 . S
H140 C157 0.939 . S
H141 C159 0.941 . S
H142 C163 0.939 . S
O143 P132 1.490 . S
H144 C160 0.939 . S
H145 C162 0.940 . S
C146 P132 1.812 . S
C146 C147 1.389 . S
C146 C151 1.391 . S
C147 H133 0.941 . S
C147 C146 1.389 . S
C147 C148 1.397 . S
C148 H134 0.939 1_556 S
C148 C147 1.397 . S
C148 C149 1.378 . S
C149 C148 1.378 . S
C149 C150 1.378 . S
C150 H135 0.940 . S
C150 C149 1.378 . S
C150 C151 1.396 . S
C151 H136 0.940 . S
C151 C146 1.391 . S
C151 C150 1.396 . S
C152 P132 1.803 . S
C152 C153 1.378 . S
C152 C157 1.400 . S
C153 H137 0.939 . S
C153 C152 1.378 . S
C153 C154 1.361 . S
C154 H138 0.942 . S
C154 C153 1.361 . S
C154 C155 1.369 . S
C155 C154 1.369 . S
C155 C156 1.404 . S
C156 H139 0.940 . S
C156 C155 1.404 . S
C156 C157 1.389 . S
C157 H140 0.939 . S
C157 C152 1.400 . S
C157 C156 1.389 . S
C158 P132 1.819 . S
C158 C159 1.391 . S
C158 C163 1.391 . S
C159 H141 0.941 . S
C159 C158 1.391 . S
C159 C160 1.396 . S
C160 H144 0.939 . S
C160 C159 1.396 . S
C160 C161 1.397 . S
C161 C160 1.397 . S
C161 C162 1.385 . S
C162 H145 0.940 . S
C162 C161 1.385 . S
C162 C163 1.388 . S
C163 H142 0.939 . S
C163 C158 1.391 . S
C163 C162 1.388 . S
P164 O175 1.490 . S
P164 C178 1.812 . S
P164 C184 1.803 . S
P164 C190 1.819 . S
H165 C179 0.941 . S
H166 C180 0.942 1_556 S
H167 C182 0.940 . S
H168 C183 0.940 . S
H169 C185 0.939 . S
H170 C186 0.942 . S
H171 C188 0.940 . S
H172 C189 0.939 . S
H173 C191 0.941 . S
H174 C195 0.939 . S
O175 P164 1.490 . S
H176 C192 0.939 . S
H177 C194 0.940 . S
C178 P164 1.812 . S
C178 C179 1.389 . S
C178 C183 1.391 . S
C179 H165 0.941 . S
C179 C178 1.389 . S
C179 C180 1.397 . S
C180 H166 0.942 1_554 S
C180 C179 1.397 . S
C180 C181 1.378 . S
C181 C180 1.378 . S
C181 C182 1.378 . S
C182 H167 0.940 . S
C182 C181 1.378 . S
C182 C183 1.396 . S
C183 H168 0.940 . S
C183 C178 1.391 . S
C183 C182 1.396 . S
C184 P164 1.803 . S
C184 C185 1.378 . S
C184 C189 1.400 . S
C185 H169 0.939 . S
C185 C184 1.378 . S
C185 C186 1.361 . S
C186 H170 0.942 . S
C186 C185 1.361 . S
C186 C187 1.369 . S
C187 C186 1.369 . S
C187 C188 1.404 . S
C188 H171 0.940 . S
C188 C187 1.404 . S
C188 C189 1.389 . S
C189 H172 0.939 . S
C189 C184 1.400 . S
C189 C188 1.389 . S
C190 P164 1.819 . S
C190 C191 1.391 . S
C190 C195 1.391 . S
C191 H173 0.941 . S
C191 C190 1.391 . S
C191 C192 1.396 . S
C192 H176 0.939 . S
C192 C191 1.396 . S
C192 C193 1.397 . S
C193 C192 1.397 . S
C193 C194 1.385 . S
C194 H177 0.940 . S
C194 C193 1.385 . S
C194 C195 1.388 . S
C195 H174 0.939 . S
C195 C190 1.391 . S
C195 C194 1.388 . S
H196 C197 0.951 . S
C197 H196 0.951 . S
C197 C203 1.265 . S
H198 C203 0.950 . S
H199 C207 0.949 . S
H200 C208 0.950 . S
H201 C209 0.951 . S
H202 C210 0.951 . S
C203 C197 1.265 . S
C203 H198 0.950 . S
C203 C204 1.478 . S
C204 C203 1.478 . S
C204 C205 1.397 1_554 S
C204 C221 1.394 . S
C205 C204 1.397 1_556 S
C205 C206 1.438 . S
C205 C210 1.429 . S
C206 C205 1.438 . S
C206 C207 1.428 . S
C206 C219 1.394 1_556 S
C207 H199 0.949 . S
C207 C206 1.428 . S
C207 C208 1.345 . S
C208 H200 0.950 . S
C208 C207 1.345 . S
C208 C209 1.424 . S
C209 H201 0.951 . S
C209 C208 1.424 . S
C209 C210 1.347 . S
C210 H202 0.951 . S
C210 C205 1.429 . S
C210 C209 1.347 . S
H211 C212 0.951 . S
C212 H211 0.951 . S
C212 C218 1.265 . S
H213 C218 0.950 . S
H214 C222 0.949 . S
H215 C223 0.950 . S
H216 C224 0.951 . S
H217 C225 0.951 . S
C218 C212 1.265 . S
C218 H213 0.950 . S
C218 C219 1.478 . S
C219 C206 1.394 1_554 S
C219 C218 1.478 . S
C219 C220 1.397 . S
C220 C219 1.397 . S
C220 C221 1.438 . S
C220 C225 1.429 . S
C221 C204 1.394 . S
C221 C220 1.438 . S
C221 C222 1.428 . S
C222 H214 0.949 . S
C222 C221 1.428 . S
C222 C223 1.345 . S
C223 H215 0.950 . S
C223 C222 1.345 . S
C223 C224 1.424 . S
C224 H216 0.951 . S
C224 C223 1.424 . S
C224 C225 1.347 . S
C225 H217 0.951 . S
C225 C220 1.429 . S
C225 C224 1.347 . S
H226 C227 0.951 . S
C227 H226 0.951 . S
C227 C233 1.265 1_554 S
H228 C233 0.950 . S
H229 C237 0.949 . S
H230 C238 0.950 . S
H231 C239 0.951 . S
H232 C240 0.951 . S
C233 C227 1.265 1_556 S
C233 H228 0.950 . S
C233 C234 1.478 . S
C234 C233 1.478 . S
C234 C235 1.397 . S
C234 C251 1.394 1_556 S
C235 C234 1.397 . S
C235 C236 1.438 . S
C235 C240 1.429 . S
C236 C235 1.438 . S
C236 C237 1.428 . S
C236 C249 1.394 . S
C237 H229 0.949 . S
C237 C236 1.428 . S
C237 C238 1.345 . S
C238 H230 0.950 . S
C238 C237 1.345 . S
C238 C239 1.424 . S
C239 H231 0.951 . S
C239 C238 1.424 . S
C239 C240 1.347 . S
C240 H232 0.951 . S
C240 C235 1.429 . S
C240 C239 1.347 . S
H241 C242 0.951 . S
C242 H241 0.951 . S
C242 C248 1.265 . S
H243 C248 0.950 . S
H244 C252 0.949 . S
H245 C253 0.950 . S
H246 C254 0.951 . S
H247 C255 0.951 . S
C248 C242 1.265 . S
C248 H243 0.950 . S
C248 C249 1.478 . S
C249 C236 1.394 . S
C249 C248 1.478 . S
C249 C250 1.397 1_556 S
C250 C249 1.397 1_554 S
C250 C251 1.438 . S
C250 C255 1.429 . S
C251 C234 1.394 1_554 S
C251 C250 1.438 . S
C251 C252 1.428 . S
C252 H244 0.949 . S
C252 C251 1.428 . S
C252 C253 1.345 . S
C253 H245 0.950 . S
C253 C252 1.345 . S
C253 C254 1.424 . S
C254 H246 0.951 . S
C254 C253 1.424 . S
C254 C255 1.347 . S
C255 H247 0.951 . S
C255 C250 1.429 . S
C255 C254 1.347 . S
H256 C257 0.951 1_556 S
C257 H256 0.951 1_554 S
C257 C263 1.265 . S
H258 C263 0.950 . S
H259 C267 0.949 . S
H260 C268 0.950 . S
H261 C269 0.951 . S
H262 C270 0.951 . S
C263 C257 1.265 . S
C263 H258 0.950 . S
C263 C264 1.478 . S
C264 C263 1.478 . S
C264 C265 1.397 . S
C264 C281 1.394 1_554 S
C265 C264 1.397 . S
C265 C266 1.438 . S
C265 C270 1.429 . S
C266 C265 1.438 . S
C266 C267 1.428 . S
C266 C279 1.394 . S
C267 H259 0.949 . S
C267 C266 1.428 . S
C267 C268 1.345 . S
C268 H260 0.950 . S
C268 C267 1.345 . S
C268 C269 1.424 . S
C269 H261 0.951 . S
C269 C268 1.424 . S
C269 C270 1.347 . S
C270 H262 0.951 . S
C270 C265 1.429 . S
C270 C269 1.347 . S
H271 C272 0.951 . S
C272 H271 0.951 . S
C272 C278 1.265 . S
H273 C278 0.950 1_556 S
H274 C282 0.949 . S
H275 C283 0.950 . S
H276 C284 0.951 . S
H277 C285 0.951 . S
C278 C272 1.265 . S
C278 H273 0.950 1_554 S
C278 C279 1.478 . S
C279 C266 1.394 . S
C279 C278 1.478 . S
C279 C280 1.397 1_554 S
C280 C279 1.397 1_556 S
C280 C281 1.438 . S
C280 C285 1.429 . S
C281 C264 1.394 1_556 S
C281 C280 1.438 . S
C281 C282 1.428 . S
C282 H274 0.949 . S
C282 C281 1.428 . S
C282 C283 1.345 . S
C283 H275 0.950 . S
C283 C282 1.345 . S
C283 C284 1.424 . S
C284 H276 0.951 . S
C284 C283 1.424 . S
C284 C285 1.347 . S
C285 H277 0.951 . S
C285 C280 1.429 . S
C285 C284 1.347 . S
H286 C287 0.946 1_556 S
C287 H286 0.946 1_554 S
C287 C293 1.268 . S
H288 C293 0.950 . S
H289 C297 0.949 . S
H290 C298 0.950 . S
H291 C299 0.951 . S
H292 C300 0.951 . S
C293 C287 1.268 . S
C293 H288 0.950 . S
C293 C294 1.478 . S
C294 C293 1.478 . S
C294 C295 1.397 1_554 S
C294 C311 1.394 . S
C295 C294 1.397 1_556 S
C295 C296 1.438 . S
C295 C300 1.429 . S
C296 C295 1.438 . S
C296 C297 1.428 . S
C296 C309 1.394 . S
C297 H289 0.949 . S
C297 C296 1.428 . S
C297 C298 1.345 . S
C298 H290 0.950 . S
C298 C297 1.345 . S
C298 C299 1.424 . S
C299 H291 0.951 . S
C299 C298 1.424 . S
C299 C300 1.347 . S
C300 H292 0.951 . S
C300 C295 1.429 . S
C300 C299 1.347 . S
H301 C302 0.951 1_554 S
C302 H301 0.951 1_556 S
C302 C308 1.265 . S
H303 C308 0.950 . S
H304 C312 0.949 . S
H305 C313 0.950 . S
H306 C314 0.951 . S
H307 C315 0.951 . S
C308 C302 1.265 . S
C308 H303 0.950 . S
C308 C309 1.478 . S
C309 C296 1.394 . S
C309 C308 1.478 . S
C309 C310 1.397 1_556 S
C310 C309 1.397 1_554 S
C310 C311 1.438 . S
C310 C315 1.429 . S
C311 C294 1.394 . S
C311 C310 1.438 . S
C311 C312 1.428 . S
C312 H304 0.949 . S
C312 C311 1.428 . S
C312 C313 1.345 . S
C313 H305 0.950 . S
C313 C312 1.345 . S
C313 C314 1.424 . S
C314 H306 0.951 . S
C314 C313 1.424 . S
C314 C315 1.347 . S
C315 H307 0.951 . S
C315 C310 1.429 . S
C315 C314 1.347 . S
H316 C317 0.951 . S
C317 H316 0.951 . S
C317 C323 1.265 . S
H318 C323 0.950 . S
H319 C327 0.949 . S
H320 C328 0.950 . S
H321 C329 0.951 . S
H322 C330 0.951 . S
C323 C317 1.265 . S
C323 H318 0.950 . S
C323 C324 1.478 . S
C324 C323 1.478 . S
C324 C325 1.397 . S
C324 C341 1.394 . S
C325 C324 1.397 . S
C325 C326 1.438 . S
C325 C330 1.429 . S
C326 C325 1.438 . S
C326 C327 1.428 . S
C326 C339 1.394 . S
C327 H319 0.949 . S
C327 C326 1.428 . S
C327 C328 1.345 . S
C328 H320 0.950 . S
C328 C327 1.345 . S
C328 C329 1.424 . S
C329 H321 0.951 . S
C329 C328 1.424 . S
C329 C330 1.347 . S
C330 H322 0.951 . S
C330 C325 1.429 . S
C330 C329 1.347 . S
H331 C332 0.951 . S
C332 H331 0.951 . S
C332 C338 1.265 . S
H333 C338 0.950 . S
H334 C342 0.949 . S
H335 C343 0.950 . S
H336 C344 0.951 . S
H337 C345 0.951 . S
C338 C332 1.265 . S
C338 H333 0.950 . S
C338 C339 1.478 . S
C339 C326 1.394 . S
C339 C338 1.478 . S
C339 C340 1.397 . S
C340 C339 1.397 . S
C340 C341 1.438 . S
C340 C345 1.429 . S
C341 C324 1.394 . S
C341 C340 1.438 . S
C341 C342 1.428 . S
C342 H334 0.949 . S
C342 C341 1.428 . S
C342 C343 1.345 . S
C343 H335 0.950 . S
C343 C342 1.345 . S
C343 C344 1.424 . S
C344 H336 0.951 . S
C344 C343 1.424 . S
C344 C345 1.347 . S
C345 H337 0.951 . S
C345 C340 1.429 . S
C345 C344 1.347 . S
H346 C347 0.951 . S
C347 H346 0.951 . S
C347 C353 1.265 . S
H348 C353 0.950 . S
H349 C357 0.949 . S
H350 C358 0.950 . S
H351 C359 0.951 . S
H352 C360 0.951 . S
C353 C347 1.265 . S
C353 H348 0.950 . S
C353 C354 1.478 . S
C354 C353 1.478 . S
C354 C355 1.397 . S
C354 C371 1.394 . S
C355 C354 1.397 . S
C355 C356 1.438 . S
C355 C360 1.429 . S
C356 C355 1.438 . S
C356 C357 1.428 . S
C356 C369 1.394 . S
C357 H349 0.949 . S
C357 C356 1.428 . S
C357 C358 1.345 . S
C358 H350 0.950 . S
C358 C357 1.345 . S
C358 C359 1.424 . S
C359 H351 0.951 . S
C359 C358 1.424 . S
C359 C360 1.347 . S
C360 H352 0.951 . S
C360 C355 1.429 . S
C360 C359 1.347 . S
H361 C362 0.951 . S
C362 H361 0.951 . S
C362 C368 1.265 . S
H363 C368 0.950 . S
H364 C372 0.949 . S
H365 C373 0.950 . S
H366 C374 0.951 . S
H367 C375 0.951 . S
C368 C362 1.265 . S
C368 H363 0.950 . S
C368 C369 1.478 . S
C369 C356 1.394 . S
C369 C368 1.478 . S
C369 C370 1.397 . S
C370 C369 1.397 . S
C370 C371 1.438 . S
C370 C375 1.429 . S
C371 C354 1.394 . S
C371 C370 1.438 . S
C371 C372 1.428 . S
C372 H364 0.949 . S
C372 C371 1.428 . S
C372 C373 1.345 . S
C373 H365 0.950 . S
C373 C372 1.345 . S
C373 C374 1.424 . S
C374 H366 0.951 . S
C374 C373 1.424 . S
C374 C375 1.347 . S
C375 H367 0.951 . S
C375 C370 1.429 . S
C375 C374 1.347 . S
H376 C377 0.951 . S
C377 H376 0.951 . S
C377 C383 1.265 . S
H378 C383 0.950 . S
H379 C387 0.949 . S
H380 C388 0.950 . S
H381 C389 0.951 . S
H382 C390 0.951 . S
C383 C377 1.265 . S
C383 H378 0.950 . S
C383 C384 1.478 . S
C384 C383 1.478 . S
C384 C385 1.397 . S
C384 C401 1.394 . S
C385 C384 1.397 . S
C385 C386 1.438 . S
C385 C390 1.429 . S
C386 C385 1.438 . S
C386 C387 1.428 . S
C386 C399 1.394 . S
C387 H379 0.949 . S
C387 C386 1.428 . S
C387 C388 1.345 . S
C388 H380 0.950 . S
C388 C387 1.345 . S
C388 C389 1.424 . S
C389 H381 0.951 . S
C389 C388 1.424 . S
C389 C390 1.347 . S
C390 H382 0.951 . S
C390 C385 1.429 . S
C390 C389 1.347 . S
H391 C392 0.951 . S
C392 H391 0.951 . S
C392 C398 1.265 . S
H393 C398 0.950 . S
H394 C402 0.949 . S
H395 C403 0.950 . S
H396 C404 0.951 . S
H397 C405 0.951 . S
C398 C392 1.265 . S
C398 H393 0.950 . S
C398 C399 1.478 . S
C399 C386 1.394 . S
C399 C398 1.478 . S
C399 C400 1.397 . S
C400 C399 1.397 . S
C400 C401 1.438 . S
C400 C405 1.429 . S
C401 C384 1.394 . S
C401 C400 1.438 . S
C401 C402 1.428 . S
C402 H394 0.949 . S
C402 C401 1.428 . S
C402 C403 1.345 . S
C403 H395 0.950 . S
C403 C402 1.345 . S
C403 C404 1.424 . S
C404 H396 0.951 . S
C404 C403 1.424 . S
C404 C405 1.347 . S
C405 H397 0.951 . S
C405 C400 1.429 . S
C405 C404 1.347 . S
H406 C407 0.951 . S
C407 H406 0.951 . S
C407 C413 1.265 . S
H408 C413 0.950 . S
H409 C417 0.949 . S
H410 C418 0.950 . S
H411 C419 0.951 . S
H412 C420 0.951 . S
C413 C407 1.265 . S
C413 H408 0.950 . S
C413 C414 1.478 . S
C414 C413 1.478 . S
C414 C415 1.397 . S
C414 C431 1.394 . S
C415 C414 1.397 . S
C415 C416 1.438 . S
C415 C420 1.429 . S
C416 C415 1.438 . S
C416 C417 1.428 . S
C416 C429 1.394 . S
C417 H409 0.949 . S
C417 C416 1.428 . S
C417 C418 1.345 . S
C418 H410 0.950 . S
C418 C417 1.345 . S
C418 C419 1.424 . S
C419 H411 0.951 . S
C419 C418 1.424 . S
C419 C420 1.347 . S
C420 H412 0.951 . S
C420 C415 1.429 . S
C420 C419 1.347 . S
H421 C422 0.951 . S
C422 H421 0.951 . S
C422 C428 1.265 . S
H423 C428 0.950 . S
H424 C432 0.949 . S
H425 C433 0.950 . S
H426 C434 0.951 . S
H427 C435 0.951 . S
C428 C422 1.265 . S
C428 H423 0.950 . S
C428 C429 1.478 . S
C429 C416 1.394 . S
C429 C428 1.478 . S
C429 C430 1.397 . S
C430 C429 1.397 . S
C430 C431 1.438 . S
C430 C435 1.429 . S
C431 C414 1.394 . S
C431 C430 1.438 . S
C431 C432 1.428 . S
C432 H424 0.949 . S
C432 C431 1.428 . S
C432 C433 1.345 . S
C433 H425 0.950 . S
C433 C432 1.345 . S
C433 C434 1.424 . S
C434 H426 0.951 . S
C434 C433 1.424 . S
C434 C435 1.347 . S
C435 H427 0.951 . S
C435 C430 1.429 . S
C435 C434 1.347 . S
H436 C437 0.951 . S
C437 H436 0.951 . S
C437 C443 1.265 1_655 S
H438 C443 0.950 . S
H439 C447 0.949 . S
H440 C448 0.950 . S
H441 C449 0.951 . S
H442 C450 0.951 . S
C443 C437 1.265 1_455 S
C443 H438 0.950 . S
C443 C444 1.478 . S
C444 C443 1.478 . S
C444 C445 1.397 . S
C444 C461 1.394 1_445 S
C445 C444 1.397 . S
C445 C446 1.438 . S
C445 C450 1.429 . S
C446 C445 1.438 . S
C446 C447 1.428 . S
C446 C459 1.394 1_455 S
C447 H439 0.949 . S
C447 C446 1.428 . S
C447 C448 1.345 . S
C448 H440 0.950 . S
C448 C447 1.345 . S
C448 C449 1.424 . S
C449 H441 0.951 . S
C449 C448 1.424 . S
C449 C450 1.347 . S
C450 H442 0.951 . S
C450 C445 1.429 . S
C450 C449 1.347 . S
H451 C452 0.951 . S
C452 H451 0.951 . S
C452 C458 1.265 1_455 S
H453 C458 0.949 1_565 S
H454 C462 0.949 . S
H455 C463 0.950 . S
H456 C464 0.951 . S
H457 C465 0.951 . S
C458 C452 1.265 1_655 S
C458 H453 0.949 1_545 S
C458 C459 1.478 . S
C459 C446 1.394 1_655 S
C459 C458 1.478 . S
C459 C460 1.397 1_545 S
C460 C459 1.397 1_565 S
C460 C461 1.438 . S
C460 C465 1.429 . S
C461 C444 1.394 1_665 S
C461 C460 1.438 . S
C461 C462 1.428 . S
C462 H454 0.949 . S
C462 C461 1.428 . S
C462 C463 1.345 . S
C463 H455 0.950 . S
C463 C462 1.345 . S
C463 C464 1.424 . S
C464 H456 0.951 . S
C464 C463 1.424 . S
C464 C465 1.347 . S
C465 H457 0.951 . S
C465 C460 1.429 . S
C465 C464 1.347 . S
H466 C467 0.951 1_565 S
C467 H466 0.951 1_545 S
C467 C473 1.265 1_455 S
H468 C473 0.950 . S
H469 C477 0.949 1_455 S
H470 C478 0.950 . S
H471 C479 0.951 . S
H472 C480 0.951 . S
C473 C467 1.265 1_655 S
C473 H468 0.950 . S
C473 C474 1.478 1_655 S
C474 C473 1.478 1_455 S
C474 C475 1.397 1_455 S
C474 C491 1.394 1_545 S
C475 C474 1.397 1_655 S
C475 C476 1.438 1_655 S
C475 C480 1.429 . S
C476 C475 1.438 1_455 S
C476 C477 1.428 1_455 S
C476 C489 1.394 . S
C477 H469 0.949 1_655 S
C477 C476 1.428 1_655 S
C477 C478 1.345 . S
C478 H470 0.950 . S
C478 C477 1.345 . S
C478 C479 1.424 . S
C479 H471 0.951 . S
C479 C478 1.424 . S
C479 C480 1.347 . S
C480 H472 0.951 . S
C480 C475 1.429 . S
C480 C479 1.347 . S
H481 C482 0.951 1_655 S
C482 H481 0.951 1_455 S
C482 C488 1.263 1_545 S
H483 C488 0.953 . S
H484 C492 0.949 . S
H485 C493 0.950 . S
H486 C494 0.951 . S
H487 C495 0.951 . S
C488 C482 1.263 1_565 S
C488 H483 0.953 . S
C488 C489 1.478 1_565 S
C489 C476 1.394 . S
C489 C488 1.478 1_545 S
C489 C490 1.397 1_545 S
C490 C489 1.397 1_565 S
C490 C491 1.438 . S
C490 C495 1.429 . S
C491 C474 1.394 1_565 S
C491 C490 1.438 . S
C491 C492 1.428 . S
C492 H484 0.949 . S
C492 C491 1.428 . S
C492 C493 1.345 . S
C493 H485 0.950 . S
C493 C492 1.345 . S
C493 C494 1.424 . S
C494 H486 0.951 . S
C494 C493 1.424 . S
C494 C495 1.347 . S
C495 H487 0.951 . S
C495 C490 1.429 . S
C495 C494 1.347 . S
H496 C497 0.951 . S
C497 H496 0.951 . S
C497 C503 1.265 . S
H498 C503 0.950 . S
H499 C507 0.949 . S
H500 C508 0.950 . S
H501 C509 0.951 . S
H502 C510 0.951 . S
C503 C497 1.265 . S
C503 H498 0.950 . S
C503 C504 1.478 . S
C504 C503 1.478 . S
C504 C505 1.397 . S
C504 C521 1.394 . S
C505 C504 1.397 . S
C505 C506 1.438 . S
C505 C510 1.429 . S
C506 C505 1.438 . S
C506 C507 1.428 . S
C506 C519 1.394 . S
C507 H499 0.949 . S
C507 C506 1.428 . S
C507 C508 1.345 . S
C508 H500 0.950 . S
C508 C507 1.345 . S
C508 C509 1.424 . S
C509 H501 0.951 . S
C509 C508 1.424 . S
C509 C510 1.347 . S
C510 H502 0.951 . S
C510 C505 1.429 . S
C510 C509 1.347 . S
H511 C512 0.951 . S
C512 H511 0.951 . S
C512 C518 1.265 . S
H513 C518 0.950 . S
H514 C522 0.949 . S
H515 C523 0.950 . S
H516 C524 0.951 . S
H517 C525 0.951 . S
C518 C512 1.265 . S
C518 H513 0.950 . S
C518 C519 1.478 . S
C519 C506 1.394 . S
C519 C518 1.478 . S
C519 C520 1.397 . S
C520 C519 1.397 . S
C520 C521 1.438 . S
C520 C525 1.429 . S
C521 C504 1.394 . S
C521 C520 1.438 . S
C521 C522 1.428 . S
C522 H514 0.949 . S
C522 C521 1.428 . S
C522 C523 1.345 . S
C523 H515 0.950 . S
C523 C522 1.345 . S
C523 C524 1.424 . S
C524 H516 0.951 . S
C524 C523 1.424 . S
C524 C525 1.347 . S
C525 H517 0.951 . S
C525 C520 1.429 . S
C525 C524 1.347 . S
H526 C527 0.951 . S
C527 H526 0.951 . S
C527 C533 1.265 . S
H528 C533 0.950 . S
H529 C537 0.949 . S
H530 C538 0.950 . S
H531 C539 0.951 . S
H532 C540 0.951 . S
C533 C527 1.265 . S
C533 H528 0.950 . S
C533 C534 1.478 . S
C534 C533 1.478 . S
C534 C535 1.397 . S
C534 C551 1.394 . S
C535 C534 1.397 . S
C535 C536 1.438 . S
C535 C540 1.429 . S
C536 C535 1.438 . S
C536 C537 1.428 . S
C536 C549 1.394 . S
C537 H529 0.949 . S
C537 C536 1.428 . S
C537 C538 1.345 . S
C538 H530 0.950 . S
C538 C537 1.345 . S
C538 C539 1.424 . S
C539 H531 0.951 . S
C539 C538 1.424 . S
C539 C540 1.347 . S
C540 H532 0.951 . S
C540 C535 1.429 . S
C540 C539 1.347 . S
H541 C542 0.951 . S
C542 H541 0.951 . S
C542 C548 1.265 . S
H543 C548 0.950 . S
H544 C552 0.949 . S
H545 C553 0.950 . S
H546 C554 0.951 . S
H547 C555 0.951 . S
C548 C542 1.265 . S
C548 H543 0.950 . S
C548 C549 1.478 . S
C549 C536 1.394 . S
C549 C548 1.478 . S
C549 C550 1.397 . S
C550 C549 1.397 . S
C550 C551 1.438 . S
C550 C555 1.429 . S
C551 C534 1.394 . S
C551 C550 1.438 . S
C551 C552 1.428 . S
C552 H544 0.949 . S
C552 C551 1.428 . S
C552 C553 1.345 . S
C553 H545 0.950 . S
C553 C552 1.345 . S
C553 C554 1.424 . S
C554 H546 0.951 . S
C554 C553 1.424 . S
C554 C555 1.347 . S
C555 H547 0.951 . S
C555 C550 1.429 . S
C555 C554 1.347 . S
C212 C181 1.356 . S
C197 C29 1.434 . S
C227 C8 1.415 . S
C242 C149 1.415 . S
C257 C0 1.422 . S
C272 C187 1.332 . S
C287 C17 1.409 . S
C302 C155 1.364 . S
C317 C63 1.429 . S
C332 C117 1.409 . S
C347 C42 1.429 . S
C362 C85 1.348 . S
C392 C123 1.406 . S
C377 C34 1.419 . S
C422 C91 1.345 . S
C407 C51 1.411 . S
C437 C4 1.483 1_655 S
C452 C97 1.410 . S
C467 C13 1.480 . S
C482 C129 1.479 1_545 S
C512 C161 1.480 . S
C497 C38 1.471 . S
C527 C47 1.481 . S
C542 C193 1.479 . S
