# Generated by pormake.
# Topology pto, (3,4)-cn, num edge types: 1
# Building blocks:
#     Node 0, Type 0, BuildingBlock: QEWDON_clean_linker_0, # of connection points: 3
#     Node 1, Type 0, BuildingBlock: QEWDON_clean_linker_0, # of connection points: 3
#     Node 2, Type 0, BuildingBlock: QEWDON_clean_linker_0, # of connection points: 3
#     Node 3, Type 0, BuildingBlock: QEWDON_clean_linker_0, # of connection points: 3
#     Node 4, Type 0, BuildingBlock: QEWDON_clean_linker_0, # of connection points: 3
#     Node 5, Type 0, BuildingBlock: QEWDON_clean_linker_0, # of connection points: 3
#     Node 6, Type 0, BuildingBlock: QEWDON_clean_linker_0, # of connection points: 3
#     Node 7, Type 0, BuildingBlock: QEWDON_clean_linker_0, # of connection points: 3
#     Node 8, Type 1, BuildingBlock: KOZSID_clean_sbu_0, # of connection points: 4
#     Node 9, Type 1, BuildingBlock: KOZSID_clean_sbu_0, # of connection points: 4
#     Node 10, Type 1, BuildingBlock: KOZSID_clean_sbu_0, # of connection points: 4
#     Node 11, Type 1, BuildingBlock: KOZSID_clean_sbu_0, # of connection points: 4
#     Node 12, Type 1, BuildingBlock: KOZSID_clean_sbu_0, # of connection points: 4
#     Node 13, Type 1, BuildingBlock: KOZSID_clean_sbu_0, # of connection points: 4
#     Edge 14, Type (0, 1), None
#     Edge 15, Type (0, 1), None
#     Edge 16, Type (0, 1), None
#     Edge 17, Type (0, 1), None
#     Edge 18, Type (0, 1), None
#     Edge 19, Type (0, 1), None
#     Edge 20, Type (0, 1), None
#     Edge 21, Type (0, 1), None
#     Edge 22, Type (0, 1), None
#     Edge 23, Type (0, 1), None
#     Edge 24, Type (0, 1), None
#     Edge 25, Type (0, 1), None
#     Edge 26, Type (0, 1), None
#     Edge 27, Type (0, 1), None
#     Edge 28, Type (0, 1), None
#     Edge 29, Type (0, 1), None
#     Edge 30, Type (0, 1), None
#     Edge 31, Type (0, 1), None
#     Edge 32, Type (0, 1), None
#     Edge 33, Type (0, 1), None
#     Edge 34, Type (0, 1), None
#     Edge 35, Type (0, 1), None
#     Edge 36, Type (0, 1), None
#     Edge 37, Type (0, 1), None
# Relax obj value: 0.019
# Max RMSD: 0.204
# Mean RMSD: 0.080
data_MOF--net-pto--node1-KOZSID_clean_sbu_0--node2-QEWDON_clean_linker_0--edge1-none
_symmetry_space_group_name_H-M    P1
_symmetry_Int_Tables_number       1
_symmetry_cell_setting            triclinic
loop_
_symmetry_equiv_pos_as_xyz
'x, y, z'
_cell_length_a     16.559144
_cell_length_b     25.775618
_cell_length_c     23.768812
_cell_angle_alpha  89.216545
_cell_angle_beta   108.22229
_cell_angle_gamma 108.06029
loop_
_atom_site_label
_atom_site_type_symbol
_atom_site_fract_x
_atom_site_fract_y
_atom_site_fract_z
_atom_type_partial_charge
H0 H 0.19483 0.33454 0.24699 0.0
C1 C 0.22647 0.30861 0.2753 0.0
C2 C 0.28162 0.2852 0.25737 0.0
C3 C 0.20212 0.29409 0.32632 0.0
H4 H 0.35013 0.22422 0.27724 0.0
C5 C 0.30941 0.24398 0.29094 0.0
C6 C 0.2793 0.22469 0.33911 0.0
C7 C 0.22695 0.25092 0.35716 0.0
C8 C 0.14145 0.32003 0.34203 0.0
H9 H 0.20395 0.2369 0.39437 0.0
C10 C 0.15638 0.37753 0.34184 0.0
C11 C 0.09402 0.40037 0.35196 0.0
C12 C 0.06374 0.28652 0.35271 0.0
H13 H 0.04927 0.24252 0.35205 0.0
C14 C 1.00173 0.30903 0.3618 0.0
H15 H 0.21596 0.40423 0.33391 0.0
C16 C 0.01671 0.36533 0.36161 0.0
H17 H 0.96782 0.38174 0.36935 0.0
H18 H 0.94104 0.28263 0.36844 0.0
H19 H 0.40008 0.86963 0.73389 0.0
C20 C 0.35031 0.82935 0.72736 0.0
C21 C 0.37295 0.78712 0.76065 0.0
C22 C 0.26042 0.82263 0.69364 0.0
H23 H 0.32369 0.70185 0.77457 0.0
C24 C 0.30765 0.73481 0.7495 0.0
C25 C 0.21619 0.72952 0.72432 0.0
C26 C 0.19325 0.77315 0.69454 0.0
C27 C 0.23476 0.87133 0.67029 0.0
H28 H 0.12338 0.77091 0.67717 0.0
C29 C 0.27043 0.90232 0.62895 0.0
C30 C 0.24444 0.94825 0.60795 0.0
C31 C 0.17471 0.88771 0.69093 0.0
H32 H 0.14737 0.86531 0.72331 0.0
C33 C 0.15008 0.93347 0.67071 0.0
H34 H 0.3159 0.88992 0.61198 0.0
C35 C 0.18424 0.96339 0.62923 0.0
H36 H 0.16259 0.99799 0.61295 0.0
H37 H 0.10364 0.94551 0.68689 0.0
H38 H 0.88509 0.83876 0.48297 0.0
C39 C 0.86375 0.84068 0.43525 0.0
C40 C 0.86431 0.79864 0.3973 0.0
C41 C 0.83065 0.88349 0.4104 0.0
H42 H 0.83356 0.76814 0.30679 0.0
C43 C 0.83236 0.80011 0.33544 0.0
C44 C 0.80047 0.8422 0.30988 0.0
C45 C 0.80409 0.88476 0.34772 0.0
C46 C 0.8041 0.92069 0.44477 0.0
H47 H 0.77833 0.91696 0.32799 0.0
C48 C 0.8609 0.95502 0.49839 0.0
C49 C 0.82948 0.99261 0.52265 0.0
C50 C 0.71646 0.9233 0.41895 0.0
H51 H 0.66959 0.89637 0.38002 0.0
C52 C 0.68815 0.96163 0.4406 0.0
H53 H 0.92733 0.95251 0.52054 0.0
C54 C 0.74448 0.99668 0.49061 0.0
H55 H 0.71963 0.02645 0.5054 0.0
H56 H 0.62174 0.96418 0.41838 0.0
H57 H 0.83868 0.4483 0.96656 0.0
C58 C 0.86095 0.41902 0.94828 0.0
C59 C 0.90236 0.43421 0.90468 0.0
C60 C 0.85479 0.36816 0.9719 0.0
H61 H 0.96996 0.41052 0.85164 0.0
C62 C 0.93478 0.397 0.88327 0.0
C63 C 0.92363 0.34356 0.90265 0.0
C64 C 0.8855 0.33037 0.94863 0.0
C65 C 0.8255 0.35762 0.02532 0.0
H66 H 0.87823 0.29066 0.96586 0.0
C67 C 0.74019 0.35824 0.02497 0.0
C68 C 0.71606 0.35025 0.07725 0.0
C69 C 0.88631 0.35 0.07854 0.0
H70 H 0.95252 0.35018 0.08015 0.0
C71 C 0.86318 0.34335 0.13047 0.0
H72 H 0.69196 0.36303 0.98395 0.0
C73 C 0.77849 0.34312 0.12981 0.0
H74 H 0.76077 0.33605 0.17011 0.0
H75 H 0.91076 0.33773 0.17129 0.0
H76 H 0.04416 0.86364 0.88677 0.0
C77 C 0.99412 0.85804 0.90865 0.0
C78 C 0.9283 0.80642 0.90441 0.0
C79 C 0.99755 0.9026 0.94359 0.0
H80 H 0.80249 0.76627 0.91878 0.0
C81 C 0.85993 0.80325 0.92868 0.0
C82 C 0.86653 0.8467 0.96687 0.0
C83 C 0.94052 0.89446 0.97773 0.0
C84 C 0.05352 0.95921 0.94162 0.0
H85 H 0.95037 0.92728 0.00969 0.0
C86 C 0.02342 0.98943 0.89427 0.0
C87 C 0.06382 0.04665 0.89804 0.0
C88 C 0.12655 0.98612 0.9917 0.0
H89 H 0.14944 0.96365 0.02892 0.0
C90 C 0.16832 0.04258 0.99501 0.0
H91 H 0.96643 0.96881 0.85567 0.0
C92 C 0.13611 0.07289 0.94923 0.0
H93 H 0.16836 0.11686 0.9534 0.0
H94 H 0.22488 0.06304 0.03369 0.0
H95 H 0.91575 0.40362 0.47533 0.0
C96 C 0.84607 0.39666 0.44933 0.0
C97 C 0.81978 0.43873 0.418 0.0
C98 C 0.78172 0.3445 0.44449 0.0
H99 H 0.70777 0.46084 0.36462 0.0
C100 C 0.72872 0.42732 0.38434 0.0
C101 C 0.67149 0.37277 0.36794 0.0
C102 C 0.69467 0.33343 0.40427 0.0
C103 C 0.80417 0.29853 0.47568 0.0
H104 H 0.64643 0.29287 0.39912 0.0
C105 C 0.84402 0.30368 0.53772 0.0
C106 C 0.85261 0.25709 0.56691 0.0
C107 C 0.77471 0.24687 0.44344 0.0
H108 H 0.74511 0.24217 0.39543 0.0
C109 C 0.77995 0.20044 0.47274 0.0
H110 H 0.86685 0.3431 0.5631 0.0
C111 C 0.81784 0.20527 0.53419 0.0
H112 H 0.82332 0.16879 0.55619 0.0
H113 H 0.75553 0.16077 0.44776 0.0
H114 H 0.16961 0.26372 0.80983 0.0
C115 C 0.15871 0.30162 0.79892 0.0
C116 C 0.18495 0.33523 0.85142 0.0
C117 C 0.11188 0.31271 0.73829 0.0
H118 H 0.18633 0.40855 0.89128 0.0
C119 C 0.16675 0.38391 0.84974 0.0
C120 C 0.12201 0.40008 0.79621 0.0
C121 C 0.0911 0.36423 0.74364 0.0
C122 C 0.06956 0.24193 0.6103 0.0
H123 H 0.05046 0.37793 0.70544 0.0
C124 C 0.11437 0.20389 0.59818 0.0
C125 C 0.09608 0.17784 0.54157 0.0
C126 C 0.0178 0.25462 0.5518 0.0
H127 H 0.99523 0.28971 0.54553 0.0
C128 C 0.99658 0.22696 0.49713 0.0
H129 H 0.1688 0.19522 0.63123 0.0
C130 C 0.03311 0.18763 0.49208 0.0
H131 H 0.01898 0.16917 0.4479 0.0
H132 H 0.95514 0.23875 0.45748 0.0
H133 H 0.36986 0.88469 0.25639 0.0
C134 C 0.34668 0.85141 0.28178 0.0
C135 C 0.34165 0.86273 0.33808 0.0
C136 C 0.31503 0.79732 0.2558 0.0
H137 H 0.29032 0.82648 0.4081 0.0
C138 C 0.30401 0.8183 0.36801 0.0
C139 C 0.27412 0.76369 0.34288 0.0
C140 C 0.28434 0.75384 0.28793 0.0
C141 C 0.29373 0.78697 0.19101 0.0
H142 H 0.2562 0.71245 0.26623 0.0
C143 C 0.36156 0.79732 0.16482 0.0
C144 C 0.33856 0.78859 0.10279 0.0
C145 C 0.20323 0.76817 0.1546 0.0
H146 H 0.14968 0.76016 0.17351 0.0
C147 C 0.18068 0.76088 0.09302 0.0
H148 H 0.43154 0.81162 0.19243 0.0
C149 C 0.24806 0.77154 0.06712 0.0
H150 H 0.22936 0.76667 0.01934 0.0
H151 H 0.11085 0.74731 0.0653 0.0
C152 C 0.22089 0.7007 0.42116 0.0
C153 C 0.29653 0.72586 0.46943 0.0
C154 C 0.27743 0.70602 0.51935 0.0
C155 C 0.19176 0.66951 0.49893 0.0
N156 N 0.15631 0.66419 0.43919 0.0
Co157 Co 0.03242 0.61655 0.39215 0.0
N158 N 0.01401 0.57722 0.46191 0.0
C159 C 0.06132 0.5954 0.51919 0.0
C160 C 0.03118 0.56075 0.55802 0.0
C161 C 0.96087 0.51805 0.5229 0.0
C162 C 0.95269 0.52856 0.46426 0.0
N163 N 0.91188 0.56673 0.34445 0.0
C164 C 0.87357 0.51389 0.35278 0.0
C165 C 0.81119 0.4856 0.29956 0.0
C166 C 0.80279 0.52328 0.25915 0.0
C167 C 0.86446 0.57175 0.2883 0.0
N168 N 0.04626 0.6574 0.32237 0.0
C169 C 0.97712 0.65856 0.27417 0.0
C170 C 0.99733 0.70189 0.24153 0.0
C171 C 0.08464 0.73062 0.27114 0.0
C172 C 0.11381 0.70191 0.31911 0.0
N173 N 0.08391 0.56188 0.37285 0.0
C174 C 0.10788 0.46045 0.35537 0.0
C175 C 0.06216 0.48412 0.30746 0.0
C176 C 0.05284 0.53551 0.31686 0.0
C177 C 0.14955 0.49144 0.41057 0.0
C178 C 0.13754 0.54211 0.41824 0.0
N179 N 0.98016 0.67119 0.41219 0.0
C180 C 0.8506 0.69864 0.40684 0.0
C181 C 0.9036 0.75421 0.41864 0.0
C182 C 0.99575 0.76616 0.43266 0.0
C183 C 0.03215 0.72514 0.42774 0.0
C184 C 0.89058 0.65769 0.40588 0.0
H185 H 0.10206 0.73931 0.43292 0.0
H186 H 0.84759 0.61559 0.39662 0.0
H187 H 0.01336 0.55133 0.27987 0.0
H188 H 0.16529 0.56272 0.4624 0.0
C189 C 0.14303 0.63851 0.53372 0.0
C190 C 0.20564 0.71967 0.36109 0.0
C191 C 0.88658 0.49187 0.41179 0.0
C192 C 0.89464 0.61748 0.25982 0.0
H193 H 0.35708 0.7575 0.46893 0.0
H194 H 0.32034 0.71764 0.56512 0.0
H195 H 0.05972 0.56451 0.60602 0.0
H196 H 0.92157 0.48284 0.53885 0.0
H197 H 0.77518 0.44218 0.29032 0.0
H198 H 0.76227 0.51524 0.21261 0.0
H199 H 0.95319 0.71217 0.20197 0.0
H200 H 0.12154 0.76965 0.26004 0.0
H201 H 0.02848 0.46142 0.26402 0.0
H202 H 0.185 0.47461 0.44885 0.0
H203 H 0.77827 0.68718 0.39497 0.0
H204 H 0.03927 0.80777 0.44125 0.0
C205 C 0.1781 0.6968 0.81659 0.0
C206 C 0.24435 0.74209 0.85234 0.0
C207 C 0.24866 0.734 0.90958 0.0
C208 C 0.18166 0.68591 0.906 0.0
N209 N 0.13656 0.66234 0.84978 0.0
Co210 Co 0.01583 0.60651 0.82504 0.0
N211 N 0.0329 0.58487 0.90746 0.0
C212 C 0.09236 0.61453 0.95764 0.0
C213 C 0.09168 0.58709 0.00751 0.0
C214 C 0.02794 0.53668 0.98716 0.0
C215 C 0.99321 0.53662 0.92591 0.0
N216 N 0.8944 0.55141 0.80318 0.0
C217 C 0.86623 0.50557 0.8301 0.0
C218 C 0.77923 0.47448 0.7979 0.0
C219 C 0.75307 0.50169 0.74862 0.0
C220 C 0.82535 0.54793 0.75347 0.0
N221 N 0.99916 0.62651 0.74184 0.0
C222 C 0.92013 0.61275 0.69737 0.0
C223 C 0.92928 0.63091 0.64433 0.0
C224 C 0.01921 0.65894 0.65667 0.0
C225 C 0.06019 0.65679 0.71687 0.0
N226 N 0.0624 0.54969 0.80818 0.0
C227 C 0.10574 0.4543 0.7965 0.0
C228 C 0.03018 0.46281 0.7555 0.0
C229 C 0.01174 0.51126 0.761 0.0
C230 C 0.16359 0.49771 0.84027 0.0
C231 C 0.13971 0.54434 0.84618 0.0
N232 N 0.96873 0.66426 0.84089 0.0
C233 C 0.97079 0.75813 0.83271 0.0
C234 C 0.93312 0.75562 0.87797 0.0
C235 C 0.90673 0.70464 0.90096 0.0
C236 C 0.92384 0.65933 0.88114 0.0
C237 C 0.98843 0.71263 0.81531 0.0
H238 H 0.90445 0.62107 0.90031 0.0
H239 H 0.02198 0.7184 0.78276 0.0
H240 H 0.95255 0.51566 0.72894 0.0
H241 H 0.18166 0.575 0.88282 0.0
C242 C 0.15797 0.66251 0.95429 0.0
C243 C 0.1528 0.69058 0.7511 0.0
C244 C 0.92135 0.4913 0.88609 0.0
C245 C 0.84116 0.57819 0.70603 0.0
H246 H 0.28178 0.77933 0.83875 0.0
H247 H 0.29277 0.76157 0.9484 0.0
H248 H 0.13573 0.60081 0.05272 0.0
H249 H 0.01019 0.50378 0.01426 0.0
H250 H 0.74025 0.43552 0.80802 0.0
H251 H 0.69169 0.48691 0.71126 0.0
H252 H 0.87711 0.62412 0.60159 0.0
H253 H 0.05031 0.67986 0.62526 0.0
H254 H 0.98201 0.43164 0.72095 0.0
H255 H 0.22569 0.49531 0.87135 0.0
H256 H 0.98943 0.79553 0.81173 0.0
H257 H 0.87687 0.70011 0.93601 0.0
C258 C 0.35802 0.02109 0.57048 0.0
C259 C 0.43063 0.02914 0.62207 0.0
C260 C 0.50149 0.06918 0.61286 0.0
C261 C 0.46817 0.08366 0.55646 0.0
N262 N 0.38093 0.05501 0.52983 0.0
Co263 Co 0.30775 0.06129 0.44777 0.0
N264 N 0.39529 0.13284 0.44318 0.0
C265 C 0.48228 0.15168 0.47709 0.0
C266 C 0.52517 0.20356 0.4653 0.0
C267 C 0.46074 0.21834 0.42204 0.0
C268 C 0.38177 0.17463 0.40976 0.0
N269 N 0.2324 0.07121 0.36742 0.0
C270 C 0.23002 0.11865 0.34201 0.0
C271 C 0.16024 0.10824 0.28856 0.0
C272 C 0.11771 0.05254 0.2804 0.0
C273 C 0.16333 0.03193 0.32939 0.0
N274 N 0.22105 0.98939 0.45031 0.0
C275 C 0.15501 0.95823 0.40299 0.0
C276 C 0.10152 0.91239 0.41895 0.0
C277 C 0.13768 0.9141 0.47971 0.0
C278 C 0.21134 0.96126 0.49747 0.0
N279 N 0.24521 0.09788 0.48185 0.0
C280 C 0.14942 0.14518 0.53051 0.0
C281 C 0.1053 0.09853 0.49026 0.0
C282 C 0.1538 0.07692 0.46507 0.0
C283 C 0.24343 0.16598 0.54897 0.0
C284 C 0.29039 0.14107 0.52455 0.0
N285 N 0.36777 0.01944 0.41404 0.0
C286 C 0.34419 0.9619 0.32706 0.0
C287 C 0.36465 0.92062 0.36276 0.0
C288 C 0.40165 0.93422 0.42395 0.0
C289 C 0.40338 0.98345 0.44848 0.0
C290 C 0.34906 0.01178 0.35377 0.0
H291 H 0.42614 0.9881 0.49597 0.0
H292 H 0.3297 0.04165 0.32507 0.0
H293 H 0.11627 0.0437 0.43103 0.0
H294 H 0.36268 0.15742 0.53903 0.0
C295 C 0.51306 0.12652 0.5288 0.0
C296 C 0.27134 0.97757 0.55898 0.0
C297 C 0.29479 0.17361 0.36655 0.0
C298 C 0.13247 0.97953 0.34759 0.0
H299 H 0.43276 1.00728 0.66144 0.0
H300 H 0.56886 0.08577 0.64382 0.0
H301 H 0.59323 0.22931 0.48854 0.0
H302 H 0.47007 0.2573 0.40303 0.0
H303 H 0.14061 0.1379 0.25949 0.0
H304 H 0.05699 0.03036 0.24508 0.0
H305 H 0.03999 0.88346 0.39011 0.0
H306 H 0.11196 0.88489 0.50809 0.0
H307 H 0.03268 0.08117 0.47493 0.0
H308 H 0.27989 0.20263 0.57944 0.0
H309 H 0.31859 0.95463 0.27905 0.0
H310 H 0.42389 0.90535 0.45342 0.0
C311 C 0.45796 0.85318 0.06629 0.0
C312 C 0.43546 0.89864 0.07766 0.0
C313 C 0.49742 0.94321 0.06701 0.0
C314 C 0.55389 0.92237 0.05007 0.0
N315 N 0.53059 0.86718 0.0476 0.0
Co316 Co 0.60063 0.82093 0.03263 0.0
N317 N 0.69468 0.88644 0.02034 0.0
C318 C 0.69092 0.93813 0.01723 0.0
C319 C 0.74734 0.97107 0.99043 0.0
C320 C 0.7895 0.93852 0.97525 0.0
C321 C 0.75958 0.88779 0.99634 0.0
N322 N 0.6737 0.77514 0.02319 0.0
C323 C 0.75644 0.79083 0.01777 0.0
C324 C 0.79262 0.74817 0.02688 0.0
C325 C 0.72711 0.70301 0.03309 0.0
C326 C 0.65642 0.72111 0.02987 0.0
N327 N 0.50286 0.7548 0.03988 0.0
C328 C 0.49669 0.70181 0.03105 0.0
C329 C 0.42145 0.66538 0.03879 0.0
C330 C 0.37779 0.69703 0.05426 0.0
C331 C 0.42912 0.75118 0.05501 0.0
N332 N 0.53809 0.81283 0.94483 0.0
C333 C 0.44571 0.80074 0.82034 0.0
C334 C 0.48412 0.76166 0.84799 0.0
C335 C 0.52884 0.76818 0.9096 0.0
C336 C 0.46033 0.84773 0.85617 0.0
C337 C 0.50572 0.85278 0.91736 0.0
N338 N 0.66421 0.82898 0.11997 0.0
C339 C 0.70117 0.78765 0.21261 0.0
C340 C 0.75539 0.83847 0.24397 0.0
C341 C 0.76242 0.88478 0.21182 0.0
C342 C 0.71649 0.87919 0.15031 0.0
C343 C 0.65717 0.78383 0.15155 0.0
H344 H 0.72404 0.91595 0.12809 0.0
H345 H 0.61738 0.74363 0.131 0.0
H346 H 0.55342 0.73576 0.92793 0.0
H347 H 0.51132 0.88884 0.9417 0.0
C348 C 0.62717 0.95302 0.03396 0.0
C349 C 0.40942 0.79772 0.0749 0.0
C350 C 0.79546 0.84231 0.99467 0.0
C351 C 0.57136 0.6883 0.02933 0.0
H352 H 0.38052 0.89948 0.09271 0.0
H353 H 0.50127 0.98572 0.07153 0.0
H354 H 0.75315 0.01279 0.97987 0.0
H355 H 0.83448 0.9511 0.94955 0.0
H356 H 0.85785 0.74877 0.02602 0.0
H357 H 0.73005 0.66176 0.03803 0.0
H358 H 0.4039 0.62121 0.03775 0.0
H359 H 0.31739 0.68195 0.06639 0.0
H360 H 0.47595 0.72465 0.82278 0.0
H361 H 0.431 0.87904 0.83833 0.0
H362 H 0.69101 0.75055 0.23518 0.0
H363 H 0.8036 0.92515 0.23376 0.0
C364 C 0.09825 0.1133 0.82183 0.0
C365 C 0.18134 0.10607 0.83301 0.0
C366 C 0.22586 0.14245 0.80306 0.0
C367 C 0.16771 0.16927 0.7742 0.0
N368 N 0.08681 0.15316 0.78443 0.0
Co369 Co 0.97091 0.16983 0.74088 0.0
N370 N 0.03722 0.22811 0.69496 0.0
C371 C 0.14499 0.24321 0.70639 0.0
C372 C 0.18546 0.30624 0.67509 0.0
C373 C 0.08766 0.32704 0.64231 0.0
C374 C 0.99448 0.27267 0.65784 0.0
N375 N 0.85417 0.1847 0.69677 0.0
C376 C 0.8368 0.22379 0.6599 0.0
C377 C 0.75108 0.22642 0.64973 0.0
C378 C 0.71327 0.18967 0.68292 0.0
C379 C 0.77756 0.16652 0.71099 0.0
N380 N 0.91029 0.11485 0.7885 0.0
C381 C 0.82767 0.10696 0.79215 0.0
C382 C 0.80567 0.071 0.83201 0.0
C383 C 0.87939 0.05528 0.85639 0.0
C384 C 0.94203 0.08237 0.82941 0.0
N385 N 0.98807 0.22916 0.80313 0.0
C386 C 0.94707 0.3021 0.87132 0.0
C387 C 0.97529 0.25837 0.89793 0.0
C388 C 0.99646 0.22196 0.86482 0.0
C389 C 0.93809 0.30667 0.81131 0.0
C390 C 0.95836 0.27239 0.77759 0.0
N391 N 0.94055 0.10948 0.67811 0.0
C392 C 0.82437 0.03073 0.61689 0.0
C393 C 0.87675 0.02679 0.58189 0.0
C394 C 0.96624 0.06189 0.6005 0.0
C395 C 0.99718 0.10207 0.64962 0.0
C396 C 0.85588 0.07242 0.66255 0.0
H397 H 0.06602 0.12715 0.66369 0.0
H398 H 0.80915 0.07487 0.68395 0.0
H399 H 0.01569 0.18808 0.88537 0.0
H400 H 0.98094 0.23931 0.77619 0.0
C401 C 0.19236 0.21088 0.73898 0.0
C402 C 0.03311 0.07957 0.84803 0.0
C403 C 0.89633 0.26029 0.63176 0.0
C404 C 0.77101 0.13233 0.75591 0.0
H405 H 0.20698 0.0766 0.85939 0.0
H406 H 0.2928 0.14823 0.80163 0.0
H407 H 0.2534 0.32693 0.6756 0.0
H408 H 0.08391 0.3621 0.61713 0.0
H409 H 0.72083 0.25392 0.62267 0.0
H410 H 0.6485 0.18285 0.68857 0.0
H411 H 0.74376 0.05823 0.84258 0.0
H412 H 0.88693 0.02834 0.89152 0.0
H413 H 0.9819 0.25259 0.94413 0.0
H414 H 0.91175 0.33698 0.78738 0.0
H415 H 0.75585 1.0036 0.60652 0.0
H416 H 0.01087 0.05968 0.57641 0.0
C417 C 0.3188 0.3499 0.17231 0.0
C418 C 0.29874 0.39616 0.18478 0.0
C419 C 0.32354 0.43401 0.14661 0.0
C420 C 0.35926 0.41002 0.11341 0.0
N421 N 0.35763 0.35939 0.12873 0.0
Co422 Co 0.42065 0.31478 0.10375 0.0
N423 N 0.50244 0.37871 0.0807 0.0
C424 C 0.4869 0.42643 0.0679 0.0
C425 C 0.55499 0.46294 0.0521 0.0
C426 C 0.61588 0.43594 0.05451 0.0
C427 C 0.58159 0.38432 0.07174 0.0
N428 N 0.48317 0.26874 0.081 0.0
C429 C 0.56441 0.28346 0.07317 0.0
C430 C 0.58077 0.2381 0.05426 0.0
C431 C 0.50613 0.19371 0.04936 0.0
C432 C 0.44862 0.21431 0.06558 0.0
N433 N 0.33782 0.25062 0.12434 0.0
C434 C 0.31328 0.19871 0.10108 0.0
C435 C 0.24786 0.16371 0.12037 0.0
C436 C 0.23134 0.19601 0.15813 0.0
C437 C 0.28905 0.24871 0.16062 0.0
N438 N 0.33741 0.30387 0.02215 0.0
C439 C 0.23399 0.3195 0.90932 0.0
C440 C 0.31678 0.3118 0.91783 0.0
C441 C 0.36832 0.3052 0.97482 0.0
C442 C 0.20146 0.31552 0.95741 0.0
C443 C 0.25215 0.30491 0.01264 0.0
N444 N 0.50325 0.32911 0.18517 0.0
C445 C 0.57294 0.30115 0.27982 0.0
C446 C 0.60314 0.35556 0.30682 0.0
C447 C 0.57947 0.3952 0.27056 0.0
C448 C 0.53439 0.38182 0.21042 0.0
C449 C 0.52183 0.28872 0.21924 0.0
H450 H 0.5219 0.41473 0.18486 0.0
H451 H 0.49749 0.24684 0.1998 0.0
H452 H 0.43533 0.30476 0.98095 0.0
H453 H 0.22496 0.3018 0.04878 0.0
C454 C 0.41781 0.43836 0.08263 0.0
C455 C 0.29881 0.29607 0.1987 0.0
C456 C 0.62195 0.34025 0.0761 0.0
C457 C 0.36662 0.18358 0.07292 0.0
H458 H 0.27316 0.40421 0.21897 0.0
H459 H 0.3234 0.47596 0.14725 0.0
H460 H 0.5616 0.50492 0.0424 0.0
H461 H 0.67797 0.4522 0.04455 0.0
H462 H 0.6392 0.23747 0.04331 0.0
H463 H 0.49562 0.15146 0.0362 0.0
H464 H 0.21928 0.11967 0.11118 0.0
H465 H 0.18404 0.18229 0.18213 0.0
H466 H 0.34421 0.31474 0.88162 0.0
H467 H 0.13906 0.32265 0.95313 0.0
H468 H 0.58994 0.26817 0.30398 0.0
H469 H 0.59691 0.43734 0.28695 0.0
loop_
_geom_bond_atom_site_label_1
_geom_bond_atom_site_label_2
_geom_bond_distance
_geom_bond_site_symmetry_2
_ccdc_geom_bond_type
H0 C1 0.949 . S
C1 H0 0.949 . S
C1 C2 1.395 . S
C1 C3 1.391 . S
C2 C1 1.395 . S
C2 C5 1.390 . S
C3 C1 1.391 . S
C3 C7 1.387 . S
C3 C8 1.491 . S
H4 C5 0.950 . S
C5 C2 1.390 . S
C5 H4 0.950 . S
C5 C6 1.378 . S
C6 C5 1.378 . S
C6 C7 1.409 . S
C7 C3 1.387 . S
C7 C6 1.409 . S
C7 H9 0.951 . S
C8 C3 1.491 . S
C8 C10 1.382 . S
C8 C12 1.404 . S
H9 C7 0.951 . S
C10 C8 1.382 . S
C10 C11 1.390 . S
C10 H15 0.949 . S
C11 C10 1.390 . S
C11 C16 1.399 . S
C12 C8 1.404 . S
C12 H13 0.950 . S
C12 C14 1.375 . S
H13 C12 0.950 . S
C14 C12 1.375 . S
C14 C16 1.382 . S
C14 H18 0.950 . S
H15 C10 0.949 . S
C16 C11 1.399 . S
C16 C14 1.382 . S
C16 H17 0.952 . S
H17 C16 0.952 . S
H18 C14 0.950 . S
H19 C20 0.949 . S
C20 H19 0.949 . S
C20 C21 1.395 . S
C20 C22 1.391 . S
C21 C20 1.395 . S
C21 C24 1.390 . S
C22 C20 1.391 . S
C22 C26 1.387 . S
C22 C27 1.491 . S
H23 C24 0.950 . S
C24 C21 1.390 . S
C24 H23 0.950 . S
C24 C25 1.378 . S
C25 C24 1.378 . S
C25 C26 1.409 . S
C26 C22 1.387 . S
C26 C25 1.409 . S
C26 H28 0.951 . S
C27 C22 1.491 . S
C27 C29 1.382 . S
C27 C31 1.404 . S
H28 C26 0.951 . S
C29 C27 1.382 . S
C29 C30 1.390 . S
C29 H34 0.949 . S
C30 C29 1.390 . S
C30 C35 1.399 . S
C31 C27 1.404 . S
C31 H32 0.950 . S
C31 C33 1.375 . S
H32 C31 0.950 . S
C33 C31 1.375 . S
C33 C35 1.382 . S
C33 H37 0.950 . S
H34 C29 0.949 . S
C35 C30 1.399 . S
C35 C33 1.382 . S
C35 H36 0.952 . S
H36 C35 0.952 . S
H37 C33 0.950 . S
H38 C39 0.949 . S
C39 H38 0.949 . S
C39 C40 1.395 . S
C39 C41 1.391 . S
C40 C39 1.395 . S
C40 C43 1.390 . S
C41 C39 1.391 . S
C41 C45 1.387 . S
C41 C46 1.491 . S
H42 C43 0.950 . S
C43 C40 1.390 . S
C43 H42 0.950 . S
C43 C44 1.378 . S
C44 C43 1.378 . S
C44 C45 1.409 . S
C45 C41 1.387 . S
C45 C44 1.409 . S
C45 H47 0.951 . S
C46 C41 1.491 . S
C46 C48 1.382 . S
C46 C50 1.404 . S
H47 C45 0.951 . S
C48 C46 1.382 . S
C48 C49 1.390 1_565 S
C48 H53 0.949 . S
C49 C48 1.390 1_545 S
C49 C54 1.399 . S
C50 C46 1.404 . S
C50 H51 0.950 . S
C50 C52 1.375 . S
H51 C50 0.950 . S
C52 C50 1.375 . S
C52 C54 1.382 1_565 S
C52 H56 0.950 . S
H53 C48 0.949 . S
C54 C49 1.399 . S
C54 C52 1.382 1_545 S
C54 H55 0.952 . S
H55 C54 0.952 . S
H56 C52 0.950 . S
H57 C58 0.949 . S
C58 H57 0.949 . S
C58 C59 1.395 . S
C58 C60 1.391 . S
C59 C58 1.395 . S
C59 C62 1.390 . S
C60 C58 1.391 . S
C60 C64 1.387 . S
C60 C65 1.491 1_556 S
H61 C62 0.950 . S
C62 C59 1.390 . S
C62 H61 0.950 . S
C62 C63 1.378 . S
C63 C62 1.378 . S
C63 C64 1.409 . S
C64 C60 1.387 . S
C64 C63 1.409 . S
C64 H66 0.951 . S
C65 C60 1.491 1_554 S
C65 C67 1.382 . S
C65 C69 1.404 . S
H66 C64 0.951 . S
C67 C65 1.382 . S
C67 C68 1.390 . S
C67 H72 0.949 1_554 S
C68 C67 1.390 . S
C68 C73 1.399 . S
C69 C65 1.404 . S
C69 H70 0.950 . S
C69 C71 1.375 . S
H70 C69 0.950 . S
C71 C69 1.375 . S
C71 C73 1.382 . S
C71 H75 0.950 . S
H72 C67 0.949 1_556 S
C73 C68 1.399 . S
C73 C71 1.382 . S
C73 H74 0.952 . S
H74 C73 0.952 . S
H75 C71 0.950 . S
H76 C77 0.949 1_455 S
C77 H76 0.949 1_655 S
C77 C78 1.395 . S
C77 C79 1.391 . S
C78 C77 1.395 . S
C78 C81 1.390 . S
C79 C77 1.391 . S
C79 C83 1.387 . S
C79 C84 1.491 . S
H80 C81 0.950 . S
C81 C78 1.390 . S
C81 H80 0.950 . S
C81 C82 1.378 . S
C82 C81 1.378 . S
C82 C83 1.409 . S
C83 C79 1.387 . S
C83 C82 1.409 . S
C83 H85 0.951 . S
C84 C79 1.491 . S
C84 C86 1.382 . S
C84 C88 1.404 1_655 S
H85 C83 0.951 . S
C86 C84 1.382 . S
C86 C87 1.390 1_665 S
C86 H91 0.949 . S
C87 C86 1.390 1_445 S
C87 C92 1.399 . S
C88 C84 1.404 1_455 S
C88 H89 0.947 1_455 S
C88 C90 1.375 1_565 S
H89 C88 0.947 1_655 S
C90 C88 1.375 1_545 S
C90 C92 1.382 . S
C90 H94 0.950 . S
H91 C86 0.949 . S
C92 C87 1.399 . S
C92 C90 1.382 . S
C92 H93 0.952 . S
H93 C92 0.952 . S
H94 C90 0.950 . S
H95 C96 0.949 . S
C96 H95 0.949 . S
C96 C97 1.395 . S
C96 C98 1.391 . S
C97 C96 1.395 . S
C97 C100 1.390 . S
C98 C96 1.391 . S
C98 C102 1.387 . S
C98 C103 1.491 . S
H99 C100 0.950 . S
C100 C97 1.390 . S
C100 H99 0.950 . S
C100 C101 1.378 . S
C101 C100 1.378 . S
C101 C102 1.409 . S
C102 C98 1.387 . S
C102 C101 1.409 . S
C102 H104 0.951 . S
C103 C98 1.491 . S
C103 C105 1.382 . S
C103 C107 1.404 . S
H104 C102 0.951 . S
C105 C103 1.382 . S
C105 C106 1.390 . S
C105 H110 0.949 . S
C106 C105 1.390 . S
C106 C111 1.399 . S
C107 C103 1.404 . S
C107 H108 0.950 . S
C107 C109 1.375 . S
H108 C107 0.950 . S
C109 C107 1.375 . S
C109 C111 1.382 . S
C109 H113 0.950 . S
H110 C105 0.949 . S
C111 C106 1.399 . S
C111 C109 1.382 . S
C111 H112 0.952 . S
H112 C111 0.952 . S
H113 C109 0.950 . S
H114 C115 0.949 . S
C115 H114 0.949 . S
C115 C116 1.395 . S
C115 C117 1.391 . S
C116 C115 1.395 . S
C116 C119 1.390 . S
C117 C115 1.391 . S
C117 C121 1.387 . S
C117 C122 1.491 . S
H118 C119 0.950 . S
C119 C116 1.390 . S
C119 H118 0.950 . S
C119 C120 1.378 . S
C120 C119 1.378 . S
C120 C121 1.409 . S
C121 C117 1.387 . S
C121 C120 1.409 . S
C121 H123 0.951 . S
C122 C117 1.491 . S
C122 C124 1.382 . S
C122 C126 1.404 . S
H123 C121 0.951 . S
C124 C122 1.382 . S
C124 C125 1.390 . S
C124 H129 0.949 . S
C125 C124 1.390 . S
C125 C130 1.399 . S
C126 C122 1.404 . S
C126 H127 0.950 . S
C126 C128 1.375 . S
H127 C126 0.950 . S
C128 C126 1.375 . S
C128 C130 1.382 . S
C128 H132 0.950 . S
H129 C124 0.949 . S
C130 C125 1.399 . S
C130 C128 1.382 . S
C130 H131 0.952 . S
H131 C130 0.952 . S
H132 C128 0.950 . S
H133 C134 0.949 . S
C134 H133 0.949 . S
C134 C135 1.395 . S
C134 C136 1.391 . S
C135 C134 1.395 . S
C135 C138 1.390 . S
C136 C134 1.391 . S
C136 C140 1.387 . S
C136 C141 1.491 . S
H137 C138 0.950 . S
C138 C135 1.390 . S
C138 H137 0.950 . S
C138 C139 1.378 . S
C139 C138 1.378 . S
C139 C140 1.409 . S
C140 C136 1.387 . S
C140 C139 1.409 . S
C140 H142 0.951 . S
C141 C136 1.491 . S
C141 C143 1.382 . S
C141 C145 1.404 . S
H142 C140 0.951 . S
C143 C141 1.382 . S
C143 C144 1.390 . S
C143 H148 0.949 . S
C144 C143 1.390 . S
C144 C149 1.399 . S
C145 C141 1.404 . S
C145 H146 0.950 . S
C145 C147 1.375 . S
H146 C145 0.950 . S
C147 C145 1.375 . S
C147 C149 1.382 . S
C147 H151 0.950 . S
H148 C143 0.949 . S
C149 C144 1.399 . S
C149 C147 1.382 . S
C149 H150 0.952 . S
H150 C149 0.952 . S
H151 C147 0.950 . S
C152 C153 1.443 . S
C152 N156 1.376 . S
C152 C190 1.389 . S
C153 C152 1.443 . S
C153 C154 1.340 . S
C153 H193 0.951 . S
C154 C153 1.340 . S
C154 C155 1.439 . S
C154 H194 0.950 . S
C155 C154 1.439 . S
C155 N156 1.374 . S
C155 C189 1.395 . S
N156 C152 1.376 . S
N156 C155 1.374 . S
N156 Co157 2.008 . S
Co157 N156 2.008 . S
Co157 N158 1.995 . S
Co157 N163 2.008 1_455 S
Co157 N168 1.995 1_455 S
Co157 N173 2.282 . S
Co157 N179 2.282 1_455 S
N158 Co157 1.995 . S
N158 C159 1.376 . S
N158 C162 1.383 1_455 S
C159 N158 1.376 . S
C159 C160 1.446 . S
C159 C189 1.391 . S
C160 C159 1.446 . S
C160 C161 1.339 . S
C160 H195 0.949 . S
C161 C160 1.339 . S
C161 C162 1.439 1_455 S
C161 H196 0.950 1_455 S
C162 N158 1.383 1_655 S
C162 C161 1.439 1_655 S
C162 C191 1.392 . S
N163 Co157 2.008 1_655 S
N163 C164 1.376 . S
N163 C167 1.374 . S
C164 N163 1.376 . S
C164 C165 1.443 . S
C164 C191 1.389 . S
C165 C164 1.443 . S
C165 C166 1.340 . S
C165 H197 0.951 . S
C166 C165 1.340 . S
C166 C167 1.439 . S
C166 H198 0.950 . S
C167 N163 1.374 . S
C167 C166 1.439 . S
C167 C192 1.395 . S
N168 Co157 1.995 1_655 S
N168 C169 1.376 . S
N168 C172 1.383 1_655 S
C169 N168 1.376 . S
C169 C170 1.446 . S
C169 C192 1.391 . S
C170 C169 1.446 . S
C170 C171 1.339 . S
C170 H199 0.949 . S
C171 C170 1.339 . S
C171 C172 1.439 1_655 S
C171 H200 0.950 1_655 S
C172 N168 1.383 1_455 S
C172 C171 1.439 1_455 S
C172 C190 1.392 . S
N173 Co157 2.282 . S
N173 C176 1.332 1_455 S
N173 C178 1.332 . S
C174 C175 1.386 . S
C174 C177 1.388 . S
C175 C174 1.386 . S
C175 C176 1.378 1_455 S
C175 H201 0.950 1_455 S
C176 N173 1.332 1_655 S
C176 C175 1.378 1_655 S
C176 H187 0.956 . S
C177 C174 1.388 . S
C177 C178 1.382 . S
C177 H202 0.950 . S
C178 N173 1.332 . S
C178 C177 1.382 . S
C178 H188 0.948 . S
N179 Co157 2.282 1_655 S
N179 C183 1.332 1_655 S
N179 C184 1.332 . S
C180 C181 1.388 . S
C180 C184 1.382 . S
C180 H203 0.950 . S
C181 C180 1.388 . S
C181 C182 1.386 . S
C182 C181 1.386 . S
C182 C183 1.377 1_655 S
C182 H204 0.950 1_655 S
C183 N179 1.332 1_455 S
C183 C182 1.377 1_455 S
C183 H185 0.958 . S
C184 N179 1.332 . S
C184 C180 1.382 . S
C184 H186 0.948 . S
H185 C183 0.958 . S
H186 C184 0.948 . S
H187 C176 0.956 . S
H188 C178 0.948 . S
C189 C155 1.395 . S
C189 C159 1.391 . S
C190 C152 1.389 . S
C190 C172 1.392 . S
C191 C162 1.392 . S
C191 C164 1.389 . S
C192 C167 1.395 . S
C192 C169 1.391 . S
H193 C153 0.951 . S
H194 C154 0.950 . S
H195 C160 0.949 . S
H196 C161 0.950 1_655 S
H197 C165 0.951 . S
H198 C166 0.950 . S
H199 C170 0.949 . S
H200 C171 0.950 1_455 S
H201 C175 0.950 1_655 S
H202 C177 0.950 . S
H203 C180 0.950 . S
H204 C182 0.950 1_455 S
C205 C206 1.443 . S
C205 N209 1.376 . S
C205 C243 1.389 . S
C206 C205 1.443 . S
C206 C207 1.340 . S
C206 H246 0.951 . S
C207 C206 1.340 . S
C207 C208 1.439 . S
C207 H247 0.950 . S
C208 C207 1.439 . S
C208 N209 1.374 . S
C208 C242 1.395 . S
N209 C205 1.376 . S
N209 C208 1.374 . S
N209 Co210 2.008 . S
Co210 N209 2.008 . S
Co210 N211 1.995 . S
Co210 N216 2.008 1_455 S
Co210 N221 1.995 1_455 S
Co210 N226 2.282 . S
Co210 N232 2.282 1_455 S
N211 Co210 1.995 . S
N211 C212 1.376 . S
N211 C215 1.383 1_455 S
C212 N211 1.376 . S
C212 C213 1.446 . S
C212 C242 1.391 . S
C213 C212 1.446 . S
C213 C214 1.339 . S
C213 H248 0.949 1_556 S
C214 C213 1.339 . S
C214 C215 1.439 1_455 S
C214 H249 0.950 1_455 S
C215 N211 1.383 1_655 S
C215 C214 1.439 1_655 S
C215 C244 1.392 . S
N216 Co210 2.008 1_655 S
N216 C217 1.376 . S
N216 C220 1.374 . S
C217 N216 1.376 . S
C217 C218 1.443 . S
C217 C244 1.389 . S
C218 C217 1.443 . S
C218 C219 1.340 . S
C218 H250 0.951 . S
C219 C218 1.340 . S
C219 C220 1.439 . S
C219 H251 0.950 . S
C220 N216 1.374 . S
C220 C219 1.439 . S
C220 C245 1.395 . S
N221 Co210 1.995 1_655 S
N221 C222 1.376 . S
N221 C225 1.383 1_655 S
C222 N221 1.376 . S
C222 C223 1.446 . S
C222 C245 1.391 . S
C223 C222 1.446 . S
C223 C224 1.339 1_655 S
C223 H252 0.949 . S
C224 C223 1.339 1_455 S
C224 C225 1.439 . S
C224 H253 0.950 . S
C225 N221 1.383 1_455 S
C225 C224 1.439 . S
C225 C243 1.392 . S
N226 Co210 2.282 . S
N226 C229 1.332 . S
N226 C231 1.332 . S
C227 C228 1.386 . S
C227 C230 1.388 . S
C228 C227 1.386 . S
C228 C229 1.382 . S
C228 H254 0.950 1_455 S
C229 N226 1.332 . S
C229 C228 1.382 . S
C229 H240 0.952 1_455 S
C230 C227 1.388 . S
C230 C231 1.382 . S
C230 H255 0.950 . S
C231 N226 1.332 . S
C231 C230 1.382 . S
C231 H241 0.948 . S
N232 Co210 2.282 1_655 S
N232 C236 1.332 1_655 S
N232 C237 1.332 . S
C233 C234 1.388 . S
C233 C237 1.382 . S
C233 H256 0.950 . S
C234 C233 1.388 . S
C234 C235 1.386 1_655 S
C235 C234 1.386 1_455 S
C235 C236 1.382 . S
C235 H257 0.950 . S
C236 N232 1.332 1_455 S
C236 C235 1.382 . S
C236 H238 0.952 . S
C237 N232 1.332 . S
C237 C233 1.382 . S
C237 H239 0.948 . S
H238 C236 0.952 . S
H239 C237 0.948 . S
H240 C229 0.952 1_655 S
H241 C231 0.948 . S
C242 C208 1.395 . S
C242 C212 1.391 . S
C243 C205 1.389 . S
C243 C225 1.392 . S
C244 C215 1.392 . S
C244 C217 1.389 . S
C245 C220 1.395 . S
C245 C222 1.391 . S
H246 C206 0.951 . S
H247 C207 0.950 . S
H248 C213 0.949 1_554 S
H249 C214 0.950 1_655 S
H250 C218 0.951 . S
H251 C219 0.950 . S
H252 C223 0.949 . S
H253 C224 0.950 . S
H254 C228 0.950 1_655 S
H255 C230 0.950 . S
H256 C233 0.950 . S
H257 C235 0.950 . S
C258 C259 1.443 . S
C258 N262 1.376 1_565 S
C258 C296 1.389 . S
C259 C258 1.443 . S
C259 C260 1.340 1_565 S
C259 H299 0.951 . S
C260 C259 1.340 1_545 S
C260 C261 1.439 . S
C260 H300 0.950 . S
C261 C260 1.439 . S
C261 N262 1.374 . S
C261 C295 1.395 . S
N262 C258 1.376 1_545 S
N262 C261 1.374 . S
N262 Co263 2.008 . S
Co263 N262 2.008 . S
Co263 N264 1.995 . S
Co263 N269 2.008 . S
Co263 N274 1.995 1_545 S
Co263 N279 2.282 . S
Co263 N285 2.282 1_545 S
N264 Co263 1.995 . S
N264 C265 1.376 . S
N264 C268 1.383 . S
C265 N264 1.376 . S
C265 C266 1.446 . S
C265 C295 1.391 . S
C266 C265 1.446 . S
C266 C267 1.339 . S
C266 H301 0.949 . S
C267 C266 1.339 . S
C267 C268 1.439 . S
C267 H302 0.950 . S
C268 N264 1.383 . S
C268 C267 1.439 . S
C268 C297 1.392 . S
N269 Co263 2.008 . S
N269 C270 1.376 . S
N269 C273 1.374 . S
C270 N269 1.376 . S
C270 C271 1.443 . S
C270 C297 1.389 . S
C271 C270 1.443 . S
C271 C272 1.340 . S
C271 H303 0.951 . S
C272 C271 1.340 . S
C272 C273 1.439 . S
C272 H304 0.950 1_455 S
C273 N269 1.374 . S
C273 C272 1.439 . S
C273 C298 1.395 1_545 S
N274 Co263 1.995 1_565 S
N274 C275 1.376 . S
N274 C278 1.383 . S
C275 N274 1.376 . S
C275 C276 1.446 . S
C275 C298 1.391 . S
C276 C275 1.446 . S
C276 C277 1.339 . S
C276 H305 0.949 . S
C277 C276 1.339 . S
C277 C278 1.439 . S
C277 H306 0.950 . S
C278 N274 1.383 . S
C278 C277 1.439 . S
C278 C296 1.392 . S
N279 Co263 2.282 . S
N279 C282 1.332 . S
N279 C284 1.332 . S
C280 C281 1.386 . S
C280 C283 1.388 . S
C281 C280 1.386 . S
C281 C282 1.382 . S
C281 H307 0.950 . S
C282 N279 1.332 . S
C282 C281 1.382 . S
C282 H293 0.952 . S
C283 C280 1.388 . S
C283 C284 1.382 . S
C283 H308 0.950 . S
C284 N279 1.332 . S
C284 C283 1.382 . S
C284 H294 0.948 . S
N285 Co263 2.282 1_565 S
N285 C289 1.332 1_565 S
N285 C290 1.332 . S
C286 C287 1.388 . S
C286 C290 1.382 . S
C286 H309 0.950 . S
C287 C286 1.388 . S
C287 C288 1.386 . S
C288 C287 1.386 . S
C288 C289 1.382 1_565 S
C288 H310 0.950 . S
C289 N285 1.332 1_545 S
C289 C288 1.382 1_545 S
C289 H291 0.952 . S
C290 N285 1.332 . S
C290 C286 1.382 . S
C290 H292 0.948 . S
H291 C289 0.952 . S
H292 C290 0.948 . S
H293 C282 0.952 . S
H294 C284 0.948 . S
C295 C261 1.395 . S
C295 C265 1.391 . S
C296 C258 1.389 . S
C296 C278 1.392 . S
C297 C268 1.392 . S
C297 C270 1.389 . S
C298 C273 1.395 1_565 S
C298 C275 1.391 . S
H299 C259 0.951 . S
H300 C260 0.950 . S
H301 C266 0.949 . S
H302 C267 0.950 . S
H303 C271 0.951 . S
H304 C272 0.950 1_655 S
H305 C276 0.949 . S
H306 C277 0.950 . S
H307 C281 0.950 . S
H308 C283 0.950 . S
H309 C286 0.950 . S
H310 C288 0.950 . S
C311 C312 1.443 . S
C311 N315 1.376 . S
C311 C349 1.389 . S
C312 C311 1.443 . S
C312 C313 1.340 . S
C312 H352 0.951 . S
C313 C312 1.340 . S
C313 C314 1.439 . S
C313 H353 0.950 . S
C314 C313 1.439 . S
C314 N315 1.374 . S
C314 C348 1.395 . S
N315 C311 1.376 . S
N315 C314 1.374 . S
N315 Co316 2.008 . S
Co316 N315 2.008 . S
Co316 N317 1.995 . S
Co316 N322 2.008 . S
Co316 N327 1.995 . S
Co316 N332 2.282 1_554 S
Co316 N338 2.282 . S
N317 Co316 1.995 . S
N317 C318 1.376 . S
N317 C321 1.383 1_554 S
C318 N317 1.376 . S
C318 C319 1.446 1_554 S
C318 C348 1.391 . S
C319 C318 1.446 1_556 S
C319 C320 1.339 . S
C319 H354 0.949 . S
C320 C319 1.339 . S
C320 C321 1.439 . S
C320 H355 0.950 . S
C321 N317 1.383 1_556 S
C321 C320 1.439 . S
C321 C350 1.392 . S
N322 Co316 2.008 . S
N322 C323 1.376 1_554 S
N322 C326 1.374 . S
C323 N322 1.376 1_556 S
C323 C324 1.443 . S
C323 C350 1.389 . S
C324 C323 1.443 . S
C324 C325 1.340 . S
C324 H356 0.951 . S
C325 C324 1.340 . S
C325 C326 1.439 1_556 S
C325 H357 0.950 . S
C326 N322 1.374 . S
C326 C325 1.439 1_554 S
C326 C351 1.395 . S
N327 Co316 1.995 . S
N327 C328 1.376 . S
N327 C331 1.383 . S
C328 N327 1.376 . S
C328 C329 1.446 . S
C328 C351 1.391 . S
C329 C328 1.446 . S
C329 C330 1.339 . S
C329 H358 0.949 . S
C330 C329 1.339 . S
C330 C331 1.439 . S
C330 H359 0.950 . S
C331 N327 1.383 . S
C331 C330 1.439 . S
C331 C349 1.392 . S
N332 Co316 2.282 1_556 S
N332 C335 1.332 . S
N332 C337 1.332 . S
C333 C334 1.386 . S
C333 C336 1.388 . S
C334 C333 1.386 . S
C334 C335 1.382 . S
C334 H360 0.950 . S
C335 N332 1.332 . S
C335 C334 1.382 . S
C335 H346 0.952 . S
C336 C333 1.388 . S
C336 C337 1.382 . S
C336 H361 0.950 . S
C337 N332 1.332 . S
C337 C336 1.382 . S
C337 H347 0.948 . S
N338 Co316 2.282 . S
N338 C342 1.332 . S
N338 C343 1.332 . S
C339 C340 1.388 . S
C339 C343 1.382 . S
C339 H362 0.950 . S
C340 C339 1.388 . S
C340 C341 1.386 . S
C341 C340 1.386 . S
C341 C342 1.382 . S
C341 H363 0.950 . S
C342 N338 1.332 . S
C342 C341 1.382 . S
C342 H344 0.952 . S
C343 N338 1.332 . S
C343 C339 1.382 . S
C343 H345 0.948 . S
H344 C342 0.952 . S
H345 C343 0.948 . S
H346 C335 0.952 . S
H347 C337 0.948 . S
C348 C314 1.395 . S
C348 C318 1.391 . S
C349 C311 1.389 . S
C349 C331 1.392 . S
C350 C321 1.392 . S
C350 C323 1.389 . S
C351 C326 1.395 . S
C351 C328 1.391 . S
H352 C312 0.951 . S
H353 C313 0.950 . S
H354 C319 0.949 . S
H355 C320 0.950 . S
H356 C324 0.951 . S
H357 C325 0.950 . S
H358 C329 0.949 . S
H359 C330 0.950 . S
H360 C334 0.950 . S
H361 C336 0.950 . S
H362 C339 0.950 . S
H363 C341 0.950 . S
C364 C365 1.443 . S
C364 N368 1.376 . S
C364 C402 1.389 . S
C365 C364 1.443 . S
C365 C366 1.340 . S
C365 H405 0.951 . S
C366 C365 1.340 . S
C366 C367 1.439 . S
C366 H406 0.950 . S
C367 C366 1.439 . S
C367 N368 1.374 . S
C367 C401 1.395 . S
N368 C364 1.376 . S
N368 C367 1.374 . S
N368 Co369 2.008 1_455 S
Co369 N368 2.008 1_655 S
Co369 N370 1.995 1_655 S
Co369 N375 2.008 . S
Co369 N380 1.995 . S
Co369 N385 2.282 . S
Co369 N391 2.282 1_655 S
N370 Co369 1.995 1_455 S
N370 C371 1.376 . S
N370 C374 1.383 . S
C371 N370 1.376 . S
C371 C372 1.446 . S
C371 C401 1.391 . S
C372 C371 1.446 . S
C372 C373 1.339 . S
C372 H407 0.949 . S
C373 C372 1.339 . S
C373 C374 1.439 . S
C373 H408 0.950 . S
C374 N370 1.383 . S
C374 C373 1.439 . S
C374 C403 1.392 1_455 S
N375 Co369 2.008 . S
N375 C376 1.376 . S
N375 C379 1.374 . S
C376 N375 1.376 . S
C376 C377 1.443 . S
C376 C403 1.389 . S
C377 C376 1.443 . S
C377 C378 1.340 . S
C377 H409 0.951 . S
C378 C377 1.340 . S
C378 C379 1.439 . S
C378 H410 0.950 . S
C379 N375 1.374 . S
C379 C378 1.439 . S
C379 C404 1.395 . S
N380 Co369 1.995 . S
N380 C381 1.376 . S
N380 C384 1.383 . S
C381 N380 1.376 . S
C381 C382 1.446 . S
C381 C404 1.391 . S
C382 C381 1.446 . S
C382 C383 1.339 . S
C382 H411 0.949 . S
C383 C382 1.339 . S
C383 C384 1.439 . S
C383 H412 0.950 . S
C384 N380 1.383 . S
C384 C383 1.439 . S
C384 C402 1.392 1_655 S
N385 Co369 2.282 . S
N385 C388 1.332 . S
N385 C390 1.332 1_655 S
C386 C387 1.386 . S
C386 C389 1.388 1_655 S
C387 C386 1.386 . S
C387 C388 1.382 . S
C387 H413 0.950 . S
C388 N385 1.332 . S
C388 C387 1.382 . S
C388 H399 0.952 . S
C389 C386 1.388 1_455 S
C389 C390 1.382 . S
C389 H414 0.950 . S
C390 N385 1.332 1_455 S
C390 C389 1.382 . S
C390 H400 0.948 . S
N391 Co369 2.282 1_455 S
N391 C395 1.332 . S
N391 C396 1.332 1_455 S
C392 C393 1.388 1_655 S
C392 C396 1.382 . S
C392 H415 0.950 . S
C393 C392 1.388 1_455 S
C393 C394 1.386 . S
C394 C393 1.386 . S
C394 C395 1.382 . S
C394 H416 0.950 . S
C395 N391 1.332 . S
C395 C394 1.382 . S
C395 H397 0.952 . S
C396 N391 1.332 1_655 S
C396 C392 1.382 . S
C396 H398 0.948 . S
H397 C395 0.952 . S
H398 C396 0.948 . S
H399 C388 0.952 . S
H400 C390 0.948 . S
C401 C367 1.395 . S
C401 C371 1.391 . S
C402 C364 1.389 . S
C402 C384 1.392 1_455 S
C403 C374 1.392 1_655 S
C403 C376 1.389 . S
C404 C379 1.395 . S
C404 C381 1.391 . S
H405 C365 0.951 . S
H406 C366 0.950 . S
H407 C372 0.949 . S
H408 C373 0.950 . S
H409 C377 0.951 . S
H410 C378 0.950 . S
H411 C382 0.949 . S
H412 C383 0.950 . S
H413 C387 0.950 . S
H414 C389 0.950 . S
H415 C392 0.950 . S
H416 C394 0.950 . S
C417 C418 1.443 . S
C417 N421 1.376 . S
C417 C455 1.389 . S
C418 C417 1.443 . S
C418 C419 1.340 . S
C418 H458 0.951 . S
C419 C418 1.340 . S
C419 C420 1.439 . S
C419 H459 0.950 . S
C420 C419 1.439 . S
C420 N421 1.374 . S
C420 C454 1.395 . S
N421 C417 1.376 . S
N421 C420 1.374 . S
N421 Co422 2.008 . S
Co422 N421 2.008 . S
Co422 N423 1.995 . S
Co422 N428 2.008 . S
Co422 N433 1.995 . S
Co422 N438 2.282 . S
Co422 N444 2.282 . S
N423 Co422 1.995 . S
N423 C424 1.376 . S
N423 C427 1.383 . S
C424 N423 1.376 . S
C424 C425 1.446 . S
C424 C454 1.391 . S
C425 C424 1.446 . S
C425 C426 1.339 . S
C425 H460 0.949 . S
C426 C425 1.339 . S
C426 C427 1.439 . S
C426 H461 0.950 . S
C427 N423 1.383 . S
C427 C426 1.439 . S
C427 C456 1.392 . S
N428 Co422 2.008 . S
N428 C429 1.376 . S
N428 C432 1.374 . S
C429 N428 1.376 . S
C429 C430 1.443 . S
C429 C456 1.389 . S
C430 C429 1.443 . S
C430 C431 1.340 . S
C430 H462 0.951 . S
C431 C430 1.340 . S
C431 C432 1.439 . S
C431 H463 0.950 . S
C432 N428 1.374 . S
C432 C431 1.439 . S
C432 C457 1.395 . S
N433 Co422 1.995 . S
N433 C434 1.376 . S
N433 C437 1.383 . S
C434 N433 1.376 . S
C434 C435 1.446 . S
C434 C457 1.391 . S
C435 C434 1.446 . S
C435 C436 1.339 . S
C435 H464 0.949 . S
C436 C435 1.339 . S
C436 C437 1.439 . S
C436 H465 0.950 . S
C437 N433 1.383 . S
C437 C436 1.439 . S
C437 C455 1.392 . S
N438 Co422 2.282 . S
N438 C441 1.332 . S
N438 C443 1.332 1_554 S
C439 C440 1.386 . S
C439 C442 1.388 . S
C440 C439 1.386 . S
C440 C441 1.382 1_556 S
C440 H466 0.950 . S
C441 N438 1.332 . S
C441 C440 1.382 1_554 S
C441 H452 0.952 . S
C442 C439 1.388 . S
C442 C443 1.382 . S
C442 H467 0.950 . S
C443 N438 1.332 1_556 S
C443 C442 1.382 . S
C443 H453 0.948 1_556 S
N444 Co422 2.282 . S
N444 C448 1.332 . S
N444 C449 1.332 . S
C445 C446 1.388 . S
C445 C449 1.382 . S
C445 H468 0.950 . S
C446 C445 1.388 . S
C446 C447 1.386 . S
C447 C446 1.386 . S
C447 C448 1.382 . S
C447 H469 0.950 . S
C448 N444 1.332 . S
C448 C447 1.382 . S
C448 H450 0.952 . S
C449 N444 1.332 . S
C449 C445 1.382 . S
C449 H451 0.948 . S
H450 C448 0.952 . S
H451 C449 0.948 . S
H452 C441 0.952 . S
H453 C443 0.948 1_554 S
C454 C420 1.395 . S
C454 C424 1.391 . S
C455 C417 1.389 . S
C455 C437 1.392 . S
C456 C427 1.392 . S
C456 C429 1.389 . S
C457 C432 1.395 . S
C457 C434 1.391 . S
H458 C418 0.951 . S
H459 C419 0.950 . S
H460 C425 0.949 . S
H461 C426 0.950 . S
H462 C430 0.951 . S
H463 C431 0.950 . S
H464 C435 0.949 . S
H465 C436 0.950 . S
H466 C440 0.950 . S
H467 C442 0.950 . S
H468 C445 0.950 . S
H469 C447 0.950 . S
C174 C11 1.370 . S
C243 C25 1.922 . S
C181 C40 1.421 . S
C244 C59 1.587 . S
C297 C6 2.085 . S
C333 C21 1.856 . S
C49 C393 1.896 1_655 S
C456 C68 1.552 . S
C296 C30 1.609 . S
C44 C340 1.881 . S
C386 C63 1.963 . S
C455 C2 2.049 . S
C78 C234 1.876 . S
C191 C97 1.710 . S
C120 C227 1.661 . S
C139 C190 1.818 . S
C402 C87 1.484 . S
C446 C101 1.885 . S
C280 C125 1.627 . S
C144 C349 2.145 . S
C403 C106 2.055 . S
C439 C116 1.717 . S
C287 C135 1.997 . S
C82 C350 1.989 . S
