# Generated by pormake.
# Topology pyr, (3,6)-cn, num edge types: 1
# Building blocks:
#     Node 0, Type 0, BuildingBlock: VETTIZ_charged_linker_0, # of connection points: 3
#     Node 1, Type 0, BuildingBlock: VETTIZ_charged_linker_0, # of connection points: 3
#     Node 2, Type 0, BuildingBlock: VETTIZ_charged_linker_0, # of connection points: 3
#     Node 3, Type 0, BuildingBlock: VETTIZ_charged_linker_0, # of connection points: 3
#     Node 4, Type 0, BuildingBlock: VETTIZ_charged_linker_0, # of connection points: 3
#     Node 5, Type 0, BuildingBlock: VETTIZ_charged_linker_0, # of connection points: 3
#     Node 6, Type 0, BuildingBlock: VETTIZ_charged_linker_0, # of connection points: 3
#     Node 7, Type 0, BuildingBlock: VETTIZ_charged_linker_0, # of connection points: 3
#     Node 8, Type 1, BuildingBlock: INOVEN_clean_sbu_0, # of connection points: 6
#     Node 9, Type 1, BuildingBlock: INOVEN_clean_sbu_0, # of connection points: 6
#     Node 10, Type 1, BuildingBlock: INOVEN_clean_sbu_0, # of connection points: 6
#     Node 11, Type 1, BuildingBlock: INOVEN_clean_sbu_0, # of connection points: 6
#     Edge 12, Type (0, 1), BuildingBlock: ZUJKAS_clean_linker_0, # of connection points: 2
#     Edge 13, Type (0, 1), BuildingBlock: ZUJKAS_clean_linker_0, # of connection points: 2
#     Edge 14, Type (0, 1), BuildingBlock: ZUJKAS_clean_linker_0, # of connection points: 2
#     Edge 15, Type (0, 1), BuildingBlock: ZUJKAS_clean_linker_0, # of connection points: 2
#     Edge 16, Type (0, 1), BuildingBlock: ZUJKAS_clean_linker_0, # of connection points: 2
#     Edge 17, Type (0, 1), BuildingBlock: ZUJKAS_clean_linker_0, # of connection points: 2
#     Edge 18, Type (0, 1), BuildingBlock: ZUJKAS_clean_linker_0, # of connection points: 2
#     Edge 19, Type (0, 1), BuildingBlock: ZUJKAS_clean_linker_0, # of connection points: 2
#     Edge 20, Type (0, 1), BuildingBlock: ZUJKAS_clean_linker_0, # of connection points: 2
#     Edge 21, Type (0, 1), BuildingBlock: ZUJKAS_clean_linker_0, # of connection points: 2
#     Edge 22, Type (0, 1), BuildingBlock: ZUJKAS_clean_linker_0, # of connection points: 2
#     Edge 23, Type (0, 1), BuildingBlock: ZUJKAS_clean_linker_0, # of connection points: 2
#     Edge 24, Type (0, 1), BuildingBlock: ZUJKAS_clean_linker_0, # of connection points: 2
#     Edge 25, Type (0, 1), BuildingBlock: ZUJKAS_clean_linker_0, # of connection points: 2
#     Edge 26, Type (0, 1), BuildingBlock: ZUJKAS_clean_linker_0, # of connection points: 2
#     Edge 27, Type (0, 1), BuildingBlock: ZUJKAS_clean_linker_0, # of connection points: 2
#     Edge 28, Type (0, 1), BuildingBlock: ZUJKAS_clean_linker_0, # of connection points: 2
#     Edge 29, Type (0, 1), BuildingBlock: ZUJKAS_clean_linker_0, # of connection points: 2
#     Edge 30, Type (0, 1), BuildingBlock: ZUJKAS_clean_linker_0, # of connection points: 2
#     Edge 31, Type (0, 1), BuildingBlock: ZUJKAS_clean_linker_0, # of connection points: 2
#     Edge 32, Type (0, 1), BuildingBlock: ZUJKAS_clean_linker_0, # of connection points: 2
#     Edge 33, Type (0, 1), BuildingBlock: ZUJKAS_clean_linker_0, # of connection points: 2
#     Edge 34, Type (0, 1), BuildingBlock: ZUJKAS_clean_linker_0, # of connection points: 2
#     Edge 35, Type (0, 1), BuildingBlock: ZUJKAS_clean_linker_0, # of connection points: 2
# Relax obj value: 0.073
# Max RMSD: 0.121
# Mean RMSD: 0.056
data_MOF--net-pyr--node1-INOVEN_clean_sbu_0--node2-VETTIZ_charged_linker_0--edge1-ZUJKAS_clean_linker_0
_symmetry_space_group_name_H-M    P1
_symmetry_Int_Tables_number       1
_symmetry_cell_setting            triclinic
loop_
_symmetry_equiv_pos_as_xyz
'x, y, z'
_cell_length_a     57.575841
_cell_length_b     60.262335
_cell_length_c     54.74624
_cell_angle_alpha  91.304217
_cell_angle_beta   88.783026
_cell_angle_gamma 98.665288
loop_
_atom_site_label
_atom_site_type_symbol
_atom_site_fract_x
_atom_site_fract_y
_atom_site_fract_z
_atom_type_partial_charge
C0 C 0.26787 0.23822 0.29496 0.0
C1 C 0.25105 0.25015 0.306 0.0
C2 C 0.24845 0.27128 0.29675 0.0
C3 C 0.27578 0.26629 0.26359 0.0
C4 C 0.28008 0.24666 0.27392 0.0
C5 C 0.29763 0.23559 0.25911 0.0
H6 H 0.35982 0.2285 0.1538 0.0
C7 C 0.2887 0.2688 0.23999 0.0
C8 C 0.30192 0.25112 0.23745 0.0
H9 H 0.35844 0.18756 0.2179 0.0
H10 H 0.333 0.21025 0.23876 0.0
H11 H 0.36317 0.27716 0.18315 0.0
H12 H 0.3051 0.23079 0.15495 0.0
H13 H 0.29919 0.25797 0.14972 0.0
H14 H 0.32462 0.2487 0.13531 0.0
H15 H 0.35852 0.27209 0.15105 0.0
H16 H 0.34431 0.29248 0.16788 0.0
C17 C 0.32001 0.23605 0.27452 0.0
C18 C 0.28576 0.21173 0.25138 0.0
C19 C 0.2682 0.32546 0.18014 0.0
C20 C 0.27367 0.32918 0.1553 0.0
C21 C 0.29043 0.31748 0.14372 0.0
C22 C 0.30101 0.30183 0.15653 0.0
C23 C 0.2945 0.29756 0.18109 0.0
C24 C 0.27858 0.30956 0.19254 0.0
C25 C 0.27265 0.30209 0.2182 0.0
C26 C 0.28755 0.28351 0.22032 0.0
C27 C 0.30031 0.28088 0.19854 0.0
C28 C 0.28067 0.32206 0.23595 0.0
C29 C 0.24596 0.29308 0.21951 0.0
C30 C 0.35399 0.22439 0.17231 0.0
C31 C 0.36127 0.20617 0.18418 0.0
C32 C 0.35345 0.20164 0.2084 0.0
C33 C 0.33852 0.21477 0.22048 0.0
C34 C 0.33106 0.23258 0.20824 0.0
C35 C 0.33899 0.23735 0.18467 0.0
C36 C 0.32909 0.25696 0.17461 0.0
C37 C 0.31437 0.26343 0.19625 0.0
C38 C 0.31536 0.24885 0.21573 0.0
C39 C 0.34975 0.27572 0.16865 0.0
C40 C 0.3138 0.24839 0.15238 0.0
H41 H 0.25737 0.29523 0.26908 0.0
H42 H 0.27052 0.22203 0.30161 0.0
H43 H 0.26753 0.21212 0.24524 0.0
H44 H 0.29477 0.20448 0.23586 0.0
H45 H 0.28478 0.20004 0.26689 0.0
H46 H 0.32177 0.24999 0.28836 0.0
H47 H 0.31967 0.22015 0.28447 0.0
H48 H 0.33635 0.23923 0.26329 0.0
H49 H 0.25508 0.33385 0.18946 0.0
H50 H 0.29506 0.32019 0.12462 0.0
H51 H 0.31342 0.29326 0.14665 0.0
H52 H 0.29593 0.33348 0.22826 0.0
H53 H 0.26634 0.33219 0.23969 0.0
H54 H 0.28696 0.31658 0.25347 0.0
H55 H 0.24039 0.28302 0.20277 0.0
H56 H 0.24081 0.28168 0.23475 0.0
H57 H 0.23547 0.3071 0.22096 0.0
H58 H 0.23625 0.28122 0.30535 0.0
C59 C 0.26074 0.27942 0.27568 0.0
C60 C 0.22085 0.8643 0.60205 0.0
C61 C 0.21366 0.88048 0.61828 0.0
C62 C 0.22475 0.88447 0.641 0.0
C63 C 0.25039 0.85717 0.6306 0.0
C64 C 0.23916 0.85289 0.60857 0.0
C65 C 0.24937 0.83562 0.59316 0.0
H66 H 0.3286 0.76372 0.58038 0.0
C67 C 0.26927 0.84316 0.63135 0.0
C68 C 0.26872 0.83042 0.60952 0.0
H69 H 0.27659 0.77583 0.5286 0.0
H70 H 0.26348 0.8036 0.55633 0.0
H71 H 0.3459 0.81372 0.59187 0.0
H72 H 0.29626 0.76569 0.63027 0.0
H73 H 0.31534 0.78057 0.65177 0.0
H74 H 0.32717 0.7643 0.62788 0.0
H75 H 0.35531 0.79399 0.6121 0.0
H76 H 0.34895 0.82101 0.62294 0.0
C77 C 0.2593 0.84673 0.5691 0.0
C78 C 0.22999 0.81508 0.58956 0.0
C79 C 0.32393 0.85051 0.70353 0.0
C80 C 0.34404 0.84094 0.70864 0.0
C81 C 0.35128 0.82491 0.69218 0.0
C82 C 0.33868 0.81858 0.67086 0.0
C83 C 0.31879 0.82856 0.66582 0.0
C84 C 0.31173 0.84422 0.68206 0.0
C85 C 0.2908 0.85377 0.67329 0.0
C86 C 0.28651 0.84132 0.64903 0.0
C87 C 0.30284 0.82652 0.64483 0.0
C88 C 0.29818 0.87937 0.66996 0.0
C89 C 0.27021 0.84743 0.69175 0.0
C90 C 0.31416 0.77216 0.57521 0.0
C91 C 0.30324 0.76743 0.55261 0.0
C92 C 0.28506 0.7792 0.54606 0.0
C93 C 0.27751 0.79523 0.56219 0.0
C94 C 0.28853 0.79967 0.58488 0.0
C95 C 0.3067 0.78835 0.5909 0.0
C96 C 0.31729 0.79598 0.61506 0.0
C97 C 0.30203 0.81332 0.623 0.0
C98 C 0.28515 0.81535 0.60535 0.0
C99 C 0.34325 0.80661 0.61048 0.0
C100 C 0.31407 0.77564 0.63225 0.0
H101 H 0.25086 0.8768 0.66473 0.0
H102 H 0.21289 0.86102 0.58433 0.0
H103 H 0.21943 0.81161 0.60669 0.0
H104 H 0.23708 0.79942 0.58517 0.0
H105 H 0.21777 0.8181 0.57498 0.0
H106 H 0.26637 0.86477 0.57226 0.0
H107 H 0.24546 0.84579 0.55513 0.0
H108 H 0.27431 0.83928 0.56137 0.0
H109 H 0.3182 0.86317 0.71563 0.0
H110 H 0.36669 0.81728 0.69584 0.0
H111 H 0.34504 0.8063 0.65904 0.0
H112 H 0.31673 0.88316 0.66331 0.0
H113 H 0.29676 0.88873 0.68751 0.0
H114 H 0.28791 0.88639 0.65605 0.0
H115 H 0.27074 0.83061 0.6995 0.0
H116 H 0.25279 0.846 0.68326 0.0
H117 H 0.27104 0.85975 0.70723 0.0
H118 H 0.2193 0.89662 0.65396 0.0
C119 C 0.24302 0.87288 0.64726 0.0
C120 C 0.63701 0.28116 0.8869 0.0
C121 C 0.61583 0.2681 0.87931 0.0
C122 C 0.6038 0.27638 0.85997 0.0
C123 C 0.63377 0.30962 0.85642 0.0
C124 C 0.64548 0.30163 0.87541 0.0
C125 C 0.66746 0.31739 0.88188 0.0
H126 H 0.74383 0.41325 0.86326 0.0
C127 C 0.64747 0.33159 0.84854 0.0
C128 C 0.66724 0.33609 0.86366 0.0
H129 H 0.74661 0.36254 0.91738 0.0
H130 H 0.71087 0.34154 0.90231 0.0
H131 H 0.68728 0.41412 0.86951 0.0
H132 H 0.72711 0.37851 0.81858 0.0
H133 H 0.70515 0.38884 0.80232 0.0
H134 H 0.72745 0.4083 0.8174 0.0
H135 H 0.70535 0.42806 0.84565 0.0
H136 H 0.67539 0.41542 0.84036 0.0
C137 C 0.66465 0.32585 0.90858 0.0
C138 C 0.68872 0.30473 0.87737 0.0
C139 C 0.62055 0.37563 0.77715 0.0
C140 C 0.63012 0.39605 0.76581 0.0
C141 C 0.65109 0.40796 0.7755 0.0
C142 C 0.66234 0.3999 0.79532 0.0
C143 C 0.6528 0.37951 0.80614 0.0
C144 C 0.63217 0.3677 0.79711 0.0
C145 C 0.62471 0.34628 0.81115 0.0
C146 C 0.64422 0.34719 0.82989 0.0
C147 C 0.66069 0.36685 0.82684 0.0
C148 C 0.60062 0.34769 0.82358 0.0
C149 C 0.62453 0.32613 0.79317 0.0
C150 C 0.73669 0.39771 0.872 0.0
C151 C 0.74864 0.38964 0.89155 0.0
C152 C 0.73844 0.36914 0.90205 0.0
C153 C 0.7174 0.35693 0.89334 0.0
C154 C 0.70589 0.36503 0.87375 0.0
C155 C 0.71551 0.38516 0.86343 0.0
C156 C 0.70067 0.39108 0.84273 0.0
C157 C 0.68065 0.37127 0.84239 0.0
C158 C 0.68385 0.35602 0.86065 0.0
C159 C 0.69174 0.41341 0.84966 0.0
C160 C 0.71577 0.39193 0.81893 0.0
H161 H 0.60257 0.30198 0.83396 0.0
H162 H 0.6467 0.27579 0.90185 0.0
H163 H 0.68606 0.2936 0.86084 0.0
H164 H 0.70528 0.31605 0.87366 0.0
H165 H 0.69119 0.29405 0.89309 0.0
H166 H 0.64601 0.32751 0.91294 0.0
H167 H 0.67019 0.31404 0.92179 0.0
H168 H 0.67446 0.3428 0.91204 0.0
H169 H 0.60458 0.36581 0.77041 0.0
H170 H 0.65881 0.42388 0.76793 0.0
H171 H 0.67816 0.40998 0.80151 0.0
H172 H 0.60017 0.3648 0.83148 0.0
H173 H 0.58621 0.34409 0.81023 0.0
H174 H 0.59679 0.33619 0.83902 0.0
H175 H 0.64036 0.32858 0.78096 0.0
H176 H 0.62505 0.31018 0.80248 0.0
H177 H 0.60878 0.32419 0.78149 0.0
H178 H 0.58764 0.26683 0.85335 0.0
C179 C 0.6126 0.29685 0.84856 0.0
C180 C 0.89545 0.75321 0.3749 0.0
C181 C 0.88729 0.76438 0.39567 0.0
C182 C 0.86635 0.75438 0.4074 0.0
C183 C 0.8623 0.72293 0.37838 0.0
C184 C 0.88278 0.73253 0.3667 0.0
C185 C 0.88911 0.71806 0.34535 0.0
H186 H 0.86191 0.62393 0.27358 0.0
C187 C 0.85325 0.70149 0.36545 0.0
C188 C 0.86891 0.69848 0.34597 0.0
H189 H 0.92338 0.67478 0.26814 0.0
H190 H 0.90925 0.69499 0.30248 0.0
H191 H 0.86304 0.62084 0.33266 0.0
H192 H 0.82446 0.65744 0.28505 0.0
H193 H 0.80519 0.64642 0.30858 0.0
H194 H 0.81786 0.62754 0.28799 0.0
H195 H 0.83965 0.60723 0.31395 0.0
H196 H 0.83398 0.61851 0.34389 0.0
C197 C 0.91296 0.71042 0.35062 0.0
C198 C 0.88914 0.73174 0.32178 0.0
C199 C 0.77717 0.65441 0.39569 0.0
C200 C 0.7639 0.63405 0.3875 0.0
C201 C 0.77212 0.62334 0.36648 0.0
C202 C 0.79295 0.63244 0.35414 0.0
C203 C 0.806 0.65265 0.36267 0.0
C204 C 0.79794 0.66334 0.38306 0.0
C205 C 0.81386 0.68485 0.38931 0.0
C206 C 0.83288 0.68525 0.36948 0.0
C207 C 0.82825 0.66629 0.35391 0.0
C208 C 0.82375 0.68257 0.41509 0.0
C209 C 0.79959 0.70453 0.38699 0.0
C210 C 0.87257 0.63927 0.27981 0.0
C211 C 0.89389 0.64759 0.26762 0.0
C212 C 0.90672 0.66796 0.27654 0.0
C213 C 0.89857 0.67968 0.29676 0.0
C214 C 0.87732 0.67108 0.30864 0.0
C215 C 0.86477 0.65111 0.30013 0.0
C216 C 0.84275 0.64419 0.31522 0.0
C217 C 0.84411 0.6632 0.33416 0.0
C218 C 0.86439 0.67909 0.33023 0.0
C219 C 0.8447 0.62143 0.327 0.0
C220 C 0.82133 0.64366 0.29846 0.0
H221 H 0.83817 0.72741 0.40882 0.0
H222 H 0.91153 0.76019 0.36549 0.0
H223 H 0.87384 0.74104 0.32188 0.0
H224 H 0.88747 0.72111 0.30506 0.0
H225 H 0.90537 0.74423 0.32021 0.0
H226 H 0.91434 0.70695 0.37037 0.0
H227 H 0.92786 0.72359 0.34564 0.0
H228 H 0.91526 0.69456 0.34105 0.0
H229 H 0.77174 0.66316 0.41182 0.0
H230 H 0.76226 0.60795 0.35926 0.0
H231 H 0.79805 0.62337 0.33831 0.0
H232 H 0.8272 0.66514 0.41792 0.0
H233 H 0.81114 0.68653 0.42959 0.0
H234 H 0.84085 0.69324 0.41795 0.0
H235 H 0.78685 0.70122 0.37185 0.0
H236 H 0.81066 0.72051 0.38228 0.0
H237 H 0.78945 0.70702 0.40406 0.0
H238 H 0.85931 0.76258 0.42309 0.0
C239 C 0.85393 0.73391 0.39895 0.0
C240 C 0.75251 0.7394 0.8678 0.0
C241 C 0.76915 0.72718 0.85681 0.0
C242 C 0.772 0.72729 0.83117 0.0
C243 C 0.74468 0.75383 0.82824 0.0
C244 C 0.74039 0.75252 0.85312 0.0
C245 C 0.72245 0.76706 0.86149 0.0
H246 H 0.6572 0.84792 0.8345 0.0
C247 C 0.73115 0.77043 0.81843 0.0
C248 C 0.71767 0.778 0.83767 0.0
H249 H 0.66063 0.81552 0.90372 0.0
H250 H 0.68657 0.7914 0.88558 0.0
H251 H 0.65413 0.80268 0.80011 0.0
H252 H 0.7105 0.85341 0.82314 0.0
H253 H 0.7176 0.84593 0.79312 0.0
H254 H 0.6912 0.85806 0.79912 0.0
H255 H 0.65807 0.83098 0.78945 0.0
H256 H 0.67252 0.8097 0.77447 0.0
C257 C 0.70046 0.7516 0.87127 0.0
C258 C 0.73404 0.78445 0.88049 0.0
C259 C 0.75107 0.79959 0.73328 0.0
C260 C 0.7447 0.81768 0.72054 0.0
C261 C 0.72627 0.82849 0.72998 0.0
C262 C 0.71535 0.82225 0.75245 0.0
C263 C 0.72315 0.80522 0.76581 0.0
C264 C 0.74027 0.79379 0.75584 0.0
C265 C 0.74705 0.77676 0.77291 0.0
C266 C 0.73165 0.78031 0.7951 0.0
C267 C 0.71779 0.79703 0.79088 0.0
C268 C 0.74033 0.75308 0.76108 0.0
C269 C 0.77358 0.78328 0.7783 0.0
C270 C 0.66356 0.83568 0.84582 0.0
C271 C 0.65694 0.83376 0.87063 0.0
C272 C 0.66532 0.81727 0.88453 0.0
C273 C 0.68049 0.80337 0.874 0.0
C274 C 0.68742 0.80597 0.84932 0.0
C275 C 0.6787 0.82175 0.83563 0.0
C276 C 0.68813 0.82254 0.80983 0.0
C277 C 0.70363 0.80434 0.81008 0.0
C278 C 0.70339 0.79478 0.83331 0.0
C279 C 0.66722 0.81632 0.79238 0.0
C280 C 0.70249 0.84617 0.80584 0.0
H281 H 0.76325 0.74017 0.79758 0.0
H282 H 0.74963 0.73944 0.88741 0.0
H283 H 0.75211 0.79159 0.87433 0.0
H284 H 0.72459 0.79894 0.88322 0.0
H285 H 0.73538 0.77655 0.89845 0.0
H286 H 0.69779 0.73524 0.86111 0.0
H287 H 0.70219 0.74802 0.89091 0.0
H288 H 0.68405 0.75864 0.86874 0.0
H289 H 0.76536 0.79111 0.72671 0.0
H290 H 0.72085 0.84231 0.72035 0.0
H291 H 0.70187 0.83152 0.75897 0.0
H292 H 0.72603 0.75276 0.74765 0.0
H293 H 0.75557 0.74751 0.75124 0.0
H294 H 0.73323 0.74034 0.77464 0.0
H295 H 0.77808 0.80174 0.78127 0.0
H296 H 0.77909 0.77583 0.795 0.0
H297 H 0.78459 0.77838 0.76277 0.0
H298 H 0.784 0.71743 0.8221 0.0
C299 C 0.75984 0.74046 0.81689 0.0
C300 C 0.80348 0.1793 0.44255 0.0
C301 C 0.81078 0.1625 0.42724 0.0
C302 C 0.8001 0.15782 0.40439 0.0
C303 C 0.77463 0.18567 0.41286 0.0
C304 C 0.78549 0.19065 0.435 0.0
C305 C 0.77527 0.20861 0.44928 0.0
H306 H 0.6973 0.28216 0.45613 0.0
C307 C 0.75612 0.19995 0.41084 0.0
C308 C 0.75651 0.21357 0.43202 0.0
H309 H 0.74653 0.27004 0.51087 0.0
H310 H 0.76049 0.24176 0.48442 0.0
H311 H 0.67987 0.23162 0.44546 0.0
H312 H 0.73112 0.27889 0.408 0.0
H313 H 0.7137 0.26319 0.38575 0.0
H314 H 0.70014 0.28006 0.40786 0.0
H315 H 0.67148 0.252 0.42537 0.0
H316 H 0.67705 0.22484 0.41426 0.0
C317 C 0.76454 0.19845 0.47351 0.0
C318 C 0.79486 0.22899 0.45264 0.0
C319 C 0.70185 0.18956 0.33834 0.0
C320 C 0.68251 0.19973 0.33183 0.0
C321 C 0.67647 0.21771 0.34632 0.0
C322 C 0.6891 0.22498 0.36737 0.0
C323 C 0.70795 0.21416 0.37403 0.0
C324 C 0.71423 0.19697 0.35941 0.0
C325 C 0.73474 0.18745 0.36924 0.0
C326 C 0.73935 0.20136 0.39255 0.0
C327 C 0.72361 0.21692 0.39527 0.0
C328 C 0.72656 0.16229 0.37452 0.0
C329 C 0.7555 0.19196 0.3506 0.0
C330 C 0.71135 0.27361 0.4622 0.0
C331 C 0.72125 0.27845 0.48525 0.0
C332 C 0.73891 0.26658 0.49301 0.0
C333 C 0.74692 0.25024 0.47764 0.0
C334 C 0.73681 0.24556 0.45453 0.0
C335 C 0.71917 0.25705 0.44731 0.0
C336 C 0.70926 0.24892 0.423 0.0
C337 C 0.72427 0.23101 0.41642 0.0
C338 C 0.74048 0.22921 0.43482 0.0
C339 C 0.68302 0.23893 0.42698 0.0
C340 C 0.71355 0.26873 0.40511 0.0
H341 H 0.77459 0.16487 0.37961 0.0
H342 H 0.81113 0.18313 0.46034 0.0
H343 H 0.80557 0.23201 0.43555 0.0
H344 H 0.78799 0.24483 0.45665 0.0
H345 H 0.80689 0.22606 0.46744 0.0
H346 H 0.7577 0.18027 0.4711 0.0
H347 H 0.77785 0.20012 0.48809 0.0
H348 H 0.74918 0.20604 0.48007 0.0
H349 H 0.70721 0.17599 0.32732 0.0
H350 H 0.66159 0.22577 0.34172 0.0
H351 H 0.68347 0.23854 0.37782 0.0
H352 H 0.70846 0.15972 0.38254 0.0
H353 H 0.72636 0.15191 0.35748 0.0
H354 H 0.73744 0.15551 0.38803 0.0
H355 H 0.75474 0.20751 0.34024 0.0
H356 H 0.7728 0.19497 0.35947 0.0
H357 H 0.75522 0.1779 0.33709 0.0
H358 H 0.80565 0.14519 0.39212 0.0
C359 C 0.78212 0.16933 0.39712 0.0
C360 C 0.39722 0.67057 0.26771 0.0
C361 C 0.38865 0.64942 0.27799 0.0
C362 C 0.36812 0.63705 0.26794 0.0
C363 C 0.36543 0.66603 0.23815 0.0
C364 C 0.3855 0.67841 0.24777 0.0
C365 C 0.39251 0.70008 0.23406 0.0
H366 H 0.37181 0.7687 0.14104 0.0
C367 C 0.35747 0.67857 0.21741 0.0
C368 C 0.37344 0.69863 0.21478 0.0
H369 H 0.42829 0.78025 0.19269 0.0
H370 H 0.41333 0.74528 0.21242 0.0
H371 H 0.3318 0.75167 0.18026 0.0
H372 H 0.37361 0.71593 0.13179 0.0
H373 H 0.34473 0.70152 0.13128 0.0
H374 H 0.35061 0.73014 0.12117 0.0
H375 H 0.32682 0.74911 0.14801 0.0
H376 H 0.31314 0.72814 0.16893 0.0
C377 C 0.39143 0.71995 0.25216 0.0
C378 C 0.41708 0.69966 0.22231 0.0
C379 C 0.28253 0.64638 0.1712 0.0
C380 C 0.2707 0.65413 0.15137 0.0
C381 C 0.28084 0.67457 0.14071 0.0
C382 C 0.30168 0.68706 0.14957 0.0
C383 C 0.31303 0.67929 0.16947 0.0
C384 C 0.3035 0.65919 0.17991 0.0
C385 C 0.31824 0.65356 0.20083 0.0
C386 C 0.33792 0.67367 0.20138 0.0
C387 C 0.33475 0.6887 0.18288 0.0
C388 C 0.30286 0.65247 0.22442 0.0
C389 C 0.32769 0.63144 0.19407 0.0
C390 C 0.3812 0.76371 0.15642 0.0
C391 C 0.40146 0.77761 0.16504 0.0
C392 C 0.41257 0.77026 0.18559 0.0
C393 C 0.40392 0.74976 0.19701 0.0
C394 C 0.3837 0.73612 0.18808 0.0
C395 C 0.37269 0.74335 0.16814 0.0
C396 C 0.35113 0.72716 0.16128 0.0
C397 C 0.35105 0.70889 0.18007 0.0
C398 C 0.37024 0.71401 0.19588 0.0
C399 C 0.3295 0.73954 0.16455 0.0
C400 C 0.35496 0.71824 0.13496 0.0
H401 H 0.34109 0.63475 0.24185 0.0
H402 H 0.41298 0.68059 0.27468 0.0
H403 H 0.4183 0.68282 0.21406 0.0
H404 H 0.42102 0.71158 0.20727 0.0
H405 H 0.43104 0.70336 0.23616 0.0
H406 H 0.37547 0.71671 0.26413 0.0
H407 H 0.40702 0.72255 0.26409 0.0
H408 H 0.39016 0.73579 0.24292 0.0
H409 H 0.27545 0.63087 0.18005 0.0
H410 H 0.27281 0.68091 0.12514 0.0
H411 H 0.3082 0.70238 0.14045 0.0
H412 H 0.2918 0.66611 0.22492 0.0
H413 H 0.29091 0.63621 0.22545 0.0
H414 H 0.31327 0.65499 0.24121 0.0
H415 H 0.33163 0.63039 0.17413 0.0
H416 H 0.34448 0.63012 0.2029 0.0
H417 H 0.31461 0.61657 0.19876 0.0
H418 H 0.3607 0.621 0.27545 0.0
C419 C 0.35658 0.64516 0.24835 0.0
C420 C 0.12089 0.29063 0.67387 0.0
C421 C 0.12948 0.27936 0.65341 0.0
C422 C 0.15049 0.28942 0.64189 0.0
C423 C 0.15369 0.32125 0.67037 0.0
C424 C 0.13317 0.31155 0.68189 0.0
C425 C 0.12631 0.32623 0.70283 0.0
H426 H 0.14982 0.42266 0.77182 0.0
C427 C 0.1621 0.34309 0.68284 0.0
C428 C 0.14606 0.34622 0.70191 0.0
H429 H 0.09108 0.36928 0.77966 0.0
H430 H 0.10557 0.34923 0.74529 0.0
H431 H 0.14845 0.42426 0.71362 0.0
H432 H 0.18987 0.38974 0.76051 0.0
H433 H 0.20832 0.4031 0.73745 0.0
H434 H 0.1936 0.4198 0.75867 0.0
H435 H 0.17271 0.43891 0.73041 0.0
H436 H 0.17685 0.42634 0.7007 0.0
C437 C 0.10221 0.33313 0.69713 0.0
C438 C 0.12652 0.31308 0.72673 0.0
C439 C 0.23803 0.39044 0.65283 0.0
C440 C 0.25003 0.41175 0.65965 0.0
C441 C 0.24048 0.42365 0.67898 0.0
C442 C 0.21965 0.4145 0.69134 0.0
C443 C 0.20789 0.39319 0.68431 0.0
C444 C 0.21706 0.38164 0.66518 0.0
C445 C 0.20179 0.35962 0.65953 0.0
C446 C 0.18212 0.35967 0.67856 0.0
C447 C 0.18581 0.37931 0.69321 0.0
C448 C 0.1927 0.36049 0.63315 0.0
C449 C 0.21642 0.34051 0.6637 0.0
C450 C 0.14016 0.40656 0.76633 0.0
C451 C 0.11916 0.39769 0.77875 0.0
C452 C 0.10708 0.37679 0.77046 0.0
C453 C 0.11563 0.36503 0.75049 0.0
C454 C 0.13656 0.37414 0.73831 0.0
C455 C 0.14841 0.39463 0.74628 0.0
C456 C 0.17015 0.40199 0.7309 0.0
C457 C 0.16959 0.3825 0.71261 0.0
C458 C 0.14983 0.3661 0.71699 0.0
C459 C 0.16714 0.42411 0.7183 0.0
C460 C 0.19173 0.40395 0.74763 0.0
H461 H 0.17841 0.31662 0.64051 0.0
H462 H 0.10475 0.28356 0.68312 0.0
H463 H 0.14181 0.30378 0.72678 0.0
H464 H 0.12842 0.32407 0.74318 0.0
H465 H 0.11031 0.30063 0.72875 0.0
H466 H 0.10106 0.33661 0.67736 0.0
H467 H 0.08761 0.31955 0.7018 0.0
H468 H 0.09918 0.34877 0.70671 0.0
H469 H 0.24458 0.38094 0.63784 0.0
H470 H 0.24935 0.44 0.68479 0.0
H471 H 0.2135 0.42442 0.70595 0.0
H472 H 0.19052 0.3779 0.62838 0.0
H473 H 0.20513 0.35463 0.61954 0.0
H474 H 0.17508 0.35062 0.63071 0.0
H475 H 0.22758 0.34428 0.68006 0.0
H476 H 0.20547 0.32425 0.66745 0.0
H477 H 0.22822 0.33841 0.64778 0.0
H478 H 0.15785 0.28113 0.62644 0.0
C479 C 0.16256 0.3101 0.6502 0.0
Gd480 Gd 0.01638 0.0301 0.50004 0.0
Gd481 Gd 1.00453 1.01174 0.55068 0.0
C482 C 0.03056 0.06225 0.54864 0.0
C483 C 0.0218 0.05436 0.46146 0.0
C484 C 0.03881 0.07375 0.45411 0.0
C485 C 0.05661 0.08309 0.47004 0.0
C486 C 0.03804 0.08233 0.43067 0.0
C487 C 0.07337 0.10902 0.43868 0.0
C488 C 0.05518 0.09983 0.42298 0.0
C489 C 0.07373 0.10062 0.46241 0.0
C490 C 0.04937 1.00888 0.51939 0.0
C491 C 0.98992 0.97972 0.50195 0.0
C492 C 0.99895 0.98766 0.58936 0.0
C493 C 0.982 0.96809 0.59692 0.0
C494 C 0.96914 0.96938 0.6188 0.0
C495 C 0.97703 0.94895 0.5817 0.0
C496 C 0.94528 0.93347 0.60927 0.0
C497 C 0.95879 0.93181 0.58779 0.0
C498 C 0.95095 0.95226 0.62492 0.0
C499 C 0.97173 0.03319 0.53128 0.0
O500 O 0.0259 0.06098 0.52496 0.0
O501 O 0.02695 0.0441 0.56221 0.0
O502 O 0.03044 0.03563 0.46341 0.0
O503 O 1.0075 0.05791 0.47956 0.0
O504 O 0.045 1.0084 0.49626 0.0
O505 O 0.03756 1.02183 0.53071 0.0
O506 O 0.99447 0.98089 0.52569 0.0
O507 O 0.99381 0.99789 0.48843 0.0
O508 O 0.99012 1.00628 0.58723 0.0
O509 O 0.01389 0.98446 0.5717 0.0
O510 O 0.97616 0.03378 0.5544 0.0
O511 O 0.9834 1.02006 0.52008 0.0
H512 H 0.05749 0.07655 0.48821 0.0
H513 H 0.02449 0.07518 0.41813 0.0
H514 H 0.05459 0.10568 0.40448 0.0
H515 H 0.08732 0.10749 0.47502 0.0
H516 H 0.97263 0.98402 0.63076 0.0
H517 H 0.98684 0.94744 0.56483 0.0
H518 H 0.95509 0.9174 0.57553 0.0
H519 H 0.94073 0.9542 0.64146 0.0
Gd520 Gd 0.52931 0.02663 0.03435 0.0
Gd521 Gd 0.48675 1.01868 1.00785 0.0
C522 C 0.48432 0.04815 0.05502 0.0
C523 C 0.56628 0.04266 0.05892 0.0
C524 C 0.57186 0.05808 0.07981 0.0
C525 C 0.58912 0.054 0.09604 0.0
C526 C 0.55973 0.07636 0.08422 0.0
C527 C 0.58189 0.08609 0.12128 0.0
C528 C 0.56472 0.09028 0.1048 0.0
C529 C 0.59413 0.06789 0.11658 0.0
C530 C 0.50305 0.98626 0.04526 0.0
C531 C 0.5315 0.99653 0.98762 0.0
C532 C 0.45027 1.00278 0.98256 0.0
C533 C 0.44537 0.98797 0.96096 0.0
C534 C 0.43195 0.9947 0.94223 0.0
C535 C 0.45429 0.96756 0.95846 0.0
C536 C 0.43593 0.96062 0.9188 0.0
C537 C 0.44954 0.95397 0.93759 0.0
C538 C 0.42734 0.98123 0.92132 0.0
C539 C 0.51302 0.05904 0.997 0.0
O540 O 0.50745 0.05022 0.05363 0.0
O541 O 0.47132 0.03366 0.0408 0.0
O542 O 0.5531 0.02369 0.06387 0.0
O543 O 0.5604 0.05142 0.03877 0.0
O544 O 0.52553 0.98946 0.04119 0.0
O545 O 0.49515 1.00469 0.04318 0.0
O546 O 0.5084 0.99478 0.98877 0.0
O547 O 0.54456 1.01107 1.00172 0.0
O548 O 0.46294 1.02221 0.97853 0.0
O549 O 0.45603 0.99362 1.00252 0.0
O550 O 0.49054 0.0558 1.00104 0.0
O551 O 0.52092 0.0406 0.99906 0.0
H552 H 0.59865 0.03998 0.09288 0.0
H553 H 0.54633 0.07977 0.07187 0.0
H554 H 0.55489 0.10407 0.10803 0.0
H555 H 0.60773 0.06445 0.12869 0.0
H556 H 0.42512 1.01049 0.94372 0.0
H557 H 0.46487 0.96208 0.97262 0.0
H558 H 0.45625 0.93813 0.93636 0.0
H559 H 0.41722 0.9871 0.90701 0.0
Gd560 Gd 0.50837 0.50373 0.50798 0.0
Gd561 Gd 0.50587 0.54253 0.53938 0.0
C562 C 0.52807 0.50404 0.56429 0.0
C563 C 0.52278 0.4699 0.48609 0.0
C564 C 0.53979 0.45564 0.49387 0.0
C565 C 0.53412 0.43221 0.4923 0.0
C566 C 0.56095 0.46526 0.50476 0.0
C567 C 0.57057 0.42818 0.51227 0.0
C568 C 0.57624 0.45165 0.51375 0.0
C569 C 0.54936 0.41856 0.50149 0.0
C570 C 0.46588 0.5025 0.53069 0.0
C571 C 0.48654 0.54249 0.48274 0.0
C572 C 0.49124 0.57634 0.56103 0.0
C573 C 0.47733 0.59272 0.55145 0.0
C574 C 0.48505 0.61577 0.55455 0.0
C575 C 0.45732 0.58549 0.53743 0.0
C576 C 0.4529 0.62418 0.52981 0.0
C577 C 0.44522 0.60105 0.52679 0.0
C578 C 0.47297 0.63139 0.54382 0.0
C579 C 0.54843 0.54377 0.51697 0.0
O580 O 0.52924 0.49633 0.54146 0.0
O581 O 0.51735 0.52156 0.56915 0.0
O582 O 0.50324 0.4681 0.49893 0.0
O583 O 0.53132 0.49073 0.48124 0.0
O584 O 0.46875 0.49689 0.50791 0.0
O585 O 0.48566 0.50842 0.54036 0.0
O586 O 0.48679 0.55119 0.50522 0.0
O587 O 0.49567 0.52395 0.4782 0.0
O588 O 0.51248 0.57733 0.55183 0.0
O589 O 0.48039 0.55574 0.56297 0.0
O590 O 0.54539 0.54961 0.53966 0.0
O591 O 0.52872 0.53775 0.5071 0.0
H592 H 0.51777 0.42448 0.48423 0.0
H593 H 0.56556 0.48331 0.50668 0.0
H594 H 0.59236 0.45948 0.52218 0.0
H595 H 0.54471 0.4005 0.49989 0.0
H596 H 0.50064 0.62169 0.56498 0.0
H597 H 0.45109 0.56778 0.53443 0.0
H598 H 0.42963 0.59491 0.51648 0.0
H599 H 0.47948 0.6491 0.54629 0.0
Gd600 Gd 0.01142 0.49927 0.03571 0.0
Gd601 Gd 1.0038 0.54581 1.01493 0.0
C602 C 0.0529 0.54315 0.0419 0.0
C603 C 0.02734 0.46324 0.04783 0.0
C604 C 0.05032 0.45612 0.05277 0.0
C605 C 0.0587 0.45681 0.07675 0.0
C606 C 0.06356 0.44757 0.03386 0.0
C607 C 0.09291 0.44034 0.06291 0.0
C608 C 0.08464 0.43981 0.03888 0.0
C609 C 0.07976 0.44909 0.08174 0.0
C610 C 0.98598 0.52446 0.06441 0.0
C611 C 0.96487 0.50085 1.00417 0.0
C612 C 0.98728 0.58322 1.01343 0.0
C613 C 0.97006 0.59388 1.00023 0.0
C614 C 0.96585 0.58963 0.97527 0.0
C615 C 0.95669 0.60779 1.01346 0.0
C616 C 0.93478 0.61304 0.97711 0.0
C617 C 0.9392 0.61725 1.00205 0.0
C618 C 0.94841 0.59928 0.96375 0.0
C619 C 0.02313 0.52125 0.97928 0.0
O620 O 0.04695 0.52094 0.04225 0.0
O621 O 0.03851 0.5564 0.0336 0.0
O622 O 0.01967 0.47712 0.06373 0.0
O623 O 0.02311 0.46781 0.02521 0.0
O624 O 0.98146 0.50271 0.06239 0.0
O625 O 1.00401 0.53151 0.05163 0.0
O626 O 0.96966 0.52313 1.00542 0.0
O627 O 0.97939 0.48788 1.01281 0.0
O628 O 1.00664 0.5798 1.00174 0.0
O629 O 0.97827 0.56652 0.02726 0.0
O630 O 0.01786 0.54122 0.97603 0.0
O631 O 0.01767 0.51604 1.00105 0.0
H632 H 0.0488 0.463 0.0918 0.0
H633 H 0.05754 0.44664 1.0152 0.0
H634 H 0.09444 0.43335 0.02392 0.0
H635 H 0.08539 0.44939 0.10051 0.0
H636 H 0.9758 0.5787 0.9648 0.0
H637 H 0.95964 0.61116 0.03277 0.0
H638 H 0.92922 0.62801 1.01274 0.0
H639 H 0.94526 0.59563 0.94453 0.0
H640 H 0.26008 0.22346 0.3439 0.0
H641 H 0.23108 0.20146 0.37071 0.0
H642 H 0.17573 0.23101 0.33826 0.0
H643 H 0.20414 0.25222 0.31084 0.0
H644 H 0.19497 0.21347 0.40478 0.0
H645 H 0.1586 0.16269 0.32468 0.0
H646 H 0.18672 0.18057 0.32365 0.0
H647 H 0.16004 0.19243 0.32127 0.0
C648 C 0.24174 0.22535 0.34255 0.0
C649 C 0.23447 0.23949 0.32503 0.0
C650 C 0.22525 0.2129 0.358 0.0
C651 C 0.20128 0.2144 0.35613 0.0
C652 C 0.19415 0.22945 0.33973 0.0
H653 H 0.06939 0.14521 0.41056 0.0
H654 H 0.10121 0.17181 0.39277 0.0
C655 C 0.21052 0.24177 0.32425 0.0
C656 C 0.18341 0.19916 0.36992 0.0
H657 H 0.13683 0.1576 0.36188 0.0
C658 C 0.18232 0.20114 0.39549 0.0
C659 C 0.16709 0.18302 0.35767 0.0
C660 C 0.16823 0.17933 0.33032 0.0
C661 C 0.16472 0.18782 0.40911 0.0
C662 C 0.14808 0.17208 0.39675 0.0
C663 C 0.14949 0.16987 0.37124 0.0
C664 C 0.12901 0.15753 0.40973 0.0
C665 C 0.16366 0.19102 0.43649 0.0
C666 C 0.13416 0.1408 0.42525 0.0
C667 C 0.11604 0.12546 0.43528 0.0
C668 C 0.09245 0.12653 0.42985 0.0
C669 C 0.08737 0.14374 0.41483 0.0
C670 C 0.1055 0.15903 0.40479 0.0
H671 H 0.17449 0.20693 0.44262 0.0
H672 H 0.14526 0.19101 0.44298 0.0
H673 H 0.17042 0.17689 0.44524 0.0
H674 H 0.15222 0.13908 0.42886 0.0
H675 H 0.12057 0.11221 0.44647 0.0
H676 H 0.3915 0.85361 0.71138 0.0
H677 H 0.41367 0.86992 0.74693 0.0
H678 H 0.34979 0.86214 0.7905 0.0
H679 H 0.3276 0.84577 0.75517 0.0
H680 H 0.40297 0.90986 0.77187 0.0
H681 H 0.39837 0.83792 0.83411 0.0
H682 H 0.39415 0.83439 0.80154 0.0
H683 H 0.37067 0.84112 0.82117 0.0
C684 C 0.38232 0.85493 0.7287 0.0
C685 C 0.35785 0.84847 0.73058 0.0
C686 C 0.39496 0.8643 0.74891 0.0
C687 C 0.38338 0.86697 0.77134 0.0
C688 C 0.35909 0.85986 0.77344 0.0
H689 H 0.39448 0.95274 0.89439 0.0
H690 H 0.38556 0.92973 0.85755 0.0
C691 C 0.34642 0.85071 0.75323 0.0
C692 C 0.396 0.87917 0.79197 0.0
H693 H 0.40738 0.87475 0.85245 0.0
C694 C 0.4044 0.90211 0.78936 0.0
C695 C 0.39787 0.86895 0.81468 0.0
C696 C 0.38999 0.84418 0.81807 0.0
C697 C 0.41336 0.91539 0.80935 0.0
C698 C 0.41393 0.90542 0.83236 0.0
C699 C 0.40677 0.88227 0.83471 0.0
C700 C 0.41979 0.91921 0.85457 0.0
C701 C 0.42133 0.94017 0.8061 0.0
C702 C 0.44199 0.92072 0.86501 0.0
C703 C 0.44731 0.93414 0.88592 0.0
C704 C 0.4304 0.94609 0.89676 0.0
C705 C 0.40806 0.94417 0.88629 0.0
C706 C 0.40286 0.93091 0.86535 0.0
H707 H 0.42322 0.94466 0.78651 0.0
H708 H 0.40825 0.94972 0.81487 0.0
H709 H 0.4384 0.94547 0.81517 0.0
H710 H 0.45522 0.91174 0.85681 0.0
H711 H 0.46475 0.93544 0.89335 0.0
H712 H 0.65167 0.41856 0.726 0.0
H713 H 0.63398 0.43582 0.6926 0.0
H714 H 0.56499 0.41179 0.72183 0.0
H715 H 0.58265 0.3945 0.75568 0.0
H716 H 0.56634 0.40698 0.67148 0.0
H717 H 0.60624 0.49363 0.69646 0.0
H718 H 0.62757 0.47503 0.69187 0.0
H719 H 0.60643 0.4704 0.71661 0.0
C720 C 0.63271 0.41706 0.72567 0.0
C721 C 0.61877 0.40528 0.74416 0.0
C722 C 0.62254 0.42705 0.70635 0.0
C723 C 0.59802 0.42577 0.70469 0.0
C724 C 0.58395 0.41332 0.72256 0.0
H725 H 0.52853 0.51447 0.6137 0.0
H726 H 0.54462 0.49522 0.64691 0.0
C727 C 0.59413 0.40329 0.74198 0.0
C728 C 0.58726 0.43741 0.68441 0.0
H729 H 0.58793 0.4886 0.65781 0.0
C730 C 0.57106 0.42485 0.66859 0.0
C731 C 0.59295 0.46085 0.6805 0.0
C732 C 0.60906 0.47584 0.69738 0.0
C733 C 0.56094 0.43482 0.64899 0.0
C734 C 0.56727 0.45814 0.64457 0.0
C735 C 0.5831 0.47075 0.66072 0.0
C736 C 0.55736 0.46988 0.62379 0.0
C737 C 0.54309 0.42025 0.63353 0.0
C738 C 0.55925 0.46257 0.59925 0.0
C739 C 0.54996 0.47363 0.58008 0.0
C740 C 0.5386 0.49253 0.5847 0.0
C741 C 0.53706 0.50003 0.60921 0.0
C742 C 0.54633 0.48896 0.62836 0.0
H743 H 0.53512 0.40491 0.64328 0.0
H744 H 0.52883 0.42955 0.62813 0.0
H745 H 0.5519 0.41483 0.61668 0.0
H746 H 0.56814 0.44836 0.59481 0.0
H747 H 0.55168 0.46728 0.56157 0.0
H748 H 0.91923 0.66493 0.22699 0.0
H749 H 0.9343 0.64466 0.1924 0.0
H750 H 0.90361 0.58174 0.22345 0.0
H751 H 0.88912 0.60172 0.2586 0.0
H752 H 0.96519 0.61037 0.19316 0.0
H753 H 0.87894 0.57832 0.15207 0.0
H754 H 0.88282 0.60156 0.17376 0.0
H755 H 0.88126 0.57331 0.18412 0.0
C756 C 0.91582 0.64677 0.22677 0.0
C757 C 0.9028 0.63514 0.24593 0.0
C758 C 0.92438 0.63518 0.20675 0.0
C759 C 0.91992 0.61162 0.20504 0.0
C760 C 0.90697 0.59991 0.22403 0.0
H761 H 0.95189 0.50982 0.09841 0.0
H762 H 0.93651 0.53128 0.13196 0.0
C763 C 0.89858 0.61147 0.24418 0.0
C764 C 0.9292 0.59933 0.1837 0.0
H765 H 0.91221 0.56499 0.13453 0.0
C766 C 0.95361 0.60053 0.18026 0.0
C767 C 0.91416 0.58634 0.16688 0.0
C768 C 0.88783 0.58485 0.16915 0.0
C769 C 0.96335 0.58876 0.16095 0.0
C770 C 0.94832 0.57588 0.14393 0.0
C771 C 0.92387 0.5748 0.14736 0.0
C772 C 0.95751 0.563 0.12285 0.0
C773 C 0.98968 0.58965 0.15961 0.0
C774 C 0.97419 0.57355 0.10595 0.0
C775 C 0.98323 0.56118 0.08683 0.0
C776 C 0.9755 0.538 0.08379 0.0
C777 C 0.95828 0.52762 0.10019 0.0
C778 C 0.94943 0.53993 0.11943 0.0
H779 H 0.99782 0.5942 0.17761 0.0
H780 H 0.99457 0.57329 0.15335 0.0
H781 H 0.99724 0.60267 0.14648 0.0
H782 H 0.9803 0.5914 0.10752 0.0
H783 H 0.99643 0.56975 0.07455 0.0
H784 H 0.39779 0.18774 0.20264 0.0
H785 H 0.42073 0.16153 0.18216 0.0
H786 H 0.382 0.16506 0.11618 0.0
H787 H 0.35865 0.19096 0.13661 0.0
H788 H 0.40242 0.11907 0.1607 0.0
H789 H 0.4518 0.17656 0.09336 0.0
H790 H 0.43742 0.18659 0.12017 0.0
H791 H 0.42055 0.17636 0.09392 0.0
C792 C 0.3941 0.18293 0.18378 0.0
C793 C 0.37633 0.19145 0.17128 0.0
C794 C 0.40731 0.16804 0.17208 0.0
C795 C 0.4032 0.16154 0.14762 0.0
C796 C 0.38573 0.17019 0.13496 0.0
H797 H 0.4373 0.04739 0.06415 0.0
H798 H 0.41846 0.07451 0.08835 0.0
C799 C 0.37244 0.18504 0.14665 0.0
C800 C 0.41648 0.14493 0.13564 0.0
H801 H 0.4539 0.13764 0.08792 0.0
C802 C 0.41379 0.12314 0.14488 0.0
C803 C 0.43146 0.15039 0.11517 0.0
C804 C 0.43572 0.17379 0.10514 0.0
C805 C 0.42524 0.10645 0.13375 0.0
C806 C 0.43957 0.1117 0.11278 0.0
C807 C 0.44276 0.13365 0.10393 0.0
C808 C 0.45106 0.09455 0.0994 0.0
C809 C 0.42199 0.08336 0.14456 0.0
C810 C 0.47564 0.09688 0.09756 0.0
C811 C 0.48649 0.08139 0.08377 0.0
C812 C 0.47292 0.06342 0.07133 0.0
C813 C 0.44829 0.06098 0.07353 0.0
C814 C 0.43747 0.07642 0.08743 0.0
H815 H 0.41523 0.08352 0.16371 0.0
H816 H 0.40912 0.07192 0.13358 0.0
H817 H 0.43881 0.07642 0.14417 0.0
H818 H 0.48642 0.11082 0.10661 0.0
H819 H 0.50547 0.08384 0.08242 0.0
H820 H 0.21379 0.92553 0.62493 0.0
H821 H 0.18466 0.94789 0.61118 0.0
H822 H 0.14373 0.88823 0.58069 0.0
H823 H 0.17245 0.86561 0.59502 0.0
H824 H 0.17238 0.95194 0.56272 0.0
H825 H 0.09478 0.91823 0.6198 0.0
H826 H 0.12429 0.91398 0.62683 0.0
H827 H 0.1082 0.89713 0.60348 0.0
C828 C 0.19834 0.91709 0.61576 0.0
C829 C 0.19536 0.8938 0.61111 0.0
C830 C 0.18181 0.9299 0.60779 0.0
C831 C 0.16196 0.91965 0.59519 0.0
C832 C 0.15876 0.89639 0.59076 0.0
H833 H 0.07504 0.97962 0.49718 0.0
H834 H 0.1027 0.95845 0.51625 0.0
C835 C 0.17529 0.88354 0.59871 0.0
C836 C 0.1454 0.93352 0.58533 0.0
H837 H 0.08793 0.9414 0.5868 0.0
C838 C 0.15394 0.94975 0.56808 0.0
C839 C 0.12145 0.93072 0.59258 0.0
C840 C 0.11162 0.91422 0.61186 0.0
C841 C 0.13901 0.96297 0.55743 0.0
C842 C 0.11489 0.9596 0.564 0.0
C843 C 0.10643 0.94375 0.58168 0.0
C844 C 0.09812 0.97228 0.55256 0.0
C845 C 0.14919 0.98054 0.53937 0.0
C846 C 0.08611 0.98668 0.56681 0.0
C847 C 0.0703 0.99873 0.55598 0.0
C848 C 0.06618 0.9964 0.53079 0.0
C849 C 0.07805 0.98181 0.51661 0.0
C850 C 0.09388 0.9698 0.52743 0.0
H851 H 0.16856 0.98485 0.54099 0.0
H852 H 0.1454 0.97399 0.52054 0.0
H853 H 0.1412 0.9961 0.54201 0.0
H854 H 0.08912 0.98871 0.58625 0.0
H855 H 0.06131 1.00986 0.5673 0.0
H856 H 0.76269 0.43557 0.89728 0.0
H857 H 0.79929 0.45525 0.91464 0.0
H858 H 0.82277 0.39178 0.92616 0.0
H859 H 0.78689 0.37215 0.90812 0.0
H860 H 0.81752 0.45401 0.96013 0.0
H861 H 0.88025 0.42497 0.89324 0.0
H862 H 0.84906 0.42135 0.88802 0.0
H863 H 0.86127 0.4021 0.90693 0.0
C864 C 0.77579 0.42577 0.9031 0.0
C865 C 0.77152 0.40212 0.90118 0.0
C866 C 0.79674 0.43709 0.91325 0.0
C867 C 0.81422 0.42517 0.92154 0.0
C868 C 0.81001 0.40159 0.91955 0.0
H869 H 0.94879 0.45576 0.99621 0.0
H870 H 0.91248 0.4384 0.9766 0.0
C871 C 0.78915 0.39029 0.90945 0.0
C872 C 0.83644 0.43714 0.93295 0.0
H873 H 0.8966 0.442 0.93004 0.0
C874 C 0.83479 0.45151 0.95336 0.0
C875 C 0.8592 0.43402 0.92436 0.0
C876 C 0.86262 0.41996 0.90179 0.0
C877 C 0.85495 0.46216 0.96569 0.0
C878 C 0.87769 0.4588 0.95727 0.0
C879 C 0.87933 0.44461 0.93673 0.0
C880 C 0.89991 0.46967 0.96953 0.0
C881 C 0.85162 0.47638 0.98815 0.0
C882 C 0.90544 0.49317 0.97204 0.0
C883 C 0.9263 0.50321 0.98332 0.0
C884 C 0.94242 0.49007 0.99238 0.0
C885 C 0.93692 0.46654 0.98966 0.0
C886 C 0.91607 0.45653 0.97833 0.0
H887 H 0.83358 0.47236 0.99606 0.0
H888 H 0.86443 0.47405 1.0024 0.0
H889 H 0.85442 0.49433 0.98314 0.0
H890 H 0.89373 0.50387 0.96499 0.0
H891 H 0.92982 0.52135 0.9848 0.0
H892 H 0.74685 0.58932 0.39469 0.0
H893 H 0.71025 0.57299 0.41492 0.0
H894 H 0.69427 0.6393 0.43184 0.0
H895 H 0.73026 0.6558 0.41055 0.0
H896 H 0.69492 0.57509 0.46089 0.0
H897 H 0.63332 0.6111 0.40253 0.0
H898 H 0.66405 0.61229 0.39461 0.0
H899 H 0.65464 0.63225 0.41621 0.0
C900 C 0.73542 0.60053 0.4023 0.0
C901 C 0.74165 0.62401 0.40062 0.0
C902 C 0.71448 0.5911 0.41412 0.0
C903 C 0.69907 0.6048 0.42462 0.0
C904 C 0.70543 0.62824 0.42342 0.0
H905 H 0.59028 0.56431 0.53495 0.0
H906 H 0.62647 0.57798 0.51234 0.0
C907 C 0.72632 0.6377 0.4115 0.0
C908 C 0.67675 0.59454 0.43727 0.0
H909 H 0.61715 0.59407 0.43925 0.0
C910 C 0.67793 0.5792 0.45603 0.0
C911 C 0.65436 0.59944 0.43079 0.0
C912 C 0.65142 0.61448 0.40977 0.0
C913 C 0.65763 0.56914 0.46877 0.0
C914 C 0.63538 0.57487 0.46307 0.0
C915 C 0.63412 0.58978 0.44391 0.0
C916 C 0.61332 0.5659 0.47696 0.0
C917 C 0.66026 0.55213 0.48792 0.0
C918 C 0.59342 0.55488 0.46474 0.0
C919 C 0.57249 0.5472 0.4777 0.0
C920 C 0.57093 0.55048 0.50318 0.0
C921 C 0.59088 0.56135 0.51538 0.0
C922 C 0.61172 0.56908 0.50243 0.0
H923 H 0.6764 0.54437 0.48464 0.0
H924 H 0.66171 0.56063 0.50613 0.0
H925 H 0.64488 0.53858 0.48836 0.0
H926 H 0.59404 0.55225 0.44512 0.0
H927 H 0.55744 0.53897 0.46773 0.0
H928 H 0.26252 0.3704 0.16868 0.0
H929 H 0.2349 0.39104 0.14867 0.0
H930 H 0.22642 0.34111 0.09062 0.0
H931 H 0.25378 0.32022 0.11062 0.0
H932 H 0.23336 0.40755 0.09724 0.0
H933 H 0.15954 0.34143 0.1241 0.0
H934 H 0.18781 0.34468 0.13849 0.0
H935 H 0.18424 0.33205 0.10854 0.0
C936 C 0.25499 0.36398 0.15148 0.0
C937 C 0.2602 0.34361 0.1413 0.0
C938 C 0.23932 0.37583 0.14005 0.0
C939 C 0.22848 0.36743 0.11836 0.0
C940 C 0.23454 0.34775 0.10746 0.0
H941 H 0.10712 0.40192 0.04432 0.0
H942 H 0.14153 0.38533 0.05552 0.0
C943 C 0.2503 0.33594 0.11881 0.0
C944 C 0.20953 0.37832 0.10818 0.0
H945 H 0.15012 0.37121 0.10107 0.0
C946 C 0.21515 0.39964 0.09797 0.0
C947 C 0.18584 0.36791 0.10927 0.0
C948 C 0.17882 0.34532 0.12083 0.0
C949 C 0.19762 0.41077 0.08855 0.0
C950 C 0.17387 0.40045 0.08988 0.0
C951 C 0.16834 0.37906 0.09997 0.0
C952 C 0.15428 0.41167 0.08156 0.0
C953 C 0.20473 0.4333 0.07694 0.0
C954 C 0.15005 0.43204 0.09242 0.0
C955 C 0.13048 0.44166 0.08592 0.0
C956 C 0.11464 0.431 0.06856 0.0
C957 C 0.11914 0.41075 0.05747 0.0
C958 C 0.13872 0.40117 0.06396 0.0
H959 H 0.22349 0.43577 0.07098 0.0
H960 H 0.19374 0.43518 0.06091 0.0
H961 H 0.20234 0.44677 0.0905 0.0
H962 H 0.16154 0.44022 0.1064 0.0
H963 H 0.12764 0.45735 0.09467 0.0
H964 H 0.56966 0.25031 0.89021 0.0
H965 H 0.5545 0.21497 0.91011 0.0
H966 H 0.62503 0.20001 0.9156 0.0
H967 H 0.64032 0.23544 0.89603 0.0
H968 H 0.55463 0.17238 0.89832 0.0
H969 H 0.60382 0.18804 0.98428 0.0
H970 H 0.60298 0.20972 0.9623 0.0
H971 H 0.62277 0.18946 0.95777 0.0
C972 C 0.58204 0.23954 0.89557 0.0
C973 C 0.60637 0.24612 0.89148 0.0
C974 C 0.57328 0.21921 0.90712 0.0
C975 C 0.58849 0.20467 0.91505 0.0
C976 C 0.61276 0.211 0.91058 0.0
H977 H 0.55994 0.06971 0.98243 0.0
H978 H 0.57903 0.10425 0.96243 0.0
C979 C 0.62155 0.23141 0.89919 0.0
C980 C 0.57884 0.18276 0.92727 0.0
H981 H 0.5831 0.15121 0.97812 0.0
C982 C 0.56089 0.16791 0.91581 0.0
C983 C 0.58682 0.17647 0.95018 0.0
C984 C 0.60498 0.19184 0.96449 0.0
C985 C 0.55099 0.14729 0.9263 0.0
C986 C 0.55889 0.14107 0.94918 0.0
C987 C 0.57702 0.15571 0.96055 0.0
C988 C 0.54769 0.12006 0.96201 0.0
C989 C 0.53221 0.13213 0.91254 0.0
C990 C 0.52382 0.11737 0.96905 0.0
C991 C 0.51299 0.09778 0.98059 0.0
C992 C 0.52558 0.08008 0.98549 0.0
C993 C 0.54963 0.08287 0.97888 0.0
C994 C 0.56057 0.10267 0.96743 0.0
H995 H 0.53257 0.13611 0.89281 0.0
H996 H 0.53427 0.11422 0.91439 0.0
H997 H 0.51471 0.13443 0.92019 0.0
H998 H 0.51346 0.13052 0.96565 0.0
H999 H 0.49452 0.09646 0.98552 0.0
H1000 H 0.89517 0.77756 0.44353 0.0
H1001 H 0.91341 0.81404 0.45968 0.0
H1002 H 0.92748 0.83755 0.38632 0.0
H1003 H 0.90874 0.80109 0.36995 0.0
H1004 H 0.95877 0.83757 0.45358 0.0
H1005 H 0.89295 0.88624 0.41737 0.0
H1006 H 0.88797 0.85598 0.41843 0.0
H1007 H 0.90659 0.86992 0.39495 0.0
C1008 C 0.90198 0.79049 0.43074 0.0
C1009 C 0.90015 0.78631 0.40535 0.0
C1010 C 0.91257 0.81138 0.44006 0.0
C1011 C 0.92151 0.82884 0.42432 0.0
C1012 C 0.92033 0.82459 0.39894 0.0
H1013 H 0.98309 0.96938 0.45313 0.0
H1014 H 0.96743 0.93312 0.43425 0.0
C1015 C 0.90982 0.80358 0.38957 0.0
C1016 C 0.93202 0.85134 0.43465 0.0
H1017 H 0.92533 0.9069 0.43759 0.0
C1018 C 0.95144 0.85272 0.45006 0.0
C1019 C 0.92259 0.87124 0.43011 0.0
C1020 C 0.90126 0.87088 0.41449 0.0
C1021 C 0.96175 0.87328 0.46079 0.0
C1022 C 0.95209 0.89315 0.45658 0.0
C1023 C 0.93281 0.8918 0.44095 0.0
C1024 C 0.96159 0.9154 0.4683 0.0
C1025 C 0.98328 0.87354 0.47609 0.0
C1026 C 0.96325 0.91793 0.49385 0.0
C1027 C 0.97233 0.93869 0.50472 0.0
C1028 C 0.97978 0.95766 0.4904 0.0
C1029 C 0.97762 0.95523 0.46484 0.0
C1030 C 0.96863 0.93442 0.45397 0.0
H1031 H 0.99256 0.85908 0.47142 0.0
H1032 H 0.99578 0.88929 0.47368 0.0
H1033 H 0.97789 0.8723 0.49565 0.0
H1034 H 0.95734 0.90384 0.50551 0.0
H1035 H 0.97334 0.93986 0.52441 0.0
H1036 H 0.31895 0.77274 0.50536 0.0
H1037 H 0.34087 0.7473 0.48167 0.0
H1038 H 0.32913 0.69949 0.53984 0.0
H1039 H 0.30724 0.72459 0.56314 0.0
H1040 H 0.38123 0.73745 0.49853 0.0
H1041 H 0.32365 0.65762 0.48147 0.0
H1042 H 0.31208 0.68343 0.48805 0.0
H1043 H 0.31934 0.66626 0.51253 0.0
C1044 C 0.32035 0.7564 0.51254 0.0
C1045 C 0.31159 0.75055 0.53603 0.0
C1046 C 0.33286 0.74193 0.49906 0.0
C1047 C 0.33639 0.72135 0.50881 0.0
C1048 C 0.32615 0.71496 0.53158 0.0
H1049 H 0.44267 0.66294 0.55116 0.0
H1050 H 0.41698 0.68792 0.53617 0.0
C1051 C 0.31385 0.72941 0.54504 0.0
C1052 C 0.3542 0.70845 0.49813 0.0
H1053 H 0.36456 0.65434 0.49313 0.0
C1054 C 0.3775 0.71933 0.4964 0.0
C1055 C 0.34944 0.68489 0.4947 0.0
C1056 C 0.32468 0.67248 0.49401 0.0
C1057 C 0.39628 0.707 0.49467 0.0
C1058 C 0.39153 0.68331 0.49509 0.0
C1059 C 0.36823 0.67253 0.49343 0.0
C1060 C 0.40972 0.66978 0.5019 0.0
C1061 C 0.42104 0.71945 0.49412 0.0
C1062 C 0.41408 0.65114 0.48769 0.0
C1063 C 0.42889 0.63676 0.49627 0.0
C1064 C 0.4393 0.64064 0.51934 0.0
C1065 C 0.43534 0.65968 0.53315 0.0
C1066 C 0.42067 0.67404 0.52455 0.0
H1067 H 0.4219 0.73557 0.48444 0.0
H1068 H 0.42684 0.72349 0.51312 0.0
H1069 H 0.43341 0.70929 0.48503 0.0
H1070 H 0.40562 0.64746 0.47027 0.0
H1071 H 0.43184 0.62237 0.48507 0.0
H1072 H 0.76131 0.86159 0.71229 0.0
H1073 H 0.79197 0.87653 0.68328 0.0
H1074 H 0.7933 0.81 0.65299 0.0
H1075 H 0.76253 0.79483 0.6823 0.0
H1076 H 0.8358 0.829 0.66658 0.0
H1077 H 0.79801 0.88994 0.61183 0.0
H1078 H 0.79309 0.89507 0.64375 0.0
H1079 H 0.77991 0.86895 0.62975 0.0
C1080 C 0.76745 0.85022 0.69888 0.0
C1081 C 0.7595 0.82702 0.6996 0.0
C1082 C 0.78502 0.85881 0.68223 0.0
C1083 C 0.79478 0.84444 0.66574 0.0
C1084 C 0.78595 0.82141 0.66549 0.0
H1085 H 0.91211 0.9132 0.57754 0.0
H1086 H 0.87608 0.88765 0.5874 0.0
C1087 C 0.76842 0.81277 0.68225 0.0
C1088 C 0.81626 0.85312 0.65144 0.0
H1089 H 0.84048 0.89732 0.61681 0.0
C1090 C 0.8367 0.84363 0.65522 0.0
C1091 C 0.81744 0.87197 0.6363 0.0
C1092 C 0.79584 0.88189 0.62997 0.0
C1093 C 0.85855 0.85347 0.64573 0.0
C1094 C 0.86005 0.87357 0.63259 0.0
C1095 C 0.83938 0.88211 0.62726 0.0
C1096 C 0.88295 0.88704 0.62606 0.0
C1097 C 0.87988 0.84249 0.65038 0.0
C1098 C 0.89881 0.89506 0.6445 0.0
C1099 C 0.91946 0.90947 0.63892 0.0
C1100 C 0.92456 0.91638 0.6148 0.0
C1101 C 0.90887 0.90795 0.59625 0.0
C1102 C 0.8882 0.89348 0.60186 0.0
H1103 H 0.87498 0.8241 0.65267 0.0
H1104 H 0.89305 0.84547 0.63524 0.0
H1105 H 0.88817 0.84957 0.66754 0.0
H1106 H 0.89488 0.89072 0.66339 0.0
H1107 H 0.93125 0.91551 0.65358 0.0
H1108 H 0.6677 0.15605 0.31897 0.0
H1109 H 0.64577 0.14156 0.28283 0.0
H1110 H 0.64263 0.2092 0.26052 0.0
H1111 H 0.66512 0.22392 0.29649 0.0
H1112 H 0.60016 0.15002 0.26713 0.0
H1113 H 0.67305 0.17888 0.20129 0.0
H1114 H 0.67785 0.17702 0.23361 0.0
H1115 H 0.66414 0.1995 0.22234 0.0
C1116 C 0.66249 0.16786 0.30629 0.0
C1117 C 0.66836 0.19113 0.31039 0.0
C1118 C 0.6498 0.15956 0.28579 0.0
C1119 C 0.64282 0.17433 0.26897 0.0
C1120 C 0.64812 0.19756 0.27322 0.0
H1121 H 0.58666 0.13197 0.12483 0.0
H1122 H 0.59769 0.15577 0.1609 0.0
C1123 C 0.6608 0.20592 0.29382 0.0
C1124 C 0.6306 0.16511 0.24667 0.0
H1125 H 0.63908 0.15757 0.18538 0.0
C1126 C 0.60849 0.15187 0.24918 0.0
C1127 C 0.64153 0.16771 0.22334 0.0
C1128 C 0.66551 0.18142 0.21981 0.0
C1129 C 0.59728 0.14057 0.22899 0.0
C1130 C 0.60874 0.14225 0.20586 0.0
C1131 C 0.63036 0.15632 0.20317 0.0
C1132 C 0.59978 0.12801 0.18472 0.0
C1133 C 0.57341 0.12672 0.23268 0.0
C1134 C 0.59732 0.10457 0.18623 0.0
C1135 C 0.59096 0.09098 0.16577 0.0
C1136 C 0.58716 0.10058 0.14332 0.0
C1137 C 0.58924 0.12408 0.14194 0.0
C1138 C 0.59562 0.13769 0.16247 0.0
H1139 H 0.56391 0.13301 0.24865 0.0
H1140 H 0.56246 0.12677 0.21624 0.0
H1141 H 0.57563 0.10912 0.23627 0.0
H1142 H 0.60095 0.09676 0.20307 0.0
H1143 H 0.58924 0.07293 0.16748 0.0
H1144 H 0.40833 0.67097 0.31976 0.0
H1145 H 0.42562 0.6544 0.35448 0.0
H1146 H 0.41317 0.58944 0.31869 0.0
H1147 H 0.39615 0.60579 0.28409 0.0
H1148 H 0.40456 0.61873 0.386 0.0
H1149 H 0.48276 0.59501 0.33728 0.0
H1150 H 0.46567 0.61491 0.32523 0.0
H1151 H 0.45541 0.58529 0.32256 0.0
C1152 C 0.40953 0.6532 0.3191 0.0
C1153 C 0.40069 0.63984 0.29888 0.0
C1154 C 0.41931 0.64367 0.33914 0.0
C1155 C 0.42101 0.62056 0.33939 0.0
C1156 C 0.41247 0.6073 0.31909 0.0
H1157 H 0.47584 0.52676 0.43587 0.0
H1158 H 0.45963 0.54589 0.40265 0.0
C1159 C 0.40249 0.61673 0.29925 0.0
C1160 C 0.43114 0.61012 0.3609 0.0
H1161 H 0.47462 0.58027 0.37683 0.0
C1162 C 0.41999 0.61046 0.38401 0.0
C1163 C 0.45121 0.5991 0.35858 0.0
C1164 C 0.46464 0.59866 0.33466 0.0
C1165 C 0.42778 0.59965 0.4044 0.0
C1166 C 0.44792 0.58857 0.40211 0.0
C1167 C 0.4592 0.58852 0.37898 0.0
C1168 C 0.45744 0.5767 0.42312 0.0
C1169 C 0.41362 0.59957 0.42792 0.0
C1170 C 0.46204 0.58733 0.44612 0.0
C1171 C 0.47104 0.57619 0.4654 0.0
C1172 C 0.47627 0.55414 0.46228 0.0
C1173 C 0.47205 0.54364 0.43918 0.0
C1174 C 0.46276 0.55469 0.42001 0.0
H1175 H 0.39515 0.60176 0.42453 0.0
H1176 H 0.41348 0.58371 0.43789 0.0
H1177 H 0.42141 0.61381 0.43977 0.0
H1178 H 0.45904 0.60448 0.44919 0.0
H1179 H 0.47431 0.58509 0.48268 0.0
H1180 H 0.14377 0.4214 0.81618 0.0
H1181 H 0.12834 0.44089 0.85128 0.0
H1182 H 0.05797 0.42208 0.8249 0.0
H1183 H 0.07323 0.40236 0.79 0.0
H1184 H 0.10549 0.47559 0.85552 0.0
H1185 H 0.04757 0.40278 0.8941 0.0
H1186 H 0.06882 0.39975 0.87003 0.0
H1187 H 0.04068 0.40741 0.86302 0.0
C1188 C 0.12499 0.42141 0.81777 0.0
C1189 C 0.10981 0.41004 0.80017 0.0
C1190 C 0.11614 0.43254 0.838 0.0
C1191 C 0.09183 0.43266 0.84129 0.0
C1192 C 0.07669 0.42172 0.82346 0.0
H1193 H 0.02799 0.52974 0.93075 0.0
H1194 H 0.04485 0.50816 0.89845 0.0
C1195 C 0.0855 0.41046 0.80334 0.0
C1196 C 0.08245 0.4448 0.86286 0.0
H1197 H 0.04182 0.4389 0.90993 0.0
C1198 C 0.09166 0.46745 0.86745 0.0
C1199 C 0.06466 0.4343 0.87896 0.0
C1200 C 0.05503 0.40966 0.87647 0.0
C1201 C 0.08325 0.47992 0.887 0.0
C1202 C 0.0646 0.46976 0.90229 0.0
C1203 C 0.05585 0.44693 0.89816 0.0
C1204 C 0.05372 0.48263 0.92227 0.0
C1205 C 0.09483 0.50383 0.89126 0.0
C1206 C 0.05208 0.47524 0.94659 0.0
C1207 C 0.04207 0.48753 0.96521 0.0
C1208 C 0.03335 0.50745 0.95994 0.0
C1209 C 0.03469 0.51459 0.93557 0.0
C1210 C 0.04453 0.5023 0.91702 0.0
H1211 H 0.11306 0.50663 0.88366 0.0
H1212 H 0.08472 0.51532 0.88191 0.0
H1213 H 0.09538 0.50835 0.91103 0.0
H1214 H 0.05886 0.46009 0.95127 0.0
H1215 H 0.04149 0.48163 0.98373 0.0
H1216 H 0.62028 0.82424 0.90355 0.0
H1217 H 0.59578 0.8504 0.92184 0.0
H1218 H 0.63545 0.9047 0.88179 0.0
H1219 H 0.66003 0.87884 0.86364 0.0
H1220 H 0.60943 0.88847 0.95044 0.0
H1221 H 0.56765 0.9107 0.86597 0.0
H1222 H 0.58289 0.8867 0.86753 0.0
H1223 H 0.59913 0.91435 0.86359 0.0
C1224 C 0.62381 0.84177 0.8987 0.0
C1225 C 0.64198 0.84941 0.88196 0.0
C1226 C 0.60972 0.85665 0.90904 0.0
C1227 C 0.61348 0.87939 0.90276 0.0
C1228 C 0.6318 0.88711 0.88636 0.0
H1229 H 0.57843 0.99465 0.98198 0.0
H1230 H 0.59686 0.96558 0.96078 0.0
C1231 C 0.64585 0.87228 0.87602 0.0
C1232 C 0.59906 0.89538 0.91417 0.0
H1233 H 0.56454 0.93479 0.90093 0.0
C1234 C 0.59943 0.89844 0.93964 0.0
C1235 C 0.58575 0.90816 0.90008 0.0
C1236 C 0.58359 0.90469 0.8728 0.0
C1237 C 0.5876 0.91455 0.95133 0.0
C1238 C 0.57539 0.9282 0.93711 0.0
C1239 C 0.57421 0.92453 0.91174 0.0
C1240 C 0.56419 0.94664 0.94831 0.0
C1241 C 0.58829 0.91686 0.97882 0.0
C1242 C 0.53978 0.94614 0.94739 0.0
C1243 C 0.52914 0.96285 0.9594 0.0
C1244 C 0.5428 0.98039 0.97241 0.0
C1245 C 0.56736 0.98132 0.9723 0.0
C1246 C 0.57793 0.96464 0.96032 0.0
H1247 H 0.59277 0.90151 0.9873 0.0
H1248 H 0.60192 0.93113 0.984 0.0
H1249 H 0.57114 0.92027 0.9865 0.0
H1250 H 0.52889 0.93248 0.93801 0.0
H1251 H 0.51019 0.96165 0.95904 0.0
H1252 H 0.8516 0.17781 0.45106 0.0
H1253 H 0.87988 0.15545 0.4669 0.0
H1254 H 0.83907 0.09517 0.43765 0.0
H1255 H 0.81037 0.11727 0.42243 0.0
H1256 H 0.85065 0.09236 0.48651 0.0
H1257 H 0.92909 0.12424 0.42965 0.0
H1258 H 0.91557 0.14574 0.44514 0.0
H1259 H 0.89973 0.12846 0.42195 0.0
C1260 C 0.84868 0.15979 0.44799 0.0
C1261 C 0.82878 0.14929 0.43547 0.0
C1262 C 0.86497 0.14709 0.4568 0.0
C1263 C 0.86167 0.12373 0.45314 0.0
C1264 C 0.84198 0.11322 0.44047 0.0
H1265 H 0.95992 0.03216 0.48334 0.0
H1266 H 0.93285 0.05391 0.46409 0.0
C1267 C 0.8257 0.12589 0.43165 0.0
C1268 C 0.878 0.11004 0.46376 0.0
H1269 H 0.93521 0.10134 0.46305 0.0
C1270 C 0.86912 0.09423 0.48132 0.0
C1271 C 0.902 0.11243 0.45673 0.0
C1272 C 0.91219 0.12848 0.43717 0.0
C1273 C 0.88373 0.08095 0.49241 0.0
C1274 C 0.90787 0.08385 0.48596 0.0
C1275 C 0.91669 0.09935 0.46807 0.0
C1276 C 0.92425 0.07086 0.4976 0.0
C1277 C 0.87316 0.06378 0.51073 0.0
C1278 C 0.92848 0.07343 0.52272 0.0
C1279 C 0.94387 0.06105 0.53373 0.0
C1280 C 0.95533 0.04603 0.51972 0.0
C1281 C 0.95124 0.04361 0.49453 0.0
C1282 C 0.93586 0.05602 0.48353 0.0
H1283 H 0.85377 0.05984 0.50913 0.0
H1284 H 0.88077 0.04798 0.50834 0.0
H1285 H 0.8771 0.07051 0.52947 0.0
H1286 H 0.91996 0.08511 0.53377 0.0
H1287 H 0.94688 0.06331 0.55315 0.0
H1288 H 0.23254 0.67104 0.13361 0.0
H1289 H 0.19693 0.65083 0.11549 0.0
H1290 H 0.22092 0.58789 0.12862 0.0
H1291 H 0.25694 0.60806 0.14659 0.0
H1292 H 0.1918 0.62288 0.07499 0.0
H1293 H 0.15412 0.57586 0.15609 0.0
H1294 H 0.1779 0.59901 0.15829 0.0
H1295 H 0.18359 0.57177 0.14799 0.0
C1296 C 0.23047 0.65289 0.13261 0.0
C1297 C 0.24802 0.64135 0.14159 0.0
C1298 C 0.20986 0.64129 0.12228 0.0
C1299 C 0.20586 0.6177 0.12075 0.0
C1300 C 0.22316 0.60604 0.12992 0.0
H1301 H 0.08784 0.52229 0.0612 0.0
H1302 H 0.12494 0.53971 0.07929 0.0
C1303 C 0.24388 0.61767 0.14026 0.0
C1304 C 0.18397 0.60563 0.10884 0.0
H1305 H 0.13443 0.56728 0.11877 0.0
C1306 C 0.17928 0.61076 0.08465 0.0
C1307 C 0.16748 0.58962 0.12117 0.0
C1308 C 0.17082 0.58382 0.14738 0.0
C1309 C 0.15893 0.60037 0.07251 0.0
C1310 C 0.1422 0.58465 0.08497 0.0
C1311 C 0.14704 0.57929 0.10907 0.0
C1312 C 0.11949 0.57393 0.07349 0.0
C1313 C 0.15588 0.60603 0.04618 0.0
C1314 C 0.10361 0.58714 0.06425 0.0
C1315 C 0.08236 0.5772 0.05373 0.0
C1316 C 0.07611 0.55366 0.05229 0.0
C1317 C 0.09194 0.54044 0.06175 0.0
C1318 C 0.11324 0.55042 0.07224 0.0
H1319 H 0.173 0.61239 0.0372 0.0
H1320 H 0.14734 0.5912 0.03561 0.0
H1321 H 0.14467 0.61944 0.04543 0.0
H1322 H 0.10747 0.60528 0.06546 0.0
H1323 H 0.07068 0.58807 0.04698 0.0
H1324 H 0.28789 0.39102 0.6463 0.0
H1325 H 0.32454 0.40732 0.62583 0.0
H1326 H 0.29892 0.4708 0.62217 0.0
H1327 H 0.26264 0.45477 0.64338 0.0
H1328 H 0.33469 0.42351 0.58308 0.0
H1329 H 0.36164 0.49284 0.64909 0.0
H1330 H 0.33752 0.47083 0.65532 0.0
H1331 H 0.33324 0.49436 0.63706 0.0
C1332 C 0.29008 0.40848 0.64119 0.0
C1333 C 0.27232 0.4216 0.64673 0.0
C1334 C 0.31113 0.41784 0.62948 0.0
C1335 C 0.31498 0.44055 0.6228 0.0
C1336 C 0.29698 0.45351 0.6278 0.0
H1337 H 0.42169 0.49163 0.51266 0.0
H1338 H 0.38532 0.47753 0.53489 0.0
C1339 C 0.27608 0.44425 0.63984 0.0
C1340 C 0.33745 0.45035 0.60998 0.0
H1341 H 0.38235 0.49473 0.61077 0.0
C1342 C 0.34513 0.43903 0.58928 0.0
C1343 C 0.35155 0.47043 0.61812 0.0
C1344 C 0.34571 0.48268 0.64126 0.0
C1345 C 0.36602 0.44726 0.57641 0.0
C1346 C 0.37946 0.46795 0.58378 0.0
C1347 C 0.37202 0.47909 0.60474 0.0
C1348 C 0.40144 0.47806 0.57034 0.0
C1349 C 0.37375 0.43322 0.55545 0.0
C1350 C 0.42262 0.48446 0.58283 0.0
C1351 C 0.4434 0.49312 0.57015 0.0
C1352 C 0.44355 0.49546 0.54463 0.0
C1353 C 0.42225 0.48978 0.53227 0.0
C1354 C 0.40143 0.48146 0.54498 0.0
H1355 H 0.36624 0.41522 0.55727 0.0
H1356 H 0.36741 0.43907 0.53808 0.0
H1357 H 0.39319 0.43458 0.55428 0.0
H1358 H 0.42324 0.48228 0.60238 0.0
H1359 H 0.45949 0.49737 0.58025 0.0
H1360 H 0.81592 0.72605 0.84984 0.0
H1361 H 0.84122 0.7054 0.87262 0.0
H1362 H 0.78329 0.68165 0.92119 0.0
H1363 H 0.75738 0.70167 0.89768 0.0
H1364 H 0.85343 0.70966 0.92049 0.0
H1365 H 0.80713 0.62357 0.90025 0.0
H1366 H 0.80133 0.64779 0.88396 0.0
H1367 H 0.78928 0.64255 0.91418 0.0
C1368 C 0.80838 0.71617 0.86513 0.0
C1369 C 0.78448 0.7152 0.87167 0.0
C1370 C 0.82296 0.70452 0.87828 0.0
C1371 C 0.81408 0.69168 0.89835 0.0
C1372 C 0.79039 0.69108 0.90542 0.0
H1373 H 0.89019 0.61484 0.99432 0.0
H1374 H 0.86008 0.63365 0.97604 0.0
C1375 C 0.77567 0.70273 0.89215 0.0
C1376 C 0.83001 0.67928 0.91179 0.0
H1377 H 0.84013 0.6266 0.9257 0.0
C1378 C 0.85047 0.6915 0.9217 0.0
C1379 C 0.82611 0.65559 0.91333 0.0
C1380 C 0.80489 0.64152 0.90222 0.0
C1381 C 0.86726 0.68067 0.93285 0.0
C1382 C 0.86358 0.65701 0.93396 0.0
C1383 C 0.84287 0.64477 0.92468 0.0
C1384 C 0.88134 0.64474 0.94434 0.0
C1385 C 0.88888 0.69459 0.94334 0.0
C1386 C 0.90304 0.64443 0.93226 0.0
C1387 C 0.92024 0.63366 0.9426 0.0
C1388 C 0.91603 0.62315 0.96526 0.0
C1389 C 0.89404 0.62307 0.977 0.0
C1390 C 0.87679 0.63368 0.96656 0.0
H1391 H 0.88686 0.71259 0.94543 0.0
H1392 H 0.89285 0.68823 0.96144 0.0
H1393 H 0.90415 0.69334 0.93095 0.0
H1394 H 0.90675 0.65273 0.91496 0.0
H1395 H 0.93704 0.63409 0.9332 0.0
H1396 H 0.40345 0.78733 0.11575 0.0
H1397 H 0.41919 0.8226 0.09597 0.0
H1398 H 0.43621 0.85344 0.16639 0.0
H1399 H 0.42083 0.81816 0.18624 0.0
H1400 H 0.40835 0.86374 0.09657 0.0
H1401 H 0.49809 0.8702 0.13275 0.0
H1402 H 0.47675 0.84527 0.13607 0.0
H1403 H 0.47618 0.86896 0.15663 0.0
C1404 C 0.41047 0.80159 0.12714 0.0
C1405 C 0.41094 0.79953 0.15276 0.0
C1406 C 0.41958 0.82189 0.11571 0.0
C1407 C 0.42951 0.84091 0.12943 0.0
C1408 C 0.42947 0.83905 0.15506 0.0
H1409 H 0.45899 0.97849 0.06799 0.0
H1410 H 0.4404 0.94413 0.08832 0.0
C1411 C 0.42054 0.81871 0.1665 0.0
C1412 C 0.43967 0.86255 0.11697 0.0
H1413 H 0.48899 0.90222 0.1127 0.0
C1414 C 0.42602 0.87208 0.10013 0.0
C1415 C 0.4629 0.87361 0.12106 0.0
C1416 C 0.47943 0.86389 0.1374 0.0
C1417 C 0.4347 0.89209 0.08764 0.0
C1418 C 0.45766 0.90352 0.09234 0.0
C1419 C 0.47133 0.89389 0.10907 0.0
C1420 C 0.46839 0.92477 0.07944 0.0
C1421 C 0.41933 0.90032 0.06891 0.0
C1422 C 0.49063 0.92601 0.06791 0.0
C1423 C 0.50139 0.94576 0.05661 0.0
C1424 C 0.49035 0.9651 0.05635 0.0
C1425 C 0.46797 0.96393 0.06761 0.0
C1426 C 0.45723 0.94412 0.07915 0.0
H1427 H 0.40566 0.88663 0.06228 0.0
H1428 H 0.41022 0.91362 0.07737 0.0
H1429 H 0.42987 0.90747 0.05296 0.0
H1430 H 0.49982 0.91159 0.06764 0.0
H1431 H 0.51859 0.94591 0.04815 0.0
H1432 H 0.12177 0.26616 0.60559 0.0
H1433 H 0.10401 0.22957 0.58939 0.0
H1434 H 0.09152 0.20547 0.66275 0.0
H1435 H 0.10905 0.2423 0.67912 0.0
H1436 H 0.11759 0.18967 0.59272 0.0
H1437 H 0.0284 0.18398 0.63433 0.0
H1438 H 0.04896 0.20973 0.63463 0.0
H1439 H 0.05127 0.1883 0.65644 0.0
C1440 C 0.11517 0.25313 0.61836 0.0
C1441 C 0.11695 0.25731 0.64374 0.0
C1442 C 0.10493 0.23213 0.60902 0.0
C1443 C 0.09608 0.21458 0.62471 0.0
C1444 C 0.09762 0.21874 0.65011 0.0
H1445 H 0.03912 0.07267 0.59719 0.0
H1446 H 0.05512 0.10911 0.61558 0.0
C1447 C 0.10773 0.23987 0.65951 0.0
C1448 C 0.08627 0.19185 0.6143 0.0
H1449 H 0.03789 0.15096 0.61442 0.0
C1450 C 0.1001 0.18132 0.59744 0.0
C1451 C 0.06344 0.18068 0.62034 0.0
C1452 C 0.04705 0.19132 0.63724 0.0
C1453 C 0.09196 0.16012 0.58675 0.0
C1454 C 0.06916 0.14901 0.59277 0.0
C1455 C 0.05537 0.15937 0.60977 0.0
C1456 C 0.05929 0.12675 0.58144 0.0
C1457 C 0.10805 0.14961 0.56938 0.0
C1458 C 0.05597 0.12439 0.55607 0.0
C1459 C 0.04674 0.10355 0.54547 0.0
C1460 C 0.04056 0.08444 0.55995 0.0
C1461 C 0.04376 0.08689 0.58538 0.0
C1462 C 0.05287 0.10779 0.59598 0.0
H1463 H 0.1267 0.15735 0.57144 0.0
H1464 H 0.10662 0.13128 0.57233 0.0
H1465 H 0.10295 0.1521 0.55032 0.0
H1466 H 0.06036 0.13876 0.54442 0.0
H1467 H 0.04445 0.10246 0.52588 0.0
H1468 H 0.7001 0.27211 0.53006 0.0
H1469 H 0.67625 0.29755 0.55117 0.0
H1470 H 0.69721 0.34746 0.49656 0.0
H1471 H 0.72075 0.32212 0.47542 0.0
H1472 H 0.69129 0.36335 0.55038 0.0
H1473 H 0.61636 0.30615 0.50907 0.0
H1474 H 0.6373 0.29465 0.52714 0.0
H1475 H 0.64608 0.30619 0.49789 0.0
C1476 C 0.70022 0.28884 0.52317 0.0
C1477 C 0.71205 0.29526 0.50116 0.0
C1478 C 0.68661 0.30327 0.53515 0.0
C1479 C 0.68496 0.32425 0.52528 0.0
C1480 C 0.69841 0.33135 0.50447 0.0
H1481 H 0.61766 0.43271 0.5035 0.0
H1482 H 0.64459 0.40731 0.51485 0.0
C1483 C 0.71175 0.3169 0.4924 0.0
C1484 C 0.66656 0.33738 0.53366 0.0
H1485 H 0.6095 0.34167 0.52229 0.0
C1486 C 0.67322 0.35844 0.54489 0.0
C1487 C 0.64302 0.33078 0.52663 0.0
C1488 C 0.63508 0.30825 0.51446 0.0
C1489 C 0.65718 0.37371 0.54788 0.0
C1490 C 0.63423 0.36794 0.53864 0.0
C1491 C 0.62712 0.34616 0.52925 0.0
C1492 C 0.6185 0.3849 0.53511 0.0
C1493 C 0.66522 0.3961 0.5602 0.0
C1494 C 0.5947 0.3806 0.54229 0.0
C1495 C 0.57913 0.39492 0.53535 0.0
C1496 C 0.58715 0.41381 0.5212 0.0
C1497 C 0.61108 0.41845 0.5147 0.0
C1498 C 0.62655 0.40404 0.5214 0.0
H1499 H 0.67825 0.39449 0.5745 0.0
H1500 H 0.67401 0.40797 0.54647 0.0
H1501 H 0.65028 0.40332 0.56872 0.0
H1502 H 0.58805 0.36581 0.55265 0.0
H1503 H 0.56079 0.39109 0.54077 0.0
loop_
_geom_bond_atom_site_label_1
_geom_bond_atom_site_label_2
_geom_bond_distance
_geom_bond_site_symmetry_2
_ccdc_geom_bond_type
C0 C1 1.391 . S
C0 C4 1.391 . S
C0 H42 0.948 . S
C1 C0 1.391 . S
C1 C2 1.391 . S
C2 C1 1.391 . S
C2 H58 0.947 . S
C2 C59 1.392 . S
C3 C4 1.391 . S
C3 C7 1.397 . S
C3 C59 1.419 . S
C4 C0 1.391 . S
C4 C3 1.391 . S
C4 C5 1.399 . S
C5 C4 1.399 . S
C5 C8 1.396 . S
C5 C17 1.453 . S
C5 C18 1.684 . S
H6 C30 0.948 . S
C7 C3 1.397 . S
C7 C8 1.394 . S
C7 C26 1.723 . S
C8 C5 1.396 . S
C8 C7 1.394 . S
C8 C38 1.723 . S
H9 C32 0.947 . S
H10 C33 0.948 . S
H11 C39 0.982 . S
H12 C40 0.979 . S
H13 C40 0.980 . S
H14 C40 0.983 . S
H15 C39 0.979 . S
H16 C39 0.977 . S
C17 C5 1.453 . S
C17 H46 0.982 . S
C17 H47 0.979 . S
C17 H48 0.977 . S
C18 C5 1.684 . S
C18 H43 0.979 . S
C18 H44 0.980 . S
C18 H45 0.983 . S
C19 C20 1.391 . S
C19 C24 1.391 . S
C19 H49 0.948 . S
C20 C19 1.391 . S
C20 C21 1.391 . S
C21 C20 1.391 . S
C21 C22 1.392 . S
C21 H50 0.947 . S
C22 C21 1.392 . S
C22 C23 1.419 . S
C22 H51 0.948 . S
C23 C22 1.419 . S
C23 C24 1.391 . S
C23 C27 1.397 . S
C24 C19 1.391 . S
C24 C23 1.391 . S
C24 C25 1.399 . S
C25 C24 1.399 . S
C25 C26 1.396 . S
C25 C28 1.453 . S
C25 C29 1.684 . S
C26 C7 1.723 . S
C26 C25 1.396 . S
C26 C27 1.394 . S
C27 C23 1.397 . S
C27 C26 1.394 . S
C27 C37 1.723 . S
C28 C25 1.453 . S
C28 H52 0.982 . S
C28 H53 0.979 . S
C28 H54 0.977 . S
C29 C25 1.684 . S
C29 H55 0.979 . S
C29 H56 0.980 . S
C29 H57 0.983 . S
C30 H6 0.948 . S
C30 C31 1.391 . S
C30 C35 1.391 . S
C31 C30 1.391 . S
C31 C32 1.391 . S
C32 H9 0.947 . S
C32 C31 1.391 . S
C32 C33 1.392 . S
C33 H10 0.948 . S
C33 C32 1.392 . S
C33 C34 1.419 . S
C34 C33 1.419 . S
C34 C35 1.391 . S
C34 C38 1.397 . S
C35 C30 1.391 . S
C35 C34 1.391 . S
C35 C36 1.399 . S
C36 C35 1.399 . S
C36 C37 1.396 . S
C36 C39 1.453 . S
C36 C40 1.684 . S
C37 C27 1.723 . S
C37 C36 1.396 . S
C37 C38 1.394 . S
C38 C8 1.723 . S
C38 C34 1.397 . S
C38 C37 1.394 . S
C39 H11 0.982 . S
C39 H15 0.979 . S
C39 H16 0.977 . S
C39 C36 1.453 . S
C40 H12 0.979 . S
C40 H13 0.980 . S
C40 H14 0.983 . S
C40 C36 1.684 . S
H41 C59 0.948 . S
H42 C0 0.948 . S
H43 C18 0.979 . S
H44 C18 0.980 . S
H45 C18 0.983 . S
H46 C17 0.982 . S
H47 C17 0.979 . S
H48 C17 0.977 . S
H49 C19 0.948 . S
H50 C21 0.947 . S
H51 C22 0.948 . S
H52 C28 0.982 . S
H53 C28 0.979 . S
H54 C28 0.977 . S
H55 C29 0.979 . S
H56 C29 0.980 . S
H57 C29 0.983 . S
H58 C2 0.947 . S
C59 C2 1.392 . S
C59 C3 1.419 . S
C59 H41 0.948 . S
C60 C61 1.391 . S
C60 C64 1.391 . S
C60 H102 0.948 . S
C61 C60 1.391 . S
C61 C62 1.391 . S
C62 C61 1.391 . S
C62 H118 0.947 . S
C62 C119 1.392 . S
C63 C64 1.391 . S
C63 C67 1.397 . S
C63 C119 1.419 . S
C64 C60 1.391 . S
C64 C63 1.391 . S
C64 C65 1.399 . S
C65 C64 1.399 . S
C65 C68 1.396 . S
C65 C77 1.453 . S
C65 C78 1.684 . S
H66 C90 0.948 . S
C67 C63 1.397 . S
C67 C68 1.394 . S
C67 C86 1.723 . S
C68 C65 1.396 . S
C68 C67 1.394 . S
C68 C98 1.723 . S
H69 C92 0.947 . S
H70 C93 0.948 . S
H71 C99 0.982 . S
H72 C100 0.979 . S
H73 C100 0.980 . S
H74 C100 0.983 . S
H75 C99 0.979 . S
H76 C99 0.977 . S
C77 C65 1.453 . S
C77 H106 0.982 . S
C77 H107 0.979 . S
C77 H108 0.977 . S
C78 C65 1.684 . S
C78 H103 0.979 . S
C78 H104 0.980 . S
C78 H105 0.983 . S
C79 C80 1.391 . S
C79 C84 1.391 . S
C79 H109 0.948 . S
C80 C79 1.391 . S
C80 C81 1.391 . S
C81 C80 1.391 . S
C81 C82 1.392 . S
C81 H110 0.947 . S
C82 C81 1.392 . S
C82 C83 1.419 . S
C82 H111 0.948 . S
C83 C82 1.419 . S
C83 C84 1.391 . S
C83 C87 1.397 . S
C84 C79 1.391 . S
C84 C83 1.391 . S
C84 C85 1.399 . S
C85 C84 1.399 . S
C85 C86 1.396 . S
C85 C88 1.453 . S
C85 C89 1.684 . S
C86 C67 1.723 . S
C86 C85 1.396 . S
C86 C87 1.394 . S
C87 C83 1.397 . S
C87 C86 1.394 . S
C87 C97 1.723 . S
C88 C85 1.453 . S
C88 H112 0.982 . S
C88 H113 0.979 . S
C88 H114 0.977 . S
C89 C85 1.684 . S
C89 H115 0.979 . S
C89 H116 0.980 . S
C89 H117 0.983 . S
C90 H66 0.948 . S
C90 C91 1.391 . S
C90 C95 1.391 . S
C91 C90 1.391 . S
C91 C92 1.391 . S
C92 H69 0.947 . S
C92 C91 1.391 . S
C92 C93 1.392 . S
C93 H70 0.948 . S
C93 C92 1.392 . S
C93 C94 1.419 . S
C94 C93 1.419 . S
C94 C95 1.391 . S
C94 C98 1.397 . S
C95 C90 1.391 . S
C95 C94 1.391 . S
C95 C96 1.399 . S
C96 C95 1.399 . S
C96 C97 1.396 . S
C96 C99 1.453 . S
C96 C100 1.684 . S
C97 C87 1.723 . S
C97 C96 1.396 . S
C97 C98 1.394 . S
C98 C68 1.723 . S
C98 C94 1.397 . S
C98 C97 1.394 . S
C99 H71 0.982 . S
C99 H75 0.979 . S
C99 H76 0.977 . S
C99 C96 1.453 . S
C100 H72 0.979 . S
C100 H73 0.980 . S
C100 H74 0.983 . S
C100 C96 1.684 . S
H101 C119 0.948 . S
H102 C60 0.948 . S
H103 C78 0.979 . S
H104 C78 0.980 . S
H105 C78 0.983 . S
H106 C77 0.982 . S
H107 C77 0.979 . S
H108 C77 0.977 . S
H109 C79 0.948 . S
H110 C81 0.947 . S
H111 C82 0.948 . S
H112 C88 0.982 . S
H113 C88 0.979 . S
H114 C88 0.977 . S
H115 C89 0.979 . S
H116 C89 0.980 . S
H117 C89 0.983 . S
H118 C62 0.947 . S
C119 C62 1.392 . S
C119 C63 1.419 . S
C119 H101 0.948 . S
C120 C121 1.391 . S
C120 C124 1.391 . S
C120 H162 0.948 . S
C121 C120 1.391 . S
C121 C122 1.391 . S
C122 C121 1.391 . S
C122 H178 0.947 . S
C122 C179 1.392 . S
C123 C124 1.391 . S
C123 C127 1.397 . S
C123 C179 1.419 . S
C124 C120 1.391 . S
C124 C123 1.391 . S
C124 C125 1.399 . S
C125 C124 1.399 . S
C125 C128 1.396 . S
C125 C137 1.453 . S
C125 C138 1.684 . S
H126 C150 0.948 . S
C127 C123 1.397 . S
C127 C128 1.394 . S
C127 C146 1.723 . S
C128 C125 1.396 . S
C128 C127 1.394 . S
C128 C158 1.723 . S
H129 C152 0.947 . S
H130 C153 0.948 . S
H131 C159 0.982 . S
H132 C160 0.979 . S
H133 C160 0.980 . S
H134 C160 0.983 . S
H135 C159 0.979 . S
H136 C159 0.977 . S
C137 C125 1.453 . S
C137 H166 0.982 . S
C137 H167 0.979 . S
C137 H168 0.977 . S
C138 C125 1.684 . S
C138 H163 0.979 . S
C138 H164 0.980 . S
C138 H165 0.983 . S
C139 C140 1.391 . S
C139 C144 1.391 . S
C139 H169 0.948 . S
C140 C139 1.391 . S
C140 C141 1.391 . S
C141 C140 1.391 . S
C141 C142 1.392 . S
C141 H170 0.947 . S
C142 C141 1.392 . S
C142 C143 1.419 . S
C142 H171 0.948 . S
C143 C142 1.419 . S
C143 C144 1.391 . S
C143 C147 1.397 . S
C144 C139 1.391 . S
C144 C143 1.391 . S
C144 C145 1.399 . S
C145 C144 1.399 . S
C145 C146 1.396 . S
C145 C148 1.453 . S
C145 C149 1.684 . S
C146 C127 1.723 . S
C146 C145 1.396 . S
C146 C147 1.394 . S
C147 C143 1.397 . S
C147 C146 1.394 . S
C147 C157 1.723 . S
C148 C145 1.453 . S
C148 H172 0.982 . S
C148 H173 0.979 . S
C148 H174 0.977 . S
C149 C145 1.684 . S
C149 H175 0.979 . S
C149 H176 0.980 . S
C149 H177 0.983 . S
C150 H126 0.948 . S
C150 C151 1.391 . S
C150 C155 1.391 . S
C151 C150 1.391 . S
C151 C152 1.391 . S
C152 H129 0.947 . S
C152 C151 1.391 . S
C152 C153 1.392 . S
C153 H130 0.948 . S
C153 C152 1.392 . S
C153 C154 1.419 . S
C154 C153 1.419 . S
C154 C155 1.391 . S
C154 C158 1.397 . S
C155 C150 1.391 . S
C155 C154 1.391 . S
C155 C156 1.399 . S
C156 C155 1.399 . S
C156 C157 1.396 . S
C156 C159 1.453 . S
C156 C160 1.684 . S
C157 C147 1.723 . S
C157 C156 1.396 . S
C157 C158 1.394 . S
C158 C128 1.723 . S
C158 C154 1.397 . S
C158 C157 1.394 . S
C159 H131 0.982 . S
C159 H135 0.979 . S
C159 H136 0.977 . S
C159 C156 1.453 . S
C160 H132 0.979 . S
C160 H133 0.980 . S
C160 H134 0.983 . S
C160 C156 1.684 . S
H161 C179 0.948 . S
H162 C120 0.948 . S
H163 C138 0.979 . S
H164 C138 0.980 . S
H165 C138 0.983 . S
H166 C137 0.982 . S
H167 C137 0.979 . S
H168 C137 0.977 . S
H169 C139 0.948 . S
H170 C141 0.947 . S
H171 C142 0.948 . S
H172 C148 0.982 . S
H173 C148 0.979 . S
H174 C148 0.977 . S
H175 C149 0.979 . S
H176 C149 0.980 . S
H177 C149 0.983 . S
H178 C122 0.947 . S
C179 C122 1.392 . S
C179 C123 1.419 . S
C179 H161 0.948 . S
C180 C181 1.391 . S
C180 C184 1.391 . S
C180 H222 0.948 . S
C181 C180 1.391 . S
C181 C182 1.391 . S
C182 C181 1.391 . S
C182 H238 0.947 . S
C182 C239 1.392 . S
C183 C184 1.391 . S
C183 C187 1.397 . S
C183 C239 1.419 . S
C184 C180 1.391 . S
C184 C183 1.391 . S
C184 C185 1.399 . S
C185 C184 1.399 . S
C185 C188 1.396 . S
C185 C197 1.453 . S
C185 C198 1.684 . S
H186 C210 0.948 . S
C187 C183 1.397 . S
C187 C188 1.394 . S
C187 C206 1.723 . S
C188 C185 1.396 . S
C188 C187 1.394 . S
C188 C218 1.723 . S
H189 C212 0.947 . S
H190 C213 0.948 . S
H191 C219 0.982 . S
H192 C220 0.979 . S
H193 C220 0.980 . S
H194 C220 0.983 . S
H195 C219 0.979 . S
H196 C219 0.977 . S
C197 C185 1.453 . S
C197 H226 0.982 . S
C197 H227 0.979 . S
C197 H228 0.977 . S
C198 C185 1.684 . S
C198 H223 0.979 . S
C198 H224 0.980 . S
C198 H225 0.983 . S
C199 C200 1.391 . S
C199 C204 1.391 . S
C199 H229 0.948 . S
C200 C199 1.391 . S
C200 C201 1.391 . S
C201 C200 1.391 . S
C201 C202 1.392 . S
C201 H230 0.947 . S
C202 C201 1.392 . S
C202 C203 1.419 . S
C202 H231 0.948 . S
C203 C202 1.419 . S
C203 C204 1.391 . S
C203 C207 1.397 . S
C204 C199 1.391 . S
C204 C203 1.391 . S
C204 C205 1.399 . S
C205 C204 1.399 . S
C205 C206 1.396 . S
C205 C208 1.453 . S
C205 C209 1.684 . S
C206 C187 1.723 . S
C206 C205 1.396 . S
C206 C207 1.394 . S
C207 C203 1.397 . S
C207 C206 1.394 . S
C207 C217 1.723 . S
C208 C205 1.453 . S
C208 H232 0.982 . S
C208 H233 0.979 . S
C208 H234 0.977 . S
C209 C205 1.684 . S
C209 H235 0.979 . S
C209 H236 0.980 . S
C209 H237 0.983 . S
C210 H186 0.948 . S
C210 C211 1.391 . S
C210 C215 1.391 . S
C211 C210 1.391 . S
C211 C212 1.391 . S
C212 H189 0.947 . S
C212 C211 1.391 . S
C212 C213 1.392 . S
C213 H190 0.948 . S
C213 C212 1.392 . S
C213 C214 1.419 . S
C214 C213 1.419 . S
C214 C215 1.391 . S
C214 C218 1.397 . S
C215 C210 1.391 . S
C215 C214 1.391 . S
C215 C216 1.399 . S
C216 C215 1.399 . S
C216 C217 1.396 . S
C216 C219 1.453 . S
C216 C220 1.684 . S
C217 C207 1.723 . S
C217 C216 1.396 . S
C217 C218 1.394 . S
C218 C188 1.723 . S
C218 C214 1.397 . S
C218 C217 1.394 . S
C219 H191 0.982 . S
C219 H195 0.979 . S
C219 H196 0.977 . S
C219 C216 1.453 . S
C220 H192 0.979 . S
C220 H193 0.980 . S
C220 H194 0.983 . S
C220 C216 1.684 . S
H221 C239 0.948 . S
H222 C180 0.948 . S
H223 C198 0.979 . S
H224 C198 0.980 . S
H225 C198 0.983 . S
H226 C197 0.982 . S
H227 C197 0.979 . S
H228 C197 0.977 . S
H229 C199 0.948 . S
H230 C201 0.947 . S
H231 C202 0.948 . S
H232 C208 0.982 . S
H233 C208 0.979 . S
H234 C208 0.977 . S
H235 C209 0.979 . S
H236 C209 0.980 . S
H237 C209 0.983 . S
H238 C182 0.947 . S
C239 C182 1.392 . S
C239 C183 1.419 . S
C239 H221 0.948 . S
C240 C241 1.391 . S
C240 C244 1.391 . S
C240 H282 0.948 . S
C241 C240 1.391 . S
C241 C242 1.391 . S
C242 C241 1.391 . S
C242 H298 0.947 . S
C242 C299 1.392 . S
C243 C244 1.391 . S
C243 C247 1.397 . S
C243 C299 1.419 . S
C244 C240 1.391 . S
C244 C243 1.391 . S
C244 C245 1.399 . S
C245 C244 1.399 . S
C245 C248 1.396 . S
C245 C257 1.453 . S
C245 C258 1.684 . S
H246 C270 0.948 . S
C247 C243 1.397 . S
C247 C248 1.394 . S
C247 C266 1.723 . S
C248 C245 1.396 . S
C248 C247 1.394 . S
C248 C278 1.723 . S
H249 C272 0.947 . S
H250 C273 0.948 . S
H251 C279 0.982 . S
H252 C280 0.979 . S
H253 C280 0.980 . S
H254 C280 0.983 . S
H255 C279 0.979 . S
H256 C279 0.977 . S
C257 C245 1.453 . S
C257 H286 0.982 . S
C257 H287 0.979 . S
C257 H288 0.977 . S
C258 C245 1.684 . S
C258 H283 0.979 . S
C258 H284 0.980 . S
C258 H285 0.983 . S
C259 C260 1.391 . S
C259 C264 1.391 . S
C259 H289 0.948 . S
C260 C259 1.391 . S
C260 C261 1.391 . S
C261 C260 1.391 . S
C261 C262 1.392 . S
C261 H290 0.947 . S
C262 C261 1.392 . S
C262 C263 1.419 . S
C262 H291 0.948 . S
C263 C262 1.419 . S
C263 C264 1.391 . S
C263 C267 1.397 . S
C264 C259 1.391 . S
C264 C263 1.391 . S
C264 C265 1.399 . S
C265 C264 1.399 . S
C265 C266 1.396 . S
C265 C268 1.453 . S
C265 C269 1.684 . S
C266 C247 1.723 . S
C266 C265 1.396 . S
C266 C267 1.394 . S
C267 C263 1.397 . S
C267 C266 1.394 . S
C267 C277 1.723 . S
C268 C265 1.453 . S
C268 H292 0.982 . S
C268 H293 0.979 . S
C268 H294 0.977 . S
C269 C265 1.684 . S
C269 H295 0.979 . S
C269 H296 0.980 . S
C269 H297 0.983 . S
C270 H246 0.948 . S
C270 C271 1.391 . S
C270 C275 1.391 . S
C271 C270 1.391 . S
C271 C272 1.391 . S
C272 H249 0.947 . S
C272 C271 1.391 . S
C272 C273 1.392 . S
C273 H250 0.948 . S
C273 C272 1.392 . S
C273 C274 1.419 . S
C274 C273 1.419 . S
C274 C275 1.391 . S
C274 C278 1.397 . S
C275 C270 1.391 . S
C275 C274 1.391 . S
C275 C276 1.399 . S
C276 C275 1.399 . S
C276 C277 1.396 . S
C276 C279 1.453 . S
C276 C280 1.684 . S
C277 C267 1.723 . S
C277 C276 1.396 . S
C277 C278 1.394 . S
C278 C248 1.723 . S
C278 C274 1.397 . S
C278 C277 1.394 . S
C279 H251 0.982 . S
C279 H255 0.979 . S
C279 H256 0.977 . S
C279 C276 1.453 . S
C280 H252 0.979 . S
C280 H253 0.980 . S
C280 H254 0.983 . S
C280 C276 1.684 . S
H281 C299 0.948 . S
H282 C240 0.948 . S
H283 C258 0.979 . S
H284 C258 0.980 . S
H285 C258 0.983 . S
H286 C257 0.982 . S
H287 C257 0.979 . S
H288 C257 0.977 . S
H289 C259 0.948 . S
H290 C261 0.947 . S
H291 C262 0.948 . S
H292 C268 0.982 . S
H293 C268 0.979 . S
H294 C268 0.977 . S
H295 C269 0.979 . S
H296 C269 0.980 . S
H297 C269 0.983 . S
H298 C242 0.947 . S
C299 C242 1.392 . S
C299 C243 1.419 . S
C299 H281 0.948 . S
C300 C301 1.391 . S
C300 C304 1.391 . S
C300 H342 0.948 . S
C301 C300 1.391 . S
C301 C302 1.391 . S
C302 C301 1.391 . S
C302 H358 0.947 . S
C302 C359 1.392 . S
C303 C304 1.391 . S
C303 C307 1.397 . S
C303 C359 1.419 . S
C304 C300 1.391 . S
C304 C303 1.391 . S
C304 C305 1.399 . S
C305 C304 1.399 . S
C305 C308 1.396 . S
C305 C317 1.453 . S
C305 C318 1.684 . S
H306 C330 0.948 . S
C307 C303 1.397 . S
C307 C308 1.394 . S
C307 C326 1.723 . S
C308 C305 1.396 . S
C308 C307 1.394 . S
C308 C338 1.723 . S
H309 C332 0.947 . S
H310 C333 0.948 . S
H311 C339 0.982 . S
H312 C340 0.979 . S
H313 C340 0.980 . S
H314 C340 0.983 . S
H315 C339 0.979 . S
H316 C339 0.977 . S
C317 C305 1.453 . S
C317 H346 0.982 . S
C317 H347 0.979 . S
C317 H348 0.977 . S
C318 C305 1.684 . S
C318 H343 0.979 . S
C318 H344 0.980 . S
C318 H345 0.983 . S
C319 C320 1.391 . S
C319 C324 1.391 . S
C319 H349 0.948 . S
C320 C319 1.391 . S
C320 C321 1.391 . S
C321 C320 1.391 . S
C321 C322 1.392 . S
C321 H350 0.947 . S
C322 C321 1.392 . S
C322 C323 1.419 . S
C322 H351 0.948 . S
C323 C322 1.419 . S
C323 C324 1.391 . S
C323 C327 1.397 . S
C324 C319 1.391 . S
C324 C323 1.391 . S
C324 C325 1.399 . S
C325 C324 1.399 . S
C325 C326 1.396 . S
C325 C328 1.453 . S
C325 C329 1.684 . S
C326 C307 1.723 . S
C326 C325 1.396 . S
C326 C327 1.394 . S
C327 C323 1.397 . S
C327 C326 1.394 . S
C327 C337 1.723 . S
C328 C325 1.453 . S
C328 H352 0.982 . S
C328 H353 0.979 . S
C328 H354 0.977 . S
C329 C325 1.684 . S
C329 H355 0.979 . S
C329 H356 0.980 . S
C329 H357 0.983 . S
C330 H306 0.948 . S
C330 C331 1.391 . S
C330 C335 1.391 . S
C331 C330 1.391 . S
C331 C332 1.391 . S
C332 H309 0.947 . S
C332 C331 1.391 . S
C332 C333 1.392 . S
C333 H310 0.948 . S
C333 C332 1.392 . S
C333 C334 1.419 . S
C334 C333 1.419 . S
C334 C335 1.391 . S
C334 C338 1.397 . S
C335 C330 1.391 . S
C335 C334 1.391 . S
C335 C336 1.399 . S
C336 C335 1.399 . S
C336 C337 1.396 . S
C336 C339 1.453 . S
C336 C340 1.684 . S
C337 C327 1.723 . S
C337 C336 1.396 . S
C337 C338 1.394 . S
C338 C308 1.723 . S
C338 C334 1.397 . S
C338 C337 1.394 . S
C339 H311 0.982 . S
C339 H315 0.979 . S
C339 H316 0.977 . S
C339 C336 1.453 . S
C340 H312 0.979 . S
C340 H313 0.980 . S
C340 H314 0.983 . S
C340 C336 1.684 . S
H341 C359 0.948 . S
H342 C300 0.948 . S
H343 C318 0.979 . S
H344 C318 0.980 . S
H345 C318 0.983 . S
H346 C317 0.982 . S
H347 C317 0.979 . S
H348 C317 0.977 . S
H349 C319 0.948 . S
H350 C321 0.947 . S
H351 C322 0.948 . S
H352 C328 0.982 . S
H353 C328 0.979 . S
H354 C328 0.977 . S
H355 C329 0.979 . S
H356 C329 0.980 . S
H357 C329 0.983 . S
H358 C302 0.947 . S
C359 C302 1.392 . S
C359 C303 1.419 . S
C359 H341 0.948 . S
C360 C361 1.391 . S
C360 C364 1.391 . S
C360 H402 0.948 . S
C361 C360 1.391 . S
C361 C362 1.391 . S
C362 C361 1.391 . S
C362 H418 0.947 . S
C362 C419 1.392 . S
C363 C364 1.391 . S
C363 C367 1.397 . S
C363 C419 1.419 . S
C364 C360 1.391 . S
C364 C363 1.391 . S
C364 C365 1.399 . S
C365 C364 1.399 . S
C365 C368 1.396 . S
C365 C377 1.453 . S
C365 C378 1.684 . S
H366 C390 0.948 . S
C367 C363 1.397 . S
C367 C368 1.394 . S
C367 C386 1.723 . S
C368 C365 1.396 . S
C368 C367 1.394 . S
C368 C398 1.723 . S
H369 C392 0.947 . S
H370 C393 0.948 . S
H371 C399 0.982 . S
H372 C400 0.979 . S
H373 C400 0.980 . S
H374 C400 0.983 . S
H375 C399 0.979 . S
H376 C399 0.977 . S
C377 C365 1.453 . S
C377 H406 0.982 . S
C377 H407 0.979 . S
C377 H408 0.977 . S
C378 C365 1.684 . S
C378 H403 0.979 . S
C378 H404 0.980 . S
C378 H405 0.983 . S
C379 C380 1.391 . S
C379 C384 1.391 . S
C379 H409 0.948 . S
C380 C379 1.391 . S
C380 C381 1.391 . S
C381 C380 1.391 . S
C381 C382 1.392 . S
C381 H410 0.947 . S
C382 C381 1.392 . S
C382 C383 1.419 . S
C382 H411 0.948 . S
C383 C382 1.419 . S
C383 C384 1.391 . S
C383 C387 1.397 . S
C384 C379 1.391 . S
C384 C383 1.391 . S
C384 C385 1.399 . S
C385 C384 1.399 . S
C385 C386 1.396 . S
C385 C388 1.453 . S
C385 C389 1.684 . S
C386 C367 1.723 . S
C386 C385 1.396 . S
C386 C387 1.394 . S
C387 C383 1.397 . S
C387 C386 1.394 . S
C387 C397 1.723 . S
C388 C385 1.453 . S
C388 H412 0.982 . S
C388 H413 0.979 . S
C388 H414 0.977 . S
C389 C385 1.684 . S
C389 H415 0.979 . S
C389 H416 0.980 . S
C389 H417 0.983 . S
C390 H366 0.948 . S
C390 C391 1.391 . S
C390 C395 1.391 . S
C391 C390 1.391 . S
C391 C392 1.391 . S
C392 H369 0.947 . S
C392 C391 1.391 . S
C392 C393 1.392 . S
C393 H370 0.948 . S
C393 C392 1.392 . S
C393 C394 1.419 . S
C394 C393 1.419 . S
C394 C395 1.391 . S
C394 C398 1.397 . S
C395 C390 1.391 . S
C395 C394 1.391 . S
C395 C396 1.399 . S
C396 C395 1.399 . S
C396 C397 1.396 . S
C396 C399 1.453 . S
C396 C400 1.684 . S
C397 C387 1.723 . S
C397 C396 1.396 . S
C397 C398 1.394 . S
C398 C368 1.723 . S
C398 C394 1.397 . S
C398 C397 1.394 . S
C399 H371 0.982 . S
C399 H375 0.979 . S
C399 H376 0.977 . S
C399 C396 1.453 . S
C400 H372 0.979 . S
C400 H373 0.980 . S
C400 H374 0.983 . S
C400 C396 1.684 . S
H401 C419 0.948 . S
H402 C360 0.948 . S
H403 C378 0.979 . S
H404 C378 0.980 . S
H405 C378 0.983 . S
H406 C377 0.982 . S
H407 C377 0.979 . S
H408 C377 0.977 . S
H409 C379 0.948 . S
H410 C381 0.947 . S
H411 C382 0.948 . S
H412 C388 0.982 . S
H413 C388 0.979 . S
H414 C388 0.977 . S
H415 C389 0.979 . S
H416 C389 0.980 . S
H417 C389 0.983 . S
H418 C362 0.947 . S
C419 C362 1.392 . S
C419 C363 1.419 . S
C419 H401 0.948 . S
C420 C421 1.391 . S
C420 C424 1.391 . S
C420 H462 0.948 . S
C421 C420 1.391 . S
C421 C422 1.391 . S
C422 C421 1.391 . S
C422 H478 0.947 . S
C422 C479 1.392 . S
C423 C424 1.391 . S
C423 C427 1.397 . S
C423 C479 1.419 . S
C424 C420 1.391 . S
C424 C423 1.391 . S
C424 C425 1.399 . S
C425 C424 1.399 . S
C425 C428 1.396 . S
C425 C437 1.453 . S
C425 C438 1.684 . S
H426 C450 0.948 . S
C427 C423 1.397 . S
C427 C428 1.394 . S
C427 C446 1.723 . S
C428 C425 1.396 . S
C428 C427 1.394 . S
C428 C458 1.723 . S
H429 C452 0.947 . S
H430 C453 0.948 . S
H431 C459 0.982 . S
H432 C460 0.979 . S
H433 C460 0.980 . S
H434 C460 0.983 . S
H435 C459 0.979 . S
H436 C459 0.977 . S
C437 C425 1.453 . S
C437 H466 0.982 . S
C437 H467 0.979 . S
C437 H468 0.977 . S
C438 C425 1.684 . S
C438 H463 0.979 . S
C438 H464 0.980 . S
C438 H465 0.983 . S
C439 C440 1.391 . S
C439 C444 1.391 . S
C439 H469 0.948 . S
C440 C439 1.391 . S
C440 C441 1.391 . S
C441 C440 1.391 . S
C441 C442 1.392 . S
C441 H470 0.947 . S
C442 C441 1.392 . S
C442 C443 1.419 . S
C442 H471 0.948 . S
C443 C442 1.419 . S
C443 C444 1.391 . S
C443 C447 1.397 . S
C444 C439 1.391 . S
C444 C443 1.391 . S
C444 C445 1.399 . S
C445 C444 1.399 . S
C445 C446 1.396 . S
C445 C448 1.453 . S
C445 C449 1.684 . S
C446 C427 1.723 . S
C446 C445 1.396 . S
C446 C447 1.394 . S
C447 C443 1.397 . S
C447 C446 1.394 . S
C447 C457 1.723 . S
C448 C445 1.453 . S
C448 H472 0.982 . S
C448 H473 0.979 . S
C448 H474 0.977 . S
C449 C445 1.684 . S
C449 H475 0.979 . S
C449 H476 0.980 . S
C449 H477 0.983 . S
C450 H426 0.948 . S
C450 C451 1.391 . S
C450 C455 1.391 . S
C451 C450 1.391 . S
C451 C452 1.391 . S
C452 H429 0.947 . S
C452 C451 1.391 . S
C452 C453 1.392 . S
C453 H430 0.948 . S
C453 C452 1.392 . S
C453 C454 1.419 . S
C454 C453 1.419 . S
C454 C455 1.391 . S
C454 C458 1.397 . S
C455 C450 1.391 . S
C455 C454 1.391 . S
C455 C456 1.399 . S
C456 C455 1.399 . S
C456 C457 1.396 . S
C456 C459 1.453 . S
C456 C460 1.684 . S
C457 C447 1.723 . S
C457 C456 1.396 . S
C457 C458 1.394 . S
C458 C428 1.723 . S
C458 C454 1.397 . S
C458 C457 1.394 . S
C459 H431 0.982 . S
C459 H435 0.979 . S
C459 H436 0.977 . S
C459 C456 1.453 . S
C460 H432 0.979 . S
C460 H433 0.980 . S
C460 H434 0.983 . S
C460 C456 1.684 . S
H461 C479 0.948 . S
H462 C420 0.948 . S
H463 C438 0.979 . S
H464 C438 0.980 . S
H465 C438 0.983 . S
H466 C437 0.982 . S
H467 C437 0.979 . S
H468 C437 0.977 . S
H469 C439 0.948 . S
H470 C441 0.947 . S
H471 C442 0.948 . S
H472 C448 0.982 . S
H473 C448 0.979 . S
H474 C448 0.977 . S
H475 C449 0.979 . S
H476 C449 0.980 . S
H477 C449 0.983 . S
H478 C422 0.947 . S
C479 C422 1.392 . S
C479 C423 1.419 . S
C479 H461 0.948 . S
Gd480 C483 2.818 . S
Gd480 O500 2.377 . S
Gd480 O502 2.448 . S
Gd480 O503 2.506 . S
Gd480 O504 2.435 1_545 S
Gd480 O505 2.717 1_545 S
Gd480 O507 2.395 1_445 S
Gd480 O511 2.327 1_455 S
Gd481 C492 2.818 . S
Gd481 O501 2.395 1_665 S
Gd481 O505 2.327 1_655 S
Gd481 O506 2.377 . S
Gd481 O508 2.448 . S
Gd481 O509 2.506 . S
Gd481 O510 2.435 1_565 S
Gd481 O511 2.717 1_565 S
C482 O500 1.240 . S
C482 O501 1.240 . S
C483 Gd480 2.818 . S
C483 C484 1.510 . S
C483 O502 1.249 . S
C483 O503 1.252 . S
C484 C483 1.510 . S
C484 C485 1.404 . S
C484 C486 1.352 . S
C485 C484 1.404 . S
C485 C489 1.389 . S
C485 H512 0.930 . S
C486 C484 1.352 . S
C486 C488 1.374 . S
C486 H513 0.931 . S
C487 C488 1.359 . S
C487 C489 1.364 . S
C488 C486 1.374 . S
C488 C487 1.359 . S
C488 H514 0.931 . S
C489 C485 1.389 . S
C489 C487 1.364 . S
C489 H515 0.931 . S
C490 O504 1.256 . S
C490 O505 1.257 . S
C491 O506 1.240 . S
C491 O507 1.240 . S
C492 Gd481 2.818 . S
C492 C493 1.510 . S
C492 O508 1.249 . S
C492 O509 1.252 . S
C493 C492 1.510 . S
C493 C494 1.404 . S
C493 C495 1.352 . S
C494 C493 1.404 . S
C494 C498 1.389 . S
C494 H516 0.930 . S
C495 C493 1.352 . S
C495 C497 1.374 . S
C495 H517 0.931 . S
C496 C497 1.359 . S
C496 C498 1.364 . S
C497 C495 1.374 . S
C497 C496 1.359 . S
C497 H518 0.931 . S
C498 C494 1.389 . S
C498 C496 1.364 . S
C498 H519 0.931 . S
C499 O510 1.256 . S
C499 O511 1.257 . S
O500 Gd480 2.377 . S
O500 C482 1.240 . S
O501 Gd481 2.395 1_445 S
O501 C482 1.240 . S
O502 Gd480 2.448 . S
O502 C483 1.249 . S
O503 Gd480 2.506 . S
O503 C483 1.252 . S
O504 Gd480 2.435 1_565 S
O504 C490 1.256 . S
O505 Gd480 2.717 1_565 S
O505 Gd481 2.327 1_455 S
O505 C490 1.257 . S
O506 Gd481 2.377 . S
O506 C491 1.240 . S
O507 Gd480 2.395 1_665 S
O507 C491 1.240 . S
O508 Gd481 2.448 . S
O508 C492 1.249 . S
O509 Gd481 2.506 . S
O509 C492 1.252 . S
O510 Gd481 2.435 1_545 S
O510 C499 1.256 . S
O511 Gd480 2.327 1_655 S
O511 Gd481 2.717 1_545 S
O511 C499 1.257 . S
H512 C485 0.930 . S
H513 C486 0.931 . S
H514 C488 0.931 . S
H515 C489 0.931 . S
H516 C494 0.930 . S
H517 C495 0.931 . S
H518 C497 0.931 . S
H519 C498 0.931 . S
Gd520 C523 2.805 1_565 S
Gd520 O540 2.364 1_565 S
Gd520 O542 2.446 1_565 S
Gd520 O543 2.485 1_565 S
Gd520 O544 2.454 . S
Gd520 O545 2.727 . S
Gd520 O547 2.411 1_554 S
Gd520 O551 2.311 1_564 S
Gd521 C532 2.799 1_545 S
Gd521 O541 2.418 1_556 S
Gd521 O545 2.303 1_546 S
Gd521 O546 2.357 1_545 S
Gd521 O548 2.445 1_545 S
Gd521 O549 2.475 1_545 S
Gd521 O550 2.463 . S
Gd521 O551 2.731 . S
C522 O540 1.240 . S
C522 O541 1.240 . S
C523 Gd520 2.805 1_545 S
C523 C524 1.510 . S
C523 O542 1.249 . S
C523 O543 1.252 . S
C524 C523 1.510 . S
C524 C525 1.404 . S
C524 C526 1.352 . S
C525 C524 1.404 . S
C525 C529 1.389 . S
C525 H552 0.930 . S
C526 C524 1.352 . S
C526 C528 1.374 . S
C526 H553 0.931 . S
C527 C528 1.359 . S
C527 C529 1.364 . S
C528 C526 1.374 . S
C528 C527 1.359 . S
C528 H554 0.931 . S
C529 C525 1.389 . S
C529 C527 1.364 . S
C529 H555 0.931 . S
C530 O544 1.256 . S
C530 O545 1.257 . S
C531 O546 1.240 . S
C531 O547 1.240 . S
C532 Gd521 2.799 1_565 S
C532 C533 1.510 . S
C532 O548 1.249 . S
C532 O549 1.252 . S
C533 C532 1.510 . S
C533 C534 1.404 . S
C533 C535 1.352 . S
C534 C533 1.404 . S
C534 C538 1.389 . S
C534 H556 0.930 . S
C535 C533 1.352 . S
C535 C537 1.374 . S
C535 H557 0.931 . S
C536 C537 1.359 . S
C536 C538 1.364 . S
C537 C535 1.374 . S
C537 C536 1.359 . S
C537 H558 0.931 . S
C538 C534 1.389 . S
C538 C536 1.364 . S
C538 H559 0.931 . S
C539 O550 1.256 . S
C539 O551 1.257 . S
O540 Gd520 2.364 1_545 S
O540 C522 1.240 . S
O541 Gd521 2.418 1_554 S
O541 C522 1.240 . S
O542 Gd520 2.446 1_545 S
O542 C523 1.249 . S
O543 Gd520 2.485 1_545 S
O543 C523 1.252 . S
O544 Gd520 2.454 . S
O544 C530 1.256 . S
O545 Gd520 2.727 . S
O545 Gd521 2.303 1_564 S
O545 C530 1.257 . S
O546 Gd521 2.357 1_565 S
O546 C531 1.240 . S
O547 Gd520 2.411 1_556 S
O547 C531 1.240 . S
O548 Gd521 2.445 1_565 S
O548 C532 1.249 . S
O549 Gd521 2.475 1_565 S
O549 C532 1.252 . S
O550 Gd521 2.463 . S
O550 C539 1.256 . S
O551 Gd520 2.311 1_546 S
O551 Gd521 2.731 . S
O551 C539 1.257 . S
H552 C525 0.930 . S
H553 C526 0.931 . S
H554 C528 0.931 . S
H555 C529 0.931 . S
H556 C534 0.930 . S
H557 C535 0.931 . S
H558 C537 0.931 . S
H559 C538 0.931 . S
Gd560 C563 2.818 . S
Gd560 O580 2.377 . S
Gd560 O582 2.448 . S
Gd560 O583 2.506 . S
Gd560 O584 2.435 . S
Gd560 O585 2.717 . S
Gd560 O587 2.395 . S
Gd560 O591 2.327 . S
Gd561 C572 2.818 . S
Gd561 O581 2.395 . S
Gd561 O585 2.327 . S
Gd561 O586 2.377 . S
Gd561 O588 2.448 . S
Gd561 O589 2.506 . S
Gd561 O590 2.435 . S
Gd561 O591 2.717 . S
C562 O580 1.240 . S
C562 O581 1.240 . S
C563 Gd560 2.818 . S
C563 C564 1.510 . S
C563 O582 1.249 . S
C563 O583 1.252 . S
C564 C563 1.510 . S
C564 C565 1.404 . S
C564 C566 1.352 . S
C565 C564 1.404 . S
C565 C569 1.389 . S
C565 H592 0.930 . S
C566 C564 1.352 . S
C566 C568 1.374 . S
C566 H593 0.931 . S
C567 C568 1.359 . S
C567 C569 1.364 . S
C568 C566 1.374 . S
C568 C567 1.359 . S
C568 H594 0.931 . S
C569 C565 1.389 . S
C569 C567 1.364 . S
C569 H595 0.931 . S
C570 O584 1.256 . S
C570 O585 1.257 . S
C571 O586 1.240 . S
C571 O587 1.240 . S
C572 Gd561 2.818 . S
C572 C573 1.510 . S
C572 O588 1.249 . S
C572 O589 1.252 . S
C573 C572 1.510 . S
C573 C574 1.404 . S
C573 C575 1.352 . S
C574 C573 1.404 . S
C574 C578 1.389 . S
C574 H596 0.930 . S
C575 C573 1.352 . S
C575 C577 1.374 . S
C575 H597 0.931 . S
C576 C577 1.359 . S
C576 C578 1.364 . S
C577 C575 1.374 . S
C577 C576 1.359 . S
C577 H598 0.931 . S
C578 C574 1.389 . S
C578 C576 1.364 . S
C578 H599 0.931 . S
C579 O590 1.256 . S
C579 O591 1.257 . S
O580 Gd560 2.377 . S
O580 C562 1.240 . S
O581 Gd561 2.395 . S
O581 C562 1.240 . S
O582 Gd560 2.448 . S
O582 C563 1.249 . S
O583 Gd560 2.506 . S
O583 C563 1.252 . S
O584 Gd560 2.435 . S
O584 C570 1.256 . S
O585 Gd560 2.717 . S
O585 Gd561 2.327 . S
O585 C570 1.257 . S
O586 Gd561 2.377 . S
O586 C571 1.240 . S
O587 Gd560 2.395 . S
O587 C571 1.240 . S
O588 Gd561 2.448 . S
O588 C572 1.249 . S
O589 Gd561 2.506 . S
O589 C572 1.252 . S
O590 Gd561 2.435 . S
O590 C579 1.256 . S
O591 Gd560 2.327 . S
O591 Gd561 2.717 . S
O591 C579 1.257 . S
H592 C565 0.930 . S
H593 C566 0.931 . S
H594 C568 0.931 . S
H595 C569 0.931 . S
H596 C574 0.930 . S
H597 C575 0.931 . S
H598 C577 0.931 . S
H599 C578 0.931 . S
Gd600 C603 2.818 . S
Gd600 O620 2.377 . S
Gd600 O622 2.448 . S
Gd600 O623 2.506 . S
Gd600 O624 2.435 1_455 S
Gd600 O625 2.717 1_455 S
Gd600 O627 2.395 1_454 S
Gd600 O631 2.327 1_554 S
Gd601 C612 2.818 . S
Gd601 O621 2.395 1_656 S
Gd601 O625 2.327 1_556 S
Gd601 O626 2.377 . S
Gd601 O628 2.448 . S
Gd601 O629 2.506 . S
Gd601 O630 2.435 1_655 S
Gd601 O631 2.717 1_655 S
C602 O620 1.240 . S
C602 O621 1.240 . S
C603 Gd600 2.818 . S
C603 C604 1.510 . S
C603 O622 1.249 . S
C603 O623 1.252 . S
C604 C603 1.510 . S
C604 C605 1.404 . S
C604 C606 1.352 . S
C605 C604 1.404 . S
C605 C609 1.389 . S
C605 H632 0.930 . S
C606 C604 1.352 . S
C606 C608 1.374 . S
C606 H633 0.931 . S
C607 C608 1.359 . S
C607 C609 1.364 . S
C608 C606 1.374 . S
C608 C607 1.359 . S
C608 H634 0.931 . S
C609 C605 1.389 . S
C609 C607 1.364 . S
C609 H635 0.931 . S
C610 O624 1.256 . S
C610 O625 1.257 . S
C611 O626 1.240 . S
C611 O627 1.240 . S
C612 Gd601 2.818 . S
C612 C613 1.510 . S
C612 O628 1.249 . S
C612 O629 1.252 . S
C613 C612 1.510 . S
C613 C614 1.404 . S
C613 C615 1.352 . S
C614 C613 1.404 . S
C614 C618 1.389 . S
C614 H636 0.930 . S
C615 C613 1.352 . S
C615 C617 1.374 . S
C615 H637 0.931 . S
C616 C617 1.359 . S
C616 C618 1.364 . S
C617 C615 1.374 . S
C617 C616 1.359 . S
C617 H638 0.931 . S
C618 C614 1.389 . S
C618 C616 1.364 . S
C618 H639 0.931 . S
C619 O630 1.256 . S
C619 O631 1.257 . S
O620 Gd600 2.377 . S
O620 C602 1.240 . S
O621 Gd601 2.395 1_454 S
O621 C602 1.240 . S
O622 Gd600 2.448 . S
O622 C603 1.249 . S
O623 Gd600 2.506 . S
O623 C603 1.252 . S
O624 Gd600 2.435 1_655 S
O624 C610 1.256 . S
O625 Gd600 2.717 1_655 S
O625 Gd601 2.327 1_554 S
O625 C610 1.257 . S
O626 Gd601 2.377 . S
O626 C611 1.240 . S
O627 Gd600 2.395 1_656 S
O627 C611 1.240 . S
O628 Gd601 2.448 . S
O628 C612 1.249 . S
O629 Gd601 2.506 . S
O629 C612 1.252 . S
O630 Gd601 2.435 1_455 S
O630 C619 1.256 . S
O631 Gd600 2.327 1_556 S
O631 Gd601 2.717 1_455 S
O631 C619 1.257 . S
H632 C605 0.930 . S
H633 C606 0.931 . S
H634 C608 0.931 . S
H635 C609 0.931 . S
H636 C614 0.930 . S
H637 C615 0.931 . S
H638 C617 0.931 . S
H639 C618 0.931 . S
H640 C648 0.929 . S
H641 C650 0.930 . S
H642 C652 0.930 . S
H643 C655 0.929 . S
H644 C658 0.930 . S
H645 C660 0.960 . S
H646 C660 0.960 . S
H647 C660 0.960 . S
C648 H640 0.929 . S
C648 C649 1.377 . S
C648 C650 1.384 . S
C649 C648 1.377 . S
C649 C655 1.390 . S
C650 H641 0.930 . S
C650 C648 1.384 . S
C650 C651 1.372 . S
C651 C650 1.372 . S
C651 C652 1.400 . S
C651 C656 1.490 . S
C652 H642 0.930 . S
C652 C651 1.400 . S
C652 C655 1.386 . S
H653 C669 0.930 . S
H654 C670 0.931 . S
C655 H643 0.929 . S
C655 C649 1.390 . S
C655 C652 1.386 . S
C656 C651 1.490 . S
C656 C658 1.395 . S
C656 C659 1.403 . S
H657 C663 0.930 . S
C658 H644 0.930 . S
C658 C656 1.395 . S
C658 C661 1.403 . S
C659 C656 1.403 . S
C659 C660 1.524 . S
C659 C663 1.400 . S
C660 H645 0.960 . S
C660 H646 0.960 . S
C660 H647 0.960 . S
C660 C659 1.524 . S
C661 C658 1.403 . S
C661 C662 1.392 . S
C661 C665 1.495 . S
C662 C661 1.392 . S
C662 C663 1.385 . S
C662 C664 1.478 . S
C663 H657 0.930 . S
C663 C659 1.400 . S
C663 C662 1.385 . S
C664 C662 1.478 . S
C664 C666 1.381 . S
C664 C670 1.383 . S
C665 C661 1.495 . S
C665 H671 0.959 . S
C665 H672 0.961 . S
C665 H673 0.960 . S
C666 C664 1.381 . S
C666 C667 1.394 . S
C666 H674 0.930 . S
C667 C666 1.394 . S
C667 C668 1.383 . S
C667 H675 0.929 . S
C668 C667 1.383 . S
C668 C669 1.377 . S
C669 H653 0.930 . S
C669 C668 1.377 . S
C669 C670 1.379 . S
C670 H654 0.931 . S
C670 C664 1.383 . S
C670 C669 1.379 . S
H671 C665 0.959 . S
H672 C665 0.961 . S
H673 C665 0.960 . S
H674 C666 0.930 . S
H675 C667 0.929 . S
H676 C684 0.929 . S
H677 C686 0.930 . S
H678 C688 0.930 . S
H679 C691 0.929 . S
H680 C694 0.930 . S
H681 C696 0.960 . S
H682 C696 0.960 . S
H683 C696 0.960 . S
C684 H676 0.929 . S
C684 C685 1.377 . S
C684 C686 1.384 . S
C685 C684 1.377 . S
C685 C691 1.390 . S
C686 H677 0.930 . S
C686 C684 1.384 . S
C686 C687 1.372 . S
C687 C686 1.372 . S
C687 C688 1.400 . S
C687 C692 1.490 . S
C688 H678 0.930 . S
C688 C687 1.400 . S
C688 C691 1.386 . S
H689 C705 0.930 . S
H690 C706 0.931 . S
C691 H679 0.929 . S
C691 C685 1.390 . S
C691 C688 1.386 . S
C692 C687 1.490 . S
C692 C694 1.395 . S
C692 C695 1.403 . S
H693 C699 0.930 . S
C694 H680 0.930 . S
C694 C692 1.395 . S
C694 C697 1.403 . S
C695 C692 1.403 . S
C695 C696 1.524 . S
C695 C699 1.400 . S
C696 H681 0.960 . S
C696 H682 0.960 . S
C696 H683 0.960 . S
C696 C695 1.524 . S
C697 C694 1.403 . S
C697 C698 1.392 . S
C697 C701 1.495 . S
C698 C697 1.392 . S
C698 C699 1.385 . S
C698 C700 1.478 . S
C699 H693 0.930 . S
C699 C695 1.400 . S
C699 C698 1.385 . S
C700 C698 1.478 . S
C700 C702 1.381 . S
C700 C706 1.383 . S
C701 C697 1.495 . S
C701 H707 0.959 . S
C701 H708 0.961 . S
C701 H709 0.960 . S
C702 C700 1.381 . S
C702 C703 1.394 . S
C702 H710 0.930 . S
C703 C702 1.394 . S
C703 C704 1.383 . S
C703 H711 0.929 . S
C704 C703 1.383 . S
C704 C705 1.377 . S
C705 H689 0.930 . S
C705 C704 1.377 . S
C705 C706 1.379 . S
C706 H690 0.931 . S
C706 C700 1.383 . S
C706 C705 1.379 . S
H707 C701 0.959 . S
H708 C701 0.961 . S
H709 C701 0.960 . S
H710 C702 0.930 . S
H711 C703 0.929 . S
H712 C720 0.929 . S
H713 C722 0.930 . S
H714 C724 0.930 . S
H715 C727 0.929 . S
H716 C730 0.930 . S
H717 C732 0.960 . S
H718 C732 0.960 . S
H719 C732 0.960 . S
C720 H712 0.929 . S
C720 C721 1.377 . S
C720 C722 1.384 . S
C721 C720 1.377 . S
C721 C727 1.390 . S
C722 H713 0.930 . S
C722 C720 1.384 . S
C722 C723 1.372 . S
C723 C722 1.372 . S
C723 C724 1.400 . S
C723 C728 1.490 . S
C724 H714 0.930 . S
C724 C723 1.400 . S
C724 C727 1.386 . S
H725 C741 0.930 . S
H726 C742 0.931 . S
C727 H715 0.929 . S
C727 C721 1.390 . S
C727 C724 1.386 . S
C728 C723 1.490 . S
C728 C730 1.395 . S
C728 C731 1.403 . S
H729 C735 0.930 . S
C730 H716 0.930 . S
C730 C728 1.395 . S
C730 C733 1.403 . S
C731 C728 1.403 . S
C731 C732 1.524 . S
C731 C735 1.400 . S
C732 H717 0.960 . S
C732 H718 0.960 . S
C732 H719 0.960 . S
C732 C731 1.524 . S
C733 C730 1.403 . S
C733 C734 1.392 . S
C733 C737 1.495 . S
C734 C733 1.392 . S
C734 C735 1.385 . S
C734 C736 1.478 . S
C735 H729 0.930 . S
C735 C731 1.400 . S
C735 C734 1.385 . S
C736 C734 1.478 . S
C736 C738 1.381 . S
C736 C742 1.383 . S
C737 C733 1.495 . S
C737 H743 0.959 . S
C737 H744 0.961 . S
C737 H745 0.960 . S
C738 C736 1.381 . S
C738 C739 1.394 . S
C738 H746 0.930 . S
C739 C738 1.394 . S
C739 C740 1.383 . S
C739 H747 0.929 . S
C740 C739 1.383 . S
C740 C741 1.377 . S
C741 H725 0.930 . S
C741 C740 1.377 . S
C741 C742 1.379 . S
C742 H726 0.931 . S
C742 C736 1.383 . S
C742 C741 1.379 . S
H743 C737 0.959 . S
H744 C737 0.961 . S
H745 C737 0.960 . S
H746 C738 0.930 . S
H747 C739 0.929 . S
H748 C756 0.929 . S
H749 C758 0.930 . S
H750 C760 0.930 . S
H751 C763 0.929 . S
H752 C766 0.930 . S
H753 C768 0.960 . S
H754 C768 0.960 . S
H755 C768 0.960 . S
C756 H748 0.929 . S
C756 C757 1.377 . S
C756 C758 1.384 . S
C757 C756 1.377 . S
C757 C763 1.390 . S
C758 H749 0.930 . S
C758 C756 1.384 . S
C758 C759 1.372 . S
C759 C758 1.372 . S
C759 C760 1.400 . S
C759 C764 1.490 . S
C760 H750 0.930 . S
C760 C759 1.400 . S
C760 C763 1.386 . S
H761 C777 0.930 . S
H762 C778 0.931 . S
C763 H751 0.929 . S
C763 C757 1.390 . S
C763 C760 1.386 . S
C764 C759 1.490 . S
C764 C766 1.395 . S
C764 C767 1.403 . S
H765 C771 0.930 . S
C766 H752 0.930 . S
C766 C764 1.395 . S
C766 C769 1.403 . S
C767 C764 1.403 . S
C767 C768 1.524 . S
C767 C771 1.400 . S
C768 H753 0.960 . S
C768 H754 0.960 . S
C768 H755 0.960 . S
C768 C767 1.524 . S
C769 C766 1.403 . S
C769 C770 1.392 . S
C769 C773 1.495 . S
C770 C769 1.392 . S
C770 C771 1.385 . S
C770 C772 1.478 . S
C771 H765 0.930 . S
C771 C767 1.400 . S
C771 C770 1.385 . S
C772 C770 1.478 . S
C772 C774 1.381 . S
C772 C778 1.383 . S
C773 C769 1.495 . S
C773 H779 0.959 . S
C773 H780 0.961 . S
C773 H781 0.960 . S
C774 C772 1.381 . S
C774 C775 1.394 . S
C774 H782 0.930 . S
C775 C774 1.394 . S
C775 C776 1.383 . S
C775 H783 0.929 . S
C776 C775 1.383 . S
C776 C777 1.377 . S
C777 H761 0.930 . S
C777 C776 1.377 . S
C777 C778 1.379 . S
C778 H762 0.931 . S
C778 C772 1.383 . S
C778 C777 1.379 . S
H779 C773 0.959 . S
H780 C773 0.961 . S
H781 C773 0.960 . S
H782 C774 0.930 . S
H783 C775 0.929 . S
H784 C792 0.929 . S
H785 C794 0.930 . S
H786 C796 0.930 . S
H787 C799 0.929 . S
H788 C802 0.930 . S
H789 C804 0.960 . S
H790 C804 0.960 . S
H791 C804 0.960 . S
C792 H784 0.929 . S
C792 C793 1.377 . S
C792 C794 1.384 . S
C793 C792 1.377 . S
C793 C799 1.390 . S
C794 H785 0.930 . S
C794 C792 1.384 . S
C794 C795 1.372 . S
C795 C794 1.372 . S
C795 C796 1.400 . S
C795 C800 1.490 . S
C796 H786 0.930 . S
C796 C795 1.400 . S
C796 C799 1.386 . S
H797 C813 0.930 . S
H798 C814 0.931 . S
C799 H787 0.929 . S
C799 C793 1.390 . S
C799 C796 1.386 . S
C800 C795 1.490 . S
C800 C802 1.395 . S
C800 C803 1.403 . S
H801 C807 0.930 . S
C802 H788 0.930 . S
C802 C800 1.395 . S
C802 C805 1.403 . S
C803 C800 1.403 . S
C803 C804 1.524 . S
C803 C807 1.400 . S
C804 H789 0.960 . S
C804 H790 0.960 . S
C804 H791 0.960 . S
C804 C803 1.524 . S
C805 C802 1.403 . S
C805 C806 1.392 . S
C805 C809 1.495 . S
C806 C805 1.392 . S
C806 C807 1.385 . S
C806 C808 1.478 . S
C807 H801 0.930 . S
C807 C803 1.400 . S
C807 C806 1.385 . S
C808 C806 1.478 . S
C808 C810 1.381 . S
C808 C814 1.383 . S
C809 C805 1.495 . S
C809 H815 0.959 . S
C809 H816 0.961 . S
C809 H817 0.960 . S
C810 C808 1.381 . S
C810 C811 1.394 . S
C810 H818 0.930 . S
C811 C810 1.394 . S
C811 C812 1.383 . S
C811 H819 0.929 . S
C812 C811 1.383 . S
C812 C813 1.377 . S
C813 H797 0.930 . S
C813 C812 1.377 . S
C813 C814 1.379 . S
C814 H798 0.931 . S
C814 C808 1.383 . S
C814 C813 1.379 . S
H815 C809 0.959 . S
H816 C809 0.961 . S
H817 C809 0.960 . S
H818 C810 0.930 . S
H819 C811 0.929 . S
H820 C828 0.929 . S
H821 C830 0.930 . S
H822 C832 0.930 . S
H823 C835 0.929 . S
H824 C838 0.930 . S
H825 C840 0.960 . S
H826 C840 0.960 . S
H827 C840 0.960 . S
C828 H820 0.929 . S
C828 C829 1.377 . S
C828 C830 1.384 . S
C829 C828 1.377 . S
C829 C835 1.390 . S
C830 H821 0.930 . S
C830 C828 1.384 . S
C830 C831 1.372 . S
C831 C830 1.372 . S
C831 C832 1.400 . S
C831 C836 1.490 . S
C832 H822 0.930 . S
C832 C831 1.400 . S
C832 C835 1.386 . S
H833 C849 0.930 . S
H834 C850 0.931 . S
C835 H823 0.929 . S
C835 C829 1.390 . S
C835 C832 1.386 . S
C836 C831 1.490 . S
C836 C838 1.395 . S
C836 C839 1.403 . S
H837 C843 0.930 . S
C838 H824 0.930 . S
C838 C836 1.395 . S
C838 C841 1.403 . S
C839 C836 1.403 . S
C839 C840 1.524 . S
C839 C843 1.400 . S
C840 H825 0.960 . S
C840 H826 0.960 . S
C840 H827 0.960 . S
C840 C839 1.524 . S
C841 C838 1.403 . S
C841 C842 1.392 . S
C841 C845 1.495 . S
C842 C841 1.392 . S
C842 C843 1.385 . S
C842 C844 1.478 . S
C843 H837 0.930 . S
C843 C839 1.400 . S
C843 C842 1.385 . S
C844 C842 1.478 . S
C844 C846 1.381 . S
C844 C850 1.383 . S
C845 C841 1.495 . S
C845 H851 0.959 . S
C845 H852 0.961 . S
C845 H853 0.960 . S
C846 C844 1.381 . S
C846 C847 1.394 . S
C846 H854 0.930 . S
C847 C846 1.394 . S
C847 C848 1.383 . S
C847 H855 0.929 . S
C848 C847 1.383 . S
C848 C849 1.377 . S
C849 H833 0.930 . S
C849 C848 1.377 . S
C849 C850 1.379 . S
C850 H834 0.931 . S
C850 C844 1.383 . S
C850 C849 1.379 . S
H851 C845 0.959 . S
H852 C845 0.961 . S
H853 C845 0.960 . S
H854 C846 0.930 . S
H855 C847 0.929 . S
H856 C864 0.929 . S
H857 C866 0.930 . S
H858 C868 0.930 . S
H859 C871 0.929 . S
H860 C874 0.930 . S
H861 C876 0.960 . S
H862 C876 0.960 . S
H863 C876 0.960 . S
C864 H856 0.929 . S
C864 C865 1.377 . S
C864 C866 1.384 . S
C865 C864 1.377 . S
C865 C871 1.390 . S
C866 H857 0.930 . S
C866 C864 1.384 . S
C866 C867 1.372 . S
C867 C866 1.372 . S
C867 C868 1.400 . S
C867 C872 1.490 . S
C868 H858 0.930 . S
C868 C867 1.400 . S
C868 C871 1.386 . S
H869 C885 0.930 . S
H870 C886 0.931 . S
C871 H859 0.929 . S
C871 C865 1.390 . S
C871 C868 1.386 . S
C872 C867 1.490 . S
C872 C874 1.395 . S
C872 C875 1.403 . S
H873 C879 0.930 . S
C874 H860 0.930 . S
C874 C872 1.395 . S
C874 C877 1.403 . S
C875 C872 1.403 . S
C875 C876 1.524 . S
C875 C879 1.400 . S
C876 H861 0.960 . S
C876 H862 0.960 . S
C876 H863 0.960 . S
C876 C875 1.524 . S
C877 C874 1.403 . S
C877 C878 1.392 . S
C877 C881 1.495 . S
C878 C877 1.392 . S
C878 C879 1.385 . S
C878 C880 1.478 . S
C879 H873 0.930 . S
C879 C875 1.400 . S
C879 C878 1.385 . S
C880 C878 1.478 . S
C880 C882 1.381 . S
C880 C886 1.383 . S
C881 C877 1.495 . S
C881 H887 0.959 . S
C881 H888 0.961 . S
C881 H889 0.960 . S
C882 C880 1.381 . S
C882 C883 1.394 . S
C882 H890 0.930 . S
C883 C882 1.394 . S
C883 C884 1.383 . S
C883 H891 0.929 . S
C884 C883 1.383 . S
C884 C885 1.377 . S
C885 H869 0.930 . S
C885 C884 1.377 . S
C885 C886 1.379 . S
C886 H870 0.931 . S
C886 C880 1.383 . S
C886 C885 1.379 . S
H887 C881 0.959 . S
H888 C881 0.961 . S
H889 C881 0.960 . S
H890 C882 0.930 . S
H891 C883 0.929 . S
H892 C900 0.929 . S
H893 C902 0.930 . S
H894 C904 0.930 . S
H895 C907 0.929 . S
H896 C910 0.930 . S
H897 C912 0.960 . S
H898 C912 0.960 . S
H899 C912 0.960 . S
C900 H892 0.929 . S
C900 C901 1.377 . S
C900 C902 1.384 . S
C901 C900 1.377 . S
C901 C907 1.390 . S
C902 H893 0.930 . S
C902 C900 1.384 . S
C902 C903 1.372 . S
C903 C902 1.372 . S
C903 C904 1.400 . S
C903 C908 1.490 . S
C904 H894 0.930 . S
C904 C903 1.400 . S
C904 C907 1.386 . S
H905 C921 0.930 . S
H906 C922 0.931 . S
C907 H895 0.929 . S
C907 C901 1.390 . S
C907 C904 1.386 . S
C908 C903 1.490 . S
C908 C910 1.395 . S
C908 C911 1.403 . S
H909 C915 0.930 . S
C910 H896 0.930 . S
C910 C908 1.395 . S
C910 C913 1.403 . S
C911 C908 1.403 . S
C911 C912 1.524 . S
C911 C915 1.400 . S
C912 H897 0.960 . S
C912 H898 0.960 . S
C912 H899 0.960 . S
C912 C911 1.524 . S
C913 C910 1.403 . S
C913 C914 1.392 . S
C913 C917 1.495 . S
C914 C913 1.392 . S
C914 C915 1.385 . S
C914 C916 1.478 . S
C915 H909 0.930 . S
C915 C911 1.400 . S
C915 C914 1.385 . S
C916 C914 1.478 . S
C916 C918 1.381 . S
C916 C922 1.383 . S
C917 C913 1.495 . S
C917 H923 0.959 . S
C917 H924 0.961 . S
C917 H925 0.960 . S
C918 C916 1.381 . S
C918 C919 1.394 . S
C918 H926 0.930 . S
C919 C918 1.394 . S
C919 C920 1.383 . S
C919 H927 0.929 . S
C920 C919 1.383 . S
C920 C921 1.377 . S
C921 H905 0.930 . S
C921 C920 1.377 . S
C921 C922 1.379 . S
C922 H906 0.931 . S
C922 C916 1.383 . S
C922 C921 1.379 . S
H923 C917 0.959 . S
H924 C917 0.961 . S
H925 C917 0.960 . S
H926 C918 0.930 . S
H927 C919 0.929 . S
H928 C936 0.929 . S
H929 C938 0.930 . S
H930 C940 0.930 . S
H931 C943 0.929 . S
H932 C946 0.930 . S
H933 C948 0.960 . S
H934 C948 0.960 . S
H935 C948 0.960 . S
C936 H928 0.929 . S
C936 C937 1.377 . S
C936 C938 1.384 . S
C937 C936 1.377 . S
C937 C943 1.390 . S
C938 H929 0.930 . S
C938 C936 1.384 . S
C938 C939 1.372 . S
C939 C938 1.372 . S
C939 C940 1.400 . S
C939 C944 1.490 . S
C940 H930 0.930 . S
C940 C939 1.400 . S
C940 C943 1.386 . S
H941 C957 0.930 . S
H942 C958 0.931 . S
C943 H931 0.929 . S
C943 C937 1.390 . S
C943 C940 1.386 . S
C944 C939 1.490 . S
C944 C946 1.395 . S
C944 C947 1.403 . S
H945 C951 0.930 . S
C946 H932 0.930 . S
C946 C944 1.395 . S
C946 C949 1.403 . S
C947 C944 1.403 . S
C947 C948 1.524 . S
C947 C951 1.400 . S
C948 H933 0.960 . S
C948 H934 0.960 . S
C948 H935 0.960 . S
C948 C947 1.524 . S
C949 C946 1.403 . S
C949 C950 1.392 . S
C949 C953 1.495 . S
C950 C949 1.392 . S
C950 C951 1.385 . S
C950 C952 1.478 . S
C951 H945 0.930 . S
C951 C947 1.400 . S
C951 C950 1.385 . S
C952 C950 1.478 . S
C952 C954 1.381 . S
C952 C958 1.383 . S
C953 C949 1.495 . S
C953 H959 0.959 . S
C953 H960 0.961 . S
C953 H961 0.960 . S
C954 C952 1.381 . S
C954 C955 1.394 . S
C954 H962 0.930 . S
C955 C954 1.394 . S
C955 C956 1.383 . S
C955 H963 0.929 . S
C956 C955 1.383 . S
C956 C957 1.377 . S
C957 H941 0.930 . S
C957 C956 1.377 . S
C957 C958 1.379 . S
C958 H942 0.931 . S
C958 C952 1.383 . S
C958 C957 1.379 . S
H959 C953 0.959 . S
H960 C953 0.961 . S
H961 C953 0.960 . S
H962 C954 0.930 . S
H963 C955 0.929 . S
H964 C972 0.929 . S
H965 C974 0.930 . S
H966 C976 0.930 . S
H967 C979 0.929 . S
H968 C982 0.930 . S
H969 C984 0.960 . S
H970 C984 0.960 . S
H971 C984 0.960 . S
C972 H964 0.929 . S
C972 C973 1.377 . S
C972 C974 1.384 . S
C973 C972 1.377 . S
C973 C979 1.390 . S
C974 H965 0.930 . S
C974 C972 1.384 . S
C974 C975 1.372 . S
C975 C974 1.372 . S
C975 C976 1.400 . S
C975 C980 1.490 . S
C976 H966 0.930 . S
C976 C975 1.400 . S
C976 C979 1.386 . S
H977 C993 0.930 . S
H978 C994 0.931 . S
C979 H967 0.929 . S
C979 C973 1.390 . S
C979 C976 1.386 . S
C980 C975 1.490 . S
C980 C982 1.395 . S
C980 C983 1.403 . S
H981 C987 0.930 . S
C982 H968 0.930 . S
C982 C980 1.395 . S
C982 C985 1.403 . S
C983 C980 1.403 . S
C983 C984 1.524 . S
C983 C987 1.400 . S
C984 H969 0.960 . S
C984 H970 0.960 . S
C984 H971 0.960 . S
C984 C983 1.524 . S
C985 C982 1.403 . S
C985 C986 1.392 . S
C985 C989 1.495 . S
C986 C985 1.392 . S
C986 C987 1.385 . S
C986 C988 1.478 . S
C987 H981 0.930 . S
C987 C983 1.400 . S
C987 C986 1.385 . S
C988 C986 1.478 . S
C988 C990 1.381 . S
C988 C994 1.383 . S
C989 C985 1.495 . S
C989 H995 0.959 . S
C989 H996 0.961 . S
C989 H997 0.960 . S
C990 C988 1.381 . S
C990 C991 1.394 . S
C990 H998 0.930 . S
C991 C990 1.394 . S
C991 C992 1.383 . S
C991 H999 0.929 . S
C992 C991 1.383 . S
C992 C993 1.377 . S
C993 H977 0.930 . S
C993 C992 1.377 . S
C993 C994 1.379 . S
C994 H978 0.931 . S
C994 C988 1.383 . S
C994 C993 1.379 . S
H995 C989 0.959 . S
H996 C989 0.961 . S
H997 C989 0.960 . S
H998 C990 0.930 . S
H999 C991 0.929 . S
H1000 C1008 0.929 . S
H1001 C1010 0.930 . S
H1002 C1012 0.930 . S
H1003 C1015 0.929 . S
H1004 C1018 0.930 . S
H1005 C1020 0.960 . S
H1006 C1020 0.960 . S
H1007 C1020 0.960 . S
C1008 H1000 0.929 . S
C1008 C1009 1.377 . S
C1008 C1010 1.384 . S
C1009 C1008 1.377 . S
C1009 C1015 1.390 . S
C1010 H1001 0.930 . S
C1010 C1008 1.384 . S
C1010 C1011 1.372 . S
C1011 C1010 1.372 . S
C1011 C1012 1.400 . S
C1011 C1016 1.490 . S
C1012 H1002 0.930 . S
C1012 C1011 1.400 . S
C1012 C1015 1.386 . S
H1013 C1029 0.930 . S
H1014 C1030 0.931 . S
C1015 H1003 0.929 . S
C1015 C1009 1.390 . S
C1015 C1012 1.386 . S
C1016 C1011 1.490 . S
C1016 C1018 1.395 . S
C1016 C1019 1.403 . S
H1017 C1023 0.930 . S
C1018 H1004 0.930 . S
C1018 C1016 1.395 . S
C1018 C1021 1.403 . S
C1019 C1016 1.403 . S
C1019 C1020 1.524 . S
C1019 C1023 1.400 . S
C1020 H1005 0.960 . S
C1020 H1006 0.960 . S
C1020 H1007 0.960 . S
C1020 C1019 1.524 . S
C1021 C1018 1.403 . S
C1021 C1022 1.392 . S
C1021 C1025 1.495 . S
C1022 C1021 1.392 . S
C1022 C1023 1.385 . S
C1022 C1024 1.478 . S
C1023 H1017 0.930 . S
C1023 C1019 1.400 . S
C1023 C1022 1.385 . S
C1024 C1022 1.478 . S
C1024 C1026 1.381 . S
C1024 C1030 1.383 . S
C1025 C1021 1.495 . S
C1025 H1031 0.959 . S
C1025 H1032 0.961 . S
C1025 H1033 0.960 . S
C1026 C1024 1.381 . S
C1026 C1027 1.394 . S
C1026 H1034 0.930 . S
C1027 C1026 1.394 . S
C1027 C1028 1.383 . S
C1027 H1035 0.929 . S
C1028 C1027 1.383 . S
C1028 C1029 1.377 . S
C1029 H1013 0.930 . S
C1029 C1028 1.377 . S
C1029 C1030 1.379 . S
C1030 H1014 0.931 . S
C1030 C1024 1.383 . S
C1030 C1029 1.379 . S
H1031 C1025 0.959 . S
H1032 C1025 0.961 . S
H1033 C1025 0.960 . S
H1034 C1026 0.930 . S
H1035 C1027 0.929 . S
H1036 C1044 0.929 . S
H1037 C1046 0.930 . S
H1038 C1048 0.930 . S
H1039 C1051 0.929 . S
H1040 C1054 0.930 . S
H1041 C1056 0.960 . S
H1042 C1056 0.960 . S
H1043 C1056 0.960 . S
C1044 H1036 0.929 . S
C1044 C1045 1.377 . S
C1044 C1046 1.384 . S
C1045 C1044 1.377 . S
C1045 C1051 1.390 . S
C1046 H1037 0.930 . S
C1046 C1044 1.384 . S
C1046 C1047 1.372 . S
C1047 C1046 1.372 . S
C1047 C1048 1.400 . S
C1047 C1052 1.490 . S
C1048 H1038 0.930 . S
C1048 C1047 1.400 . S
C1048 C1051 1.386 . S
H1049 C1065 0.930 . S
H1050 C1066 0.931 . S
C1051 H1039 0.929 . S
C1051 C1045 1.390 . S
C1051 C1048 1.386 . S
C1052 C1047 1.490 . S
C1052 C1054 1.395 . S
C1052 C1055 1.403 . S
H1053 C1059 0.930 . S
C1054 H1040 0.930 . S
C1054 C1052 1.395 . S
C1054 C1057 1.403 . S
C1055 C1052 1.403 . S
C1055 C1056 1.524 . S
C1055 C1059 1.400 . S
C1056 H1041 0.960 . S
C1056 H1042 0.960 . S
C1056 H1043 0.960 . S
C1056 C1055 1.524 . S
C1057 C1054 1.403 . S
C1057 C1058 1.392 . S
C1057 C1061 1.495 . S
C1058 C1057 1.392 . S
C1058 C1059 1.385 . S
C1058 C1060 1.478 . S
C1059 H1053 0.930 . S
C1059 C1055 1.400 . S
C1059 C1058 1.385 . S
C1060 C1058 1.478 . S
C1060 C1062 1.381 . S
C1060 C1066 1.383 . S
C1061 C1057 1.495 . S
C1061 H1067 0.959 . S
C1061 H1068 0.961 . S
C1061 H1069 0.960 . S
C1062 C1060 1.381 . S
C1062 C1063 1.394 . S
C1062 H1070 0.930 . S
C1063 C1062 1.394 . S
C1063 C1064 1.383 . S
C1063 H1071 0.929 . S
C1064 C1063 1.383 . S
C1064 C1065 1.377 . S
C1065 H1049 0.930 . S
C1065 C1064 1.377 . S
C1065 C1066 1.379 . S
C1066 H1050 0.931 . S
C1066 C1060 1.383 . S
C1066 C1065 1.379 . S
H1067 C1061 0.959 . S
H1068 C1061 0.961 . S
H1069 C1061 0.960 . S
H1070 C1062 0.930 . S
H1071 C1063 0.929 . S
H1072 C1080 0.929 . S
H1073 C1082 0.930 . S
H1074 C1084 0.930 . S
H1075 C1087 0.929 . S
H1076 C1090 0.930 . S
H1077 C1092 0.960 . S
H1078 C1092 0.960 . S
H1079 C1092 0.960 . S
C1080 H1072 0.929 . S
C1080 C1081 1.377 . S
C1080 C1082 1.384 . S
C1081 C1080 1.377 . S
C1081 C1087 1.390 . S
C1082 H1073 0.930 . S
C1082 C1080 1.384 . S
C1082 C1083 1.372 . S
C1083 C1082 1.372 . S
C1083 C1084 1.400 . S
C1083 C1088 1.490 . S
C1084 H1074 0.930 . S
C1084 C1083 1.400 . S
C1084 C1087 1.386 . S
H1085 C1101 0.930 . S
H1086 C1102 0.931 . S
C1087 H1075 0.929 . S
C1087 C1081 1.390 . S
C1087 C1084 1.386 . S
C1088 C1083 1.490 . S
C1088 C1090 1.395 . S
C1088 C1091 1.403 . S
H1089 C1095 0.930 . S
C1090 H1076 0.930 . S
C1090 C1088 1.395 . S
C1090 C1093 1.403 . S
C1091 C1088 1.403 . S
C1091 C1092 1.524 . S
C1091 C1095 1.400 . S
C1092 H1077 0.960 . S
C1092 H1078 0.960 . S
C1092 H1079 0.960 . S
C1092 C1091 1.524 . S
C1093 C1090 1.403 . S
C1093 C1094 1.392 . S
C1093 C1097 1.495 . S
C1094 C1093 1.392 . S
C1094 C1095 1.385 . S
C1094 C1096 1.478 . S
C1095 H1089 0.930 . S
C1095 C1091 1.400 . S
C1095 C1094 1.385 . S
C1096 C1094 1.478 . S
C1096 C1098 1.381 . S
C1096 C1102 1.383 . S
C1097 C1093 1.495 . S
C1097 H1103 0.959 . S
C1097 H1104 0.961 . S
C1097 H1105 0.960 . S
C1098 C1096 1.381 . S
C1098 C1099 1.394 . S
C1098 H1106 0.930 . S
C1099 C1098 1.394 . S
C1099 C1100 1.383 . S
C1099 H1107 0.929 . S
C1100 C1099 1.383 . S
C1100 C1101 1.377 . S
C1101 H1085 0.930 . S
C1101 C1100 1.377 . S
C1101 C1102 1.379 . S
C1102 H1086 0.931 . S
C1102 C1096 1.383 . S
C1102 C1101 1.379 . S
H1103 C1097 0.959 . S
H1104 C1097 0.961 . S
H1105 C1097 0.960 . S
H1106 C1098 0.930 . S
H1107 C1099 0.929 . S
H1108 C1116 0.929 . S
H1109 C1118 0.930 . S
H1110 C1120 0.930 . S
H1111 C1123 0.929 . S
H1112 C1126 0.930 . S
H1113 C1128 0.960 . S
H1114 C1128 0.960 . S
H1115 C1128 0.960 . S
C1116 H1108 0.929 . S
C1116 C1117 1.377 . S
C1116 C1118 1.384 . S
C1117 C1116 1.377 . S
C1117 C1123 1.390 . S
C1118 H1109 0.930 . S
C1118 C1116 1.384 . S
C1118 C1119 1.372 . S
C1119 C1118 1.372 . S
C1119 C1120 1.400 . S
C1119 C1124 1.490 . S
C1120 H1110 0.930 . S
C1120 C1119 1.400 . S
C1120 C1123 1.386 . S
H1121 C1137 0.930 . S
H1122 C1138 0.931 . S
C1123 H1111 0.929 . S
C1123 C1117 1.390 . S
C1123 C1120 1.386 . S
C1124 C1119 1.490 . S
C1124 C1126 1.395 . S
C1124 C1127 1.403 . S
H1125 C1131 0.930 . S
C1126 H1112 0.930 . S
C1126 C1124 1.395 . S
C1126 C1129 1.403 . S
C1127 C1124 1.403 . S
C1127 C1128 1.524 . S
C1127 C1131 1.400 . S
C1128 H1113 0.960 . S
C1128 H1114 0.960 . S
C1128 H1115 0.960 . S
C1128 C1127 1.524 . S
C1129 C1126 1.403 . S
C1129 C1130 1.392 . S
C1129 C1133 1.495 . S
C1130 C1129 1.392 . S
C1130 C1131 1.385 . S
C1130 C1132 1.478 . S
C1131 H1125 0.930 . S
C1131 C1127 1.400 . S
C1131 C1130 1.385 . S
C1132 C1130 1.478 . S
C1132 C1134 1.381 . S
C1132 C1138 1.383 . S
C1133 C1129 1.495 . S
C1133 H1139 0.959 . S
C1133 H1140 0.961 . S
C1133 H1141 0.960 . S
C1134 C1132 1.381 . S
C1134 C1135 1.394 . S
C1134 H1142 0.930 . S
C1135 C1134 1.394 . S
C1135 C1136 1.383 . S
C1135 H1143 0.929 . S
C1136 C1135 1.383 . S
C1136 C1137 1.377 . S
C1137 H1121 0.930 . S
C1137 C1136 1.377 . S
C1137 C1138 1.379 . S
C1138 H1122 0.931 . S
C1138 C1132 1.383 . S
C1138 C1137 1.379 . S
H1139 C1133 0.959 . S
H1140 C1133 0.961 . S
H1141 C1133 0.960 . S
H1142 C1134 0.930 . S
H1143 C1135 0.929 . S
H1144 C1152 0.929 . S
H1145 C1154 0.930 . S
H1146 C1156 0.930 . S
H1147 C1159 0.929 . S
H1148 C1162 0.930 . S
H1149 C1164 0.960 . S
H1150 C1164 0.960 . S
H1151 C1164 0.960 . S
C1152 H1144 0.929 . S
C1152 C1153 1.377 . S
C1152 C1154 1.384 . S
C1153 C1152 1.377 . S
C1153 C1159 1.390 . S
C1154 H1145 0.930 . S
C1154 C1152 1.384 . S
C1154 C1155 1.372 . S
C1155 C1154 1.372 . S
C1155 C1156 1.400 . S
C1155 C1160 1.490 . S
C1156 H1146 0.930 . S
C1156 C1155 1.400 . S
C1156 C1159 1.386 . S
H1157 C1173 0.930 . S
H1158 C1174 0.931 . S
C1159 H1147 0.929 . S
C1159 C1153 1.390 . S
C1159 C1156 1.386 . S
C1160 C1155 1.490 . S
C1160 C1162 1.395 . S
C1160 C1163 1.403 . S
H1161 C1167 0.930 . S
C1162 H1148 0.930 . S
C1162 C1160 1.395 . S
C1162 C1165 1.403 . S
C1163 C1160 1.403 . S
C1163 C1164 1.524 . S
C1163 C1167 1.400 . S
C1164 H1149 0.960 . S
C1164 H1150 0.960 . S
C1164 H1151 0.960 . S
C1164 C1163 1.524 . S
C1165 C1162 1.403 . S
C1165 C1166 1.392 . S
C1165 C1169 1.495 . S
C1166 C1165 1.392 . S
C1166 C1167 1.385 . S
C1166 C1168 1.478 . S
C1167 H1161 0.930 . S
C1167 C1163 1.400 . S
C1167 C1166 1.385 . S
C1168 C1166 1.478 . S
C1168 C1170 1.381 . S
C1168 C1174 1.383 . S
C1169 C1165 1.495 . S
C1169 H1175 0.959 . S
C1169 H1176 0.961 . S
C1169 H1177 0.960 . S
C1170 C1168 1.381 . S
C1170 C1171 1.394 . S
C1170 H1178 0.930 . S
C1171 C1170 1.394 . S
C1171 C1172 1.383 . S
C1171 H1179 0.929 . S
C1172 C1171 1.383 . S
C1172 C1173 1.377 . S
C1173 H1157 0.930 . S
C1173 C1172 1.377 . S
C1173 C1174 1.379 . S
C1174 H1158 0.931 . S
C1174 C1168 1.383 . S
C1174 C1173 1.379 . S
H1175 C1169 0.959 . S
H1176 C1169 0.961 . S
H1177 C1169 0.960 . S
H1178 C1170 0.930 . S
H1179 C1171 0.929 . S
H1180 C1188 0.929 . S
H1181 C1190 0.930 . S
H1182 C1192 0.930 . S
H1183 C1195 0.929 . S
H1184 C1198 0.930 . S
H1185 C1200 0.960 . S
H1186 C1200 0.960 . S
H1187 C1200 0.960 . S
C1188 H1180 0.929 . S
C1188 C1189 1.377 . S
C1188 C1190 1.384 . S
C1189 C1188 1.377 . S
C1189 C1195 1.390 . S
C1190 H1181 0.930 . S
C1190 C1188 1.384 . S
C1190 C1191 1.372 . S
C1191 C1190 1.372 . S
C1191 C1192 1.400 . S
C1191 C1196 1.490 . S
C1192 H1182 0.930 . S
C1192 C1191 1.400 . S
C1192 C1195 1.386 . S
H1193 C1209 0.930 . S
H1194 C1210 0.931 . S
C1195 H1183 0.929 . S
C1195 C1189 1.390 . S
C1195 C1192 1.386 . S
C1196 C1191 1.490 . S
C1196 C1198 1.395 . S
C1196 C1199 1.403 . S
H1197 C1203 0.930 . S
C1198 H1184 0.930 . S
C1198 C1196 1.395 . S
C1198 C1201 1.403 . S
C1199 C1196 1.403 . S
C1199 C1200 1.524 . S
C1199 C1203 1.400 . S
C1200 H1185 0.960 . S
C1200 H1186 0.960 . S
C1200 H1187 0.960 . S
C1200 C1199 1.524 . S
C1201 C1198 1.403 . S
C1201 C1202 1.392 . S
C1201 C1205 1.495 . S
C1202 C1201 1.392 . S
C1202 C1203 1.385 . S
C1202 C1204 1.478 . S
C1203 H1197 0.930 . S
C1203 C1199 1.400 . S
C1203 C1202 1.385 . S
C1204 C1202 1.478 . S
C1204 C1206 1.381 . S
C1204 C1210 1.383 . S
C1205 C1201 1.495 . S
C1205 H1211 0.959 . S
C1205 H1212 0.961 . S
C1205 H1213 0.960 . S
C1206 C1204 1.381 . S
C1206 C1207 1.394 . S
C1206 H1214 0.930 . S
C1207 C1206 1.394 . S
C1207 C1208 1.383 . S
C1207 H1215 0.929 . S
C1208 C1207 1.383 . S
C1208 C1209 1.377 . S
C1209 H1193 0.930 . S
C1209 C1208 1.377 . S
C1209 C1210 1.379 . S
C1210 H1194 0.931 . S
C1210 C1204 1.383 . S
C1210 C1209 1.379 . S
H1211 C1205 0.959 . S
H1212 C1205 0.961 . S
H1213 C1205 0.960 . S
H1214 C1206 0.930 . S
H1215 C1207 0.929 . S
H1216 C1224 0.929 . S
H1217 C1226 0.930 . S
H1218 C1228 0.930 . S
H1219 C1231 0.929 . S
H1220 C1234 0.930 . S
H1221 C1236 0.960 . S
H1222 C1236 0.960 . S
H1223 C1236 0.960 . S
C1224 H1216 0.929 . S
C1224 C1225 1.377 . S
C1224 C1226 1.384 . S
C1225 C1224 1.377 . S
C1225 C1231 1.390 . S
C1226 H1217 0.930 . S
C1226 C1224 1.384 . S
C1226 C1227 1.372 . S
C1227 C1226 1.372 . S
C1227 C1228 1.400 . S
C1227 C1232 1.490 . S
C1228 H1218 0.930 . S
C1228 C1227 1.400 . S
C1228 C1231 1.386 . S
H1229 C1245 0.930 . S
H1230 C1246 0.931 . S
C1231 H1219 0.929 . S
C1231 C1225 1.390 . S
C1231 C1228 1.386 . S
C1232 C1227 1.490 . S
C1232 C1234 1.395 . S
C1232 C1235 1.403 . S
H1233 C1239 0.930 . S
C1234 H1220 0.930 . S
C1234 C1232 1.395 . S
C1234 C1237 1.403 . S
C1235 C1232 1.403 . S
C1235 C1236 1.524 . S
C1235 C1239 1.400 . S
C1236 H1221 0.960 . S
C1236 H1222 0.960 . S
C1236 H1223 0.960 . S
C1236 C1235 1.524 . S
C1237 C1234 1.403 . S
C1237 C1238 1.392 . S
C1237 C1241 1.495 . S
C1238 C1237 1.392 . S
C1238 C1239 1.385 . S
C1238 C1240 1.478 . S
C1239 H1233 0.930 . S
C1239 C1235 1.400 . S
C1239 C1238 1.385 . S
C1240 C1238 1.478 . S
C1240 C1242 1.381 . S
C1240 C1246 1.383 . S
C1241 C1237 1.495 . S
C1241 H1247 0.959 . S
C1241 H1248 0.961 . S
C1241 H1249 0.960 . S
C1242 C1240 1.381 . S
C1242 C1243 1.394 . S
C1242 H1250 0.930 . S
C1243 C1242 1.394 . S
C1243 C1244 1.383 . S
C1243 H1251 0.929 . S
C1244 C1243 1.383 . S
C1244 C1245 1.377 . S
C1245 H1229 0.930 . S
C1245 C1244 1.377 . S
C1245 C1246 1.379 . S
C1246 H1230 0.931 . S
C1246 C1240 1.383 . S
C1246 C1245 1.379 . S
H1247 C1241 0.959 . S
H1248 C1241 0.961 . S
H1249 C1241 0.960 . S
H1250 C1242 0.930 . S
H1251 C1243 0.929 . S
H1252 C1260 0.929 . S
H1253 C1262 0.930 . S
H1254 C1264 0.930 . S
H1255 C1267 0.929 . S
H1256 C1270 0.930 . S
H1257 C1272 0.960 . S
H1258 C1272 0.960 . S
H1259 C1272 0.960 . S
C1260 H1252 0.929 . S
C1260 C1261 1.377 . S
C1260 C1262 1.384 . S
C1261 C1260 1.377 . S
C1261 C1267 1.390 . S
C1262 H1253 0.930 . S
C1262 C1260 1.384 . S
C1262 C1263 1.372 . S
C1263 C1262 1.372 . S
C1263 C1264 1.400 . S
C1263 C1268 1.490 . S
C1264 H1254 0.930 . S
C1264 C1263 1.400 . S
C1264 C1267 1.386 . S
H1265 C1281 0.930 . S
H1266 C1282 0.931 . S
C1267 H1255 0.929 . S
C1267 C1261 1.390 . S
C1267 C1264 1.386 . S
C1268 C1263 1.490 . S
C1268 C1270 1.395 . S
C1268 C1271 1.403 . S
H1269 C1275 0.930 . S
C1270 H1256 0.930 . S
C1270 C1268 1.395 . S
C1270 C1273 1.403 . S
C1271 C1268 1.403 . S
C1271 C1272 1.524 . S
C1271 C1275 1.400 . S
C1272 H1257 0.960 . S
C1272 H1258 0.960 . S
C1272 H1259 0.960 . S
C1272 C1271 1.524 . S
C1273 C1270 1.403 . S
C1273 C1274 1.392 . S
C1273 C1277 1.495 . S
C1274 C1273 1.392 . S
C1274 C1275 1.385 . S
C1274 C1276 1.478 . S
C1275 H1269 0.930 . S
C1275 C1271 1.400 . S
C1275 C1274 1.385 . S
C1276 C1274 1.478 . S
C1276 C1278 1.381 . S
C1276 C1282 1.383 . S
C1277 C1273 1.495 . S
C1277 H1283 0.959 . S
C1277 H1284 0.961 . S
C1277 H1285 0.960 . S
C1278 C1276 1.381 . S
C1278 C1279 1.394 . S
C1278 H1286 0.930 . S
C1279 C1278 1.394 . S
C1279 C1280 1.383 . S
C1279 H1287 0.929 . S
C1280 C1279 1.383 . S
C1280 C1281 1.377 . S
C1281 H1265 0.930 . S
C1281 C1280 1.377 . S
C1281 C1282 1.379 . S
C1282 H1266 0.931 . S
C1282 C1276 1.383 . S
C1282 C1281 1.379 . S
H1283 C1277 0.959 . S
H1284 C1277 0.961 . S
H1285 C1277 0.960 . S
H1286 C1278 0.930 . S
H1287 C1279 0.929 . S
H1288 C1296 0.929 . S
H1289 C1298 0.930 . S
H1290 C1300 0.930 . S
H1291 C1303 0.929 . S
H1292 C1306 0.930 . S
H1293 C1308 0.960 . S
H1294 C1308 0.960 . S
H1295 C1308 0.960 . S
C1296 H1288 0.929 . S
C1296 C1297 1.377 . S
C1296 C1298 1.384 . S
C1297 C1296 1.377 . S
C1297 C1303 1.390 . S
C1298 H1289 0.930 . S
C1298 C1296 1.384 . S
C1298 C1299 1.372 . S
C1299 C1298 1.372 . S
C1299 C1300 1.400 . S
C1299 C1304 1.490 . S
C1300 H1290 0.930 . S
C1300 C1299 1.400 . S
C1300 C1303 1.386 . S
H1301 C1317 0.930 . S
H1302 C1318 0.931 . S
C1303 H1291 0.929 . S
C1303 C1297 1.390 . S
C1303 C1300 1.386 . S
C1304 C1299 1.490 . S
C1304 C1306 1.395 . S
C1304 C1307 1.403 . S
H1305 C1311 0.930 . S
C1306 H1292 0.930 . S
C1306 C1304 1.395 . S
C1306 C1309 1.403 . S
C1307 C1304 1.403 . S
C1307 C1308 1.524 . S
C1307 C1311 1.400 . S
C1308 H1293 0.960 . S
C1308 H1294 0.960 . S
C1308 H1295 0.960 . S
C1308 C1307 1.524 . S
C1309 C1306 1.403 . S
C1309 C1310 1.392 . S
C1309 C1313 1.495 . S
C1310 C1309 1.392 . S
C1310 C1311 1.385 . S
C1310 C1312 1.478 . S
C1311 H1305 0.930 . S
C1311 C1307 1.400 . S
C1311 C1310 1.385 . S
C1312 C1310 1.478 . S
C1312 C1314 1.381 . S
C1312 C1318 1.383 . S
C1313 C1309 1.495 . S
C1313 H1319 0.959 . S
C1313 H1320 0.961 . S
C1313 H1321 0.960 . S
C1314 C1312 1.381 . S
C1314 C1315 1.394 . S
C1314 H1322 0.930 . S
C1315 C1314 1.394 . S
C1315 C1316 1.383 . S
C1315 H1323 0.929 . S
C1316 C1315 1.383 . S
C1316 C1317 1.377 . S
C1317 H1301 0.930 . S
C1317 C1316 1.377 . S
C1317 C1318 1.379 . S
C1318 H1302 0.931 . S
C1318 C1312 1.383 . S
C1318 C1317 1.379 . S
H1319 C1313 0.959 . S
H1320 C1313 0.961 . S
H1321 C1313 0.960 . S
H1322 C1314 0.930 . S
H1323 C1315 0.929 . S
H1324 C1332 0.929 . S
H1325 C1334 0.930 . S
H1326 C1336 0.930 . S
H1327 C1339 0.929 . S
H1328 C1342 0.930 . S
H1329 C1344 0.960 . S
H1330 C1344 0.960 . S
H1331 C1344 0.960 . S
C1332 H1324 0.929 . S
C1332 C1333 1.377 . S
C1332 C1334 1.384 . S
C1333 C1332 1.377 . S
C1333 C1339 1.390 . S
C1334 H1325 0.930 . S
C1334 C1332 1.384 . S
C1334 C1335 1.372 . S
C1335 C1334 1.372 . S
C1335 C1336 1.400 . S
C1335 C1340 1.490 . S
C1336 H1326 0.930 . S
C1336 C1335 1.400 . S
C1336 C1339 1.386 . S
H1337 C1353 0.930 . S
H1338 C1354 0.931 . S
C1339 H1327 0.929 . S
C1339 C1333 1.390 . S
C1339 C1336 1.386 . S
C1340 C1335 1.490 . S
C1340 C1342 1.395 . S
C1340 C1343 1.403 . S
H1341 C1347 0.930 . S
C1342 H1328 0.930 . S
C1342 C1340 1.395 . S
C1342 C1345 1.403 . S
C1343 C1340 1.403 . S
C1343 C1344 1.524 . S
C1343 C1347 1.400 . S
C1344 H1329 0.960 . S
C1344 H1330 0.960 . S
C1344 H1331 0.960 . S
C1344 C1343 1.524 . S
C1345 C1342 1.403 . S
C1345 C1346 1.392 . S
C1345 C1349 1.495 . S
C1346 C1345 1.392 . S
C1346 C1347 1.385 . S
C1346 C1348 1.478 . S
C1347 H1341 0.930 . S
C1347 C1343 1.400 . S
C1347 C1346 1.385 . S
C1348 C1346 1.478 . S
C1348 C1350 1.381 . S
C1348 C1354 1.383 . S
C1349 C1345 1.495 . S
C1349 H1355 0.959 . S
C1349 H1356 0.961 . S
C1349 H1357 0.960 . S
C1350 C1348 1.381 . S
C1350 C1351 1.394 . S
C1350 H1358 0.930 . S
C1351 C1350 1.394 . S
C1351 C1352 1.383 . S
C1351 H1359 0.929 . S
C1352 C1351 1.383 . S
C1352 C1353 1.377 . S
C1353 H1337 0.930 . S
C1353 C1352 1.377 . S
C1353 C1354 1.379 . S
C1354 H1338 0.931 . S
C1354 C1348 1.383 . S
C1354 C1353 1.379 . S
H1355 C1349 0.959 . S
H1356 C1349 0.961 . S
H1357 C1349 0.960 . S
H1358 C1350 0.930 . S
H1359 C1351 0.929 . S
H1360 C1368 0.929 . S
H1361 C1370 0.930 . S
H1362 C1372 0.930 . S
H1363 C1375 0.929 . S
H1364 C1378 0.930 . S
H1365 C1380 0.960 . S
H1366 C1380 0.960 . S
H1367 C1380 0.960 . S
C1368 H1360 0.929 . S
C1368 C1369 1.377 . S
C1368 C1370 1.384 . S
C1369 C1368 1.377 . S
C1369 C1375 1.390 . S
C1370 H1361 0.930 . S
C1370 C1368 1.384 . S
C1370 C1371 1.372 . S
C1371 C1370 1.372 . S
C1371 C1372 1.400 . S
C1371 C1376 1.490 . S
C1372 H1362 0.930 . S
C1372 C1371 1.400 . S
C1372 C1375 1.386 . S
H1373 C1389 0.930 . S
H1374 C1390 0.931 . S
C1375 H1363 0.929 . S
C1375 C1369 1.390 . S
C1375 C1372 1.386 . S
C1376 C1371 1.490 . S
C1376 C1378 1.395 . S
C1376 C1379 1.403 . S
H1377 C1383 0.930 . S
C1378 H1364 0.930 . S
C1378 C1376 1.395 . S
C1378 C1381 1.403 . S
C1379 C1376 1.403 . S
C1379 C1380 1.524 . S
C1379 C1383 1.400 . S
C1380 H1365 0.960 . S
C1380 H1366 0.960 . S
C1380 H1367 0.960 . S
C1380 C1379 1.524 . S
C1381 C1378 1.403 . S
C1381 C1382 1.392 . S
C1381 C1385 1.495 . S
C1382 C1381 1.392 . S
C1382 C1383 1.385 . S
C1382 C1384 1.478 . S
C1383 H1377 0.930 . S
C1383 C1379 1.400 . S
C1383 C1382 1.385 . S
C1384 C1382 1.478 . S
C1384 C1386 1.381 . S
C1384 C1390 1.383 . S
C1385 C1381 1.495 . S
C1385 H1391 0.959 . S
C1385 H1392 0.961 . S
C1385 H1393 0.960 . S
C1386 C1384 1.381 . S
C1386 C1387 1.394 . S
C1386 H1394 0.930 . S
C1387 C1386 1.394 . S
C1387 C1388 1.383 . S
C1387 H1395 0.929 . S
C1388 C1387 1.383 . S
C1388 C1389 1.377 . S
C1389 H1373 0.930 . S
C1389 C1388 1.377 . S
C1389 C1390 1.379 . S
C1390 H1374 0.931 . S
C1390 C1384 1.383 . S
C1390 C1389 1.379 . S
H1391 C1385 0.959 . S
H1392 C1385 0.961 . S
H1393 C1385 0.960 . S
H1394 C1386 0.930 . S
H1395 C1387 0.929 . S
H1396 C1404 0.929 . S
H1397 C1406 0.930 . S
H1398 C1408 0.930 . S
H1399 C1411 0.929 . S
H1400 C1414 0.930 . S
H1401 C1416 0.960 . S
H1402 C1416 0.960 . S
H1403 C1416 0.960 . S
C1404 H1396 0.929 . S
C1404 C1405 1.377 . S
C1404 C1406 1.384 . S
C1405 C1404 1.377 . S
C1405 C1411 1.390 . S
C1406 H1397 0.930 . S
C1406 C1404 1.384 . S
C1406 C1407 1.372 . S
C1407 C1406 1.372 . S
C1407 C1408 1.400 . S
C1407 C1412 1.490 . S
C1408 H1398 0.930 . S
C1408 C1407 1.400 . S
C1408 C1411 1.386 . S
H1409 C1425 0.930 . S
H1410 C1426 0.931 . S
C1411 H1399 0.929 . S
C1411 C1405 1.390 . S
C1411 C1408 1.386 . S
C1412 C1407 1.490 . S
C1412 C1414 1.395 . S
C1412 C1415 1.403 . S
H1413 C1419 0.930 . S
C1414 H1400 0.930 . S
C1414 C1412 1.395 . S
C1414 C1417 1.403 . S
C1415 C1412 1.403 . S
C1415 C1416 1.524 . S
C1415 C1419 1.400 . S
C1416 H1401 0.960 . S
C1416 H1402 0.960 . S
C1416 H1403 0.960 . S
C1416 C1415 1.524 . S
C1417 C1414 1.403 . S
C1417 C1418 1.392 . S
C1417 C1421 1.495 . S
C1418 C1417 1.392 . S
C1418 C1419 1.385 . S
C1418 C1420 1.478 . S
C1419 H1413 0.930 . S
C1419 C1415 1.400 . S
C1419 C1418 1.385 . S
C1420 C1418 1.478 . S
C1420 C1422 1.381 . S
C1420 C1426 1.383 . S
C1421 C1417 1.495 . S
C1421 H1427 0.959 . S
C1421 H1428 0.961 . S
C1421 H1429 0.960 . S
C1422 C1420 1.381 . S
C1422 C1423 1.394 . S
C1422 H1430 0.930 . S
C1423 C1422 1.394 . S
C1423 C1424 1.383 . S
C1423 H1431 0.929 . S
C1424 C1423 1.383 . S
C1424 C1425 1.377 . S
C1425 H1409 0.930 . S
C1425 C1424 1.377 . S
C1425 C1426 1.379 . S
C1426 H1410 0.931 . S
C1426 C1420 1.383 . S
C1426 C1425 1.379 . S
H1427 C1421 0.959 . S
H1428 C1421 0.961 . S
H1429 C1421 0.960 . S
H1430 C1422 0.930 . S
H1431 C1423 0.929 . S
H1432 C1440 0.929 . S
H1433 C1442 0.930 . S
H1434 C1444 0.930 . S
H1435 C1447 0.929 . S
H1436 C1450 0.930 . S
H1437 C1452 0.960 . S
H1438 C1452 0.960 . S
H1439 C1452 0.960 . S
C1440 H1432 0.929 . S
C1440 C1441 1.377 . S
C1440 C1442 1.384 . S
C1441 C1440 1.377 . S
C1441 C1447 1.390 . S
C1442 H1433 0.930 . S
C1442 C1440 1.384 . S
C1442 C1443 1.372 . S
C1443 C1442 1.372 . S
C1443 C1444 1.400 . S
C1443 C1448 1.490 . S
C1444 H1434 0.930 . S
C1444 C1443 1.400 . S
C1444 C1447 1.386 . S
H1445 C1461 0.930 . S
H1446 C1462 0.931 . S
C1447 H1435 0.929 . S
C1447 C1441 1.390 . S
C1447 C1444 1.386 . S
C1448 C1443 1.490 . S
C1448 C1450 1.395 . S
C1448 C1451 1.403 . S
H1449 C1455 0.930 . S
C1450 H1436 0.930 . S
C1450 C1448 1.395 . S
C1450 C1453 1.403 . S
C1451 C1448 1.403 . S
C1451 C1452 1.524 . S
C1451 C1455 1.400 . S
C1452 H1437 0.960 . S
C1452 H1438 0.960 . S
C1452 H1439 0.960 . S
C1452 C1451 1.524 . S
C1453 C1450 1.403 . S
C1453 C1454 1.392 . S
C1453 C1457 1.495 . S
C1454 C1453 1.392 . S
C1454 C1455 1.385 . S
C1454 C1456 1.478 . S
C1455 H1449 0.930 . S
C1455 C1451 1.400 . S
C1455 C1454 1.385 . S
C1456 C1454 1.478 . S
C1456 C1458 1.381 . S
C1456 C1462 1.383 . S
C1457 C1453 1.495 . S
C1457 H1463 0.959 . S
C1457 H1464 0.961 . S
C1457 H1465 0.960 . S
C1458 C1456 1.381 . S
C1458 C1459 1.394 . S
C1458 H1466 0.930 . S
C1459 C1458 1.394 . S
C1459 C1460 1.383 . S
C1459 H1467 0.929 . S
C1460 C1459 1.383 . S
C1460 C1461 1.377 . S
C1461 H1445 0.930 . S
C1461 C1460 1.377 . S
C1461 C1462 1.379 . S
C1462 H1446 0.931 . S
C1462 C1456 1.383 . S
C1462 C1461 1.379 . S
H1463 C1457 0.959 . S
H1464 C1457 0.961 . S
H1465 C1457 0.960 . S
H1466 C1458 0.930 . S
H1467 C1459 0.929 . S
H1468 C1476 0.929 . S
H1469 C1478 0.930 . S
H1470 C1480 0.930 . S
H1471 C1483 0.929 . S
H1472 C1486 0.930 . S
H1473 C1488 0.960 . S
H1474 C1488 0.960 . S
H1475 C1488 0.960 . S
C1476 H1468 0.929 . S
C1476 C1477 1.377 . S
C1476 C1478 1.384 . S
C1477 C1476 1.377 . S
C1477 C1483 1.390 . S
C1478 H1469 0.930 . S
C1478 C1476 1.384 . S
C1478 C1479 1.372 . S
C1479 C1478 1.372 . S
C1479 C1480 1.400 . S
C1479 C1484 1.490 . S
C1480 H1470 0.930 . S
C1480 C1479 1.400 . S
C1480 C1483 1.386 . S
H1481 C1497 0.930 . S
H1482 C1498 0.931 . S
C1483 H1471 0.929 . S
C1483 C1477 1.390 . S
C1483 C1480 1.386 . S
C1484 C1479 1.490 . S
C1484 C1486 1.395 . S
C1484 C1487 1.403 . S
H1485 C1491 0.930 . S
C1486 H1472 0.930 . S
C1486 C1484 1.395 . S
C1486 C1489 1.403 . S
C1487 C1484 1.403 . S
C1487 C1488 1.524 . S
C1487 C1491 1.400 . S
C1488 H1473 0.960 . S
C1488 H1474 0.960 . S
C1488 H1475 0.960 . S
C1488 C1487 1.524 . S
C1489 C1486 1.403 . S
C1489 C1490 1.392 . S
C1489 C1493 1.495 . S
C1490 C1489 1.392 . S
C1490 C1491 1.385 . S
C1490 C1492 1.478 . S
C1491 H1485 0.930 . S
C1491 C1487 1.400 . S
C1491 C1490 1.385 . S
C1492 C1490 1.478 . S
C1492 C1494 1.381 . S
C1492 C1498 1.383 . S
C1493 C1489 1.495 . S
C1493 H1499 0.959 . S
C1493 H1500 0.961 . S
C1493 H1501 0.960 . S
C1494 C1492 1.381 . S
C1494 C1495 1.394 . S
C1494 H1502 0.930 . S
C1495 C1494 1.394 . S
C1495 C1496 1.383 . S
C1495 H1503 0.929 . S
C1496 C1495 1.383 . S
C1496 C1497 1.377 . S
C1497 H1481 0.930 . S
C1497 C1496 1.377 . S
C1497 C1498 1.379 . S
C1498 H1482 0.931 . S
C1498 C1492 1.383 . S
C1498 C1497 1.379 . S
H1499 C1493 0.959 . S
H1500 C1493 0.961 . S
H1501 C1493 0.960 . S
H1502 C1494 0.930 . S
H1503 C1495 0.929 . S
C649 C1 1.181 . S
C668 C487 1.270 . S
C685 C80 0.926 . S
C704 C536 0.960 . S
C740 C562 2.415 . S
C721 C140 2.397 . S
C757 C211 2.281 . S
C776 C610 2.252 . S
C812 C522 2.511 . S
C793 C31 2.316 . S
C848 C490 0.879 . S
C829 C61 0.900 . S
C884 C611 1.868 . S
C865 C151 1.861 . S
C920 C579 1.480 . S
C901 C200 1.480 . S
C937 C20 1.710 . S
C956 C607 1.788 . S
C992 C539 2.292 . S
C973 C121 2.357 . S
C1009 C181 2.287 . S
C1028 C491 2.323 . S
C1045 C91 0.755 . S
C1064 C576 0.776 . S
C1100 C496 1.286 . S
C1081 C260 1.202 . S
C1117 C320 0.944 . S
C1136 C527 0.971 . S
C1153 C361 2.400 . S
C1172 C571 2.421 . S
C1189 C451 2.281 . S
C1208 C619 2.249 . S
C1225 C271 2.378 . S
C1244 C531 2.510 . S
C1280 C499 0.886 . S
C1261 C301 0.900 . S
C1316 C602 1.861 . S
C1297 C380 1.847 . S
C1352 C570 1.458 . S
C1333 C440 1.480 . S
C1369 C241 1.649 . S
C1388 C616 1.790 . S
C1424 C530 2.317 . S
C1405 C391 2.349 . S
C1460 C482 2.322 . S
C1441 C421 2.290 . S
C1477 C331 0.755 . S
C1496 C567 0.761 . S
