# Generated by pormake.
# Topology anh, (6,3)-cn, num edge types: 1
# Building blocks:
#     Node 0, Type 0, BuildingBlock: HISSIN_clean_sbu_0, # of connection points: 6
#     Node 1, Type 0, BuildingBlock: HISSIN_clean_sbu_0, # of connection points: 6
#     Node 2, Type 0, BuildingBlock: HISSIN_clean_sbu_0, # of connection points: 6
#     Node 3, Type 1, BuildingBlock: KAKCAD_clean_linker_0, # of connection points: 3
#     Node 4, Type 1, BuildingBlock: KAKCAD_clean_linker_0, # of connection points: 3
#     Node 5, Type 1, BuildingBlock: KAKCAD_clean_linker_0, # of connection points: 3
#     Node 6, Type 1, BuildingBlock: KAKCAD_clean_linker_0, # of connection points: 3
#     Node 7, Type 1, BuildingBlock: KAKCAD_clean_linker_0, # of connection points: 3
#     Node 8, Type 1, BuildingBlock: KAKCAD_clean_linker_0, # of connection points: 3
#     Edge 9, Type (0, 1), BuildingBlock: EZIPEK_clean_linker_0, # of connection points: 2
#     Edge 10, Type (0, 1), BuildingBlock: EZIPEK_clean_linker_0, # of connection points: 2
#     Edge 11, Type (0, 1), BuildingBlock: EZIPEK_clean_linker_0, # of connection points: 2
#     Edge 12, Type (0, 1), BuildingBlock: EZIPEK_clean_linker_0, # of connection points: 2
#     Edge 13, Type (0, 1), BuildingBlock: EZIPEK_clean_linker_0, # of connection points: 2
#     Edge 14, Type (0, 1), BuildingBlock: EZIPEK_clean_linker_0, # of connection points: 2
#     Edge 15, Type (0, 1), BuildingBlock: EZIPEK_clean_linker_0, # of connection points: 2
#     Edge 16, Type (0, 1), BuildingBlock: EZIPEK_clean_linker_0, # of connection points: 2
#     Edge 17, Type (0, 1), BuildingBlock: EZIPEK_clean_linker_0, # of connection points: 2
#     Edge 18, Type (0, 1), BuildingBlock: EZIPEK_clean_linker_0, # of connection points: 2
#     Edge 19, Type (0, 1), BuildingBlock: EZIPEK_clean_linker_0, # of connection points: 2
#     Edge 20, Type (0, 1), BuildingBlock: EZIPEK_clean_linker_0, # of connection points: 2
#     Edge 21, Type (0, 1), BuildingBlock: EZIPEK_clean_linker_0, # of connection points: 2
#     Edge 22, Type (0, 1), BuildingBlock: EZIPEK_clean_linker_0, # of connection points: 2
#     Edge 23, Type (0, 1), BuildingBlock: EZIPEK_clean_linker_0, # of connection points: 2
#     Edge 24, Type (0, 1), BuildingBlock: EZIPEK_clean_linker_0, # of connection points: 2
#     Edge 25, Type (0, 1), BuildingBlock: EZIPEK_clean_linker_0, # of connection points: 2
#     Edge 26, Type (0, 1), BuildingBlock: EZIPEK_clean_linker_0, # of connection points: 2
# Relax obj value: 0.297
# Max RMSD: 0.196
# Mean RMSD: 0.163
data_MOF--net-anh--node1-HISSIN_clean_sbu_0--node2-KAKCAD_clean_linker_0--edge1-EZIPEK_clean_linker_0
_symmetry_space_group_name_H-M    P1
_symmetry_Int_Tables_number       1
_symmetry_cell_setting            triclinic
loop_
_symmetry_equiv_pos_as_xyz
'x, y, z'
_cell_length_a     28.238627
_cell_length_b     27.785425
_cell_length_c     52.814251
_cell_angle_alpha  92.649968
_cell_angle_beta   90.411248
_cell_angle_gamma 119.92404
loop_
_atom_site_label
_atom_site_type_symbol
_atom_site_fract_x
_atom_site_fract_y
_atom_site_fract_z
_atom_type_partial_charge
Eu0 Eu 1.0898 0.5431 0.1706 0.0
Eu1 Eu 0.15711 0.67691 0.16725 0.0
C2 C 1.13323 0.62147 0.22053 0.0
C3 C 0.96477 0.40941 0.1779 0.0
C4 C 0.94126 0.43925 0.18891 0.0
C5 C 0.87427 0.32957 0.17038 0.0
C6 C 0.88493 0.41493 0.19038 0.0
C7 C 0.93095 0.35451 0.16841 0.0
C8 C 0.85123 0.35968 0.18156 0.0
C9 C 1.02412 0.43739 0.17513 0.0
O10 O 0.22375 0.6521 0.16569 0.0
O11 O 0.17427 0.55641 0.16221 0.0
C12 C 0.22153 0.60337 0.16253 0.0
O13 O 1.0778 0.55859 0.13014 0.0
O14 O 0.22473 0.75853 0.18006 0.0
O15 O 0.16669 0.75213 0.15122 0.0
O16 O 0.15371 0.64413 0.12749 0.0
C17 C 1.11177 0.59985 0.11682 0.0
O18 O 1.02853 0.5725 0.179 0.0
O19 O 1.06859 0.65359 0.15892 0.0
O20 O 1.13163 0.6604 0.20803 0.0
O21 O 1.04125 0.45872 0.15331 0.0
O22 O 1.05298 0.47167 0.19405 0.0
O23 O 1.13344 0.5796 0.2083 0.0
C24 C 0.26059 0.80868 0.14382 0.0
C25 C 0.25248 0.7895 0.11806 0.0
C26 C 0.35803 0.84867 0.13949 0.0
C27 C 0.2968 0.79702 0.10367 0.0
C28 C 0.31403 0.84185 0.15376 0.0
C29 C 0.34922 0.82247 0.1151 0.0
C30 C 0.21557 0.7828 0.16153 0.0
C31 C 1.02484 0.6124 0.16827 0.0
H32 H 0.9663 0.48155 0.19635 0.0
H33 H 0.84841 0.28667 0.16349 0.0
H34 H 0.86766 0.43858 0.19906 0.0
H35 H 0.94831 0.33108 0.15962 0.0
H36 H 0.2117 0.76432 0.10964 0.0
H37 H 0.39856 0.87035 0.14842 0.0
H38 H 0.28944 0.77855 0.0845 0.0
H39 H 0.32145 0.85755 0.1734 0.0
Eu40 Eu 0.65391 1.05805 0.4917 0.0
Eu41 Eu 0.58729 0.12279 0.49663 0.0
C42 C 0.63634 1.0987 0.5473 0.0
C43 C 0.75188 1.00172 0.49871 0.0
C44 C 0.75579 1.00595 0.52534 0.0
C45 C 0.82573 0.98102 0.49761 0.0
C46 C 0.79311 0.99564 0.53802 0.0
C47 C 0.78804 0.9908 0.48494 0.0
C48 C 0.82716 0.9816 0.52419 0.0
C49 C 0.70884 1.00599 0.48507 0.0
O50 O 0.67209 0.18496 0.4834 0.0
O51 O 0.7199 0.14819 0.50079 0.0
C52 C 0.71908 0.19058 0.49113 0.0
O53 O 0.64198 1.08092 0.4527 0.0
O54 O 0.56048 0.17524 0.51669 0.0
O55 O 0.54127 0.15438 0.47669 0.0
O56 O 0.55907 1.07016 0.45987 0.0
C57 C 0.59335 1.06787 0.44408 0.0
O58 O 0.56291 0.99152 0.48639 0.0
O59 O 0.52521 1.03642 0.50825 0.0
O60 O 0.62119 0.13088 0.53654 0.0
O61 O 0.66139 0.98449 0.49554 0.0
O62 O 0.72308 1.0538 0.47583 0.0
O63 O 0.64541 1.06318 0.534 0.0
C64 C 0.58203 0.24884 0.49058 0.0
C65 C 0.61927 0.26452 0.47075 0.0
C66 C 0.63432 0.34233 0.50988 0.0
C67 C 0.66541 0.31747 0.47143 0.0
C68 C 0.58822 0.28923 0.50929 0.0
C69 C 0.67452 0.35545 0.49177 0.0
C70 C 0.54804 0.18943 0.49552 0.0
C71 C 0.52053 0.9903 0.49759 0.0
H72 H 0.72866 1.01513 0.53629 0.0
H73 H 0.85168 0.97003 0.48673 0.0
H74 H 0.79373 0.99611 0.55854 0.0
H75 H 0.7858 0.98788 0.46439 0.0
H76 H 0.61596 0.23435 0.45606 0.0
H77 H 0.64113 0.37141 0.52578 0.0
H78 H 0.69632 0.32694 0.45744 0.0
H79 H 0.56048 0.27811 0.52483 0.0
Eu80 Eu 0.60874 0.59562 0.8409 0.0
Eu81 Eu 0.73969 0.66241 0.83956 0.0
C82 C 0.68148 0.6465 0.89222 0.0
C83 C 0.47629 0.57551 0.8602 0.0
C84 C 0.50513 0.61602 0.8799 0.0
C85 C 0.40465 0.59928 0.86171 0.0
C86 C 0.48511 0.64942 0.88967 0.0
C87 C 0.42533 0.56641 0.85152 0.0
C88 C 0.43542 0.64201 0.88025 0.0
C89 C 0.50404 0.55042 0.84629 0.0
O90 O 0.71405 0.57226 0.82777 0.0
O91 O 0.63378 0.53078 0.84818 0.0
C92 C 0.67346 0.52735 0.83681 0.0
O93 O 0.62539 0.57309 0.80186 0.0
O94 O 0.81976 0.67077 0.84667 0.0
O95 O 0.81324 0.73257 0.82588 0.0
O96 O 0.70574 0.65447 0.80013 0.0
C97 C 0.66627 0.60882 0.789 0.0
O98 O 0.63302 0.68282 0.82858 0.0
O99 O 0.71799 0.73017 0.84769 0.0
O100 O 0.72278 0.64657 0.88099 0.0
O101 O 0.52831 0.57592 0.82611 0.0
O102 O 0.53507 0.53876 0.86012 0.0
O103 O 0.63986 0.64181 0.879 0.0
C104 C 0.87 0.70062 0.81 0.0
C105 C 0.83777 0.65952 0.79114 0.0
C106 C 0.95125 0.71167 0.79011 0.0
C107 C 0.86214 0.64258 0.77259 0.0
C108 C 0.92675 0.72833 0.80873 0.0
C109 C 0.91925 0.66588 0.77266 0.0
C110 C 0.8438 0.71156 0.83158 0.0
C111 C 0.67607 0.73033 0.83668 0.0
H112 H 0.54457 0.62394 0.88688 0.0
H113 H 0.36615 0.59339 0.85427 0.0
H114 H 0.50919 0.68226 0.90395 0.0
H115 H 0.4029 0.53585 0.83615 0.0
H116 H 0.79359 0.63845 0.79153 0.0
H117 H 0.99539 0.73193 0.7911 0.0
H118 H 0.83589 0.6089 0.75925 0.0
H119 H 0.95217 0.7608 0.82292 0.0
C120 C 0.52336 1.028 0.32311 0.0
C121 C 0.53228 0.99256 0.33796 0.0
C122 C 0.51658 1.01879 0.29689 0.0
C123 C 0.52339 0.97678 0.28437 0.0
C124 C 0.52881 0.939 0.29937 0.0
C125 C 0.53151 0.94591 0.32592 0.0
C126 C 0.53068 0.97693 0.25624 0.0
C127 C 0.55117 1.02757 0.24423 0.0
C128 C 0.56098 1.03066 0.21834 0.0
C129 C 0.55315 0.98362 0.20424 0.0
C130 C 0.53441 0.93302 0.21559 0.0
C131 C 0.52147 0.92902 0.2414 0.0
C132 C 0.52438 0.88487 0.19874 0.0
C133 C 0.47036 0.84642 0.19126 0.0
C134 C 0.56706 0.88853 0.18382 0.0
C135 C 0.55553 0.86079 0.15983 0.0
C136 C 0.50126 0.82971 0.15053 0.0
C137 C 0.58497 1.08468 0.2067 0.0
C138 C 0.56308 0.12 0.21072 0.0
C139 C 0.63343 0.10331 0.19357 0.0
C140 C 0.66226 0.158 0.18666 0.0
C141 C 0.64288 0.19471 0.19259 0.0
C142 C 0.59165 0.17478 0.20334 0.0
C143 C 0.45888 0.8192 0.16729 0.0
H144 H 0.52264 1.06375 0.33176 0.0
H145 H 0.5083 1.04659 0.28652 0.0
H146 H 0.53369 0.90567 0.29085 0.0
H147 H 0.5368 0.91696 0.33699 0.0
H148 H 0.56249 1.06603 0.25503 0.0
H149 H 0.50483 0.88905 0.24965 0.0
H150 H 0.56118 0.98629 0.18414 0.0
H151 H 0.43681 0.84301 0.20238 0.0
H152 H 0.60922 0.918 0.18938 0.0
H153 H 0.58901 0.8679 0.1478 0.0
H154 H 0.52522 0.10593 0.22053 0.0
H155 H 0.65109 1.07686 0.19027 0.0
H156 H 0.41641 0.79442 0.161 0.0
H157 H 0.57584 0.20251 0.20765 0.0
H158 H 0.70175 0.17277 0.17827 0.0
C159 C 0.77313 0.596 0.67947 0.0
C160 C 0.78475 0.62467 0.70318 0.0
C161 C 0.81307 0.61338 0.66133 0.0
C162 C 0.86546 0.65997 0.66652 0.0
C163 C 0.87753 0.68746 0.6907 0.0
C164 C 0.83735 0.6699 0.7089 0.0
C165 C 0.90328 0.68357 0.64536 0.0
C166 C 0.92465 0.73978 0.64038 0.0
C167 C 0.94165 0.75821 0.61593 0.0
C168 C 0.93976 0.72004 0.59688 0.0
C169 C 0.91951 0.66415 0.60188 0.0
C170 C 0.90522 0.64734 0.62662 0.0
C171 C 0.89758 0.62123 0.58067 0.0
C172 C 0.92842 0.62375 0.55944 0.0
C173 C 0.84247 0.5792 0.58095 0.0
C174 C 0.81878 0.54009 0.56081 0.0
C175 C 0.84937 0.54202 0.53982 0.0
C176 C 0.94648 0.8113 0.60831 0.0
C177 C 0.90746 0.82562 0.61639 0.0
C178 C 0.98232 0.84166 0.5893 0.0
C179 C 0.97512 0.88094 0.57674 0.0
C180 C 0.93224 0.89038 0.58321 0.0
C181 C 0.90052 0.86488 0.60395 0.0
C182 C 0.90445 0.58386 0.53909 0.0
H183 H 0.73254 0.56148 0.6747 0.0
H184 H 0.80168 0.59208 0.64272 0.0
H185 H 0.91729 0.72353 0.69519 0.0
H186 H 0.84663 0.69277 0.72713 0.0
H187 H 0.92214 0.76768 0.65462 0.0
H188 H 0.8881 0.60376 0.63029 0.0
H189 H 0.94704 0.7319 0.57741 0.0
H190 H 0.97073 0.65629 0.55866 0.0
H191 H 0.81702 0.57718 0.59658 0.0
H192 H 0.77618 0.50811 0.56157 0.0
H193 H 0.87851 0.80283 0.63064 0.0
H194 H 1.01307 0.83195 0.58284 0.0
H195 H 0.92848 0.58557 0.52291 0.0
H196 H 0.86705 0.87159 0.60903 0.0
H197 H 0.99979 0.90028 0.56065 0.0
C198 C 1.11134 0.69147 0.00896 0.0
C199 C 1.08794 0.63441 0.01216 0.0
C200 C 1.11457 0.71073 0.98479 0.0
C201 C 1.0948 0.67323 0.96339 0.0
C202 C 1.06894 0.61576 0.96681 0.0
C203 C 1.06542 0.59645 0.99111 0.0
C204 C 1.10803 0.69461 0.93769 0.0
C205 C 0.16225 0.73524 0.93322 0.0
C206 C 0.17889 0.75172 0.90859 0.0
C207 C 1.13894 0.73172 0.88898 0.0
C208 C 1.08655 0.6873 0.89257 0.0
C209 C 1.0704 0.66944 0.91702 0.0
C210 C 1.05482 0.65393 0.86982 0.0
C211 C 1.01078 0.65837 0.86056 0.0
C212 C 1.07579 0.62618 0.85476 0.0
C213 C 1.05588 0.6071 0.8299 0.0
C214 C 1.01519 0.61613 0.81989 0.0
C215 C 0.237 0.77272 0.90222 0.0
C216 C 0.28 0.80439 0.9202 0.0
C217 C 0.24782 0.74853 0.8806 0.0
C218 C 0.29622 0.74756 0.87926 0.0
C219 C 0.33497 0.7709 0.89931 0.0
C220 C 0.32913 0.80358 0.91871 0.0
C221 C 0.99087 0.63925 0.83571 0.0
H222 H 1.12839 0.72114 0.02514 0.0
H223 H 1.13434 0.75517 0.98271 0.0
H224 H 1.05404 0.58594 0.95066 0.0
H225 H 1.04701 0.55221 0.99341 0.0
H226 H 0.19258 0.74894 0.94858 0.0
H227 H 1.02989 0.63467 0.9197 0.0
H228 H 0.15058 0.74489 0.86989 0.0
H229 H 0.99445 0.67996 0.87183 0.0
H230 H 1.11012 0.62273 0.86171 0.0
H231 H 1.0746 0.58883 0.81804 0.0
H232 H 0.27383 0.82515 0.93663 0.0
H233 H 0.21673 0.72388 0.86608 0.0
H234 H 0.95863 0.64555 0.82834 0.0
H235 H 0.3597 0.8232 0.93399 0.0
H236 H 0.30074 0.72327 0.86379 0.0
C237 C 1.07417 0.59386 0.34294 0.0
C238 C 1.12066 0.60253 0.32978 0.0
C239 C 1.07152 0.58668 0.36908 0.0
C240 C 1.1157 0.589 0.38261 0.0
C241 C 0.16205 0.59737 0.36938 0.0
C242 C 0.16432 0.60361 0.34319 0.0
C243 C 1.11557 0.58775 0.41074 0.0
C244 C 1.07251 0.54492 0.42312 0.0
C245 C 1.07172 0.54464 0.44984 0.0
C246 C 1.11482 0.59101 0.46425 0.0
C247 C 0.15852 0.63546 0.45178 0.0
C248 C 0.15845 0.63136 0.42511 0.0
C249 C 0.2051 0.68758 0.46498 0.0
C250 C 0.23458 0.68666 0.48646 0.0
C251 C 0.22512 0.73896 0.45358 0.0
C252 C 0.27481 0.78582 0.4616 0.0
C253 C 0.30583 0.78462 0.48223 0.0
C254 C 1.02502 0.49475 0.46135 0.0
C255 C 0.98985 0.49985 0.47872 0.0
C256 C 1.01067 0.44058 0.45195 0.0
C257 C 0.96219 0.39352 0.45882 0.0
C258 C 0.92601 0.39864 0.47537 0.0
C259 C 0.94089 0.45245 0.48553 0.0
C260 C 0.28393 0.73477 0.49516 0.0
H261 H 1.03997 0.59272 0.33293 0.0
H262 H 1.03565 0.58102 0.37886 0.0
H263 H 0.19669 0.5994 0.37938 0.0
H264 H 0.20035 0.6098 0.3334 0.0
H265 H 1.03943 0.51121 0.41178 0.0
H266 H 0.19188 0.66344 0.41511 0.0
H267 H 1.1143 0.59241 0.48476 0.0
H268 H 0.22085 0.64832 0.49587 0.0
H269 H 0.2032 0.74258 0.43754 0.0
H270 H 0.28949 0.82325 0.45132 0.0
H271 H 0.99876 0.54066 0.48607 0.0
H272 H 1.03641 0.43469 0.43852 0.0
H273 H 0.30604 0.73247 0.51147 0.0
H274 H 0.91379 0.45808 0.49808 0.0
H275 H 0.95217 0.35294 0.45062 0.0
C276 C 0.62536 1.06136 0.67107 0.0
C277 C 0.65687 0.10913 0.65767 0.0
C278 C 0.62881 1.0639 0.69764 0.0
C279 C 0.66388 0.11434 0.71143 0.0
C280 C 0.69572 0.162 0.69784 0.0
C281 C 0.69221 0.15941 0.67127 0.0
C282 C 0.66682 0.11745 0.73986 0.0
C283 C 0.66799 1.07545 0.75309 0.0
C284 C 0.67312 1.07831 0.77986 0.0
C285 C 0.67254 0.12381 0.7935 0.0
C286 C 0.66881 0.16587 0.78042 0.0
C287 C 0.66817 0.16242 0.75365 0.0
C288 C 0.66534 0.2141 0.79342 0.0
C289 C 0.69467 0.24235 0.81616 0.0
C290 C 0.63496 0.23529 0.78158 0.0
C291 C 0.63702 0.28451 0.79079 0.0
C292 C 0.66768 0.31392 0.81291 0.0
C293 C 0.67867 1.03277 0.79236 0.0
C294 C 0.70283 1.00532 0.77921 0.0
C295 C 0.65785 1.01357 0.81637 0.0
C296 C 0.65932 0.96758 0.82615 0.0
C297 C 0.6803 0.93831 0.81198 0.0
C298 C 0.70236 0.95855 0.78846 0.0
C299 C 0.69536 0.29119 0.82589 0.0
H300 H 0.59768 1.02219 0.66093 0.0
H301 H 0.6032 1.02654 0.70741 0.0
H302 H 0.7237 0.20135 0.70774 0.0
H303 H 0.71692 0.19673 0.6613 0.0
H304 H 0.66541 1.04032 0.74212 0.0
H305 H 0.66789 0.19488 0.74319 0.0
H306 H 0.67484 0.12646 0.81402 0.0
H307 H 0.71848 0.22785 0.82604 0.0
H308 H 0.6098 0.21426 0.76468 0.0
H309 H 0.61451 0.29987 0.78041 0.0
H310 H 0.7221 1.01948 0.76133 0.0
H311 H 0.63908 1.033 0.82738 0.0
H312 H 0.71875 0.3121 0.84324 0.0
H313 H 0.71958 0.93802 0.77705 0.0
H314 H 0.6427 0.95393 0.84456 0.0
C315 C 0.67632 0.61378 0.01475 0.0
C316 C 0.66611 0.65089 0.00193 0.0
C317 C 0.6699 0.60962 0.0409 0.0
C318 C 0.65318 0.64258 0.05497 0.0
C319 C 0.64327 0.6801 0.04205 0.0
C320 C 0.64976 0.68426 0.01575 0.0
C321 C 0.64494 0.63584 0.08282 0.0
C322 C 0.68192 0.62872 0.0976 0.0
C323 C 0.67235 0.61394 0.1229 0.0
C324 C 0.6236 0.60811 0.13395 0.0
C325 C 0.5852 0.61645 0.11941 0.0
C326 C 0.59853 0.63216 0.0941 0.0
C327 C 0.53038 0.60783 0.12913 0.0
C328 C 0.52062 0.6135 0.15505 0.0
C329 C 0.48663 0.59532 0.11178 0.0
C330 C 0.43834 0.59369 0.11942 0.0
C331 C 0.42902 0.60108 0.14505 0.0
C332 C 0.71426 0.60305 0.13572 0.0
C333 C 0.73489 0.5732 0.12177 0.0
C334 C 0.74125 0.62967 0.15908 0.0
C335 C 0.78892 0.62893 0.16731 0.0
C336 C 0.81178 0.60277 0.15212 0.0
C337 C 0.78295 0.57396 0.12951 0.0
C338 C 0.4705 0.60909 0.16288 0.0
H339 H 0.68841 0.58729 0.00438 0.0
H340 H 0.67688 0.57949 0.05004 0.0
H341 H 0.63065 0.70628 0.05226 0.0
H342 H 0.64139 0.71294 0.00612 0.0
H343 H 0.71899 0.63441 0.08898 0.0
H344 H 0.5722 0.64067 0.08251 0.0
H345 H 0.61498 0.59543 0.15322 0.0
H346 H 0.55193 0.62231 0.16937 0.0
H347 H 0.48886 0.58646 0.09183 0.0
H348 H 0.40765 0.58619 0.10495 0.0
H349 H 0.71525 0.55138 0.10386 0.0
H350 H 0.72726 0.65339 0.17036 0.0
H351 H 0.46473 0.61326 0.18294 0.0
H352 H 0.79844 0.55284 0.11734 0.0
H353 H 0.80931 0.65086 0.18508 0.0
C354 C 0.27694 0.56192 0.1419 0.0
C355 C 0.27446 0.60127 0.15941 0.0
C356 C 0.37432 0.64169 0.1682 0.0
C357 C 0.37543 0.59926 0.15227 0.0
N358 N 0.32072 0.50779 0.1318 0.0
N359 N 0.31975 0.66738 0.19496 0.0
C360 C 0.32454 0.55604 0.14154 0.0
C361 C 0.32291 0.63786 0.17428 0.0
N362 N 0.23512 0.53144 0.12457 0.0
N363 N 0.42217 0.687 0.1769 0.0
H364 H 0.28297 0.66327 0.20108 0.0
H365 H 0.35229 0.69048 0.2079 0.0
H366 H 0.46041 0.69442 0.17135 0.0
H367 H 0.42385 0.72 0.18778 0.0
H368 H 0.23774 0.50656 0.10988 0.0
H369 H 0.20059 0.53554 0.12294 0.0
H370 H 0.28362 0.47307 0.12579 0.0
H371 H 0.35328 0.50014 0.1327 0.0
C372 C 0.78211 0.27074 0.46401 0.0
C373 C 0.77194 0.24483 0.48761 0.0
C374 C 0.86366 0.31984 0.50344 0.0
C375 C 0.87158 0.3477 0.48057 0.0
N376 N 0.83231 0.35517 0.4414 0.0
N377 N 0.79946 0.25264 0.53165 0.0
C378 C 0.82881 0.3248 0.46164 0.0
C379 C 0.81193 0.27148 0.50781 0.0
N380 N 0.74918 0.24238 0.44319 0.0
N381 N 0.90599 0.33892 0.52087 0.0
H382 H 0.7614 0.21969 0.53595 0.0
H383 H 0.82439 0.27339 0.54766 0.0
H384 H 0.94355 0.37475 0.51869 0.0
H385 H 0.90524 0.31711 0.53652 0.0
H386 H 0.75769 0.25676 0.42499 0.0
H387 H 0.71678 0.20167 0.44342 0.0
H388 H 0.79991 0.34374 0.42847 0.0
H389 H 0.86571 0.39454 0.43893 0.0
C390 C 0.7257 0.83081 0.82282 0.0
C391 C 0.6781 0.78503 0.83218 0.0
C392 C 0.63049 0.8388 0.82765 0.0
C393 C 0.67981 0.88671 0.8211 0.0
N394 N 0.77814 0.93085 0.82017 0.0
N395 N 0.59 0.75407 0.85029 0.0
C396 C 0.72859 0.88347 0.82116 0.0
C397 C 0.63192 0.7916 0.83662 0.0
N398 N 0.76702 0.8236 0.81378 0.0
N399 N 0.58146 0.83635 0.82396 0.0
H400 H 0.5902 0.72033 0.85803 0.0
H401 H 0.55874 0.76075 0.85656 0.0
H402 H 0.57758 0.86814 0.8163 0.0
H403 H 0.54439 0.79995 0.82582 0.0
H404 H 0.80035 0.85446 0.80476 0.0
H405 H 0.76456 0.78494 0.81227 0.0
H406 H 0.81508 0.93128 0.82232 0.0
H407 H 0.7822 0.97029 0.82017 0.0
C408 C 0.92115 0.55896 0.15855 0.0
C409 C 0.96972 0.60984 0.16586 0.0
C410 C 0.91554 0.65753 0.16309 0.0
C411 C 0.86595 0.60569 0.15894 0.0
N412 N 0.82237 0.50582 0.16001 0.0
N413 N 1.00792 0.70558 0.18137 0.0
C414 C 0.8691 0.55609 0.15899 0.0
C415 C 0.96533 0.65854 0.17 0.0
N416 N 0.92433 0.51391 0.14944 0.0
N417 N 0.91633 0.70614 0.15913 0.0
H418 H 1.0437 0.7074 0.18796 0.0
H419 H 1.00504 0.74051 0.1869 0.0
H420 H 0.88207 0.70767 0.15286 0.0
H421 H 0.95237 0.74444 0.15942 0.0
H422 H 0.89061 0.47791 0.14155 0.0
H423 H 0.96119 0.51453 0.14701 0.0
H424 H 0.82268 0.4689 0.16227 0.0
H425 H 0.78384 0.50202 0.16149 0.0
C426 C 0.41583 0.93858 0.49187 0.0
C427 C 0.46514 0.93711 0.49587 0.0
C428 C 0.41034 0.83435 0.49044 0.0
C429 C 0.36071 0.83605 0.48954 0.0
N430 N 0.31818 0.89172 0.49768 0.0
N431 N 0.50459 0.88034 0.50612 0.0
C432 C 0.36419 0.88881 0.49301 0.0
C433 C 0.46097 0.88399 0.49733 0.0
N434 N 0.41745 0.98619 0.48504 0.0
N435 N 0.41021 0.78636 0.48346 0.0
H436 H 0.54097 0.91495 0.51292 0.0
H437 H 0.50212 0.84251 0.50953 0.0
H438 H 0.37508 0.74989 0.4771 0.0
H439 H 0.44604 0.78463 0.48143 0.0
H440 H 0.38238 0.98746 0.47992 0.0
H441 H 0.4534 1.02213 0.48105 0.0
H442 H 0.3193 0.92915 0.50242 0.0
H443 H 0.28011 0.85641 0.49972 0.0
C444 C 0.72053 0.46875 0.83415 0.0
C445 C 0.67152 0.47166 0.8329 0.0
C446 C 0.62048 0.36922 0.82533 0.0
C447 C 0.66981 0.36797 0.8219 0.0
N448 N 0.76791 0.42144 0.81851 0.0
N449 N 0.57482 0.42246 0.82103 0.0
C450 C 0.72021 0.4191 0.82513 0.0
C451 C 0.62137 0.42123 0.82693 0.0
N452 N 0.76727 0.51245 0.84491 0.0
N453 N 0.57248 0.32066 0.82759 0.0
H454 H 0.57353 0.45903 0.8197 0.0
H455 H 0.53887 0.38724 0.81429 0.0
H456 H 0.57041 0.2821 0.82756 0.0
H457 H 0.53621 0.31952 0.83241 0.0
H458 H 0.80275 0.51062 0.84823 0.0
H459 H 0.76859 0.5477 0.85345 0.0
H460 H 0.80483 0.45874 0.81831 0.0
H461 H 0.76972 0.38726 0.81075 0.0
C462 C 0.90638 0.99671 0.55222 0.0
C463 C 0.85852 0.95999 0.53741 0.0
C464 C 0.86883 0.88092 0.54803 0.0
C465 C 0.91216 0.91638 0.56544 0.0
N466 N 0.9712 1.00704 0.58553 0.0
N467 N 0.78897 0.86619 0.52415 0.0
C468 C 0.93102 0.9742 0.56783 0.0
C469 C 0.83855 0.90185 0.5359 0.0
N470 N 0.92851 1.05289 0.55101 0.0
N471 N 0.8566 0.82709 0.54308 0.0
H472 H 0.76471 0.87939 0.51526 0.0
H473 H 0.7694 0.82316 0.52514 0.0
H474 H 0.87709 0.80962 0.55195 0.0
H475 H 0.82957 0.8012 0.52851 0.0
H476 H 0.96608 1.08199 0.55948 0.0
H477 H 0.91114 1.07042 0.53981 0.0
H478 H 0.98269 1.0483 0.59028 0.0
H479 H 0.99121 0.99191 0.59654 0.0
C480 C 1.00148 0.66445 0.75853 0.0
C481 C 0.94413 0.63522 0.75934 0.0
C482 C 0.94748 0.56635 0.78443 0.0
C483 C 1.00097 0.60781 0.79245 0.0
N484 N 1.08552 0.68785 0.78021 0.0
N485 N 0.87399 0.53969 0.75285 0.0
C486 C 1.03086 0.65286 0.77669 0.0
C487 C 0.9208 0.579 0.76519 0.0
N488 N 1.02673 0.70905 0.74402 0.0
N489 N 0.92201 0.51757 0.79619 0.0
H490 H 0.85708 0.55015 0.7379 0.0
H491 H 0.85586 0.4974 0.75582 0.0
H492 H 0.94237 0.50855 0.81015 0.0
H493 H 0.88146 0.48723 0.79218 0.0
H494 H 1.06923 0.73395 0.74403 0.0
H495 H 1.00396 0.71922 0.73193 0.0
H496 H 1.10942 0.68205 0.79354 0.0
H497 H 1.10942 0.68205 0.79354 0.0
C498 C 0.44473 0.86473 0.10169 0.0
C499 C 0.39405 0.81563 0.10426 0.0
C500 C 0.44281 0.76737 0.1154 0.0
C501 C 0.48757 0.81961 0.12281 0.0
N502 N 0.54369 0.9112 0.10847 0.0
N503 N 0.34519 0.71537 0.10601 0.0
C504 C 0.49309 0.86595 0.11037 0.0
C505 C 0.39332 0.76467 0.10752 0.0
N506 N 0.44506 0.91071 0.09351 0.0
N507 N 0.44711 0.72136 0.1183 0.0
H508 H 0.30882 0.71192 0.09932 0.0
H509 H 0.3413 0.67806 0.11146 0.0
H510 H 0.48352 0.72496 0.12532 0.0
H511 H 0.417 0.6816 0.11189 0.0
H512 H 0.47994 0.94972 0.09314 0.0
H513 H 0.40901 0.90879 0.08712 0.0
H514 H 0.55114 0.94657 0.09933 0.0
H515 H 0.57874 0.91075 0.11443 0.0
C516 C 0.74355 0.45639 0.48934 0.0
C517 C 0.72995 0.40331 0.49735 0.0
C518 C 0.81376 0.44463 0.52407 0.0
C519 C 0.82165 0.49781 0.51951 0.0
N520 N 0.79967 0.55513 0.49432 0.0
N521 N 0.75215 0.34495 0.52137 0.0
C522 C 0.78924 0.50398 0.50077 0.0
C523 C 0.76595 0.39669 0.51391 0.0
N524 N 0.71133 0.46189 0.47166 0.0
N525 N 0.85157 0.44057 0.53873 0.0
H526 H 0.71875 0.30856 0.51353 0.0
H527 H 0.77203 0.33801 0.5362 0.0
H528 H 0.88678 0.47569 0.54627 0.0
H529 H 0.85101 0.40344 0.54142 0.0
H530 H 0.71964 0.50058 0.46571 0.0
H531 H 0.67731 0.4277 0.46271 0.0
H532 H 0.83281 0.59225 0.50182 0.0
H533 H 0.83281 0.59225 0.50182 0.0
C534 C 0.42796 0.72616 0.87277 0.0
C535 C 0.41793 0.68208 0.88838 0.0
C536 C 0.36515 0.70784 0.91665 0.0
C537 C 0.37537 0.75202 0.90091 0.0
N538 N 0.42939 0.81351 0.8692 0.0
N539 N 0.38877 0.6388 0.9282 0.0
C540 C 0.41179 0.76488 0.88087 0.0
C541 C 0.39095 0.67596 0.91151 0.0
N542 N 0.44999 0.72928 0.84955 0.0
N543 N 0.3274 0.69316 0.93509 0.0
H544 H 0.40466 0.61254 0.92444 0.0
H545 H 0.37492 0.63699 0.94655 0.0
H546 H 0.30806 0.7156 0.94003 0.0
H547 H 0.31275 0.65664 0.94461 0.0
H548 H 0.45058 0.75569 0.83603 0.0
H549 H 0.46367 0.70251 0.84298 0.0
H550 H 0.45948 0.82748 0.8557 0.0
H551 H 0.4175 0.84224 0.87504 0.0
C552 C 0.77202 0.31654 0.21011 0.0
C553 C 0.79192 0.33191 0.18547 0.0
C554 C 0.69993 0.27449 0.16675 0.0
C555 C 0.68179 0.25464 0.19097 0.0
N556 N 0.69271 0.27364 0.23616 0.0
N557 N 0.77377 0.34081 0.14182 0.0
C558 C 0.71514 0.28234 0.21284 0.0
C559 C 0.75525 0.31634 0.16423 0.0
N560 N 0.80741 0.33048 0.23053 0.0
N561 N 0.66497 0.25007 0.14619 0.0
H562 H 0.81434 0.37162 0.13974 0.0
H563 H 0.74838 0.334 0.12607 0.0
H564 H 0.62384 0.22063 0.14823 0.0
H565 H 0.6767 0.2577 0.1275 0.0
H566 H 0.79514 0.31457 0.24828 0.0
H567 H 0.84971 0.35461 0.22945 0.0
H568 H 0.71442 0.29601 0.25268 0.0
H569 H 0.65089 0.2486 0.23852 0.0
C570 C 1.0522 0.59667 0.08032 0.0
C571 C 1.10116 0.59898 0.08918 0.0
C572 C 1.13481 0.61141 0.04586 0.0
C573 C 1.08896 0.61534 0.03777 0.0
N574 N 1.00447 0.61324 0.04636 0.0
N575 N 0.18991 0.60992 0.0809 0.0
C576 C 1.04733 0.60748 0.05466 0.0
C577 C 0.14255 0.60633 0.07203 0.0
N578 N 1.01079 0.58547 0.0965 0.0
N579 N 0.17071 0.61219 0.0284 0.0
H580 H 0.19572 0.60262 0.09952 0.0
H581 H 0.22464 0.62266 0.07027 0.0
H582 H 0.16689 0.61713 0.00917 0.0
H583 H 0.20191 0.6038 0.03242 0.0
H584 H 0.97162 0.57576 0.09063 0.0
H585 H 1.01425 0.58315 0.11592 0.0
H586 H 0.97636 0.61562 0.05821 0.0
H587 H 0.9983 0.6185 0.02742 0.0
C588 C 0.59959 1.01791 0.40399 0.0
C589 C 0.57584 1.04601 0.41723 0.0
C590 C 0.51299 1.02269 0.38066 0.0
C591 C 0.54505 1.00669 0.36576 0.0
N592 N 0.63032 1.00553 0.36315 0.0
N593 N 0.51817 1.08753 0.41386 0.0
C594 C 0.59176 1.00895 0.37732 0.0
C595 C 0.53458 1.05182 0.40445 0.0
N596 N 0.6271 0.99696 0.41659 0.0
N597 N 0.46185 1.00968 0.3724 0.0
H598 H 0.53761 0.11534 0.42939 0.0
H599 H 0.49059 1.09503 0.40399 0.0
H600 H 0.44339 0.9855 0.35571 0.0
H601 H 0.4359 1.01746 0.38364 0.0
H602 H 0.64199 0.97357 0.40726 0.0
H603 H 0.62776 0.99546 0.43626 0.0
H604 H 0.66668 1.01111 0.37122 0.0
H605 H 0.62945 1.00425 0.3434 0.0
C606 C 0.68566 0.64088 0.74545 0.0
C607 C 0.67309 0.59782 0.76205 0.0
C608 C 0.72285 0.56376 0.73617 0.0
C609 C 0.74047 0.61052 0.72124 0.0
N610 N 0.72614 0.68303 0.70622 0.0
N611 N 0.66187 0.50748 0.7683 0.0
C612 C 0.71745 0.64555 0.72405 0.0
C613 C 0.68541 0.55531 0.75562 0.0
N614 N 0.66924 0.6787 0.75112 0.0
N615 N 0.74399 0.52924 0.73255 0.0
H616 H 0.63257 0.49949 0.7818 0.0
H617 H 0.66648 0.47329 0.76363 0.0
H618 H 0.77032 0.5334 0.71801 0.0
H619 H 0.73824 0.49858 0.74477 0.0
H620 H 0.6824 0.71529 0.74187 0.0
H621 H 0.64298 0.67364 0.76588 0.0
H622 H 0.70713 0.70687 0.70601 0.0
H623 H 0.74927 0.68718 0.6903 0.0
C624 C 0.59732 1.09383 0.59058 0.0
C625 C 0.64195 0.10157 0.57557 0.0
C626 C 0.69444 0.10875 0.61439 0.0
C627 C 0.65196 0.10674 0.62936 0.0
N628 N 0.56704 0.10736 0.63177 0.0
N629 N 0.73662 0.12568 0.57348 0.0
C630 C 0.60458 0.10221 0.61745 0.0
C631 C 0.69153 0.11144 0.58755 0.0
N632 N 0.54703 1.07563 0.57932 0.0
N633 N 0.73686 0.10645 0.62575 0.0
H634 H 0.73658 0.12882 0.55389 0.0
H635 H 0.7754 0.13928 0.58144 0.0
H636 H 0.74052 0.10471 0.64531 0.0
H637 H 0.76583 0.10146 0.61566 0.0
H638 H 0.51175 1.06354 0.58949 0.0
H639 H 0.53924 1.06708 0.55983 0.0
H640 H 0.53487 0.11067 0.62396 0.0
H641 H 0.57075 0.11339 0.65148 0.0
C642 C 0.63489 0.60337 0.93204 0.0
C643 C 0.67916 0.64814 0.92039 0.0
C644 C 0.7166 0.69439 0.96245 0.0
C645 C 0.66975 0.65195 0.97377 0.0
N646 N 0.57949 0.5715 0.96903 0.0
N647 N 0.75777 0.74045 0.924 0.0
C648 C 0.62742 0.6081 0.95843 0.0
C649 C 0.71899 0.69482 0.93546 0.0
N650 N 0.60141 0.55504 0.9181 0.0
N651 N 0.75941 0.73343 0.97749 0.0
H652 H 0.76063 0.74232 0.90435 0.0
H653 H 0.78425 0.77804 0.93382 0.0
H654 H 0.7586 0.73503 -0.00275 0.0
H655 H 0.79713 0.76165 0.97052 0.0
H656 H 0.57197 0.51897 0.92604 0.0
H657 H 0.60673 0.54899 0.89894 0.0
H658 H 0.54489 0.54246 0.9584 0.0
H659 H 0.57253 0.57345 0.98833 0.0
C660 C 1.08478 0.57236 0.25893 0.0
C661 C 1.12823 0.62014 0.24861 0.0
C662 C 0.16193 0.66036 0.29182 0.0
C663 C 1.1231 0.60916 0.30182 0.0
N664 N 1.05416 0.51257 0.29413 0.0
N665 N 0.2126 0.70724 0.25521 0.0
C666 C 1.0863 0.56406 0.28516 0.0
C667 C 0.16797 0.66375 0.26505 0.0
N668 N 1.04069 0.53591 0.24384 0.0
N669 N 0.19188 0.70616 0.30784 0.0
H670 H 0.21845 0.71106 0.23577 0.0
H671 H 0.24589 0.73708 0.26632 0.0
H672 H 0.188 0.70548 0.32747 0.0
H673 H 0.21677 0.74585 0.30155 0.0
H674 H 1.00548 0.50311 0.25079 0.0
H675 H 1.03681 0.54248 0.22489 0.0
H676 H 1.03085 0.47706 0.28231 0.0
H677 H 1.05488 0.50416 0.31313 0.0
loop_
_geom_bond_atom_site_label_1
_geom_bond_atom_site_label_2
_geom_bond_distance
_geom_bond_site_symmetry_2
_ccdc_geom_bond_type
Eu0 C9 2.828 . S
Eu0 O11 2.392 1_655 S
Eu0 O13 2.418 . S
Eu0 O18 2.373 . S
Eu0 O21 2.488 . S
Eu0 O22 2.471 . S
Eu0 O23 2.349 . S
Eu1 O10 2.373 . S
Eu1 O14 2.488 . S
Eu1 O15 2.471 . S
Eu1 O16 2.349 . S
Eu1 O19 2.392 1_455 S
Eu1 O20 2.418 . S
Eu1 C30 2.828 . S
C2 O20 1.244 . S
C2 O23 1.265 1_455 S
C3 C4 1.379 . S
C3 C7 1.373 . S
C3 C9 1.505 . S
C4 C3 1.379 . S
C4 C6 1.369 . S
C4 H32 0.930 . S
C5 C7 1.383 . S
C5 C8 1.382 . S
C5 H33 0.930 . S
C6 C4 1.369 . S
C6 C8 1.392 . S
C6 H34 0.930 . S
C7 C3 1.373 . S
C7 C5 1.383 . S
C7 H35 0.931 . S
C8 C5 1.382 . S
C8 C6 1.392 . S
C9 Eu0 2.828 . S
C9 C3 1.505 . S
C9 O21 1.249 . S
C9 O22 1.244 . S
O10 Eu1 2.373 . S
O10 C12 1.258 . S
O11 Eu0 2.392 1_455 S
O11 C12 1.242 . S
C12 O10 1.258 . S
C12 O11 1.242 . S
O13 Eu0 2.418 . S
O13 C17 1.244 . S
O14 Eu1 2.488 . S
O14 C30 1.249 . S
O15 Eu1 2.471 . S
O15 C30 1.244 . S
O16 Eu1 2.349 . S
O16 C17 1.265 1_455 S
C17 O13 1.244 . S
C17 O16 1.265 1_655 S
O18 Eu0 2.373 . S
O18 C31 1.258 . S
O19 Eu1 2.392 1_655 S
O19 C31 1.242 . S
O20 Eu1 2.418 . S
O20 C2 1.244 . S
O21 Eu0 2.488 . S
O21 C9 1.249 . S
O22 Eu0 2.471 . S
O22 C9 1.244 . S
O23 Eu0 2.349 . S
O23 C2 1.265 1_655 S
C24 C25 1.379 . S
C24 C28 1.373 . S
C24 C30 1.505 . S
C25 C24 1.379 . S
C25 C27 1.369 . S
C25 H36 0.930 . S
C26 C28 1.383 . S
C26 C29 1.382 . S
C26 H37 0.930 . S
C27 C25 1.369 . S
C27 C29 1.392 . S
C27 H38 0.930 . S
C28 C24 1.373 . S
C28 C26 1.383 . S
C28 H39 0.931 . S
C29 C26 1.382 . S
C29 C27 1.392 . S
C30 Eu1 2.828 . S
C30 O14 1.249 . S
C30 O15 1.244 . S
C30 C24 1.505 . S
C31 O18 1.258 . S
C31 O19 1.242 . S
H32 C4 0.930 . S
H33 C5 0.930 . S
H34 C6 0.930 . S
H35 C7 0.931 . S
H36 C25 0.930 . S
H37 C26 0.930 . S
H38 C27 0.930 . S
H39 C28 0.931 . S
Eu40 C49 2.828 . S
Eu40 O51 2.392 1_565 S
Eu40 O53 2.418 . S
Eu40 O58 2.373 . S
Eu40 O61 2.488 . S
Eu40 O62 2.471 . S
Eu40 O63 2.349 . S
Eu41 O50 2.373 . S
Eu41 O54 2.488 . S
Eu41 O55 2.471 . S
Eu41 O56 2.349 . S
Eu41 O59 2.392 1_545 S
Eu41 O60 2.418 . S
Eu41 C70 2.828 . S
C42 O60 1.244 . S
C42 O63 1.265 1_545 S
C43 C44 1.379 . S
C43 C47 1.373 . S
C43 C49 1.505 . S
C44 C43 1.379 . S
C44 C46 1.369 . S
C44 H72 0.930 . S
C45 C47 1.383 . S
C45 C48 1.382 . S
C45 H73 0.930 . S
C46 C44 1.369 . S
C46 C48 1.392 . S
C46 H74 0.930 . S
C47 C43 1.373 . S
C47 C45 1.383 . S
C47 H75 0.931 . S
C48 C45 1.382 . S
C48 C46 1.392 . S
C49 Eu40 2.828 . S
C49 C43 1.505 . S
C49 O61 1.249 . S
C49 O62 1.244 . S
O50 Eu41 2.373 . S
O50 C52 1.258 . S
O51 Eu40 2.392 1_545 S
O51 C52 1.242 . S
C52 O50 1.258 . S
C52 O51 1.242 . S
O53 Eu40 2.418 . S
O53 C57 1.244 1_565 S
O54 Eu41 2.488 . S
O54 C70 1.249 . S
O55 Eu41 2.471 . S
O55 C70 1.244 . S
O56 Eu41 2.349 . S
O56 C57 1.265 . S
C57 O53 1.244 1_545 S
C57 O56 1.265 . S
O58 Eu40 2.373 . S
O58 C71 1.258 . S
O59 Eu41 2.392 1_565 S
O59 C71 1.242 . S
O60 Eu41 2.418 . S
O60 C42 1.244 . S
O61 Eu40 2.488 . S
O61 C49 1.249 . S
O62 Eu40 2.471 . S
O62 C49 1.244 . S
O63 Eu40 2.349 . S
O63 C42 1.265 1_565 S
C64 C65 1.379 . S
C64 C68 1.373 . S
C64 C70 1.505 . S
C65 C64 1.379 . S
C65 C67 1.369 . S
C65 H76 0.930 . S
C66 C68 1.383 . S
C66 C69 1.382 . S
C66 H77 0.930 . S
C67 C65 1.369 . S
C67 C69 1.392 . S
C67 H78 0.930 . S
C68 C64 1.373 . S
C68 C66 1.383 . S
C68 H79 0.931 . S
C69 C66 1.382 . S
C69 C67 1.392 . S
C70 Eu41 2.828 . S
C70 O54 1.249 . S
C70 O55 1.244 . S
C70 C64 1.505 . S
C71 O58 1.258 . S
C71 O59 1.242 . S
H72 C44 0.930 . S
H73 C45 0.930 . S
H74 C46 0.930 . S
H75 C47 0.931 . S
H76 C65 0.930 . S
H77 C66 0.930 . S
H78 C67 0.930 . S
H79 C68 0.931 . S
Eu80 C89 2.828 . S
Eu80 O91 2.392 . S
Eu80 O93 2.418 . S
Eu80 O98 2.373 . S
Eu80 O101 2.488 . S
Eu80 O102 2.471 . S
Eu80 O103 2.349 . S
Eu81 O90 2.373 . S
Eu81 O94 2.488 . S
Eu81 O95 2.471 . S
Eu81 O96 2.349 . S
Eu81 O99 2.392 . S
Eu81 O100 2.418 . S
Eu81 C110 2.828 . S
C82 O100 1.244 . S
C82 O103 1.265 . S
C83 C84 1.379 . S
C83 C87 1.373 . S
C83 C89 1.505 . S
C84 C83 1.379 . S
C84 C86 1.369 . S
C84 H112 0.930 . S
C85 C87 1.383 . S
C85 C88 1.382 . S
C85 H113 0.930 . S
C86 C84 1.369 . S
C86 C88 1.392 . S
C86 H114 0.930 . S
C87 C83 1.373 . S
C87 C85 1.383 . S
C87 H115 0.931 . S
C88 C85 1.382 . S
C88 C86 1.392 . S
C89 Eu80 2.828 . S
C89 C83 1.505 . S
C89 O101 1.249 . S
C89 O102 1.244 . S
O90 Eu81 2.373 . S
O90 C92 1.258 . S
O91 Eu80 2.392 . S
O91 C92 1.242 . S
C92 O90 1.258 . S
C92 O91 1.242 . S
O93 Eu80 2.418 . S
O93 C97 1.244 . S
O94 Eu81 2.488 . S
O94 C110 1.249 . S
O95 Eu81 2.471 . S
O95 C110 1.244 . S
O96 Eu81 2.349 . S
O96 C97 1.265 . S
C97 O93 1.244 . S
C97 O96 1.265 . S
O98 Eu80 2.373 . S
O98 C111 1.258 . S
O99 Eu81 2.392 . S
O99 C111 1.242 . S
O100 Eu81 2.418 . S
O100 C82 1.244 . S
O101 Eu80 2.488 . S
O101 C89 1.249 . S
O102 Eu80 2.471 . S
O102 C89 1.244 . S
O103 Eu80 2.349 . S
O103 C82 1.265 . S
C104 C105 1.379 . S
C104 C108 1.373 . S
C104 C110 1.505 . S
C105 C104 1.379 . S
C105 C107 1.369 . S
C105 H116 0.930 . S
C106 C108 1.383 . S
C106 C109 1.382 . S
C106 H117 0.930 . S
C107 C105 1.369 . S
C107 C109 1.392 . S
C107 H118 0.930 . S
C108 C104 1.373 . S
C108 C106 1.383 . S
C108 H119 0.931 . S
C109 C106 1.382 . S
C109 C107 1.392 . S
C110 Eu81 2.828 . S
C110 O94 1.249 . S
C110 O95 1.244 . S
C110 C104 1.505 . S
C111 O98 1.258 . S
C111 O99 1.242 . S
H112 C84 0.930 . S
H113 C85 0.930 . S
H114 C86 0.930 . S
H115 C87 0.931 . S
H116 C105 0.930 . S
H117 C106 0.930 . S
H118 C107 0.930 . S
H119 C108 0.931 . S
C120 C121 1.386 . S
C120 C122 1.397 . S
C120 H144 0.931 . S
C121 C120 1.386 . S
C121 C125 1.397 1_545 S
C122 C120 1.397 . S
C122 C123 1.384 . S
C122 H145 0.930 . S
C123 C122 1.384 . S
C123 C124 1.377 1_545 S
C123 C126 1.481 . S
C124 C123 1.377 1_565 S
C124 C125 1.389 . S
C124 H146 0.929 . S
C125 C121 1.397 1_565 S
C125 C124 1.389 . S
C125 H147 0.931 . S
C126 C123 1.481 . S
C126 C127 1.387 . S
C126 C131 1.390 1_545 S
C127 C126 1.387 . S
C127 C128 1.401 . S
C127 H148 0.930 . S
C128 C127 1.401 . S
C128 C129 1.376 . S
C128 C137 1.511 . S
C129 C128 1.376 . S
C129 C130 1.392 1_545 S
C129 H150 0.931 . S
C130 C129 1.392 1_565 S
C130 C131 1.361 . S
C130 C132 1.500 . S
C131 C126 1.390 1_565 S
C131 C130 1.361 . S
C131 H149 0.931 . S
C132 C130 1.500 . S
C132 C133 1.371 . S
C132 C134 1.365 . S
C133 C132 1.371 . S
C133 C143 1.386 . S
C133 H151 0.931 . S
C134 C132 1.365 . S
C134 C135 1.409 . S
C134 H152 0.929 . S
C135 C134 1.409 . S
C135 C136 1.380 . S
C135 H153 0.930 . S
C136 C135 1.380 . S
C136 C143 1.357 . S
C137 C128 1.511 . S
C137 C138 1.341 . S
C137 C139 1.371 . S
C138 C137 1.341 . S
C138 C142 1.394 . S
C138 H154 0.930 . S
C139 C137 1.371 . S
C139 C140 1.392 . S
C139 H155 0.931 . S
C140 C139 1.392 . S
C140 C141 1.331 . S
C140 H158 0.932 . S
C141 C140 1.331 . S
C141 C142 1.336 . S
C142 C138 1.394 . S
C142 C141 1.336 . S
C142 H157 0.929 . S
C143 C133 1.386 . S
C143 C136 1.357 . S
C143 H156 0.928 . S
H144 C120 0.931 . S
H145 C122 0.930 . S
H146 C124 0.929 . S
H147 C125 0.931 . S
H148 C127 0.930 . S
H149 C131 0.931 . S
H150 C129 0.931 . S
H151 C133 0.931 . S
H152 C134 0.929 . S
H153 C135 0.930 . S
H154 C138 0.930 . S
H155 C139 0.931 . S
H156 C143 0.928 . S
H157 C142 0.929 . S
H158 C140 0.932 . S
C159 C160 1.386 . S
C159 C161 1.397 . S
C159 H183 0.931 . S
C160 C159 1.386 . S
C160 C164 1.397 . S
C161 C159 1.397 . S
C161 C162 1.384 . S
C161 H184 0.930 . S
C162 C161 1.384 . S
C162 C163 1.377 . S
C162 C165 1.481 . S
C163 C162 1.377 . S
C163 C164 1.389 . S
C163 H185 0.929 . S
C164 C160 1.397 . S
C164 C163 1.389 . S
C164 H186 0.931 . S
C165 C162 1.481 . S
C165 C166 1.387 . S
C165 C170 1.390 . S
C166 C165 1.387 . S
C166 C167 1.401 . S
C166 H187 0.930 . S
C167 C166 1.401 . S
C167 C168 1.376 . S
C167 C176 1.511 . S
C168 C167 1.376 . S
C168 C169 1.392 . S
C168 H189 0.931 . S
C169 C168 1.392 . S
C169 C170 1.361 . S
C169 C171 1.500 . S
C170 C165 1.390 . S
C170 C169 1.361 . S
C170 H188 0.931 . S
C171 C169 1.500 . S
C171 C172 1.371 . S
C171 C173 1.365 . S
C172 C171 1.371 . S
C172 C182 1.386 . S
C172 H190 0.931 . S
C173 C171 1.365 . S
C173 C174 1.409 . S
C173 H191 0.929 . S
C174 C173 1.409 . S
C174 C175 1.380 . S
C174 H192 0.930 . S
C175 C174 1.380 . S
C175 C182 1.357 . S
C176 C167 1.511 . S
C176 C177 1.341 . S
C176 C178 1.371 . S
C177 C176 1.341 . S
C177 C181 1.394 . S
C177 H193 0.930 . S
C178 C176 1.371 . S
C178 C179 1.392 . S
C178 H194 0.931 . S
C179 C178 1.392 . S
C179 C180 1.331 . S
C179 H197 0.932 . S
C180 C179 1.331 . S
C180 C181 1.336 . S
C181 C177 1.394 . S
C181 C180 1.336 . S
C181 H196 0.929 . S
C182 C172 1.386 . S
C182 C175 1.357 . S
C182 H195 0.928 . S
H183 C159 0.931 . S
H184 C161 0.930 . S
H185 C163 0.929 . S
H186 C164 0.931 . S
H187 C166 0.930 . S
H188 C170 0.931 . S
H189 C168 0.931 . S
H190 C172 0.931 . S
H191 C173 0.929 . S
H192 C174 0.930 . S
H193 C177 0.930 . S
H194 C178 0.931 . S
H195 C182 0.928 . S
H196 C181 0.929 . S
H197 C179 0.932 . S
C198 C199 1.386 . S
C198 C200 1.397 1_554 S
C198 H222 0.931 . S
C199 C198 1.386 . S
C199 C203 1.397 1_455 S
C200 C198 1.397 1_556 S
C200 C201 1.384 . S
C200 H223 0.930 . S
C201 C200 1.384 . S
C201 C202 1.377 1_455 S
C201 C204 1.481 . S
C202 C201 1.377 1_655 S
C202 C203 1.389 1_556 S
C202 H224 0.929 . S
C203 C199 1.397 1_655 S
C203 C202 1.389 1_554 S
C203 H225 0.931 . S
C204 C201 1.481 . S
C204 C205 1.387 . S
C204 C209 1.390 . S
C205 C204 1.387 . S
C205 C206 1.401 . S
C205 H226 0.930 . S
C206 C205 1.401 . S
C206 C207 1.376 . S
C206 C215 1.511 . S
C207 C206 1.376 . S
C207 C208 1.392 . S
C207 H228 0.931 . S
C208 C207 1.392 . S
C208 C209 1.361 . S
C208 C210 1.500 1_455 S
C209 C204 1.390 . S
C209 C208 1.361 . S
C209 H227 0.931 1_455 S
C210 C208 1.500 1_655 S
C210 C211 1.371 . S
C210 C212 1.365 . S
C211 C210 1.371 . S
C211 C221 1.386 . S
C211 H229 0.931 . S
C212 C210 1.365 . S
C212 C213 1.409 . S
C212 H230 0.929 . S
C213 C212 1.409 . S
C213 C214 1.380 . S
C213 H231 0.930 . S
C214 C213 1.380 . S
C214 C221 1.357 . S
C215 C206 1.511 . S
C215 C216 1.341 . S
C215 C217 1.371 . S
C216 C215 1.341 . S
C216 C220 1.394 . S
C216 H232 0.930 . S
C217 C215 1.371 . S
C217 C218 1.392 . S
C217 H233 0.931 . S
C218 C217 1.392 . S
C218 C219 1.331 . S
C218 H236 0.932 . S
C219 C218 1.331 . S
C219 C220 1.336 . S
C220 C216 1.394 . S
C220 C219 1.336 . S
C220 H235 0.929 . S
C221 C211 1.386 . S
C221 C214 1.357 . S
C221 H234 0.928 . S
H222 C198 0.931 . S
H223 C200 0.930 . S
H224 C202 0.929 . S
H225 C203 0.931 . S
H226 C205 0.930 . S
H227 C209 0.931 1_655 S
H228 C207 0.931 . S
H229 C211 0.931 . S
H230 C212 0.929 . S
H231 C213 0.930 . S
H232 C216 0.930 . S
H233 C217 0.931 . S
H234 C221 0.928 . S
H235 C220 0.929 . S
H236 C218 0.932 . S
C237 C238 1.386 1_655 S
C237 C239 1.397 . S
C237 H261 0.931 . S
C238 C237 1.386 1_455 S
C238 C242 1.397 . S
C239 C237 1.397 . S
C239 C240 1.384 1_655 S
C239 H262 0.930 . S
C240 C239 1.384 1_455 S
C240 C241 1.377 . S
C240 C243 1.481 . S
C241 C240 1.377 . S
C241 C242 1.389 . S
C241 H263 0.929 . S
C242 C238 1.397 . S
C242 C241 1.389 . S
C242 H264 0.931 . S
C243 C240 1.481 . S
C243 C244 1.387 1_455 S
C243 C248 1.390 . S
C244 C243 1.387 1_655 S
C244 C245 1.401 . S
C244 H265 0.930 . S
C245 C244 1.401 . S
C245 C246 1.376 1_655 S
C245 C254 1.511 . S
C246 C245 1.376 1_455 S
C246 C247 1.392 . S
C246 H267 0.931 . S
C247 C246 1.392 . S
C247 C248 1.361 . S
C247 C249 1.500 . S
C248 C243 1.390 . S
C248 C247 1.361 . S
C248 H266 0.931 . S
C249 C247 1.500 . S
C249 C250 1.371 . S
C249 C251 1.365 . S
C250 C249 1.371 . S
C250 C260 1.386 . S
C250 H268 0.931 . S
C251 C249 1.365 . S
C251 C252 1.409 . S
C251 H269 0.929 . S
C252 C251 1.409 . S
C252 C253 1.380 . S
C252 H270 0.930 . S
C253 C252 1.380 . S
C253 C260 1.357 . S
C254 C245 1.511 . S
C254 C255 1.341 . S
C254 C256 1.371 . S
C255 C254 1.341 . S
C255 C259 1.394 . S
C255 H271 0.930 . S
C256 C254 1.371 . S
C256 C257 1.392 . S
C256 H272 0.931 . S
C257 C256 1.392 . S
C257 C258 1.331 . S
C257 H275 0.932 . S
C258 C257 1.331 . S
C258 C259 1.336 . S
C259 C255 1.394 . S
C259 C258 1.336 . S
C259 H274 0.929 . S
C260 C250 1.386 . S
C260 C253 1.357 . S
C260 H273 0.928 . S
H261 C237 0.931 . S
H262 C239 0.930 . S
H263 C241 0.929 . S
H264 C242 0.931 . S
H265 C244 0.930 . S
H266 C248 0.931 . S
H267 C246 0.931 . S
H268 C250 0.931 . S
H269 C251 0.929 . S
H270 C252 0.930 . S
H271 C255 0.930 . S
H272 C256 0.931 . S
H273 C260 0.928 . S
H274 C259 0.929 . S
H275 C257 0.932 . S
C276 C277 1.386 1_565 S
C276 C278 1.397 . S
C276 H300 0.931 . S
C277 C276 1.386 1_545 S
C277 C281 1.397 . S
C278 C276 1.397 . S
C278 C279 1.384 1_565 S
C278 H301 0.930 . S
C279 C278 1.384 1_545 S
C279 C280 1.377 . S
C279 C282 1.481 . S
C280 C279 1.377 . S
C280 C281 1.389 . S
C280 H302 0.929 . S
C281 C277 1.397 . S
C281 C280 1.389 . S
C281 H303 0.931 . S
C282 C279 1.481 . S
C282 C283 1.387 1_545 S
C282 C287 1.390 . S
C283 C282 1.387 1_565 S
C283 C284 1.401 . S
C283 H304 0.930 . S
C284 C283 1.401 . S
C284 C285 1.376 1_565 S
C284 C293 1.511 . S
C285 C284 1.376 1_545 S
C285 C286 1.392 . S
C285 H306 0.931 . S
C286 C285 1.392 . S
C286 C287 1.361 . S
C286 C288 1.500 . S
C287 C282 1.390 . S
C287 C286 1.361 . S
C287 H305 0.931 . S
C288 C286 1.500 . S
C288 C289 1.371 . S
C288 C290 1.365 . S
C289 C288 1.371 . S
C289 C299 1.386 . S
C289 H307 0.931 . S
C290 C288 1.365 . S
C290 C291 1.409 . S
C290 H308 0.929 . S
C291 C290 1.409 . S
C291 C292 1.380 . S
C291 H309 0.930 . S
C292 C291 1.380 . S
C292 C299 1.357 . S
C293 C284 1.511 . S
C293 C294 1.341 . S
C293 C295 1.371 . S
C294 C293 1.341 . S
C294 C298 1.394 . S
C294 H310 0.930 . S
C295 C293 1.371 . S
C295 C296 1.392 . S
C295 H311 0.931 . S
C296 C295 1.392 . S
C296 C297 1.331 . S
C296 H314 0.932 . S
C297 C296 1.331 . S
C297 C298 1.336 . S
C298 C294 1.394 . S
C298 C297 1.336 . S
C298 H313 0.929 . S
C299 C289 1.386 . S
C299 C292 1.357 . S
C299 H312 0.928 . S
H300 C276 0.931 . S
H301 C278 0.930 . S
H302 C280 0.929 . S
H303 C281 0.931 . S
H304 C283 0.930 . S
H305 C287 0.931 . S
H306 C285 0.931 . S
H307 C289 0.931 . S
H308 C290 0.929 . S
H309 C291 0.930 . S
H310 C294 0.930 . S
H311 C295 0.931 . S
H312 C299 0.928 . S
H313 C298 0.929 . S
H314 C296 0.932 . S
C315 C316 1.375 1_554 S
C315 C317 1.397 . S
C315 H339 0.931 . S
C316 C315 1.375 1_556 S
C316 C320 1.386 1_556 S
C317 C315 1.397 . S
C317 C318 1.384 . S
C317 H340 0.930 . S
C318 C317 1.384 . S
C318 C319 1.377 . S
C318 C321 1.481 . S
C319 C318 1.377 . S
C319 C320 1.389 . S
C319 H341 0.929 . S
C320 C316 1.386 1_554 S
C320 C319 1.389 . S
C320 H342 0.931 . S
C321 C318 1.481 . S
C321 C322 1.387 . S
C321 C326 1.390 . S
C322 C321 1.387 . S
C322 C323 1.401 . S
C322 H343 0.930 . S
C323 C322 1.401 . S
C323 C324 1.376 . S
C323 C332 1.511 . S
C324 C323 1.376 . S
C324 C325 1.392 . S
C324 H345 0.931 . S
C325 C324 1.392 . S
C325 C326 1.361 . S
C325 C327 1.500 . S
C326 C321 1.390 . S
C326 C325 1.361 . S
C326 H344 0.931 . S
C327 C325 1.500 . S
C327 C328 1.371 . S
C327 C329 1.365 . S
C328 C327 1.371 . S
C328 C338 1.386 . S
C328 H346 0.931 . S
C329 C327 1.365 . S
C329 C330 1.409 . S
C329 H347 0.929 . S
C330 C329 1.409 . S
C330 C331 1.380 . S
C330 H348 0.930 . S
C331 C330 1.380 . S
C331 C338 1.357 . S
C332 C323 1.511 . S
C332 C333 1.341 . S
C332 C334 1.371 . S
C333 C332 1.341 . S
C333 C337 1.394 . S
C333 H349 0.930 . S
C334 C332 1.371 . S
C334 C335 1.392 . S
C334 H350 0.931 . S
C335 C334 1.392 . S
C335 C336 1.331 . S
C335 H353 0.932 . S
C336 C335 1.331 . S
C336 C337 1.336 . S
C337 C333 1.394 . S
C337 C336 1.336 . S
C337 H352 0.929 . S
C338 C328 1.386 . S
C338 C331 1.357 . S
C338 H351 0.928 . S
H339 C315 0.931 . S
H340 C317 0.930 . S
H341 C319 0.929 . S
H342 C320 0.931 . S
H343 C322 0.930 . S
H344 C326 0.931 . S
H345 C324 0.931 . S
H346 C328 0.931 . S
H347 C329 0.929 . S
H348 C330 0.930 . S
H349 C333 0.930 . S
H350 C334 0.931 . S
H351 C338 0.928 . S
H352 C337 0.929 . S
H353 C335 0.932 . S
C354 C355 1.363 . S
C354 C360 1.379 . S
C354 N362 1.356 . S
C355 C354 1.363 . S
C355 C361 1.363 . S
C356 C357 1.363 . S
C356 C361 1.379 . S
C356 N363 1.356 . S
C357 C356 1.363 . S
C357 C360 1.363 . S
N358 C360 1.356 . S
N358 H370 0.984 . S
N358 H371 0.985 . S
N359 C361 1.356 . S
N359 H364 0.984 . S
N359 H365 0.985 . S
C360 C354 1.379 . S
C360 C357 1.363 . S
C360 N358 1.356 . S
C361 C355 1.363 . S
C361 C356 1.379 . S
C361 N359 1.356 . S
N362 C354 1.356 . S
N362 H368 0.984 . S
N362 H369 0.984 . S
N363 C356 1.356 . S
N363 H366 0.984 . S
N363 H367 0.985 . S
H364 N359 0.984 . S
H365 N359 0.985 . S
H366 N363 0.984 . S
H367 N363 0.985 . S
H368 N362 0.984 . S
H369 N362 0.984 . S
H370 N358 0.984 . S
H371 N358 0.985 . S
C372 C373 1.363 . S
C372 C378 1.379 . S
C372 N380 1.356 . S
C373 C372 1.363 . S
C373 C379 1.363 . S
C374 C375 1.363 . S
C374 C379 1.379 . S
C374 N381 1.356 . S
C375 C374 1.363 . S
C375 C378 1.363 . S
N376 C378 1.356 . S
N376 H388 0.984 . S
N376 H389 0.985 . S
N377 C379 1.356 . S
N377 H382 0.984 . S
N377 H383 0.985 . S
C378 C372 1.379 . S
C378 C375 1.363 . S
C378 N376 1.356 . S
C379 C373 1.363 . S
C379 C374 1.379 . S
C379 N377 1.356 . S
N380 C372 1.356 . S
N380 H386 0.984 . S
N380 H387 0.984 . S
N381 C374 1.356 . S
N381 H384 0.984 . S
N381 H385 0.985 . S
H382 N377 0.984 . S
H383 N377 0.985 . S
H384 N381 0.984 . S
H385 N381 0.985 . S
H386 N380 0.984 . S
H387 N380 0.984 . S
H388 N376 0.984 . S
H389 N376 0.985 . S
C390 C391 1.363 . S
C390 C396 1.379 . S
C390 N398 1.356 . S
C391 C390 1.363 . S
C391 C397 1.363 . S
C392 C393 1.363 . S
C392 C397 1.379 . S
C392 N399 1.356 . S
C393 C392 1.363 . S
C393 C396 1.363 . S
N394 C396 1.356 . S
N394 H406 0.984 . S
N394 H407 0.985 . S
N395 C397 1.356 . S
N395 H400 0.984 . S
N395 H401 0.985 . S
C396 C390 1.379 . S
C396 C393 1.363 . S
C396 N394 1.356 . S
C397 C391 1.363 . S
C397 C392 1.379 . S
C397 N395 1.356 . S
N398 C390 1.356 . S
N398 H404 0.984 . S
N398 H405 0.984 . S
N399 C392 1.356 . S
N399 H402 0.984 . S
N399 H403 0.985 . S
H400 N395 0.984 . S
H401 N395 0.985 . S
H402 N399 0.984 . S
H403 N399 0.985 . S
H404 N398 0.984 . S
H405 N398 0.984 . S
H406 N394 0.984 . S
H407 N394 0.985 . S
C408 C409 1.363 . S
C408 C414 1.379 . S
C408 N416 1.356 . S
C409 C408 1.363 . S
C409 C415 1.363 . S
C410 C411 1.363 . S
C410 C415 1.379 . S
C410 N417 1.356 . S
C411 C410 1.363 . S
C411 C414 1.363 . S
N412 C414 1.356 . S
N412 H424 0.984 . S
N412 H425 0.985 . S
N413 C415 1.356 . S
N413 H418 0.984 . S
N413 H419 0.985 . S
C414 C408 1.379 . S
C414 C411 1.363 . S
C414 N412 1.356 . S
C415 C409 1.363 . S
C415 C410 1.379 . S
C415 N413 1.356 . S
N416 C408 1.356 . S
N416 H422 0.984 . S
N416 H423 0.984 . S
N417 C410 1.356 . S
N417 H420 0.984 . S
N417 H421 0.985 . S
H418 N413 0.984 . S
H419 N413 0.985 . S
H420 N417 0.984 . S
H421 N417 0.985 . S
H422 N416 0.984 . S
H423 N416 0.984 . S
H424 N412 0.984 . S
H425 N412 0.985 . S
C426 C427 1.363 . S
C426 C432 1.379 . S
C426 N434 1.356 . S
C427 C426 1.363 . S
C427 C433 1.363 . S
C428 C429 1.363 . S
C428 C433 1.379 . S
C428 N435 1.356 . S
C429 C428 1.363 . S
C429 C432 1.363 . S
N430 C432 1.356 . S
N430 H442 0.984 . S
N430 H443 0.985 . S
N431 C433 1.356 . S
N431 H436 0.984 . S
N431 H437 0.985 . S
C432 C426 1.379 . S
C432 C429 1.363 . S
C432 N430 1.356 . S
C433 C427 1.363 . S
C433 C428 1.379 . S
C433 N431 1.356 . S
N434 C426 1.356 . S
N434 H440 0.984 . S
N434 H441 0.984 . S
N435 C428 1.356 . S
N435 H438 0.984 . S
N435 H439 0.985 . S
H436 N431 0.984 . S
H437 N431 0.985 . S
H438 N435 0.984 . S
H439 N435 0.985 . S
H440 N434 0.984 . S
H441 N434 0.984 . S
H442 N430 0.984 . S
H443 N430 0.985 . S
C444 C445 1.363 . S
C444 C450 1.379 . S
C444 N452 1.356 . S
C445 C444 1.363 . S
C445 C451 1.363 . S
C446 C447 1.363 . S
C446 C451 1.379 . S
C446 N453 1.356 . S
C447 C446 1.363 . S
C447 C450 1.363 . S
N448 C450 1.356 . S
N448 H460 0.984 . S
N448 H461 0.985 . S
N449 C451 1.356 . S
N449 H454 0.984 . S
N449 H455 0.985 . S
C450 C444 1.379 . S
C450 C447 1.363 . S
C450 N448 1.356 . S
C451 C445 1.363 . S
C451 C446 1.379 . S
C451 N449 1.356 . S
N452 C444 1.356 . S
N452 H458 0.984 . S
N452 H459 0.984 . S
N453 C446 1.356 . S
N453 H456 0.984 . S
N453 H457 0.985 . S
H454 N449 0.984 . S
H455 N449 0.985 . S
H456 N453 0.984 . S
H457 N453 0.985 . S
H458 N452 0.984 . S
H459 N452 0.984 . S
H460 N448 0.984 . S
H461 N448 0.985 . S
C462 C463 1.363 . S
C462 C468 1.379 . S
C462 N470 1.356 . S
C463 C462 1.363 . S
C463 C469 1.363 . S
C464 C465 1.363 . S
C464 C469 1.379 . S
C464 N471 1.356 . S
C465 C464 1.363 . S
C465 C468 1.363 . S
N466 C468 1.356 . S
N466 H478 0.984 . S
N466 H479 0.985 . S
N467 C469 1.356 . S
N467 H472 0.984 . S
N467 H473 0.985 . S
C468 C462 1.379 . S
C468 C465 1.363 . S
C468 N466 1.356 . S
C469 C463 1.363 . S
C469 C464 1.379 . S
C469 N467 1.356 . S
N470 C462 1.356 . S
N470 H476 0.984 . S
N470 H477 0.984 . S
N471 C464 1.356 . S
N471 H474 0.984 . S
N471 H475 0.985 . S
H472 N467 0.984 . S
H473 N467 0.985 . S
H474 N471 0.984 . S
H475 N471 0.985 . S
H476 N470 0.984 . S
H477 N470 0.984 . S
H478 N466 0.984 . S
H479 N466 0.985 . S
C480 C481 1.363 . S
C480 C486 1.379 . S
C480 N488 1.356 . S
C481 C480 1.363 . S
C481 C487 1.363 . S
C482 C483 1.363 . S
C482 C487 1.379 . S
C482 N489 1.356 . S
C483 C482 1.363 . S
C483 C486 1.363 . S
N484 C486 1.356 . S
N484 H496 0.984 . S
N484 H497 0.985 . S
N485 C487 1.356 . S
N485 H490 0.984 . S
N485 H491 0.985 . S
C486 C480 1.379 . S
C486 C483 1.363 . S
C486 N484 1.356 . S
C487 C481 1.363 . S
C487 C482 1.379 . S
C487 N485 1.356 . S
N488 C480 1.356 . S
N488 H494 0.984 . S
N488 H495 0.984 . S
N489 C482 1.356 . S
N489 H492 0.984 . S
N489 H493 0.985 . S
H490 N485 0.984 . S
H491 N485 0.985 . S
H492 N489 0.984 . S
H493 N489 0.985 . S
H494 N488 0.984 . S
H495 N488 0.984 . S
H496 N484 0.984 . S
H497 N484 0.985 . S
C498 C499 1.363 . S
C498 C504 1.379 . S
C498 N506 1.356 . S
C499 C498 1.363 . S
C499 C505 1.363 . S
C500 C501 1.363 . S
C500 C505 1.379 . S
C500 N507 1.356 . S
C501 C500 1.363 . S
C501 C504 1.363 . S
N502 C504 1.356 . S
N502 H514 0.984 . S
N502 H515 0.985 . S
N503 C505 1.356 . S
N503 H508 0.984 . S
N503 H509 0.985 . S
C504 C498 1.379 . S
C504 C501 1.363 . S
C504 N502 1.356 . S
C505 C499 1.363 . S
C505 C500 1.379 . S
C505 N503 1.356 . S
N506 C498 1.356 . S
N506 H512 0.984 . S
N506 H513 0.984 . S
N507 C500 1.356 . S
N507 H510 0.984 . S
N507 H511 0.985 . S
H508 N503 0.984 . S
H509 N503 0.985 . S
H510 N507 0.984 . S
H511 N507 0.985 . S
H512 N506 0.984 . S
H513 N506 0.984 . S
H514 N502 0.984 . S
H515 N502 0.985 . S
C516 C517 1.363 . S
C516 C522 1.379 . S
C516 N524 1.356 . S
C517 C516 1.363 . S
C517 C523 1.363 . S
C518 C519 1.363 . S
C518 C523 1.379 . S
C518 N525 1.356 . S
C519 C518 1.363 . S
C519 C522 1.363 . S
N520 C522 1.356 . S
N520 H532 0.984 . S
N520 H533 0.985 . S
N521 C523 1.356 . S
N521 H526 0.984 . S
N521 H527 0.985 . S
C522 C516 1.379 . S
C522 C519 1.363 . S
C522 N520 1.356 . S
C523 C517 1.363 . S
C523 C518 1.379 . S
C523 N521 1.356 . S
N524 C516 1.356 . S
N524 H530 0.984 . S
N524 H531 0.984 . S
N525 C518 1.356 . S
N525 H528 0.984 . S
N525 H529 0.985 . S
H526 N521 0.984 . S
H527 N521 0.985 . S
H528 N525 0.984 . S
H529 N525 0.985 . S
H530 N524 0.984 . S
H531 N524 0.984 . S
H532 N520 0.984 . S
H533 N520 0.985 . S
C534 C535 1.363 . S
C534 C540 1.379 . S
C534 N542 1.356 . S
C535 C534 1.363 . S
C535 C541 1.363 . S
C536 C537 1.363 . S
C536 C541 1.379 . S
C536 N543 1.356 . S
C537 C536 1.363 . S
C537 C540 1.363 . S
N538 C540 1.356 . S
N538 H550 0.984 . S
N538 H551 0.985 . S
N539 C541 1.356 . S
N539 H544 0.984 . S
N539 H545 0.985 . S
C540 C534 1.379 . S
C540 C537 1.363 . S
C540 N538 1.356 . S
C541 C535 1.363 . S
C541 C536 1.379 . S
C541 N539 1.356 . S
N542 C534 1.356 . S
N542 H548 0.984 . S
N542 H549 0.984 . S
N543 C536 1.356 . S
N543 H546 0.984 . S
N543 H547 0.985 . S
H544 N539 0.984 . S
H545 N539 0.985 . S
H546 N543 0.984 . S
H547 N543 0.985 . S
H548 N542 0.984 . S
H549 N542 0.984 . S
H550 N538 0.984 . S
H551 N538 0.985 . S
C552 C553 1.363 . S
C552 C558 1.379 . S
C552 N560 1.356 . S
C553 C552 1.363 . S
C553 C559 1.363 . S
C554 C555 1.363 . S
C554 C559 1.379 . S
C554 N561 1.356 . S
C555 C554 1.363 . S
C555 C558 1.363 . S
N556 C558 1.356 . S
N556 H568 0.984 . S
N556 H569 0.985 . S
N557 C559 1.356 . S
N557 H562 0.984 . S
N557 H563 0.985 . S
C558 C552 1.379 . S
C558 C555 1.363 . S
C558 N556 1.356 . S
C559 C553 1.363 . S
C559 C554 1.379 . S
C559 N557 1.356 . S
N560 C552 1.356 . S
N560 H566 0.984 . S
N560 H567 0.984 . S
N561 C554 1.356 . S
N561 H564 0.984 . S
N561 H565 0.985 . S
H562 N557 0.984 . S
H563 N557 0.985 . S
H564 N561 0.984 . S
H565 N561 0.985 . S
H566 N560 0.984 . S
H567 N560 0.984 . S
H568 N556 0.984 . S
H569 N556 0.985 . S
C570 C571 1.363 1_655 S
C570 C576 1.379 1_655 S
C570 N578 1.356 . S
C571 C570 1.363 1_455 S
C571 C577 1.363 . S
C572 C573 1.363 . S
C572 C577 1.379 . S
C572 N579 1.356 . S
C573 C572 1.363 . S
C573 C576 1.363 . S
N574 C576 1.356 . S
N574 H586 0.984 1_455 S
N574 H587 0.985 . S
N575 C577 1.356 . S
N575 H580 0.984 . S
N575 H581 0.985 . S
C576 C570 1.379 1_455 S
C576 C573 1.363 . S
C576 N574 1.356 . S
C577 C571 1.363 . S
C577 C572 1.379 . S
C577 N575 1.356 . S
N578 C570 1.356 . S
N578 H584 0.984 . S
N578 H585 0.984 . S
N579 C572 1.356 . S
N579 H582 0.984 . S
N579 H583 0.985 . S
H580 N575 0.984 . S
H581 N575 0.985 . S
H582 N579 0.984 . S
H583 N579 0.985 . S
H584 N578 0.984 . S
H585 N578 0.984 . S
H586 N574 0.984 1_655 S
H587 N574 0.985 . S
C588 C589 1.363 1_565 S
C588 C594 1.379 . S
C588 N596 1.356 . S
C589 C588 1.363 1_545 S
C589 C595 1.363 . S
C590 C591 1.363 . S
C590 C595 1.379 . S
C590 N597 1.356 . S
C591 C590 1.363 . S
C591 C594 1.363 1_545 S
N592 C594 1.356 . S
N592 H604 0.984 . S
N592 H605 0.985 . S
N593 C595 1.356 . S
N593 H598 0.984 . S
N593 H599 0.985 . S
C594 C588 1.379 . S
C594 C591 1.363 1_565 S
C594 N592 1.356 . S
C595 C589 1.363 . S
C595 C590 1.379 . S
C595 N593 1.356 . S
N596 C588 1.356 . S
N596 H602 0.984 . S
N596 H603 0.984 . S
N597 C590 1.356 . S
N597 H600 0.984 . S
N597 H601 0.985 . S
H598 N593 0.984 . S
H599 N593 0.985 . S
H600 N597 0.984 . S
H601 N597 0.985 . S
H602 N596 0.984 . S
H603 N596 0.984 . S
H604 N592 0.984 . S
H605 N592 0.985 . S
C606 C607 1.363 . S
C606 C612 1.379 . S
C606 N614 1.356 . S
C607 C606 1.363 . S
C607 C613 1.363 . S
C608 C609 1.363 . S
C608 C613 1.379 . S
C608 N615 1.356 . S
C609 C608 1.363 . S
C609 C612 1.363 . S
N610 C612 1.356 . S
N610 H622 0.984 . S
N610 H623 0.985 . S
N611 C613 1.356 . S
N611 H616 0.984 . S
N611 H617 0.985 . S
C612 C606 1.379 . S
C612 C609 1.363 . S
C612 N610 1.356 . S
C613 C607 1.363 . S
C613 C608 1.379 . S
C613 N611 1.356 . S
N614 C606 1.356 . S
N614 H620 0.984 . S
N614 H621 0.984 . S
N615 C608 1.356 . S
N615 H618 0.984 . S
N615 H619 0.985 . S
H616 N611 0.984 . S
H617 N611 0.985 . S
H618 N615 0.984 . S
H619 N615 0.985 . S
H620 N614 0.984 . S
H621 N614 0.984 . S
H622 N610 0.984 . S
H623 N610 0.985 . S
C624 C625 1.363 1_565 S
C624 C630 1.379 . S
C624 N632 1.356 . S
C625 C624 1.363 1_545 S
C625 C631 1.363 . S
C626 C627 1.363 . S
C626 C631 1.379 . S
C626 N633 1.356 . S
C627 C626 1.363 . S
C627 C630 1.363 1_545 S
N628 C630 1.356 . S
N628 H640 0.984 . S
N628 H641 0.985 . S
N629 C631 1.356 . S
N629 H634 0.984 . S
N629 H635 0.985 . S
C630 C624 1.379 . S
C630 C627 1.363 1_565 S
C630 N628 1.356 . S
C631 C625 1.363 . S
C631 C626 1.379 . S
C631 N629 1.356 . S
N632 C624 1.356 . S
N632 H638 0.984 . S
N632 H639 0.984 . S
N633 C626 1.356 . S
N633 H636 0.984 . S
N633 H637 0.985 . S
H634 N629 0.984 . S
H635 N629 0.985 . S
H636 N633 0.984 . S
H637 N633 0.985 . S
H638 N632 0.984 . S
H639 N632 0.984 . S
H640 N628 0.984 . S
H641 N628 0.985 . S
C642 C643 1.363 . S
C642 C648 1.379 . S
C642 N650 1.356 . S
C643 C642 1.363 . S
C643 C649 1.363 . S
C644 C645 1.363 . S
C644 C649 1.379 . S
C644 N651 1.356 . S
C645 C644 1.363 . S
C645 C648 1.363 . S
N646 C648 1.356 . S
N646 H658 0.984 . S
N646 H659 0.985 . S
N647 C649 1.356 . S
N647 H652 0.984 . S
N647 H653 0.985 . S
C648 C642 1.379 . S
C648 C645 1.363 . S
C648 N646 1.356 . S
C649 C643 1.363 . S
C649 C644 1.379 . S
C649 N647 1.356 . S
N650 C642 1.356 . S
N650 H656 0.984 . S
N650 H657 0.984 . S
N651 C644 1.356 . S
N651 H654 0.984 . S
N651 H655 0.985 . S
H652 N647 0.984 . S
H653 N647 0.985 . S
H654 N651 0.984 . S
H655 N651 0.985 . S
H656 N650 0.984 . S
H657 N650 0.984 . S
H658 N646 0.984 . S
H659 N646 0.985 . S
C660 C661 1.375 . S
C660 C666 1.379 . S
C660 N668 1.356 . S
C661 C660 1.375 . S
C661 C667 1.350 1_655 S
C662 C663 1.363 . S
C662 C667 1.379 . S
C662 N669 1.356 . S
C663 C662 1.363 . S
C663 C666 1.363 1_455 S
N664 C666 1.356 . S
N664 H676 0.984 . S
N664 H677 0.985 . S
N665 C667 1.356 . S
N665 H670 0.984 . S
N665 H671 0.985 . S
C666 C660 1.379 . S
C666 C663 1.363 1_655 S
C666 N664 1.356 . S
C667 C661 1.350 1_455 S
C667 C662 1.379 . S
C667 N665 1.356 . S
N668 C660 1.356 . S
N668 H674 0.984 . S
N668 H675 0.984 . S
N669 C662 1.356 . S
N669 H672 0.984 . S
N669 H673 0.985 . S
H670 N665 0.984 . S
H671 N665 0.985 . S
H672 N669 0.984 . S
H673 N669 0.985 . S
H674 N668 0.984 . S
H675 N668 0.984 . S
H676 N664 0.984 . S
H677 N664 0.985 . S
C355 C12 3.057 . S
C357 C331 2.989 . S
C373 C52 3.054 . S
C375 C258 2.992 . S
C391 C111 3.101 . S
C393 C297 3.031 . S
C409 C31 3.217 . S
C411 C336 3.131 . S
C429 C253 3.128 . S
C427 C71 3.218 . S
C447 C292 3.082 . S
C445 C92 3.168 . S
C463 C48 0.737 . S
C465 C180 0.732 . S
C481 C109 0.765 . S
C483 C214 0.778 . S
C499 C29 0.714 . S
C501 C136 0.684 . S
C519 C175 0.602 . S
C517 C69 0.654 . S
C537 C219 0.485 . S
C535 C88 0.514 . S
C553 C8 0.510 . S
C555 C141 0.452 . S
C573 C199 1.057 . S
C571 C17 1.060 1_455 S
C589 C57 1.042 . S
C591 C121 1.041 . S
C607 C97 1.068 . S
C609 C160 1.061 . S
C627 C277 1.808 . S
C625 C42 1.739 . S
C645 C316 1.827 . S
C643 C82 1.755 . S
C661 C2 1.757 1_655 S
C663 C238 1.809 . S
