# Generated by pormake.
# Topology csq, (4,8)-cn, num edge types: 1
# Building blocks:
#     Node 0, Type 0, BuildingBlock: IZENUY_clean_linker_0, # of connection points: 4
#     Node 1, Type 0, BuildingBlock: IZENUY_clean_linker_0, # of connection points: 4
#     Node 2, Type 0, BuildingBlock: IZENUY_clean_linker_0, # of connection points: 4
#     Node 3, Type 0, BuildingBlock: IZENUY_clean_linker_0, # of connection points: 4
#     Node 4, Type 0, BuildingBlock: IZENUY_clean_linker_0, # of connection points: 4
#     Node 5, Type 0, BuildingBlock: IZENUY_clean_linker_0, # of connection points: 4
#     Node 6, Type 1, BuildingBlock: TAGTUT_clean_sbu_3, # of connection points: 8
#     Node 7, Type 1, BuildingBlock: TAGTUT_clean_sbu_3, # of connection points: 8
#     Node 8, Type 1, BuildingBlock: TAGTUT_clean_sbu_3, # of connection points: 8
#     Edge 9, Type (0, 1), BuildingBlock: EYOCIG_clean_linker_4, # of connection points: 2
#     Edge 10, Type (0, 1), BuildingBlock: EYOCIG_clean_linker_4, # of connection points: 2
#     Edge 11, Type (0, 1), BuildingBlock: EYOCIG_clean_linker_4, # of connection points: 2
#     Edge 12, Type (0, 1), BuildingBlock: EYOCIG_clean_linker_4, # of connection points: 2
#     Edge 13, Type (0, 1), BuildingBlock: EYOCIG_clean_linker_4, # of connection points: 2
#     Edge 14, Type (0, 1), BuildingBlock: EYOCIG_clean_linker_4, # of connection points: 2
#     Edge 15, Type (0, 1), BuildingBlock: EYOCIG_clean_linker_4, # of connection points: 2
#     Edge 16, Type (0, 1), BuildingBlock: EYOCIG_clean_linker_4, # of connection points: 2
#     Edge 17, Type (0, 1), BuildingBlock: EYOCIG_clean_linker_4, # of connection points: 2
#     Edge 18, Type (0, 1), BuildingBlock: EYOCIG_clean_linker_4, # of connection points: 2
#     Edge 19, Type (0, 1), BuildingBlock: EYOCIG_clean_linker_4, # of connection points: 2
#     Edge 20, Type (0, 1), BuildingBlock: EYOCIG_clean_linker_4, # of connection points: 2
#     Edge 21, Type (0, 1), BuildingBlock: EYOCIG_clean_linker_4, # of connection points: 2
#     Edge 22, Type (0, 1), BuildingBlock: EYOCIG_clean_linker_4, # of connection points: 2
#     Edge 23, Type (0, 1), BuildingBlock: EYOCIG_clean_linker_4, # of connection points: 2
#     Edge 24, Type (0, 1), BuildingBlock: EYOCIG_clean_linker_4, # of connection points: 2
#     Edge 25, Type (0, 1), BuildingBlock: EYOCIG_clean_linker_4, # of connection points: 2
#     Edge 26, Type (0, 1), BuildingBlock: EYOCIG_clean_linker_4, # of connection points: 2
#     Edge 27, Type (0, 1), BuildingBlock: EYOCIG_clean_linker_4, # of connection points: 2
#     Edge 28, Type (0, 1), BuildingBlock: EYOCIG_clean_linker_4, # of connection points: 2
#     Edge 29, Type (0, 1), BuildingBlock: EYOCIG_clean_linker_4, # of connection points: 2
#     Edge 30, Type (0, 1), BuildingBlock: EYOCIG_clean_linker_4, # of connection points: 2
#     Edge 31, Type (0, 1), BuildingBlock: EYOCIG_clean_linker_4, # of connection points: 2
#     Edge 32, Type (0, 1), BuildingBlock: EYOCIG_clean_linker_4, # of connection points: 2
# Relax obj value: 0.054
# Max RMSD: 0.129
# Mean RMSD: 0.120
data_MOF--net-csq--node1-TAGTUT_clean_sbu_3--node2-IZENUY_clean_linker_0--edge1-EYOCIG_clean_linker_4
_symmetry_space_group_name_H-M    P1
_symmetry_Int_Tables_number       1
_symmetry_cell_setting            triclinic
loop_
_symmetry_equiv_pos_as_xyz
'x, y, z'
_cell_length_a     47.926524
_cell_length_b     47.206334
_cell_length_c     14.99366
_cell_angle_alpha  93.970087
_cell_angle_beta   94.169261
_cell_angle_gamma 119.86472
loop_
_atom_site_label
_atom_site_type_symbol
_atom_site_fract_x
_atom_site_fract_y
_atom_site_fract_z
_atom_type_partial_charge
H0 H 0.19411 0.45063 0.04657 0.0
H1 H 0.20854 0.49764 0.31704 0.0
H2 H 0.11916 0.46385 0.14577 0.0
H3 H 0.28885 0.48796 0.29111 0.0
H4 H 0.28339 0.4737 0.0007 0.0
H5 H 0.36882 0.49252 0.16793 0.0
N6 N 0.23725 0.48 0.19739 0.0
N7 N 0.25042 0.47561 0.13319 0.0
C8 C 0.18535 0.45902 0.1012 0.0
C9 C 0.15443 0.45517 0.08803 0.0
C10 C 0.20519 0.47452 0.18396 0.0
C11 C 0.19337 0.48558 0.2534 0.0
C12 C 0.1623 0.48174 0.23941 0.0
C13 C 0.14301 0.46644 0.15698 0.0
C14 C 0.29959 0.4869 0.23074 0.0
C15 C 0.33073 0.49106 0.23813 0.0
C16 C 0.28228 0.48063 0.14444 0.0
C17 C 0.2966 0.4787 0.0671 0.0
C18 C 0.32792 0.48324 0.07623 0.0
C19 C 0.34465 0.48938 0.16133 0.0
H20 H 0.73433 0.2145 0.97003 0.0
H21 H 0.75764 0.20071 0.242 0.0
H22 H 0.66751 0.12934 0.08598 0.0
H23 H 0.83031 0.29195 0.21205 0.0
H24 H 0.81353 0.29508 0.92688 0.0
H25 H 0.89651 0.3757 0.0888 0.0
N26 N 0.77983 0.24146 0.11902 0.0
N27 N 0.78937 0.25876 0.05649 0.0
C28 C 0.72837 0.20013 0.02627 0.0
C29 C 0.69861 0.17057 0.01942 0.0
C30 C 0.75005 0.21109 0.10712 0.0
C31 C 0.74151 0.19218 0.17932 0.0
C32 C 0.71175 0.16281 0.17095 0.0
C33 C 0.69071 0.15211 0.09135 0.0
C34 C 0.83756 0.30429 0.15247 0.0
C35 C 0.86563 0.3355 0.1598 0.0
C36 C 0.81858 0.28961 0.06772 0.0
C37 C 0.82805 0.30627 -0.00816 0.0
C38 C 0.8561 0.33716 -0.00032 0.0
C39 C 0.87479 0.3516 0.08322 0.0
H40 H 0.55807 0.74499 0.91519 0.0
H41 H 0.53801 0.73362 0.19074 0.0
H42 H 0.54744 0.66012 0.03245 0.0
H43 H 0.54931 0.81934 0.16097 0.0
H44 H 0.54809 0.82592 0.87506 0.0
H45 H 0.54459 0.89905 0.05501 0.0
N46 N 0.54757 0.77277 0.06482 0.0
N47 N 0.54964 0.78931 0.0015 0.0
C48 C 0.55387 0.73129 0.97268 0.0
C49 C 0.55364 0.70145 0.96541 0.0
C50 C 0.54813 0.74298 0.05434 0.0
C51 C 0.54243 0.72465 0.1279 0.0
C52 C 0.54213 0.69475 0.11995 0.0
C53 C 0.54784 0.68339 0.03882 0.0
C54 C 0.5485 0.83173 0.10344 0.0
C55 C 0.54701 0.86043 0.11724 0.0
C56 C 0.5489 0.819 0.01605 0.0
C57 C 0.54801 0.83568 0.94257 0.0
C58 C 0.54636 0.86457 0.95652 0.0
C59 C 0.54594 0.87682 0.04398 0.0
H60 H 0.73608 0.5423 0.91795 0.0
H61 H 0.76683 0.57918 0.20061 0.0
H62 H 0.67219 0.55499 0.08111 0.0
H63 H 0.84153 0.57751 0.12125 0.0
H64 H 0.81409 0.53634 0.84037 0.0
H65 H 0.90626 0.55958 0.978 0.0
N66 N 0.78574 0.56331 0.05315 0.0
N67 N 0.79338 0.555 0.9822 0.0
C68 C 0.73144 0.54947 0.98295 0.0
C69 C 0.70161 0.54738 -0.00818 0.0
C70 C 0.75525 0.56108 0.05852 0.0
C71 C 0.74871 0.57043 0.14217 0.0
C72 C 0.71868 0.56812 0.15016 0.0
C73 C 0.69541 0.55668 0.07493 0.0
C74 C 0.84687 0.56943 0.05866 0.0
C75 C 0.87624 0.57009 0.05679 0.0
C76 C 0.82406 0.55723 0.98042 0.0
C77 C 0.83149 0.54604 0.90064 0.0
C78 C 0.86134 0.54707 0.90027 0.0
C79 C 0.88341 0.55926 0.97805 0.0
H80 H 0.19636 0.74181 -0.00242 0.0
H81 H 0.21427 0.75811 0.28793 0.0
H82 H 0.13109 0.66944 0.15396 0.0
H83 H 0.29686 0.82863 0.20308 0.0
H84 H 0.25984 0.8339 0.9371 0.0
H85 H 0.35525 0.90888 0.05724 0.0
N86 N 0.23762 0.78432 0.14183 0.0
N87 N 0.24507 0.79773 0.07171 0.0
C88 C 0.18935 0.73397 0.0626 0.0
C89 C 0.16149 0.70341 0.06666 0.0
C90 C 0.20857 0.75385 0.14282 0.0
C91 C 0.19949 0.74295 0.22632 0.0
C92 C 0.17149 0.71271 0.2304 0.0
C93 C 0.1526 0.69305 0.15065 0.0
C94 C 0.29975 0.84101 0.14331 0.0
C95 C 0.32888 0.87025 0.13805 0.0
C96 C 0.27457 0.82775 0.07048 0.0
C97 C 0.27893 0.84411 -0.00651 0.0
C98 C 0.30793 0.87339 -0.01082 0.0
C99 C 0.33271 0.88627 0.06122 0.0
H100 H 0.49671 0.21313 0.0558 0.0
H101 H 0.47516 0.2046 0.3311 0.0
H102 H 0.50129 0.13926 0.19564 0.0
H103 H 0.47054 0.2855 0.25932 0.0
H104 H 0.47845 0.27908 0.9746 0.0
H105 H 0.46838 0.35734 0.1025 0.0
N106 N 0.47909 0.23885 0.19226 0.0
N107 N 0.47899 0.25121 0.12124 0.0
C108 C 0.49452 0.2016 0.11698 0.0
C109 C 0.50028 0.17544 0.11835 0.0
C110 C 0.48528 0.21234 0.19355 0.0
C111 C 0.48226 0.19656 0.27187 0.0
C112 C 0.48819 0.17019 0.27253 0.0
C113 C 0.49718 0.15991 0.19574 0.0
C114 C 0.47055 0.29437 0.19454 0.0
C115 C 0.46846 0.32274 0.18884 0.0
C116 C 0.4742 0.27847 0.11707 0.0
C117 C 0.47517 0.291 0.03407 0.0
C118 C 0.47288 0.31935 0.02858 0.0
C119 C 0.46943 0.33498 0.10608 0.0
C120 C 0.06387 0.4989 0.48943 0.0
C121 C 0.05238 0.44789 0.7892 0.0
C122 C 0.9583 0.44014 0.76548 0.0
Mg123 Mg 0.02889 0.53718 0.4042 0.0
Mg124 Mg 0.01239 0.58216 0.54486 0.0
O125 O 1.00529 0.54029 0.50593 0.0
Mg126 Mg 0.01822 0.51889 0.59618 0.0
O127 O 0.03155 0.49515 0.67875 0.0
Mg128 Mg 0.00843 0.44997 0.60791 0.0
Mg129 Mg 0.02772 0.49773 0.80183 0.0
C130 C 0.969 0.53987 0.68611 0.0
O131 O 0.05444 0.56757 0.68991 0.0
O132 O 0.99865 0.55508 0.32111 0.0
O133 O 0.053 0.55126 0.8289 0.0
O134 O 0.06982 0.59127 0.43614 0.0
O135 O 0.98944 0.58601 0.42356 0.0
O136 O 0.06324 0.61818 0.55363 0.0
O137 O 0.98304 0.46928 0.51467 0.0
O138 O 0.98776 0.48273 0.37458 0.0
C139 C 0.97523 0.46143 0.42964 0.0
C140 C 0.98652 0.57315 0.34321 0.0
O141 O 0.97773 0.51824 0.67434 0.0
O142 O 0.03759 0.43627 0.70901 0.0
O143 O 0.98237 0.56735 0.65313 0.0
O144 O 0.96641 0.43069 0.69515 0.0
O145 O 0.05225 0.47155 0.83603 0.0
O146 O 0.9773 0.4672 0.81503 0.0
O147 O 0.05589 0.52075 0.5062 0.0
O148 O 0.05033 0.47143 0.52203 0.0
C149 C 0.07987 0.61689 0.49252 0.0
C150 C 0.06246 0.57372 0.77598 0.0
C151 C 0.50133 0.06133 0.47076 0.0
C152 C 0.60331 0.05439 0.38387 0.0
C153 C 0.54904 0.95604 0.4464 0.0
Mg154 Mg 0.45386 0.02221 0.61658 0.0
Mg155 Mg 0.47886 0.99707 0.78991 0.0
O156 O 0.47362 0.99648 0.66474 0.0
Mg157 Mg 0.51204 0.01334 0.59701 0.0
O158 O 0.54814 0.03014 0.52244 0.0
Mg159 Mg 0.52362 0.00946 0.40006 0.0
Mg160 Mg 0.58157 0.02203 0.5577 0.0
C161 C 0.51924 0.96357 0.73323 0.0
O162 O 0.54978 0.05147 0.71259 0.0
O163 O 0.40956 0.98991 0.69074 0.0
O164 O 0.59449 0.04843 0.69143 0.0
O165 O 0.47698 0.06196 0.74031 0.0
O166 O 0.42802 0.972 0.8038 0.0
O167 O 0.50093 0.04741 0.84688 0.0
O168 O 0.4779 0.97841 0.47301 0.0
O169 O 0.43427 0.98281 0.49404 0.0
C170 C 0.4484 0.97057 0.44945 0.0
C171 C 0.40511 0.97298 0.75719 0.0
O172 O 0.5227 0.97459 0.65613 0.0
O173 O 0.57374 0.04285 0.34907 0.0
O174 O 0.50556 0.97095 0.79381 0.0
O175 O 0.53528 0.96779 0.39772 0.0
O176 O 0.61127 0.04882 0.46094 0.0
O177 O 0.56578 0.97093 0.52215 0.0
O178 O 0.49958 0.05062 0.5473 0.0
O179 O 0.51129 0.05105 0.40599 0.0
C180 C 0.49438 0.06812 0.81564 0.0
C181 C 0.5797 0.06031 0.73432 0.0
C182 C 0.53767 0.57865 0.73196 0.0
C183 C 0.43722 0.48027 0.84273 0.0
C184 C 0.47935 0.42264 0.75223 0.0
Mg185 Mg 0.57725 0.57902 0.56692 0.0
Mg186 Mg 0.54226 0.52441 0.38524 0.0
O187 O 0.55084 0.53186 0.511 0.0
Mg188 Mg 0.51633 0.51368 0.59391 0.0
O189 O 0.48483 0.49818 0.68366 0.0
Mg190 Mg 0.51347 0.50595 0.797 0.0
Mg191 Mg 0.44807 0.45622 0.65786 0.0
C192 C 0.49842 0.45193 0.43988 0.0
O193 O 0.475 0.51176 0.50032 0.0
O194 O 0.61705 0.58465 0.47721 0.0
O195 O 0.43163 0.46449 0.52983 0.0
O196 O 0.55548 0.59737 0.45749 0.0
O197 O 0.59213 0.54429 0.36046 0.0
O198 O 0.52651 0.55765 0.34299 0.0
O199 O 0.55296 0.51363 0.70093 0.0
O200 O 0.5973 0.55918 0.67321 0.0
C201 C 0.58342 0.53414 0.71596 0.0
C202 C 0.61766 0.56858 0.40539 0.0
O203 O 0.49979 0.46204 0.52281 0.0
O204 O 0.46798 0.49681 0.86896 0.0
O205 O 0.51041 0.47115 0.3791 0.0
O206 O 0.4978 0.4508 0.7978 0.0
O207 O 0.42487 0.4628 0.76627 0.0
O208 O 0.45964 0.41864 0.68418 0.0
O209 O 0.535 0.56643 0.65132 0.0
O210 O 0.52959 0.56083 0.79644 0.0
C211 C 0.53729 0.5867 0.38206 0.0
C212 C 0.44462 0.48994 0.48782 0.0
C213 C 0.13386 0.50117 0.35264 0.0
C214 C 0.14942 0.49357 0.30713 0.0
C215 C 0.11148 0.50582 0.39889 0.0
C216 C 0.09033 0.50553 0.4386 0.0
C217 C 0.68158 0.12225 0.28356 0.0
C218 C 0.70016 0.14364 0.24362 0.0
C219 C 0.65393 0.09708 0.31376 0.0
C220 C 0.62938 0.07739 0.34048 0.0
C221 C 0.53193 0.6551 0.24502 0.0
C222 C 0.53615 0.67507 0.19351 0.0
C223 C 0.53033 0.63035 0.29619 0.0
C224 C 0.53313 0.60995 0.33395 0.0
C225 C 0.92135 0.58297 0.18645 0.0
C226 C 0.89868 0.57869 0.13585 0.0
C227 C 0.9466 0.5814 0.23476 0.0
C228 C 0.96526 0.57637 0.27875 0.0
C229 C 0.3795 0.90094 0.26333 0.0
C230 C 0.3552 0.88495 0.21064 0.0
C231 C 0.40741 0.92348 0.32315 0.0
C232 C 0.42862 0.94443 0.37826 0.0
C233 C 0.46927 0.36138 0.32504 0.0
C234 C 0.4687 0.34172 0.26834 0.0
C235 C 0.47535 0.38993 0.37904 0.0
C236 C 0.48508 0.41747 0.41385 0.0
C237 C 0.54166 0.89926 0.83119 0.0
C238 C 0.54397 0.88165 0.88249 0.0
C239 C 0.53661 0.92151 0.78328 0.0
C240 C 0.5298 0.94072 0.75318 0.0
C241 C 0.65301 0.52954 0.86662 0.0
C242 C 0.67693 0.53685 0.9168 0.0
C243 C 0.62523 0.52593 0.81652 0.0
C244 C 0.60388 0.52714 0.77289 0.0
C245 C 0.1244 0.66078 0.92472 0.0
C246 C 0.14247 0.68158 0.98573 0.0
C247 C 0.10272 0.63311 0.8617 0.0
C248 C 0.08453 0.60707 0.81635 0.0
C249 C 0.51149 0.14719 0.97965 0.0
C250 C 0.50656 0.16213 0.03852 0.0
C251 C 0.51039 0.1228 0.91786 0.0
C252 C 0.50325 0.09772 0.87192 0.0
C253 C 0.36506 0.48183 0.96007 0.0
C254 C 0.34435 0.48148 0.00161 0.0
C255 C 0.39233 0.48304 0.92655 0.0
C256 C 0.41502 0.48364 0.89514 0.0
C257 C 0.88098 0.37342 0.87061 0.0
C258 C 0.86684 0.35446 0.92284 0.0
C259 C 0.90442 0.39744 0.82467 0.0
C260 C 0.92904 0.41698 0.79771 0.0
C261 C 0.8887 0.52992 0.78192 0.0
C262 C 0.87111 0.5356 0.82385 0.0
C263 C 0.91514 0.52856 0.75025 0.0
C264 C 0.9393 0.53111 0.72308 0.0
C265 C 0.32624 0.90933 0.85671 0.0
C266 C 0.3139 0.89033 0.91054 0.0
C267 C 0.34875 0.93314 0.80801 0.0
C268 C 0.37285 0.95233 0.77797 0.0
C269 C 0.47694 0.35005 0.88493 0.0
C270 C 0.4754 0.33389 0.94555 0.0
C271 C 0.4779 0.37269 0.82607 0.0
C272 C 0.4773 0.39423 0.78824 0.0
C273 C 0.11478 0.43364 0.93762 0.0
C274 C 0.135 0.44249 0.00181 0.0
C275 C 0.09083 0.43108 0.87218 0.0
C276 C 0.07238 0.43607 0.82666 0.0
C277 C 0.65036 0.1395 0.89122 0.0
C278 C 0.67482 0.15767 0.94111 0.0
C279 C 0.62171 0.11317 0.84258 0.0
C280 C 0.59988 0.08941 0.79628 0.0
C281 C 0.55886 0.66896 0.82609 0.0
C282 C 0.55743 0.68744 0.8824 0.0
C283 C 0.55516 0.64044 0.7778 0.0
C284 C 0.54762 0.61272 0.75035 0.0
C285 C 0.48505 0.13287 0.39736 0.0
C286 C 0.48508 0.15239 0.34924 0.0
C287 C 0.48823 0.10791 0.436 0.0
C288 C 0.49362 0.08672 0.45752 0.0
C289 C 0.37202 0.49885 0.37107 0.0
C290 C 0.34944 0.49567 0.32213 0.0
C291 C 0.40004 0.49947 0.40873 0.0
C292 C 0.42254 0.49761 0.44202 0.0
C293 C 0.9053 0.37297 0.30323 0.0
C294 C 0.88509 0.35277 0.24472 0.0
C295 C 0.92999 0.40154 0.35766 0.0
C296 C 0.95046 0.42836 0.39465 0.0
C297 C 0.54634 0.88609 0.27866 0.0
C298 C 0.5467 0.87326 0.20682 0.0
C299 C 0.54737 0.90604 0.35462 0.0
C300 C 0.54987 0.9282 0.4057 0.0
C301 C 0.69554 0.5805 0.29114 0.0
C302 C 0.71011 0.57633 0.23425 0.0
C303 C 0.67197 0.58067 0.34223 0.0
C304 C 0.64839 0.5769 0.37569 0.0
C305 C 0.14958 0.68779 0.37957 0.0
C306 C 0.16167 0.70134 0.31579 0.0
C307 C 0.12959 0.66743 0.44003 0.0
C308 C 0.10729 0.64659 0.47308 0.0
loop_
_geom_bond_atom_site_label_1
_geom_bond_atom_site_label_2
_geom_bond_distance
_geom_bond_site_symmetry_2
_ccdc_geom_bond_type
H0 C8 0.940 . S
H1 C11 0.940 . S
H2 C13 0.940 . S
H3 C14 0.940 . S
H4 C17 0.940 . S
H5 C19 0.940 . S
N6 N7 1.190 . S
N6 C10 1.477 . S
N7 N6 1.190 . S
N7 C16 1.477 . S
C8 H0 0.940 . S
C8 C9 1.390 . S
C8 C10 1.322 . S
C9 C8 1.390 . S
C9 C13 1.370 . S
C10 N6 1.477 . S
C10 C8 1.322 . S
C10 C11 1.447 . S
C11 H1 0.940 . S
C11 C10 1.447 . S
C11 C12 1.373 . S
C12 C11 1.373 . S
C12 C13 1.417 . S
C13 H2 0.940 . S
C13 C9 1.370 . S
C13 C12 1.417 . S
C14 H3 0.940 . S
C14 C15 1.390 . S
C14 C16 1.322 . S
C15 C14 1.390 . S
C15 C19 1.370 . S
C16 N7 1.477 . S
C16 C14 1.322 . S
C16 C17 1.447 . S
C17 H4 0.940 . S
C17 C16 1.447 . S
C17 C18 1.373 . S
C18 C17 1.373 . S
C18 C19 1.417 . S
C19 H5 0.940 . S
C19 C15 1.370 . S
C19 C18 1.417 . S
H20 C28 0.940 1_556 S
H21 C31 0.940 . S
H22 C33 0.940 . S
H23 C34 0.940 . S
H24 C37 0.940 1_556 S
H25 C39 0.940 . S
N26 N27 1.190 . S
N26 C30 1.477 . S
N27 N26 1.190 . S
N27 C36 1.477 . S
C28 H20 0.940 1_554 S
C28 C29 1.390 . S
C28 C30 1.322 . S
C29 C28 1.390 . S
C29 C33 1.370 . S
C30 N26 1.477 . S
C30 C28 1.322 . S
C30 C31 1.447 . S
C31 H21 0.940 . S
C31 C30 1.447 . S
C31 C32 1.373 . S
C32 C31 1.373 . S
C32 C33 1.417 . S
C33 H22 0.940 . S
C33 C29 1.370 . S
C33 C32 1.417 . S
C34 H23 0.940 . S
C34 C35 1.390 . S
C34 C36 1.322 . S
C35 C34 1.390 . S
C35 C39 1.370 . S
C36 N27 1.477 . S
C36 C34 1.322 . S
C36 C37 1.447 . S
C37 H24 0.940 1_554 S
C37 C36 1.447 . S
C37 C38 1.373 . S
C38 C37 1.373 . S
C38 C39 1.417 . S
C39 H25 0.940 . S
C39 C35 1.370 . S
C39 C38 1.417 . S
H40 C48 0.940 . S
H41 C51 0.940 . S
H42 C53 0.940 . S
H43 C54 0.940 . S
H44 C57 0.940 . S
H45 C59 0.940 . S
N46 N47 1.190 1_554 S
N46 C50 1.477 . S
N47 N46 1.190 1_556 S
N47 C56 1.477 1_556 S
C48 H40 0.940 . S
C48 C49 1.390 . S
C48 C50 1.322 1_556 S
C49 C48 1.390 . S
C49 C53 1.370 1_556 S
C50 N46 1.477 . S
C50 C48 1.322 1_554 S
C50 C51 1.447 . S
C51 H41 0.940 . S
C51 C50 1.447 . S
C51 C52 1.373 . S
C52 C51 1.373 . S
C52 C53 1.417 . S
C53 H42 0.940 . S
C53 C49 1.370 1_554 S
C53 C52 1.417 . S
C54 H43 0.940 . S
C54 C55 1.390 . S
C54 C56 1.322 . S
C55 C54 1.390 . S
C55 C59 1.370 . S
C56 N47 1.477 1_554 S
C56 C54 1.322 . S
C56 C57 1.447 1_554 S
C57 H44 0.940 . S
C57 C56 1.447 1_556 S
C57 C58 1.373 . S
C58 C57 1.373 . S
C58 C59 1.417 1_556 S
C59 H45 0.940 . S
C59 C55 1.370 . S
C59 C58 1.417 1_554 S
H60 C68 0.940 . S
H61 C71 0.940 . S
H62 C73 0.940 1_556 S
H63 C74 0.940 . S
H64 C77 0.940 . S
H65 C79 0.940 . S
N66 N67 1.190 1_554 S
N66 C70 1.477 . S
N67 N66 1.190 1_556 S
N67 C76 1.477 . S
C68 H60 0.940 . S
C68 C69 1.390 . S
C68 C70 1.322 1_556 S
C69 C68 1.390 . S
C69 C73 1.370 1_556 S
C70 N66 1.477 . S
C70 C68 1.322 1_554 S
C70 C71 1.447 . S
C71 H61 0.940 . S
C71 C70 1.447 . S
C71 C72 1.373 . S
C72 C71 1.373 . S
C72 C73 1.417 . S
C73 H62 0.940 1_554 S
C73 C69 1.370 1_554 S
C73 C72 1.417 . S
C74 H63 0.940 . S
C74 C75 1.390 . S
C74 C76 1.322 1_554 S
C75 C74 1.390 . S
C75 C79 1.370 . S
C76 N67 1.477 . S
C76 C74 1.322 1_556 S
C76 C77 1.447 . S
C77 H64 0.940 . S
C77 C76 1.447 . S
C77 C78 1.373 . S
C78 C77 1.373 . S
C78 C79 1.417 1_556 S
C79 H65 0.940 . S
C79 C75 1.370 . S
C79 C78 1.417 1_554 S
H80 C88 0.940 1_556 S
H81 C91 0.940 . S
H82 C93 0.940 . S
H83 C94 0.940 . S
H84 C97 0.940 1_556 S
H85 C99 0.940 . S
N86 N87 1.190 . S
N86 C90 1.477 . S
N87 N86 1.190 . S
N87 C96 1.477 . S
C88 H80 0.940 1_554 S
C88 C89 1.390 . S
C88 C90 1.322 . S
C89 C88 1.390 . S
C89 C93 1.370 . S
C90 N86 1.477 . S
C90 C88 1.322 . S
C90 C91 1.447 . S
C91 H81 0.940 . S
C91 C90 1.447 . S
C91 C92 1.373 . S
C92 C91 1.373 . S
C92 C93 1.417 . S
C93 H82 0.940 . S
C93 C89 1.370 . S
C93 C92 1.417 . S
C94 H83 0.940 . S
C94 C95 1.390 . S
C94 C96 1.322 . S
C95 C94 1.390 . S
C95 C99 1.370 . S
C96 N87 1.477 . S
C96 C94 1.322 . S
C96 C97 1.447 . S
C97 H84 0.940 1_554 S
C97 C96 1.447 . S
C97 C98 1.373 . S
C98 C97 1.373 . S
C98 C99 1.417 . S
C99 H85 0.940 . S
C99 C95 1.370 . S
C99 C98 1.417 . S
H100 C108 0.940 . S
H101 C111 0.940 . S
H102 C113 0.940 . S
H103 C114 0.940 . S
H104 C117 0.940 . S
H105 C119 0.940 . S
N106 N107 1.190 . S
N106 C110 1.477 . S
N107 N106 1.190 . S
N107 C116 1.477 . S
C108 H100 0.940 . S
C108 C109 1.390 . S
C108 C110 1.322 . S
C109 C108 1.390 . S
C109 C113 1.370 . S
C110 N106 1.477 . S
C110 C108 1.322 . S
C110 C111 1.447 . S
C111 H101 0.940 . S
C111 C110 1.447 . S
C111 C112 1.373 . S
C112 C111 1.373 . S
C112 C113 1.417 . S
C113 H102 0.940 . S
C113 C109 1.370 . S
C113 C112 1.417 . S
C114 H103 0.940 . S
C114 C115 1.390 . S
C114 C116 1.322 . S
C115 C114 1.390 . S
C115 C119 1.370 . S
C116 N107 1.477 . S
C116 C114 1.322 . S
C116 C117 1.447 . S
C117 H104 0.940 . S
C117 C116 1.447 . S
C117 C118 1.373 . S
C118 C117 1.373 . S
C118 C119 1.417 . S
C119 H105 0.940 . S
C119 C115 1.370 . S
C119 C118 1.417 . S
C120 O147 1.312 . S
C120 O148 1.208 . S
C121 O142 1.331 . S
C121 O145 1.244 . S
C122 O144 1.264 . S
C122 O146 1.273 . S
Mg123 O125 1.936 1_455 S
Mg123 O132 2.081 1_455 S
Mg123 O134 2.023 . S
Mg123 O138 2.031 1_455 S
Mg123 O147 2.291 . S
Mg124 O125 1.963 . S
Mg124 O135 1.942 . S
Mg124 O136 1.955 1_655 S
Mg124 O143 1.986 . S
O125 Mg123 1.936 1_655 S
O125 Mg124 1.963 . S
O125 Mg126 1.915 1_655 S
Mg126 O125 1.915 1_455 S
Mg126 O127 1.915 . S
Mg126 O131 2.013 . S
Mg126 O137 2.114 1_455 S
Mg126 O141 2.013 1_455 S
Mg126 O147 2.114 . S
O127 Mg126 1.915 . S
O127 Mg128 1.936 . S
O127 Mg129 1.963 . S
Mg128 O127 1.936 . S
Mg128 O137 2.291 1_455 S
Mg128 O142 2.081 . S
Mg128 O144 2.023 1_455 S
Mg128 O148 2.031 . S
Mg129 O127 1.963 . S
Mg129 O133 1.986 . S
Mg129 O145 1.942 . S
Mg129 O146 1.955 1_455 S
C130 O141 1.191 . S
C130 O143 1.307 . S
O131 Mg126 2.013 . S
O131 C150 1.191 . S
O132 Mg123 2.081 1_655 S
O132 C140 1.331 . S
O133 Mg129 1.986 . S
O133 C150 1.307 . S
O134 Mg123 2.023 . S
O134 C149 1.264 . S
O135 Mg124 1.942 . S
O135 C140 1.244 . S
O136 Mg124 1.955 1_455 S
O136 C149 1.273 . S
O137 Mg126 2.114 1_655 S
O137 Mg128 2.291 1_655 S
O137 C139 1.312 . S
O138 Mg123 2.031 1_655 S
O138 C139 1.208 . S
C139 O137 1.312 . S
C139 O138 1.208 . S
C140 O132 1.331 . S
C140 O135 1.244 . S
O141 Mg126 2.013 1_655 S
O141 C130 1.191 . S
O142 C121 1.331 . S
O142 Mg128 2.081 . S
O143 Mg124 1.986 . S
O143 C130 1.307 . S
O144 C122 1.264 . S
O144 Mg128 2.023 1_655 S
O145 C121 1.244 . S
O145 Mg129 1.942 . S
O146 C122 1.273 . S
O146 Mg129 1.955 1_655 S
O147 C120 1.312 . S
O147 Mg123 2.291 . S
O147 Mg126 2.114 . S
O148 C120 1.208 . S
O148 Mg128 2.031 . S
C149 O134 1.264 . S
C149 O136 1.273 . S
C150 O131 1.191 . S
C150 O133 1.307 . S
C151 O178 1.312 . S
C151 O179 1.208 . S
C152 O173 1.331 . S
C152 O176 1.244 . S
C153 O175 1.264 . S
C153 O177 1.273 . S
Mg154 O156 1.936 . S
Mg154 O163 2.081 1_545 S
Mg154 O165 2.023 . S
Mg154 O169 2.031 1_545 S
Mg154 O178 2.291 . S
Mg155 O156 1.963 . S
Mg155 O166 1.942 1_545 S
Mg155 O167 1.955 . S
Mg155 O174 1.986 1_545 S
O156 Mg154 1.936 . S
O156 Mg155 1.963 . S
O156 Mg157 1.915 . S
Mg157 O156 1.915 . S
Mg157 O158 1.915 . S
Mg157 O162 2.013 . S
Mg157 O168 2.114 1_545 S
Mg157 O172 2.013 1_545 S
Mg157 O178 2.114 . S
O158 Mg157 1.915 . S
O158 Mg159 1.936 . S
O158 Mg160 1.963 . S
Mg159 O158 1.936 . S
Mg159 O168 2.291 1_545 S
Mg159 O173 2.081 . S
Mg159 O175 2.023 1_545 S
Mg159 O179 2.031 . S
Mg160 O158 1.963 . S
Mg160 O164 1.986 . S
Mg160 O176 1.942 . S
Mg160 O177 1.955 1_545 S
C161 O172 1.191 . S
C161 O174 1.307 . S
O162 Mg157 2.013 . S
O162 C181 1.191 . S
O163 Mg154 2.081 1_565 S
O163 C171 1.331 . S
O164 Mg160 1.986 . S
O164 C181 1.307 . S
O165 Mg154 2.023 . S
O165 C180 1.264 . S
O166 Mg155 1.942 1_565 S
O166 C171 1.244 . S
O167 Mg155 1.955 . S
O167 C180 1.273 . S
O168 Mg157 2.114 1_565 S
O168 Mg159 2.291 1_565 S
O168 C170 1.312 . S
O169 Mg154 2.031 1_565 S
O169 C170 1.208 . S
C170 O168 1.312 . S
C170 O169 1.208 . S
C171 O163 1.331 . S
C171 O166 1.244 . S
O172 Mg157 2.013 1_565 S
O172 C161 1.191 . S
O173 C152 1.331 . S
O173 Mg159 2.081 . S
O174 Mg155 1.986 1_565 S
O174 C161 1.307 . S
O175 C153 1.264 . S
O175 Mg159 2.023 1_565 S
O176 C152 1.244 . S
O176 Mg160 1.942 . S
O177 C153 1.273 . S
O177 Mg160 1.955 1_565 S
O178 C151 1.312 . S
O178 Mg154 2.291 . S
O178 Mg157 2.114 . S
O179 C151 1.208 . S
O179 Mg159 2.031 . S
C180 O165 1.264 . S
C180 O167 1.273 . S
C181 O162 1.191 . S
C181 O164 1.307 . S
C182 O209 1.312 . S
C182 O210 1.208 . S
C183 O204 1.331 . S
C183 O207 1.244 . S
C184 O206 1.264 . S
C184 O208 1.273 . S
Mg185 O187 1.936 . S
Mg185 O194 2.081 . S
Mg185 O196 2.023 . S
Mg185 O200 2.031 . S
Mg185 O209 2.291 . S
Mg186 O187 1.963 . S
Mg186 O197 1.942 . S
Mg186 O198 1.955 . S
Mg186 O205 1.986 . S
O187 Mg185 1.936 . S
O187 Mg186 1.963 . S
O187 Mg188 1.915 . S
Mg188 O187 1.915 . S
Mg188 O189 1.915 . S
Mg188 O193 2.013 . S
Mg188 O199 2.114 . S
Mg188 O203 2.013 . S
Mg188 O209 2.114 . S
O189 Mg188 1.915 . S
O189 Mg190 1.936 . S
O189 Mg191 1.963 . S
Mg190 O189 1.936 . S
Mg190 O199 2.291 . S
Mg190 O204 2.081 . S
Mg190 O206 2.023 . S
Mg190 O210 2.031 . S
Mg191 O189 1.963 . S
Mg191 O195 1.986 . S
Mg191 O207 1.942 . S
Mg191 O208 1.955 . S
C192 O203 1.191 . S
C192 O205 1.307 . S
O193 Mg188 2.013 . S
O193 C212 1.191 . S
O194 Mg185 2.081 . S
O194 C202 1.331 . S
O195 Mg191 1.986 . S
O195 C212 1.307 . S
O196 Mg185 2.023 . S
O196 C211 1.264 . S
O197 Mg186 1.942 . S
O197 C202 1.244 . S
O198 Mg186 1.955 . S
O198 C211 1.273 . S
O199 Mg188 2.114 . S
O199 Mg190 2.291 . S
O199 C201 1.312 . S
O200 Mg185 2.031 . S
O200 C201 1.208 . S
C201 O199 1.312 . S
C201 O200 1.208 . S
C202 O194 1.331 . S
C202 O197 1.244 . S
O203 Mg188 2.013 . S
O203 C192 1.191 . S
O204 C183 1.331 . S
O204 Mg190 2.081 . S
O205 Mg186 1.986 . S
O205 C192 1.307 . S
O206 C184 1.264 . S
O206 Mg190 2.023 . S
O207 C183 1.244 . S
O207 Mg191 1.942 . S
O208 C184 1.273 . S
O208 Mg191 1.955 . S
O209 C182 1.312 . S
O209 Mg185 2.291 . S
O209 Mg188 2.114 . S
O210 C182 1.208 . S
O210 Mg190 2.031 . S
C211 O196 1.264 . S
C211 O198 1.273 . S
C212 O193 1.191 . S
C212 O195 1.307 . S
C213 C214 1.170 . S
C213 C215 1.380 . S
C214 C213 1.170 . S
C215 C213 1.380 . S
C215 C216 1.170 . S
C216 C215 1.170 . S
C217 C218 1.170 . S
C217 C219 1.380 . S
C218 C217 1.170 . S
C219 C217 1.380 . S
C219 C220 1.170 . S
C220 C219 1.170 . S
C221 C222 1.170 . S
C221 C223 1.380 . S
C222 C221 1.170 . S
C223 C221 1.380 . S
C223 C224 1.170 . S
C224 C223 1.170 . S
C225 C226 1.170 . S
C225 C227 1.380 . S
C226 C225 1.170 . S
C227 C225 1.380 . S
C227 C228 1.170 . S
C228 C227 1.170 . S
C229 C230 1.170 . S
C229 C231 1.380 . S
C230 C229 1.170 . S
C231 C229 1.380 . S
C231 C232 1.170 . S
C232 C231 1.170 . S
C233 C234 1.170 . S
C233 C235 1.380 . S
C234 C233 1.170 . S
C235 C233 1.380 . S
C235 C236 1.170 . S
C236 C235 1.170 . S
C237 C238 1.170 . S
C237 C239 1.380 . S
C238 C237 1.170 . S
C239 C237 1.380 . S
C239 C240 1.170 . S
C240 C239 1.170 . S
C241 C242 1.170 . S
C241 C243 1.380 . S
C242 C241 1.170 . S
C243 C241 1.380 . S
C243 C244 1.170 . S
C244 C243 1.170 . S
C245 C246 1.170 . S
C245 C247 1.380 . S
C246 C245 1.170 . S
C247 C245 1.380 . S
C247 C248 1.170 . S
C248 C247 1.170 . S
C249 C250 1.170 1_556 S
C249 C251 1.380 . S
C250 C249 1.170 1_554 S
C251 C249 1.380 . S
C251 C252 1.170 . S
C252 C251 1.170 . S
C253 C254 1.175 . S
C253 C255 1.376 1_554 S
C254 C253 1.175 . S
C255 C253 1.376 1_556 S
C255 C256 1.170 . S
C256 C255 1.170 . S
C257 C258 1.170 . S
C257 C259 1.380 . S
C258 C257 1.170 . S
C259 C257 1.380 . S
C259 C260 1.170 . S
C260 C259 1.170 . S
C261 C262 1.170 . S
C261 C263 1.380 . S
C262 C261 1.170 . S
C263 C261 1.380 . S
C263 C264 1.170 . S
C264 C263 1.170 . S
C265 C266 1.170 . S
C265 C267 1.380 . S
C266 C265 1.170 . S
C267 C265 1.380 . S
C267 C268 1.170 . S
C268 C267 1.170 . S
C269 C270 1.170 1_556 S
C269 C271 1.380 . S
C270 C269 1.170 1_554 S
C271 C269 1.380 . S
C271 C272 1.170 . S
C272 C271 1.170 . S
C273 C274 1.170 1_556 S
C273 C275 1.380 . S
C274 C273 1.170 1_554 S
C275 C273 1.380 . S
C275 C276 1.170 . S
C276 C275 1.170 . S
C277 C278 1.170 . S
C277 C279 1.380 . S
C278 C277 1.170 . S
C279 C277 1.380 . S
C279 C280 1.170 . S
C280 C279 1.170 . S
C281 C282 1.170 . S
C281 C283 1.380 . S
C282 C281 1.170 . S
C283 C281 1.380 . S
C283 C284 1.170 . S
C284 C283 1.170 . S
C285 C286 1.170 . S
C285 C287 1.380 . S
C286 C285 1.170 . S
C287 C285 1.380 . S
C287 C288 1.170 . S
C288 C287 1.170 . S
C289 C290 1.170 . S
C289 C291 1.380 . S
C290 C289 1.170 . S
C291 C289 1.380 . S
C291 C292 1.170 . S
C292 C291 1.170 . S
C293 C294 1.170 . S
C293 C295 1.380 . S
C294 C293 1.170 . S
C295 C293 1.380 . S
C295 C296 1.170 . S
C296 C295 1.170 . S
C297 C298 1.170 . S
C297 C299 1.380 . S
C298 C297 1.170 . S
C299 C297 1.380 . S
C299 C300 1.170 . S
C300 C299 1.170 . S
C301 C302 1.170 . S
C301 C303 1.380 . S
C302 C301 1.170 . S
C303 C301 1.380 . S
C303 C304 1.170 . S
C304 C303 1.170 . S
C305 C306 1.170 . S
C305 C307 1.380 . S
C306 C305 1.170 . S
C307 C305 1.380 . S
C307 C308 1.170 . S
C308 C307 1.170 . S
C214 C12 1.782 . S
C216 C120 1.791 . S
C218 C32 1.554 . S
C220 C152 1.595 . S
C224 C211 1.862 . S
C222 C52 1.870 . S
C228 C140 1.494 . S
C226 C75 1.491 . S
C230 C95 1.714 . S
C232 C170 1.660 . S
C236 C192 1.474 . S
C234 C115 1.319 . S
C240 C161 1.771 . S
C238 C58 1.756 . S
C242 C69 1.405 . S
C244 C201 1.487 . S
C248 C150 1.695 . S
C246 C89 1.659 1_556 S
C250 C109 1.540 . S
C252 C180 1.582 . S
C254 C18 1.785 . S
C256 C183 1.786 . S
C260 C122 1.666 . S
C258 C38 1.649 1_556 S
C264 C130 1.713 . S
C262 C78 1.697 . S
C268 C171 1.536 . S
C266 C98 1.534 1_556 S
C272 C184 1.816 . S
C270 C118 1.859 . S
C276 C121 1.478 . S
C274 C9 1.481 . S
C280 C181 1.591 . S
C278 C29 1.615 1_556 S
C282 C49 1.396 . S
C284 C182 1.433 . S
C288 C151 1.710 . S
C286 C112 1.710 . S
C292 C212 1.418 . S
C290 C15 1.400 . S
C296 C139 1.592 . S
C294 C35 1.627 . S
C300 C153 1.587 . S
C298 C55 1.585 . S
C302 C72 1.766 . S
C304 C202 1.727 . S
C306 C92 1.645 . S
C308 C149 1.655 . S
