# Generated by pormake.
# Topology ctn, (3,4)-cn, num edge types: 1
# Building blocks:
#     Node 0, Type 0, BuildingBlock: ESEHIV_clean_linker_0, # of connection points: 3
#     Node 1, Type 0, BuildingBlock: ESEHIV_clean_linker_0, # of connection points: 3
#     Node 2, Type 0, BuildingBlock: ESEHIV_clean_linker_0, # of connection points: 3
#     Node 3, Type 0, BuildingBlock: ESEHIV_clean_linker_0, # of connection points: 3
#     Node 4, Type 0, BuildingBlock: ESEHIV_clean_linker_0, # of connection points: 3
#     Node 5, Type 0, BuildingBlock: ESEHIV_clean_linker_0, # of connection points: 3
#     Node 6, Type 0, BuildingBlock: ESEHIV_clean_linker_0, # of connection points: 3
#     Node 7, Type 0, BuildingBlock: ESEHIV_clean_linker_0, # of connection points: 3
#     Node 8, Type 0, BuildingBlock: ESEHIV_clean_linker_0, # of connection points: 3
#     Node 9, Type 0, BuildingBlock: ESEHIV_clean_linker_0, # of connection points: 3
#     Node 10, Type 0, BuildingBlock: ESEHIV_clean_linker_0, # of connection points: 3
#     Node 11, Type 0, BuildingBlock: ESEHIV_clean_linker_0, # of connection points: 3
#     Node 12, Type 0, BuildingBlock: ESEHIV_clean_linker_0, # of connection points: 3
#     Node 13, Type 0, BuildingBlock: ESEHIV_clean_linker_0, # of connection points: 3
#     Node 14, Type 0, BuildingBlock: ESEHIV_clean_linker_0, # of connection points: 3
#     Node 15, Type 0, BuildingBlock: ESEHIV_clean_linker_0, # of connection points: 3
#     Node 16, Type 1, BuildingBlock: QUQFOY_clean_sbu_1, # of connection points: 4
#     Node 17, Type 1, BuildingBlock: QUQFOY_clean_sbu_1, # of connection points: 4
#     Node 18, Type 1, BuildingBlock: QUQFOY_clean_sbu_1, # of connection points: 4
#     Node 19, Type 1, BuildingBlock: QUQFOY_clean_sbu_1, # of connection points: 4
#     Node 20, Type 1, BuildingBlock: QUQFOY_clean_sbu_1, # of connection points: 4
#     Node 21, Type 1, BuildingBlock: QUQFOY_clean_sbu_1, # of connection points: 4
#     Node 22, Type 1, BuildingBlock: QUQFOY_clean_sbu_1, # of connection points: 4
#     Node 23, Type 1, BuildingBlock: QUQFOY_clean_sbu_1, # of connection points: 4
#     Node 24, Type 1, BuildingBlock: QUQFOY_clean_sbu_1, # of connection points: 4
#     Node 25, Type 1, BuildingBlock: QUQFOY_clean_sbu_1, # of connection points: 4
#     Node 26, Type 1, BuildingBlock: QUQFOY_clean_sbu_1, # of connection points: 4
#     Node 27, Type 1, BuildingBlock: QUQFOY_clean_sbu_1, # of connection points: 4
#     Edge 28, Type (0, 1), BuildingBlock: UVAHIK_clean_linker_0, # of connection points: 2
#     Edge 29, Type (0, 1), BuildingBlock: UVAHIK_clean_linker_0, # of connection points: 2
#     Edge 30, Type (0, 1), BuildingBlock: UVAHIK_clean_linker_0, # of connection points: 2
#     Edge 31, Type (0, 1), BuildingBlock: UVAHIK_clean_linker_0, # of connection points: 2
#     Edge 32, Type (0, 1), BuildingBlock: UVAHIK_clean_linker_0, # of connection points: 2
#     Edge 33, Type (0, 1), BuildingBlock: UVAHIK_clean_linker_0, # of connection points: 2
#     Edge 34, Type (0, 1), BuildingBlock: UVAHIK_clean_linker_0, # of connection points: 2
#     Edge 35, Type (0, 1), BuildingBlock: UVAHIK_clean_linker_0, # of connection points: 2
#     Edge 36, Type (0, 1), BuildingBlock: UVAHIK_clean_linker_0, # of connection points: 2
#     Edge 37, Type (0, 1), BuildingBlock: UVAHIK_clean_linker_0, # of connection points: 2
#     Edge 38, Type (0, 1), BuildingBlock: UVAHIK_clean_linker_0, # of connection points: 2
#     Edge 39, Type (0, 1), BuildingBlock: UVAHIK_clean_linker_0, # of connection points: 2
#     Edge 40, Type (0, 1), BuildingBlock: UVAHIK_clean_linker_0, # of connection points: 2
#     Edge 41, Type (0, 1), BuildingBlock: UVAHIK_clean_linker_0, # of connection points: 2
#     Edge 42, Type (0, 1), BuildingBlock: UVAHIK_clean_linker_0, # of connection points: 2
#     Edge 43, Type (0, 1), BuildingBlock: UVAHIK_clean_linker_0, # of connection points: 2
#     Edge 44, Type (0, 1), BuildingBlock: UVAHIK_clean_linker_0, # of connection points: 2
#     Edge 45, Type (0, 1), BuildingBlock: UVAHIK_clean_linker_0, # of connection points: 2
#     Edge 46, Type (0, 1), BuildingBlock: UVAHIK_clean_linker_0, # of connection points: 2
#     Edge 47, Type (0, 1), BuildingBlock: UVAHIK_clean_linker_0, # of connection points: 2
#     Edge 48, Type (0, 1), BuildingBlock: UVAHIK_clean_linker_0, # of connection points: 2
#     Edge 49, Type (0, 1), BuildingBlock: UVAHIK_clean_linker_0, # of connection points: 2
#     Edge 50, Type (0, 1), BuildingBlock: UVAHIK_clean_linker_0, # of connection points: 2
#     Edge 51, Type (0, 1), BuildingBlock: UVAHIK_clean_linker_0, # of connection points: 2
#     Edge 52, Type (0, 1), BuildingBlock: UVAHIK_clean_linker_0, # of connection points: 2
#     Edge 53, Type (0, 1), BuildingBlock: UVAHIK_clean_linker_0, # of connection points: 2
#     Edge 54, Type (0, 1), BuildingBlock: UVAHIK_clean_linker_0, # of connection points: 2
#     Edge 55, Type (0, 1), BuildingBlock: UVAHIK_clean_linker_0, # of connection points: 2
#     Edge 56, Type (0, 1), BuildingBlock: UVAHIK_clean_linker_0, # of connection points: 2
#     Edge 57, Type (0, 1), BuildingBlock: UVAHIK_clean_linker_0, # of connection points: 2
#     Edge 58, Type (0, 1), BuildingBlock: UVAHIK_clean_linker_0, # of connection points: 2
#     Edge 59, Type (0, 1), BuildingBlock: UVAHIK_clean_linker_0, # of connection points: 2
#     Edge 60, Type (0, 1), BuildingBlock: UVAHIK_clean_linker_0, # of connection points: 2
#     Edge 61, Type (0, 1), BuildingBlock: UVAHIK_clean_linker_0, # of connection points: 2
#     Edge 62, Type (0, 1), BuildingBlock: UVAHIK_clean_linker_0, # of connection points: 2
#     Edge 63, Type (0, 1), BuildingBlock: UVAHIK_clean_linker_0, # of connection points: 2
#     Edge 64, Type (0, 1), BuildingBlock: UVAHIK_clean_linker_0, # of connection points: 2
#     Edge 65, Type (0, 1), BuildingBlock: UVAHIK_clean_linker_0, # of connection points: 2
#     Edge 66, Type (0, 1), BuildingBlock: UVAHIK_clean_linker_0, # of connection points: 2
#     Edge 67, Type (0, 1), BuildingBlock: UVAHIK_clean_linker_0, # of connection points: 2
#     Edge 68, Type (0, 1), BuildingBlock: UVAHIK_clean_linker_0, # of connection points: 2
#     Edge 69, Type (0, 1), BuildingBlock: UVAHIK_clean_linker_0, # of connection points: 2
#     Edge 70, Type (0, 1), BuildingBlock: UVAHIK_clean_linker_0, # of connection points: 2
#     Edge 71, Type (0, 1), BuildingBlock: UVAHIK_clean_linker_0, # of connection points: 2
#     Edge 72, Type (0, 1), BuildingBlock: UVAHIK_clean_linker_0, # of connection points: 2
#     Edge 73, Type (0, 1), BuildingBlock: UVAHIK_clean_linker_0, # of connection points: 2
#     Edge 74, Type (0, 1), BuildingBlock: UVAHIK_clean_linker_0, # of connection points: 2
#     Edge 75, Type (0, 1), BuildingBlock: UVAHIK_clean_linker_0, # of connection points: 2
# Relax obj value: 0.036
# Max RMSD: 0.143
# Mean RMSD: 0.065
data_MOF--net-ctn--node1-QUQFOY_clean_sbu_1--node2-ESEHIV_clean_linker_0--edge1-UVAHIK_clean_linker_0
_symmetry_space_group_name_H-M    P1
_symmetry_Int_Tables_number       1
_symmetry_cell_setting            triclinic
loop_
_symmetry_equiv_pos_as_xyz
'x, y, z'
_cell_length_a     68.058223
_cell_length_b     67.895011
_cell_length_c     68.031462
_cell_angle_alpha  92.735369
_cell_angle_beta   90.217918
_cell_angle_gamma 94.477837
loop_
_atom_site_label
_atom_site_type_symbol
_atom_site_fract_x
_atom_site_fract_y
_atom_site_fract_z
_atom_type_partial_charge
H0 H 0.04578 0.13393 0.09377 0.0
H1 H 0.07865 0.09115 0.1214 0.0
H2 H 0.09211 0.107 0.06227 0.0
C3 C 0.05775 0.1243 0.09355 0.0
C4 C 0.06934 0.12266 0.07657 0.0
C5 C 0.0607 0.1127 0.10968 0.0
C6 C 0.07601 0.09996 0.10892 0.0
C7 C 0.08713 0.09744 0.09179 0.0
C8 C 0.08407 0.10926 0.07582 0.0
H9 H 0.29775 0.71019 0.23709 0.0
H10 H 0.31096 0.76684 0.2126 0.0
H11 H 0.25697 0.73259 0.19695 0.0
C12 C 0.29394 0.72149 0.22736 0.0
C13 C 0.2761 0.71896 0.21675 0.0
C14 C 0.30669 0.73864 0.22593 0.0
C15 C 0.30106 0.75373 0.21419 0.0
C16 C 0.28299 0.75181 0.20396 0.0
C17 C 0.27072 0.73428 0.20513 0.0
H18 H 0.90737 0.46921 0.10762 0.0
H19 H 0.93684 0.41807 0.08807 0.0
H20 H 0.89313 0.44035 0.05125 0.0
C21 C 0.90913 0.45716 0.09692 0.0
C22 C 0.89855 0.4564 0.07912 0.0
C23 C 0.92314 0.4435 0.10031 0.0
C24 C 0.9255 0.42817 0.08611 0.0
C25 C 0.91468 0.42692 0.06843 0.0
C26 C 0.90117 0.44102 0.06508 0.0
H27 H 0.69094 0.77838 0.23108 0.0
H28 H 0.73016 0.81897 0.20076 0.0
H29 H 0.70857 0.83578 0.25797 0.0
C30 C 0.69945 0.79254 0.23087 0.0
C31 C 0.6979 0.80681 0.24636 0.0
C32 C 0.71118 0.79693 0.21449 0.0
C33 C 0.7215 0.81557 0.21368 0.0
C34 C 0.72069 0.82976 0.22928 0.0
C35 C 0.70899 0.82513 0.24564 0.0
H36 H 0.0288 0.94068 0.42427 0.0
H37 H 0.06329 0.99334 0.40907 0.0
H38 H 0.08538 0.95606 0.45192 0.0
C39 C 0.04228 0.95025 0.42583 0.0
C40 C 0.05691 0.94603 0.43934 0.0
C41 C 0.04442 0.96741 0.41512 0.0
C42 C 0.06165 0.98003 0.41731 0.0
C43 C 0.07667 0.97571 0.4302 0.0
C44 C 0.07426 0.95869 0.44112 0.0
H45 H 0.19257 0.77334 0.80131 0.0
H46 H 0.23874 0.74147 0.82504 0.0
H47 H 0.21937 0.7295 0.76512 0.0
C48 C 0.20333 0.76244 0.79962 0.0
C49 C 0.20467 0.75193 0.78147 0.0
C50 C 0.21566 0.75893 0.81546 0.0
C51 C 0.22945 0.74468 0.81282 0.0
C52 C 0.23102 0.73408 0.79472 0.0
C53 C 0.21876 0.73803 0.77896 0.0
H54 H 0.91964 0.57776 0.4852 0.0
H55 H 0.97111 0.59429 0.45157 0.0
H56 H 0.93816 0.53852 0.43847 0.0
C57 C 0.92953 0.57464 0.47318 0.0
C58 C 0.92683 0.55661 0.46215 0.0
C59 C 0.94558 0.58815 0.46957 0.0
C60 C 0.95865 0.58387 0.45439 0.0
C61 C 0.95601 0.56602 0.44311 0.0
C62 C 0.94022 0.55233 0.44718 0.0
H63 H 0.7655 0.81094 0.82089 0.0
H64 H 0.79095 0.83071 0.76683 0.0
H65 H 0.8212 0.79145 0.80192 0.0
C66 C 0.77739 0.81102 0.81034 0.0
C67 C 0.79335 0.79958 0.81331 0.0
C68 C 0.77656 0.82256 0.79379 0.0
C69 C 0.79155 0.82194 0.77968 0.0
C70 C 0.80754 0.81041 0.78231 0.0
C71 C 0.80841 0.79954 0.7993 0.0
H72 H 0.2557 0.31616 0.33222 0.0
H73 H 0.27929 0.32636 0.27479 0.0
H74 H 0.30617 0.28671 0.31221 0.0
C75 C 0.26632 0.31307 0.32088 0.0
C76 C 0.28087 0.30003 0.32435 0.0
C77 C 0.26559 0.32251 0.303 0.0
C78 C 0.27962 0.31885 0.28848 0.0
C79 C 0.29446 0.30613 0.29179 0.0
C80 C 0.29478 0.29658 0.30963 0.0
H81 H 0.40991 0.97009 0.61288 0.0
H82 H 0.44049 0.92062 0.591 0.0
H83 H 0.39532 0.94255 0.55581 0.0
C84 C 0.41197 0.95867 0.60156 0.0
C85 C 0.40076 0.95796 0.58412 0.0
C86 C 0.42644 0.94535 0.60418 0.0
C87 C 0.42895 0.9306 0.58948 0.0
C88 C 0.41757 0.92935 0.57219 0.0
C89 C 0.40333 0.94291 0.56963 0.0
H90 H 0.20346 0.27705 0.73116 0.0
H91 H 0.25693 0.30944 0.71395 0.0
H92 H 0.22261 0.3324 0.76125 0.0
C93 C 0.21424 0.28954 0.73345 0.0
C94 C 0.21116 0.30426 0.74814 0.0
C95 C 0.23073 0.29124 0.72107 0.0
C96 C 0.24406 0.30809 0.72326 0.0
C97 C 0.24103 0.32318 0.73749 0.0
C98 C 0.2248 0.3209 0.75009 0.0
H99 H 0.79434 0.20677 0.74793 0.0
H100 H 0.80754 0.26143 0.71958 0.0
H101 H 0.74986 0.23087 0.71353 0.0
C102 C 0.78984 0.21829 0.73882 0.0
C103 C 0.7707 0.21673 0.73088 0.0
C104 C 0.80323 0.23442 0.73499 0.0
C105 C 0.79714 0.24925 0.72315 0.0
C106 C 0.7779 0.24812 0.7153 0.0
C107 C 0.76479 0.23178 0.71927 0.0
H108 H 0.54409 0.63486 0.59171 0.0
H109 H 0.57897 0.59273 0.61812 0.0
H110 H 0.58777 0.60698 0.55766 0.0
C111 C 0.55608 0.62524 0.59108 0.0
C112 C 0.56647 0.62307 0.57347 0.0
C113 C 0.55999 0.61379 0.60712 0.0
C114 C 0.57532 0.60103 0.60559 0.0
C115 C 0.58532 0.59815 0.58778 0.0
C116 C 0.58077 0.60936 0.57177 0.0
H117 H 0.53667 0.44042 0.94296 0.0
H118 H 0.57464 0.48773 0.92056 0.0
H119 H 0.59192 0.45867 0.9718 0.0
C120 C 0.55049 0.44953 0.94357 0.0
C121 C 0.56399 0.44754 0.95889 0.0
C122 C 0.5543 0.46389 0.92957 0.0
C123 C 0.57196 0.47605 0.93077 0.0
C124 C 0.58538 0.47439 0.94616 0.0
C125 C 0.58146 0.45995 0.95996 0.0
H126 H 0.68415 0.27591 0.29652 0.0
H127 H 0.73448 0.24987 0.31915 0.0
H128 H 0.71687 0.23761 0.25891 0.0
C129 C 0.69659 0.26712 0.29404 0.0
C130 C 0.69925 0.2577 0.27544 0.0
C131 C 0.70921 0.26439 0.30988 0.0
C132 C 0.72456 0.25194 0.30706 0.0
C133 C 0.72714 0.2419 0.28887 0.0
C134 C 0.71477 0.24526 0.27299 0.0
H135 H 0.40448 0.09908 0.96568 0.0
H136 H 0.45807 0.11227 0.93415 0.0
H137 H 0.4237 0.05698 0.92221 0.0
C138 C 0.4147 0.09522 0.9542 0.0
C139 C 0.41181 0.07688 0.94382 0.0
C140 C 0.43158 0.10782 0.95103 0.0
C141 C 0.44519 0.10234 0.93675 0.0
C142 C 0.44248 0.08406 0.92615 0.0
C143 C 0.42571 0.0714 0.92981 0.0
O144 O 0.23751 0.8779 0.00394 0.0
Cd145 Cd 0.24685 0.89837 0.0259 0.0
Cd146 Cd 0.21854 0.9183 0.01137 0.0
O147 O 0.21104 0.89221 0.99534 0.0
O148 O 0.26336 0.88402 0.04356 0.0
O149 O 0.23541 0.89607 0.05298 0.0
C150 C 0.25045 0.88647 0.05708 0.0
C151 C 0.19519 0.93509 0.02863 0.0
C152 C 0.2219 0.87784 0.99364 0.0
C153 C 0.2598 0.93592 0.00728 0.0
O154 O 0.24195 0.93644 0.00196 0.0
O155 O 0.26482 0.92235 0.018 0.0
O156 O 0.19556 0.93435 0.00967 0.0
O157 O 0.2076 0.92537 0.03791 0.0
O158 O 0.14931 0.53654 0.26087 0.0
Cd159 Cd 0.13166 0.51377 0.27243 0.0
Cd160 Cd 0.10487 0.52748 0.24821 0.0
O161 O 0.12818 0.54556 0.23903 0.0
O162 O 0.15038 0.49929 0.28746 0.0
O163 O 0.13365 0.48583 0.26161 0.0
C164 C 0.14626 0.4842 0.27556 0.0
C165 C 0.0835 0.51039 0.22553 0.0
C166 C 0.14516 0.5474 0.24697 0.0
C167 C 0.09591 0.52992 0.29091 0.0
O168 O 0.09166 0.53556 0.27403 0.0
O169 O 0.11076 0.52004 0.29327 0.0
O170 O 0.08392 0.52932 0.22835 0.0
O171 O 0.09601 0.50105 0.2351 0.0
O172 O 0.76931 0.68151 0.99036 0.0
Cd173 Cd 0.75639 0.66297 0.01069 0.0
Cd174 Cd 0.7829 0.63907 0.99533 0.0
O175 O 0.79298 0.66319 0.98027 0.0
O176 O 0.73955 0.68072 0.02584 0.0
O177 O 0.76395 0.66639 0.03943 0.0
C178 C 0.74983 0.67799 0.04125 0.0
C179 C 0.80434 0.62142 0.01285 0.0
C180 C 0.78435 0.67906 0.97977 0.0
C181 C 0.74075 0.62513 0.9895 0.0
O182 O 0.75832 0.62276 0.98433 0.0
O183 O 0.73696 0.63968 0.00092 0.0
O184 O 0.80407 0.62068 0.99388 0.0
O185 O 0.7928 0.63294 0.02203 0.0
O186 O 0.89461 0.02165 0.27083 0.0
Cd187 Cd 0.88008 0.0323 0.24756 0.0
Cd188 Cd 0.8569 0.04444 0.27547 0.0
O189 O 0.87901 0.03749 0.29422 0.0
O190 O 0.89973 0.03158 0.22623 0.0
O191 O 0.88889 0.05941 0.2386 0.0
C192 C 0.90059 0.05063 0.22678 0.0
C193 C 0.84492 0.07555 0.27803 0.0
C194 C 0.89259 0.02663 0.28888 0.0
C195 C 0.84 0.01229 0.24709 0.0
O196 O 0.83794 0.02166 0.26349 0.0
O197 O 0.85556 0.01551 0.23714 0.0
O198 O 0.84028 0.06238 0.29063 0.0
O199 O 0.85684 0.07114 0.26405 0.0
O200 O 0.25504 0.17534 0.49744 0.0
Cd201 Cd 0.24602 0.15418 0.51676 0.0
Cd202 Cd 0.27451 0.13516 0.49977 0.0
O203 O 0.28186 0.16186 0.48727 0.0
O204 O 0.23043 0.16779 0.53713 0.0
O205 O 0.25864 0.15511 0.54353 0.0
C206 C 0.24398 0.16467 0.54966 0.0
C207 C 0.29737 0.11779 0.51573 0.0
C208 C 0.27069 0.17602 0.48731 0.0
C209 C 0.23325 0.11747 0.4932 0.0
O210 O 0.25112 0.11735 0.48791 0.0
O211 O 0.22808 0.13048 0.50575 0.0
O212 O 0.2974 0.11888 0.49685 0.0
O213 O 0.28499 0.12765 0.52572 0.0
O214 O 0.41032 0.52617 0.78099 0.0
Cd215 Cd 0.39206 0.53395 0.75885 0.0
Cd216 Cd 0.37039 0.54325 0.7893 0.0
O217 O 0.39426 0.53808 0.80636 0.0
O218 O 0.40956 0.53314 0.73568 0.0
O219 O 0.39789 0.56072 0.74755 0.0
C220 C 0.40906 0.55203 0.73514 0.0
C221 C 0.35646 0.57337 0.79067 0.0
C222 C 0.40901 0.52983 0.7994 0.0
C223 C 0.35401 0.50978 0.76265 0.0
O224 O 0.35273 0.51889 0.77929 0.0
O225 O 0.36806 0.51457 0.75114 0.0
O226 O 0.35345 0.56097 0.80436 0.0
O227 O 0.36802 0.56884 0.77639 0.0
O228 O 0.72871 0.36888 0.50555 0.0
Cd229 Cd 0.74257 0.3859 0.52815 0.0
Cd230 Cd 0.7193 0.41403 0.51459 0.0
O231 O 0.71002 0.39128 0.49476 0.0
O232 O 0.7557 0.36699 0.54406 0.0
O233 O 0.73216 0.38486 0.55579 0.0
C234 C 0.74474 0.37195 0.55858 0.0
C235 C 0.69654 0.43549 0.52654 0.0
C236 C 0.71593 0.37397 0.49351 0.0
C237 C 0.76351 0.42281 0.51414 0.0
O238 O 0.74655 0.42838 0.5106 0.0
O239 O 0.76535 0.4061 0.52123 0.0
O240 O 0.7023 0.43538 0.50855 0.0
O241 O 0.703 0.42258 0.53778 0.0
O242 O 0.6494 0.02972 0.77629 0.0
Cd243 Cd 0.6305 0.00578 0.78316 0.0
Cd244 Cd 0.60999 0.0175 0.75397 0.0
O245 O 0.63566 0.03369 0.74756 0.0
O246 O 0.6462 0.98859 0.79859 0.0
O247 O 0.63366 0.97958 0.7691 0.0
C248 C 0.644 0.97555 0.78416 0.0
C249 C 0.59065 0.00146 0.72895 0.0
C250 C 0.64942 0.03815 0.76001 0.0
C251 C 0.5931 0.02201 0.79418 0.0
O252 O 0.59331 0.02794 0.77677 0.0
O253 O 0.60603 0.01092 0.79968 0.0
O254 O 0.59279 0.02046 0.73101 0.0
O255 O 0.60051 0.99134 0.74058 0.0
O256 O 0.98031 0.27661 0.91771 0.0
Cd257 Cd 0.98969 0.25434 0.89904 0.0
Cd258 Cd 0.00414 0.28556 0.88001 0.0
O259 O 0.99608 0.30211 0.90423 0.0
O260 O 0.98584 0.23056 0.91483 0.0
O261 O 0.01524 0.24305 0.90587 0.0
C262 C 0.00472 0.23012 0.91545 0.0
C263 C 0.03531 0.2899 0.86655 0.0
C264 C 0.98522 0.29506 0.91775 0.0
C265 C 0.97237 0.25909 0.85962 0.0
O266 O 0.98226 0.27574 0.86033 0.0
O267 O 0.97419 0.2471 0.87316 0.0
O268 O 0.0223 0.30241 0.86407 0.0
O269 O 0.03092 0.27522 0.87756 0.0
O270 O 0.47057 0.77686 0.41673 0.0
Cd271 Cd 0.48254 0.7554 0.39907 0.0
Cd272 Cd 0.50123 0.7859 0.38339 0.0
O273 O 0.49269 0.80054 0.40879 0.0
O274 O 0.47996 0.73035 0.41321 0.0
O275 O 0.50858 0.74711 0.40786 0.0
C276 C 0.49885 0.73236 0.41559 0.0
C277 C 0.53399 0.78799 0.37351 0.0
C278 C 0.47843 0.79438 0.41946 0.0
C279 C 0.47066 0.76283 0.35852 0.0
O280 O 0.48042 0.77945 0.36143 0.0
O281 O 0.47115 0.74968 0.37114 0.0
O282 O 0.52311 0.80255 0.37168 0.0
O283 O 0.52634 0.77234 0.38151 0.0
O284 O 0.98624 0.78182 0.65979 0.0
Cd285 Cd 0.00868 0.77279 0.64197 0.0
Cd286 Cd 0.99219 0.79707 0.61741 0.0
O287 O 0.97671 0.8055 0.64178 0.0
O288 O 0.02462 0.75849 0.66021 0.0
O289 O 0.0366 0.78497 0.64523 0.0
C290 C 0.03925 0.77114 0.65714 0.0
C291 C 0.00566 0.82092 0.59693 0.0
C292 C 0.97547 0.79599 0.6574 0.0
C293 C 0.98983 0.75411 0.60534 0.0
O294 O 0.98306 0.7707 0.60278 0.0
O295 O 0.0016 0.75211 0.61949 0.0
O296 O 0.9869 0.81685 0.59805 0.0
O297 O 0.01698 0.81187 0.60816 0.0
O298 O 0.47055 0.27224 0.16468 0.0
Cd299 Cd 0.49323 0.26608 0.14583 0.0
Cd300 Cd 0.47865 0.29434 0.12592 0.0
O301 O 0.46278 0.29933 0.15096 0.0
O302 O 0.51135 0.25163 0.16171 0.0
O303 O 0.52002 0.28057 0.14922 0.0
C304 C 0.52455 0.26603 0.15951 0.0
C305 C 0.49429 0.32067 0.11008 0.0
C306 C 0.46055 0.28727 0.16461 0.0
C307 C 0.47541 0.25363 0.10695 0.0
O308 O 0.46923 0.2708 0.10719 0.0
O309 O 0.48663 0.24886 0.12061 0.0
O310 O 0.47538 0.31756 0.11006 0.0
O311 O 0.50448 0.30919 0.11995 0.0
C312 C 0.19513 0.774 0.84208 0.0
C313 C 0.21375 0.76956 0.83492 0.0
C314 C 0.19338 0.78377 0.86047 0.0
C315 C 0.21743 0.7925 0.90825 0.0
H316 H 0.19251 0.84196 0.9117 0.0
C317 C 0.23184 0.84901 0.97292 0.0
C318 C 0.2174 0.86186 0.9784 0.0
C319 C 0.22872 0.8355 0.95691 0.0
C320 C 0.1991 0.82795 0.91119 0.0
H321 H 0.24513 0.77227 0.84151 0.0
H322 H 0.2419 0.78863 0.87386 0.0
H323 H 0.19201 0.82262 0.88057 0.0
H324 H 0.18783 0.86978 0.97215 0.0
H325 H 0.18208 0.84568 0.94458 0.0
H326 H 0.22444 0.79758 0.9388 0.0
C327 C 0.22872 0.78448 0.86517 0.0
C328 C 0.1989 0.81695 0.89329 0.0
C329 C 0.23053 0.77505 0.84667 0.0
C330 C 0.19933 0.8602 0.96816 0.0
C331 C 0.19609 0.84648 0.95227 0.0
C332 C 0.21735 0.8033 0.92623 0.0
C333 C 0.21015 0.78894 0.8722 0.0
C334 C 0.20849 0.79941 0.89158 0.0
C335 C 0.21095 0.8343 0.94614 0.0
C336 C 0.20866 0.82145 0.9278 0.0
H337 H 0.18184 0.76968 0.83365 0.0
H338 H 0.1789 0.78701 0.86567 0.0
H339 H 0.22469 0.77884 0.90731 0.0
H340 H 0.24597 0.84994 0.98044 0.0
H341 H 0.24065 0.82665 0.9525 0.0
C342 C 0.97471 0.57553 0.41312 0.0
C343 C 0.97008 0.56166 0.42735 0.0
C344 C 0.98862 0.57186 0.39868 0.0
C345 C 0.01578 0.53172 0.3751 0.0
H346 H 0.05011 0.57594 0.35816 0.0
C347 C 0.08298 0.52295 0.32445 0.0
C348 C 0.08303 0.53428 0.30769 0.0
C349 C 0.06982 0.52629 0.33974 0.0
C350 C 0.04058 0.56349 0.36276 0.0
H351 H 0.9762 0.53314 0.43781 0.0
H352 H 0.00104 0.52689 0.41296 0.0
H353 H 0.02574 0.58148 0.38358 0.0
H354 H 0.06982 0.55833 0.29401 0.0
H355 H 0.04716 0.56443 0.32097 0.0
H356 H 0.0311 0.51373 0.35447 0.0
C357 C 0.9936 0.54039 0.41257 0.0
C358 C 0.02652 0.56665 0.3772 0.0
C359 C 0.97944 0.54396 0.42684 0.0
C360 C 0.07008 0.54934 0.30673 0.0
C361 C 0.05718 0.55289 0.32215 0.0
C362 C 0.03006 0.52854 0.36086 0.0
C363 C -0.00156 0.55436 0.39837 0.0
C364 C 0.01378 0.55084 0.3834 0.0
C365 C 0.05679 0.54124 0.33866 0.0
C366 C 0.04243 0.54443 0.35446 0.0
H367 H 0.96749 0.5892 0.41314 0.0
H368 H 0.9916 0.58273 0.38772 0.0
H369 H 0.00606 0.51926 0.37928 0.0
H370 H 0.09275 0.51119 0.32554 0.0
H371 H 0.06982 0.5172 0.3524 0.0
C372 C 0.80217 0.76926 0.83005 0.0
C373 C 0.79455 0.78794 0.83118 0.0
C374 C 0.80362 0.75843 0.84684 0.0
C375 C 0.80252 0.76312 0.90156 0.0
H376 H 0.79096 0.70628 0.89629 0.0
C377 C 0.78224 0.7122 0.9656 0.0
C378 C 0.79048 0.69383 0.96528 0.0
C379 C 0.78574 0.72491 0.95023 0.0
C380 C 0.7945 0.72211 0.89793 0.0
H381 H 0.78265 0.80992 0.85103 0.0
H382 H 0.7842 0.79059 0.8801 0.0
H383 H 0.79029 0.72576 0.86728 0.0
H384 H 0.80978 0.67491 0.94917 0.0
H385 H 0.81566 0.69706 0.92226 0.0
H386 H 0.80584 0.75931 0.93249 0.0
C387 C 0.78954 0.78451 0.8663 0.0
C388 C 0.79416 0.73331 0.8813 0.0
C389 C 0.78832 0.79547 0.84954 0.0
C390 C 0.80315 0.68892 0.94984 0.0
C391 C 0.80645 0.70153 0.93438 0.0
C392 C 0.80259 0.75191 0.91826 0.0
C393 C 0.79721 0.76586 0.86516 0.0
C394 C 0.79811 0.75397 0.88289 0.0
C395 C 0.79738 0.71939 0.9342 0.0
C396 C 0.79854 0.73131 0.91657 0.0
H397 H 0.80688 0.76287 0.81613 0.0
H398 H 0.80987 0.74426 0.84542 0.0
H399 H 0.80597 0.77895 0.9033 0.0
H400 H 0.7725 0.71645 0.97735 0.0
H401 H 0.77852 0.73858 0.95039 0.0
C402 C 0.01925 0.9599 0.38833 0.0
C403 C 0.02798 0.97308 0.40291 0.0
C404 C 0.00371 0.96546 0.37687 0.0
C405 C 0.97954 0.01001 0.36242 0.0
H406 H 0.93801 0.97105 0.34407 0.0
C407 C 0.90946 0.03005 0.3218 0.0
C408 C 0.90628 0.0198 0.3035 0.0
C409 C 0.92333 0.0241 0.33506 0.0
C410 C 0.94953 0.98205 0.34914 0.0
H411 H 0.02708 0.00202 0.41752 0.0
H412 H -0.00048 0.01152 0.39812 0.0
H413 H 0.96419 0.96115 0.36523 0.0
H414 H 0.91456 0.99492 0.28498 0.0
H415 H 0.93843 0.98431 0.30834 0.0
H416 H 0.96452 0.03094 0.34658 0.0
C417 C 0.00502 0.99718 0.39492 0.0
C418 C 0.96462 0.97639 0.36112 0.0
C419 C 0.02075 0.99174 0.40611 0.0
C420 C 0.91677 0.00317 0.29894 0.0
C421 C 0.93033 0.99701 0.31232 0.0
C422 C 0.96428 0.01572 0.35073 0.0
C423 C 0.99637 0.98418 0.38003 0.0
C424 C 0.97994 0.99026 0.36776 0.0
C425 C 0.93391 0.00757 0.33037 0.0
C426 C 0.94927 0.00175 0.34384 0.0
H427 H 0.02467 0.94544 0.3856 0.0
H428 H -0.00233 0.95518 0.36534 0.0
H429 H 0.99125 0.02105 0.36689 0.0
H430 H 0.90161 0.04295 0.32567 0.0
H431 H 0.92584 0.03241 0.34895 0.0
C432 C 0.24041 0.28103 0.68671 0.0
C433 C 0.23368 0.27574 0.7054 0.0
C434 C 0.24295 0.26656 0.67189 0.0
C435 C 0.2254 0.2163 0.65541 0.0
H436 H 0.27057 0.22069 0.62083 0.0
C437 C 0.25979 0.17407 0.58246 0.0
C438 C 0.2431 0.17285 0.57012 0.0
C439 C 0.25946 0.18387 0.60101 0.0
C440 C 0.25801 0.21907 0.63052 0.0
H441 H 0.22465 0.25097 0.7232 0.0
H442 H 0.22874 0.22567 0.69708 0.0
H443 H 0.26905 0.24355 0.6495 0.0
H444 H 0.21269 0.18005 0.56787 0.0
H445 H 0.2121 0.197 0.60017 0.0
H446 H 0.21415 0.19211 0.63616 0.0
C447 C 0.23199 0.24108 0.69398 0.0
C448 C 0.25705 0.23229 0.6468 0.0
C449 C 0.22959 0.25558 0.70889 0.0
C450 C 0.22582 0.1808 0.57702 0.0
C451 C 0.22543 0.1904 0.59559 0.0
C452 C 0.22629 0.20317 0.63904 0.0
C453 C 0.23869 0.24644 0.67533 0.0
C454 C 0.24058 0.23126 0.6592 0.0
C455 C 0.24235 0.1924 0.60761 0.0
C456 C 0.24245 0.20466 0.62624 0.0
H457 H 0.24333 0.29642 0.68337 0.0
H458 H 0.24778 0.27115 0.65754 0.0
H459 H 0.21248 0.21522 0.66465 0.0
H460 H 0.27332 0.16807 0.57754 0.0
H461 H 0.27267 0.18506 0.61006 0.0
C462 C 0.53735 0.62982 0.6315 0.0
C463 C 0.54648 0.61302 0.62429 0.0
C464 C 0.52316 0.62821 0.64635 0.0
C465 C 0.50474 0.59531 0.68504 0.0
H466 H 0.45288 0.61214 0.6736 0.0
C467 C 0.4355 0.55311 0.71002 0.0
C468 C 0.42251 0.5633 0.72199 0.0
C469 C 0.45041 0.5634 0.69987 0.0
C470 C 0.46738 0.60774 0.67717 0.0
H471 H 0.54751 0.58134 0.6271 0.0
H472 H 0.52356 0.57879 0.65308 0.0
H473 H 0.48114 0.62327 0.65346 0.0
H474 H 0.41419 0.59238 0.73174 0.0
H475 H 0.44032 0.61051 0.7134 0.0
H476 H 0.49087 0.5788 0.70786 0.0
C477 C 0.52751 0.59324 0.6475 0.0
C478 C 0.48353 0.61412 0.66573 0.0
C479 C 0.54139 0.59476 0.63261 0.0
C480 C 0.42402 0.58413 0.72265 0.0
C481 C 0.43893 0.5945 0.71223 0.0
C482 C 0.48868 0.58889 0.69631 0.0
C483 C 0.51808 0.60985 0.65441 0.0
C484 C 0.50217 0.60724 0.66907 0.0
C485 C 0.45257 0.58413 0.70129 0.0
C486 C 0.46976 0.59439 0.69196 0.0
H487 H 0.54099 0.64414 0.62554 0.0
H488 H 0.51609 0.64124 0.65144 0.0
H489 H 0.51901 0.59007 0.68813 0.0
H490 H 0.4347 0.53709 0.70904 0.0
H491 H 0.4606 0.55512 0.69123 0.0
C492 C 0.76028 0.25857 0.68552 0.0
C493 C 0.77172 0.2637 0.70252 0.0
C494 C 0.75522 0.27309 0.67298 0.0
C495 C 0.77324 0.32167 0.65719 0.0
H496 H 0.7227 0.31952 0.63025 0.0
C497 C 0.73227 0.3642 0.5923 0.0
C498 C 0.74679 0.36296 0.57775 0.0
C499 C 0.73414 0.35479 0.61002 0.0
C500 C 0.73678 0.32051 0.63787 0.0
H501 H 0.78613 0.28824 0.72006 0.0
H502 H 0.77757 0.31357 0.69791 0.0
H503 H 0.72727 0.29773 0.65725 0.0
H504 H 0.77488 0.35143 0.57055 0.0
H505 H 0.77816 0.33526 0.60135 0.0
H506 H 0.78292 0.34399 0.63744 0.0
C507 C 0.77264 0.29827 0.69428 0.0
C508 C 0.73945 0.30793 0.65318 0.0
C509 C 0.77761 0.28376 0.7069 0.0
C510 C 0.76339 0.3526 0.58143 0.0
C511 C 0.76537 0.34346 0.59915 0.0
C512 C 0.7706 0.33412 0.64181 0.0
C513 C 0.76157 0.29305 0.67708 0.0
C514 C 0.75785 0.30807 0.66267 0.0
C515 C 0.75071 0.3443 0.61356 0.0
C516 C 0.75251 0.33331 0.63168 0.0
H517 H 0.75574 0.24325 0.68154 0.0
H518 H 0.74697 0.26857 0.65966 0.0
H519 H 0.78762 0.32205 0.66413 0.0
H520 H 0.71932 0.37209 0.58984 0.0
H521 H 0.72265 0.35567 0.62093 0.0
C522 C 0.44779 0.93226 0.63012 0.0
C523 C 0.44064 0.9484 0.62086 0.0
C524 C 0.46293 0.93527 0.64416 0.0
C525 C 0.48939 0.97417 0.67645 0.0
H526 H 0.53444 0.94292 0.66933 0.0
C527 C 0.56547 0.00378 0.7028 0.0
C528 C 0.57565 0.99194 0.7151 0.0
C529 C 0.5489 0.99587 0.69227 0.0
C530 C 0.52184 0.95155 0.67163 0.0
H531 H 0.44373 0.98035 0.61927 0.0
H532 H 0.46977 0.98557 0.64375 0.0
H533 H 0.50409 0.93376 0.65042 0.0
H534 H 0.57727 0.96218 0.72495 0.0
H535 H 0.54819 0.94822 0.7061 0.0
H536 H 0.50734 0.99241 0.697 0.0
C537 C 0.46353 0.97061 0.64044 0.0
C538 C 0.50447 0.9463 0.66091 0.0
C539 C 0.44851 0.96761 0.62641 0.0
C540 C 0.56969 0.97166 0.7156 0.0
C541 C 0.55307 0.96368 0.70489 0.0
C542 C 0.50671 0.97946 0.68701 0.0
C543 C 0.47112 0.95448 0.64926 0.0
C544 C 0.48829 0.95794 0.6628 0.0
C545 C 0.54219 0.97593 0.6937 0.0
C546 C 0.52327 0.96857 0.68426 0.0
H547 H 0.44189 0.91729 0.62627 0.0
H548 H 0.46838 0.92258 0.65085 0.0
H549 H 0.47702 0.98316 0.67854 0.0
H550 H 0.56978 0.01941 0.7019 0.0
H551 H 0.54099 0.00551 0.68339 0.0
C552 C 0.83254 0.25398 0.75073 0.0
C553 C 0.82345 0.23571 0.74359 0.0
C554 C 0.85087 0.25493 0.76019 0.0
C555 C 0.87958 0.22668 0.79111 0.0
H556 H 0.92351 0.26386 0.77904 0.0
C557 C 0.94961 0.23494 0.83969 0.0
C558 C 0.95795 0.25433 0.84348 0.0
C559 C 0.93518 0.2309 0.82504 0.0
C560 C 0.91132 0.25352 0.78276 0.0
H561 H 0.82718 0.20424 0.73982 0.0
H562 H 0.85875 0.20592 0.75715 0.0
H563 H 0.8943 0.26071 0.75786 0.0
H564 H 0.95788 0.28465 0.83476 0.0
H565 H 0.93234 0.27785 0.80998 0.0
H566 H 0.89583 0.22025 0.8166 0.0
C567 C 0.85159 0.21943 0.75536 0.0
C568 C 0.89469 0.25167 0.77053 0.0
C569 C 0.83345 0.21851 0.74559 0.0
C570 C 0.95185 0.26951 0.83212 0.0
C571 C 0.93726 0.26556 0.81774 0.0
C572 C 0.89604 0.22879 0.80356 0.0
C573 C 0.86032 0.23761 0.76293 0.0
C574 C 0.8786 0.23842 0.77477 0.0
C575 C 0.92859 0.24623 0.81408 0.0
C576 C 0.91201 0.24248 0.79973 0.0
H577 H 0.82521 0.26749 0.74968 0.0
H578 H 0.85729 0.26911 0.76608 0.0
H579 H 0.86723 0.21647 0.79474 0.0
H580 H 0.95414 0.2229 0.84811 0.0
H581 H 0.92911 0.21578 0.82241 0.0
C582 C 0.40774 0.90186 0.54729 0.0
C583 C 0.42231 0.91531 0.55596 0.0
C584 C 0.41276 0.88804 0.53258 0.0
C585 C 0.45645 0.86462 0.51224 0.0
H586 H 0.42198 0.84953 0.46764 0.0
C587 C 0.48261 0.82467 0.44189 0.0
C588 C 0.47104 0.80763 0.43513 0.0
C589 C 0.47582 0.83709 0.45687 0.0
C590 C 0.43164 0.85353 0.48012 0.0
H591 H 0.45319 0.92571 0.55555 0.0
H592 H 0.46186 0.90222 0.52955 0.0
H593 H 0.41153 0.87294 0.49322 0.0
H594 H 0.44313 0.79043 0.43853 0.0
H595 H 0.4311 0.81247 0.46456 0.0
H596 H 0.4768 0.84572 0.49876 0.0
C597 C 0.44673 0.90164 0.5345 0.0
C598 C 0.42566 0.86686 0.49481 0.0
C599 C 0.44178 0.9152 0.54931 0.0
C600 C 0.45241 0.80341 0.44349 0.0
C601 C 0.44548 0.81604 0.45829 0.0
C602 C 0.46251 0.85156 0.49746 0.0
C603 C 0.43238 0.88765 0.52615 0.0
C604 C 0.43811 0.87274 0.51094 0.0
C605 C 0.45721 0.83289 0.46519 0.0
C606 C 0.45025 0.84604 0.4812 0.0
H607 H 0.39262 0.90172 0.55223 0.0
H608 H 0.40135 0.87741 0.52658 0.0
H609 H 0.46621 0.86837 0.5247 0.0
H610 H 0.49704 0.82831 0.43576 0.0
H611 H 0.48506 0.8501 0.46187 0.0
C612 C 0.18534 0.28415 0.76687 0.0
C613 C 0.19347 0.30265 0.76106 0.0
C614 C 0.16869 0.28277 0.77887 0.0
C615 C 0.1281 0.3127 0.79755 0.0
H616 H 0.11941 0.26949 0.83245 0.0
C617 C 0.05459 0.30029 0.83745 0.0
C618 C 0.05404 0.29171 0.85579 0.0
C619 C 0.07187 0.3014 0.82652 0.0
C620 C 0.12171 0.28188 0.82308 0.0
H621 H 0.18993 0.33424 0.76335 0.0
H622 H 0.16246 0.332 0.78549 0.0
H623 H 0.14924 0.27223 0.8131 0.0
H624 H 0.07111 0.27778 0.87734 0.0
H625 H 0.10184 0.2809 0.85889 0.0
H626 H 0.10144 0.32325 0.80852 0.0
C627 C 0.16833 0.31838 0.78023 0.0
C628 C 0.13873 0.28324 0.81159 0.0
C629 C 0.18455 0.31971 0.76778 0.0
C630 C 0.07119 0.28445 0.86318 0.0
C631 C 0.08874 0.28609 0.85248 0.0
C632 C 0.11144 0.31169 0.80942 0.0
C633 C 0.15997 0.29989 0.7858 0.0
C634 C 0.14208 0.29857 0.79849 0.0
C635 C 0.0893 0.29452 0.83391 0.0
C636 C 0.10778 0.29609 0.82214 0.0
H637 H 0.19187 0.27066 0.76228 0.0
H638 H 0.16259 0.2682 0.78247 0.0
H639 H 0.12976 0.32455 0.78745 0.0
H640 H 0.04145 0.30567 0.83123 0.0
H641 H 0.07134 0.30737 0.81208 0.0
C642 C 0.552 0.62299 0.53985 0.0
C643 C 0.56098 0.63361 0.55611 0.0
C644 C 0.54647 0.63287 0.52342 0.0
C645 C 0.55758 0.67563 0.4951 0.0
H646 H 0.50223 0.67132 0.48056 0.0
C647 C 0.5258 0.72598 0.43883 0.0
C648 C 0.50872 0.71906 0.42823 0.0
C649 C 0.53349 0.71449 0.45306 0.0
C650 C 0.51782 0.67237 0.48402 0.0
H651 H 0.5716 0.66258 0.56812 0.0
H652 H 0.56241 0.67996 0.53893 0.0
H653 H 0.51326 0.6533 0.50808 0.0
H654 H 0.48705 0.69425 0.42308 0.0
H655 H 0.50109 0.67364 0.44697 0.0
H656 H 0.56242 0.69413 0.47076 0.0
C657 C 0.55951 0.66405 0.53904 0.0
C658 C 0.52406 0.66217 0.49994 0.0
C659 C 0.56465 0.6542 0.55567 0.0
C660 C 0.50013 0.7 0.43123 0.0
C661 C 0.50809 0.6883 0.4451 0.0
C662 C 0.55144 0.68551 0.47886 0.0
C663 C 0.55024 0.65345 0.52288 0.0
C664 C 0.54392 0.66388 0.5057 0.0
C665 C 0.52449 0.69562 0.45669 0.0
C666 C 0.53141 0.68418 0.47321 0.0
H667 H 0.54904 0.60708 0.53999 0.0
H668 H 0.53935 0.62445 0.51109 0.0
H669 H 0.57303 0.67698 0.49925 0.0
H670 H 0.53261 0.74072 0.43689 0.0
H671 H 0.54595 0.72083 0.46178 0.0
C672 C 0.83112 0.82727 0.75885 0.0
C673 C 0.82371 0.80996 0.76773 0.0
C674 C 0.84716 0.82689 0.74609 0.0
C675 C 0.87675 0.79217 0.71691 0.0
H676 H 0.91695 0.836 0.72016 0.0
C677 C 0.95408 0.78591 0.68549 0.0
C678 C 0.96 0.80008 0.67187 0.0
C679 C 0.93769 0.78838 0.69734 0.0
C680 C 0.90575 0.82374 0.71907 0.0
H681 H 0.8269 0.77854 0.76954 0.0
H682 H 0.85526 0.77805 0.74817 0.0
H683 H 0.88705 0.83767 0.73978 0.0
H684 H 0.95409 0.8285 0.66078 0.0
H685 H 0.92561 0.83298 0.68194 0.0
H686 H 0.89585 0.778 0.69675 0.0
C687 C 0.84854 0.79188 0.75068 0.0
C688 C 0.88858 0.82472 0.73017 0.0
C689 C 0.83242 0.79222 0.76321 0.0
C690 C 0.94983 0.81729 0.67109 0.0
C691 C 0.93359 0.8199 0.68319 0.0
C692 C 0.89401 0.79109 0.7061 0.0
C693 C 0.85622 0.80923 0.74205 0.0
C694 C 0.87394 0.80884 0.72936 0.0
C695 C 0.9271 0.8052 0.69601 0.0
C696 C 0.90872 0.80677 0.70722 0.0
H697 H 0.82486 0.84122 0.76213 0.0
H698 H 0.8525 0.84046 0.73949 0.0
H699 H 0.86561 0.77988 0.71551 0.0
H700 H 0.96158 0.77249 0.68645 0.0
H701 H 0.93304 0.77695 0.70729 0.0
C702 C 0.06848 0.91878 0.45936 0.0
C703 C 0.05316 0.92989 0.45319 0.0
C704 C 0.06519 0.90505 0.47392 0.0
C705 C 0.0257 0.87574 0.49875 0.0
H706 H 0.06093 0.87985 0.54399 0.0
C707 C 0.00074 0.84552 0.57179 0.0
C708 C 0.01364 0.83444 0.58204 0.0
C709 C 0.00738 0.8563 0.5559 0.0
C710 C 0.05113 0.87833 0.53134 0.0
H711 H 0.02236 0.93514 0.45754 0.0
H712 H 0.0166 0.91096 0.48238 0.0
H713 H 0.06927 0.89909 0.51521 0.0
H714 H 0.04385 0.8267 0.58428 0.0
H715 H 0.05552 0.84566 0.55625 0.0
H716 H 0.0074 0.8553 0.51483 0.0
C717 C 0.03109 0.91273 0.47586 0.0
C718 C 0.05591 0.88929 0.51487 0.0
C719 C 0.03439 0.92654 0.46151 0.0
C720 C 0.03359 0.83513 0.57665 0.0
C721 C 0.04026 0.84595 0.56062 0.0
C722 C 0.02097 0.86479 0.51511 0.0
C723 C 0.04649 0.90202 0.4824 0.0
C724 C 0.04296 0.88847 0.49865 0.0
C725 C 0.02705 0.85621 0.54979 0.0
C726 C 0.03334 0.86638 0.53179 0.0
H727 H 0.08306 0.92084 0.45311 0.0
H728 H 0.07727 0.89685 0.47861 0.0
H729 H 0.01564 0.87455 0.48629 0.0
H730 H 0.98533 0.84549 0.57572 0.0
H731 H 0.99697 0.86451 0.54818 0.0
C732 C 0.19584 0.75951 0.74693 0.0
C733 C 0.19001 0.75419 0.76587 0.0
C734 C 0.18164 0.76161 0.73238 0.0
C735 C 0.13352 0.74286 0.71602 0.0
H736 H 0.12405 0.79419 0.69683 0.0
C737 C 0.05932 0.75675 0.68266 0.0
C738 C 0.05831 0.76959 0.66718 0.0
C739 C 0.07712 0.75483 0.69225 0.0
C740 C 0.12673 0.77967 0.70166 0.0
H741 H 0.1651 0.74653 0.78448 0.0
H742 H 0.14033 0.74957 0.75888 0.0
H743 H 0.15283 0.79075 0.71778 0.0
H744 H 0.07521 0.79055 0.64959 0.0
H745 H 0.10664 0.78686 0.66616 0.0
H746 H 0.10768 0.73158 0.70008 0.0
C747 C 0.15579 0.75243 0.7554 0.0
C748 C 0.14316 0.77775 0.71368 0.0
C749 C 0.16989 0.75077 0.77 0.0
C750 C 0.07555 0.78056 0.66151 0.0
C751 C 0.09352 0.77849 0.67104 0.0
C752 C 0.11734 0.74467 0.7038 0.0
C753 C 0.16154 0.75789 0.73652 0.0
C754 C 0.14629 0.75944 0.72137 0.0
C755 C 0.09451 0.7655 0.68648 0.0
C756 C 0.11333 0.76323 0.69703 0.0
H757 H 0.21132 0.76223 0.7435 0.0
H758 H 0.1863 0.76581 0.71785 0.0
H759 H 0.13581 0.72857 0.72171 0.0
H760 H 0.04627 0.74823 0.68755 0.0
H761 H 0.07714 0.74513 0.70443 0.0
C762 C 0.96803 0.61006 0.49156 0.0
C763 C 0.94947 0.60607 0.48256 0.0
C764 C 0.97153 0.6263 0.50477 0.0
C765 C 0.95659 0.67497 0.51856 0.0
H766 H 0.97746 0.66548 0.57009 0.0
C767 C 0.96758 0.73717 0.57935 0.0
C768 C 0.98423 0.73712 0.59159 0.0
C769 C 0.96241 0.72113 0.56624 0.0
C770 C 0.97191 0.66847 0.55568 0.0
H771 H 0.92014 0.616 0.47982 0.0
H772 H 0.92645 0.64487 0.50274 0.0
H773 H 0.97057 0.63785 0.54626 0.0
H774 H 0.00871 0.72042 0.59954 0.0
H775 H 0.00019 0.69282 0.57622 0.0
H776 H 0.95857 0.70565 0.52758 0.0
C777 C 0.93817 0.63529 0.49964 0.0
C778 C 0.96787 0.65262 0.54211 0.0
C779 C 0.93456 0.61882 0.48665 0.0
C780 C 0.99568 0.72079 0.59042 0.0
C781 C 0.99069 0.7049 0.57712 0.0
C782 C 0.96093 0.69091 0.53203 0.0
C783 C 0.95661 0.63898 0.50898 0.0
C784 C 0.96027 0.65576 0.52343 0.0
C785 C 0.97396 0.70482 0.5649 0.0
C786 C 0.96875 0.68787 0.55073 0.0
H787 H 0.9797 0.60033 0.48875 0.0
H788 H 0.9859 0.62897 0.51173 0.0
H789 H 0.95084 0.67771 0.50415 0.0
H790 H 0.9584 0.74952 0.58003 0.0
H791 H 0.94924 0.72145 0.55732 0.0
C792 C 0.72399 0.86663 0.23622 0.0
C793 C 0.73191 0.84942 0.22841 0.0
C794 C 0.73473 0.88499 0.23582 0.0
C795 C 0.78594 0.90705 0.2304 0.0
H796 H 0.76004 0.95553 0.22563 0.0
C797 C 0.82998 0.98211 0.22584 0.0
C798 C 0.82524 0.99613 0.2406 0.0
C799 C 0.81742 0.96516 0.22175 0.0
C800 C 0.76741 0.94207 0.22695 0.0
H801 H 0.75738 0.83823 0.21382 0.0
H802 H 0.77556 0.87026 0.21213 0.0
H803 H 0.74054 0.92369 0.22323 0.0
H804 H 0.80298 0.00403 0.26167 0.0
H805 H 0.78086 0.97446 0.25424 0.0
H806 H 0.81281 0.92547 0.23384 0.0
C807 C 0.76127 0.86954 0.21911 0.0
C808 C 0.75627 0.92384 0.22571 0.0
C809 C 0.75067 0.85114 0.2198 0.0
C810 C 0.80709 0.99345 0.2503 0.0
C811 C 0.79439 0.97659 0.246 0.0
C812 C 0.79706 0.92521 0.23131 0.0
C813 C 0.75356 0.88668 0.22733 0.0
C814 C 0.76539 0.90609 0.22764 0.0
C815 C 0.79975 0.96203 0.23212 0.0
C816 C 0.78789 0.94288 0.22977 0.0
H817 H 0.70944 0.86596 0.24265 0.0
H818 H 0.72837 0.89778 0.24253 0.0
H819 H 0.79347 0.89381 0.23241 0.0
H820 H 0.84383 0.98373 0.21806 0.0
H821 H 0.82177 0.9542 0.21086 0.0
C822 C 0.75327 0.22442 0.27032 0.0
C823 C 0.7415 0.22654 0.28712 0.0
C824 C 0.7659 0.20911 0.26855 0.0
C825 C 0.77143 0.15976 0.28674 0.0
H826 H 0.82551 0.16703 0.26908 0.0
C827 C 0.82412 0.09945 0.29534 0.0
C828 C 0.8359 0.09467 0.27918 0.0
C829 C 0.81394 0.11649 0.29577 0.0
C830 C 0.81037 0.16476 0.27384 0.0
H831 H 0.73377 0.21425 0.3152 0.0
H832 H 0.75593 0.18796 0.31227 0.0
H833 H 0.80495 0.19515 0.27044 0.0
H834 H 0.84693 0.10446 0.25111 0.0
H835 H 0.82889 0.1343 0.25178 0.0
H836 H 0.77665 0.12952 0.29017 0.0
C837 C 0.75534 0.19799 0.3004 0.0
C838 C 0.79862 0.18083 0.2746 0.0
C839 C 0.74282 0.21323 0.30218 0.0
C840 C 0.83793 0.10775 0.26376 0.0
C841 C 0.82766 0.12485 0.26417 0.0
C842 C 0.7831 0.14379 0.28597 0.0
C843 C 0.76682 0.19557 0.28348 0.0
C844 C 0.77913 0.17852 0.28138 0.0
C845 C 0.8152 0.12913 0.27999 0.0
C846 C 0.80279 0.14615 0.27983 0.0
H847 H 0.75265 0.23453 0.25853 0.0
H848 H 0.77455 0.20755 0.25531 0.0
H849 H 0.75631 0.1574 0.29158 0.0
H850 H 0.82241 0.08981 0.30756 0.0
H851 H 0.80483 0.11962 0.30838 0.0
C852 C 0.37605 0.06857 0.95057 0.0
C853 C 0.39533 0.06267 0.94903 0.0
C854 C 0.36073 0.0553 0.95651 0.0
C855 C 0.35158 0.01203 0.9856 0.0
H856 H 0.30259 0.00256 0.95615 0.0
C857 C 0.29495 0.94809 0.00252 0.0
C858 C 0.27484 0.95105 0.00083 0.0
C859 C 0.30922 0.96224 0.99624 0.0
C860 C 0.31604 0.00526 0.96473 0.0
H861 H 0.41383 0.03847 0.95255 0.0
H862 H 0.38708 0.01534 0.96308 0.0
H863 H 0.32821 0.02658 0.94495 0.0
H864 H 0.25388 0.97127 0.99149 0.0
H865 H 0.27882 0.99627 0.98106 0.0
H866 H 0.33948 0.99114 0.00561 0.0
C867 C 0.38381 0.03015 0.9596 0.0
C868 C 0.33071 0.01895 0.95825 0.0
C869 C 0.39904 0.0433 0.95341 0.0
C870 C 0.26928 0.96852 0.99285 0.0
C871 C 0.28357 0.98279 0.98678 0.0
C872 C 0.33686 -0.00144 0.99222 0.0
C873 C 0.36457 0.03607 0.96131 0.0
C874 C 0.34868 0.02225 0.96851 0.0
C875 C 0.30372 0.9798 0.98836 0.0
C876 C 0.319 0.99482 0.98174 0.0
H877 H 0.37287 0.08344 0.94724 0.0
H878 H 0.346 0.0602 0.95781 0.0
H879 H 0.36522 0.01457 0.99392 0.0
H880 H 0.2997 0.93471 0.00845 0.0
H881 H 0.32457 0.95924 0.99731 0.0
C882 C 0.24083 0.33745 0.28193 0.0
C883 C 0.25101 0.3372 0.29993 0.0
C884 C 0.22809 0.35219 0.2787 0.0
C885 C 0.22045 0.40305 0.29498 0.0
H886 H 0.16829 0.39297 0.27173 0.0
C887 C 0.16715 0.46372 0.29507 0.0
C888 C 0.15614 0.46584 0.27791 0.0
C889 C 0.17762 0.44712 0.29713 0.0
C890 C 0.18292 0.39602 0.27801 0.0
H891 H 0.25565 0.35199 0.32872 0.0
H892 H 0.23336 0.37758 0.32314 0.0
H893 H 0.18865 0.36534 0.27652 0.0
H894 H 0.14697 0.45195 0.24966 0.0
H895 H 0.16568 0.42289 0.25312 0.0
H896 H 0.21502 0.4336 0.29635 0.0
C897 C 0.23528 0.36645 0.3115 0.0
C898 C 0.19453 0.38022 0.28078 0.0
C899 C 0.24789 0.35169 0.31477 0.0
C900 C 0.15536 0.4507 0.26304 0.0
C901 C 0.166 0.43406 0.26506 0.0
C902 C 0.20896 0.41877 0.29213 0.0
C903 C 0.22548 0.36702 0.29335 0.0
C904 C 0.21329 0.3836 0.28957 0.0
C905 C 0.17752 0.43228 0.28201 0.0
C906 C 0.18994 0.41544 0.28391 0.0
H907 H 0.24286 0.32635 0.2703 0.0
H908 H 0.22077 0.35234 0.26455 0.0
H909 H 0.23504 0.40614 0.30137 0.0
H910 H 0.16785 0.47499 0.30693 0.0
H911 H 0.18592 0.44598 0.31059 0.0
C912 C 0.11315 0.98335 0.43371 0.0
C913 C 0.09409 0.98989 0.43356 0.0
C914 C 0.12948 0.99676 0.43765 0.0
C915 C 0.14474 0.05074 0.44119 0.0
H916 H 0.18604 0.03478 0.47505 0.0
C917 C 0.19825 0.10567 0.48568 0.0
C918 C 0.21838 0.10252 0.4846 0.0
C919 C 0.18414 0.09164 0.47744 0.0
C920 C 0.17471 0.03934 0.4654 0.0
H921 H 0.07703 0.01539 0.43763 0.0
H922 H 0.10533 0.03869 0.44503 0.0
H923 H 0.15933 0.01063 0.46414 0.0
H924 H 0.23954 0.08217 0.47421 0.0
H925 H 0.21471 0.05737 0.46018 0.0
H926 H 0.15977 0.07969 0.44327 0.0
C927 C 0.10787 0.02339 0.44149 0.0
C928 C 0.15945 0.02551 0.45907 0.0
C929 C 0.09162 0.01003 0.43733 0.0
C930 C 0.22413 0.08501 0.47521 0.0
C931 C 0.20997 0.07081 0.46725 0.0
C932 C 0.15984 0.06459 0.44775 0.0
C933 C 0.12701 0.01693 0.44177 0.0
C934 C 0.14412 0.03113 0.44712 0.0
C935 C 0.18988 0.07407 0.46824 0.0
C936 C 0.17479 0.05906 0.46011 0.0
H937 H 0.11541 0.96788 0.43071 0.0
H938 H 0.14402 0.99133 0.43747 0.0
H939 H 0.13344 0.05547 0.43163 0.0
H940 H 0.19338 0.11905 0.49276 0.0
H941 H 0.1687 0.09437 0.47854 0.0
C942 C 0.74608 0.1895 0.71862 0.0
C943 C 0.75725 0.19898 0.73424 0.0
C944 C 0.73468 0.17186 0.72138 0.0
C945 C 0.71231 0.14078 0.7599 0.0
H946 H 0.71253 0.09903 0.71895 0.0
C947 C 0.67731 0.06233 0.77127 0.0
C948 C 0.66443 0.05442 0.75619 0.0
C949 C 0.68981 0.07924 0.76838 0.0
C950 C 0.71227 0.1106 0.73045 0.0
H951 H 0.76461 0.19782 0.76519 0.0
H952 H 0.74513 0.16681 0.76989 0.0
H953 H 0.73117 0.13066 0.71446 0.0
H954 H 0.65528 0.05745 0.72595 0.0
H955 H 0.67715 0.08689 0.72094 0.0
H956 H 0.69348 0.12065 0.77592 0.0
C957 C 0.74503 0.17306 0.75554 0.0
C958 C 0.72285 0.12873 0.72786 0.0
C959 C 0.75636 0.19073 0.7528 0.0
C960 C 0.66498 0.06321 0.73789 0.0
C961 C 0.67756 0.08003 0.73497 0.0
C962 C 0.70183 0.12261 0.76253 0.0
C963 C 0.73424 0.1633 0.7398 0.0
C964 C 0.72292 0.14406 0.74252 0.0
C965 C 0.68978 0.08846 0.75032 0.0
C966 C 0.70165 0.10737 0.74781 0.0
H967 H 0.74658 0.19541 0.7041 0.0
H968 H 0.72628 0.16486 0.70904 0.0
H969 H 0.71183 0.15236 0.77136 0.0
H970 H 0.67729 0.05588 0.78552 0.0
H971 H 0.69929 0.08528 0.78037 0.0
C972 C 0.36997 0.97063 0.57039 0.0
C973 C 0.38825 0.97432 0.58008 0.0
C974 C 0.35909 0.98632 0.56534 0.0
C975 C 0.35452 0.04005 0.57527 0.0
H976 H 0.33276 0.03739 0.52239 0.0
C977 C 0.30687 0.09944 0.54499 0.0
C978 C 0.3098 0.10402 0.52524 0.0
C979 C 0.3165 0.08417 0.553 0.0
C980 C 0.33887 0.03842 0.53716 0.0
H981 H 0.40943 0.99744 0.592 0.0
H982 H 0.3905 0.02464 0.5833 0.0
H983 H 0.34841 0.00917 0.53429 0.0
H984 H 0.32601 0.09701 0.49874 0.0
H985 H 0.34302 0.07071 0.51277 0.0
H986 H 0.3454 0.06956 0.57789 0.0
C987 C 0.38435 0.00965 0.57993 0.0
C988 C 0.34758 0.02212 0.54408 0.0
C989 C 0.39521 0.99401 0.58494 0.0
C990 C 0.3233 0.09375 0.51397 0.0
C991 C 0.33293 0.07855 0.52196 0.0
C992 C 0.34576 0.05637 0.56834 0.0
C993 C 0.36629 0.00602 0.56986 0.0
C994 C 0.35569 0.02281 0.56314 0.0
C995 C 0.32924 0.07323 0.54138 0.0
C996 C 0.33807 0.05581 0.54911 0.0
H997 H 0.36415 0.95562 0.56659 0.0
H998 H 0.3451 0.98304 0.55778 0.0
H999 H 0.36047 0.04097 0.5901 0.0
H1000 H 0.29651 0.10706 0.55404 0.0
H1001 H 0.31332 0.0804 0.56801 0.0
C1002 C 0.59469 0.56384 0.59405 0.0
C1003 C 0.59888 0.58203 0.58517 0.0
C1004 C 0.60599 0.54789 0.58977 0.0
C1005 C 0.63125 0.52632 0.54956 0.0
H1006 H 0.65873 0.49668 0.58689 0.0
C1007 C 0.68224 0.46773 0.52311 0.0
C1008 C 0.68407 0.45097 0.53409 0.0
C1009 C 0.67157 0.48314 0.53035 0.0
C1010 C 0.65083 0.50455 0.57631 0.0
H1011 H 0.6191 0.59788 0.56574 0.0
H1012 H 0.63819 0.56964 0.55761 0.0
H1013 H 0.64139 0.52524 0.59855 0.0
H1014 H 0.67591 0.43705 0.5612 0.0
H1015 H 0.6564 0.46373 0.57359 0.0
H1016 H 0.63973 0.50549 0.52738 0.0
C1017 C 0.62617 0.56794 0.56795 0.0
C1018 C 0.64109 0.52098 0.583 0.0
C1019 C 0.61515 0.58403 0.57252 0.0
C1020 C 0.67473 0.44981 0.55242 0.0
C1021 C 0.6637 0.46517 0.55957 0.0
C1022 C 0.64058 0.50973 0.54292 0.0
C1023 C 0.62144 0.54968 0.57628 0.0
C1024 C 0.63153 0.53214 0.56959 0.0
C1025 C 0.66207 0.48209 0.54863 0.0
C1026 C 0.65083 0.49882 0.55613 0.0
H1027 H 0.5821 0.56155 0.60359 0.0
H1028 H 0.60202 0.53386 0.59622 0.0
H1029 H 0.6236 0.53452 0.53903 0.0
H1030 H 0.6895 0.46923 0.50906 0.0
H1031 H 0.67117 0.49608 0.52171 0.0
C1032 C 0.70082 0.29353 0.33158 0.0
C1033 C 0.70595 0.27387 0.32961 0.0
C1034 C 0.69855 0.30262 0.35022 0.0
C1035 C 0.71575 0.30038 0.40079 0.0
H1036 H 0.67362 0.33396 0.41368 0.0
C1037 C 0.7134 0.34027 0.47669 0.0
C1038 C 0.70936 0.36025 0.47683 0.0
C1039 C 0.70967 0.32795 0.45986 0.0
C1040 C 0.68555 0.32473 0.41027 0.0
H1041 H 0.71172 0.24805 0.3457 0.0
H1042 H 0.70816 0.26406 0.37817 0.0
H1043 H 0.67366 0.31608 0.38163 0.0
H1044 H 0.69732 0.38273 0.45976 0.0
H1045 H 0.69138 0.36145 0.43025 0.0
H1046 H 0.72815 0.3095 0.42891 0.0
C1047 C 0.70612 0.27248 0.36529 0.0
C1048 C 0.68553 0.31449 0.39194 0.0
C1049 C 0.70825 0.26336 0.34669 0.0
C1050 C 0.70058 0.36739 0.46014 0.0
C1051 C 0.69707 0.35513 0.44321 0.0
C1052 C 0.71587 0.31074 0.419 0.0
C1053 C 0.70147 0.29225 0.36725 0.0
C1054 C 0.70073 0.30234 0.38699 0.0
C1055 C 0.70206 0.3354 0.44269 0.0
C1056 C 0.70087 0.32319 0.42392 0.0
H1057 H 0.6991 0.30208 0.31873 0.0
H1058 H 0.69516 0.31795 0.35131 0.0
H1059 H 0.72781 0.29135 0.39726 0.0
H1060 H 0.71994 0.33426 0.48942 0.0
H1061 H 0.71323 0.3127 0.46014 0.0
C1062 C 0.47784 0.08187 0.91666 0.0
C1063 C 0.45772 0.07766 0.9122 0.0
C1064 C 0.49222 0.07549 0.90383 0.0
C1065 C 0.4996 0.05757 0.85232 0.0
H1066 H 0.54793 0.04057 0.87396 0.0
C1067 C 0.5663 0.04364 0.80353 0.0
C1068 C 0.57767 0.028 0.80789 0.0
C1069 C 0.55156 0.04927 0.81632 0.0
C1070 C 0.53443 0.04503 0.86765 0.0
H1071 H 0.43697 0.06352 0.89062 0.0
H1072 H 0.46205 0.05166 0.86863 0.0
H1073 H 0.52213 0.05051 0.89603 0.0
H1074 H 0.58242 0.00583 0.82895 0.0
H1075 H 0.55627 0.01524 0.85103 0.0
H1076 H 0.51158 0.05136 0.82393 0.0
C1077 C 0.46673 0.06028 0.88186 0.0
C1078 C 0.51974 0.05103 0.88033 0.0
C1079 C 0.45233 0.06686 0.8946 0.0
C1080 C 0.57398 0.01804 0.82528 0.0
C1081 C 0.55905 0.02351 0.83797 0.0
C1082 C 0.5142 0.05135 0.83964 0.0
C1083 C 0.48685 0.06451 0.88633 0.0
C1084 C 0.50222 0.05755 0.87282 0.0
C1085 C 0.54767 0.0392 0.83364 0.0
C1086 C 0.53187 0.04517 0.84715 0.0
H1087 H 0.48255 0.08985 0.93023 0.0
H1088 H 0.50756 0.07928 0.90761 0.0
H1089 H 0.48639 0.06268 0.84602 0.0
H1090 H 0.56889 0.05171 0.79031 0.0
H1091 H 0.54337 0.06168 0.81271 0.0
C1092 C 0.30013 0.28719 0.35201 0.0
C1093 C 0.28181 0.29027 0.34343 0.0
C1094 C 0.30103 0.27725 0.36944 0.0
C1095 C 0.27407 0.26455 0.41361 0.0
H1096 H 0.30197 0.21684 0.41188 0.0
C1097 C 0.25994 0.20477 0.4697 0.0
C1098 C 0.27491 0.19258 0.47424 0.0
C1099 C 0.26297 0.21898 0.45567 0.0
C1100 C 0.29451 0.23036 0.41288 0.0
H1101 H 0.2501 0.28549 0.34679 0.0
H1102 H 0.25179 0.26879 0.37764 0.0
H1103 H 0.30318 0.23772 0.38372 0.0
H1104 H 0.30521 0.18649 0.46847 0.0
H1105 H 0.31081 0.21189 0.44448 0.0
H1106 H 0.26556 0.25749 0.44279 0.0
C1107 C 0.26538 0.27405 0.3707 0.0
C1108 C 0.29512 0.24223 0.39666 0.0
C1109 C 0.26445 0.28367 0.35307 0.0
C1110 C 0.29332 0.19555 0.46514 0.0
C1111 C 0.29647 0.21002 0.45128 0.0
C1112 C 0.27376 0.25289 0.42999 0.0
C1113 C 0.28367 0.27055 0.37887 0.0
C1114 C 0.28455 0.25916 0.39675 0.0
C1115 C 0.28116 0.2216 0.44603 0.0
C1116 C 0.28356 0.23536 0.42966 0.0
H1117 H 0.31382 0.2925 0.34531 0.0
H1118 H 0.3153 0.27483 0.3756 0.0
H1119 H 0.26601 0.2777 0.41405 0.0
H1120 H 0.24554 0.20279 0.47636 0.0
H1121 H 0.25069 0.2273 0.45182 0.0
C1122 C 0.51957 0.46992 0.92124 0.0
C1123 C 0.53898 0.46778 0.91506 0.0
C1124 C 0.50549 0.47561 0.90813 0.0
C1125 C 0.50157 0.50091 0.8615 0.0
H1126 H 0.44656 0.48161 0.8646 0.0
C1127 C 0.44234 0.51794 0.80498 0.0
C1128 C 0.42439 0.52367 0.81267 0.0
C1129 C 0.45651 0.5111 0.81728 0.0
C1130 C 0.46186 0.48722 0.8637 0.0
H1131 H 0.55875 0.46915 0.89022 0.0
H1132 H 0.53401 0.47857 0.86707 0.0
H1133 H 0.47083 0.46828 0.88571 0.0
H1134 H 0.40733 0.52693 0.83934 0.0
H1135 H 0.43211 0.51479 0.86083 0.0
H1136 H 0.49253 0.51962 0.83923 0.0
C1137 C 0.52977 0.47635 0.88218 0.0
C1138 C 0.47577 0.47962 0.87578 0.0
C1139 C 0.54391 0.47084 0.89536 0.0
C1140 C 0.42102 0.52266 0.83298 0.0
C1141 C 0.43512 0.51559 0.84525 0.0
C1142 C 0.48768 0.50835 0.84927 0.0
C1143 C 0.51047 0.47914 0.88849 0.0
C1144 C 0.49579 0.48647 0.87494 0.0
C1145 C 0.45295 0.50965 0.83749 0.0
C1146 C 0.46769 0.50168 0.85036 0.0
H1147 H 0.51545 0.46799 0.93643 0.0
H1148 H 0.49089 0.47792 0.91361 0.0
H1149 H 0.51678 0.50681 0.8607 0.0
H1150 H 0.4454 0.51858 0.7894 0.0
H1151 H 0.47009 0.50651 0.81091 0.0
C1152 C 0.70833 0.78761 0.17871 0.0
C1153 C 0.71258 0.78235 0.19784 0.0
C1154 C 0.71175 0.77489 0.16261 0.0
C1155 C 0.72276 0.72346 0.14775 0.0
H1156 H 0.74326 0.74913 0.10153 0.0
C1157 C 0.75389 0.68303 0.07795 0.0
C1158 C 0.74566 0.68837 0.06017 0.0
C1159 C 0.74996 0.69334 0.09566 0.0
C1160 C 0.73751 0.74178 0.11433 0.0
H1161 H 0.72313 0.75956 0.2154 0.0
H1162 H 0.72971 0.73736 0.18715 0.0
H1163 H 0.73584 0.76911 0.13077 0.0
H1164 H 0.72681 0.70858 0.04702 0.0
H1165 H 0.72034 0.72668 0.07773 0.0
H1166 H 0.72494 0.69602 0.1311 0.0
C1167 C 0.72337 0.75116 0.18455 0.0
C1168 C 0.73309 0.7532 0.13105 0.0
C1169 C 0.71966 0.76383 0.20073 0.0
C1170 C 0.73339 0.70409 0.06045 0.0
C1171 C 0.72973 0.71452 0.07801 0.0
C1172 C 0.72744 0.71197 0.13102 0.0
C1173 C 0.71985 0.75674 0.16526 0.0
C1174 C 0.7253 0.74425 0.14786 0.0
C1175 C 0.73804 0.70933 0.09575 0.0
C1176 C 0.73453 0.72109 0.11407 0.0
H1177 H 0.70265 0.80176 0.17619 0.0
H1178 H 0.70829 0.77944 0.14804 0.0
H1179 H 0.71669 0.71606 0.16038 0.0
H1180 H 0.76335 0.67092 0.07818 0.0
H1181 H 0.75657 0.68912 0.10919 0.0
C1182 C 0.04037 0.09325 0.13364 0.0
C1183 C 0.0462 0.11167 0.12601 0.0
C1184 C 0.02574 0.09157 0.14779 0.0
C1185 C 0.98135 0.11279 0.16439 0.0
H1186 H 0.98593 0.07628 0.20601 0.0
C1187 C 0.91762 0.08265 0.21626 0.0
C1188 C 0.91583 0.06183 0.21548 0.0
C1189 C 0.9336 0.0929 0.20729 0.0
C1190 C 0.9845 0.08668 0.1946 0.0
H1191 H 0.04117 0.14289 0.12761 0.0
H1192 H 0.01496 0.13976 0.1522 0.0
H1193 H 0.01519 0.08754 0.18786 0.0
H1194 H 0.92895 0.0355 0.20406 0.0
H1195 H 0.95669 0.05332 0.18876 0.0
H1196 H 0.95036 0.11116 0.17075 0.0
C1197 C 0.02205 0.12671 0.14717 0.0
C1198 C 0.0012 0.09311 0.18422 0.0
C1199 C 0.03699 0.12846 0.13308 0.0
C1200 C 0.92989 0.05152 0.20503 0.0
C1201 C 0.94586 0.0617 0.19636 0.0
C1202 C 0.96456 0.1064 0.17491 0.0
C1203 C 0.01628 0.1082 0.1546 0.0
C1204 C -0.00036 0.10549 0.16843 0.0
C1205 C 0.94809 0.08243 0.19774 0.0
C1206 C 0.96594 0.09262 0.18949 0.0
H1207 H 0.04655 0.07985 0.12815 0.0
H1208 H 0.02127 0.07702 0.15286 0.0
H1209 H 0.97974 0.1223 0.15223 0.0
H1210 H 0.90699 0.09099 0.22419 0.0
H1211 H 0.93502 0.10892 0.2084 0.0
C1212 C 0.26836 0.76387 0.17325 0.0
C1213 C 0.27709 0.76805 0.19188 0.0
C1214 C 0.2633 0.77918 0.1617 0.0
C1215 C 0.27697 0.83124 0.15356 0.0
H1216 H 0.22976 0.82651 0.12102 0.0
C1217 C 0.23647 0.87501 0.08902 0.0
C1218 C 0.25257 0.87759 0.07628 0.0
C1219 C 0.23813 0.86452 0.1061 0.0
C1220 C 0.24284 0.82823 0.13025 0.0
H1221 H 0.28676 0.79157 0.21327 0.0
H1222 H 0.27814 0.81834 0.19294 0.0
H1223 H 0.23435 0.80204 0.14547 0.0
H1224 H 0.28329 0.87217 0.07192 0.0
H1225 H 0.28618 0.85404 0.1016 0.0
H1226 H 0.28569 0.85715 0.13802 0.0
C1227 C 0.27538 0.8032 0.18724 0.0
C1228 C 0.24557 0.81411 0.14408 0.0
C1229 C 0.28037 0.78788 0.19883 0.0
C1230 C 0.27058 0.87034 0.08139 0.0
C1231 C 0.27229 0.86008 0.09849 0.0
C1232 C 0.27429 0.8453 0.13968 0.0
C1233 C 0.26692 0.79902 0.16849 0.0
C1234 C 0.26288 0.81521 0.15554 0.0
C1235 C 0.25599 0.85669 0.11082 0.0
C1236 C 0.25742 0.84366 0.12755 0.0
H1237 H 0.2659 0.74877 0.16734 0.0
H1238 H 0.25712 0.7755 0.14717 0.0
H1239 H 0.29051 0.83244 0.16211 0.0
H1240 H 0.22241 0.88044 0.08545 0.0
H1241 H 0.22537 0.86222 0.11542 0.0
C1242 C 0.94455 0.43107 0.12674 0.0
C1243 C 0.93719 0.44693 0.11716 0.0
C1244 C 0.95926 0.43456 0.14123 0.0
C1245 C 0.98218 0.47356 0.17523 0.0
H1246 H 0.03089 0.44821 0.1673 0.0
C1247 C 0.0551 0.51087 0.20252 0.0
C1248 C 0.06798 0.49987 0.21288 0.0
C1249 C 0.03881 0.5015 0.19258 0.0
C1250 C 0.01727 0.45513 0.16991 0.0
H1251 H 0.93981 0.47892 0.11536 0.0
H1252 H 0.96468 0.4849 0.14086 0.0
H1253 H 0.00154 0.43657 0.14773 0.0
H1254 H 0.07443 0.47027 0.22015 0.0
H1255 H 0.04575 0.45376 0.20242 0.0
H1256 H -0.00207 0.49259 0.1968 0.0
C1257 C 0.95897 0.46979 0.13734 0.0
C1258 C 0.00049 0.44846 0.15878 0.0
C1259 C 0.94456 0.46633 0.12276 0.0
C1260 C 0.06473 0.47913 0.21229 0.0
C1261 C 0.04835 0.46969 0.20221 0.0
C1262 C -0.00115 0.48019 0.18629 0.0
C1263 C 0.96663 0.45397 0.14657 0.0
C1264 C 0.98303 0.45813 0.16086 0.0
C1265 C 0.03497 0.4809 0.19272 0.0
C1266 C 0.01675 0.47156 0.18321 0.0
H1267 H 0.93912 0.41595 0.12289 0.0
H1268 H 0.96493 0.42212 0.14818 0.0
H1269 H 0.9688 0.48104 0.17734 0.0
H1270 H 0.05726 0.52685 0.20249 0.0
H1271 H 0.02901 0.51046 0.18496 0.0
C1272 C 0.33319 0.75907 0.24534 0.0
C1273 C 0.32585 0.74069 0.23674 0.0
C1274 C 0.35089 0.76079 0.25597 0.0
C1275 C 0.381 0.73271 0.28619 0.0
H1276 H 0.4225 0.77389 0.27802 0.0
C1277 C 0.45031 0.74006 0.33512 0.0
C1278 C 0.45749 0.75934 0.34121 0.0
C1279 C 0.43634 0.73692 0.31999 0.0
C1280 C 0.41098 0.76243 0.28065 0.0
H1281 H 0.33187 0.70986 0.23202 0.0
H1282 H 0.36234 0.71281 0.25128 0.0
H1283 H 0.39364 0.77048 0.25633 0.0
H1284 H 0.4561 0.79044 0.33589 0.0
H1285 H 0.4312 0.78508 0.31012 0.0
H1286 H 0.39755 0.72518 0.31104 0.0
C1287 C 0.35432 0.72582 0.2497 0.0
C1288 C 0.39453 0.76045 0.26816 0.0
C1289 C 0.3368 0.72415 0.23881 0.0
C1290 C 0.45091 0.77539 0.33144 0.0
C1291 C 0.43669 0.77228 0.31655 0.0
C1292 C 0.39725 0.73487 0.29889 0.0
C1293 C 0.36145 0.74413 0.25845 0.0
C1294 C 0.37936 0.74566 0.27092 0.0
C1295 C 0.42895 0.75302 0.31085 0.0
C1296 C 0.4124 0.74987 0.2964 0.0
H1297 H 0.32503 0.77206 0.24431 0.0
H1298 H 0.35601 0.77502 0.26279 0.0
H1299 H 0.36935 0.72132 0.28874 0.0
H1300 H 0.45529 0.72739 0.34225 0.0
H1301 H 0.43111 0.72186 0.31567 0.0
C1302 C 0.92121 0.39255 0.05643 0.0
C1303 C 0.91941 0.41246 0.05251 0.0
C1304 C 0.9273 0.37937 0.04169 0.0
C1305 C 0.95687 0.37852 0.99726 0.0
H1306 H 0.93016 0.32669 0.98576 0.0
C1307 C 0.97879 0.32888 0.93125 0.0
C1308 C 0.97791 0.30837 0.93343 0.0
C1309 C 0.97131 0.34137 0.94581 0.0
C1310 C 0.93798 0.34099 0.98897 0.0
H1311 H 0.92246 0.4342 0.03016 0.0
H1312 H 0.93318 0.41119 0.00445 0.0
H1313 H 0.91729 0.34865 0.01123 0.0
H1314 H 0.96885 0.28488 0.95278 0.0
H1315 H 0.95642 0.30671 0.97846 0.0
H1316 H 0.97785 0.37085 0.9755 0.0
C1317 C 0.92981 0.40578 0.01888 0.0
C1318 C 0.93053 0.35357 0.0035 0.0
C1319 C 0.9235 0.41888 0.03352 0.0
C1320 C 0.96962 0.30063 0.95059 0.0
C1321 C 0.96236 0.31314 0.96527 0.0
C1322 C 0.96446 0.36588 0.98293 0.0
C1323 C 0.93198 0.38597 0.02289 0.0
C1324 C 0.93985 0.37249 0.00767 0.0
C1325 C 0.96301 0.33366 0.96302 0.0
C1326 C 0.95506 0.34699 0.97851 0.0
H1327 H 0.91813 0.38727 0.07096 0.0
H1328 H 0.92896 0.36418 0.04515 0.0
H1329 H 0.96451 0.39293 0.00043 0.0
H1330 H 0.98494 0.33528 0.91812 0.0
H1331 H 0.97176 0.35704 0.94339 0.0
C1332 C 0.6727 0.81849 0.26995 0.0
C1333 C 0.68394 0.80322 0.2628 0.0
C1334 C 0.6593 0.81537 0.28513 0.0
C1335 C 0.62832 0.77668 0.30799 0.0
H1336 H 0.62194 0.81839 0.34791 0.0
C1337 C 0.56481 0.77193 0.36421 0.0
C1338 C 0.55422 0.7889 0.3656 0.0
C1339 C 0.5831 0.77242 0.35484 0.0
C1340 C 0.62355 0.80661 0.33687 0.0
H1341 H 0.6899 0.77262 0.26611 0.0
H1342 H 0.66612 0.76707 0.2926 0.0
H1343 H 0.64963 0.82131 0.32531 0.0
H1344 H 0.55484 0.81989 0.359 0.0
H1345 H 0.58659 0.82074 0.34269 0.0
H1346 H 0.60184 0.7623 0.31915 0.0
C1347 C 0.66781 0.78149 0.28637 0.0
C1348 C 0.63939 0.80827 0.32394 0.0
C1349 C 0.68136 0.78465 0.27118 0.0
C1350 C 0.56261 0.80655 0.35815 0.0
C1351 C 0.5809 0.80707 0.34891 0.0
C1352 C 0.61244 0.77501 0.32095 0.0
C1353 C 0.65666 0.79685 0.2935 0.0
C1354 C 0.64161 0.79361 0.30899 0.0
C1355 C 0.59119 0.78994 0.34684 0.0
C1356 C 0.60958 0.79024 0.33516 0.0
H1357 H 0.67391 0.83283 0.26353 0.0
H1358 H 0.6506 0.82737 0.28995 0.0
H1359 H 0.62957 0.76521 0.29654 0.0
H1360 H 0.55873 0.7581 0.36984 0.0
H1361 H 0.59078 0.75904 0.3536 0.0
C1362 C 0.04483 0.1333 0.05263 0.0
C1363 C 0.06452 0.13331 0.05886 0.0
C1364 C 0.04 0.14331 0.0361 0.0
C1365 C 0.06033 0.16495 0.99088 0.0
H1366 H 0.01278 0.19288 0.99393 0.0
C1367 C 0.0341 0.21825 0.93255 0.0
C1368 C 0.01377 0.21633 0.92833 0.0
C1369 C 0.04189 0.20722 0.9472 0.0
C1370 C 0.02601 0.18502 0.99279 0.0
H1371 H 0.09467 0.14345 0.05243 0.0
H1372 H 0.08619 0.16136 0.02351 0.0
H1373 H 0.02352 0.17621 0.02241 0.0
H1374 H 0.98595 0.20033 0.93513 0.0
H1375 H -0.00049 0.18119 0.96048 0.0
H1376 H 0.06278 0.17416 0.96114 0.0
C1377 C 0.07451 0.15341 0.03137 0.0
C1378 C 0.03216 0.17542 0.0091 0.0
C1379 C 0.07937 0.14325 0.04794 0.0
C1380 C 0.00163 0.20235 0.93816 0.0
C1381 C 0.00937 0.19143 0.95276 0.0
C1382 C 0.05421 0.17473 0.97451 0.0
C1383 C 0.05473 0.15371 0.02539 0.0
C1384 C 0.04917 0.16495 0.00827 0.0
C1385 C 0.02944 0.19419 0.95786 0.0
C1386 C 0.03678 0.18454 0.97523 0.0
H1387 H 0.03311 0.12533 0.06044 0.0
H1388 H 0.02468 0.14277 0.03161 0.0
H1389 H 0.07346 0.15694 0.98973 0.0
H1390 H 0.04382 0.2289 0.9252 0.0
H1391 H 0.05742 0.2096 0.95085 0.0
C1392 C 0.31807 0.2853 0.27363 0.0
C1393 C 0.31045 0.30377 0.27727 0.0
C1394 C 0.33433 0.28352 0.26141 0.0
C1395 C 0.37653 0.31364 0.24126 0.0
H1396 H 0.38135 0.267 0.20699 0.0
C1397 C 0.43584 0.30773 0.18115 0.0
C1398 C 0.44519 0.28999 0.17955 0.0
C1399 C 0.42004 0.30962 0.19394 0.0
C1400 C 0.38026 0.28001 0.21666 0.0
H1401 H 0.31367 0.33477 0.27049 0.0
H1402 H 0.34144 0.33148 0.24852 0.0
H1403 H 0.35161 0.26983 0.22648 0.0
H1404 H 0.44568 0.26052 0.19052 0.0
H1405 H 0.41794 0.26384 0.21276 0.0
H1406 H 0.40505 0.32396 0.23103 0.0
C1407 C 0.33517 0.31846 0.25551 0.0
C1408 C 0.36325 0.28164 0.22783 0.0
C1409 C 0.31903 0.32027 0.26786 0.0
C1410 C 0.43879 0.27438 0.19142 0.0
C1411 C 0.42284 0.27621 0.20404 0.0
C1412 C 0.39344 0.31209 0.22994 0.0
C1413 C 0.34324 0.30013 0.25241 0.0
C1414 C 0.36118 0.29848 0.24028 0.0
C1415 C 0.41317 0.29375 0.20522 0.0
C1416 C 0.39547 0.29525 0.21757 0.0
H1417 H 0.31164 0.27224 0.28044 0.0
H1418 H 0.34023 0.2692 0.25948 0.0
H1419 H 0.37561 0.32663 0.25099 0.0
H1420 H 0.44046 0.32003 0.17224 0.0
H1421 H 0.41276 0.32327 0.19451 0.0
C1422 C 0.5507 0.41445 0.97015 0.0
C1423 C 0.5592 0.43366 0.97467 0.0
C1424 C 0.54553 0.40175 0.98518 0.0
C1425 C 0.55359 0.39409 0.0381 0.0
H1426 H 0.50228 0.36508 0.0338 0.0
C1427 C 0.52394 0.33604 0.09318 0.0
C1428 C 0.50379 0.33584 0.09765 0.0
C1429 C 0.53206 0.34844 0.07896 0.0
C1430 C 0.5166 0.37319 0.03528 0.0
H1431 H 0.56883 0.45466 -0.00153 0.0
H1432 H 0.55979 0.43255 0.02462 0.0
H1433 H 0.51416 0.38508 0.00694 0.0
H1434 H 0.47666 0.34939 0.09179 0.0
H1435 H 0.49086 0.37117 0.06736 0.0
H1436 H 0.55574 0.38249 0.06672 0.0
C1437 C 0.55748 0.42714 0.00949 0.0
C1438 C 0.52352 0.38442 0.01977 0.0
C1439 C 0.56264 0.43982 0.99449 0.0
C1440 C 0.49219 0.34904 0.08851 0.0
C1441 C 0.50029 0.36142 0.0744 0.0
C1442 C 0.54666 0.38279 0.05364 0.0
C1443 C 0.54871 0.40803 0.00502 0.0
C1444 C 0.54201 0.39514 0.02106 0.0
C1445 C 0.52015 0.36084 0.06905 0.0
C1446 C 0.52798 0.37243 0.05248 0.0
H1447 H 0.54808 0.40924 0.955 0.0
H1448 H 0.53902 0.38701 0.98127 0.0
H1449 H 0.568 0.40205 0.03943 0.0
H1450 H 0.53323 0.326 0.09997 0.0
H1451 H 0.54742 0.34767 0.07512 0.0
C1452 C 0.67919 0.24356 0.24614 0.0
C1453 C 0.68484 0.25971 0.25921 0.0
C1454 C 0.66432 0.24484 0.23217 0.0
C1455 C 0.63169 0.28015 0.20997 0.0
H1456 H 0.59698 0.2324 0.20198 0.0
C1457 C 0.56042 0.27769 0.16241 0.0
C1458 C 0.54412 0.26581 0.16888 0.0
C1459 C 0.57894 0.27698 0.17129 0.0
C1460 C 0.60636 0.24597 0.20419 0.0
H1461 H 0.67992 0.29035 0.26681 0.0
H1462 H 0.6531 0.2921 0.24359 0.0
H1463 H 0.62674 0.23158 0.22124 0.0
H1464 H 0.53423 0.24436 0.19003 0.0
H1465 H 0.56602 0.24377 0.20601 0.0
H1466 H 0.61039 0.29481 0.19409 0.0
C1467 C 0.66047 0.27854 0.24371 0.0
C1468 C 0.62376 0.2454 0.21496 0.0
C1469 C 0.67568 0.27742 0.25737 0.0
C1470 C 0.54658 0.2535 0.18454 0.0
C1471 C 0.56491 0.25305 0.19361 0.0
C1472 C 0.61403 0.2808 0.1995 0.0
C1473 C 0.65429 0.26212 0.23118 0.0
C1474 C 0.63659 0.26253 0.21823 0.0
C1475 C 0.58142 0.2646 0.187 0.0
C1476 C 0.60097 0.26377 0.19676 0.0
H1477 H 0.68567 0.22957 0.24711 0.0
H1478 H 0.66041 0.23203 0.22246 0.0
H1479 H 0.64133 0.29357 0.2118 0.0
H1480 H 0.55893 0.28728 0.1503 0.0
H1481 H 0.59132 0.28594 0.16564 0.0
C1482 C 0.42177 0.13877 0.9687 0.0
C1483 C 0.43614 0.12554 0.96422 0.0
C1484 C 0.42577 0.1545 0.98249 0.0
C1485 C 0.46693 0.18242 0.01079 0.0
H1486 H 0.42546 0.19395 0.04756 0.0
C1487 C 0.48133 0.22335 0.08617 0.0
C1488 C 0.47003 0.23947 0.09034 0.0
C1489 C 0.47685 0.21056 0.06983 0.0
C1490 C 0.4371 0.19097 0.03727 0.0
H1491 H 0.46587 0.11826 0.97057 0.0
H1492 H 0.47271 0.14525 0.99492 0.0
H1493 H 0.41838 0.17001 0.02008 0.0
H1494 H 0.44491 0.25459 0.08097 0.0
H1495 H 0.43681 0.23185 0.05263 0.0
H1496 H 0.48581 0.20281 0.02863 0.0
C1497 C 0.45857 0.14401 0.98743 0.0
C1498 C 0.43305 0.17737 0.02145 0.0
C1499 C 0.45465 0.12847 0.9735 0.0
C1500 C 0.45391 0.24231 0.07809 0.0
C1501 C 0.44923 0.22931 0.06193 0.0
C1502 C 0.47103 0.19576 0.02677 0.0
C1503 C 0.44413 0.15712 0.99226 0.0
C1504 C 0.44798 0.17276 0.00814 0.0
C1505 C 0.46079 0.21347 0.05757 0.0
C1506 C 0.4562 0.19999 0.04023 0.0
H1507 H 0.4074 0.13683 0.96164 0.0
H1508 H 0.41442 0.16451 0.98561 0.0
H1509 H 0.47868 0.17957 0.0006 0.0
H1510 H 0.49388 0.22083 0.09531 0.0
H1511 H 0.48586 0.19831 0.06681 0.0
C1512 C 0.2588 0.35167 0.75686 0.0
C1513 C 0.25406 0.34184 0.73858 0.0
C1514 C 0.26914 0.37026 0.75777 0.0
C1515 C 0.30316 0.40355 0.7319 0.0
H1516 H 0.27975 0.4449 0.76299 0.0
C1517 C 0.34001 0.4831 0.7386 0.0
C1518 C 0.34007 0.49249 0.75748 0.0
C1519 C 0.32817 0.46561 0.73446 0.0
C1520 C 0.28662 0.4335 0.75441 0.0
H1521 H 0.25715 0.34369 0.70694 0.0
H1522 H 0.27591 0.37591 0.70868 0.0
H1523 H 0.26291 0.41188 0.75986 0.0
H1524 H 0.32737 0.49112 0.78664 0.0
H1525 H 0.30732 0.46052 0.77965 0.0
H1526 H 0.32729 0.42482 0.72709 0.0
C1527 C 0.27137 0.36918 0.72222 0.0
C1528 C 0.27692 0.41463 0.75259 0.0
C1529 C 0.26074 0.35069 0.72127 0.0
C1530 C 0.32762 0.48435 0.77191 0.0
C1531 C 0.31599 0.46679 0.76785 0.0
C1532 C 0.31304 0.42238 0.73397 0.0
C1533 C 0.27526 0.37929 0.74046 0.0
C1534 C 0.28522 0.39944 0.74153 0.0
C1535 C 0.31629 0.45704 0.74915 0.0
C1536 C 0.30502 0.43753 0.74548 0.0
H1537 H 0.25431 0.34511 0.77049 0.0
H1538 H 0.27229 0.37765 0.77202 0.0
H1539 H 0.30985 0.39203 0.72333 0.0
H1540 H 0.34935 0.48908 0.72712 0.0
H1541 H 0.32851 0.45871 0.7198 0.0
C1542 C 0.24548 0.70464 0.80794 0.0
C1543 C 0.24452 0.71797 0.79286 0.0
C1544 C 0.25811 0.68945 0.80647 0.0
C1545 C 0.30286 0.67404 0.78205 0.0
H1546 H 0.28368 0.62242 0.79923 0.0
C1547 C 0.34712 0.60399 0.77483 0.0
C1548 C 0.34595 0.59162 0.79085 0.0
C1549 C 0.33553 0.62011 0.7743 0.0
C1550 C 0.28933 0.6368 0.79456 0.0
H1551 H 0.25603 0.72584 0.76438 0.0
H1552 H 0.27811 0.699 0.7617 0.0
H1553 H 0.26155 0.64886 0.79911 0.0
H1554 H 0.33244 0.58701 0.81928 0.0
H1555 H 0.3125 0.61515 0.81843 0.0
H1556 H 0.33074 0.66185 0.77759 0.0
C1557 C 0.26916 0.70049 0.77474 0.0
C1558 C 0.27664 0.65194 0.79446 0.0
C1559 C 0.25642 0.71572 0.77619 0.0
C1560 C 0.33357 0.59613 0.80664 0.0
C1561 C 0.32204 0.61219 0.8061 0.0
C1562 C 0.31561 0.65883 0.78213 0.0
C1563 C 0.27006 0.68716 0.78986 0.0
C1564 C 0.28332 0.67081 0.78851 0.0
C1565 C 0.32257 0.62411 0.78976 0.0
C1566 C 0.30903 0.64014 0.78869 0.0
H1567 H 0.2363 0.7058 0.82085 0.0
H1568 H 0.25863 0.67958 0.81848 0.0
H1569 H 0.30846 0.68848 0.77751 0.0
H1570 H 0.35653 0.60089 0.76244 0.0
H1571 H 0.33622 0.62901 0.76148 0.0
C1572 C 0.91372 0.52212 0.46884 0.0
C1573 C 0.91039 0.54208 0.46679 0.0
C1574 C 0.8984 0.50865 0.47434 0.0
C1575 C 0.84969 0.50682 0.49838 0.0
H1576 H 0.84378 0.45342 0.47505 0.0
C1577 C 0.77905 0.45572 0.50539 0.0
C1578 C 0.78112 0.43598 0.50982 0.0
C1579 C 0.79551 0.46822 0.50099 0.0
C1580 C 0.84541 0.46822 0.48184 0.0
H1581 H 0.88839 0.5635 0.46817 0.0
H1582 H 0.86153 0.53994 0.47738 0.0
H1583 H 0.87107 0.47618 0.46502 0.0
H1584 H 0.80209 0.41386 0.51314 0.0
H1585 H 0.83094 0.43579 0.50524 0.0
H1586 H 0.82377 0.49898 0.51486 0.0
C1587 C 0.87606 0.53476 0.47527 0.0
C1588 C 0.86103 0.48125 0.47613 0.0
C1589 C 0.89139 0.54824 0.46991 0.0
C1590 C 0.80003 0.429 0.50981 0.0
C1591 C 0.81651 0.44149 0.5052 0.0
C1592 C 0.83403 0.49386 0.50397 0.0
C1593 C 0.87943 0.51486 0.47779 0.0
C1594 C 0.86323 0.50076 0.48421 0.0
C1595 C 0.81437 0.46121 0.50077 0.0
C1596 C 0.83165 0.47451 0.49564 0.0
H1597 H 0.9283 0.51705 0.46673 0.0
H1598 H 0.90155 0.49348 0.47637 0.0
H1599 H 0.85122 0.5216 0.50523 0.0
H1600 H 0.7647 0.46158 0.5053 0.0
H1601 H 0.79343 0.4833 0.49742 0.0
C1602 C 0.7515 0.83845 0.77375 0.0
C1603 C 0.76068 0.83614 0.79197 0.0
C1604 C 0.7373 0.85215 0.7721 0.0
C1605 C 0.72269 0.89811 0.79626 0.0
H1606 H 0.67344 0.8872 0.76744 0.0
C1607 C 0.66293 0.95214 0.80224 0.0
C1608 C 0.65404 0.95709 0.78468 0.0
C1609 C 0.6744 0.93604 0.80251 0.0
C1610 C 0.68723 0.89048 0.77538 0.0
H1611 H 0.76205 0.84625 0.82272 0.0
H1612 H 0.73717 0.86977 0.81991 0.0
H1613 H 0.69673 0.8615 0.76883 0.0
H1614 H 0.64937 0.94848 0.7538 0.0
H1615 H 0.66976 0.92033 0.75423 0.0
H1616 H 0.71345 0.92699 0.80278 0.0
C1617 C 0.74102 0.86116 0.80687 0.0
C1618 C 0.70053 0.8758 0.77617 0.0
C1619 C 0.75512 0.84751 0.80852 0.0
C1620 C 0.65609 0.94502 0.76755 0.0
C1621 C 0.6677 0.92888 0.7678 0.0
C1622 C 0.70948 0.9127 0.79546 0.0
C1623 C 0.73217 0.86385 0.78861 0.0
C1624 C 0.71827 0.87942 0.78686 0.0
C1625 C 0.67738 0.92458 0.7852 0.0
C1626 C 0.69148 0.909 0.78527 0.0
H1627 H 0.75535 0.82976 0.76078 0.0
H1628 H 0.73076 0.85396 0.75783 0.0
H1629 H 0.73646 0.9015 0.8042 0.0
H1630 H 0.66142 0.96099 0.81575 0.0
H1631 H 0.68127 0.9328 0.81625 0.0
C1632 C 0.61559 0.49352 0.93404 0.0
C1633 C 0.60232 0.48917 0.94925 0.0
C1634 C 0.63142 0.50775 0.93726 0.0
C1635 C 0.6598 0.5357 0.97792 0.0
H1636 H 0.67623 0.57128 0.93709 0.0
C1637 C 0.70711 0.60848 0.99355 0.0
C1638 C 0.72475 0.61036 0.98293 0.0
C1639 C 0.69256 0.59353 0.98828 0.0
C1640 C 0.67181 0.56133 0.94853 0.0
H1641 H 0.59457 0.4966 0.9794 0.0
H1642 H 0.62161 0.52179 0.98486 0.0
H1643 H 0.65008 0.54503 0.93013 0.0
H1644 H 0.7407 0.59864 0.95799 0.0
H1645 H 0.71488 0.57273 0.94848 0.0
H1646 H 0.681 0.55257 0.99651 0.0
C1647 C 0.62045 0.5138 0.97069 0.0
C1648 C 0.65695 0.54623 0.94456 0.0
C1649 C 0.60488 0.49943 0.96757 0.0
C1650 C 0.72728 0.59746 0.9665 0.0
C1651 C 0.71253 0.58272 0.961 0.0
C1652 C 0.67435 0.55096 0.98196 0.0
C1653 C 0.63403 0.51806 0.95566 0.0
C1654 C 0.65062 0.53337 0.9593 0.0
C1655 C 0.69524 0.58045 0.97208 0.0
C1656 C 0.68032 0.56398 0.96737 0.0
H1657 H 0.61384 0.48575 0.91978 0.0
H1658 H 0.6417 0.5105 0.92541 0.0
H1659 H 0.65572 0.52576 0.98947 0.0
H1660 H 0.70476 0.61818 0.00629 0.0
H1661 H 0.67924 0.59207 0.99694 0.0
C1662 C 0.24254 0.70054 0.21772 0.0
C1663 C 0.2632 0.7003 0.21784 0.0
C1664 C 0.23054 0.68299 0.21896 0.0
C1665 C 0.22909 0.63473 0.23888 0.0
H1666 H 0.18726 0.61977 0.20097 0.0
C1667 C 0.17983 0.56251 0.24529 0.0
C1668 C 0.15974 0.56312 0.24082 0.0
C1669 C 0.19336 0.57811 0.24061 0.0
C1670 C 0.19869 0.62383 0.21184 0.0
H1671 H 0.28733 0.68119 0.21884 0.0
H1672 H 0.26629 0.65076 0.22191 0.0
H1673 H 0.20876 0.64974 0.19681 0.0
H1674 H 0.13806 0.5804 0.22777 0.0
H1675 H 0.16137 0.60789 0.22039 0.0
H1676 H 0.21864 0.60957 0.25454 0.0
C1677 C 0.25951 0.66458 0.22077 0.0
C1678 C 0.21104 0.64093 0.20936 0.0
C1679 C 0.27152 0.68205 0.21916 0.0
C1680 C 0.15348 0.57944 0.23126 0.0
C1681 C 0.16692 0.59518 0.22691 0.0
C1682 C 0.21653 0.61785 0.24159 0.0
C1683 C 0.23895 0.66493 0.22068 0.0
C1684 C 0.22627 0.64654 0.2229 0.0
C1685 C 0.18702 0.59483 0.23169 0.0
C1686 C 0.20108 0.61221 0.22817 0.0
H1687 H 0.23558 0.7143 0.21708 0.0
H1688 H 0.21468 0.68359 0.21907 0.0
H1689 H 0.24067 0.63891 0.2496 0.0
H1690 H 0.18509 0.55003 0.2525 0.0
H1691 H 0.20876 0.57708 0.24412 0.0
C1692 C 0.88972 0.48162 0.05573 0.0
C1693 C 0.88713 0.47327 0.07413 0.0
C1694 C 0.88108 0.49893 0.05166 0.0
C1695 C 0.8419 0.5307 0.06612 0.0
H1696 H 0.87478 0.57015 0.03937 0.0
C1697 C 0.81284 0.60425 0.04324 0.0
C1698 C 0.81651 0.60825 0.02345 0.0
C1699 C 0.82264 0.58967 0.05227 0.0
C1700 C 0.86541 0.55928 0.04684 0.0
H1701 H 0.87283 0.47612 0.10244 0.0
H1702 H 0.85764 0.50656 0.09526 0.0
H1703 H 0.88868 0.54011 0.04929 0.0
H1704 H 0.83398 0.60088 -0.00208 0.0
H1705 H 0.85101 0.57564 0.01359 0.0
H1706 H 0.81848 0.5497 0.06316 0.0
C1707 C 0.8664 0.49963 0.08403 0.0
C1708 C 0.87334 0.54206 0.05246 0.0
C1709 C 0.87515 0.48228 0.08816 0.0
C1710 C 0.8308 0.59811 0.01318 0.0
C1711 C 0.84066 0.58371 0.02221 0.0
C1712 C 0.83393 0.54796 0.06044 0.0
C1713 C 0.86964 0.50834 0.06588 0.0
C1714 C 0.86155 0.52736 0.0617 0.0
C1715 C 0.83642 0.57903 0.04172 0.0
C1716 C 0.84549 0.56219 0.0503 0.0
H1717 H 0.89908 0.47523 0.04469 0.0
H1718 H 0.88355 0.50511 0.0374 0.0
H1719 H 0.83246 0.5196 0.07319 0.0
H1720 H 0.80187 0.61182 0.05151 0.0
H1721 H 0.81921 0.58647 0.06738 0.0
C1722 C 0.09255 0.06193 0.09617 0.0
C1723 C 0.09963 0.0805 0.08963 0.0
C1724 C 0.10316 0.04538 0.09273 0.0
C1725 C 0.1203 0.01181 0.0696 0.0
H1726 H 0.17711 0.01228 0.0746 0.0
C1727 C 0.16627 0.95544 0.02911 0.0
C1728 C 0.18206 0.94823 0.03918 0.0
C1729 C 0.15552 0.97008 0.03792 0.0
C1730 C 0.16121 0.01187 0.07338 0.0
H1731 H 0.12372 0.09633 0.07484 0.0
H1732 H 0.14228 0.06718 0.0686 0.0
H1733 H 0.16051 0.04164 0.0853 0.0
H1734 H 0.19856 0.95017 0.06662 0.0
H1735 H 0.17975 0.97603 0.08202 0.0
H1736 H 0.12098 0.98224 0.05737 0.0
C1737 C 0.12855 0.06558 0.07658 0.0
C1738 C 0.15176 0.02872 0.07928 0.0
C1739 C 0.11787 0.08221 0.07999 0.0
C1740 C 0.1864 0.9554 0.05856 0.0
C1741 C 0.17577 0.97029 0.0673 0.0
C1742 C 0.12975 0.99507 0.06357 0.0
C1743 C 0.12108 0.04694 0.0826 0.0
C1744 C 0.13122 0.0289 0.07729 0.0
C1745 C 0.16045 0.97799 0.05691 0.0
C1746 C 0.1503 0.995 0.06518 0.0
H1747 H 0.07841 0.05996 0.10335 0.0
H1748 H 0.09713 0.03125 0.09771 0.0
H1749 H 0.10447 0.01156 0.0677 0.0
H1750 H 0.16259 0.95019 0.01416 0.0
H1751 H 0.14388 0.97584 0.0295 0.0
loop_
_geom_bond_atom_site_label_1
_geom_bond_atom_site_label_2
_geom_bond_distance
_geom_bond_site_symmetry_2
_ccdc_geom_bond_type
H0 C3 0.931 . S
H1 C6 0.928 . S
H2 C8 0.930 . S
C3 H0 0.931 . S
C3 C4 1.413 . S
C3 C5 1.360 . S
C4 C3 1.413 . S
C4 C8 1.429 . S
C5 C3 1.360 . S
C5 C6 1.372 . S
C6 H1 0.928 . S
C6 C5 1.372 . S
C6 C7 1.404 . S
C7 C6 1.404 . S
C7 C8 1.391 . S
C8 H2 0.930 . S
C8 C4 1.429 . S
C8 C7 1.391 . S
H9 C12 0.931 . S
H10 C15 0.928 . S
H11 C17 0.930 . S
C12 H9 0.931 . S
C12 C13 1.413 . S
C12 C14 1.360 . S
C13 C12 1.413 . S
C13 C17 1.429 . S
C14 C12 1.360 . S
C14 C15 1.372 . S
C15 H10 0.928 . S
C15 C14 1.372 . S
C15 C16 1.404 . S
C16 C15 1.404 . S
C16 C17 1.391 . S
C17 H11 0.930 . S
C17 C13 1.429 . S
C17 C16 1.391 . S
H18 C21 0.931 . S
H19 C24 0.928 . S
H20 C26 0.930 . S
C21 H18 0.931 . S
C21 C22 1.413 . S
C21 C23 1.360 . S
C22 C21 1.413 . S
C22 C26 1.429 . S
C23 C21 1.360 . S
C23 C24 1.372 . S
C24 H19 0.928 . S
C24 C23 1.372 . S
C24 C25 1.404 . S
C25 C24 1.404 . S
C25 C26 1.391 . S
C26 H20 0.930 . S
C26 C22 1.429 . S
C26 C25 1.391 . S
H27 C30 0.931 . S
H28 C33 0.928 . S
H29 C35 0.930 . S
C30 H27 0.931 . S
C30 C31 1.413 . S
C30 C32 1.360 . S
C31 C30 1.413 . S
C31 C35 1.429 . S
C32 C30 1.360 . S
C32 C33 1.372 . S
C33 H28 0.928 . S
C33 C32 1.372 . S
C33 C34 1.404 . S
C34 C33 1.404 . S
C34 C35 1.391 . S
C35 H29 0.930 . S
C35 C31 1.429 . S
C35 C34 1.391 . S
H36 C39 0.931 . S
H37 C42 0.928 . S
H38 C44 0.930 . S
C39 H36 0.931 . S
C39 C40 1.413 . S
C39 C41 1.360 . S
C40 C39 1.413 . S
C40 C44 1.429 . S
C41 C39 1.360 . S
C41 C42 1.372 . S
C42 H37 0.928 . S
C42 C41 1.372 . S
C42 C43 1.404 . S
C43 C42 1.404 . S
C43 C44 1.391 . S
C44 H38 0.930 . S
C44 C40 1.429 . S
C44 C43 1.391 . S
H45 C48 0.931 . S
H46 C51 0.928 . S
H47 C53 0.930 . S
C48 H45 0.931 . S
C48 C49 1.413 . S
C48 C50 1.360 . S
C49 C48 1.413 . S
C49 C53 1.429 . S
C50 C48 1.360 . S
C50 C51 1.372 . S
C51 H46 0.928 . S
C51 C50 1.372 . S
C51 C52 1.404 . S
C52 C51 1.404 . S
C52 C53 1.391 . S
C53 H47 0.930 . S
C53 C49 1.429 . S
C53 C52 1.391 . S
H54 C57 0.931 . S
H55 C60 0.928 . S
H56 C62 0.930 . S
C57 H54 0.931 . S
C57 C58 1.413 . S
C57 C59 1.360 . S
C58 C57 1.413 . S
C58 C62 1.429 . S
C59 C57 1.360 . S
C59 C60 1.372 . S
C60 H55 0.928 . S
C60 C59 1.372 . S
C60 C61 1.404 . S
C61 C60 1.404 . S
C61 C62 1.391 . S
C62 H56 0.930 . S
C62 C58 1.429 . S
C62 C61 1.391 . S
H63 C66 0.931 . S
H64 C69 0.928 . S
H65 C71 0.930 . S
C66 H63 0.931 . S
C66 C67 1.413 . S
C66 C68 1.360 . S
C67 C66 1.413 . S
C67 C71 1.429 . S
C68 C66 1.360 . S
C68 C69 1.372 . S
C69 H64 0.928 . S
C69 C68 1.372 . S
C69 C70 1.404 . S
C70 C69 1.404 . S
C70 C71 1.391 . S
C71 H65 0.930 . S
C71 C67 1.429 . S
C71 C70 1.391 . S
H72 C75 0.931 . S
H73 C78 0.928 . S
H74 C80 0.930 . S
C75 H72 0.931 . S
C75 C76 1.413 . S
C75 C77 1.360 . S
C76 C75 1.413 . S
C76 C80 1.429 . S
C77 C75 1.360 . S
C77 C78 1.372 . S
C78 H73 0.928 . S
C78 C77 1.372 . S
C78 C79 1.404 . S
C79 C78 1.404 . S
C79 C80 1.391 . S
C80 H74 0.930 . S
C80 C76 1.429 . S
C80 C79 1.391 . S
H81 C84 0.931 . S
H82 C87 0.928 . S
H83 C89 0.930 . S
C84 H81 0.931 . S
C84 C85 1.413 . S
C84 C86 1.360 . S
C85 C84 1.413 . S
C85 C89 1.429 . S
C86 C84 1.360 . S
C86 C87 1.372 . S
C87 H82 0.928 . S
C87 C86 1.372 . S
C87 C88 1.404 . S
C88 C87 1.404 . S
C88 C89 1.391 . S
C89 H83 0.930 . S
C89 C85 1.429 . S
C89 C88 1.391 . S
H90 C93 0.931 . S
H91 C96 0.928 . S
H92 C98 0.930 . S
C93 H90 0.931 . S
C93 C94 1.413 . S
C93 C95 1.360 . S
C94 C93 1.413 . S
C94 C98 1.429 . S
C95 C93 1.360 . S
C95 C96 1.372 . S
C96 H91 0.928 . S
C96 C95 1.372 . S
C96 C97 1.404 . S
C97 C96 1.404 . S
C97 C98 1.391 . S
C98 H92 0.930 . S
C98 C94 1.429 . S
C98 C97 1.391 . S
H99 C102 0.931 . S
H100 C105 0.928 . S
H101 C107 0.930 . S
C102 H99 0.931 . S
C102 C103 1.413 . S
C102 C104 1.360 . S
C103 C102 1.413 . S
C103 C107 1.429 . S
C104 C102 1.360 . S
C104 C105 1.372 . S
C105 H100 0.928 . S
C105 C104 1.372 . S
C105 C106 1.404 . S
C106 C105 1.404 . S
C106 C107 1.391 . S
C107 H101 0.930 . S
C107 C103 1.429 . S
C107 C106 1.391 . S
H108 C111 0.931 . S
H109 C114 0.928 . S
H110 C116 0.930 . S
C111 H108 0.931 . S
C111 C112 1.413 . S
C111 C113 1.360 . S
C112 C111 1.413 . S
C112 C116 1.429 . S
C113 C111 1.360 . S
C113 C114 1.372 . S
C114 H109 0.928 . S
C114 C113 1.372 . S
C114 C115 1.404 . S
C115 C114 1.404 . S
C115 C116 1.391 . S
C116 H110 0.930 . S
C116 C112 1.429 . S
C116 C115 1.391 . S
H117 C120 0.931 . S
H118 C123 0.928 . S
H119 C125 0.930 . S
C120 H117 0.931 . S
C120 C121 1.413 . S
C120 C122 1.360 . S
C121 C120 1.413 . S
C121 C125 1.429 . S
C122 C120 1.360 . S
C122 C123 1.372 . S
C123 H118 0.928 . S
C123 C122 1.372 . S
C123 C124 1.404 . S
C124 C123 1.404 . S
C124 C125 1.391 . S
C125 H119 0.930 . S
C125 C121 1.429 . S
C125 C124 1.391 . S
H126 C129 0.931 . S
H127 C132 0.928 . S
H128 C134 0.930 . S
C129 H126 0.931 . S
C129 C130 1.413 . S
C129 C131 1.360 . S
C130 C129 1.413 . S
C130 C134 1.429 . S
C131 C129 1.360 . S
C131 C132 1.372 . S
C132 H127 0.928 . S
C132 C131 1.372 . S
C132 C133 1.404 . S
C133 C132 1.404 . S
C133 C134 1.391 . S
C134 H128 0.930 . S
C134 C130 1.429 . S
C134 C133 1.391 . S
H135 C138 0.931 . S
H136 C141 0.928 . S
H137 C143 0.930 . S
C138 H135 0.931 . S
C138 C139 1.413 . S
C138 C140 1.360 . S
C139 C138 1.413 . S
C139 C143 1.429 . S
C140 C138 1.360 . S
C140 C141 1.372 . S
C141 H136 0.928 . S
C141 C140 1.372 . S
C141 C142 1.404 . S
C142 C141 1.404 . S
C142 C143 1.391 . S
C143 H137 0.930 . S
C143 C139 1.429 . S
C143 C142 1.391 . S
O144 Cd145 2.223 . S
O144 C152 1.315 . S
Cd145 O144 2.223 . S
Cd145 O148 2.297 . S
Cd145 O149 2.439 . S
Cd145 O155 2.240 . S
Cd146 O147 2.240 . S
Cd146 O154 2.223 . S
Cd146 O156 2.297 . S
Cd146 O157 2.439 . S
O147 Cd146 2.240 . S
O147 C152 1.279 . S
O148 Cd145 2.297 . S
O148 C150 1.247 . S
O149 Cd145 2.439 . S
O149 C150 1.208 . S
C150 O148 1.247 . S
C150 O149 1.208 . S
C151 O156 1.247 . S
C151 O157 1.208 . S
C152 O144 1.315 . S
C152 O147 1.279 . S
C153 O154 1.315 . S
C153 O155 1.279 . S
O154 Cd146 2.223 . S
O154 C153 1.315 . S
O155 Cd145 2.240 . S
O155 C153 1.279 . S
O156 Cd146 2.297 . S
O156 C151 1.247 . S
O157 Cd146 2.439 . S
O157 C151 1.208 . S
O158 Cd159 2.223 . S
O158 C166 1.315 . S
Cd159 O158 2.223 . S
Cd159 O162 2.297 . S
Cd159 O163 2.439 . S
Cd159 O169 2.240 . S
Cd160 O161 2.240 . S
Cd160 O168 2.223 . S
Cd160 O170 2.297 . S
Cd160 O171 2.439 . S
O161 Cd160 2.240 . S
O161 C166 1.279 . S
O162 Cd159 2.297 . S
O162 C164 1.247 . S
O163 Cd159 2.439 . S
O163 C164 1.208 . S
C164 O162 1.247 . S
C164 O163 1.208 . S
C165 O170 1.247 . S
C165 O171 1.208 . S
C166 O158 1.315 . S
C166 O161 1.279 . S
C167 O168 1.315 . S
C167 O169 1.279 . S
O168 Cd160 2.223 . S
O168 C167 1.315 . S
O169 Cd159 2.240 . S
O169 C167 1.279 . S
O170 Cd160 2.297 . S
O170 C165 1.247 . S
O171 Cd160 2.439 . S
O171 C165 1.208 . S
O172 Cd173 2.223 1_556 S
O172 C180 1.315 . S
Cd173 O172 2.223 1_554 S
Cd173 O176 2.297 . S
Cd173 O177 2.439 . S
Cd173 O183 2.240 . S
Cd174 O175 2.240 . S
Cd174 O182 2.223 . S
Cd174 O184 2.297 1_556 S
Cd174 O185 2.439 1_556 S
O175 Cd174 2.240 . S
O175 C180 1.279 . S
O176 Cd173 2.297 . S
O176 C178 1.247 . S
O177 Cd173 2.439 . S
O177 C178 1.208 . S
C178 O176 1.247 . S
C178 O177 1.208 . S
C179 O184 1.247 . S
C179 O185 1.208 . S
C180 O172 1.315 . S
C180 O175 1.279 . S
C181 O182 1.315 . S
C181 O183 1.279 1_556 S
O182 Cd174 2.223 . S
O182 C181 1.315 . S
O183 Cd173 2.240 . S
O183 C181 1.279 1_554 S
O184 Cd174 2.297 1_554 S
O184 C179 1.247 . S
O185 Cd174 2.439 1_554 S
O185 C179 1.208 . S
O186 Cd187 2.223 . S
O186 C194 1.315 . S
Cd187 O186 2.223 . S
Cd187 O190 2.297 . S
Cd187 O191 2.439 . S
Cd187 O197 2.240 . S
Cd188 O189 2.240 . S
Cd188 O196 2.223 . S
Cd188 O198 2.297 . S
Cd188 O199 2.439 . S
O189 Cd188 2.240 . S
O189 C194 1.279 . S
O190 Cd187 2.297 . S
O190 C192 1.247 . S
O191 Cd187 2.439 . S
O191 C192 1.208 . S
C192 O190 1.247 . S
C192 O191 1.208 . S
C193 O198 1.247 . S
C193 O199 1.208 . S
C194 O186 1.315 . S
C194 O189 1.279 . S
C195 O196 1.315 . S
C195 O197 1.279 . S
O196 Cd188 2.223 . S
O196 C195 1.315 . S
O197 Cd187 2.240 . S
O197 C195 1.279 . S
O198 Cd188 2.297 . S
O198 C193 1.247 . S
O199 Cd188 2.439 . S
O199 C193 1.208 . S
O200 Cd201 2.223 . S
O200 C208 1.315 . S
Cd201 O200 2.223 . S
Cd201 O204 2.297 . S
Cd201 O205 2.439 . S
Cd201 O211 2.240 . S
Cd202 O203 2.240 . S
Cd202 O210 2.223 . S
Cd202 O212 2.297 . S
Cd202 O213 2.439 . S
O203 Cd202 2.240 . S
O203 C208 1.279 . S
O204 Cd201 2.297 . S
O204 C206 1.247 . S
O205 Cd201 2.439 . S
O205 C206 1.208 . S
C206 O204 1.247 . S
C206 O205 1.208 . S
C207 O212 1.247 . S
C207 O213 1.208 . S
C208 O200 1.315 . S
C208 O203 1.279 . S
C209 O210 1.315 . S
C209 O211 1.279 . S
O210 Cd202 2.223 . S
O210 C209 1.315 . S
O211 Cd201 2.240 . S
O211 C209 1.279 . S
O212 Cd202 2.297 . S
O212 C207 1.247 . S
O213 Cd202 2.439 . S
O213 C207 1.208 . S
O214 Cd215 2.223 . S
O214 C222 1.315 . S
Cd215 O214 2.223 . S
Cd215 O218 2.297 . S
Cd215 O219 2.439 . S
Cd215 O225 2.240 . S
Cd216 O217 2.240 . S
Cd216 O224 2.223 . S
Cd216 O226 2.297 . S
Cd216 O227 2.439 . S
O217 Cd216 2.240 . S
O217 C222 1.279 . S
O218 Cd215 2.297 . S
O218 C220 1.247 . S
O219 Cd215 2.439 . S
O219 C220 1.208 . S
C220 O218 1.247 . S
C220 O219 1.208 . S
C221 O226 1.247 . S
C221 O227 1.208 . S
C222 O214 1.315 . S
C222 O217 1.279 . S
C223 O224 1.315 . S
C223 O225 1.279 . S
O224 Cd216 2.223 . S
O224 C223 1.315 . S
O225 Cd215 2.240 . S
O225 C223 1.279 . S
O226 Cd216 2.297 . S
O226 C221 1.247 . S
O227 Cd216 2.439 . S
O227 C221 1.208 . S
O228 Cd229 2.223 . S
O228 C236 1.315 . S
Cd229 O228 2.223 . S
Cd229 O232 2.297 . S
Cd229 O233 2.439 . S
Cd229 O239 2.240 . S
Cd230 O231 2.240 . S
Cd230 O238 2.223 . S
Cd230 O240 2.297 . S
Cd230 O241 2.439 . S
O231 Cd230 2.240 . S
O231 C236 1.279 . S
O232 Cd229 2.297 . S
O232 C234 1.247 . S
O233 Cd229 2.439 . S
O233 C234 1.208 . S
C234 O232 1.247 . S
C234 O233 1.208 . S
C235 O240 1.247 . S
C235 O241 1.208 . S
C236 O228 1.315 . S
C236 O231 1.279 . S
C237 O238 1.315 . S
C237 O239 1.279 . S
O238 Cd230 2.223 . S
O238 C237 1.315 . S
O239 Cd229 2.240 . S
O239 C237 1.279 . S
O240 Cd230 2.297 . S
O240 C235 1.247 . S
O241 Cd230 2.439 . S
O241 C235 1.208 . S
O242 Cd243 2.223 1_545 S
O242 C250 1.315 . S
Cd243 O242 2.223 1_565 S
Cd243 O246 2.297 . S
Cd243 O247 2.439 . S
Cd243 O253 2.240 1_565 S
Cd244 O245 2.240 . S
Cd244 O252 2.223 . S
Cd244 O254 2.297 . S
Cd244 O255 2.439 1_545 S
O245 Cd244 2.240 . S
O245 C250 1.279 . S
O246 Cd243 2.297 . S
O246 C248 1.247 . S
O247 Cd243 2.439 . S
O247 C248 1.208 . S
C248 O246 1.247 . S
C248 O247 1.208 . S
C249 O254 1.247 1_565 S
C249 O255 1.208 . S
C250 O242 1.315 . S
C250 O245 1.279 . S
C251 O252 1.315 . S
C251 O253 1.279 . S
O252 Cd244 2.223 . S
O252 C251 1.315 . S
O253 Cd243 2.240 1_545 S
O253 C251 1.279 . S
O254 Cd244 2.297 . S
O254 C249 1.247 1_545 S
O255 Cd244 2.439 1_565 S
O255 C249 1.208 . S
O256 Cd257 2.223 . S
O256 C264 1.315 . S
Cd257 O256 2.223 . S
Cd257 O260 2.297 1_655 S
Cd257 O261 2.439 1_655 S
Cd257 O267 2.240 . S
Cd258 O259 2.240 . S
Cd258 O266 2.223 1_455 S
Cd258 O268 2.297 . S
Cd258 O269 2.439 . S
O259 Cd258 2.240 . S
O259 C264 1.279 1_455 S
O260 Cd257 2.297 1_455 S
O260 C262 1.247 . S
O261 Cd257 2.439 1_455 S
O261 C262 1.208 . S
C262 O260 1.247 . S
C262 O261 1.208 . S
C263 O268 1.247 . S
C263 O269 1.208 . S
C264 O256 1.315 . S
C264 O259 1.279 1_655 S
C265 O266 1.315 . S
C265 O267 1.279 . S
O266 Cd258 2.223 1_655 S
O266 C265 1.315 . S
O267 Cd257 2.240 . S
O267 C265 1.279 . S
O268 Cd258 2.297 . S
O268 C263 1.247 . S
O269 Cd258 2.439 . S
O269 C263 1.208 . S
O270 Cd271 2.223 . S
O270 C278 1.315 . S
Cd271 O270 2.223 . S
Cd271 O274 2.297 . S
Cd271 O275 2.439 . S
Cd271 O281 2.240 . S
Cd272 O273 2.240 . S
Cd272 O280 2.223 . S
Cd272 O282 2.297 . S
Cd272 O283 2.439 . S
O273 Cd272 2.240 . S
O273 C278 1.279 . S
O274 Cd271 2.297 . S
O274 C276 1.247 . S
O275 Cd271 2.439 . S
O275 C276 1.208 . S
C276 O274 1.247 . S
C276 O275 1.208 . S
C277 O282 1.247 . S
C277 O283 1.208 . S
C278 O270 1.315 . S
C278 O273 1.279 . S
C279 O280 1.315 . S
C279 O281 1.279 . S
O280 Cd272 2.223 . S
O280 C279 1.315 . S
O281 Cd271 2.240 . S
O281 C279 1.279 . S
O282 Cd272 2.297 . S
O282 C277 1.247 . S
O283 Cd272 2.439 . S
O283 C277 1.208 . S
O284 Cd285 2.223 1_655 S
O284 C292 1.315 . S
Cd285 O284 2.223 1_455 S
Cd285 O288 2.297 . S
Cd285 O289 2.439 . S
Cd285 O295 2.240 . S
Cd286 O287 2.240 . S
Cd286 O294 2.223 . S
Cd286 O296 2.297 1_655 S
Cd286 O297 2.439 1_655 S
O287 Cd286 2.240 . S
O287 C292 1.279 . S
O288 Cd285 2.297 . S
O288 C290 1.247 . S
O289 Cd285 2.439 . S
O289 C290 1.208 . S
C290 O288 1.247 . S
C290 O289 1.208 . S
C291 O296 1.247 . S
C291 O297 1.208 . S
C292 O284 1.315 . S
C292 O287 1.279 . S
C293 O294 1.315 . S
C293 O295 1.279 1_655 S
O294 Cd286 2.223 . S
O294 C293 1.315 . S
O295 Cd285 2.240 . S
O295 C293 1.279 1_455 S
O296 Cd286 2.297 1_455 S
O296 C291 1.247 . S
O297 Cd286 2.439 1_455 S
O297 C291 1.208 . S
O298 Cd299 2.223 . S
O298 C306 1.315 . S
Cd299 O298 2.223 . S
Cd299 O302 2.297 . S
Cd299 O303 2.439 . S
Cd299 O309 2.240 . S
Cd300 O301 2.240 . S
Cd300 O308 2.223 . S
Cd300 O310 2.297 . S
Cd300 O311 2.439 . S
O301 Cd300 2.240 . S
O301 C306 1.279 . S
O302 Cd299 2.297 . S
O302 C304 1.247 . S
O303 Cd299 2.439 . S
O303 C304 1.208 . S
C304 O302 1.247 . S
C304 O303 1.208 . S
C305 O310 1.247 . S
C305 O311 1.208 . S
C306 O298 1.315 . S
C306 O301 1.279 . S
C307 O308 1.315 . S
C307 O309 1.279 . S
O308 Cd300 2.223 . S
O308 C307 1.315 . S
O309 Cd299 2.240 . S
O309 C307 1.279 . S
O310 Cd300 2.297 . S
O310 C305 1.247 . S
O311 Cd300 2.439 . S
O311 C305 1.208 . S
C312 C313 1.349 . S
C312 C314 1.327 . S
C312 H337 0.950 . S
C313 C312 1.349 . S
C313 C329 1.349 . S
C314 C312 1.327 . S
C314 C333 1.429 . S
C314 H338 0.950 . S
C315 C332 1.574 . S
C315 C334 1.368 . S
C315 H339 0.949 . S
H316 C320 0.949 . S
C317 C318 1.349 . S
C317 C319 1.327 . S
C317 H340 0.950 . S
C318 C317 1.349 . S
C318 C330 1.349 . S
C319 C317 1.327 . S
C319 C335 1.429 . S
C319 H341 0.950 . S
C320 H316 0.949 . S
C320 C328 1.574 . S
C320 C336 1.368 . S
H321 C329 0.950 . S
H322 C327 0.950 . S
H323 C328 0.949 . S
H324 C330 0.950 . S
H325 C331 0.950 . S
H326 C332 0.949 . S
C327 H322 0.950 . S
C327 C329 1.327 . S
C327 C333 1.429 . S
C328 C320 1.574 . S
C328 H323 0.949 . S
C328 C334 1.368 . S
C329 C313 1.349 . S
C329 H321 0.950 . S
C329 C327 1.327 . S
C330 C318 1.349 . S
C330 H324 0.950 . S
C330 C331 1.327 . S
C331 H325 0.950 . S
C331 C330 1.327 . S
C331 C335 1.429 . S
C332 C315 1.574 . S
C332 H326 0.949 . S
C332 C336 1.368 . S
C333 C314 1.429 . S
C333 C327 1.429 . S
C333 C334 1.523 . S
C334 C315 1.368 . S
C334 C328 1.368 . S
C334 C333 1.523 . S
C335 C319 1.429 . S
C335 C331 1.429 . S
C335 C336 1.523 . S
C336 C320 1.368 . S
C336 C332 1.368 . S
C336 C335 1.523 . S
H337 C312 0.950 . S
H338 C314 0.950 . S
H339 C315 0.949 . S
H340 C317 0.950 . S
H341 C319 0.950 . S
C342 C343 1.349 . S
C342 C344 1.327 . S
C342 H367 0.950 . S
C343 C342 1.349 . S
C343 C359 1.349 . S
C344 C342 1.327 . S
C344 C363 1.429 . S
C344 H368 0.950 . S
C345 C362 1.574 1_655 S
C345 C364 1.368 . S
C345 H369 0.949 . S
H346 C350 0.949 . S
C347 C348 1.349 . S
C347 C349 1.327 . S
C347 H370 0.950 . S
C348 C347 1.349 . S
C348 C360 1.349 . S
C349 C347 1.327 . S
C349 C365 1.429 . S
C349 H371 0.950 . S
C350 H346 0.949 . S
C350 C358 1.574 . S
C350 C366 1.368 . S
H351 C359 0.950 . S
H352 C357 0.950 . S
H353 C358 0.949 . S
H354 C360 0.950 . S
H355 C361 0.950 . S
H356 C362 0.949 . S
C357 H352 0.950 . S
C357 C359 1.327 . S
C357 C363 1.429 . S
C358 C350 1.574 . S
C358 H353 0.949 . S
C358 C364 1.368 1_455 S
C359 C343 1.349 . S
C359 H351 0.950 . S
C359 C357 1.327 . S
C360 C348 1.349 . S
C360 H354 0.950 . S
C360 C361 1.327 . S
C361 H355 0.950 . S
C361 C360 1.327 . S
C361 C365 1.429 . S
C362 C345 1.574 1_455 S
C362 H356 0.949 . S
C362 C366 1.368 . S
C363 C344 1.429 . S
C363 C357 1.429 . S
C363 C364 1.523 . S
C364 C345 1.368 . S
C364 C358 1.368 1_655 S
C364 C363 1.523 . S
C365 C349 1.429 . S
C365 C361 1.429 . S
C365 C366 1.523 . S
C366 C350 1.368 . S
C366 C362 1.368 . S
C366 C365 1.523 . S
H367 C342 0.950 . S
H368 C344 0.950 . S
H369 C345 0.949 . S
H370 C347 0.950 . S
H371 C349 0.950 . S
C372 C373 1.349 . S
C372 C374 1.327 . S
C372 H397 0.950 . S
C373 C372 1.349 . S
C373 C389 1.349 . S
C374 C372 1.327 . S
C374 C393 1.429 . S
C374 H398 0.950 . S
C375 C392 1.574 . S
C375 C394 1.368 . S
C375 H399 0.949 . S
H376 C380 0.949 . S
C377 C378 1.349 . S
C377 C379 1.327 . S
C377 H400 0.950 . S
C378 C377 1.349 . S
C378 C390 1.349 . S
C379 C377 1.327 . S
C379 C395 1.429 . S
C379 H401 0.950 . S
C380 H376 0.949 . S
C380 C388 1.574 . S
C380 C396 1.368 . S
H381 C389 0.950 . S
H382 C387 0.950 . S
H383 C388 0.949 . S
H384 C390 0.950 . S
H385 C391 0.950 . S
H386 C392 0.949 . S
C387 H382 0.950 . S
C387 C389 1.327 . S
C387 C393 1.429 . S
C388 C380 1.574 . S
C388 H383 0.949 . S
C388 C394 1.368 . S
C389 C373 1.349 . S
C389 H381 0.950 . S
C389 C387 1.327 . S
C390 C378 1.349 . S
C390 H384 0.950 . S
C390 C391 1.327 . S
C391 H385 0.950 . S
C391 C390 1.327 . S
C391 C395 1.429 . S
C392 C375 1.574 . S
C392 H386 0.949 . S
C392 C396 1.368 . S
C393 C374 1.429 . S
C393 C387 1.429 . S
C393 C394 1.523 . S
C394 C375 1.368 . S
C394 C388 1.368 . S
C394 C393 1.523 . S
C395 C379 1.429 . S
C395 C391 1.429 . S
C395 C396 1.523 . S
C396 C380 1.368 . S
C396 C392 1.368 . S
C396 C395 1.523 . S
H397 C372 0.950 . S
H398 C374 0.950 . S
H399 C375 0.949 . S
H400 C377 0.950 . S
H401 C379 0.950 . S
C402 C403 1.349 . S
C402 C404 1.327 . S
C402 H427 0.950 . S
C403 C402 1.349 . S
C403 C419 1.349 . S
C404 C402 1.327 . S
C404 C423 1.429 . S
C404 H428 0.950 . S
C405 C422 1.574 1_455 S
C405 C424 1.368 1_545 S
C405 H429 0.949 . S
H406 C410 0.949 . S
C407 C408 1.349 . S
C407 C409 1.327 . S
C407 H430 0.950 . S
C408 C407 1.349 . S
C408 C420 1.349 . S
C409 C407 1.327 . S
C409 C425 1.429 . S
C409 H431 0.950 . S
C410 H406 0.949 . S
C410 C418 1.574 . S
C410 C426 1.368 1_565 S
H411 C419 0.950 . S
H412 C417 0.950 1_545 S
H413 C418 0.949 . S
H414 C420 0.950 . S
H415 C421 0.929 1_565 S
H416 C422 0.949 . S
C417 H412 0.950 1_565 S
C417 C419 1.327 . S
C417 C423 1.429 . S
C418 C410 1.574 . S
C418 H413 0.949 . S
C418 C424 1.368 1_655 S
C419 C403 1.349 . S
C419 H411 0.950 . S
C419 C417 1.327 . S
C420 C408 1.349 . S
C420 H414 0.950 . S
C420 C421 1.339 . S
C421 H415 0.929 1_545 S
C421 C420 1.339 . S
C421 C425 1.438 . S
C422 C405 1.574 1_655 S
C422 H416 0.949 . S
C422 C426 1.368 . S
C423 C404 1.429 . S
C423 C417 1.429 . S
C423 C424 1.523 . S
C424 C405 1.368 1_565 S
C424 C418 1.368 1_455 S
C424 C423 1.523 . S
C425 C409 1.429 . S
C425 C421 1.438 . S
C425 C426 1.523 . S
C426 C410 1.368 1_545 S
C426 C422 1.368 . S
C426 C425 1.523 . S
H427 C402 0.950 . S
H428 C404 0.950 . S
H429 C405 0.949 . S
H430 C407 0.950 . S
H431 C409 0.950 . S
C432 C433 1.349 . S
C432 C434 1.327 . S
C432 H457 0.950 . S
C433 C432 1.349 . S
C433 C449 1.349 . S
C434 C432 1.327 . S
C434 C453 1.429 . S
C434 H458 0.950 . S
C435 C452 1.574 . S
C435 C454 1.368 . S
C435 H459 0.949 . S
H436 C440 0.949 . S
C437 C438 1.349 . S
C437 C439 1.327 . S
C437 H460 0.950 . S
C438 C437 1.349 . S
C438 C450 1.349 . S
C439 C437 1.327 . S
C439 C455 1.429 . S
C439 H461 0.950 . S
C440 H436 0.949 . S
C440 C448 1.574 . S
C440 C456 1.368 . S
H441 C449 0.950 . S
H442 C447 0.950 . S
H443 C448 0.949 . S
H444 C450 0.950 . S
H445 C451 0.950 . S
H446 C452 0.949 . S
C447 H442 0.950 . S
C447 C449 1.327 . S
C447 C453 1.429 . S
C448 C440 1.574 . S
C448 H443 0.949 . S
C448 C454 1.368 . S
C449 C433 1.349 . S
C449 H441 0.950 . S
C449 C447 1.327 . S
C450 C438 1.349 . S
C450 H444 0.950 . S
C450 C451 1.327 . S
C451 H445 0.950 . S
C451 C450 1.327 . S
C451 C455 1.429 . S
C452 C435 1.574 . S
C452 H446 0.949 . S
C452 C456 1.368 . S
C453 C434 1.429 . S
C453 C447 1.429 . S
C453 C454 1.523 . S
C454 C435 1.368 . S
C454 C448 1.368 . S
C454 C453 1.523 . S
C455 C439 1.429 . S
C455 C451 1.429 . S
C455 C456 1.523 . S
C456 C440 1.368 . S
C456 C452 1.368 . S
C456 C455 1.523 . S
H457 C432 0.950 . S
H458 C434 0.950 . S
H459 C435 0.949 . S
H460 C437 0.950 . S
H461 C439 0.950 . S
C462 C463 1.349 . S
C462 C464 1.327 . S
C462 H487 0.950 . S
C463 C462 1.349 . S
C463 C479 1.349 . S
C464 C462 1.327 . S
C464 C483 1.429 . S
C464 H488 0.950 . S
C465 C482 1.574 . S
C465 C484 1.368 . S
C465 H489 0.949 . S
H466 C470 0.949 . S
C467 C468 1.349 . S
C467 C469 1.327 . S
C467 H490 0.950 . S
C468 C467 1.349 . S
C468 C480 1.349 . S
C469 C467 1.327 . S
C469 C485 1.429 . S
C469 H491 0.950 . S
C470 H466 0.949 . S
C470 C478 1.574 . S
C470 C486 1.368 . S
H471 C479 0.950 . S
H472 C477 0.950 . S
H473 C478 0.949 . S
H474 C480 0.950 . S
H475 C481 0.950 . S
H476 C482 0.949 . S
C477 H472 0.950 . S
C477 C479 1.327 . S
C477 C483 1.429 . S
C478 C470 1.574 . S
C478 H473 0.949 . S
C478 C484 1.368 . S
C479 C463 1.349 . S
C479 H471 0.950 . S
C479 C477 1.327 . S
C480 C468 1.349 . S
C480 H474 0.950 . S
C480 C481 1.327 . S
C481 H475 0.950 . S
C481 C480 1.327 . S
C481 C485 1.429 . S
C482 C465 1.574 . S
C482 H476 0.949 . S
C482 C486 1.368 . S
C483 C464 1.429 . S
C483 C477 1.429 . S
C483 C484 1.523 . S
C484 C465 1.368 . S
C484 C478 1.368 . S
C484 C483 1.523 . S
C485 C469 1.429 . S
C485 C481 1.429 . S
C485 C486 1.523 . S
C486 C470 1.368 . S
C486 C482 1.368 . S
C486 C485 1.523 . S
H487 C462 0.950 . S
H488 C464 0.950 . S
H489 C465 0.949 . S
H490 C467 0.950 . S
H491 C469 0.950 . S
C492 C493 1.349 . S
C492 C494 1.327 . S
C492 H517 0.950 . S
C493 C492 1.349 . S
C493 C509 1.349 . S
C494 C492 1.327 . S
C494 C513 1.429 . S
C494 H518 0.950 . S
C495 C512 1.574 . S
C495 C514 1.368 . S
C495 H519 0.949 . S
H496 C500 0.949 . S
C497 C498 1.349 . S
C497 C499 1.327 . S
C497 H520 0.950 . S
C498 C497 1.349 . S
C498 C510 1.349 . S
C499 C497 1.327 . S
C499 C515 1.429 . S
C499 H521 0.950 . S
C500 H496 0.949 . S
C500 C508 1.574 . S
C500 C516 1.368 . S
H501 C509 0.950 . S
H502 C507 0.950 . S
H503 C508 0.949 . S
H504 C510 0.950 . S
H505 C511 0.950 . S
H506 C512 0.949 . S
C507 H502 0.950 . S
C507 C509 1.327 . S
C507 C513 1.429 . S
C508 C500 1.574 . S
C508 H503 0.949 . S
C508 C514 1.368 . S
C509 C493 1.349 . S
C509 H501 0.950 . S
C509 C507 1.327 . S
C510 C498 1.349 . S
C510 H504 0.950 . S
C510 C511 1.327 . S
C511 H505 0.950 . S
C511 C510 1.327 . S
C511 C515 1.429 . S
C512 C495 1.574 . S
C512 H506 0.949 . S
C512 C516 1.368 . S
C513 C494 1.429 . S
C513 C507 1.429 . S
C513 C514 1.523 . S
C514 C495 1.368 . S
C514 C508 1.368 . S
C514 C513 1.523 . S
C515 C499 1.429 . S
C515 C511 1.429 . S
C515 C516 1.523 . S
C516 C500 1.368 . S
C516 C512 1.368 . S
C516 C515 1.523 . S
H517 C492 0.950 . S
H518 C494 0.950 . S
H519 C495 0.949 . S
H520 C497 0.950 . S
H521 C499 0.950 . S
C522 C523 1.349 . S
C522 C524 1.327 . S
C522 H547 0.950 . S
C523 C522 1.349 . S
C523 C539 1.349 . S
C524 C522 1.327 . S
C524 C543 1.429 . S
C524 H548 0.950 . S
C525 C542 1.574 . S
C525 C544 1.368 . S
C525 H549 0.949 . S
H526 C530 0.949 . S
C527 C528 1.349 . S
C527 C529 1.327 . S
C527 H550 0.950 1_565 S
C528 C527 1.349 . S
C528 C540 1.349 . S
C529 C527 1.327 . S
C529 C545 1.429 . S
C529 H551 0.950 . S
C530 H526 0.949 . S
C530 C538 1.574 . S
C530 C546 1.368 . S
H531 C539 0.950 . S
H532 C537 0.950 . S
H533 C538 0.949 . S
H534 C540 0.950 . S
H535 C541 0.950 . S
H536 C542 0.949 . S
C537 H532 0.950 . S
C537 C539 1.327 . S
C537 C543 1.429 . S
C538 C530 1.574 . S
C538 H533 0.949 . S
C538 C544 1.368 . S
C539 C523 1.349 . S
C539 H531 0.950 . S
C539 C537 1.327 . S
C540 C528 1.349 . S
C540 H534 0.950 . S
C540 C541 1.327 . S
C541 H535 0.950 . S
C541 C540 1.327 . S
C541 C545 1.429 . S
C542 C525 1.574 . S
C542 H536 0.949 . S
C542 C546 1.368 . S
C543 C524 1.429 . S
C543 C537 1.429 . S
C543 C544 1.523 . S
C544 C525 1.368 . S
C544 C538 1.368 . S
C544 C543 1.523 . S
C545 C529 1.429 . S
C545 C541 1.429 . S
C545 C546 1.523 . S
C546 C530 1.368 . S
C546 C542 1.368 . S
C546 C545 1.523 . S
H547 C522 0.950 . S
H548 C524 0.950 . S
H549 C525 0.949 . S
H550 C527 0.950 1_545 S
H551 C529 0.950 . S
C552 C553 1.349 . S
C552 C554 1.327 . S
C552 H577 0.950 . S
C553 C552 1.349 . S
C553 C569 1.349 . S
C554 C552 1.327 . S
C554 C573 1.429 . S
C554 H578 0.950 . S
C555 C572 1.574 . S
C555 C574 1.368 . S
C555 H579 0.949 . S
H556 C560 0.949 . S
C557 C558 1.349 . S
C557 C559 1.327 . S
C557 H580 0.950 . S
C558 C557 1.349 . S
C558 C570 1.349 . S
C559 C557 1.327 . S
C559 C575 1.429 . S
C559 H581 0.950 . S
C560 H556 0.949 . S
C560 C568 1.574 . S
C560 C576 1.368 . S
H561 C569 0.950 . S
H562 C567 0.950 . S
H563 C568 0.949 . S
H564 C570 0.950 . S
H565 C571 0.950 . S
H566 C572 0.949 . S
C567 H562 0.950 . S
C567 C569 1.327 . S
C567 C573 1.429 . S
C568 C560 1.574 . S
C568 H563 0.949 . S
C568 C574 1.368 . S
C569 C553 1.349 . S
C569 H561 0.950 . S
C569 C567 1.327 . S
C570 C558 1.349 . S
C570 H564 0.950 . S
C570 C571 1.327 . S
C571 H565 0.950 . S
C571 C570 1.327 . S
C571 C575 1.429 . S
C572 C555 1.574 . S
C572 H566 0.949 . S
C572 C576 1.368 . S
C573 C554 1.429 . S
C573 C567 1.429 . S
C573 C574 1.523 . S
C574 C555 1.368 . S
C574 C568 1.368 . S
C574 C573 1.523 . S
C575 C559 1.429 . S
C575 C571 1.429 . S
C575 C576 1.523 . S
C576 C560 1.368 . S
C576 C572 1.368 . S
C576 C575 1.523 . S
H577 C552 0.950 . S
H578 C554 0.950 . S
H579 C555 0.949 . S
H580 C557 0.950 . S
H581 C559 0.950 . S
C582 C583 1.349 . S
C582 C584 1.327 . S
C582 H607 0.950 . S
C583 C582 1.349 . S
C583 C599 1.349 . S
C584 C582 1.327 . S
C584 C603 1.429 . S
C584 H608 0.950 . S
C585 C602 1.574 . S
C585 C604 1.368 . S
C585 H609 0.949 . S
H586 C590 0.949 . S
C587 C588 1.349 . S
C587 C589 1.327 . S
C587 H610 0.950 . S
C588 C587 1.349 . S
C588 C600 1.349 . S
C589 C587 1.327 . S
C589 C605 1.429 . S
C589 H611 0.950 . S
C590 H586 0.949 . S
C590 C598 1.574 . S
C590 C606 1.368 . S
H591 C599 0.950 . S
H592 C597 0.950 . S
H593 C598 0.949 . S
H594 C600 0.950 . S
H595 C601 0.950 . S
H596 C602 0.949 . S
C597 H592 0.950 . S
C597 C599 1.327 . S
C597 C603 1.429 . S
C598 C590 1.574 . S
C598 H593 0.949 . S
C598 C604 1.368 . S
C599 C583 1.349 . S
C599 H591 0.950 . S
C599 C597 1.327 . S
C600 C588 1.349 . S
C600 H594 0.950 . S
C600 C601 1.327 . S
C601 H595 0.950 . S
C601 C600 1.327 . S
C601 C605 1.429 . S
C602 C585 1.574 . S
C602 H596 0.949 . S
C602 C606 1.368 . S
C603 C584 1.429 . S
C603 C597 1.429 . S
C603 C604 1.523 . S
C604 C585 1.368 . S
C604 C598 1.368 . S
C604 C603 1.523 . S
C605 C589 1.429 . S
C605 C601 1.429 . S
C605 C606 1.523 . S
C606 C590 1.368 . S
C606 C602 1.368 . S
C606 C605 1.523 . S
H607 C582 0.950 . S
H608 C584 0.950 . S
H609 C585 0.949 . S
H610 C587 0.950 . S
H611 C589 0.950 . S
C612 C613 1.349 . S
C612 C614 1.327 . S
C612 H637 0.950 . S
C613 C612 1.349 . S
C613 C629 1.349 . S
C614 C612 1.327 . S
C614 C633 1.429 . S
C614 H638 0.950 . S
C615 C632 1.574 . S
C615 C634 1.368 . S
C615 H639 0.949 . S
H616 C620 0.949 . S
C617 C618 1.349 . S
C617 C619 1.327 . S
C617 H640 0.950 . S
C618 C617 1.349 . S
C618 C630 1.349 . S
C619 C617 1.327 . S
C619 C635 1.429 . S
C619 H641 0.950 . S
C620 H616 0.949 . S
C620 C628 1.574 . S
C620 C636 1.368 . S
H621 C629 0.950 . S
H622 C627 0.950 . S
H623 C628 0.949 . S
H624 C630 0.950 . S
H625 C631 0.950 . S
H626 C632 0.949 . S
C627 H622 0.950 . S
C627 C629 1.327 . S
C627 C633 1.429 . S
C628 C620 1.574 . S
C628 H623 0.949 . S
C628 C634 1.368 . S
C629 C613 1.349 . S
C629 H621 0.950 . S
C629 C627 1.327 . S
C630 C618 1.349 . S
C630 H624 0.950 . S
C630 C631 1.327 . S
C631 H625 0.950 . S
C631 C630 1.327 . S
C631 C635 1.429 . S
C632 C615 1.574 . S
C632 H626 0.949 . S
C632 C636 1.368 . S
C633 C614 1.429 . S
C633 C627 1.429 . S
C633 C634 1.523 . S
C634 C615 1.368 . S
C634 C628 1.368 . S
C634 C633 1.523 . S
C635 C619 1.429 . S
C635 C631 1.429 . S
C635 C636 1.523 . S
C636 C620 1.368 . S
C636 C632 1.368 . S
C636 C635 1.523 . S
H637 C612 0.950 . S
H638 C614 0.950 . S
H639 C615 0.949 . S
H640 C617 0.950 . S
H641 C619 0.950 . S
C642 C643 1.349 . S
C642 C644 1.327 . S
C642 H667 0.950 . S
C643 C642 1.349 . S
C643 C659 1.349 . S
C644 C642 1.327 . S
C644 C663 1.429 . S
C644 H668 0.950 . S
C645 C662 1.574 . S
C645 C664 1.368 . S
C645 H669 0.949 . S
H646 C650 0.949 . S
C647 C648 1.349 . S
C647 C649 1.327 . S
C647 H670 0.950 . S
C648 C647 1.349 . S
C648 C660 1.349 . S
C649 C647 1.327 . S
C649 C665 1.429 . S
C649 H671 0.950 . S
C650 H646 0.949 . S
C650 C658 1.574 . S
C650 C666 1.368 . S
H651 C659 0.950 . S
H652 C657 0.950 . S
H653 C658 0.949 . S
H654 C660 0.950 . S
H655 C661 0.950 . S
H656 C662 0.949 . S
C657 H652 0.950 . S
C657 C659 1.327 . S
C657 C663 1.429 . S
C658 C650 1.574 . S
C658 H653 0.949 . S
C658 C664 1.368 . S
C659 C643 1.349 . S
C659 H651 0.950 . S
C659 C657 1.327 . S
C660 C648 1.349 . S
C660 H654 0.950 . S
C660 C661 1.327 . S
C661 H655 0.950 . S
C661 C660 1.327 . S
C661 C665 1.429 . S
C662 C645 1.574 . S
C662 H656 0.949 . S
C662 C666 1.368 . S
C663 C644 1.429 . S
C663 C657 1.429 . S
C663 C664 1.523 . S
C664 C645 1.368 . S
C664 C658 1.368 . S
C664 C663 1.523 . S
C665 C649 1.429 . S
C665 C661 1.429 . S
C665 C666 1.523 . S
C666 C650 1.368 . S
C666 C662 1.368 . S
C666 C665 1.523 . S
H667 C642 0.950 . S
H668 C644 0.950 . S
H669 C645 0.949 . S
H670 C647 0.950 . S
H671 C649 0.950 . S
C672 C673 1.349 . S
C672 C674 1.327 . S
C672 H697 0.950 . S
C673 C672 1.349 . S
C673 C689 1.349 . S
C674 C672 1.327 . S
C674 C693 1.429 . S
C674 H698 0.950 . S
C675 C692 1.574 . S
C675 C694 1.368 . S
C675 H699 0.949 . S
H676 C680 0.949 . S
C677 C678 1.349 . S
C677 C679 1.327 . S
C677 H700 0.950 . S
C678 C677 1.349 . S
C678 C690 1.349 . S
C679 C677 1.327 . S
C679 C695 1.429 . S
C679 H701 0.950 . S
C680 H676 0.949 . S
C680 C688 1.574 . S
C680 C696 1.368 . S
H681 C689 0.950 . S
H682 C687 0.950 . S
H683 C688 0.949 . S
H684 C690 0.950 . S
H685 C691 0.950 . S
H686 C692 0.949 . S
C687 H682 0.950 . S
C687 C689 1.327 . S
C687 C693 1.429 . S
C688 C680 1.574 . S
C688 H683 0.949 . S
C688 C694 1.368 . S
C689 C673 1.349 . S
C689 H681 0.950 . S
C689 C687 1.327 . S
C690 C678 1.349 . S
C690 H684 0.950 . S
C690 C691 1.327 . S
C691 H685 0.950 . S
C691 C690 1.327 . S
C691 C695 1.429 . S
C692 C675 1.574 . S
C692 H686 0.949 . S
C692 C696 1.368 . S
C693 C674 1.429 . S
C693 C687 1.429 . S
C693 C694 1.523 . S
C694 C675 1.368 . S
C694 C688 1.368 . S
C694 C693 1.523 . S
C695 C679 1.429 . S
C695 C691 1.429 . S
C695 C696 1.523 . S
C696 C680 1.368 . S
C696 C692 1.368 . S
C696 C695 1.523 . S
H697 C672 0.950 . S
H698 C674 0.950 . S
H699 C675 0.949 . S
H700 C677 0.950 . S
H701 C679 0.950 . S
C702 C703 1.349 . S
C702 C704 1.327 . S
C702 H727 0.950 . S
C703 C702 1.349 . S
C703 C719 1.349 . S
C704 C702 1.327 . S
C704 C723 1.429 . S
C704 H728 0.950 . S
C705 C722 1.574 . S
C705 C724 1.368 . S
C705 H729 0.949 . S
H706 C710 0.949 . S
C707 C708 1.349 . S
C707 C709 1.327 . S
C707 H730 0.950 . S
C708 C707 1.349 . S
C708 C720 1.349 . S
C709 C707 1.327 . S
C709 C725 1.429 . S
C709 H731 0.950 . S
C710 H706 0.949 . S
C710 C718 1.574 . S
C710 C726 1.368 . S
H711 C719 0.950 . S
H712 C717 0.950 . S
H713 C718 0.949 . S
H714 C720 0.950 . S
H715 C721 0.950 . S
H716 C722 0.949 . S
C717 H712 0.950 . S
C717 C719 1.327 . S
C717 C723 1.429 . S
C718 C710 1.574 . S
C718 H713 0.949 . S
C718 C724 1.368 . S
C719 C703 1.349 . S
C719 H711 0.950 . S
C719 C717 1.327 . S
C720 C708 1.349 . S
C720 H714 0.950 . S
C720 C721 1.327 . S
C721 H715 0.950 . S
C721 C720 1.327 . S
C721 C725 1.429 . S
C722 C705 1.574 . S
C722 H716 0.949 . S
C722 C726 1.368 . S
C723 C704 1.429 . S
C723 C717 1.429 . S
C723 C724 1.523 . S
C724 C705 1.368 . S
C724 C718 1.368 . S
C724 C723 1.523 . S
C725 C709 1.429 . S
C725 C721 1.429 . S
C725 C726 1.523 . S
C726 C710 1.368 . S
C726 C722 1.368 . S
C726 C725 1.523 . S
H727 C702 0.950 . S
H728 C704 0.950 . S
H729 C705 0.949 . S
H730 C707 0.950 . S
H731 C709 0.950 . S
C732 C733 1.349 . S
C732 C734 1.327 . S
C732 H757 0.950 . S
C733 C732 1.349 . S
C733 C749 1.349 . S
C734 C732 1.327 . S
C734 C753 1.429 . S
C734 H758 0.950 . S
C735 C752 1.574 . S
C735 C754 1.368 . S
C735 H759 0.949 . S
H736 C740 0.949 . S
C737 C738 1.349 . S
C737 C739 1.327 . S
C737 H760 0.950 . S
C738 C737 1.349 . S
C738 C750 1.349 . S
C739 C737 1.327 . S
C739 C755 1.429 . S
C739 H761 0.950 . S
C740 H736 0.949 . S
C740 C748 1.574 . S
C740 C756 1.368 . S
H741 C749 0.950 . S
H742 C747 0.950 . S
H743 C748 0.949 . S
H744 C750 0.950 . S
H745 C751 0.950 . S
H746 C752 0.949 . S
C747 H742 0.950 . S
C747 C749 1.327 . S
C747 C753 1.429 . S
C748 C740 1.574 . S
C748 H743 0.949 . S
C748 C754 1.368 . S
C749 C733 1.349 . S
C749 H741 0.950 . S
C749 C747 1.327 . S
C750 C738 1.349 . S
C750 H744 0.950 . S
C750 C751 1.327 . S
C751 H745 0.950 . S
C751 C750 1.327 . S
C751 C755 1.429 . S
C752 C735 1.574 . S
C752 H746 0.949 . S
C752 C756 1.368 . S
C753 C734 1.429 . S
C753 C747 1.429 . S
C753 C754 1.523 . S
C754 C735 1.368 . S
C754 C748 1.368 . S
C754 C753 1.523 . S
C755 C739 1.429 . S
C755 C751 1.429 . S
C755 C756 1.523 . S
C756 C740 1.368 . S
C756 C752 1.368 . S
C756 C755 1.523 . S
H757 C732 0.950 . S
H758 C734 0.950 . S
H759 C735 0.949 . S
H760 C737 0.950 . S
H761 C739 0.950 . S
C762 C763 1.349 . S
C762 C764 1.327 . S
C762 H787 0.950 . S
C763 C762 1.349 . S
C763 C779 1.349 . S
C764 C762 1.327 . S
C764 C783 1.429 . S
C764 H788 0.950 . S
C765 C782 1.574 . S
C765 C784 1.368 . S
C765 H789 0.949 . S
H766 C770 0.949 . S
C767 C768 1.349 . S
C767 C769 1.327 . S
C767 H790 0.950 . S
C768 C767 1.349 . S
C768 C780 1.349 . S
C769 C767 1.327 . S
C769 C785 1.429 . S
C769 H791 0.950 . S
C770 H766 0.949 . S
C770 C778 1.574 . S
C770 C786 1.368 . S
H771 C779 0.950 . S
H772 C777 0.950 . S
H773 C778 0.949 . S
H774 C780 0.950 . S
H775 C781 0.950 . S
H776 C782 0.949 . S
C777 H772 0.950 . S
C777 C779 1.327 . S
C777 C783 1.429 . S
C778 C770 1.574 . S
C778 H773 0.949 . S
C778 C784 1.368 . S
C779 C763 1.349 . S
C779 H771 0.950 . S
C779 C777 1.327 . S
C780 C768 1.349 . S
C780 H774 0.950 . S
C780 C781 1.327 . S
C781 H775 0.950 . S
C781 C780 1.327 . S
C781 C785 1.429 . S
C782 C765 1.574 . S
C782 H776 0.949 . S
C782 C786 1.368 . S
C783 C764 1.429 . S
C783 C777 1.429 . S
C783 C784 1.523 . S
C784 C765 1.368 . S
C784 C778 1.368 . S
C784 C783 1.523 . S
C785 C769 1.429 . S
C785 C781 1.429 . S
C785 C786 1.523 . S
C786 C770 1.368 . S
C786 C782 1.368 . S
C786 C785 1.523 . S
H787 C762 0.950 . S
H788 C764 0.950 . S
H789 C765 0.949 . S
H790 C767 0.950 . S
H791 C769 0.950 . S
C792 C793 1.349 . S
C792 C794 1.327 . S
C792 H817 0.950 . S
C793 C792 1.349 . S
C793 C809 1.349 . S
C794 C792 1.327 . S
C794 C813 1.429 . S
C794 H818 0.950 . S
C795 C812 1.574 . S
C795 C814 1.368 . S
C795 H819 0.949 . S
H796 C800 0.949 . S
C797 C798 1.349 1_565 S
C797 C799 1.327 . S
C797 H820 0.950 . S
C798 C797 1.349 1_545 S
C798 C810 1.349 . S
C799 C797 1.327 . S
C799 C815 1.429 . S
C799 H821 0.950 . S
C800 H796 0.949 . S
C800 C808 1.574 . S
C800 C816 1.368 . S
H801 C809 0.950 . S
H802 C807 0.950 . S
H803 C808 0.949 . S
H804 C810 0.950 . S
H805 C811 0.950 . S
H806 C812 0.949 . S
C807 H802 0.950 . S
C807 C809 1.327 . S
C807 C813 1.429 . S
C808 C800 1.574 . S
C808 H803 0.949 . S
C808 C814 1.368 . S
C809 C793 1.349 . S
C809 H801 0.950 . S
C809 C807 1.327 . S
C810 C798 1.349 . S
C810 H804 0.950 . S
C810 C811 1.327 1_545 S
C811 H805 0.950 . S
C811 C810 1.327 1_565 S
C811 C815 1.429 . S
C812 C795 1.574 . S
C812 H806 0.949 . S
C812 C816 1.368 . S
C813 C794 1.429 . S
C813 C807 1.429 . S
C813 C814 1.523 . S
C814 C795 1.368 . S
C814 C808 1.368 . S
C814 C813 1.523 . S
C815 C799 1.429 . S
C815 C811 1.429 . S
C815 C816 1.523 . S
C816 C800 1.368 . S
C816 C812 1.368 . S
C816 C815 1.523 . S
H817 C792 0.950 . S
H818 C794 0.950 . S
H819 C795 0.949 . S
H820 C797 0.950 . S
H821 C799 0.950 . S
C822 C823 1.349 . S
C822 C824 1.327 . S
C822 H847 0.950 . S
C823 C822 1.349 . S
C823 C839 1.349 . S
C824 C822 1.327 . S
C824 C843 1.429 . S
C824 H848 0.950 . S
C825 C842 1.574 . S
C825 C844 1.368 . S
C825 H849 0.949 . S
H826 C830 0.949 . S
C827 C828 1.349 . S
C827 C829 1.327 . S
C827 H850 0.950 . S
C828 C827 1.349 . S
C828 C840 1.349 . S
C829 C827 1.327 . S
C829 C845 1.429 . S
C829 H851 0.950 . S
C830 H826 0.949 . S
C830 C838 1.574 . S
C830 C846 1.368 . S
H831 C839 0.950 . S
H832 C837 0.950 . S
H833 C838 0.949 . S
H834 C840 0.950 . S
H835 C841 0.950 . S
H836 C842 0.949 . S
C837 H832 0.950 . S
C837 C839 1.327 . S
C837 C843 1.429 . S
C838 C830 1.574 . S
C838 H833 0.949 . S
C838 C844 1.368 . S
C839 C823 1.349 . S
C839 H831 0.950 . S
C839 C837 1.327 . S
C840 C828 1.349 . S
C840 H834 0.950 . S
C840 C841 1.327 . S
C841 H835 0.950 . S
C841 C840 1.327 . S
C841 C845 1.429 . S
C842 C825 1.574 . S
C842 H836 0.949 . S
C842 C846 1.368 . S
C843 C824 1.429 . S
C843 C837 1.429 . S
C843 C844 1.523 . S
C844 C825 1.368 . S
C844 C838 1.368 . S
C844 C843 1.523 . S
C845 C829 1.429 . S
C845 C841 1.429 . S
C845 C846 1.523 . S
C846 C830 1.368 . S
C846 C842 1.368 . S
C846 C845 1.523 . S
H847 C822 0.950 . S
H848 C824 0.950 . S
H849 C825 0.949 . S
H850 C827 0.950 . S
H851 C829 0.950 . S
C852 C853 1.349 . S
C852 C854 1.327 . S
C852 H877 0.950 . S
C853 C852 1.349 . S
C853 C869 1.349 . S
C854 C852 1.327 . S
C854 C873 1.429 . S
C854 H878 0.950 . S
C855 C872 1.574 1_545 S
C855 C874 1.368 . S
C855 H879 0.949 . S
H856 C860 0.949 . S
C857 C858 1.349 . S
C857 C859 1.327 . S
C857 H880 0.950 . S
C858 C857 1.349 . S
C858 C870 1.349 . S
C859 C857 1.327 . S
C859 C875 1.429 1_554 S
C859 H881 0.950 . S
C860 H856 0.949 . S
C860 C868 1.574 . S
C860 C876 1.368 1_545 S
H861 C869 0.950 . S
H862 C867 0.950 . S
H863 C868 0.949 . S
H864 C870 0.957 . S
H865 C871 0.950 . S
H866 C872 0.949 1_554 S
C867 H862 0.950 . S
C867 C869 1.327 . S
C867 C873 1.429 . S
C868 C860 1.574 . S
C868 H863 0.949 . S
C868 C874 1.368 . S
C869 C853 1.349 . S
C869 H861 0.950 . S
C869 C867 1.327 . S
C870 C858 1.349 . S
C870 H864 0.957 . S
C870 C871 1.327 1_554 S
C871 H865 0.950 . S
C871 C870 1.327 1_556 S
C871 C875 1.429 . S
C872 C855 1.574 1_565 S
C872 H866 0.949 1_556 S
C872 C876 1.368 . S
C873 C854 1.429 . S
C873 C867 1.429 . S
C873 C874 1.523 . S
C874 C855 1.368 . S
C874 C868 1.368 . S
C874 C873 1.523 . S
C875 C859 1.429 1_556 S
C875 C871 1.429 . S
C875 C876 1.523 . S
C876 C860 1.368 1_565 S
C876 C872 1.368 . S
C876 C875 1.523 . S
H877 C852 0.950 . S
H878 C854 0.950 . S
H879 C855 0.949 . S
H880 C857 0.950 . S
H881 C859 0.950 . S
C882 C883 1.349 . S
C882 C884 1.327 . S
C882 H907 0.950 . S
C883 C882 1.349 . S
C883 C899 1.349 . S
C884 C882 1.327 . S
C884 C903 1.429 . S
C884 H908 0.950 . S
C885 C902 1.574 . S
C885 C904 1.368 . S
C885 H909 0.949 . S
H886 C890 0.949 . S
C887 C888 1.349 . S
C887 C889 1.327 . S
C887 H910 0.950 . S
C888 C887 1.349 . S
C888 C900 1.349 . S
C889 C887 1.327 . S
C889 C905 1.429 . S
C889 H911 0.950 . S
C890 H886 0.949 . S
C890 C898 1.574 . S
C890 C906 1.368 . S
H891 C899 0.950 . S
H892 C897 0.950 . S
H893 C898 0.949 . S
H894 C900 0.950 . S
H895 C901 0.950 . S
H896 C902 0.949 . S
C897 H892 0.950 . S
C897 C899 1.327 . S
C897 C903 1.429 . S
C898 C890 1.574 . S
C898 H893 0.949 . S
C898 C904 1.368 . S
C899 C883 1.349 . S
C899 H891 0.950 . S
C899 C897 1.327 . S
C900 C888 1.349 . S
C900 H894 0.950 . S
C900 C901 1.327 . S
C901 H895 0.950 . S
C901 C900 1.327 . S
C901 C905 1.429 . S
C902 C885 1.574 . S
C902 H896 0.949 . S
C902 C906 1.368 . S
C903 C884 1.429 . S
C903 C897 1.429 . S
C903 C904 1.523 . S
C904 C885 1.368 . S
C904 C898 1.368 . S
C904 C903 1.523 . S
C905 C889 1.429 . S
C905 C901 1.429 . S
C905 C906 1.523 . S
C906 C890 1.368 . S
C906 C902 1.368 . S
C906 C905 1.523 . S
H907 C882 0.950 . S
H908 C884 0.950 . S
H909 C885 0.949 . S
H910 C887 0.950 . S
H911 C889 0.950 . S
C912 C913 1.349 . S
C912 C914 1.327 . S
C912 H937 0.950 . S
C913 C912 1.349 . S
C913 C929 1.318 1_565 S
C914 C912 1.327 . S
C914 C933 1.429 1_565 S
C914 H938 0.950 . S
C915 C932 1.574 . S
C915 C934 1.368 . S
C915 H939 0.949 . S
H916 C920 0.949 . S
C917 C918 1.349 . S
C917 C919 1.327 . S
C917 H940 0.950 . S
C918 C917 1.349 . S
C918 C930 1.349 . S
C919 C917 1.327 . S
C919 C935 1.429 . S
C919 H941 0.950 . S
C920 H916 0.949 . S
C920 C928 1.574 . S
C920 C936 1.368 . S
H921 C929 0.960 . S
H922 C927 0.950 . S
H923 C928 0.949 . S
H924 C930 0.950 . S
H925 C931 0.950 . S
H926 C932 0.949 . S
C927 H922 0.950 . S
C927 C929 1.348 . S
C927 C933 1.429 . S
C928 C920 1.574 . S
C928 H923 0.949 . S
C928 C934 1.368 . S
C929 C913 1.318 1_545 S
C929 H921 0.960 . S
C929 C927 1.348 . S
C930 C918 1.349 . S
C930 H924 0.950 . S
C930 C931 1.327 . S
C931 H925 0.950 . S
C931 C930 1.327 . S
C931 C935 1.429 . S
C932 C915 1.574 . S
C932 H926 0.949 . S
C932 C936 1.368 . S
C933 C914 1.429 1_545 S
C933 C927 1.429 . S
C933 C934 1.523 . S
C934 C915 1.368 . S
C934 C928 1.368 . S
C934 C933 1.523 . S
C935 C919 1.429 . S
C935 C931 1.429 . S
C935 C936 1.523 . S
C936 C920 1.368 . S
C936 C932 1.368 . S
C936 C935 1.523 . S
H937 C912 0.950 . S
H938 C914 0.950 . S
H939 C915 0.949 . S
H940 C917 0.950 . S
H941 C919 0.950 . S
C942 C943 1.349 . S
C942 C944 1.327 . S
C942 H967 0.950 . S
C943 C942 1.349 . S
C943 C959 1.349 . S
C944 C942 1.327 . S
C944 C963 1.429 . S
C944 H968 0.950 . S
C945 C962 1.574 . S
C945 C964 1.368 . S
C945 H969 0.949 . S
H946 C950 0.949 . S
C947 C948 1.349 . S
C947 C949 1.327 . S
C947 H970 0.950 . S
C948 C947 1.349 . S
C948 C960 1.349 . S
C949 C947 1.327 . S
C949 C965 1.429 . S
C949 H971 0.950 . S
C950 H946 0.949 . S
C950 C958 1.574 . S
C950 C966 1.368 . S
H951 C959 0.950 . S
H952 C957 0.950 . S
H953 C958 0.949 . S
H954 C960 0.950 . S
H955 C961 0.950 . S
H956 C962 0.949 . S
C957 H952 0.950 . S
C957 C959 1.327 . S
C957 C963 1.429 . S
C958 C950 1.574 . S
C958 H953 0.949 . S
C958 C964 1.368 . S
C959 C943 1.349 . S
C959 H951 0.950 . S
C959 C957 1.327 . S
C960 C948 1.349 . S
C960 H954 0.950 . S
C960 C961 1.327 . S
C961 H955 0.950 . S
C961 C960 1.327 . S
C961 C965 1.429 . S
C962 C945 1.574 . S
C962 H956 0.949 . S
C962 C966 1.368 . S
C963 C944 1.429 . S
C963 C957 1.429 . S
C963 C964 1.523 . S
C964 C945 1.368 . S
C964 C958 1.368 . S
C964 C963 1.523 . S
C965 C949 1.429 . S
C965 C961 1.429 . S
C965 C966 1.523 . S
C966 C950 1.368 . S
C966 C962 1.368 . S
C966 C965 1.523 . S
H967 C942 0.950 . S
H968 C944 0.950 . S
H969 C945 0.949 . S
H970 C947 0.950 . S
H971 C949 0.950 . S
C972 C973 1.349 . S
C972 C974 1.327 . S
C972 H997 0.950 . S
C973 C972 1.349 . S
C973 C989 1.349 . S
C974 C972 1.327 . S
C974 C993 1.429 . S
C974 H998 0.950 . S
C975 C992 1.574 . S
C975 C994 1.368 . S
C975 H999 0.949 . S
H976 C980 0.949 . S
C977 C978 1.349 . S
C977 C979 1.327 . S
C977 H1000 0.950 . S
C978 C977 1.349 . S
C978 C990 1.349 . S
C979 C977 1.327 . S
C979 C995 1.429 . S
C979 H1001 0.950 . S
C980 H976 0.949 . S
C980 C988 1.577 . S
C980 C996 1.368 . S
H981 C989 0.950 . S
H982 C987 0.907 1_545 S
H983 C988 0.945 1_565 S
H984 C990 0.950 . S
H985 C991 0.950 . S
H986 C992 0.949 . S
C987 H982 0.907 1_565 S
C987 C989 1.327 . S
C987 C993 1.429 . S
C988 C980 1.577 . S
C988 H983 0.945 1_545 S
C988 C994 1.369 . S
C989 C973 1.349 . S
C989 H981 0.950 . S
C989 C987 1.327 . S
C990 C978 1.349 . S
C990 H984 0.950 . S
C990 C991 1.327 . S
C991 H985 0.950 . S
C991 C990 1.327 . S
C991 C995 1.429 . S
C992 C975 1.574 . S
C992 H986 0.949 . S
C992 C996 1.368 . S
C993 C974 1.429 . S
C993 C987 1.429 . S
C993 C994 1.523 1_565 S
C994 C975 1.368 . S
C994 C988 1.369 . S
C994 C993 1.523 1_545 S
C995 C979 1.429 . S
C995 C991 1.429 . S
C995 C996 1.523 . S
C996 C980 1.368 . S
C996 C992 1.368 . S
C996 C995 1.523 . S
H997 C972 0.950 . S
H998 C974 0.950 . S
H999 C975 0.949 . S
H1000 C977 0.950 . S
H1001 C979 0.950 . S
C1002 C1003 1.349 . S
C1002 C1004 1.327 . S
C1002 H1027 0.950 . S
C1003 C1002 1.349 . S
C1003 C1019 1.349 . S
C1004 C1002 1.327 . S
C1004 C1023 1.429 . S
C1004 H1028 0.950 . S
C1005 C1022 1.574 . S
C1005 C1024 1.368 . S
C1005 H1029 0.949 . S
H1006 C1010 0.949 . S
C1007 C1008 1.349 . S
C1007 C1009 1.327 . S
C1007 H1030 0.950 . S
C1008 C1007 1.349 . S
C1008 C1020 1.349 . S
C1009 C1007 1.327 . S
C1009 C1025 1.429 . S
C1009 H1031 0.950 . S
C1010 H1006 0.949 . S
C1010 C1018 1.574 . S
C1010 C1026 1.368 . S
H1011 C1019 0.950 . S
H1012 C1017 0.950 . S
H1013 C1018 0.949 . S
H1014 C1020 0.950 . S
H1015 C1021 0.950 . S
H1016 C1022 0.949 . S
C1017 H1012 0.950 . S
C1017 C1019 1.327 . S
C1017 C1023 1.429 . S
C1018 C1010 1.574 . S
C1018 H1013 0.949 . S
C1018 C1024 1.368 . S
C1019 C1003 1.349 . S
C1019 H1011 0.950 . S
C1019 C1017 1.327 . S
C1020 C1008 1.349 . S
C1020 H1014 0.950 . S
C1020 C1021 1.327 . S
C1021 H1015 0.950 . S
C1021 C1020 1.327 . S
C1021 C1025 1.429 . S
C1022 C1005 1.574 . S
C1022 H1016 0.949 . S
C1022 C1026 1.368 . S
C1023 C1004 1.429 . S
C1023 C1017 1.429 . S
C1023 C1024 1.523 . S
C1024 C1005 1.368 . S
C1024 C1018 1.368 . S
C1024 C1023 1.523 . S
C1025 C1009 1.429 . S
C1025 C1021 1.429 . S
C1025 C1026 1.523 . S
C1026 C1010 1.368 . S
C1026 C1022 1.368 . S
C1026 C1025 1.523 . S
H1027 C1002 0.950 . S
H1028 C1004 0.950 . S
H1029 C1005 0.949 . S
H1030 C1007 0.950 . S
H1031 C1009 0.950 . S
C1032 C1033 1.349 . S
C1032 C1034 1.327 . S
C1032 H1057 0.950 . S
C1033 C1032 1.349 . S
C1033 C1049 1.349 . S
C1034 C1032 1.327 . S
C1034 C1053 1.429 . S
C1034 H1058 0.950 . S
C1035 C1052 1.574 . S
C1035 C1054 1.368 . S
C1035 H1059 0.949 . S
H1036 C1040 0.949 . S
C1037 C1038 1.349 . S
C1037 C1039 1.327 . S
C1037 H1060 0.950 . S
C1038 C1037 1.349 . S
C1038 C1050 1.349 . S
C1039 C1037 1.327 . S
C1039 C1055 1.429 . S
C1039 H1061 0.950 . S
C1040 H1036 0.949 . S
C1040 C1048 1.574 . S
C1040 C1056 1.368 . S
H1041 C1049 0.950 . S
H1042 C1047 0.950 . S
H1043 C1048 0.949 . S
H1044 C1050 0.950 . S
H1045 C1051 0.950 . S
H1046 C1052 0.949 . S
C1047 H1042 0.950 . S
C1047 C1049 1.327 . S
C1047 C1053 1.429 . S
C1048 C1040 1.574 . S
C1048 H1043 0.949 . S
C1048 C1054 1.368 . S
C1049 C1033 1.349 . S
C1049 H1041 0.950 . S
C1049 C1047 1.327 . S
C1050 C1038 1.349 . S
C1050 H1044 0.950 . S
C1050 C1051 1.327 . S
C1051 H1045 0.950 . S
C1051 C1050 1.327 . S
C1051 C1055 1.429 . S
C1052 C1035 1.574 . S
C1052 H1046 0.949 . S
C1052 C1056 1.368 . S
C1053 C1034 1.429 . S
C1053 C1047 1.429 . S
C1053 C1054 1.523 . S
C1054 C1035 1.368 . S
C1054 C1048 1.368 . S
C1054 C1053 1.523 . S
C1055 C1039 1.429 . S
C1055 C1051 1.429 . S
C1055 C1056 1.523 . S
C1056 C1040 1.368 . S
C1056 C1052 1.368 . S
C1056 C1055 1.523 . S
H1057 C1032 0.950 . S
H1058 C1034 0.950 . S
H1059 C1035 0.949 . S
H1060 C1037 0.950 . S
H1061 C1039 0.950 . S
C1062 C1063 1.349 . S
C1062 C1064 1.327 . S
C1062 H1087 0.950 . S
C1063 C1062 1.349 . S
C1063 C1079 1.349 . S
C1064 C1062 1.327 . S
C1064 C1083 1.429 . S
C1064 H1088 0.950 . S
C1065 C1082 1.574 . S
C1065 C1084 1.368 . S
C1065 H1089 0.949 . S
H1066 C1070 0.949 . S
C1067 C1068 1.349 . S
C1067 C1069 1.327 . S
C1067 H1090 0.950 . S
C1068 C1067 1.349 . S
C1068 C1080 1.349 . S
C1069 C1067 1.327 . S
C1069 C1085 1.429 . S
C1069 H1091 0.950 . S
C1070 H1066 0.949 . S
C1070 C1078 1.574 . S
C1070 C1086 1.368 . S
H1071 C1079 0.950 . S
H1072 C1077 0.950 . S
H1073 C1078 0.949 . S
H1074 C1080 0.950 . S
H1075 C1081 0.950 . S
H1076 C1082 0.949 . S
C1077 H1072 0.950 . S
C1077 C1079 1.327 . S
C1077 C1083 1.429 . S
C1078 C1070 1.574 . S
C1078 H1073 0.949 . S
C1078 C1084 1.368 . S
C1079 C1063 1.349 . S
C1079 H1071 0.950 . S
C1079 C1077 1.327 . S
C1080 C1068 1.349 . S
C1080 H1074 0.950 . S
C1080 C1081 1.327 . S
C1081 H1075 0.950 . S
C1081 C1080 1.327 . S
C1081 C1085 1.429 . S
C1082 C1065 1.574 . S
C1082 H1076 0.949 . S
C1082 C1086 1.368 . S
C1083 C1064 1.429 . S
C1083 C1077 1.429 . S
C1083 C1084 1.523 . S
C1084 C1065 1.368 . S
C1084 C1078 1.368 . S
C1084 C1083 1.523 . S
C1085 C1069 1.429 . S
C1085 C1081 1.429 . S
C1085 C1086 1.523 . S
C1086 C1070 1.368 . S
C1086 C1082 1.368 . S
C1086 C1085 1.523 . S
H1087 C1062 0.950 . S
H1088 C1064 0.950 . S
H1089 C1065 0.949 . S
H1090 C1067 0.950 . S
H1091 C1069 0.950 . S
C1092 C1093 1.349 . S
C1092 C1094 1.327 . S
C1092 H1117 0.950 . S
C1093 C1092 1.349 . S
C1093 C1109 1.349 . S
C1094 C1092 1.327 . S
C1094 C1113 1.429 . S
C1094 H1118 0.950 . S
C1095 C1112 1.574 . S
C1095 C1114 1.368 . S
C1095 H1119 0.949 . S
H1096 C1100 0.949 . S
C1097 C1098 1.349 . S
C1097 C1099 1.327 . S
C1097 H1120 0.950 . S
C1098 C1097 1.349 . S
C1098 C1110 1.349 . S
C1099 C1097 1.327 . S
C1099 C1115 1.429 . S
C1099 H1121 0.950 . S
C1100 H1096 0.949 . S
C1100 C1108 1.574 . S
C1100 C1116 1.368 . S
H1101 C1109 0.950 . S
H1102 C1107 0.950 . S
H1103 C1108 0.949 . S
H1104 C1110 0.950 . S
H1105 C1111 0.950 . S
H1106 C1112 0.949 . S
C1107 H1102 0.950 . S
C1107 C1109 1.327 . S
C1107 C1113 1.429 . S
C1108 C1100 1.574 . S
C1108 H1103 0.949 . S
C1108 C1114 1.368 . S
C1109 C1093 1.349 . S
C1109 H1101 0.950 . S
C1109 C1107 1.327 . S
C1110 C1098 1.349 . S
C1110 H1104 0.950 . S
C1110 C1111 1.327 . S
C1111 H1105 0.950 . S
C1111 C1110 1.327 . S
C1111 C1115 1.429 . S
C1112 C1095 1.574 . S
C1112 H1106 0.949 . S
C1112 C1116 1.368 . S
C1113 C1094 1.429 . S
C1113 C1107 1.429 . S
C1113 C1114 1.523 . S
C1114 C1095 1.368 . S
C1114 C1108 1.368 . S
C1114 C1113 1.523 . S
C1115 C1099 1.429 . S
C1115 C1111 1.429 . S
C1115 C1116 1.523 . S
C1116 C1100 1.368 . S
C1116 C1112 1.368 . S
C1116 C1115 1.523 . S
H1117 C1092 0.950 . S
H1118 C1094 0.950 . S
H1119 C1095 0.949 . S
H1120 C1097 0.950 . S
H1121 C1099 0.950 . S
C1122 C1123 1.349 . S
C1122 C1124 1.327 . S
C1122 H1147 0.950 . S
C1123 C1122 1.349 . S
C1123 C1139 1.349 . S
C1124 C1122 1.327 . S
C1124 C1143 1.429 . S
C1124 H1148 0.950 . S
C1125 C1142 1.574 . S
C1125 C1144 1.368 . S
C1125 H1149 0.949 . S
H1126 C1130 0.949 . S
C1127 C1128 1.349 . S
C1127 C1129 1.327 . S
C1127 H1150 0.950 . S
C1128 C1127 1.349 . S
C1128 C1140 1.349 . S
C1129 C1127 1.327 . S
C1129 C1145 1.429 . S
C1129 H1151 0.950 . S
C1130 H1126 0.949 . S
C1130 C1138 1.574 . S
C1130 C1146 1.368 . S
H1131 C1139 0.950 . S
H1132 C1137 0.950 . S
H1133 C1138 0.949 . S
H1134 C1140 0.950 . S
H1135 C1141 0.950 . S
H1136 C1142 0.949 . S
C1137 H1132 0.950 . S
C1137 C1139 1.327 . S
C1137 C1143 1.429 . S
C1138 C1130 1.574 . S
C1138 H1133 0.949 . S
C1138 C1144 1.368 . S
C1139 C1123 1.349 . S
C1139 H1131 0.950 . S
C1139 C1137 1.327 . S
C1140 C1128 1.349 . S
C1140 H1134 0.950 . S
C1140 C1141 1.327 . S
C1141 H1135 0.950 . S
C1141 C1140 1.327 . S
C1141 C1145 1.429 . S
C1142 C1125 1.574 . S
C1142 H1136 0.949 . S
C1142 C1146 1.368 . S
C1143 C1124 1.429 . S
C1143 C1137 1.429 . S
C1143 C1144 1.523 . S
C1144 C1125 1.368 . S
C1144 C1138 1.368 . S
C1144 C1143 1.523 . S
C1145 C1129 1.429 . S
C1145 C1141 1.429 . S
C1145 C1146 1.523 . S
C1146 C1130 1.368 . S
C1146 C1142 1.368 . S
C1146 C1145 1.523 . S
H1147 C1122 0.950 . S
H1148 C1124 0.950 . S
H1149 C1125 0.949 . S
H1150 C1127 0.950 . S
H1151 C1129 0.950 . S
C1152 C1153 1.349 . S
C1152 C1154 1.327 . S
C1152 H1177 0.950 . S
C1153 C1152 1.349 . S
C1153 C1169 1.349 . S
C1154 C1152 1.327 . S
C1154 C1173 1.429 . S
C1154 H1178 0.950 . S
C1155 C1172 1.574 . S
C1155 C1174 1.368 . S
C1155 H1179 0.949 . S
H1156 C1160 0.949 . S
C1157 C1158 1.349 . S
C1157 C1159 1.327 . S
C1157 H1180 0.950 . S
C1158 C1157 1.349 . S
C1158 C1170 1.349 . S
C1159 C1157 1.327 . S
C1159 C1175 1.429 . S
C1159 H1181 0.950 . S
C1160 H1156 0.949 . S
C1160 C1168 1.574 . S
C1160 C1176 1.368 . S
H1161 C1169 0.950 . S
H1162 C1167 0.950 . S
H1163 C1168 0.949 . S
H1164 C1170 0.950 . S
H1165 C1171 0.950 . S
H1166 C1172 0.949 . S
C1167 H1162 0.950 . S
C1167 C1169 1.327 . S
C1167 C1173 1.429 . S
C1168 C1160 1.574 . S
C1168 H1163 0.949 . S
C1168 C1174 1.368 . S
C1169 C1153 1.349 . S
C1169 H1161 0.950 . S
C1169 C1167 1.327 . S
C1170 C1158 1.349 . S
C1170 H1164 0.950 . S
C1170 C1171 1.327 . S
C1171 H1165 0.950 . S
C1171 C1170 1.327 . S
C1171 C1175 1.429 . S
C1172 C1155 1.574 . S
C1172 H1166 0.949 . S
C1172 C1176 1.368 . S
C1173 C1154 1.429 . S
C1173 C1167 1.429 . S
C1173 C1174 1.523 . S
C1174 C1155 1.368 . S
C1174 C1168 1.368 . S
C1174 C1173 1.523 . S
C1175 C1159 1.429 . S
C1175 C1171 1.429 . S
C1175 C1176 1.523 . S
C1176 C1160 1.368 . S
C1176 C1172 1.368 . S
C1176 C1175 1.523 . S
H1177 C1152 0.950 . S
H1178 C1154 0.950 . S
H1179 C1155 0.949 . S
H1180 C1157 0.950 . S
H1181 C1159 0.950 . S
C1182 C1183 1.349 . S
C1182 C1184 1.327 . S
C1182 H1207 0.950 . S
C1183 C1182 1.349 . S
C1183 C1199 1.349 . S
C1184 C1182 1.327 . S
C1184 C1203 1.429 . S
C1184 H1208 0.950 . S
C1185 C1202 1.574 1_455 S
C1185 C1204 1.368 . S
C1185 H1209 0.949 . S
H1186 C1190 0.949 . S
C1187 C1188 1.349 . S
C1187 C1189 1.327 . S
C1187 H1210 0.950 . S
C1188 C1187 1.349 . S
C1188 C1200 1.349 . S
C1189 C1187 1.327 . S
C1189 C1205 1.429 . S
C1189 H1211 0.950 . S
C1190 H1186 0.949 . S
C1190 C1198 1.574 . S
C1190 C1206 1.368 1_455 S
H1191 C1199 0.950 . S
H1192 C1197 0.950 . S
H1193 C1198 0.949 . S
H1194 C1200 0.950 . S
H1195 C1201 0.950 . S
H1196 C1202 0.949 . S
C1197 H1192 0.950 . S
C1197 C1199 1.327 . S
C1197 C1203 1.429 . S
C1198 C1190 1.574 . S
C1198 H1193 0.949 . S
C1198 C1204 1.368 . S
C1199 C1183 1.349 . S
C1199 H1191 0.950 . S
C1199 C1197 1.327 . S
C1200 C1188 1.349 . S
C1200 H1194 0.950 . S
C1200 C1201 1.327 . S
C1201 H1195 0.950 . S
C1201 C1200 1.327 . S
C1201 C1205 1.429 . S
C1202 C1185 1.574 1_655 S
C1202 H1196 0.949 . S
C1202 C1206 1.368 . S
C1203 C1184 1.429 . S
C1203 C1197 1.429 . S
C1203 C1204 1.523 . S
C1204 C1185 1.368 . S
C1204 C1198 1.368 . S
C1204 C1203 1.523 . S
C1205 C1189 1.429 . S
C1205 C1201 1.429 . S
C1205 C1206 1.523 . S
C1206 C1190 1.368 1_655 S
C1206 C1202 1.368 . S
C1206 C1205 1.523 . S
H1207 C1182 0.950 . S
H1208 C1184 0.950 . S
H1209 C1185 0.949 . S
H1210 C1187 0.950 . S
H1211 C1189 0.950 . S
C1212 C1213 1.349 . S
C1212 C1214 1.327 . S
C1212 H1237 0.950 . S
C1213 C1212 1.349 . S
C1213 C1229 1.349 . S
C1214 C1212 1.327 . S
C1214 C1233 1.429 . S
C1214 H1238 0.950 . S
C1215 C1232 1.574 . S
C1215 C1234 1.368 . S
C1215 H1239 0.949 . S
H1216 C1220 0.949 . S
C1217 C1218 1.349 . S
C1217 C1219 1.327 . S
C1217 H1240 0.950 . S
C1218 C1217 1.349 . S
C1218 C1230 1.349 . S
C1219 C1217 1.327 . S
C1219 C1235 1.429 . S
C1219 H1241 0.950 . S
C1220 H1216 0.949 . S
C1220 C1228 1.574 . S
C1220 C1236 1.368 . S
H1221 C1229 0.950 . S
H1222 C1227 0.950 . S
H1223 C1228 0.949 . S
H1224 C1230 0.950 . S
H1225 C1231 0.950 . S
H1226 C1232 0.949 . S
C1227 H1222 0.950 . S
C1227 C1229 1.327 . S
C1227 C1233 1.429 . S
C1228 C1220 1.574 . S
C1228 H1223 0.949 . S
C1228 C1234 1.368 . S
C1229 C1213 1.349 . S
C1229 H1221 0.950 . S
C1229 C1227 1.327 . S
C1230 C1218 1.349 . S
C1230 H1224 0.950 . S
C1230 C1231 1.327 . S
C1231 H1225 0.950 . S
C1231 C1230 1.327 . S
C1231 C1235 1.429 . S
C1232 C1215 1.574 . S
C1232 H1226 0.949 . S
C1232 C1236 1.368 . S
C1233 C1214 1.429 . S
C1233 C1227 1.429 . S
C1233 C1234 1.523 . S
C1234 C1215 1.368 . S
C1234 C1228 1.368 . S
C1234 C1233 1.523 . S
C1235 C1219 1.429 . S
C1235 C1231 1.429 . S
C1235 C1236 1.523 . S
C1236 C1220 1.368 . S
C1236 C1232 1.368 . S
C1236 C1235 1.523 . S
H1237 C1212 0.950 . S
H1238 C1214 0.950 . S
H1239 C1215 0.949 . S
H1240 C1217 0.950 . S
H1241 C1219 0.950 . S
C1242 C1243 1.349 . S
C1242 C1244 1.327 . S
C1242 H1267 0.950 . S
C1243 C1242 1.349 . S
C1243 C1259 1.349 . S
C1244 C1242 1.327 . S
C1244 C1263 1.429 . S
C1244 H1268 0.950 . S
C1245 C1262 1.574 . S
C1245 C1264 1.368 . S
C1245 H1269 0.949 . S
H1246 C1250 0.949 . S
C1247 C1248 1.349 . S
C1247 C1249 1.327 . S
C1247 H1270 0.950 . S
C1248 C1247 1.349 . S
C1248 C1260 1.349 . S
C1249 C1247 1.327 . S
C1249 C1265 1.429 . S
C1249 H1271 0.950 . S
C1250 H1246 0.949 . S
C1250 C1258 1.574 1_455 S
C1250 C1266 1.368 . S
H1251 C1259 0.950 . S
H1252 C1257 0.950 . S
H1253 C1258 0.949 . S
H1254 C1260 0.950 . S
H1255 C1261 0.950 . S
H1256 C1262 0.949 . S
C1257 H1252 0.950 . S
C1257 C1259 1.327 . S
C1257 C1263 1.429 . S
C1258 C1250 1.574 1_655 S
C1258 H1253 0.949 . S
C1258 C1264 1.368 . S
C1259 C1243 1.349 . S
C1259 H1251 0.950 . S
C1259 C1257 1.327 . S
C1260 C1248 1.349 . S
C1260 H1254 0.950 . S
C1260 C1261 1.327 . S
C1261 H1255 0.950 . S
C1261 C1260 1.327 . S
C1261 C1265 1.429 . S
C1262 C1245 1.574 . S
C1262 H1256 0.949 . S
C1262 C1266 1.368 1_655 S
C1263 C1244 1.429 . S
C1263 C1257 1.429 . S
C1263 C1264 1.523 . S
C1264 C1245 1.368 . S
C1264 C1258 1.368 . S
C1264 C1263 1.523 . S
C1265 C1249 1.429 . S
C1265 C1261 1.429 . S
C1265 C1266 1.523 . S
C1266 C1250 1.368 . S
C1266 C1262 1.368 1_455 S
C1266 C1265 1.523 . S
H1267 C1242 0.950 . S
H1268 C1244 0.950 . S
H1269 C1245 0.949 . S
H1270 C1247 0.950 . S
H1271 C1249 0.950 . S
C1272 C1273 1.349 . S
C1272 C1274 1.327 . S
C1272 H1297 0.950 . S
C1273 C1272 1.349 . S
C1273 C1289 1.349 . S
C1274 C1272 1.327 . S
C1274 C1293 1.429 . S
C1274 H1298 0.950 . S
C1275 C1292 1.574 . S
C1275 C1294 1.368 . S
C1275 H1299 0.949 . S
H1276 C1280 0.949 . S
C1277 C1278 1.349 . S
C1277 C1279 1.327 . S
C1277 H1300 0.950 . S
C1278 C1277 1.349 . S
C1278 C1290 1.349 . S
C1279 C1277 1.327 . S
C1279 C1295 1.429 . S
C1279 H1301 0.950 . S
C1280 H1276 0.949 . S
C1280 C1288 1.574 . S
C1280 C1296 1.368 . S
H1281 C1289 0.950 . S
H1282 C1287 0.950 . S
H1283 C1288 0.949 . S
H1284 C1290 0.950 . S
H1285 C1291 0.950 . S
H1286 C1292 0.949 . S
C1287 H1282 0.950 . S
C1287 C1289 1.327 . S
C1287 C1293 1.429 . S
C1288 C1280 1.574 . S
C1288 H1283 0.949 . S
C1288 C1294 1.368 . S
C1289 C1273 1.349 . S
C1289 H1281 0.950 . S
C1289 C1287 1.327 . S
C1290 C1278 1.349 . S
C1290 H1284 0.950 . S
C1290 C1291 1.327 . S
C1291 H1285 0.950 . S
C1291 C1290 1.327 . S
C1291 C1295 1.429 . S
C1292 C1275 1.574 . S
C1292 H1286 0.949 . S
C1292 C1296 1.368 . S
C1293 C1274 1.429 . S
C1293 C1287 1.429 . S
C1293 C1294 1.523 . S
C1294 C1275 1.368 . S
C1294 C1288 1.368 . S
C1294 C1293 1.523 . S
C1295 C1279 1.429 . S
C1295 C1291 1.429 . S
C1295 C1296 1.523 . S
C1296 C1280 1.368 . S
C1296 C1292 1.368 . S
C1296 C1295 1.523 . S
H1297 C1272 0.950 . S
H1298 C1274 0.950 . S
H1299 C1275 0.949 . S
H1300 C1277 0.950 . S
H1301 C1279 0.950 . S
C1302 C1303 1.349 . S
C1302 C1304 1.327 . S
C1302 H1327 0.950 . S
C1303 C1302 1.349 . S
C1303 C1319 1.349 . S
C1304 C1302 1.327 . S
C1304 C1323 1.429 . S
C1304 H1328 0.950 . S
C1305 C1322 1.574 1_554 S
C1305 C1324 1.368 . S
C1305 H1329 0.949 . S
H1306 C1310 0.949 . S
C1307 C1308 1.349 . S
C1307 C1309 1.327 . S
C1307 H1330 0.999 . S
C1308 C1307 1.349 . S
C1308 C1320 1.349 . S
C1309 C1307 1.327 . S
C1309 C1325 1.429 . S
C1309 H1331 0.950 . S
C1310 H1306 0.949 . S
C1310 C1318 1.574 1_556 S
C1310 C1326 1.368 . S
H1311 C1319 0.950 . S
H1312 C1317 0.950 . S
H1313 C1318 0.949 . S
H1314 C1320 0.950 . S
H1315 C1321 0.950 . S
H1316 C1322 0.949 . S
C1317 H1312 0.950 . S
C1317 C1319 1.327 . S
C1317 C1323 1.429 . S
C1318 C1310 1.574 1_554 S
C1318 H1313 0.949 . S
C1318 C1324 1.368 . S
C1319 C1303 1.349 . S
C1319 H1311 0.950 . S
C1319 C1317 1.327 . S
C1320 C1308 1.349 . S
C1320 H1314 0.950 . S
C1320 C1321 1.327 . S
C1321 H1315 0.950 . S
C1321 C1320 1.327 . S
C1321 C1325 1.429 . S
C1322 C1305 1.574 1_556 S
C1322 H1316 0.949 . S
C1322 C1326 1.368 . S
C1323 C1304 1.429 . S
C1323 C1317 1.429 . S
C1323 C1324 1.523 . S
C1324 C1305 1.368 . S
C1324 C1318 1.368 . S
C1324 C1323 1.523 . S
C1325 C1309 1.429 . S
C1325 C1321 1.429 . S
C1325 C1326 1.523 . S
C1326 C1310 1.368 . S
C1326 C1322 1.368 . S
C1326 C1325 1.523 . S
H1327 C1302 0.950 . S
H1328 C1304 0.950 . S
H1329 C1305 0.949 . S
H1330 C1307 0.999 . S
H1331 C1309 0.950 . S
C1332 C1333 1.349 . S
C1332 C1334 1.327 . S
C1332 H1357 0.950 . S
C1333 C1332 1.349 . S
C1333 C1349 1.349 . S
C1334 C1332 1.327 . S
C1334 C1353 1.429 . S
C1334 H1358 0.950 . S
C1335 C1352 1.574 . S
C1335 C1354 1.368 . S
C1335 H1359 0.949 . S
H1336 C1340 0.949 . S
C1337 C1338 1.349 . S
C1337 C1339 1.327 . S
C1337 H1360 0.950 . S
C1338 C1337 1.349 . S
C1338 C1350 1.349 . S
C1339 C1337 1.327 . S
C1339 C1355 1.429 . S
C1339 H1361 0.950 . S
C1340 H1336 0.949 . S
C1340 C1348 1.574 . S
C1340 C1356 1.368 . S
H1341 C1349 0.950 . S
H1342 C1347 0.950 . S
H1343 C1348 0.949 . S
H1344 C1350 0.950 . S
H1345 C1351 0.950 . S
H1346 C1352 0.949 . S
C1347 H1342 0.950 . S
C1347 C1349 1.327 . S
C1347 C1353 1.429 . S
C1348 C1340 1.574 . S
C1348 H1343 0.949 . S
C1348 C1354 1.368 . S
C1349 C1333 1.349 . S
C1349 H1341 0.950 . S
C1349 C1347 1.327 . S
C1350 C1338 1.349 . S
C1350 H1344 0.950 . S
C1350 C1351 1.327 . S
C1351 H1345 0.950 . S
C1351 C1350 1.327 . S
C1351 C1355 1.429 . S
C1352 C1335 1.574 . S
C1352 H1346 0.949 . S
C1352 C1356 1.368 . S
C1353 C1334 1.429 . S
C1353 C1347 1.429 . S
C1353 C1354 1.523 . S
C1354 C1335 1.368 . S
C1354 C1348 1.368 . S
C1354 C1353 1.523 . S
C1355 C1339 1.429 . S
C1355 C1351 1.429 . S
C1355 C1356 1.523 . S
C1356 C1340 1.368 . S
C1356 C1352 1.368 . S
C1356 C1355 1.523 . S
H1357 C1332 0.950 . S
H1358 C1334 0.950 . S
H1359 C1335 0.949 . S
H1360 C1337 0.950 . S
H1361 C1339 0.950 . S
C1362 C1363 1.349 . S
C1362 C1364 1.327 . S
C1362 H1387 0.950 . S
C1363 C1362 1.349 . S
C1363 C1379 1.349 . S
C1364 C1362 1.327 . S
C1364 C1383 1.429 . S
C1364 H1388 0.950 . S
C1365 C1382 1.574 . S
C1365 C1384 1.368 . S
C1365 H1389 0.949 . S
H1366 C1370 0.949 . S
C1367 C1368 1.349 . S
C1367 C1369 1.327 . S
C1367 H1390 0.950 . S
C1368 C1367 1.349 . S
C1368 C1380 1.349 . S
C1369 C1367 1.327 . S
C1369 C1385 1.429 . S
C1369 H1391 0.950 . S
C1370 H1366 0.949 . S
C1370 C1378 1.574 . S
C1370 C1386 1.368 . S
H1371 C1379 0.950 . S
H1372 C1377 0.950 . S
H1373 C1378 0.949 . S
H1374 C1380 0.950 . S
H1375 C1381 0.950 . S
H1376 C1382 0.951 1_556 S
C1377 H1372 0.950 . S
C1377 C1379 1.327 . S
C1377 C1383 1.429 . S
C1378 C1370 1.574 . S
C1378 H1373 0.949 . S
C1378 C1384 1.368 . S
C1379 C1363 1.349 . S
C1379 H1371 0.950 . S
C1379 C1377 1.327 . S
C1380 C1368 1.349 . S
C1380 H1374 0.950 . S
C1380 C1381 1.327 . S
C1381 H1375 0.950 . S
C1381 C1380 1.327 . S
C1381 C1385 1.429 . S
C1382 C1365 1.574 . S
C1382 H1376 0.951 1_554 S
C1382 C1386 1.368 . S
C1383 C1364 1.429 . S
C1383 C1377 1.429 . S
C1383 C1384 1.523 . S
C1384 C1365 1.368 . S
C1384 C1378 1.368 . S
C1384 C1383 1.523 . S
C1385 C1369 1.429 . S
C1385 C1381 1.429 . S
C1385 C1386 1.523 1_556 S
C1386 C1370 1.368 . S
C1386 C1382 1.368 . S
C1386 C1385 1.523 1_554 S
H1387 C1362 0.950 . S
H1388 C1364 0.950 . S
H1389 C1365 0.949 . S
H1390 C1367 0.950 . S
H1391 C1369 0.950 . S
C1392 C1393 1.349 . S
C1392 C1394 1.327 . S
C1392 H1417 0.950 . S
C1393 C1392 1.349 . S
C1393 C1409 1.349 . S
C1394 C1392 1.327 . S
C1394 C1413 1.429 . S
C1394 H1418 0.950 . S
C1395 C1412 1.574 . S
C1395 C1414 1.368 . S
C1395 H1419 0.949 . S
H1396 C1400 0.949 . S
C1397 C1398 1.349 . S
C1397 C1399 1.327 . S
C1397 H1420 0.950 . S
C1398 C1397 1.349 . S
C1398 C1410 1.349 . S
C1399 C1397 1.327 . S
C1399 C1415 1.429 . S
C1399 H1421 0.950 . S
C1400 H1396 0.949 . S
C1400 C1408 1.574 . S
C1400 C1416 1.368 . S
H1401 C1409 0.950 . S
H1402 C1407 0.950 . S
H1403 C1408 0.949 . S
H1404 C1410 0.950 . S
H1405 C1411 0.950 . S
H1406 C1412 0.949 . S
C1407 H1402 0.950 . S
C1407 C1409 1.327 . S
C1407 C1413 1.429 . S
C1408 C1400 1.574 . S
C1408 H1403 0.949 . S
C1408 C1414 1.368 . S
C1409 C1393 1.349 . S
C1409 H1401 0.950 . S
C1409 C1407 1.327 . S
C1410 C1398 1.349 . S
C1410 H1404 0.950 . S
C1410 C1411 1.327 . S
C1411 H1405 0.950 . S
C1411 C1410 1.327 . S
C1411 C1415 1.429 . S
C1412 C1395 1.574 . S
C1412 H1406 0.949 . S
C1412 C1416 1.368 . S
C1413 C1394 1.429 . S
C1413 C1407 1.429 . S
C1413 C1414 1.523 . S
C1414 C1395 1.368 . S
C1414 C1408 1.368 . S
C1414 C1413 1.523 . S
C1415 C1399 1.429 . S
C1415 C1411 1.429 . S
C1415 C1416 1.523 . S
C1416 C1400 1.368 . S
C1416 C1412 1.368 . S
C1416 C1415 1.523 . S
H1417 C1392 0.950 . S
H1418 C1394 0.950 . S
H1419 C1395 0.949 . S
H1420 C1397 0.950 . S
H1421 C1399 0.950 . S
C1422 C1423 1.349 . S
C1422 C1424 1.327 . S
C1422 H1447 0.950 . S
C1423 C1422 1.349 . S
C1423 C1439 1.349 . S
C1424 C1422 1.327 . S
C1424 C1443 1.429 . S
C1424 H1448 0.950 . S
C1425 C1442 1.574 . S
C1425 C1444 1.368 1_554 S
C1425 H1449 0.949 . S
H1426 C1430 0.949 . S
C1427 C1428 1.349 . S
C1427 C1429 1.327 . S
C1427 H1450 0.950 . S
C1428 C1427 1.349 . S
C1428 C1440 1.349 . S
C1429 C1427 1.327 . S
C1429 C1445 1.429 . S
C1429 H1451 0.950 . S
C1430 H1426 0.949 . S
C1430 C1438 1.574 1_554 S
C1430 C1446 1.368 . S
H1431 C1439 0.950 . S
H1432 C1437 0.950 . S
H1433 C1438 0.949 . S
H1434 C1440 0.950 . S
H1435 C1441 0.950 . S
H1436 C1442 0.949 . S
C1437 H1432 0.950 . S
C1437 C1439 1.327 . S
C1437 C1443 1.429 . S
C1438 C1430 1.574 1_556 S
C1438 H1433 0.949 . S
C1438 C1444 1.368 . S
C1439 C1423 1.349 . S
C1439 H1431 0.950 . S
C1439 C1437 1.327 . S
C1440 C1428 1.349 . S
C1440 H1434 0.950 . S
C1440 C1441 1.327 . S
C1441 H1435 0.950 . S
C1441 C1440 1.327 . S
C1441 C1445 1.429 . S
C1442 C1425 1.574 . S
C1442 H1436 0.949 . S
C1442 C1446 1.368 . S
C1443 C1424 1.429 . S
C1443 C1437 1.429 . S
C1443 C1444 1.523 . S
C1444 C1425 1.368 1_556 S
C1444 C1438 1.368 . S
C1444 C1443 1.523 . S
C1445 C1429 1.429 . S
C1445 C1441 1.429 . S
C1445 C1446 1.523 . S
C1446 C1430 1.368 . S
C1446 C1442 1.368 . S
C1446 C1445 1.523 . S
H1447 C1422 0.950 . S
H1448 C1424 0.950 . S
H1449 C1425 0.949 . S
H1450 C1427 0.950 . S
H1451 C1429 0.950 . S
C1452 C1453 1.349 . S
C1452 C1454 1.327 . S
C1452 H1477 0.950 . S
C1453 C1452 1.349 . S
C1453 C1469 1.349 . S
C1454 C1452 1.327 . S
C1454 C1473 1.429 . S
C1454 H1478 0.950 . S
C1455 C1472 1.574 . S
C1455 C1474 1.368 . S
C1455 H1479 0.949 . S
H1456 C1460 0.949 . S
C1457 C1458 1.349 . S
C1457 C1459 1.327 . S
C1457 H1480 0.950 . S
C1458 C1457 1.349 . S
C1458 C1470 1.349 . S
C1459 C1457 1.327 . S
C1459 C1475 1.429 . S
C1459 H1481 0.950 . S
C1460 H1456 0.949 . S
C1460 C1468 1.574 . S
C1460 C1476 1.368 . S
H1461 C1469 0.950 . S
H1462 C1467 0.950 . S
H1463 C1468 0.949 . S
H1464 C1470 0.950 . S
H1465 C1471 0.950 . S
H1466 C1472 0.949 . S
C1467 H1462 0.950 . S
C1467 C1469 1.327 . S
C1467 C1473 1.429 . S
C1468 C1460 1.574 . S
C1468 H1463 0.949 . S
C1468 C1474 1.368 . S
C1469 C1453 1.349 . S
C1469 H1461 0.950 . S
C1469 C1467 1.327 . S
C1470 C1458 1.349 . S
C1470 H1464 0.950 . S
C1470 C1471 1.327 . S
C1471 H1465 0.950 . S
C1471 C1470 1.327 . S
C1471 C1475 1.429 . S
C1472 C1455 1.574 . S
C1472 H1466 0.949 . S
C1472 C1476 1.368 . S
C1473 C1454 1.429 . S
C1473 C1467 1.429 . S
C1473 C1474 1.523 . S
C1474 C1455 1.368 . S
C1474 C1468 1.368 . S
C1474 C1473 1.523 . S
C1475 C1459 1.429 . S
C1475 C1471 1.429 . S
C1475 C1476 1.523 . S
C1476 C1460 1.368 . S
C1476 C1472 1.368 . S
C1476 C1475 1.523 . S
H1477 C1452 0.950 . S
H1478 C1454 0.950 . S
H1479 C1455 0.949 . S
H1480 C1457 0.950 . S
H1481 C1459 0.950 . S
C1482 C1483 1.349 . S
C1482 C1484 1.327 . S
C1482 H1507 0.950 . S
C1483 C1482 1.349 . S
C1483 C1499 1.349 . S
C1484 C1482 1.327 . S
C1484 C1503 1.429 . S
C1484 H1508 0.950 . S
C1485 C1502 1.574 . S
C1485 C1504 1.368 . S
C1485 H1509 0.949 . S
H1486 C1490 0.949 . S
C1487 C1488 1.349 . S
C1487 C1489 1.327 . S
C1487 H1510 0.950 . S
C1488 C1487 1.349 . S
C1488 C1500 1.349 . S
C1489 C1487 1.327 . S
C1489 C1505 1.429 . S
C1489 H1511 0.950 . S
C1490 H1486 0.949 . S
C1490 C1498 1.574 . S
C1490 C1506 1.368 . S
H1491 C1499 0.950 . S
H1492 C1497 0.950 . S
H1493 C1498 0.949 . S
H1494 C1500 0.950 . S
H1495 C1501 0.950 . S
H1496 C1502 0.949 . S
C1497 H1492 0.950 . S
C1497 C1499 1.327 . S
C1497 C1503 1.429 . S
C1498 C1490 1.574 . S
C1498 H1493 0.949 . S
C1498 C1504 1.368 . S
C1499 C1483 1.349 . S
C1499 H1491 0.950 . S
C1499 C1497 1.327 . S
C1500 C1488 1.349 . S
C1500 H1494 0.950 . S
C1500 C1501 1.327 . S
C1501 H1495 0.950 . S
C1501 C1500 1.327 . S
C1501 C1505 1.429 . S
C1502 C1485 1.574 . S
C1502 H1496 0.949 . S
C1502 C1506 1.368 . S
C1503 C1484 1.429 . S
C1503 C1497 1.429 . S
C1503 C1504 1.523 1_556 S
C1504 C1485 1.368 . S
C1504 C1498 1.368 . S
C1504 C1503 1.523 1_554 S
C1505 C1489 1.429 . S
C1505 C1501 1.429 . S
C1505 C1506 1.523 . S
C1506 C1490 1.368 . S
C1506 C1502 1.368 . S
C1506 C1505 1.523 . S
H1507 C1482 0.950 . S
H1508 C1484 0.950 . S
H1509 C1485 0.949 . S
H1510 C1487 0.950 . S
H1511 C1489 0.950 . S
C1512 C1513 1.349 . S
C1512 C1514 1.327 . S
C1512 H1537 0.950 . S
C1513 C1512 1.349 . S
C1513 C1529 1.349 . S
C1514 C1512 1.327 . S
C1514 C1533 1.429 . S
C1514 H1538 0.950 . S
C1515 C1532 1.574 . S
C1515 C1534 1.368 . S
C1515 H1539 0.949 . S
H1516 C1520 0.949 . S
C1517 C1518 1.349 . S
C1517 C1519 1.327 . S
C1517 H1540 0.950 . S
C1518 C1517 1.349 . S
C1518 C1530 1.349 . S
C1519 C1517 1.327 . S
C1519 C1535 1.429 . S
C1519 H1541 0.950 . S
C1520 H1516 0.949 . S
C1520 C1528 1.574 . S
C1520 C1536 1.368 . S
H1521 C1529 0.950 . S
H1522 C1527 0.950 . S
H1523 C1528 0.949 . S
H1524 C1530 0.950 . S
H1525 C1531 0.950 . S
H1526 C1532 0.949 . S
C1527 H1522 0.950 . S
C1527 C1529 1.327 . S
C1527 C1533 1.429 . S
C1528 C1520 1.574 . S
C1528 H1523 0.949 . S
C1528 C1534 1.368 . S
C1529 C1513 1.349 . S
C1529 H1521 0.950 . S
C1529 C1527 1.327 . S
C1530 C1518 1.349 . S
C1530 H1524 0.950 . S
C1530 C1531 1.327 . S
C1531 H1525 0.950 . S
C1531 C1530 1.327 . S
C1531 C1535 1.429 . S
C1532 C1515 1.574 . S
C1532 H1526 0.949 . S
C1532 C1536 1.368 . S
C1533 C1514 1.429 . S
C1533 C1527 1.429 . S
C1533 C1534 1.523 . S
C1534 C1515 1.368 . S
C1534 C1528 1.368 . S
C1534 C1533 1.523 . S
C1535 C1519 1.429 . S
C1535 C1531 1.429 . S
C1535 C1536 1.523 . S
C1536 C1520 1.368 . S
C1536 C1532 1.368 . S
C1536 C1535 1.523 . S
H1537 C1512 0.950 . S
H1538 C1514 0.950 . S
H1539 C1515 0.949 . S
H1540 C1517 0.950 . S
H1541 C1519 0.950 . S
C1542 C1543 1.349 . S
C1542 C1544 1.327 . S
C1542 H1567 0.950 . S
C1543 C1542 1.349 . S
C1543 C1559 1.349 . S
C1544 C1542 1.327 . S
C1544 C1563 1.429 . S
C1544 H1568 0.950 . S
C1545 C1562 1.574 . S
C1545 C1564 1.368 . S
C1545 H1569 0.949 . S
H1546 C1550 0.949 . S
C1547 C1548 1.349 . S
C1547 C1549 1.327 . S
C1547 H1570 0.950 . S
C1548 C1547 1.349 . S
C1548 C1560 1.349 . S
C1549 C1547 1.327 . S
C1549 C1565 1.429 . S
C1549 H1571 0.950 . S
C1550 H1546 0.949 . S
C1550 C1558 1.574 . S
C1550 C1566 1.368 . S
H1551 C1559 0.950 . S
H1552 C1557 0.950 . S
H1553 C1558 0.949 . S
H1554 C1560 0.950 . S
H1555 C1561 0.950 . S
H1556 C1562 0.949 . S
C1557 H1552 0.950 . S
C1557 C1559 1.327 . S
C1557 C1563 1.429 . S
C1558 C1550 1.574 . S
C1558 H1553 0.949 . S
C1558 C1564 1.368 . S
C1559 C1543 1.349 . S
C1559 H1551 0.950 . S
C1559 C1557 1.327 . S
C1560 C1548 1.349 . S
C1560 H1554 0.950 . S
C1560 C1561 1.327 . S
C1561 H1555 0.950 . S
C1561 C1560 1.327 . S
C1561 C1565 1.429 . S
C1562 C1545 1.574 . S
C1562 H1556 0.949 . S
C1562 C1566 1.368 . S
C1563 C1544 1.429 . S
C1563 C1557 1.429 . S
C1563 C1564 1.523 . S
C1564 C1545 1.368 . S
C1564 C1558 1.368 . S
C1564 C1563 1.523 . S
C1565 C1549 1.429 . S
C1565 C1561 1.429 . S
C1565 C1566 1.523 . S
C1566 C1550 1.368 . S
C1566 C1562 1.368 . S
C1566 C1565 1.523 . S
H1567 C1542 0.950 . S
H1568 C1544 0.950 . S
H1569 C1545 0.949 . S
H1570 C1547 0.950 . S
H1571 C1549 0.950 . S
C1572 C1573 1.349 . S
C1572 C1574 1.327 . S
C1572 H1597 0.950 . S
C1573 C1572 1.349 . S
C1573 C1589 1.349 . S
C1574 C1572 1.327 . S
C1574 C1593 1.429 . S
C1574 H1598 0.950 . S
C1575 C1592 1.574 . S
C1575 C1594 1.368 . S
C1575 H1599 0.949 . S
H1576 C1580 0.949 . S
C1577 C1578 1.349 . S
C1577 C1579 1.327 . S
C1577 H1600 0.950 . S
C1578 C1577 1.349 . S
C1578 C1590 1.349 . S
C1579 C1577 1.327 . S
C1579 C1595 1.429 . S
C1579 H1601 0.950 . S
C1580 H1576 0.949 . S
C1580 C1588 1.574 . S
C1580 C1596 1.368 . S
H1581 C1589 0.950 . S
H1582 C1587 0.950 . S
H1583 C1588 0.949 . S
H1584 C1590 0.950 . S
H1585 C1591 0.950 . S
H1586 C1592 0.949 . S
C1587 H1582 0.950 . S
C1587 C1589 1.327 . S
C1587 C1593 1.429 . S
C1588 C1580 1.574 . S
C1588 H1583 0.949 . S
C1588 C1594 1.368 . S
C1589 C1573 1.349 . S
C1589 H1581 0.950 . S
C1589 C1587 1.327 . S
C1590 C1578 1.349 . S
C1590 H1584 0.950 . S
C1590 C1591 1.327 . S
C1591 H1585 0.950 . S
C1591 C1590 1.327 . S
C1591 C1595 1.429 . S
C1592 C1575 1.574 . S
C1592 H1586 0.949 . S
C1592 C1596 1.368 . S
C1593 C1574 1.429 . S
C1593 C1587 1.429 . S
C1593 C1594 1.523 . S
C1594 C1575 1.368 . S
C1594 C1588 1.368 . S
C1594 C1593 1.523 . S
C1595 C1579 1.429 . S
C1595 C1591 1.429 . S
C1595 C1596 1.523 . S
C1596 C1580 1.368 . S
C1596 C1592 1.368 . S
C1596 C1595 1.523 . S
H1597 C1572 0.950 . S
H1598 C1574 0.950 . S
H1599 C1575 0.949 . S
H1600 C1577 0.950 . S
H1601 C1579 0.950 . S
C1602 C1603 1.349 . S
C1602 C1604 1.327 . S
C1602 H1627 0.950 . S
C1603 C1602 1.349 . S
C1603 C1619 1.349 . S
C1604 C1602 1.327 . S
C1604 C1623 1.429 . S
C1604 H1628 0.950 . S
C1605 C1622 1.574 . S
C1605 C1624 1.368 . S
C1605 H1629 0.949 . S
H1606 C1610 0.949 . S
C1607 C1608 1.349 . S
C1607 C1609 1.327 . S
C1607 H1630 0.950 . S
C1608 C1607 1.349 . S
C1608 C1620 1.349 . S
C1609 C1607 1.327 . S
C1609 C1625 1.429 . S
C1609 H1631 0.950 . S
C1610 H1606 0.949 . S
C1610 C1618 1.574 . S
C1610 C1626 1.368 . S
H1611 C1619 0.950 . S
H1612 C1617 0.950 . S
H1613 C1618 0.949 . S
H1614 C1620 0.950 . S
H1615 C1621 0.950 . S
H1616 C1622 0.949 . S
C1617 H1612 0.950 . S
C1617 C1619 1.327 . S
C1617 C1623 1.429 . S
C1618 C1610 1.574 . S
C1618 H1613 0.949 . S
C1618 C1624 1.368 . S
C1619 C1603 1.349 . S
C1619 H1611 0.950 . S
C1619 C1617 1.327 . S
C1620 C1608 1.349 . S
C1620 H1614 0.950 . S
C1620 C1621 1.327 . S
C1621 H1615 0.950 . S
C1621 C1620 1.327 . S
C1621 C1625 1.429 . S
C1622 C1605 1.574 . S
C1622 H1616 0.949 . S
C1622 C1626 1.368 . S
C1623 C1604 1.429 . S
C1623 C1617 1.429 . S
C1623 C1624 1.523 . S
C1624 C1605 1.368 . S
C1624 C1618 1.368 . S
C1624 C1623 1.523 . S
C1625 C1609 1.429 . S
C1625 C1621 1.429 . S
C1625 C1626 1.523 . S
C1626 C1610 1.368 . S
C1626 C1622 1.368 . S
C1626 C1625 1.523 . S
H1627 C1602 0.950 . S
H1628 C1604 0.950 . S
H1629 C1605 0.949 . S
H1630 C1607 0.950 . S
H1631 C1609 0.950 . S
C1632 C1633 1.349 . S
C1632 C1634 1.327 . S
C1632 H1657 0.950 . S
C1633 C1632 1.349 . S
C1633 C1649 1.349 . S
C1634 C1632 1.327 . S
C1634 C1653 1.429 . S
C1634 H1658 0.950 . S
C1635 C1652 1.574 . S
C1635 C1654 1.368 . S
C1635 H1659 0.949 . S
H1636 C1640 0.949 . S
C1637 C1638 1.349 . S
C1637 C1639 1.327 . S
C1637 H1660 0.950 1_556 S
C1638 C1637 1.349 . S
C1638 C1650 1.349 . S
C1639 C1637 1.327 . S
C1639 C1655 1.429 . S
C1639 H1661 0.950 . S
C1640 H1636 0.949 . S
C1640 C1648 1.574 . S
C1640 C1656 1.368 . S
H1641 C1649 0.950 . S
H1642 C1647 0.950 . S
H1643 C1648 0.949 . S
H1644 C1650 0.950 . S
H1645 C1651 0.950 . S
H1646 C1652 0.949 . S
C1647 H1642 0.950 . S
C1647 C1649 1.327 . S
C1647 C1653 1.429 . S
C1648 C1640 1.574 . S
C1648 H1643 0.949 . S
C1648 C1654 1.368 . S
C1649 C1633 1.349 . S
C1649 H1641 0.950 . S
C1649 C1647 1.327 . S
C1650 C1638 1.349 . S
C1650 H1644 0.950 . S
C1650 C1651 1.327 . S
C1651 H1645 0.950 . S
C1651 C1650 1.327 . S
C1651 C1655 1.429 . S
C1652 C1635 1.574 . S
C1652 H1646 0.949 . S
C1652 C1656 1.368 . S
C1653 C1634 1.429 . S
C1653 C1647 1.429 . S
C1653 C1654 1.523 . S
C1654 C1635 1.368 . S
C1654 C1648 1.368 . S
C1654 C1653 1.523 . S
C1655 C1639 1.429 . S
C1655 C1651 1.429 . S
C1655 C1656 1.523 . S
C1656 C1640 1.368 . S
C1656 C1652 1.368 . S
C1656 C1655 1.523 . S
H1657 C1632 0.950 . S
H1658 C1634 0.950 . S
H1659 C1635 0.949 . S
H1660 C1637 0.950 1_554 S
H1661 C1639 0.950 . S
C1662 C1663 1.349 . S
C1662 C1664 1.327 . S
C1662 H1687 0.950 . S
C1663 C1662 1.349 . S
C1663 C1679 1.349 . S
C1664 C1662 1.327 . S
C1664 C1683 1.429 . S
C1664 H1688 0.950 . S
C1665 C1682 1.574 . S
C1665 C1684 1.368 . S
C1665 H1689 0.949 . S
H1666 C1670 0.949 . S
C1667 C1668 1.349 . S
C1667 C1669 1.327 . S
C1667 H1690 0.950 . S
C1668 C1667 1.349 . S
C1668 C1680 1.349 . S
C1669 C1667 1.327 . S
C1669 C1685 1.429 . S
C1669 H1691 0.950 . S
C1670 H1666 0.949 . S
C1670 C1678 1.574 . S
C1670 C1686 1.368 . S
H1671 C1679 0.950 . S
H1672 C1677 0.950 . S
H1673 C1678 0.949 . S
H1674 C1680 0.950 . S
H1675 C1681 0.950 . S
H1676 C1682 0.949 . S
C1677 H1672 0.950 . S
C1677 C1679 1.327 . S
C1677 C1683 1.429 . S
C1678 C1670 1.574 . S
C1678 H1673 0.949 . S
C1678 C1684 1.368 . S
C1679 C1663 1.349 . S
C1679 H1671 0.950 . S
C1679 C1677 1.327 . S
C1680 C1668 1.349 . S
C1680 H1674 0.950 . S
C1680 C1681 1.327 . S
C1681 H1675 0.950 . S
C1681 C1680 1.327 . S
C1681 C1685 1.429 . S
C1682 C1665 1.574 . S
C1682 H1676 0.949 . S
C1682 C1686 1.368 . S
C1683 C1664 1.429 . S
C1683 C1677 1.429 . S
C1683 C1684 1.523 . S
C1684 C1665 1.368 . S
C1684 C1678 1.368 . S
C1684 C1683 1.523 . S
C1685 C1669 1.429 . S
C1685 C1681 1.429 . S
C1685 C1686 1.523 . S
C1686 C1670 1.368 . S
C1686 C1682 1.368 . S
C1686 C1685 1.523 . S
H1687 C1662 0.950 . S
H1688 C1664 0.950 . S
H1689 C1665 0.949 . S
H1690 C1667 0.950 . S
H1691 C1669 0.950 . S
C1692 C1693 1.349 . S
C1692 C1694 1.327 . S
C1692 H1717 0.950 . S
C1693 C1692 1.349 . S
C1693 C1709 1.349 . S
C1694 C1692 1.327 . S
C1694 C1713 1.429 . S
C1694 H1718 0.950 . S
C1695 C1712 1.574 . S
C1695 C1714 1.368 . S
C1695 H1719 0.949 . S
H1696 C1700 0.949 . S
C1697 C1698 1.349 . S
C1697 C1699 1.327 . S
C1697 H1720 0.950 . S
C1698 C1697 1.349 . S
C1698 C1710 1.349 . S
C1699 C1697 1.327 . S
C1699 C1715 1.429 . S
C1699 H1721 0.950 . S
C1700 H1696 0.949 . S
C1700 C1708 1.574 . S
C1700 C1716 1.368 . S
H1701 C1709 0.950 . S
H1702 C1707 0.950 . S
H1703 C1708 0.949 . S
H1704 C1710 0.950 . S
H1705 C1711 0.950 . S
H1706 C1712 0.949 . S
C1707 H1702 0.950 . S
C1707 C1709 1.327 . S
C1707 C1713 1.429 . S
C1708 C1700 1.574 . S
C1708 H1703 0.949 . S
C1708 C1714 1.368 . S
C1709 C1693 1.349 . S
C1709 H1701 0.950 . S
C1709 C1707 1.327 . S
C1710 C1698 1.349 . S
C1710 H1704 0.950 . S
C1710 C1711 1.327 . S
C1711 H1705 0.950 . S
C1711 C1710 1.327 . S
C1711 C1715 1.429 . S
C1712 C1695 1.574 . S
C1712 H1706 0.949 . S
C1712 C1716 1.368 . S
C1713 C1694 1.429 . S
C1713 C1707 1.429 . S
C1713 C1714 1.523 . S
C1714 C1695 1.368 . S
C1714 C1708 1.368 . S
C1714 C1713 1.523 . S
C1715 C1699 1.429 . S
C1715 C1711 1.429 . S
C1715 C1716 1.523 . S
C1716 C1700 1.368 . S
C1716 C1712 1.368 . S
C1716 C1715 1.523 . S
H1717 C1692 0.950 . S
H1718 C1694 0.950 . S
H1719 C1695 0.949 . S
H1720 C1697 0.950 . S
H1721 C1699 0.950 . S
C1722 C1723 1.349 . S
C1722 C1724 1.327 . S
C1722 H1747 0.950 . S
C1723 C1722 1.349 . S
C1723 C1739 1.349 . S
C1724 C1722 1.327 . S
C1724 C1743 1.429 . S
C1724 H1748 0.950 . S
C1725 C1742 1.574 . S
C1725 C1744 1.368 . S
C1725 H1749 0.949 . S
H1726 C1730 0.949 . S
C1727 C1728 1.349 . S
C1727 C1729 1.327 1_565 S
C1727 H1750 0.950 . S
C1728 C1727 1.349 . S
C1728 C1740 1.349 . S
C1729 C1727 1.327 1_545 S
C1729 C1745 1.429 . S
C1729 H1751 0.950 . S
C1730 H1726 0.949 . S
C1730 C1738 1.574 . S
C1730 C1746 1.368 . S
H1731 C1739 0.950 . S
H1732 C1737 0.950 . S
H1733 C1738 0.949 . S
H1734 C1740 0.950 . S
H1735 C1741 0.950 . S
H1736 C1742 0.949 . S
C1737 H1732 0.950 . S
C1737 C1739 1.327 . S
C1737 C1743 1.429 . S
C1738 C1730 1.574 . S
C1738 H1733 0.949 . S
C1738 C1744 1.368 . S
C1739 C1723 1.349 . S
C1739 H1731 0.950 . S
C1739 C1737 1.327 . S
C1740 C1728 1.349 . S
C1740 H1734 0.950 . S
C1740 C1741 1.327 . S
C1741 H1735 0.950 . S
C1741 C1740 1.327 . S
C1741 C1745 1.429 1_565 S
C1742 C1725 1.574 . S
C1742 H1736 0.949 . S
C1742 C1746 1.368 . S
C1743 C1724 1.429 . S
C1743 C1737 1.429 . S
C1743 C1744 1.523 . S
C1744 C1725 1.368 . S
C1744 C1738 1.368 . S
C1744 C1743 1.523 . S
C1745 C1729 1.429 . S
C1745 C1741 1.429 1_545 S
C1745 C1746 1.523 . S
C1746 C1730 1.368 . S
C1746 C1742 1.368 . S
C1746 C1745 1.523 . S
H1747 C1722 0.950 . S
H1748 C1724 0.950 . S
H1749 C1725 0.949 . S
H1750 C1727 0.950 . S
H1751 C1729 0.950 . S
C318 C152 1.618 1_556 S
C313 C50 1.626 . S
C348 C167 1.653 . S
C343 C61 1.681 . S
C373 C67 1.712 . S
C378 C180 1.697 . S
C408 C194 1.460 . S
C403 C41 1.491 . S
C438 C206 1.643 . S
C433 C95 1.702 . S
C468 C220 1.214 . S
C463 C113 1.231 . S
C493 C106 1.756 . S
C498 C234 1.715 . S
C528 C249 1.394 . S
C523 C86 1.411 . S
C553 C104 1.662 . S
C558 C265 1.649 . S
C588 C278 1.435 . S
C583 C88 1.444 . S
C613 C94 1.614 . S
C618 C263 1.570 . S
C648 C276 1.373 . S
C643 C112 1.379 . S
C673 C70 1.831 . S
C678 C292 1.817 . S
C703 C40 1.490 . S
C708 C291 1.467 . S
C733 C49 1.753 . S
C738 C290 1.696 . S
C763 C59 1.584 . S
C768 C293 1.566 . S
C793 C34 1.679 . S
C798 C195 1.671 . S
C823 C133 1.505 . S
C828 C193 1.477 . S
C858 C153 1.488 . S
C853 C139 1.510 . S
C888 C164 1.736 . S
C883 C77 1.765 . S
C913 C43 1.532 . S
C918 C209 1.518 . S
C948 C250 1.885 . S
C943 C103 1.893 . S
C978 C207 1.415 . S
C973 C85 1.427 . S
C1008 C235 1.364 . S
C1003 C115 1.383 . S
C1038 C236 1.618 . S
C1033 C131 1.626 . S
C1063 C142 1.681 . S
C1068 C251 1.653 . S
C1093 C76 1.712 . S
C1098 C208 1.697 . S
C1128 C222 1.460 . S
C1123 C122 1.491 . S
C1153 C32 1.701 . S
C1158 C178 1.643 . S
C1188 C192 1.214 . S
C1183 C5 1.232 . S
C1218 C150 1.715 . S
C1213 C16 1.756 . S
C1248 C165 1.394 . S
C1243 C23 1.411 . S
C1273 C14 1.662 . S
C1278 C279 1.649 . S
C1303 C25 1.444 . S
C1308 C264 1.435 . S
C1333 C31 1.614 . S
C1338 C277 1.570 . S
C1363 C4 1.379 . S
C1368 C262 1.373 . S
C1398 C306 1.817 . S
C1393 C79 1.831 . S
C1428 C305 1.467 . S
C1423 C121 1.490 . S
C1458 C304 1.696 . S
C1453 C130 1.753 . S
C1483 C140 1.584 . S
C1488 C307 1.566 . S
C1513 C97 1.679 . S
C1518 C223 1.671 . S
C1548 C221 1.477 . S
C1543 C52 1.505 . S
C1578 C237 1.488 . S
C1573 C58 1.510 . S
C1608 C248 1.736 . S
C1603 C68 1.765 . S
C1633 C124 1.532 . S
C1638 C181 1.518 . S
C1668 C166 1.885 . S
C1663 C13 1.893 . S
C1693 C22 1.427 . S
C1698 C179 1.415 . S
C1728 C151 1.364 . S
C1723 C7 1.384 . S
