# Generated by pormake.
# Topology anh, (6,3)-cn, num edge types: 1
# Building blocks:
#     Node 0, Type 0, BuildingBlock: BETFAJ_clean_sbu_0, # of connection points: 6
#     Node 1, Type 0, BuildingBlock: BETFAJ_clean_sbu_0, # of connection points: 6
#     Node 2, Type 0, BuildingBlock: BETFAJ_clean_sbu_0, # of connection points: 6
#     Node 3, Type 1, BuildingBlock: BELTOD_clean_linker_0, # of connection points: 3
#     Node 4, Type 1, BuildingBlock: BELTOD_clean_linker_0, # of connection points: 3
#     Node 5, Type 1, BuildingBlock: BELTOD_clean_linker_0, # of connection points: 3
#     Node 6, Type 1, BuildingBlock: BELTOD_clean_linker_0, # of connection points: 3
#     Node 7, Type 1, BuildingBlock: BELTOD_clean_linker_0, # of connection points: 3
#     Node 8, Type 1, BuildingBlock: BELTOD_clean_linker_0, # of connection points: 3
#     Edge 9, Type (0, 1), BuildingBlock: KIFKEQ_clean_linker_1, # of connection points: 2
#     Edge 10, Type (0, 1), BuildingBlock: KIFKEQ_clean_linker_1, # of connection points: 2
#     Edge 11, Type (0, 1), BuildingBlock: KIFKEQ_clean_linker_1, # of connection points: 2
#     Edge 12, Type (0, 1), BuildingBlock: KIFKEQ_clean_linker_1, # of connection points: 2
#     Edge 13, Type (0, 1), BuildingBlock: KIFKEQ_clean_linker_1, # of connection points: 2
#     Edge 14, Type (0, 1), BuildingBlock: KIFKEQ_clean_linker_1, # of connection points: 2
#     Edge 15, Type (0, 1), BuildingBlock: KIFKEQ_clean_linker_1, # of connection points: 2
#     Edge 16, Type (0, 1), BuildingBlock: KIFKEQ_clean_linker_1, # of connection points: 2
#     Edge 17, Type (0, 1), BuildingBlock: KIFKEQ_clean_linker_1, # of connection points: 2
#     Edge 18, Type (0, 1), BuildingBlock: KIFKEQ_clean_linker_1, # of connection points: 2
#     Edge 19, Type (0, 1), BuildingBlock: KIFKEQ_clean_linker_1, # of connection points: 2
#     Edge 20, Type (0, 1), BuildingBlock: KIFKEQ_clean_linker_1, # of connection points: 2
#     Edge 21, Type (0, 1), BuildingBlock: KIFKEQ_clean_linker_1, # of connection points: 2
#     Edge 22, Type (0, 1), BuildingBlock: KIFKEQ_clean_linker_1, # of connection points: 2
#     Edge 23, Type (0, 1), BuildingBlock: KIFKEQ_clean_linker_1, # of connection points: 2
#     Edge 24, Type (0, 1), BuildingBlock: KIFKEQ_clean_linker_1, # of connection points: 2
#     Edge 25, Type (0, 1), BuildingBlock: KIFKEQ_clean_linker_1, # of connection points: 2
#     Edge 26, Type (0, 1), BuildingBlock: KIFKEQ_clean_linker_1, # of connection points: 2
# Relax obj value: 0.178
# Max RMSD: 0.206
# Mean RMSD: 0.148
data_MOF--net-anh--node1-BETFAJ_clean_sbu_0--node2-BELTOD_clean_linker_0--edge1-KIFKEQ_clean_linker_1
_symmetry_space_group_name_H-M    P1
_symmetry_Int_Tables_number       1
_symmetry_cell_setting            triclinic
loop_
_symmetry_equiv_pos_as_xyz
'x, y, z'
_cell_length_a     35.462364
_cell_length_b     41.784186
_cell_length_c     61.958104
_cell_angle_alpha  92.052862
_cell_angle_beta   89.562204
_cell_angle_gamma 128.47543
loop_
_atom_site_label
_atom_site_type_symbol
_atom_site_fract_x
_atom_site_fract_y
_atom_site_fract_z
_atom_type_partial_charge
Sm0 Sm 0.11532 0.53489 0.14153 0.0
Sm1 Sm 0.06007 0.56055 0.16228 0.0
C2 C 0.16811 0.52549 0.11597 0.0
C3 C 0.21594 0.53608 0.11608 0.0
C4 C 0.23229 0.52934 0.0972 0.0
C5 C 0.27313 0.5315 0.09789 0.0
C6 C 0.29807 0.54027 0.11755 0.0
C7 C 0.2836 0.55013 0.13613 0.0
C8 C 0.24274 0.54806 0.1354 0.0
C9 C 0.11584 0.53418 0.18578 0.0
C10 C 0.17127 0.63361 0.15399 0.0
C11 C 1.00034 0.5641 0.18592 0.0
C12 C 0.94806 0.53311 0.18778 0.0
C13 C 0.92299 0.53517 0.20466 0.0
C14 C 0.87332 0.50396 0.20653 0.0
C15 C 0.84875 0.47012 0.1918 0.0
C16 C 0.87419 0.46836 0.17498 0.0
C17 C 0.92324 0.49971 0.17289 0.0
C18 C 0.06 0.5591 0.11766 0.0
C19 C 1.00512 0.46248 0.15194 0.0
O20 O 0.16604 0.55548 0.11427 0.0
O21 O 0.13834 0.49894 0.13009 0.0
O22 O 0.11992 0.56116 0.17498 0.0
O23 O 0.11625 0.5088 0.17334 0.0
O24 O 0.17019 0.60617 0.14191 0.0
O25 O 0.13442 0.62288 0.16598 0.0
O26 O 1.02539 0.55369 0.19363 0.0
O27 O 1.01506 0.58029 0.16701 0.0
O28 O 1.05481 0.5327 0.12934 0.0
O29 O 0.0627 0.58685 0.12939 0.0
O30 O 1.00895 0.49012 0.16493 0.0
O31 O 1.03893 0.47348 0.13783 0.0
H32 H 0.21188 0.52002 0.08219 0.0
H33 H 0.28286 0.52323 0.08333 0.0
H34 H 0.30238 0.55737 0.15144 0.0
H35 H 0.23056 0.55356 0.15012 0.0
H36 H 0.94175 0.56073 0.21632 0.0
H37 H 0.85418 0.50606 0.21948 0.0
H38 H 0.85589 0.44309 0.16313 0.0
H39 H 0.94187 0.49779 0.15962 0.0
Sm40 Sm 0.61891 0.0291 0.47995 0.0
Sm41 Sm 0.55719 0.05789 0.4657 0.0
C42 C 0.6534 1.00276 0.50518 0.0
C43 C 0.64964 0.96616 0.50875 0.0
C44 C 0.64478 0.95346 0.52991 0.0
C45 C 0.64182 0.91933 0.53405 0.0
C46 C 0.64388 0.89717 0.51709 0.0
C47 C 0.64798 0.90959 0.49579 0.0
C48 C 0.6508 0.94379 0.49165 0.0
C49 C 0.60513 0.02044 0.43556 0.0
C50 C 0.50277 0.96116 0.46753 0.0
C51 C 0.52336 0.09386 0.45011 0.0
C52 C 0.52952 0.13074 0.45756 0.0
C53 C 0.51794 0.14969 0.44394 0.0
C54 C 0.52401 0.18482 0.45125 0.0
C55 C 0.54151 0.20133 0.47234 0.0
C56 C 0.55339 0.18228 0.48582 0.0
C57 C 0.54763 0.14746 0.47847 0.0
C58 C 0.56608 0.05227 0.50926 0.0
C59 C 0.67725 0.12638 0.47111 0.0
O60 O 0.61527 0.99985 0.50988 0.0
O61 O 0.67535 0.02335 0.4878 0.0
O62 O 0.58962 0.03249 0.4492 0.0
O63 O 0.62935 0.01143 0.44561 0.0
O64 O 0.53899 0.97098 0.48011 0.0
O65 O 0.5047 0.98898 0.45675 0.0
O66 O 0.56206 0.10007 0.44276 0.0
O67 O 0.49884 0.063 0.4629 0.0
O68 O 0.59824 0.06546 0.49544 0.0
O69 O 0.5275 0.04371 0.50052 0.0
O70 O 0.63593 0.11774 0.46498 0.0
O71 O 0.6799 0.09853 0.4787 0.0
H72 H 0.64339 0.97007 0.54332 0.0
H73 H 0.63768 0.91021 0.55059 0.0
H74 H 0.65 0.8934 0.48237 0.0
H75 H 0.65421 0.95284 0.47514 0.0
H76 H 0.50412 0.13729 0.42772 0.0
H77 H 0.51436 0.19869 0.44053 0.0
H78 H 0.56774 0.19461 0.50199 0.0
H79 H 0.55731 0.13351 0.48914 0.0
Sm80 Sm 0.58436 0.55257 0.84877 0.0
Sm81 Sm 0.51595 0.45989 0.84588 0.0
C82 C 0.63252 0.63148 0.84203 0.0
C83 C 0.62473 0.66115 0.83692 0.0
C84 C 0.58096 0.64859 0.82794 0.0
C85 C 0.57606 0.67771 0.82152 0.0
C86 C 0.61492 0.71982 0.82392 0.0
C87 C 0.65805 0.73204 0.83363 0.0
C88 C 0.66286 0.70299 0.84002 0.0
C89 C 0.56263 0.51566 0.88758 0.0
C90 C 0.46508 0.50326 0.84907 0.0
C91 C 0.47163 0.38092 0.85037 0.0
C92 C 0.48333 0.35355 0.84467 0.0
C93 C 0.45428 0.31337 0.85171 0.0
C94 C 0.46533 0.28726 0.84623 0.0
C95 C 0.50573 0.30096 0.83363 0.0
C96 C 0.53484 0.34147 0.82674 0.0
C97 C 0.52378 0.3675 0.83223 0.0
C98 C 0.5391 0.49591 0.80662 0.0
C99 C 0.63601 0.5098 0.84862 0.0
O100 O 0.62134 0.60427 0.82676 0.0
O101 O 0.62061 0.61641 0.86127 0.0
O102 O 0.53321 0.50494 0.87233 0.0
O103 O 0.60547 0.54854 0.88319 0.0
O104 O 0.50866 0.53722 0.84463 0.0
O105 O 0.45879 0.46921 0.85296 0.0
O106 O 0.49874 0.40894 0.86552 0.0
O107 O 0.46344 0.39512 0.83413 0.0
O108 O 0.5683 0.50724 0.82211 0.0
O109 O 0.49634 0.46356 0.81129 0.0
O110 O 0.59155 0.47495 0.85031 0.0
O111 O 0.64327 0.54455 0.84592 0.0
H112 H 0.55106 0.61635 0.82541 0.0
H113 H 0.54247 0.66723 0.814 0.0
H114 H 0.68838 0.76416 0.83609 0.0
H115 H 0.69684 0.71326 0.84701 0.0
H116 H 0.42306 0.3022 0.86144 0.0
H117 H 0.44248 0.25648 0.85205 0.0
H118 H 0.56578 0.35294 0.81675 0.0
H119 H 0.54665 0.39847 0.82664 0.0
P120 P 0.63345 0.03234 0.19954 0.0
H121 H 0.60312 0.9635 0.17008 0.0
H122 H 0.52388 0.9024 0.15808 0.0
H123 H 0.45858 0.95214 0.18751 0.0
H124 H 0.53855 0.01357 0.19958 0.0
H125 H 0.70851 0.07286 0.16714 0.0
H126 H 0.76245 0.14339 0.15573 0.0
H127 H 0.6834 0.17144 0.19408 0.0
H128 H 0.62942 0.1005 0.20549 0.0
H129 H 0.55877 0.97318 0.22943 0.0
H130 H 0.69138 0.09713 0.23306 0.0
O131 O 0.6684 0.01833 0.19788 0.0
H132 H 0.55077 0.97546 0.26842 0.0
H133 H 0.68332 0.09967 0.27214 0.0
C134 C 0.5767 0.99284 0.18604 0.0
C135 C 0.57196 0.96179 0.17358 0.0
C136 C 0.52648 0.92677 0.16664 0.0
C137 C 0.48473 0.92205 0.17209 0.0
C138 C 0.48994 0.95453 0.18335 0.0
C139 C 0.53563 0.98981 0.1901 0.0
C140 C 0.66561 0.08165 0.18755 0.0
C141 C 0.7022 0.09395 0.17282 0.0
C142 C 0.733 0.13436 0.16623 0.0
C143 C 0.72779 0.16333 0.17425 0.0
C144 C 0.689 0.15012 0.18793 0.0
C145 C 0.65791 0.10951 0.19436 0.0
C146 C 0.62465 0.03561 0.22807 0.0
C147 C 0.58545 1.00138 0.23845 0.0
C148 C 0.58091 1.00266 0.26084 0.0
C149 C 0.61613 0.03788 0.27339 0.0
C150 C 0.65553 0.07207 0.26295 0.0
C151 C 0.6599 0.0708 0.24054 0.0
P152 P 0.67496 0.57785 0.5786 0.0
H153 H 0.68068 0.5619 0.53298 0.0
H154 H 0.65071 0.49941 0.5118 0.0
H155 H 0.5794 0.42845 0.56821 0.0
H156 H 0.60853 0.49055 0.58901 0.0
H157 H 0.71053 0.65816 0.59407 0.0
H158 H 0.69748 0.70594 0.58277 0.0
H159 H 0.60065 0.61979 0.53187 0.0
H160 H 0.61371 0.57172 0.54343 0.0
H161 H 0.72858 0.5924 0.61848 0.0
H162 H 0.58405 0.54318 0.60015 0.0
O163 O 0.73425 0.60312 0.57719 0.0
H164 H 0.70599 0.58158 0.65644 0.0
H165 H 0.56106 0.53208 0.63821 0.0
C166 C 0.64631 0.531 0.56249 0.0
C167 C 0.65771 0.53274 0.54063 0.0
C168 C 0.64093 0.49701 0.5286 0.0
C169 C 0.61267 0.4588 0.53829 0.0
C170 C 0.60037 0.45716 0.56009 0.0
C171 C 0.61717 0.49289 0.57208 0.0
C172 C 0.66342 0.61156 0.56953 0.0
C173 C 0.68639 0.64947 0.5805 0.0
C174 C 0.67867 0.67667 0.5741 0.0
C175 C 0.64787 0.6666 0.55647 0.0
C176 C 0.62484 0.6285 0.54542 0.0
C177 C 0.63229 0.60101 0.55201 0.0
C178 C 0.65788 0.56843 0.60651 0.0
C179 C 0.69193 0.57918 0.62261 0.0
C180 C 0.67907 0.57321 0.64433 0.0
C181 C 0.63179 0.55606 0.65031 0.0
C182 C 0.59766 0.54504 0.63408 0.0
C183 C 0.61072 0.55143 0.61237 0.0
P184 P 0.079 0.54631 0.87956 0.0
H185 H 0.14799 0.57136 0.84449 0.0
H186 H 0.20544 0.55921 0.83666 0.0
H187 H 0.14032 0.46756 0.88505 0.0
H188 H 0.0805 0.47786 0.89135 0.0
H189 H 0.05507 0.58832 0.85246 0.0
H190 H 0.98116 0.57827 0.84573 0.0
H191 H 0.90011 0.46024 0.87446 0.0
H192 H 0.97563 0.47169 0.88204 0.0
H193 H 0.13343 0.54326 0.91448 0.0
H194 H 1.01641 0.54908 0.90973 0.0
O195 O 0.11885 0.59661 0.87626 0.0
H196 H 0.12726 0.54236 0.95377 0.0
H197 H 1.01221 0.55033 0.94905 0.0
C198 C 0.10995 0.52633 0.86893 0.0
C199 C 0.14506 0.54776 0.85304 0.0
C200 C 0.1791 0.54129 0.8489 0.0
C201 C 0.18009 0.51346 0.86076 0.0
C202 C 0.14213 0.48958 0.87546 0.0
C203 C 0.1073 0.49545 0.87918 0.0
C204 C 1.02184 0.53079 0.86774 0.0
C205 C 1.02152 0.55968 0.85692 0.0
C206 C 0.97844 0.55378 0.85302 0.0
C207 C 0.93343 0.51847 0.85965 0.0
C208 C 0.93353 0.48834 0.8694 0.0
C209 C 0.97696 0.49441 0.87337 0.0
C210 C 0.07289 0.54294 0.90872 0.0
C211 C 0.10516 0.5427 0.92163 0.0
C212 C 0.10227 0.54292 0.94418 0.0
C213 C 0.06868 0.54551 0.9543 0.0
C214 C 1.03784 0.5476 0.94155 0.0
C215 C 1.03996 0.54638 0.919 0.0
P216 P 0.13405 0.52476 0.42261 0.0
H217 H 0.18511 0.56647 0.46328 0.0
H218 H 0.23796 0.6389 0.47465 0.0
H219 H 0.19344 0.66641 0.41824 0.0
H220 H 0.13995 0.59392 0.40725 0.0
H221 H 0.10302 0.44592 0.4364 0.0
H222 H 1.02655 0.38465 0.44814 0.0
H223 H 0.96349 0.44548 0.44431 0.0
H224 H 1.04139 0.50778 0.43274 0.0
H225 H 0.20577 0.55882 0.38925 0.0
H226 H 1.05247 0.49352 0.39234 0.0
O227 O 0.17532 0.51839 0.42716 0.0
H228 H 0.20203 0.5619 0.35014 0.0
H229 H 1.04831 0.49594 0.35313 0.0
C230 C 0.15907 0.57474 0.43427 0.0
C231 C 0.1856 0.5879 0.45371 0.0
C232 C 0.21627 0.62946 0.46005 0.0
C233 C 0.22091 0.6587 0.44709 0.0
C234 C 0.19092 0.64485 0.42861 0.0
C235 C 0.16025 0.60323 0.42227 0.0
C236 C 0.07828 0.48178 0.43393 0.0
C237 C 0.07324 0.44666 0.43848 0.0
C238 C 1.0293 0.41144 0.44523 0.0
C239 C 0.98889 0.41014 0.44727 0.0
C240 C 0.99395 0.4455 0.44285 0.0
C241 C 1.03845 0.48116 0.43638 0.0
C242 C 0.12929 0.5251 0.39368 0.0
C243 C 0.17116 0.54468 0.38147 0.0
C244 C 0.16897 0.54639 0.3591 0.0
C245 C 0.12479 0.52881 0.34847 0.0
C246 C 0.08293 0.50992 0.36084 0.0
C247 C 0.0852 0.50819 0.38328 0.0
P248 P 0.64768 0.06203 0.7422 0.0
H249 H 0.61266 0.05845 0.78617 0.0
H250 H 0.58439 0.09375 0.80346 0.0
H251 H 0.5911 0.14313 0.74221 0.0
H252 H 0.61973 0.10867 0.72527 0.0
H253 H 0.70678 0.03676 0.74553 0.0
H254 H 0.69248 0.97571 0.75829 0.0
H255 H 0.54697 0.9257 0.77457 0.0
H256 H 0.56182 0.9877 0.76166 0.0
H257 H 0.70962 0.08405 0.70501 0.0
H258 H 0.55837 0.0187 0.7164 0.0
O259 O 0.70631 0.10058 0.74601 0.0
H260 H 0.69444 0.07686 0.66614 0.0
H261 H 0.54287 0.0124 0.67741 0.0
C262 C 0.61682 0.07973 0.75426 0.0
C263 C 0.60661 0.07587 0.77637 0.0
C264 C 0.59065 0.09619 0.78624 0.0
C265 C 0.58574 0.1214 0.77421 0.0
C266 C 0.59491 0.12427 0.75198 0.0
C267 C 0.61065 0.10399 0.74219 0.0
C268 C 0.6358 0.01724 0.75316 0.0
C269 C 0.67191 0.01293 0.75206 0.0
C270 C 0.66351 0.97775 0.75916 0.0
C271 C 0.61852 0.94574 0.76739 0.0
C272 C 0.58214 0.95002 0.7685 0.0
C273 C 0.59058 0.98538 0.76117 0.0
C274 C 0.63527 0.05278 0.71356 0.0
C275 C 0.67308 0.06816 0.69913 0.0
C276 C 0.66435 0.06421 0.67687 0.0
C277 C 0.61756 0.04474 0.66861 0.0
C278 C 0.57933 0.02751 0.68317 0.0
C279 C 0.58813 0.03129 0.70547 0.0
P280 P 0.42148 0.27739 0.08021 0.0
H281 H 0.41334 0.26153 0.12582 0.0
H282 H 0.47073 0.27241 0.15272 0.0
H283 H 0.57178 0.304 0.10196 0.0
H284 H 0.51337 0.29102 0.07525 0.0
H285 H 0.34245 0.28073 0.07519 0.0
H286 H 0.33537 0.33419 0.08447 0.0
H287 H 0.47473 0.40595 0.11661 0.0
H288 H 0.4816 0.35252 0.1073 0.0
H289 H 0.38159 0.25113 0.03628 0.0
H290 H 0.51523 0.35111 0.06757 0.0
O291 O 0.36911 0.23032 0.07733 0.0
H292 H 0.4084 0.28753 0.00257 0.0
H293 H 0.54246 0.38736 0.03384 0.0
C294 C 0.45976 0.27669 0.09868 0.0
C295 C 0.44748 0.26985 0.1205 0.0
C296 C 0.48044 0.27638 0.13587 0.0
C297 C 0.52628 0.28988 0.1296 0.0
C298 C 0.53681 0.29349 0.10743 0.0
C299 C 0.50362 0.28663 0.09208 0.0
C300 C 0.41181 0.3121 0.09109 0.0
C301 C 0.37083 0.30745 0.08474 0.0
C302 C 0.36715 0.33822 0.08982 0.0
C303 C 0.40464 0.37426 0.10119 0.0
C304 C 0.44508 0.3783 0.10807 0.0
C305 C 0.44885 0.34763 0.10285 0.0
C306 C 0.44695 0.29782 0.0543 0.0
C307 C 0.41743 0.28017 0.03571 0.0
C308 C 0.43256 0.30118 0.01652 0.0
C309 C 0.47747 0.34028 0.01563 0.0
C310 C 0.50799 0.35703 0.03397 0.0
C311 C 0.49257 0.33618 0.05323 0.0
H312 H 0.30474 0.50009 0.14903 0.0
H313 H 0.36924 0.56058 0.08928 0.0
H314 H 0.34496 0.46984 0.14664 0.0
H315 H 0.40971 0.53007 0.08688 0.0
H316 H 0.37941 0.4053 0.07206 0.0
H317 H 0.36967 0.45752 0.07836 0.0
H318 H 0.41704 0.47361 0.14472 0.0
H319 H 0.42576 0.4203 0.13845 0.0
C320 C 0.32908 0.50831 0.13582 0.0
C321 C 0.33311 0.53214 0.11912 0.0
C322 C 0.35216 0.49086 0.13444 0.0
C323 C 0.37967 0.49689 0.11633 0.0
C324 C 0.38781 0.52419 0.10079 0.0
C325 C 0.36472 0.54167 0.10217 0.0
C326 C 0.38785 0.42006 0.08798 0.0
C327 C 0.40246 0.40826 0.10487 0.0
C328 C 0.3831 0.45049 0.09151 0.0
C329 C 0.39274 0.4698 0.11204 0.0
C330 C 0.4092 0.45914 0.12876 0.0
C331 C 0.41425 0.42875 0.12517 0.0
H332 H 0.77068 0.15528 0.47565 0.0
H333 H 0.68612 0.1947 0.46238 0.0
H334 H 0.84425 0.22459 0.47105 0.0
H335 H 0.75973 0.26436 0.45849 0.0
H336 H 0.90042 0.37319 0.42823 0.0
H337 H 0.82495 0.30579 0.43499 0.0
H338 H 0.89494 0.2918 0.48634 0.0
H339 H 0.97046 0.35866 0.47912 0.0
C340 C 0.76772 0.1788 0.47201 0.0
C341 C 0.7223 0.16919 0.46934 0.0
C342 C 0.81006 0.21878 0.46948 0.0
C343 C 0.80827 0.25042 0.4644 0.0
C344 C 0.76276 0.24085 0.46205 0.0
C345 C 0.7204 0.20081 0.46442 0.0
C346 C 0.89943 0.35593 0.44116 0.0
C347 C 0.94155 0.37122 0.45304 0.0
C348 C 0.85609 0.31719 0.44508 0.0
C349 C 0.85365 0.29287 0.4611 0.0
C350 C 0.89549 0.30901 0.47351 0.0
C351 C 0.93882 0.34753 0.46947 0.0
H352 H 0.53925 0.72245 0.8264 0.0
H353 H 0.68328 0.78774 0.80198 0.0
H354 H 0.53484 0.77389 0.81193 0.0
H355 H 0.67949 0.8394 0.78825 0.0
H356 H 0.64387 0.90313 0.7467 0.0
H357 H 0.63897 0.84649 0.75987 0.0
H358 H 0.57016 0.84673 0.81764 0.0
H359 H 0.57484 0.90359 0.80427 0.0
C360 C 0.56991 0.74771 0.81795 0.0
C361 C 0.61169 0.75101 0.81543 0.0
C362 C 0.56754 0.77735 0.80983 0.0
C363 C 0.60671 0.81071 0.79883 0.0
C364 C 0.64836 0.81386 0.79635 0.0
C365 C 0.65078 0.78445 0.8045 0.0
C366 C 0.62759 0.89108 0.7622 0.0
C367 C 0.61038 0.90827 0.77458 0.0
C368 C 0.62485 0.85863 0.76978 0.0
C369 C 0.60491 0.84247 0.78999 0.0
C370 C 0.58559 0.85835 0.80197 0.0
C371 C 0.58826 0.89091 0.79432 0.0
H372 H 0.79924 0.38769 0.19135 0.0
H373 H 0.78007 0.48007 0.19298 0.0
H374 H 0.71338 0.33495 0.18346 0.0
H375 H 0.69488 0.42803 0.1843 0.0
H376 H 0.54371 0.33316 0.16751 0.0
H377 H 0.61527 0.36896 0.19059 0.0
H378 H 0.66983 0.31918 0.15087 0.0
H379 H 0.59689 0.28126 0.12872 0.0
C380 C 0.77627 0.39647 0.19049 0.0
C381 C 0.79608 0.43784 0.1925 0.0
C382 C 0.72724 0.36639 0.18584 0.0
C383 C 0.69731 0.37726 0.18278 0.0
C384 C 0.71658 0.41834 0.1867 0.0
C385 C 0.76551 0.44832 0.19163 0.0
C386 C 0.57008 0.32855 0.16417 0.0
C387 C 0.56489 0.30483 0.14599 0.0
C388 C 0.61149 0.34958 0.17728 0.0
C389 C 0.64886 0.34772 0.17238 0.0
C390 C 0.64184 0.32132 0.15526 0.0
C391 C 0.60023 0.29997 0.1423 0.0
H392 H 0.47988 0.89823 0.49191 0.0
H393 H 0.4267 0.92478 0.4386 0.0
H394 H 0.41024 0.82641 0.48827 0.0
H395 H 0.35739 0.8523 0.43447 0.0
H396 H 0.21736 0.72252 0.44405 0.0
H397 H 0.2834 0.79572 0.44973 0.0
H398 H 0.37955 0.76885 0.46502 0.0
H399 H 0.31382 0.69625 0.45969 0.0
C400 C 0.45343 0.88876 0.47931 0.0
C401 C 0.45919 0.91742 0.46547 0.0
C402 C 0.41344 0.84735 0.47715 0.0
C403 C 0.37814 0.83319 0.46093 0.0
C404 C 0.38346 0.86199 0.4473 0.0
C405 C 0.42342 0.9036 0.44958 0.0
C406 C 0.2526 0.73233 0.44871 0.0
C407 C 0.26004 0.70336 0.45163 0.0
C408 C 0.29058 0.77434 0.45188 0.0
C409 C 0.33702 0.78846 0.45793 0.0
C410 C 0.34422 0.75934 0.46086 0.0
C411 C 0.30634 0.71751 0.45782 0.0
H412 H 0.443 0.21935 0.82142 0.0
H413 H 0.59458 0.31941 0.83166 0.0
H414 H 0.46246 0.17508 0.8091 0.0
H415 H 0.6139 0.27528 0.81912 0.0
H416 H 0.62964 0.20176 0.76824 0.0
H417 H 0.60994 0.24364 0.7842 0.0
H418 H 0.49702 0.14131 0.82061 0.0
H419 H 0.5163 0.09886 0.80418 0.0
C420 C 0.48042 0.23179 0.82134 0.0
C421 C 0.51723 0.27313 0.82736 0.0
C422 C 0.49155 0.20637 0.81427 0.0
C423 C 0.53974 0.22172 0.81297 0.0
C424 C 0.57644 0.26269 0.81956 0.0
C425 C 0.56534 0.28803 0.8267 0.0
C426 C 0.60042 0.18806 0.77956 0.0
C427 C 0.57422 0.14685 0.78479 0.0
C428 C 0.58949 0.21223 0.78891 0.0
C429 C 0.55197 0.19587 0.80372 0.0
C430 C 0.52592 0.15472 0.80914 0.0
C431 C 0.53716 0.13052 0.79987 0.0
H432 H 0.68907 0.89121 0.55034 0.0
H433 H 0.59654 0.82327 0.49452 0.0
H434 H 0.68578 0.83331 0.55905 0.0
H435 H 0.59348 0.76504 0.50325 0.0
H436 H 0.64784 0.6894 0.51548 0.0
H437 H 0.64446 0.74359 0.50513 0.0
H438 H 0.62806 0.76473 0.57207 0.0
H439 H 0.63178 0.71103 0.58234 0.0
C440 C 0.6676 0.86375 0.54002 0.0
C441 C 0.64268 0.86183 0.52184 0.0
C442 C 0.66571 0.83049 0.54503 0.0
C443 C 0.63891 0.79432 0.53199 0.0
C444 C 0.61466 0.79253 0.51356 0.0
C445 C 0.61648 0.82592 0.50855 0.0
C446 C 0.64278 0.70526 0.5279 0.0
C447 C 0.6407 0.69632 0.54975 0.0
C448 C 0.64086 0.7363 0.52199 0.0
C449 C 0.63672 0.75892 0.53781 0.0
C450 C 0.63249 0.74862 0.55953 0.0
C451 C 0.63451 0.71778 0.56542 0.0
H452 H 0.73195 0.57288 0.84107 0.0
H453 H 0.63794 0.4468 0.85893 0.0
H454 H 0.80106 0.57338 0.84331 0.0
H455 H 0.70723 0.4473 0.86121 0.0
H456 H 0.8515 0.47755 0.88514 0.0
H457 H 0.78052 0.47419 0.88211 0.0
H458 H 0.83956 0.54768 0.82594 0.0
H459 H 0.90972 0.55012 0.82846 0.0
C460 C 0.72579 0.54513 0.84546 0.0
C461 C 0.67874 0.50981 0.8498 0.0
C462 C 0.76572 0.54534 0.84664 0.0
C463 C 0.76046 0.51037 0.85245 0.0
C464 C 0.71337 0.47507 0.85689 0.0
C465 C 0.6733 0.47471 0.85546 0.0
C466 C 0.84938 0.4925 0.87185 0.0
C467 C 0.88766 0.51437 0.85717 0.0
C468 C 0.80828 0.49067 0.87017 0.0
C469 C 0.80377 0.51094 0.85387 0.0
C470 C 0.84159 0.53228 0.83903 0.0
C471 C 0.88237 0.53375 0.84055 0.0
H472 H 0.18339 0.69994 0.17262 0.0
H473 H 0.25986 0.66575 0.13741 0.0
H474 H 0.25662 0.77066 0.17524 0.0
H475 H 0.33357 0.73625 0.14064 0.0
H476 H 0.45174 0.87259 0.13521 0.0
H477 H 0.3749 0.80431 0.12944 0.0
H478 H 0.33202 0.8121 0.19365 0.0
H479 H 0.40823 0.88044 0.19916 0.0
C480 C 0.21586 0.70746 0.16547 0.0
C481 C 0.21565 0.67702 0.15487 0.0
C482 C 0.25805 0.74809 0.16708 0.0
C483 C 0.30136 0.75941 0.15827 0.0
C484 C 0.3009 0.72899 0.14737 0.0
C485 C 0.25858 0.68838 0.14563 0.0
C486 C 0.42571 0.85976 0.14802 0.0
C487 C 0.43617 0.88207 0.16764 0.0
C488 C 0.38169 0.82049 0.14477 0.0
C489 C 0.34708 0.80234 0.1611 0.0
C490 C 0.35724 0.82513 0.18053 0.0
C491 C 0.40108 0.86447 0.18372 0.0
H492 H 0.57997 0.27198 0.45124 0.0
H493 H 0.51707 0.2144 0.51172 0.0
H494 H 0.59346 0.33388 0.46532 0.0
H495 H 0.53157 0.27639 0.52595 0.0
H496 H 0.52663 0.38109 0.53927 0.0
H497 H 0.5062 0.31861 0.52191 0.0
H498 H 0.64616 0.38868 0.49268 0.0
H499 H 0.66677 0.45105 0.51012 0.0
C500 C 0.56867 0.27242 0.46746 0.0
C501 C 0.54766 0.23834 0.4804 0.0
C502 C 0.57679 0.30799 0.4756 0.0
C503 C 0.56371 0.31015 0.49678 0.0
C504 C 0.54167 0.27568 0.5095 0.0
C505 C 0.53384 0.24028 0.50143 0.0
C506 C 0.55306 0.38319 0.52914 0.0
C507 C 0.59845 0.42116 0.5262 0.0
C508 C 0.54133 0.34736 0.51918 0.0
C509 C 0.57463 0.34859 0.50599 0.0
C510 C 0.61943 0.38668 0.50251 0.0
C511 C 0.63122 0.4225 0.51251 0.0
H512 H 0.36723 0.43838 0.84857 0.0
H513 H 0.46666 0.5701 0.85272 0.0
H514 H 0.2997 0.43992 0.8504 0.0
H515 H 0.39983 0.57206 0.85594 0.0
H516 H 0.27401 0.57207 0.84668 0.0
H517 H 0.3388 0.56837 0.84265 0.0
H518 H 0.24882 0.44697 0.86764 0.0
H519 H 0.18217 0.44909 0.86962 0.0
C520 C 0.37484 0.46781 0.85007 0.0
C521 C 0.42296 0.50408 0.85038 0.0
C522 C 0.33571 0.46881 0.85133 0.0
C523 C 0.3429 0.50617 0.85336 0.0
C524 C 0.39138 0.54241 0.85388 0.0
C525 C 0.43038 0.54137 0.85221 0.0
C526 C 0.26696 0.54393 0.85087 0.0
C527 C 0.22122 0.51079 0.85837 0.0
C528 C 0.30534 0.54214 0.84899 0.0
C529 C 0.30063 0.50746 0.85494 0.0
C530 C 0.25496 0.47431 0.8625 0.0
C531 C 0.21621 0.47582 0.86403 0.0
H532 H 0.92506 0.43089 0.17616 0.0
H533 H 0.9879 0.39478 0.13162 0.0
H534 H 0.85566 0.35973 0.17984 0.0
H535 H 0.91927 0.32303 0.13614 0.0
H536 H 0.77137 0.19759 0.13572 0.0
H537 H 0.83596 0.2696 0.1291 0.0
H538 H 0.83396 0.30069 0.19617 0.0
H539 H 0.76899 0.22912 0.20255 0.0
C540 C 0.92411 0.40777 0.16709 0.0
C541 C 0.96218 0.41875 0.15353 0.0
C542 C 0.88434 0.36672 0.1694 0.0
C543 C 0.8817 0.33525 0.15846 0.0
C544 C 0.91954 0.34627 0.14463 0.0
C545 C 0.95917 0.3875 0.14213 0.0
C546 C 0.78463 0.2199 0.14901 0.0
C547 C 0.76479 0.20752 0.16965 0.0
C548 C 0.82188 0.26124 0.14525 0.0
C549 C 0.84054 0.29128 0.16208 0.0
C550 C 0.82013 0.2788 0.18265 0.0
C551 C 0.78272 0.23759 0.18635 0.0
H552 H 0.0766 0.51483 0.09225 0.0
H553 H 1.0457 0.59941 0.08934 0.0
H554 H 0.08041 0.51272 0.05311 0.0
H555 H 1.0456 0.59509 0.04999 0.0
H556 H 0.09097 0.60935 0.98008 0.0
H557 H 0.09034 0.61357 0.01944 0.0
H558 H 1.03814 0.48848 0.02122 0.0
H559 H 1.04247 0.486 0.98195 0.0
C560 C 0.0701 0.53268 0.08314 0.0
C561 C 0.06109 0.55744 0.09381 0.0
C562 C 0.07173 0.53116 0.0606 0.0
C563 C 0.06307 0.55354 0.04804 0.0
C564 C 1.0535 0.57802 0.05889 0.0
C565 C 1.0531 0.5803 0.0815 0.0
C566 C 0.07958 0.58296 0.98905 0.0
C567 C 0.06693 0.54743 0.97814 0.0
C568 C 0.07874 0.58511 0.01163 0.0
C569 C 0.06411 0.55136 0.02384 0.0
C570 C 1.05075 0.51555 0.01265 0.0
C571 C 1.05274 0.51383 0.9901 0.0
H572 H 0.64567 1.00162 0.40599 0.0
H573 H 0.55945 0.04185 0.41172 0.0
H574 H 0.64694 0.007 0.36697 0.0
H575 H 0.56088 0.04749 0.37233 0.0
H576 H 0.53693 0.00795 0.29835 0.0
H577 H 0.53194 0.00357 0.33772 0.0
H578 H 0.68428 0.06374 0.34183 0.0
H579 H 0.68909 0.06732 0.30266 0.0
C580 C 0.62682 0.0115 0.39886 0.0
C581 C 0.60267 0.02152 0.41186 0.0
C582 C 0.62783 0.01485 0.37651 0.0
C583 C 0.60452 0.02815 0.36659 0.0
C584 C 0.57911 0.0371 0.37953 0.0
C585 C 0.57837 0.03398 0.40203 0.0
C586 C 0.56932 0.02027 0.3077 0.0
C587 C 0.61339 0.03788 0.29736 0.0
C588 C 0.56652 0.01806 0.33023 0.0
C589 C 0.60763 0.03303 0.34284 0.0
C590 C 0.65183 0.05146 0.33253 0.0
C591 C 0.6547 0.05392 0.31008 0.0
H592 H 0.63019 0.54538 0.79059 0.0
H593 H 0.48042 0.47693 0.77235 0.0
H594 H 0.65271 0.56146 0.75288 0.0
H595 H 0.50274 0.49428 0.73483 0.0
H596 H 0.55173 0.48796 0.66777 0.0
H597 H 0.5301 0.47626 0.70566 0.0
H598 H 0.659 0.59819 0.7229 0.0
H599 H 0.68115 0.60926 0.68494 0.0
C600 C 0.60219 0.53437 0.77853 0.0
C601 C 0.55354 0.50959 0.78432 0.0
C602 C 0.61504 0.54372 0.75692 0.0
C603 C 0.57952 0.52882 0.74068 0.0
C604 C 0.53101 0.50544 0.74675 0.0
C605 C 0.51818 0.49576 0.76829 0.0
C606 C 0.57522 0.51234 0.67966 0.0
C607 C 0.61813 0.54949 0.67339 0.0
C608 C 0.56277 0.50575 0.70141 0.0
C609 C 0.59267 0.53634 0.71745 0.0
C610 C 0.63544 0.57369 0.71109 0.0
C611 C 0.64811 0.58011 0.68933 0.0
H612 H 0.49835 0.01956 0.54065 0.0
H613 H 0.64842 0.07772 0.52994 0.0
H614 H 0.51 0.01607 0.57914 0.0
H615 H 0.65996 0.07365 0.56821 0.0
H616 H 0.67436 0.10611 0.64066 0.0
H617 H 0.66118 0.10603 0.60221 0.0
H618 H 0.52825 0.9825 0.60447 0.0
H619 H 0.54167 0.98232 0.6431 0.0
C620 C 0.53373 0.03137 0.54653 0.0
C621 C 0.57251 0.049 0.53237 0.0
C622 C 0.54034 0.02914 0.56851 0.0
C623 C 0.58595 0.04471 0.57675 0.0
C624 C 0.62454 0.06189 0.56245 0.0
C625 C 0.61789 0.06402 0.54051 0.0
C626 C 0.64264 0.07864 0.63296 0.0
C627 C 0.60927 0.0441 0.645 0.0
C628 C 0.63505 0.07865 0.61088 0.0
C629 C 0.59378 0.0442 0.60025 0.0
C630 C 0.56018 0.00967 0.61225 0.0
C631 C 0.56787 0.00959 0.63438 0.0
H632 H 0.47609 0.44416 0.89689 0.0
H633 H 0.62209 0.53164 0.92132 0.0
H634 H 0.45658 0.40102 0.92708 0.0
H635 H 0.60202 0.48951 0.9524 0.0
H636 H 0.56276 0.38466 0.99404 0.0
H637 H 0.58393 0.42736 0.9631 0.0
H638 H 0.44279 0.39664 0.96419 0.0
H639 H 0.42145 0.35305 0.99441 0.0
C640 C 0.50393 0.45434 0.90888 0.0
C641 C 0.55065 0.49113 0.90673 0.0
C642 C 0.49266 0.42975 0.92633 0.0
C643 C 0.52764 0.44171 0.9423 0.0
C644 C 0.57435 0.47894 0.94025 0.0
C645 C 0.58578 0.50333 0.92258 0.0
C646 C 0.53633 0.38698 0.9875 0.0
C647 C 0.4903 0.36518 0.99642 0.0
C648 C 0.5485 0.41165 0.96989 0.0
C649 C 0.51506 0.41547 0.96103 0.0
C650 C 0.46915 0.39379 0.97018 0.0
C651 C 0.45685 0.36879 0.98754 0.0
H652 H 0.12045 0.58758 0.21483 0.0
H653 H 0.11124 0.47953 0.21038 0.0
H654 H 0.12183 0.58657 0.25434 0.0
H655 H 0.11194 0.47813 0.24962 0.0
H656 H 0.17089 0.51533 0.31856 0.0
H657 H 0.16878 0.51795 0.27945 0.0
H658 H 0.07046 0.5459 0.28496 0.0
H659 H 0.0738 0.54458 0.32431 0.0
C660 C 0.11859 0.5636 0.22231 0.0
C661 C 0.11609 0.53381 0.20958 0.0
C662 C 0.11909 0.56286 0.24489 0.0
C663 C 0.11728 0.53239 0.25512 0.0
C664 C 0.11421 0.50241 0.24227 0.0
C665 C 0.1136 0.5031 0.21978 0.0
C666 C 0.14916 0.52242 0.31147 0.0
C667 C 0.1226 0.52983 0.32457 0.0
C668 C 0.14754 0.52349 0.28902 0.0
C669 C 0.11931 0.53199 0.27907 0.0
C670 C 0.09285 0.53958 0.29214 0.0
C671 C 0.09435 0.53838 0.31466 0.0
loop_
_geom_bond_atom_site_label_1
_geom_bond_atom_site_label_2
_geom_bond_distance
_geom_bond_site_symmetry_2
_ccdc_geom_bond_type
Sm0 C2 2.846 . S
Sm0 O20 2.543 . S
Sm0 O21 2.450 . S
Sm0 O22 2.681 . S
Sm0 O23 2.464 . S
Sm0 O24 2.396 . S
Sm0 O28 2.386 . S
Sm0 O31 2.408 1_455 S
Sm1 C11 2.846 . S
Sm1 O22 2.386 1_655 S
Sm1 O25 2.408 1_655 S
Sm1 O26 2.543 . S
Sm1 O27 2.450 . S
Sm1 O28 2.681 1_655 S
Sm1 O29 2.468 . S
Sm1 O30 2.396 . S
C2 Sm0 2.846 . S
C2 C3 1.506 . S
C2 O20 1.261 . S
C2 O21 1.242 . S
C3 C2 1.506 . S
C3 C4 1.358 . S
C3 C8 1.382 . S
C4 C3 1.358 . S
C4 C5 1.385 . S
C4 H32 0.930 . S
C5 C4 1.385 . S
C5 C6 1.395 . S
C5 H33 0.929 . S
C6 C5 1.395 . S
C6 C7 1.335 . S
C7 C6 1.335 . S
C7 C8 1.398 . S
C7 H34 0.930 . S
C8 C3 1.382 . S
C8 C7 1.398 . S
C8 H35 0.929 . S
C9 O22 1.271 . S
C9 O23 1.251 . S
C10 O24 1.252 . S
C10 O25 1.272 . S
C11 Sm1 2.846 . S
C11 C12 1.506 . S
C11 O26 1.261 . S
C11 O27 1.242 . S
C12 C11 1.506 . S
C12 C13 1.358 . S
C12 C17 1.382 . S
C13 C12 1.358 . S
C13 C14 1.385 . S
C13 H36 0.930 . S
C14 C13 1.385 . S
C14 C15 1.395 . S
C14 H37 0.929 . S
C15 C14 1.395 . S
C15 C16 1.335 . S
C16 C15 1.335 . S
C16 C17 1.398 . S
C16 H38 0.930 . S
C17 C12 1.382 . S
C17 C16 1.398 . S
C17 H39 0.929 . S
C18 O28 1.271 . S
C18 O29 1.226 1_455 S
C19 O30 1.252 . S
C19 O31 1.272 . S
O20 Sm0 2.543 . S
O20 C2 1.261 . S
O21 Sm0 2.450 . S
O21 C2 1.242 . S
O22 Sm0 2.681 . S
O22 Sm1 2.386 1_455 S
O22 C9 1.271 . S
O23 Sm0 2.464 . S
O23 C9 1.251 . S
O24 Sm0 2.396 . S
O24 C10 1.252 . S
O25 Sm1 2.408 1_455 S
O25 C10 1.272 . S
O26 Sm1 2.543 . S
O26 C11 1.261 . S
O27 Sm1 2.450 . S
O27 C11 1.242 . S
O28 Sm0 2.386 . S
O28 Sm1 2.681 1_455 S
O28 C18 1.271 . S
O29 Sm1 2.468 . S
O29 C18 1.226 1_655 S
O30 Sm1 2.396 . S
O30 C19 1.252 . S
O31 Sm0 2.408 1_655 S
O31 C19 1.272 . S
H32 C4 0.930 . S
H33 C5 0.929 . S
H34 C7 0.930 . S
H35 C8 0.929 . S
H36 C13 0.930 . S
H37 C14 0.929 . S
H38 C16 0.930 . S
H39 C17 0.929 . S
Sm40 C42 2.846 . S
Sm40 O60 2.543 . S
Sm40 O61 2.450 . S
Sm40 O62 2.681 1_565 S
Sm40 O63 2.464 . S
Sm40 O64 2.396 . S
Sm40 O68 2.391 . S
Sm40 O71 2.408 1_565 S
Sm41 C51 2.846 . S
Sm41 O62 2.386 . S
Sm41 O65 2.408 1_545 S
Sm41 O66 2.543 . S
Sm41 O67 2.450 . S
Sm41 O68 2.674 1_545 S
Sm41 O69 2.464 . S
Sm41 O70 2.396 . S
C42 Sm40 2.846 . S
C42 C43 1.506 . S
C42 O60 1.261 . S
C42 O61 1.242 . S
C43 C42 1.506 . S
C43 C44 1.358 . S
C43 C48 1.382 . S
C44 C43 1.358 . S
C44 C45 1.385 . S
C44 H72 0.930 . S
C45 C44 1.385 . S
C45 C46 1.395 . S
C45 H73 0.929 . S
C46 C45 1.395 . S
C46 C47 1.335 . S
C47 C46 1.335 . S
C47 C48 1.398 . S
C47 H74 0.930 . S
C48 C43 1.382 . S
C48 C47 1.398 . S
C48 H75 0.929 . S
C49 O62 1.271 . S
C49 O63 1.251 1_545 S
C50 O64 1.252 . S
C50 O65 1.272 . S
C51 Sm41 2.846 . S
C51 C52 1.506 . S
C51 O66 1.261 . S
C51 O67 1.242 . S
C52 C51 1.506 . S
C52 C53 1.358 . S
C52 C57 1.382 . S
C53 C52 1.358 . S
C53 C54 1.385 . S
C53 H76 0.930 . S
C54 C53 1.385 . S
C54 C55 1.395 . S
C54 H77 0.929 . S
C55 C54 1.395 . S
C55 C56 1.335 . S
C56 C55 1.335 . S
C56 C57 1.398 . S
C56 H78 0.930 . S
C57 C52 1.382 . S
C57 C56 1.398 . S
C57 H79 0.929 . S
C58 O68 1.267 1_545 S
C58 O69 1.251 . S
C59 O70 1.252 . S
C59 O71 1.272 . S
O60 Sm40 2.543 . S
O60 C42 1.261 . S
O61 Sm40 2.450 . S
O61 C42 1.242 . S
O62 Sm40 2.681 1_545 S
O62 Sm41 2.386 . S
O62 C49 1.271 . S
O63 Sm40 2.464 . S
O63 C49 1.251 1_565 S
O64 Sm40 2.396 . S
O64 C50 1.252 . S
O65 Sm41 2.408 1_565 S
O65 C50 1.272 . S
O66 Sm41 2.543 . S
O66 C51 1.261 . S
O67 Sm41 2.450 . S
O67 C51 1.242 . S
O68 Sm40 2.391 . S
O68 Sm41 2.674 1_565 S
O68 C58 1.267 1_565 S
O69 Sm41 2.464 . S
O69 C58 1.251 . S
O70 Sm41 2.396 . S
O70 C59 1.252 . S
O71 Sm40 2.408 1_545 S
O71 C59 1.272 . S
H72 C44 0.930 . S
H73 C45 0.929 . S
H74 C47 0.930 . S
H75 C48 0.929 . S
H76 C53 0.930 . S
H77 C54 0.929 . S
H78 C56 0.930 . S
H79 C57 0.929 . S
Sm80 C82 2.846 . S
Sm80 O100 2.543 . S
Sm80 O101 2.450 . S
Sm80 O102 2.681 . S
Sm80 O103 2.464 . S
Sm80 O104 2.396 . S
Sm80 O108 2.386 . S
Sm80 O111 2.408 . S
Sm81 C91 2.846 . S
Sm81 O102 2.386 . S
Sm81 O105 2.408 . S
Sm81 O106 2.543 . S
Sm81 O107 2.450 . S
Sm81 O108 2.681 . S
Sm81 O109 2.464 . S
Sm81 O110 2.396 . S
C82 Sm80 2.846 . S
C82 C83 1.506 . S
C82 O100 1.261 . S
C82 O101 1.242 . S
C83 C82 1.506 . S
C83 C84 1.358 . S
C83 C88 1.382 . S
C84 C83 1.358 . S
C84 C85 1.385 . S
C84 H112 0.930 . S
C85 C84 1.385 . S
C85 C86 1.395 . S
C85 H113 0.929 . S
C86 C85 1.395 . S
C86 C87 1.335 . S
C87 C86 1.335 . S
C87 C88 1.398 . S
C87 H114 0.930 . S
C88 C83 1.382 . S
C88 C87 1.398 . S
C88 H115 0.929 . S
C89 O102 1.271 . S
C89 O103 1.251 . S
C90 O104 1.252 . S
C90 O105 1.272 . S
C91 Sm81 2.846 . S
C91 C92 1.506 . S
C91 O106 1.261 . S
C91 O107 1.242 . S
C92 C91 1.506 . S
C92 C93 1.358 . S
C92 C97 1.382 . S
C93 C92 1.358 . S
C93 C94 1.385 . S
C93 H116 0.930 . S
C94 C93 1.385 . S
C94 C95 1.395 . S
C94 H117 0.929 . S
C95 C94 1.395 . S
C95 C96 1.335 . S
C96 C95 1.335 . S
C96 C97 1.398 . S
C96 H118 0.930 . S
C97 C92 1.382 . S
C97 C96 1.398 . S
C97 H119 0.929 . S
C98 O108 1.271 . S
C98 O109 1.251 . S
C99 O110 1.252 . S
C99 O111 1.272 . S
O100 Sm80 2.543 . S
O100 C82 1.261 . S
O101 Sm80 2.450 . S
O101 C82 1.242 . S
O102 Sm80 2.681 . S
O102 Sm81 2.386 . S
O102 C89 1.271 . S
O103 Sm80 2.464 . S
O103 C89 1.251 . S
O104 Sm80 2.396 . S
O104 C90 1.252 . S
O105 Sm81 2.408 . S
O105 C90 1.272 . S
O106 Sm81 2.543 . S
O106 C91 1.261 . S
O107 Sm81 2.450 . S
O107 C91 1.242 . S
O108 Sm80 2.386 . S
O108 Sm81 2.681 . S
O108 C98 1.271 . S
O109 Sm81 2.464 . S
O109 C98 1.251 . S
O110 Sm81 2.396 . S
O110 C99 1.252 . S
O111 Sm80 2.408 . S
O111 C99 1.272 . S
H112 C84 0.930 . S
H113 C85 0.929 . S
H114 C87 0.930 . S
H115 C88 0.929 . S
H116 C93 0.930 . S
H117 C94 0.929 . S
H118 C96 0.930 . S
H119 C97 0.929 . S
P120 O131 1.504 . S
P120 C134 1.813 . S
P120 C140 1.791 1_565 S
P120 C146 1.813 1_565 S
H121 C135 0.941 . S
H122 C136 0.939 . S
H123 C138 0.940 . S
H124 C139 0.940 . S
H125 C141 0.939 . S
H126 C142 0.942 . S
H127 C144 0.940 . S
H128 C145 0.939 . S
H129 C147 0.941 . S
H130 C151 0.939 . S
O131 P120 1.504 . S
H132 C148 0.939 . S
H133 C150 0.940 . S
C134 P120 1.813 . S
C134 C135 1.389 . S
C134 C139 1.391 . S
C135 H121 0.941 . S
C135 C134 1.389 . S
C135 C136 1.397 . S
C136 H122 0.939 . S
C136 C135 1.397 . S
C136 C137 1.378 . S
C137 C136 1.378 . S
C137 C138 1.378 . S
C138 H123 0.940 . S
C138 C137 1.378 . S
C138 C139 1.396 . S
C139 H124 0.940 . S
C139 C134 1.391 . S
C139 C138 1.396 . S
C140 P120 1.791 1_545 S
C140 C141 1.378 . S
C140 C145 1.400 . S
C141 H125 0.939 . S
C141 C140 1.378 . S
C141 C142 1.361 . S
C142 H126 0.942 . S
C142 C141 1.361 . S
C142 C143 1.369 . S
C143 C142 1.369 . S
C143 C144 1.404 . S
C144 H127 0.940 . S
C144 C143 1.404 . S
C144 C145 1.389 . S
C145 H128 0.939 . S
C145 C140 1.400 . S
C145 C144 1.389 . S
C146 P120 1.813 1_545 S
C146 C147 1.391 1_545 S
C146 C151 1.391 . S
C147 H129 0.941 . S
C147 C146 1.391 1_565 S
C147 C148 1.396 . S
C148 H132 0.939 . S
C148 C147 1.396 . S
C148 C149 1.397 1_565 S
C149 C148 1.397 1_545 S
C149 C150 1.385 . S
C150 H133 0.940 . S
C150 C149 1.385 . S
C150 C151 1.388 . S
C151 H130 0.939 . S
C151 C146 1.391 . S
C151 C150 1.388 . S
P152 O163 1.490 . S
P152 C166 1.812 . S
P152 C172 1.803 . S
P152 C178 1.819 . S
H153 C167 0.941 . S
H154 C168 0.939 . S
H155 C170 0.940 . S
H156 C171 0.940 . S
H157 C173 0.939 . S
H158 C174 0.942 . S
H159 C176 0.940 . S
H160 C177 0.939 . S
H161 C179 0.941 . S
H162 C183 0.939 . S
O163 P152 1.490 . S
H164 C180 0.939 . S
H165 C182 0.940 . S
C166 P152 1.812 . S
C166 C167 1.389 . S
C166 C171 1.391 . S
C167 H153 0.941 . S
C167 C166 1.389 . S
C167 C168 1.397 . S
C168 H154 0.939 . S
C168 C167 1.397 . S
C168 C169 1.378 . S
C169 C168 1.378 . S
C169 C170 1.378 . S
C170 H155 0.940 . S
C170 C169 1.378 . S
C170 C171 1.396 . S
C171 H156 0.940 . S
C171 C166 1.391 . S
C171 C170 1.396 . S
C172 P152 1.803 . S
C172 C173 1.378 . S
C172 C177 1.400 . S
C173 H157 0.939 . S
C173 C172 1.378 . S
C173 C174 1.361 . S
C174 H158 0.942 . S
C174 C173 1.361 . S
C174 C175 1.369 . S
C175 C174 1.369 . S
C175 C176 1.404 . S
C176 H159 0.940 . S
C176 C175 1.404 . S
C176 C177 1.389 . S
C177 H160 0.939 . S
C177 C172 1.400 . S
C177 C176 1.389 . S
C178 P152 1.819 . S
C178 C179 1.391 . S
C178 C183 1.391 . S
C179 H161 0.941 . S
C179 C178 1.391 . S
C179 C180 1.396 . S
C180 H164 0.939 . S
C180 C179 1.396 . S
C180 C181 1.397 . S
C181 C180 1.397 . S
C181 C182 1.385 . S
C182 H165 0.940 . S
C182 C181 1.385 . S
C182 C183 1.388 . S
C183 H162 0.939 . S
C183 C178 1.391 . S
C183 C182 1.388 . S
P184 O195 1.490 . S
P184 C198 1.812 . S
P184 C204 1.803 . S
P184 C210 1.819 . S
H185 C199 0.941 . S
H186 C200 0.939 . S
H187 C202 0.940 . S
H188 C203 0.940 . S
H189 C205 0.939 . S
H190 C206 0.942 . S
H191 C208 0.940 . S
H192 C209 0.939 . S
H193 C211 0.941 . S
H194 C215 0.940 1_655 S
O195 P184 1.490 . S
H196 C212 0.939 . S
H197 C214 0.940 1_655 S
C198 P184 1.812 . S
C198 C199 1.389 . S
C198 C203 1.391 . S
C199 H185 0.941 . S
C199 C198 1.389 . S
C199 C200 1.397 . S
C200 H186 0.939 . S
C200 C199 1.397 . S
C200 C201 1.378 . S
C201 C200 1.378 . S
C201 C202 1.378 . S
C202 H187 0.940 . S
C202 C201 1.378 . S
C202 C203 1.396 . S
C203 H188 0.940 . S
C203 C198 1.391 . S
C203 C202 1.396 . S
C204 P184 1.803 . S
C204 C205 1.378 . S
C204 C209 1.400 . S
C205 H189 0.939 . S
C205 C204 1.378 . S
C205 C206 1.361 1_455 S
C206 H190 0.942 . S
C206 C205 1.361 1_655 S
C206 C207 1.369 . S
C207 C206 1.369 . S
C207 C208 1.404 . S
C208 H191 0.940 . S
C208 C207 1.404 . S
C208 C209 1.389 1_655 S
C209 H192 0.939 . S
C209 C204 1.400 . S
C209 C208 1.389 1_455 S
C210 P184 1.819 . S
C210 C211 1.391 . S
C210 C215 1.391 . S
C211 H193 0.941 . S
C211 C210 1.391 . S
C211 C212 1.396 . S
C212 H196 0.939 . S
C212 C211 1.396 . S
C212 C213 1.397 . S
C213 C212 1.397 . S
C213 C214 1.385 . S
C214 H197 0.940 1_455 S
C214 C213 1.385 . S
C214 C215 1.388 . S
C215 H194 0.940 1_455 S
C215 C210 1.391 . S
C215 C214 1.388 . S
P216 O227 1.490 . S
P216 C230 1.812 . S
P216 C236 1.803 1_455 S
P216 C242 1.819 . S
H217 C231 0.941 . S
H218 C232 0.939 . S
H219 C234 0.940 . S
H220 C235 0.940 . S
H221 C237 0.939 . S
H222 C238 0.942 . S
H223 C240 0.940 . S
H224 C241 0.939 . S
H225 C243 0.941 . S
H226 C247 0.939 . S
O227 P216 1.490 . S
H228 C244 0.939 . S
H229 C246 0.940 . S
C230 P216 1.812 . S
C230 C231 1.389 . S
C230 C235 1.391 . S
C231 H217 0.941 . S
C231 C230 1.389 . S
C231 C232 1.397 . S
C232 H218 0.939 . S
C232 C231 1.397 . S
C232 C233 1.378 . S
C233 C232 1.378 . S
C233 C234 1.378 . S
C234 H219 0.940 . S
C234 C233 1.378 . S
C234 C235 1.396 . S
C235 H220 0.940 . S
C235 C230 1.391 . S
C235 C234 1.396 . S
C236 P216 1.803 1_655 S
C236 C237 1.378 . S
C236 C241 1.400 . S
C237 H221 0.939 . S
C237 C236 1.378 . S
C237 C238 1.361 . S
C238 H222 0.942 . S
C238 C237 1.361 . S
C238 C239 1.369 . S
C239 C238 1.369 . S
C239 C240 1.404 . S
C240 H223 0.940 . S
C240 C239 1.404 . S
C240 C241 1.389 . S
C241 H224 0.939 . S
C241 C236 1.400 . S
C241 C240 1.389 . S
C242 P216 1.819 . S
C242 C243 1.391 . S
C242 C247 1.391 1_455 S
C243 H225 0.941 . S
C243 C242 1.391 . S
C243 C244 1.396 . S
C244 H228 0.939 . S
C244 C243 1.396 . S
C244 C245 1.397 . S
C245 C244 1.397 . S
C245 C246 1.385 1_455 S
C246 H229 0.940 . S
C246 C245 1.385 1_655 S
C246 C247 1.388 . S
C247 H226 0.939 . S
C247 C242 1.391 1_655 S
C247 C246 1.388 . S
P248 O259 1.490 . S
P248 C262 1.812 . S
P248 C268 1.803 1_545 S
P248 C274 1.819 . S
H249 C263 0.941 . S
H250 C264 0.939 . S
H251 C266 0.940 . S
H252 C267 0.940 . S
H253 C269 0.939 . S
H254 C270 0.942 . S
H255 C272 0.940 . S
H256 C273 0.939 . S
H257 C275 0.941 . S
H258 C279 0.939 . S
O259 P248 1.490 . S
H260 C276 0.939 . S
H261 C278 0.940 . S
C262 P248 1.812 . S
C262 C263 1.389 . S
C262 C267 1.391 . S
C263 H249 0.941 . S
C263 C262 1.389 . S
C263 C264 1.397 . S
C264 H250 0.939 . S
C264 C263 1.397 . S
C264 C265 1.378 . S
C265 C264 1.378 . S
C265 C266 1.378 . S
C266 H251 0.940 . S
C266 C265 1.378 . S
C266 C267 1.396 . S
C267 H252 0.940 . S
C267 C262 1.391 . S
C267 C266 1.396 . S
C268 P248 1.803 1_565 S
C268 C269 1.378 . S
C268 C273 1.400 . S
C269 H253 0.939 . S
C269 C268 1.378 . S
C269 C270 1.361 . S
C270 H254 0.942 . S
C270 C269 1.361 . S
C270 C271 1.369 . S
C271 C270 1.369 . S
C271 C272 1.404 . S
C272 H255 0.940 . S
C272 C271 1.404 . S
C272 C273 1.389 . S
C273 H256 0.939 . S
C273 C268 1.400 . S
C273 C272 1.389 . S
C274 P248 1.819 . S
C274 C275 1.391 . S
C274 C279 1.391 1_545 S
C275 H257 0.941 . S
C275 C274 1.391 . S
C275 C276 1.396 . S
C276 H260 0.939 . S
C276 C275 1.396 . S
C276 C277 1.397 . S
C277 C276 1.397 . S
C277 C278 1.385 1_545 S
C278 H261 0.940 . S
C278 C277 1.385 1_565 S
C278 C279 1.388 . S
C279 H258 0.939 . S
C279 C274 1.391 1_565 S
C279 C278 1.388 . S
P280 O291 1.490 . S
P280 C294 1.812 . S
P280 C300 1.803 . S
P280 C306 1.819 . S
H281 C295 0.941 . S
H282 C296 0.939 . S
H283 C298 0.940 . S
H284 C299 0.940 . S
H285 C301 0.939 . S
H286 C302 0.942 . S
H287 C304 0.940 . S
H288 C305 0.939 . S
H289 C307 0.941 . S
H290 C311 0.939 . S
O291 P280 1.490 . S
H292 C308 0.939 . S
H293 C310 0.940 . S
C294 P280 1.812 . S
C294 C295 1.389 . S
C294 C299 1.391 . S
C295 H281 0.941 . S
C295 C294 1.389 . S
C295 C296 1.397 . S
C296 H282 0.939 . S
C296 C295 1.397 . S
C296 C297 1.378 . S
C297 C296 1.378 . S
C297 C298 1.378 . S
C298 H283 0.940 . S
C298 C297 1.378 . S
C298 C299 1.396 . S
C299 H284 0.940 . S
C299 C294 1.391 . S
C299 C298 1.396 . S
C300 P280 1.803 . S
C300 C301 1.378 . S
C300 C305 1.400 . S
C301 H285 0.939 . S
C301 C300 1.378 . S
C301 C302 1.361 . S
C302 H286 0.942 . S
C302 C301 1.361 . S
C302 C303 1.369 . S
C303 C302 1.369 . S
C303 C304 1.404 . S
C304 H287 0.940 . S
C304 C303 1.404 . S
C304 C305 1.389 . S
C305 H288 0.939 . S
C305 C300 1.400 . S
C305 C304 1.389 . S
C306 P280 1.819 . S
C306 C307 1.391 . S
C306 C311 1.391 . S
C307 H289 0.941 . S
C307 C306 1.391 . S
C307 C308 1.396 . S
C308 H292 0.939 . S
C308 C307 1.396 . S
C308 C309 1.397 . S
C309 C308 1.397 . S
C309 C310 1.385 . S
C310 H293 0.940 . S
C310 C309 1.385 . S
C310 C311 1.388 . S
C311 H290 0.939 . S
C311 C306 1.391 . S
C311 C310 1.388 . S
H312 C320 0.950 . S
H313 C325 0.950 . S
H314 C322 0.950 . S
H315 C324 0.950 . S
H316 C326 0.950 . S
H317 C328 0.950 . S
H318 C330 0.950 . S
H319 C331 0.950 . S
C320 H312 0.950 . S
C320 C321 1.386 . S
C320 C322 1.391 . S
C321 C320 1.386 . S
C321 C325 1.393 . S
C322 H314 0.950 . S
C322 C320 1.391 . S
C322 C323 1.400 . S
C323 C322 1.400 . S
C323 C324 1.398 . S
C323 C329 1.491 . S
C324 H315 0.950 . S
C324 C323 1.398 . S
C324 C325 1.391 . S
C325 H313 0.950 . S
C325 C321 1.393 . S
C325 C324 1.391 . S
C326 H316 0.950 . S
C326 C327 1.386 . S
C326 C328 1.391 . S
C327 C326 1.386 . S
C327 C331 1.393 . S
C328 H317 0.950 . S
C328 C326 1.391 . S
C328 C329 1.400 . S
C329 C323 1.491 . S
C329 C328 1.400 . S
C329 C330 1.398 . S
C330 H318 0.950 . S
C330 C329 1.398 . S
C330 C331 1.391 . S
C331 H319 0.950 . S
C331 C327 1.393 . S
C331 C330 1.391 . S
H332 C340 0.950 . S
H333 C345 0.950 . S
H334 C342 0.950 . S
H335 C344 0.950 . S
H336 C346 0.950 . S
H337 C348 0.950 . S
H338 C350 0.950 . S
H339 C351 0.950 . S
C340 H332 0.950 . S
C340 C341 1.386 . S
C340 C342 1.391 . S
C341 C340 1.386 . S
C341 C345 1.393 . S
C342 H334 0.950 . S
C342 C340 1.391 . S
C342 C343 1.400 . S
C343 C342 1.400 . S
C343 C344 1.398 . S
C343 C349 1.491 . S
C344 H335 0.950 . S
C344 C343 1.398 . S
C344 C345 1.391 . S
C345 H333 0.950 . S
C345 C341 1.393 . S
C345 C344 1.391 . S
C346 H336 0.950 . S
C346 C347 1.386 . S
C346 C348 1.391 . S
C347 C346 1.386 . S
C347 C351 1.393 . S
C348 H337 0.950 . S
C348 C346 1.391 . S
C348 C349 1.400 . S
C349 C343 1.491 . S
C349 C348 1.400 . S
C349 C350 1.398 . S
C350 H338 0.950 . S
C350 C349 1.398 . S
C350 C351 1.391 . S
C351 H339 0.950 . S
C351 C347 1.393 . S
C351 C350 1.391 . S
H352 C360 0.950 . S
H353 C365 0.950 . S
H354 C362 0.950 . S
H355 C364 0.950 . S
H356 C366 0.950 . S
H357 C368 0.950 . S
H358 C370 0.950 . S
H359 C371 0.950 . S
C360 H352 0.950 . S
C360 C361 1.386 . S
C360 C362 1.391 . S
C361 C360 1.386 . S
C361 C365 1.393 . S
C362 H354 0.950 . S
C362 C360 1.391 . S
C362 C363 1.400 . S
C363 C362 1.400 . S
C363 C364 1.398 . S
C363 C369 1.491 . S
C364 H355 0.950 . S
C364 C363 1.398 . S
C364 C365 1.391 . S
C365 H353 0.950 . S
C365 C361 1.393 . S
C365 C364 1.391 . S
C366 H356 0.950 . S
C366 C367 1.386 . S
C366 C368 1.391 . S
C367 C366 1.386 . S
C367 C371 1.393 . S
C368 H357 0.950 . S
C368 C366 1.391 . S
C368 C369 1.400 . S
C369 C363 1.491 . S
C369 C368 1.400 . S
C369 C370 1.398 . S
C370 H358 0.950 . S
C370 C369 1.398 . S
C370 C371 1.391 . S
C371 H359 0.950 . S
C371 C367 1.393 . S
C371 C370 1.391 . S
H372 C380 0.950 . S
H373 C385 0.950 . S
H374 C382 0.950 . S
H375 C384 0.950 . S
H376 C386 0.950 . S
H377 C388 0.950 . S
H378 C390 0.950 . S
H379 C391 0.950 . S
C380 H372 0.950 . S
C380 C381 1.386 . S
C380 C382 1.391 . S
C381 C380 1.386 . S
C381 C385 1.393 . S
C382 H374 0.950 . S
C382 C380 1.391 . S
C382 C383 1.400 . S
C383 C382 1.400 . S
C383 C384 1.398 . S
C383 C389 1.491 . S
C384 H375 0.950 . S
C384 C383 1.398 . S
C384 C385 1.391 . S
C385 H373 0.950 . S
C385 C381 1.393 . S
C385 C384 1.391 . S
C386 H376 0.950 . S
C386 C387 1.386 . S
C386 C388 1.391 . S
C387 C386 1.386 . S
C387 C391 1.393 . S
C388 H377 0.950 . S
C388 C386 1.391 . S
C388 C389 1.400 . S
C389 C383 1.491 . S
C389 C388 1.400 . S
C389 C390 1.398 . S
C390 H378 0.950 . S
C390 C389 1.398 . S
C390 C391 1.391 . S
C391 H379 0.950 . S
C391 C387 1.393 . S
C391 C390 1.391 . S
H392 C400 0.950 . S
H393 C405 0.950 . S
H394 C402 0.950 . S
H395 C404 0.950 . S
H396 C406 0.950 . S
H397 C408 0.950 . S
H398 C410 0.950 . S
H399 C411 0.950 . S
C400 H392 0.950 . S
C400 C401 1.386 . S
C400 C402 1.391 . S
C401 C400 1.386 . S
C401 C405 1.393 . S
C402 H394 0.950 . S
C402 C400 1.391 . S
C402 C403 1.400 . S
C403 C402 1.400 . S
C403 C404 1.398 . S
C403 C409 1.491 . S
C404 H395 0.950 . S
C404 C403 1.398 . S
C404 C405 1.391 . S
C405 H393 0.950 . S
C405 C401 1.393 . S
C405 C404 1.391 . S
C406 H396 0.950 . S
C406 C407 1.386 . S
C406 C408 1.391 . S
C407 C406 1.386 . S
C407 C411 1.393 . S
C408 H397 0.950 . S
C408 C406 1.391 . S
C408 C409 1.400 . S
C409 C403 1.491 . S
C409 C408 1.400 . S
C409 C410 1.398 . S
C410 H398 0.950 . S
C410 C409 1.398 . S
C410 C411 1.391 . S
C411 H399 0.950 . S
C411 C407 1.393 . S
C411 C410 1.391 . S
H412 C420 0.950 . S
H413 C425 0.950 . S
H414 C422 0.950 . S
H415 C424 0.950 . S
H416 C426 0.950 . S
H417 C428 0.950 . S
H418 C430 0.950 . S
H419 C431 0.950 . S
C420 H412 0.950 . S
C420 C421 1.386 . S
C420 C422 1.391 . S
C421 C420 1.386 . S
C421 C425 1.393 . S
C422 H414 0.950 . S
C422 C420 1.391 . S
C422 C423 1.400 . S
C423 C422 1.400 . S
C423 C424 1.398 . S
C423 C429 1.491 . S
C424 H415 0.950 . S
C424 C423 1.398 . S
C424 C425 1.391 . S
C425 H413 0.950 . S
C425 C421 1.393 . S
C425 C424 1.391 . S
C426 H416 0.950 . S
C426 C427 1.386 . S
C426 C428 1.391 . S
C427 C426 1.386 . S
C427 C431 1.393 . S
C428 H417 0.950 . S
C428 C426 1.391 . S
C428 C429 1.400 . S
C429 C423 1.491 . S
C429 C428 1.400 . S
C429 C430 1.398 . S
C430 H418 0.950 . S
C430 C429 1.398 . S
C430 C431 1.391 . S
C431 H419 0.950 . S
C431 C427 1.393 . S
C431 C430 1.391 . S
H432 C440 0.950 . S
H433 C445 0.950 . S
H434 C442 0.950 . S
H435 C444 0.950 . S
H436 C446 0.950 . S
H437 C448 0.950 . S
H438 C450 0.950 . S
H439 C451 0.950 . S
C440 H432 0.950 . S
C440 C441 1.386 . S
C440 C442 1.391 . S
C441 C440 1.386 . S
C441 C445 1.393 . S
C442 H434 0.950 . S
C442 C440 1.391 . S
C442 C443 1.400 . S
C443 C442 1.400 . S
C443 C444 1.398 . S
C443 C449 1.491 . S
C444 H435 0.950 . S
C444 C443 1.398 . S
C444 C445 1.391 . S
C445 H433 0.950 . S
C445 C441 1.393 . S
C445 C444 1.391 . S
C446 H436 0.950 . S
C446 C447 1.386 . S
C446 C448 1.391 . S
C447 C446 1.386 . S
C447 C451 1.393 . S
C448 H437 0.950 . S
C448 C446 1.391 . S
C448 C449 1.400 . S
C449 C443 1.491 . S
C449 C448 1.400 . S
C449 C450 1.398 . S
C450 H438 0.950 . S
C450 C449 1.398 . S
C450 C451 1.391 . S
C451 H439 0.950 . S
C451 C447 1.393 . S
C451 C450 1.391 . S
H452 C460 0.950 . S
H453 C465 0.950 . S
H454 C462 0.950 . S
H455 C464 0.950 . S
H456 C466 0.950 . S
H457 C468 0.950 . S
H458 C470 0.950 . S
H459 C471 0.950 . S
C460 H452 0.950 . S
C460 C461 1.386 . S
C460 C462 1.391 . S
C461 C460 1.386 . S
C461 C465 1.393 . S
C462 H454 0.950 . S
C462 C460 1.391 . S
C462 C463 1.400 . S
C463 C462 1.400 . S
C463 C464 1.398 . S
C463 C469 1.491 . S
C464 H455 0.950 . S
C464 C463 1.398 . S
C464 C465 1.391 . S
C465 H453 0.950 . S
C465 C461 1.393 . S
C465 C464 1.391 . S
C466 H456 0.950 . S
C466 C467 1.386 . S
C466 C468 1.391 . S
C467 C466 1.386 . S
C467 C471 1.393 . S
C468 H457 0.950 . S
C468 C466 1.391 . S
C468 C469 1.400 . S
C469 C463 1.491 . S
C469 C468 1.400 . S
C469 C470 1.398 . S
C470 H458 0.950 . S
C470 C469 1.398 . S
C470 C471 1.391 . S
C471 H459 0.950 . S
C471 C467 1.393 . S
C471 C470 1.391 . S
H472 C480 0.950 . S
H473 C485 0.950 . S
H474 C482 0.950 . S
H475 C484 0.950 . S
H476 C486 0.950 . S
H477 C488 0.950 . S
H478 C490 0.950 . S
H479 C491 0.950 . S
C480 H472 0.950 . S
C480 C481 1.386 . S
C480 C482 1.391 . S
C481 C480 1.386 . S
C481 C485 1.393 . S
C482 H474 0.950 . S
C482 C480 1.391 . S
C482 C483 1.400 . S
C483 C482 1.400 . S
C483 C484 1.398 . S
C483 C489 1.491 . S
C484 H475 0.950 . S
C484 C483 1.398 . S
C484 C485 1.391 . S
C485 H473 0.950 . S
C485 C481 1.393 . S
C485 C484 1.391 . S
C486 H476 0.950 . S
C486 C487 1.386 . S
C486 C488 1.391 . S
C487 C486 1.386 . S
C487 C491 1.393 . S
C488 H477 0.950 . S
C488 C486 1.391 . S
C488 C489 1.400 . S
C489 C483 1.491 . S
C489 C488 1.400 . S
C489 C490 1.398 . S
C490 H478 0.950 . S
C490 C489 1.398 . S
C490 C491 1.391 . S
C491 H479 0.950 . S
C491 C487 1.393 . S
C491 C490 1.391 . S
H492 C500 0.950 . S
H493 C505 0.950 . S
H494 C502 0.950 . S
H495 C504 0.950 . S
H496 C506 0.950 . S
H497 C508 0.950 . S
H498 C510 0.950 . S
H499 C511 0.950 . S
C500 H492 0.950 . S
C500 C501 1.386 . S
C500 C502 1.391 . S
C501 C500 1.386 . S
C501 C505 1.393 . S
C502 H494 0.950 . S
C502 C500 1.391 . S
C502 C503 1.400 . S
C503 C502 1.400 . S
C503 C504 1.398 . S
C503 C509 1.491 . S
C504 H495 0.950 . S
C504 C503 1.398 . S
C504 C505 1.391 . S
C505 H493 0.950 . S
C505 C501 1.393 . S
C505 C504 1.391 . S
C506 H496 0.950 . S
C506 C507 1.386 . S
C506 C508 1.391 . S
C507 C506 1.386 . S
C507 C511 1.393 . S
C508 H497 0.950 . S
C508 C506 1.391 . S
C508 C509 1.400 . S
C509 C503 1.491 . S
C509 C508 1.400 . S
C509 C510 1.398 . S
C510 H498 0.950 . S
C510 C509 1.398 . S
C510 C511 1.391 . S
C511 H499 0.950 . S
C511 C507 1.393 . S
C511 C510 1.391 . S
H512 C520 0.950 . S
H513 C525 0.950 . S
H514 C522 0.950 . S
H515 C524 0.950 . S
H516 C526 0.950 . S
H517 C528 0.950 . S
H518 C530 0.950 . S
H519 C531 0.950 . S
C520 H512 0.950 . S
C520 C521 1.386 . S
C520 C522 1.391 . S
C521 C520 1.386 . S
C521 C525 1.393 . S
C522 H514 0.950 . S
C522 C520 1.391 . S
C522 C523 1.400 . S
C523 C522 1.400 . S
C523 C524 1.398 . S
C523 C529 1.491 . S
C524 H515 0.950 . S
C524 C523 1.398 . S
C524 C525 1.391 . S
C525 H513 0.950 . S
C525 C521 1.393 . S
C525 C524 1.391 . S
C526 H516 0.950 . S
C526 C527 1.386 . S
C526 C528 1.391 . S
C527 C526 1.386 . S
C527 C531 1.393 . S
C528 H517 0.950 . S
C528 C526 1.391 . S
C528 C529 1.400 . S
C529 C523 1.491 . S
C529 C528 1.400 . S
C529 C530 1.398 . S
C530 H518 0.950 . S
C530 C529 1.398 . S
C530 C531 1.391 . S
C531 H519 0.950 . S
C531 C527 1.393 . S
C531 C530 1.391 . S
H532 C540 0.950 . S
H533 C545 0.950 . S
H534 C542 0.950 . S
H535 C544 0.950 . S
H536 C546 0.950 . S
H537 C548 0.950 . S
H538 C550 0.950 . S
H539 C551 0.950 . S
C540 H532 0.950 . S
C540 C541 1.386 . S
C540 C542 1.391 . S
C541 C540 1.386 . S
C541 C545 1.393 . S
C542 H534 0.950 . S
C542 C540 1.391 . S
C542 C543 1.400 . S
C543 C542 1.400 . S
C543 C544 1.398 . S
C543 C549 1.491 . S
C544 H535 0.950 . S
C544 C543 1.398 . S
C544 C545 1.391 . S
C545 H533 0.950 . S
C545 C541 1.393 . S
C545 C544 1.391 . S
C546 H536 0.950 . S
C546 C547 1.386 . S
C546 C548 1.391 . S
C547 C546 1.386 . S
C547 C551 1.393 . S
C548 H537 0.950 . S
C548 C546 1.391 . S
C548 C549 1.400 . S
C549 C543 1.491 . S
C549 C548 1.400 . S
C549 C550 1.398 . S
C550 H538 0.950 . S
C550 C549 1.398 . S
C550 C551 1.391 . S
C551 H539 0.950 . S
C551 C547 1.393 . S
C551 C550 1.391 . S
H552 C560 0.950 . S
H553 C565 0.950 . S
H554 C562 0.950 . S
H555 C564 0.950 . S
H556 C566 0.950 1_655 S
H557 C568 0.921 1_655 S
H558 C570 0.950 . S
H559 C571 0.950 . S
C560 H552 0.950 . S
C560 C561 1.386 . S
C560 C562 1.391 . S
C561 C560 1.386 . S
C561 C565 1.393 1_455 S
C562 H554 0.950 . S
C562 C560 1.391 . S
C562 C563 1.400 . S
C563 C562 1.400 . S
C563 C564 1.398 1_455 S
C563 C569 1.491 . S
C564 H555 0.950 . S
C564 C563 1.398 1_655 S
C564 C565 1.391 . S
C565 H553 0.950 . S
C565 C561 1.393 1_655 S
C565 C564 1.391 . S
C566 H556 0.950 1_455 S
C566 C567 1.386 . S
C566 C568 1.392 1_556 S
C567 C566 1.386 . S
C567 C571 1.393 . S
C568 H557 0.921 1_455 S
C568 C566 1.392 1_554 S
C568 C569 1.428 . S
C569 C563 1.491 . S
C569 C568 1.428 . S
C569 C570 1.398 . S
C570 H558 0.950 . S
C570 C569 1.398 . S
C570 C571 1.391 1_554 S
C571 H559 0.950 . S
C571 C567 1.393 . S
C571 C570 1.391 1_556 S
H572 C580 0.950 1_565 S
H573 C585 0.950 . S
H574 C582 0.928 1_565 S
H575 C584 0.950 . S
H576 C586 0.950 . S
H577 C588 0.950 . S
H578 C590 0.950 . S
H579 C591 0.950 . S
C580 H572 0.950 1_545 S
C580 C581 1.386 . S
C580 C582 1.391 . S
C581 C580 1.386 . S
C581 C585 1.393 . S
C582 H574 0.928 1_545 S
C582 C580 1.391 . S
C582 C583 1.400 . S
C583 C582 1.400 . S
C583 C584 1.398 . S
C583 C589 1.491 . S
C584 H575 0.950 . S
C584 C583 1.398 . S
C584 C585 1.391 . S
C585 H573 0.950 . S
C585 C581 1.393 . S
C585 C584 1.391 . S
C586 H576 0.950 . S
C586 C587 1.386 . S
C586 C588 1.391 . S
C587 C586 1.386 . S
C587 C591 1.393 . S
C588 H577 0.950 . S
C588 C586 1.391 . S
C588 C589 1.400 . S
C589 C583 1.491 . S
C589 C588 1.400 . S
C589 C590 1.398 . S
C590 H578 0.950 . S
C590 C589 1.398 . S
C590 C591 1.391 . S
C591 H579 0.950 . S
C591 C587 1.393 . S
C591 C590 1.391 . S
H592 C600 0.950 . S
H593 C605 0.950 . S
H594 C602 0.950 . S
H595 C604 0.950 . S
H596 C606 0.950 . S
H597 C608 0.950 . S
H598 C610 0.950 . S
H599 C611 0.950 . S
C600 H592 0.950 . S
C600 C601 1.386 . S
C600 C602 1.391 . S
C601 C600 1.386 . S
C601 C605 1.393 . S
C602 H594 0.950 . S
C602 C600 1.391 . S
C602 C603 1.400 . S
C603 C602 1.400 . S
C603 C604 1.398 . S
C603 C609 1.491 . S
C604 H595 0.950 . S
C604 C603 1.398 . S
C604 C605 1.391 . S
C605 H593 0.950 . S
C605 C601 1.393 . S
C605 C604 1.391 . S
C606 H596 0.950 . S
C606 C607 1.386 . S
C606 C608 1.391 . S
C607 C606 1.386 . S
C607 C611 1.393 . S
C608 H597 0.950 . S
C608 C606 1.391 . S
C608 C609 1.400 . S
C609 C603 1.491 . S
C609 C608 1.400 . S
C609 C610 1.398 . S
C610 H598 0.950 . S
C610 C609 1.398 . S
C610 C611 1.391 . S
C611 H599 0.950 . S
C611 C607 1.393 . S
C611 C610 1.391 . S
H612 C620 0.950 . S
H613 C625 0.950 . S
H614 C622 0.950 . S
H615 C624 0.950 . S
H616 C626 0.950 . S
H617 C628 0.950 . S
H618 C630 0.950 . S
H619 C631 0.950 . S
C620 H612 0.950 . S
C620 C621 1.386 1_565 S
C620 C622 1.391 . S
C621 C620 1.386 1_545 S
C621 C625 1.393 . S
C622 H614 0.950 . S
C622 C620 1.391 . S
C622 C623 1.400 1_565 S
C623 C622 1.400 1_545 S
C623 C624 1.398 . S
C623 C629 1.491 . S
C624 H615 0.950 . S
C624 C623 1.398 . S
C624 C625 1.391 . S
C625 H613 0.950 . S
C625 C621 1.393 . S
C625 C624 1.391 . S
C626 H616 0.950 . S
C626 C627 1.387 1_545 S
C626 C628 1.391 . S
C627 C626 1.387 1_565 S
C627 C631 1.391 . S
C628 H617 0.950 . S
C628 C626 1.391 . S
C628 C629 1.400 . S
C629 C623 1.491 . S
C629 C628 1.400 . S
C629 C630 1.398 1_545 S
C630 H618 0.950 . S
C630 C629 1.398 1_565 S
C630 C631 1.391 . S
C631 H619 0.950 . S
C631 C627 1.391 . S
C631 C630 1.391 . S
H632 C640 0.950 . S
H633 C645 0.950 . S
H634 C642 0.950 . S
H635 C644 0.950 . S
H636 C646 0.950 1_554 S
H637 C648 0.950 . S
H638 C650 0.950 . S
H639 C651 0.950 . S
C640 H632 0.950 . S
C640 C641 1.386 . S
C640 C642 1.391 . S
C641 C640 1.386 . S
C641 C645 1.393 . S
C642 H634 0.950 . S
C642 C640 1.391 . S
C642 C643 1.400 . S
C643 C642 1.400 . S
C643 C644 1.398 . S
C643 C649 1.491 . S
C644 H635 0.950 . S
C644 C643 1.398 . S
C644 C645 1.391 . S
C645 H633 0.950 . S
C645 C641 1.393 . S
C645 C644 1.391 . S
C646 H636 0.950 1_556 S
C646 C647 1.386 1_556 S
C646 C648 1.391 . S
C647 C646 1.386 1_554 S
C647 C651 1.393 1_554 S
C648 H637 0.950 . S
C648 C646 1.391 . S
C648 C649 1.400 . S
C649 C643 1.491 . S
C649 C648 1.400 . S
C649 C650 1.398 . S
C650 H638 0.950 . S
C650 C649 1.398 . S
C650 C651 1.391 . S
C651 H639 0.950 . S
C651 C647 1.393 1_556 S
C651 C650 1.391 . S
H652 C660 0.952 1_655 S
H653 C665 0.950 . S
H654 C662 0.950 1_655 S
H655 C664 0.950 . S
H656 C666 0.950 . S
H657 C668 0.950 . S
H658 C670 0.950 1_655 S
H659 C671 0.950 . S
C660 H652 0.952 1_455 S
C660 C661 1.386 . S
C660 C662 1.391 . S
C661 C660 1.386 . S
C661 C665 1.393 . S
C662 H654 0.950 1_455 S
C662 C660 1.391 . S
C662 C663 1.400 . S
C663 C662 1.400 . S
C663 C664 1.398 . S
C663 C669 1.491 . S
C664 H655 0.950 . S
C664 C663 1.398 . S
C664 C665 1.391 . S
C665 H653 0.950 . S
C665 C661 1.393 . S
C665 C664 1.391 . S
C666 H656 0.950 . S
C666 C667 1.386 . S
C666 C668 1.391 . S
C667 C666 1.386 . S
C667 C671 1.393 1_455 S
C668 H657 0.950 . S
C668 C666 1.391 . S
C668 C669 1.400 . S
C669 C663 1.491 . S
C669 C668 1.400 . S
C669 C670 1.398 . S
C670 H658 0.950 1_455 S
C670 C669 1.398 . S
C670 C671 1.391 1_455 S
C671 H659 0.950 . S
C671 C667 1.393 1_655 S
C671 C670 1.391 1_655 S
C321 C6 0.543 . S
C327 C303 0.533 . S
C341 C59 1.901 . S
C347 C239 1.847 . S
C361 C86 1.248 . S
C367 C271 1.226 . S
C381 C15 0.519 . S
C387 C297 0.446 . S
C407 C233 1.895 . S
C401 C50 1.955 . S
C427 C265 1.271 . S
C421 C95 1.270 . S
C441 C46 1.225 . S
C447 C175 1.216 . S
C461 C99 3.051 . S
C467 C207 2.979 . S
C481 C10 1.983 . S
C487 C137 1.945 . S
C507 C169 1.265 . S
C501 C55 1.276 . S
C527 C201 2.969 . S
C521 C90 2.985 . S
C541 C19 1.895 . S
C547 C143 1.843 . S
C567 C213 1.730 . S
C561 C18 1.715 . S
C581 C49 1.338 . S
C587 C149 1.351 . S
C601 C98 1.443 . S
C607 C181 1.474 . S
C627 C277 1.461 1_565 S
C621 C58 1.456 . S
C647 C309 1.082 . S
C641 C89 1.077 . S
C661 C9 1.332 . S
C667 C245 1.337 . S
