# Generated by pormake.
# Topology dag, (6,3)-cn, num edge types: 1
# Building blocks:
#     Node 0, Type 0, BuildingBlock: IZENUY_clean_sbu_0, # of connection points: 6
#     Node 1, Type 0, BuildingBlock: IZENUY_clean_sbu_0, # of connection points: 6
#     Node 2, Type 0, BuildingBlock: IZENUY_clean_sbu_0, # of connection points: 6
#     Node 3, Type 0, BuildingBlock: IZENUY_clean_sbu_0, # of connection points: 6
#     Node 4, Type 1, BuildingBlock: MIDCAF_clean_linker_0, # of connection points: 3
#     Node 5, Type 1, BuildingBlock: MIDCAF_clean_linker_0, # of connection points: 3
#     Node 6, Type 1, BuildingBlock: MIDCAF_clean_linker_0, # of connection points: 3
#     Node 7, Type 1, BuildingBlock: MIDCAF_clean_linker_0, # of connection points: 3
#     Node 8, Type 1, BuildingBlock: MIDCAF_clean_linker_0, # of connection points: 3
#     Node 9, Type 1, BuildingBlock: MIDCAF_clean_linker_0, # of connection points: 3
#     Node 10, Type 1, BuildingBlock: MIDCAF_clean_linker_0, # of connection points: 3
#     Node 11, Type 1, BuildingBlock: MIDCAF_clean_linker_0, # of connection points: 3
#     Edge 12, Type (0, 1), BuildingBlock: OJICUG_clean_linker_0, # of connection points: 2
#     Edge 13, Type (0, 1), BuildingBlock: OJICUG_clean_linker_0, # of connection points: 2
#     Edge 14, Type (0, 1), BuildingBlock: OJICUG_clean_linker_0, # of connection points: 2
#     Edge 15, Type (0, 1), BuildingBlock: OJICUG_clean_linker_0, # of connection points: 2
#     Edge 16, Type (0, 1), BuildingBlock: OJICUG_clean_linker_0, # of connection points: 2
#     Edge 17, Type (0, 1), BuildingBlock: OJICUG_clean_linker_0, # of connection points: 2
#     Edge 18, Type (0, 1), BuildingBlock: OJICUG_clean_linker_0, # of connection points: 2
#     Edge 19, Type (0, 1), BuildingBlock: OJICUG_clean_linker_0, # of connection points: 2
#     Edge 20, Type (0, 1), BuildingBlock: OJICUG_clean_linker_0, # of connection points: 2
#     Edge 21, Type (0, 1), BuildingBlock: OJICUG_clean_linker_0, # of connection points: 2
#     Edge 22, Type (0, 1), BuildingBlock: OJICUG_clean_linker_0, # of connection points: 2
#     Edge 23, Type (0, 1), BuildingBlock: OJICUG_clean_linker_0, # of connection points: 2
#     Edge 24, Type (0, 1), BuildingBlock: OJICUG_clean_linker_0, # of connection points: 2
#     Edge 25, Type (0, 1), BuildingBlock: OJICUG_clean_linker_0, # of connection points: 2
#     Edge 26, Type (0, 1), BuildingBlock: OJICUG_clean_linker_0, # of connection points: 2
#     Edge 27, Type (0, 1), BuildingBlock: OJICUG_clean_linker_0, # of connection points: 2
#     Edge 28, Type (0, 1), BuildingBlock: OJICUG_clean_linker_0, # of connection points: 2
#     Edge 29, Type (0, 1), BuildingBlock: OJICUG_clean_linker_0, # of connection points: 2
#     Edge 30, Type (0, 1), BuildingBlock: OJICUG_clean_linker_0, # of connection points: 2
#     Edge 31, Type (0, 1), BuildingBlock: OJICUG_clean_linker_0, # of connection points: 2
#     Edge 32, Type (0, 1), BuildingBlock: OJICUG_clean_linker_0, # of connection points: 2
#     Edge 33, Type (0, 1), BuildingBlock: OJICUG_clean_linker_0, # of connection points: 2
#     Edge 34, Type (0, 1), BuildingBlock: OJICUG_clean_linker_0, # of connection points: 2
#     Edge 35, Type (0, 1), BuildingBlock: OJICUG_clean_linker_0, # of connection points: 2
# Relax obj value: 0.260
# Max RMSD: 0.197
# Mean RMSD: 0.161
data_MOF--net-dag--node1-IZENUY_clean_sbu_0--node2-MIDCAF_clean_linker_0--edge1-OJICUG_clean_linker_0
_symmetry_space_group_name_H-M    P1
_symmetry_Int_Tables_number       1
_symmetry_cell_setting            triclinic
loop_
_symmetry_equiv_pos_as_xyz
'x, y, z'
_cell_length_a     36.287583
_cell_length_b     37.697719
_cell_length_c     31.891924
_cell_angle_alpha  95.160791
_cell_angle_beta   90.233871
_cell_angle_gamma 90.08977
loop_
_atom_site_label
_atom_site_type_symbol
_atom_site_fract_x
_atom_site_fract_y
_atom_site_fract_z
_atom_type_partial_charge
Fe0 Fe 0.20042 0.83477 0.09699 0.0
Fe1 Fe 0.13009 0.85384 0.05097 0.0
O2 O 0.16012 0.8214 0.06818 0.0
Fe3 Fe 0.14926 0.77574 0.05641 0.0
O4 O 0.17004 0.76109 0.10474 0.0
O5 O 0.18615 0.81108 0.1409 0.0
O6 O 0.17883 0.87463 0.12472 0.0
C7 C 0.14501 0.88209 0.13093 0.0
C8 C 0.22345 0.77556 0.04144 0.0
O9 O 0.12065 0.87087 0.10461 0.0
C10 C 0.13135 0.80702 0.9814 0.0
O11 O 0.21785 0.85994 0.05529 0.0
O12 O 0.16572 0.88734 0.04539 0.0
O13 O 0.19148 0.76835 0.02761 0.0
O14 O 0.22852 0.797 0.07408 0.0
C15 C 0.08101 0.80135 0.07502 0.0
O16 O 0.1385 0.83823 0.99676 0.0
O17 O 0.12685 0.78213 0.00527 0.0
C18 C 0.19997 0.8841 0.03958 0.0
O19 O 0.08827 0.82664 0.05291 0.0
O20 O 0.10596 0.78044 0.0849 0.0
C21 C 0.17813 0.7785 0.13939 0.0
Fe22 Fe 0.70162 0.66265 0.50272 0.0
Fe23 Fe 0.64854 0.72155 0.53825 0.0
O24 O 0.66063 0.67582 0.52973 0.0
Fe25 Fe 0.63163 0.64294 0.54799 0.0
O26 O 0.66781 0.62762 0.58132 0.0
O27 O 0.70972 0.6235 0.5318 0.0
O28 O 0.7296 0.68798 0.54194 0.0
C29 C 0.72567 0.7208 0.55271 0.0
C30 C 0.6536 0.61226 0.4683 0.0
O31 O 0.69642 0.73704 0.54397 0.0
C32 C 0.58057 0.68707 0.51746 0.0
O33 O 0.70095 0.69911 0.46888 0.0
O34 O 0.64826 0.72661 0.48207 0.0
O35 O 0.64235 0.60889 0.50521 0.0
O36 O 0.67597 0.6367 0.46151 0.0
C37 C 0.62934 0.6982 0.6137 0.0
O38 O 0.59837 0.71371 0.53418 0.0
O39 O 0.59396 0.65617 0.51569 0.0
C40 C 0.67474 0.71821 0.45768 0.0
O41 O 0.64809 0.72006 0.59508 0.0
O42 O 0.61532 0.67089 0.59395 0.0
C43 C 0.69831 0.61585 0.56737 0.0
Fe44 Fe 0.8496 0.22044 0.02984 0.0
Fe45 Fe 0.87064 0.14287 0.03962 0.0
O46 O 0.83913 0.17434 0.02306 0.0
Fe47 Fe 0.79704 0.15952 -0.0006 0.0
O48 O 0.79348 0.19608 0.9658 0.0
O49 O 0.84641 0.2242 0.97336 0.0
O50 O 0.89979 0.21463 0.0231 0.0
C51 C 0.91804 0.18863 0.00594 0.0
C52 C 0.77389 0.21697 0.05029 0.0
O53 O 0.90579 0.15728 0.00484 0.0
C54 C 0.80644 0.11348 0.06379 0.0
O55 O 0.85331 0.21973 0.08666 0.0
O56 O 0.88829 0.17192 0.08426 0.0
O57 O 0.771 0.1838 0.04102 0.0
O58 O 0.80138 0.23416 0.03816 0.0
C59 C 0.84519 0.11125 0.96153 0.0
O60 O 0.8373 0.12634 0.07548 0.0
O61 O 0.79277 0.12013 0.02879 0.0
C62 C 0.87418 0.19891 0.10442 0.0
O63 O 0.85875 0.1083 0.99768 0.0
O64 O 0.82108 0.13457 0.95631 0.0
C65 C 0.81805 0.21556 0.95169 0.0
Fe66 Fe 0.36694 0.35425 0.54985 0.0
Fe67 Fe 0.29643 0.33601 0.59565 0.0
O68 O 0.33717 0.32213 0.56837 0.0
Fe69 Fe 0.3488 0.27641 0.55921 0.0
O70 O 0.3922 0.28292 0.58777 0.0
O71 O 0.40904 0.32786 0.55328 0.0
O72 O 0.37612 0.37302 0.60298 0.0
C73 C 0.35161 0.38454 0.6287 0.0
C74 C 0.36627 0.30516 0.48241 0.0
O75 O 0.31781 0.37664 0.62233 0.0
C76 C 0.27444 0.27457 0.54276 0.0
O77 O 0.33123 0.3872 0.54239 0.0
O78 O 0.27931 0.35966 0.5524 0.0
O79 O 0.37087 0.28129 0.50768 0.0
O80 O 0.35868 0.3367 0.4961 0.0
C81 C 0.31812 0.28154 0.64153 0.0
O82 O 0.26871 0.29758 0.57364 0.0
O83 O 0.30664 0.26692 0.53038 0.0
C84 C 0.29705 0.38361 0.53623 0.0
O85 O 0.30972 0.31386 0.6411 0.0
O86 O 0.32845 0.26332 0.60836 0.0
C87 C 0.4169 0.30349 0.57648 0.0
C88 C 0.93586 0.15225 0.27098 0.0
C89 C 0.93944 0.18813 0.2629 0.0
C90 C 0.96719 0.20896 0.28396 0.0
C91 C 0.99261 0.19345 0.30994 0.0
H92 H 0.07379 0.20924 0.40671 0.0
H93 H 0.1199 0.24166 0.45099 0.0
H94 H 0.18162 0.14445 0.45756 0.0
H95 H 0.13616 0.11212 0.41288 0.0
H96 H 0.12392 0.04854 0.34078 0.0
H97 H 0.14428 0.99485 0.29878 0.0
H98 H 0.04574 0.99729 0.22252 0.0
H99 H 0.02492 0.04971 0.26494 0.0
H100 H 0.95933 0.10843 0.29975 0.0
H101 H 0.91506 0.13533 0.25498 0.0
H102 H 0.97047 0.23672 0.27845 0.0
H103 H 0.01509 0.20956 0.32366 0.0
N104 N 0.04506 0.15545 0.36181 0.0
N105 N 0.08409 0.10555 0.35804 0.0
N106 N 0.03102 0.10497 0.31616 0.0
C107 C 0.07574 0.13896 0.37519 0.0
C108 C 0.06184 0.08838 0.32844 0.0
C109 C 0.02234 0.13831 0.33266 0.0
C110 C 0.10148 0.15811 0.40563 0.0
C111 C 0.09699 0.19466 0.41792 0.0
C112 C 0.12331 0.21326 0.44351 0.0
C113 C 0.15462 0.19571 0.45734 0.0
C114 C 0.15817 0.15888 0.44669 0.0
C115 C 0.13198 0.14032 0.42113 0.0
C116 C 0.07283 0.0537 0.30622 0.0
C117 C 0.10635 0.03729 0.31545 0.0
C118 C 0.11818 0.00663 0.29115 0.0
C119 C 0.09677 0.99172 0.25709 0.0
C120 C 0.06276 0.00755 0.24885 0.0
C121 C 0.05089 0.03796 0.27314 0.0
C122 C 0.99095 0.15677 0.31464 0.0
C123 C 0.96146 0.1367 0.29637 0.0
C124 C 0.43368 0.51037 0.74799 0.0
C125 C 0.39936 0.49473 0.75527 0.0
C126 C 0.37778 0.50956 0.78897 0.0
C127 C 0.38985 0.53985 0.81401 0.0
H128 H 0.36028 0.61419 0.91147 0.0
H129 H 0.3149 0.64684 0.95527 0.0
H130 H 0.38009 0.74266 0.95418 0.0
H131 H 0.42614 0.70988 0.91062 0.0
H132 H 0.48788 0.71014 0.83043 0.0
H133 H 0.53472 0.73659 0.78767 0.0
H134 H 0.58482 0.63306 0.7615 0.0
H135 H 0.53867 0.60707 0.80412 0.0
H136 H 0.47206 0.55191 0.76562 0.0
H137 H 0.45083 0.5002 0.72194 0.0
H138 H 0.35142 0.49794 0.79584 0.0
H139 H 0.37222 0.55101 0.83914 0.0
N140 N 0.41318 0.60732 0.85849 0.0
N141 N 0.45397 0.65606 0.86502 0.0
N142 N 0.4671 0.60596 0.81858 0.0
C143 C 0.42238 0.6402 0.87681 0.0
C144 C 0.47668 0.63876 0.83625 0.0
C145 C 0.43542 0.59003 0.82926 0.0
C146 C 0.39669 0.65947 0.9069 0.0
C147 C 0.36525 0.64214 0.92072 0.0
C148 C 0.33912 0.66088 0.9458 0.0
C149 C 0.34367 0.69743 0.95766 0.0
C150 C 0.37591 0.71448 0.94565 0.0
C151 C 0.40218 0.69568 0.9205 0.0
C152 C 0.50931 0.65645 0.81996 0.0
C153 C 0.50969 0.69337 0.81667 0.0
C154 C 0.53638 0.70847 0.79203 0.0
C155 C 0.56329 0.68691 0.7708 0.0
C156 C 0.56479 0.65061 0.77761 0.0
C157 C 0.53805 0.63556 0.80177 0.0
C158 C 0.42381 0.55593 0.80591 0.0
C159 C 0.44579 0.54037 0.77303 0.0
C160 C 0.70073 0.81133 0.2919 0.0
C161 C 0.71771 0.78272 0.3097 0.0
C162 C 0.75246 0.77113 0.29473 0.0
C163 C 0.76974 0.7875 0.26262 0.0
H164 H 0.86266 0.77968 0.18753 0.0
H165 H 0.92443 0.76228 0.16316 0.0
H166 H 0.92093 0.84317 0.07535 0.0
H167 H 0.85957 0.85943 0.09818 0.0
H168 H 0.77183 0.9013 0.08893 0.0
H169 H 0.76762 0.96209 0.06918 0.0
H170 H 0.75363 0.00073 0.19977 0.0
H171 H 0.75706 0.93928 0.21949 0.0
H172 H 0.70435 0.84987 0.24671 0.0
H173 H 0.67388 0.82075 0.30254 0.0
H174 H 0.76682 0.74976 0.30839 0.0
H175 H 0.79659 0.77787 0.25222 0.0
N176 N 0.80292 0.81906 0.19321 0.0
N177 N 0.80682 0.86566 0.1498 0.0
N178 N 0.75887 0.86497 0.19871 0.0
C179 C 0.82057 0.83495 0.16243 0.0
C180 C 0.77621 0.88079 0.16767 0.0
C181 C 0.77181 0.8337 0.21117 0.0
C182 C 0.85614 0.82115 0.14507 0.0
C183 C 0.87489 0.79325 0.16247 0.0
C184 C 0.9104 0.78344 0.14873 0.0
C185 C 0.92777 0.80128 0.11728 0.0
C186 C 0.90834 0.82827 0.09903 0.0
C187 C 0.87305 0.83791 0.11253 0.0
C188 C 0.76476 0.91582 0.15563 0.0
C189 C 0.76658 0.92268 0.11321 0.0
C190 C 0.76406 0.95744 0.10195 0.0
C191 C 0.76044 0.98606 0.13302 0.0
C192 C 0.75644 0.97905 0.17531 0.0
C193 C 0.75814 0.94401 0.18651 0.0
C194 C 0.75293 0.81618 0.24486 0.0
C195 C 0.71819 0.82793 0.25983 0.0
C196 C 0.78931 0.3138 0.79341 0.0
C197 C 0.7829 0.2774 0.79686 0.0
C198 C 0.76292 0.25768 0.76481 0.0
C199 C 0.74748 0.27441 0.73171 0.0
H200 H 0.64014 0.27732 0.67692 0.0
H201 H 0.57674 0.26176 0.65625 0.0
H202 H 0.57798 0.34306 0.56893 0.0
H203 H 0.6409 0.3576 0.58821 0.0
H204 H 0.72481 0.40231 0.57899 0.0
H205 H 0.73076 0.46388 0.56247 0.0
H206 H 0.75705 0.49608 0.69254 0.0
H207 H 0.75183 0.43383 0.70897 0.0
H208 H 0.7785 0.35884 0.75887 0.0
H209 H 0.80437 0.32981 0.81767 0.0
H210 H 0.75829 0.22939 0.76591 0.0
H211 H 0.73125 0.25863 0.70828 0.0
N212 N 0.70114 0.31494 0.67928 0.0
N213 N 0.69531 0.36329 0.63869 0.0
N214 N 0.74491 0.36125 0.6857 0.0
C215 C 0.68218 0.33195 0.65026 0.0
C216 C 0.72651 0.37803 0.6561 0.0
C217 C 0.73272 0.32927 0.69677 0.0
C218 C 0.64565 0.3189 0.63446 0.0
C219 C 0.62705 0.29135 0.65271 0.0
C220 C 0.5906 0.28262 0.64113 0.0
C221 C 0.57213 0.30115 0.61097 0.0
C222 C 0.59136 0.3277 0.59172 0.0
C223 C 0.62757 0.33632 0.60313 0.0
C224 C 0.73774 0.41353 0.6452 0.0
C225 C 0.73294 0.42239 0.60377 0.0
C226 C 0.73655 0.45757 0.59432 0.0
C227 C 0.74431 0.48467 0.62629 0.0
C228 C 0.75109 0.47558 0.6674 0.0
C229 C 0.74828 0.44008 0.6767 0.0
C230 C 0.75225 0.31112 0.72944 0.0
C231 C 0.77428 0.33048 0.75985 0.0
C232 C 0.43968 0.35503 0.32161 0.0
C233 C 0.43914 0.31862 0.32814 0.0
C234 C 0.46506 0.29589 0.30688 0.0
C235 C 0.49255 0.30979 0.28226 0.0
H236 H 0.57192 0.29366 0.17785 0.0
H237 H 0.61601 0.25908 0.1334 0.0
H238 H 0.69971 0.33855 0.16634 0.0
H239 H 0.65573 0.37345 0.20933 0.0
H240 H 0.6387 0.44102 0.26857 0.0
H241 H 0.65875 0.49359 0.31316 0.0
H242 H 0.54611 0.51411 0.35107 0.0
H243 H 0.52607 0.46143 0.3073 0.0
H244 H 0.46769 0.39731 0.29487 0.0
H245 H 0.42057 0.37354 0.33774 0.0
H246 H 0.46512 0.26766 0.31082 0.0
H247 H 0.51341 0.29197 0.26829 0.0
N248 N 0.55146 0.34333 0.23583 0.0
N249 N 0.59273 0.39163 0.23906 0.0
N250 N 0.53718 0.39672 0.27586 0.0
C251 C 0.58379 0.35778 0.22403 0.0
C252 C 0.56946 0.41134 0.26482 0.0
C253 C 0.5279 0.36287 0.26162 0.0
C254 C 0.61018 0.33645 0.19699 0.0
C255 C 0.59972 0.30376 0.17546 0.0
C256 C 0.62503 0.28385 0.15015 0.0
C257 C 0.66135 0.29613 0.14607 0.0
C258 C 0.67177 0.32865 0.16795 0.0
C259 C 0.64649 0.34862 0.19287 0.0
C260 C 0.58086 0.44658 0.28504 0.0
C261 C 0.6181 0.45713 0.28574 0.0
C262 C 0.62962 0.48734 0.31118 0.0
C263 C 0.60409 0.50754 0.33621 0.0
C264 C 0.56653 0.49855 0.33287 0.0
C265 C 0.55505 0.46838 0.30767 0.0
C266 C 0.49471 0.34666 0.27883 0.0
C267 C 0.46707 0.36883 0.29727 0.0
C268 C 0.2818 0.17515 0.79089 0.0
C269 C 0.28439 0.21255 0.79219 0.0
C270 C 0.27428 0.23297 0.82952 0.0
C271 C 0.25931 0.21677 0.86319 0.0
H272 H 0.13613 0.19898 0.89239 0.0
H273 H 0.07119 0.21186 0.90741 0.0
H274 H 0.0836 0.17308 0.0298 0.0
H275 H 0.14836 0.15907 0.01454 0.0
H276 H 0.22193 0.09738 0.01914 0.0
H277 H 0.22864 0.03716 0.04057 0.0
H278 H 0.26382 0.00017 0.91513 0.0
H279 H 0.25803 0.06086 0.89382 0.0
H280 H 0.26471 0.13014 0.82287 0.0
H281 H 0.28897 0.15846 0.76272 0.0
H282 H 0.27705 0.26168 0.83251 0.0
H283 H 0.25037 0.23332 0.89081 0.0
N284 N 0.20373 0.17887 0.90985 0.0
N285 N 0.19693 0.13405 0.95547 0.0
N286 N 0.24715 0.13259 0.90907 0.0
C287 C 0.18427 0.16419 0.94016 0.0
C288 C 0.22829 0.11815 0.94019 0.0
C289 C 0.23534 0.16348 0.89459 0.0
C290 C 0.14728 0.17785 0.95226 0.0
C291 C 0.12529 0.19394 0.92289 0.0
C292 C 0.08816 0.20123 0.93133 0.0
C293 C 0.07271 0.19347 0.96969 0.0
C294 C 0.09515 0.1795 0.00012 0.0
C295 C 0.13206 0.1714 0.99131 0.0
C296 C 0.23923 0.08364 0.95479 0.0
C297 C 0.23212 0.07659 0.99648 0.0
C298 C 0.23622 0.04222 0.00882 0.0
C299 C 0.24675 0.01412 0.97946 0.0
C300 C 0.25582 0.02149 0.93833 0.0
C301 C 0.25256 0.05614 0.92622 0.0
C302 C 0.25528 0.17969 0.86102 0.0
C303 C 0.26773 0.15885 0.82523 0.0
C304 C 0.2454 0.72706 0.31144 0.0
C305 C 0.21676 0.70991 0.28776 0.0
C306 C 0.20388 0.67686 0.29895 0.0
C307 C 0.21945 0.66133 0.33318 0.0
H308 H 0.24005 0.56061 0.39081 0.0
H309 H 0.23362 0.49965 0.41099 0.0
H310 H 0.26449 0.53581 0.53856 0.0
H311 H 0.27186 0.59632 0.51827 0.0
H312 H 0.34916 0.65413 0.5162 0.0
H313 H 0.41346 0.66785 0.53522 0.0
H314 H 0.43005 0.70975 0.4153 0.0
H315 H 0.36569 0.69711 0.39647 0.0
H316 H 0.28319 0.72565 0.3625 0.0
H317 H 0.25641 0.75223 0.30323 0.0
H318 H 0.18173 0.6631 0.28134 0.0
H319 H 0.20911 0.63577 0.34092 0.0
N320 N 0.25233 0.632 0.4067 0.0
N321 N 0.30084 0.63216 0.45577 0.0
N322 N 0.29818 0.67611 0.40858 0.0
C323 C 0.26932 0.61729 0.43906 0.0
C324 C 0.31556 0.66145 0.44051 0.0
C325 C 0.26635 0.66194 0.39184 0.0
C326 C 0.25676 0.58301 0.45295 0.0
C327 C 0.24429 0.55568 0.42342 0.0
C328 C 0.24069 0.52086 0.43489 0.0
C329 C 0.24857 0.51314 0.47628 0.0
C330 C 0.25787 0.54111 0.50656 0.0
C331 C 0.26232 0.57567 0.4949 0.0
C332 C 0.35241 0.67439 0.45478 0.0
C333 C 0.36629 0.667 0.49429 0.0
C334 C 0.40291 0.67497 0.50528 0.0
C335 C 0.42635 0.6898 0.47663 0.0
C336 C 0.41225 0.69846 0.43787 0.0
C337 C 0.37545 0.69125 0.42723 0.0
C338 C 0.24841 0.67845 0.35655 0.0
C339 C 0.26099 0.71158 0.34532 0.0
C340 C 0.93509 0.00568 0.82137 0.0
C341 C 0.89717 0.0128 0.82482 0.0
C342 C 0.87247 0.99212 0.79881 0.0
C343 C 0.88523 0.96297 0.77258 0.0
H344 H 0.87156 0.88866 0.65774 0.0
H345 H 0.82632 0.85332 0.61586 0.0
H346 H 0.8714 0.75726 0.66013 0.0
H347 H 0.91767 0.79261 0.70067 0.0
H348 H 0.99061 0.79946 0.75977 0.0
H349 H 0.0369 0.77448 0.80469 0.0
H350 H 0.0791 0.88042 0.83938 0.0
H351 H 0.03391 0.90496 0.79428 0.0
H352 H 0.97702 0.97074 0.79529 0.0
H353 H 0.95488 0.02171 0.84027 0.0
H354 H 0.84309 0.99697 0.80078 0.0
H355 H 0.86528 0.94619 0.75491 0.0
N356 N 0.91373 0.89925 0.72463 0.0
N357 N 0.95422 0.85077 0.72629 0.0
N358 N 0.96672 0.90445 0.76673 0.0
C359 C 0.92316 0.86526 0.71103 0.0
C360 C 0.97639 0.87046 0.75383 0.0
C361 C 0.93547 0.91905 0.75246 0.0
C362 C 0.89797 0.84345 0.68278 0.0
C363 C 0.87202 0.85996 0.65823 0.0
C364 C 0.84594 0.83969 0.63442 0.0
C365 C 0.8448 0.80246 0.63511 0.0
C366 C 0.87163 0.78583 0.65853 0.0
C367 C 0.8981 0.80612 0.68193 0.0
C368 C 0.00825 0.85427 0.77397 0.0
C369 C 0.01048 0.81722 0.77613 0.0
C370 C 0.03683 0.80292 0.80206 0.0
C371 C 0.06158 0.8254 0.82591 0.0
C372 C 0.06089 0.86213 0.82117 0.0
C373 C 0.0346 0.87635 0.79555 0.0
C374 C 0.92286 0.95397 0.77215 0.0
C375 C 0.94779 0.97653 0.79547 0.0
C376 C 0.15935 0.93215 0.18601 0.0
C377 C 0.13396 0.9077 0.16652 0.0
H378 H 0.16748 0.97826 0.22937 0.0
C379 C 0.0971 0.90907 0.17984 0.0
H380 H 0.18795 0.93176 0.17639 0.0
C381 C 0.0855 0.93521 0.2107 0.0
C382 C 0.11034 0.96103 0.22861 0.0
H383 H 0.077 0.89019 0.16594 0.0
H384 H 0.05681 0.93558 0.21993 0.0
C385 C 0.14762 0.95869 0.21658 0.0
C386 C 0.63782 0.6903 0.68919 0.0
C387 C 0.61863 0.70626 0.65768 0.0
H388 H 0.63579 0.67294 0.75125 0.0
C389 C 0.58431 0.72201 0.66674 0.0
H390 H 0.66413 0.67753 0.68242 0.0
C391 C 0.56784 0.71907 0.7058 0.0
C392 C 0.58536 0.69997 0.73614 0.0
H393 H 0.56885 0.73381 0.6424 0.0
H394 H 0.53992 0.7287 0.71048 0.0
C395 C 0.62143 0.68743 0.72834 0.0
C396 C 0.76002 0.06494 0.06855 0.0
C397 C 0.78982 0.08493 0.08653 0.0
H398 H 0.72695 0.01794 0.06968 0.0
C399 C 0.80555 0.0751 0.12414 0.0
H400 H 0.74693 0.07199 0.03987 0.0
C401 C 0.7937 0.04427 0.14142 0.0
C402 C 0.76611 0.02271 0.12125 0.0
H403 H 0.82825 0.09015 0.13905 0.0
H404 H 0.80794 0.03599 0.16882 0.0
C405 C 0.74846 0.03402 0.0856 0.0
C406 C 0.48151 0.29911 0.55196 0.0
C407 C 0.45603 0.29639 0.58447 0.0
H408 H 0.53808 0.30075 0.53432 0.0
C409 C 0.46877 0.29041 0.6248 0.0
H410 H 0.47223 0.30314 0.52039 0.0
C411 C 0.50674 0.28998 0.63317 0.0
C412 C 0.53237 0.29498 0.60111 0.0
H413 H 0.4495 0.28832 0.65031 0.0
H414 H 0.51586 0.2878 0.6652 0.0
C415 C 0.51921 0.29793 0.56004 0.0
C416 C 0.65641 0.58535 0.39306 0.0
C417 C 0.64152 0.58589 0.43378 0.0
H418 H 0.65614 0.5601 0.3299 0.0
C419 C 0.61406 0.56102 0.44158 0.0
H420 H 0.67749 0.60427 0.38601 0.0
C421 C 0.60184 0.53613 0.40968 0.0
C422 C 0.6167 0.53534 0.36904 0.0
H423 H 0.60185 0.56068 0.47248 0.0
H424 H 0.58113 0.51698 0.41716 0.0
C425 C 0.64424 0.5601 0.36099 0.0
C426 C 0.97985 0.21729 0.01784 0.0
C427 C 0.95662 0.19364 0.99348 0.0
H428 H 0.03549 0.23527 0.02975 0.0
C429 C 0.97145 0.17211 0.9595 0.0
H430 H 0.96909 0.23384 0.04452 0.0
C431 C 0.00902 0.17356 0.95058 0.0
C432 C 0.03252 0.19589 0.97614 0.0
H433 H 0.95408 0.15361 0.94039 0.0
H434 H 0.02003 0.15607 0.92485 0.0
C435 C 0.01769 0.21802 0.00959 0.0
C436 C 0.24988 0.43172 0.53741 0.0
C437 C 0.27772 0.41176 0.51598 0.0
H438 H 0.21865 0.48028 0.5415 0.0
C439 C 0.29156 0.42275 0.47825 0.0
H440 H 0.23925 0.4239 0.56692 0.0
C441 C 0.27928 0.45435 0.4633 0.0
C442 C 0.25369 0.47595 0.48648 0.0
H443 H 0.31326 0.4078 0.46147 0.0
H444 H 0.29198 0.46325 0.43538 0.0
C445 C 0.23825 0.46392 0.52301 0.0
C446 C 0.08695 0.78389 0.92556 0.0
C447 C 0.11933 0.80273 0.93712 0.0
H448 H 0.04285 0.77654 0.88092 0.0
C449 C 0.13631 0.82313 0.90795 0.0
H450 H 0.07324 0.76816 0.94768 0.0
C451 C 0.11937 0.82743 0.86941 0.0
C452 C 0.08467 0.81209 0.85977 0.0
H453 H 0.16153 0.83764 0.91609 0.0
H454 H 0.13219 0.84485 0.84849 0.0
C455 C 0.0696 0.78869 0.88721 0.0
C456 C 0.84177 0.08613 0.8855 0.0
C457 C 0.8573 0.08602 0.926 0.0
H458 H 0.84232 0.06309 0.82135 0.0
C459 C 0.88589 0.06197 0.93246 0.0
H460 H 0.81981 0.10444 0.87947 0.0
C461 C 0.89876 0.03871 0.89945 0.0
C462 C 0.88349 0.03876 0.85894 0.0
H463 H 0.89861 0.06108 0.96313 0.0
H464 H 0.92043 0.02021 0.90591 0.0
C465 C 0.85463 0.06252 0.85227 0.0
C466 C 0.36265 0.31865 0.40773 0.0
C467 C 0.37904 0.29947 0.43857 0.0
H468 H 0.3679 0.33812 0.34715 0.0
C469 C 0.41159 0.28044 0.42897 0.0
H470 H 0.33731 0.33325 0.41432 0.0
C471 C 0.42968 0.28397 0.39091 0.0
C472 C 0.4152 0.30622 0.36171 0.0
H473 H 0.42486 0.26563 0.45238 0.0
H474 H 0.45654 0.27182 0.3862 0.0
C475 C 0.38032 0.32161 0.36943 0.0
C476 C 0.20591 0.92265 0.98118 0.0
C477 C 0.21907 0.91255 0.01975 0.0
H478 H 0.20554 0.96255 0.93754 0.0
C479 C 0.24577 0.9336 0.04213 0.0
H480 H 0.18503 0.90685 0.96368 0.0
C481 C 0.25693 0.96592 0.02767 0.0
C482 C 0.24213 0.97701 0.99019 0.0
H483 H 0.25582 0.92646 0.07228 0.0
H484 H 0.27563 0.98307 0.04676 0.0
C485 C 0.21772 0.95439 0.96622 0.0
C486 C 0.51809 0.71432 0.52831 0.0
C487 C 0.54184 0.69092 0.50473 0.0
H488 H 0.46214 0.73177 0.53826 0.0
C489 C 0.52767 0.66894 0.47055 0.0
H490 H 0.52838 0.73125 0.55507 0.0
C491 C 0.49026 0.66986 0.4605 0.0
C492 C 0.46627 0.69213 0.48507 0.0
H493 H 0.54548 0.65067 0.45195 0.0
H494 H 0.4798 0.65221 0.43445 0.0
C495 C 0.48036 0.71454 0.51889 0.0
C496 C 0.39926 0.41203 0.67811 0.0
C497 C 0.36251 0.4106 0.66405 0.0
H498 H 0.43932 0.43859 0.71896 0.0
C499 C 0.3371 0.43517 0.68282 0.0
H500 H 0.41937 0.39305 0.66479 0.0
C501 C 0.34871 0.46182 0.71351 0.0
C502 C 0.38588 0.46414 0.72637 0.0
H503 H 0.30858 0.43471 0.67263 0.0
H504 H 0.32884 0.48143 0.72582 0.0
C505 C 0.41073 0.43827 0.70908 0.0
C506 C 0.03127 0.78832 0.12545 0.0
C507 C 0.04224 0.79438 0.08459 0.0
H508 H 0.98614 0.78635 0.16826 0.0
C509 C 0.0154 0.79764 0.05345 0.0
H510 H 0.05166 0.78586 0.14993 0.0
C511 C 0.9781 0.79696 0.06347 0.0
C512 C 0.96681 0.79409 0.10517 0.0
H513 H 0.02333 0.8018 0.02152 0.0
H514 H 0.95812 0.80022 0.03879 0.0
C515 C 0.99377 0.78846 0.1358 0.0
C516 C 0.74394 0.56615 0.56626 0.0
C517 C 0.71636 0.58664 0.58772 0.0
H518 H 0.77484 0.5176 0.56211 0.0
C519 C 0.7033 0.57623 0.62622 0.0
H520 H 0.75494 0.57358 0.53676 0.0
C521 C 0.7151 0.5443 0.64091 0.0
C522 C 0.73995 0.5222 0.61721 0.0
H523 H 0.68238 0.59165 0.64377 0.0
H524 H 0.70261 0.53562 0.66905 0.0
C525 C 0.75543 0.5341 0.58073 0.0
C526 C 0.92184 0.21988 0.15627 0.0
C527 C 0.88597 0.20725 0.1481 0.0
H528 H 0.96675 0.22445 0.19994 0.0
C529 C 0.86533 0.19448 0.18061 0.0
H530 H 0.93835 0.22918 0.1312 0.0
C531 C 0.88156 0.19152 0.21999 0.0
C532 C 0.91868 0.20118 0.22717 0.0
H533 H 0.83779 0.18404 0.17453 0.0
H534 H 0.86599 0.17926 0.24377 0.0
C535 C 0.938 0.21718 0.19566 0.0
C536 C 0.18657 0.72273 0.17606 0.0
C537 C 0.18301 0.75998 0.17802 0.0
H538 H 0.20032 0.67757 0.20937 0.0
C539 C 0.18667 0.77995 0.2172 0.0
H540 H 0.1838 0.7066 0.14634 0.0
C541 C 0.19577 0.76336 0.25316 0.0
C542 C 0.20163 0.72641 0.25082 0.0
H543 H 0.18347 0.80864 0.21996 0.0
H544 H 0.19919 0.77964 0.28268 0.0
C545 C 0.19588 0.70608 0.21217 0.0
C546 C 0.79223 0.72727 0.57373 0.0
C547 C 0.75642 0.74138 0.57338 0.0
H548 H 0.84851 0.73583 0.59241 0.0
C549 C 0.75 0.77558 0.59319 0.0
H550 H 0.79807 0.70102 0.55857 0.0
C551 C 0.77867 0.79525 0.61306 0.0
C552 C 0.81462 0.7814 0.61322 0.0
H553 H 0.72263 0.78706 0.59389 0.0
H554 H 0.77242 0.82112 0.62896 0.0
C555 C 0.8211 0.74716 0.59327 0.0
C556 C 0.74161 0.27384 0.0729 0.0
C557 C 0.74371 0.23665 0.07287 0.0
H558 H 0.71334 0.32152 0.09472 0.0
C559 C 0.71739 0.21879 0.09546 0.0
H560 H 0.76119 0.28836 0.05538 0.0
C561 C 0.69017 0.23795 0.11867 0.0
C562 C 0.68861 0.27529 0.11944 0.0
H563 H 0.7184 0.19013 0.09611 0.0
H564 H 0.67107 0.22359 0.13695 0.0
C565 C 0.71426 0.29289 0.09566 0.0
C566 C 0.32806 0.23165 0.68778 0.0
C567 C 0.31123 0.26407 0.68047 0.0
H568 H 0.33398 0.19045 0.72942 0.0
C569 C 0.28641 0.2796 0.71037 0.0
H570 H 0.34742 0.21914 0.66532 0.0
C571 C 0.27801 0.26289 0.74633 0.0
C572 C 0.29479 0.23048 0.75408 0.0
H573 H 0.27253 0.30432 0.70546 0.0
H574 H 0.25749 0.27515 0.76747 0.0
C575 C 0.32015 0.21515 0.72441 0.0
C576 C 0.67153 0.77004 0.41398 0.0
C577 C 0.67843 0.7338 0.41733 0.0
H578 H 0.67932 0.81434 0.37729 0.0
C579 C 0.69373 0.71304 0.38309 0.0
H580 H 0.65992 0.78654 0.44019 0.0
C581 C 0.70418 0.72861 0.34702 0.0
C582 C 0.70032 0.76548 0.34477 0.0
H583 H 0.69884 0.68488 0.38486 0.0
H584 H 0.71663 0.71193 0.3215 0.0
C585 C 0.68263 0.78586 0.37798 0.0
C586 C 0.77745 0.22254 0.88998 0.0
C587 C 0.81068 0.23097 0.91144 0.0
H588 H 0.74254 0.23097 0.83809 0.0
C589 C 0.83567 0.25417 0.89422 0.0
H590 H 0.75743 0.20481 0.9022 0.0
C591 C 0.82719 0.26897 0.85655 0.0
C592 C 0.79364 0.26071 0.83553 0.0
H593 H 0.86157 0.26106 0.90992 0.0
H594 H 0.84684 0.28679 0.84391 0.0
C595 C 0.769 0.2373 0.85277 0.0
C596 C 0.20649 0.26207 0.53309 0.0
C597 C 0.24327 0.25458 0.52172 0.0
H598 H 0.14944 0.24913 0.52185 0.0
C599 C 0.25036 0.22762 0.48936 0.0
H600 H 0.20007 0.2827 0.55782 0.0
C601 C 0.22157 0.20858 0.46894 0.0
C602 C 0.18483 0.21592 0.4802 0.0
H603 H 0.27827 0.22117 0.47951 0.0
H604 H 0.22815 0.18844 0.44371 0.0
C605 C 0.17751 0.24297 0.51241 0.0
C606 C 0.2481 0.73084 0.98622 0.0
C607 C 0.25486 0.75626 0.02045 0.0
H608 H 0.27064 0.69291 0.93967 0.0
C609 C 0.29146 0.76257 0.03389 0.0
H610 H 0.22037 0.72535 0.97469 0.0
C611 C 0.32055 0.74365 0.01357 0.0
C612 C 0.31348 0.71793 0.97972 0.0
H613 H 0.29762 0.78203 0.06007 0.0
H614 H 0.34847 0.74877 0.02467 0.0
C615 C 0.27696 0.71197 0.96621 0.0
loop_
_geom_bond_atom_site_label_1
_geom_bond_atom_site_label_2
_geom_bond_distance
_geom_bond_site_symmetry_2
_ccdc_geom_bond_type
Fe0 O2 1.918 . S
Fe0 O5 1.997 . S
Fe0 O6 2.002 . S
Fe0 O11 1.976 . S
Fe0 O14 1.996 . S
Fe1 O2 1.918 . S
Fe1 O9 1.997 . S
Fe1 O12 1.996 . S
Fe1 O16 1.976 . S
Fe1 O19 2.002 . S
O2 Fe0 1.918 . S
O2 Fe1 1.918 . S
O2 Fe3 1.918 . S
Fe3 O2 1.918 . S
Fe3 O4 2.002 . S
Fe3 O13 1.976 . S
Fe3 O17 1.996 . S
Fe3 O20 1.997 . S
O4 Fe3 2.002 . S
O4 C21 1.295 . S
O5 Fe0 1.997 . S
O5 C21 1.235 . S
O6 Fe0 2.002 . S
O6 C7 1.295 . S
C7 O6 1.295 . S
C7 O9 1.235 . S
C8 O13 1.287 . S
C8 O14 1.255 . S
O9 Fe1 1.997 . S
O9 C7 1.235 . S
C10 O16 1.287 1_556 S
C10 O17 1.255 1_556 S
O11 Fe0 1.976 . S
O11 C18 1.287 . S
O12 Fe1 1.996 . S
O12 C18 1.255 . S
O13 Fe3 1.976 . S
O13 C8 1.287 . S
O14 Fe0 1.996 . S
O14 C8 1.255 . S
C15 O19 1.295 . S
C15 O20 1.235 . S
O16 Fe1 1.976 . S
O16 C10 1.287 1_554 S
O17 Fe3 1.996 . S
O17 C10 1.255 1_554 S
C18 O11 1.287 . S
C18 O12 1.255 . S
O19 Fe1 2.002 . S
O19 C15 1.295 . S
O20 Fe3 1.997 . S
O20 C15 1.235 . S
C21 O4 1.295 . S
C21 O5 1.235 . S
Fe22 O24 1.918 . S
Fe22 O27 1.997 . S
Fe22 O28 2.002 . S
Fe22 O33 1.976 . S
Fe22 O36 1.996 . S
Fe23 O24 1.918 . S
Fe23 O31 1.997 . S
Fe23 O34 1.996 . S
Fe23 O38 1.976 . S
Fe23 O41 2.002 . S
O24 Fe22 1.918 . S
O24 Fe23 1.918 . S
O24 Fe25 1.918 . S
Fe25 O24 1.918 . S
Fe25 O26 2.002 . S
Fe25 O35 1.976 . S
Fe25 O39 1.996 . S
Fe25 O42 1.997 . S
O26 Fe25 2.002 . S
O26 C43 1.295 . S
O27 Fe22 1.997 . S
O27 C43 1.235 . S
O28 Fe22 2.002 . S
O28 C29 1.295 . S
C29 O28 1.295 . S
C29 O31 1.235 . S
C30 O35 1.287 . S
C30 O36 1.255 . S
O31 Fe23 1.997 . S
O31 C29 1.235 . S
C32 O38 1.287 . S
C32 O39 1.255 . S
O33 Fe22 1.976 . S
O33 C40 1.287 . S
O34 Fe23 1.996 . S
O34 C40 1.255 . S
O35 Fe25 1.976 . S
O35 C30 1.287 . S
O36 Fe22 1.996 . S
O36 C30 1.255 . S
C37 O41 1.295 . S
C37 O42 1.235 . S
O38 Fe23 1.976 . S
O38 C32 1.287 . S
O39 Fe25 1.996 . S
O39 C32 1.255 . S
C40 O33 1.287 . S
C40 O34 1.255 . S
O41 Fe23 2.002 . S
O41 C37 1.295 . S
O42 Fe25 1.997 . S
O42 C37 1.235 . S
C43 O26 1.295 . S
C43 O27 1.235 . S
Fe44 O46 1.918 . S
Fe44 O49 1.997 1_554 S
Fe44 O50 2.002 . S
Fe44 O55 1.976 . S
Fe44 O58 1.996 . S
Fe45 O46 1.918 . S
Fe45 O53 1.997 . S
Fe45 O56 1.996 . S
Fe45 O60 1.976 . S
Fe45 O63 2.002 1_554 S
O46 Fe44 1.918 . S
O46 Fe45 1.918 . S
O46 Fe47 1.918 1_554 S
Fe47 O46 1.918 1_556 S
Fe47 O48 2.002 . S
Fe47 O57 1.976 1_556 S
Fe47 O61 1.996 1_556 S
Fe47 O64 1.997 . S
O48 Fe47 2.002 . S
O48 C65 1.295 . S
O49 Fe44 1.997 1_556 S
O49 C65 1.235 . S
O50 Fe44 2.002 . S
O50 C51 1.295 1_554 S
C51 O50 1.295 1_556 S
C51 O53 1.235 1_556 S
C52 O57 1.287 . S
C52 O58 1.255 . S
O53 Fe45 1.997 . S
O53 C51 1.235 1_554 S
C54 O60 1.287 . S
C54 O61 1.255 . S
O55 Fe44 1.976 . S
O55 C62 1.287 . S
O56 Fe45 1.996 . S
O56 C62 1.255 . S
O57 Fe47 1.976 1_554 S
O57 C52 1.287 . S
O58 Fe44 1.996 . S
O58 C52 1.255 . S
C59 O63 1.295 . S
C59 O64 1.235 . S
O60 Fe45 1.976 . S
O60 C54 1.287 . S
O61 Fe47 1.996 1_554 S
O61 C54 1.255 . S
C62 O55 1.287 . S
C62 O56 1.255 . S
O63 Fe45 2.002 1_556 S
O63 C59 1.295 . S
O64 Fe47 1.997 . S
O64 C59 1.235 . S
C65 O48 1.295 . S
C65 O49 1.235 . S
Fe66 O68 1.918 . S
Fe66 O71 1.997 . S
Fe66 O72 2.002 . S
Fe66 O77 1.976 . S
Fe66 O80 1.996 . S
Fe67 O68 1.918 . S
Fe67 O75 1.997 . S
Fe67 O78 1.996 . S
Fe67 O82 1.976 . S
Fe67 O85 2.002 . S
O68 Fe66 1.918 . S
O68 Fe67 1.918 . S
O68 Fe69 1.918 . S
Fe69 O68 1.918 . S
Fe69 O70 2.002 . S
Fe69 O79 1.976 . S
Fe69 O83 1.996 . S
Fe69 O86 1.997 . S
O70 Fe69 2.002 . S
O70 C87 1.295 . S
O71 Fe66 1.997 . S
O71 C87 1.235 . S
O72 Fe66 2.002 . S
O72 C73 1.295 . S
C73 O72 1.295 . S
C73 O75 1.235 . S
C74 O79 1.287 . S
C74 O80 1.255 . S
O75 Fe67 1.997 . S
O75 C73 1.235 . S
C76 O82 1.287 . S
C76 O83 1.255 . S
O77 Fe66 1.976 . S
O77 C84 1.287 . S
O78 Fe67 1.996 . S
O78 C84 1.255 . S
O79 Fe69 1.976 . S
O79 C74 1.287 . S
O80 Fe66 1.996 . S
O80 C74 1.255 . S
C81 O85 1.295 . S
C81 O86 1.235 . S
O82 Fe67 1.976 . S
O82 C76 1.287 . S
O83 Fe69 1.996 . S
O83 C76 1.255 . S
C84 O77 1.287 . S
C84 O78 1.255 . S
O85 Fe67 2.002 . S
O85 C81 1.295 . S
O86 Fe69 1.997 . S
O86 C81 1.235 . S
C87 O70 1.295 . S
C87 O71 1.235 . S
C88 C89 1.384 . S
C88 H101 0.947 . S
C88 C123 1.382 . S
C89 C88 1.384 . S
C89 C90 1.378 . S
C90 C89 1.378 . S
C90 C91 1.378 1_655 S
C90 H102 0.952 . S
C91 C90 1.378 1_455 S
C91 H103 0.950 . S
C91 C122 1.383 . S
H92 C111 0.947 . S
H93 C112 0.946 . S
H94 C114 0.953 . S
H95 C115 0.945 . S
H96 C117 0.952 . S
H97 C118 0.949 . S
H98 C120 0.950 1_565 S
H99 C121 0.948 . S
H100 C123 0.951 . S
H101 C88 0.947 . S
H102 C90 0.952 . S
H103 C91 0.950 . S
N104 C107 1.382 . S
N104 C109 1.363 . S
N105 C107 1.371 . S
N105 C108 1.372 . S
N106 C108 1.361 . S
N106 C109 1.377 . S
C107 N104 1.382 . S
C107 N105 1.371 . S
C107 C110 1.480 . S
C108 N105 1.372 . S
C108 N106 1.361 . S
C108 C116 1.457 . S
C109 N104 1.363 . S
C109 N106 1.377 . S
C109 C122 1.479 . S
C110 C107 1.480 . S
C110 C111 1.383 . S
C110 C115 1.385 . S
C111 H92 0.947 . S
C111 C110 1.383 . S
C111 C112 1.388 . S
C112 H93 0.946 . S
C112 C111 1.388 . S
C112 C113 1.384 . S
C113 C112 1.384 . S
C113 C114 1.377 . S
C114 H94 0.953 . S
C114 C113 1.377 . S
C114 C115 1.369 . S
C115 H95 0.945 . S
C115 C110 1.385 . S
C115 C114 1.369 . S
C116 C108 1.457 . S
C116 C117 1.372 . S
C116 C121 1.364 . S
C117 H96 0.952 . S
C117 C116 1.372 . S
C117 C118 1.389 . S
C118 H97 0.949 . S
C118 C117 1.389 . S
C118 C119 1.387 1_545 S
C119 C118 1.387 1_565 S
C119 C120 1.372 1_565 S
C120 H98 0.950 1_545 S
C120 C119 1.372 1_545 S
C120 C121 1.379 . S
C121 H99 0.948 . S
C121 C116 1.364 . S
C121 C120 1.379 . S
C122 C91 1.383 . S
C122 C109 1.479 . S
C122 C123 1.398 1_455 S
C123 C88 1.382 . S
C123 H100 0.951 . S
C123 C122 1.398 1_655 S
C124 C125 1.384 . S
C124 H137 0.947 . S
C124 C159 1.382 . S
C125 C124 1.384 . S
C125 C126 1.378 . S
C126 C125 1.378 . S
C126 C127 1.378 . S
C126 H138 0.952 . S
C127 C126 1.378 . S
C127 H139 0.950 . S
C127 C158 1.383 . S
H128 C147 0.947 . S
H129 C148 0.946 . S
H130 C150 0.953 . S
H131 C151 0.945 . S
H132 C153 0.952 . S
H133 C154 0.949 . S
H134 C156 0.950 . S
H135 C157 0.948 . S
H136 C159 0.951 . S
H137 C124 0.947 . S
H138 C126 0.952 . S
H139 C127 0.950 . S
N140 C143 1.382 . S
N140 C145 1.363 . S
N141 C143 1.371 . S
N141 C144 1.372 . S
N142 C144 1.361 . S
N142 C145 1.377 . S
C143 N140 1.382 . S
C143 N141 1.371 . S
C143 C146 1.480 . S
C144 N141 1.372 . S
C144 N142 1.361 . S
C144 C152 1.457 . S
C145 N140 1.363 . S
C145 N142 1.377 . S
C145 C158 1.479 . S
C146 C143 1.480 . S
C146 C147 1.383 . S
C146 C151 1.385 . S
C147 H128 0.947 . S
C147 C146 1.383 . S
C147 C148 1.388 . S
C148 H129 0.946 . S
C148 C147 1.388 . S
C148 C149 1.384 . S
C149 C148 1.384 . S
C149 C150 1.377 . S
C150 H130 0.953 . S
C150 C149 1.377 . S
C150 C151 1.369 . S
C151 H131 0.945 . S
C151 C146 1.385 . S
C151 C150 1.369 . S
C152 C144 1.457 . S
C152 C153 1.372 . S
C152 C157 1.364 . S
C153 H132 0.952 . S
C153 C152 1.372 . S
C153 C154 1.389 . S
C154 H133 0.949 . S
C154 C153 1.389 . S
C154 C155 1.387 . S
C155 C154 1.387 . S
C155 C156 1.372 . S
C156 H134 0.950 . S
C156 C155 1.372 . S
C156 C157 1.379 . S
C157 H135 0.948 . S
C157 C152 1.364 . S
C157 C156 1.379 . S
C158 C127 1.383 . S
C158 C145 1.479 . S
C158 C159 1.398 . S
C159 C124 1.382 . S
C159 H136 0.951 . S
C159 C158 1.398 . S
C160 C161 1.384 . S
C160 H173 0.947 . S
C160 C195 1.382 . S
C161 C160 1.384 . S
C161 C162 1.378 . S
C162 C161 1.378 . S
C162 C163 1.378 . S
C162 H174 0.952 . S
C163 C162 1.378 . S
C163 H175 0.950 . S
C163 C194 1.383 . S
H164 C183 0.947 . S
H165 C184 0.946 . S
H166 C186 0.953 . S
H167 C187 0.945 . S
H168 C189 0.952 . S
H169 C190 0.949 . S
H170 C192 0.950 . S
H171 C193 0.948 . S
H172 C195 0.951 . S
H173 C160 0.947 . S
H174 C162 0.952 . S
H175 C163 0.950 . S
N176 C179 1.382 . S
N176 C181 1.363 . S
N177 C179 1.371 . S
N177 C180 1.372 . S
N178 C180 1.361 . S
N178 C181 1.377 . S
C179 N176 1.382 . S
C179 N177 1.371 . S
C179 C182 1.480 . S
C180 N177 1.372 . S
C180 N178 1.361 . S
C180 C188 1.457 . S
C181 N176 1.363 . S
C181 N178 1.377 . S
C181 C194 1.479 . S
C182 C179 1.480 . S
C182 C183 1.383 . S
C182 C187 1.385 . S
C183 H164 0.947 . S
C183 C182 1.383 . S
C183 C184 1.388 . S
C184 H165 0.946 . S
C184 C183 1.388 . S
C184 C185 1.384 . S
C185 C184 1.384 . S
C185 C186 1.377 . S
C186 H166 0.953 . S
C186 C185 1.377 . S
C186 C187 1.369 . S
C187 H167 0.945 . S
C187 C182 1.385 . S
C187 C186 1.369 . S
C188 C180 1.457 . S
C188 C189 1.372 . S
C188 C193 1.364 . S
C189 H168 0.952 . S
C189 C188 1.372 . S
C189 C190 1.389 . S
C190 H169 0.949 . S
C190 C189 1.389 . S
C190 C191 1.387 . S
C191 C190 1.387 . S
C191 C192 1.372 . S
C192 H170 0.950 . S
C192 C191 1.372 . S
C192 C193 1.379 . S
C193 H171 0.948 . S
C193 C188 1.364 . S
C193 C192 1.379 . S
C194 C163 1.383 . S
C194 C181 1.479 . S
C194 C195 1.398 . S
C195 C160 1.382 . S
C195 H172 0.951 . S
C195 C194 1.398 . S
C196 C197 1.384 . S
C196 H209 0.947 . S
C196 C231 1.382 . S
C197 C196 1.384 . S
C197 C198 1.378 . S
C198 C197 1.378 . S
C198 C199 1.378 . S
C198 H210 0.952 . S
C199 C198 1.378 . S
C199 H211 0.950 . S
C199 C230 1.383 . S
H200 C219 0.947 . S
H201 C220 0.946 . S
H202 C222 0.953 . S
H203 C223 0.945 . S
H204 C225 0.952 . S
H205 C226 0.949 . S
H206 C228 0.950 . S
H207 C229 0.948 . S
H208 C231 0.951 . S
H209 C196 0.947 . S
H210 C198 0.952 . S
H211 C199 0.950 . S
N212 C215 1.382 . S
N212 C217 1.363 . S
N213 C215 1.371 . S
N213 C216 1.372 . S
N214 C216 1.361 . S
N214 C217 1.377 . S
C215 N212 1.382 . S
C215 N213 1.371 . S
C215 C218 1.480 . S
C216 N213 1.372 . S
C216 N214 1.361 . S
C216 C224 1.457 . S
C217 N212 1.363 . S
C217 N214 1.377 . S
C217 C230 1.479 . S
C218 C215 1.480 . S
C218 C219 1.383 . S
C218 C223 1.385 . S
C219 H200 0.947 . S
C219 C218 1.383 . S
C219 C220 1.388 . S
C220 H201 0.946 . S
C220 C219 1.388 . S
C220 C221 1.384 . S
C221 C220 1.384 . S
C221 C222 1.377 . S
C222 H202 0.953 . S
C222 C221 1.377 . S
C222 C223 1.369 . S
C223 H203 0.945 . S
C223 C218 1.385 . S
C223 C222 1.369 . S
C224 C216 1.457 . S
C224 C225 1.372 . S
C224 C229 1.364 . S
C225 H204 0.952 . S
C225 C224 1.372 . S
C225 C226 1.389 . S
C226 H205 0.949 . S
C226 C225 1.389 . S
C226 C227 1.387 . S
C227 C226 1.387 . S
C227 C228 1.372 . S
C228 H206 0.950 . S
C228 C227 1.372 . S
C228 C229 1.379 . S
C229 H207 0.948 . S
C229 C224 1.364 . S
C229 C228 1.379 . S
C230 C199 1.383 . S
C230 C217 1.479 . S
C230 C231 1.398 . S
C231 C196 1.382 . S
C231 H208 0.951 . S
C231 C230 1.398 . S
C232 C233 1.384 . S
C232 H245 0.947 . S
C232 C267 1.382 . S
C233 C232 1.384 . S
C233 C234 1.378 . S
C234 C233 1.378 . S
C234 C235 1.378 . S
C234 H246 0.952 . S
C235 C234 1.378 . S
C235 H247 0.950 . S
C235 C266 1.383 . S
H236 C255 0.947 . S
H237 C256 0.946 . S
H238 C258 0.953 . S
H239 C259 0.945 . S
H240 C261 0.952 . S
H241 C262 0.949 . S
H242 C264 0.950 . S
H243 C265 0.948 . S
H244 C267 0.951 . S
H245 C232 0.947 . S
H246 C234 0.952 . S
H247 C235 0.950 . S
N248 C251 1.382 . S
N248 C253 1.363 . S
N249 C251 1.371 . S
N249 C252 1.372 . S
N250 C252 1.361 . S
N250 C253 1.377 . S
C251 N248 1.382 . S
C251 N249 1.371 . S
C251 C254 1.480 . S
C252 N249 1.372 . S
C252 N250 1.361 . S
C252 C260 1.457 . S
C253 N248 1.363 . S
C253 N250 1.377 . S
C253 C266 1.479 . S
C254 C251 1.480 . S
C254 C255 1.383 . S
C254 C259 1.385 . S
C255 H236 0.947 . S
C255 C254 1.383 . S
C255 C256 1.388 . S
C256 H237 0.946 . S
C256 C255 1.388 . S
C256 C257 1.384 . S
C257 C256 1.384 . S
C257 C258 1.377 . S
C258 H238 0.953 . S
C258 C257 1.377 . S
C258 C259 1.369 . S
C259 H239 0.945 . S
C259 C254 1.385 . S
C259 C258 1.369 . S
C260 C252 1.457 . S
C260 C261 1.372 . S
C260 C265 1.364 . S
C261 H240 0.952 . S
C261 C260 1.372 . S
C261 C262 1.389 . S
C262 H241 0.949 . S
C262 C261 1.389 . S
C262 C263 1.387 . S
C263 C262 1.387 . S
C263 C264 1.372 . S
C264 H242 0.950 . S
C264 C263 1.372 . S
C264 C265 1.379 . S
C265 H243 0.948 . S
C265 C260 1.364 . S
C265 C264 1.379 . S
C266 C235 1.383 . S
C266 C253 1.479 . S
C266 C267 1.398 . S
C267 C232 1.382 . S
C267 H244 0.951 . S
C267 C266 1.398 . S
C268 C269 1.384 . S
C268 H281 0.947 . S
C268 C303 1.382 . S
C269 C268 1.384 . S
C269 C270 1.378 . S
C270 C269 1.378 . S
C270 C271 1.378 . S
C270 H282 0.952 . S
C271 C270 1.378 . S
C271 H283 0.950 . S
C271 C302 1.383 . S
H272 C291 0.947 . S
H273 C292 0.946 . S
H274 C294 0.953 . S
H275 C295 0.945 1_554 S
H276 C297 0.952 . S
H277 C298 0.949 . S
H278 C300 0.950 . S
H279 C301 0.948 . S
H280 C303 0.951 . S
H281 C268 0.947 . S
H282 C270 0.952 . S
H283 C271 0.950 . S
N284 C287 1.382 . S
N284 C289 1.363 . S
N285 C287 1.371 . S
N285 C288 1.372 . S
N286 C288 1.361 . S
N286 C289 1.377 . S
C287 N284 1.382 . S
C287 N285 1.371 . S
C287 C290 1.480 . S
C288 N285 1.372 . S
C288 N286 1.361 . S
C288 C296 1.457 . S
C289 N284 1.363 . S
C289 N286 1.377 . S
C289 C302 1.479 . S
C290 C287 1.480 . S
C290 C291 1.383 . S
C290 C295 1.385 . S
C291 H272 0.947 . S
C291 C290 1.383 . S
C291 C292 1.388 . S
C292 H273 0.946 . S
C292 C291 1.388 . S
C292 C293 1.384 . S
C293 C292 1.384 . S
C293 C294 1.377 1_556 S
C294 H274 0.953 . S
C294 C293 1.377 1_554 S
C294 C295 1.369 1_554 S
C295 H275 0.945 1_556 S
C295 C290 1.385 . S
C295 C294 1.369 1_556 S
C296 C288 1.457 . S
C296 C297 1.372 . S
C296 C301 1.364 . S
C297 H276 0.952 . S
C297 C296 1.372 . S
C297 C298 1.389 1_556 S
C298 H277 0.949 . S
C298 C297 1.389 1_554 S
C298 C299 1.387 1_554 S
C299 C298 1.387 1_556 S
C299 C300 1.372 . S
C300 H278 0.950 . S
C300 C299 1.372 . S
C300 C301 1.379 . S
C301 H279 0.948 . S
C301 C296 1.364 . S
C301 C300 1.379 . S
C302 C271 1.383 . S
C302 C289 1.479 . S
C302 C303 1.398 . S
C303 C268 1.382 . S
C303 H280 0.951 . S
C303 C302 1.398 . S
C304 C305 1.384 . S
C304 H317 0.947 . S
C304 C339 1.382 . S
C305 C304 1.384 . S
C305 C306 1.378 . S
C306 C305 1.378 . S
C306 C307 1.378 . S
C306 H318 0.952 . S
C307 C306 1.378 . S
C307 H319 0.950 . S
C307 C338 1.383 . S
H308 C327 0.947 . S
H309 C328 0.946 . S
H310 C330 0.953 . S
H311 C331 0.945 . S
H312 C333 0.952 . S
H313 C334 0.949 . S
H314 C336 0.950 . S
H315 C337 0.948 . S
H316 C339 0.951 . S
H317 C304 0.947 . S
H318 C306 0.952 . S
H319 C307 0.950 . S
N320 C323 1.382 . S
N320 C325 1.363 . S
N321 C323 1.371 . S
N321 C324 1.372 . S
N322 C324 1.361 . S
N322 C325 1.377 . S
C323 N320 1.382 . S
C323 N321 1.371 . S
C323 C326 1.480 . S
C324 N321 1.372 . S
C324 N322 1.361 . S
C324 C332 1.457 . S
C325 N320 1.363 . S
C325 N322 1.377 . S
C325 C338 1.479 . S
C326 C323 1.480 . S
C326 C327 1.383 . S
C326 C331 1.385 . S
C327 H308 0.947 . S
C327 C326 1.383 . S
C327 C328 1.388 . S
C328 H309 0.946 . S
C328 C327 1.388 . S
C328 C329 1.384 . S
C329 C328 1.384 . S
C329 C330 1.377 . S
C330 H310 0.953 . S
C330 C329 1.377 . S
C330 C331 1.369 . S
C331 H311 0.945 . S
C331 C326 1.385 . S
C331 C330 1.369 . S
C332 C324 1.457 . S
C332 C333 1.372 . S
C332 C337 1.364 . S
C333 H312 0.952 . S
C333 C332 1.372 . S
C333 C334 1.389 . S
C334 H313 0.949 . S
C334 C333 1.389 . S
C334 C335 1.387 . S
C335 C334 1.387 . S
C335 C336 1.372 . S
C336 H314 0.950 . S
C336 C335 1.372 . S
C336 C337 1.379 . S
C337 H315 0.948 . S
C337 C332 1.364 . S
C337 C336 1.379 . S
C338 C307 1.383 . S
C338 C325 1.479 . S
C338 C339 1.398 . S
C339 C304 1.382 . S
C339 H316 0.951 . S
C339 C338 1.398 . S
C340 C341 1.384 1_565 S
C340 H353 0.947 1_565 S
C340 C375 1.382 . S
C341 C340 1.384 1_545 S
C341 C342 1.378 1_545 S
C342 C341 1.378 1_565 S
C342 C343 1.378 . S
C342 H354 0.952 . S
C343 C342 1.378 . S
C343 H355 0.950 . S
C343 C374 1.383 . S
H344 C363 0.947 . S
H345 C364 0.946 . S
H346 C366 0.953 . S
H347 C367 0.945 . S
H348 C369 0.946 1_655 S
H349 C370 0.949 . S
H350 C372 0.950 . S
H351 C373 0.948 1_655 S
H352 C375 0.951 . S
H353 C340 0.947 1_545 S
H354 C342 0.952 . S
H355 C343 0.950 . S
N356 C359 1.382 . S
N356 C361 1.363 . S
N357 C359 1.371 . S
N357 C360 1.372 . S
N358 C360 1.361 . S
N358 C361 1.377 . S
C359 N356 1.382 . S
C359 N357 1.371 . S
C359 C362 1.480 . S
C360 N357 1.372 . S
C360 N358 1.361 . S
C360 C368 1.457 . S
C361 N356 1.363 . S
C361 N358 1.377 . S
C361 C374 1.479 . S
C362 C359 1.480 . S
C362 C363 1.383 . S
C362 C367 1.385 . S
C363 H344 0.947 . S
C363 C362 1.383 . S
C363 C364 1.388 . S
C364 H345 0.946 . S
C364 C363 1.388 . S
C364 C365 1.384 . S
C365 C364 1.384 . S
C365 C366 1.377 . S
C366 H346 0.953 . S
C366 C365 1.377 . S
C366 C367 1.369 . S
C367 H347 0.945 . S
C367 C362 1.385 . S
C367 C366 1.369 . S
C368 C360 1.457 . S
C368 C369 1.366 1_655 S
C368 C373 1.364 1_655 S
C369 H348 0.946 1_455 S
C369 C368 1.366 1_455 S
C369 C370 1.401 . S
C370 H349 0.949 . S
C370 C369 1.401 . S
C370 C371 1.387 . S
C371 C370 1.387 . S
C371 C372 1.372 . S
C372 H350 0.950 . S
C372 C371 1.372 . S
C372 C373 1.379 . S
C373 H351 0.948 1_455 S
C373 C368 1.364 1_455 S
C373 C372 1.379 . S
C374 C343 1.383 . S
C374 C361 1.479 . S
C374 C375 1.398 . S
C375 C340 1.382 . S
C375 H352 0.951 . S
C375 C374 1.398 . S
C376 C377 1.387 . S
C376 H380 0.950 . S
C376 C385 1.390 . S
C377 C376 1.387 . S
C377 C379 1.387 . S
H378 C385 0.950 1_545 S
C379 C377 1.387 . S
C379 C381 1.390 . S
C379 H383 0.950 . S
H380 C376 0.950 . S
C381 C379 1.390 . S
C381 C382 1.387 . S
C381 H384 0.950 . S
C382 C381 1.387 . S
C382 C385 1.387 . S
H383 C379 0.950 . S
H384 C381 0.950 . S
C385 C376 1.390 . S
C385 H378 0.950 1_565 S
C385 C382 1.387 . S
C386 C387 1.387 . S
C386 H390 0.950 . S
C386 C395 1.390 . S
C387 C386 1.387 . S
C387 C389 1.387 . S
H388 C395 0.950 . S
C389 C387 1.387 . S
C389 C391 1.390 . S
C389 H393 0.950 . S
H390 C386 0.950 . S
C391 C389 1.390 . S
C391 C392 1.387 . S
C391 H394 0.950 . S
C392 C391 1.387 . S
C392 C395 1.387 . S
H393 C389 0.950 . S
H394 C391 0.950 . S
C395 C386 1.390 . S
C395 H388 0.950 . S
C395 C392 1.387 . S
C396 C397 1.387 . S
C396 H400 0.950 . S
C396 C405 1.390 . S
C397 C396 1.387 . S
C397 C399 1.387 . S
H398 C405 0.950 1_565 S
C399 C397 1.387 . S
C399 C401 1.390 . S
C399 H403 0.950 . S
H400 C396 0.950 . S
C401 C399 1.390 . S
C401 C402 1.387 1_545 S
C401 H404 0.950 . S
C402 C401 1.387 1_565 S
C402 C405 1.387 1_565 S
H403 C399 0.950 . S
H404 C401 0.950 . S
C405 C396 1.390 . S
C405 H398 0.950 1_545 S
C405 C402 1.387 1_545 S
C406 C407 1.387 . S
C406 H410 0.950 . S
C406 C415 1.390 . S
C407 C406 1.387 . S
C407 C409 1.387 . S
H408 C415 0.950 . S
C409 C407 1.387 . S
C409 C411 1.390 . S
C409 H413 0.950 . S
H410 C406 0.950 . S
C411 C409 1.390 . S
C411 C412 1.387 . S
C411 H414 0.950 . S
C412 C411 1.387 . S
C412 C415 1.387 . S
H413 C409 0.950 . S
H414 C411 0.950 . S
C415 C406 1.390 . S
C415 H408 0.950 . S
C415 C412 1.387 . S
C416 C417 1.387 . S
C416 H420 0.950 . S
C416 C425 1.390 . S
C417 C416 1.387 . S
C417 C419 1.387 . S
H418 C425 0.950 . S
C419 C417 1.387 . S
C419 C421 1.390 . S
C419 H423 0.950 . S
H420 C416 0.950 . S
C421 C419 1.390 . S
C421 C422 1.387 . S
C421 H424 0.950 . S
C422 C421 1.387 . S
C422 C425 1.387 . S
H423 C419 0.950 . S
H424 C421 0.950 . S
C425 C416 1.390 . S
C425 H418 0.950 . S
C425 C422 1.387 . S
C426 C427 1.387 1_554 S
C426 H430 0.950 . S
C426 C435 1.390 1_655 S
C427 C426 1.387 1_556 S
C427 C429 1.387 . S
H428 C435 0.950 . S
C429 C427 1.387 . S
C429 C431 1.390 1_655 S
C429 H433 0.950 . S
H430 C426 0.950 . S
C431 C429 1.390 1_455 S
C431 C432 1.387 . S
C431 H434 0.950 . S
C432 C431 1.387 . S
C432 C435 1.387 1_556 S
H433 C429 0.950 . S
H434 C431 0.950 . S
C435 C426 1.390 1_455 S
C435 H428 0.950 . S
C435 C432 1.387 1_554 S
C436 C437 1.387 . S
C436 H440 0.950 . S
C436 C445 1.390 . S
C437 C436 1.387 . S
C437 C439 1.387 . S
H438 C445 0.950 . S
C439 C437 1.387 . S
C439 C441 1.390 . S
C439 H443 0.950 . S
H440 C436 0.950 . S
C441 C439 1.390 . S
C441 C442 1.387 . S
C441 H444 0.950 . S
C442 C441 1.387 . S
C442 C445 1.387 . S
H443 C439 0.950 . S
H444 C441 0.950 . S
C445 C436 1.390 . S
C445 H438 0.950 . S
C445 C442 1.387 . S
C446 C447 1.387 . S
C446 H450 0.950 . S
C446 C455 1.390 . S
C447 C446 1.387 . S
C447 C449 1.387 . S
H448 C455 0.950 . S
C449 C447 1.387 . S
C449 C451 1.390 . S
C449 H453 0.950 . S
H450 C446 0.950 . S
C451 C449 1.390 . S
C451 C452 1.387 . S
C451 H454 0.950 . S
C452 C451 1.387 . S
C452 C455 1.387 . S
H453 C449 0.950 . S
H454 C451 0.950 . S
C455 C446 1.390 . S
C455 H448 0.950 . S
C455 C452 1.387 . S
C456 C457 1.387 . S
C456 H460 0.950 . S
C456 C465 1.390 . S
C457 C456 1.387 . S
C457 C459 1.387 . S
H458 C465 0.950 . S
C459 C457 1.387 . S
C459 C461 1.390 . S
C459 H463 0.950 . S
H460 C456 0.950 . S
C461 C459 1.390 . S
C461 C462 1.387 . S
C461 H464 0.950 . S
C462 C461 1.387 . S
C462 C465 1.387 . S
H463 C459 0.950 . S
H464 C461 0.950 . S
C465 C456 1.390 . S
C465 H458 0.950 . S
C465 C462 1.387 . S
C466 C467 1.387 . S
C466 H470 0.950 . S
C466 C475 1.390 . S
C467 C466 1.387 . S
C467 C469 1.387 . S
H468 C475 0.950 . S
C469 C467 1.387 . S
C469 C471 1.390 . S
C469 H473 0.950 . S
H470 C466 0.950 . S
C471 C469 1.390 . S
C471 C472 1.387 . S
C471 H474 0.950 . S
C472 C471 1.387 . S
C472 C475 1.387 . S
H473 C469 0.950 . S
H474 C471 0.950 . S
C475 C466 1.390 . S
C475 H468 0.950 . S
C475 C472 1.387 . S
C476 C477 1.387 1_556 S
C476 H480 0.950 . S
C476 C485 1.390 . S
C477 C476 1.387 1_554 S
C477 C479 1.387 . S
H478 C485 0.950 . S
C479 C477 1.387 . S
C479 C481 1.390 . S
C479 H483 0.950 . S
H480 C476 0.950 . S
C481 C479 1.390 . S
C481 C482 1.387 1_565 S
C481 H484 0.950 1_565 S
C482 C481 1.387 1_545 S
C482 C485 1.387 1_544 S
H483 C479 0.950 . S
H484 C481 0.950 1_545 S
C485 C476 1.390 . S
C485 H478 0.950 . S
C485 C482 1.387 1_566 S
C486 C487 1.387 . S
C486 H490 0.950 . S
C486 C495 1.390 . S
C487 C486 1.387 . S
C487 C489 1.387 . S
H488 C495 0.950 . S
C489 C487 1.387 . S
C489 C491 1.390 . S
C489 H493 0.950 . S
H490 C486 0.950 . S
C491 C489 1.390 . S
C491 C492 1.387 . S
C491 H494 0.950 . S
C492 C491 1.387 . S
C492 C495 1.387 . S
H493 C489 0.950 . S
H494 C491 0.950 . S
C495 C486 1.390 . S
C495 H488 0.950 . S
C495 C492 1.387 . S
C496 C497 1.387 . S
C496 H500 0.950 . S
C496 C505 1.390 . S
C497 C496 1.387 . S
C497 C499 1.387 . S
H498 C505 0.950 . S
C499 C497 1.387 . S
C499 C501 1.390 . S
C499 H503 0.950 . S
H500 C496 0.950 . S
C501 C499 1.390 . S
C501 C502 1.387 . S
C501 H504 0.950 . S
C502 C501 1.387 . S
C502 C505 1.387 . S
H503 C499 0.950 . S
H504 C501 0.950 . S
C505 C496 1.390 . S
C505 H498 0.950 . S
C505 C502 1.387 . S
C506 C507 1.387 . S
C506 H510 0.950 . S
C506 C515 1.390 1_455 S
C507 C506 1.387 . S
C507 C509 1.387 . S
H508 C515 0.950 . S
C509 C507 1.387 . S
C509 C511 1.390 1_455 S
C509 H513 0.950 . S
H510 C506 0.950 . S
C511 C509 1.390 1_655 S
C511 C512 1.387 . S
C511 H514 0.950 . S
C512 C511 1.387 . S
C512 C515 1.387 . S
H513 C509 0.950 . S
H514 C511 0.950 . S
C515 C506 1.390 1_655 S
C515 H508 0.950 . S
C515 C512 1.387 . S
C516 C517 1.387 . S
C516 H520 0.950 . S
C516 C525 1.390 . S
C517 C516 1.387 . S
C517 C519 1.387 . S
H518 C525 0.950 . S
C519 C517 1.387 . S
C519 C521 1.390 . S
C519 H523 0.950 . S
H520 C516 0.950 . S
C521 C519 1.390 . S
C521 C522 1.387 . S
C521 H524 0.950 . S
C522 C521 1.387 . S
C522 C525 1.387 . S
H523 C519 0.950 . S
H524 C521 0.950 . S
C525 C516 1.390 . S
C525 H518 0.950 . S
C525 C522 1.387 . S
C526 C527 1.387 . S
C526 H530 0.950 . S
C526 C535 1.390 . S
C527 C526 1.387 . S
C527 C529 1.387 . S
H528 C535 0.950 . S
C529 C527 1.387 . S
C529 C531 1.390 . S
C529 H533 0.950 . S
H530 C526 0.950 . S
C531 C529 1.390 . S
C531 C532 1.387 . S
C531 H534 0.950 . S
C532 C531 1.387 . S
C532 C535 1.387 . S
H533 C529 0.950 . S
H534 C531 0.950 . S
C535 C526 1.390 . S
C535 H528 0.950 . S
C535 C532 1.387 . S
C536 C537 1.387 . S
C536 H540 0.950 . S
C536 C545 1.390 . S
C537 C536 1.387 . S
C537 C539 1.387 . S
H538 C545 0.950 . S
C539 C537 1.387 . S
C539 C541 1.390 . S
C539 H543 0.950 . S
H540 C536 0.950 . S
C541 C539 1.390 . S
C541 C542 1.387 . S
C541 H544 0.950 . S
C542 C541 1.387 . S
C542 C545 1.387 . S
H543 C539 0.950 . S
H544 C541 0.950 . S
C545 C536 1.390 . S
C545 H538 0.950 . S
C545 C542 1.387 . S
C546 C547 1.387 . S
C546 H550 0.950 . S
C546 C555 1.390 . S
C547 C546 1.387 . S
C547 C549 1.387 . S
H548 C555 0.950 . S
C549 C547 1.387 . S
C549 C551 1.390 . S
C549 H553 0.950 . S
H550 C546 0.950 . S
C551 C549 1.390 . S
C551 C552 1.387 . S
C551 H554 0.950 . S
C552 C551 1.387 . S
C552 C555 1.387 . S
H553 C549 0.950 . S
H554 C551 0.950 . S
C555 C546 1.390 . S
C555 H548 0.950 . S
C555 C552 1.387 . S
C556 C557 1.387 . S
C556 H560 0.950 . S
C556 C565 1.390 . S
C557 C556 1.387 . S
C557 C559 1.387 . S
H558 C565 0.950 . S
C559 C557 1.387 . S
C559 C561 1.390 . S
C559 H563 0.950 . S
H560 C556 0.950 . S
C561 C559 1.390 . S
C561 C562 1.387 . S
C561 H564 0.950 . S
C562 C561 1.387 . S
C562 C565 1.387 . S
H563 C559 0.950 . S
H564 C561 0.950 . S
C565 C556 1.390 . S
C565 H558 0.950 . S
C565 C562 1.387 . S
C566 C567 1.387 . S
C566 H570 0.950 . S
C566 C575 1.390 . S
C567 C566 1.387 . S
C567 C569 1.387 . S
H568 C575 0.950 . S
C569 C567 1.387 . S
C569 C571 1.390 . S
C569 H573 0.950 . S
H570 C566 0.950 . S
C571 C569 1.390 . S
C571 C572 1.387 . S
C571 H574 0.950 . S
C572 C571 1.387 . S
C572 C575 1.387 . S
H573 C569 0.950 . S
H574 C571 0.950 . S
C575 C566 1.390 . S
C575 H568 0.950 . S
C575 C572 1.387 . S
C576 C577 1.387 . S
C576 H580 0.950 . S
C576 C585 1.390 . S
C577 C576 1.387 . S
C577 C579 1.387 . S
H578 C585 0.950 . S
C579 C577 1.387 . S
C579 C581 1.390 . S
C579 H583 0.950 . S
H580 C576 0.950 . S
C581 C579 1.390 . S
C581 C582 1.387 . S
C581 H584 0.950 . S
C582 C581 1.387 . S
C582 C585 1.387 . S
H583 C579 0.950 . S
H584 C581 0.950 . S
C585 C576 1.390 . S
C585 H578 0.950 . S
C585 C582 1.387 . S
C586 C587 1.387 . S
C586 H590 0.950 . S
C586 C595 1.390 . S
C587 C586 1.387 . S
C587 C589 1.387 . S
H588 C595 0.950 . S
C589 C587 1.387 . S
C589 C591 1.390 . S
C589 H593 0.950 . S
H590 C586 0.950 . S
C591 C589 1.390 . S
C591 C592 1.387 . S
C591 H594 0.950 . S
C592 C591 1.387 . S
C592 C595 1.387 . S
H593 C589 0.950 . S
H594 C591 0.950 . S
C595 C586 1.390 . S
C595 H588 0.950 . S
C595 C592 1.387 . S
C596 C597 1.387 . S
C596 H600 0.950 . S
C596 C605 1.390 . S
C597 C596 1.387 . S
C597 C599 1.387 . S
H598 C605 0.950 . S
C599 C597 1.387 . S
C599 C601 1.390 . S
C599 H603 0.950 . S
H600 C596 0.950 . S
C601 C599 1.390 . S
C601 C602 1.387 . S
C601 H604 0.950 . S
C602 C601 1.387 . S
C602 C605 1.387 . S
H603 C599 0.950 . S
H604 C601 0.950 . S
C605 C596 1.390 . S
C605 H598 0.950 . S
C605 C602 1.387 . S
C606 C607 1.387 1_556 S
C606 H610 0.950 . S
C606 C615 1.390 . S
C607 C606 1.387 1_554 S
C607 C609 1.387 . S
H608 C615 0.950 . S
C609 C607 1.387 . S
C609 C611 1.390 . S
C609 H613 0.950 . S
H610 C606 0.950 . S
C611 C609 1.390 . S
C611 C612 1.381 1_554 S
C611 H614 0.950 . S
C612 C611 1.381 1_556 S
C612 C615 1.392 . S
H613 C609 0.950 . S
H614 C611 0.950 . S
C615 C606 1.390 . S
C615 H608 0.950 . S
C615 C612 1.392 . S
C377 C7 1.741 . S
C382 C119 1.564 . S
C387 C37 1.772 . S
C392 C155 1.526 . S
C397 C54 1.909 . S
C402 C191 1.692 . S
C412 C221 1.562 . S
C407 C87 1.590 . S
C422 C263 1.524 . S
C417 C30 1.685 . S
C427 C51 1.641 . S
C432 C293 1.607 . S
C437 C84 1.951 . S
C442 C329 1.751 . S
C447 C10 1.727 . S
C452 C371 1.490 . S
C457 C59 1.730 . S
C462 C341 1.597 . S
C472 C233 1.517 . S
C467 C74 1.713 . S
C482 C299 1.793 1_554 S
C477 C18 1.952 . S
C487 C32 1.632 . S
C492 C335 1.594 . S
C502 C125 1.590 . S
C497 C73 1.729 . S
C507 C15 1.628 . S
C512 C185 1.525 . S
C522 C227 1.840 . S
C517 C43 1.980 . S
C532 C89 1.524 . S
C527 C62 1.714 . S
C542 C305 1.669 . S
C537 C21 1.738 . S
C552 C365 1.412 . S
C547 C29 1.471 . S
C557 C52 1.442 . S
C562 C257 1.349 . S
C572 C269 1.639 . S
C567 C81 1.721 . S
C582 C161 1.566 . S
C577 C40 1.689 . S
C587 C65 1.705 . S
C592 C197 1.620 . S
C602 C113 1.359 . S
C597 C76 1.453 . S
C612 C149 1.413 . S
C607 C8 1.487 . S
