# Generated by pormake.
# Topology rtl, (3,6)-cn, num edge types: 1
# Building blocks:
#     Node 0, Type 0, BuildingBlock: PAMTOO_clean_linker_0, # of connection points: 3
#     Node 1, Type 0, BuildingBlock: PAMTOO_clean_linker_0, # of connection points: 3
#     Node 2, Type 0, BuildingBlock: PAMTOO_clean_linker_0, # of connection points: 3
#     Node 3, Type 0, BuildingBlock: PAMTOO_clean_linker_0, # of connection points: 3
#     Node 4, Type 1, BuildingBlock: FUNLAD_clean_sbu_0, # of connection points: 6
#     Node 5, Type 1, BuildingBlock: FUNLAD_clean_sbu_0, # of connection points: 6
#     Edge 6, Type (0, 1), BuildingBlock: FUNLAD_clean_linker_0, # of connection points: 2
#     Edge 7, Type (0, 1), BuildingBlock: FUNLAD_clean_linker_0, # of connection points: 2
#     Edge 8, Type (0, 1), BuildingBlock: FUNLAD_clean_linker_0, # of connection points: 2
#     Edge 9, Type (0, 1), BuildingBlock: FUNLAD_clean_linker_0, # of connection points: 2
#     Edge 10, Type (0, 1), BuildingBlock: FUNLAD_clean_linker_0, # of connection points: 2
#     Edge 11, Type (0, 1), BuildingBlock: FUNLAD_clean_linker_0, # of connection points: 2
#     Edge 12, Type (0, 1), BuildingBlock: FUNLAD_clean_linker_0, # of connection points: 2
#     Edge 13, Type (0, 1), BuildingBlock: FUNLAD_clean_linker_0, # of connection points: 2
#     Edge 14, Type (0, 1), BuildingBlock: FUNLAD_clean_linker_0, # of connection points: 2
#     Edge 15, Type (0, 1), BuildingBlock: FUNLAD_clean_linker_0, # of connection points: 2
#     Edge 16, Type (0, 1), BuildingBlock: FUNLAD_clean_linker_0, # of connection points: 2
#     Edge 17, Type (0, 1), BuildingBlock: FUNLAD_clean_linker_0, # of connection points: 2
# Relax obj value: 0.003
# Max RMSD: 0.047
# Mean RMSD: 0.035
data_MOF--net-rtl--node1-FUNLAD_clean_sbu_0--node2-PAMTOO_clean_linker_0--edge1-FUNLAD_clean_linker_0
_symmetry_space_group_name_H-M    P1
_symmetry_Int_Tables_number       1
_symmetry_cell_setting            triclinic
loop_
_symmetry_equiv_pos_as_xyz
'x, y, z'
_cell_length_a     46.0992
_cell_length_b     46.09791
_cell_length_c     24.584796
_cell_angle_alpha  92.250148
_cell_angle_beta   90.910543
_cell_angle_gamma 90.415722
loop_
_atom_site_label
_atom_site_type_symbol
_atom_site_fract_x
_atom_site_fract_y
_atom_site_fract_z
_atom_type_partial_charge
H0 H 0.12685 0.87037 0.00041 0.0
H1 H 0.18778 0.82037 0.09174 0.0
H2 H 0.19367 0.82218 0.91768 0.0
H3 H 0.19635 0.76471 0.96736 0.0
C4 C 0.20996 0.77065 0.00401 0.0
O5 O 0.21532 0.80018 0.00615 0.0
H6 H 0.19775 0.76457 0.0406 0.0
C7 C 0.14529 0.85592 0.00175 0.0
C8 C 0.15894 0.84748 0.95315 0.0
C9 C 0.15553 0.84649 0.05208 0.0
C10 C 0.17985 0.82834 0.05343 0.0
C11 C 0.19332 0.81936 0.00493 0.0
C12 C 0.18319 0.82931 0.95496 0.0
H13 H 0.64447 0.6286 0.51981 0.0
H14 H 0.68616 0.69861 0.43977 0.0
H15 H 0.69709 0.69102 0.61238 0.0
H16 H 0.68888 0.75096 0.57507 0.0
C17 C 0.70041 0.74887 0.53567 0.0
O18 O 0.71096 0.72111 0.52837 0.0
H19 H 0.68459 0.75348 0.50248 0.0
C20 C 0.65859 0.64754 0.5216 0.0
C21 C 0.67022 0.65774 0.57198 0.0
C22 C 0.66404 0.66212 0.47371 0.0
C23 C 0.68149 0.68722 0.4764 0.0
C24 C 0.69339 0.69751 0.52637 0.0
C25 C 0.68767 0.6829 0.57404 0.0
H26 H 0.87887 0.14165 0.01602 0.0
H27 H 0.81972 0.19661 0.93137 0.0
H28 H 0.82013 0.19677 0.10603 0.0
H29 H 0.76261 0.19607 0.05354 0.0
C30 C 0.76718 0.20985 0.01843 0.0
O31 O 0.79591 0.21837 0.01977 0.0
H32 H 0.76236 0.19666 0.98039 0.0
C33 C 0.86186 0.15777 0.01686 0.0
C34 C 0.85116 0.16806 0.06709 0.0
C35 C 0.85072 0.16779 0.96762 0.0
C36 C 0.82873 0.1887 0.96892 0.0
C37 C 0.81759 0.19883 0.01882 0.0
C38 C 0.8288 0.18858 0.06774 0.0
H39 H 0.37605 0.37468 0.48649 0.0
H40 H 0.31348 0.32367 0.56966 0.0
H41 H 0.31456 0.32069 0.39484 0.0
H42 H 0.25602 0.31642 0.43544 0.0
C43 C 0.26088 0.30933 0.47731 0.0
O44 O 0.28942 0.30068 0.48074 0.0
H45 H 0.25713 0.3281 0.50621 0.0
C46 C 0.35803 0.3594 0.48509 0.0
C47 C 0.34664 0.34916 0.43456 0.0
C48 C 0.34629 0.35039 0.53398 0.0
C49 C 0.32283 0.33081 0.53225 0.0
C50 C 0.31167 0.31994 0.48208 0.0
C51 C 0.32367 0.32893 0.43336 0.0
C52 C 0.03552 0.9768 0.43231 0.0
N53 N 0.05427 0.05387 0.52357 0.0
C54 C 0.08256 0.04564 0.52244 0.0
C55 C 0.10472 0.06651 0.52302 0.0
C56 C 0.09772 0.09615 0.52505 0.0
C57 C 0.06837 0.10398 0.52752 0.0
C58 C 0.04692 0.08242 0.52658 0.0
Zn59 Zn 0.02188 0.02323 0.51623 0.0
C60 C 0.97798 0.0393 0.43192 0.0
N61 N 0.9536 0.96008 0.49728 0.0
C62 C 0.95996 0.93128 0.49628 0.0
C63 C 0.92563 0.96929 0.49541 0.0
C64 C 0.90275 0.94925 0.49341 0.0
C65 C 0.90862 0.91938 0.49325 0.0
C66 C 0.93771 0.91048 0.49416 0.0
Zn67 Zn 0.98633 0.99035 0.50485 0.0
O68 O 0.04541 1.00017 0.45499 0.0
C69 C 0.03026 0.97447 0.58942 0.0
O70 O 0.01068 0.96746 0.44538 0.0
H71 H 0.92102 0.99226 0.49613 0.0
H72 H 0.08794 0.02283 0.52013 0.0
H73 H 0.98232 0.92441 0.498 0.0
O74 O 0.04206 0.99815 0.57627 0.0
O75 O 0.00654 0.96628 0.56635 0.0
H76 H 0.02432 0.08854 0.52703 0.0
O77 O 0.9626 0.01353 0.56451 0.0
O78 O 0.99758 0.0457 0.57739 0.0
O79 O 0.96664 0.01515 0.44362 0.0
O80 O 1.00128 0.04771 0.45611 0.0
C81 C 0.97245 0.03642 0.58888 0.0
H82 H 0.12709 0.05952 0.52168 0.0
H83 H 0.06197 0.12655 0.52843 0.0
H84 H 0.88067 0.95709 0.49193 0.0
H85 H 0.94324 0.88769 0.49462 0.0
C86 C 0.47855 0.4793 0.91349 0.0
N87 N 0.55211 0.45772 0.00355 0.0
C88 C 0.54292 0.42967 -0.00293 0.0
C89 C 0.56291 0.40709 0.9955 0.0
C90 C 0.59272 0.41335 0.00064 0.0
C91 C 0.60158 0.44249 0.00802 0.0
C92 C 0.58082 0.46445 0.00929 0.0
Zn93 Zn 0.52191 0.49 0.00261 0.0
C94 C 0.53959 0.53852 0.93306 0.0
N95 N 0.4583 0.55694 -0.00064 0.0
C96 C 0.43004 0.54901 0.99108 0.0
C97 C 0.46629 0.58541 0.00474 0.0
C98 C 0.44548 0.6072 0.00116 0.0
C99 C 0.41623 0.59959 0.99151 0.0
C100 C 0.40861 0.57004 0.98687 0.0
Zn101 Zn 0.48892 0.52503 0.00128 0.0
O102 O 0.50166 0.46943 0.93421 0.0
C103 C 0.47092 0.47702 0.0711 0.0
O104 O 0.46782 0.5026 0.93363 0.0
H105 H 0.48889 0.59125 0.01112 0.0
H106 H 0.52001 0.42478 0.99271 0.0
H107 H 0.4241 0.52628 0.98723 0.0
O108 O 0.49482 0.46634 0.05509 0.0
O109 O 0.46329 0.50175 0.05515 0.0
H110 H 0.58766 0.4869 0.01427 0.0
O111 O 0.51075 0.54667 0.06899 0.0
O112 O 0.54187 0.51086 0.07091 0.0
O113 O 0.51494 0.54795 0.94748 0.0
O114 O 0.54838 0.5144 0.95032 0.0
C115 C 0.53287 0.53501 0.09047 0.0
H116 H 0.55507 0.38492 0.99057 0.0
H117 H 0.62435 0.44833 0.01161 0.0
H118 H 0.45229 0.62975 0.00458 0.0
H119 H 0.38625 0.56323 0.9802 0.0
C120 C 0.24015 0.25947 0.45474 0.0
C121 C 0.24115 0.28434 0.48955 0.0
C122 C 0.22132 0.23646 0.46501 0.0
C123 C 0.20314 0.23789 0.51056 0.0
C124 C 0.20422 0.26284 0.54523 0.0
C125 C 0.22315 0.28576 0.53508 0.0
C126 C 0.18168 0.21465 0.52159 0.0
C127 C 0.1847 0.18667 0.50457 0.0
C128 C 0.16265 0.16346 0.51287 0.0
C129 C 0.16442 0.13745 0.48138 0.0
C130 C 0.14371 0.11542 0.48604 0.0
C131 C 0.12071 0.11883 0.52251 0.0
H132 H 0.13829 0.18557 0.5773 0.0
C133 C 0.11933 0.14447 0.55517 0.0
C134 C 0.1401 0.16648 0.55069 0.0
H135 H 0.1022 0.1475 0.58445 0.0
H136 H 0.25372 0.25806 0.41916 0.0
H137 H 0.22056 0.21807 0.4363 0.0
H138 H 0.19032 0.26465 0.58032 0.0
H139 H 0.22349 0.30473 0.56252 0.0
H140 H 0.16283 0.22126 0.54462 0.0
H141 H 0.20391 0.18035 0.48221 0.0
H142 H 0.18159 0.13434 0.45218 0.0
H143 H 0.1453 0.09602 0.45995 0.0
C144 C 0.24404 0.7346 0.95956 0.0
C145 C 0.23805 0.75423 0.00291 0.0
C146 C 0.26908 0.71771 0.96048 0.0
C147 C 0.28887 0.72025 0.00481 0.0
C148 C 0.28291 0.74026 0.04776 0.0
C149 C 0.25778 0.75707 0.04685 0.0
C150 C 0.31486 0.70136 0.00964 0.0
C151 C 0.32573 0.68507 0.96808 0.0
C152 C 0.34976 0.66409 0.97468 0.0
C153 C 0.35105 0.63998 0.93815 0.0
C154 C 0.37265 0.61917 0.94358 0.0
C155 C 0.39376 0.62219 0.98531 0.0
H156 H 0.37154 0.68621 0.04381 0.0
C157 C 0.39306 0.64675 0.021 0.0
C158 C 0.37126 0.6675 0.01584 0.0
H159 H 0.40908 0.64969 0.05348 0.0
H160 H 0.22899 0.7318 0.92545 0.0
H161 H 0.27208 0.70217 0.92706 0.0
H162 H 0.29754 0.74261 0.08261 0.0
H163 H 0.25344 0.77194 0.08093 0.0
H164 H 0.32481 0.70029 0.04982 0.0
H165 H 0.31592 0.68575 0.92781 0.0
H166 H 0.33499 0.63696 0.90572 0.0
H167 H 0.37292 0.60076 0.91483 0.0
C168 C 0.7365 0.77861 0.48517 0.0
C169 C 0.72519 0.77024 0.53489 0.0
C170 C 0.75973 0.79827 0.48419 0.0
C171 C 0.77236 0.80965 0.53314 0.0
C172 C 0.76104 0.80104 0.58279 0.0
C173 C 0.73787 0.78134 0.5837 0.0
C174 C 0.79645 0.83135 0.53421 0.0
C175 C 0.81496 0.83448 0.49287 0.0
C176 C 0.83881 0.85645 0.49423 0.0
C177 C 0.8631 0.85157 0.46144 0.0
C178 C 0.8858 0.87187 0.46118 0.0
C179 C 0.88453 0.89774 0.49327 0.0
H180 H 0.81872 0.88755 0.55053 0.0
C181 C 0.86004 0.90281 0.52556 0.0
C182 C 0.83741 0.88249 0.52596 0.0
H183 H 0.85844 0.92244 0.55099 0.0
H184 H 0.72714 0.77011 0.44705 0.0
H185 H 0.76724 0.80485 0.44505 0.0
H186 H 0.77023 0.80951 0.62108 0.0
H187 H 0.72972 0.7749 0.62255 0.0
H188 H 0.79965 0.84437 0.57161 0.0
H189 H 0.81357 0.81964 0.45753 0.0
H190 H 0.86461 0.83189 0.43609 0.0
H191 H 0.90416 0.86748 0.43526 0.0
C192 C 0.74047 0.24995 0.97269 0.0
C193 C 0.74823 0.23624 0.02067 0.0
C194 C 0.72281 0.27448 0.97462 0.0
C195 C 0.71259 0.28578 0.0248 0.0
C196 C 0.72135 0.27261 0.07287 0.0
C197 C 0.73901 0.24808 0.07087 0.0
C198 C 0.69321 0.31142 0.02873 0.0
C199 C 0.67547 0.31919 0.98776 0.0
C200 C 0.65485 0.34382 0.99216 0.0
C201 C 0.63079 0.34385 0.95646 0.0
C202 C 0.61071 0.36637 0.95921 0.0
C203 C 0.61433 0.3896 -0.00246 0.0
H204 H 0.67749 0.36864 0.05714 0.0
C205 C 0.63872 0.38992 0.03265 0.0
C206 C 0.65881 0.36733 0.02996 0.0
H207 H 0.64213 0.40749 0.06268 0.0
H208 H 0.74803 0.2416 0.93366 0.0
H209 H 0.71757 0.28464 0.93682 0.0
H210 H 0.71421 0.28109 0.11211 0.0
H211 H 0.7453 0.23819 0.10849 0.0
H212 H 0.69225 0.32299 0.06797 0.0
H213 H 0.67455 0.30593 0.95028 0.0
H214 H 0.62736 0.32624 0.92649 0.0
H215 H 0.59247 0.36572 0.93085 0.0
C216 C 0.15591 0.86648 0.14865 0.0
C217 C 0.14036 0.85564 0.10255 0.0
C218 C 0.1412 0.8777 0.19413 0.0
C219 C 0.11064 0.87821 0.19419 0.0
C220 C 0.09525 0.866 0.14912 0.0
C221 C 0.10991 0.85497 0.10373 0.0
C222 C 0.09386 0.89151 0.23974 0.0
C223 C 0.10437 0.91287 0.27372 0.0
C224 C 0.08647 0.92843 0.31529 0.0
C225 C 0.09564 0.95602 0.33523 0.0
C226 C 0.07913 0.97178 0.37314 0.0
C227 C 0.05302 0.96026 0.39202 0.0
H228 H 0.05324 0.89504 0.32275 0.0
C229 C 0.04406 0.93245 0.3729 0.0
C230 C 0.06067 0.91661 0.3353 0.0
H231 H 0.0243 0.92273 0.38736 0.0
H232 H 0.1794 0.86713 0.1489 0.0
H233 H 0.15386 0.886 0.22883 0.0
H234 H 0.07174 0.8657 0.14833 0.0
H235 H 0.09736 0.84623 0.06915 0.0
H236 H 0.07122 0.88516 0.24182 0.0
H237 H 0.12628 0.92093 0.26836 0.0
H238 H 0.11552 0.9656 0.32097 0.0
H239 H 0.08675 0.99308 0.38736 0.0
C240 C 0.65411 0.6577 0.6691 0.0
C241 C 0.66318 0.6423 0.62202 0.0
C242 C 0.64405 0.64285 0.71374 0.0
C243 C 0.64283 0.61227 0.71203 0.0
C244 C 0.65358 0.59699 0.66626 0.0
C245 C 0.6635 0.6118 0.62164 0.0
C246 C 0.62965 0.59552 0.75599 0.0
C247 C 0.60837 0.60616 0.78786 0.0
C248 C 0.59186 0.58849 0.82643 0.0
C249 C 0.56442 0.59822 0.84266 0.0
C250 C 0.54755 0.58202 0.87724 0.0
C251 C 0.55778 0.55567 0.89679 0.0
H252 H 0.62381 0.55452 0.83696 0.0
C253 C 0.5855 0.54614 0.88161 0.0
C254 C 0.60244 0.56241 0.84697 0.0
H255 H 0.59418 0.52612 0.89653 0.0
H256 H 0.65373 0.68121 0.67064 0.0
H257 H 0.63693 0.65542 0.74909 0.0
H258 H 0.65333 0.57347 0.66413 0.0
H259 H 0.67088 0.59935 0.58629 0.0
H260 H 0.63559 0.57285 0.75792 0.0
H261 H 0.60083 0.62812 0.78224 0.0
H262 H 0.55576 0.61829 0.82788 0.0
H263 H 0.52637 0.59013 0.88839 0.0
C264 C 0.89327 0.15273 0.12424 0.0
C265 C 0.86321 0.15658 0.11818 0.0
C266 C 0.90467 0.13892 0.16918 0.0
C267 C 0.88626 0.12891 0.20969 0.0
C268 C 0.85626 0.13349 0.20437 0.0
C269 C 0.84483 0.14733 0.1592 0.0
C270 C 0.8974 0.11178 0.25553 0.0
C271 C 0.92529 0.11276 0.27286 0.0
C272 C 0.93748 0.09385 0.31501 0.0
C273 C 0.96366 0.10225 0.34117 0.0
C274 C 0.97674 0.08455 0.37909 0.0
C275 C 0.96404 0.05784 0.39146 0.0
H276 H 0.90507 0.0593 0.30678 0.0
C277 C 0.93787 0.0493 0.3652 0.0
C278 C 0.92475 0.06705 0.32723 0.0
H279 H 0.9276 0.02879 0.37367 0.0
H280 H 0.908 0.15982 0.09344 0.0
H281 H 0.9278 0.13522 0.17057 0.0
H282 H 0.84155 0.12582 0.23469 0.0
H283 H 0.82154 0.14973 0.15534 0.0
H284 H 0.88194 0.09813 0.27564 0.0
H285 H 0.94005 0.12846 0.25628 0.0
H286 H 0.97411 0.1226 0.33217 0.0
H287 H 0.9969 0.09181 0.39855 0.0
C288 C 0.38882 0.361 0.59558 0.0
C289 C 0.35876 0.36198 0.58629 0.0
C290 C 0.40134 0.37462 0.64196 0.0
C291 C 0.38405 0.39013 0.67973 0.0
C292 C 0.35378 0.38986 0.67156 0.0
C293 C 0.34121 0.37587 0.62531 0.0
C294 C 0.3967 0.40692 0.7276 0.0
C295 C 0.42487 0.41492 0.73167 0.0
C296 C 0.43761 0.43156 0.77915 0.0
C297 C 0.46678 0.42691 0.79297 0.0
C298 C 0.47995 0.4424 0.83665 0.0
C299 C 0.46438 0.46342 0.86681 0.0
H300 H 0.3996 0.45729 0.79859 0.0
C301 C 0.43528 0.46855 0.85244 0.0
C302 C 0.42193 0.45264 0.80913 0.0
H303 H 0.42277 0.48465 0.87494 0.0
H304 H 0.40273 0.34992 0.56648 0.0
H305 H 0.42454 0.37287 0.64746 0.0
H306 H 0.33985 0.40121 0.70027 0.0
H307 H 0.31794 0.3769 0.61896 0.0
H308 H 0.38211 0.41334 0.76011 0.0
H309 H 0.43981 0.40867 0.69979 0.0
H310 H 0.4794 0.411 0.77018 0.0
H311 H 0.50245 0.43804 0.8465 0.0
C312 C 0.65285 0.62124 0.40695 0.0
C313 C 0.65106 0.6509 0.42148 0.0
C314 C 0.63845 0.60982 0.3605 0.0
C315 C 0.62141 0.62777 0.32792 0.0
C316 C 0.62075 0.6577 0.34115 0.0
C317 C 0.63544 0.66919 0.38751 0.0
C318 C 0.60422 0.61603 0.28005 0.0
C319 C 0.59574 0.588 0.2745 0.0
C320 C 0.57936 0.57552 0.22661 0.0
C321 C 0.58309 0.54602 0.21259 0.0
C322 C 0.568 0.53303 0.16837 0.0
C323 C 0.54834 0.54913 0.13767 0.0
H324 H 0.55563 0.61436 0.20673 0.0
C325 C 0.5441 0.57858 0.15218 0.0
C326 C 0.55959 0.59174 0.19616 0.0
H327 H 0.52903 0.5915 0.12932 0.0
H328 H 0.66531 0.60678 0.43183 0.0
H329 H 0.6409 0.58693 0.35056 0.0
H330 H 0.6082 0.67213 0.31637 0.0
H331 H 0.63374 0.69217 0.39785 0.0
H332 H 0.59807 0.63107 0.24904 0.0
H333 H 0.6016 0.57294 0.30556 0.0
H334 H 0.59798 0.53298 0.23566 0.0
H335 H 0.57165 0.51025 0.1585 0.0
C336 C 0.8665 0.12581 0.90827 0.0
C337 C 0.86212 0.15582 0.91541 0.0
C338 C 0.87972 0.11441 0.86162 0.0
C339 C 0.88863 0.13277 0.82053 0.0
C340 C 0.88375 0.16275 0.82718 0.0
C341 C 0.87041 0.17418 0.87402 0.0
C342 C 0.90481 0.12143 0.77247 0.0
C343 C 0.90227 0.09373 0.75327 0.0
C344 C 0.92018 0.08076 0.70904 0.0
C345 C 0.91024 0.05511 0.6821 0.0
C346 C 0.92712 0.04094 0.64286 0.0
C347 C 0.95456 0.05196 0.6299 0.0
H348 H 0.95643 0.11124 0.71676 0.0
C349 C 0.96456 0.07772 0.65659 0.0
C350 C 0.94759 0.09198 0.69588 0.0
H351 H 0.98564 0.08672 0.64761 0.0
H352 H 0.86016 0.11111 0.93937 0.0
H353 H 0.8838 0.09133 0.85909 0.0
H354 H 0.89063 0.17741 0.79641 0.0
H355 H 0.86752 0.19744 0.87873 0.0
H356 H 0.91894 0.13645 0.75239 0.0
H357 H 0.88599 0.0797 0.77021 0.0
H358 H 0.88936 0.04583 0.69173 0.0
H359 H 0.91871 0.02114 0.62307 0.0
C360 C 0.36455 0.39016 0.38028 0.0
C361 C 0.35865 0.36035 0.38372 0.0
C362 C 0.37782 0.40085 0.33454 0.0
C363 C 0.38527 0.38201 0.29062 0.0
C364 C 0.37903 0.35224 0.29369 0.0
C365 C 0.36563 0.34151 0.33964 0.0
C366 C 0.40122 0.39265 0.24306 0.0
C367 C 0.39944 0.42028 0.22732 0.0
C368 C 0.41728 0.4328 0.18402 0.0
C369 C 0.40854 0.4592 0.16264 0.0
C370 C 0.42571 0.47321 0.12534 0.0
C371 C 0.45223 0.46124 0.10867 0.0
H372 H 0.45159 0.40059 0.18312 0.0
C373 C 0.46087 0.43457 0.12928 0.0
C374 C 0.44364 0.42051 0.16671 0.0
H375 H 0.48123 0.42482 0.11736 0.0
H376 H 0.35924 0.40526 0.41346 0.0
H377 H 0.38301 0.42378 0.33478 0.0
H378 H 0.3848 0.3372 0.26071 0.0
H379 H 0.36157 0.31839 0.34139 0.0
H380 H 0.41449 0.37717 0.2205 0.0
H381 H 0.38395 0.43473 0.24696 0.0
H382 H 0.38848 0.46929 0.17543 0.0
H383 H 0.41833 0.49369 0.11021 0.0
C384 C 0.11747 0.85453 0.8889 0.0
C385 C 0.14719 0.85765 0.90098 0.0
C386 C 0.10536 0.86692 0.84303 0.0
C387 C 0.12269 0.88328 0.80856 0.0
C388 C 0.15273 0.88512 0.8194 0.0
C389 C 0.16491 0.87236 0.86511 0.0
C390 C 0.1104 0.8994 0.76215 0.0
C391 C 0.0818 0.90416 0.75451 0.0
C392 C 0.06982 0.9218 0.71034 0.0
C393 C 0.04146 0.91593 0.6912 0.0
C394 C 0.02876 0.93285 0.6516 0.0
C395 C 0.04398 0.95641 0.63091 0.0
H396 H 0.10676 0.95101 0.70447 0.0
C397 C 0.07233 0.96246 0.65026 0.0
C398 C 0.08518 0.9453 0.68953 0.0
H399 H 0.0846 0.98051 0.63519 0.0
H400 H 0.10347 0.84279 0.91555 0.0
H401 H 0.0824 0.86369 0.83567 0.0
H402 H 0.16674 0.89723 0.79337 0.0
H403 H 0.18792 0.87504 0.87365 0.0
H404 H 0.1257 0.90844 0.73413 0.0
H405 H 0.06603 0.89496 0.7812 0.0
H406 H 0.02906 0.89814 0.70697 0.0
H407 H 0.00685 0.92765 0.63769 0.0
loop_
_geom_bond_atom_site_label_1
_geom_bond_atom_site_label_2
_geom_bond_distance
_geom_bond_site_symmetry_2
_ccdc_geom_bond_type
H0 C7 0.929 . S
H1 C10 0.930 . S
H2 C12 0.929 . S
H3 C4 0.969 . S
C4 H3 0.969 . S
C4 O5 1.550 1_554 S
C4 H6 0.973 . S
O5 C4 1.550 1_556 S
O5 C11 1.413 . S
H6 C4 0.973 . S
C7 H0 0.929 . S
C7 C8 1.400 1_554 S
C7 C9 1.364 . S
C8 C7 1.400 1_556 S
C8 C12 1.377 . S
C9 C7 1.364 . S
C9 C10 1.374 . S
C10 H1 0.930 . S
C10 C9 1.374 . S
C10 C11 1.379 1_554 S
C11 O5 1.413 . S
C11 C10 1.379 1_556 S
C11 C12 1.398 . S
C12 H2 0.929 . S
C12 C8 1.377 . S
C12 C11 1.398 . S
H13 C20 0.929 . S
H14 C23 0.930 . S
H15 C25 0.929 . S
H16 C17 0.969 . S
C17 H16 0.969 . S
C17 O18 1.550 . S
C17 H19 0.973 . S
O18 C17 1.550 . S
O18 C24 1.412 . S
H19 C17 0.973 . S
C20 H13 0.929 . S
C20 C21 1.400 . S
C20 C22 1.364 . S
C21 C20 1.400 . S
C21 C25 1.377 . S
C22 C20 1.364 . S
C22 C23 1.374 . S
C23 H14 0.930 . S
C23 C22 1.374 . S
C23 C24 1.383 . S
C24 O18 1.412 . S
C24 C23 1.383 . S
C24 C25 1.394 . S
C25 H15 0.929 . S
C25 C21 1.377 . S
C25 C24 1.394 . S
H26 C33 0.929 . S
H27 C36 0.930 . S
H28 C38 0.929 . S
H29 C30 0.969 . S
C30 H29 0.969 . S
C30 O31 1.550 1_556 S
C30 H32 0.973 . S
O31 C30 1.550 1_554 S
O31 C37 1.412 . S
H32 C30 0.973 . S
C33 H26 0.929 . S
C33 C34 1.400 . S
C33 C35 1.364 1_554 S
C34 C33 1.400 . S
C34 C38 1.377 . S
C35 C33 1.364 1_556 S
C35 C36 1.374 . S
C36 H27 0.930 . S
C36 C35 1.374 . S
C36 C37 1.383 1_556 S
C37 O31 1.412 . S
C37 C36 1.383 1_554 S
C37 C38 1.394 . S
C38 H28 0.929 . S
C38 C34 1.377 . S
C38 C37 1.394 . S
H39 C46 0.929 . S
H40 C49 0.930 . S
H41 C51 0.929 . S
H42 C43 0.969 . S
C43 H42 0.969 . S
C43 O44 1.550 . S
C43 H45 0.973 . S
O44 C43 1.550 . S
O44 C50 1.412 . S
H45 C43 0.973 . S
C46 H39 0.929 . S
C46 C47 1.400 . S
C46 C48 1.364 . S
C47 C46 1.400 . S
C47 C51 1.377 . S
C48 C46 1.364 . S
C48 C49 1.374 . S
C49 H40 0.930 . S
C49 C48 1.374 . S
C49 C50 1.383 . S
C50 O44 1.412 . S
C50 C49 1.383 . S
C50 C51 1.394 . S
C51 H41 0.929 . S
C51 C47 1.377 . S
C51 C50 1.394 . S
C52 O68 1.237 1_565 S
C52 O70 1.254 . S
N53 C54 1.333 . S
N53 C58 1.307 . S
N53 Zn59 2.020 . S
C54 N53 1.333 . S
C54 C55 1.379 . S
C54 H72 0.952 . S
C55 C54 1.379 . S
C55 C56 1.390 . S
C55 H82 0.949 . S
C56 C55 1.390 . S
C56 C57 1.357 . S
C57 C56 1.357 . S
C57 C58 1.370 . S
C57 H83 0.950 . S
C58 N53 1.307 . S
C58 C57 1.370 . S
C58 H76 0.948 . S
Zn59 N53 2.020 . S
Zn59 O68 2.048 . S
Zn59 O74 2.015 1_545 S
Zn59 O78 2.025 1_455 S
Zn59 O80 2.024 1_455 S
C60 O79 1.246 . S
C60 O80 1.249 . S
N61 C62 1.307 . S
N61 C63 1.333 . S
N61 Zn67 2.020 . S
C62 N61 1.307 . S
C62 C66 1.370 . S
C62 H73 0.948 . S
C63 N61 1.333 . S
C63 C64 1.379 . S
C63 H71 0.952 . S
C64 C63 1.379 . S
C64 C65 1.390 . S
C64 H84 0.949 . S
C65 C64 1.390 . S
C65 C66 1.357 . S
C66 C62 1.370 . S
C66 C65 1.357 . S
C66 H85 0.950 . S
Zn67 N61 2.020 . S
Zn67 O70 2.025 1_655 S
Zn67 O75 2.024 1_655 S
Zn67 O77 2.039 1_565 S
Zn67 O79 2.034 1_565 S
O68 C52 1.237 1_545 S
O68 Zn59 2.048 . S
C69 O74 1.270 . S
C69 O75 1.249 . S
O70 C52 1.254 . S
O70 Zn67 2.025 1_455 S
H71 C63 0.952 . S
H72 C54 0.952 . S
H73 C62 0.948 . S
O74 Zn59 2.015 1_565 S
O74 C69 1.270 . S
O75 Zn67 2.024 1_455 S
O75 C69 1.249 . S
H76 C58 0.948 . S
O77 Zn67 2.039 1_545 S
O77 C81 1.251 . S
O78 Zn59 2.025 1_655 S
O78 C81 1.254 . S
O79 C60 1.246 . S
O79 Zn67 2.034 1_545 S
O80 Zn59 2.024 1_655 S
O80 C60 1.249 . S
C81 O77 1.251 . S
C81 O78 1.254 . S
H82 C55 0.949 . S
H83 C57 0.950 . S
H84 C64 0.949 . S
H85 C66 0.950 . S
C86 O102 1.251 . S
C86 O104 1.254 . S
N87 C88 1.333 1_554 S
N87 C92 1.307 . S
N87 Zn93 2.020 . S
C88 N87 1.333 1_556 S
C88 C89 1.379 . S
C88 H106 0.952 . S
C89 C88 1.379 . S
C89 C90 1.390 1_556 S
C89 H116 0.949 . S
C90 C89 1.390 1_554 S
C90 C91 1.357 . S
C91 C90 1.357 . S
C91 C92 1.370 . S
C91 H117 0.950 . S
C92 N87 1.307 . S
C92 C91 1.370 . S
C92 H110 0.948 . S
Zn93 N87 2.020 . S
Zn93 O102 2.039 1_554 S
Zn93 O108 2.034 . S
Zn93 O112 2.025 . S
Zn93 O114 2.024 1_554 S
C94 O113 1.246 . S
C94 O114 1.249 . S
N95 C96 1.307 1_554 S
N95 C97 1.333 . S
N95 Zn101 2.020 . S
C96 N95 1.307 1_556 S
C96 C100 1.370 . S
C96 H107 0.948 . S
C97 N95 1.333 . S
C97 C98 1.379 . S
C97 H105 0.952 . S
C98 C97 1.379 . S
C98 C99 1.390 . S
C98 H118 0.949 . S
C99 C98 1.390 . S
C99 C100 1.357 1_554 S
C100 C96 1.370 . S
C100 C99 1.357 1_556 S
C100 H119 0.950 . S
Zn101 N95 2.020 . S
Zn101 O104 2.025 1_554 S
Zn101 O109 2.024 . S
Zn101 O111 2.039 . S
Zn101 O113 2.034 1_554 S
O102 C86 1.251 . S
O102 Zn93 2.039 1_556 S
C103 O108 1.246 . S
C103 O109 1.249 . S
O104 C86 1.254 . S
O104 Zn101 2.025 1_556 S
H105 C97 0.952 . S
H106 C88 0.952 . S
H107 C96 0.948 . S
O108 Zn93 2.034 . S
O108 C103 1.246 . S
O109 Zn101 2.024 . S
O109 C103 1.249 . S
H110 C92 0.948 . S
O111 Zn101 2.039 . S
O111 C115 1.251 . S
O112 Zn93 2.025 . S
O112 C115 1.254 . S
O113 C94 1.246 . S
O113 Zn101 2.034 1_556 S
O114 Zn93 2.024 1_556 S
O114 C94 1.249 . S
C115 O111 1.251 . S
C115 O112 1.254 . S
H116 C89 0.949 . S
H117 C91 0.950 . S
H118 C98 0.949 . S
H119 C100 0.950 . S
C120 C121 1.386 . S
C120 C122 1.383 . S
C120 H136 0.951 . S
C121 C120 1.386 . S
C121 C125 1.383 . S
C122 C120 1.383 . S
C122 C123 1.402 . S
C122 H137 0.951 . S
C123 C122 1.402 . S
C123 C124 1.375 . S
C123 C126 1.481 . S
C124 C123 1.375 . S
C124 C125 1.367 . S
C124 H138 0.951 . S
C125 C121 1.383 . S
C125 C124 1.367 . S
C125 H139 0.950 . S
C126 C123 1.481 . S
C126 C127 1.297 . S
C126 H140 0.950 . S
C127 C126 1.297 . S
C127 C128 1.479 . S
C127 H141 0.950 . S
C128 C127 1.479 . S
C128 C129 1.375 . S
C128 C134 1.404 . S
C129 C128 1.375 . S
C129 C130 1.369 . S
C129 H142 0.950 . S
C130 C129 1.369 . S
C130 C131 1.392 . S
C130 H143 0.951 . S
C131 C130 1.392 . S
C131 C133 1.384 . S
H132 C134 0.949 . S
C133 C131 1.384 . S
C133 C134 1.385 . S
C133 H135 0.950 . S
C134 C128 1.404 . S
C134 H132 0.949 . S
C134 C133 1.385 . S
H135 C133 0.950 . S
H136 C120 0.951 . S
H137 C122 0.951 . S
H138 C124 0.951 . S
H139 C125 0.950 . S
H140 C126 0.950 . S
H141 C127 0.950 . S
H142 C129 0.950 . S
H143 C130 0.951 . S
C144 C145 1.386 1_556 S
C144 C146 1.383 . S
C144 H160 0.951 . S
C145 C144 1.386 1_554 S
C145 C149 1.383 . S
C146 C144 1.383 . S
C146 C147 1.402 1_556 S
C146 H161 0.951 . S
C147 C146 1.402 1_554 S
C147 C148 1.375 . S
C147 C150 1.481 . S
C148 C147 1.375 . S
C148 C149 1.367 . S
C148 H162 0.951 . S
C149 C145 1.383 . S
C149 C148 1.367 . S
C149 H163 0.950 . S
C150 C147 1.481 . S
C150 C151 1.297 1_554 S
C150 H164 0.950 . S
C151 C150 1.297 1_556 S
C151 C152 1.478 1_556 S
C151 H165 0.950 . S
C152 C151 1.478 1_554 S
C152 C153 1.368 1_554 S
C152 C158 1.412 . S
C153 C152 1.368 1_556 S
C153 C154 1.369 . S
C153 H166 0.950 . S
C154 C153 1.369 . S
C154 C155 1.392 1_556 S
C154 H167 0.951 . S
C155 C154 1.392 1_554 S
C155 C157 1.384 . S
H156 C158 0.949 . S
C157 C155 1.384 . S
C157 C158 1.385 . S
C157 H159 0.950 . S
C158 C152 1.412 . S
C158 H156 0.949 . S
C158 C157 1.385 . S
H159 C157 0.950 . S
H160 C144 0.951 . S
H161 C146 0.951 . S
H162 C148 0.951 . S
H163 C149 0.950 . S
H164 C150 0.950 . S
H165 C151 0.950 . S
H166 C153 0.950 . S
H167 C154 0.951 . S
C168 C169 1.386 . S
C168 C170 1.383 . S
C168 H184 0.951 . S
C169 C168 1.386 . S
C169 C173 1.383 . S
C170 C168 1.383 . S
C170 C171 1.402 . S
C170 H185 0.951 . S
C171 C170 1.402 . S
C171 C172 1.375 . S
C171 C174 1.481 . S
C172 C171 1.375 . S
C172 C173 1.367 . S
C172 H186 0.951 . S
C173 C169 1.383 . S
C173 C172 1.367 . S
C173 H187 0.950 . S
C174 C171 1.481 . S
C174 C175 1.297 . S
C174 H188 0.950 . S
C175 C174 1.297 . S
C175 C176 1.479 . S
C175 H189 0.950 . S
C176 C175 1.479 . S
C176 C177 1.375 . S
C176 C182 1.404 . S
C177 C176 1.375 . S
C177 C178 1.369 . S
C177 H190 0.950 . S
C178 C177 1.369 . S
C178 C179 1.392 . S
C178 H191 0.951 . S
C179 C178 1.392 . S
C179 C181 1.384 . S
H180 C182 0.949 . S
C181 C179 1.384 . S
C181 C182 1.385 . S
C181 H183 0.950 . S
C182 C176 1.404 . S
C182 H180 0.949 . S
C182 C181 1.385 . S
H183 C181 0.950 . S
H184 C168 0.951 . S
H185 C170 0.951 . S
H186 C172 0.951 . S
H187 C173 0.950 . S
H188 C174 0.950 . S
H189 C175 0.950 . S
H190 C177 0.950 . S
H191 C178 0.951 . S
C192 C193 1.386 1_556 S
C192 C194 1.383 . S
C192 H208 0.951 . S
C193 C192 1.386 1_554 S
C193 C197 1.383 . S
C194 C192 1.383 . S
C194 C195 1.402 1_556 S
C194 H209 0.951 . S
C195 C194 1.402 1_554 S
C195 C196 1.375 . S
C195 C198 1.481 . S
C196 C195 1.375 . S
C196 C197 1.367 . S
C196 H210 0.951 . S
C197 C193 1.383 . S
C197 C196 1.367 . S
C197 H211 0.950 . S
C198 C195 1.481 . S
C198 C199 1.297 1_554 S
C198 H212 0.950 . S
C199 C198 1.297 1_556 S
C199 C200 1.479 . S
C199 H213 0.950 . S
C200 C199 1.479 . S
C200 C201 1.375 . S
C200 C206 1.404 1_556 S
C201 C200 1.375 . S
C201 C202 1.369 . S
C201 H214 0.950 . S
C202 C201 1.369 . S
C202 C203 1.392 1_556 S
C202 H215 0.951 . S
C203 C202 1.392 1_554 S
C203 C205 1.384 . S
H204 C206 0.949 . S
C205 C203 1.384 . S
C205 C206 1.385 . S
C205 H207 0.950 . S
C206 C200 1.404 1_554 S
C206 H204 0.949 . S
C206 C205 1.385 . S
H207 C205 0.950 . S
H208 C192 0.951 . S
H209 C194 0.951 . S
H210 C196 0.951 . S
H211 C197 0.950 . S
H212 C198 0.950 . S
H213 C199 0.950 . S
H214 C201 0.950 . S
H215 C202 0.951 . S
C216 C217 1.386 . S
C216 C218 1.383 . S
C216 H232 0.951 . S
C217 C216 1.386 . S
C217 C221 1.383 . S
C218 C216 1.383 . S
C218 C219 1.402 . S
C218 H233 0.951 . S
C219 C218 1.402 . S
C219 C220 1.375 . S
C219 C222 1.481 . S
C220 C219 1.375 . S
C220 C221 1.367 . S
C220 H234 0.951 . S
C221 C217 1.383 . S
C221 C220 1.367 . S
C221 H235 0.950 . S
C222 C219 1.481 . S
C222 C223 1.297 . S
C222 H236 0.950 . S
C223 C222 1.297 . S
C223 C224 1.479 . S
C223 H237 0.950 . S
C224 C223 1.479 . S
C224 C225 1.375 . S
C224 C230 1.404 . S
C225 C224 1.375 . S
C225 C226 1.369 . S
C225 H238 0.950 . S
C226 C225 1.369 . S
C226 C227 1.392 . S
C226 H239 0.951 . S
C227 C226 1.392 . S
C227 C229 1.384 . S
H228 C230 0.949 . S
C229 C227 1.384 . S
C229 C230 1.385 . S
C229 H231 0.950 . S
C230 C224 1.404 . S
C230 H228 0.949 . S
C230 C229 1.385 . S
H231 C229 0.950 . S
H232 C216 0.951 . S
H233 C218 0.951 . S
H234 C220 0.951 . S
H235 C221 0.950 . S
H236 C222 0.950 . S
H237 C223 0.950 . S
H238 C225 0.950 . S
H239 C226 0.951 . S
C240 C241 1.386 . S
C240 C242 1.383 . S
C240 H256 0.951 . S
C241 C240 1.386 . S
C241 C245 1.383 . S
C242 C240 1.383 . S
C242 C243 1.402 . S
C242 H257 0.951 . S
C243 C242 1.402 . S
C243 C244 1.375 . S
C243 C246 1.481 . S
C244 C243 1.375 . S
C244 C245 1.367 . S
C244 H258 0.951 . S
C245 C241 1.383 . S
C245 C244 1.367 . S
C245 H259 0.950 . S
C246 C243 1.481 . S
C246 C247 1.297 . S
C246 H260 0.950 . S
C247 C246 1.297 . S
C247 C248 1.479 . S
C247 H261 0.950 . S
C248 C247 1.479 . S
C248 C249 1.375 . S
C248 C254 1.404 . S
C249 C248 1.375 . S
C249 C250 1.369 . S
C249 H262 0.950 . S
C250 C249 1.369 . S
C250 C251 1.392 . S
C250 H263 0.951 . S
C251 C250 1.392 . S
C251 C253 1.384 . S
H252 C254 0.949 . S
C253 C251 1.384 . S
C253 C254 1.385 . S
C253 H255 0.950 . S
C254 C248 1.404 . S
C254 H252 0.949 . S
C254 C253 1.385 . S
H255 C253 0.950 . S
H256 C240 0.951 . S
H257 C242 0.951 . S
H258 C244 0.951 . S
H259 C245 0.950 . S
H260 C246 0.950 . S
H261 C247 0.950 . S
H262 C249 0.950 . S
H263 C250 0.951 . S
C264 C265 1.386 . S
C264 C266 1.383 . S
C264 H280 0.951 . S
C265 C264 1.386 . S
C265 C269 1.383 . S
C266 C264 1.383 . S
C266 C267 1.402 . S
C266 H281 0.951 . S
C267 C266 1.402 . S
C267 C268 1.375 . S
C267 C270 1.481 . S
C268 C267 1.375 . S
C268 C269 1.367 . S
C268 H282 0.951 . S
C269 C265 1.383 . S
C269 C268 1.367 . S
C269 H283 0.950 . S
C270 C267 1.481 . S
C270 C271 1.297 . S
C270 H284 0.950 . S
C271 C270 1.297 . S
C271 C272 1.479 . S
C271 H285 0.950 . S
C272 C271 1.479 . S
C272 C273 1.375 . S
C272 C278 1.404 . S
C273 C272 1.375 . S
C273 C274 1.369 . S
C273 H286 0.950 . S
C274 C273 1.369 . S
C274 C275 1.392 . S
C274 H287 0.951 . S
C275 C274 1.392 . S
C275 C277 1.384 . S
H276 C278 0.949 . S
C277 C275 1.384 . S
C277 C278 1.385 . S
C277 H279 0.950 . S
C278 C272 1.404 . S
C278 H276 0.949 . S
C278 C277 1.385 . S
H279 C277 0.950 . S
H280 C264 0.951 . S
H281 C266 0.951 . S
H282 C268 0.951 . S
H283 C269 0.950 . S
H284 C270 0.950 . S
H285 C271 0.950 . S
H286 C273 0.950 . S
H287 C274 0.951 . S
C288 C289 1.386 . S
C288 C290 1.383 . S
C288 H304 0.951 . S
C289 C288 1.386 . S
C289 C293 1.383 . S
C290 C288 1.383 . S
C290 C291 1.402 . S
C290 H305 0.951 . S
C291 C290 1.402 . S
C291 C292 1.375 . S
C291 C294 1.481 . S
C292 C291 1.375 . S
C292 C293 1.367 . S
C292 H306 0.951 . S
C293 C289 1.383 . S
C293 C292 1.367 . S
C293 H307 0.950 . S
C294 C291 1.481 . S
C294 C295 1.297 . S
C294 H308 0.950 . S
C295 C294 1.297 . S
C295 C296 1.479 . S
C295 H309 0.950 . S
C296 C295 1.479 . S
C296 C297 1.375 . S
C296 C302 1.404 . S
C297 C296 1.375 . S
C297 C298 1.369 . S
C297 H310 0.950 . S
C298 C297 1.369 . S
C298 C299 1.392 . S
C298 H311 0.951 . S
C299 C298 1.392 . S
C299 C301 1.384 . S
H300 C302 0.949 . S
C301 C299 1.384 . S
C301 C302 1.385 . S
C301 H303 0.950 . S
C302 C296 1.404 . S
C302 H300 0.949 . S
C302 C301 1.385 . S
H303 C301 0.950 . S
H304 C288 0.951 . S
H305 C290 0.951 . S
H306 C292 0.951 . S
H307 C293 0.950 . S
H308 C294 0.950 . S
H309 C295 0.950 . S
H310 C297 0.950 . S
H311 C298 0.951 . S
C312 C313 1.386 . S
C312 C314 1.383 . S
C312 H328 0.951 . S
C313 C312 1.386 . S
C313 C317 1.383 . S
C314 C312 1.383 . S
C314 C315 1.402 . S
C314 H329 0.951 . S
C315 C314 1.402 . S
C315 C316 1.375 . S
C315 C318 1.481 . S
C316 C315 1.375 . S
C316 C317 1.367 . S
C316 H330 0.951 . S
C317 C313 1.383 . S
C317 C316 1.367 . S
C317 H331 0.950 . S
C318 C315 1.481 . S
C318 C319 1.297 . S
C318 H332 0.950 . S
C319 C318 1.297 . S
C319 C320 1.479 . S
C319 H333 0.950 . S
C320 C319 1.479 . S
C320 C321 1.375 . S
C320 C326 1.404 . S
C321 C320 1.375 . S
C321 C322 1.369 . S
C321 H334 0.950 . S
C322 C321 1.369 . S
C322 C323 1.392 . S
C322 H335 0.951 . S
C323 C322 1.392 . S
C323 C325 1.384 . S
H324 C326 0.949 . S
C325 C323 1.384 . S
C325 C326 1.385 . S
C325 H327 0.950 . S
C326 C320 1.404 . S
C326 H324 0.949 . S
C326 C325 1.385 . S
H327 C325 0.950 . S
H328 C312 0.951 . S
H329 C314 0.951 . S
H330 C316 0.951 . S
H331 C317 0.950 . S
H332 C318 0.950 . S
H333 C319 0.950 . S
H334 C321 0.950 . S
H335 C322 0.951 . S
C336 C337 1.386 . S
C336 C338 1.383 . S
C336 H352 0.951 . S
C337 C336 1.386 . S
C337 C341 1.383 . S
C338 C336 1.383 . S
C338 C339 1.402 . S
C338 H353 0.951 . S
C339 C338 1.402 . S
C339 C340 1.375 . S
C339 C342 1.481 . S
C340 C339 1.375 . S
C340 C341 1.367 . S
C340 H354 0.951 . S
C341 C337 1.383 . S
C341 C340 1.367 . S
C341 H355 0.950 . S
C342 C339 1.481 . S
C342 C343 1.297 . S
C342 H356 0.950 . S
C343 C342 1.297 . S
C343 C344 1.479 . S
C343 H357 0.950 . S
C344 C343 1.479 . S
C344 C345 1.375 . S
C344 C350 1.404 . S
C345 C344 1.375 . S
C345 C346 1.369 . S
C345 H358 0.950 . S
C346 C345 1.369 . S
C346 C347 1.392 . S
C346 H359 0.951 . S
C347 C346 1.392 . S
C347 C349 1.384 . S
H348 C350 0.949 . S
C349 C347 1.384 . S
C349 C350 1.385 . S
C349 H351 0.950 . S
C350 C344 1.404 . S
C350 H348 0.949 . S
C350 C349 1.385 . S
H351 C349 0.950 . S
H352 C336 0.951 . S
H353 C338 0.951 . S
H354 C340 0.951 . S
H355 C341 0.950 . S
H356 C342 0.950 . S
H357 C343 0.950 . S
H358 C345 0.950 . S
H359 C346 0.951 . S
C360 C361 1.386 . S
C360 C362 1.383 . S
C360 H376 0.951 . S
C361 C360 1.386 . S
C361 C365 1.383 . S
C362 C360 1.383 . S
C362 C363 1.402 . S
C362 H377 0.951 . S
C363 C362 1.402 . S
C363 C364 1.375 . S
C363 C366 1.481 . S
C364 C363 1.375 . S
C364 C365 1.367 . S
C364 H378 0.951 . S
C365 C361 1.383 . S
C365 C364 1.367 . S
C365 H379 0.950 . S
C366 C363 1.481 . S
C366 C367 1.297 . S
C366 H380 0.950 . S
C367 C366 1.297 . S
C367 C368 1.479 . S
C367 H381 0.950 . S
C368 C367 1.479 . S
C368 C369 1.375 . S
C368 C374 1.404 . S
C369 C368 1.375 . S
C369 C370 1.369 . S
C369 H382 0.950 . S
C370 C369 1.369 . S
C370 C371 1.392 . S
C370 H383 0.951 . S
C371 C370 1.392 . S
C371 C373 1.384 . S
H372 C374 0.949 . S
C373 C371 1.384 . S
C373 C374 1.385 . S
C373 H375 0.950 . S
C374 C368 1.404 . S
C374 H372 0.949 . S
C374 C373 1.385 . S
H375 C373 0.950 . S
H376 C360 0.951 . S
H377 C362 0.951 . S
H378 C364 0.951 . S
H379 C365 0.950 . S
H380 C366 0.950 . S
H381 C367 0.950 . S
H382 C369 0.950 . S
H383 C370 0.951 . S
C384 C385 1.386 . S
C384 C386 1.383 . S
C384 H400 0.951 . S
C385 C384 1.386 . S
C385 C389 1.383 . S
C386 C384 1.383 . S
C386 C387 1.402 . S
C386 H401 0.951 . S
C387 C386 1.402 . S
C387 C388 1.375 . S
C387 C390 1.481 . S
C388 C387 1.375 . S
C388 C389 1.367 . S
C388 H402 0.951 . S
C389 C385 1.383 . S
C389 C388 1.367 . S
C389 H403 0.950 . S
C390 C387 1.481 . S
C390 C391 1.297 . S
C390 H404 0.950 . S
C391 C390 1.297 . S
C391 C392 1.479 . S
C391 H405 0.950 . S
C392 C391 1.479 . S
C392 C393 1.375 . S
C392 C398 1.404 . S
C393 C392 1.375 . S
C393 C394 1.369 . S
C393 H406 0.950 . S
C394 C393 1.369 . S
C394 C395 1.392 . S
C394 H407 0.951 . S
C395 C394 1.392 . S
C395 C397 1.384 . S
H396 C398 0.949 . S
C397 C395 1.384 . S
C397 C398 1.385 . S
C397 H399 0.950 . S
C398 C392 1.404 . S
C398 H396 0.949 . S
C398 C397 1.385 . S
H399 C397 0.950 . S
H400 C384 0.951 . S
H401 C386 0.951 . S
H402 C388 0.951 . S
H403 C389 0.950 . S
H404 C390 0.950 . S
H405 C391 0.950 . S
H406 C393 0.950 . S
H407 C394 0.951 . S
C131 C56 1.493 . S
C121 C43 1.422 . S
C145 C4 1.468 . S
C155 C99 1.497 . S
C169 C17 1.459 . S
C179 C65 1.499 . S
C193 C30 1.478 1_554 S
C203 C90 1.503 . S
C227 C52 1.502 . S
C217 C9 1.469 . S
C251 C94 1.506 . S
C241 C21 1.497 . S
C265 C34 1.511 . S
C275 C60 1.492 . S
C289 C48 1.480 . S
C299 C86 1.501 . S
C323 C115 1.502 . S
C313 C22 1.496 . S
C347 C81 1.497 . S
C337 C35 1.505 . S
C371 C103 1.509 . S
C361 C47 1.505 . S
C385 C8 1.504 . S
C395 C69 1.508 . S
