# Generated by pormake.
# Topology ctn, (3,4)-cn, num edge types: 1
# Building blocks:
#     Node 0, Type 0, BuildingBlock: KAKCAD_clean_linker_0, # of connection points: 3
#     Node 1, Type 0, BuildingBlock: KAKCAD_clean_linker_0, # of connection points: 3
#     Node 2, Type 0, BuildingBlock: KAKCAD_clean_linker_0, # of connection points: 3
#     Node 3, Type 0, BuildingBlock: KAKCAD_clean_linker_0, # of connection points: 3
#     Node 4, Type 0, BuildingBlock: KAKCAD_clean_linker_0, # of connection points: 3
#     Node 5, Type 0, BuildingBlock: KAKCAD_clean_linker_0, # of connection points: 3
#     Node 6, Type 0, BuildingBlock: KAKCAD_clean_linker_0, # of connection points: 3
#     Node 7, Type 0, BuildingBlock: KAKCAD_clean_linker_0, # of connection points: 3
#     Node 8, Type 0, BuildingBlock: KAKCAD_clean_linker_0, # of connection points: 3
#     Node 9, Type 0, BuildingBlock: KAKCAD_clean_linker_0, # of connection points: 3
#     Node 10, Type 0, BuildingBlock: KAKCAD_clean_linker_0, # of connection points: 3
#     Node 11, Type 0, BuildingBlock: KAKCAD_clean_linker_0, # of connection points: 3
#     Node 12, Type 0, BuildingBlock: KAKCAD_clean_linker_0, # of connection points: 3
#     Node 13, Type 0, BuildingBlock: KAKCAD_clean_linker_0, # of connection points: 3
#     Node 14, Type 0, BuildingBlock: KAKCAD_clean_linker_0, # of connection points: 3
#     Node 15, Type 0, BuildingBlock: KAKCAD_clean_linker_0, # of connection points: 3
#     Node 16, Type 1, BuildingBlock: KUFVIS_clean_sbu_0, # of connection points: 4
#     Node 17, Type 1, BuildingBlock: KUFVIS_clean_sbu_0, # of connection points: 4
#     Node 18, Type 1, BuildingBlock: KUFVIS_clean_sbu_0, # of connection points: 4
#     Node 19, Type 1, BuildingBlock: KUFVIS_clean_sbu_0, # of connection points: 4
#     Node 20, Type 1, BuildingBlock: KUFVIS_clean_sbu_0, # of connection points: 4
#     Node 21, Type 1, BuildingBlock: KUFVIS_clean_sbu_0, # of connection points: 4
#     Node 22, Type 1, BuildingBlock: KUFVIS_clean_sbu_0, # of connection points: 4
#     Node 23, Type 1, BuildingBlock: KUFVIS_clean_sbu_0, # of connection points: 4
#     Node 24, Type 1, BuildingBlock: KUFVIS_clean_sbu_0, # of connection points: 4
#     Node 25, Type 1, BuildingBlock: KUFVIS_clean_sbu_0, # of connection points: 4
#     Node 26, Type 1, BuildingBlock: KUFVIS_clean_sbu_0, # of connection points: 4
#     Node 27, Type 1, BuildingBlock: KUFVIS_clean_sbu_0, # of connection points: 4
#     Edge 28, Type (0, 1), BuildingBlock: UVAHIK_clean_linker_0, # of connection points: 2
#     Edge 29, Type (0, 1), BuildingBlock: UVAHIK_clean_linker_0, # of connection points: 2
#     Edge 30, Type (0, 1), BuildingBlock: UVAHIK_clean_linker_0, # of connection points: 2
#     Edge 31, Type (0, 1), BuildingBlock: UVAHIK_clean_linker_0, # of connection points: 2
#     Edge 32, Type (0, 1), BuildingBlock: UVAHIK_clean_linker_0, # of connection points: 2
#     Edge 33, Type (0, 1), BuildingBlock: UVAHIK_clean_linker_0, # of connection points: 2
#     Edge 34, Type (0, 1), BuildingBlock: UVAHIK_clean_linker_0, # of connection points: 2
#     Edge 35, Type (0, 1), BuildingBlock: UVAHIK_clean_linker_0, # of connection points: 2
#     Edge 36, Type (0, 1), BuildingBlock: UVAHIK_clean_linker_0, # of connection points: 2
#     Edge 37, Type (0, 1), BuildingBlock: UVAHIK_clean_linker_0, # of connection points: 2
#     Edge 38, Type (0, 1), BuildingBlock: UVAHIK_clean_linker_0, # of connection points: 2
#     Edge 39, Type (0, 1), BuildingBlock: UVAHIK_clean_linker_0, # of connection points: 2
#     Edge 40, Type (0, 1), BuildingBlock: UVAHIK_clean_linker_0, # of connection points: 2
#     Edge 41, Type (0, 1), BuildingBlock: UVAHIK_clean_linker_0, # of connection points: 2
#     Edge 42, Type (0, 1), BuildingBlock: UVAHIK_clean_linker_0, # of connection points: 2
#     Edge 43, Type (0, 1), BuildingBlock: UVAHIK_clean_linker_0, # of connection points: 2
#     Edge 44, Type (0, 1), BuildingBlock: UVAHIK_clean_linker_0, # of connection points: 2
#     Edge 45, Type (0, 1), BuildingBlock: UVAHIK_clean_linker_0, # of connection points: 2
#     Edge 46, Type (0, 1), BuildingBlock: UVAHIK_clean_linker_0, # of connection points: 2
#     Edge 47, Type (0, 1), BuildingBlock: UVAHIK_clean_linker_0, # of connection points: 2
#     Edge 48, Type (0, 1), BuildingBlock: UVAHIK_clean_linker_0, # of connection points: 2
#     Edge 49, Type (0, 1), BuildingBlock: UVAHIK_clean_linker_0, # of connection points: 2
#     Edge 50, Type (0, 1), BuildingBlock: UVAHIK_clean_linker_0, # of connection points: 2
#     Edge 51, Type (0, 1), BuildingBlock: UVAHIK_clean_linker_0, # of connection points: 2
#     Edge 52, Type (0, 1), BuildingBlock: UVAHIK_clean_linker_0, # of connection points: 2
#     Edge 53, Type (0, 1), BuildingBlock: UVAHIK_clean_linker_0, # of connection points: 2
#     Edge 54, Type (0, 1), BuildingBlock: UVAHIK_clean_linker_0, # of connection points: 2
#     Edge 55, Type (0, 1), BuildingBlock: UVAHIK_clean_linker_0, # of connection points: 2
#     Edge 56, Type (0, 1), BuildingBlock: UVAHIK_clean_linker_0, # of connection points: 2
#     Edge 57, Type (0, 1), BuildingBlock: UVAHIK_clean_linker_0, # of connection points: 2
#     Edge 58, Type (0, 1), BuildingBlock: UVAHIK_clean_linker_0, # of connection points: 2
#     Edge 59, Type (0, 1), BuildingBlock: UVAHIK_clean_linker_0, # of connection points: 2
#     Edge 60, Type (0, 1), BuildingBlock: UVAHIK_clean_linker_0, # of connection points: 2
#     Edge 61, Type (0, 1), BuildingBlock: UVAHIK_clean_linker_0, # of connection points: 2
#     Edge 62, Type (0, 1), BuildingBlock: UVAHIK_clean_linker_0, # of connection points: 2
#     Edge 63, Type (0, 1), BuildingBlock: UVAHIK_clean_linker_0, # of connection points: 2
#     Edge 64, Type (0, 1), BuildingBlock: UVAHIK_clean_linker_0, # of connection points: 2
#     Edge 65, Type (0, 1), BuildingBlock: UVAHIK_clean_linker_0, # of connection points: 2
#     Edge 66, Type (0, 1), BuildingBlock: UVAHIK_clean_linker_0, # of connection points: 2
#     Edge 67, Type (0, 1), BuildingBlock: UVAHIK_clean_linker_0, # of connection points: 2
#     Edge 68, Type (0, 1), BuildingBlock: UVAHIK_clean_linker_0, # of connection points: 2
#     Edge 69, Type (0, 1), BuildingBlock: UVAHIK_clean_linker_0, # of connection points: 2
#     Edge 70, Type (0, 1), BuildingBlock: UVAHIK_clean_linker_0, # of connection points: 2
#     Edge 71, Type (0, 1), BuildingBlock: UVAHIK_clean_linker_0, # of connection points: 2
#     Edge 72, Type (0, 1), BuildingBlock: UVAHIK_clean_linker_0, # of connection points: 2
#     Edge 73, Type (0, 1), BuildingBlock: UVAHIK_clean_linker_0, # of connection points: 2
#     Edge 74, Type (0, 1), BuildingBlock: UVAHIK_clean_linker_0, # of connection points: 2
#     Edge 75, Type (0, 1), BuildingBlock: UVAHIK_clean_linker_0, # of connection points: 2
# Relax obj value: 0.012
# Max RMSD: 0.061
# Mean RMSD: 0.028
data_MOF--net-ctn--node1-KUFVIS_clean_sbu_0--node2-KAKCAD_clean_linker_0--edge1-UVAHIK_clean_linker_0
_symmetry_space_group_name_H-M    P1
_symmetry_Int_Tables_number       1
_symmetry_cell_setting            triclinic
loop_
_symmetry_equiv_pos_as_xyz
'x, y, z'
_cell_length_a     83.262847
_cell_length_b     83.030348
_cell_length_c     83.302592
_cell_angle_alpha  90.995742
_cell_angle_beta   90.5302
_cell_angle_gamma 91.587243
loop_
_atom_site_label
_atom_site_type_symbol
_atom_site_fract_x
_atom_site_fract_y
_atom_site_fract_z
_atom_type_partial_charge
C0 C 0.03464 0.08289 0.9967 0.0
C1 C 0.02962 0.09773 0.003 0.0
C2 C 0.03726 0.06992 0.00678 0.0
C3 C 0.03503 0.07146 0.02345 0.0
C4 C 0.03004 0.0863 0.02976 0.0
C5 C 0.02732 0.09925 0.01967 0.0
C6 C 0.03796 0.05766 0.03419 0.0
C7 C 0.05088 0.04745 0.03135 0.0
C8 C 0.05373 0.03437 0.04136 0.0
C9 C 0.04352 0.03154 0.05439 0.0
C10 C 0.03057 0.04159 0.05747 0.0
C11 C 0.02788 0.05461 0.04732 0.0
C12 C 0.01984 0.03842 0.07127 0.0
C13 C 0.01421 0.02268 0.07436 0.0
C14 C 0.01533 0.05106 0.08156 0.0
C15 C 0.00558 0.04798 0.09481 0.0
C16 C 1.00002 0.03221 0.09799 0.0
C17 C 0.06739 0.02367 0.03821 0.0
C18 C 0.07046 0.0181 0.02254 0.0
C19 C 0.07744 0.01894 0.05082 0.0
C20 C 0.09032 0.00891 0.04782 0.0
C21 C 0.09341 0.0033 0.03215 0.0
C22 C 0.08327 0.008 0.01955 0.0
C23 C 0.00438 0.01962 0.08752 0.0
H24 H 0.03673 0.08131 0.98397 0.0
H25 H 0.0409 0.05862 0.00145 0.0
H26 H 0.02838 0.088 0.04255 0.0
H27 H 0.02325 0.11041 0.02494 0.0
H28 H 0.059 0.0499 0.02155 0.0
H29 H 0.01765 0.06213 0.04944 0.0
H30 H 0.04566 0.02147 0.06216 0.0
H31 H 0.01728 0.01273 0.06649 0.0
H32 H 0.01963 0.06329 0.07957 0.0
H33 H 0.00267 0.05794 0.10272 0.0
H34 H 0.06278 0.02137 0.01261 0.0
H35 H 0.07549 0.02321 0.06299 0.0
H36 H 1.00007 0.00738 0.0894 0.0
H37 H 0.0851 0.00368 0.00738 0.0
H38 H 0.09802 0.00576 0.05777 0.0
C39 C 0.3575 0.7142 0.23043 0.0
C40 C 0.36815 0.70161 0.23299 0.0
C41 C 0.34498 0.71244 0.21924 0.0
C42 C 0.34264 0.69796 0.21048 0.0
C43 C 0.35308 0.68526 0.21311 0.0
C44 C 0.36577 0.68709 0.22418 0.0
C45 C 0.32913 0.69615 0.19884 0.0
C46 C 0.32625 0.70833 0.18776 0.0
C47 C 0.3129 0.70725 0.17732 0.0
C48 C 0.30224 0.69388 0.17824 0.0
C49 C 0.30502 0.6816 0.18922 0.0
C50 C 0.31861 0.68267 0.1993 0.0
C51 C 0.29312 0.66823 0.19102 0.0
C52 C 0.27707 0.6716 0.19446 0.0
C53 C 0.29781 0.65212 0.1901 0.0
C54 C 0.28662 0.63957 0.19269 0.0
C55 C 0.2707 0.64301 0.1966 0.0
C56 C 0.31002 0.72016 0.1656 0.0
C57 C 0.31207 0.73648 0.17016 0.0
C58 C 0.30534 0.71626 0.14972 0.0
C59 C 0.3029 0.7284 0.13861 0.0
C60 C 0.30501 0.74471 0.14315 0.0
C61 C 0.30956 0.74862 0.15907 0.0
C62 C 0.26599 0.6591 0.19739 0.0
H63 H 0.35867 0.72541 0.23724 0.0
H64 H 0.33692 0.72232 0.21764 0.0
H65 H 0.35157 0.674 0.20644 0.0
H66 H 0.37384 0.67721 0.22566 0.0
H67 H 0.33457 0.71857 0.18715 0.0
H68 H 0.32053 0.67341 0.20808 0.0
H69 H 0.29164 0.69311 0.17058 0.0
H70 H 0.27323 0.68395 0.19536 0.0
H71 H 0.31014 0.64928 0.18747 0.0
H72 H 0.29048 0.62722 0.1921 0.0
H73 H 0.31551 0.73988 0.18235 0.0
H74 H 0.30379 0.7038 0.14581 0.0
H75 H 0.25375 0.66198 0.20039 0.0
H76 H 0.3114 0.76107 0.16291 0.0
H77 H 0.29922 0.725 0.12649 0.0
C78 C 0.98809 0.48555 0.09297 0.0
C79 C 0.00461 0.4825 0.0927 0.0
C80 C 0.9786 0.48322 0.07915 0.0
C81 C 0.98542 0.47784 0.0647 0.0
C82 C 0.00196 0.47481 0.06444 0.0
C83 C 0.01143 0.47707 0.07828 0.0
C84 C 0.97533 0.47533 0.04997 0.0
C85 C 0.96329 0.48621 0.04612 0.0
C86 C 0.95361 0.48385 0.03231 0.0
C87 C 0.95625 0.47048 0.02217 0.0
C88 C 0.96825 0.45947 0.02577 0.0
C89 C 0.97766 0.46199 0.03973 0.0
C90 C 0.97079 0.44514 0.01518 0.0
C91 C 0.95763 0.43637 0.00845 0.0
C92 C 0.98639 0.43996 0.01195 0.0
C93 C 0.98877 0.42623 0.0024 0.0
C94 C 0.9756 0.41736 0.9958 0.0
C95 C 0.94065 0.49526 0.02859 0.0
C96 C 0.93089 0.50126 0.04088 0.0
C97 C 0.93785 0.50015 0.01275 0.0
C98 C 0.92557 0.51076 0.0093 0.0
C99 C 0.91582 0.51676 0.0216 0.0
C100 C 0.91864 0.51188 0.03744 0.0
C101 C 0.96 0.42268 0.99886 0.0
H102 H 0.98244 0.48954 0.10395 0.0
H103 H 0.96586 0.48541 0.07985 0.0
H104 H 0.00766 0.4709 0.05346 0.0
H105 H 0.02416 0.47485 0.07761 0.0
H106 H 0.96165 0.49673 0.05374 0.0
H107 H 0.98654 0.45326 0.0429 0.0
H108 H 0.94888 0.46859 0.01148 0.0
H109 H 0.94544 0.4399 0.01081 0.0
H110 H 0.99681 0.44654 0.01677 0.0
H111 H 1.00094 0.42242 1.00042 0.0
H112 H 0.93254 0.49753 0.05317 0.0
H113 H 0.94529 0.49595 0.00303 0.0
H114 H 0.94958 0.41629 0.99379 0.0
H115 H 0.91119 0.51606 0.04716 0.0
H116 H 0.92386 0.51445 0.99701 0.0
C117 C 0.68538 0.77579 0.14695 0.0
C118 C 0.70039 0.76835 0.14666 0.0
C119 C 0.68215 0.78765 0.15853 0.0
C120 C 0.69394 0.79253 0.16986 0.0
C121 C 0.70886 0.78508 0.16972 0.0
C122 C 0.712 0.77302 0.15836 0.0
C123 C 0.69091 0.80569 0.18155 0.0
C124 C 0.67749 0.80491 0.19164 0.0
C125 C 0.67492 0.81717 0.20315 0.0
C126 C 0.68559 0.83061 0.20389 0.0
C127 C 0.69907 0.83144 0.19395 0.0
C128 C 0.70175 0.81889 0.18292 0.0
C129 C 0.71089 0.84496 0.19582 0.0
C130 C 0.70607 0.861 0.1948 0.0
C131 C 0.72703 0.84184 0.19927 0.0
C132 C 0.73808 0.85454 0.2021 0.0
C133 C 0.73325 0.87056 0.20119 0.0
C134 C 0.66186 0.81544 0.21514 0.0
C135 C 0.64666 0.80889 0.21073 0.0
C136 C 0.66478 0.81981 0.23132 0.0
C137 C 0.65287 0.81759 0.24282 0.0
C138 C 0.63775 0.81088 0.23847 0.0
C139 C 0.63474 0.80662 0.22228 0.0
C140 C 0.71723 0.87373 0.19728 0.0
H141 H 0.67621 0.77276 0.13802 0.0
H142 H 0.67059 0.79333 0.15835 0.0
H143 H 0.71808 0.78853 0.17848 0.0
H144 H 0.72353 0.76735 0.15883 0.0
H145 H 0.66951 0.79437 0.19101 0.0
H146 H 0.7122 0.81949 0.17526 0.0
H147 H 0.6837 0.84024 0.21256 0.0
H148 H 0.69367 0.86365 0.19212 0.0
H149 H 0.73098 0.82956 0.20023 0.0
H150 H 0.75041 0.85187 0.2051 0.0
H151 H 0.64396 0.80556 0.19835 0.0
H152 H 0.67644 0.82454 0.23523 0.0
H153 H 0.71329 0.88602 0.1966 0.0
H154 H 0.62314 0.80158 0.21853 0.0
H155 H 0.65568 0.82073 0.25522 0.0
C156 C 0.99021 0.97587 0.43421 0.0
C157 C 0.997 0.98159 0.41997 0.0
C158 C 0.99994 0.9728 0.44753 0.0
C159 C 0.01674 0.97512 0.44682 0.0
C160 C 0.02347 0.98079 0.43245 0.0
C161 C 0.01371 0.98412 0.41925 0.0
C162 C 0.02719 0.97166 0.46095 0.0
C163 C 0.02341 0.95875 0.47117 0.0
C164 C 0.03333 0.95539 0.4844 0.0
C165 C 0.04711 0.96515 0.48745 0.0
C166 C 0.05114 0.97785 0.4773 0.0
C167 C 0.04118 0.98112 0.46418 0.0
C168 C 0.06615 0.98739 0.48004 0.0
C169 C 0.068 0.99755 0.49357 0.0
C170 C 0.07873 0.98625 0.46908 0.0
C171 C 0.09303 0.99516 0.47159 0.0
C172 C 0.09491 0.00572 0.48495 0.0
C173 C 0.02964 0.94139 0.49477 0.0
C174 C 0.01389 0.93813 0.49997 0.0
C175 C 0.04194 0.93121 0.49958 0.0
C176 C 0.03859 0.91809 0.50939 0.0
C177 C 0.02287 0.91486 0.51469 0.0
C178 C 0.01055 0.92504 0.50988 0.0
C179 C 0.08218 0.00677 0.49592 0.0
H180 H 0.97733 0.97392 0.4351 0.0
H181 H 0.99424 0.96875 0.45843 0.0
H182 H 0.03635 0.9824 0.43125 0.0
H183 H 0.01926 0.9883 0.40832 0.0
H184 H 0.01306 0.95094 0.46853 0.0
H185 H 0.04431 0.99122 0.45664 0.0
H186 H 0.05486 0.96276 0.49762 0.0
H187 H 0.05836 0.99859 0.50214 0.0
H188 H 0.07755 0.9783 0.45865 0.0
H189 H 0.10263 0.99364 0.46307 0.0
H190 H 0.00418 0.94582 0.49654 0.0
H191 H 0.05417 0.93329 0.49563 0.0
H192 H 0.08298 0.01493 0.50619 0.0
H193 H 0.99829 0.92278 0.51365 0.0
H194 H 0.04838 0.91059 0.513 0.0
C195 C 0.14922 0.68446 0.77251 0.0
C196 C 0.14545 0.70013 0.76784 0.0
C197 C 0.16121 0.68203 0.78403 0.0
C198 C 0.16968 0.69522 0.79117 0.0
C199 C 0.16607 0.71086 0.78632 0.0
C200 C 0.15409 0.71328 0.77484 0.0
C201 C 0.18205 0.69277 0.80384 0.0
C202 C 0.19312 0.68033 0.80239 0.0
C203 C 0.20513 0.67838 0.81415 0.0
C204 C 0.20569 0.68879 0.82765 0.0
C205 C 0.19485 0.70131 0.82917 0.0
C206 C 0.18308 0.70322 0.81728 0.0
C207 C 0.19651 0.71309 0.84263 0.0
C208 C 0.19646 0.70799 0.85862 0.0
C209 C 0.19868 0.72954 0.83943 0.0
C210 C 0.20117 0.74069 0.85199 0.0
C211 C 0.20118 0.73561 0.86797 0.0
C212 C 0.21766 0.66613 0.81193 0.0
C213 C 0.21365 0.65052 0.80613 0.0
C214 C 0.23386 0.67014 0.81536 0.0
C215 C 0.24578 0.65886 0.81298 0.0
C216 C 0.24181 0.64328 0.8071 0.0
C217 C 0.22559 0.6392 0.80378 0.0
C218 C 0.1986 0.71922 0.87123 0.0
H219 H 0.14293 0.67405 0.76722 0.0
H220 H 0.16363 0.66984 0.78756 0.0
H221 H 0.17252 0.72128 0.79138 0.0
H222 H 0.15141 0.72552 0.77168 0.0
H223 H 0.19283 0.67262 0.79175 0.0
H224 H 0.17462 0.71284 0.81863 0.0
H225 H 0.21486 0.68743 0.83682 0.0
H226 H 0.19479 0.69534 0.86132 0.0
H227 H 0.19886 0.73371 0.82718 0.0
H228 H 0.20313 0.7533 0.84925 0.0
H229 H 0.20126 0.64704 0.80346 0.0
H230 H 0.23741 0.68212 0.81965 0.0
H231 H 0.19864 0.71509 0.8835 0.0
H232 H 0.22215 0.62734 0.79909 0.0
H233 H 0.25812 0.66234 0.81583 0.0
C234 C 0.9832 0.5923 0.49268 0.0
C235 C 0.98616 0.59117 0.50924 0.0
C236 C 0.98014 0.57841 0.48331 0.0
C237 C 0.97969 0.56317 0.49038 0.0
C238 C 0.98248 0.56204 0.50697 0.0
C239 C 0.98585 0.57592 0.5163 0.0
C240 C 0.97635 0.5485 0.48042 0.0
C241 C 0.98515 0.54575 0.46639 0.0
C242 C 0.982 0.53197 0.45675 0.0
C243 C 0.96966 0.52108 0.46106 0.0
C244 C 0.96049 0.52384 0.47488 0.0
C245 C 0.96413 0.53743 0.48468 0.0
C246 C 0.94658 0.51302 0.47857 0.0
C247 C 0.93554 0.5084 0.46639 0.0
C248 C 0.94401 0.50752 0.49422 0.0
C249 C 0.93075 0.49744 0.49756 0.0
C250 C 0.91969 0.49278 0.48535 0.0
C251 C 0.99148 0.52911 0.44205 0.0
C252 C 0.99377 0.54145 0.43094 0.0
C253 C 0.9984 0.51413 0.4391 0.0
C254 C 0.00772 0.51163 0.42543 0.0
C255 C 0.01014 0.52402 0.4143 0.0
C256 C 0.00287 0.5389 0.41718 0.0
C257 C 0.92223 0.49849 0.46974 0.0
H258 H 0.98344 0.60392 0.48696 0.0
H259 H 0.97793 0.57959 0.47055 0.0
H260 H 0.98225 0.55041 0.51267 0.0
H261 H 0.988 0.57476 0.52907 0.0
H262 H 0.99469 0.55421 0.46315 0.0
H263 H 0.95701 0.53978 0.49525 0.0
H264 H 0.96701 0.51056 0.4535 0.0
H265 H 0.93703 0.51272 0.45428 0.0
H266 H 0.95239 0.51083 0.50382 0.0
H267 H 0.9293 0.49313 0.50967 0.0
H268 H 0.98836 0.55304 0.43282 0.0
H269 H 0.9969 0.50445 0.44757 0.0
H270 H 0.9138 0.4955 0.46011 0.0
H271 H 0.00408 0.54861 0.40873 0.0
H272 H 0.01328 0.50009 0.42378 0.0
C273 C 0.82351 0.78405 0.86315 0.0
C274 C 0.80809 0.77766 0.86647 0.0
C275 C 0.82577 0.79485 0.85057 0.0
C276 C 0.81266 0.79946 0.84109 0.0
C277 C 0.79735 0.7928 0.84424 0.0
C278 C 0.7951 0.78205 0.85675 0.0
C279 C 0.81475 0.81113 0.82788 0.0
C280 C 0.82754 0.8099 0.81709 0.0
C281 C 0.82869 0.8201 0.80381 0.0
C282 C 0.81704 0.83181 0.80157 0.0
C283 C 0.80425 0.83332 0.81234 0.0
C284 C 0.80332 0.82302 0.82551 0.0
C285 C 0.79148 0.84514 0.80951 0.0
C286 C 0.79535 0.86088 0.80461 0.0
C287 C 0.77523 0.84067 0.8116 0.0
C288 C 0.76314 0.85165 0.80887 0.0
C289 C 0.76699 0.86739 0.80397 0.0
C290 C 0.84141 0.81774 0.79169 0.0
C291 C 0.85745 0.81557 0.79643 0.0
C292 C 0.83743 0.817 0.77526 0.0
C293 C 0.84914 0.81375 0.76384 0.0
C294 C 0.86511 0.8113 0.76857 0.0
C295 C 0.86921 0.81248 0.78497 0.0
C296 C 0.78324 0.8719 0.80191 0.0
H297 H 0.83375 0.78096 0.87047 0.0
H298 H 0.83771 0.79983 0.84846 0.0
H299 H 0.78707 0.79577 0.83692 0.0
H300 H 0.78314 0.77704 0.85869 0.0
H301 H 0.83615 0.80046 0.81855 0.0
H302 H 0.79362 0.82427 0.83399 0.0
H303 H 0.81774 0.83953 0.79123 0.0
H304 H 0.80776 0.86473 0.803 0.0
H305 H 0.77182 0.82858 0.81517 0.0
H306 H 0.75077 0.84783 0.81073 0.0
H307 H 0.86086 0.81616 0.80901 0.0
H308 H 0.82515 0.81847 0.77125 0.0
H309 H 0.7866 0.88389 0.79799 0.0
H310 H 0.88141 0.81053 0.78896 0.0
H311 H 0.84566 0.81301 0.75127 0.0
C312 C 0.32237 0.2815 0.36055 0.0
C313 C 0.30673 0.27615 0.36443 0.0
C314 C 0.32485 0.293 0.34865 0.0
C315 C 0.31175 0.29934 0.34028 0.0
C316 C 0.29614 0.29402 0.34426 0.0
C317 C 0.29366 0.28271 0.35624 0.0
C318 C 0.31426 0.31122 0.32727 0.0
C319 C 0.3271 0.30977 0.31656 0.0
C320 C 0.3292 0.32055 0.30384 0.0
C321 C 0.31805 0.3328 0.30178 0.0
C322 C 0.30498 0.3343 0.31221 0.0
C323 C 0.30339 0.32367 0.32507 0.0
C324 C 0.29255 0.34649 0.30939 0.0
C325 C 0.29686 0.36234 0.30515 0.0
C326 C 0.27617 0.34224 0.31083 0.0
C327 C 0.26437 0.35354 0.30815 0.0
C328 C 0.26864 0.3694 0.30395 0.0
C329 C 0.34266 0.31847 0.29239 0.0
C330 C 0.35783 0.31382 0.29793 0.0
C331 C 0.34033 0.3205 0.2758 0.0
C332 C 0.35274 0.31759 0.26501 0.0
C333 C 0.36771 0.31244 0.27056 0.0
C334 C 0.37017 0.31077 0.28714 0.0
C335 C 0.28503 0.37369 0.30251 0.0
H336 H 0.33274 0.27665 0.36651 0.0
H337 H 0.33704 0.29694 0.34605 0.0
H338 H 0.28575 0.29841 0.33796 0.0
H339 H 0.28142 0.27916 0.35909 0.0
H340 H 0.33515 0.29983 0.31775 0.0
H341 H 0.29363 0.32515 0.33343 0.0
H342 H 0.31938 0.34102 0.29189 0.0
H343 H 0.30937 0.36601 0.30403 0.0
H344 H 0.27243 0.33008 0.31388 0.0
H345 H 0.25188 0.34988 0.30953 0.0
H346 H 0.36017 0.31246 0.31064 0.0
H347 H 0.32876 0.32384 0.27107 0.0
H348 H 0.28871 0.38577 0.29915 0.0
H349 H 0.38166 0.30705 0.29178 0.0
H350 H 0.35045 0.31882 0.25228 0.0
C351 C 0.4875 0.98578 0.59255 0.0
C352 C 0.50404 0.98284 0.59225 0.0
C353 C 0.47802 0.9835 0.57872 0.0
C354 C 0.48487 0.9783 0.56422 0.0
C355 C 0.50142 0.97534 0.56393 0.0
C356 C 0.51088 0.97755 0.57779 0.0
C357 C 0.47478 0.97593 0.54947 0.0
C358 C 0.46268 0.98679 0.5458 0.0
C359 C 0.45291 0.98452 0.53204 0.0
C360 C 0.45556 0.97129 0.52173 0.0
C361 C 0.46764 0.96029 0.52514 0.0
C362 C 0.47712 0.9627 0.53907 0.0
C363 C 0.47017 0.94607 0.5144 0.0
C364 C 0.45701 0.93733 0.50763 0.0
C365 C 0.48577 0.94093 0.51108 0.0
C366 C 0.48814 0.92726 0.50144 0.0
C367 C 0.47496 0.91841 0.49482 0.0
C368 C 0.43981 0.99588 0.52861 0.0
C369 C 0.43026 0.00176 0.54113 0.0
C370 C 0.43671 0.0009 0.51287 0.0
C371 C 0.42437 0.01157 0.50975 0.0
C372 C 0.4149 0.0175 0.5223 0.0
C373 C 0.41798 0.01245 0.53802 0.0
C374 C 0.45937 0.92371 0.49793 0.0
H375 H 0.48183 0.98964 0.60356 0.0
H376 H 0.46527 0.98562 0.57945 0.0
H377 H 0.50714 0.97156 0.55292 0.0
H378 H 0.52363 0.9754 0.57711 0.0
H379 H 0.46105 0.99723 0.55353 0.0
H380 H 0.48605 0.95398 0.5421 0.0
H381 H 0.44811 0.96947 0.51108 0.0
H382 H 0.44482 0.94083 0.51005 0.0
H383 H 0.4962 0.94748 0.51593 0.0
H384 H 0.50031 0.92346 0.49942 0.0
H385 H 0.4321 0.99792 0.55336 0.0
H386 H 0.44396 0.99679 0.50297 0.0
H387 H 0.44894 0.91735 0.49285 0.0
H388 H 0.41072 0.01656 0.54792 0.0
H389 H 0.42243 0.01537 0.49753 0.0
C390 C 0.184 0.27677 0.6453 0.0
C391 C 0.19877 0.2689 0.64455 0.0
C392 C 0.18125 0.28835 0.65729 0.0
C393 C 0.19331 0.29254 0.66859 0.0
C394 C 0.20797 0.28465 0.66801 0.0
C395 C 0.21062 0.27286 0.65625 0.0
C396 C 0.19086 0.30549 0.68067 0.0
C397 C 0.17776 0.30472 0.69117 0.0
C398 C 0.17588 0.31671 0.70312 0.0
C399 C 0.18686 0.3299 0.70388 0.0
C400 C 0.19999 0.33073 0.69349 0.0
C401 C 0.20202 0.31842 0.68203 0.0
C402 C 0.21215 0.34395 0.69531 0.0
C403 C 0.20766 0.36012 0.69475 0.0
C404 C 0.2283 0.34039 0.69818 0.0
C405 C 0.23971 0.3528 0.70086 0.0
C406 C 0.23523 0.36895 0.70038 0.0
C407 C 0.16331 0.31486 0.71558 0.0
C408 C 0.14772 0.30907 0.7116 0.0
C409 C 0.16709 0.31837 0.73178 0.0
C410 C 0.15566 0.31598 0.74372 0.0
C411 C 0.14015 0.30997 0.7398 0.0
C412 C 0.13625 0.30669 0.72357 0.0
C413 C 0.21918 0.37255 0.69708 0.0
H414 H 0.17465 0.27429 0.63641 0.0
H415 H 0.16988 0.29439 0.65745 0.0
H416 H 0.21738 0.28757 0.67674 0.0
H417 H 0.22198 0.26683 0.65639 0.0
H418 H 0.16954 0.29437 0.69052 0.0
H419 H 0.21223 0.319 0.67405 0.0
H420 H 0.18549 0.33931 0.71291 0.0
H421 H 0.19526 0.3631 0.69253 0.0
H422 H 0.23199 0.328 0.69876 0.0
H423 H 0.25206 0.34979 0.70338 0.0
H424 H 0.14441 0.30635 0.69922 0.0
H425 H 0.17903 0.32263 0.73533 0.0
H426 H 0.2155 0.38496 0.69674 0.0
H427 H 0.12444 0.30193 0.72017 0.0
H428 H 0.159 0.31882 0.75606 0.0
C429 C 0.86048 0.21277 0.72816 0.0
C430 C 0.86773 0.19927 0.7348 0.0
C431 C 0.84825 0.21091 0.71669 0.0
C432 C 0.84311 0.19549 0.71117 0.0
C433 C 0.85062 0.18197 0.71748 0.0
C434 C 0.8627 0.18383 0.72923 0.0
C435 C 0.82958 0.19366 0.69935 0.0
C436 C 0.82733 0.20531 0.68753 0.0
C437 C 0.81369 0.2047 0.67745 0.0
C438 C 0.80243 0.19191 0.6789 0.0
C439 C 0.80474 0.17991 0.69027 0.0
C440 C 0.81827 0.18083 0.70044 0.0
C441 C 0.79249 0.1669 0.69228 0.0
C442 C 0.7766 0.17071 0.6959 0.0
C443 C 0.79674 0.15067 0.69119 0.0
C444 C 0.78523 0.13841 0.69374 0.0
C445 C 0.76945 0.14225 0.69779 0.0
C446 C 0.81089 0.21783 0.66595 0.0
C447 C 0.8137 0.23401 0.67068 0.0
C448 C 0.80519 0.21436 0.6503 0.0
C449 C 0.80237 0.22681 0.63962 0.0
C450 C 0.80512 0.243 0.6444 0.0
C451 C 0.81085 0.24644 0.66004 0.0
C452 C 0.7652 0.15847 0.69881 0.0
H453 H 0.86423 0.22488 0.73182 0.0
H454 H 0.84263 0.22164 0.7124 0.0
H455 H 0.84717 0.1699 0.7134 0.0
H456 H 0.86786 0.17312 0.73411 0.0
H457 H 0.8362 0.21496 0.68614 0.0
H458 H 0.81949 0.17193 0.7097 0.0
H459 H 0.79171 0.19142 0.67141 0.0
H460 H 0.77311 0.18316 0.69689 0.0
H461 H 0.80895 0.14751 0.68841 0.0
H462 H 0.78875 0.12595 0.69298 0.0
H463 H 0.81791 0.23709 0.68272 0.0
H464 H 0.803 0.20202 0.64627 0.0
H465 H 0.75307 0.16166 0.70191 0.0
H466 H 0.81323 0.25876 0.66403 0.0
H467 H 0.79782 0.22378 0.6277 0.0
C468 C 0.53399 0.58286 0.49566 0.0
C469 C 0.52925 0.59772 0.50214 0.0
C470 C 0.53719 0.56997 0.50568 0.0
C471 C 0.53576 0.57163 0.52243 0.0
C472 C 0.53104 0.5865 0.52891 0.0
C473 C 0.5278 0.59937 0.51889 0.0
C474 C 0.53924 0.55792 0.5331 0.0
C475 C 0.55225 0.54795 0.52993 0.0
C476 C 0.55566 0.53501 0.53994 0.0
C477 C 0.54586 0.53205 0.55326 0.0
C478 C 0.53279 0.54186 0.55664 0.0
C479 C 0.52958 0.55477 0.54652 0.0
C480 C 0.52244 0.53858 0.57073 0.0
C481 C 0.51724 0.52276 0.5741 0.0
C482 C 0.51774 0.55122 0.58092 0.0
C483 C 0.50815 0.54811 0.59426 0.0
C484 C 0.50294 0.53228 0.59768 0.0
C485 C 0.56956 0.52467 0.53652 0.0
C486 C 0.57247 0.51913 0.5208 0.0
C487 C 0.58005 0.52034 0.54894 0.0
C488 C 0.59322 0.51076 0.54569 0.0
C489 C 0.59612 0.5052 0.52997 0.0
C490 C 0.58557 0.50945 0.51758 0.0
C491 C 0.50757 0.51966 0.58738 0.0
H492 H 0.5354 0.5812 0.48283 0.0
H493 H 0.54063 0.55864 0.50026 0.0
H494 H 0.52999 0.58826 0.54177 0.0
H495 H 0.524 0.61058 0.52429 0.0
H496 H 0.56004 0.55052 0.51988 0.0
H497 H 0.51928 0.56212 0.54886 0.0
H498 H 0.54843 0.52209 0.56103 0.0
H499 H 0.52047 0.51279 0.56633 0.0
H500 H 0.52172 0.56352 0.57873 0.0
H501 H 0.50504 0.5581 0.60205 0.0
H502 H 0.56452 0.52217 0.51101 0.0
H503 H 0.57819 0.52453 0.56115 0.0
H504 H 0.50355 0.50736 0.58945 0.0
H505 H 0.58755 0.50546 0.50532 0.0
H506 H 0.60105 0.50757 0.55552 0.0
C507 C 0.49068 0.47739 0.93377 0.0
C508 C 0.49719 0.48262 0.9192 0.0
C509 C 0.5007 0.47414 0.94681 0.0
C510 C 0.51751 0.47585 0.94553 0.0
C511 C 0.52398 0.48103 0.93087 0.0
C512 C 0.51393 0.48449 0.91791 0.0
C513 C 0.52822 0.47234 0.95943 0.0
C514 C 0.52442 0.45963 0.96986 0.0
C515 C 0.53443 0.45634 0.98303 0.0
C516 C 0.54835 0.46597 0.98579 0.0
C517 C 0.55244 0.4785 0.97541 0.0
C518 C 0.54236 0.48165 0.96232 0.0
C519 C 0.56742 0.48818 0.97807 0.0
C520 C 0.57023 0.49655 0.99264 0.0
C521 C 0.579 0.48908 0.96599 0.0
C522 C 0.59319 0.49818 0.96842 0.0
C523 C 0.59598 0.50693 0.98288 0.0
C524 C 0.53058 0.44261 0.99369 0.0
C525 C 0.51481 0.4397 0.99901 0.0
C526 C 0.54272 0.43228 0.99861 0.0
C527 C 0.53917 0.41934 0.00859 0.0
C528 C 0.52342 0.41644 0.01396 0.0
C529 C 0.51127 0.42679 0.00909 0.0
C530 C 0.58428 0.50596 0.99497 0.0
H531 H 0.47779 0.476 0.93514 0.0
H532 H 0.49523 0.47049 0.95796 0.0
H533 H 0.53685 0.48219 0.92928 0.0
H534 H 0.51928 0.48829 0.90674 0.0
H535 H 0.5139 0.45195 0.96746 0.0
H536 H 0.54544 0.49163 0.95462 0.0
H537 H 0.55614 0.46364 0.99594 0.0
H538 H 0.56138 0.49608 0.00209 0.0
H539 H 0.57714 0.48254 0.95472 0.0
H540 H 0.60202 0.49824 0.95896 0.0
H541 H 0.50522 0.44751 0.99552 0.0
H542 H 0.55496 0.4341 0.99458 0.0
H543 H 0.58576 0.51271 0.00614 0.0
H544 H 0.49899 0.4248 0.01291 0.0
H545 H 0.54883 0.41169 0.01225 0.0
C546 C 0.64936 0.18946 0.27314 0.0
C547 C 0.64806 0.2044 0.26549 0.0
C548 C 0.66155 0.18707 0.28446 0.0
C549 C 0.67248 0.19964 0.2886 0.0
C550 C 0.67134 0.21448 0.28095 0.0
C551 C 0.65939 0.21679 0.26941 0.0
C552 C 0.68484 0.19757 0.3012 0.0
C553 C 0.69608 0.18535 0.29984 0.0
C554 C 0.70843 0.18409 0.31134 0.0
C555 C 0.70916 0.19503 0.32444 0.0
C556 C 0.6978 0.20717 0.32613 0.0
C557 C 0.68568 0.2083 0.31438 0.0
C558 C 0.6987 0.2188 0.33999 0.0
C559 C 0.70361 0.21385 0.35529 0.0
C560 C 0.69468 0.235 0.33801 0.0
C561 C 0.69548 0.24591 0.35096 0.0
C562 C 0.70061 0.24102 0.36622 0.0
C563 C 0.7209 0.17171 0.30945 0.0
C564 C 0.71669 0.15587 0.30447 0.0
C565 C 0.73717 0.17572 0.31254 0.0
C566 C 0.74894 0.16419 0.31069 0.0
C567 C 0.74476 0.14835 0.30568 0.0
C568 C 0.72848 0.14432 0.30263 0.0
C569 C 0.70467 0.22483 0.36819 0.0
H570 H 0.64076 0.1797 0.27068 0.0
H571 H 0.66217 0.17555 0.29031 0.0
H572 H 0.67978 0.22429 0.28384 0.0
H573 H 0.65913 0.2283 0.26354 0.0
H574 H 0.69556 0.17727 0.28948 0.0
H575 H 0.67667 0.21741 0.31553 0.0
H576 H 0.71871 0.19416 0.33327 0.0
H577 H 0.70658 0.20144 0.35738 0.0
H578 H 0.69108 0.23937 0.32639 0.0
H579 H 0.692 0.25818 0.34897 0.0
H580 H 0.70425 0.15237 0.30212 0.0
H581 H 0.74086 0.18785 0.31619 0.0
H582 H 0.7089 0.22062 0.37966 0.0
H583 H 0.72487 0.13228 0.2986 0.0
H584 H 0.76134 0.16767 0.3133 0.0
C585 C 0.4904 0.09142 0.99398 0.0
C586 C 0.48619 0.09198 0.01023 0.0
C587 C 0.48766 0.07734 0.98481 0.0
C588 C 0.48095 0.06338 0.99179 0.0
C589 C 0.47696 0.06399 0.00818 0.0
C590 C 0.47939 0.07819 0.01725 0.0
C591 C 0.478 0.04834 0.98198 0.0
C592 C 0.48837 0.04423 0.96942 0.0
C593 C 0.48537 0.03042 0.95979 0.0
C594 C 0.47208 0.02029 0.96308 0.0
C595 C 0.46149 0.02415 0.97555 0.0
C596 C 0.46452 0.03822 0.98485 0.0
C597 C 0.44684 0.01397 0.97838 0.0
C598 C 0.4376 0.00775 0.96537 0.0
C599 C 0.44168 0.01082 0.99408 0.0
C600 C 0.42749 0.00187 0.99669 0.0
C601 C 0.41813 0.99587 0.98367 0.0
C602 C 0.49561 0.02714 0.9457 0.0
C603 C 0.499 0.03946 0.93482 0.0
C604 C 0.50178 0.01179 0.94283 0.0
C605 C 0.51137 0.0089 0.9294 0.0
C606 C 0.5148 0.02126 0.91848 0.0
C607 C 0.50836 0.03654 0.92133 0.0
C608 C 0.42346 0.99879 0.96798 0.0
H609 H 0.49551 0.10199 0.98829 0.0
H610 H 0.49057 0.07754 0.97218 0.0
H611 H 0.47208 0.05346 0.0141 0.0
H612 H 0.47618 0.07833 0.02982 0.0
H613 H 0.49893 0.05172 0.96711 0.0
H614 H 0.45599 0.0416 0.99397 0.0
H615 H 0.46979 0.00959 0.95568 0.0
H616 H 0.44111 0.01009 0.95312 0.0
H617 H 0.4486 0.0153 0.00436 0.0
H618 H 0.4237 0.99994 0.00893 0.0
H619 H 0.49414 0.05133 0.93659 0.0
H620 H 0.49938 0.0021 0.95109 0.0
H621 H 0.41667 0.99414 0.95767 0.0
H622 H 0.51032 0.04625 0.91301 0.0
H623 H 0.51624 0.99705 0.92773 0.0
Mn624 Mn 0.24981 0.87538 0.00624 0.0
Mn625 Mn 0.24642 0.88905 0.96846 0.0
C626 C 0.23698 0.85963 0.98656 0.0
C627 C 0.26363 0.86176 0.02606 0.0
C628 C 0.22589 0.90067 0.99596 0.0
O629 O 0.26674 0.89359 0.0058 0.0
O630 O 0.26424 0.90089 0.97995 0.0
C631 C 0.27728 0.87807 0.95541 0.0
N632 N 0.26094 0.87821 0.95464 0.0
C633 C 0.26043 0.86198 0.93042 0.0
C634 C 0.27727 0.86172 0.9309 0.0
C635 C 0.28572 0.86975 0.94348 0.0
C636 C 0.25269 0.87044 0.94264 0.0
H637 H 0.28382 0.88427 0.96503 0.0
C638 C 0.27096 0.90212 0.99385 0.0
O639 O 0.25306 0.87241 0.02968 0.0
O640 O 0.26654 0.85943 0.01093 0.0
N641 N 0.22973 0.87845 0.95598 0.0
C642 C 0.21351 0.87892 0.9579 0.0
C643 C 0.2033 0.87092 0.94668 0.0
C644 C 0.20985 0.86268 0.93351 0.0
C645 C 0.22657 0.86248 0.93173 0.0
C646 C 0.23615 0.87062 0.94332 0.0
H647 H 0.20842 0.8853 0.96796 0.0
O648 O 0.234 0.85726 0.00161 0.0
O649 O 0.2473 0.87117 0.98349 0.0
O650 O 0.23172 0.89161 0.00661 0.0
O651 O 0.23074 0.9008 0.98147 0.0
C652 C 0.23411 0.85434 0.91902 0.0
C653 C 0.25103 0.854 0.91841 0.0
H654 H 0.28382 0.85531 0.92174 0.0
H655 H 0.2987 0.86956 0.94397 0.0
H656 H 0.19041 0.87111 0.94816 0.0
H657 H 0.20193 0.85648 0.92491 0.0
H658 H 0.22701 0.84807 0.90979 0.0
H659 H 0.25668 0.84742 0.90875 0.0
Mn660 Mn 0.1351 0.50472 0.25251 0.0
Mn661 Mn 0.12225 0.54279 0.25004 0.0
C662 C 0.15045 0.52407 0.23945 0.0
C663 C 0.14924 0.48502 0.26585 0.0
C664 C 0.10849 0.51493 0.22967 0.0
O665 O 0.11781 0.50563 0.26975 0.0
O666 O 0.11184 0.53191 0.2684 0.0
C667 C 0.13628 0.55655 0.28023 0.0
N668 N 0.13463 0.55692 0.26396 0.0
C669 C 0.15108 0.58114 0.26264 0.0
C670 C 0.15286 0.58109 0.2794 0.0
C671 C 0.14549 0.5687 0.28822 0.0
C672 C 0.14179 0.5687 0.25535 0.0
H673 H 0.13061 0.54706 0.28704 0.0
C674 C 0.1104 0.51801 0.27477 0.0
O675 O 0.13792 0.4812 0.25554 0.0
O676 O 0.15188 0.50025 0.26887 0.0
N677 N 0.13159 0.55473 0.23287 0.0
C678 C 0.12964 0.55237 0.21673 0.0
C679 C 0.13685 0.56332 0.20615 0.0
C680 C 0.1458 0.57668 0.21227 0.0
C681 C 0.14752 0.57892 0.22892 0.0
C682 C 0.14013 0.56757 0.23888 0.0
H683 H 0.12269 0.54218 0.21196 0.0
O684 O 0.15236 0.50887 0.23637 0.0
O685 O 0.13968 0.52745 0.25007 0.0
O686 O 0.11789 0.50424 0.23477 0.0
O687 O 0.10887 0.52946 0.23497 0.0
C688 C 0.15645 0.59186 0.23603 0.0
C689 C 0.15831 0.59292 0.25288 0.0
H690 H 0.15996 0.59043 0.2856 0.0
H691 H 0.14687 0.56853 0.30114 0.0
H692 H 0.13548 0.56149 0.19331 0.0
H693 H 0.15138 0.58508 0.20407 0.0
H694 H 0.16218 0.60091 0.22864 0.0
H695 H 0.16549 0.60275 0.25818 0.0
Mn696 Mn 0.75615 0.63189 0.00175 0.0
Mn697 Mn 0.72178 0.64514 0.98532 0.0
C698 C 0.73301 0.61578 0.0018 0.0
C699 C 0.78064 0.61893 1.00047 0.0
C700 C 0.73353 0.65567 0.01825 0.0
O701 O 0.7644 0.65031 0.98797 0.0
O702 O 0.74059 0.6587 0.97887 0.0
C703 C 0.72951 0.63719 0.95152 0.0
N704 N 0.71938 0.63599 0.96421 0.0
C705 C 0.69968 0.62109 0.94821 0.0
C706 C 0.70987 0.62224 0.93495 0.0
C707 C 0.72489 0.63025 0.93664 0.0
C708 C 0.70501 0.62811 0.96278 0.0
H709 H 0.74101 0.64345 0.95273 0.0
C710 C 0.75592 0.65994 0.97996 0.0
O711 O 0.77777 0.62953 0.01163 0.0
O712 O 0.76942 0.61614 0.98977 0.0
N713 N 0.70236 0.63342 0.99014 0.0
C714 C 0.69427 0.63278 0.00426 0.0
C715 C 0.67918 0.62483 0.00473 0.0
C716 C 0.67241 0.61795 0.99061 0.0
C717 C 0.68085 0.61899 0.97616 0.0
C718 C 0.6959 0.62693 0.97646 0.0
H719 H 0.69935 0.63821 0.0151 0.0
O720 O 0.74442 0.61368 0.0122 0.0
O721 O 0.73541 0.62722 0.99152 0.0
O722 O 0.74666 0.64812 0.01771 0.0
O723 O 0.72299 0.65497 0.00702 0.0
C724 C 0.67499 0.61234 0.96149 0.0
C725 C 0.68447 0.61325 0.94757 0.0
H726 H 0.7063 0.61697 0.92342 0.0
H727 H 0.73284 0.63115 0.92647 0.0
H728 H 0.67274 0.62408 0.01593 0.0
H729 H 0.66076 0.61184 0.99102 0.0
H730 H 0.66328 0.60635 0.96081 0.0
H731 H 0.67994 0.60784 0.93643 0.0
Mn732 Mn 0.87332 0.00721 0.25687 0.0
Mn733 Mn 0.88472 0.96871 0.25251 0.0
C734 C 0.85694 0.98849 0.24315 0.0
C735 C 0.86037 0.0276 0.27084 0.0
C736 C 0.89893 0.9963 0.23334 0.0
O737 O 0.8909 0.00545 0.27404 0.0
O738 O 0.89595 0.97898 0.2713 0.0
C739 C 0.87097 0.95505 0.28214 0.0
N740 N 0.8722 0.95483 0.26585 0.0
C741 C 0.85494 0.93117 0.26351 0.0
C742 C 0.8536 0.93105 0.28028 0.0
C743 C 0.86159 0.94309 0.28962 0.0
C744 C 0.86442 0.94341 0.25673 0.0
H745 H 0.8771 0.96428 0.28936 0.0
C746 C 0.89796 0.99272 0.27841 0.0
O747 O 0.8717 0.03081 0.2607 0.0
O748 O 0.85704 0.0125 0.2734 0.0
N749 N 0.87448 0.95736 0.23485 0.0
C750 C 0.87605 0.9599 0.21882 0.0
C751 C 0.86817 0.94935 0.20778 0.0
C752 C 0.85895 0.93621 0.21333 0.0
C753 C 0.85762 0.93377 0.22988 0.0
C754 C 0.86567 0.94473 0.24031 0.0
H755 H 0.88321 0.96992 0.21448 0.0
O756 O 0.85555 0.00377 0.24064 0.0
O757 O 0.86785 0.98467 0.25352 0.0
O758 O 0.89006 0.00719 0.2391 0.0
O759 O 0.89823 0.9817 0.23791 0.0
C760 C 0.84848 0.92102 0.23644 0.0
C761 C 0.84708 0.91975 0.25325 0.0
H762 H 0.84637 0.92185 0.28609 0.0
H763 H 0.86053 0.94314 0.30256 0.0
H764 H 0.86924 0.95133 0.19502 0.0
H765 H 0.85287 0.92811 0.20478 0.0
H766 H 0.84222 0.91228 0.22867 0.0
H767 H 0.83974 0.91008 0.25814 0.0
Mn768 Mn 0.25449 0.13177 0.50117 0.0
Mn769 Mn 0.21992 0.1431 0.48353 0.0
C770 C 0.23167 0.11511 0.50188 0.0
C771 C 0.27929 0.11933 0.50058 0.0
C772 C 0.23161 0.15629 0.51578 0.0
O773 O 0.2623 0.14976 0.48653 0.0
O774 O 0.23855 0.15579 0.47536 0.0
C775 C 0.22688 0.13182 0.45046 0.0
N776 N 0.21705 0.13192 0.46344 0.0
C777 C 0.19681 0.11595 0.44923 0.0
C778 C 0.20666 0.11577 0.43567 0.0
C779 C 0.22181 0.12365 0.43633 0.0
C780 C 0.20259 0.12413 0.46303 0.0
H781 H 0.23848 0.13798 0.45088 0.0
C782 C 0.25379 0.15778 0.47685 0.0
O783 O 0.27615 0.13037 0.51122 0.0
O784 O 0.26816 0.11582 0.48996 0.0
N785 N 0.20073 0.13186 0.48992 0.0
C786 C 0.1931 0.13241 0.50431 0.0
C787 C 0.17802 0.12461 0.50586 0.0
C788 C 0.17079 0.11667 0.49252 0.0
C789 C 0.17877 0.11646 0.47777 0.0
C790 C 0.19387 0.12424 0.47702 0.0
H791 H 0.19853 0.13867 0.51454 0.0
O792 O 0.2431 0.11375 0.51242 0.0
O793 O 0.23391 0.12607 0.4911 0.0
O794 O 0.24454 0.14842 0.51625 0.0
O795 O 0.22149 0.1551 0.50419 0.0
C796 C 0.1724 0.10878 0.46381 0.0
C797 C 0.18149 0.10834 0.44961 0.0
H798 H 0.20274 0.10956 0.42472 0.0
H799 H 0.22951 0.12351 0.42594 0.0
H800 H 0.17194 0.12483 0.51728 0.0
H801 H 0.15914 0.1107 0.49375 0.0
H802 H 0.1606 0.10295 0.46394 0.0
H803 H 0.17659 0.1021 0.43906 0.0
Mn804 Mn 0.37448 0.50657 0.75513 0.0
Mn805 Mn 0.38729 0.46848 0.75172 0.0
C806 C 0.35901 0.48714 0.74134 0.0
C807 C 0.36055 0.52653 0.76871 0.0
C808 C 0.40105 0.49627 0.73246 0.0
O809 O 0.39178 0.50565 0.77265 0.0
O810 O 0.39761 0.4793 0.77076 0.0
C811 C 0.37304 0.45469 0.78106 0.0
N812 N 0.37481 0.45433 0.76483 0.0
C813 C 0.35826 0.4302 0.76223 0.0
C814 C 0.3564 0.4302 0.77894 0.0
C815 C 0.36376 0.44256 0.78839 0.0
C816 C 0.36765 0.44261 0.75561 0.0
H817 H 0.37863 0.46419 0.78836 0.0
C818 C 0.39904 0.49325 0.77756 0.0
O819 O 0.3719 0.5301 0.7587 0.0
O820 O 0.35773 0.51135 0.77131 0.0
N821 N 0.37793 0.45666 0.73389 0.0
C822 C 0.37981 0.45916 0.71788 0.0
C823 C 0.3725 0.44833 0.70673 0.0
C824 C 0.36349 0.43498 0.71214 0.0
C825 C 0.36181 0.43261 0.72867 0.0
C826 C 0.36932 0.44382 0.73922 0.0
H827 H 0.38678 0.46936 0.71365 0.0
O828 O 0.35714 0.50232 0.73861 0.0
O829 O 0.36986 0.48384 0.752 0.0
O830 O 0.39157 0.5069 0.73769 0.0
O831 O 0.4008 0.48179 0.73738 0.0
C832 C 0.35279 0.41969 0.73509 0.0
C833 C 0.35096 0.41852 0.75185 0.0
H834 H 0.34922 0.42089 0.78463 0.0
H835 H 0.36227 0.44272 0.80128 0.0
H836 H 0.37382 0.45027 0.69399 0.0
H837 H 0.35783 0.42668 0.7035 0.0
H838 H 0.34695 0.41076 0.72722 0.0
H839 H 0.34369 0.40873 0.75662 0.0
Mn840 Mn 0.74965 0.37461 0.50841 0.0
Mn841 Mn 0.74784 0.38611 0.46983 0.0
C842 C 0.73554 0.35888 0.48961 0.0
C843 C 0.76257 0.3611 0.52889 0.0
C844 C 0.72843 0.4014 0.4965 0.0
O845 O 0.76781 0.39153 0.50706 0.0
O846 O 0.76706 0.39637 0.48051 0.0
C847 C 0.77687 0.37017 0.45781 0.0
N848 N 0.76075 0.37242 0.45689 0.0
C849 C 0.75796 0.35372 0.43457 0.0
C850 C 0.77456 0.35134 0.43518 0.0
C851 C 0.78404 0.35956 0.44689 0.0
C852 C 0.75149 0.36447 0.44575 0.0
H853 H 0.78419 0.37637 0.46687 0.0
C854 C 0.77344 0.3982 0.49452 0.0
O855 O 0.75282 0.37266 0.53202 0.0
O856 O 0.76516 0.35777 0.51388 0.0
N857 N 0.72993 0.37678 0.45805 0.0
C858 C 0.71402 0.37985 0.45954 0.0
C859 C 0.70285 0.37232 0.44892 0.0
C860 C 0.70816 0.3618 0.43683 0.0
C861 C 0.7246 0.35891 0.43545 0.0
C862 C 0.73519 0.36687 0.44629 0.0
H863 H 0.70985 0.38796 0.46878 0.0
O864 O 0.73252 0.35746 0.50477 0.0
O865 O 0.74674 0.36934 0.486 0.0
O866 O 0.73294 0.39212 0.50761 0.0
O867 O 0.73376 0.40059 0.48216 0.0
C868 C 0.73088 0.34829 0.42388 0.0
C869 C 0.74754 0.34564 0.42349 0.0
H870 H 0.78012 0.34311 0.42682 0.0
H871 H 0.79684 0.3577 0.44752 0.0
H872 H 0.69017 0.3746 0.45007 0.0
H873 H 0.69949 0.35595 0.42872 0.0
H874 H 0.72299 0.34193 0.41536 0.0
H875 H 0.75219 0.33726 0.4147 0.0
Mn876 Mn 0.6339 0.00332 0.7525 0.0
Mn877 Mn 0.62097 0.04143 0.75091 0.0
C878 C 0.64912 0.02294 0.7397 0.0
C879 C 0.64801 0.98324 0.76526 0.0
C880 C 0.6071 0.01397 0.7301 0.0
O881 O 0.61679 0.00387 0.76993 0.0
O882 O 0.61075 0.03016 0.76916 0.0
C883 C 0.63525 0.05462 0.78123 0.0
N884 N 0.63345 0.05531 0.76499 0.0
C885 C 0.64978 0.07963 0.76402 0.0
C886 C 0.65172 0.07925 0.78074 0.0
C887 C 0.64448 0.06664 0.78937 0.0
C888 C 0.64048 0.0673 0.75656 0.0
H889 H 0.62968 0.04496 0.7879 0.0
C890 C 0.60943 0.01614 0.77529 0.0
O891 O 0.63659 0.97974 0.75497 0.0
O892 O 0.65082 0.9984 0.76857 0.0
N893 N 0.63014 0.05373 0.7339 0.0
C894 C 0.62807 0.05167 0.71774 0.0
C895 C 0.63515 0.06287 0.70732 0.0
C896 C 0.64408 0.07616 0.71362 0.0
C897 C 0.64593 0.07808 0.7303 0.0
C898 C 0.63868 0.06649 0.74009 0.0
H899 H 0.62113 0.04155 0.71283 0.0
O900 O 0.651 0.00781 0.73629 0.0
O901 O 0.63845 0.02611 0.75049 0.0
O902 O 0.61656 0.00321 0.73493 0.0
O903 O 0.60747 0.02839 0.73568 0.0
C904 C 0.65485 0.09092 0.73759 0.0
C905 C 0.65687 0.09165 0.75443 0.0
H906 H 0.65884 0.0885 0.78707 0.0
H907 H 0.64599 0.06622 0.80228 0.0
H908 H 0.63368 0.06129 0.69447 0.0
H909 H 0.64955 0.08475 0.70555 0.0
H910 H 0.66047 0.10015 0.73033 0.0
H911 H 0.66405 0.1014 0.75986 0.0
Mn912 Mn 0.00406 0.25278 0.87271 0.0
Mn913 Mn 0.96573 0.24691 0.88466 0.0
C914 C 0.98593 0.23826 0.85662 0.0
C915 C 0.02382 0.26762 0.85934 0.0
C916 C 0.99363 0.22858 0.89819 0.0
O917 O 0.00176 0.27001 0.89023 0.0
O918 O 0.9757 0.2657 0.8965 0.0
C919 C 0.95186 0.2767 0.87214 0.0
N920 N 0.95189 0.26032 0.87267 0.0
C921 C 0.92936 0.25794 0.8544 0.0
C922 C 0.92903 0.27479 0.85373 0.0
C923 C 0.94035 0.28421 0.86263 0.0
C924 C 0.94104 0.25114 0.86418 0.0
H925 H 0.96058 0.28399 0.8789 0.0
C926 C 0.98917 0.27347 0.89811 0.0
O927 O 0.02748 0.25768 0.87058 0.0
O928 O 0.00866 0.26945 0.85639 0.0
N929 N 0.95469 0.22922 0.87393 0.0
C930 C 0.95729 0.21315 0.87509 0.0
C931 C 0.94733 0.20207 0.86648 0.0
C932 C 0.93478 0.20761 0.85683 0.0
C933 C 0.93226 0.2242 0.85594 0.0
C934 C 0.94249 0.23467 0.86489 0.0
H935 H 0.96695 0.20882 0.88244 0.0
O936 O 0.00124 0.23628 0.85505 0.0
O937 O 0.98173 0.24856 0.86762 0.0
O938 O 0.00446 0.23509 0.88953 0.0
O939 O 0.97886 0.23231 0.89748 0.0
C940 C 0.92023 0.23077 0.84623 0.0
C941 C 0.91878 0.24763 0.84546 0.0
H942 H 0.92023 0.28063 0.84632 0.0
H943 H 0.94022 0.29722 0.86211 0.0
H944 H 0.94938 0.18928 0.8672 0.0
H945 H 0.92725 0.19904 0.85006 0.0
H946 H 0.9122 0.22297 0.8391 0.0
H947 H 0.90964 0.25254 0.83777 0.0
Mn948 Mn 0.50309 0.753 0.37248 0.0
Mn949 Mn 0.46453 0.74789 0.38392 0.0
C950 C 0.48501 0.73826 0.35648 0.0
C951 C 0.52309 0.76746 0.35906 0.0
C952 C 0.49193 0.72935 0.3982 0.0
O953 O 0.50081 0.77057 0.38966 0.0
O954 O 0.47462 0.76672 0.39559 0.0
C955 C 0.45169 0.7777 0.37036 0.0
N956 N 0.45131 0.76133 0.37127 0.0
C957 C 0.42946 0.75903 0.35218 0.0
C958 C 0.42955 0.77586 0.35111 0.0
C959 C 0.44073 0.78523 0.36022 0.0
C960 C 0.44064 0.7522 0.36252 0.0
H961 H 0.46031 0.78495 0.37728 0.0
C962 C 0.48817 0.77432 0.3973 0.0
O963 O 0.52659 0.75764 0.37046 0.0
O964 O 0.50797 0.76934 0.35595 0.0
N965 N 0.45331 0.7302 0.37339 0.0
C966 C 0.45514 0.7141 0.3754 0.0
C967 C 0.44498 0.70304 0.367 0.0
C968 C 0.43301 0.70865 0.35668 0.0
C969 C 0.43125 0.72527 0.35492 0.0
C970 C 0.44161 0.73572 0.36374 0.0
H971 H 0.46432 0.70972 0.38332 0.0
O972 O 0.50032 0.73617 0.35509 0.0
O973 O 0.48081 0.74887 0.36716 0.0
O974 O 0.503 0.73562 0.38963 0.0
O975 O 0.47722 0.73328 0.39721 0.0
C976 C 0.41975 0.73188 0.34461 0.0
C977 C 0.4189 0.74874 0.3432 0.0
H978 H 0.42117 0.78172 0.34325 0.0
H979 H 0.44092 0.79823 0.3594 0.0
H980 H 0.44642 0.69023 0.36842 0.0
H981 H 0.42527 0.70008 0.35013 0.0
H982 H 0.41164 0.7241 0.33757 0.0
H983 H 0.41014 0.75368 0.33508 0.0
Mn984 Mn 0.00429 0.75277 0.62934 0.0
Mn985 Mn 0.98626 0.71795 0.64077 0.0
C986 C 0.00654 0.72967 0.61363 0.0
C987 C 0.00322 0.77731 0.6162 0.0
C988 C 0.01711 0.73171 0.65599 0.0
O989 O 0.98854 0.76008 0.64646 0.0
O990 O 0.97547 0.73647 0.65098 0.0
C991 C 0.95474 0.72168 0.62473 0.0
N992 N 0.96814 0.71298 0.62714 0.0
C993 C 0.95835 0.69191 0.6091 0.0
C994 C 0.94437 0.70059 0.60652 0.0
C995 C 0.94259 0.71556 0.61433 0.0
C996 C 0.97006 0.69865 0.61957 0.0
H997 H 0.95335 0.73322 0.63067 0.0
C998 C 0.9774 0.75173 0.65309 0.0
O999 O 0.0136 0.77503 0.62761 0.0
O1000 O 0.99324 0.76546 0.6127 0.0
N1001 N 0.99533 0.69894 0.63174 0.0
C1002 C 0.00974 0.69233 0.63517 0.0
C1003 C 0.01342 0.67732 0.62833 0.0
C1004 C 0.00223 0.66922 0.61815 0.0
C1005 C 0.98746 0.67623 0.61484 0.0
C1006 C 0.98438 0.69112 0.62215 0.0
H1007 H 0.01833 0.69841 0.64312 0.0
O1008 O 0.01675 0.74163 0.61214 0.0
O1009 O 0.99521 0.73172 0.62401 0.0
O1010 O 0.01881 0.74367 0.64669 0.0
O1011 O 0.00506 0.72182 0.6552 0.0
C1012 C 0.97573 0.66908 0.60448 0.0
C1013 C 0.96122 0.67696 0.60154 0.0
H1014 H 0.93498 0.69592 0.59849 0.0
H1015 H 0.93188 0.72237 0.61232 0.0
H1016 H 0.02484 0.67198 0.63095 0.0
H1017 H 0.00509 0.65761 0.61297 0.0
H1018 H 0.97782 0.65762 0.59856 0.0
H1019 H 0.95238 0.67146 0.59339 0.0
Mn1020 Mn 0.50376 0.25482 0.12861 0.0
Mn1021 Mn 0.48711 0.21948 0.14067 0.0
C1022 C 0.50517 0.23206 0.11241 0.0
C1023 C 0.50224 0.2795 0.11578 0.0
C1024 C 0.51899 0.23279 0.15344 0.0
O1025 O 0.4888 0.26194 0.14634 0.0
O1026 O 0.47836 0.23777 0.15334 0.0
C1027 C 0.45386 0.22479 0.12945 0.0
N1028 N 0.46718 0.21563 0.12951 0.0
C1029 C 0.45428 0.19555 0.11224 0.0
C1030 C 0.44038 0.20471 0.11208 0.0
C1031 C 0.4402 0.21941 0.12068 0.0
C1032 C 0.46752 0.20151 0.12121 0.0
H1033 H 0.45368 0.2361 0.13603 0.0
C1034 C 0.47954 0.25316 0.15487 0.0
O1035 O 0.51303 0.27707 0.12676 0.0
O1036 O 0.49208 0.26773 0.11256 0.0
N1037 N 0.49423 0.20065 0.12955 0.0
C1038 C 0.50886 0.19371 0.13022 0.0
C1039 C 0.51117 0.17908 0.12197 0.0
C1040 C 0.4984 0.17165 0.11324 0.0
C1041 C 0.48342 0.17894 0.11284 0.0
C1042 C 0.48179 0.19347 0.12139 0.0
H1043 H 0.51872 0.19938 0.13686 0.0
O1044 O 0.51543 0.24396 0.11082 0.0
O1045 O 0.49434 0.23379 0.12343 0.0
O1046 O 0.51914 0.24571 0.14536 0.0
O1047 O 0.50767 0.22212 0.15251 0.0
C1048 C 0.47015 0.17256 0.10399 0.0
C1049 C 0.4556 0.18088 0.10365 0.0
H1050 H 0.42983 0.20064 0.10529 0.0
H1051 H 0.42954 0.22659 0.12055 0.0
H1052 H 0.52279 0.17356 0.12228 0.0
H1053 H 0.50028 0.16045 0.10677 0.0
H1054 H 0.47108 0.1614 0.09718 0.0
H1055 H 0.44556 0.17598 0.09661 0.0
C1056 C 0.19306 0.75034 0.89294 0.0
C1057 C 0.20451 0.74743 0.88108 0.0
C1058 C 0.19598 0.76229 0.90475 0.0
C1059 C 0.22268 0.79838 0.9131 0.0
H1060 H 0.20631 0.79451 0.95633 0.0
C1061 C 0.24422 0.84055 0.96474 0.0
C1062 C 0.23238 0.84714 0.97452 0.0
C1063 C 0.24023 0.82834 0.95359 0.0
C1064 C 0.21083 0.79579 0.94425 0.0
H1065 H 0.22819 0.754 0.87251 0.0
H1066 H 0.23375 0.7742 0.89349 0.0
H1067 H 0.20081 0.77288 0.93663 0.0
H1068 H 0.20739 0.84548 0.98132 0.0
H1069 H 0.20028 0.82395 0.96168 0.0
H1070 H 0.23337 0.82083 0.92096 0.0
C1071 C 0.2222 0.76789 0.89342 0.0
C1072 C 0.20764 0.78343 0.93293 0.0
C1073 C 0.21912 0.75622 0.88146 0.0
C1074 C 0.21661 0.84078 0.9736 0.0
C1075 C 0.2126 0.82845 0.96246 0.0
C1076 C 0.22612 0.81051 0.92449 0.0
C1077 C 0.21056 0.77134 0.90506 0.0
C1078 C 0.2136 0.78453 0.91719 0.0
C1079 C 0.22437 0.82221 0.95225 0.0
C1080 C 0.22025 0.80939 0.94017 0.0
H1081 H 0.18167 0.74369 0.89278 0.0
H1082 H 0.18665 0.76468 0.91336 0.0
H1083 H 0.22713 0.79996 0.90105 0.0
H1084 H 0.2566 0.84482 0.96577 0.0
H1085 H 0.24963 0.82355 0.94613 0.0
C1086 C 0.0204 0.5066 0.39164 0.0
C1087 C 0.02029 0.52158 0.39985 0.0
C1088 C 0.02972 0.50456 0.37787 0.0
C1089 C 0.04671 0.52729 0.34486 0.0
H1090 H 0.07746 0.49332 0.34018 0.0
C1091 C 0.09513 0.53075 0.29703 0.0
C1092 C 0.09979 0.51667 0.28893 0.0
C1093 C 0.08495 0.52994 0.31017 0.0
C1094 C 0.06873 0.5027 0.34116 0.0
H1095 H 0.03052 0.54595 0.40022 0.0
H1096 H 0.04618 0.54251 0.37597 0.0
H1097 H 0.06038 0.49433 0.36397 0.0
H1098 H 0.0975 0.49058 0.2885 0.0
H1099 H 0.07927 0.48916 0.31139 0.0
H1100 H 0.05471 0.53564 0.32214 0.0
C1101 C 0.03898 0.53239 0.38018 0.0
C1102 C 0.05901 0.5033 0.3548 0.0
C1103 C 0.02991 0.53437 0.39403 0.0
C1104 C 0.09413 0.50166 0.29447 0.0
C1105 C 0.08373 0.50085 0.30762 0.0
C1106 C 0.05622 0.52659 0.33119 0.0
C1107 C 0.0389 0.51752 0.37191 0.0
C1108 C 0.04819 0.51583 0.35692 0.0
C1109 C 0.0789 0.51502 0.31553 0.0
C1110 C 0.06767 0.51455 0.32934 0.0
H1111 H 0.01303 0.49651 0.39562 0.0
H1112 H 0.02941 0.49299 0.37164 0.0
H1113 H 0.03824 0.5369 0.34607 0.0
H1114 H 0.09943 0.54253 0.29331 0.0
H1115 H 0.08191 0.54108 0.31621 0.0
C1116 C 0.8159 0.75394 0.88311 0.0
C1117 C 0.80533 0.76649 0.88 0.0
C1118 C 0.81235 0.74267 0.895 0.0
C1119 C 0.77745 0.72485 0.91506 0.0
H1120 H 0.80757 0.70974 0.94685 0.0
C1121 C 0.75511 0.68651 0.96662 0.0
C1122 C 0.76389 0.67299 0.97082 0.0
C1123 C 0.76164 0.6981 0.9565 0.0
C1124 C 0.79909 0.71372 0.93792 0.0
H1125 H 0.78339 0.77767 0.88771 0.0
H1126 H 0.77717 0.75799 0.9082 0.0
H1127 H 0.81651 0.7297 0.92721 0.0
H1128 H 0.78674 0.66137 0.96825 0.0
H1129 H 0.79814 0.68159 0.95017 0.0
H1130 H 0.76009 0.70889 0.9254 0.0
C1131 C 0.78801 0.75667 0.90127 0.0
C1132 C 0.8042 0.72514 0.92672 0.0
C1133 C 0.79157 0.76792 0.8895 0.0
C1134 C 0.77969 0.67168 0.96522 0.0
C1135 C 0.78622 0.68327 0.95489 0.0
C1136 C 0.7724 0.71343 0.92612 0.0
C1137 C 0.79816 0.74373 0.90392 0.0
C1138 C 0.79332 0.73102 0.91536 0.0
C1139 C 0.77707 0.69639 0.9501 0.0
C1140 C 0.78304 0.70793 0.93789 0.0
H1141 H 0.82657 0.75248 0.87596 0.0
H1142 H 0.82037 0.73279 0.89676 0.0
H1143 H 0.7689 0.72885 0.9062 0.0
H1144 H 0.743 0.68804 0.97095 0.0
H1145 H 0.75444 0.70829 0.95346 0.0
C1146 C 0.98815 0.99894 0.39731 0.0
C1147 C 0.98678 0.98441 0.40569 0.0
C1148 C 0.97885 0.0013 0.38351 0.0
C1149 C 0.95974 0.97915 0.35039 0.0
H1150 H 0.93198 0.0155 0.34533 0.0
C1151 C 0.91241 0.97894 0.30041 0.0
C1152 C 0.90864 0.99335 0.29279 0.0
C1153 C 0.9224 0.97906 0.3139 0.0
C1154 C 0.93988 0.00543 0.3464 0.0
H1155 H 0.97467 0.961 0.40626 0.0
H1156 H 0.95869 0.96498 0.38192 0.0
H1157 H 0.94865 0.0136 0.36957 0.0
H1158 H 0.91243 0.01929 0.29353 0.0
H1159 H 0.93044 0.01949 0.31697 0.0
H1160 H 0.95149 0.97105 0.32725 0.0
C1161 C 0.96683 0.97457 0.38613 0.0
C1162 C 0.94935 0.00432 0.36032 0.0
C1163 C 0.97589 0.97234 0.40008 0.0
C1164 C 0.91509 0.00797 0.29912 0.0
C1165 C 0.92535 0.00808 0.3126 0.0
C1166 C 0.95054 0.98037 0.33642 0.0
C1167 C 0.96828 0.98903 0.37768 0.0
C1168 C 0.95909 0.99098 0.36256 0.0
C1169 C 0.92921 0.99358 0.3201 0.0
C1170 C 0.94016 0.9933 0.33437 0.0
H1171 H 0.99642 0.00845 0.40145 0.0
H1172 H 0.9802 0.01252 0.37716 0.0
H1173 H 0.96739 0.9689 0.35171 0.0
H1174 H 0.90749 0.96744 0.29607 0.0
H1175 H 0.92463 0.96769 0.31957 0.0
C1176 C 0.18951 0.24672 0.62519 0.0
C1177 C 0.20195 0.25687 0.63151 0.0
C1178 C 0.19252 0.23565 0.61281 0.0
C1179 C 0.22382 0.21166 0.5951 0.0
H1180 H 0.19828 0.21203 0.55598 0.0
C1181 C 0.24055 0.17363 0.53933 0.0
C1182 C 0.22812 0.1674 0.52933 0.0
C1183 C 0.23726 0.18439 0.5519 0.0
C1184 C 0.20536 0.2115 0.56691 0.0
H1185 H 0.22733 0.26329 0.62939 0.0
H1186 H 0.23259 0.24348 0.60833 0.0
H1187 H 0.19243 0.23067 0.57794 0.0
H1188 H 0.20241 0.16733 0.52489 0.0
H1189 H 0.19655 0.18541 0.54718 0.0
H1190 H 0.23645 0.1922 0.58447 0.0
C1191 C 0.22053 0.24421 0.61302 0.0
C1192 C 0.20204 0.22227 0.57944 0.0
C1193 C 0.21749 0.25549 0.62517 0.0
C1194 C 0.21229 0.172 0.5323 0.0
C1195 C 0.20895 0.18251 0.54505 0.0
C1196 C 0.22697 0.20067 0.5827 0.0
C1197 C 0.20807 0.23425 0.60668 0.0
C1198 C 0.2113 0.22252 0.5936 0.0
C1199 C 0.2214 0.18897 0.55497 0.0
C1200 C 0.21786 0.20049 0.56836 0.0
H1201 H 0.17746 0.24717 0.62991 0.0
H1202 H 0.18273 0.22799 0.60819 0.0
H1203 H 0.23104 0.21153 0.60598 0.0
H1204 H 0.2529 0.17044 0.53726 0.0
H1205 H 0.24723 0.18931 0.55901 0.0
C1206 C 0.4951 0.51507 0.62108 0.0
C1207 C 0.49278 0.52892 0.61194 0.0
C1208 C 0.48549 0.51182 0.63436 0.0
C1209 C 0.45936 0.53103 0.66411 0.0
H1210 H 0.44228 0.4876 0.66968 0.0
C1211 C 0.41146 0.51553 0.71178 0.0
C1212 C 0.41245 0.50067 0.71954 0.0
C1213 C 0.42161 0.51925 0.69899 0.0
C1214 C 0.44713 0.49974 0.66846 0.0
H1215 H 0.47836 0.55015 0.60964 0.0
H1216 H 0.46174 0.54457 0.63296 0.0
H1217 H 0.45929 0.49353 0.64678 0.0
H1218 H 0.42524 0.47825 0.72013 0.0
H1219 H 0.44311 0.48489 0.69814 0.0
H1220 H 0.44734 0.53724 0.68586 0.0
C1221 C 0.47111 0.5363 0.62988 0.0
C1222 C 0.45685 0.50314 0.6553 0.0
C1223 C 0.48066 0.53951 0.61653 0.0
C1224 C 0.42405 0.48977 0.7144 0.0
C1225 C 0.43425 0.49353 0.70168 0.0
C1226 C 0.44971 0.52761 0.67735 0.0
C1227 C 0.47338 0.52239 0.63891 0.0
C1228 C 0.46307 0.51882 0.65296 0.0
C1229 C 0.43304 0.50824 0.69369 0.0
C1230 C 0.44346 0.51192 0.6797 0.0
H1231 H 0.5045 0.50681 0.6181 0.0
H1232 H 0.48769 0.50113 0.64122 0.0
H1233 H 0.46414 0.54319 0.66274 0.0
H1234 H 0.40262 0.52419 0.71534 0.0
H1235 H 0.42019 0.5306 0.69301 0.0
C1236 C 0.80639 0.25508 0.61698 0.0
C1237 C 0.8019 0.25627 0.63318 0.0
C1238 C 0.80332 0.26757 0.60644 0.0
C1239 C 0.77703 0.302 0.60093 0.0
H1240 H 0.80859 0.31497 0.56939 0.0
C1241 C 0.76571 0.35423 0.55791 0.0
C1242 C 0.76951 0.35131 0.54174 0.0
C1243 C 0.77096 0.3439 0.56984 0.0
C1244 C 0.79961 0.31142 0.57806 0.0
H1245 H 0.79056 0.27145 0.65096 0.0
H1246 H 0.78536 0.29332 0.63261 0.0
H1247 H 0.81503 0.29423 0.58864 0.0
H1248 H 0.78226 0.33561 0.52546 0.0
H1249 H 0.79125 0.31755 0.54619 0.0
H1250 H 0.76149 0.31895 0.59021 0.0
C1251 C 0.79118 0.28269 0.62805 0.0
C1252 C 0.80329 0.29953 0.58907 0.0
C1253 C 0.7943 0.27023 0.6386 0.0
C1254 C 0.77914 0.3382 0.53782 0.0
C1255 C 0.78437 0.32788 0.54973 0.0
C1256 C 0.77333 0.31387 0.5899 0.0
C1257 C 0.79563 0.2815 0.61185 0.0
C1258 C 0.79199 0.29459 0.60054 0.0
C1259 C 0.78012 0.33044 0.56585 0.0
C1260 C 0.78452 0.31862 0.57824 0.0
H1261 H 0.8124 0.24455 0.61247 0.0
H1262 H 0.80674 0.26621 0.59399 0.0
H1263 H 0.76797 0.29832 0.60948 0.0
H1264 H 0.75836 0.36426 0.56132 0.0
H1265 H 0.76769 0.34635 0.58218 0.0
C1266 C 0.51227 0.99919 0.61673 0.0
C1267 C 0.51415 0.98545 0.60691 0.0
C1268 C 0.52196 0.00184 0.63036 0.0
C1269 C 0.54766 0.98127 0.65941 0.0
H1270 H 0.56591 0.02416 0.6674 0.0
C1271 C 0.59627 0.99508 0.7084 0.0
C1272 C 0.59554 0.00983 0.71689 0.0
C1273 C 0.58597 0.99168 0.69533 0.0
C1274 C 0.56074 0.01216 0.6655 0.0
H1275 H 0.52747 0.96355 0.60387 0.0
H1276 H 0.54449 0.96823 0.62765 0.0
H1277 H 0.54865 0.01907 0.64402 0.0
H1278 H 0.58298 0.03237 0.71852 0.0
H1279 H 0.56489 0.02632 0.69604 0.0
H1280 H 0.55969 0.97439 0.68097 0.0
C1281 C 0.53547 0.97693 0.62482 0.0
C1282 C 0.55087 0.00924 0.65206 0.0
C1283 C 0.52584 0.97433 0.61112 0.0
C1284 C 0.584 0.02093 0.71222 0.0
C1285 C 0.57367 0.01751 0.69922 0.0
C1286 C 0.5575 0.98421 0.67292 0.0
C1287 C 0.5337 0.99076 0.63454 0.0
C1288 C 0.5442 0.99378 0.64887 0.0
C1289 C 0.57465 0.00294 0.69048 0.0
C1290 C 0.56414 0.99971 0.67615 0.0
H1291 H 0.50348 0.00806 0.61375 0.0
H1292 H 0.5202 0.01253 0.6377 0.0
H1293 H 0.54256 0.96927 0.65737 0.0
H1294 H 0.60504 0.98626 0.71161 0.0
H1295 H 0.58718 0.98041 0.68878 0.0
C1296 C 0.89339 0.19101 0.74843 0.0
C1297 C 0.88034 0.20143 0.74755 0.0
C1298 C 0.90547 0.19355 0.76008 0.0
C1299 C 0.92657 0.22503 0.78169 0.0
H1300 H 0.93574 0.19513 0.81561 0.0
C1301 C 0.96535 0.24424 0.83615 0.0
C1302 C 0.97486 0.23289 0.84367 0.0
C1303 C 0.95475 0.23953 0.82381 0.0
C1304 C 0.93358 0.20347 0.80603 0.0
H1305 H 0.86951 0.22222 0.75889 0.0
H1306 H 0.891 0.22703 0.77853 0.0
H1307 H 0.91531 0.18794 0.79518 0.0
H1308 H 0.982 0.20806 0.84341 0.0
H1309 H 0.96357 0.19967 0.82149 0.0
H1310 H 0.94494 0.24044 0.79203 0.0
C1311 C 0.89177 0.21692 0.77019 0.0
C1312 C 0.92183 0.19937 0.79443 0.0
C1313 C 0.87956 0.21422 0.75882 0.0
C1314 C 0.9744 0.21689 0.83802 0.0
C1315 C 0.9638 0.21212 0.82556 0.0
C1316 C 0.9385 0.229 0.79304 0.0
C1317 C 0.90485 0.20669 0.77084 0.0
C1318 C 0.91807 0.21026 0.78237 0.0
C1319 C 0.95371 0.22338 0.81841 0.0
C1320 C 0.94196 0.21843 0.80556 0.0
H1321 H 0.89453 0.18115 0.73989 0.0
H1322 H 0.91554 0.18557 0.76037 0.0
H1323 H 0.92393 0.23353 0.77236 0.0
H1324 H 0.96596 0.25679 0.83999 0.0
H1325 H 0.94709 0.24853 0.81881 0.0
C1326 C 0.49017 0.90274 0.47397 0.0
C1327 C 0.47741 0.90359 0.48491 0.0
C1328 C 0.49231 0.88882 0.46461 0.0
C1329 C 0.46997 0.8533 0.4483 0.0
H1330 H 0.51192 0.83491 0.44277 0.0
C1331 C 0.47623 0.79087 0.41927 0.0
C1332 C 0.48873 0.78857 0.40831 0.0
C1333 C 0.47581 0.80482 0.4288 0.0
C1334 C 0.50016 0.84 0.44403 0.0
H1335 H 0.45723 0.89016 0.49486 0.0
H1336 H 0.46082 0.86606 0.47839 0.0
H1337 H 0.50932 0.85963 0.45885 0.0
H1338 H 0.51089 0.79903 0.39912 0.0
H1339 H 0.51002 0.82363 0.41564 0.0
H1340 H 0.46075 0.83392 0.43343 0.0
C1341 C 0.46904 0.87625 0.47692 0.0
C1342 C 0.49867 0.85414 0.45326 0.0
C1343 C 0.46696 0.8901 0.48633 0.0
C1344 C 0.5011 0.8004 0.40747 0.0
C1345 C 0.50062 0.81448 0.41697 0.0
C1346 C 0.47146 0.83927 0.43904 0.0
C1347 C 0.48168 0.87547 0.46589 0.0
C1348 C 0.48352 0.86083 0.45563 0.0
C1349 C 0.4878 0.81697 0.42754 0.0
C1350 C 0.48652 0.8323 0.43694 0.0
H1351 H 0.49835 0.91296 0.47242 0.0
H1352 H 0.50207 0.88863 0.45611 0.0
H1353 H 0.45818 0.85833 0.44963 0.0
H1354 H 0.4666 0.78193 0.42042 0.0
H1355 H 0.46598 0.80612 0.4371 0.0
C1356 C 0.13319 0.29967 0.76707 0.0
C1357 C 0.1283 0.30677 0.75269 0.0
C1358 C 0.12217 0.29661 0.77925 0.0
C1359 C 0.08249 0.30813 0.79449 0.0
H1360 H 0.08418 0.26733 0.81632 0.0
C1361 C 0.03193 0.28415 0.83576 0.0
C1362 C 0.03631 0.27517 0.84918 0.0
C1363 C 0.04354 0.28943 0.82488 0.0
C1364 C 0.08369 0.2789 0.81055 0.0
H1365 H 0.10798 0.31633 0.7399 0.0
H1366 H 0.08862 0.31076 0.76112 0.0
H1367 H 0.10342 0.27342 0.79534 0.0
H1368 H 0.05641 0.26542 0.86217 0.0
H1369 H 0.07671 0.27486 0.84335 0.0
H1370 H 0.06264 0.31353 0.80967 0.0
C1371 C 0.10106 0.30772 0.76301 0.0
C1372 C 0.09471 0.28237 0.79848 0.0
C1373 C 0.1121 0.31074 0.75078 0.0
C1374 C 0.05264 0.27224 0.8519 0.0
C1375 C 0.06425 0.27754 0.84104 0.0
C1376 C 0.07145 0.30466 0.80661 0.0
C1377 C 0.10596 0.30057 0.77737 0.0
C1378 C 0.09423 0.29701 0.79027 0.0
C1379 C 0.0598 0.28587 0.82719 0.0
C1380 C 0.0719 0.28998 0.81477 0.0
H1381 H 0.14554 0.29628 0.76886 0.0
H1382 H 0.12638 0.29124 0.79021 0.0
H1383 H 0.08193 0.3196 0.78855 0.0
H1384 H 0.01944 0.28659 0.8333 0.0
H1385 H 0.03966 0.2957 0.81429 0.0
C1386 C 0.53052 0.62728 0.49591 0.0
C1387 C 0.52577 0.61143 0.49146 0.0
C1388 C 0.52713 0.64016 0.48594 0.0
C1389 C 0.50025 0.65165 0.45263 0.0
H1390 H 0.53147 0.6867 0.44774 0.0
C1391 C 0.51183 0.7105 0.40999 0.0
C1392 C 0.4962 0.71649 0.40953 0.0
C1393 C 0.51563 0.69792 0.42019 0.0
C1394 C 0.52266 0.67695 0.44887 0.0
H1395 H 0.51361 0.59675 0.47302 0.0
H1396 H 0.50807 0.61912 0.45548 0.0
H1397 H 0.53792 0.66405 0.46464 0.0
H1398 H 0.47238 0.71407 0.41977 0.0
H1399 H 0.47908 0.6924 0.4377 0.0
H1400 H 0.48515 0.66432 0.43655 0.0
C1401 C 0.51424 0.62164 0.46678 0.0
C1402 C 0.52628 0.66405 0.45872 0.0
C1403 C 0.5176 0.60877 0.47676 0.0
C1404 C 0.48453 0.70974 0.41971 0.0
C1405 C 0.48834 0.69721 0.42994 0.0
C1406 C 0.49664 0.66453 0.44276 0.0
C1407 C 0.51891 0.63751 0.47127 0.0
C1408 C 0.51512 0.65124 0.46074 0.0
C1409 C 0.5039 0.69105 0.43022 0.0
C1410 C 0.50779 0.67736 0.44077 0.0
H1411 H 0.537 0.62976 0.50705 0.0
H1412 H 0.53076 0.65223 0.48987 0.0
H1413 H 0.49128 0.6421 0.45404 0.0
H1414 H 0.52113 0.71534 0.40228 0.0
H1415 H 0.52768 0.69335 0.41994 0.0
C1416 C 0.89262 0.81405 0.75649 0.0
C1417 C 0.87722 0.80667 0.75651 0.0
C1418 C 0.90405 0.80929 0.74525 0.0
C1419 C 0.91491 0.77456 0.72062 0.0
H1420 H 0.9386 0.80494 0.69434 0.0
C1421 C 0.9511 0.75237 0.66714 0.0
C1422 C 0.96609 0.75979 0.66403 0.0
C1423 C 0.94072 0.7591 0.67827 0.0
C1424 C 0.93227 0.79631 0.70174 0.0
H1425 H 0.86174 0.78848 0.74488 0.0
H1426 H 0.88169 0.78008 0.72541 0.0
H1427 H 0.91985 0.81486 0.71447 0.0
H1428 H 0.98177 0.78037 0.66988 0.0
H1429 H 0.96373 0.79199 0.68974 0.0
H1430 H 0.92736 0.75603 0.7083 0.0
C1431 C 0.88491 0.78959 0.73402 0.0
C1432 C 0.92151 0.802 0.71323 0.0
C1433 C 0.87346 0.79448 0.74507 0.0
C1434 C 0.97028 0.77439 0.672 0.0
C1435 C 0.95992 0.78105 0.68335 0.0
C1436 C 0.92575 0.7689 0.70932 0.0
C1437 C 0.90034 0.79688 0.73403 0.0
C1438 C 0.91253 0.79114 0.72257 0.0
C1439 C 0.94511 0.77332 0.68681 0.0
C1440 C 0.93435 0.77966 0.6995 0.0
H1441 H 0.8958 0.82354 0.76513 0.0
H1442 H 0.91588 0.81506 0.74555 0.0
H1443 H 0.90838 0.76594 0.72788 0.0
H1444 H 0.94736 0.74125 0.66103 0.0
H1445 H 0.92923 0.75305 0.68022 0.0
C1446 C 0.02643 0.88599 0.52211 0.0
C1447 C 0.01942 0.90092 0.52521 0.0
C1448 C 0.02353 0.87297 0.53218 0.0
C1449 C 0.01119 0.86301 0.57324 0.0
H1450 H 0.00423 0.82008 0.55497 0.0
C1451 C 0.99275 0.79401 0.59387 0.0
C1452 C 0.00331 0.79239 0.60697 0.0
C1453 C 0.99361 0.80772 0.58437 0.0
C1454 C 0.006 0.83201 0.56027 0.0
H1455 H 0.00386 0.91387 0.54135 0.0
H1456 H 0.99868 0.89104 0.55889 0.0
H1457 H 0.00757 0.84297 0.53725 0.0
H1458 H 0.02276 0.80409 0.62063 0.0
H1459 H 0.02429 0.828 0.60401 0.0
H1460 H 0.00958 0.85201 0.59628 0.0
C1461 C 0.0065 0.88947 0.5487 0.0
C1462 C 0.0081 0.8451 0.55012 0.0
C1463 C 0.00934 0.90249 0.53857 0.0
C1464 C 0.01445 0.80498 0.61063 0.0
C1465 C 0.01527 0.81872 0.60115 0.0
C1466 C 0.00917 0.84988 0.58342 0.0
C1467 C 0.01359 0.87456 0.54563 0.0
C1468 C 0.01081 0.86074 0.55647 0.0
C1469 C 0.00501 0.82014 0.58777 0.0
C1470 C 0.00662 0.83422 0.57704 0.0
H1471 H 0.03413 0.88434 0.51183 0.0
H1472 H 0.0293 0.8617 0.52956 0.0
H1473 H 0.01338 0.87489 0.57852 0.0
H1474 H 0.98399 0.78456 0.59076 0.0
H1475 H 0.98538 0.80855 0.57429 0.0
C1476 C 0.11796 0.69366 0.75626 0.0
C1477 C 0.1324 0.70285 0.75594 0.0
C1478 C 0.10548 0.69664 0.74545 0.0
C1479 C 0.08972 0.72835 0.71974 0.0
H1480 H 0.06587 0.69303 0.69877 0.0
C1481 C 0.04412 0.73847 0.66845 0.0
C1482 C 0.02996 0.72881 0.66799 0.0
C1483 C 0.05647 0.73535 0.67935 0.0
C1484 C 0.07226 0.70304 0.70468 0.0
H1485 H 0.14518 0.72205 0.74363 0.0
H1486 H 0.12337 0.72731 0.72489 0.0
H1487 H 0.08774 0.68731 0.71731 0.0
H1488 H 0.01768 0.7084 0.67889 0.0
H1489 H 0.03907 0.70319 0.69804 0.0
H1490 H 0.07421 0.74409 0.70723 0.0
C1491 C 0.12162 0.71796 0.73366 0.0
C1492 C 0.08482 0.69975 0.71528 0.0
C1493 C 0.13412 0.71495 0.74441 0.0
C1494 C 0.02841 0.71608 0.67884 0.0
C1495 C 0.04074 0.713 0.68977 0.0
C1496 C 0.07712 0.73165 0.70919 0.0
C1497 C 0.10712 0.70891 0.73411 0.0
C1498 C 0.09372 0.71237 0.7229 0.0
C1499 C 0.05497 0.72253 0.6901 0.0
C1500 C 0.06825 0.71903 0.7015 0.0
H1501 H 0.11613 0.68442 0.76512 0.0
H1502 H 0.09439 0.68958 0.74623 0.0
H1503 H 0.09619 0.73834 0.72561 0.0
H1504 H 0.0458 0.74833 0.66024 0.0
H1505 H 0.06734 0.74281 0.67912 0.0
C1506 C 0.00304 0.60703 0.52926 0.0
C1507 C 0.98949 0.60589 0.51913 0.0
C1508 C 0.00623 0.62098 0.53851 0.0
C1509 C 0.99457 0.66404 0.54291 0.0
H1510 H 0.01348 0.65999 0.58527 0.0
C1511 C 0.99236 0.7136 0.5922 0.0
C1512 C 0.00612 0.71637 0.60178 0.0
C1513 C 0.99169 0.7009 0.58099 0.0
C1514 C 0.00828 0.66133 0.57344 0.0
H1515 H 0.96849 0.61823 0.51085 0.0
H1516 H 0.97357 0.6423 0.52747 0.0
H1517 H 0.00909 0.63607 0.5684 0.0
H1518 H 0.03041 0.70906 0.60648 0.0
H1519 H 0.02918 0.68644 0.58705 0.0
H1520 H 0.99312 0.68927 0.5484 0.0
C1521 C 0.98213 0.63274 0.52793 0.0
C1522 C 0.00585 0.64761 0.56367 0.0
C1523 C 0.97912 0.6189 0.51847 0.0
C1524 C 0.01956 0.70684 0.59942 0.0
C1525 C 0.01883 0.69395 0.58836 0.0
C1526 C 0.99672 0.6777 0.55282 0.0
C1527 C 0.99576 0.63401 0.53806 0.0
C1528 C 0.99886 0.64874 0.54829 0.0
C1529 C 0.0048 0.69074 0.57917 0.0
C1530 C 0.00349 0.67647 0.56823 0.0
H1531 H 0.01131 0.5972 0.52984 0.0
H1532 H 0.01701 0.62158 0.54589 0.0
H1533 H 0.98953 0.66552 0.53101 0.0
H1534 H 0.98201 0.72112 0.59358 0.0
H1535 H 0.9807 0.69868 0.57415 0.0
C1536 C 0.74912 0.89527 0.19358 0.0
C1537 C 0.74484 0.88384 0.20508 0.0
C1538 C 0.76086 0.90723 0.19716 0.0
C1539 C 0.79411 0.91638 0.2265 0.0
H1540 H 0.79301 0.95914 0.20864 0.0
C1541 C 0.83637 0.9675 0.24951 0.0
C1542 C 0.84404 0.97704 0.23801 0.0
C1543 C 0.82396 0.95669 0.24501 0.0
C1544 C 0.79353 0.9472 0.2136 0.0
H1545 H 0.74866 0.87622 0.22947 0.0
H1546 H 0.76845 0.89747 0.23611 0.0
H1547 H 0.77158 0.93942 0.20193 0.0
H1548 H 0.84414 0.98379 0.21305 0.0
H1549 H 0.8224 0.96461 0.20499 0.0
H1550 H 0.8155 0.92435 0.23877 0.0
C1551 C 0.76342 0.89693 0.22407 0.0
C1552 C 0.78127 0.93585 0.20973 0.0
C1553 C 0.75198 0.88483 0.22037 0.0
C1554 C 0.83856 0.97626 0.22203 0.0
C1555 C 0.8261 0.96539 0.21749 0.0
C1556 C 0.8061 0.92778 0.2306 0.0
C1557 C 0.7683 0.90812 0.21243 0.0
C1558 C 0.78137 0.92029 0.2162 0.0
C1559 C 0.81879 0.95535 0.22892 0.0
C1560 C 0.80601 0.9433 0.22421 0.0
H1561 H 0.74374 0.89465 0.18169 0.0
H1562 H 0.76438 0.91549 0.18783 0.0
H1563 H 0.79493 0.90444 0.2314 0.0
H1564 H 0.84 0.96839 0.26202 0.0
H1565 H 0.81836 0.94941 0.25418 0.0
C1566 C 0.75485 0.12021 0.30836 0.0
C1567 C 0.75739 0.13619 0.30344 0.0
C1568 C 0.76673 0.10881 0.30615 0.0
C1569 C 0.80243 0.10063 0.28168 0.0
H1570 H 0.81137 0.06924 0.31429 0.0
C1571 C 0.85409 0.05674 0.27432 0.0
C1572 C 0.85055 0.04054 0.27778 0.0
C1573 C 0.84364 0.06881 0.27896 0.0
C1574 C 0.80893 0.07786 0.30503 0.0
H1575 H 0.7744 0.15266 0.29225 0.0
H1576 H 0.79518 0.13288 0.28867 0.0
H1577 H 0.7911 0.08943 0.31919 0.0
H1578 H 0.83363 0.02436 0.28947 0.0
H1579 H 0.81531 0.04541 0.29746 0.0
H1580 H 0.82008 0.08902 0.26744 0.0
C1581 C 0.78396 0.12911 0.29411 0.0
C1582 C 0.79731 0.08941 0.30782 0.0
C1583 C 0.7721 0.1405 0.29633 0.0
C1584 C 0.83671 0.03675 0.28664 0.0
C1585 C 0.82623 0.04883 0.29127 0.0
C1586 C 0.81403 0.0891 0.27889 0.0
C1587 C 0.78141 0.11311 0.29894 0.0
C1588 C 0.7939 0.10092 0.29616 0.0
C1589 C 0.82938 0.06496 0.28715 0.0
C1590 C 0.81742 0.07755 0.29051 0.0
H1591 H 0.74372 0.11653 0.31402 0.0
H1592 H 0.76431 0.09655 0.30987 0.0
H1593 H 0.79991 0.10912 0.27232 0.0
H1594 H 0.86471 0.06008 0.26759 0.0
H1595 H 0.84659 0.08116 0.27588 0.0
C1596 C 0.40128 0.97553 0.99866 0.0
C1597 C 0.40272 0.98686 0.98634 0.0
C1598 C 0.38684 0.96683 1.00081 0.0
C1599 C 0.35054 0.95319 0.9785 0.0
H1600 H 0.33215 0.94597 0.02047 0.0
C1601 C 0.28738 0.92554 0.98417 0.0
C1602 C 0.28496 0.91345 0.99556 0.0
C1603 C 0.30143 0.93506 0.98437 0.0
C1604 C 0.33723 0.94775 0.00869 0.0
H1605 H 0.38987 0.99838 0.9671 0.0
H1606 H 0.36484 0.98312 0.97075 0.0
H1607 H 0.35755 0.96133 0.01824 0.0
H1608 H 0.29516 0.90235 0.01656 0.0
H1609 H 0.31994 0.91891 0.01678 0.0
H1610 H 0.33047 0.93956 0.96888 0.0
C1611 C 0.37494 0.98077 0.97857 0.0
C1612 C 0.35176 0.95654 0.00741 0.0
C1613 C 0.38931 0.98949 0.97645 0.0
C1614 C 0.29665 0.91159 0.00764 0.0
C1615 C 0.31083 0.92109 0.00777 0.0
C1616 C 0.33612 0.94439 0.97977 0.0
C1617 C 0.37358 0.96923 0.99066 0.0
C1618 C 0.35846 0.95949 0.99227 0.0
C1619 C 0.31354 0.93266 0.99588 0.0
C1620 C 0.32916 0.94172 0.99484 0.0
H1621 H 0.41142 0.97311 0.0064 0.0
H1622 H 0.38619 0.95792 0.01014 0.0
H1623 H 0.35557 0.95494 0.96669 0.0
H1624 H 0.27853 0.92747 0.97483 0.0
H1625 H 0.30292 0.94416 0.9753 0.0
C1626 C 0.25784 0.39727 0.307 0.0
C1627 C 0.256 0.38136 0.30108 0.0
C1628 C 0.24582 0.40842 0.30448 0.0
C1629 C 0.20259 0.41124 0.29401 0.0
H1630 H 0.21474 0.45495 0.28263 0.0
C1631 C 0.15778 0.45641 0.26808 0.0
C1632 C 0.15972 0.47271 0.27271 0.0
C1633 C 0.16888 0.44512 0.27305 0.0
C1634 C 0.21113 0.44286 0.28604 0.0
H1635 H 0.24019 0.3648 0.2876 0.0
H1636 H 0.21929 0.38423 0.28313 0.0
H1637 H 0.23552 0.43567 0.28809 0.0
H1638 H 0.17441 0.48982 0.28677 0.0
H1639 H 0.19364 0.47011 0.29556 0.0
H1640 H 0.17816 0.41842 0.29173 0.0
C1641 C 0.22988 0.38803 0.29 0.0
C1642 C 0.22306 0.43179 0.28916 0.0
C1643 C 0.24188 0.37689 0.29254 0.0
C1644 C 0.17261 0.47736 0.28293 0.0
C1645 C 0.18371 0.46609 0.28788 0.0
C1646 C 0.19064 0.42231 0.29086 0.0
C1647 C 0.23168 0.40393 0.29596 0.0
C1648 C 0.21895 0.41582 0.2931 0.0
C1649 C 0.18216 0.4499 0.28273 0.0
C1650 C 0.19477 0.43824 0.28677 0.0
H1651 H 0.26847 0.40105 0.31382 0.0
H1652 H 0.24751 0.4205 0.30942 0.0
H1653 H 0.19899 0.3991 0.29727 0.0
H1654 H 0.14799 0.45245 0.26019 0.0
H1655 H 0.16739 0.43278 0.26877 0.0
C1656 C 0.11589 0.01996 0.50261 0.0
C1657 C 0.10992 0.01582 0.48717 0.0
C1658 C 0.12967 0.02987 0.50459 0.0
C1659 C 0.15545 0.05887 0.48189 0.0
H1660 H 0.18463 0.05453 0.51799 0.0
C1661 C 0.21511 0.09512 0.48594 0.0
C1662 C 0.21861 0.10283 0.50071 0.0
C1663 C 0.20265 0.08355 0.48465 0.0
C1664 C 0.17653 0.05592 0.50789 0.0
H1665 H 0.11408 0.01897 0.46169 0.0
H1666 H 0.13848 0.03509 0.46509 0.0
H1667 H 0.16144 0.03604 0.51493 0.0
H1668 H 0.21295 0.10366 0.52599 0.0
H1669 H 0.1909 0.0835 0.52378 0.0
H1670 H 0.1709 0.07814 0.47447 0.0
C1671 C 0.13226 0.0312 0.47576 0.0
C1672 C 0.16317 0.04538 0.50616 0.0
C1673 C 0.11834 0.0216 0.47379 0.0
C1674 C 0.21018 0.09807 0.51441 0.0
C1675 C 0.19767 0.08649 0.51314 0.0
C1676 C 0.16894 0.0691 0.48344 0.0
C1677 C 0.13802 0.03571 0.49117 0.0
C1678 C 0.1524 0.04674 0.49313 0.0
C1679 C 0.1936 0.07929 0.49818 0.0
C1680 C 0.17958 0.06789 0.49649 0.0
H1681 H 0.10997 0.01555 0.51325 0.0
H1682 H 0.13357 0.03317 0.51666 0.0
H1683 H 0.14732 0.06067 0.47191 0.0
H1684 H 0.22193 0.09815 0.47535 0.0
H1685 H 0.20006 0.078 0.47302 0.0
C1686 C 0.7504 0.12923 0.71676 0.0
C1687 C 0.75755 0.12942 0.70161 0.0
C1688 C 0.73902 0.11726 0.72048 0.0
C1689 C 0.72188 0.07728 0.70642 0.0
H1690 H 0.68794 0.08886 0.73555 0.0
C1691 C 0.66594 0.03591 0.71857 0.0
C1692 C 0.66122 0.035 0.73465 0.0
C1693 C 0.67783 0.04715 0.71405 0.0
C1694 C 0.69727 0.08544 0.72735 0.0
H1695 H 0.75856 0.11742 0.6784 0.0
H1696 H 0.738 0.09689 0.68452 0.0
H1697 H 0.70785 0.10909 0.7281 0.0
H1698 H 0.66606 0.04388 0.75883 0.0
H1699 H 0.68662 0.06368 0.75099 0.0
H1700 H 0.71072 0.05368 0.70534 0.0
C1701 C 0.74151 0.10562 0.69379 0.0
C1702 C 0.70888 0.09701 0.7232 0.0
C1703 C 0.75319 0.11743 0.6902 0.0
C1704 C 0.66906 0.04488 0.74625 0.0
C1705 C 0.68086 0.05613 0.74177 0.0
C1706 C 0.71 0.06578 0.71031 0.0
C1707 C 0.7342 0.10541 0.70898 0.0
C1708 C 0.7215 0.09308 0.71284 0.0
C1709 C 0.68531 0.05748 0.7256 0.0
C1710 C 0.69765 0.06972 0.72093 0.0
H1711 H 0.75378 0.13827 0.7258 0.0
H1712 H 0.73409 0.1173 0.73246 0.0
H1713 H 0.73151 0.07366 0.69862 0.0
H1714 H 0.66026 0.02812 0.70949 0.0
H1715 H 0.68101 0.04794 0.7015 0.0
C1716 C 0.39939 0.04209 0.52947 0.0
C1717 C 0.4018 0.02889 0.51907 0.0
C1718 C 0.38682 0.05255 0.52676 0.0
C1719 C 0.35806 0.06561 0.49558 0.0
H1720 H 0.33398 0.08029 0.5324 0.0
C1721 C 0.29727 0.09779 0.49025 0.0
C1722 C 0.29446 0.11044 0.50121 0.0
C1723 C 0.311 0.08854 0.49173 0.0
C1724 C 0.3407 0.07649 0.522 0.0
H1725 H 0.39287 0.01635 0.49761 0.0
H1726 H 0.37084 0.03453 0.49292 0.0
H1727 H 0.35657 0.06277 0.53634 0.0
H1728 H 0.30412 0.12365 0.52198 0.0
H1729 H 0.32809 0.10764 0.52446 0.0
H1730 H 0.34199 0.07923 0.48125 0.0
C1731 C 0.37884 0.03696 0.50305 0.0
C1732 C 0.35367 0.06643 0.52426 0.0
C1733 C 0.39146 0.02651 0.50575 0.0
C1734 C 0.30589 0.11394 0.51338 0.0
C1735 C 0.31958 0.10469 0.51487 0.0
C1736 C 0.34503 0.07566 0.49332 0.0
C1737 C 0.37629 0.05004 0.51359 0.0
C1738 C 0.36254 0.06086 0.51109 0.0
C1739 C 0.32219 0.09173 0.50422 0.0
C1740 C 0.3362 0.08123 0.50651 0.0
H1741 H 0.40731 0.04443 0.53968 0.0
H1742 H 0.38542 0.06268 0.53494 0.0
H1743 H 0.36474 0.06172 0.48519 0.0
H1744 H 0.28869 0.09477 0.48075 0.0
H1745 H 0.31257 0.07857 0.48339 0.0
C1746 C 0.60844 0.48138 0.51636 0.0
C1747 C 0.61012 0.49502 0.52652 0.0
C1748 C 0.6216 0.47178 0.51313 0.0
C1749 C 0.66211 0.46224 0.52858 0.0
H1750 H 0.667 0.4435 0.48601 0.0
C1751 C 0.71115 0.42442 0.48873 0.0
C1752 C 0.71589 0.41324 0.50022 0.0
C1753 C 0.69879 0.43503 0.49199 0.0
C1754 C 0.66594 0.44878 0.49792 0.0
H1755 H 0.62699 0.50946 0.54103 0.0
H1756 H 0.65002 0.49287 0.53524 0.0
H1757 H 0.64462 0.46097 0.49139 0.0
H1758 H 0.71133 0.4046 0.52426 0.0
H1759 H 0.68967 0.42284 0.52979 0.0
H1760 H 0.68367 0.45037 0.535 0.0
C1761 C 0.63846 0.48935 0.53003 0.0
C1762 C 0.65295 0.45862 0.50107 0.0
C1763 C 0.62527 0.49889 0.53333 0.0
C1764 C 0.70809 0.41309 0.51513 0.0
C1765 C 0.69568 0.42364 0.51835 0.0
C1766 C 0.67515 0.45245 0.52541 0.0
C1767 C 0.63679 0.47566 0.5199 0.0
C1768 C 0.65081 0.46541 0.51647 0.0
C1769 C 0.69079 0.43468 0.50679 0.0
C1770 C 0.67719 0.44552 0.51006 0.0
H1771 H 0.59686 0.47796 0.51111 0.0
H1772 H 0.61978 0.46117 0.50552 0.0
H1773 H 0.66078 0.46711 0.54062 0.0
H1774 H 0.71691 0.42494 0.47714 0.0
H1775 H 0.69553 0.44355 0.4829 0.0
C1776 C 0.70677 0.26895 0.37732 0.0
C1777 C 0.70196 0.25282 0.37991 0.0
C1778 C 0.70831 0.27996 0.39015 0.0
C1779 C 0.71795 0.28248 0.43243 0.0
H1780 H 0.69948 0.32484 0.43116 0.0
C1781 C 0.74138 0.3369 0.4703 0.0
C1782 C 0.73 0.34623 0.47819 0.0
C1783 C 0.73646 0.32466 0.45955 0.0
C1784 C 0.70459 0.31301 0.43171 0.0
H1785 H 0.69466 0.23584 0.3982 0.0
H1786 H 0.69807 0.25497 0.42064 0.0
H1787 H 0.69345 0.30518 0.4095 0.0
H1788 H 0.70465 0.34967 0.48195 0.0
H1789 H 0.6959 0.32843 0.46253 0.0
H1790 H 0.72963 0.29053 0.45428 0.0
C1791 C 0.70052 0.259 0.40858 0.0
C1792 C 0.70122 0.30183 0.41932 0.0
C1793 C 0.6987 0.24804 0.39572 0.0
C1794 C 0.71358 0.34277 0.47569 0.0
C1795 C 0.70862 0.33068 0.46465 0.0
C1796 C 0.72158 0.29377 0.44465 0.0
C1797 C 0.70535 0.27504 0.4059 0.0
C1798 C 0.70799 0.28652 0.41951 0.0
C1799 C 0.72005 0.32157 0.45646 0.0
C1800 C 0.71506 0.30919 0.44431 0.0
H1801 H 0.70973 0.27306 0.36541 0.0
H1802 H 0.71228 0.29223 0.3878 0.0
H1803 H 0.72339 0.27079 0.4328 0.0
H1804 H 0.75412 0.33917 0.47239 0.0
H1805 H 0.7455 0.31788 0.45331 0.0
C1806 C 0.53521 0.03072 0.89843 0.0
C1807 C 0.52491 0.01838 0.90407 0.0
C1808 C 0.54379 0.02861 0.88429 0.0
C1809 C 0.56162 0.99995 0.85717 0.0
H1810 H 0.55541 0.03269 0.82524 0.0
C1811 C 0.59391 0.9994 0.79525 0.0
C1812 C 0.59917 0.01453 0.78967 0.0
C1813 C 0.58406 0.99831 0.80879 0.0
C1814 C 0.55745 0.02352 0.83406 0.0
H1815 H 0.51615 0.99384 0.89939 0.0
H1816 H 0.53172 0.99003 0.87488 0.0
H1817 H 0.54034 0.03363 0.8501 0.0
H1818 H 0.59859 0.04033 0.79434 0.0
H1819 H 0.58206 0.03842 0.81791 0.0
H1820 H 0.57929 0.99023 0.84143 0.0
C1821 C 0.53288 0.00138 0.88145 0.0
C1822 C 0.54874 0.02404 0.84826 0.0
C1823 C 0.52403 0.00358 0.89552 0.0
C1824 C 0.59459 0.02846 0.79808 0.0
C1825 C 0.58497 0.02738 0.81161 0.0
C1826 C 0.57058 0.99956 0.84301 0.0
C1827 C 0.54256 0.01402 0.87557 0.0
C1828 C 0.55093 0.01244 0.86005 0.0
C1829 C 0.57938 0.01233 0.81707 0.0
C1830 C 0.56885 0.01157 0.83143 0.0
H1831 H 0.5366 0.04211 0.90489 0.0
H1832 H 0.55139 0.03845 0.8801 0.0
H1833 H 0.5635 0.99087 0.86613 0.0
H1834 H 0.59723 0.98843 0.78905 0.0
H1835 H 0.57992 0.98652 0.81262 0.0
C1836 C 0.29128 0.25221 0.37486 0.0
C1837 C 0.30389 0.26371 0.37686 0.0
C1838 C 0.28773 0.24125 0.38689 0.0
C1839 C 0.30292 0.21956 0.42076 0.0
H1840 H 0.25849 0.219 0.43435 0.0
C1841 C 0.27705 0.17647 0.46976 0.0
C1842 C 0.2616 0.1699 0.4664 0.0
C1843 C 0.2837 0.18854 0.46002 0.0
C1844 C 0.27091 0.21888 0.43062 0.0
H1845 H 0.32309 0.27217 0.393 0.0
H1846 H 0.31708 0.25253 0.41389 0.0
H1847 H 0.26763 0.23856 0.41481 0.0
H1848 H 0.24143 0.17029 0.44969 0.0
H1849 H 0.25305 0.19073 0.43276 0.0
H1850 H 0.306 0.19936 0.43614 0.0
C1851 C 0.30991 0.25226 0.40297 0.0
C1852 C 0.27614 0.23014 0.41949 0.0
C1853 C 0.31335 0.26344 0.39097 0.0
C1854 C 0.25322 0.17526 0.45287 0.0
C1855 C 0.25987 0.1871 0.44316 0.0
C1856 C 0.29761 0.20807 0.43182 0.0
C1857 C 0.29685 0.24131 0.40114 0.0
C1858 C 0.29207 0.23037 0.41419 0.0
C1859 C 0.27503 0.19415 0.44675 0.0
C1860 C 0.28142 0.20735 0.43654 0.0
H1861 H 0.28403 0.25169 0.36399 0.0
H1862 H 0.27775 0.23273 0.3851 0.0
H1863 H 0.31528 0.21955 0.41683 0.0
H1864 H 0.28383 0.17257 0.48008 0.0
H1865 H 0.29543 0.19372 0.4631 0.0
C1866 C 0.48857 0.49996 0.89644 0.0
C1867 C 0.48655 0.48581 0.90529 0.0
C1868 C 0.47856 0.50285 0.88326 0.0
C1869 C 0.43985 0.48869 0.86395 0.0
H1870 H 0.45778 0.5086 0.82607 0.0
C1871 C 0.41225 0.48057 0.80101 0.0
C1872 C 0.40903 0.49456 0.79239 0.0
C1873 C 0.42116 0.48148 0.81526 0.0
C1874 C 0.45259 0.50323 0.83666 0.0
H1875 H 0.47274 0.46346 0.90716 0.0
H1876 H 0.45566 0.46814 0.88395 0.0
H1877 H 0.47452 0.50613 0.85012 0.0
H1878 H 0.41295 0.52048 0.79188 0.0
H1879 H 0.42912 0.52196 0.81676 0.0
H1880 H 0.41821 0.48503 0.8501 0.0
C1881 C 0.46456 0.47734 0.88741 0.0
C1882 C 0.46214 0.50183 0.85047 0.0
C1883 C 0.4744 0.47458 0.90069 0.0
C1884 C 0.41518 0.5095 0.79827 0.0
C1885 C 0.42445 0.51036 0.81244 0.0
C1886 C 0.43044 0.48986 0.85009 0.0
C1887 C 0.46643 0.49154 0.87852 0.0
C1888 C 0.45598 0.49427 0.86422 0.0
C1889 C 0.42733 0.49634 0.82112 0.0
C1890 C 0.43679 0.4969 0.83625 0.0
H1891 H 0.49776 0.50889 0.89983 0.0
H1892 H 0.48024 0.51402 0.8769 0.0
H1893 H 0.43451 0.48322 0.8744 0.0
H1894 H 0.40771 0.46885 0.7969 0.0
H1895 H 0.42336 0.47049 0.82166 0.0
C1896 C 0.69199 0.7453 0.12798 0.0
C1897 C 0.70405 0.75601 0.13406 0.0
C1898 C 0.6954 0.73399 0.11594 0.0
C1899 C 0.72605 0.72465 0.08494 0.0
H1900 H 0.70358 0.6831 0.08347 0.0
C1901 C 0.74317 0.67233 0.04203 0.0
C1902 C 0.7304 0.66603 0.03247 0.0
C1903 C 0.74022 0.68283 0.05492 0.0
C1904 C 0.70991 0.69468 0.08375 0.0
H1905 H 0.72925 0.7631 0.13198 0.0
H1906 H 0.73537 0.74286 0.11183 0.0
H1907 H 0.69815 0.70223 0.10518 0.0
H1908 H 0.70449 0.66547 0.02922 0.0
H1909 H 0.69937 0.68346 0.05201 0.0
H1910 H 0.73812 0.71677 0.0637 0.0
C1911 C 0.72313 0.74346 0.11602 0.0
C1912 C 0.70674 0.70572 0.09611 0.0
C1913 C 0.71966 0.75493 0.12786 0.0
C1914 C 0.7146 0.67014 0.03632 0.0
C1915 C 0.71164 0.68037 0.04939 0.0
C1916 C 0.72943 0.71349 0.07276 0.0
C1917 C 0.71103 0.73289 0.10978 0.0
C1918 C 0.71467 0.72092 0.09682 0.0
C1919 C 0.72443 0.68696 0.05869 0.0
C1920 C 0.7213 0.69847 0.07199 0.0
H1921 H 0.67988 0.74555 0.13257 0.0
H1922 H 0.68568 0.72627 0.11133 0.0
H1923 H 0.73218 0.73632 0.08481 0.0
H1924 H 0.75548 0.66945 0.03933 0.0
H1925 H 0.75028 0.68771 0.06196 0.0
C1926 C 0.97801 0.03963 0.11708 0.0
C1927 C 0.98986 0.02885 0.11224 0.0
C1928 C 0.96849 0.03641 0.13046 0.0
C1929 C 0.95364 0.00316 0.15538 0.0
H1930 H 0.94547 0.03688 0.1868 0.0
C1931 C 0.92132 0.98943 0.21465 0.0
C1932 C 0.91016 1.00058 0.22025 0.0
C1933 C 0.93139 0.99316 0.20184 0.0
C1934 C 0.94746 0.02737 0.17804 0.0
H1935 H 0.00115 0.00638 0.11797 0.0
H1936 H 0.98435 1.00068 0.1411 0.0
H1937 H 0.96211 0.04287 0.16357 0.0
H1938 H 0.90099 0.0245 0.21674 0.0
H1939 H 0.91832 0.03085 0.19422 0.0
H1940 H 0.93883 0.9877 0.16962 0.0
C1941 C 0.98235 0.01154 0.13443 0.0
C1942 C 0.95702 0.03081 0.16475 0.0
C1943 C 0.99194 0.0148 0.12114 0.0
C1944 C 0.90948 0.01564 0.21282 0.0
C1945 C 0.9195 0.01932 0.19993 0.0
C1946 C 0.944 0.99974 0.16859 0.0
C1947 C 0.97051 0.0223 0.13923 0.0
C1948 C 0.96025 0.01873 0.1533 0.0
C1949 C 0.93051 0.00809 0.1942 0.0
C1950 C 0.94082 0.01178 0.18014 0.0
H1951 H 0.9759 0.05044 0.11039 0.0
H1952 H 0.95932 0.04484 0.13375 0.0
H1953 H 0.95571 0.99366 0.14663 0.0
H1954 H 0.92225 0.97775 0.22012 0.0
H1955 H 0.93992 0.98432 0.19796 0.0
C1956 C 0.3082 0.75601 0.11557 0.0
C1957 C 0.30247 0.7576 0.13132 0.0
C1958 C 0.30561 0.76801 0.10435 0.0
C1959 C 0.29484 0.81085 0.10069 0.0
H1960 H 0.28227 0.79754 0.05742 0.0
C1961 C 0.2668 0.85365 0.05471 0.0
C1962 C 0.27099 0.85175 0.0385 0.0
C1963 C 0.27233 0.843 0.0662 0.0
C1964 C 0.28601 0.80148 0.06938 0.0
H1965 H 0.28949 0.77305 0.14762 0.0
H1966 H 0.28486 0.79394 0.12802 0.0
H1967 H 0.28845 0.77725 0.0771 0.0
H1968 H 0.28487 0.83763 0.02174 0.0
H1969 H 0.29464 0.81915 0.04182 0.0
H1970 H 0.29211 0.83512 0.09296 0.0
C1971 C 0.2916 0.78354 0.12441 0.0
C1972 C 0.28955 0.78984 0.08068 0.0
C1973 C 0.29422 0.77155 0.13564 0.0
C1974 C 0.28135 0.83938 0.03413 0.0
C1975 C 0.28686 0.82871 0.04561 0.0
C1976 C 0.29126 0.82252 0.08937 0.0
C1977 C 0.2972 0.78188 0.1086 0.0
C1978 C 0.29393 0.79436 0.09649 0.0
C1979 C 0.28216 0.8302 0.06172 0.0
C1980 C 0.28674 0.81795 0.07361 0.0
H1981 H 0.31483 0.74553 0.11194 0.0
H1982 H 0.31032 0.76646 0.09237 0.0
H1983 H 0.29841 0.81476 0.1127 0.0
H1984 H 0.25882 0.86306 0.05846 0.0
H1985 H 0.26839 0.84441 0.07849 0.0
C1986 C 0.0264 0.474 0.11159 0.0
C1987 C 0.01475 0.48515 0.10734 0.0
C1988 C 0.03612 0.47667 0.12521 0.0
C1989 C 0.05187 0.50921 0.15197 0.0
H1990 H 0.06091 0.47466 0.18118 0.0
C1991 C 0.08532 0.52159 0.21178 0.0
C1992 C 0.09691 0.51058 0.21654 0.0
C1993 C 0.07494 0.51798 0.19887 0.0
C1994 C 0.05866 0.4844 0.17304 0.0
H1995 H 0.00421 0.50785 0.11405 0.0
H1996 H 0.02109 0.51245 0.13788 0.0
H1997 H 0.04354 0.46932 0.15778 0.0
H1998 H 0.10646 0.48698 0.21151 0.0
H1999 H 0.08849 0.48081 0.18881 0.0
H2000 H 0.06709 0.52426 0.16702 0.0
C2001 C 0.02276 0.50168 0.13063 0.0
C2002 C 0.04869 0.48134 0.15966 0.0
C2003 C 0.01298 0.49897 0.11707 0.0
C2004 C 0.09765 0.49573 0.20822 0.0
C2005 C 0.08729 0.49215 0.19523 0.0
C2006 C 0.06188 0.51226 0.16529 0.0
C2007 C 0.03448 0.4906 0.13482 0.0
C2008 C 0.04513 0.49373 0.14901 0.0
C2009 C 0.07592 0.50332 0.19029 0.0
C2010 C 0.06535 0.49992 0.17605 0.0
H2011 H 0.02795 0.46316 0.10442 0.0
H2012 H 0.04512 0.46796 0.12805 0.0
H2013 H 0.0496 0.51895 0.14384 0.0
H2014 H 0.08429 0.5331 0.21795 0.0
H2015 H 0.06612 0.52673 0.19562 0.0
C2016 C 0.38637 0.69087 0.25442 0.0
C2017 C 0.38163 0.7037 0.2448 0.0
C2018 C 0.39877 0.69307 0.26578 0.0
C2019 C 0.43251 0.72151 0.2776 0.0
H2020 H 0.42849 0.70115 0.31898 0.0
C2021 C 0.46584 0.74416 0.33467 0.0
C2022 C 0.47405 0.73272 0.34352 0.0
C2023 C 0.45571 0.73929 0.32198 0.0
C2024 C 0.42982 0.70675 0.30741 0.0
H2025 H 0.38661 0.72882 0.23937 0.0
H2026 H 0.40747 0.73285 0.25959 0.0
H2027 H 0.40837 0.69522 0.29802 0.0
H2028 H 0.47897 0.70741 0.34573 0.0
H2029 H 0.46062 0.69871 0.32368 0.0
H2030 H 0.45353 0.73365 0.28738 0.0
C2031 C 0.40193 0.72096 0.25818 0.0
C2032 C 0.41835 0.70333 0.29536 0.0
C2033 C 0.38971 0.71871 0.24673 0.0
C2034 C 0.47245 0.71636 0.3392 0.0
C2035 C 0.46201 0.71142 0.32666 0.0
C2036 C 0.44378 0.72512 0.28973 0.0
C2037 C 0.40663 0.70819 0.26788 0.0
C2038 C 0.41943 0.71085 0.28036 0.0
C2039 C 0.45358 0.72288 0.31796 0.0
C2040 C 0.44243 0.71793 0.30478 0.0
H2041 H 0.38034 0.67917 0.25341 0.0
H2042 H 0.40218 0.68289 0.27288 0.0
H2043 H 0.43401 0.72721 0.2661 0.0
H2044 H 0.46725 0.75689 0.33759 0.0
H2045 H 0.44928 0.74834 0.31548 0.0
C2046 C 0.99079 0.40164 0.97501 0.0
C2047 C 0.97806 0.4025 0.98596 0.0
C2048 C 0.99294 0.38768 0.9657 0.0
C2049 C 0.97067 0.352 0.94963 0.0
H2050 H 0.01272 0.33391 0.94386 0.0
C2051 C 0.97726 0.28971 0.92034 0.0
C2052 C 0.9897 0.28761 0.90926 0.0
C2053 C 0.97678 0.30359 0.92996 0.0
C2054 C 1.00093 0.33891 0.9452 0.0
H2055 H 0.95792 0.38908 0.99602 0.0
H2056 H 0.96154 0.3649 0.97966 0.0
H2057 H 0.01004 0.35861 0.95995 0.0
H2058 H 0.01169 0.29834 0.89998 0.0
H2059 H 0.01072 0.3228 0.91667 0.0
H2060 H 0.9615 0.33255 0.93482 0.0
C2061 C 0.96974 0.37511 0.97812 0.0
C2062 C 0.9994 0.35305 0.95442 0.0
C2063 C 0.96764 0.389 0.98747 0.0
C2064 C 0.00196 0.29955 0.90842 0.0
C2065 C 0.00142 0.31356 0.91801 0.0
C2066 C 0.9722 0.33797 0.94037 0.0
C2067 C 0.98235 0.37431 0.96707 0.0
C2068 C 0.98421 0.35964 0.95687 0.0
C2069 C 0.98866 0.31586 0.9287 0.0
C2070 C 0.98731 0.33113 0.93818 0.0
H2071 H 0.99893 0.41187 0.97339 0.0
H2072 H 0.00268 0.38749 0.95717 0.0
H2073 H 0.95886 0.35696 0.95101 0.0
H2074 H 0.96771 0.28068 0.92149 0.0
H2075 H 0.967 0.30476 0.93835 0.0
C2076 C 0.61649 0.79323 0.25097 0.0
C2077 C 0.62543 0.80784 0.25095 0.0
C2078 C 0.60562 0.78996 0.26325 0.0
C2079 C 0.58186 0.80917 0.29514 0.0
H2080 H 0.58123 0.7664 0.31315 0.0
C2081 C 0.53141 0.78505 0.33634 0.0
C2082 C 0.53567 0.7749 0.34893 0.0
C2083 C 0.54293 0.79043 0.32543 0.0
C2084 C 0.58137 0.77845 0.30838 0.0
H2085 H 0.62955 0.83069 0.26353 0.0
H2086 H 0.61066 0.82491 0.28505 0.0
H2087 H 0.59993 0.77292 0.29174 0.0
H2088 H 0.55551 0.76305 0.36039 0.0
H2089 H 0.57567 0.77256 0.3414 0.0
H2090 H 0.56332 0.8147 0.31187 0.0
C2091 C 0.61204 0.81601 0.27554 0.0
C2092 C 0.59194 0.78212 0.29596 0.0
C2093 C 0.62297 0.81925 0.2633 0.0
C2094 C 0.55183 0.77082 0.35079 0.0
C2095 C 0.56336 0.77616 0.33984 0.0
C2096 C 0.57123 0.80547 0.30754 0.0
C2097 C 0.60337 0.80124 0.27576 0.0
C2098 C 0.59224 0.79748 0.28912 0.0
C2099 C 0.55897 0.78575 0.32684 0.0
C2100 C 0.57082 0.79004 0.31426 0.0
H2101 H 0.6182 0.78414 0.24172 0.0
H2102 H 0.59897 0.77856 0.26296 0.0
H2103 H 0.58174 0.82109 0.29007 0.0
H2104 H 0.51905 0.78841 0.33457 0.0
H2105 H 0.53913 0.79769 0.31549 0.0
C2106 C 0.01972 0.10897 0.97695 0.0
C2107 C 0.02674 0.11153 0.99224 0.0
C2108 C 0.01697 0.12192 0.96687 0.0
C2109 C 0.01073 0.16547 0.96755 0.0
H2110 H 0.02083 0.16256 0.92224 0.0
C2111 C 0.98731 0.21009 0.92094 0.0
C2112 C 0.99825 0.2158 0.90944 0.0
C2113 C 0.99147 0.1978 0.9313 0.0
C2114 C 0.01805 0.16359 0.93489 0.0
H2115 H 0.03662 0.12983 0.00875 0.0
H2116 H 0.0315 0.15242 0.99127 0.0
H2117 H 0.02698 0.1402 0.93978 0.0
H2118 H 0.02221 0.21298 0.89989 0.0
H2119 H 0.02939 0.19142 0.91796 0.0
H2120 H 0.00172 0.18882 0.96264 0.0
C2121 C 0.02805 0.14036 0.98716 0.0
C2122 C 0.02143 0.15074 0.94489 0.0
C2123 C 0.03093 0.1274 0.99719 0.0
C2124 C 0.01349 0.20892 0.90861 0.0
C2125 C 0.01758 0.1965 0.91889 0.0
C2126 C 0.00721 0.17825 0.95751 0.0
C2127 C 0.02104 0.13776 0.9719 0.0
C2128 C 0.01777 0.15153 0.96132 0.0
C2129 C 0.00661 0.1908 0.93033 0.0
C2130 C 0.01078 0.17743 0.94107 0.0
H2131 H 0.01607 0.09696 0.97283 0.0
H2132 H 0.01134 0.11956 0.95526 0.0
H2133 H 0.00767 0.16638 0.98013 0.0
H2134 H 0.97548 0.21509 0.92194 0.0
H2135 H 0.9827 0.19354 0.93989 0.0
C2136 C 0.38875 0.29376 0.26084 0.0
C2137 C 0.38048 0.30815 0.25907 0.0
C2138 C 0.40045 0.28935 0.24983 0.0
C2139 C 0.4145 0.29724 0.20847 0.0
H2140 H 0.45128 0.27352 0.22285 0.0
C2141 C 0.46594 0.27743 0.16627 0.0
C2142 C 0.46948 0.261 0.16715 0.0
C2143 C 0.45594 0.28455 0.17765 0.0
C2144 C 0.44106 0.28013 0.21867 0.0
H2145 H 0.37818 0.32935 0.24452 0.0
H2146 H 0.39893 0.32187 0.22545 0.0
H2147 H 0.43244 0.28377 0.2425 0.0
H2148 H 0.46559 0.23927 0.18088 0.0
H2149 H 0.44843 0.25176 0.20079 0.0
H2150 H 0.42335 0.29363 0.1846 0.0
C2151 C 0.39613 0.31379 0.23515 0.0
C2152 C 0.4302 0.28594 0.22991 0.0
C2153 C 0.38428 0.31812 0.2461 0.0
C2154 C 0.46306 0.25194 0.1798 0.0
C2155 C 0.45332 0.2591 0.19128 0.0
C2156 C 0.42551 0.29159 0.19724 0.0
C2157 C 0.40433 0.2993 0.23684 0.0
C2158 C 0.41659 0.29429 0.22494 0.0
C2159 C 0.44957 0.27544 0.19027 0.0
C2160 C 0.43872 0.28272 0.20222 0.0
H2161 H 0.38589 0.2857 0.27056 0.0
H2162 H 0.4062 0.27793 0.25135 0.0
H2163 H 0.40409 0.30344 0.20415 0.0
H2164 H 0.47065 0.28473 0.15664 0.0
H2165 H 0.45327 0.29719 0.17664 0.0
C2166 C 0.52641 0.38754 0.02156 0.0
C2167 C 0.51972 0.40265 0.02458 0.0
C2168 C 0.52319 0.37462 0.03167 0.0
C2169 C 0.51059 0.3651 0.07274 0.0
H2170 H 0.50277 0.32222 0.05464 0.0
C2171 C 0.51344 0.30714 0.11017 0.0
C2172 C 0.50217 0.29463 0.10664 0.0
C2173 C 0.51423 0.32088 0.10069 0.0
C2174 C 0.50477 0.33414 0.0599 0.0
H2175 H 0.50443 0.41601 0.04065 0.0
H2176 H 0.49871 0.39336 0.05826 0.0
H2177 H 0.50652 0.34499 0.03683 0.0
H2178 H 0.48258 0.28694 0.0907 0.0
H2179 H 0.48393 0.31095 0.07422 0.0
H2180 H 0.50884 0.35422 0.09582 0.0
C2181 C 0.50651 0.39157 0.0481 0.0
C2182 C 0.5071 0.34716 0.04969 0.0
C2183 C 0.50966 0.40449 0.03792 0.0
C2184 C 0.49143 0.29635 0.09371 0.0
C2185 C 0.49227 0.31005 0.0842 0.0
C2186 C 0.50834 0.35206 0.08297 0.0
C2187 C 0.51326 0.37649 0.04509 0.0
C2188 C 0.51015 0.36277 0.05598 0.0
C2189 C 0.50382 0.32238 0.08745 0.0
C2190 C 0.50549 0.33641 0.07666 0.0
H2191 H 0.53408 0.38568 0.0113 0.0
H2192 H 0.52871 0.36321 0.0291 0.0
H2193 H 0.51303 0.37696 0.07797 0.0
H2194 H 0.52189 0.30618 0.12004 0.0
H2195 H 0.52337 0.33008 0.10343 0.0
C2196 C 0.62889 0.19464 0.2435 0.0
C2197 C 0.63486 0.20719 0.25368 0.0
C2198 C 0.61645 0.1973 0.23254 0.0
C2199 C 0.59815 0.2282 0.2088 0.0
H2200 H 0.55948 0.20115 0.20933 0.0
C2201 C 0.54232 0.2428 0.17051 0.0
C2202 C 0.53261 0.22992 0.1645 0.0
C2203 C 0.55488 0.24004 0.1813 0.0
C2204 C 0.57028 0.20866 0.20876 0.0
H2205 H 0.63199 0.23238 0.26035 0.0
H2206 H 0.61085 0.23709 0.24073 0.0
H2207 H 0.58144 0.19599 0.22791 0.0
H2208 H 0.52874 0.20399 0.16483 0.0
H2209 H 0.55103 0.19908 0.18288 0.0
H2210 H 0.58741 0.24057 0.18934 0.0
C2211 C 0.61586 0.22521 0.24133 0.0
C2212 C 0.58282 0.20572 0.2195 0.0
C2213 C 0.62807 0.22249 0.2525 0.0
C2214 C 0.53591 0.21421 0.16931 0.0
C2215 C 0.54866 0.21141 0.17982 0.0
C2216 C 0.58576 0.23095 0.19783 0.0
C2217 C 0.60991 0.21263 0.23131 0.0
C2218 C 0.59681 0.21552 0.21967 0.0
C2219 C 0.55825 0.22428 0.18611 0.0
C2220 C 0.57159 0.22127 0.19769 0.0
H2221 H 0.63395 0.18277 0.24379 0.0
H2222 H 0.61211 0.18745 0.22484 0.0
H2223 H 0.60891 0.23584 0.20864 0.0
H2224 H 0.54 0.25507 0.16716 0.0
H2225 H 0.56175 0.25032 0.18607 0.0
C2226 C 0.47592 0.11385 0.02808 0.0
C2227 C 0.48875 0.107 0.01982 0.0
C2228 C 0.47827 0.12817 0.03696 0.0
C2229 C 0.50778 0.15155 0.05988 0.0
H2230 H 0.48151 0.18835 0.05144 0.0
C2231 C 0.51799 0.211 0.09553 0.0
C2232 C 0.5042 0.21909 0.10019 0.0
C2233 C 0.51685 0.19831 0.08429 0.0
C2234 C 0.48882 0.17815 0.05415 0.0
H2235 H 0.51409 0.1095 0.01447 0.0
H2236 H 0.51834 0.13438 0.0305 0.0
H2237 H 0.47765 0.1637 0.03535 0.0
H2238 H 0.47887 0.22185 0.09546 0.0
H2239 H 0.47657 0.19935 0.0764 0.0
H2240 H 0.51843 0.16547 0.07917 0.0
C2241 C 0.50645 0.12875 0.02988 0.0
C2242 C 0.48664 0.16407 0.04484 0.0
C2243 C 0.50402 0.11461 0.02071 0.0
C2244 C 0.48953 0.21527 0.0925 0.0
C2245 C 0.48832 0.20255 0.08134 0.0
C2246 C 0.50974 0.16549 0.06942 0.0
C2247 C 0.49358 0.13569 0.03799 0.0
C2248 C 0.49609 0.15067 0.04764 0.0
C2249 C 0.50189 0.19359 0.07737 0.0
C2250 C 0.50028 0.179 0.06671 0.0
H2251 H 0.46403 0.10821 0.02749 0.0
H2252 H 0.4682 0.13328 0.04319 0.0
H2253 H 0.5151 0.14127 0.06234 0.0
H2254 H 0.52955 0.21418 0.10095 0.0
H2255 H 0.52768 0.19211 0.08116 0.0
C2256 C 0.25521 0.38238 0.7189 0.0
C2257 C 0.24724 0.38193 0.70401 0.0
C2258 C 0.26694 0.39429 0.72235 0.0
C2259 C 0.28401 0.43366 0.70832 0.0
H2260 H 0.31943 0.42167 0.73568 0.0
C2261 C 0.34125 0.47431 0.72007 0.0
C2262 C 0.34659 0.47523 0.73608 0.0
C2263 C 0.32903 0.4632 0.71543 0.0
C2264 C 0.30969 0.42521 0.72797 0.0
H2265 H 0.24503 0.39345 0.68104 0.0
H2266 H 0.26614 0.41392 0.6867 0.0
H2267 H 0.29874 0.40175 0.72852 0.0
H2268 H 0.34253 0.4665 0.76007 0.0
H2269 H 0.32145 0.44694 0.75203 0.0
H2270 H 0.29553 0.45708 0.70747 0.0
C2271 C 0.26306 0.40541 0.69595 0.0
C2272 C 0.29764 0.41381 0.72399 0.0
C2273 C 0.25105 0.39366 0.69264 0.0
C2274 C 0.33906 0.46549 0.74752 0.0
C2275 C 0.32695 0.45438 0.74293 0.0
C2276 C 0.29632 0.44499 0.71204 0.0
C2277 C 0.27127 0.40581 0.71083 0.0
C2278 C 0.28447 0.41792 0.71434 0.0
C2279 C 0.32188 0.45301 0.72682 0.0
C2280 C 0.30919 0.44091 0.72207 0.0
H2281 H 0.25228 0.37355 0.72791 0.0
H2282 H 0.27257 0.39444 0.73412 0.0
H2283 H 0.27399 0.43738 0.70104 0.0
H2284 H 0.34669 0.482 0.71113 0.0
H2285 H 0.32535 0.4624 0.70293 0.0
C2286 C 0.25242 0.61524 0.80845 0.0
C2287 C 0.25462 0.63146 0.80422 0.0
C2288 C 0.26454 0.6042 0.80575 0.0
C2289 C 0.30034 0.59771 0.78096 0.0
H2290 H 0.31044 0.56584 0.81273 0.0
C2291 C 0.35322 0.55541 0.77223 0.0
C2292 C 0.35025 0.53909 0.77561 0.0
C2293 C 0.3424 0.56709 0.77707 0.0
C2294 C 0.30768 0.57458 0.80368 0.0
H2295 H 0.27124 0.64875 0.79366 0.0
H2296 H 0.29243 0.62958 0.78916 0.0
H2297 H 0.2896 0.58526 0.81823 0.0
H2298 H 0.33393 0.52228 0.78728 0.0
H2299 H 0.31499 0.54261 0.79557 0.0
H2300 H 0.31821 0.58697 0.7663 0.0
C2301 C 0.2813 0.62535 0.79448 0.0
C2302 C 0.29573 0.5857 0.80683 0.0
C2303 C 0.26921 0.63638 0.79722 0.0
C2304 C 0.33658 0.53477 0.78451 0.0
C2305 C 0.32574 0.54644 0.78932 0.0
C2306 C 0.31225 0.5866 0.7778 0.0
C2307 C 0.27911 0.60913 0.79869 0.0
C2308 C 0.2919 0.59737 0.79549 0.0
C2309 C 0.32835 0.5627 0.78536 0.0
C2310 C 0.31606 0.57487 0.7891 0.0
H2311 H 0.24137 0.61109 0.81399 0.0
H2312 H 0.26242 0.59175 0.80899 0.0
H2313 H 0.29751 0.60636 0.77185 0.0
H2314 H 0.36368 0.55914 0.76546 0.0
H2315 H 0.34494 0.57954 0.77409 0.0
C2316 C 0.9002 0.47038 0.47732 0.0
C2317 C 0.90554 0.48203 0.48875 0.0
C2318 C 0.88656 0.46073 0.48007 0.0
C2319 C 0.84958 0.45878 0.50454 0.0
H2320 H 0.84681 0.41534 0.48667 0.0
C2321 C 0.79436 0.41403 0.51076 0.0
C2322 C 0.78862 0.40791 0.49586 0.0
C2323 C 0.80897 0.42282 0.51178 0.0
C2324 C 0.84745 0.42744 0.49176 0.0
H2325 H 0.90069 0.49244 0.51222 0.0
H2326 H 0.8772 0.47515 0.5173 0.0
H2327 H 0.87211 0.43071 0.48545 0.0
H2328 H 0.7938 0.40624 0.47038 0.0
H2329 H 0.81929 0.42117 0.47228 0.0
H2330 H 0.82481 0.45526 0.51093 0.0
C2331 C 0.88342 0.47372 0.50602 0.0
C2332 C 0.8619 0.43631 0.49097 0.0
C2333 C 0.89703 0.48351 0.5032 0.0
C2334 C 0.7978 0.41078 0.48205 0.0
C2335 C 0.81246 0.41926 0.48312 0.0
C2336 C 0.83516 0.44978 0.50553 0.0
C2337 C 0.87793 0.46227 0.49443 0.0
C2338 C 0.86305 0.45226 0.49695 0.0
C2339 C 0.81822 0.42532 0.49797 0.0
C2340 C 0.83388 0.43418 0.49878 0.0
H2341 H 0.90657 0.46868 0.46616 0.0
H2342 H 0.8826 0.45226 0.47072 0.0
H2343 H 0.84993 0.47106 0.50914 0.0
H2344 H 0.78757 0.41206 0.52161 0.0
H2345 H 0.81319 0.42741 0.52336 0.0
C2346 C 0.75577 0.89516 0.80608 0.0
C2347 C 0.75405 0.87898 0.80092 0.0
C2348 C 0.74354 0.90601 0.80325 0.0
C2349 C 0.70852 0.9123 0.77686 0.0
H2350 H 0.69696 0.94357 0.80958 0.0
C2351 C 0.65555 0.95436 0.76751 0.0
C2352 C 0.6583 0.97064 0.77185 0.0
C2353 C 0.66631 0.94268 0.77225 0.0
C2354 C 0.70013 0.93499 0.80027 0.0
H2355 H 0.7382 0.86159 0.78858 0.0
H2356 H 0.7168 0.88043 0.78384 0.0
H2357 H 0.71779 0.92429 0.81527 0.0
H2358 H 0.67419 0.98734 0.78506 0.0
H2359 H 0.69303 0.96702 0.79321 0.0
H2360 H 0.69105 0.92307 0.76179 0.0
C2361 C 0.72764 0.88476 0.78999 0.0
C2362 C 0.71208 0.92396 0.80353 0.0
C2363 C 0.73984 0.87392 0.79285 0.0
C2364 C 0.67171 0.9749 0.78154 0.0
C2365 C 0.68248 0.96322 0.78627 0.0
C2366 C 0.6966 0.92333 0.7736 0.0
C2367 C 0.72934 0.90094 0.79513 0.0
C2368 C 0.71645 0.91252 0.79183 0.0
C2369 C 0.68008 0.94701 0.78143 0.0
C2370 C 0.69229 0.93486 0.78524 0.0
H2371 H 0.7665 0.89941 0.81246 0.0
H2372 H 0.7453 0.91842 0.80722 0.0
H2373 H 0.71177 0.90381 0.7675 0.0
H2374 H 0.64529 0.95068 0.7601 0.0
H2375 H 0.66395 0.93027 0.76856 0.0
C2376 C 0.61786 0.52517 0.97208 0.0
C2377 C 0.61085 0.51723 0.98517 0.0
C2378 C 0.63166 0.53494 0.97415 0.0
C2379 C 0.66496 0.54554 0.00326 0.0
H2380 H 0.66934 0.58288 0.9763 0.0
C2381 C 0.71171 0.59824 0.01397 0.0
C2382 C 0.71966 0.60382 1.00027 0.0
C2383 C 0.69905 0.58685 0.01247 0.0
C2384 C 0.66831 0.57249 0.98388 0.0
H2385 H 0.61326 0.51333 0.01079 0.0
H2386 H 0.63664 0.53117 0.01457 0.0
H2387 H 0.64577 0.56527 0.97338 0.0
H2388 H 0.72195 0.60075 0.97457 0.0
H2389 H 0.69953 0.58115 0.97182 0.0
H2390 H 0.68736 0.55344 0.01417 0.0
C2391 C 0.63173 0.52947 0.00256 0.0
C2392 C 0.65484 0.56225 0.98213 0.0
C2393 C 0.61808 0.51941 1.00043 0.0
C2394 C 0.71548 0.59713 0.98519 0.0
C2395 C 0.70277 0.58585 0.98366 0.0
C2396 C 0.67832 0.55605 0.00522 0.0
C2397 C 0.63869 0.53743 0.98945 0.0
C2398 C 0.65301 0.54851 0.99167 0.0
C2399 C 0.69429 0.58076 0.99726 0.0
C2400 C 0.68016 0.56957 0.99544 0.0
H2401 H 0.61259 0.52407 0.96017 0.0
H2402 H 0.63679 0.54054 0.96367 0.0
H2403 H 0.66417 0.53498 0.01068 0.0
H2404 H 0.71503 0.60299 0.02577 0.0
H2405 H 0.69272 0.58312 0.02314 0.0
C2406 C 0.2548 0.61788 0.18928 0.0
C2407 C 0.25913 0.62995 0.2006 0.0
C2408 C 0.24322 0.60601 0.19299 0.0
C2409 C 0.21064 0.59763 0.22246 0.0
H2410 H 0.21235 0.55415 0.20496 0.0
C2411 C 0.17042 0.54601 0.24584 0.0
C2412 C 0.16264 0.53599 0.23431 0.0
C2413 C 0.18232 0.55713 0.24129 0.0
C2414 C 0.21167 0.56629 0.20983 0.0
H2415 H 0.25548 0.63886 0.2248 0.0
H2416 H 0.23598 0.61778 0.23167 0.0
H2417 H 0.23322 0.57402 0.1981 0.0
H2418 H 0.16184 0.52875 0.20925 0.0
H2419 H 0.18273 0.54837 0.20114 0.0
H2420 H 0.18964 0.58969 0.23482 0.0
C2421 C 0.24085 0.61772 0.21967 0.0
C2422 C 0.22359 0.57772 0.20586 0.0
C2423 C 0.25213 0.62974 0.21583 0.0
C2424 C 0.16749 0.53665 0.21826 0.0
C2425 C 0.17946 0.54777 0.21367 0.0
C2426 C 0.19898 0.58615 0.22667 0.0
C2427 C 0.236 0.60583 0.20822 0.0
C2428 C 0.22326 0.59357 0.21217 0.0
C2429 C 0.1869 0.55823 0.22514 0.0
C2430 C 0.1993 0.57037 0.22039 0.0
H2431 H 0.26006 0.61789 0.17743 0.0
H2432 H 0.2397 0.59722 0.18378 0.0
H2433 H 0.20965 0.60976 0.22726 0.0
H2434 H 0.16732 0.54521 0.25841 0.0
H2435 H 0.18804 0.56477 0.25046 0.0
C2436 C 0.89274 0.52545 0.00438 0.0
C2437 C 0.90269 0.52799 0.01797 0.0
C2438 C 0.88018 0.53581 0.00119 0.0
C2439 C 0.86552 0.57656 0.01077 0.0
H2440 H 0.82407 0.55806 0.99772 0.0
C2441 C 0.80726 0.61263 0.01271 0.0
C2442 C 0.79567 0.60979 1.00055 0.0
C2443 C 0.82091 0.60324 0.01355 0.0
C2444 C 0.83562 0.56346 0.00111 0.0
H2445 H 0.90743 0.54366 0.03867 0.0
H2446 H 0.88538 0.56157 0.03326 0.0
H2447 H 0.84671 0.54052 0.00163 0.0
H2448 H 0.78954 0.59515 0.97945 0.0
H2449 H 0.81348 0.57887 0.9808 0.0
H2450 H 0.85439 0.59948 0.01039 0.0
C2451 C 0.88736 0.55163 0.02498 0.0
C2452 C 0.84861 0.55339 0.00337 0.0
C2453 C 0.89988 0.54125 0.02819 0.0
C2454 C 0.79823 0.59761 0.989 0.0
C2455 C 0.81189 0.58821 0.98984 0.0
C2456 C 0.85254 0.58663 0.00849 0.0
C2457 C 0.8773 0.549 0.01148 0.0
C2458 C 0.86368 0.5598 0.00837 0.0
C2459 C 0.82332 0.59078 0.00224 0.0
C2460 C 0.83738 0.58019 0.00377 0.0
H2461 H 0.89448 0.51527 0.99633 0.0
H2462 H 0.87275 0.53352 0.99061 0.0
H2463 H 0.87703 0.58191 0.01436 0.0
H2464 H 0.80564 0.62189 0.02182 0.0
H2465 H 0.82934 0.60544 0.02338 0.0
C2466 C 0.11121 0.98055 0.03973 0.0
C2467 C 0.10716 0.99265 0.02891 0.0
C2468 C 0.12408 0.97051 0.03661 0.0
C2469 C 0.1485 0.95494 0.00355 0.0
H2470 H 0.17931 0.94561 0.03709 0.0
C2471 C 0.20717 0.92284 0.98951 0.0
C2472 C 0.2126 0.91138 1.0004 0.0
C2473 C 0.19439 0.93266 0.99339 0.0
C2474 C 0.1707 0.94791 0.02764 0.0
H2475 H 0.11376 0.00387 0.00648 0.0
H2476 H 0.136 0.98621 1.00096 0.0
H2477 H 0.15673 0.96279 0.04313 0.0
H2478 H 0.20878 0.90135 0.02399 0.0
H2479 H 0.18625 0.91832 0.03064 0.0
H2480 H 0.16227 0.93998 0.98809 0.0
C2481 C 0.1291 0.98439 0.01177 0.0
C2482 C 0.15778 0.95778 0.0311 0.0
C2483 C 0.11632 0.99449 0.01493 0.0
C2484 C 0.20497 0.91009 0.01534 0.0
C2485 C 0.19209 0.91988 0.01919 0.0
C2486 C 0.16134 0.94501 1.00012 0.0
C2487 C 0.13311 0.97228 0.02255 0.0
C2488 C 0.14662 0.96149 0.01905 0.0
C2489 C 0.18658 0.93123 0.00821 0.0
C2490 C 0.17268 0.94147 0.01207 0.0
H2491 H 0.10428 0.97862 0.05049 0.0
H2492 H 0.12677 0.96116 0.04505 0.0
H2493 H 0.13994 0.95736 0.99409 0.0
H2494 H 0.21281 0.92427 0.97794 0.0
H2495 H 0.19069 0.94148 0.98477 0.0
loop_
_geom_bond_atom_site_label_1
_geom_bond_atom_site_label_2
_geom_bond_distance
_geom_bond_site_symmetry_2
_ccdc_geom_bond_type
C0 C1 1.386 . S
C0 C2 1.397 . S
C0 H24 0.931 . S
C1 C0 1.386 . S
C1 C5 1.397 1_556 S
C2 C0 1.397 . S
C2 C3 1.384 1_556 S
C2 H25 0.930 . S
C3 C2 1.384 1_554 S
C3 C4 1.377 . S
C3 C6 1.481 . S
C4 C3 1.377 . S
C4 C5 1.389 . S
C4 H26 0.929 . S
C5 C1 1.397 1_554 S
C5 C4 1.389 . S
C5 H27 0.931 . S
C6 C3 1.481 . S
C6 C7 1.387 . S
C6 C11 1.390 . S
C7 C6 1.387 . S
C7 C8 1.401 . S
C7 H28 0.930 . S
C8 C7 1.401 . S
C8 C9 1.376 . S
C8 C17 1.511 . S
C9 C8 1.376 . S
C9 C10 1.392 . S
C9 H30 0.931 . S
C10 C9 1.392 . S
C10 C11 1.361 . S
C10 C12 1.500 . S
C11 C6 1.390 . S
C11 C10 1.361 . S
C11 H29 0.931 . S
C12 C10 1.500 . S
C12 C13 1.371 . S
C12 C14 1.365 . S
C13 C12 1.371 . S
C13 C23 1.386 1_455 S
C13 H31 0.931 . S
C14 C12 1.365 . S
C14 C15 1.409 1_455 S
C14 H32 0.929 . S
C15 C14 1.409 1_655 S
C15 C16 1.380 . S
C15 H33 0.930 . S
C16 C15 1.380 . S
C16 C23 1.357 . S
C17 C8 1.511 . S
C17 C18 1.341 . S
C17 C19 1.371 . S
C18 C17 1.341 . S
C18 C22 1.429 . S
C18 H34 0.930 . S
C19 C17 1.371 . S
C19 C20 1.392 1_545 S
C19 H35 0.931 . S
C20 C19 1.392 1_565 S
C20 C21 1.331 . S
C20 H38 0.932 . S
C21 C20 1.331 . S
C21 C22 1.305 1_565 S
C22 C18 1.429 . S
C22 C21 1.305 1_545 S
C22 H37 0.928 . S
C23 C13 1.386 1_655 S
C23 C16 1.357 . S
C23 H36 0.928 . S
H24 C0 0.931 . S
H25 C2 0.930 . S
H26 C4 0.929 . S
H27 C5 0.931 . S
H28 C7 0.930 . S
H29 C11 0.931 . S
H30 C9 0.931 . S
H31 C13 0.931 . S
H32 C14 0.929 . S
H33 C15 0.930 . S
H34 C18 0.930 . S
H35 C19 0.931 . S
H36 C23 0.928 . S
H37 C22 0.928 . S
H38 C20 0.932 . S
C39 C40 1.386 . S
C39 C41 1.397 . S
C39 H63 0.931 . S
C40 C39 1.386 . S
C40 C44 1.397 . S
C41 C39 1.397 . S
C41 C42 1.384 . S
C41 H64 0.930 . S
C42 C41 1.384 . S
C42 C43 1.377 . S
C42 C45 1.481 . S
C43 C42 1.377 . S
C43 C44 1.389 . S
C43 H65 0.929 . S
C44 C40 1.397 . S
C44 C43 1.389 . S
C44 H66 0.931 . S
C45 C42 1.481 . S
C45 C46 1.387 . S
C45 C50 1.390 . S
C46 C45 1.387 . S
C46 C47 1.401 . S
C46 H67 0.930 . S
C47 C46 1.401 . S
C47 C48 1.376 . S
C47 C56 1.511 . S
C48 C47 1.376 . S
C48 C49 1.392 . S
C48 H69 0.931 . S
C49 C48 1.392 . S
C49 C50 1.361 . S
C49 C51 1.500 . S
C50 C45 1.390 . S
C50 C49 1.361 . S
C50 H68 0.931 . S
C51 C49 1.500 . S
C51 C52 1.371 . S
C51 C53 1.365 . S
C52 C51 1.371 . S
C52 C62 1.386 . S
C52 H70 0.931 . S
C53 C51 1.365 . S
C53 C54 1.409 . S
C53 H71 0.929 . S
C54 C53 1.409 . S
C54 C55 1.380 . S
C54 H72 0.930 . S
C55 C54 1.380 . S
C55 C62 1.357 . S
C56 C47 1.511 . S
C56 C57 1.341 . S
C56 C58 1.371 . S
C57 C56 1.341 . S
C57 C61 1.394 . S
C57 H73 0.930 . S
C58 C56 1.371 . S
C58 C59 1.392 . S
C58 H74 0.931 . S
C59 C58 1.392 . S
C59 C60 1.331 . S
C59 H77 0.932 . S
C60 C59 1.331 . S
C60 C61 1.336 . S
C61 C57 1.394 . S
C61 C60 1.336 . S
C61 H76 0.929 . S
C62 C52 1.386 . S
C62 C55 1.357 . S
C62 H75 0.928 . S
H63 C39 0.931 . S
H64 C41 0.930 . S
H65 C43 0.929 . S
H66 C44 0.931 . S
H67 C46 0.930 . S
H68 C50 0.931 . S
H69 C48 0.931 . S
H70 C52 0.931 . S
H71 C53 0.929 . S
H72 C54 0.930 . S
H73 C57 0.930 . S
H74 C58 0.931 . S
H75 C62 0.928 . S
H76 C61 0.929 . S
H77 C59 0.932 . S
C78 C79 1.386 1_655 S
C78 C80 1.397 . S
C78 H102 0.931 . S
C79 C78 1.386 1_455 S
C79 C83 1.397 . S
C80 C78 1.397 . S
C80 C81 1.384 . S
C80 H103 0.930 . S
C81 C80 1.384 . S
C81 C82 1.377 1_655 S
C81 C84 1.481 . S
C82 C81 1.377 1_455 S
C82 C83 1.389 . S
C82 H104 0.929 . S
C83 C79 1.397 . S
C83 C82 1.389 . S
C83 H105 0.931 . S
C84 C81 1.481 . S
C84 C85 1.387 . S
C84 C89 1.390 . S
C85 C84 1.387 . S
C85 C86 1.401 . S
C85 H106 0.930 . S
C86 C85 1.401 . S
C86 C87 1.376 . S
C86 C95 1.511 . S
C87 C86 1.376 . S
C87 C88 1.392 . S
C87 H108 0.931 . S
C88 C87 1.392 . S
C88 C89 1.361 . S
C88 C90 1.500 . S
C89 C84 1.390 . S
C89 C88 1.361 . S
C89 H107 0.931 . S
C90 C88 1.500 . S
C90 C91 1.371 . S
C90 C92 1.365 . S
C91 C90 1.371 . S
C91 C101 1.386 1_554 S
C91 H109 0.931 . S
C92 C90 1.365 . S
C92 C93 1.409 1_554 S
C92 H110 0.929 . S
C93 C92 1.409 1_556 S
C93 C94 1.380 . S
C93 H111 0.941 . S
C94 C93 1.380 . S
C94 C101 1.357 . S
C95 C86 1.511 . S
C95 C96 1.341 . S
C95 C97 1.371 . S
C96 C95 1.341 . S
C96 C100 1.394 . S
C96 H112 0.930 . S
C97 C95 1.371 . S
C97 C98 1.392 . S
C97 H113 0.931 . S
C98 C97 1.392 . S
C98 C99 1.331 . S
C98 H116 0.932 . S
C99 C98 1.331 . S
C99 C100 1.336 . S
C100 C96 1.394 . S
C100 C99 1.336 . S
C100 H115 0.929 . S
C101 C91 1.386 1_556 S
C101 C94 1.357 . S
C101 H114 0.928 . S
H102 C78 0.931 . S
H103 C80 0.930 . S
H104 C82 0.929 . S
H105 C83 0.931 . S
H106 C85 0.930 . S
H107 C89 0.931 . S
H108 C87 0.931 . S
H109 C91 0.931 . S
H110 C92 0.929 . S
H111 C93 0.941 . S
H112 C96 0.930 . S
H113 C97 0.931 . S
H114 C101 0.928 . S
H115 C100 0.929 . S
H116 C98 0.932 . S
C117 C118 1.386 . S
C117 C119 1.397 . S
C117 H141 0.931 . S
C118 C117 1.386 . S
C118 C122 1.397 . S
C119 C117 1.397 . S
C119 C120 1.384 . S
C119 H142 0.930 . S
C120 C119 1.384 . S
C120 C121 1.377 . S
C120 C123 1.481 . S
C121 C120 1.377 . S
C121 C122 1.389 . S
C121 H143 0.929 . S
C122 C118 1.397 . S
C122 C121 1.389 . S
C122 H144 0.931 . S
C123 C120 1.481 . S
C123 C124 1.387 . S
C123 C128 1.390 . S
C124 C123 1.387 . S
C124 C125 1.401 . S
C124 H145 0.930 . S
C125 C124 1.401 . S
C125 C126 1.376 . S
C125 C134 1.511 . S
C126 C125 1.376 . S
C126 C127 1.392 . S
C126 H147 0.931 . S
C127 C126 1.392 . S
C127 C128 1.361 . S
C127 C129 1.500 . S
C128 C123 1.390 . S
C128 C127 1.361 . S
C128 H146 0.931 . S
C129 C127 1.500 . S
C129 C130 1.371 . S
C129 C131 1.365 . S
C130 C129 1.371 . S
C130 C140 1.386 . S
C130 H148 0.931 . S
C131 C129 1.365 . S
C131 C132 1.409 . S
C131 H149 0.929 . S
C132 C131 1.409 . S
C132 C133 1.380 . S
C132 H150 0.930 . S
C133 C132 1.380 . S
C133 C140 1.357 . S
C134 C125 1.511 . S
C134 C135 1.341 . S
C134 C136 1.371 . S
C135 C134 1.341 . S
C135 C139 1.394 . S
C135 H151 0.930 . S
C136 C134 1.371 . S
C136 C137 1.392 . S
C136 H152 0.931 . S
C137 C136 1.392 . S
C137 C138 1.331 . S
C137 H155 0.932 . S
C138 C137 1.331 . S
C138 C139 1.336 . S
C139 C135 1.394 . S
C139 C138 1.336 . S
C139 H154 0.929 . S
C140 C130 1.386 . S
C140 C133 1.357 . S
C140 H153 0.928 . S
H141 C117 0.931 . S
H142 C119 0.930 . S
H143 C121 0.929 . S
H144 C122 0.931 . S
H145 C124 0.930 . S
H146 C128 0.931 . S
H147 C126 0.931 . S
H148 C130 0.931 . S
H149 C131 0.929 . S
H150 C132 0.930 . S
H151 C135 0.930 . S
H152 C136 0.931 . S
H153 C140 0.928 . S
H154 C139 0.929 . S
H155 C137 0.932 . S
C156 C157 1.386 . S
C156 C158 1.397 . S
C156 H180 0.931 . S
C157 C156 1.386 . S
C157 C161 1.397 1_655 S
C158 C156 1.397 . S
C158 C159 1.384 1_655 S
C158 H181 0.930 . S
C159 C158 1.384 1_455 S
C159 C160 1.377 . S
C159 C162 1.481 . S
C160 C159 1.377 . S
C160 C161 1.389 . S
C160 H182 0.929 . S
C161 C157 1.397 1_455 S
C161 C160 1.389 . S
C161 H183 0.931 . S
C162 C159 1.481 . S
C162 C163 1.387 . S
C162 C167 1.390 . S
C163 C162 1.387 . S
C163 C164 1.401 . S
C163 H184 0.930 . S
C164 C163 1.401 . S
C164 C165 1.376 . S
C164 C173 1.511 . S
C165 C164 1.376 . S
C165 C166 1.392 . S
C165 H186 0.931 . S
C166 C165 1.392 . S
C166 C167 1.361 . S
C166 C168 1.500 . S
C167 C162 1.390 . S
C167 C166 1.361 . S
C167 H185 0.931 . S
C168 C166 1.500 . S
C168 C169 1.371 . S
C168 C170 1.365 1_565 S
C169 C168 1.371 . S
C169 C179 1.386 1_565 S
C169 H187 0.931 . S
C170 C168 1.365 1_545 S
C170 C171 1.409 . S
C170 H188 0.929 1_545 S
C171 C170 1.409 . S
C171 C172 1.380 . S
C171 H189 0.930 . S
C172 C171 1.380 . S
C172 C179 1.357 . S
C173 C164 1.511 . S
C173 C174 1.341 . S
C173 C175 1.371 . S
C174 C173 1.341 . S
C174 C178 1.394 . S
C174 H190 0.930 . S
C175 C173 1.371 . S
C175 C176 1.392 . S
C175 H191 0.931 . S
C176 C175 1.392 . S
C176 C177 1.331 . S
C176 H194 0.932 . S
C177 C176 1.331 . S
C177 C178 1.336 . S
C178 C174 1.394 . S
C178 C177 1.336 . S
C178 H193 0.929 . S
C179 C169 1.386 1_545 S
C179 C172 1.357 . S
C179 H192 0.928 . S
H180 C156 0.931 . S
H181 C158 0.930 . S
H182 C160 0.929 . S
H183 C161 0.931 . S
H184 C163 0.930 . S
H185 C167 0.931 . S
H186 C165 0.931 . S
H187 C169 0.931 . S
H188 C170 0.929 1_565 S
H189 C171 0.930 . S
H190 C174 0.930 . S
H191 C175 0.931 . S
H192 C179 0.928 . S
H193 C178 0.929 . S
H194 C176 0.932 . S
C195 C196 1.386 . S
C195 C197 1.397 . S
C195 H219 0.931 . S
C196 C195 1.386 . S
C196 C200 1.397 . S
C197 C195 1.397 . S
C197 C198 1.384 . S
C197 H220 0.930 . S
C198 C197 1.384 . S
C198 C199 1.377 . S
C198 C201 1.481 . S
C199 C198 1.377 . S
C199 C200 1.389 . S
C199 H221 0.929 . S
C200 C196 1.397 . S
C200 C199 1.389 . S
C200 H222 0.931 . S
C201 C198 1.481 . S
C201 C202 1.387 . S
C201 C206 1.390 . S
C202 C201 1.387 . S
C202 C203 1.401 . S
C202 H223 0.930 . S
C203 C202 1.401 . S
C203 C204 1.376 . S
C203 C212 1.511 . S
C204 C203 1.376 . S
C204 C205 1.392 . S
C204 H225 0.931 . S
C205 C204 1.392 . S
C205 C206 1.361 . S
C205 C207 1.500 . S
C206 C201 1.390 . S
C206 C205 1.361 . S
C206 H224 0.931 . S
C207 C205 1.500 . S
C207 C208 1.371 . S
C207 C209 1.365 . S
C208 C207 1.371 . S
C208 C218 1.386 . S
C208 H226 0.931 . S
C209 C207 1.365 . S
C209 C210 1.409 . S
C209 H227 0.929 . S
C210 C209 1.409 . S
C210 C211 1.380 . S
C210 H228 0.930 . S
C211 C210 1.380 . S
C211 C218 1.357 . S
C212 C203 1.511 . S
C212 C213 1.341 . S
C212 C214 1.371 . S
C213 C212 1.341 . S
C213 C217 1.394 . S
C213 H229 0.930 . S
C214 C212 1.371 . S
C214 C215 1.392 . S
C214 H230 0.931 . S
C215 C214 1.392 . S
C215 C216 1.331 . S
C215 H233 0.932 . S
C216 C215 1.331 . S
C216 C217 1.336 . S
C217 C213 1.394 . S
C217 C216 1.336 . S
C217 H232 0.929 . S
C218 C208 1.386 . S
C218 C211 1.357 . S
C218 H231 0.928 . S
H219 C195 0.931 . S
H220 C197 0.930 . S
H221 C199 0.929 . S
H222 C200 0.931 . S
H223 C202 0.930 . S
H224 C206 0.931 . S
H225 C204 0.931 . S
H226 C208 0.931 . S
H227 C209 0.929 . S
H228 C210 0.930 . S
H229 C213 0.930 . S
H230 C214 0.931 . S
H231 C218 0.928 . S
H232 C217 0.929 . S
H233 C215 0.932 . S
C234 C235 1.386 . S
C234 C236 1.397 . S
C234 H258 0.931 . S
C235 C234 1.386 . S
C235 C239 1.397 . S
C236 C234 1.397 . S
C236 C237 1.384 . S
C236 H259 0.930 . S
C237 C236 1.384 . S
C237 C238 1.377 . S
C237 C240 1.481 . S
C238 C237 1.377 . S
C238 C239 1.389 . S
C238 H260 0.929 . S
C239 C235 1.397 . S
C239 C238 1.389 . S
C239 H261 0.931 . S
C240 C237 1.481 . S
C240 C241 1.387 . S
C240 C245 1.390 . S
C241 C240 1.387 . S
C241 C242 1.401 . S
C241 H262 0.930 . S
C242 C241 1.401 . S
C242 C243 1.376 . S
C242 C251 1.511 . S
C243 C242 1.376 . S
C243 C244 1.392 . S
C243 H264 0.931 . S
C244 C243 1.392 . S
C244 C245 1.361 . S
C244 C246 1.500 . S
C245 C240 1.390 . S
C245 C244 1.361 . S
C245 H263 0.931 . S
C246 C244 1.500 . S
C246 C247 1.371 . S
C246 C248 1.365 . S
C247 C246 1.371 . S
C247 C257 1.386 . S
C247 H265 0.931 . S
C248 C246 1.365 . S
C248 C249 1.409 . S
C248 H266 0.929 . S
C249 C248 1.409 . S
C249 C250 1.380 . S
C249 H267 0.930 . S
C250 C249 1.380 . S
C250 C257 1.357 . S
C251 C242 1.511 . S
C251 C252 1.341 1_655 S
C251 C253 1.371 . S
C252 C251 1.341 1_455 S
C252 C256 1.394 . S
C252 H268 0.930 . S
C253 C251 1.371 . S
C253 C254 1.392 1_655 S
C253 H269 0.931 . S
C254 C253 1.392 1_455 S
C254 C255 1.331 . S
C254 H272 0.932 . S
C255 C254 1.331 . S
C255 C256 1.336 . S
C256 C252 1.394 . S
C256 C255 1.336 . S
C256 H271 0.929 . S
C257 C247 1.386 . S
C257 C250 1.357 . S
C257 H270 0.928 . S
H258 C234 0.931 . S
H259 C236 0.930 . S
H260 C238 0.929 . S
H261 C239 0.931 . S
H262 C241 0.930 . S
H263 C245 0.931 . S
H264 C243 0.931 . S
H265 C247 0.931 . S
H266 C248 0.929 . S
H267 C249 0.930 . S
H268 C252 0.930 . S
H269 C253 0.931 . S
H270 C257 0.928 . S
H271 C256 0.929 . S
H272 C254 0.932 . S
C273 C274 1.386 . S
C273 C275 1.397 . S
C273 H297 0.931 . S
C274 C273 1.386 . S
C274 C278 1.397 . S
C275 C273 1.397 . S
C275 C276 1.384 . S
C275 H298 0.930 . S
C276 C275 1.384 . S
C276 C277 1.377 . S
C276 C279 1.481 . S
C277 C276 1.377 . S
C277 C278 1.389 . S
C277 H299 0.929 . S
C278 C274 1.397 . S
C278 C277 1.389 . S
C278 H300 0.931 . S
C279 C276 1.481 . S
C279 C280 1.387 . S
C279 C284 1.390 . S
C280 C279 1.387 . S
C280 C281 1.401 . S
C280 H301 0.930 . S
C281 C280 1.401 . S
C281 C282 1.376 . S
C281 C290 1.511 . S
C282 C281 1.376 . S
C282 C283 1.392 . S
C282 H303 0.931 . S
C283 C282 1.392 . S
C283 C284 1.361 . S
C283 C285 1.500 . S
C284 C279 1.390 . S
C284 C283 1.361 . S
C284 H302 0.931 . S
C285 C283 1.500 . S
C285 C286 1.371 . S
C285 C287 1.365 . S
C286 C285 1.371 . S
C286 C296 1.386 . S
C286 H304 0.931 . S
C287 C285 1.365 . S
C287 C288 1.409 . S
C287 H305 0.929 . S
C288 C287 1.409 . S
C288 C289 1.380 . S
C288 H306 0.930 . S
C289 C288 1.380 . S
C289 C296 1.357 . S
C290 C281 1.511 . S
C290 C291 1.341 . S
C290 C292 1.371 . S
C291 C290 1.341 . S
C291 C295 1.394 . S
C291 H307 0.930 . S
C292 C290 1.371 . S
C292 C293 1.392 . S
C292 H308 0.931 . S
C293 C292 1.392 . S
C293 C294 1.331 . S
C293 H311 0.932 . S
C294 C293 1.331 . S
C294 C295 1.336 . S
C295 C291 1.394 . S
C295 C294 1.336 . S
C295 H310 0.929 . S
C296 C286 1.386 . S
C296 C289 1.357 . S
C296 H309 0.928 . S
H297 C273 0.931 . S
H298 C275 0.930 . S
H299 C277 0.929 . S
H300 C278 0.931 . S
H301 C280 0.930 . S
H302 C284 0.931 . S
H303 C282 0.931 . S
H304 C286 0.931 . S
H305 C287 0.929 . S
H306 C288 0.930 . S
H307 C291 0.930 . S
H308 C292 0.931 . S
H309 C296 0.928 . S
H310 C295 0.929 . S
H311 C293 0.932 . S
C312 C313 1.386 . S
C312 C314 1.397 . S
C312 H336 0.931 . S
C313 C312 1.386 . S
C313 C317 1.397 . S
C314 C312 1.397 . S
C314 C315 1.384 . S
C314 H337 0.930 . S
C315 C314 1.384 . S
C315 C316 1.377 . S
C315 C318 1.481 . S
C316 C315 1.377 . S
C316 C317 1.389 . S
C316 H338 0.929 . S
C317 C313 1.397 . S
C317 C316 1.389 . S
C317 H339 0.931 . S
C318 C315 1.481 . S
C318 C319 1.387 . S
C318 C323 1.390 . S
C319 C318 1.387 . S
C319 C320 1.401 . S
C319 H340 0.930 . S
C320 C319 1.401 . S
C320 C321 1.376 . S
C320 C329 1.511 . S
C321 C320 1.376 . S
C321 C322 1.392 . S
C321 H342 0.931 . S
C322 C321 1.392 . S
C322 C323 1.361 . S
C322 C324 1.500 . S
C323 C318 1.390 . S
C323 C322 1.361 . S
C323 H341 0.931 . S
C324 C322 1.500 . S
C324 C325 1.371 . S
C324 C326 1.365 . S
C325 C324 1.371 . S
C325 C335 1.386 . S
C325 H343 0.931 . S
C326 C324 1.365 . S
C326 C327 1.409 . S
C326 H344 0.929 . S
C327 C326 1.409 . S
C327 C328 1.380 . S
C327 H345 0.930 . S
C328 C327 1.380 . S
C328 C335 1.357 . S
C329 C320 1.511 . S
C329 C330 1.341 . S
C329 C331 1.371 . S
C330 C329 1.341 . S
C330 C334 1.394 . S
C330 H346 0.930 . S
C331 C329 1.371 . S
C331 C332 1.392 . S
C331 H347 0.931 . S
C332 C331 1.392 . S
C332 C333 1.331 . S
C332 H350 0.932 . S
C333 C332 1.331 . S
C333 C334 1.336 . S
C334 C330 1.394 . S
C334 C333 1.336 . S
C334 H349 0.929 . S
C335 C325 1.386 . S
C335 C328 1.357 . S
C335 H348 0.928 . S
H336 C312 0.931 . S
H337 C314 0.930 . S
H338 C316 0.929 . S
H339 C317 0.931 . S
H340 C319 0.930 . S
H341 C323 0.931 . S
H342 C321 0.931 . S
H343 C325 0.931 . S
H344 C326 0.929 . S
H345 C327 0.930 . S
H346 C330 0.930 . S
H347 C331 0.931 . S
H348 C335 0.928 . S
H349 C334 0.929 . S
H350 C332 0.932 . S
C351 C352 1.386 . S
C351 C353 1.397 . S
C351 H375 0.931 . S
C352 C351 1.386 . S
C352 C356 1.397 . S
C353 C351 1.397 . S
C353 C354 1.384 . S
C353 H376 0.930 . S
C354 C353 1.384 . S
C354 C355 1.377 . S
C354 C357 1.481 . S
C355 C354 1.377 . S
C355 C356 1.389 . S
C355 H377 0.929 . S
C356 C352 1.397 . S
C356 C355 1.389 . S
C356 H378 0.931 . S
C357 C354 1.481 . S
C357 C358 1.387 . S
C357 C362 1.390 . S
C358 C357 1.387 . S
C358 C359 1.401 . S
C358 H379 0.930 . S
C359 C358 1.401 . S
C359 C360 1.376 . S
C359 C368 1.511 . S
C360 C359 1.376 . S
C360 C361 1.392 . S
C360 H381 0.931 . S
C361 C360 1.392 . S
C361 C362 1.361 . S
C361 C363 1.500 . S
C362 C357 1.390 . S
C362 C361 1.361 . S
C362 H380 0.931 . S
C363 C361 1.500 . S
C363 C364 1.371 . S
C363 C365 1.365 . S
C364 C363 1.371 . S
C364 C374 1.386 . S
C364 H382 0.931 . S
C365 C363 1.365 . S
C365 C366 1.409 . S
C365 H383 0.929 . S
C366 C365 1.409 . S
C366 C367 1.380 . S
C366 H384 0.930 . S
C367 C366 1.380 . S
C367 C374 1.357 . S
C368 C359 1.511 . S
C368 C369 1.317 1_565 S
C368 C370 1.371 . S
C369 C368 1.317 1_545 S
C369 C373 1.422 . S
C369 H385 0.928 1_545 S
C370 C368 1.371 . S
C370 C371 1.392 1_565 S
C370 H386 0.931 . S
C371 C370 1.392 1_545 S
C371 C372 1.331 . S
C371 H389 0.932 . S
C372 C371 1.331 . S
C372 C373 1.336 . S
C373 C369 1.422 . S
C373 C372 1.336 . S
C373 H388 0.929 . S
C374 C364 1.386 . S
C374 C367 1.357 . S
C374 H387 0.928 . S
H375 C351 0.931 . S
H376 C353 0.930 . S
H377 C355 0.929 . S
H378 C356 0.931 . S
H379 C358 0.930 . S
H380 C362 0.931 . S
H381 C360 0.931 . S
H382 C364 0.931 . S
H383 C365 0.929 . S
H384 C366 0.930 . S
H385 C369 0.928 1_565 S
H386 C370 0.931 . S
H387 C374 0.928 . S
H388 C373 0.929 . S
H389 C371 0.932 . S
C390 C391 1.386 . S
C390 C392 1.397 . S
C390 H414 0.931 . S
C391 C390 1.386 . S
C391 C395 1.397 . S
C392 C390 1.397 . S
C392 C393 1.384 . S
C392 H415 0.930 . S
C393 C392 1.384 . S
C393 C394 1.377 . S
C393 C396 1.481 . S
C394 C393 1.377 . S
C394 C395 1.389 . S
C394 H416 0.929 . S
C395 C391 1.397 . S
C395 C394 1.389 . S
C395 H417 0.931 . S
C396 C393 1.481 . S
C396 C397 1.387 . S
C396 C401 1.390 . S
C397 C396 1.387 . S
C397 C398 1.401 . S
C397 H418 0.930 . S
C398 C397 1.401 . S
C398 C399 1.376 . S
C398 C407 1.511 . S
C399 C398 1.376 . S
C399 C400 1.392 . S
C399 H420 0.931 . S
C400 C399 1.392 . S
C400 C401 1.361 . S
C400 C402 1.500 . S
C401 C396 1.390 . S
C401 C400 1.361 . S
C401 H419 0.931 . S
C402 C400 1.500 . S
C402 C403 1.371 . S
C402 C404 1.365 . S
C403 C402 1.371 . S
C403 C413 1.386 . S
C403 H421 0.931 . S
C404 C402 1.365 . S
C404 C405 1.409 . S
C404 H422 0.929 . S
C405 C404 1.409 . S
C405 C406 1.380 . S
C405 H423 0.930 . S
C406 C405 1.380 . S
C406 C413 1.357 . S
C407 C398 1.511 . S
C407 C408 1.341 . S
C407 C409 1.371 . S
C408 C407 1.341 . S
C408 C412 1.394 . S
C408 H424 0.930 . S
C409 C407 1.371 . S
C409 C410 1.392 . S
C409 H425 0.931 . S
C410 C409 1.392 . S
C410 C411 1.331 . S
C410 H428 0.932 . S
C411 C410 1.331 . S
C411 C412 1.336 . S
C412 C408 1.394 . S
C412 C411 1.336 . S
C412 H427 0.929 . S
C413 C403 1.386 . S
C413 C406 1.357 . S
C413 H426 0.928 . S
H414 C390 0.931 . S
H415 C392 0.930 . S
H416 C394 0.929 . S
H417 C395 0.931 . S
H418 C397 0.930 . S
H419 C401 0.931 . S
H420 C399 0.931 . S
H421 C403 0.931 . S
H422 C404 0.929 . S
H423 C405 0.930 . S
H424 C408 0.930 . S
H425 C409 0.931 . S
H426 C413 0.928 . S
H427 C412 0.929 . S
H428 C410 0.932 . S
C429 C430 1.386 . S
C429 C431 1.397 . S
C429 H453 0.931 . S
C430 C429 1.386 . S
C430 C434 1.397 . S
C431 C429 1.397 . S
C431 C432 1.384 . S
C431 H454 0.930 . S
C432 C431 1.384 . S
C432 C433 1.377 . S
C432 C435 1.481 . S
C433 C432 1.377 . S
C433 C434 1.389 . S
C433 H455 0.929 . S
C434 C430 1.397 . S
C434 C433 1.389 . S
C434 H456 0.931 . S
C435 C432 1.481 . S
C435 C436 1.387 . S
C435 C440 1.390 . S
C436 C435 1.387 . S
C436 C437 1.401 . S
C436 H457 0.930 . S
C437 C436 1.401 . S
C437 C438 1.376 . S
C437 C446 1.511 . S
C438 C437 1.376 . S
C438 C439 1.392 . S
C438 H459 0.931 . S
C439 C438 1.392 . S
C439 C440 1.361 . S
C439 C441 1.500 . S
C440 C435 1.390 . S
C440 C439 1.361 . S
C440 H458 0.931 . S
C441 C439 1.500 . S
C441 C442 1.371 . S
C441 C443 1.365 . S
C442 C441 1.371 . S
C442 C452 1.386 . S
C442 H460 0.931 . S
C443 C441 1.365 . S
C443 C444 1.409 . S
C443 H461 0.929 . S
C444 C443 1.409 . S
C444 C445 1.380 . S
C444 H462 0.930 . S
C445 C444 1.380 . S
C445 C452 1.357 . S
C446 C437 1.511 . S
C446 C447 1.341 . S
C446 C448 1.371 . S
C447 C446 1.341 . S
C447 C451 1.394 . S
C447 H463 0.930 . S
C448 C446 1.371 . S
C448 C449 1.392 . S
C448 H464 0.931 . S
C449 C448 1.392 . S
C449 C450 1.331 . S
C449 H467 0.932 . S
C450 C449 1.331 . S
C450 C451 1.336 . S
C451 C447 1.394 . S
C451 C450 1.336 . S
C451 H466 0.929 . S
C452 C442 1.386 . S
C452 C445 1.357 . S
C452 H465 0.928 . S
H453 C429 0.931 . S
H454 C431 0.930 . S
H455 C433 0.929 . S
H456 C434 0.931 . S
H457 C436 0.930 . S
H458 C440 0.931 . S
H459 C438 0.931 . S
H460 C442 0.931 . S
H461 C443 0.929 . S
H462 C444 0.930 . S
H463 C447 0.930 . S
H464 C448 0.931 . S
H465 C452 0.928 . S
H466 C451 0.929 . S
H467 C449 0.932 . S
C468 C469 1.386 . S
C468 C470 1.397 . S
C468 H492 0.931 . S
C469 C468 1.386 . S
C469 C473 1.397 . S
C470 C468 1.397 . S
C470 C471 1.384 . S
C470 H493 0.930 . S
C471 C470 1.384 . S
C471 C472 1.377 . S
C471 C474 1.481 . S
C472 C471 1.377 . S
C472 C473 1.389 . S
C472 H494 0.929 . S
C473 C469 1.397 . S
C473 C472 1.389 . S
C473 H495 0.931 . S
C474 C471 1.481 . S
C474 C475 1.387 . S
C474 C479 1.390 . S
C475 C474 1.387 . S
C475 C476 1.401 . S
C475 H496 0.930 . S
C476 C475 1.401 . S
C476 C477 1.376 . S
C476 C485 1.511 . S
C477 C476 1.376 . S
C477 C478 1.392 . S
C477 H498 0.931 . S
C478 C477 1.392 . S
C478 C479 1.361 . S
C478 C480 1.500 . S
C479 C474 1.390 . S
C479 C478 1.361 . S
C479 H497 0.931 . S
C480 C478 1.500 . S
C480 C481 1.371 . S
C480 C482 1.365 . S
C481 C480 1.371 . S
C481 C491 1.386 . S
C481 H499 0.931 . S
C482 C480 1.365 . S
C482 C483 1.409 . S
C482 H500 0.929 . S
C483 C482 1.409 . S
C483 C484 1.380 . S
C483 H501 0.930 . S
C484 C483 1.380 . S
C484 C491 1.357 . S
C485 C476 1.511 . S
C485 C486 1.341 . S
C485 C487 1.371 . S
C486 C485 1.341 . S
C486 C490 1.394 . S
C486 H502 0.930 . S
C487 C485 1.371 . S
C487 C488 1.392 . S
C487 H503 0.931 . S
C488 C487 1.392 . S
C488 C489 1.331 . S
C488 H506 0.932 . S
C489 C488 1.331 . S
C489 C490 1.336 . S
C490 C486 1.394 . S
C490 C489 1.336 . S
C490 H505 0.929 . S
C491 C481 1.386 . S
C491 C484 1.357 . S
C491 H504 0.928 . S
H492 C468 0.931 . S
H493 C470 0.930 . S
H494 C472 0.929 . S
H495 C473 0.931 . S
H496 C475 0.930 . S
H497 C479 0.931 . S
H498 C477 0.931 . S
H499 C481 0.931 . S
H500 C482 0.929 . S
H501 C483 0.930 . S
H502 C486 0.930 . S
H503 C487 0.931 . S
H504 C491 0.928 . S
H505 C490 0.929 . S
H506 C488 0.932 . S
C507 C508 1.386 . S
C507 C509 1.397 . S
C507 H531 0.931 . S
C508 C507 1.386 . S
C508 C512 1.397 . S
C509 C507 1.397 . S
C509 C510 1.384 . S
C509 H532 0.930 . S
C510 C509 1.384 . S
C510 C511 1.377 . S
C510 C513 1.481 . S
C511 C510 1.377 . S
C511 C512 1.389 . S
C511 H533 0.929 . S
C512 C508 1.397 . S
C512 C511 1.389 . S
C512 H534 0.931 . S
C513 C510 1.481 . S
C513 C514 1.387 . S
C513 C518 1.390 . S
C514 C513 1.387 . S
C514 C515 1.401 . S
C514 H535 0.930 . S
C515 C514 1.401 . S
C515 C516 1.376 . S
C515 C524 1.511 . S
C516 C515 1.376 . S
C516 C517 1.392 . S
C516 H537 0.931 . S
C517 C516 1.392 . S
C517 C518 1.361 . S
C517 C519 1.500 . S
C518 C513 1.390 . S
C518 C517 1.361 . S
C518 H536 0.931 . S
C519 C517 1.500 . S
C519 C520 1.371 . S
C519 C521 1.365 . S
C520 C519 1.371 . S
C520 C530 1.386 . S
C520 H538 0.931 . S
C521 C519 1.365 . S
C521 C522 1.409 . S
C521 H539 0.929 . S
C522 C521 1.409 . S
C522 C523 1.380 . S
C522 H540 0.930 . S
C523 C522 1.380 . S
C523 C530 1.357 . S
C524 C515 1.511 . S
C524 C525 1.341 . S
C524 C526 1.371 . S
C525 C524 1.341 . S
C525 C529 1.399 . S
C525 H541 0.930 . S
C526 C524 1.371 . S
C526 C527 1.392 1_556 S
C526 H542 0.931 . S
C527 C526 1.392 1_554 S
C527 C528 1.331 . S
C527 H545 0.932 . S
C528 C527 1.331 . S
C528 C529 1.331 1_554 S
C529 C525 1.399 . S
C529 C528 1.331 1_556 S
C529 H544 0.929 1_556 S
C530 C520 1.386 . S
C530 C523 1.357 . S
C530 H543 0.928 . S
H531 C507 0.931 . S
H532 C509 0.930 . S
H533 C511 0.929 . S
H534 C512 0.931 . S
H535 C514 0.930 . S
H536 C518 0.931 . S
H537 C516 0.931 . S
H538 C520 0.931 . S
H539 C521 0.929 . S
H540 C522 0.930 . S
H541 C525 0.930 . S
H542 C526 0.931 . S
H543 C530 0.928 . S
H544 C529 0.929 1_554 S
H545 C527 0.932 . S
C546 C547 1.386 . S
C546 C548 1.397 . S
C546 H570 0.931 . S
C547 C546 1.386 . S
C547 C551 1.397 . S
C548 C546 1.397 . S
C548 C549 1.384 . S
C548 H571 0.930 . S
C549 C548 1.384 . S
C549 C550 1.377 . S
C549 C552 1.481 . S
C550 C549 1.377 . S
C550 C551 1.389 . S
C550 H572 0.929 . S
C551 C547 1.397 . S
C551 C550 1.389 . S
C551 H573 0.931 . S
C552 C549 1.481 . S
C552 C553 1.387 . S
C552 C557 1.390 . S
C553 C552 1.387 . S
C553 C554 1.401 . S
C553 H574 0.930 . S
C554 C553 1.401 . S
C554 C555 1.376 . S
C554 C563 1.511 . S
C555 C554 1.376 . S
C555 C556 1.392 . S
C555 H576 0.931 . S
C556 C555 1.392 . S
C556 C557 1.361 . S
C556 C558 1.500 . S
C557 C552 1.390 . S
C557 C556 1.361 . S
C557 H575 0.931 . S
C558 C556 1.500 . S
C558 C559 1.371 . S
C558 C560 1.365 . S
C559 C558 1.371 . S
C559 C569 1.386 . S
C559 H577 0.931 . S
C560 C558 1.365 . S
C560 C561 1.409 . S
C560 H578 0.929 . S
C561 C560 1.409 . S
C561 C562 1.380 . S
C561 H579 0.930 . S
C562 C561 1.380 . S
C562 C569 1.357 . S
C563 C554 1.511 . S
C563 C564 1.341 . S
C563 C565 1.371 . S
C564 C563 1.341 . S
C564 C568 1.394 . S
C564 H580 0.930 . S
C565 C563 1.371 . S
C565 C566 1.392 . S
C565 H581 0.931 . S
C566 C565 1.392 . S
C566 C567 1.331 . S
C566 H584 0.932 . S
C567 C566 1.331 . S
C567 C568 1.336 . S
C568 C564 1.394 . S
C568 C567 1.336 . S
C568 H583 0.929 . S
C569 C559 1.386 . S
C569 C562 1.357 . S
C569 H582 0.928 . S
H570 C546 0.931 . S
H571 C548 0.930 . S
H572 C550 0.929 . S
H573 C551 0.931 . S
H574 C553 0.930 . S
H575 C557 0.931 . S
H576 C555 0.931 . S
H577 C559 0.931 . S
H578 C560 0.929 . S
H579 C561 0.930 . S
H580 C564 0.930 . S
H581 C565 0.931 . S
H582 C569 0.928 . S
H583 C568 0.929 . S
H584 C566 0.932 . S
C585 C586 1.386 1_556 S
C585 C587 1.397 . S
C585 H609 0.931 . S
C586 C585 1.386 1_554 S
C586 C590 1.397 . S
C587 C585 1.397 . S
C587 C588 1.384 . S
C587 H610 0.930 . S
C588 C587 1.384 . S
C588 C589 1.377 1_556 S
C588 C591 1.481 . S
C589 C588 1.377 1_554 S
C589 C590 1.389 . S
C589 H611 0.929 . S
C590 C586 1.397 . S
C590 C589 1.389 . S
C590 H612 0.931 . S
C591 C588 1.481 . S
C591 C592 1.387 . S
C591 C596 1.390 . S
C592 C591 1.387 . S
C592 C593 1.401 . S
C592 H613 0.930 . S
C593 C592 1.401 . S
C593 C594 1.376 . S
C593 C602 1.511 . S
C594 C593 1.376 . S
C594 C595 1.392 . S
C594 H615 0.931 . S
C595 C594 1.392 . S
C595 C596 1.361 . S
C595 C597 1.500 . S
C596 C591 1.390 . S
C596 C595 1.361 . S
C596 H614 0.931 . S
C597 C595 1.500 . S
C597 C598 1.371 . S
C597 C599 1.365 . S
C598 C597 1.371 . S
C598 C608 1.386 1_545 S
C598 H616 0.931 . S
C599 C597 1.365 . S
C599 C600 1.409 . S
C599 H617 0.921 1_556 S
C600 C599 1.409 . S
C600 C601 1.380 1_545 S
C600 H618 0.930 1_556 S
C601 C600 1.380 1_565 S
C601 C608 1.357 . S
C602 C593 1.511 . S
C602 C603 1.341 . S
C602 C604 1.371 . S
C603 C602 1.341 . S
C603 C607 1.394 . S
C603 H619 0.930 . S
C604 C602 1.371 . S
C604 C605 1.392 . S
C604 H620 0.931 . S
C605 C604 1.392 . S
C605 C606 1.331 . S
C605 H623 0.932 . S
C606 C605 1.331 . S
C606 C607 1.336 . S
C607 C603 1.394 . S
C607 C606 1.336 . S
C607 H622 0.929 . S
C608 C598 1.386 1_565 S
C608 C601 1.357 . S
C608 H621 0.928 . S
H609 C585 0.931 . S
H610 C587 0.930 . S
H611 C589 0.929 . S
H612 C590 0.931 . S
H613 C592 0.930 . S
H614 C596 0.931 . S
H615 C594 0.931 . S
H616 C598 0.931 . S
H617 C599 0.921 1_554 S
H618 C600 0.930 1_554 S
H619 C603 0.930 . S
H620 C604 0.931 . S
H621 C608 0.928 . S
H622 C607 0.929 . S
H623 C605 0.932 . S
Mn624 O629 2.095 . S
Mn624 O639 2.162 . S
Mn624 O640 2.297 . S
Mn624 O648 2.417 . S
Mn624 O649 2.209 1_554 S
Mn624 O650 2.094 . S
Mn625 O630 2.121 . S
Mn625 N632 2.257 . S
Mn625 N641 2.282 . S
Mn625 O649 2.215 . S
Mn625 O651 2.117 . S
C626 O648 1.176 1_556 S
C626 O649 1.283 . S
C627 O639 1.281 . S
C627 O640 1.236 . S
C628 O650 1.240 . S
C628 O651 1.264 1_554 S
O629 Mn624 2.095 . S
O629 C638 1.250 . S
O630 Mn625 2.121 . S
O630 C638 1.258 1_556 S
C631 N632 1.326 . S
C631 C635 1.460 . S
C631 H637 0.929 . S
N632 Mn625 2.257 . S
N632 C631 1.326 . S
N632 C636 1.362 . S
C633 C634 1.258 . S
C633 C636 1.431 . S
C633 C653 1.449 . S
C634 C633 1.258 . S
C634 C635 1.477 . S
C634 H654 0.931 . S
C635 C631 1.460 . S
C635 C634 1.477 . S
C635 H655 0.930 . S
C636 N632 1.362 . S
C636 C633 1.431 . S
C636 C646 1.476 . S
H637 C631 0.929 . S
C638 O629 1.250 . S
C638 O630 1.258 1_554 S
O639 Mn624 2.162 . S
O639 C627 1.281 . S
O640 Mn624 2.297 . S
O640 C627 1.236 . S
N641 Mn625 2.282 . S
N641 C642 1.328 . S
N641 C646 1.318 . S
C642 N641 1.328 . S
C642 C643 1.457 . S
C642 H647 0.929 . S
C643 C642 1.457 . S
C643 C644 1.291 . S
C643 H656 0.931 . S
C644 C643 1.291 . S
C644 C645 1.373 . S
C644 H657 0.929 . S
C645 C644 1.373 . S
C645 C646 1.396 . S
C645 C652 1.403 . S
C646 C636 1.476 . S
C646 N641 1.318 . S
C646 C645 1.396 . S
H647 C642 0.929 . S
O648 Mn624 2.417 . S
O648 C626 1.176 1_554 S
O649 Mn624 2.209 1_556 S
O649 Mn625 2.215 . S
O649 C626 1.283 . S
O650 Mn624 2.094 . S
O650 C628 1.240 . S
O651 Mn625 2.117 . S
O651 C628 1.264 1_556 S
C652 C645 1.403 . S
C652 C653 1.399 . S
C652 H658 0.929 . S
C653 C633 1.449 . S
C653 C652 1.399 . S
C653 H659 0.930 . S
H654 C634 0.931 . S
H655 C635 0.930 . S
H656 C643 0.931 . S
H657 C644 0.929 . S
H658 C652 0.929 . S
H659 C653 0.930 . S
Mn660 O665 2.095 . S
Mn660 O675 2.162 . S
Mn660 O676 2.297 . S
Mn660 O684 2.385 . S
Mn660 O685 2.209 . S
Mn660 O686 2.094 . S
Mn661 O666 2.121 . S
Mn661 N668 2.257 . S
Mn661 N677 2.282 . S
Mn661 O685 2.215 . S
Mn661 O687 2.117 . S
C662 O684 1.234 . S
C662 O685 1.283 . S
C663 O675 1.281 . S
C663 O676 1.236 . S
C664 O686 1.240 . S
C664 O687 1.264 . S
O665 Mn660 2.095 . S
O665 C674 1.250 . S
O666 Mn661 2.121 . S
O666 C674 1.258 . S
C667 N668 1.326 . S
C667 C671 1.460 . S
C667 H673 0.929 . S
N668 Mn661 2.257 . S
N668 C667 1.326 . S
N668 C672 1.362 . S
C669 C670 1.258 . S
C669 C672 1.431 . S
C669 C689 1.449 . S
C670 C669 1.258 . S
C670 C671 1.477 . S
C670 H690 0.931 . S
C671 C667 1.460 . S
C671 C670 1.477 . S
C671 H691 0.930 . S
C672 N668 1.362 . S
C672 C669 1.431 . S
C672 C682 1.476 . S
H673 C667 0.929 . S
C674 O665 1.250 . S
C674 O666 1.258 . S
O675 Mn660 2.162 . S
O675 C663 1.281 . S
O676 Mn660 2.297 . S
O676 C663 1.236 . S
N677 Mn661 2.282 . S
N677 C678 1.328 . S
N677 C682 1.318 . S
C678 N677 1.328 . S
C678 C679 1.457 . S
C678 H683 0.929 . S
C679 C678 1.457 . S
C679 C680 1.291 . S
C679 H692 0.931 . S
C680 C679 1.291 . S
C680 C681 1.373 . S
C680 H693 0.929 . S
C681 C680 1.373 . S
C681 C682 1.396 . S
C681 C688 1.403 . S
C682 C672 1.476 . S
C682 N677 1.318 . S
C682 C681 1.396 . S
H683 C678 0.929 . S
O684 Mn660 2.385 . S
O684 C662 1.234 . S
O685 Mn660 2.209 . S
O685 Mn661 2.215 . S
O685 C662 1.283 . S
O686 Mn660 2.094 . S
O686 C664 1.240 . S
O687 Mn661 2.117 . S
O687 C664 1.264 . S
C688 C681 1.403 . S
C688 C689 1.399 . S
C688 H694 0.929 . S
C689 C669 1.449 . S
C689 C688 1.399 . S
C689 H695 0.930 . S
H690 C670 0.931 . S
H691 C671 0.930 . S
H692 C679 0.931 . S
H693 C680 0.929 . S
H694 C688 0.929 . S
H695 C689 0.930 . S
Mn696 O701 2.095 1_554 S
Mn696 O711 2.162 . S
Mn696 O712 2.297 1_554 S
Mn696 O720 2.385 . S
Mn696 O721 2.209 1_554 S
Mn696 O722 2.094 . S
Mn697 O702 2.121 . S
Mn697 N704 2.257 . S
Mn697 N713 2.282 . S
Mn697 O721 2.215 . S
Mn697 O723 2.117 1_556 S
C698 O720 1.235 1_556 S
C698 O721 1.282 . S
C699 O711 1.281 . S
C699 O712 1.236 1_554 S
C700 O722 1.240 . S
C700 O723 1.264 . S
O701 Mn696 2.095 1_556 S
O701 C710 1.250 . S
O702 Mn697 2.121 . S
O702 C710 1.258 . S
C703 N704 1.326 . S
C703 C707 1.460 . S
C703 H709 0.929 . S
N704 Mn697 2.257 . S
N704 C703 1.326 . S
N704 C708 1.362 . S
C705 C706 1.258 . S
C705 C708 1.431 . S
C705 C725 1.449 . S
C706 C705 1.258 . S
C706 C707 1.477 . S
C706 H726 0.931 . S
C707 C703 1.460 . S
C707 C706 1.477 . S
C707 H727 0.930 . S
C708 N704 1.362 . S
C708 C705 1.431 . S
C708 C718 1.476 . S
H709 C703 0.929 . S
C710 O701 1.250 . S
C710 O702 1.258 . S
O711 Mn696 2.162 . S
O711 C699 1.281 . S
O712 Mn696 2.297 1_556 S
O712 C699 1.236 1_556 S
N713 Mn697 2.282 . S
N713 C714 1.328 1_556 S
N713 C718 1.318 . S
C714 N713 1.328 1_554 S
C714 C715 1.457 . S
C714 H719 0.929 . S
C715 C714 1.457 . S
C715 C716 1.291 . S
C715 H728 0.931 . S
C716 C715 1.291 . S
C716 C717 1.373 1_554 S
C716 H729 0.929 . S
C717 C716 1.373 1_556 S
C717 C718 1.396 . S
C717 C724 1.403 . S
C718 C708 1.476 . S
C718 N713 1.318 . S
C718 C717 1.396 . S
H719 C714 0.929 . S
O720 Mn696 2.385 . S
O720 C698 1.235 1_554 S
O721 Mn696 2.209 1_556 S
O721 Mn697 2.215 . S
O721 C698 1.282 . S
O722 Mn696 2.094 . S
O722 C700 1.240 . S
O723 Mn697 2.117 1_554 S
O723 C700 1.264 . S
C724 C717 1.403 . S
C724 C725 1.399 . S
C724 H730 0.929 . S
C725 C705 1.449 . S
C725 C724 1.399 . S
C725 H731 0.930 . S
H726 C706 0.931 . S
H727 C707 0.930 . S
H728 C715 0.931 . S
H729 C716 0.929 . S
H730 C724 0.929 . S
H731 C725 0.930 . S
Mn732 O737 2.095 . S
Mn732 O747 2.162 . S
Mn732 O748 2.297 . S
Mn732 O756 2.385 . S
Mn732 O757 2.209 1_545 S
Mn732 O758 2.094 . S
Mn733 O738 2.121 . S
Mn733 N740 2.257 . S
Mn733 N749 2.282 . S
Mn733 O757 2.215 . S
Mn733 O759 2.117 . S
C734 O756 1.234 1_565 S
C734 O757 1.283 . S
C735 O747 1.281 . S
C735 O748 1.236 . S
C736 O758 1.240 . S
C736 O759 1.264 1_545 S
O737 Mn732 2.095 . S
O737 C746 1.250 . S
O738 Mn733 2.121 . S
O738 C746 1.258 1_565 S
C739 N740 1.326 . S
C739 C743 1.460 . S
C739 H745 0.929 . S
N740 Mn733 2.257 . S
N740 C739 1.326 . S
N740 C744 1.362 . S
C741 C742 1.258 . S
C741 C744 1.431 . S
C741 C761 1.449 . S
C742 C741 1.258 . S
C742 C743 1.477 . S
C742 H762 0.931 . S
C743 C739 1.460 . S
C743 C742 1.477 . S
C743 H763 0.930 . S
C744 N740 1.362 . S
C744 C741 1.431 . S
C744 C754 1.476 . S
H745 C739 0.929 . S
C746 O737 1.250 . S
C746 O738 1.258 1_545 S
O747 Mn732 2.162 . S
O747 C735 1.281 . S
O748 Mn732 2.297 . S
O748 C735 1.236 . S
N749 Mn733 2.282 . S
N749 C750 1.328 . S
N749 C754 1.318 . S
C750 N749 1.328 . S
C750 C751 1.457 . S
C750 H755 0.929 . S
C751 C750 1.457 . S
C751 C752 1.291 . S
C751 H764 0.931 . S
C752 C751 1.291 . S
C752 C753 1.373 . S
C752 H765 0.929 . S
C753 C752 1.373 . S
C753 C754 1.396 . S
C753 C760 1.403 . S
C754 C744 1.476 . S
C754 N749 1.318 . S
C754 C753 1.396 . S
H755 C750 0.929 . S
O756 Mn732 2.385 . S
O756 C734 1.234 1_545 S
O757 Mn732 2.209 1_565 S
O757 Mn733 2.215 . S
O757 C734 1.283 . S
O758 Mn732 2.094 . S
O758 C736 1.240 . S
O759 Mn733 2.117 . S
O759 C736 1.264 1_565 S
C760 C753 1.403 . S
C760 C761 1.399 . S
C760 H766 0.929 . S
C761 C741 1.449 . S
C761 C760 1.399 . S
C761 H767 0.930 . S
H762 C742 0.931 . S
H763 C743 0.930 . S
H764 C751 0.931 . S
H765 C752 0.929 . S
H766 C760 0.929 . S
H767 C761 0.930 . S
Mn768 O773 2.095 . S
Mn768 O783 2.162 . S
Mn768 O784 2.297 . S
Mn768 O792 2.385 . S
Mn768 O793 2.209 . S
Mn768 O794 2.094 . S
Mn769 O774 2.121 . S
Mn769 N776 2.257 . S
Mn769 N785 2.282 . S
Mn769 O793 2.215 . S
Mn769 O795 2.117 . S
C770 O792 1.234 . S
C770 O793 1.283 . S
C771 O783 1.281 . S
C771 O784 1.236 . S
C772 O794 1.240 . S
C772 O795 1.264 . S
O773 Mn768 2.095 . S
O773 C782 1.250 . S
O774 Mn769 2.121 . S
O774 C782 1.258 . S
C775 N776 1.326 . S
C775 C779 1.460 . S
C775 H781 0.929 . S
N776 Mn769 2.257 . S
N776 C775 1.326 . S
N776 C780 1.362 . S
C777 C778 1.258 . S
C777 C780 1.431 . S
C777 C797 1.449 . S
C778 C777 1.258 . S
C778 C779 1.477 . S
C778 H798 0.931 . S
C779 C775 1.460 . S
C779 C778 1.477 . S
C779 H799 0.930 . S
C780 N776 1.362 . S
C780 C777 1.431 . S
C780 C790 1.476 . S
H781 C775 0.929 . S
C782 O773 1.250 . S
C782 O774 1.258 . S
O783 Mn768 2.162 . S
O783 C771 1.281 . S
O784 Mn768 2.297 . S
O784 C771 1.236 . S
N785 Mn769 2.282 . S
N785 C786 1.328 . S
N785 C790 1.318 . S
C786 N785 1.328 . S
C786 C787 1.457 . S
C786 H791 0.929 . S
C787 C786 1.457 . S
C787 C788 1.291 . S
C787 H800 0.931 . S
C788 C787 1.291 . S
C788 C789 1.373 . S
C788 H801 0.929 . S
C789 C788 1.373 . S
C789 C790 1.396 . S
C789 C796 1.403 . S
C790 C780 1.476 . S
C790 N785 1.318 . S
C790 C789 1.396 . S
H791 C786 0.929 . S
O792 Mn768 2.385 . S
O792 C770 1.234 . S
O793 Mn768 2.209 . S
O793 Mn769 2.215 . S
O793 C770 1.283 . S
O794 Mn768 2.094 . S
O794 C772 1.240 . S
O795 Mn769 2.117 . S
O795 C772 1.264 . S
C796 C789 1.403 . S
C796 C797 1.399 . S
C796 H802 0.929 . S
C797 C777 1.449 . S
C797 C796 1.399 . S
C797 H803 0.930 . S
H798 C778 0.931 . S
H799 C779 0.930 . S
H800 C787 0.931 . S
H801 C788 0.929 . S
H802 C796 0.929 . S
H803 C797 0.930 . S
Mn804 O809 2.095 . S
Mn804 O819 2.162 . S
Mn804 O820 2.297 . S
Mn804 O828 2.385 . S
Mn804 O829 2.209 . S
Mn804 O830 2.094 . S
Mn805 O810 2.121 . S
Mn805 N812 2.257 . S
Mn805 N821 2.282 . S
Mn805 O829 2.215 . S
Mn805 O831 2.117 . S
C806 O828 1.234 . S
C806 O829 1.283 . S
C807 O819 1.281 . S
C807 O820 1.236 . S
C808 O830 1.240 . S
C808 O831 1.264 . S
O809 Mn804 2.095 . S
O809 C818 1.250 . S
O810 Mn805 2.121 . S
O810 C818 1.258 . S
C811 N812 1.326 . S
C811 C815 1.460 . S
C811 H817 0.929 . S
N812 Mn805 2.257 . S
N812 C811 1.326 . S
N812 C816 1.362 . S
C813 C814 1.258 . S
C813 C816 1.431 . S
C813 C833 1.449 . S
C814 C813 1.258 . S
C814 C815 1.477 . S
C814 H834 0.931 . S
C815 C811 1.460 . S
C815 C814 1.477 . S
C815 H835 0.930 . S
C816 N812 1.362 . S
C816 C813 1.431 . S
C816 C826 1.476 . S
H817 C811 0.929 . S
C818 O809 1.250 . S
C818 O810 1.258 . S
O819 Mn804 2.162 . S
O819 C807 1.281 . S
O820 Mn804 2.297 . S
O820 C807 1.236 . S
N821 Mn805 2.282 . S
N821 C822 1.328 . S
N821 C826 1.318 . S
C822 N821 1.328 . S
C822 C823 1.457 . S
C822 H827 0.929 . S
C823 C822 1.457 . S
C823 C824 1.291 . S
C823 H836 0.931 . S
C824 C823 1.291 . S
C824 C825 1.373 . S
C824 H837 0.929 . S
C825 C824 1.373 . S
C825 C826 1.396 . S
C825 C832 1.403 . S
C826 C816 1.476 . S
C826 N821 1.318 . S
C826 C825 1.396 . S
H827 C822 0.929 . S
O828 Mn804 2.385 . S
O828 C806 1.234 . S
O829 Mn804 2.209 . S
O829 Mn805 2.215 . S
O829 C806 1.283 . S
O830 Mn804 2.094 . S
O830 C808 1.240 . S
O831 Mn805 2.117 . S
O831 C808 1.264 . S
C832 C825 1.403 . S
C832 C833 1.399 . S
C832 H838 0.929 . S
C833 C813 1.449 . S
C833 C832 1.399 . S
C833 H839 0.930 . S
H834 C814 0.931 . S
H835 C815 0.930 . S
H836 C823 0.931 . S
H837 C824 0.929 . S
H838 C832 0.929 . S
H839 C833 0.930 . S
Mn840 O845 2.095 . S
Mn840 O855 2.162 . S
Mn840 O856 2.297 . S
Mn840 O864 2.385 . S
Mn840 O865 2.209 . S
Mn840 O866 2.094 . S
Mn841 O846 2.121 . S
Mn841 N848 2.257 . S
Mn841 N857 2.282 . S
Mn841 O865 2.215 . S
Mn841 O867 2.117 . S
C842 O864 1.234 . S
C842 O865 1.283 . S
C843 O855 1.281 . S
C843 O856 1.236 . S
C844 O866 1.240 . S
C844 O867 1.264 . S
O845 Mn840 2.095 . S
O845 C854 1.250 . S
O846 Mn841 2.121 . S
O846 C854 1.258 . S
C847 N848 1.326 . S
C847 C851 1.460 . S
C847 H853 0.929 . S
N848 Mn841 2.257 . S
N848 C847 1.326 . S
N848 C852 1.362 . S
C849 C850 1.258 . S
C849 C852 1.431 . S
C849 C869 1.449 . S
C850 C849 1.258 . S
C850 C851 1.477 . S
C850 H870 0.931 . S
C851 C847 1.460 . S
C851 C850 1.477 . S
C851 H871 0.930 . S
C852 N848 1.362 . S
C852 C849 1.431 . S
C852 C862 1.476 . S
H853 C847 0.929 . S
C854 O845 1.250 . S
C854 O846 1.258 . S
O855 Mn840 2.162 . S
O855 C843 1.281 . S
O856 Mn840 2.297 . S
O856 C843 1.236 . S
N857 Mn841 2.282 . S
N857 C858 1.328 . S
N857 C862 1.318 . S
C858 N857 1.328 . S
C858 C859 1.457 . S
C858 H863 0.929 . S
C859 C858 1.457 . S
C859 C860 1.291 . S
C859 H872 0.931 . S
C860 C859 1.291 . S
C860 C861 1.373 . S
C860 H873 0.929 . S
C861 C860 1.373 . S
C861 C862 1.396 . S
C861 C868 1.403 . S
C862 C852 1.476 . S
C862 N857 1.318 . S
C862 C861 1.396 . S
H863 C858 0.929 . S
O864 Mn840 2.385 . S
O864 C842 1.234 . S
O865 Mn840 2.209 . S
O865 Mn841 2.215 . S
O865 C842 1.283 . S
O866 Mn840 2.094 . S
O866 C844 1.240 . S
O867 Mn841 2.117 . S
O867 C844 1.264 . S
C868 C861 1.403 . S
C868 C869 1.399 . S
C868 H874 0.929 . S
C869 C849 1.449 . S
C869 C868 1.399 . S
C869 H875 0.930 . S
H870 C850 0.931 . S
H871 C851 0.930 . S
H872 C859 0.931 . S
H873 C860 0.929 . S
H874 C868 0.929 . S
H875 C869 0.930 . S
Mn876 O881 2.095 . S
Mn876 O891 2.162 . S
Mn876 O892 2.297 . S
Mn876 O900 2.385 1_565 S
Mn876 O901 2.209 1_565 S
Mn876 O902 2.094 . S
Mn877 O882 2.121 . S
Mn877 N884 2.257 . S
Mn877 N893 2.282 . S
Mn877 O901 2.215 . S
Mn877 O903 2.117 . S
C878 O900 1.234 . S
C878 O901 1.283 . S
C879 O891 1.281 . S
C879 O892 1.236 . S
C880 O902 1.220 1_545 S
C880 O903 1.290 . S
O881 Mn876 2.095 . S
O881 C890 1.250 1_565 S
O882 Mn877 2.121 . S
O882 C890 1.258 . S
C883 N884 1.326 . S
C883 C887 1.460 . S
C883 H889 0.929 . S
N884 Mn877 2.257 . S
N884 C883 1.326 . S
N884 C888 1.362 . S
C885 C886 1.258 . S
C885 C888 1.431 . S
C885 C905 1.449 . S
C886 C885 1.258 . S
C886 C887 1.477 . S
C886 H906 0.931 . S
C887 C883 1.460 . S
C887 C886 1.477 . S
C887 H907 0.930 . S
C888 N884 1.362 . S
C888 C885 1.431 . S
C888 C898 1.476 . S
H889 C883 0.929 . S
C890 O881 1.250 1_545 S
C890 O882 1.258 . S
O891 Mn876 2.162 . S
O891 C879 1.281 . S
O892 Mn876 2.297 . S
O892 C879 1.236 . S
N893 Mn877 2.282 . S
N893 C894 1.328 . S
N893 C898 1.318 . S
C894 N893 1.328 . S
C894 C895 1.457 . S
C894 H899 0.929 . S
C895 C894 1.457 . S
C895 C896 1.291 . S
C895 H908 0.931 . S
C896 C895 1.291 . S
C896 C897 1.373 . S
C896 H909 0.929 . S
C897 C896 1.373 . S
C897 C898 1.396 . S
C897 C904 1.403 . S
C898 C888 1.476 . S
C898 N893 1.318 . S
C898 C897 1.396 . S
H899 C894 0.929 . S
O900 Mn876 2.385 1_545 S
O900 C878 1.234 . S
O901 Mn876 2.209 1_545 S
O901 Mn877 2.215 . S
O901 C878 1.283 . S
O902 Mn876 2.094 . S
O902 C880 1.220 1_565 S
O903 Mn877 2.117 . S
O903 C880 1.290 . S
C904 C897 1.403 . S
C904 C905 1.399 . S
C904 H910 0.929 . S
C905 C885 1.449 . S
C905 C904 1.399 . S
C905 H911 0.930 . S
H906 C886 0.931 . S
H907 C887 0.930 . S
H908 C895 0.931 . S
H909 C896 0.929 . S
H910 C904 0.929 . S
H911 C905 0.930 . S
Mn912 O917 2.095 . S
Mn912 O927 2.162 . S
Mn912 O928 2.297 . S
Mn912 O936 2.385 1_455 S
Mn912 O937 2.209 1_455 S
Mn912 O938 2.094 . S
Mn913 O918 2.121 . S
Mn913 N920 2.257 . S
Mn913 N929 2.282 . S
Mn913 O937 2.215 . S
Mn913 O939 2.117 . S
C914 O936 1.234 . S
C914 O937 1.283 . S
C915 O927 1.281 . S
C915 O928 1.236 . S
C916 O938 1.240 . S
C916 O939 1.264 1_455 S
O917 Mn912 2.095 . S
O917 C926 1.250 1_455 S
O918 Mn913 2.121 . S
O918 C926 1.258 . S
C919 N920 1.326 . S
C919 C923 1.460 . S
C919 H925 0.929 . S
N920 Mn913 2.257 . S
N920 C919 1.326 . S
N920 C924 1.362 . S
C921 C922 1.258 . S
C921 C924 1.431 . S
C921 C941 1.449 . S
C922 C921 1.258 . S
C922 C923 1.477 . S
C922 H942 0.931 . S
C923 C919 1.460 . S
C923 C922 1.477 . S
C923 H943 0.930 . S
C924 N920 1.362 . S
C924 C921 1.431 . S
C924 C934 1.476 . S
H925 C919 0.929 . S
C926 O917 1.250 1_655 S
C926 O918 1.258 . S
O927 Mn912 2.162 . S
O927 C915 1.281 . S
O928 Mn912 2.297 . S
O928 C915 1.236 . S
N929 Mn913 2.282 . S
N929 C930 1.328 . S
N929 C934 1.318 . S
C930 N929 1.328 . S
C930 C931 1.457 . S
C930 H935 0.929 . S
C931 C930 1.457 . S
C931 C932 1.291 . S
C931 H944 0.931 . S
C932 C931 1.291 . S
C932 C933 1.373 . S
C932 H945 0.929 . S
C933 C932 1.373 . S
C933 C934 1.396 . S
C933 C940 1.403 . S
C934 C924 1.476 . S
C934 N929 1.318 . S
C934 C933 1.396 . S
H935 C930 0.929 . S
O936 Mn912 2.385 1_655 S
O936 C914 1.234 . S
O937 Mn912 2.209 1_655 S
O937 Mn913 2.215 . S
O937 C914 1.283 . S
O938 Mn912 2.094 . S
O938 C916 1.240 . S
O939 Mn913 2.117 . S
O939 C916 1.264 1_655 S
C940 C933 1.403 . S
C940 C941 1.399 . S
C940 H946 0.929 . S
C941 C921 1.449 . S
C941 C940 1.399 . S
C941 H947 0.930 . S
H942 C922 0.931 . S
H943 C923 0.930 . S
H944 C931 0.931 . S
H945 C932 0.929 . S
H946 C940 0.929 . S
H947 C941 0.930 . S
Mn948 O953 2.095 . S
Mn948 O963 2.162 . S
Mn948 O964 2.297 . S
Mn948 O972 2.385 . S
Mn948 O973 2.209 . S
Mn948 O974 2.094 . S
Mn949 O954 2.121 . S
Mn949 N956 2.257 . S
Mn949 N965 2.282 . S
Mn949 O973 2.215 . S
Mn949 O975 2.117 . S
C950 O972 1.234 . S
C950 O973 1.283 . S
C951 O963 1.281 . S
C951 O964 1.236 . S
C952 O974 1.240 . S
C952 O975 1.264 . S
O953 Mn948 2.095 . S
O953 C962 1.250 . S
O954 Mn949 2.121 . S
O954 C962 1.258 . S
C955 N956 1.326 . S
C955 C959 1.460 . S
C955 H961 0.929 . S
N956 Mn949 2.257 . S
N956 C955 1.326 . S
N956 C960 1.362 . S
C957 C958 1.258 . S
C957 C960 1.431 . S
C957 C977 1.449 . S
C958 C957 1.258 . S
C958 C959 1.477 . S
C958 H978 0.931 . S
C959 C955 1.460 . S
C959 C958 1.477 . S
C959 H979 0.930 . S
C960 N956 1.362 . S
C960 C957 1.431 . S
C960 C970 1.476 . S
H961 C955 0.929 . S
C962 O953 1.250 . S
C962 O954 1.258 . S
O963 Mn948 2.162 . S
O963 C951 1.281 . S
O964 Mn948 2.297 . S
O964 C951 1.236 . S
N965 Mn949 2.282 . S
N965 C966 1.328 . S
N965 C970 1.318 . S
C966 N965 1.328 . S
C966 C967 1.457 . S
C966 H971 0.929 . S
C967 C966 1.457 . S
C967 C968 1.291 . S
C967 H980 0.931 . S
C968 C967 1.291 . S
C968 C969 1.373 . S
C968 H981 0.929 . S
C969 C968 1.373 . S
C969 C970 1.396 . S
C969 C976 1.403 . S
C970 C960 1.476 . S
C970 N965 1.318 . S
C970 C969 1.396 . S
H971 C966 0.929 . S
O972 Mn948 2.385 . S
O972 C950 1.234 . S
O973 Mn948 2.209 . S
O973 Mn949 2.215 . S
O973 C950 1.283 . S
O974 Mn948 2.094 . S
O974 C952 1.240 . S
O975 Mn949 2.117 . S
O975 C952 1.264 . S
C976 C969 1.403 . S
C976 C977 1.399 . S
C976 H982 0.929 . S
C977 C957 1.449 . S
C977 C976 1.399 . S
C977 H983 0.930 . S
H978 C958 0.931 . S
H979 C959 0.930 . S
H980 C967 0.931 . S
H981 C968 0.929 . S
H982 C976 0.929 . S
H983 C977 0.930 . S
Mn984 O989 2.095 1_455 S
Mn984 O999 2.162 . S
Mn984 O1000 2.297 1_455 S
Mn984 O1008 2.385 . S
Mn984 O1009 2.209 1_455 S
Mn984 O1010 2.094 . S
Mn985 O990 2.121 . S
Mn985 N992 2.257 . S
Mn985 N1001 2.282 1_655 S
Mn985 O1009 2.215 . S
Mn985 O1011 2.117 1_655 S
C986 O1008 1.234 . S
C986 O1009 1.283 1_455 S
C987 O999 1.281 . S
C987 O1000 1.236 1_455 S
C988 O1010 1.240 . S
C988 O1011 1.264 . S
O989 Mn984 2.095 1_655 S
O989 C998 1.250 . S
O990 Mn985 2.121 . S
O990 C998 1.258 . S
C991 N992 1.326 . S
C991 C995 1.460 . S
C991 H997 0.929 . S
N992 Mn985 2.257 . S
N992 C991 1.326 . S
N992 C996 1.362 . S
C993 C994 1.258 . S
C993 C996 1.431 . S
C993 C1013 1.449 . S
C994 C993 1.258 . S
C994 C995 1.477 . S
C994 H1014 0.931 . S
C995 C991 1.460 . S
C995 C994 1.477 . S
C995 H1015 0.930 . S
C996 N992 1.362 . S
C996 C993 1.431 . S
C996 C1006 1.476 . S
H997 C991 0.929 . S
C998 O989 1.250 . S
C998 O990 1.258 . S
O999 Mn984 2.162 . S
O999 C987 1.281 . S
O1000 Mn984 2.297 1_655 S
O1000 C987 1.236 1_655 S
N1001 Mn985 2.282 1_455 S
N1001 C1002 1.328 . S
N1001 C1006 1.318 1_455 S
C1002 N1001 1.328 . S
C1002 C1003 1.457 . S
C1002 H1007 0.929 . S
C1003 C1002 1.457 . S
C1003 C1004 1.291 . S
C1003 H1016 0.931 . S
C1004 C1003 1.291 . S
C1004 C1005 1.373 1_455 S
C1004 H1017 0.929 . S
C1005 C1004 1.373 1_655 S
C1005 C1006 1.396 . S
C1005 C1012 1.403 . S
C1006 C996 1.476 . S
C1006 N1001 1.318 1_655 S
C1006 C1005 1.396 . S
H1007 C1002 0.929 . S
O1008 Mn984 2.385 . S
O1008 C986 1.234 . S
O1009 Mn984 2.209 1_655 S
O1009 Mn985 2.215 . S
O1009 C986 1.283 1_655 S
O1010 Mn984 2.094 . S
O1010 C988 1.240 . S
O1011 Mn985 2.117 1_455 S
O1011 C988 1.264 . S
C1012 C1005 1.403 . S
C1012 C1013 1.399 . S
C1012 H1018 0.929 . S
C1013 C993 1.449 . S
C1013 C1012 1.399 . S
C1013 H1019 0.930 . S
H1014 C994 0.931 . S
H1015 C995 0.930 . S
H1016 C1003 0.931 . S
H1017 C1004 0.929 . S
H1018 C1012 0.929 . S
H1019 C1013 0.930 . S
Mn1020 O1025 2.095 . S
Mn1020 O1035 2.162 . S
Mn1020 O1036 2.297 . S
Mn1020 O1044 2.385 . S
Mn1020 O1045 2.209 . S
Mn1020 O1046 2.094 . S
Mn1021 O1026 2.121 . S
Mn1021 N1028 2.257 . S
Mn1021 N1037 2.282 . S
Mn1021 O1045 2.215 . S
Mn1021 O1047 2.117 . S
C1022 O1044 1.234 . S
C1022 O1045 1.283 . S
C1023 O1035 1.281 . S
C1023 O1036 1.236 . S
C1024 O1046 1.240 . S
C1024 O1047 1.264 . S
O1025 Mn1020 2.095 . S
O1025 C1034 1.250 . S
O1026 Mn1021 2.121 . S
O1026 C1034 1.258 . S
C1027 N1028 1.326 . S
C1027 C1031 1.460 . S
C1027 H1033 0.929 . S
N1028 Mn1021 2.257 . S
N1028 C1027 1.326 . S
N1028 C1032 1.362 . S
C1029 C1030 1.258 . S
C1029 C1032 1.431 . S
C1029 C1049 1.449 . S
C1030 C1029 1.258 . S
C1030 C1031 1.477 . S
C1030 H1050 0.931 . S
C1031 C1027 1.460 . S
C1031 C1030 1.477 . S
C1031 H1051 0.930 . S
C1032 N1028 1.362 . S
C1032 C1029 1.431 . S
C1032 C1042 1.476 . S
H1033 C1027 0.929 . S
C1034 O1025 1.250 . S
C1034 O1026 1.258 . S
O1035 Mn1020 2.162 . S
O1035 C1023 1.281 . S
O1036 Mn1020 2.297 . S
O1036 C1023 1.236 . S
N1037 Mn1021 2.282 . S
N1037 C1038 1.328 . S
N1037 C1042 1.318 . S
C1038 N1037 1.328 . S
C1038 C1039 1.457 . S
C1038 H1043 0.929 . S
C1039 C1038 1.457 . S
C1039 C1040 1.291 . S
C1039 H1052 0.931 . S
C1040 C1039 1.291 . S
C1040 C1041 1.373 . S
C1040 H1053 0.929 . S
C1041 C1040 1.373 . S
C1041 C1042 1.396 . S
C1041 C1048 1.403 . S
C1042 C1032 1.476 . S
C1042 N1037 1.318 . S
C1042 C1041 1.396 . S
H1043 C1038 0.929 . S
O1044 Mn1020 2.385 . S
O1044 C1022 1.234 . S
O1045 Mn1020 2.209 . S
O1045 Mn1021 2.215 . S
O1045 C1022 1.283 . S
O1046 Mn1020 2.094 . S
O1046 C1024 1.240 . S
O1047 Mn1021 2.117 . S
O1047 C1024 1.264 . S
C1048 C1041 1.403 . S
C1048 C1049 1.399 . S
C1048 H1054 0.929 . S
C1049 C1029 1.449 . S
C1049 C1048 1.399 . S
C1049 H1055 0.930 . S
H1050 C1030 0.931 . S
H1051 C1031 0.930 . S
H1052 C1039 0.931 . S
H1053 C1040 0.929 . S
H1054 C1048 0.929 . S
H1055 C1049 0.930 . S
C1056 C1057 1.349 . S
C1056 C1058 1.327 . S
C1056 H1081 0.950 . S
C1057 C1056 1.349 . S
C1057 C1073 1.349 . S
C1058 C1056 1.327 . S
C1058 C1077 1.429 . S
C1058 H1082 0.950 . S
C1059 C1076 1.574 . S
C1059 C1078 1.368 . S
C1059 H1083 0.949 . S
H1060 C1064 0.949 . S
C1061 C1062 1.349 . S
C1061 C1063 1.327 . S
C1061 H1084 0.950 . S
C1062 C1061 1.349 . S
C1062 C1074 1.349 . S
C1063 C1061 1.327 . S
C1063 C1079 1.429 . S
C1063 H1085 0.950 . S
C1064 H1060 0.949 . S
C1064 C1072 1.574 . S
C1064 C1080 1.368 . S
H1065 C1073 0.950 . S
H1066 C1071 0.950 . S
H1067 C1072 0.949 . S
H1068 C1074 0.950 . S
H1069 C1075 0.950 . S
H1070 C1076 0.949 . S
C1071 H1066 0.950 . S
C1071 C1073 1.327 . S
C1071 C1077 1.429 . S
C1072 C1064 1.574 . S
C1072 H1067 0.949 . S
C1072 C1078 1.368 . S
C1073 C1057 1.349 . S
C1073 H1065 0.950 . S
C1073 C1071 1.327 . S
C1074 C1062 1.349 . S
C1074 H1068 0.950 . S
C1074 C1075 1.327 . S
C1075 H1069 0.950 . S
C1075 C1074 1.327 . S
C1075 C1079 1.429 . S
C1076 C1059 1.574 . S
C1076 H1070 0.949 . S
C1076 C1080 1.368 . S
C1077 C1058 1.429 . S
C1077 C1071 1.429 . S
C1077 C1078 1.523 . S
C1078 C1059 1.368 . S
C1078 C1072 1.368 . S
C1078 C1077 1.523 . S
C1079 C1063 1.429 . S
C1079 C1075 1.429 . S
C1079 C1080 1.523 . S
C1080 C1064 1.368 . S
C1080 C1076 1.368 . S
C1080 C1079 1.523 . S
H1081 C1056 0.950 . S
H1082 C1058 0.950 . S
H1083 C1059 0.949 . S
H1084 C1061 0.950 . S
H1085 C1063 0.950 . S
C1086 C1087 1.349 . S
C1086 C1088 1.327 . S
C1086 H1111 0.950 . S
C1087 C1086 1.349 . S
C1087 C1103 1.349 . S
C1088 C1086 1.327 . S
C1088 C1107 1.429 . S
C1088 H1112 0.950 . S
C1089 C1106 1.574 . S
C1089 C1108 1.368 . S
C1089 H1113 0.949 . S
H1090 C1094 0.949 . S
C1091 C1092 1.349 . S
C1091 C1093 1.327 . S
C1091 H1114 0.950 . S
C1092 C1091 1.349 . S
C1092 C1104 1.349 . S
C1093 C1091 1.327 . S
C1093 C1109 1.429 . S
C1093 H1115 0.950 . S
C1094 H1090 0.949 . S
C1094 C1102 1.574 . S
C1094 C1110 1.368 . S
H1095 C1103 0.950 . S
H1096 C1101 0.950 . S
H1097 C1102 0.949 . S
H1098 C1104 0.950 . S
H1099 C1105 0.950 . S
H1100 C1106 0.949 . S
C1101 H1096 0.950 . S
C1101 C1103 1.327 . S
C1101 C1107 1.429 . S
C1102 C1094 1.574 . S
C1102 H1097 0.949 . S
C1102 C1108 1.368 . S
C1103 C1087 1.349 . S
C1103 H1095 0.950 . S
C1103 C1101 1.327 . S
C1104 C1092 1.349 . S
C1104 H1098 0.950 . S
C1104 C1105 1.327 . S
C1105 H1099 0.950 . S
C1105 C1104 1.327 . S
C1105 C1109 1.429 . S
C1106 C1089 1.574 . S
C1106 H1100 0.949 . S
C1106 C1110 1.368 . S
C1107 C1088 1.429 . S
C1107 C1101 1.429 . S
C1107 C1108 1.523 . S
C1108 C1089 1.368 . S
C1108 C1102 1.368 . S
C1108 C1107 1.523 . S
C1109 C1093 1.429 . S
C1109 C1105 1.429 . S
C1109 C1110 1.523 . S
C1110 C1094 1.368 . S
C1110 C1106 1.368 . S
C1110 C1109 1.523 . S
H1111 C1086 0.950 . S
H1112 C1088 0.950 . S
H1113 C1089 0.949 . S
H1114 C1091 0.950 . S
H1115 C1093 0.950 . S
C1116 C1117 1.349 . S
C1116 C1118 1.327 . S
C1116 H1141 0.950 . S
C1117 C1116 1.349 . S
C1117 C1133 1.349 . S
C1118 C1116 1.327 . S
C1118 C1137 1.429 . S
C1118 H1142 0.950 . S
C1119 C1136 1.574 . S
C1119 C1138 1.368 . S
C1119 H1143 0.949 . S
H1120 C1124 0.949 . S
C1121 C1122 1.349 . S
C1121 C1123 1.327 . S
C1121 H1144 0.950 . S
C1122 C1121 1.349 . S
C1122 C1134 1.349 . S
C1123 C1121 1.327 . S
C1123 C1139 1.429 . S
C1123 H1145 0.950 . S
C1124 H1120 0.949 . S
C1124 C1132 1.574 . S
C1124 C1140 1.368 . S
H1125 C1133 0.950 . S
H1126 C1131 0.950 . S
H1127 C1132 0.949 . S
H1128 C1134 0.950 . S
H1129 C1135 0.950 . S
H1130 C1136 0.949 . S
C1131 H1126 0.950 . S
C1131 C1133 1.327 . S
C1131 C1137 1.429 . S
C1132 C1124 1.574 . S
C1132 H1127 0.949 . S
C1132 C1138 1.368 . S
C1133 C1117 1.349 . S
C1133 H1125 0.950 . S
C1133 C1131 1.327 . S
C1134 C1122 1.349 . S
C1134 H1128 0.950 . S
C1134 C1135 1.327 . S
C1135 H1129 0.950 . S
C1135 C1134 1.327 . S
C1135 C1139 1.429 . S
C1136 C1119 1.574 . S
C1136 H1130 0.949 . S
C1136 C1140 1.368 . S
C1137 C1118 1.429 . S
C1137 C1131 1.429 . S
C1137 C1138 1.523 . S
C1138 C1119 1.368 . S
C1138 C1132 1.368 . S
C1138 C1137 1.523 . S
C1139 C1123 1.429 . S
C1139 C1135 1.429 . S
C1139 C1140 1.523 . S
C1140 C1124 1.368 . S
C1140 C1136 1.368 . S
C1140 C1139 1.523 . S
H1141 C1116 0.950 . S
H1142 C1118 0.950 . S
H1143 C1119 0.949 . S
H1144 C1121 0.950 . S
H1145 C1123 0.950 . S
C1146 C1147 1.349 . S
C1146 C1148 1.327 1_565 S
C1146 H1171 0.950 1_565 S
C1147 C1146 1.349 . S
C1147 C1163 1.349 . S
C1148 C1146 1.327 1_545 S
C1148 C1167 1.429 1_545 S
C1148 H1172 0.950 . S
C1149 C1166 1.574 . S
C1149 C1168 1.368 . S
C1149 H1173 0.949 . S
H1150 C1154 0.949 . S
C1151 C1152 1.349 1_565 S
C1151 C1153 1.327 . S
C1151 H1174 0.950 . S
C1152 C1151 1.349 1_545 S
C1152 C1164 1.349 . S
C1153 C1151 1.327 . S
C1153 C1169 1.459 . S
C1153 H1175 0.950 . S
C1154 H1150 0.949 . S
C1154 C1162 1.574 . S
C1154 C1170 1.368 1_545 S
H1155 C1163 0.950 . S
H1156 C1161 0.950 . S
H1157 C1162 0.949 . S
H1158 C1164 0.950 . S
H1159 C1165 0.950 . S
H1160 C1166 0.949 . S
C1161 H1156 0.950 . S
C1161 C1163 1.327 . S
C1161 C1167 1.429 . S
C1162 C1154 1.574 . S
C1162 H1157 0.949 . S
C1162 C1168 1.368 1_545 S
C1163 C1147 1.349 . S
C1163 H1155 0.950 . S
C1163 C1161 1.327 . S
C1164 C1152 1.349 . S
C1164 H1158 0.950 . S
C1164 C1165 1.327 . S
C1165 H1159 0.950 . S
C1165 C1164 1.327 . S
C1165 C1169 1.390 1_545 S
C1166 C1149 1.574 . S
C1166 H1160 0.949 . S
C1166 C1170 1.368 . S
C1167 C1148 1.429 1_565 S
C1167 C1161 1.429 . S
C1167 C1168 1.523 . S
C1168 C1149 1.368 . S
C1168 C1162 1.368 1_565 S
C1168 C1167 1.523 . S
C1169 C1153 1.459 . S
C1169 C1165 1.390 1_565 S
C1169 C1170 1.532 . S
C1170 C1154 1.368 1_565 S
C1170 C1166 1.368 . S
C1170 C1169 1.532 . S
H1171 C1146 0.950 1_545 S
H1172 C1148 0.950 . S
H1173 C1149 0.949 . S
H1174 C1151 0.950 . S
H1175 C1153 0.950 . S
C1176 C1177 1.349 . S
C1176 C1178 1.327 . S
C1176 H1201 0.950 . S
C1177 C1176 1.349 . S
C1177 C1193 1.349 . S
C1178 C1176 1.327 . S
C1178 C1197 1.429 . S
C1178 H1202 0.950 . S
C1179 C1196 1.574 . S
C1179 C1198 1.368 . S
C1179 H1203 0.949 . S
H1180 C1184 0.949 . S
C1181 C1182 1.349 . S
C1181 C1183 1.327 . S
C1181 H1204 0.950 . S
C1182 C1181 1.349 . S
C1182 C1194 1.349 . S
C1183 C1181 1.327 . S
C1183 C1199 1.429 . S
C1183 H1205 0.950 . S
C1184 H1180 0.949 . S
C1184 C1192 1.574 . S
C1184 C1200 1.368 . S
H1185 C1193 0.950 . S
H1186 C1191 0.950 . S
H1187 C1192 0.949 . S
H1188 C1194 0.950 . S
H1189 C1195 0.950 . S
H1190 C1196 0.949 . S
C1191 H1186 0.950 . S
C1191 C1193 1.327 . S
C1191 C1197 1.429 . S
C1192 C1184 1.574 . S
C1192 H1187 0.949 . S
C1192 C1198 1.368 . S
C1193 C1177 1.349 . S
C1193 H1185 0.950 . S
C1193 C1191 1.327 . S
C1194 C1182 1.349 . S
C1194 H1188 0.950 . S
C1194 C1195 1.327 . S
C1195 H1189 0.950 . S
C1195 C1194 1.327 . S
C1195 C1199 1.429 . S
C1196 C1179 1.574 . S
C1196 H1190 0.949 . S
C1196 C1200 1.368 . S
C1197 C1178 1.429 . S
C1197 C1191 1.429 . S
C1197 C1198 1.523 . S
C1198 C1179 1.368 . S
C1198 C1192 1.368 . S
C1198 C1197 1.523 . S
C1199 C1183 1.429 . S
C1199 C1195 1.429 . S
C1199 C1200 1.523 . S
C1200 C1184 1.368 . S
C1200 C1196 1.368 . S
C1200 C1199 1.523 . S
H1201 C1176 0.950 . S
H1202 C1178 0.950 . S
H1203 C1179 0.949 . S
H1204 C1181 0.950 . S
H1205 C1183 0.950 . S
C1206 C1207 1.349 . S
C1206 C1208 1.327 . S
C1206 H1231 0.950 . S
C1207 C1206 1.349 . S
C1207 C1223 1.349 . S
C1208 C1206 1.327 . S
C1208 C1227 1.429 . S
C1208 H1232 0.950 . S
C1209 C1226 1.574 . S
C1209 C1228 1.368 . S
C1209 H1233 0.949 . S
H1210 C1214 0.949 . S
C1211 C1212 1.349 . S
C1211 C1213 1.327 . S
C1211 H1234 0.950 . S
C1212 C1211 1.349 . S
C1212 C1224 1.349 . S
C1213 C1211 1.327 . S
C1213 C1229 1.429 . S
C1213 H1235 0.950 . S
C1214 H1210 0.949 . S
C1214 C1222 1.574 . S
C1214 C1230 1.368 . S
H1215 C1223 0.950 . S
H1216 C1221 0.950 . S
H1217 C1222 0.949 . S
H1218 C1224 0.950 . S
H1219 C1225 0.950 . S
H1220 C1226 0.949 . S
C1221 H1216 0.950 . S
C1221 C1223 1.327 . S
C1221 C1227 1.429 . S
C1222 C1214 1.574 . S
C1222 H1217 0.949 . S
C1222 C1228 1.368 . S
C1223 C1207 1.349 . S
C1223 H1215 0.950 . S
C1223 C1221 1.327 . S
C1224 C1212 1.349 . S
C1224 H1218 0.950 . S
C1224 C1225 1.327 . S
C1225 H1219 0.950 . S
C1225 C1224 1.327 . S
C1225 C1229 1.429 . S
C1226 C1209 1.574 . S
C1226 H1220 0.949 . S
C1226 C1230 1.368 . S
C1227 C1208 1.429 . S
C1227 C1221 1.429 . S
C1227 C1228 1.523 . S
C1228 C1209 1.368 . S
C1228 C1222 1.368 . S
C1228 C1227 1.523 . S
C1229 C1213 1.429 . S
C1229 C1225 1.429 . S
C1229 C1230 1.523 . S
C1230 C1214 1.368 . S
C1230 C1226 1.368 . S
C1230 C1229 1.523 . S
H1231 C1206 0.950 . S
H1232 C1208 0.950 . S
H1233 C1209 0.949 . S
H1234 C1211 0.950 . S
H1235 C1213 0.950 . S
C1236 C1237 1.349 . S
C1236 C1238 1.327 . S
C1236 H1261 0.950 . S
C1237 C1236 1.349 . S
C1237 C1253 1.349 . S
C1238 C1236 1.327 . S
C1238 C1257 1.429 . S
C1238 H1262 0.950 . S
C1239 C1256 1.574 . S
C1239 C1258 1.368 . S
C1239 H1263 0.949 . S
H1240 C1244 0.949 . S
C1241 C1242 1.349 . S
C1241 C1243 1.327 . S
C1241 H1264 0.950 . S
C1242 C1241 1.349 . S
C1242 C1254 1.349 . S
C1243 C1241 1.327 . S
C1243 C1259 1.429 . S
C1243 H1265 0.950 . S
C1244 H1240 0.949 . S
C1244 C1252 1.574 . S
C1244 C1260 1.368 . S
H1245 C1253 0.950 . S
H1246 C1251 0.950 . S
H1247 C1252 0.949 . S
H1248 C1254 0.950 . S
H1249 C1255 0.950 . S
H1250 C1256 0.949 . S
C1251 H1246 0.950 . S
C1251 C1253 1.327 . S
C1251 C1257 1.429 . S
C1252 C1244 1.574 . S
C1252 H1247 0.949 . S
C1252 C1258 1.368 . S
C1253 C1237 1.349 . S
C1253 H1245 0.950 . S
C1253 C1251 1.327 . S
C1254 C1242 1.349 . S
C1254 H1248 0.950 . S
C1254 C1255 1.327 . S
C1255 H1249 0.950 . S
C1255 C1254 1.327 . S
C1255 C1259 1.429 . S
C1256 C1239 1.574 . S
C1256 H1250 0.949 . S
C1256 C1260 1.368 . S
C1257 C1238 1.429 . S
C1257 C1251 1.429 . S
C1257 C1258 1.523 . S
C1258 C1239 1.368 . S
C1258 C1252 1.368 . S
C1258 C1257 1.523 . S
C1259 C1243 1.429 . S
C1259 C1255 1.429 . S
C1259 C1260 1.523 . S
C1260 C1244 1.368 . S
C1260 C1256 1.368 . S
C1260 C1259 1.523 . S
H1261 C1236 0.950 . S
H1262 C1238 0.950 . S
H1263 C1239 0.949 . S
H1264 C1241 0.950 . S
H1265 C1243 0.950 . S
C1266 C1267 1.349 . S
C1266 C1268 1.327 . S
C1266 H1291 0.914 1_565 S
C1267 C1266 1.349 . S
C1267 C1283 1.349 . S
C1268 C1266 1.327 . S
C1268 C1287 1.429 . S
C1268 H1292 0.950 1_565 S
C1269 C1286 1.574 . S
C1269 C1288 1.368 . S
C1269 H1293 0.949 . S
H1270 C1274 0.949 . S
C1271 C1272 1.349 . S
C1271 C1273 1.327 . S
C1271 H1294 0.950 . S
C1272 C1271 1.349 . S
C1272 C1284 1.349 1_565 S
C1273 C1271 1.327 . S
C1273 C1289 1.429 . S
C1273 H1295 0.950 . S
C1274 H1270 0.949 . S
C1274 C1282 1.575 . S
C1274 C1290 1.368 1_545 S
H1275 C1283 0.950 . S
H1276 C1281 0.950 . S
H1277 C1282 0.958 . S
H1278 C1284 0.950 . S
H1279 C1285 0.950 . S
H1280 C1286 0.949 . S
C1281 H1276 0.950 . S
C1281 C1283 1.327 . S
C1281 C1287 1.429 . S
C1282 C1274 1.575 . S
C1282 H1277 0.958 . S
C1282 C1288 1.357 1_545 S
C1283 C1267 1.349 . S
C1283 H1275 0.950 . S
C1283 C1281 1.327 . S
C1284 C1272 1.349 1_545 S
C1284 H1278 0.950 . S
C1284 C1285 1.327 . S
C1285 H1279 0.950 . S
C1285 C1284 1.327 . S
C1285 C1289 1.429 1_545 S
C1286 C1269 1.574 . S
C1286 H1280 0.949 . S
C1286 C1290 1.368 . S
C1287 C1268 1.429 . S
C1287 C1281 1.429 . S
C1287 C1288 1.523 . S
C1288 C1269 1.368 . S
C1288 C1282 1.357 1_565 S
C1288 C1287 1.523 . S
C1289 C1273 1.429 . S
C1289 C1285 1.429 1_565 S
C1289 C1290 1.523 . S
C1290 C1274 1.368 1_565 S
C1290 C1286 1.368 . S
C1290 C1289 1.523 . S
H1291 C1266 0.914 1_545 S
H1292 C1268 0.950 1_545 S
H1293 C1269 0.949 . S
H1294 C1271 0.950 . S
H1295 C1273 0.950 . S
C1296 C1297 1.349 . S
C1296 C1298 1.327 . S
C1296 H1321 0.950 . S
C1297 C1296 1.349 . S
C1297 C1313 1.349 . S
C1298 C1296 1.327 . S
C1298 C1317 1.429 . S
C1298 H1322 0.950 . S
C1299 C1316 1.574 . S
C1299 C1318 1.368 . S
C1299 H1323 0.949 . S
H1300 C1304 0.949 . S
C1301 C1302 1.349 . S
C1301 C1303 1.327 . S
C1301 H1324 0.950 . S
C1302 C1301 1.349 . S
C1302 C1314 1.349 . S
C1303 C1301 1.327 . S
C1303 C1319 1.429 . S
C1303 H1325 0.950 . S
C1304 H1300 0.949 . S
C1304 C1312 1.574 . S
C1304 C1320 1.368 . S
H1305 C1313 0.950 . S
H1306 C1311 0.950 . S
H1307 C1312 0.949 . S
H1308 C1314 0.950 . S
H1309 C1315 0.950 . S
H1310 C1316 0.949 . S
C1311 H1306 0.950 . S
C1311 C1313 1.327 . S
C1311 C1317 1.429 . S
C1312 C1304 1.574 . S
C1312 H1307 0.949 . S
C1312 C1318 1.368 . S
C1313 C1297 1.349 . S
C1313 H1305 0.950 . S
C1313 C1311 1.327 . S
C1314 C1302 1.349 . S
C1314 H1308 0.950 . S
C1314 C1315 1.327 . S
C1315 H1309 0.950 . S
C1315 C1314 1.327 . S
C1315 C1319 1.429 . S
C1316 C1299 1.574 . S
C1316 H1310 0.949 . S
C1316 C1320 1.368 . S
C1317 C1298 1.429 . S
C1317 C1311 1.429 . S
C1317 C1318 1.523 . S
C1318 C1299 1.368 . S
C1318 C1312 1.368 . S
C1318 C1317 1.523 . S
C1319 C1303 1.429 . S
C1319 C1315 1.429 . S
C1319 C1320 1.523 . S
C1320 C1304 1.368 . S
C1320 C1316 1.368 . S
C1320 C1319 1.523 . S
H1321 C1296 0.950 . S
H1322 C1298 0.950 . S
H1323 C1299 0.949 . S
H1324 C1301 0.950 . S
H1325 C1303 0.950 . S
C1326 C1327 1.349 . S
C1326 C1328 1.327 . S
C1326 H1351 0.950 . S
C1327 C1326 1.349 . S
C1327 C1343 1.349 . S
C1328 C1326 1.327 . S
C1328 C1347 1.429 . S
C1328 H1352 0.950 . S
C1329 C1346 1.574 . S
C1329 C1348 1.368 . S
C1329 H1353 0.949 . S
H1330 C1334 0.949 . S
C1331 C1332 1.349 . S
C1331 C1333 1.327 . S
C1331 H1354 0.950 . S
C1332 C1331 1.349 . S
C1332 C1344 1.349 . S
C1333 C1331 1.327 . S
C1333 C1349 1.429 . S
C1333 H1355 0.950 . S
C1334 H1330 0.949 . S
C1334 C1342 1.574 . S
C1334 C1350 1.368 . S
H1335 C1343 0.950 . S
H1336 C1341 0.950 . S
H1337 C1342 0.949 . S
H1338 C1344 0.950 . S
H1339 C1345 0.950 . S
H1340 C1346 0.949 . S
C1341 H1336 0.950 . S
C1341 C1343 1.327 . S
C1341 C1347 1.429 . S
C1342 C1334 1.574 . S
C1342 H1337 0.949 . S
C1342 C1348 1.368 . S
C1343 C1327 1.349 . S
C1343 H1335 0.950 . S
C1343 C1341 1.327 . S
C1344 C1332 1.349 . S
C1344 H1338 0.950 . S
C1344 C1345 1.327 . S
C1345 H1339 0.950 . S
C1345 C1344 1.327 . S
C1345 C1349 1.429 . S
C1346 C1329 1.574 . S
C1346 H1340 0.949 . S
C1346 C1350 1.368 . S
C1347 C1328 1.429 . S
C1347 C1341 1.429 . S
C1347 C1348 1.523 . S
C1348 C1329 1.368 . S
C1348 C1342 1.368 . S
C1348 C1347 1.523 . S
C1349 C1333 1.429 . S
C1349 C1345 1.429 . S
C1349 C1350 1.523 . S
C1350 C1334 1.368 . S
C1350 C1346 1.368 . S
C1350 C1349 1.523 . S
H1351 C1326 0.950 . S
H1352 C1328 0.950 . S
H1353 C1329 0.949 . S
H1354 C1331 0.950 . S
H1355 C1333 0.950 . S
C1356 C1357 1.349 . S
C1356 C1358 1.327 . S
C1356 H1381 0.950 . S
C1357 C1356 1.349 . S
C1357 C1373 1.349 . S
C1358 C1356 1.327 . S
C1358 C1377 1.429 . S
C1358 H1382 0.950 . S
C1359 C1376 1.574 . S
C1359 C1378 1.368 . S
C1359 H1383 0.949 . S
H1360 C1364 0.949 . S
C1361 C1362 1.349 . S
C1361 C1363 1.327 . S
C1361 H1384 0.950 . S
C1362 C1361 1.349 . S
C1362 C1374 1.349 . S
C1363 C1361 1.327 . S
C1363 C1379 1.429 . S
C1363 H1385 0.950 . S
C1364 H1360 0.949 . S
C1364 C1372 1.574 . S
C1364 C1380 1.368 . S
H1365 C1373 0.950 . S
H1366 C1371 0.950 . S
H1367 C1372 0.949 . S
H1368 C1374 0.950 . S
H1369 C1375 0.950 . S
H1370 C1376 0.949 . S
C1371 H1366 0.950 . S
C1371 C1373 1.327 . S
C1371 C1377 1.429 . S
C1372 C1364 1.574 . S
C1372 H1367 0.949 . S
C1372 C1378 1.368 . S
C1373 C1357 1.349 . S
C1373 H1365 0.950 . S
C1373 C1371 1.327 . S
C1374 C1362 1.349 . S
C1374 H1368 0.950 . S
C1374 C1375 1.327 . S
C1375 H1369 0.950 . S
C1375 C1374 1.327 . S
C1375 C1379 1.429 . S
C1376 C1359 1.574 . S
C1376 H1370 0.949 . S
C1376 C1380 1.368 . S
C1377 C1358 1.429 . S
C1377 C1371 1.429 . S
C1377 C1378 1.523 . S
C1378 C1359 1.368 . S
C1378 C1372 1.368 . S
C1378 C1377 1.523 . S
C1379 C1363 1.429 . S
C1379 C1375 1.429 . S
C1379 C1380 1.523 . S
C1380 C1364 1.368 . S
C1380 C1376 1.368 . S
C1380 C1379 1.523 . S
H1381 C1356 0.950 . S
H1382 C1358 0.950 . S
H1383 C1359 0.949 . S
H1384 C1361 0.950 . S
H1385 C1363 0.950 . S
C1386 C1387 1.349 . S
C1386 C1388 1.327 . S
C1386 H1411 0.950 . S
C1387 C1386 1.349 . S
C1387 C1403 1.349 . S
C1388 C1386 1.327 . S
C1388 C1407 1.429 . S
C1388 H1412 0.950 . S
C1389 C1406 1.574 . S
C1389 C1408 1.368 . S
C1389 H1413 0.949 . S
H1390 C1394 0.949 . S
C1391 C1392 1.349 . S
C1391 C1393 1.327 . S
C1391 H1414 0.950 . S
C1392 C1391 1.349 . S
C1392 C1404 1.349 . S
C1393 C1391 1.327 . S
C1393 C1409 1.429 . S
C1393 H1415 0.950 . S
C1394 H1390 0.949 . S
C1394 C1402 1.574 . S
C1394 C1410 1.368 . S
H1395 C1403 0.950 . S
H1396 C1401 0.950 . S
H1397 C1402 0.949 . S
H1398 C1404 0.950 . S
H1399 C1405 0.950 . S
H1400 C1406 0.949 . S
C1401 H1396 0.950 . S
C1401 C1403 1.327 . S
C1401 C1407 1.429 . S
C1402 C1394 1.574 . S
C1402 H1397 0.949 . S
C1402 C1408 1.368 . S
C1403 C1387 1.349 . S
C1403 H1395 0.950 . S
C1403 C1401 1.327 . S
C1404 C1392 1.349 . S
C1404 H1398 0.950 . S
C1404 C1405 1.327 . S
C1405 H1399 0.950 . S
C1405 C1404 1.327 . S
C1405 C1409 1.429 . S
C1406 C1389 1.574 . S
C1406 H1400 0.949 . S
C1406 C1410 1.368 . S
C1407 C1388 1.429 . S
C1407 C1401 1.429 . S
C1407 C1408 1.523 . S
C1408 C1389 1.368 . S
C1408 C1402 1.368 . S
C1408 C1407 1.523 . S
C1409 C1393 1.429 . S
C1409 C1405 1.429 . S
C1409 C1410 1.523 . S
C1410 C1394 1.368 . S
C1410 C1406 1.368 . S
C1410 C1409 1.523 . S
H1411 C1386 0.950 . S
H1412 C1388 0.950 . S
H1413 C1389 0.949 . S
H1414 C1391 0.950 . S
H1415 C1393 0.950 . S
C1416 C1417 1.349 . S
C1416 C1418 1.327 . S
C1416 H1441 0.950 . S
C1417 C1416 1.349 . S
C1417 C1433 1.349 . S
C1418 C1416 1.327 . S
C1418 C1437 1.429 . S
C1418 H1442 0.950 . S
C1419 C1436 1.574 . S
C1419 C1438 1.368 . S
C1419 H1443 0.949 . S
H1420 C1424 0.949 . S
C1421 C1422 1.349 . S
C1421 C1423 1.327 . S
C1421 H1444 0.950 . S
C1422 C1421 1.349 . S
C1422 C1434 1.349 . S
C1423 C1421 1.327 . S
C1423 C1439 1.429 . S
C1423 H1445 0.950 . S
C1424 H1420 0.949 . S
C1424 C1432 1.574 . S
C1424 C1440 1.368 . S
H1425 C1433 0.950 . S
H1426 C1431 0.950 . S
H1427 C1432 0.949 . S
H1428 C1434 0.950 . S
H1429 C1435 0.950 . S
H1430 C1436 0.949 . S
C1431 H1426 0.950 . S
C1431 C1433 1.327 . S
C1431 C1437 1.429 . S
C1432 C1424 1.574 . S
C1432 H1427 0.949 . S
C1432 C1438 1.368 . S
C1433 C1417 1.349 . S
C1433 H1425 0.950 . S
C1433 C1431 1.327 . S
C1434 C1422 1.349 . S
C1434 H1428 0.950 . S
C1434 C1435 1.327 . S
C1435 H1429 0.950 . S
C1435 C1434 1.327 . S
C1435 C1439 1.429 . S
C1436 C1419 1.574 . S
C1436 H1430 0.949 . S
C1436 C1440 1.368 . S
C1437 C1418 1.429 . S
C1437 C1431 1.429 . S
C1437 C1438 1.523 . S
C1438 C1419 1.368 . S
C1438 C1432 1.368 . S
C1438 C1437 1.523 . S
C1439 C1423 1.429 . S
C1439 C1435 1.429 . S
C1439 C1440 1.523 . S
C1440 C1424 1.368 . S
C1440 C1436 1.368 . S
C1440 C1439 1.523 . S
H1441 C1416 0.950 . S
H1442 C1418 0.950 . S
H1443 C1419 0.949 . S
H1444 C1421 0.950 . S
H1445 C1423 0.950 . S
C1446 C1447 1.349 . S
C1446 C1448 1.327 . S
C1446 H1471 0.950 . S
C1447 C1446 1.349 . S
C1447 C1463 1.349 . S
C1448 C1446 1.327 . S
C1448 C1467 1.429 . S
C1448 H1472 0.950 . S
C1449 C1466 1.574 . S
C1449 C1468 1.368 . S
C1449 H1473 0.945 . S
H1450 C1454 0.949 . S
C1451 C1452 1.313 1_655 S
C1451 C1453 1.323 1_655 S
C1451 H1474 0.993 . S
C1452 C1451 1.313 1_455 S
C1452 C1464 1.349 . S
C1453 C1451 1.323 1_455 S
C1453 C1469 1.466 . S
C1453 H1475 0.917 1_455 S
C1454 H1450 0.949 . S
C1454 C1462 1.574 . S
C1454 C1470 1.368 . S
H1455 C1463 0.950 . S
H1456 C1461 0.950 . S
H1457 C1462 0.949 . S
H1458 C1464 0.950 . S
H1459 C1465 0.950 . S
H1460 C1466 0.949 1_655 S
C1461 H1456 0.950 . S
C1461 C1463 1.327 . S
C1461 C1467 1.429 . S
C1462 C1454 1.574 . S
C1462 H1457 0.949 . S
C1462 C1468 1.368 . S
C1463 C1447 1.349 . S
C1463 H1455 0.950 . S
C1463 C1461 1.327 . S
C1464 C1452 1.349 . S
C1464 H1458 0.950 . S
C1464 C1465 1.327 . S
C1465 H1459 0.950 . S
C1465 C1464 1.327 . S
C1465 C1469 1.429 . S
C1466 C1449 1.574 . S
C1466 H1460 0.949 1_455 S
C1466 C1470 1.368 . S
C1467 C1448 1.429 . S
C1467 C1461 1.429 . S
C1467 C1468 1.523 . S
C1468 C1449 1.368 . S
C1468 C1462 1.368 . S
C1468 C1467 1.523 . S
C1469 C1453 1.466 . S
C1469 C1465 1.429 . S
C1469 C1470 1.523 . S
C1470 C1454 1.368 . S
C1470 C1466 1.368 . S
C1470 C1469 1.523 . S
H1471 C1446 0.950 . S
H1472 C1448 0.950 . S
H1473 C1449 0.945 . S
H1474 C1451 0.993 . S
H1475 C1453 0.917 1_655 S
C1476 C1477 1.349 . S
C1476 C1478 1.327 . S
C1476 H1501 0.950 . S
C1477 C1476 1.349 . S
C1477 C1493 1.349 . S
C1478 C1476 1.327 . S
C1478 C1497 1.429 . S
C1478 H1502 0.950 . S
C1479 C1496 1.574 . S
C1479 C1498 1.368 . S
C1479 H1503 0.949 . S
H1480 C1484 0.949 . S
C1481 C1482 1.349 . S
C1481 C1483 1.327 . S
C1481 H1504 0.950 . S
C1482 C1481 1.349 . S
C1482 C1494 1.349 . S
C1483 C1481 1.327 . S
C1483 C1499 1.429 . S
C1483 H1505 0.950 . S
C1484 H1480 0.949 . S
C1484 C1492 1.574 . S
C1484 C1500 1.368 . S
H1485 C1493 0.950 . S
H1486 C1491 0.950 . S
H1487 C1492 0.949 . S
H1488 C1494 0.950 . S
H1489 C1495 0.950 . S
H1490 C1496 0.949 . S
C1491 H1486 0.950 . S
C1491 C1493 1.327 . S
C1491 C1497 1.429 . S
C1492 C1484 1.574 . S
C1492 H1487 0.949 . S
C1492 C1498 1.368 . S
C1493 C1477 1.349 . S
C1493 H1485 0.950 . S
C1493 C1491 1.327 . S
C1494 C1482 1.349 . S
C1494 H1488 0.950 . S
C1494 C1495 1.327 . S
C1495 H1489 0.950 . S
C1495 C1494 1.327 . S
C1495 C1499 1.429 . S
C1496 C1479 1.574 . S
C1496 H1490 0.949 . S
C1496 C1500 1.368 . S
C1497 C1478 1.429 . S
C1497 C1491 1.429 . S
C1497 C1498 1.523 . S
C1498 C1479 1.368 . S
C1498 C1492 1.368 . S
C1498 C1497 1.523 . S
C1499 C1483 1.429 . S
C1499 C1495 1.429 . S
C1499 C1500 1.523 . S
C1500 C1484 1.368 . S
C1500 C1496 1.368 . S
C1500 C1499 1.523 . S
H1501 C1476 0.950 . S
H1502 C1478 0.950 . S
H1503 C1479 0.949 . S
H1504 C1481 0.950 . S
H1505 C1483 0.950 . S
C1506 C1507 1.349 . S
C1506 C1508 1.327 . S
C1506 H1531 0.950 . S
C1507 C1506 1.349 . S
C1507 C1523 1.349 . S
C1508 C1506 1.327 . S
C1508 C1527 1.429 . S
C1508 H1532 0.950 . S
C1509 C1526 1.574 . S
C1509 C1528 1.368 . S
C1509 H1533 0.949 . S
H1510 C1514 0.949 1_455 S
C1511 C1512 1.348 1_655 S
C1511 C1513 1.327 . S
C1511 H1534 0.950 . S
C1512 C1511 1.348 1_455 S
C1512 C1524 1.349 . S
C1513 C1511 1.327 . S
C1513 C1529 1.429 . S
C1513 H1535 0.950 . S
C1514 H1510 0.949 1_655 S
C1514 C1522 1.574 . S
C1514 C1530 1.368 . S
H1515 C1523 0.950 . S
H1516 C1521 0.950 . S
H1517 C1522 0.949 . S
H1518 C1524 0.950 . S
H1519 C1525 0.950 . S
H1520 C1526 0.949 . S
C1521 H1516 0.950 . S
C1521 C1523 1.327 . S
C1521 C1527 1.429 . S
C1522 C1514 1.574 . S
C1522 H1517 0.949 . S
C1522 C1528 1.368 . S
C1523 C1507 1.349 . S
C1523 H1515 0.950 . S
C1523 C1521 1.327 . S
C1524 C1512 1.349 . S
C1524 H1518 0.950 . S
C1524 C1525 1.327 . S
C1525 H1519 0.950 . S
C1525 C1524 1.327 . S
C1525 C1529 1.429 1_455 S
C1526 C1509 1.574 . S
C1526 H1520 0.949 . S
C1526 C1530 1.368 . S
C1527 C1508 1.429 . S
C1527 C1521 1.429 . S
C1527 C1528 1.523 . S
C1528 C1509 1.368 . S
C1528 C1522 1.368 . S
C1528 C1527 1.523 . S
C1529 C1513 1.429 . S
C1529 C1525 1.429 1_655 S
C1529 C1530 1.523 . S
C1530 C1514 1.368 . S
C1530 C1526 1.368 . S
C1530 C1529 1.523 . S
H1531 C1506 0.950 . S
H1532 C1508 0.950 . S
H1533 C1509 0.949 . S
H1534 C1511 0.950 . S
H1535 C1513 0.950 . S
C1536 C1537 1.349 . S
C1536 C1538 1.327 . S
C1536 H1561 0.950 . S
C1537 C1536 1.349 . S
C1537 C1553 1.349 . S
C1538 C1536 1.327 . S
C1538 C1557 1.429 . S
C1538 H1562 0.950 . S
C1539 C1556 1.574 . S
C1539 C1558 1.368 . S
C1539 H1563 0.949 . S
H1540 C1544 0.949 . S
C1541 C1542 1.349 . S
C1541 C1543 1.327 . S
C1541 H1564 0.950 . S
C1542 C1541 1.349 . S
C1542 C1554 1.349 . S
C1543 C1541 1.327 . S
C1543 C1559 1.429 . S
C1543 H1565 0.950 . S
C1544 H1540 0.949 . S
C1544 C1552 1.574 . S
C1544 C1560 1.368 . S
H1545 C1553 0.950 . S
H1546 C1551 0.950 . S
H1547 C1552 0.949 . S
H1548 C1554 0.950 . S
H1549 C1555 0.950 . S
H1550 C1556 0.949 . S
C1551 H1546 0.950 . S
C1551 C1553 1.327 . S
C1551 C1557 1.429 . S
C1552 C1544 1.574 . S
C1552 H1547 0.949 . S
C1552 C1558 1.368 . S
C1553 C1537 1.349 . S
C1553 H1545 0.950 . S
C1553 C1551 1.327 . S
C1554 C1542 1.349 . S
C1554 H1548 0.950 . S
C1554 C1555 1.327 . S
C1555 H1549 0.950 . S
C1555 C1554 1.327 . S
C1555 C1559 1.429 . S
C1556 C1539 1.574 . S
C1556 H1550 0.949 . S
C1556 C1560 1.368 . S
C1557 C1538 1.429 . S
C1557 C1551 1.429 . S
C1557 C1558 1.523 . S
C1558 C1539 1.368 . S
C1558 C1552 1.368 . S
C1558 C1557 1.523 . S
C1559 C1543 1.429 . S
C1559 C1555 1.429 . S
C1559 C1560 1.523 . S
C1560 C1544 1.368 . S
C1560 C1556 1.368 . S
C1560 C1559 1.523 . S
H1561 C1536 0.950 . S
H1562 C1538 0.950 . S
H1563 C1539 0.949 . S
H1564 C1541 0.950 . S
H1565 C1543 0.950 . S
C1566 C1567 1.349 . S
C1566 C1568 1.327 . S
C1566 H1591 0.950 . S
C1567 C1566 1.349 . S
C1567 C1583 1.349 . S
C1568 C1566 1.327 . S
C1568 C1587 1.429 . S
C1568 H1592 0.950 . S
C1569 C1586 1.574 . S
C1569 C1588 1.368 . S
C1569 H1593 0.949 . S
H1570 C1574 0.949 . S
C1571 C1572 1.349 . S
C1571 C1573 1.327 . S
C1571 H1594 0.950 . S
C1572 C1571 1.349 . S
C1572 C1584 1.349 . S
C1573 C1571 1.327 . S
C1573 C1589 1.429 . S
C1573 H1595 0.950 . S
C1574 H1570 0.949 . S
C1574 C1582 1.574 . S
C1574 C1590 1.368 . S
H1575 C1583 0.950 . S
H1576 C1581 0.950 . S
H1577 C1582 0.949 . S
H1578 C1584 0.950 . S
H1579 C1585 0.950 . S
H1580 C1586 0.949 . S
C1581 H1576 0.950 . S
C1581 C1583 1.327 . S
C1581 C1587 1.429 . S
C1582 C1574 1.574 . S
C1582 H1577 0.949 . S
C1582 C1588 1.368 . S
C1583 C1567 1.349 . S
C1583 H1575 0.950 . S
C1583 C1581 1.327 . S
C1584 C1572 1.349 . S
C1584 H1578 0.950 . S
C1584 C1585 1.327 . S
C1585 H1579 0.950 . S
C1585 C1584 1.327 . S
C1585 C1589 1.429 . S
C1586 C1569 1.574 . S
C1586 H1580 0.949 . S
C1586 C1590 1.368 . S
C1587 C1568 1.429 . S
C1587 C1581 1.429 . S
C1587 C1588 1.523 . S
C1588 C1569 1.368 . S
C1588 C1582 1.368 . S
C1588 C1587 1.523 . S
C1589 C1573 1.429 . S
C1589 C1585 1.429 . S
C1589 C1590 1.523 . S
C1590 C1574 1.368 . S
C1590 C1586 1.368 . S
C1590 C1589 1.523 . S
H1591 C1566 0.950 . S
H1592 C1568 0.950 . S
H1593 C1569 0.949 . S
H1594 C1571 0.950 . S
H1595 C1573 0.950 . S
C1596 C1597 1.387 . S
C1596 C1598 1.320 1_556 S
C1596 H1621 0.919 1_556 S
C1597 C1596 1.387 . S
C1597 C1613 1.349 . S
C1598 C1596 1.320 1_554 S
C1598 C1617 1.429 1_554 S
C1598 H1622 0.950 . S
C1599 C1616 1.574 . S
C1599 C1618 1.368 . S
C1599 H1623 0.949 . S
H1600 C1604 0.949 . S
C1601 C1602 1.349 1_556 S
C1601 C1603 1.327 . S
C1601 H1624 0.950 . S
C1602 C1601 1.349 1_554 S
C1602 C1614 1.349 . S
C1603 C1601 1.327 . S
C1603 C1619 1.429 . S
C1603 H1625 0.950 . S
C1604 H1600 0.949 . S
C1604 C1612 1.574 . S
C1604 C1620 1.368 1_554 S
H1605 C1613 0.950 . S
H1606 C1611 0.950 . S
H1607 C1612 0.949 . S
H1608 C1614 0.950 . S
H1609 C1615 0.950 . S
H1610 C1616 0.949 . S
C1611 H1606 0.950 . S
C1611 C1613 1.327 . S
C1611 C1617 1.429 . S
C1612 C1604 1.574 . S
C1612 H1607 0.949 . S
C1612 C1618 1.368 1_554 S
C1613 C1597 1.349 . S
C1613 H1605 0.950 . S
C1613 C1611 1.327 . S
C1614 C1602 1.349 . S
C1614 H1608 0.950 . S
C1614 C1615 1.327 . S
C1615 H1609 0.950 . S
C1615 C1614 1.327 . S
C1615 C1619 1.429 1_554 S
C1616 C1599 1.574 . S
C1616 H1610 0.949 . S
C1616 C1620 1.368 . S
C1617 C1598 1.429 1_556 S
C1617 C1611 1.429 . S
C1617 C1618 1.523 . S
C1618 C1599 1.368 . S
C1618 C1612 1.368 1_556 S
C1618 C1617 1.523 . S
C1619 C1603 1.429 . S
C1619 C1615 1.429 1_556 S
C1619 C1620 1.523 . S
C1620 C1604 1.368 1_556 S
C1620 C1616 1.368 . S
C1620 C1619 1.523 . S
H1621 C1596 0.919 1_554 S
H1622 C1598 0.950 . S
H1623 C1599 0.949 . S
H1624 C1601 0.950 . S
H1625 C1603 0.950 . S
C1626 C1627 1.349 . S
C1626 C1628 1.327 . S
C1626 H1651 0.950 . S
C1627 C1626 1.349 . S
C1627 C1643 1.349 . S
C1628 C1626 1.327 . S
C1628 C1647 1.429 . S
C1628 H1652 0.950 . S
C1629 C1646 1.574 . S
C1629 C1648 1.368 . S
C1629 H1653 0.949 . S
H1630 C1634 0.949 . S
C1631 C1632 1.349 . S
C1631 C1633 1.327 . S
C1631 H1654 0.950 . S
C1632 C1631 1.349 . S
C1632 C1644 1.349 . S
C1633 C1631 1.327 . S
C1633 C1649 1.429 . S
C1633 H1655 0.950 . S
C1634 H1630 0.949 . S
C1634 C1642 1.574 . S
C1634 C1650 1.368 . S
H1635 C1643 0.950 . S
H1636 C1641 0.950 . S
H1637 C1642 0.949 . S
H1638 C1644 0.950 . S
H1639 C1645 0.950 . S
H1640 C1646 0.949 . S
C1641 H1636 0.950 . S
C1641 C1643 1.327 . S
C1641 C1647 1.429 . S
C1642 C1634 1.574 . S
C1642 H1637 0.949 . S
C1642 C1648 1.368 . S
C1643 C1627 1.349 . S
C1643 H1635 0.950 . S
C1643 C1641 1.327 . S
C1644 C1632 1.349 . S
C1644 H1638 0.950 . S
C1644 C1645 1.327 . S
C1645 H1639 0.950 . S
C1645 C1644 1.327 . S
C1645 C1649 1.429 . S
C1646 C1629 1.574 . S
C1646 H1640 0.949 . S
C1646 C1650 1.368 . S
C1647 C1628 1.429 . S
C1647 C1641 1.429 . S
C1647 C1648 1.523 . S
C1648 C1629 1.368 . S
C1648 C1642 1.368 . S
C1648 C1647 1.523 . S
C1649 C1633 1.429 . S
C1649 C1645 1.429 . S
C1649 C1650 1.523 . S
C1650 C1634 1.368 . S
C1650 C1646 1.368 . S
C1650 C1649 1.523 . S
H1651 C1626 0.950 . S
H1652 C1628 0.950 . S
H1653 C1629 0.949 . S
H1654 C1631 0.950 . S
H1655 C1633 0.950 . S
C1656 C1657 1.349 . S
C1656 C1658 1.327 . S
C1656 H1681 0.950 . S
C1657 C1656 1.349 . S
C1657 C1673 1.349 . S
C1658 C1656 1.327 . S
C1658 C1677 1.429 . S
C1658 H1682 0.950 . S
C1659 C1676 1.574 . S
C1659 C1678 1.368 . S
C1659 H1683 0.949 . S
H1660 C1664 0.949 . S
C1661 C1662 1.349 . S
C1661 C1663 1.327 . S
C1661 H1684 0.950 . S
C1662 C1661 1.349 . S
C1662 C1674 1.349 . S
C1663 C1661 1.327 . S
C1663 C1679 1.429 . S
C1663 H1685 0.950 . S
C1664 H1660 0.949 . S
C1664 C1672 1.574 . S
C1664 C1680 1.368 . S
H1665 C1673 0.950 . S
H1666 C1671 0.950 . S
H1667 C1672 0.949 . S
H1668 C1674 0.950 . S
H1669 C1675 0.950 . S
H1670 C1676 0.949 . S
C1671 H1666 0.950 . S
C1671 C1673 1.327 . S
C1671 C1677 1.429 . S
C1672 C1664 1.574 . S
C1672 H1667 0.949 . S
C1672 C1678 1.368 . S
C1673 C1657 1.349 . S
C1673 H1665 0.950 . S
C1673 C1671 1.327 . S
C1674 C1662 1.349 . S
C1674 H1668 0.950 . S
C1674 C1675 1.327 . S
C1675 H1669 0.950 . S
C1675 C1674 1.327 . S
C1675 C1679 1.429 . S
C1676 C1659 1.574 . S
C1676 H1670 0.949 . S
C1676 C1680 1.368 . S
C1677 C1658 1.429 . S
C1677 C1671 1.429 . S
C1677 C1678 1.523 . S
C1678 C1659 1.368 . S
C1678 C1672 1.368 . S
C1678 C1677 1.523 . S
C1679 C1663 1.429 . S
C1679 C1675 1.429 . S
C1679 C1680 1.523 . S
C1680 C1664 1.368 . S
C1680 C1676 1.368 . S
C1680 C1679 1.523 . S
H1681 C1656 0.950 . S
H1682 C1658 0.950 . S
H1683 C1659 0.949 . S
H1684 C1661 0.950 . S
H1685 C1663 0.950 . S
C1686 C1687 1.349 . S
C1686 C1688 1.327 . S
C1686 H1711 0.950 . S
C1687 C1686 1.349 . S
C1687 C1703 1.349 . S
C1688 C1686 1.327 . S
C1688 C1707 1.429 . S
C1688 H1712 0.950 . S
C1689 C1706 1.574 . S
C1689 C1708 1.368 . S
C1689 H1713 0.949 . S
H1690 C1694 0.949 . S
C1691 C1692 1.349 . S
C1691 C1693 1.327 . S
C1691 H1714 0.950 . S
C1692 C1691 1.349 . S
C1692 C1704 1.349 . S
C1693 C1691 1.327 . S
C1693 C1709 1.429 . S
C1693 H1715 0.950 . S
C1694 H1690 0.949 . S
C1694 C1702 1.574 . S
C1694 C1710 1.368 . S
H1695 C1703 0.950 . S
H1696 C1701 0.950 . S
H1697 C1702 0.949 . S
H1698 C1704 0.950 . S
H1699 C1705 0.950 . S
H1700 C1706 0.949 . S
C1701 H1696 0.950 . S
C1701 C1703 1.327 . S
C1701 C1707 1.429 . S
C1702 C1694 1.574 . S
C1702 H1697 0.949 . S
C1702 C1708 1.368 . S
C1703 C1687 1.349 . S
C1703 H1695 0.950 . S
C1703 C1701 1.327 . S
C1704 C1692 1.349 . S
C1704 H1698 0.950 . S
C1704 C1705 1.327 . S
C1705 H1699 0.950 . S
C1705 C1704 1.327 . S
C1705 C1709 1.429 . S
C1706 C1689 1.574 . S
C1706 H1700 0.949 . S
C1706 C1710 1.368 . S
C1707 C1688 1.429 . S
C1707 C1701 1.429 . S
C1707 C1708 1.523 . S
C1708 C1689 1.368 . S
C1708 C1702 1.368 . S
C1708 C1707 1.523 . S
C1709 C1693 1.429 . S
C1709 C1705 1.429 . S
C1709 C1710 1.523 . S
C1710 C1694 1.368 . S
C1710 C1706 1.368 . S
C1710 C1709 1.523 . S
H1711 C1686 0.950 . S
H1712 C1688 0.950 . S
H1713 C1689 0.949 . S
H1714 C1691 0.950 . S
H1715 C1693 0.950 . S
C1716 C1717 1.349 . S
C1716 C1718 1.327 . S
C1716 H1741 0.950 . S
C1717 C1716 1.349 . S
C1717 C1733 1.349 . S
C1718 C1716 1.327 . S
C1718 C1737 1.429 . S
C1718 H1742 0.950 . S
C1719 C1736 1.574 . S
C1719 C1738 1.368 . S
C1719 H1743 0.949 . S
H1720 C1724 0.949 . S
C1721 C1722 1.349 . S
C1721 C1723 1.327 . S
C1721 H1744 0.950 . S
C1722 C1721 1.349 . S
C1722 C1734 1.349 . S
C1723 C1721 1.327 . S
C1723 C1739 1.429 . S
C1723 H1745 0.950 . S
C1724 H1720 0.949 . S
C1724 C1732 1.574 . S
C1724 C1740 1.368 . S
H1725 C1733 0.950 . S
H1726 C1731 0.950 . S
H1727 C1732 0.949 . S
H1728 C1734 0.950 . S
H1729 C1735 0.950 . S
H1730 C1736 0.949 . S
C1731 H1726 0.950 . S
C1731 C1733 1.327 . S
C1731 C1737 1.429 . S
C1732 C1724 1.574 . S
C1732 H1727 0.949 . S
C1732 C1738 1.368 . S
C1733 C1717 1.349 . S
C1733 H1725 0.950 . S
C1733 C1731 1.327 . S
C1734 C1722 1.349 . S
C1734 H1728 0.950 . S
C1734 C1735 1.327 . S
C1735 H1729 0.950 . S
C1735 C1734 1.327 . S
C1735 C1739 1.429 . S
C1736 C1719 1.574 . S
C1736 H1730 0.949 . S
C1736 C1740 1.368 . S
C1737 C1718 1.429 . S
C1737 C1731 1.429 . S
C1737 C1738 1.523 . S
C1738 C1719 1.368 . S
C1738 C1732 1.368 . S
C1738 C1737 1.523 . S
C1739 C1723 1.429 . S
C1739 C1735 1.429 . S
C1739 C1740 1.523 . S
C1740 C1724 1.368 . S
C1740 C1736 1.368 . S
C1740 C1739 1.523 . S
H1741 C1716 0.950 . S
H1742 C1718 0.950 . S
H1743 C1719 0.949 . S
H1744 C1721 0.950 . S
H1745 C1723 0.950 . S
C1746 C1747 1.349 . S
C1746 C1748 1.327 . S
C1746 H1771 0.950 . S
C1747 C1746 1.349 . S
C1747 C1763 1.349 . S
C1748 C1746 1.327 . S
C1748 C1767 1.429 . S
C1748 H1772 0.950 . S
C1749 C1766 1.574 . S
C1749 C1768 1.368 . S
C1749 H1773 0.949 . S
H1750 C1754 0.949 . S
C1751 C1752 1.349 . S
C1751 C1753 1.327 . S
C1751 H1774 0.950 . S
C1752 C1751 1.349 . S
C1752 C1764 1.349 . S
C1753 C1751 1.327 . S
C1753 C1769 1.429 . S
C1753 H1775 0.950 . S
C1754 H1750 0.949 . S
C1754 C1762 1.574 . S
C1754 C1770 1.368 . S
H1755 C1763 0.950 . S
H1756 C1761 0.950 . S
H1757 C1762 0.949 . S
H1758 C1764 0.950 . S
H1759 C1765 0.950 . S
H1760 C1766 0.949 . S
C1761 H1756 0.950 . S
C1761 C1763 1.327 . S
C1761 C1767 1.429 . S
C1762 C1754 1.574 . S
C1762 H1757 0.949 . S
C1762 C1768 1.368 . S
C1763 C1747 1.349 . S
C1763 H1755 0.950 . S
C1763 C1761 1.327 . S
C1764 C1752 1.349 . S
C1764 H1758 0.950 . S
C1764 C1765 1.327 . S
C1765 H1759 0.950 . S
C1765 C1764 1.327 . S
C1765 C1769 1.429 . S
C1766 C1749 1.574 . S
C1766 H1760 0.949 . S
C1766 C1770 1.368 . S
C1767 C1748 1.429 . S
C1767 C1761 1.429 . S
C1767 C1768 1.523 . S
C1768 C1749 1.368 . S
C1768 C1762 1.368 . S
C1768 C1767 1.523 . S
C1769 C1753 1.429 . S
C1769 C1765 1.429 . S
C1769 C1770 1.523 . S
C1770 C1754 1.368 . S
C1770 C1766 1.368 . S
C1770 C1769 1.523 . S
H1771 C1746 0.950 . S
H1772 C1748 0.950 . S
H1773 C1749 0.949 . S
H1774 C1751 0.950 . S
H1775 C1753 0.950 . S
C1776 C1777 1.349 . S
C1776 C1778 1.327 . S
C1776 H1801 0.950 . S
C1777 C1776 1.349 . S
C1777 C1793 1.349 . S
C1778 C1776 1.327 . S
C1778 C1797 1.429 . S
C1778 H1802 0.950 . S
C1779 C1796 1.574 . S
C1779 C1798 1.368 . S
C1779 H1803 0.949 . S
H1780 C1784 0.949 . S
C1781 C1782 1.349 . S
C1781 C1783 1.327 . S
C1781 H1804 0.950 . S
C1782 C1781 1.349 . S
C1782 C1794 1.349 . S
C1783 C1781 1.327 . S
C1783 C1799 1.429 . S
C1783 H1805 0.950 . S
C1784 H1780 0.949 . S
C1784 C1792 1.574 . S
C1784 C1800 1.368 . S
H1785 C1793 0.950 . S
H1786 C1791 0.950 . S
H1787 C1792 0.949 . S
H1788 C1794 0.950 . S
H1789 C1795 0.950 . S
H1790 C1796 0.949 . S
C1791 H1786 0.950 . S
C1791 C1793 1.327 . S
C1791 C1797 1.429 . S
C1792 C1784 1.574 . S
C1792 H1787 0.949 . S
C1792 C1798 1.368 . S
C1793 C1777 1.349 . S
C1793 H1785 0.950 . S
C1793 C1791 1.327 . S
C1794 C1782 1.349 . S
C1794 H1788 0.950 . S
C1794 C1795 1.327 . S
C1795 H1789 0.950 . S
C1795 C1794 1.327 . S
C1795 C1799 1.429 . S
C1796 C1779 1.574 . S
C1796 H1790 0.949 . S
C1796 C1800 1.368 . S
C1797 C1778 1.429 . S
C1797 C1791 1.429 . S
C1797 C1798 1.523 . S
C1798 C1779 1.368 . S
C1798 C1792 1.368 . S
C1798 C1797 1.523 . S
C1799 C1783 1.429 . S
C1799 C1795 1.429 . S
C1799 C1800 1.523 . S
C1800 C1784 1.368 . S
C1800 C1796 1.368 . S
C1800 C1799 1.523 . S
H1801 C1776 0.950 . S
H1802 C1778 0.950 . S
H1803 C1779 0.949 . S
H1804 C1781 0.950 . S
H1805 C1783 0.950 . S
C1806 C1807 1.349 . S
C1806 C1808 1.327 . S
C1806 H1831 0.950 . S
C1807 C1806 1.349 . S
C1807 C1823 1.349 . S
C1808 C1806 1.327 . S
C1808 C1827 1.429 . S
C1808 H1832 0.950 . S
C1809 C1826 1.574 . S
C1809 C1828 1.368 . S
C1809 H1833 0.949 1_545 S
H1810 C1814 0.949 . S
C1811 C1812 1.349 1_565 S
C1811 C1813 1.327 . S
C1811 H1834 0.950 . S
C1812 C1811 1.349 1_545 S
C1812 C1824 1.349 . S
C1813 C1811 1.327 . S
C1813 C1829 1.429 1_565 S
C1813 H1835 0.950 . S
C1814 H1810 0.949 . S
C1814 C1822 1.574 . S
C1814 C1830 1.368 . S
H1815 C1823 0.950 . S
H1816 C1821 0.950 . S
H1817 C1822 0.949 . S
H1818 C1824 0.950 . S
H1819 C1825 0.950 . S
H1820 C1826 0.949 1_565 S
C1821 H1816 0.950 . S
C1821 C1823 1.327 . S
C1821 C1827 1.429 . S
C1822 C1814 1.574 . S
C1822 H1817 0.949 . S
C1822 C1828 1.368 . S
C1823 C1807 1.349 . S
C1823 H1815 0.950 . S
C1823 C1821 1.327 . S
C1824 C1812 1.349 . S
C1824 H1818 0.950 . S
C1824 C1825 1.327 . S
C1825 H1819 0.950 . S
C1825 C1824 1.327 . S
C1825 C1829 1.429 . S
C1826 C1809 1.574 . S
C1826 H1820 0.949 1_545 S
C1826 C1830 1.368 . S
C1827 C1808 1.429 . S
C1827 C1821 1.429 . S
C1827 C1828 1.523 . S
C1828 C1809 1.368 . S
C1828 C1822 1.368 . S
C1828 C1827 1.523 . S
C1829 C1813 1.429 1_545 S
C1829 C1825 1.429 . S
C1829 C1830 1.523 . S
C1830 C1814 1.368 . S
C1830 C1826 1.368 . S
C1830 C1829 1.523 . S
H1831 C1806 0.950 . S
H1832 C1808 0.950 . S
H1833 C1809 0.949 1_565 S
H1834 C1811 0.950 . S
H1835 C1813 0.950 . S
C1836 C1837 1.349 . S
C1836 C1838 1.327 . S
C1836 H1861 0.950 . S
C1837 C1836 1.349 . S
C1837 C1853 1.349 . S
C1838 C1836 1.327 . S
C1838 C1857 1.429 . S
C1838 H1862 0.950 . S
C1839 C1856 1.574 . S
C1839 C1858 1.368 . S
C1839 H1863 0.949 . S
H1840 C1844 0.949 . S
C1841 C1842 1.349 . S
C1841 C1843 1.327 . S
C1841 H1864 0.950 . S
C1842 C1841 1.349 . S
C1842 C1854 1.349 . S
C1843 C1841 1.327 . S
C1843 C1859 1.429 . S
C1843 H1865 0.950 . S
C1844 H1840 0.949 . S
C1844 C1852 1.574 . S
C1844 C1860 1.368 . S
H1845 C1853 0.950 . S
H1846 C1851 0.950 . S
H1847 C1852 0.949 . S
H1848 C1854 0.950 . S
H1849 C1855 0.950 . S
H1850 C1856 0.949 . S
C1851 H1846 0.950 . S
C1851 C1853 1.327 . S
C1851 C1857 1.429 . S
C1852 C1844 1.574 . S
C1852 H1847 0.949 . S
C1852 C1858 1.368 . S
C1853 C1837 1.349 . S
C1853 H1845 0.950 . S
C1853 C1851 1.327 . S
C1854 C1842 1.349 . S
C1854 H1848 0.950 . S
C1854 C1855 1.327 . S
C1855 H1849 0.950 . S
C1855 C1854 1.327 . S
C1855 C1859 1.429 . S
C1856 C1839 1.574 . S
C1856 H1850 0.949 . S
C1856 C1860 1.368 . S
C1857 C1838 1.429 . S
C1857 C1851 1.429 . S
C1857 C1858 1.523 . S
C1858 C1839 1.368 . S
C1858 C1852 1.368 . S
C1858 C1857 1.523 . S
C1859 C1843 1.429 . S
C1859 C1855 1.429 . S
C1859 C1860 1.523 . S
C1860 C1844 1.368 . S
C1860 C1856 1.368 . S
C1860 C1859 1.523 . S
H1861 C1836 0.950 . S
H1862 C1838 0.950 . S
H1863 C1839 0.949 . S
H1864 C1841 0.950 . S
H1865 C1843 0.950 . S
C1866 C1867 1.349 . S
C1866 C1868 1.327 . S
C1866 H1891 0.950 . S
C1867 C1866 1.349 . S
C1867 C1883 1.349 . S
C1868 C1866 1.327 . S
C1868 C1887 1.429 . S
C1868 H1892 0.950 . S
C1869 C1886 1.574 . S
C1869 C1888 1.368 . S
C1869 H1893 0.949 . S
H1870 C1874 0.949 . S
C1871 C1872 1.349 . S
C1871 C1873 1.327 . S
C1871 H1894 0.950 . S
C1872 C1871 1.349 . S
C1872 C1884 1.349 . S
C1873 C1871 1.327 . S
C1873 C1889 1.429 . S
C1873 H1895 0.950 . S
C1874 H1870 0.949 . S
C1874 C1882 1.574 . S
C1874 C1890 1.368 . S
H1875 C1883 0.950 . S
H1876 C1881 0.950 . S
H1877 C1882 0.949 . S
H1878 C1884 0.950 . S
H1879 C1885 0.950 . S
H1880 C1886 0.949 . S
C1881 H1876 0.950 . S
C1881 C1883 1.327 . S
C1881 C1887 1.429 . S
C1882 C1874 1.574 . S
C1882 H1877 0.949 . S
C1882 C1888 1.368 . S
C1883 C1867 1.349 . S
C1883 H1875 0.950 . S
C1883 C1881 1.327 . S
C1884 C1872 1.349 . S
C1884 H1878 0.950 . S
C1884 C1885 1.327 . S
C1885 H1879 0.950 . S
C1885 C1884 1.327 . S
C1885 C1889 1.429 . S
C1886 C1869 1.574 . S
C1886 H1880 0.949 . S
C1886 C1890 1.368 . S
C1887 C1868 1.429 . S
C1887 C1881 1.429 . S
C1887 C1888 1.523 . S
C1888 C1869 1.368 . S
C1888 C1882 1.368 . S
C1888 C1887 1.523 . S
C1889 C1873 1.429 . S
C1889 C1885 1.429 . S
C1889 C1890 1.523 . S
C1890 C1874 1.368 . S
C1890 C1886 1.368 . S
C1890 C1889 1.523 . S
H1891 C1866 0.950 . S
H1892 C1868 0.950 . S
H1893 C1869 0.949 . S
H1894 C1871 0.950 . S
H1895 C1873 0.950 . S
C1896 C1897 1.349 . S
C1896 C1898 1.327 . S
C1896 H1921 0.950 . S
C1897 C1896 1.349 . S
C1897 C1913 1.349 . S
C1898 C1896 1.327 . S
C1898 C1917 1.429 . S
C1898 H1922 0.950 . S
C1899 C1916 1.574 . S
C1899 C1918 1.368 . S
C1899 H1923 0.949 . S
H1900 C1904 0.949 . S
C1901 C1902 1.349 . S
C1901 C1903 1.327 . S
C1901 H1924 0.950 . S
C1902 C1901 1.349 . S
C1902 C1914 1.349 . S
C1903 C1901 1.327 . S
C1903 C1919 1.429 . S
C1903 H1925 0.950 . S
C1904 H1900 0.949 . S
C1904 C1912 1.574 . S
C1904 C1920 1.368 . S
H1905 C1913 0.950 . S
H1906 C1911 0.950 . S
H1907 C1912 0.949 . S
H1908 C1914 0.950 . S
H1909 C1915 0.950 . S
H1910 C1916 0.949 . S
C1911 H1906 0.950 . S
C1911 C1913 1.327 . S
C1911 C1917 1.429 . S
C1912 C1904 1.574 . S
C1912 H1907 0.949 . S
C1912 C1918 1.368 . S
C1913 C1897 1.349 . S
C1913 H1905 0.950 . S
C1913 C1911 1.327 . S
C1914 C1902 1.349 . S
C1914 H1908 0.950 . S
C1914 C1915 1.327 . S
C1915 H1909 0.950 . S
C1915 C1914 1.327 . S
C1915 C1919 1.429 . S
C1916 C1899 1.574 . S
C1916 H1910 0.949 . S
C1916 C1920 1.368 . S
C1917 C1898 1.429 . S
C1917 C1911 1.429 . S
C1917 C1918 1.523 . S
C1918 C1899 1.368 . S
C1918 C1912 1.368 . S
C1918 C1917 1.523 . S
C1919 C1903 1.429 . S
C1919 C1915 1.429 . S
C1919 C1920 1.523 . S
C1920 C1904 1.368 . S
C1920 C1916 1.368 . S
C1920 C1919 1.523 . S
H1921 C1896 0.950 . S
H1922 C1898 0.950 . S
H1923 C1899 0.949 . S
H1924 C1901 0.950 . S
H1925 C1903 0.950 . S
C1926 C1927 1.349 . S
C1926 C1928 1.327 . S
C1926 H1951 0.950 . S
C1927 C1926 1.349 . S
C1927 C1943 1.349 . S
C1928 C1926 1.327 . S
C1928 C1947 1.429 . S
C1928 H1952 0.950 . S
C1929 C1946 1.574 . S
C1929 C1948 1.368 . S
C1929 H1953 0.949 1_545 S
H1930 C1934 0.949 . S
C1931 C1932 1.383 . S
C1931 C1933 1.331 . S
C1931 H1954 0.912 1_545 S
C1932 C1931 1.383 . S
C1932 C1944 1.349 . S
C1933 C1931 1.331 . S
C1933 C1949 1.429 . S
C1933 H1955 0.950 1_545 S
C1934 H1930 0.949 . S
C1934 C1942 1.574 . S
C1934 C1950 1.368 . S
H1935 C1943 0.950 . S
H1936 C1941 0.981 . S
H1937 C1942 0.949 . S
H1938 C1944 0.950 . S
H1939 C1945 0.950 . S
H1940 C1946 0.949 1_565 S
C1941 H1936 0.981 . S
C1941 C1943 1.327 . S
C1941 C1947 1.429 . S
C1942 C1934 1.574 . S
C1942 H1937 0.949 . S
C1942 C1948 1.368 . S
C1943 C1927 1.349 . S
C1943 H1935 0.950 . S
C1943 C1941 1.327 . S
C1944 C1932 1.349 . S
C1944 H1938 0.950 . S
C1944 C1945 1.327 . S
C1945 H1939 0.950 . S
C1945 C1944 1.327 . S
C1945 C1949 1.429 . S
C1946 C1929 1.574 . S
C1946 H1940 0.949 1_545 S
C1946 C1950 1.368 . S
C1947 C1928 1.429 . S
C1947 C1941 1.429 . S
C1947 C1948 1.523 . S
C1948 C1929 1.368 . S
C1948 C1942 1.368 . S
C1948 C1947 1.523 . S
C1949 C1933 1.429 . S
C1949 C1945 1.429 . S
C1949 C1950 1.523 . S
C1950 C1934 1.368 . S
C1950 C1946 1.368 . S
C1950 C1949 1.523 . S
H1951 C1926 0.950 . S
H1952 C1928 0.950 . S
H1953 C1929 0.949 1_565 S
H1954 C1931 0.912 1_565 S
H1955 C1933 0.950 1_565 S
C1956 C1957 1.349 . S
C1956 C1958 1.327 . S
C1956 H1981 0.950 . S
C1957 C1956 1.349 . S
C1957 C1973 1.349 . S
C1958 C1956 1.327 . S
C1958 C1977 1.429 . S
C1958 H1982 0.950 . S
C1959 C1976 1.574 . S
C1959 C1978 1.368 . S
C1959 H1983 0.949 . S
H1960 C1964 0.949 . S
C1961 C1962 1.349 . S
C1961 C1963 1.327 . S
C1961 H1984 0.950 . S
C1962 C1961 1.349 . S
C1962 C1974 1.349 . S
C1963 C1961 1.327 . S
C1963 C1979 1.429 . S
C1963 H1985 0.950 . S
C1964 H1960 0.949 . S
C1964 C1972 1.574 . S
C1964 C1980 1.368 . S
H1965 C1973 0.950 . S
H1966 C1971 0.950 . S
H1967 C1972 0.949 . S
H1968 C1974 0.950 . S
H1969 C1975 0.950 . S
H1970 C1976 0.949 . S
C1971 H1966 0.950 . S
C1971 C1973 1.327 . S
C1971 C1977 1.429 . S
C1972 C1964 1.574 . S
C1972 H1967 0.949 . S
C1972 C1978 1.368 . S
C1973 C1957 1.349 . S
C1973 H1965 0.950 . S
C1973 C1971 1.327 . S
C1974 C1962 1.349 . S
C1974 H1968 0.950 . S
C1974 C1975 1.327 . S
C1975 H1969 0.950 . S
C1975 C1974 1.327 . S
C1975 C1979 1.429 . S
C1976 C1959 1.574 . S
C1976 H1970 0.949 . S
C1976 C1980 1.368 . S
C1977 C1958 1.429 . S
C1977 C1971 1.429 . S
C1977 C1978 1.523 . S
C1978 C1959 1.368 . S
C1978 C1972 1.368 . S
C1978 C1977 1.523 . S
C1979 C1963 1.429 . S
C1979 C1975 1.429 . S
C1979 C1980 1.523 . S
C1980 C1964 1.368 . S
C1980 C1976 1.368 . S
C1980 C1979 1.523 . S
H1981 C1956 0.950 . S
H1982 C1958 0.950 . S
H1983 C1959 0.949 . S
H1984 C1961 0.950 . S
H1985 C1963 0.950 . S
C1986 C1987 1.349 . S
C1986 C1988 1.327 . S
C1986 H2011 0.950 . S
C1987 C1986 1.349 . S
C1987 C2003 1.349 . S
C1988 C1986 1.327 . S
C1988 C2007 1.429 . S
C1988 H2012 0.950 . S
C1989 C2006 1.574 . S
C1989 C2008 1.368 . S
C1989 H2013 0.949 . S
H1990 C1994 0.949 . S
C1991 C1992 1.349 . S
C1991 C1993 1.327 . S
C1991 H2014 0.950 . S
C1992 C1991 1.349 . S
C1992 C2004 1.349 . S
C1993 C1991 1.327 . S
C1993 C2009 1.429 . S
C1993 H2015 0.950 . S
C1994 H1990 0.949 . S
C1994 C2002 1.574 . S
C1994 C2010 1.368 . S
H1995 C2003 0.950 . S
H1996 C2001 0.950 . S
H1997 C2002 0.949 . S
H1998 C2004 0.950 . S
H1999 C2005 0.950 . S
H2000 C2006 0.949 . S
C2001 H1996 0.950 . S
C2001 C2003 1.327 . S
C2001 C2007 1.429 . S
C2002 C1994 1.574 . S
C2002 H1997 0.949 . S
C2002 C2008 1.368 . S
C2003 C1987 1.349 . S
C2003 H1995 0.950 . S
C2003 C2001 1.327 . S
C2004 C1992 1.349 . S
C2004 H1998 0.950 . S
C2004 C2005 1.327 . S
C2005 H1999 0.950 . S
C2005 C2004 1.327 . S
C2005 C2009 1.429 . S
C2006 C1989 1.574 . S
C2006 H2000 0.949 . S
C2006 C2010 1.368 . S
C2007 C1988 1.429 . S
C2007 C2001 1.429 . S
C2007 C2008 1.523 . S
C2008 C1989 1.368 . S
C2008 C2002 1.368 . S
C2008 C2007 1.523 . S
C2009 C1993 1.429 . S
C2009 C2005 1.429 . S
C2009 C2010 1.523 . S
C2010 C1994 1.368 . S
C2010 C2006 1.368 . S
C2010 C2009 1.523 . S
H2011 C1986 0.950 . S
H2012 C1988 0.950 . S
H2013 C1989 0.949 . S
H2014 C1991 0.950 . S
H2015 C1993 0.950 . S
C2016 C2017 1.349 . S
C2016 C2018 1.327 . S
C2016 H2041 0.950 . S
C2017 C2016 1.349 . S
C2017 C2033 1.349 . S
C2018 C2016 1.327 . S
C2018 C2037 1.429 . S
C2018 H2042 0.950 . S
C2019 C2036 1.574 . S
C2019 C2038 1.368 . S
C2019 H2043 0.949 . S
H2020 C2024 0.949 . S
C2021 C2022 1.349 . S
C2021 C2023 1.327 . S
C2021 H2044 0.950 . S
C2022 C2021 1.349 . S
C2022 C2034 1.349 . S
C2023 C2021 1.327 . S
C2023 C2039 1.429 . S
C2023 H2045 0.950 . S
C2024 H2020 0.949 . S
C2024 C2032 1.574 . S
C2024 C2040 1.368 . S
H2025 C2033 0.950 . S
H2026 C2031 0.950 . S
H2027 C2032 0.949 . S
H2028 C2034 0.950 . S
H2029 C2035 0.950 . S
H2030 C2036 0.949 . S
C2031 H2026 0.950 . S
C2031 C2033 1.327 . S
C2031 C2037 1.429 . S
C2032 C2024 1.574 . S
C2032 H2027 0.949 . S
C2032 C2038 1.368 . S
C2033 C2017 1.349 . S
C2033 H2025 0.950 . S
C2033 C2031 1.327 . S
C2034 C2022 1.349 . S
C2034 H2028 0.950 . S
C2034 C2035 1.327 . S
C2035 H2029 0.950 . S
C2035 C2034 1.327 . S
C2035 C2039 1.429 . S
C2036 C2019 1.574 . S
C2036 H2030 0.949 . S
C2036 C2040 1.368 . S
C2037 C2018 1.429 . S
C2037 C2031 1.429 . S
C2037 C2038 1.523 . S
C2038 C2019 1.368 . S
C2038 C2032 1.368 . S
C2038 C2037 1.523 . S
C2039 C2023 1.429 . S
C2039 C2035 1.429 . S
C2039 C2040 1.523 . S
C2040 C2024 1.368 . S
C2040 C2036 1.368 . S
C2040 C2039 1.523 . S
H2041 C2016 0.950 . S
H2042 C2018 0.950 . S
H2043 C2019 0.949 . S
H2044 C2021 0.950 . S
H2045 C2023 0.950 . S
C2046 C2047 1.349 . S
C2046 C2048 1.327 . S
C2046 H2071 0.950 . S
C2047 C2046 1.349 . S
C2047 C2063 1.349 . S
C2048 C2046 1.327 . S
C2048 C2067 1.429 . S
C2048 H2072 0.905 1_655 S
C2049 C2066 1.574 . S
C2049 C2068 1.368 . S
C2049 H2073 0.949 . S
H2050 C2054 0.996 . S
C2051 C2052 1.349 . S
C2051 C2053 1.327 . S
C2051 H2074 0.950 . S
C2052 C2051 1.349 . S
C2052 C2064 1.349 1_655 S
C2053 C2051 1.327 . S
C2053 C2069 1.429 . S
C2053 H2075 0.950 . S
C2054 H2050 0.996 . S
C2054 C2062 1.564 1_455 S
C2054 C2070 1.330 1_455 S
H2055 C2063 0.950 . S
H2056 C2061 0.950 . S
H2057 C2062 0.949 1_455 S
H2058 C2064 0.950 . S
H2059 C2065 0.950 . S
H2060 C2066 0.949 . S
C2061 H2056 0.950 . S
C2061 C2063 1.327 . S
C2061 C2067 1.429 . S
C2062 C2054 1.564 1_655 S
C2062 H2057 0.949 1_655 S
C2062 C2068 1.368 . S
C2063 C2047 1.349 . S
C2063 H2055 0.950 . S
C2063 C2061 1.327 . S
C2064 C2052 1.349 1_455 S
C2064 H2058 0.950 . S
C2064 C2065 1.327 . S
C2065 H2059 0.950 . S
C2065 C2064 1.327 . S
C2065 C2069 1.429 1_455 S
C2066 C2049 1.574 . S
C2066 H2060 0.949 . S
C2066 C2070 1.368 . S
C2067 C2048 1.429 . S
C2067 C2061 1.429 . S
C2067 C2068 1.523 . S
C2068 C2049 1.368 . S
C2068 C2062 1.368 . S
C2068 C2067 1.523 . S
C2069 C2053 1.429 . S
C2069 C2065 1.429 1_655 S
C2069 C2070 1.523 . S
C2070 C2054 1.330 1_655 S
C2070 C2066 1.368 . S
C2070 C2069 1.523 . S
H2071 C2046 0.950 . S
H2072 C2048 0.905 1_455 S
H2073 C2049 0.949 . S
H2074 C2051 0.950 . S
H2075 C2053 0.950 . S
C2076 C2077 1.349 . S
C2076 C2078 1.327 . S
C2076 H2101 0.950 . S
C2077 C2076 1.349 . S
C2077 C2093 1.349 . S
C2078 C2076 1.327 . S
C2078 C2097 1.429 . S
C2078 H2102 0.950 . S
C2079 C2096 1.574 . S
C2079 C2098 1.368 . S
C2079 H2103 0.949 . S
H2080 C2084 0.949 . S
C2081 C2082 1.349 . S
C2081 C2083 1.327 . S
C2081 H2104 0.950 . S
C2082 C2081 1.349 . S
C2082 C2094 1.349 . S
C2083 C2081 1.327 . S
C2083 C2099 1.429 . S
C2083 H2105 0.950 . S
C2084 H2080 0.949 . S
C2084 C2092 1.574 . S
C2084 C2100 1.368 . S
H2085 C2093 0.950 . S
H2086 C2091 0.950 . S
H2087 C2092 0.949 . S
H2088 C2094 0.950 . S
H2089 C2095 0.950 . S
H2090 C2096 0.949 . S
C2091 H2086 0.950 . S
C2091 C2093 1.327 . S
C2091 C2097 1.429 . S
C2092 C2084 1.574 . S
C2092 H2087 0.949 . S
C2092 C2098 1.368 . S
C2093 C2077 1.349 . S
C2093 H2085 0.950 . S
C2093 C2091 1.327 . S
C2094 C2082 1.349 . S
C2094 H2088 0.950 . S
C2094 C2095 1.327 . S
C2095 H2089 0.950 . S
C2095 C2094 1.327 . S
C2095 C2099 1.429 . S
C2096 C2079 1.574 . S
C2096 H2090 0.949 . S
C2096 C2100 1.368 . S
C2097 C2078 1.429 . S
C2097 C2091 1.429 . S
C2097 C2098 1.523 . S
C2098 C2079 1.368 . S
C2098 C2092 1.368 . S
C2098 C2097 1.523 . S
C2099 C2083 1.429 . S
C2099 C2095 1.429 . S
C2099 C2100 1.523 . S
C2100 C2084 1.368 . S
C2100 C2096 1.368 . S
C2100 C2099 1.523 . S
H2101 C2076 0.950 . S
H2102 C2078 0.950 . S
H2103 C2079 0.949 . S
H2104 C2081 0.950 . S
H2105 C2083 0.950 . S
C2106 C2107 1.349 . S
C2106 C2108 1.327 . S
C2106 H2131 0.950 . S
C2107 C2106 1.349 . S
C2107 C2123 1.349 . S
C2108 C2106 1.327 . S
C2108 C2127 1.429 . S
C2108 H2132 0.950 . S
C2109 C2126 1.574 . S
C2109 C2128 1.368 . S
C2109 H2133 0.949 . S
H2110 C2114 0.949 . S
C2111 C2112 1.349 . S
C2111 C2113 1.327 . S
C2111 H2134 0.950 . S
C2112 C2111 1.349 . S
C2112 C2124 1.349 . S
C2113 C2111 1.327 . S
C2113 C2129 1.429 . S
C2113 H2135 0.950 . S
C2114 H2110 0.949 . S
C2114 C2122 1.574 . S
C2114 C2130 1.368 . S
H2115 C2123 0.950 . S
H2116 C2121 0.950 . S
H2117 C2122 0.949 . S
H2118 C2124 0.950 1_655 S
H2119 C2125 0.960 . S
H2120 C2126 0.949 . S
C2121 H2116 0.950 . S
C2121 C2123 1.327 . S
C2121 C2127 1.429 . S
C2122 C2114 1.574 . S
C2122 H2117 0.949 . S
C2122 C2128 1.368 . S
C2123 C2107 1.349 . S
C2123 H2115 0.950 . S
C2123 C2121 1.327 . S
C2124 C2112 1.349 . S
C2124 H2118 0.950 1_455 S
C2124 C2125 1.327 . S
C2125 H2119 0.960 . S
C2125 C2124 1.327 . S
C2125 C2129 1.429 . S
C2126 C2109 1.574 . S
C2126 H2120 0.949 . S
C2126 C2130 1.368 . S
C2127 C2108 1.429 . S
C2127 C2121 1.429 . S
C2127 C2128 1.523 . S
C2128 C2109 1.368 . S
C2128 C2122 1.368 . S
C2128 C2127 1.523 . S
C2129 C2113 1.429 . S
C2129 C2125 1.429 . S
C2129 C2130 1.523 . S
C2130 C2114 1.368 . S
C2130 C2126 1.368 . S
C2130 C2129 1.523 . S
H2131 C2106 0.950 . S
H2132 C2108 0.950 . S
H2133 C2109 0.949 . S
H2134 C2111 0.950 . S
H2135 C2113 0.950 . S
C2136 C2137 1.349 . S
C2136 C2138 1.327 . S
C2136 H2161 0.950 . S
C2137 C2136 1.349 . S
C2137 C2153 1.349 . S
C2138 C2136 1.327 . S
C2138 C2157 1.429 . S
C2138 H2162 0.950 . S
C2139 C2156 1.574 . S
C2139 C2158 1.368 . S
C2139 H2163 0.949 . S
H2140 C2144 0.949 . S
C2141 C2142 1.349 . S
C2141 C2143 1.327 . S
C2141 H2164 0.950 . S
C2142 C2141 1.349 . S
C2142 C2154 1.349 . S
C2143 C2141 1.327 . S
C2143 C2159 1.429 . S
C2143 H2165 0.950 . S
C2144 H2140 0.949 . S
C2144 C2152 1.574 . S
C2144 C2160 1.368 . S
H2145 C2153 0.950 . S
H2146 C2151 0.950 . S
H2147 C2152 0.949 . S
H2148 C2154 0.950 . S
H2149 C2155 0.950 . S
H2150 C2156 0.949 . S
C2151 H2146 0.950 . S
C2151 C2153 1.327 . S
C2151 C2157 1.429 . S
C2152 C2144 1.574 . S
C2152 H2147 0.949 . S
C2152 C2158 1.368 . S
C2153 C2137 1.349 . S
C2153 H2145 0.950 . S
C2153 C2151 1.327 . S
C2154 C2142 1.349 . S
C2154 H2148 0.950 . S
C2154 C2155 1.327 . S
C2155 H2149 0.950 . S
C2155 C2154 1.327 . S
C2155 C2159 1.429 . S
C2156 C2139 1.574 . S
C2156 H2150 0.949 . S
C2156 C2160 1.368 . S
C2157 C2138 1.429 . S
C2157 C2151 1.429 . S
C2157 C2158 1.523 . S
C2158 C2139 1.368 . S
C2158 C2152 1.368 . S
C2158 C2157 1.523 . S
C2159 C2143 1.429 . S
C2159 C2155 1.429 . S
C2159 C2160 1.523 . S
C2160 C2144 1.368 . S
C2160 C2156 1.368 . S
C2160 C2159 1.523 . S
H2161 C2136 0.950 . S
H2162 C2138 0.950 . S
H2163 C2139 0.949 . S
H2164 C2141 0.950 . S
H2165 C2143 0.950 . S
C2166 C2167 1.349 . S
C2166 C2168 1.327 . S
C2166 H2191 0.950 . S
C2167 C2166 1.349 . S
C2167 C2183 1.349 . S
C2168 C2166 1.327 . S
C2168 C2187 1.429 . S
C2168 H2192 0.950 . S
C2169 C2186 1.574 . S
C2169 C2188 1.368 . S
C2169 H2193 0.949 . S
H2170 C2174 0.949 . S
C2171 C2172 1.349 . S
C2171 C2173 1.327 . S
C2171 H2194 0.950 . S
C2172 C2171 1.349 . S
C2172 C2184 1.349 . S
C2173 C2171 1.327 . S
C2173 C2189 1.429 . S
C2173 H2195 0.950 . S
C2174 H2170 0.949 . S
C2174 C2182 1.574 . S
C2174 C2190 1.368 . S
H2175 C2183 0.950 . S
H2176 C2181 0.950 . S
H2177 C2182 0.949 . S
H2178 C2184 0.950 . S
H2179 C2185 0.950 . S
H2180 C2186 0.949 . S
C2181 H2176 0.950 . S
C2181 C2183 1.327 . S
C2181 C2187 1.429 . S
C2182 C2174 1.574 . S
C2182 H2177 0.949 . S
C2182 C2188 1.368 . S
C2183 C2167 1.349 . S
C2183 H2175 0.950 . S
C2183 C2181 1.327 . S
C2184 C2172 1.349 . S
C2184 H2178 0.950 . S
C2184 C2185 1.327 . S
C2185 H2179 0.950 . S
C2185 C2184 1.327 . S
C2185 C2189 1.429 . S
C2186 C2169 1.574 . S
C2186 H2180 0.949 . S
C2186 C2190 1.368 . S
C2187 C2168 1.429 . S
C2187 C2181 1.429 . S
C2187 C2188 1.523 . S
C2188 C2169 1.368 . S
C2188 C2182 1.368 . S
C2188 C2187 1.523 . S
C2189 C2173 1.429 . S
C2189 C2185 1.429 . S
C2189 C2190 1.523 . S
C2190 C2174 1.368 . S
C2190 C2186 1.368 . S
C2190 C2189 1.523 . S
H2191 C2166 0.950 . S
H2192 C2168 0.950 . S
H2193 C2169 0.949 . S
H2194 C2171 0.950 . S
H2195 C2173 0.950 . S
C2196 C2197 1.349 . S
C2196 C2198 1.327 . S
C2196 H2221 0.950 . S
C2197 C2196 1.349 . S
C2197 C2213 1.349 . S
C2198 C2196 1.327 . S
C2198 C2217 1.429 . S
C2198 H2222 0.950 . S
C2199 C2216 1.574 . S
C2199 C2218 1.368 . S
C2199 H2223 0.949 . S
H2200 C2204 0.949 . S
C2201 C2202 1.349 . S
C2201 C2203 1.327 . S
C2201 H2224 0.950 . S
C2202 C2201 1.349 . S
C2202 C2214 1.349 . S
C2203 C2201 1.327 . S
C2203 C2219 1.429 . S
C2203 H2225 0.950 . S
C2204 H2200 0.949 . S
C2204 C2212 1.574 . S
C2204 C2220 1.368 . S
H2205 C2213 0.950 . S
H2206 C2211 0.950 . S
H2207 C2212 0.949 . S
H2208 C2214 0.950 . S
H2209 C2215 0.950 . S
H2210 C2216 0.949 . S
C2211 H2206 0.950 . S
C2211 C2213 1.327 . S
C2211 C2217 1.429 . S
C2212 C2204 1.574 . S
C2212 H2207 0.949 . S
C2212 C2218 1.368 . S
C2213 C2197 1.349 . S
C2213 H2205 0.950 . S
C2213 C2211 1.327 . S
C2214 C2202 1.349 . S
C2214 H2208 0.950 . S
C2214 C2215 1.327 . S
C2215 H2209 0.950 . S
C2215 C2214 1.327 . S
C2215 C2219 1.429 . S
C2216 C2199 1.574 . S
C2216 H2210 0.949 . S
C2216 C2220 1.368 . S
C2217 C2198 1.429 . S
C2217 C2211 1.429 . S
C2217 C2218 1.523 . S
C2218 C2199 1.368 . S
C2218 C2212 1.368 . S
C2218 C2217 1.523 . S
C2219 C2203 1.429 . S
C2219 C2215 1.429 . S
C2219 C2220 1.523 . S
C2220 C2204 1.368 . S
C2220 C2216 1.368 . S
C2220 C2219 1.523 . S
H2221 C2196 0.950 . S
H2222 C2198 0.950 . S
H2223 C2199 0.949 . S
H2224 C2201 0.950 . S
H2225 C2203 0.950 . S
C2226 C2227 1.349 . S
C2226 C2228 1.327 . S
C2226 H2251 0.950 . S
C2227 C2226 1.349 . S
C2227 C2243 1.349 . S
C2228 C2226 1.327 . S
C2228 C2247 1.429 . S
C2228 H2252 0.950 . S
C2229 C2246 1.574 . S
C2229 C2248 1.368 . S
C2229 H2253 0.949 . S
H2230 C2234 0.949 . S
C2231 C2232 1.349 . S
C2231 C2233 1.327 . S
C2231 H2254 0.950 . S
C2232 C2231 1.349 . S
C2232 C2244 1.349 . S
C2233 C2231 1.327 . S
C2233 C2249 1.429 . S
C2233 H2255 0.950 . S
C2234 H2230 0.949 . S
C2234 C2242 1.574 . S
C2234 C2250 1.368 . S
H2235 C2243 0.950 . S
H2236 C2241 0.950 . S
H2237 C2242 0.949 . S
H2238 C2244 0.950 . S
H2239 C2245 0.950 . S
H2240 C2246 0.949 . S
C2241 H2236 0.950 . S
C2241 C2243 1.327 . S
C2241 C2247 1.429 . S
C2242 C2234 1.574 . S
C2242 H2237 0.949 . S
C2242 C2248 1.368 . S
C2243 C2227 1.349 . S
C2243 H2235 0.950 . S
C2243 C2241 1.327 . S
C2244 C2232 1.349 . S
C2244 H2238 0.950 . S
C2244 C2245 1.327 . S
C2245 H2239 0.950 . S
C2245 C2244 1.327 . S
C2245 C2249 1.429 . S
C2246 C2229 1.574 . S
C2246 H2240 0.949 . S
C2246 C2250 1.368 . S
C2247 C2228 1.429 . S
C2247 C2241 1.429 . S
C2247 C2248 1.523 . S
C2248 C2229 1.368 . S
C2248 C2242 1.368 . S
C2248 C2247 1.523 . S
C2249 C2233 1.429 . S
C2249 C2245 1.429 . S
C2249 C2250 1.523 . S
C2250 C2234 1.368 . S
C2250 C2246 1.368 . S
C2250 C2249 1.523 . S
H2251 C2226 0.950 . S
H2252 C2228 0.950 . S
H2253 C2229 0.949 . S
H2254 C2231 0.950 . S
H2255 C2233 0.950 . S
C2256 C2257 1.349 . S
C2256 C2258 1.327 . S
C2256 H2281 0.950 . S
C2257 C2256 1.349 . S
C2257 C2273 1.349 . S
C2258 C2256 1.327 . S
C2258 C2277 1.429 . S
C2258 H2282 0.950 . S
C2259 C2276 1.574 . S
C2259 C2278 1.368 . S
C2259 H2283 0.949 . S
H2260 C2264 0.949 . S
C2261 C2262 1.349 . S
C2261 C2263 1.327 . S
C2261 H2284 0.950 . S
C2262 C2261 1.349 . S
C2262 C2274 1.349 . S
C2263 C2261 1.327 . S
C2263 C2279 1.429 . S
C2263 H2285 0.950 . S
C2264 H2260 0.949 . S
C2264 C2272 1.574 . S
C2264 C2280 1.368 . S
H2265 C2273 0.950 . S
H2266 C2271 0.950 . S
H2267 C2272 0.949 . S
H2268 C2274 0.950 . S
H2269 C2275 0.950 . S
H2270 C2276 0.949 . S
C2271 H2266 0.950 . S
C2271 C2273 1.327 . S
C2271 C2277 1.429 . S
C2272 C2264 1.574 . S
C2272 H2267 0.949 . S
C2272 C2278 1.368 . S
C2273 C2257 1.349 . S
C2273 H2265 0.950 . S
C2273 C2271 1.327 . S
C2274 C2262 1.349 . S
C2274 H2268 0.950 . S
C2274 C2275 1.327 . S
C2275 H2269 0.950 . S
C2275 C2274 1.327 . S
C2275 C2279 1.429 . S
C2276 C2259 1.574 . S
C2276 H2270 0.949 . S
C2276 C2280 1.368 . S
C2277 C2258 1.429 . S
C2277 C2271 1.429 . S
C2277 C2278 1.523 . S
C2278 C2259 1.368 . S
C2278 C2272 1.368 . S
C2278 C2277 1.523 . S
C2279 C2263 1.429 . S
C2279 C2275 1.429 . S
C2279 C2280 1.523 . S
C2280 C2264 1.368 . S
C2280 C2276 1.368 . S
C2280 C2279 1.523 . S
H2281 C2256 0.950 . S
H2282 C2258 0.950 . S
H2283 C2259 0.949 . S
H2284 C2261 0.950 . S
H2285 C2263 0.950 . S
C2286 C2287 1.349 . S
C2286 C2288 1.327 . S
C2286 H2311 0.950 . S
C2287 C2286 1.349 . S
C2287 C2303 1.349 . S
C2288 C2286 1.327 . S
C2288 C2307 1.429 . S
C2288 H2312 0.950 . S
C2289 C2306 1.574 . S
C2289 C2308 1.368 . S
C2289 H2313 0.949 . S
H2290 C2294 0.949 . S
C2291 C2292 1.349 . S
C2291 C2293 1.327 . S
C2291 H2314 0.950 . S
C2292 C2291 1.349 . S
C2292 C2304 1.349 . S
C2293 C2291 1.327 . S
C2293 C2309 1.429 . S
C2293 H2315 0.950 . S
C2294 H2290 0.949 . S
C2294 C2302 1.574 . S
C2294 C2310 1.368 . S
H2295 C2303 0.950 . S
H2296 C2301 0.950 . S
H2297 C2302 0.949 . S
H2298 C2304 0.950 . S
H2299 C2305 0.950 . S
H2300 C2306 0.949 . S
C2301 H2296 0.950 . S
C2301 C2303 1.327 . S
C2301 C2307 1.429 . S
C2302 C2294 1.574 . S
C2302 H2297 0.949 . S
C2302 C2308 1.368 . S
C2303 C2287 1.349 . S
C2303 H2295 0.950 . S
C2303 C2301 1.327 . S
C2304 C2292 1.349 . S
C2304 H2298 0.950 . S
C2304 C2305 1.327 . S
C2305 H2299 0.950 . S
C2305 C2304 1.327 . S
C2305 C2309 1.429 . S
C2306 C2289 1.574 . S
C2306 H2300 0.949 . S
C2306 C2310 1.368 . S
C2307 C2288 1.429 . S
C2307 C2301 1.429 . S
C2307 C2308 1.523 . S
C2308 C2289 1.368 . S
C2308 C2302 1.368 . S
C2308 C2307 1.523 . S
C2309 C2293 1.429 . S
C2309 C2305 1.429 . S
C2309 C2310 1.523 . S
C2310 C2294 1.368 . S
C2310 C2306 1.368 . S
C2310 C2309 1.523 . S
H2311 C2286 0.950 . S
H2312 C2288 0.950 . S
H2313 C2289 0.949 . S
H2314 C2291 0.950 . S
H2315 C2293 0.950 . S
C2316 C2317 1.349 . S
C2316 C2318 1.327 . S
C2316 H2341 0.950 . S
C2317 C2316 1.349 . S
C2317 C2333 1.349 . S
C2318 C2316 1.327 . S
C2318 C2337 1.429 . S
C2318 H2342 0.950 . S
C2319 C2336 1.574 . S
C2319 C2338 1.368 . S
C2319 H2343 0.949 . S
H2320 C2324 0.949 . S
C2321 C2322 1.349 . S
C2321 C2323 1.327 . S
C2321 H2344 0.950 . S
C2322 C2321 1.349 . S
C2322 C2334 1.349 . S
C2323 C2321 1.327 . S
C2323 C2339 1.429 . S
C2323 H2345 0.950 . S
C2324 H2320 0.949 . S
C2324 C2332 1.574 . S
C2324 C2340 1.368 . S
H2325 C2333 0.950 . S
H2326 C2331 0.950 . S
H2327 C2332 0.949 . S
H2328 C2334 0.950 . S
H2329 C2335 0.950 . S
H2330 C2336 0.949 . S
C2331 H2326 0.950 . S
C2331 C2333 1.327 . S
C2331 C2337 1.429 . S
C2332 C2324 1.574 . S
C2332 H2327 0.949 . S
C2332 C2338 1.368 . S
C2333 C2317 1.349 . S
C2333 H2325 0.950 . S
C2333 C2331 1.327 . S
C2334 C2322 1.349 . S
C2334 H2328 0.950 . S
C2334 C2335 1.327 . S
C2335 H2329 0.950 . S
C2335 C2334 1.327 . S
C2335 C2339 1.429 . S
C2336 C2319 1.574 . S
C2336 H2330 0.949 . S
C2336 C2340 1.368 . S
C2337 C2318 1.429 . S
C2337 C2331 1.429 . S
C2337 C2338 1.523 . S
C2338 C2319 1.368 . S
C2338 C2332 1.368 . S
C2338 C2337 1.523 . S
C2339 C2323 1.429 . S
C2339 C2335 1.429 . S
C2339 C2340 1.523 . S
C2340 C2324 1.368 . S
C2340 C2336 1.368 . S
C2340 C2339 1.523 . S
H2341 C2316 0.950 . S
H2342 C2318 0.950 . S
H2343 C2319 0.949 . S
H2344 C2321 0.950 . S
H2345 C2323 0.950 . S
C2346 C2347 1.349 . S
C2346 C2348 1.327 . S
C2346 H2371 0.950 . S
C2347 C2346 1.349 . S
C2347 C2363 1.349 . S
C2348 C2346 1.327 . S
C2348 C2367 1.429 . S
C2348 H2372 0.950 . S
C2349 C2366 1.574 . S
C2349 C2368 1.368 . S
C2349 H2373 0.949 . S
H2350 C2354 0.949 . S
C2351 C2352 1.349 . S
C2351 C2353 1.327 . S
C2351 H2374 0.950 . S
C2352 C2351 1.349 . S
C2352 C2364 1.349 . S
C2353 C2351 1.327 . S
C2353 C2369 1.429 . S
C2353 H2375 0.950 . S
C2354 H2350 0.949 . S
C2354 C2362 1.574 . S
C2354 C2370 1.368 . S
H2355 C2363 0.950 . S
H2356 C2361 0.950 . S
H2357 C2362 0.949 . S
H2358 C2364 0.950 . S
H2359 C2365 0.950 . S
H2360 C2366 0.949 . S
C2361 H2356 0.950 . S
C2361 C2363 1.327 . S
C2361 C2367 1.429 . S
C2362 C2354 1.574 . S
C2362 H2357 0.949 . S
C2362 C2368 1.368 . S
C2363 C2347 1.349 . S
C2363 H2355 0.950 . S
C2363 C2361 1.327 . S
C2364 C2352 1.349 . S
C2364 H2358 0.950 . S
C2364 C2365 1.327 . S
C2365 H2359 0.950 . S
C2365 C2364 1.327 . S
C2365 C2369 1.429 . S
C2366 C2349 1.574 . S
C2366 H2360 0.949 . S
C2366 C2370 1.368 . S
C2367 C2348 1.429 . S
C2367 C2361 1.429 . S
C2367 C2368 1.523 . S
C2368 C2349 1.368 . S
C2368 C2362 1.368 . S
C2368 C2367 1.523 . S
C2369 C2353 1.429 . S
C2369 C2365 1.429 . S
C2369 C2370 1.523 . S
C2370 C2354 1.368 . S
C2370 C2366 1.368 . S
C2370 C2369 1.523 . S
H2371 C2346 0.950 . S
H2372 C2348 0.950 . S
H2373 C2349 0.949 . S
H2374 C2351 0.950 . S
H2375 C2353 0.950 . S
C2376 C2377 1.349 . S
C2376 C2378 1.327 . S
C2376 H2401 0.950 . S
C2377 C2376 1.349 . S
C2377 C2393 1.349 . S
C2378 C2376 1.327 . S
C2378 C2397 1.429 . S
C2378 H2402 0.950 . S
C2379 C2396 1.574 1_556 S
C2379 C2398 1.368 . S
C2379 H2403 0.949 1_556 S
H2380 C2384 0.949 . S
C2381 C2382 1.349 1_554 S
C2381 C2383 1.327 . S
C2381 H2404 0.950 . S
C2382 C2381 1.349 1_556 S
C2382 C2394 1.349 . S
C2383 C2381 1.327 . S
C2383 C2399 1.429 1_554 S
C2383 H2405 0.950 . S
C2384 H2380 0.949 . S
C2384 C2392 1.574 . S
C2384 C2400 1.368 . S
H2385 C2393 1.001 . S
H2386 C2391 0.950 1_554 S
H2387 C2392 0.949 . S
H2388 C2394 0.950 . S
H2389 C2395 0.950 . S
H2390 C2396 0.949 . S
C2391 H2386 0.950 1_556 S
C2391 C2393 1.327 . S
C2391 C2397 1.429 . S
C2392 C2384 1.574 . S
C2392 H2387 0.949 . S
C2392 C2398 1.368 . S
C2393 C2377 1.349 . S
C2393 H2385 1.001 . S
C2393 C2391 1.327 . S
C2394 C2382 1.349 . S
C2394 H2388 0.950 . S
C2394 C2395 1.327 . S
C2395 H2389 0.950 . S
C2395 C2394 1.327 . S
C2395 C2399 1.429 . S
C2396 C2379 1.574 1_554 S
C2396 H2390 0.949 . S
C2396 C2400 1.368 1_554 S
C2397 C2378 1.429 . S
C2397 C2391 1.429 . S
C2397 C2398 1.523 . S
C2398 C2379 1.368 . S
C2398 C2392 1.368 . S
C2398 C2397 1.523 . S
C2399 C2383 1.429 1_556 S
C2399 C2395 1.429 . S
C2399 C2400 1.523 . S
C2400 C2384 1.368 . S
C2400 C2396 1.368 1_556 S
C2400 C2399 1.523 . S
H2401 C2376 0.950 . S
H2402 C2378 0.950 . S
H2403 C2379 0.949 1_554 S
H2404 C2381 0.950 . S
H2405 C2383 0.950 . S
C2406 C2407 1.349 . S
C2406 C2408 1.327 . S
C2406 H2431 0.950 . S
C2407 C2406 1.349 . S
C2407 C2423 1.349 . S
C2408 C2406 1.327 . S
C2408 C2427 1.429 . S
C2408 H2432 0.950 . S
C2409 C2426 1.574 . S
C2409 C2428 1.368 . S
C2409 H2433 0.949 . S
H2410 C2414 0.949 . S
C2411 C2412 1.349 . S
C2411 C2413 1.327 . S
C2411 H2434 0.950 . S
C2412 C2411 1.349 . S
C2412 C2424 1.349 . S
C2413 C2411 1.327 . S
C2413 C2429 1.429 . S
C2413 H2435 0.950 . S
C2414 H2410 0.949 . S
C2414 C2422 1.574 . S
C2414 C2430 1.368 . S
H2415 C2423 0.950 . S
H2416 C2421 0.950 . S
H2417 C2422 0.949 . S
H2418 C2424 0.950 . S
H2419 C2425 0.950 . S
H2420 C2426 0.949 . S
C2421 H2416 0.950 . S
C2421 C2423 1.327 . S
C2421 C2427 1.429 . S
C2422 C2414 1.574 . S
C2422 H2417 0.949 . S
C2422 C2428 1.368 . S
C2423 C2407 1.349 . S
C2423 H2415 0.950 . S
C2423 C2421 1.327 . S
C2424 C2412 1.349 . S
C2424 H2418 0.950 . S
C2424 C2425 1.327 . S
C2425 H2419 0.950 . S
C2425 C2424 1.327 . S
C2425 C2429 1.429 . S
C2426 C2409 1.574 . S
C2426 H2420 0.949 . S
C2426 C2430 1.368 . S
C2427 C2408 1.429 . S
C2427 C2421 1.429 . S
C2427 C2428 1.523 . S
C2428 C2409 1.368 . S
C2428 C2422 1.368 . S
C2428 C2427 1.523 . S
C2429 C2413 1.429 . S
C2429 C2425 1.429 . S
C2429 C2430 1.523 . S
C2430 C2414 1.368 . S
C2430 C2426 1.368 . S
C2430 C2429 1.523 . S
H2431 C2406 0.950 . S
H2432 C2408 0.950 . S
H2433 C2409 0.949 . S
H2434 C2411 0.950 . S
H2435 C2413 0.950 . S
C2436 C2437 1.349 . S
C2436 C2438 1.327 . S
C2436 H2461 0.950 . S
C2437 C2436 1.349 . S
C2437 C2453 1.349 . S
C2438 C2436 1.327 . S
C2438 C2457 1.429 . S
C2438 H2462 0.950 . S
C2439 C2456 1.574 . S
C2439 C2458 1.368 . S
C2439 H2463 0.949 . S
H2440 C2444 0.947 . S
C2441 C2442 1.349 . S
C2441 C2443 1.327 . S
C2441 H2464 0.950 . S
C2442 C2441 1.349 . S
C2442 C2454 1.334 1_554 S
C2443 C2441 1.327 . S
C2443 C2459 1.429 . S
C2443 H2465 0.950 . S
C2444 H2440 0.947 . S
C2444 C2452 1.574 . S
C2444 C2460 1.368 . S
H2445 C2453 0.950 . S
H2446 C2451 0.950 . S
H2447 C2452 0.949 . S
H2448 C2454 0.974 . S
H2449 C2455 0.950 1_556 S
H2450 C2456 0.949 . S
C2451 H2446 0.950 . S
C2451 C2453 1.327 . S
C2451 C2457 1.429 . S
C2452 C2444 1.574 . S
C2452 H2447 0.949 . S
C2452 C2458 1.368 . S
C2453 C2437 1.349 . S
C2453 H2445 0.950 . S
C2453 C2451 1.327 . S
C2454 C2442 1.334 1_556 S
C2454 H2448 0.974 . S
C2454 C2455 1.322 1_556 S
C2455 H2449 0.950 1_554 S
C2455 C2454 1.322 1_554 S
C2455 C2459 1.429 . S
C2456 C2439 1.574 . S
C2456 H2450 0.949 . S
C2456 C2460 1.368 . S
C2457 C2438 1.429 . S
C2457 C2451 1.429 . S
C2457 C2458 1.523 . S
C2458 C2439 1.368 . S
C2458 C2452 1.368 . S
C2458 C2457 1.523 . S
C2459 C2443 1.429 . S
C2459 C2455 1.429 . S
C2459 C2460 1.523 . S
C2460 C2444 1.368 . S
C2460 C2456 1.368 . S
C2460 C2459 1.523 . S
H2461 C2436 0.950 . S
H2462 C2438 0.950 . S
H2463 C2439 0.949 . S
H2464 C2441 0.950 . S
H2465 C2443 0.950 . S
C2466 C2467 1.349 . S
C2466 C2468 1.327 . S
C2466 H2491 0.950 . S
C2467 C2466 1.349 . S
C2467 C2483 1.349 . S
C2468 C2466 1.327 . S
C2468 C2487 1.429 . S
C2468 H2492 0.950 . S
C2469 C2486 1.574 . S
C2469 C2488 1.368 . S
C2469 H2493 0.949 1_554 S
H2470 C2474 0.949 . S
C2471 C2472 1.361 . S
C2471 C2473 1.328 . S
C2471 H2494 0.936 1_554 S
C2472 C2471 1.361 . S
C2472 C2484 1.349 . S
C2473 C2471 1.328 . S
C2473 C2489 1.429 . S
C2473 H2495 0.950 1_554 S
C2474 H2470 0.949 . S
C2474 C2482 1.574 . S
C2474 C2490 1.368 . S
H2475 C2483 0.950 . S
H2476 C2481 0.946 1_556 S
H2477 C2482 0.949 . S
H2478 C2484 0.950 . S
H2479 C2485 0.950 . S
H2480 C2486 0.949 1_556 S
C2481 H2476 0.946 1_554 S
C2481 C2483 1.327 . S
C2481 C2487 1.429 . S
C2482 C2474 1.574 . S
C2482 H2477 0.949 . S
C2482 C2488 1.368 . S
C2483 C2467 1.349 . S
C2483 H2475 0.950 . S
C2483 C2481 1.327 . S
C2484 C2472 1.349 . S
C2484 H2478 0.950 . S
C2484 C2485 1.327 . S
C2485 H2479 0.950 . S
C2485 C2484 1.327 . S
C2485 C2489 1.429 . S
C2486 C2469 1.574 . S
C2486 H2480 0.949 1_554 S
C2486 C2490 1.368 . S
C2487 C2468 1.429 . S
C2487 C2481 1.429 . S
C2487 C2488 1.523 . S
C2488 C2469 1.368 . S
C2488 C2482 1.368 . S
C2488 C2487 1.523 . S
C2489 C2473 1.429 . S
C2489 C2485 1.429 . S
C2489 C2490 1.523 . S
C2490 C2474 1.368 . S
C2490 C2486 1.368 . S
C2490 C2489 1.523 . S
H2491 C2466 0.950 . S
H2492 C2468 0.950 . S
H2493 C2469 0.949 1_556 S
H2494 C2471 0.936 1_556 S
H2495 C2473 0.950 1_556 S
C1062 C626 1.413 . S
C1057 C211 1.419 . S
C1092 C674 1.654 . S
C1087 C255 1.706 . S
C1117 C274 1.402 . S
C1122 C710 1.346 . S
C1152 C746 1.611 . S
C1147 C157 1.663 . S
C1182 C772 1.456 . S
C1177 C391 1.457 . S
C1212 C808 1.609 . S
C1207 C484 1.612 . S
C1237 C450 1.468 . S
C1242 C843 1.478 . S
C1272 C880 1.631 1_565 S
C1267 C352 1.639 . S
C1297 C430 1.411 . S
C1302 C914 1.406 . S
C1332 C962 1.590 . S
C1327 C367 1.640 . S
C1357 C411 1.444 . S
C1362 C915 1.451 . S
C1392 C952 1.640 . S
C1387 C469 1.643 . S
C1417 C294 1.440 . S
C1422 C998 1.381 . S
C1447 C177 1.660 . S
C1452 C987 1.655 . S
C1477 C196 1.476 . S
C1482 C988 1.474 . S
C1507 C235 1.679 . S
C1512 C986 1.674 . S
C1537 C133 1.433 . S
C1542 C734 1.426 . S
C1567 C567 1.410 . S
C1572 C735 1.416 . S
C1602 C638 1.628 . S
C1597 C601 1.681 . S
C1632 C663 1.448 . S
C1627 C328 1.443 . S
C1657 C172 1.657 . S
C1662 C770 1.651 . S
C1692 C878 1.455 . S
C1687 C445 1.459 . S
C1722 C771 1.635 . S
C1717 C372 1.639 . S
C1752 C844 1.634 . S
C1747 C489 1.639 . S
C1782 C842 1.413 . S
C1777 C562 1.419 . S
C1807 C606 1.706 . S
C1812 C890 1.654 . S
C1837 C313 1.402 . S
C1842 C782 1.346 . S
C1872 C818 1.611 . S
C1867 C508 1.663 . S
C1897 C118 1.457 . S
C1902 C700 1.456 . S
C1932 C736 1.609 . S
C1927 C16 1.612 . S
C1962 C627 1.478 . S
C1957 C60 1.468 . S
C1992 C664 1.635 . S
C1987 C79 1.638 . S
C2017 C40 1.411 . S
C2022 C950 1.406 . S
C2047 C94 1.640 . S
C2052 C926 1.590 . S
C2077 C138 1.444 . S
C2082 C951 1.451 . S
C2107 C1 1.644 . S
C2112 C916 1.640 . S
C2142 C1034 1.380 . S
C2137 C333 1.440 . S
C2172 C1023 1.655 . S
C2167 C528 1.660 . S
C2202 C1024 1.474 . S
C2197 C547 1.476 . S
C2227 C586 1.679 . S
C2232 C1022 1.673 . S
C2257 C406 1.433 . S
C2262 C806 1.426 . S
C2292 C807 1.416 . S
C2287 C216 1.410 . S
C2322 C854 1.628 . S
C2317 C250 1.681 . S
C2352 C879 1.449 . S
C2347 C289 1.450 . S
C2377 C523 1.657 . S
C2382 C698 1.651 . S
C2412 C662 1.455 . S
C2407 C55 1.465 . S
C2437 C99 1.639 . S
C2442 C699 1.635 . S
C2472 C628 1.634 . S
C2467 C21 1.639 . S
