# Generated by pormake.
# Topology ssc, (4,4)-cn, num edge types: 1
# Building blocks:
#     Node 0, Type 0, BuildingBlock: QUQFOY_clean_sbu_3, # of connection points: 4
#     Node 1, Type 0, BuildingBlock: QUQFOY_clean_sbu_3, # of connection points: 4
#     Node 2, Type 0, BuildingBlock: QUQFOY_clean_sbu_3, # of connection points: 4
#     Node 3, Type 0, BuildingBlock: QUQFOY_clean_sbu_3, # of connection points: 4
#     Node 4, Type 0, BuildingBlock: QUQFOY_clean_sbu_3, # of connection points: 4
#     Node 5, Type 0, BuildingBlock: QUQFOY_clean_sbu_3, # of connection points: 4
#     Node 6, Type 0, BuildingBlock: QUQFOY_clean_sbu_3, # of connection points: 4
#     Node 7, Type 0, BuildingBlock: QUQFOY_clean_sbu_3, # of connection points: 4
#     Node 8, Type 0, BuildingBlock: QUQFOY_clean_sbu_3, # of connection points: 4
#     Node 9, Type 0, BuildingBlock: QUQFOY_clean_sbu_3, # of connection points: 4
#     Node 10, Type 0, BuildingBlock: QUQFOY_clean_sbu_3, # of connection points: 4
#     Node 11, Type 0, BuildingBlock: QUQFOY_clean_sbu_3, # of connection points: 4
#     Node 12, Type 1, BuildingBlock: KUFVIS_clean_linker_0, # of connection points: 4
#     Node 13, Type 1, BuildingBlock: KUFVIS_clean_linker_0, # of connection points: 4
#     Node 14, Type 1, BuildingBlock: KUFVIS_clean_linker_0, # of connection points: 4
#     Node 15, Type 1, BuildingBlock: KUFVIS_clean_linker_0, # of connection points: 4
#     Node 16, Type 1, BuildingBlock: KUFVIS_clean_linker_0, # of connection points: 4
#     Node 17, Type 1, BuildingBlock: KUFVIS_clean_linker_0, # of connection points: 4
#     Node 18, Type 1, BuildingBlock: KUFVIS_clean_linker_0, # of connection points: 4
#     Node 19, Type 1, BuildingBlock: KUFVIS_clean_linker_0, # of connection points: 4
#     Node 20, Type 1, BuildingBlock: KUFVIS_clean_linker_0, # of connection points: 4
#     Node 21, Type 1, BuildingBlock: KUFVIS_clean_linker_0, # of connection points: 4
#     Node 22, Type 1, BuildingBlock: KUFVIS_clean_linker_0, # of connection points: 4
#     Node 23, Type 1, BuildingBlock: KUFVIS_clean_linker_0, # of connection points: 4
#     Edge 24, Type (0, 1), BuildingBlock: MIFKUJ_clean_linker_0, # of connection points: 2
#     Edge 25, Type (0, 1), BuildingBlock: MIFKUJ_clean_linker_0, # of connection points: 2
#     Edge 26, Type (0, 1), BuildingBlock: MIFKUJ_clean_linker_0, # of connection points: 2
#     Edge 27, Type (0, 1), BuildingBlock: MIFKUJ_clean_linker_0, # of connection points: 2
#     Edge 28, Type (0, 1), BuildingBlock: MIFKUJ_clean_linker_0, # of connection points: 2
#     Edge 29, Type (0, 1), BuildingBlock: MIFKUJ_clean_linker_0, # of connection points: 2
#     Edge 30, Type (0, 1), BuildingBlock: MIFKUJ_clean_linker_0, # of connection points: 2
#     Edge 31, Type (0, 1), BuildingBlock: MIFKUJ_clean_linker_0, # of connection points: 2
#     Edge 32, Type (0, 1), BuildingBlock: MIFKUJ_clean_linker_0, # of connection points: 2
#     Edge 33, Type (0, 1), BuildingBlock: MIFKUJ_clean_linker_0, # of connection points: 2
#     Edge 34, Type (0, 1), BuildingBlock: MIFKUJ_clean_linker_0, # of connection points: 2
#     Edge 35, Type (0, 1), BuildingBlock: MIFKUJ_clean_linker_0, # of connection points: 2
#     Edge 36, Type (0, 1), BuildingBlock: MIFKUJ_clean_linker_0, # of connection points: 2
#     Edge 37, Type (0, 1), BuildingBlock: MIFKUJ_clean_linker_0, # of connection points: 2
#     Edge 38, Type (0, 1), BuildingBlock: MIFKUJ_clean_linker_0, # of connection points: 2
#     Edge 39, Type (0, 1), BuildingBlock: MIFKUJ_clean_linker_0, # of connection points: 2
#     Edge 40, Type (0, 1), BuildingBlock: MIFKUJ_clean_linker_0, # of connection points: 2
#     Edge 41, Type (0, 1), BuildingBlock: MIFKUJ_clean_linker_0, # of connection points: 2
#     Edge 42, Type (0, 1), BuildingBlock: MIFKUJ_clean_linker_0, # of connection points: 2
#     Edge 43, Type (0, 1), BuildingBlock: MIFKUJ_clean_linker_0, # of connection points: 2
#     Edge 44, Type (0, 1), BuildingBlock: MIFKUJ_clean_linker_0, # of connection points: 2
#     Edge 45, Type (0, 1), BuildingBlock: MIFKUJ_clean_linker_0, # of connection points: 2
#     Edge 46, Type (0, 1), BuildingBlock: MIFKUJ_clean_linker_0, # of connection points: 2
#     Edge 47, Type (0, 1), BuildingBlock: MIFKUJ_clean_linker_0, # of connection points: 2
#     Edge 48, Type (0, 1), BuildingBlock: MIFKUJ_clean_linker_0, # of connection points: 2
#     Edge 49, Type (0, 1), BuildingBlock: MIFKUJ_clean_linker_0, # of connection points: 2
#     Edge 50, Type (0, 1), BuildingBlock: MIFKUJ_clean_linker_0, # of connection points: 2
#     Edge 51, Type (0, 1), BuildingBlock: MIFKUJ_clean_linker_0, # of connection points: 2
#     Edge 52, Type (0, 1), BuildingBlock: MIFKUJ_clean_linker_0, # of connection points: 2
#     Edge 53, Type (0, 1), BuildingBlock: MIFKUJ_clean_linker_0, # of connection points: 2
#     Edge 54, Type (0, 1), BuildingBlock: MIFKUJ_clean_linker_0, # of connection points: 2
#     Edge 55, Type (0, 1), BuildingBlock: MIFKUJ_clean_linker_0, # of connection points: 2
#     Edge 56, Type (0, 1), BuildingBlock: MIFKUJ_clean_linker_0, # of connection points: 2
#     Edge 57, Type (0, 1), BuildingBlock: MIFKUJ_clean_linker_0, # of connection points: 2
#     Edge 58, Type (0, 1), BuildingBlock: MIFKUJ_clean_linker_0, # of connection points: 2
#     Edge 59, Type (0, 1), BuildingBlock: MIFKUJ_clean_linker_0, # of connection points: 2
#     Edge 60, Type (0, 1), BuildingBlock: MIFKUJ_clean_linker_0, # of connection points: 2
#     Edge 61, Type (0, 1), BuildingBlock: MIFKUJ_clean_linker_0, # of connection points: 2
#     Edge 62, Type (0, 1), BuildingBlock: MIFKUJ_clean_linker_0, # of connection points: 2
#     Edge 63, Type (0, 1), BuildingBlock: MIFKUJ_clean_linker_0, # of connection points: 2
#     Edge 64, Type (0, 1), BuildingBlock: MIFKUJ_clean_linker_0, # of connection points: 2
#     Edge 65, Type (0, 1), BuildingBlock: MIFKUJ_clean_linker_0, # of connection points: 2
#     Edge 66, Type (0, 1), BuildingBlock: MIFKUJ_clean_linker_0, # of connection points: 2
#     Edge 67, Type (0, 1), BuildingBlock: MIFKUJ_clean_linker_0, # of connection points: 2
#     Edge 68, Type (0, 1), BuildingBlock: MIFKUJ_clean_linker_0, # of connection points: 2
#     Edge 69, Type (0, 1), BuildingBlock: MIFKUJ_clean_linker_0, # of connection points: 2
#     Edge 70, Type (0, 1), BuildingBlock: MIFKUJ_clean_linker_0, # of connection points: 2
#     Edge 71, Type (0, 1), BuildingBlock: MIFKUJ_clean_linker_0, # of connection points: 2
# Relax obj value: 0.126
# Max RMSD: 0.298
# Mean RMSD: 0.275
data_MOF--net-ssc--node1-QUQFOY_clean_sbu_3--node2-KUFVIS_clean_linker_0--edge1-MIFKUJ_clean_linker_0
_symmetry_space_group_name_H-M    P1
_symmetry_Int_Tables_number       1
_symmetry_cell_setting            triclinic
loop_
_symmetry_equiv_pos_as_xyz
'x, y, z'
_cell_length_a     40.201587
_cell_length_b     40.304395
_cell_length_c     40.172869
_cell_angle_alpha  92.633261
_cell_angle_beta   90.152686
_cell_angle_gamma 90.862312
loop_
_atom_site_label
_atom_site_type_symbol
_atom_site_fract_x
_atom_site_fract_y
_atom_site_fract_z
_atom_type_partial_charge
C0 C 0.04042 0.23157 0.22949 0.0
O1 O 0.03529 0.20047 0.23023 0.0
Cd2 Cd 0.00597 0.16941 0.1874 0.0
O3 O 0.02717 0.24825 0.20685 0.0
Cd4 Cd 0.98821 0.23326 0.16026 0.0
C5 C 0.92794 0.19488 0.20175 0.0
O6 O 0.02555 0.19144 0.1364 0.0
O7 O 0.97644 0.19171 0.11503 0.0
O8 O 0.00806 0.28261 0.13168 0.0
C9 C 0.00657 0.18332 0.11221 0.0
O10 O 0.94654 0.16969 0.1988 0.0
C11 C 0.97984 0.28856 0.11919 0.0
O12 O 0.93853 0.22308 0.19323 0.0
O13 O 0.95559 0.27063 0.12812 0.0
C14 C 0.04319 0.73351 0.30875 0.0
O15 O 0.04318 0.76474 0.30608 0.0
Cd16 Cd 0.01607 0.80139 0.34492 0.0
O17 O 0.02699 0.72025 0.33203 0.0
Cd18 Cd 0.98932 0.74284 0.37623 0.0
C19 C 0.93803 0.77832 0.3241 0.0
O20 O 0.02866 0.78374 0.39957 0.0
O21 O 0.9775 0.79225 0.41295 0.0
O22 O 0.00614 0.69545 0.4077 0.0
C23 C 0.00808 0.79786 0.419 0.0
O24 O 0.95801 0.80295 0.32805 0.0
C25 C 0.97837 0.69182 0.42211 0.0
O26 O 0.94486 0.75056 0.336 0.0
O27 O 0.955 0.71047 0.41351 0.0
C28 C 0.5083 0.79154 0.71772 0.0
O29 O 0.51071 0.76028 0.7194 0.0
Cd30 Cd 0.49127 0.72066 0.67763 0.0
O31 O 0.49156 0.80398 0.69446 0.0
Cd32 Cd 0.45568 0.77914 0.64885 0.0
C33 C 0.40974 0.72581 0.69384 0.0
O34 O 0.50244 0.74681 0.62665 0.0
O35 O 0.4557 0.7381 0.60137 0.0
O36 O 0.46361 0.83305 0.62423 0.0
C37 C 0.48691 0.73422 0.60169 0.0
O38 O 0.43409 0.70627 0.69011 0.0
C39 C 0.43552 0.833 0.6097 0.0
O40 O 0.41197 0.75553 0.68448 0.0
O41 O 0.4158 0.80907 0.6154 0.0
C42 C 0.57688 0.25332 0.82001 0.0
O43 O 0.57565 0.28477 0.82243 0.0
Cd44 Cd 0.53605 0.31368 0.8556 0.0
O45 O 0.55594 0.23555 0.83543 0.0
Cd46 Cd 0.50849 0.24847 0.87344 0.0
C47 C 0.46563 0.28622 0.81568 0.0
O48 O 0.53996 0.2879 0.90797 0.0
O49 O 0.48684 0.29205 0.9131 0.0
O50 O 0.52087 0.19838 0.90331 0.0
C51 C 0.51559 0.29758 0.92534 0.0
O52 O 0.48324 0.31154 0.82478 0.0
C53 C 0.49096 0.19339 0.91209 0.0
O54 O 0.47133 0.25808 0.8273 0.0
O55 O 0.46912 0.21171 0.89986 0.0
C56 C 0.12165 0.04443 0.20625 0.0
O57 O 0.12845 0.06962 0.22533 0.0
Cd58 Cd 0.1607 0.06625 0.27461 0.0
O59 O 0.13446 0.01629 0.2115 0.0
Cd60 Cd 0.17568 0.99169 0.25023 0.0
C61 C 0.11901 0.00088 0.31025 0.0
O62 O 0.2111 0.04075 0.25641 0.0
O63 O 0.21997 0.00377 0.29219 0.0
O64 O 0.20194 0.96277 0.2038 0.0
C65 C 0.22873 0.03102 0.28008 0.0
O66 O 0.12492 0.03192 0.30897 0.0
C67 C 0.20206 0.9344 0.21615 0.0
O68 O 0.13372 0.97993 0.29115 0.0
O69 O 0.18881 0.9321 0.24461 0.0
C70 C 0.23197 0.91155 0.47855 0.0
O71 O 0.25591 0.91692 0.45884 0.0
Cd72 Cd 0.30942 0.89249 0.46354 0.0
O73 O 0.23489 0.89128 0.50185 0.0
Cd74 Cd 0.27764 0.85268 0.52235 0.0
C75 C 0.32711 0.91921 0.54388 0.0
O76 O 0.29478 0.83522 0.46636 0.0
O77 O 0.32509 0.81666 0.50541 0.0
O78 O 0.23122 0.81544 0.53573 0.0
C79 C 0.31798 0.81646 0.47462 0.0
O80 O 0.33496 0.92006 0.51326 0.0
C81 C 0.24258 0.80816 0.56396 0.0
O82 O 0.30535 0.89869 0.55366 0.0
O83 O 0.27008 0.82177 0.57287 0.0
C84 C 0.41327 0.94645 0.69734 0.0
O85 O 0.40515 0.9229 0.7158 0.0
Cd86 Cd 0.36986 0.92809 0.7631 0.0
O87 O 0.40151 0.97549 0.70243 0.0
Cd88 Cd 0.36296 0.00529 0.74103 0.0
C89 C 0.41752 0.98936 0.80343 0.0
O90 O 0.32514 0.95908 0.74221 0.0
O91 O 0.31324 -0.00124 0.7774 0.0
O92 O 0.34309 0.03775 0.6955 0.0
C93 C 0.30545 0.97055 0.7641 0.0
O94 O 0.40652 0.9595 0.8025 0.0
C95 C 0.3463 0.0657 0.71125 0.0
O96 O 0.40653 0.0102 0.78339 0.0
O97 O 0.35805 0.06552 0.74062 0.0
C98 C 0.1928 0.11227 0.04633 0.0
O99 O 0.21141 0.11657 0.07181 0.0
Cd100 Cd 0.26548 0.13991 0.0721 0.0
O101 O 0.20085 0.12405 0.0184 0.0
Cd102 Cd 0.24573 0.1602 0.99553 0.0
C103 C 0.29331 0.09222 0.00373 0.0
O104 O 0.25413 0.1906 0.04763 0.0
O105 O 0.29113 0.20139 0.01123 0.0
O106 O 0.20323 0.18757 0.96309 0.0
C107 C 0.27974 0.20709 0.04027 0.0
O108 O 0.29382 0.09917 0.03502 0.0
C109 C 0.22147 0.19032 0.93751 0.0
O110 O 0.27747 0.11018 0.98403 0.0
O111 O 0.25044 0.17832 0.93873 0.0
C112 C 0.69988 0.40553 0.97192 0.0
O113 O 0.71385 0.40133 0.94377 0.0
Cd114 Cd 0.76388 0.37213 0.9335 0.0
O115 O 0.71016 0.39064 -0.00267 0.0
Cd116 Cd 0.75329 0.34758 0.00785 0.0
C117 C 0.80923 0.40986 -0.00197 0.0
O118 O 0.75226 0.31876 0.95322 0.0
O119 O 0.79481 0.30893 0.98337 0.0
O120 O 0.71511 0.31454 0.04071 0.0
C121 C 0.77856 0.30251 0.95671 0.0
O122 O 0.80495 0.40517 0.96671 0.0
C123 C 0.73547 0.31064 0.06446 0.0
O124 O 0.79267 0.39311 0.01855 0.0
O125 O 0.76349 0.3254 0.06268 0.0
C126 C 0.90638 0.45096 0.21539 0.0
O127 O 0.90098 0.42484 0.23117 0.0
Cd128 Cd 0.865 0.42348 0.27811 0.0
O129 O 0.89033 0.4774 0.22241 0.0
Cd130 Cd 0.84666 0.49664 0.2623 0.0
C131 C 0.90729 0.48754 0.31955 0.0
O132 O 0.81287 0.4461 0.26203 0.0
O133 O 0.80378 0.48145 0.3028 0.0
O134 O 0.81944 0.52371 0.21733 0.0
C135 C 0.79471 0.45518 0.28642 0.0
O136 O 0.89954 0.45676 0.31752 0.0
C137 C 0.81563 0.55143 0.23309 0.0
O138 O 0.89238 0.508 0.30167 0.0
O139 O 0.8277 0.55435 0.26237 0.0
C140 C 0.73104 0.60327 0.54547 0.0
O141 O 0.75304 0.60988 0.56761 0.0
Cd142 Cd 0.80113 0.6426 0.56208 0.0
O143 O 0.73217 0.61633 0.51706 0.0
Cd144 Cd 0.77116 0.65504 0.48863 0.0
C145 C 0.82479 0.59214 0.49526 0.0
O146 O 0.77902 0.68995 0.53809 0.0
O147 O 0.81588 0.69771 0.50075 0.0
O148 O 0.72504 0.67802 0.45737 0.0
C149 C 0.80353 0.70686 0.52863 0.0
O150 O 0.83028 0.6033 0.52499 0.0
C151 C 0.74183 0.68188 0.43098 0.0
O152 O 0.80374 0.60574 0.47679 0.0
O153 O 0.7717 0.67213 0.43107 0.0
C154 C 0.60847 0.53379 0.72683 0.0
O155 O 0.61163 0.55895 0.74685 0.0
Cd156 Cd 0.64805 0.56401 0.79323 0.0
O157 O 0.62646 0.5082 0.72987 0.0
Cd158 Cd 0.67252 0.49222 0.76799 0.0
C159 C 0.61869 0.49627 0.8323 0.0
O160 O 0.69938 0.5468 0.76936 0.0
O161 O 0.71774 0.51349 0.80509 0.0
O162 O 0.69881 0.45813 0.72347 0.0
C163 C 0.72073 0.54102 0.79136 0.0
O164 O 0.62247 0.52772 0.83331 0.0
C165 C 0.70659 0.43497 0.74235 0.0
O166 O 0.63288 0.47824 0.81 0.0
O167 O 0.69706 0.43784 0.7724 0.0
H168 H 0.94112 0.32259 0.54301 0.0
H169 H 0.00212 0.25697 0.59689 0.0
H170 H 0.03314 0.28839 0.50026 0.0
H171 H 0.02705 0.21126 0.51579 0.0
H172 H 0.1137 0.17994 0.56779 0.0
H173 H 0.07538 0.2776 0.58885 0.0
C174 C 0.96313 0.30745 0.54432 0.0
C175 C 0.98631 0.30762 0.51841 0.0
C176 C 0.96875 0.28944 0.57262 0.0
C177 C -0.00215 0.2712 0.57505 0.0
C178 C 0.02086 0.27022 0.54878 0.0
C179 C 0.01521 0.28864 0.52037 0.0
C180 C 0.04915 0.24768 0.5507 0.0
C181 C 0.04739 0.21677 0.53306 0.0
C182 C 0.07022 0.19204 0.53979 0.0
C183 C 0.09565 0.19893 0.56301 0.0
C184 C 0.09792 0.22968 0.58059 0.0
C185 C 0.07461 0.25421 0.5744 0.0
H186 H 0.92509 0.7005 0.99181 0.0
H187 H 0.02467 0.71396 0.02899 0.0
H188 H 0.99307 0.76435 0.94206 0.0
H189 H 0.05335 0.74848 0.93314 0.0
H190 H 0.12489 0.81391 0.9817 0.0
H191 H 0.04198 0.77678 0.03717 0.0
C192 C 0.94907 0.71299 0.99091 0.0
C193 C 0.95602 0.73359 0.96463 0.0
C194 C 0.97385 0.70512 0.01362 0.0
C195 C 0.00532 0.72018 0.01159 0.0
C196 C 0.01214 0.74242 0.98642 0.0
C197 C 0.98765 0.74832 0.96237 0.0
C198 C 0.04468 0.75977 0.98559 0.0
C199 C 0.06259 0.76131 0.95568 0.0
C200 C 0.0923 0.77977 0.95483 0.0
C201 C 0.10342 0.79752 0.98363 0.0
C202 C 0.08527 0.79721 0.01346 0.0
C203 C 0.05646 0.77721 0.01447 0.0
H204 H 0.43984 0.84066 0.03626 0.0
H205 H 0.49717 0.76345 0.07666 0.0
H206 H 0.52423 0.80353 0.9821 0.0
H207 H 0.53564 0.74168 0.97713 0.0
H208 H 0.61327 0.6933 0.02912 0.0
H209 H 0.55671 0.7685 0.08062 0.0
C210 C 0.46073 0.82412 0.03447 0.0
C211 C 0.48081 0.82419 0.00616 0.0
C212 C 0.46645 0.80236 0.05987 0.0
C213 C 0.49327 0.78081 0.05724 0.0
C214 C 0.51489 0.78151 0.02968 0.0
C215 C 0.50819 0.80301 0.00372 0.0
C216 C 0.54392 0.75922 0.02839 0.0
C217 C 0.55097 0.73986 -0.00081 0.0
C218 C 0.57649 0.71646 -0.00076 0.0
C219 C 0.59461 0.71246 0.02854 0.0
C220 C 0.58695 0.73033 0.05805 0.0
C221 C 0.56245 0.75456 0.05769 0.0
H222 H 0.41834 0.19176 0.51315 0.0
H223 H 0.50388 0.2322 0.56616 0.0
H224 H 0.49013 0.24905 0.46138 0.0
H225 H 0.54745 0.24422 0.4649 0.0
H226 H 0.6101 0.32138 0.50856 0.0
H227 H 0.52321 0.28995 0.56102 0.0
C228 C 0.44081 0.20707 0.5138 0.0
C229 C 0.45231 0.22004 0.4843 0.0
C230 C 0.45913 0.21139 0.54346 0.0
C231 C 0.48921 0.22964 0.54349 0.0
C232 C 0.50063 0.24383 0.51399 0.0
C233 C 0.48189 0.23867 0.48441 0.0
C234 C 0.53214 0.26367 0.51366 0.0
C235 C 0.55324 0.26151 0.48563 0.0
C236 C 0.58144 0.28221 0.48368 0.0
C237 C 0.58926 0.30421 0.51063 0.0
C238 C 0.56857 0.30703 0.53864 0.0
C239 C 0.53997 0.28675 0.54006 0.0
H240 H 0.54095 0.90689 0.32014 0.0
H241 H 0.59477 0.9633 0.24891 0.0
H242 H 0.50663 0.00309 0.29613 0.0
H243 H 0.50236 0.01295 0.2319 0.0
H244 H 0.55713 0.09981 0.20532 0.0
H245 H 0.60535 0.02619 0.26136 0.0
C246 C 0.54326 0.92866 0.30533 0.0
C247 C 0.52058 0.95436 0.31017 0.0
C248 C 0.57023 0.93169 0.28357 0.0
C249 C 0.57399 0.96078 0.2658 0.0
C250 C 0.55044 0.98629 0.2694 0.0
C251 C 0.52408 0.98306 0.29209 0.0
C252 C 0.55316 0.01669 0.25011 0.0
C253 C 0.52508 0.02781 0.23291 0.0
C254 C 0.52648 0.05776 0.21652 0.0
C255 C 0.55587 0.07678 0.2181 0.0
C256 C 0.58461 0.06525 0.23319 0.0
C257 C 0.58331 0.03498 0.24914 0.0
H258 H 0.20914 0.44815 0.40862 0.0
H259 H 0.23228 0.49889 0.50223 0.0
H260 H 0.27429 0.40308 0.47774 0.0
H261 H 0.24942 0.40882 0.54307 0.0
H262 H 0.33216 0.4472 0.60149 0.0
H263 H 0.30603 0.49315 0.51098 0.0
C264 C 0.22355 0.4497 0.43153 0.0
C265 C 0.24299 0.42275 0.43999 0.0
C266 C 0.21932 0.47704 0.45377 0.0
C267 C 0.2358 0.47806 0.4846 0.0
C268 C 0.25592 0.45149 0.49306 0.0
C269 C 0.25922 0.42381 0.47088 0.0
C270 C 0.27412 0.45248 0.52483 0.0
C271 C 0.26867 0.4276 0.54777 0.0
C272 C 0.28891 0.42633 0.57613 0.0
C273 C 0.31507 0.44943 0.58078 0.0
C274 C 0.3216 0.47318 0.55717 0.0
C275 C 0.30038 0.47548 0.52982 0.0
H276 H 0.00115 0.13607 0.79278 0.0
H277 H 0.95818 0.07231 0.71506 0.0
H278 H 0.04249 0.04053 0.77155 0.0
H279 H 0.05341 0.0133 0.71817 0.0
H280 H 0.99492 0.92444 0.70476 0.0
H281 H 0.94587 0.01695 0.71777 0.0
C282 C 0.00248 0.11391 0.77644 0.0
C283 C 0.02559 0.08961 0.78342 0.0
C284 C 0.97781 0.1076 0.75213 0.0
C285 C 0.97777 0.07734 0.73323 0.0
C286 C 0.00194 0.05318 0.73913 0.0
C287 C 0.0257 0.0598 0.76439 0.0
C288 C -0.0001 0.019 0.72358 0.0
C289 C 0.02935 0.00079 0.71755 0.0
C290 C 0.02762 0.96645 0.71015 0.0
C291 C -0.00348 0.95082 0.70984 0.0
C292 C 0.96755 0.96918 0.70849 0.0
C293 C 0.96883 0.00328 0.71656 0.0
H294 H 0.33436 0.52264 0.92378 0.0
H295 H 0.30839 0.48758 0.0195 0.0
H296 H 0.2528 0.56665 0.97847 0.0
H297 H 0.27969 0.57216 0.05452 0.0
H298 H 0.2022 0.52624 0.11061 0.0
H299 H 0.2274 0.48506 0.01381 0.0
C300 C 0.31805 0.52366 0.94517 0.0
C301 C 0.29267 0.54727 0.94745 0.0
C302 C 0.3238 0.50226 0.97101 0.0
C303 C 0.3039 0.50405 -0.00058 0.0
C304 C 0.27825 0.52718 0.00199 0.0
C305 C 0.27278 0.54894 0.97624 0.0
C306 C 0.25681 0.52778 0.03149 0.0
C307 C 0.26141 0.55241 0.05714 0.0
C308 C 0.24219 0.55134 0.08616 0.0
C309 C 0.21834 0.52603 0.08896 0.0
C310 C 0.21249 0.5025 0.06294 0.0
C311 C 0.2319 0.50321 0.03415 0.0
H312 H 0.69077 0.9836 0.92408 0.0
H313 H 0.72351 0.00519 0.02444 0.0
H314 H 0.7655 0.92325 0.96661 0.0
H315 H 0.75502 0.90675 0.02984 0.0
H316 H 0.83103 0.94168 0.09877 0.0
H317 H 0.79287 0.00745 0.02732 0.0
C318 C 0.7081 0.9792 0.94414 0.0
C319 C 0.72915 0.95189 0.94132 0.0
C320 C 0.70544 -0.00204 0.97412 0.0
C321 C 0.72601 0.99108 0.00095 0.0
C322 C 0.74858 0.96478 -0.00204 0.0
C323 C 0.74944 0.94462 0.96841 0.0
C324 C 0.7707 0.95816 0.02606 0.0
C325 C 0.77113 0.92664 0.03979 0.0
C326 C 0.79276 0.9209 0.06624 0.0
C327 C 0.81365 0.94654 0.07891 0.0
C328 C 0.81388 0.97767 0.06495 0.0
C329 C 0.79227 0.98352 0.0386 0.0
H330 H 0.49246 0.59527 0.32883 0.0
H331 H 0.44489 0.51831 0.26772 0.0
H332 H 0.53514 0.49873 0.32176 0.0
H333 H 0.54192 0.48473 0.2547 0.0
H334 H 0.50308 0.38855 0.22435 0.0
H335 H 0.4448 0.45396 0.28751 0.0
C336 C 0.49234 0.57028 0.31795 0.0
C337 C 0.51674 0.54839 0.32741 0.0
C338 C 0.46597 0.55965 0.29721 0.0
C339 C 0.46498 0.52668 0.28423 0.0
C340 C 0.49087 0.50498 0.29198 0.0
C341 C 0.51612 0.51576 0.31438 0.0
C342 C 0.49385 0.4721 0.27482 0.0
C343 C 0.52288 0.46553 0.25653 0.0
C344 C 0.52619 0.43562 0.23801 0.0
C345 C 0.50122 0.41116 0.23987 0.0
C346 C 0.4716 0.4175 0.25733 0.0
C347 C 0.46786 0.44834 0.27467 0.0
H348 H 0.82655 0.03736 0.41225 0.0
H349 H 0.80797 -0.00109 0.50855 0.0
H350 H 0.74269 0.07156 0.46972 0.0
H351 H 0.76421 0.08669 0.53605 0.0
H352 H 0.69636 0.03754 0.60044 0.0
H353 H 0.73647 0.98403 0.51502 0.0
C354 C 0.81089 0.03592 0.43409 0.0
C355 C 0.78301 0.05637 0.43741 0.0
C356 C 0.82011 0.01521 0.45958 0.0
C357 C 0.8009 0.01459 0.48856 0.0
C358 C 0.77305 0.03493 0.49215 0.0
C359 C 0.76427 0.05589 0.46673 0.0
C360 C 0.75342 0.03499 0.52284 0.0
C361 C 0.75096 0.06437 0.54281 0.0
C362 C 0.73043 0.06517 0.57082 0.0
C363 C 0.71295 0.0365 0.57916 0.0
C364 C 0.71513 0.00711 0.55932 0.0
C365 C 0.73546 0.00637 0.53107 0.0
H366 H 0.03612 0.41166 0.83306 0.0
H367 H 0.07974 0.47342 0.76 0.0
H368 H -0.00386 0.50785 0.81877 0.0
H369 H 0.98987 0.50645 0.7439 0.0
H370 H 0.02996 0.59789 0.70957 0.0
H371 H 0.08371 0.54507 0.78254 0.0
C372 C 0.03654 0.43453 0.81996 0.0
C373 C 0.01347 0.45893 0.82877 0.0
C374 C 0.06063 0.43931 0.79544 0.0
C375 C 0.0617 0.46957 0.77951 0.0
C376 C 0.03814 0.49418 0.78753 0.0
C377 C 0.01428 0.48895 0.81251 0.0
C378 C 0.03598 0.52361 0.76721 0.0
C379 C 0.00864 0.52607 0.74563 0.0
C380 C 0.00643 0.55292 0.72499 0.0
C381 C 0.03111 0.57776 0.72659 0.0
C382 C 0.05909 0.57519 0.74703 0.0
C383 C 0.06179 0.54773 0.76719 0.0
H384 H 0.02361 0.33703 0.10035 0.0
H385 H 0.01942 0.37031 0.05091 0.0
H386 H 0.92509 0.32355 0.02598 0.0
H387 H 0.92812 0.29138 0.07582 0.0
H388 H 0.00869 0.33973 0.98099 0.0
H389 H 0.88688 0.36904 0.01352 0.0
H390 H 0.8541 0.37725 0.06506 0.0
H391 H 0.92542 0.44999 0.10241 0.0
H392 H 0.95955 0.44089 0.05189 0.0
H393 H 0.96941 0.40759 0.83182 0.0
H394 H 0.95119 0.38298 0.88327 0.0
H395 H 0.98881 0.4689 0.94009 0.0
H396 H 0.00775 0.49336 0.88849 0.0
H397 H 0.93143 0.43374 0.97022 0.0
H398 H 0.03834 0.41604 0.91789 0.0
H399 H 0.07953 0.39786 0.87648 0.0
H400 H 0.0428 0.29757 0.87968 0.0
H401 H 0.00122 0.3151 0.92131 0.0
C402 C 0.00162 0.33445 0.08475 0.0
C403 C 0.97601 0.31188 0.09218 0.0
C404 C -0.00061 0.35332 0.05649 0.0
C405 C 0.97177 0.34974 0.03517 0.0
C406 C 0.94617 0.32737 0.04262 0.0
C407 C 0.94801 0.30898 0.07113 0.0
C408 C 0.97019 0.36859 0.00449 0.0
C409 C 0.99152 0.35994 0.97821 0.0
C410 C 0.94809 0.3951 0.00142 0.0
C411 C 0.92557 0.40438 0.02909 0.0
C412 C 0.89544 0.38689 0.03276 0.0
C413 C 0.87699 0.39125 0.06202 0.0
C414 C 0.88793 0.41388 0.08723 0.0
C415 C 0.91727 0.43222 0.08312 0.0
C416 C 0.93625 0.42737 0.05426 0.0
C417 C 0.97226 0.42196 0.85515 0.0
C418 C 0.99035 0.45214 0.85635 0.0
C419 C 0.96193 0.40783 0.88452 0.0
C420 C 0.96935 0.42382 0.91543 0.0
C421 C 0.98298 0.45617 0.9164 0.0
C422 C 0.99366 0.47022 0.88692 0.0
C423 C 0.96953 0.40436 0.94581 0.0
C424 C 0.94816 0.41308 0.97232 0.0
C425 C 0.99153 0.37734 0.94876 0.0
C426 C 0.01572 0.36716 0.92229 0.0
C427 C 0.03834 0.39023 0.90936 0.0
C428 C 0.06224 0.37989 0.88612 0.0
C429 C 0.06388 0.3465 0.87544 0.0
C430 C 0.04152 0.32341 0.88793 0.0
C431 C 0.01775 0.33357 0.9114 0.0
H432 H 0.08266 0.33842 0.85779 0.0
H433 H 0.87348 0.41751 0.10976 0.0
H434 H 0.91374 0.73067 0.27986 0.0
H435 H 0.88022 0.74064 0.23037 0.0
H436 H 0.86558 0.84184 0.26643 0.0
H437 H 0.90028 0.83246 0.31496 0.0
H438 H 0.82058 0.76409 0.2086 0.0
H439 H 0.88805 0.8927 0.20844 0.0
H440 H 0.93967 0.91873 0.23135 0.0
H441 H 0.98571 0.82329 0.23143 0.0
H442 H 0.93461 0.79678 0.20799 0.0
H443 H 0.75399 0.89352 0.11329 0.0
H444 H 0.77217 0.85085 0.15068 0.0
H445 H 0.85929 0.83428 0.09008 0.0
H446 H 0.84102 0.87676 0.05273 0.0
H447 H 0.87383 0.8583 0.15254 0.0
H448 H 0.81041 0.77357 0.10075 0.0
H449 H 0.76052 0.74732 0.07487 0.0
H450 H 0.71324 0.74606 0.17054 0.0
H451 H 0.76208 0.77361 0.19676 0.0
C452 C 0.90239 0.75469 0.27774 0.0
C453 C 0.91002 0.78103 0.30079 0.0
C454 C 0.88324 0.76033 0.24947 0.0
C455 C 0.87128 0.79221 0.24436 0.0
C456 C 0.87528 0.81724 0.26962 0.0
C457 C 0.89501 0.81187 0.29736 0.0
C458 C 0.85972 0.80112 0.21096 0.0
C459 C 0.832 0.78469 0.19621 0.0
C460 C 0.876 0.82674 0.19404 0.0
C461 C 0.90737 0.84273 0.20673 0.0
C462 C 0.90928 0.87731 0.21309 0.0
C463 C 0.93842 0.89214 0.22624 0.0
C464 C 0.96588 0.87265 0.233 0.0
C465 C 0.96438 0.83834 0.22631 0.0
C466 C 0.93534 0.8234 0.21309 0.0
C467 C 0.77602 0.8794 0.10707 0.0
C468 C 0.79609 0.88804 0.08022 0.0
C469 C 0.78648 0.85516 0.12845 0.0
C470 C 0.81721 0.83964 0.12324 0.0
C471 C 0.83551 0.84597 0.09447 0.0
C472 C 0.82499 0.87002 0.07307 0.0
C473 C 0.83323 0.82271 0.15088 0.0
C474 C 0.86224 0.83752 0.16455 0.0
C475 C 0.81863 0.79501 0.166 0.0
C476 C 0.78966 0.77676 0.15064 0.0
C477 C 0.78916 0.76828 0.11624 0.0
C478 C 0.76101 0.75314 0.10144 0.0
C479 C 0.73339 0.7458 0.12085 0.0
C480 C 0.7343 0.75243 0.15529 0.0
C481 C 0.76224 0.76789 0.17016 0.0
H482 H 0.71136 0.73495 0.10908 0.0
H483 H 0.98835 0.88412 0.24335 0.0
H484 H 0.55208 0.7158 0.60006 0.0
H485 H 0.5812 0.68634 0.55427 0.0
H486 H 0.49063 0.68269 0.49629 0.0
H487 H 0.46139 0.71176 0.54183 0.0
H488 H 0.56759 0.62375 0.52494 0.0
H489 H 0.50717 0.69611 0.41846 0.0
H490 H 0.49527 0.75329 0.40352 0.0
H491 H 0.56679 0.79084 0.47573 0.0
H492 H 0.58054 0.73367 0.48973 0.0
H493 H 0.50828 0.53278 0.39061 0.0
H494 H 0.52807 0.56549 0.4389 0.0
H495 H 0.59313 0.62163 0.3762 0.0
H496 H 0.57066 0.59027 0.32707 0.0
H497 H 0.55926 0.66196 0.4097 0.0
H498 H 0.62189 0.57321 0.44189 0.0
H499 H 0.6295 0.51283 0.44371 0.0
H500 H 0.55563 0.5076 0.52002 0.0
H501 H 0.54523 0.56742 0.51687 0.0
C502 C 0.53841 0.70871 0.5775 0.0
C503 C 0.50443 0.71603 0.57447 0.0
C504 C 0.55511 0.69197 0.55143 0.0
C505 C 0.53819 0.68284 0.52181 0.0
C506 C 0.50427 0.69005 0.51881 0.0
C507 C 0.48752 0.70643 0.54491 0.0
C508 C 0.55494 0.66424 0.49427 0.0
C509 C 0.56633 0.63213 0.49971 0.0
C510 C 0.55452 0.67582 0.46161 0.0
C511 C 0.54534 0.71044 0.45462 0.0
C512 C 0.52094 0.71648 0.43057 0.0
C513 C 0.51395 0.74892 0.42221 0.0
C514 C 0.53083 0.77569 0.4382 0.0
C515 C 0.55424 0.77004 0.46296 0.0
C516 C 0.56168 0.73758 0.47107 0.0
C517 C 0.52796 0.55102 0.38738 0.0
C518 C 0.53838 0.55886 0.35547 0.0
C519 C 0.53945 0.56976 0.41506 0.0
C520 C 0.56262 0.59586 0.41147 0.0
C521 C 0.57545 0.60155 0.37966 0.0
C522 C 0.56299 0.58344 0.3517 0.0
C523 C 0.56832 0.6202 0.43989 0.0
C524 C 0.56158 0.65364 0.43483 0.0
C525 C 0.57322 0.60983 0.47276 0.0
C526 C 0.58249 0.57497 0.47875 0.0
C527 C 0.60706 0.55922 0.459 0.0
C528 C 0.61142 0.52496 0.45983 0.0
C529 C 0.59205 0.50628 0.48105 0.0
C530 C 0.56942 0.52199 0.5026 0.0
C531 C 0.5643 0.55613 0.5013 0.0
H532 H 0.5949 0.47968 0.48107 0.0
H533 H 0.52527 0.80084 0.43189 0.0
H534 H 0.5806 0.18796 0.79878 0.0
H535 H 0.61939 0.16369 0.75812 0.0
H536 H 0.66941 0.25866 0.75173 0.0
H537 H 0.63038 0.28329 0.79179 0.0
H538 H 0.6532 0.23363 0.6919 0.0
H539 H 0.70759 0.19369 0.78808 0.0
H540 H 0.7127 0.1656 0.84091 0.0
H541 H 0.67782 0.07411 0.79308 0.0
H542 H 0.67257 0.10163 0.73981 0.0
H543 H 0.77481 0.09983 0.61081 0.0
H544 H 0.76128 0.14385 0.65288 0.0
H545 H 0.65967 0.1424 0.61794 0.0
H546 H 0.67315 0.09879 0.57606 0.0
H547 H 0.71468 0.12877 0.70109 0.0
H548 H 0.62633 0.21966 0.63577 0.0
H549 H 0.62296 0.24896 0.58334 0.0
H550 H 0.72859 0.24088 0.5707 0.0
H551 H 0.73273 0.21205 0.62328 0.0
C552 C 0.60012 0.20357 0.78907 0.0
C553 C 0.6022 0.2376 0.79821 0.0
C554 C 0.62241 0.18963 0.766 0.0
C555 C 0.64735 0.2094 0.75208 0.0
C556 C 0.65027 0.24305 0.76215 0.0
C557 C 0.6279 0.25705 0.78501 0.0
C558 C 0.66821 0.19569 0.72469 0.0
C559 C 0.66697 0.21087 0.69394 0.0
C560 C 0.68664 0.16639 0.72769 0.0
C561 C 0.68971 0.1498 0.75982 0.0
C562 C 0.70098 0.16761 0.78872 0.0
C563 C 0.70394 0.15176 0.81879 0.0
C564 C 0.6956 0.11809 0.82036 0.0
C565 C 0.68436 0.10018 0.79182 0.0
C566 C 0.68152 0.11587 0.76164 0.0
C567 C 0.74994 0.10983 0.61157 0.0
C568 C 0.72489 0.09614 0.59059 0.0
C569 C 0.74221 0.13469 0.6356 0.0
C570 C 0.70948 0.14616 0.63853 0.0
C571 C 0.68513 0.13414 0.61582 0.0
C572 C 0.69277 0.10921 0.59207 0.0
C573 C 0.69913 0.16631 0.66818 0.0
C574 C 0.70187 0.15209 0.69929 0.0
C575 C 0.68209 0.19648 0.6655 0.0
C576 C 0.67979 0.21341 0.63347 0.0
C577 C 0.64888 0.22421 0.62189 0.0
C578 C 0.64682 0.24074 0.59211 0.0
C579 C 0.67552 0.24669 0.57366 0.0
C580 C 0.70635 0.23614 0.58495 0.0
C581 C 0.70855 0.21963 0.61473 0.0
H582 H 0.67388 0.25953 0.55064 0.0
H583 H 0.69783 0.10589 0.84369 0.0
H584 H 0.93112 0.69413 0.47067 0.0
H585 H 0.92955 0.6623 0.52118 0.0
H586 H 0.0147 0.60715 0.48694 0.0
H587 H 0.01781 0.64 0.43727 0.0
H588 H 0.94328 0.5741 0.51835 0.0
H589 H 0.04279 0.63728 0.53039 0.0
H590 H 0.08456 0.68231 0.53396 0.0
H591 H 0.03165 0.72885 0.61541 0.0
H592 H 0.98744 0.68585 0.60988 0.0
H593 H 0.00415 0.50969 0.67178 0.0
H594 H 0.9867 0.52454 0.61633 0.0
H595 H 0.9398 0.61224 0.65878 0.0
H596 H 0.9585 0.59798 0.7142 0.0
H597 H 0.9937 0.62548 0.62138 0.0
H598 H 0.89006 0.55816 0.59922 0.0
H599 H 0.8593 0.50468 0.60002 0.0
H600 H 0.93851 0.45623 0.54627 0.0
H601 H 0.96952 0.5096 0.5449 0.0
C602 C 0.94938 0.67502 0.47376 0.0
C603 C 0.97465 0.66959 0.45008 0.0
C604 C 0.94854 0.65702 0.50266 0.0
C605 C 0.97246 0.63288 0.50794 0.0
C606 C -0.00348 0.62614 0.48352 0.0
C607 C -0.00187 0.64483 0.45514 0.0
C608 C 0.97241 0.61536 0.5394 0.0
C609 C 0.95451 0.58522 0.54086 0.0
C610 C 0.98744 0.62974 0.56865 0.0
C611 C 0.01088 0.65874 0.56857 0.0
C612 C 0.03886 0.65802 0.54765 0.0
C613 C 0.0631 0.68324 0.55017 0.0
C614 C 0.06028 0.70897 0.57437 0.0
C615 C 0.03306 0.70962 0.59586 0.0
C616 C 0.00821 0.68498 0.59276 0.0
C617 C 0.98835 0.53102 0.66944 0.0
C618 C 0.98278 0.55289 0.69699 0.0
C619 C 0.97836 0.53953 0.63767 0.0
C620 C 0.96219 0.56967 0.63338 0.0
C621 C 0.95233 0.58891 0.66159 0.0
C622 C 0.96278 0.58068 0.69325 0.0
C623 C 0.96355 0.5851 0.60068 0.0
C624 C 0.98202 0.61474 0.59893 0.0
C625 C 0.95041 0.56965 0.57121 0.0
C626 C 0.93189 0.53775 0.57179 0.0
C627 C 0.90084 0.53606 0.58759 0.0
C628 C 0.88337 0.50583 0.58809 0.0
C629 C 0.89689 0.47712 0.57312 0.0
C630 C 0.92807 0.4785 0.55785 0.0
C631 C 0.94551 0.50876 0.55703 0.0
H632 H 0.8832 0.45381 0.57333 0.0
H633 H 0.07947 0.72807 0.57686 0.0
H634 H 0.5256 0.77879 0.78113 0.0
H635 H 0.56632 0.80919 0.81651 0.0
H636 H 0.57808 0.88218 0.74202 0.0
H637 H 0.53657 0.85215 0.70663 0.0
H638 H 0.63864 0.85109 0.76283 0.0
H639 H 0.5466 0.90863 0.80808 0.0
H640 H 0.49116 0.91745 0.8324 0.0
H641 H 0.51922 0.86435 0.91809 0.0
H642 H 0.5747 0.85441 0.89385 0.0
H643 H 0.73275 0.96412 0.87525 0.0
H644 H 0.70063 0.93366 0.83161 0.0
H645 H 0.67805 0.85704 0.89991 0.0
H646 H 0.71023 0.88734 0.94349 0.0
H647 H 0.62306 0.89411 0.87926 0.0
H648 H 0.71609 0.83599 0.8313 0.0
H649 H 0.77133 0.82932 0.80559 0.0
H650 H 0.74122 0.88749 0.72417 0.0
H651 H 0.68593 0.89501 0.74966 0.0
C652 C 0.5363 0.80172 0.77262 0.0
C653 C 0.52806 0.81309 0.74116 0.0
C654 C 0.55951 0.81905 0.79283 0.0
C655 C 0.57525 0.84775 0.78173 0.0
C656 C 0.56615 0.85999 0.7509 0.0
C657 C 0.54233 0.84299 0.73089 0.0
C658 C 0.60306 0.86299 0.80139 0.0
C659 C 0.63529 0.86112 0.7881 0.0
C660 C 0.59848 0.87536 0.8345 0.0
C661 C 0.56479 0.88044 0.84891 0.0
C662 C 0.54086 0.89839 0.83188 0.0
C663 C 0.50943 0.90373 0.84575 0.0
C664 C 0.50165 0.89153 0.87682 0.0
C665 C 0.52528 0.87382 0.89403 0.0
C666 C 0.55673 0.86829 0.88021 0.0
C667 C 0.72246 0.93987 0.8803 0.0
C668 C 0.7237 0.92811 0.9127 0.0
C669 C 0.704 0.92257 0.85543 0.0
C670 C 0.68662 0.8934 0.86278 0.0
C671 C 0.69125 0.87961 0.89388 0.0
C672 C 0.70993 0.89675 0.91865 0.0
C673 C 0.65882 0.88135 0.84107 0.0
C674 C 0.62648 0.88409 0.85398 0.0
C675 C 0.66336 0.87018 0.80756 0.0
C676 C 0.69694 0.86643 0.79265 0.0
C677 C 0.72136 0.84778 0.80816 0.0
C678 C 0.75267 0.84373 0.79355 0.0
C679 C 0.75982 0.85806 0.76332 0.0
C680 C 0.73567 0.87648 0.74763 0.0
C681 C 0.70434 0.88062 0.76215 0.0
H682 H 0.78402 0.85479 0.75199 0.0
H683 H 0.47734 0.89585 0.88758 0.0
H684 H 0.56131 0.28144 0.97063 0.0
H685 H 0.57162 0.30792 0.02547 0.0
H686 H 0.49419 0.37835 0.00737 0.0
H687 H 0.48182 0.34952 0.95398 0.0
H688 H 0.59538 0.35858 0.04538 0.0
H689 H 0.46439 0.41854 0.07172 0.0
H690 H 0.40494 0.40246 0.06969 0.0
H691 H 0.43075 0.29945 0.06882 0.0
H692 H 0.49031 0.31489 0.07126 0.0
H693 H 0.53468 0.48014 0.19056 0.0
H694 H 0.54921 0.46519 0.13333 0.0
H695 H 0.58414 0.37047 0.16316 0.0
H696 H 0.56809 0.38469 0.22066 0.0
H697 H 0.50837 0.40895 0.11745 0.0
H698 H 0.63221 0.34004 0.09788 0.0
H699 H 0.69186 0.34871 0.11069 0.0
H700 H 0.67947 0.45435 0.11175 0.0
H701 H 0.61968 0.44629 0.09954 0.0
C702 C 0.54622 0.30232 0.97878 0.0
C703 C 0.52084 0.31362 0.95837 0.0
C704 C 0.55219 0.31757 0.01007 0.0
C705 C 0.53363 0.34518 0.02106 0.0
C706 C 0.50816 0.35641 0.00037 0.0
C707 C 0.5013 0.34025 0.9696 0.0
C708 C 0.5423 0.36344 0.05301 0.0
C709 C 0.57612 0.3687 0.0615 0.0
C710 C 0.51761 0.37736 0.07421 0.0
C711 C 0.48185 0.3679 0.07119 0.0
C712 C 0.45738 0.39245 0.07101 0.0
C713 C 0.42366 0.38345 0.06985 0.0
C714 C 0.41409 0.34996 0.06904 0.0
C715 C 0.43821 0.32538 0.06927 0.0
C716 C 0.47196 0.33424 0.07042 0.0
C717 C 0.54746 0.45699 0.18543 0.0
C718 C 0.54968 0.43323 0.20984 0.0
C719 C 0.55599 0.44861 0.15259 0.0
C720 C 0.56771 0.41682 0.14405 0.0
C721 C 0.57534 0.39527 0.16936 0.0
C722 C 0.56608 0.40333 0.2022 0.0
C723 C 0.56088 0.4024 0.11033 0.0
C724 C 0.52734 0.39811 0.10139 0.0
C725 C 0.58565 0.38766 0.09018 0.0
C726 C 0.62146 0.39258 0.098 0.0
C727 C 0.64223 0.36511 0.10085 0.0
C728 C 0.67606 0.3699 0.10802 0.0
C729 C 0.68949 0.40203 0.1119 0.0
C730 C 0.66905 0.42946 0.10884 0.0
C731 C 0.63515 0.42481 0.10202 0.0
H732 H 0.71572 0.40565 0.1173 0.0
H733 H 0.38797 0.34309 0.0683 0.0
H734 H 0.88668 0.24446 0.22481 0.0
H735 H 0.83632 0.23802 0.2582 0.0
H736 H 0.8442 0.13145 0.2469 0.0
H737 H 0.89411 0.13762 0.21355 0.0
H738 H 0.77836 0.15085 0.24927 0.0
H739 H 0.8852 0.1775 0.31259 0.0
H740 H 0.93123 0.21659 0.32793 0.0
H741 H 0.8608 0.29239 0.3543 0.0
H742 H 0.81442 0.25377 0.33875 0.0
H743 H 0.78363 0.04309 0.37047 0.0
H744 H 0.78257 0.08276 0.32713 0.0
H745 H 0.76233 0.16162 0.40047 0.0
H746 H 0.76544 0.12184 0.44444 0.0
H747 H 0.8095 0.18063 0.3665 0.0
H748 H 0.70512 0.14313 0.32901 0.0
H749 H 0.66008 0.10173 0.31907 0.0
H750 H 0.71974 0.04978 0.24581 0.0
H751 H 0.76511 0.09097 0.25509 0.0
C752 C 0.87721 0.21967 0.22881 0.0
C753 C 0.89478 0.19151 0.21718 0.0
C754 C 0.84833 0.21606 0.24778 0.0
C755 C 0.83666 0.18427 0.2553 0.0
C756 C 0.85267 0.15625 0.24136 0.0
C757 C 0.88148 0.1598 0.22259 0.0
C758 C 0.81182 0.17926 0.28183 0.0
C759 C 0.78453 0.15786 0.27496 0.0
C760 C 0.8187 0.18984 0.31523 0.0
C761 C 0.8465 0.21296 0.32429 0.0
C762 C 0.87963 0.20257 0.32154 0.0
C763 C 0.90574 0.22461 0.33025 0.0
C764 C 0.89894 0.25698 0.34202 0.0
C765 C 0.86602 0.26735 0.34512 0.0
C766 C 0.83983 0.24541 0.33635 0.0
C767 C 0.77836 0.06879 0.37733 0.0
C768 C 0.77512 0.07941 0.41088 0.0
C769 C 0.77701 0.09151 0.35235 0.0
C770 C 0.77151 0.12535 0.36014 0.0
C771 C 0.76608 0.13567 0.39358 0.0
C772 C 0.76779 0.11287 0.41874 0.0
C773 C 0.77771 0.1498 0.33413 0.0
C774 C 0.80147 0.17507 0.34102 0.0
C775 C 0.76679 0.14354 0.30085 0.0
C776 C 0.73862 0.12019 0.29288 0.0
C777 C 0.70861 0.12301 0.31065 0.0
C778 C 0.68302 0.09953 0.30517 0.0
C779 C 0.68721 0.07296 0.28211 0.0
C780 C 0.71664 0.07029 0.26383 0.0
C781 C 0.74218 0.09391 0.26894 0.0
H782 H 0.66758 0.05449 0.27833 0.0
H783 H 0.91918 0.274 0.34879 0.0
H784 H 0.05499 0.01591 0.30263 0.0
H785 H 0.00837 0.00175 0.33846 0.0
H786 H 0.07445 0.94794 0.40065 0.0
H787 H 0.12115 0.9607 0.36328 0.0
H788 H 0.00474 0.92025 0.39191 0.0
H789 H 0.06548 0.0223 0.41738 0.0
H790 H 0.09087 0.07424 0.39888 0.0
H791 H 0.99435 0.11114 0.37595 0.0
H792 H 0.96846 0.0585 0.39181 0.0
H793 H 0.87097 0.0155 0.50456 0.0
H794 H 0.92786 -0.00307 0.49375 0.0
H795 H 0.89754 0.95725 0.39666 0.0
H796 H 0.84072 0.97532 0.40748 0.0
H797 H 0.96009 0.02547 0.44141 0.0
H798 H 0.95144 0.89504 0.37141 0.0
H799 H 0.91922 0.84302 0.37605 0.0
H800 H 0.90288 0.86622 0.48001 0.0
H801 H 0.93586 0.9179 0.4764 0.0
C802 C 0.05932 0.00047 0.32354 0.0
C803 C 0.09137 0.98973 0.33074 0.0
C804 C 0.03277 0.99219 0.34379 0.0
C805 C 0.03812 0.97417 0.37235 0.0
C806 C 0.06988 0.96174 0.37862 0.0
C807 C 0.09647 0.96934 0.35764 0.0
C808 C 0.01158 0.97326 0.39767 0.0
C809 C 0.9951 0.94308 0.4032 0.0
C810 C -0.00044 0.00325 0.41265 0.0
C811 C 0.01497 0.03614 0.40578 0.0
C812 C 0.04961 0.04132 0.4082 0.0
C813 C 0.06414 0.07081 0.39786 0.0
C814 C 0.04425 0.09599 0.38637 0.0
C815 C 0.00976 0.09162 0.38492 0.0
C816 C 0.99515 0.06182 0.39435 0.0
C817 C 0.87624 0.00167 0.48147 0.0
C818 C 0.85168 -0.00294 0.45667 0.0
C819 C 0.90872 0.99127 0.47528 0.0
C820 C 0.91688 0.97587 0.44442 0.0
C821 C 0.89169 0.96876 0.4208 0.0
C822 C 0.85933 0.97928 0.42687 0.0
C823 C 0.952 0.97275 0.43413 0.0
C824 C 0.97028 0.00236 0.43134 0.0
C825 C 0.9649 0.94249 0.42085 0.0
C826 C 0.94611 0.91062 0.42355 0.0
C827 C 0.94133 0.88897 0.39538 0.0
C828 C 0.92283 0.85952 0.39781 0.0
C829 C 0.90888 0.8514 0.42824 0.0
C830 C 0.9135 0.87265 0.45639 0.0
C831 C 0.93213 0.90204 0.45416 0.0
H832 H 0.89458 0.82859 0.43004 0.0
H833 H 0.05557 0.11892 0.37866 0.0
H834 H 0.17953 0.78231 0.55582 0.0
H835 H 0.15028 0.7441 0.59178 0.0
H836 H 0.23667 0.7423 0.65567 0.0
H837 H 0.26558 0.78103 0.62042 0.0
H838 H 0.15971 0.68354 0.6081 0.0
H839 H 0.21343 0.73567 0.73626 0.0
H840 H 0.23545 0.78973 0.75844 0.0
H841 H 0.17495 0.84016 0.68914 0.0
H842 H 0.15232 0.7865 0.6668 0.0
H843 H 0.12054 0.56356 0.7214 0.0
H844 H 0.15619 0.60497 0.6954 0.0
H845 H 0.09288 0.68305 0.73413 0.0
H846 H 0.05747 0.64176 0.76014 0.0
H847 H 0.15538 0.7055 0.73056 0.0
H848 H 0.077 0.64819 0.66051 0.0
H849 H 0.04746 0.60062 0.6326 0.0
H850 H 0.13701 0.57225 0.58156 0.0
H851 H 0.16756 0.61885 0.6103 0.0
C852 C 0.19225 0.77377 0.57757 0.0
C853 C 0.22482 0.78481 0.58538 0.0
C854 C 0.17555 0.75184 0.59804 0.0
C855 C 0.19112 0.74049 0.62665 0.0
C856 C 0.22386 0.75108 0.63409 0.0
C857 C 0.24043 0.7732 0.61385 0.0
C858 C 0.1732 0.71769 0.64884 0.0
C859 C 0.15885 0.68831 0.63487 0.0
C860 C 0.17076 0.72456 0.68367 0.0
C861 C 0.18195 0.75696 0.6992 0.0
C862 C 0.20477 0.75826 0.7258 0.0
C863 C 0.21737 0.78885 0.73839 0.0
C864 C 0.20708 0.81826 0.72471 0.0
C865 C 0.18329 0.8173 0.69931 0.0
C866 C 0.17059 0.78682 0.68669 0.0
C867 C 0.11526 0.58969 0.72567 0.0
C868 C 0.08643 0.59958 0.74284 0.0
C869 C 0.13532 0.61328 0.71045 0.0
C870 C 0.12669 0.647 0.71216 0.0
C871 C 0.09992 0.65719 0.73232 0.0
C872 C 0.07983 0.63363 0.74737 0.0
C873 C 0.14272 0.67094 0.68992 0.0
C874 C 0.15645 0.70067 0.70384 0.0
C875 C 0.14281 0.6653 0.65481 0.0
C876 C 0.12474 0.63674 0.63802 0.0
C877 C 0.09057 0.63154 0.64374 0.0
C878 C 0.07359 0.60481 0.62768 0.0
C879 C 0.09032 0.58347 0.6053 0.0
C880 C 0.12411 0.58874 0.59901 0.0
C881 C 0.14131 0.61523 0.61529 0.0
H882 H 0.07708 0.56287 0.59282 0.0
H883 H 0.21755 0.84183 0.73371 0.0
H884 H 0.45644 0.0457 0.80325 0.0
H885 H 0.50355 0.06069 0.8399 0.0
H886 H 0.48884 0.97027 0.89156 0.0
H887 H 0.44138 0.95523 0.85547 0.0
H888 H 0.49871 0.02404 0.93444 0.0
H889 H 0.55011 0.97403 0.83775 0.0
H890 H 0.56621 0.96493 0.77886 0.0
H891 H 0.60612 0.06434 0.77814 0.0
H892 H 0.59007 0.07406 0.83701 0.0
H893 H 0.64903 0.98026 0.00397 0.0
H894 H 0.59477 0.99521 0.98379 0.0
H895 H 0.63934 0.07616 0.93187 0.0
H896 H 0.69434 0.05885 0.94988 0.0
H897 H 0.61214 0.0383 0.8897 0.0
H898 H 0.57326 0.08085 0.99386 0.0
H899 H 0.56117 0.08433 0.05381 0.0
H900 H 0.49726 -0.00176 0.04283 0.0
H901 H 0.5097 0.99343 0.98293 0.0
C902 C 0.46304 0.02909 0.82258 0.0
C903 C 0.44508 -0.00073 0.8265 0.0
C904 C 0.49009 0.03763 0.84334 0.0
C905 C 0.49963 0.01654 0.86838 0.0
C906 C 0.48161 0.98697 0.87254 0.0
C907 C 0.45464 0.97835 0.85177 0.0
C908 C 0.52845 0.02509 0.89033 0.0
C909 C 0.52347 0.02762 0.92486 0.0
C910 C 0.56072 0.02998 0.87756 0.0
C911 C 0.56843 0.02493 0.84162 0.0
C912 C 0.56185 0.9941 0.82488 0.0
C913 C 0.57119 0.98875 0.7916 0.0
C914 C 0.58722 0.01403 0.77481 0.0
C915 C 0.59372 0.04479 0.79119 0.0
C916 C 0.58451 0.05022 0.82451 0.0
C917 C 0.64699 0.00248 0.98993 0.0
C918 C 0.67565 0.01835 0.97828 0.0
C919 C 0.61578 0.0111 0.97824 0.0
C920 C 0.61272 0.0367 0.95584 0.0
C921 C 0.64104 0.05604 0.94874 0.0
C922 C 0.67245 0.04658 0.95947 0.0
C923 C 0.58248 0.03796 0.9345 0.0
C924 C 0.58716 0.03671 0.89974 0.0
C925 C 0.54986 0.03426 0.94725 0.0
C926 C 0.54256 0.03678 0.98361 0.0
C927 C 0.55697 0.06234 0.00418 0.0
C928 C 0.54999 0.06457 0.03824 0.0
C929 C 0.52847 0.0415 0.05212 0.0
C930 C 0.51389 0.01613 0.032 0.0
C931 C 0.5209 0.01365 -0.00205 0.0
H932 H 0.52312 0.04318 0.07846 0.0
H933 H 0.59461 0.00979 0.7491 0.0
H934 H 0.27617 0.20208 0.10732 0.0
H935 H 0.30581 0.23533 0.15034 0.0
H936 H 0.35305 0.2922 0.07469 0.0
H937 H 0.32477 0.25745 0.03129 0.0
H938 H 0.39593 0.28157 0.11967 0.0
H939 H 0.28318 0.32483 0.12668 0.0
H940 H 0.22219 0.31888 0.1318 0.0
H941 H 0.23433 0.2692 0.22327 0.0
H942 H 0.29537 0.27481 0.21857 0.0
H943 H 0.40934 0.43179 0.23599 0.0
H944 H 0.371 0.39261 0.20698 0.0
H945 H 0.43221 0.3111 0.23414 0.0
H946 H 0.47072 0.35026 0.26314 0.0
H947 H 0.33419 0.33449 0.21434 0.0
H948 H 0.44637 0.26454 0.15489 0.0
H949 H 0.50707 0.27207 0.14968 0.0
H950 H 0.49666 0.37767 0.16215 0.0
H951 H 0.43587 0.37113 0.16383 0.0
C952 C 0.29284 0.22173 0.09984 0.0
C953 C 0.29794 0.22747 0.06597 0.0
C954 C 0.30959 0.24093 0.12451 0.0
C955 C 0.33094 0.26703 0.11592 0.0
C956 C 0.33649 0.27242 0.08201 0.0
C957 C 0.32031 0.25263 0.05722 0.0
C958 C 0.34786 0.28832 0.14226 0.0
C959 C 0.38243 0.29312 0.14035 0.0
C960 C 0.33031 0.30341 0.16935 0.0
C961 C 0.29371 0.3003 0.17231 0.0
C962 C 0.27278 0.31265 0.14786 0.0
C963 C 0.23824 0.30933 0.15069 0.0
C964 C 0.2244 0.2937 0.17786 0.0
C965 C 0.24507 0.28131 0.20224 0.0
C966 C 0.27962 0.28466 0.19957 0.0
C967 C 0.41377 0.40542 0.23717 0.0
C968 C 0.44322 0.39406 0.25136 0.0
C969 C 0.39191 0.38303 0.22043 0.0
C970 C 0.39932 0.34909 0.21765 0.0
C971 C 0.42639 0.33728 0.23554 0.0
C972 C 0.44828 0.35964 0.25218 0.0
C973 C 0.38227 0.3274 0.19189 0.0
C974 C 0.34773 0.32268 0.19382 0.0
C975 C 0.3999 0.31262 0.16459 0.0
C976 C 0.43643 0.31724 0.16045 0.0
C977 C 0.45696 0.28944 0.15586 0.0
C978 C 0.49143 0.29357 0.1531 0.0
C979 C 0.50576 0.32539 0.15532 0.0
C980 C 0.48557 0.35311 0.15972 0.0
C981 C 0.45105 0.34921 0.16134 0.0
H982 H 0.53247 0.32855 0.15368 0.0
H983 H 0.19766 0.29117 0.18002 0.0
H984 H 0.08419 0.09863 0.19372 0.0
H985 H 0.03231 0.09884 0.16215 0.0
H986 H 0.04821 -0.00264 0.12786 0.0
H987 H 0.09895 0.99616 0.161 0.0
H988 H 0.00326 0.08693 0.10131 0.0
H989 H 0.98305 0.95262 0.14095 0.0
H990 H 0.00339 0.9156 0.18359 0.0
H991 H 0.02173 -0.00019 0.25087 0.0
H992 H 0.00154 0.03729 0.20861 0.0
H993 H 0.86298 0.00169 0.02669 0.0
H994 H 0.91541 0.02648 0.04685 0.0
H995 H 0.87679 0.03197 0.14709 0.0
H996 H 0.82477 0.00554 0.12699 0.0
H997 H 0.93119 -0.00293 0.14364 0.0
H998 H 0.90856 0.11166 0.11506 0.0
H999 H 0.88177 0.14891 0.07623 0.0
H1000 H 0.94003 0.10734 0.9956 0.0
H1001 H 0.96787 0.07081 0.03431 0.0
C1002 C 0.07704 0.07649 0.17897 0.0
C1003 C 0.09534 0.04705 0.18064 0.0
C1004 C 0.04745 0.07681 0.16069 0.0
C1005 C 0.03592 0.04782 0.14356 0.0
C1006 C 0.05628 0.01975 0.14172 0.0
C1007 C 0.08544 0.01914 0.16059 0.0
C1008 C 0.00066 0.04492 0.13284 0.0
C1009 C 0.98753 0.0673 0.11053 0.0
C1010 C 0.97963 0.02011 0.14572 0.0
C1011 C 0.99099 -0.0023 0.17158 0.0
C1012 C 0.99128 0.96318 0.16492 0.0
C1013 C 0.00287 0.94214 0.18898 0.0
C1014 C 0.01389 0.95536 0.21992 0.0
C1015 C 0.01329 0.98963 0.22688 0.0
C1016 C 0.00184 0.01077 0.20287 0.0
C1017 C 0.86525 0.00954 0.05276 0.0
C1018 C 0.84008 0.00185 0.07538 0.0
C1019 C 0.89517 0.02385 0.06429 0.0
C1020 C 0.89997 0.03133 0.09847 0.0
C1021 C 0.87357 0.02641 0.12062 0.0
C1022 C 0.84388 0.01152 0.10918 0.0
C1023 C 0.93391 0.03845 0.11157 0.0
C1024 C 0.94682 0.01686 0.13451 0.0
C1025 C 0.9542 0.06436 0.09997 0.0
C1026 C 0.94043 0.08875 0.07749 0.0
C1027 C 0.91599 0.11092 0.08913 0.0
C1028 C 0.90061 0.13188 0.06717 0.0
C1029 C 0.9092 0.13052 0.03345 0.0
C1030 C 0.93348 0.10848 0.02173 0.0
C1031 C 0.94941 0.08798 0.04375 0.0
H1032 H 0.89707 0.14654 0.01642 0.0
H1033 H 0.02288 0.93905 0.23851 0.0
H1034 H 0.31512 0.81997 0.40707 0.0
H1035 H 0.338 0.7809 0.36505 0.0
H1036 H 0.38056 0.72448 0.44283 0.0
H1037 H 0.35857 0.76404 0.48503 0.0
H1038 H 0.42299 0.73165 0.38771 0.0
H1039 H 0.30644 0.7023 0.4102 0.0
H1040 H 0.2487 0.72198 0.41373 0.0
H1041 H 0.25039 0.74246 0.30979 0.0
H1042 H 0.30835 0.72324 0.30577 0.0
H1043 H 0.40552 0.55755 0.32641 0.0
H1044 H 0.37457 0.60715 0.34383 0.0
H1045 H 0.43581 0.66596 0.28036 0.0
H1046 H 0.46716 0.61644 0.26347 0.0
H1047 H 0.34092 0.6631 0.321 0.0
H1048 H 0.46449 0.72736 0.3226 0.0
H1049 H 0.52473 0.71599 0.3209 0.0
H1050 H 0.50869 0.62999 0.37838 0.0
H1051 H 0.44849 0.64031 0.37948 0.0
C1052 C 0.32974 0.79948 0.41523 0.0
C1053 C 0.3348 0.79484 0.44939 0.0
C1054 C 0.34276 0.7772 0.39117 0.0
C1055 C 0.36066 0.74964 0.40087 0.0
C1056 C 0.36681 0.74564 0.43487 0.0
C1057 C 0.35419 0.76819 0.45895 0.0
C1058 C 0.37115 0.72365 0.37595 0.0
C1059 C 0.40506 0.71695 0.37287 0.0
C1060 C 0.34779 0.70461 0.35637 0.0
C1061 C 0.31181 0.71184 0.3578 0.0
C1062 C 0.29441 0.71082 0.38807 0.0
C1063 C 0.26174 0.72204 0.3902 0.0
C1064 C 0.24613 0.73397 0.36214 0.0
C1065 C 0.2627 0.73357 0.33159 0.0
C1066 C 0.29542 0.72245 0.32935 0.0
C1067 C 0.41098 0.58066 0.31464 0.0
C1068 C 0.4386 0.58324 0.29357 0.0
C1069 C 0.39351 0.60911 0.32485 0.0
C1070 C 0.40348 0.64038 0.31405 0.0
C1071 C 0.42804 0.64215 0.28938 0.0
C1072 C 0.44563 0.61377 0.27934 0.0
C1073 C 0.39282 0.67085 0.33306 0.0
C1074 C 0.35888 0.67832 0.33523 0.0
C1075 C 0.41614 0.69096 0.35162 0.0
C1076 C 0.45217 0.68439 0.35082 0.0
C1077 C 0.47394 0.70592 0.33467 0.0
C1078 C 0.50803 0.69955 0.33364 0.0
C1079 C 0.52055 0.67198 0.34909 0.0
C1080 C 0.49903 0.65098 0.3659 0.0
C1081 C 0.46491 0.65695 0.36659 0.0
H1082 H 0.54693 0.66708 0.3483 0.0
H1083 H 0.22116 0.74344 0.3641 0.0
H1084 H 0.45405 0.89305 0.69047 0.0
H1085 H 0.50682 0.89084 0.6608 0.0
H1086 H 0.48712 0.98563 0.61973 0.0
H1087 H 0.43461 0.98863 0.65017 0.0
H1088 H 0.52946 0.89593 0.59451 0.0
H1089 H 0.5616 0.03237 0.63397 0.0
H1090 H 0.54615 0.07542 0.67652 0.0
H1091 H 0.51548 -3e-05 0.74244 0.0
H1092 H 0.53227 0.95647 0.70103 0.0
H1093 H 0.66699 0.9803 0.51862 0.0
H1094 H 0.61648 0.95245 0.53761 0.0
H1095 H 0.65997 0.94581 0.63534 0.0
H1096 H 0.71025 0.97408 0.61648 0.0
H1097 H 0.60696 0.98585 0.63502 0.0
H1098 H 0.63363 0.87708 0.59219 0.0
H1099 H 0.65019 0.83404 0.55016 0.0
H1100 H 0.56364 0.8534 0.49168 0.0
H1101 H 0.54685 0.897 0.53297 0.0
C1102 C 0.46049 0.91312 0.67454 0.0
C1103 C 0.44048 0.94139 0.67318 0.0
C1104 C 0.49067 0.91175 0.65761 0.0
C1105 C 0.50096 0.93832 0.63866 0.0
C1106 C 0.47962 0.96508 0.63463 0.0
C1107 C 0.44965 0.96672 0.65197 0.0
C1108 C 0.53548 0.93989 0.62659 0.0
C1109 C 0.54643 0.91565 0.60315 0.0
C1110 C 0.55769 0.9652 0.63865 0.0
C1111 C 0.54784 0.99112 0.66413 0.0
C1112 C 0.55178 0.02494 0.65763 0.0
C1113 C 0.54292 0.04943 0.68162 0.0
C1114 C 0.53 0.04041 0.7122 0.0
C1115 C 0.52561 0.0069 0.71876 0.0
C1116 C 0.53494 0.9823 0.69509 0.0
C1117 C 0.66638 0.97127 0.5436 0.0
C1118 C 0.69213 0.97953 0.56629 0.0
C1119 C 0.63751 0.95542 0.55446 0.0
C1120 C 0.63439 0.94753 0.58799 0.0
C1121 C 0.6619 0.95191 0.60942 0.0
C1122 C 0.6906 0.96791 0.59864 0.0
C1123 C 0.60101 0.94223 0.60228 0.0
C1124 C 0.59011 0.96602 0.62627 0.0
C1125 C 0.57897 0.91662 0.59057 0.0
C1126 C 0.5892 0.89062 0.56554 0.0
C1127 C 0.61833 0.87247 0.57018 0.0
C1128 C 0.62771 0.84791 0.54653 0.0
C1129 C 0.60803 0.84112 0.51828 0.0
C1130 C 0.57889 0.85876 0.51357 0.0
C1131 C 0.56943 0.8834 0.53709 0.0
H1132 H 0.61533 0.82214 0.5001 0.0
H1133 H 0.52361 0.05939 0.73091 0.0
H1134 H 0.15791 0.2015 0.91729 0.0
H1135 H 0.14032 0.23857 0.87406 0.0
H1136 H 0.24264 0.26023 0.85146 0.0
H1137 H 0.26064 0.2221 0.8935 0.0
H1138 H 0.20622 0.31569 0.8677 0.0
H1139 H 0.19671 0.22175 0.79029 0.0
H1140 H 0.17902 0.16547 0.76936 0.0
H1141 H 0.07678 0.19121 0.78453 0.0
H1142 H 0.09399 0.24745 0.80531 0.0
H1143 H 0.12863 0.44348 0.78665 0.0
H1144 H 0.16753 0.39745 0.78938 0.0
H1145 H 0.08423 0.32867 0.79399 0.0
H1146 H 0.04632 0.37348 0.787 0.0
H1147 H 0.12692 0.29486 0.77419 0.0
H1148 H 0.13409 0.37684 0.87101 0.0
H1149 H 0.14681 0.43243 0.89689 0.0
H1150 H 0.24517 0.42894 0.85542 0.0
H1151 H 0.23257 0.37353 0.82905 0.0
C1152 C 0.17663 0.21353 0.90249 0.0
C1153 C 0.21059 0.20904 0.90879 0.0
C1154 C 0.16656 0.23449 0.8777 0.0
C1155 C 0.19026 0.25175 0.85927 0.0
C1156 C 0.22413 0.24653 0.86491 0.0
C1157 C 0.23427 0.22492 0.88905 0.0
C1158 C 0.17967 0.27847 0.83762 0.0
C1159 C 0.18925 0.31118 0.84686 0.0
C1160 C 0.15724 0.2726 0.81086 0.0
C1161 C 0.14674 0.23857 0.79943 0.0
C1162 C 0.17056 0.21513 0.78935 0.0
C1163 C 0.16062 0.18338 0.77743 0.0
C1164 C 0.12685 0.1748 0.7756 0.0
C1165 C 0.10295 0.1979 0.78585 0.0
C1166 C 0.11279 0.22974 0.7976 0.0
C1167 C 0.11888 0.41829 0.78691 0.0
C1168 C 0.08441 0.41216 0.78796 0.0
C1169 C 0.14111 0.39198 0.78928 0.0
C1170 C 0.12911 0.35953 0.79421 0.0
C1171 C 0.09472 0.35325 0.79101 0.0
C1172 C 0.07276 0.37913 0.78739 0.0
C1173 C 0.15079 0.33265 0.80624 0.0
C1174 C 0.14398 0.29967 0.79487 0.0
C1175 C 0.17456 0.33829 0.83223 0.0
C1176 C 0.18209 0.3716 0.84758 0.0
C1177 C 0.15818 0.38825 0.86718 0.0
C1178 C 0.16542 0.4196 0.88196 0.0
C1179 C 0.19673 0.43431 0.87762 0.0
C1180 C 0.22087 0.41761 0.85861 0.0
C1181 C 0.21368 0.38625 0.84373 0.0
H1182 H 0.20234 0.45857 0.88912 0.0
H1183 H 0.11926 0.15029 0.76611 0.0
H1184 H 0.33598 0.05318 0.03687 0.0
H1185 H 0.36641 0.00524 0.01456 0.0
H1186 H 0.32327 0.0172 0.91758 0.0
H1187 H 0.29302 0.06576 0.9395 0.0
H1188 H 0.33068 0.94638 0.97796 0.0
H1189 H 0.37112 0.00566 0.87904 0.0
H1190 H 0.38838 0.05844 0.85488 0.0
H1191 H 0.4609 0.07513 0.9327 0.0
H1192 H 0.44315 0.02283 0.95791 0.0
H1193 H 0.43723 0.81229 0.95515 0.0
H1194 H 0.40391 0.85523 0.93008 0.0
H1195 H 0.46705 0.93096 0.97755 0.0
H1196 H 0.50074 0.88816 0.00161 0.0
H1197 H 0.44025 0.95378 0.92252 0.0
H1198 H 0.40818 0.88895 0.01802 0.0
H1199 H 0.38535 0.84181 0.05899 0.0
H1200 H 0.27266 0.84274 0.97543 0.0
H1201 H 0.31156 0.88806 0.9465 0.0
C1202 C 0.33292 0.04573 0.01078 0.0
C1203 C 0.31189 0.06321 0.99004 0.0
C1204 C 0.35045 0.01842 -0.00196 0.0
C1205 C 0.34725 0.00791 0.9644 0.0
C1206 C 0.32648 0.02528 0.94347 0.0
C1207 C 0.30902 0.05284 0.95616 0.0
C1208 C 0.36473 0.97764 0.95248 0.0
C1209 C 0.35404 0.94733 0.96452 0.0
C1210 C 0.39504 0.97938 0.93518 0.0
C1211 C 0.40597 0.01049 0.92022 0.0
C1212 C 0.39057 0.02077 0.89111 0.0
C1213 C 0.40031 0.05062 0.87733 0.0
C1214 C 0.42573 0.07013 0.89227 0.0
C1215 C 0.44129 0.05991 0.92111 0.0
C1216 C 0.43131 0.03026 0.93522 0.0
C1217 C 0.44508 0.83807 0.9585 0.0
C1218 C 0.47159 0.84705 0.98012 0.0
C1219 C 0.42568 0.86258 0.94469 0.0
C1220 C 0.43217 0.89627 0.95301 0.0
C1221 C 0.46129 0.90512 0.971 0.0
C1222 C 0.48077 0.88066 0.98459 0.0
C1223 C 0.40651 0.92191 0.94845 0.0
C1224 C 0.41592 0.9517 0.9338 0.0
C1225 C 0.37422 0.91929 0.96258 0.0
C1226 C 0.36149 0.88984 0.97956 0.0
C1227 C 0.38435 0.87722 0.01237 0.0
C1228 C 0.36943 0.84826 0.03853 0.0
C1229 C 0.3095 0.82843 0.02049 0.0
C1230 C 0.29706 0.84819 0.98587 0.0
C1231 C 0.32215 0.87653 0.96774 0.0
H1232 H 0.29196 0.81075 0.03094 0.0
H1233 H 0.43342 0.09312 0.88147 0.0
H1234 H 0.81111 0.43923 0.06067 0.0
H1235 H 0.84535 0.48691 0.0804 0.0
H1236 H 0.89118 0.49048 0.98379 0.0
H1237 H 0.85783 0.44215 0.96397 0.0
H1238 H 0.92956 0.50041 0.06467 0.0
H1239 H 0.8608 0.57739 0.97429 0.0
H1240 H 0.80676 0.58056 0.94547 0.0
H1241 H 0.75783 0.53734 0.02832 0.0
H1242 H 0.81138 0.53539 0.05821 0.0
H1243 H 0.0063 0.64701 0.01074 0.0
H1244 H 0.98352 0.59411 0.02758 0.0
H1245 H 0.90413 0.64541 0.07955 0.0
H1246 H 0.92609 0.69834 0.0609 0.0
H1247 H 0.87978 0.6066 0.0346 0.0
H1248 H 0.96202 0.59079 0.1179 0.0
H1249 H 0.0191 0.59027 0.14042 0.0
H1250 H 0.04493 0.51347 0.06802 0.0
H1251 H 0.98815 0.51361 0.04479 0.0
C1252 C 0.82887 0.44977 0.04374 0.0
C1253 C 0.83172 0.43696 0.0107 0.0
C1254 C 0.84845 0.4769 0.05513 0.0
C1255 C 0.87063 0.49201 0.0335 0.0
C1256 C 0.87422 0.47888 0.00082 0.0
C1257 C 0.85497 0.4515 0.98949 0.0
C1258 C 0.88714 0.52378 0.04355 0.0
C1259 C 0.91871 0.52379 0.05854 0.0
C1260 C 0.87272 0.55408 0.03558 0.0
C1261 C 0.84021 0.5555 0.01815 0.0
C1262 C 0.83849 0.56864 0.98637 0.0
C1263 C 0.80793 0.57037 0.9699 0.0
C1264 C 0.77891 0.55886 0.98492 0.0
C1265 C 0.78038 0.54591 0.01657 0.0
C1266 C 0.81083 0.54456 0.03332 0.0
C1267 C 0.98496 0.64707 0.02715 0.0
C1268 C 0.96785 0.67657 0.03455 0.0
C1269 C 0.97191 0.61674 0.0369 0.0
C1270 C 0.94201 0.61562 0.05488 0.0
C1271 C 0.9272 0.64562 0.06566 0.0
C1272 C 0.93981 0.67586 0.05522 0.0
C1273 C 0.92271 0.58394 0.0557 0.0
C1274 C 0.89053 0.58366 0.04206 0.0
C1275 C 0.93688 0.5536 0.06466 0.0
C1276 C 0.97074 0.55237 0.07947 0.0
C1277 C 0.97987 0.57384 0.10668 0.0
C1278 C 0.01221 0.57364 0.11954 0.0
C1279 C 0.03556 0.55177 0.10572 0.0
C1280 C 0.02671 0.53017 0.07888 0.0
C1281 C 0.99442 0.53027 0.06587 0.0
H1282 H 0.06045 0.55142 0.11597 0.0
H1283 H 0.75527 0.56013 0.97212 0.0
H1284 H 0.7799 0.54732 0.17557 0.0
H1285 H 0.74222 0.58796 0.15452 0.0
H1286 H 0.76816 0.65636 0.23666 0.0
H1287 H 0.80532 0.61481 0.25879 0.0
H1288 H 0.70376 0.65593 0.22832 0.0
H1289 H 0.79406 0.6698 0.15553 0.0
H1290 H 0.83981 0.65386 0.11753 0.0
H1291 H 0.76949 0.60996 0.04739 0.0
H1292 H 0.72347 0.62425 0.08541 0.0
H1293 H 0.62264 0.76892 0.10407 0.0
H1294 H 0.6595 0.74816 0.1471 0.0
H1295 H 0.62419 0.64828 0.12387 0.0
H1296 H 0.58685 0.66881 0.08182 0.0
H1297 H 0.69826 0.67649 0.10777 0.0
H1298 H 0.6098 0.65932 0.18767 0.0
H1299 H 0.56606 0.67618 0.22748 0.0
H1300 H 0.63733 0.73452 0.28533 0.0
H1301 H 0.68144 0.71907 0.24503 0.0
C1302 C 0.77801 0.57113 0.18901 0.0
C1303 C 0.7957 0.57787 0.2188 0.0
C1304 C 0.75651 0.59451 0.17683 0.0
C1305 C 0.75272 0.62554 0.19366 0.0
C1306 C 0.77078 0.63265 0.22318 0.0
C1307 C 0.7921 0.60897 0.23568 0.0
C1308 C 0.72848 0.6494 0.18089 0.0
C1309 C 0.70314 0.6614 0.20214 0.0
C1310 C 0.72758 0.65654 0.14674 0.0
C1311 C 0.75527 0.64782 0.1236 0.0
C1312 C 0.78836 0.65635 0.1322 0.0
C1313 C 0.81437 0.64752 0.11066 0.0
C1314 C 0.80757 0.63051 0.08027 0.0
C1315 C 0.77475 0.62268 0.07114 0.0
C1316 C 0.74869 0.63112 0.09269 0.0
C1317 C 0.62181 0.74278 0.10925 0.0
C1318 C 0.60252 0.72032 0.08935 0.0
C1319 C 0.64279 0.73095 0.13384 0.0
C1320 C 0.6445 0.69671 0.13862 0.0
C1321 C 0.62293 0.67482 0.1208 0.0
C1322 C 0.60188 0.68654 0.09661 0.0
C1323 C 0.67364 0.68269 0.15502 0.0
C1324 C 0.69972 0.67223 0.13421 0.0
C1325 C 0.6756 0.67805 0.18958 0.0
C1326 C 0.6488 0.68864 0.21285 0.0
C1327 C 0.61605 0.67646 0.20834 0.0
C1328 C 0.59122 0.68564 0.2311 0.0
C1329 C 0.5989 0.70665 0.25876 0.0
C1330 C 0.63145 0.71847 0.26374 0.0
C1331 C 0.65633 0.70961 0.24088 0.0
H1332 H 0.57968 0.71358 0.27647 0.0
H1333 H 0.82768 0.6234 0.06378 0.0
H1334 H 0.66836 0.59326 0.51894 0.0
H1335 H 0.63037 0.5465 0.52912 0.0
H1336 H 0.70344 0.50474 0.593 0.0
H1337 H 0.74039 0.55188 0.58493 0.0
H1338 H 0.64427 0.47671 0.5162 0.0
H1339 H 0.67077 0.47415 0.65291 0.0
H1340 H 0.69414 0.51581 0.69396 0.0
H1341 H 0.63637 0.59186 0.65128 0.0
H1342 H 0.6129 0.55084 0.60985 0.0
H1343 H 0.62609 0.32296 0.57179 0.0
H1344 H 0.64317 0.37954 0.58904 0.0
H1345 H 0.54268 0.41241 0.57598 0.0
H1346 H 0.52555 0.35589 0.55786 0.0
H1347 H 0.60719 0.44973 0.62985 0.0
H1348 H 0.55809 0.42592 0.51573 0.0
H1349 H 0.54815 0.38919 0.46566 0.0
H1350 H 0.65296 0.37156 0.45774 0.0
H1351 H 0.66327 0.40775 0.50819 0.0
C1352 C 0.67602 0.57424 0.53542 0.0
C1353 C 0.70703 0.5764 0.55154 0.0
C1354 C 0.6545 0.54747 0.5409 0.0
C1355 C 0.66408 0.52234 0.56183 0.0
C1356 C 0.69529 0.52425 0.57733 0.0
C1357 C 0.71634 0.55125 0.57268 0.0
C1358 C 0.64189 0.49367 0.56755 0.0
C1359 C 0.63486 0.47148 0.54072 0.0
C1360 C 0.63112 0.48636 0.59993 0.0
C1361 C 0.63984 0.50936 0.62856 0.0
C1362 C 0.66244 0.49958 0.65284 0.0
C1363 C 0.6761 0.52317 0.6758 0.0
C1364 C 0.66681 0.5564 0.67517 0.0
C1365 C 0.64366 0.56614 0.65169 0.0
C1366 C 0.63012 0.54275 0.62851 0.0
C1367 C 0.60728 0.34189 0.57434 0.0
C1368 C 0.57472 0.33532 0.5628 0.0
C1369 C 0.61703 0.37418 0.58437 0.0
C1370 C 0.59426 0.40011 0.58324 0.0
C1371 C 0.56055 0.39262 0.57705 0.0
C1372 C 0.55079 0.36027 0.56671 0.0
C1373 C 0.60741 0.4338 0.57779 0.0
C1374 C 0.61423 0.45617 0.6049 0.0
C1375 C 0.61738 0.44187 0.54533 0.0
C1376 C 0.61129 0.41906 0.51589 0.0
C1377 C 0.57887 0.41376 0.50354 0.0
C1378 C 0.57321 0.39317 0.47508 0.0
C1379 C 0.59992 0.37805 0.45856 0.0
C1380 C 0.63231 0.38327 0.47061 0.0
C1381 C 0.63804 0.40376 0.49917 0.0
H1382 H 0.59552 0.36243 0.43635 0.0
H1383 H 0.6774 0.57456 0.69301 0.0
H1384 H 0.2052 0.86943 0.23421 0.0
H1385 H 0.24129 0.82612 0.2099 0.0
H1386 H 0.27636 0.89476 0.13778 0.0
H1387 H 0.23939 0.9367 0.16037 0.0
H1388 H 0.27406 0.83892 0.1092 0.0
H1389 H 0.31576 0.88035 0.2186 0.0
H1390 H 0.31302 0.88832 0.27982 0.0
H1391 H 0.30421 0.78287 0.28896 0.0
H1392 H 0.30652 0.7743 0.22772 0.0
H1393 H 0.44738 0.85348 0.10148 0.0
H1394 H 0.39519 0.8559 0.13267 0.0
H1395 H 0.37885 0.75106 0.11189 0.0
H1396 H 0.43065 0.74871 0.07951 0.0
H1397 H 0.36103 0.79973 0.18511 0.0
H1398 H 0.34887 0.77116 0.06229 0.0
H1399 H 0.36749 0.7744 -0.00172 0.0
H1400 H 0.32107 0.90476 0.02276 0.0
H1401 H 0.31073 0.88302 0.08505 0.0
C1402 C 0.22013 0.87484 0.21268 0.0
C1403 C 0.21979 0.90655 0.19942 0.0
C1404 C 0.24087 0.85016 0.19894 0.0
C1405 C 0.26206 0.85721 0.17231 0.0
C1406 C 0.26024 0.8884 0.15816 0.0
C1407 C 0.23916 0.91261 0.17131 0.0
C1408 C 0.28837 0.83406 0.16033 0.0
C1409 C 0.29295 0.82995 0.12578 0.0
C1410 C 0.31265 0.82167 0.18199 0.0
C1411 C 0.31076 0.82674 0.21866 0.0
C1412 C 0.31295 0.8589 0.23369 0.0
C1413 C 0.31152 0.8635 0.26837 0.0
C1414 C 0.30828 0.83609 0.28826 0.0
C1415 C 0.30655 0.80403 0.2735 0.0
C1416 C 0.30789 0.79929 0.23883 0.0
C1417 C 0.43319 0.83075 0.10451 0.0
C1418 C 0.44238 0.80111 0.08748 0.0
C1419 C 0.40342 0.83217 0.1222 0.0
C1420 C 0.38271 0.80395 0.12311 0.0
C1421 C 0.39422 0.77325 0.11043 0.0
C1422 C 0.42386 0.77188 0.09225 0.0
C1423 C 0.34803 0.80795 0.1342 0.0
C1424 C 0.34164 0.80757 0.16848 0.0
C1425 C 0.32322 0.81915 0.11237 0.0
C1426 C 0.32988 0.82616 0.07695 0.0
C1427 C 0.34628 0.79505 0.05159 0.0
C1428 C 0.35758 0.79639 0.01083 0.0
C1429 C 0.35306 0.83163 0.98911 0.0
C1430 C 0.32762 0.87914 0.02734 0.0
C1431 C 0.3207 0.86567 0.06646 0.0
H1432 H 0.36058 0.83051 0.96299 0.0
H1433 H 0.30724 0.83968 0.3151 0.0
H1434 H 0.20409 0.93335 0.4218 0.0
H1435 H 0.15676 0.97048 0.41758 0.0
H1436 H 0.14436 0.97096 0.52429 0.0
H1437 H 0.19041 0.93244 0.52835 0.0
H1438 H 0.08497 0.97798 0.49368 0.0
H1439 H 0.19762 0.02913 0.48636 0.0
H1440 H 0.25192 0.03012 0.4583 0.0
H1441 H 0.20391 0.0469 0.36507 0.0
H1442 H 0.14903 0.04517 0.39261 0.0
H1443 H 0.06742 0.1342 0.57139 0.0
H1444 H 0.07567 0.07861 0.5469 0.0
H1445 H 0.07574 0.11806 0.44877 0.0
H1446 H 0.06781 0.17395 0.47349 0.0
H1447 H 0.12853 0.08589 0.4564 0.0
H1448 H 0.01662 0.05953 0.47583 0.0
H1449 H 0.96293 0.0548 0.50456 0.0
H1450 H 0.00621 0.99032 0.57439 0.0
H1451 H 0.06043 0.99519 0.54664 0.0
C1452 C 0.19082 0.94097 0.44424 0.0
C1453 C 0.20122 0.93064 0.47549 0.0
C1454 C 0.16372 0.96202 0.44179 0.0
C1455 C 0.14749 0.97412 0.47068 0.0
C1456 C 0.15653 0.96204 0.50165 0.0
C1457 C 0.18305 0.94029 0.50401 0.0
C1458 C 0.12524 0.00312 0.46985 0.0
C1459 C 0.09414 0.00169 0.48549 0.0
C1460 C 0.13664 0.03359 0.45762 0.0
C1461 C 0.16942 0.03689 0.44144 0.0
C1462 C 0.19872 0.03314 0.4599 0.0
C1463 C 0.22954 0.03361 0.44406 0.0
C1464 C 0.23143 0.03843 0.40991 0.0
C1465 C 0.20241 0.04299 0.3915 0.0
C1466 C 0.17142 0.04228 0.40721 0.0
C1467 C 0.06821 0.13075 0.54449 0.0
C1468 C 0.06734 0.15822 0.52425 0.0
C1469 C 0.07255 0.09889 0.53044 0.0
C1470 C 0.07589 0.09381 0.49581 0.0
C1471 C 0.07272 0.12109 0.47543 0.0
C1472 C 0.06822 0.15307 0.48953 0.0
C1473 C 0.08858 0.06156 0.48214 0.0
C1474 C 0.11819 0.0623 0.46374 0.0
C1475 C 0.07545 0.03055 0.49179 0.0
C1476 C 0.04281 0.02775 0.50896 0.0
C1477 C 0.01487 0.0445 0.49742 0.0
C1478 C 0.98429 0.04183 0.51361 0.0
C1479 C 0.98115 0.02228 0.54128 0.0
C1480 C 0.00865 0.00542 0.5529 0.0
C1481 C 0.03934 0.00812 0.5369 0.0
H1482 H 0.9574 0.02016 0.55369 0.0
H1483 H 0.25541 0.03884 0.39788 0.0
H1484 H 0.76916 0.3991 0.25454 0.0
H1485 H 0.72374 0.36344 0.27304 0.0
H1486 H 0.71028 0.42873 0.35987 0.0
H1487 H 0.7551 0.46498 0.34115 0.0
H1488 H 0.72463 0.32922 0.32686 0.0
H1489 H 0.63041 0.42559 0.38574 0.0
H1490 H 0.60361 0.47762 0.37099 0.0
H1491 H 0.62424 0.45589 0.26752 0.0
H1492 H 0.65101 0.40369 0.28158 0.0
H1493 H 0.64886 0.28512 0.47541 0.0
H1494 H 0.67854 0.30431 0.4268 0.0
H1495 H 0.58611 0.30608 0.37216 0.0
H1496 H 0.55619 0.28729 0.421 0.0
H1497 H 0.61577 0.3647 0.37272 0.0
H1498 H 0.64719 0.25662 0.34278 0.0
H1499 H 0.66765 0.19963 0.34694 0.0
H1500 H 0.76376 0.2379 0.37734 0.0
H1501 H 0.74383 0.29521 0.37381 0.0
C1502 C 0.75633 0.40605 0.27743 0.0
C1503 C 0.76599 0.43466 0.29663 0.0
C1504 C 0.73038 0.38561 0.28793 0.0
C1505 C 0.71365 0.39332 0.31783 0.0
C1506 C 0.72251 0.42249 0.33646 0.0
C1507 C 0.74836 0.44304 0.3259 0.0
C1508 C 0.68974 0.36919 0.33167 0.0
C1509 C 0.70068 0.33686 0.33665 0.0
C1510 C 0.6579 0.37869 0.34317 0.0
C1511 C 0.64304 0.41082 0.33479 0.0
C1512 C 0.62931 0.43193 0.35984 0.0
C1513 C 0.61411 0.46147 0.3516 0.0
C1514 C 0.61233 0.4701 0.31835 0.0
C1515 C 0.62583 0.44928 0.29328 0.0
C1516 C 0.64115 0.41978 0.3014 0.0
C1517 C 0.63501 0.28864 0.4527 0.0
C1518 C 0.60019 0.28494 0.45209 0.0
C1519 C 0.65202 0.29943 0.42483 0.0
C1520 C 0.63455 0.30673 0.39581 0.0
C1521 C 0.60009 0.30058 0.39427 0.0
C1522 C 0.58306 0.28959 0.42213 0.0
C1523 C 0.65158 0.32542 0.36961 0.0
C1524 C 0.63944 0.35682 0.36243 0.0
C1525 C 0.68179 0.31465 0.35508 0.0
C1526 C 0.69385 0.28029 0.35834 0.0
C1527 C 0.67258 0.25294 0.35075 0.0
C1528 C 0.68412 0.22058 0.35287 0.0
C1529 C 0.71693 0.21522 0.36248 0.0
C1530 C 0.73834 0.24216 0.36992 0.0
C1531 C 0.72693 0.2746 0.36783 0.0
H1532 H 0.7257 0.19019 0.36416 0.0
H1533 H 0.60043 0.4929 0.31201 0.0
H1534 H 0.72181 0.60678 0.77756 0.0
H1535 H 0.75917 0.65028 0.80104 0.0
H1536 H 0.81111 0.5771 0.85574 0.0
H1537 H 0.77305 0.53386 0.83339 0.0
H1538 H 0.79936 0.62719 0.89486 0.0
H1539 H 0.84296 0.61387 0.78307 0.0
H1540 H 0.84057 0.61314 0.72167 0.0
H1541 H 0.81063 0.71506 0.72572 0.0
H1542 H 0.81248 0.71628 0.78718 0.0
H1543 H 0.96482 0.71125 0.90083 0.0
H1544 H 0.92032 0.69096 0.86332 0.0
H1545 H 0.84746 0.73553 0.92941 0.0
H1546 H 0.89199 0.75466 0.96766 0.0
H1547 H 0.86516 0.70582 0.82881 0.0
H1548 H 0.7912 0.68027 0.94601 0.0
H1549 H 0.80057 0.67815 0.00671 0.0
H1550 H 0.89992 0.64396 0.98914 0.0
H1551 H 0.89119 0.64615 0.92851 0.0
C1552 C 0.74139 0.59997 0.79439 0.0
C1553 C 0.74453 0.56695 0.80374 0.0
C1554 C 0.7628 0.62485 0.80768 0.0
C1555 C 0.78814 0.61696 0.82996 0.0
C1556 C 0.79165 0.58383 0.83871 0.0
C1557 C 0.76996 0.5591 0.82587 0.0
C1558 C 0.81026 0.64313 0.84549 0.0
C1559 C 0.81351 0.64446 0.88029 0.0
C1560 C 0.82877 0.66583 0.82664 0.0
C1561 C 0.82748 0.66504 0.78972 0.0
C1562 C 0.83559 0.63604 0.77087 0.0
C1563 C 0.83439 0.63555 0.73606 0.0
C1564 C 0.82534 0.664 0.71981 0.0
C1565 C 0.81756 0.69302 0.73834 0.0
C1566 C 0.8187 0.69363 0.77316 0.0
C1567 C 0.93942 0.71807 0.9065 0.0
C1568 C 0.93165 0.73415 0.93716 0.0
C1569 C 0.91396 0.70639 0.8851 0.0
C1570 C 0.88055 0.71093 0.89408 0.0
C1571 C 0.87308 0.7312 0.92238 0.0
C1572 C 0.89848 0.74234 0.94408 0.0
C1573 C 0.85447 0.6893 0.8779 0.0
C1574 C 0.85041 0.68889 0.84318 0.0
C1575 C 0.83579 0.66665 0.89659 0.0
C1576 C 0.84071 0.66389 0.93289 0.0
C1577 C 0.81499 0.67225 0.95519 0.0
C1578 C 0.82023 0.67116 0.98954 0.0
C1579 C 0.851 0.66147 0.00176 0.0
C1580 C 0.87627 0.65196 0.97967 0.0
C1581 C 0.87123 0.65319 0.94534 0.0
H1582 H 0.85529 0.66138 0.02833 0.0
H1583 H 0.82445 0.66358 0.69286 0.0
H1584 H 0.386 0.82868 0.56275 0.0
H1585 H 0.38456 0.8582 0.51084 0.0
H1586 H 0.4683 0.91898 0.5445 0.0
H1587 H 0.47045 0.88891 0.59574 0.0
H1588 H 0.414 0.95122 0.50178 0.0
H1589 H 0.49151 0.85935 0.50874 0.0
H1590 H 0.50291 0.80174 0.5229 0.0
H1591 H 0.43217 0.76549 0.44933 0.0
H1592 H 0.41876 0.82307 0.43603 0.0
H1593 H 0.51754 0.99225 0.36737 0.0
H1594 H 0.48689 0.97911 0.41758 0.0
H1595 H 0.4374 0.89731 0.36354 0.0
H1596 H 0.46969 0.9095 0.3138 0.0
H1597 H 0.46333 0.87546 0.41503 0.0
H1598 H 0.39433 0.96898 0.39976 0.0
H1599 H 0.38073 0.02699 0.38893 0.0
H1600 H 0.43569 0.06089 0.47607 0.0
H1601 H 0.44982 0.00312 0.48733 0.0
C1602 C 0.40338 0.84909 0.55963 0.0
C1603 C 0.42862 0.85637 0.58329 0.0
C1604 C 0.40247 0.86592 0.52997 0.0
C1605 C 0.4264 0.8906 0.52391 0.0
C1606 C 0.44949 0.90015 0.54886 0.0
C1607 C 0.45071 0.88296 0.57819 0.0
C1608 C 0.43147 0.90192 0.48985 0.0
C1609 C 0.4247 0.93485 0.48262 0.0
C1610 C 0.44487 0.88019 0.46496 0.0
C1611 C 0.45363 0.84553 0.47192 0.0
C1612 C 0.47787 0.83913 0.49603 0.0
C1613 C 0.48448 0.80651 0.50408 0.0
C1614 C 0.46759 0.78004 0.48757 0.0
C1615 C 0.44445 0.78612 0.46267 0.0
C1616 C 0.43728 0.81873 0.45492 0.0
C1617 C 0.49924 0.97222 0.36603 0.0
C1618 C 0.49573 0.95193 0.3369 0.0
C1619 C 0.48157 0.96474 0.3947 0.0
C1620 C 0.45951 0.9373 0.39445 0.0
C1621 C 0.45426 0.91856 0.36445 0.0
C1622 C 0.47248 0.92561 0.336 0.0
C1623 C 0.4461 0.92527 0.42629 0.0
C1624 C 0.45167 0.89197 0.43346 0.0
C1625 C 0.43163 0.94681 0.45097 0.0
C1626 C 0.42331 0.98167 0.44426 0.0
C1627 C 0.40375 0.98881 0.41647 0.0
C1628 C 0.39589 0.02166 0.41029 0.0
C1629 C 0.40746 0.04762 0.43172 0.0
C1630 C 0.42686 0.04078 0.45941 0.0
C1631 C 0.43471 0.00797 0.46577 0.0
H1632 H 0.40129 0.07302 0.42692 0.0
H1633 H 0.47301 0.75477 0.49348 0.0
H1634 H 0.42822 0.34032 0.80474 0.0
H1635 H 0.38739 0.34664 0.76019 0.0
H1636 H 0.40505 0.24635 0.72323 0.0
H1637 H 0.44493 0.23928 0.76872 0.0
H1638 H 0.41082 0.31842 0.68002 0.0
H1639 H 0.34395 0.23692 0.73323 0.0
H1640 H 0.32573 0.21301 0.78559 0.0
H1641 H 0.27491 0.3031 0.81313 0.0
H1642 H 0.29416 0.32811 0.76143 0.0
H1643 H 0.29745 0.36107 0.55914 0.0
H1644 H 0.31502 0.31881 0.59722 0.0
H1645 H 0.29652 0.38653 0.68112 0.0
H1646 H 0.27946 0.42892 0.64312 0.0
H1647 H 0.28812 0.31414 0.69435 0.0
H1648 H 0.36841 0.39742 0.65452 0.0
H1649 H 0.39716 0.4282 0.61119 0.0
H1650 H 0.42422 0.3362 0.56089 0.0
H1651 H 0.39579 0.3049 0.60433 0.0
C1652 C 0.42305 0.31948 0.78741 0.0
C1653 C 0.43958 0.28931 0.79017 0.0
C1654 C 0.39975 0.32308 0.76208 0.0
C1655 C 0.39314 0.29685 0.73876 0.0
C1656 C 0.40957 0.26666 0.74135 0.0
C1657 C 0.43225 0.2627 0.76729 0.0
C1658 C 0.37045 0.30242 0.71071 0.0
C1659 C 0.38399 0.31626 0.68242 0.0
C1660 C 0.33557 0.30024 0.71446 0.0
C1661 C 0.32094 0.28453 0.74376 0.0
C1662 C 0.3291 0.25172 0.75057 0.0
C1663 C 0.3188 0.23806 0.78019 0.0
C1664 C 0.29956 0.25667 0.80284 0.0
C1665 C 0.29006 0.28881 0.79564 0.0
C1666 C 0.30076 0.30279 0.7662 0.0
C1667 C 0.29552 0.36626 0.58577 0.0
C1668 C 0.28727 0.39816 0.59834 0.0
C1669 C 0.30561 0.34216 0.60747 0.0
C1670 C 0.30726 0.3497 0.64192 0.0
C1671 C 0.29516 0.38017 0.65464 0.0
C1672 C 0.28551 0.40439 0.63296 0.0
C1673 C 0.32861 0.33012 0.66345 0.0
C1674 C 0.31487 0.31445 0.69088 0.0
C1675 C 0.36352 0.33042 0.65894 0.0
C1676 C 0.37967 0.34893 0.63229 0.0
C1677 C 0.38024 0.38382 0.63402 0.0
C1678 C 0.39655 0.40133 0.60952 0.0
C1679 C 0.41231 0.38419 0.58311 0.0
C1680 C 0.41189 0.34946 0.58127 0.0
C1681 C 0.39577 0.33181 0.60587 0.0
H1682 H 0.42498 0.39781 0.56417 0.0
H1683 H 0.29209 0.24606 0.82592 0.0
H1684 H 0.97128 0.16203 0.05753 0.0
H1685 H 0.99324 0.14206 0.00354 0.0
H1686 H 0.09329 0.15464 0.04103 0.0
H1687 H 0.07161 0.17341 0.09561 0.0
H1688 H 0.05454 0.18532 0.96897 0.0
H1689 H 0.0865 0.09237 0.0385 0.0
H1690 H 0.06677 0.05325 0.07944 0.0
H1691 H -0.00147 0.00904 0.00756 0.0
H1692 H 0.01543 0.05012 0.96708 0.0
H1693 H 0.07777 0.12962 0.80461 0.0
H1694 H 0.09635 0.13955 0.86263 0.0
H1695 H 0.02486 0.06582 0.89337 0.0
H1696 H 0.00887 0.05434 0.83566 0.0
H1697 H 0.06815 0.06636 0.93545 0.0
H1698 H 0.00697 0.15141 0.88588 0.0
H1699 H 0.99438 0.19365 0.84535 0.0
H1700 H 0.0822 0.24903 0.87561 0.0
H1701 H 0.09566 0.20672 0.91602 0.0
C1702 C -0.00212 0.15965 0.05454 0.0
C1703 C 0.01967 0.16859 0.08085 0.0
C1704 C 0.01032 0.14845 0.02379 0.0
C1705 C 0.04466 0.14635 0.01883 0.0
C1706 C 0.06664 0.15567 0.0448 0.0
C1707 C 0.0542 0.1662 0.07586 0.0
C1708 C 0.05699 0.13554 0.98576 0.0
C1709 C 0.05867 0.15946 0.9616 0.0
C1710 C 0.05994 0.10149 0.97634 0.0
C1711 C 0.05187 0.07503 -0.00012 0.0
C1712 C 0.0667 0.07497 0.03159 0.0
C1713 C 0.05588 0.05246 0.05482 0.0
C1714 C 0.03127 0.0288 0.04624 0.0
C1715 C 0.01752 0.02749 0.01426 0.0
C1716 C 0.02745 0.05068 0.99127 0.0
C1717 C 0.06728 0.11482 0.82385 0.0
C1718 C 0.04207 0.09138 0.81611 0.0
C1719 C 0.0776 0.12054 0.85692 0.0
C1720 C 0.06143 0.10406 0.88263 0.0
C1721 C 0.03795 0.07885 0.87425 0.0
C1722 C 0.02859 0.0724 0.84125 0.0
C1723 C 0.06451 0.11605 0.91803 0.0
C1724 C 0.06568 0.09245 0.94275 0.0
C1725 C 0.06048 0.15005 0.92771 0.0
C1726 C 0.05273 0.17555 0.90342 0.0
C1727 C 0.0238 0.17242 0.88364 0.0
C1728 C 0.01651 0.19636 0.86071 0.0
C1729 C 0.0377 0.22383 0.85771 0.0
C1730 C 0.06608 0.22751 0.87777 0.0
C1731 C 0.07359 0.20355 0.90065 0.0
H1732 H 0.03202 0.24238 0.83997 0.0
H1733 H 0.02308 0.01134 0.06429 0.0
H1734 H 0.06513 0.67022 0.31623 0.0
H1735 H 0.10342 0.63901 0.27953 0.0
H1736 H 0.10449 0.71905 0.21188 0.0
H1737 H 0.06662 0.75042 0.24831 0.0
H1738 H 0.09948 0.64989 0.182 0.0
H1739 H 0.16189 0.71831 0.26779 0.0
H1740 H 0.17035 0.73122 0.3278 0.0
H1741 H 0.1981 0.63032 0.3418 0.0
H1742 H 0.1887 0.61655 0.282 0.0
H1743 H 0.22769 0.61571 0.07731 0.0
H1744 H 0.19983 0.65104 0.11937 0.0
H1745 H 0.22412 0.58216 0.19453 0.0
H1746 H 0.25264 0.5473 0.15265 0.0
H1747 H 0.21551 0.64174 0.2234 0.0
H1748 H 0.15584 0.56777 0.15207 0.0
H1749 H 0.13712 0.53883 0.09999 0.0
H1750 H 0.09704 0.62958 0.06622 0.0
H1751 H 0.11602 0.6593 0.11813 0.0
C1752 C 0.07317 0.68093 0.2933 0.0
C1753 C 0.06323 0.71291 0.2853 0.0
C1754 C 0.095 0.66311 0.27244 0.0
C1755 C 0.10687 0.67698 0.24326 0.0
C1756 C 0.09558 0.70806 0.23437 0.0
C1757 C 0.07413 0.72599 0.25531 0.0
C1758 C 0.13297 0.66055 0.22305 0.0
C1759 C 0.12496 0.64856 0.19074 0.0
C1760 C 0.16568 0.65714 0.23539 0.0
C1761 C 0.17431 0.66635 0.27052 0.0
C1762 C 0.16978 0.69889 0.28367 0.0
C1763 C 0.17458 0.7063 0.31767 0.0
C1764 C 0.18455 0.68153 0.33864 0.0
C1765 C 0.19022 0.64943 0.32555 0.0
C1766 C 0.18512 0.6418 0.29162 0.0
C1767 C 0.22893 0.60927 0.10317 0.0
C1768 C 0.24183 0.57868 0.1118 0.0
C1769 C 0.21257 0.62917 0.12712 0.0
C1770 C 0.20887 0.61849 0.15974 0.0
C1771 C 0.22634 0.59065 0.16943 0.0
C1772 C 0.24285 0.57086 0.14554 0.0
C1773 C 0.18243 0.63249 0.18155 0.0
C1774 C 0.19021 0.64359 0.21429 0.0
C1775 C 0.14899 0.63332 0.17031 0.0
C1776 C 0.13789 0.6159 0.13874 0.0
C1777 C 0.14344 0.58169 0.13336 0.0
C1778 C 0.13276 0.56512 0.10386 0.0
C1779 C 0.11619 0.58239 0.07961 0.0
C1780 C 0.1101 0.61627 0.08493 0.0
C1781 C 0.12082 0.63302 0.1144 0.0
H1782 H 0.10779 0.56944 0.05684 0.0
H1783 H 0.18797 0.68722 0.36503 0.0
H1784 H 0.52508 0.14 0.93345 0.0
H1785 H 0.51777 0.11362 0.98673 0.0
H1786 H 0.43471 0.17697 0.0097 0.0
H1787 H 0.44033 0.20165 0.95584 0.0
H1788 H 0.52353 0.14718 0.04776 0.0
H1789 H 0.38875 0.14859 0.06336 0.0
H1790 H 0.34274 0.15902 0.02471 0.0
H1791 H 0.3848 0.09135 0.95141 0.0
H1792 H 0.43146 0.08076 0.98981 0.0
H1793 H 0.49726 0.11828 0.213 0.0
H1794 H 0.47437 0.13991 0.16201 0.0
H1795 H 0.47448 0.04142 0.11543 0.0
H1796 H 0.49799 0.01976 0.16611 0.0
H1797 H 0.42292 0.09005 0.09021 0.0
H1798 H 0.54623 0.08243 0.11771 0.0
H1799 H 0.59371 0.09888 0.15398 0.0
H1800 H 0.56894 0.20156 0.14698 0.0
H1801 H 0.52162 0.18572 0.11007 0.0
C1802 C 0.50454 0.14737 0.94941 0.0
C1803 C 0.48303 0.17256 0.94034 0.0
C1804 C 0.50057 0.1325 0.97995 0.0
C1805 C 0.47547 0.14293 0.00215 0.0
C1806 C 0.45356 0.16761 0.9927 0.0
C1807 C 0.45686 0.18177 0.96181 0.0
C1808 C 0.47383 0.1297 0.03606 0.0
C1809 C 0.50167 0.13436 0.05683 0.0
C1810 C 0.44474 0.11453 0.04862 0.0
C1811 C 0.41348 0.11396 0.02921 0.0
C1812 C 0.38771 0.13526 0.03932 0.0
C1813 C 0.36193 0.14171 0.01726 0.0
C1814 C 0.3615 0.12658 0.98526 0.0
C1815 C 0.38581 0.10362 0.97589 0.0
C1816 C 0.41177 0.09726 -0.0022 0.0
C1817 C 0.49093 0.101 0.19241 0.0
C1818 C 0.5001 0.0675 0.19317 0.0
C1819 C 0.47784 0.11339 0.16331 0.0
C1820 C 0.47372 0.09238 0.13472 0.0
C1821 C 0.47793 0.05808 0.13714 0.0
C1822 C 0.49118 0.04567 0.16623 0.0
C1823 C 0.47317 0.10657 0.10137 0.0
C1824 C 0.44496 0.1023 0.08085 0.0
C1825 C 0.50142 0.12379 0.08951 0.0
C1826 C 0.53034 0.13286 0.11118 0.0
C1827 C 0.5509 0.10848 0.12379 0.0
C1828 C 0.57777 0.11772 0.1445 0.0
C1829 C 0.58406 0.15122 0.1531 0.0
C1830 C 0.56388 0.17561 0.1405 0.0
C1831 C 0.53719 0.16653 0.11951 0.0
H1832 H 0.60488 0.15836 0.16905 0.0
H1833 H 0.34199 0.13219 0.96789 0.0
H1834 H 0.06244 0.20777 0.28792 0.0
H1835 H 0.10589 0.23174 0.32476 0.0
H1836 H 0.11662 0.31478 0.26146 0.0
H1837 H 0.07291 0.29117 0.22455 0.0
H1838 H 0.17815 0.28451 0.27904 0.0
H1839 H 0.07811 0.32808 0.32988 0.0
H1840 H 0.02244 0.32593 0.35538 0.0
H1841 H 0.05971 0.26491 0.43158 0.0
H1842 H 0.11556 0.26633 0.40622 0.0
H1843 H 0.24796 0.41767 0.37239 0.0
H1844 H 0.22404 0.37311 0.3371 0.0
H1845 H 0.21166 0.3131 0.42268 0.0
H1846 H 0.2333 0.35899 0.4586 0.0
H1847 H 0.15509 0.32161 0.39602 0.0
H1848 H 0.2575 0.28347 0.34859 0.0
H1849 H 0.31386 0.2917 0.32593 0.0
H1850 H 0.27345 0.34605 0.24615 0.0
H1851 H 0.21679 0.33757 0.26794 0.0
C1852 C 0.07383 0.23128 0.28198 0.0
C1853 C 0.06424 0.24764 0.25338 0.0
C1854 C 0.09867 0.24485 0.30299 0.0
C1855 C 0.11449 0.27483 0.2956 0.0
C1856 C 0.10476 0.29146 0.26734 0.0
C1857 C 0.0796 0.27812 0.24652 0.0
C1858 C 0.14103 0.28901 0.31757 0.0
C1859 C 0.17324 0.29265 0.30465 0.0
C1860 C 0.1347 0.29863 0.35118 0.0
C1861 C 0.10089 0.29687 0.36583 0.0
C1862 C 0.07433 0.3138 0.35178 0.0
C1863 C 0.04277 0.31282 0.36629 0.0
C1864 C 0.0375 0.29517 0.395 0.0
C1865 C 0.0638 0.27847 0.40927 0.0
C1866 C 0.09541 0.27935 0.39483 0.0
C1867 C 0.24115 0.39456 0.38353 0.0
C1868 C 0.24158 0.39212 0.41828 0.0
C1869 C 0.22783 0.36879 0.36321 0.0
C1870 C 0.21583 0.33964 0.37718 0.0
C1871 C 0.22054 0.33546 0.4114 0.0
C1872 C 0.23323 0.36161 0.43189 0.0
C1873 C 0.1925 0.31752 0.35764 0.0
C1874 C 0.16059 0.31246 0.37084 0.0
C1875 C 0.19919 0.30656 0.32441 0.0
C1876 C 0.23292 0.30987 0.30991 0.0
C1877 C 0.26064 0.29698 0.32608 0.0
C1878 C 0.29262 0.30165 0.31336 0.0
C1879 C 0.29723 0.31937 0.28462 0.0
C1880 C 0.26983 0.33223 0.26837 0.0
C1881 C 0.23774 0.32721 0.28069 0.0
H1882 H 0.32204 0.32315 0.27495 0.0
H1883 H 0.01308 0.29455 0.40627 0.0
H1884 H 0.98084 0.85415 0.44556 0.0
H1885 H -0.00244 0.88527 0.49724 0.0
H1886 H 0.07558 0.81454 0.51096 0.0
H1887 H 0.06011 0.78544 0.45869 0.0
H1888 H -0.00363 0.86617 0.55691 0.0
H1889 H 0.13877 0.84195 0.5516 0.0
H1890 H 0.17859 0.83422 0.50542 0.0
H1891 H 0.12179 0.89863 0.44589 0.0
H1892 H 0.08209 0.90759 0.49188 0.0
H1893 H 0.054 0.90515 0.72194 0.0
H1894 H 0.06663 0.86559 0.67564 0.0
H1895 H 0.06904 0.94622 0.60871 0.0
H1896 H 0.05816 0.98549 0.65462 0.0
H1897 H 0.11213 0.89142 0.59119 0.0
H1898 H -0.00243 0.90223 0.65319 0.0
H1899 H 0.96135 0.8795 0.70455 0.0
H1900 H 0.95089 0.76442 0.67367 0.0
H1901 H 0.98877 0.76542 0.61813 0.0
C1902 C 0.00183 0.84602 0.45957 0.0
C1903 C 0.01929 0.81787 0.44837 0.0
C1904 C 0.01146 0.86365 0.48888 0.0
C1905 C 0.03844 0.85284 0.50759 0.0
C1906 C 0.05567 0.82438 0.49631 0.0
C1907 C 0.04665 0.80751 0.4666 0.0
C1908 C 0.0469 0.86867 0.54064 0.0
C1909 C 0.02194 0.86987 0.56482 0.0
C1910 C 0.08025 0.87523 0.5503 0.0
C1911 C 0.1073 0.87523 0.52519 0.0
C1912 C 0.13524 0.85519 0.52902 0.0
C1913 C 0.15768 0.85041 0.50278 0.0
C1914 C 0.1526 0.86567 0.47271 0.0
C1915 C 0.12557 0.88657 0.4691 0.0
C1916 C 0.10323 0.89173 0.49533 0.0
C1917 C 0.05947 0.91457 0.69769 0.0
C1918 C 0.05412 0.94833 0.69167 0.0
C1919 C 0.0657 0.89176 0.67106 0.0
C1920 C 0.0666 0.90269 0.63844 0.0
C1921 C 0.06746 0.93703 0.63361 0.0
C1922 C 0.06184 0.95972 0.66012 0.0
C1923 C 0.06256 0.88003 0.60852 0.0
C1924 C 0.08744 0.88241 0.58406 0.0
C1925 C 0.03032 0.86783 0.59864 0.0
C1926 C 0.00637 0.85027 0.62256 0.0
C1927 C 0.9913 0.87616 0.65354 0.0
C1928 C 0.96741 0.86186 0.68467 0.0
C1929 C 0.95385 0.82248 0.69041 0.0
C1930 C 0.96137 0.78792 0.66657 0.0
C1931 C 0.98515 0.78909 0.6319 0.0
H1932 H 0.93887 0.81906 0.71233 0.0
H1933 H 0.1698 0.86156 0.4523 0.0
H1934 H 0.38614 0.66255 0.69781 0.0
H1935 H 0.34601 0.64226 0.73789 0.0
H1936 H 0.32844 0.74281 0.7742 0.0
H1937 H 0.36823 0.76343 0.73348 0.0
H1938 H 0.35231 0.70125 0.82214 0.0
H1939 H 0.26638 0.70194 0.74392 0.0
H1940 H 0.23534 0.6929 0.69132 0.0
H1941 H 0.23893 0.58746 0.70079 0.0
H1942 H 0.27126 0.59561 0.75276 0.0
H1943 H 0.27917 0.61399 0.95286 0.0
H1944 H 0.28 0.65343 0.90829 0.0
H1945 H 0.29914 0.57328 0.83631 0.0
H1946 H 0.2966 0.53369 0.88024 0.0
H1947 H 0.26044 0.61812 0.80938 0.0
H1948 H 0.36275 0.62078 0.87615 0.0
H1949 H 0.39487 0.62981 0.92828 0.0
H1950 H 0.35956 0.72979 0.93876 0.0
H1951 H 0.3269 0.72117 0.88684 0.0
C1952 C 0.37297 0.68043 0.71362 0.0
C1953 C 0.38049 0.71454 0.71273 0.0
C1954 C 0.34988 0.66881 0.73638 0.0
C1955 C 0.33422 0.69103 0.75899 0.0
C1956 C 0.34013 0.7253 0.75681 0.0
C1957 C 0.3628 0.73702 0.73352 0.0
C1958 C 0.31673 0.67779 0.7881 0.0
C1959 C 0.33153 0.6838 0.81951 0.0
C1960 C 0.28992 0.65472 0.78449 0.0
C1961 C 0.27149 0.64946 0.75241 0.0
C1962 C 0.26103 0.67677 0.73464 0.0
C1963 C 0.24309 0.67181 0.70491 0.0
C1964 C 0.23497 0.63968 0.69282 0.0
C1965 C 0.24515 0.61237 0.71023 0.0
C1966 C 0.26338 0.61715 0.73982 0.0
C1967 C 0.2826 0.60464 0.92742 0.0
C1968 C 0.28838 0.57071 0.92023 0.0
C1969 C 0.28334 0.62728 0.90199 0.0
C1970 C 0.29028 0.61643 0.86901 0.0
C1971 C 0.29387 0.58233 0.86153 0.0
C1972 C 0.29283 0.55972 0.8868 0.0
C1973 C 0.29726 0.64036 0.84273 0.0
C1974 C 0.28055 0.6363 0.81199 0.0
C1975 C 0.32251 0.66512 0.84671 0.0
C1976 C 0.34205 0.6702 0.87792 0.0
C1977 C 0.36165 0.6446 0.88973 0.0
C1978 C 0.37998 0.64965 0.9192 0.0
C1979 C 0.37916 0.68032 0.93688 0.0
C1980 C 0.36009 0.70602 0.92508 0.0
C1981 C 0.34166 0.70107 0.89565 0.0
H1982 H 0.39339 0.68419 0.95968 0.0
H1983 H 0.22081 0.63595 0.66995 0.0
H1984 H 0.58615 0.52572 0.8851 0.0
H1985 H 0.53949 0.50275 0.91571 0.0
H1986 H 0.54624 0.41067 0.85734 0.0
H1987 H 0.59455 0.4325 0.8282 0.0
H1988 H 0.48261 0.4652 0.85981 0.0
H1989 H 0.54665 0.38452 0.91218 0.0
H1990 H 0.597 0.36624 0.94067 0.0
H1991 H 0.57583 0.4319 0.02462 0.0
H1992 H 0.52541 0.4512 0.99637 0.0
H1993 H 0.32997 0.44704 0.93046 0.0
H1994 H 0.38234 0.42041 0.91455 0.0
H1995 H 0.4346 0.48309 0.98799 0.0
H1996 H 0.382 0.50864 0.00481 0.0
H1997 H 0.46886 0.42417 0.97371 0.0
H1998 H 0.4209 0.51617 0.9125 0.0
H1999 H 0.37602 0.54252 0.88148 0.0
H2000 H 0.36947 0.45708 0.81372 0.0
H2001 H 0.41469 0.43051 0.84411 0.0
C2002 C 0.57868 0.50014 0.87973 0.0
C2003 C 0.59422 0.48091 0.8544 0.0
C2004 C 0.55201 0.48706 0.89719 0.0
C2005 C 0.53987 0.45495 0.88893 0.0
C2006 C 0.55585 0.43523 0.86447 0.0
C2007 C 0.5833 0.44789 0.84776 0.0
C2008 C 0.50719 0.44502 0.90177 0.0
C2009 C 0.47936 0.455 0.88416 0.0
C2010 C 0.50348 0.43234 0.93371 0.0
C2011 C 0.53269 0.41993 0.95177 0.0
C2012 C 0.553 0.39556 0.93648 0.0
C2013 C 0.58145 0.38492 0.95264 0.0
C2014 C 0.58982 0.39834 0.98423 0.0
C2015 C 0.56945 0.42201 -6e-05 0.0
C2016 C 0.54085 0.4327 0.98392 0.0
C2017 C 0.35246 0.45388 0.94419 0.0
C2018 C 0.35234 0.4799 0.96856 0.0
C2019 C 0.38231 0.4387 0.93517 0.0
C2020 C 0.41241 0.45032 0.94961 0.0
C2021 C 0.41167 0.47373 0.97656 0.0
C2022 C 0.3817 0.48845 0.98603 0.0
C2023 C 0.44415 0.44478 0.93177 0.0
C2024 C 0.47184 0.4326 0.94864 0.0
C2025 C 0.44801 0.45552 0.89889 0.0
C2026 C 0.4208 0.47128 0.8807 0.0
C2027 C 0.40978 0.50303 0.89102 0.0
C2028 C 0.38439 0.51802 0.87352 0.0
C2029 C 0.36975 0.50139 0.84579 0.0
C2030 C 0.38074 0.46988 0.83527 0.0
C2031 C 0.40635 0.45491 0.85252 0.0
H2032 H 0.34997 0.51297 0.83239 0.0
H2033 H 0.612 0.39026 -0.00337 0.0
H2034 H 0.67672 0.2787 0.07606 0.0
H2035 H 0.66677 0.23405 0.11398 0.0
H2036 H 0.76746 0.24457 0.15074 0.0
H2037 H 0.7776 0.28966 0.11283 0.0
H2038 H 0.70158 0.17603 0.10862 0.0
H2039 H 0.76404 0.20904 0.23344 0.0
H2040 H 0.77951 0.25654 0.27158 0.0
H2041 H 0.70212 0.31431 0.23007 0.0
H2042 H 0.68541 0.26665 0.19263 0.0
H2043 H 0.64354 0.04371 0.20658 0.0
H2044 H 0.68942 0.07882 0.18784 0.0
H2045 H 0.63954 0.16562 0.22846 0.0
H2046 H 0.59556 0.13044 0.24959 0.0
H2047 H 0.70227 0.1767 0.23195 0.0
H2048 H 0.6374 0.14313 0.11051 0.0
H2049 H 0.62084 0.09615 0.07218 0.0
H2050 H 0.70704 0.04268 0.10108 0.0
H2051 H 0.72373 0.0894 0.13982 0.0
C2052 C 0.69662 0.27193 0.09255 0.0
C2053 C 0.72806 0.28744 0.09112 0.0
C2054 C 0.69093 0.24638 0.11421 0.0
C2055 C 0.71647 0.23577 0.13498 0.0
C2056 C 0.74738 0.25241 0.13503 0.0
C2057 C 0.75311 0.27813 0.11331 0.0
C2058 C 0.71106 0.20535 0.15384 0.0
C2059 C 0.70178 0.17615 0.13565 0.0
C2060 C 0.71324 0.20489 0.18894 0.0
C2061 C 0.72383 0.23438 0.20998 0.0
C2062 C 0.75035 0.23185 0.23253 0.0
C2063 C 0.75929 0.25876 0.25403 0.0
C2064 C 0.74201 0.28849 0.25304 0.0
C2065 C 0.71563 0.29131 0.23065 0.0
C2066 C 0.70641 0.26433 0.20927 0.0
C2067 C 0.64306 0.07023 0.21227 0.0
C2068 C 0.61591 0.08448 0.22922 0.0
C2069 C 0.66878 0.09046 0.20057 0.0
C2070 C 0.66719 0.12523 0.20474 0.0
C2071 C 0.64148 0.13896 0.22439 0.0
C2072 C 0.6162 0.11885 0.23651 0.0
C2073 C 0.68957 0.14827 0.1868 0.0
C2074 C 0.70279 0.17621 0.20491 0.0
C2075 C 0.69129 0.14757 0.15147 0.0
C2076 C 0.68047 0.11872 0.12975 0.0
C2077 C 0.65209 0.12084 0.10953 0.0
C2078 C 0.64291 0.09445 0.08744 0.0
C2079 C 0.66249 0.06612 0.08468 0.0
C2080 C 0.69152 0.06436 0.1037 0.0
C2081 C 0.70075 0.09074 0.12582 0.0
H2082 H 0.65545 0.04577 0.06744 0.0
H2083 H 0.74905 0.30924 0.26971 0.0
H2084 H 0.93881 0.54862 0.32154 0.0
H2085 H 0.99328 0.56286 0.34636 0.0
H2086 H -0.00172 0.46525 0.38549 0.0
H2087 H 0.94421 0.45073 0.36097 0.0
H2088 H 0.02359 0.56032 0.41338 0.0
H2089 H 0.07693 0.43546 0.35986 0.0
H2090 H 0.06481 0.39385 0.31442 0.0
H2091 H 0.01631 0.4678 0.25886 0.0
H2092 H 0.02907 0.51008 0.30348 0.0
H2093 H 0.16399 0.48963 0.48983 0.0
H2094 H 0.11168 0.50849 0.46721 0.0
H2095 H 0.16158 0.53425 0.37678 0.0
H2096 H 0.21397 0.51418 0.39912 0.0
H2097 H 0.11222 0.48835 0.36591 0.0
H2098 H 0.11621 0.60071 0.42178 0.0
H2099 H 0.13158 0.63376 0.47301 0.0
H2100 H 0.06562 0.57396 0.53006 0.0
H2101 H 0.04973 0.54086 0.47915 0.0
C2102 C 0.9512 0.53039 0.33598 0.0
C2103 C 0.93722 0.4984 0.339 0.0
C2104 C 0.98226 0.53865 0.35022 0.0
C2105 C -0.00015 0.51497 0.3674 0.0
C2106 C 0.98515 0.48376 0.37205 0.0
C2107 C 0.95424 0.47549 0.35791 0.0
C2108 C 0.03502 0.52098 0.37722 0.0
C2109 C 0.04279 0.54444 0.40312 0.0
C2110 C 0.06055 0.50111 0.36297 0.0
C2111 C 0.05384 0.47604 0.33523 0.0
C2112 C 0.06401 0.443 0.33782 0.0
C2113 C 0.05702 0.41924 0.31217 0.0
C2114 C 0.0398 0.42817 0.28377 0.0
C2115 C 0.02963 0.46089 0.2809 0.0
C2116 C 0.03681 0.48479 0.30635 0.0
C2117 C 0.16415 0.501 0.4659 0.0
C2118 C 0.19288 0.50054 0.44619 0.0
C2119 C 0.13417 0.51176 0.45289 0.0
C2120 C 0.13271 0.52291 0.42029 0.0
C2121 C 0.16219 0.52576 0.40198 0.0
C2122 C 0.19211 0.51463 0.41484 0.0
C2123 C 0.10002 0.52585 0.40365 0.0
C2124 C 0.09282 0.50419 0.37614 0.0
C2125 C 0.07487 0.54652 0.41699 0.0
C2126 C 0.08144 0.56873 0.44668 0.0
C2127 C 0.10464 0.59503 0.44521 0.0
C2128 C 0.11357 0.61362 0.47419 0.0
C2129 C 0.09972 0.60585 0.50479 0.0
C2130 C 0.07643 0.57988 0.50638 0.0
C2131 C 0.06712 0.56149 0.47741 0.0
H2132 H 0.10699 0.61997 0.52728 0.0
H2133 H 0.03432 0.40975 0.26398 0.0
H2134 H 0.79059 0.71869 0.59465 0.0
H2135 H 0.81756 0.75955 0.63303 0.0
H2136 H 0.8807 0.79124 0.5534 0.0
H2137 H 0.85445 0.74973 0.51508 0.0
H2138 H 0.91418 0.78639 0.61093 0.0
H2139 H 0.80594 0.83165 0.57811 0.0
H2140 H 0.74453 0.83 0.57693 0.0
H2141 H 0.74239 0.8277 0.68368 0.0
H2142 H 0.80378 0.82906 0.68543 0.0
H2143 H 0.95829 0.95987 0.6425 0.0
H2144 H 0.9315 0.91004 0.61661 0.0
H2145 H 0.88741 0.88856 0.71115 0.0
H2146 H 0.91544 0.93752 0.73732 0.0
H2147 H 0.84695 0.87823 0.65903 0.0
H2148 H 0.01371 0.82481 0.69468 0.0
H2149 H 0.06368 0.80213 0.65506 0.0
H2150 H 0.00369 0.79967 0.55219 0.0
H2151 H 0.94504 0.82405 0.5716 0.0
C2152 C 0.81029 0.73433 0.58532 0.0
C2153 C 0.82024 0.7313 0.55174 0.0
C2154 C 0.82565 0.75763 0.60732 0.0
C2155 C 0.85082 0.77869 0.59599 0.0
C2156 C 0.8613 0.77518 0.56266 0.0
C2157 C 0.8462 0.75163 0.54073 0.0
C2158 C 0.86558 0.80551 0.61803 0.0
C2159 C 0.9002 0.80718 0.62138 0.0
C2160 C 0.84623 0.83079 0.63304 0.0
C2161 C 0.80938 0.83005 0.63185 0.0
C2162 C 0.79234 0.83058 0.60128 0.0
C2163 C 0.75755 0.82974 0.60053 0.0
C2164 C 0.73958 0.82866 0.6302 0.0
C2165 C 0.75634 0.82849 0.66072 0.0
C2166 C 0.79111 0.8293 0.6616 0.0
C2167 C 0.94153 0.94531 0.65732 0.0
C2168 C 0.93892 0.95227 0.6919 0.0
C2169 C 0.92699 0.91646 0.64268 0.0
C2170 C 0.90933 0.89467 0.66246 0.0
C2171 C 0.90214 0.90455 0.69578 0.0
C2172 C 0.91746 0.93289 0.71063 0.0
C2173 C 0.89707 0.86207 0.64875 0.0
C2174 C 0.86219 0.85833 0.64858 0.0
C2175 C 0.91729 0.8352 0.63582 0.0
C2176 C 0.95563 0.83354 0.63131 0.0
C2177 C 0.00903 0.82315 0.66777 0.0
C2178 C 0.04027 0.80798 0.64355 0.0
C2179 C 0.03549 0.80073 0.6022 0.0
C2180 C 0.00141 0.80679 0.57837 0.0
C2181 C 0.96432 0.82257 0.59031 0.0
H2182 H 0.05684 0.79066 0.58915 0.0
H2183 H 0.71265 0.82802 0.62956 0.0
H2184 H 0.578 0.5885 0.70477 0.0
H2185 H 0.53584 0.59096 0.66133 0.0
H2186 H 0.54141 0.48486 0.6431 0.0
H2187 H 0.58441 0.48225 0.68622 0.0
H2188 H 0.53193 0.51794 0.58472 0.0
H2189 H 0.48465 0.51924 0.69752 0.0
H2190 H 0.47697 0.54254 0.75481 0.0
H2191 H 0.44584 0.6349 0.71651 0.0
H2192 H 0.45379 0.61226 0.65899 0.0
H2193 H 0.38081 0.44445 0.55108 0.0
H2194 H 0.43477 0.46901 0.5647 0.0
H2195 H 0.3902 0.5657 0.57709 0.0
H2196 H 0.33511 0.54006 0.56547 0.0
H2197 H 0.42257 0.55404 0.62928 0.0
H2198 H 0.46529 0.55591 0.51814 0.0
H2199 H 0.47089 0.53541 0.4596 0.0
H2200 H 0.50615 0.44216 0.49191 0.0
H2201 H 0.50185 0.46253 0.55073 0.0
C2202 C 0.57037 0.56564 0.6915 0.0
C2203 C 0.58405 0.53503 0.69939 0.0
C2204 C 0.54645 0.56718 0.66649 0.0
C2205 C 0.53514 0.53806 0.64942 0.0
C2206 C 0.54977 0.50763 0.65611 0.0
C2207 C 0.57407 0.50611 0.68095 0.0
C2208 C 0.50566 0.53872 0.62737 0.0
C2209 C 0.50802 0.52595 0.59436 0.0
C2210 C 0.47475 0.55061 0.6394 0.0
C2211 C 0.47027 0.56422 0.67401 0.0
C2212 C 0.47647 0.54461 0.70134 0.0
C2213 C 0.47202 0.55768 0.73385 0.0
C2214 C 0.46105 0.59022 0.7393 0.0
C2215 C 0.45444 0.60974 0.71225 0.0
C2216 C 0.45893 0.59681 0.67971 0.0
C2217 C 0.38274 0.47106 0.5561 0.0
C2218 C 0.3541 0.49036 0.55807 0.0
C2219 C 0.41374 0.48531 0.56315 0.0
C2220 C 0.41691 0.51945 0.57135 0.0
C2221 C 0.38842 0.53934 0.57063 0.0
C2222 C 0.35706 0.52482 0.56404 0.0
C2223 C 0.44837 0.53214 0.58691 0.0
C2224 C 0.44659 0.54731 0.61895 0.0
C2225 C 0.47975 0.52311 0.5738 0.0
C2226 C 0.48328 0.51076 0.53871 0.0
C2227 C 0.47437 0.53108 0.51272 0.0
C2228 C 0.4775 0.51956 0.47954 0.0
C2229 C 0.48906 0.48756 0.47208 0.0
C2230 C 0.49757 0.46704 0.49779 0.0
C2231 C 0.49504 0.47865 0.53104 0.0
H2232 H 0.49134 0.47864 0.44637 0.0
H2233 H 0.45757 0.60027 0.76448 0.0
H2234 H 0.82949 0.25882 0.9589 0.0
H2235 H 0.85606 0.2292 0.91194 0.0
H2236 H 0.78762 0.27267 0.84405 0.0
H2237 H 0.76004 0.30132 0.89114 0.0
H2238 H 0.79924 0.21104 0.8235 0.0
H2239 H 0.86621 0.3051 0.85329 0.0
H2240 H 0.89486 0.34436 0.89303 0.0
H2241 H 0.95954 0.26692 0.92221 0.0
H2242 H 0.93116 0.22714 0.88279 0.0
H2243 H 0.97628 0.17353 0.73977 0.0
H2244 H 0.93319 0.21235 0.75846 0.0
H2245 H 0.87264 0.12996 0.78946 0.0
H2246 H 0.91477 0.09137 0.76894 0.0
H2247 H 0.92211 0.22248 0.81816 0.0
H2248 H 0.79444 0.14971 0.80885 0.0
H2249 H 0.76265 0.1152 0.76734 0.0
H2250 H 0.81634 0.15971 0.6882 0.0
H2251 H 0.8482 0.19487 0.72918 0.0
C2252 C 0.81991 0.2618 0.934 0.0
C2253 C 0.79292 0.2826 0.92866 0.0
C2254 C 0.83517 0.24499 0.90715 0.0
C2255 C 0.82431 0.24932 0.87436 0.0
C2256 C 0.79651 0.26905 0.86907 0.0
C2257 C 0.78085 0.28547 0.89602 0.0
C2258 C 0.84297 0.2342 0.84578 0.0
C2259 C 0.8261 0.21354 0.82206 0.0
C2260 C 0.87776 0.23886 0.84299 0.0
C2261 C 0.89636 0.26308 0.86526 0.0
C2262 C 0.88658 0.29646 0.86816 0.0
C2263 C 0.90275 0.3188 0.89063 0.0
C2264 C 0.92887 0.30811 0.91024 0.0
C2265 C 0.93926 0.27517 0.90703 0.0
C2266 C 0.9232 0.25272 0.88454 0.0
C2267 C 0.95296 0.16378 0.74898 0.0
C2268 C 0.94865 0.12955 0.75274 0.0
C2269 C 0.92844 0.18593 0.75996 0.0
C2270 C 0.89956 0.1743 0.77569 0.0
C2271 C 0.89417 0.1398 0.77689 0.0
C2272 C 0.91836 0.11763 0.76518 0.0
C2273 C 0.87872 0.19767 0.79626 0.0
C2274 C 0.8952 0.22015 0.81875 0.0
C2275 C 0.84345 0.19543 0.79705 0.0
C2276 C 0.82411 0.17462 0.77217 0.0
C2277 C 0.79942 0.15227 0.7826 0.0
C2278 C 0.78138 0.13256 0.75916 0.0
C2279 C 0.78769 0.13506 0.7252 0.0
C2280 C 0.8117 0.15761 0.71455 0.0
C2281 C 0.82983 0.17737 0.73788 0.0
H2282 H 0.77405 0.11943 0.70715 0.0
H2283 H 0.94096 0.32536 0.92796 0.0
H2284 H 0.96021 0.41095 0.21393 0.0
H2285 H 0.01088 0.41708 0.18125 0.0
H2286 H 0.96804 0.49906 0.13188 0.0
H2287 H 0.91745 0.49408 0.16558 0.0
H2288 H 0.00644 0.43329 0.09384 0.0
H2289 H 0.009 0.52883 0.17045 0.0
H2290 H 0.00988 0.56336 0.22238 0.0
H2291 H 0.09443 0.51062 0.25656 0.0
H2292 H 0.09329 0.47481 0.20519 0.0
H2293 H 0.15697 0.50352 0.02486 0.0
H2294 H 0.1014 0.48772 0.04383 0.0
H2295 H 0.14493 0.44038 0.12736 0.0
H2296 H 0.20041 0.45652 0.10858 0.0
H2297 H 0.10417 0.49218 0.14555 0.0
H2298 H 0.09801 0.39335 0.07188 0.0
H2299 H 0.10538 0.36649 0.01601 0.0
H2300 H 0.03369 0.43197 0.97593 0.0
H2301 H 0.02532 0.45849 0.03155 0.0
C2302 C 0.96131 0.43006 0.19585 0.0
C2303 C 0.93482 0.45203 0.19227 0.0
C2304 C 0.99036 0.43364 0.17742 0.0
C2305 C 0.99318 0.45879 0.15467 0.0
C2306 C 0.96633 0.47983 0.14979 0.0
C2307 C 0.93748 0.47684 0.16888 0.0
C2308 C 0.02453 0.46286 0.1364 0.0
C2309 C 0.02771 0.44647 0.10499 0.0
C2310 C 0.05236 0.47957 0.15136 0.0
C2311 C 0.05066 0.49863 0.18392 0.0
C2312 C 0.0272 0.52384 0.18927 0.0
C2313 C 0.0279 0.54388 0.2186 0.0
C2314 C 0.05225 0.53927 0.24272 0.0
C2315 C 0.07564 0.51427 0.23778 0.0
C2316 C 0.0748 0.49393 0.20864 0.0
C2317 C 0.15467 0.48806 0.04613 0.0
C2318 C 0.18274 0.48109 0.0653 0.0
C2319 C 0.12293 0.47931 0.05714 0.0
C2320 C 0.11914 0.46327 0.08723 0.0
C2321 C 0.14742 0.45298 0.10422 0.0
C2322 C 0.17905 0.46179 0.09329 0.0
C2323 C 0.08632 0.46184 0.10365 0.0
C2324 C 0.08289 0.47878 0.13465 0.0
C2325 C 0.05843 0.44577 0.08849 0.0
C2326 C 0.06119 0.42796 0.05572 0.0
C2327 C 0.08367 0.40178 0.0511 0.0
C2328 C 0.08795 0.38654 0.01952 0.0
C2329 C 0.07005 0.39745 0.99239 0.0
C2330 C 0.04742 0.42329 -0.00311 0.0
C2331 C 0.04267 0.43828 0.0285 0.0
H2332 H 0.07387 0.38585 0.96796 0.0
H2333 H 0.05297 0.55504 0.26527 0.0
H2334 H 0.77654 0.71586 0.38479 0.0
H2335 H 0.75402 0.7552 0.34607 0.0
H2336 H 0.6544 0.72719 0.37416 0.0
H2337 H 0.67671 0.68919 0.41407 0.0
H2338 H 0.70481 0.75853 0.29201 0.0
H2339 H 0.62212 0.78256 0.40215 0.0
H2340 H 0.62547 0.77513 0.46273 0.0
H2341 H 0.72793 0.80641 0.46333 0.0
H2342 H 0.72569 0.81236 0.40244 0.0
H2343 H 0.55884 0.86555 0.27214 0.0
H2344 H 0.59645 0.82074 0.285 0.0
H2345 H 0.67513 0.8924 0.3065 0.0
H2346 H 0.63731 0.93762 0.29396 0.0
H2347 H 0.6443 0.84331 0.36107 0.0
H2348 H 0.7292 0.82716 0.25834 0.0
H2349 H 0.73351 0.83512 0.19791 0.0
H2350 H 0.63469 0.795 0.18331 0.0
H2351 H 0.62985 0.78708 0.24362 0.0
C2352 C 0.74981 0.71757 0.38214 0.0
C2353 C 0.72832 0.69998 0.40289 0.0
C2354 C 0.73702 0.73989 0.35983 0.0
C2355 C 0.70261 0.74446 0.35765 0.0
C2356 C 0.6811 0.72436 0.37587 0.0
C2357 C 0.69384 0.70272 0.39872 0.0
C2358 C 0.6892 0.7739 0.34163 0.0
C2359 C 0.69163 0.77706 0.30704 0.0
C2360 C 0.67316 0.79883 0.36126 0.0
C2361 C 0.67359 0.79837 0.39803 0.0
C2362 C 0.64518 0.78834 0.41534 0.0
C2363 C 0.64697 0.78405 0.44962 0.0
C2364 C 0.67668 0.79079 0.46696 0.0
C2365 C 0.70486 0.80141 0.44994 0.0
C2366 C 0.70345 0.80498 0.41552 0.0
C2367 C 0.58449 0.87166 0.2785 0.0
C2368 C 0.5952 0.905 0.28214 0.0
C2369 C 0.60595 0.84606 0.28571 0.0
C2370 C 0.63856 0.85331 0.2964 0.0
C2371 C 0.65011 0.88639 0.29787 0.0
C2372 C 0.62859 0.91212 0.29055 0.0
C2373 C 0.65817 0.82698 0.31122 0.0
C2374 C 0.6574 0.82478 0.34591 0.0
C2375 C 0.67605 0.80341 0.29164 0.0
C2376 C 0.67923 0.80648 0.25532 0.0
C2377 C 0.70852 0.81988 0.24213 0.0
C2378 C 0.71098 0.82454 0.20795 0.0
C2379 C 0.68442 0.81551 0.18674 0.0
C2380 C 0.6553 0.8019 0.19971 0.0
C2381 C 0.65265 0.79739 0.23389 0.0
H2382 H 0.68644 0.81899 0.16026 0.0
H2383 H 0.67789 0.78757 0.49354 0.0
H2384 H 0.87945 0.5641 0.521 0.0
H2385 H 0.90281 0.51037 0.50515 0.0
H2386 H 0.8278 0.49375 0.42951 0.0
H2387 H 0.80413 0.54835 0.44466 0.0
H2388 H 0.84459 0.43561 0.47466 0.0
H2389 H 0.89441 0.51272 0.40103 0.0
H2390 H 0.9148 0.57011 0.39537 0.0
H2391 H 0.9918 0.5546 0.46697 0.0
H2392 H 0.97198 0.49725 0.47304 0.0
H2393 H 0.94626 0.29794 0.46398 0.0
H2394 H 0.91806 0.34269 0.43629 0.0
H2395 H 0.98101 0.41477 0.48984 0.0
H2396 H 0.01008 0.37007 0.51582 0.0
H2397 H 0.9618 0.44101 0.43621 0.0
H2398 H 0.90452 0.3817 0.52454 0.0
H2399 H 0.87918 0.33212 0.54878 0.0
H2400 H 0.81532 0.31778 0.46334 0.0
H2401 H 0.84022 0.3674 0.43872 0.0
C2402 C 0.86782 0.54913 0.501 0.0
C2403 C 0.84019 0.56062 0.48388 0.0
C2404 C 0.88087 0.5182 0.49244 0.0
C2405 C 0.86665 0.49788 0.46683 0.0
C2406 C 0.83883 0.50894 0.44969 0.0
C2407 C 0.82578 0.5403 0.45802 0.0
C2408 C 0.88369 0.46679 0.45651 0.0
C2409 C 0.86975 0.43635 0.46496 0.0
C2410 C 0.91668 0.46815 0.44466 0.0
C2411 C 0.93203 0.50054 0.43707 0.0
C2412 C 0.91603 0.52147 0.4152 0.0
C2413 C 0.92731 0.55407 0.41211 0.0
C2414 C 0.9547 0.56596 0.43062 0.0
C2415 C 0.97084 0.54529 0.45232 0.0
C2416 C 0.95981 0.5126 0.45536 0.0
C2417 C 0.9553 0.32325 0.4681 0.0
C2418 C 0.98039 0.33073 0.49177 0.0
C2419 C 0.93884 0.34887 0.45275 0.0
C2420 C 0.94659 0.38221 0.46184 0.0
C2421 C 0.97437 0.38933 0.48243 0.0
C2422 C 0.99121 0.36375 0.49718 0.0
C2423 C 0.92312 0.4094 0.45519 0.0
C2424 C 0.93599 0.43944 0.44384 0.0
C2425 C 0.88923 0.40774 0.4651 0.0
C2426 C 0.87444 0.3779 0.47969 0.0
C2427 C 0.88515 0.36786 0.51095 0.0
C2428 C 0.87086 0.33982 0.52475 0.0
C2429 C 0.8458 0.32172 0.50755 0.0
C2430 C 0.83481 0.33176 0.47659 0.0
C2431 C 0.84894 0.35986 0.46273 0.0
H2432 H 0.83482 0.29998 0.51827 0.0
H2433 H 0.96342 0.59113 0.42792 0.0
H2434 H 0.2898 0.96598 0.57532 0.0
H2435 H 0.30997 0.01946 0.59978 0.0
H2436 H 0.41118 0.98714 0.58784 0.0
H2437 H 0.39089 0.93426 0.56238 0.0
H2438 H 0.3925 0.03628 0.64901 0.0
H2439 H 0.38839 0.0144 0.52838 0.0
H2440 H 0.35978 0.99647 0.47624 0.0
H2441 H 0.28869 0.07392 0.49176 0.0
H2442 H 0.31534 0.09074 0.54542 0.0
H2443 H 0.49305 0.16423 0.57534 0.0
H2444 H 0.46664 0.11802 0.60325 0.0
H2445 H 0.37279 0.16828 0.60197 0.0
H2446 H 0.39916 0.21458 0.57439 0.0
H2447 H 0.38049 0.11244 0.55641 0.0
H2448 H 0.39334 0.14508 0.66769 0.0
H2449 H 0.4156 0.16259 0.72276 0.0
H2450 H 0.46503 0.06951 0.72892 0.0
H2451 H 0.44531 0.05218 0.67272 0.0
C2452 C 0.31629 0.96988 0.57916 0.0
C2453 C 0.339 0.94632 0.56677 0.0
C2454 C 0.32774 0.00031 0.59322 0.0
C2455 C 0.36202 0.00716 0.59552 0.0
C2456 C 0.38463 0.98214 0.58659 0.0
C2457 C 0.37314 0.9521 0.57171 0.0
C2458 C 0.37403 0.04192 0.5995 0.0
C2459 C 0.39033 0.05314 0.62891 0.0
C2460 C 0.36981 0.06383 0.57342 0.0
C2461 C 0.35343 0.05332 0.54138 0.0
C2462 C 0.36612 0.02704 0.52121 0.0
C2463 C 0.35034 0.01716 0.49129 0.0
C2464 C 0.32265 0.03421 0.48052 0.0
C2465 C 0.31019 0.06075 0.50007 0.0
C2466 C 0.32542 0.07026 0.53043 0.0
C2467 C 0.4673 0.16634 0.58294 0.0
C2468 C 0.44796 0.19262 0.57231 0.0
C2469 C 0.45219 0.13989 0.59888 0.0
C2470 C 0.41769 0.13959 0.60427 0.0
C2471 C 0.39945 0.16808 0.59805 0.0
C2472 C 0.41453 0.1945 0.58227 0.0
C2473 C 0.39988 0.10729 0.60598 0.0
C2474 C 0.38255 0.09619 0.57712 0.0
C2475 C 0.40316 0.08591 0.63278 0.0
C2476 C 0.41813 0.09748 0.66532 0.0
C2477 C 0.41003 0.12873 0.68002 0.0
C2478 C 0.42219 0.13863 0.71161 0.0
C2479 C 0.44211 0.11734 0.72916 0.0
C2480 C 0.45012 0.0862 0.71502 0.0
C2481 C 0.43855 0.07638 0.68319 0.0
H2482 H 0.4511 0.12484 0.75382 0.0
H2483 H 0.31102 0.02691 0.45694 0.0
H2484 H 0.34814 0.12859 0.74002 0.0
H2485 H 0.31798 0.17677 0.72179 0.0
H2486 H 0.28465 0.12001 0.63391 0.0
H2487 H 0.3159 0.07242 0.65119 0.0
H2488 H 0.28897 0.18189 0.61969 0.0
H2489 H 0.23996 0.12064 0.70898 0.0
H2490 H 0.24107 0.09736 0.76472 0.0
H2491 H 0.25481 0.19525 0.80978 0.0
H2492 H 0.25368 0.2191 0.75412 0.0
H2493 H 0.10569 0.19342 0.63467 0.0
H2494 H 0.15743 0.18613 0.66461 0.0
H2495 H 0.20174 0.26844 0.61464 0.0
H2496 H 0.14981 0.27461 0.58321 0.0
H2497 H 0.20188 0.21077 0.70298 0.0
H2498 H 0.27935 0.24849 0.59173 0.0
H2499 H 0.27316 0.25853 0.53183 0.0
H2500 H 0.19179 0.18823 0.52456 0.0
H2501 H 0.19775 0.17762 0.58429 0.0
C2502 C 0.33503 0.12667 0.71641 0.0
C2503 C 0.33363 0.09645 0.69745 0.0
C2504 C 0.31783 0.15425 0.70601 0.0
C2505 C 0.29822 0.15175 0.67699 0.0
C2506 C 0.29936 0.12255 0.65654 0.0
C2507 C 0.31702 0.09518 0.66662 0.0
C2508 C 0.27276 0.17698 0.67027 0.0
C2509 C 0.2703 0.18882 0.63809 0.0
C2510 C 0.24804 0.18566 0.69409 0.0
C2511 C 0.24742 0.17158 0.7275 0.0
C2512 C 0.24334 0.13717 0.7308 0.0
C2513 C 0.24396 0.12388 0.76233 0.0
C2514 C 0.24832 0.14481 0.79075 0.0
C2515 C 0.25184 0.17907 0.7877 0.0
C2516 C 0.25115 0.19249 0.75619 0.0
C2517 C 0.12613 0.2107 0.63096 0.0
C2518 C 0.12412 0.23415 0.60631 0.0
C2519 C 0.15577 0.20662 0.64817 0.0
C2520 C 0.18397 0.22606 0.64119 0.0
C2521 C 0.18059 0.25256 0.61982 0.0
C2522 C 0.15085 0.25636 0.60214 0.0
C2523 C 0.21715 0.2144 0.65184 0.0
C2524 C 0.22126 0.20521 0.68491 0.0
C2525 C 0.24241 0.2065 0.6283 0.0
C2526 C 0.23874 0.21263 0.59244 0.0
C2527 C 0.26019 0.23519 0.57728 0.0
C2528 C 0.25672 0.24097 0.54339 0.0
C2529 C 0.23203 0.22411 0.52443 0.0
C2530 C 0.21084 0.20134 0.53928 0.0
C2531 C 0.21425 0.19544 0.57313 0.0
H2532 H 0.22937 0.22863 0.49821 0.0
H2533 H 0.24876 0.13451 0.81516 0.0
H2534 H 0.15801 0.0957 0.10124 0.0
H2535 H 0.1293 0.04276 0.10811 0.0
H2536 H 0.13954 0.01859 0.00294 0.0
H2537 H 0.16768 0.07188 0.99573 0.0
H2538 H 0.08553 0.98997 0.02521 0.0
H2539 H 0.20115 0.98775 0.05196 0.0
H2540 H 0.25124 0.01544 0.0765 0.0
H2541 H 0.20542 0.01817 0.17293 0.0
H2542 H 0.15578 0.98878 0.14916 0.0
H2543 H 0.14669 0.82023 0.03548 0.0
H2544 H 0.15725 0.8764 0.0582 0.0
H2545 H 0.05261 0.88766 0.07828 0.0
H2546 H 0.04137 0.83296 0.05272 0.0
H2547 H 0.15062 0.92427 0.10349 0.0
H2548 H 0.02526 0.95255 0.04159 0.0
H2549 H 0.98527 0.92603 0.00152 0.0
H2550 H 0.0641 0.86982 0.95548 0.0
H2551 H 0.10459 0.89669 0.99477 0.0
C2552 C 0.15305 0.07963 0.07937 0.0
C2553 C 0.1657 0.08748 0.04808 0.0
C2554 C 0.13695 0.04927 0.08341 0.0
C2555 C 0.13348 0.02632 0.05627 0.0
C2556 C 0.14239 0.03583 0.02428 0.0
C2557 C 0.15829 0.0664 0.02015 0.0
C2558 C 0.12461 0.9913 0.06189 0.0
C2559 C 0.09888 0.97592 0.04319 0.0
C2560 C 0.14375 0.97237 0.08352 0.0
C2561 C 0.1748 0.98623 0.09885 0.0
C2562 C 0.20207 0.9937 0.07852 0.0
C2563 C 0.2304 0.00954 0.0923 0.0
C2564 C 0.23159 0.01828 0.12634 0.0
C2565 C 0.20461 0.01084 0.14669 0.0
C2566 C 0.17649 0.99433 0.13315 0.0
C2567 C 0.12595 0.83434 0.04543 0.0
C2568 C 0.09302 0.82277 0.04042 0.0
C2569 C 0.13212 0.86637 0.05891 0.0
C2570 C 0.10546 0.88672 0.06842 0.0
C2571 C 0.0734 0.87264 0.07 0.0
C2572 C 0.06706 0.84103 0.05552 0.0
C2573 C 0.10995 0.92328 0.06826 0.0
C2574 C 0.13561 0.93882 0.08726 0.0
C2575 C 0.09184 0.94205 0.04546 0.0
C2576 C 0.0678 0.92644 0.02124 0.0
C2577 C 0.03404 0.93479 0.02271 0.0
C2578 C 0.0113 0.91967 0.00016 0.0
C2579 C 0.02212 0.89621 0.97601 0.0
C2580 C 0.05574 0.88799 0.97419 0.0
C2581 C 0.07859 0.90321 -0.00346 0.0
H2582 H 0.00445 0.88442 0.95869 0.0
H2583 H 0.25335 0.03096 0.13691 0.0
H2584 H 0.72067 0.41399 0.67842 0.0
H2585 H 0.76529 0.37672 0.66022 0.0
H2586 H 0.78978 0.36046 0.76267 0.0
H2587 H 0.74431 0.39633 0.78102 0.0
H2588 H 0.83305 0.39728 0.68761 0.0
H2589 H 0.8045 0.30401 0.76252 0.0
H2590 H 0.76827 0.26048 0.785 0.0
H2591 H 0.74154 0.22647 0.68567 0.0
H2592 H 0.77626 0.27068 0.66264 0.0
H2593 H 0.97874 0.31236 0.63665 0.0
H2594 H 0.93531 0.3269 0.67752 0.0
H2595 H 0.86045 0.28589 0.60962 0.0
H2596 H 0.90364 0.27169 0.56883 0.0
H2597 H 0.8472 0.27514 0.67848 0.0
H2598 H 0.88181 0.36241 0.60462 0.0
H2599 H 0.92393 0.40003 0.58162 0.0
H2600 H 0.94244 0.44417 0.67933 0.0
H2601 H 0.90127 0.40589 0.7031 0.0
C2602 C 0.73483 0.40155 0.69701 0.0
C2603 C 0.72906 0.40809 0.7311 0.0
C2604 C 0.7602 0.38019 0.68662 0.0
C2605 C 0.78044 0.36533 0.71011 0.0
C2606 C 0.77379 0.37065 0.74413 0.0
C2607 C 0.74795 0.39148 0.75455 0.0
C2608 C 0.81171 0.34971 0.69882 0.0
C2609 C 0.83645 0.37058 0.68621 0.0
C2610 C 0.81618 0.31498 0.69713 0.0
C2611 C 0.79196 0.29143 0.71095 0.0
C2612 C 0.78981 0.28811 0.74554 0.0
C2613 C 0.76971 0.26314 0.75836 0.0
C2614 C 0.75215 0.24105 0.73676 0.0
C2615 C 0.75448 0.244 0.70236 0.0
C2616 C 0.7742 0.26912 0.68942 0.0
C2617 C 0.95309 0.30553 0.63108 0.0
C2618 C 0.94425 0.29113 0.59977 0.0
C2619 C 0.9284 0.31388 0.65428 0.0
C2620 C 0.89478 0.30764 0.64637 0.0
C2621 C 0.88629 0.29074 0.61619 0.0
C2622 C 0.91086 0.28277 0.59291 0.0
C2623 C 0.8681 0.32269 0.66689 0.0
C2624 C 0.84421 0.30186 0.68082 0.0
C2625 C 0.86455 0.35755 0.67016 0.0
C2626 C 0.88887 0.3809 0.65571 0.0
C2627 C 0.89516 0.37983 0.62125 0.0
C2628 C 0.91887 0.40125 0.60808 0.0
C2629 C 0.93592 0.42439 0.62902 0.0
C2630 C 0.9293 0.42614 0.66317 0.0
C2631 C 0.90587 0.4045 0.67652 0.0
H2632 H 0.95417 0.44107 0.61876 0.0
H2633 H 0.73715 0.22137 0.74661 0.0
H2634 H 0.69429 0.45244 0.02243 0.0
H2635 H 0.66525 0.50496 0.01951 0.0
H2636 H 0.61998 0.47042 0.92642 0.0
H2637 H 0.65118 0.41915 0.92803 0.0
H2638 H 0.64884 0.52677 0.91836 0.0
H2639 H 0.5695 0.49325 0.01081 0.0
H2640 H 0.56036 0.47487 0.06822 0.0
H2641 H 0.62696 0.55187 0.1064 0.0
H2642 H 0.63628 0.57034 0.0494 0.0
H2643 H 0.52956 0.67262 0.97564 0.0
H2644 H 0.5423 0.61567 0.95722 0.0
H2645 H 0.64576 0.64329 0.94746 0.0
H2646 H 0.63293 0.7003 0.96533 0.0
H2647 H 0.58413 0.58971 0.00417 0.0
H2648 H 0.68702 0.57977 0.90801 0.0
H2649 H 0.70538 0.60749 0.85776 0.0
H2650 H 0.60385 0.62711 0.8328 0.0
H2651 H 0.58483 0.59943 0.88304 0.0
C2652 C 0.67723 0.45571 0.00194 0.0
C2653 C 0.67497 0.43187 0.97542 0.0
C2654 C 0.66043 0.48577 0.00033 0.0
C2655 C 0.64011 0.49188 0.97274 0.0
C2656 C 0.63566 0.46663 0.94777 0.0
C2657 C 0.65331 0.43718 0.94881 0.0
C2658 C 0.62702 0.5256 0.9674 0.0
C2659 C 0.63421 0.54026 0.937 0.0
C2660 C 0.60927 0.54415 0.99204 0.0
C2661 C 0.60391 0.53258 0.02599 0.0
C2662 C 0.58238 0.50576 0.03153 0.0
C2663 C 0.57707 0.49554 0.06394 0.0
C2664 C 0.59324 0.51212 0.09087 0.0
C2665 C 0.61454 0.53901 0.08552 0.0
C2666 C 0.61974 0.54939 0.05323 0.0
C2667 C 0.55456 0.66708 0.96731 0.0
C2668 C 0.58038 0.69061 0.97235 0.0
C2669 C 0.56191 0.63441 0.95714 0.0
C2670 C 0.59505 0.62514 0.95161 0.0
C2671 C 0.62 0.64985 0.95147 0.0
C2672 C 0.61263 0.68253 0.96154 0.0
C2673 C 0.60446 0.59001 0.95461 0.0
C2674 C 0.59756 0.57559 0.985 0.0
C2675 C 0.62375 0.57247 0.93057 0.0
C2676 C 0.63453 0.58771 0.8994 0.0
C2677 C 0.66857 0.58977 0.89167 0.0
C2678 C 0.67912 0.60559 0.86325 0.0
C2679 C 0.65582 0.61923 0.84216 0.0
C2680 C 0.62188 0.61678 0.84931 0.0
C2681 C 0.61121 0.60109 0.87781 0.0
H2682 H 0.66406 0.63147 0.82015 0.0
H2683 H 0.58933 0.50424 0.11593 0.0
H2684 H 0.25576 0.98865 0.80761 0.0
H2685 H 0.21404 0.95195 0.83195 0.0
H2686 H 0.25413 0.86824 0.77544 0.0
H2687 H 0.29462 0.90471 0.75007 0.0
H2688 H 0.18677 0.86424 0.77808 0.0
H2689 H 0.27895 0.88857 0.85497 0.0
H2690 H 0.31493 0.92691 0.88918 0.0
H2691 H 0.22984 0.96166 0.94408 0.0
H2692 H 0.19325 0.92419 0.90969 0.0
H2693 H 0.15681 0.76623 0.94159 0.0
H2694 H 0.19066 0.79087 0.89841 0.0
H2695 H 0.10252 0.83177 0.85571 0.0
H2696 H 0.06853 0.80668 0.8988 0.0
H2697 H 0.19219 0.85728 0.90072 0.0
H2698 H 0.1251 0.85189 0.7706 0.0
H2699 H 0.09379 0.81194 0.73378 0.0
H2700 H 0.13576 0.7308 0.78436 0.0
H2701 H 0.16828 0.7701 0.82062 0.0
C2702 C 0.25527 0.96251 0.80005 0.0
C2703 C 0.27858 0.9495 0.77717 0.0
C2704 C 0.23146 0.9416 0.81391 0.0
C2705 C 0.23112 0.90733 0.80558 0.0
C2706 C 0.25364 0.89462 0.78187 0.0
C2707 C 0.277 0.91551 0.76765 0.0
C2708 C 0.20941 0.88406 0.82339 0.0
C2709 C 0.18804 0.86236 0.80483 0.0
C2710 C 0.21109 0.88196 0.85836 0.0
C2711 C 0.23332 0.90386 0.87949 0.0
C2712 C 0.26789 0.90457 0.87416 0.0
C2713 C 0.28837 0.92621 0.89351 0.0
C2714 C 0.2746 0.94678 0.91863 0.0
C2715 C 0.2404 0.94575 0.92454 0.0
C2716 C 0.21979 0.92439 0.90509 0.0
C2717 C 0.14458 0.77924 0.92208 0.0
C2718 C 0.11023 0.78475 0.92342 0.0
C2719 C 0.16388 0.7934 0.89754 0.0
C2720 C 0.14913 0.81344 0.87412 0.0
C2721 C 0.11435 0.81619 0.8734 0.0
C2722 C 0.09495 0.80181 0.89794 0.0
C2723 C 0.17035 0.83624 0.85524 0.0
C2724 C 0.19127 0.8584 0.87379 0.0
C2725 C 0.16879 0.83803 0.82018 0.0
C2726 C 0.14869 0.8141 0.79888 0.0
C2727 C 0.12768 0.82553 0.77391 0.0
C2728 C 0.1098 0.80296 0.753 0.0
C2729 C 0.11266 0.76885 0.75682 0.0
C2730 C 0.13346 0.75724 0.78149 0.0
C2731 C 0.15161 0.77967 0.80227 0.0
H2732 H 0.09889 0.75141 0.74055 0.0
H2733 H 0.29038 0.96344 0.93364 0.0
H2734 H 0.26402 0.02138 0.33697 0.0
H2735 H 0.3037 0.06014 0.36509 0.0
H2736 H 0.29231 0.12824 0.28632 0.0
H2737 H 0.25233 0.08997 0.2583 0.0
H2738 H 0.35909 0.11969 0.3069 0.0
H2739 H 0.25273 0.14445 0.35031 0.0
H2740 H 0.19812 0.13683 0.37671 0.0
H2741 H 0.24577 0.10904 0.46673 0.0
H2742 H 0.30079 0.11488 0.44039 0.0
H2743 H 0.39532 0.24623 0.46137 0.0
H2744 H 0.3594 0.22209 0.41683 0.0
H2745 H 0.43211 0.14622 0.39568 0.0
H2746 H 0.46843 0.17136 0.43915 0.0
H2747 H 0.33128 0.16581 0.4198 0.0
H2748 H 0.421 0.10913 0.31876 0.0
H2749 H 0.47256 0.12433 0.28963 0.0
H2750 H 0.45376 0.22772 0.31093 0.0
H2751 H 0.4018 0.2132 0.33967 0.0
C2752 C 0.27005 0.04456 0.32561 0.0
C2753 C 0.25474 0.05287 0.29571 0.0
C2754 C 0.29262 0.06664 0.3417 0.0
C2755 C 0.30045 0.09714 0.32794 0.0
C2756 C 0.28639 0.10485 0.29735 0.0
C2757 C 0.26352 0.083 0.28146 0.0
C2758 C 0.32264 0.12136 0.34603 0.0
C2759 C 0.35317 0.12984 0.33162 0.0
C2760 C 0.31416 0.13529 0.37777 0.0
C2761 C 0.28101 0.12968 0.39312 0.0
C2762 C 0.25165 0.13597 0.37547 0.0
C2763 C 0.22058 0.13207 0.39049 0.0
C2764 C 0.2185 0.12247 0.42338 0.0
C2765 C 0.24748 0.11646 0.44124 0.0
C2766 C 0.2786 0.11984 0.4262 0.0
C2767 C 0.40402 0.22523 0.44618 0.0
C2768 C 0.43458 0.21077 0.45311 0.0
C2769 C 0.38349 0.21128 0.42097 0.0
C2770 C 0.39302 0.18233 0.40278 0.0
C2771 C 0.42444 0.16892 0.40875 0.0
C2772 C 0.44516 0.1832 0.4336 0.0
C2773 C 0.36848 0.16359 0.38123 0.0
C2774 C 0.33739 0.1559 0.39504 0.0
C2775 C 0.37619 0.15102 0.34869 0.0
C2776 C 0.4076 0.16002 0.33168 0.0
C2777 C 0.4278 0.13512 0.31716 0.0
C2778 C 0.45711 0.14361 0.30071 0.0
C2779 C 0.46648 0.17696 0.29853 0.0
C2780 C 0.44654 0.20189 0.31276 0.0
C2781 C 0.41717 0.19353 0.32919 0.0
H2782 H 0.48917 0.18349 0.28576 0.0
H2783 H 0.19443 0.11957 0.43501 0.0
loop_
_geom_bond_atom_site_label_1
_geom_bond_atom_site_label_2
_geom_bond_distance
_geom_bond_site_symmetry_2
_ccdc_geom_bond_type
C0 O1 1.306 . S
C0 O3 1.160 . S
O1 C0 1.306 . S
O1 Cd2 2.228 . S
Cd2 O1 2.228 . S
Cd2 O6 2.273 . S
Cd2 O10 2.277 1_455 S
O3 C0 1.160 . S
O3 Cd4 2.203 1_455 S
Cd4 O3 2.203 1_655 S
Cd4 O6 2.411 1_655 S
Cd4 O7 2.333 . S
Cd4 O8 2.352 1_655 S
Cd4 O12 2.277 . S
Cd4 O13 2.356 . S
C5 O10 1.209 . S
C5 O12 1.226 . S
O6 Cd2 2.273 . S
O6 Cd4 2.411 1_455 S
O6 C9 1.320 . S
O7 Cd4 2.333 . S
O7 C9 1.214 1_655 S
O8 Cd4 2.352 1_455 S
O8 C11 1.258 1_455 S
C9 O6 1.320 . S
C9 O7 1.214 1_455 S
O10 Cd2 2.277 1_655 S
O10 C5 1.209 . S
C11 O8 1.258 1_655 S
C11 O13 1.282 . S
O12 Cd4 2.277 . S
O12 C5 1.226 . S
O13 Cd4 2.356 . S
O13 C11 1.282 . S
C14 O15 1.306 . S
C14 O17 1.160 . S
O15 C14 1.306 . S
O15 Cd16 2.228 . S
Cd16 O15 2.228 . S
Cd16 O20 2.273 . S
Cd16 O24 2.277 1_455 S
O17 C14 1.160 . S
O17 Cd18 2.203 1_455 S
Cd18 O17 2.203 1_655 S
Cd18 O20 2.411 1_655 S
Cd18 O21 2.333 . S
Cd18 O22 2.352 1_655 S
Cd18 O26 2.277 . S
Cd18 O27 2.356 . S
C19 O24 1.209 . S
C19 O26 1.226 . S
O20 Cd16 2.273 . S
O20 Cd18 2.411 1_455 S
O20 C23 1.320 . S
O21 Cd18 2.333 . S
O21 C23 1.214 1_655 S
O22 Cd18 2.352 1_455 S
O22 C25 1.258 1_455 S
C23 O20 1.320 . S
C23 O21 1.214 1_455 S
O24 Cd16 2.277 1_655 S
O24 C19 1.209 . S
C25 O22 1.258 1_655 S
C25 O27 1.282 . S
O26 Cd18 2.277 . S
O26 C19 1.226 . S
O27 Cd18 2.356 . S
O27 C25 1.282 . S
C28 O29 1.306 . S
C28 O31 1.160 . S
O29 C28 1.306 . S
O29 Cd30 2.228 . S
Cd30 O29 2.228 . S
Cd30 O34 2.273 . S
Cd30 O38 2.277 . S
O31 C28 1.160 . S
O31 Cd32 2.203 . S
Cd32 O31 2.203 . S
Cd32 O34 2.411 . S
Cd32 O35 2.333 . S
Cd32 O36 2.352 . S
Cd32 O40 2.277 . S
Cd32 O41 2.356 . S
C33 O38 1.209 . S
C33 O40 1.226 . S
O34 Cd30 2.273 . S
O34 Cd32 2.411 . S
O34 C37 1.320 . S
O35 Cd32 2.333 . S
O35 C37 1.214 . S
O36 Cd32 2.352 . S
O36 C39 1.258 . S
C37 O34 1.320 . S
C37 O35 1.214 . S
O38 Cd30 2.277 . S
O38 C33 1.209 . S
C39 O36 1.258 . S
C39 O41 1.282 . S
O40 Cd32 2.277 . S
O40 C33 1.226 . S
O41 Cd32 2.356 . S
O41 C39 1.282 . S
C42 O43 1.306 . S
C42 O45 1.160 . S
O43 C42 1.306 . S
O43 Cd44 2.228 . S
Cd44 O43 2.228 . S
Cd44 O48 2.273 . S
Cd44 O52 2.277 . S
O45 C42 1.160 . S
O45 Cd46 2.203 . S
Cd46 O45 2.203 . S
Cd46 O48 2.411 . S
Cd46 O49 2.333 . S
Cd46 O50 2.352 . S
Cd46 O54 2.277 . S
Cd46 O55 2.356 . S
C47 O52 1.209 . S
C47 O54 1.226 . S
O48 Cd44 2.273 . S
O48 Cd46 2.411 . S
O48 C51 1.320 . S
O49 Cd46 2.333 . S
O49 C51 1.214 . S
O50 Cd46 2.352 . S
O50 C53 1.258 . S
C51 O48 1.320 . S
C51 O49 1.214 . S
O52 Cd44 2.277 . S
O52 C47 1.209 . S
C53 O50 1.258 . S
C53 O55 1.282 . S
O54 Cd46 2.277 . S
O54 C47 1.226 . S
O55 Cd46 2.356 . S
O55 C53 1.282 . S
C56 O57 1.306 . S
C56 O59 1.160 1_545 S
O57 C56 1.306 . S
O57 Cd58 2.228 . S
Cd58 O57 2.228 . S
Cd58 O62 2.273 . S
Cd58 O66 2.277 . S
O59 C56 1.160 1_565 S
O59 Cd60 2.203 . S
Cd60 O59 2.203 . S
Cd60 O62 2.411 1_565 S
Cd60 O63 2.333 1_565 S
Cd60 O64 2.352 . S
Cd60 O68 2.277 . S
Cd60 O69 2.356 . S
C61 O66 1.209 . S
C61 O68 1.226 1_545 S
O62 Cd58 2.273 . S
O62 Cd60 2.411 1_545 S
O62 C65 1.320 . S
O63 Cd60 2.333 1_545 S
O63 C65 1.214 . S
O64 Cd60 2.352 . S
O64 C67 1.258 . S
C65 O62 1.320 . S
C65 O63 1.214 . S
O66 Cd58 2.277 . S
O66 C61 1.209 . S
C67 O64 1.258 . S
C67 O69 1.282 . S
O68 Cd60 2.277 . S
O68 C61 1.226 1_565 S
O69 Cd60 2.356 . S
O69 C67 1.282 . S
C70 O71 1.306 . S
C70 O73 1.160 . S
O71 C70 1.306 . S
O71 Cd72 2.228 . S
Cd72 O71 2.228 . S
Cd72 O76 2.273 . S
Cd72 O80 2.277 . S
O73 C70 1.160 . S
O73 Cd74 2.203 . S
Cd74 O73 2.203 . S
Cd74 O76 2.411 . S
Cd74 O77 2.333 . S
Cd74 O78 2.352 . S
Cd74 O82 2.277 . S
Cd74 O83 2.356 . S
C75 O80 1.209 . S
C75 O82 1.226 . S
O76 Cd72 2.273 . S
O76 Cd74 2.411 . S
O76 C79 1.320 . S
O77 Cd74 2.333 . S
O77 C79 1.214 . S
O78 Cd74 2.352 . S
O78 C81 1.258 . S
C79 O76 1.320 . S
C79 O77 1.214 . S
O80 Cd72 2.277 . S
O80 C75 1.209 . S
C81 O78 1.258 . S
C81 O83 1.282 . S
O82 Cd74 2.277 . S
O82 C75 1.226 . S
O83 Cd74 2.356 . S
O83 C81 1.282 . S
C84 O85 1.306 . S
C84 O87 1.160 1_565 S
O85 C84 1.306 . S
O85 Cd86 2.228 . S
Cd86 O85 2.228 . S
Cd86 O90 2.273 . S
Cd86 O94 2.277 . S
O87 C84 1.160 1_545 S
O87 Cd88 2.203 . S
Cd88 O87 2.203 . S
Cd88 O90 2.411 1_545 S
Cd88 O91 2.333 1_545 S
Cd88 O92 2.352 . S
Cd88 O96 2.277 . S
Cd88 O97 2.356 . S
C89 O94 1.209 1_545 S
C89 O96 1.226 . S
O90 Cd86 2.273 . S
O90 Cd88 2.411 1_565 S
O90 C93 1.320 . S
O91 Cd88 2.333 1_565 S
O91 C93 1.214 . S
O92 Cd88 2.352 . S
O92 C95 1.258 . S
C93 O90 1.320 . S
C93 O91 1.214 . S
O94 Cd86 2.277 . S
O94 C89 1.209 1_565 S
C95 O92 1.258 . S
C95 O97 1.282 . S
O96 Cd88 2.277 . S
O96 C89 1.226 . S
O97 Cd88 2.356 . S
O97 C95 1.282 . S
C98 O99 1.306 . S
C98 O101 1.160 1_554 S
O99 C98 1.306 . S
O99 Cd100 2.228 . S
Cd100 O99 2.228 . S
Cd100 O104 2.273 . S
Cd100 O108 2.277 . S
O101 C98 1.160 1_556 S
O101 Cd102 2.203 . S
Cd102 O101 2.203 . S
Cd102 O104 2.411 1_556 S
Cd102 O105 2.333 1_556 S
Cd102 O106 2.352 . S
Cd102 O110 2.277 . S
Cd102 O111 2.356 . S
C103 O108 1.209 1_556 S
C103 O110 1.226 . S
O104 Cd100 2.273 . S
O104 Cd102 2.411 1_554 S
O104 C107 1.320 . S
O105 Cd102 2.333 1_554 S
O105 C107 1.214 . S
O106 Cd102 2.352 . S
O106 C109 1.258 . S
C107 O104 1.320 . S
C107 O105 1.214 . S
O108 Cd100 2.277 . S
O108 C103 1.209 1_554 S
C109 O106 1.258 . S
C109 O111 1.282 . S
O110 Cd102 2.277 . S
O110 C103 1.226 . S
O111 Cd102 2.356 . S
O111 C109 1.282 . S
C112 O113 1.306 1_554 S
C112 O115 1.160 . S
O113 C112 1.306 1_556 S
O113 Cd114 2.228 . S
Cd114 O113 2.228 . S
Cd114 O118 2.273 . S
Cd114 O122 2.277 . S
O115 C112 1.160 . S
O115 Cd116 2.203 . S
Cd116 O115 2.203 . S
Cd116 O118 2.411 1_554 S
Cd116 O119 2.333 . S
Cd116 O120 2.352 . S
Cd116 O124 2.277 . S
Cd116 O125 2.356 . S
C117 O122 1.209 1_554 S
C117 O124 1.226 . S
O118 Cd114 2.273 . S
O118 Cd116 2.411 1_556 S
O118 C121 1.320 . S
O119 Cd116 2.333 . S
O119 C121 1.214 1_554 S
O120 Cd116 2.352 . S
O120 C123 1.258 . S
C121 O118 1.320 . S
C121 O119 1.214 1_556 S
O122 Cd114 2.277 . S
O122 C117 1.209 1_556 S
C123 O120 1.258 . S
C123 O125 1.282 . S
O124 Cd116 2.277 . S
O124 C117 1.226 . S
O125 Cd116 2.356 . S
O125 C123 1.282 . S
C126 O127 1.306 . S
C126 O129 1.160 . S
O127 C126 1.306 . S
O127 Cd128 2.228 . S
Cd128 O127 2.228 . S
Cd128 O132 2.273 . S
Cd128 O136 2.277 . S
O129 C126 1.160 . S
O129 Cd130 2.203 . S
Cd130 O129 2.203 . S
Cd130 O132 2.411 . S
Cd130 O133 2.333 . S
Cd130 O134 2.352 . S
Cd130 O138 2.277 . S
Cd130 O139 2.356 . S
C131 O136 1.209 . S
C131 O138 1.226 . S
O132 Cd128 2.273 . S
O132 Cd130 2.411 . S
O132 C135 1.320 . S
O133 Cd130 2.333 . S
O133 C135 1.214 . S
O134 Cd130 2.352 . S
O134 C137 1.258 . S
C135 O132 1.320 . S
C135 O133 1.214 . S
O136 Cd128 2.277 . S
O136 C131 1.209 . S
C137 O134 1.258 . S
C137 O139 1.282 . S
O138 Cd130 2.277 . S
O138 C131 1.226 . S
O139 Cd130 2.356 . S
O139 C137 1.282 . S
C140 O141 1.306 . S
C140 O143 1.160 . S
O141 C140 1.306 . S
O141 Cd142 2.228 . S
Cd142 O141 2.228 . S
Cd142 O146 2.273 . S
Cd142 O150 2.277 . S
O143 C140 1.160 . S
O143 Cd144 2.203 . S
Cd144 O143 2.203 . S
Cd144 O146 2.411 . S
Cd144 O147 2.333 . S
Cd144 O148 2.352 . S
Cd144 O152 2.277 . S
Cd144 O153 2.356 . S
C145 O150 1.209 . S
C145 O152 1.226 . S
O146 Cd142 2.273 . S
O146 Cd144 2.411 . S
O146 C149 1.320 . S
O147 Cd144 2.333 . S
O147 C149 1.214 . S
O148 Cd144 2.352 . S
O148 C151 1.258 . S
C149 O146 1.320 . S
C149 O147 1.214 . S
O150 Cd142 2.277 . S
O150 C145 1.209 . S
C151 O148 1.258 . S
C151 O153 1.282 . S
O152 Cd144 2.277 . S
O152 C145 1.226 . S
O153 Cd144 2.356 . S
O153 C151 1.282 . S
C154 O155 1.306 . S
C154 O157 1.160 . S
O155 C154 1.306 . S
O155 Cd156 2.228 . S
Cd156 O155 2.228 . S
Cd156 O160 2.273 . S
Cd156 O164 2.277 . S
O157 C154 1.160 . S
O157 Cd158 2.203 . S
Cd158 O157 2.203 . S
Cd158 O160 2.411 . S
Cd158 O161 2.333 . S
Cd158 O162 2.352 . S
Cd158 O166 2.277 . S
Cd158 O167 2.356 . S
C159 O164 1.209 . S
C159 O166 1.226 . S
O160 Cd156 2.273 . S
O160 Cd158 2.411 . S
O160 C163 1.320 . S
O161 Cd158 2.333 . S
O161 C163 1.214 . S
O162 Cd158 2.352 . S
O162 C165 1.258 . S
C163 O160 1.320 . S
C163 O161 1.214 . S
O164 Cd156 2.277 . S
O164 C159 1.209 . S
C165 O162 1.258 . S
C165 O167 1.282 . S
O166 Cd158 2.277 . S
O166 C159 1.226 . S
O167 Cd158 2.356 . S
O167 C165 1.282 . S
H168 C174 0.930 . S
H169 C177 0.931 . S
H170 C179 0.931 1_455 S
H171 C181 0.930 . S
H172 C183 0.930 . S
H173 C185 0.931 . S
C174 H168 0.930 . S
C174 C175 1.380 . S
C174 C176 1.394 . S
C175 C174 1.380 . S
C175 C179 1.382 . S
C176 C174 1.394 . S
C176 C177 1.400 . S
C177 H169 0.931 . S
C177 C176 1.400 . S
C177 C178 1.375 1_655 S
C178 C177 1.375 1_455 S
C178 C179 1.415 1_455 S
C178 C180 1.501 . S
C179 H170 0.931 1_655 S
C179 C175 1.382 . S
C179 C178 1.415 1_655 S
C180 C178 1.501 . S
C180 C181 1.384 . S
C180 C185 1.408 . S
C181 H171 0.930 . S
C181 C180 1.384 . S
C181 C182 1.389 . S
C182 C181 1.389 . S
C182 C183 1.405 . S
C183 H172 0.930 . S
C183 C182 1.405 . S
C183 C184 1.364 . S
C184 C183 1.364 . S
C184 C185 1.400 . S
C185 H173 0.931 . S
C185 C180 1.408 . S
C185 C184 1.400 . S
H186 C192 0.930 . S
H187 C195 0.931 1_454 S
H188 C197 0.931 . S
H189 C199 0.930 . S
H190 C201 0.930 . S
H191 C203 0.931 1_554 S
C192 H186 0.930 . S
C192 C193 1.380 . S
C192 C194 1.394 . S
C193 C192 1.380 . S
C193 C197 1.382 . S
C194 C192 1.394 . S
C194 C195 1.400 . S
C195 H187 0.931 1_656 S
C195 C194 1.400 . S
C195 C196 1.375 1_655 S
C196 C195 1.375 1_455 S
C196 C197 1.415 1_455 S
C196 C198 1.501 . S
C197 H188 0.931 . S
C197 C193 1.382 . S
C197 C196 1.415 1_655 S
C198 C196 1.501 . S
C198 C199 1.384 . S
C198 C203 1.408 . S
C199 H189 0.930 . S
C199 C198 1.384 . S
C199 C200 1.389 . S
C200 C199 1.389 . S
C200 C201 1.405 . S
C201 H190 0.930 . S
C201 C200 1.405 . S
C201 C202 1.364 . S
C202 C201 1.364 . S
C202 C203 1.400 . S
C203 H191 0.931 1_556 S
C203 C198 1.408 . S
C203 C202 1.400 . S
H204 C210 0.930 . S
H205 C213 0.931 . S
H206 C215 0.931 . S
H207 C217 0.930 . S
H208 C219 0.930 . S
H209 C221 0.931 . S
C210 H204 0.930 . S
C210 C211 1.380 . S
C210 C212 1.394 . S
C211 C210 1.380 . S
C211 C215 1.382 . S
C212 C210 1.394 . S
C212 C213 1.400 . S
C213 H205 0.931 . S
C213 C212 1.400 . S
C213 C214 1.375 . S
C214 C213 1.375 . S
C214 C215 1.415 . S
C214 C216 1.501 . S
C215 H206 0.931 . S
C215 C211 1.382 . S
C215 C214 1.415 . S
C216 C214 1.501 . S
C216 C217 1.384 . S
C216 C221 1.408 . S
C217 H207 0.930 . S
C217 C216 1.384 . S
C217 C218 1.389 . S
C218 C217 1.389 . S
C218 C219 1.405 . S
C219 H208 0.930 . S
C219 C218 1.405 . S
C219 C220 1.364 . S
C220 C219 1.364 . S
C220 C221 1.400 . S
C221 H209 0.931 . S
C221 C216 1.408 . S
C221 C220 1.400 . S
H222 C228 0.930 . S
H223 C231 0.931 . S
H224 C233 0.931 . S
H225 C235 0.930 . S
H226 C237 0.930 . S
H227 C239 0.931 . S
C228 H222 0.930 . S
C228 C229 1.380 . S
C228 C230 1.394 . S
C229 C228 1.380 . S
C229 C233 1.382 . S
C230 C228 1.394 . S
C230 C231 1.400 . S
C231 H223 0.931 . S
C231 C230 1.400 . S
C231 C232 1.375 . S
C232 C231 1.375 . S
C232 C233 1.415 . S
C232 C234 1.501 . S
C233 H224 0.931 . S
C233 C229 1.382 . S
C233 C232 1.415 . S
C234 C232 1.501 . S
C234 C235 1.384 . S
C234 C239 1.408 . S
C235 H225 0.930 . S
C235 C234 1.384 . S
C235 C236 1.389 . S
C236 C235 1.389 . S
C236 C237 1.405 . S
C237 H226 0.930 . S
C237 C236 1.405 . S
C237 C238 1.364 . S
C238 C237 1.364 . S
C238 C239 1.400 . S
C239 H227 0.931 . S
C239 C234 1.408 . S
C239 C238 1.400 . S
H240 C246 0.930 . S
H241 C249 0.931 . S
H242 C251 0.931 . S
H243 C253 0.930 . S
H244 C255 0.930 . S
H245 C257 0.931 . S
C246 H240 0.930 . S
C246 C247 1.380 . S
C246 C248 1.394 . S
C247 C246 1.380 . S
C247 C251 1.382 . S
C248 C246 1.394 . S
C248 C249 1.400 . S
C249 H241 0.931 . S
C249 C248 1.400 . S
C249 C250 1.375 . S
C250 C249 1.375 . S
C250 C251 1.415 . S
C250 C252 1.501 1_565 S
C251 H242 0.931 . S
C251 C247 1.382 . S
C251 C250 1.415 . S
C252 C250 1.501 1_545 S
C252 C253 1.384 . S
C252 C257 1.408 . S
C253 H243 0.930 . S
C253 C252 1.384 . S
C253 C254 1.389 . S
C254 C253 1.389 . S
C254 C255 1.405 . S
C255 H244 0.930 . S
C255 C254 1.405 . S
C255 C256 1.364 . S
C256 C255 1.364 . S
C256 C257 1.400 . S
C257 H245 0.931 . S
C257 C252 1.408 . S
C257 C256 1.400 . S
H258 C264 0.930 . S
H259 C267 0.931 . S
H260 C269 0.931 . S
H261 C271 0.930 . S
H262 C273 0.930 . S
H263 C275 0.931 . S
C264 H258 0.930 . S
C264 C265 1.380 . S
C264 C266 1.394 . S
C265 C264 1.380 . S
C265 C269 1.382 . S
C266 C264 1.394 . S
C266 C267 1.400 . S
C267 H259 0.931 . S
C267 C266 1.400 . S
C267 C268 1.375 . S
C268 C267 1.375 . S
C268 C269 1.415 . S
C268 C270 1.501 . S
C269 H260 0.931 . S
C269 C265 1.382 . S
C269 C268 1.415 . S
C270 C268 1.501 . S
C270 C271 1.384 . S
C270 C275 1.408 . S
C271 H261 0.930 . S
C271 C270 1.384 . S
C271 C272 1.389 . S
C272 C271 1.389 . S
C272 C273 1.405 . S
C273 H262 0.930 . S
C273 C272 1.405 . S
C273 C274 1.364 . S
C274 C273 1.364 . S
C274 C275 1.400 . S
C275 H263 0.931 . S
C275 C270 1.408 . S
C275 C274 1.400 . S
H276 C282 0.930 . S
H277 C285 0.931 . S
H278 C287 0.931 . S
H279 C289 0.930 . S
H280 C291 0.930 . S
H281 C293 0.931 . S
C282 H276 0.930 . S
C282 C283 1.380 1_655 S
C282 C284 1.394 . S
C283 C282 1.380 1_455 S
C283 C287 1.382 . S
C284 C282 1.394 . S
C284 C285 1.400 . S
C285 H277 0.931 . S
C285 C284 1.400 . S
C285 C286 1.375 . S
C286 C285 1.375 . S
C286 C287 1.415 1_655 S
C286 C288 1.501 1_545 S
C287 H278 0.931 . S
C287 C283 1.382 . S
C287 C286 1.415 1_455 S
C288 C286 1.501 1_565 S
C288 C289 1.384 1_655 S
C288 C293 1.408 . S
C289 H279 0.930 . S
C289 C288 1.384 1_455 S
C289 C290 1.389 . S
C290 C289 1.389 . S
C290 C291 1.405 1_455 S
C291 H280 0.930 . S
C291 C290 1.405 1_655 S
C291 C292 1.364 . S
C292 C291 1.364 . S
C292 C293 1.400 . S
C293 H281 0.931 . S
C293 C288 1.408 . S
C293 C292 1.400 . S
H294 C300 0.930 . S
H295 C303 0.931 1_554 S
H296 C305 0.931 . S
H297 C307 0.930 . S
H298 C309 0.930 . S
H299 C311 0.931 . S
C300 H294 0.930 . S
C300 C301 1.380 . S
C300 C302 1.394 . S
C301 C300 1.380 . S
C301 C305 1.382 . S
C302 C300 1.394 . S
C302 C303 1.400 . S
C303 H295 0.931 1_556 S
C303 C302 1.400 . S
C303 C304 1.375 1_556 S
C304 C303 1.375 1_554 S
C304 C305 1.415 1_554 S
C304 C306 1.501 . S
C305 H296 0.931 . S
C305 C301 1.382 . S
C305 C304 1.415 1_556 S
C306 C304 1.501 . S
C306 C307 1.384 . S
C306 C311 1.408 . S
C307 H297 0.930 . S
C307 C306 1.384 . S
C307 C308 1.389 . S
C308 C307 1.389 . S
C308 C309 1.405 . S
C309 H298 0.930 . S
C309 C308 1.405 . S
C309 C310 1.364 . S
C310 C309 1.364 . S
C310 C311 1.400 . S
C311 H299 0.931 . S
C311 C306 1.408 . S
C311 C310 1.400 . S
H312 C318 0.930 . S
H313 C321 0.931 1_545 S
H314 C323 0.931 1_554 S
H315 C325 0.930 . S
H316 C327 0.930 . S
H317 C329 0.924 1_545 S
C318 H312 0.930 . S
C318 C319 1.380 . S
C318 C320 1.394 . S
C319 C318 1.380 . S
C319 C323 1.382 . S
C320 C318 1.394 . S
C320 C321 1.400 1_556 S
C321 H313 0.931 1_565 S
C321 C320 1.400 1_554 S
C321 C322 1.375 . S
C322 C321 1.375 . S
C322 C323 1.415 1_554 S
C322 C324 1.501 . S
C323 H314 0.931 1_556 S
C323 C319 1.382 . S
C323 C322 1.415 1_556 S
C324 C322 1.501 . S
C324 C325 1.384 . S
C324 C329 1.408 . S
C325 H315 0.930 . S
C325 C324 1.384 . S
C325 C326 1.389 . S
C326 C325 1.389 . S
C326 C327 1.405 . S
C327 H316 0.930 . S
C327 C326 1.405 . S
C327 C328 1.364 . S
C328 C327 1.364 . S
C328 C329 1.400 . S
C329 H317 0.924 1_565 S
C329 C324 1.408 . S
C329 C328 1.400 . S
H330 C336 0.930 . S
H331 C339 0.931 . S
H332 C341 0.931 . S
H333 C343 0.930 . S
H334 C345 0.930 . S
H335 C347 0.931 . S
C336 H330 0.930 . S
C336 C337 1.380 . S
C336 C338 1.394 . S
C337 C336 1.380 . S
C337 C341 1.382 . S
C338 C336 1.394 . S
C338 C339 1.400 . S
C339 H331 0.931 . S
C339 C338 1.400 . S
C339 C340 1.375 . S
C340 C339 1.375 . S
C340 C341 1.415 . S
C340 C342 1.501 . S
C341 H332 0.931 . S
C341 C337 1.382 . S
C341 C340 1.415 . S
C342 C340 1.501 . S
C342 C343 1.384 . S
C342 C347 1.408 . S
C343 H333 0.930 . S
C343 C342 1.384 . S
C343 C344 1.389 . S
C344 C343 1.389 . S
C344 C345 1.405 . S
C345 H334 0.930 . S
C345 C344 1.405 . S
C345 C346 1.364 . S
C346 C345 1.364 . S
C346 C347 1.400 . S
C347 H335 0.931 . S
C347 C342 1.408 . S
C347 C346 1.400 . S
H348 C354 0.930 . S
H349 C357 0.931 . S
H350 C359 0.931 . S
H351 C361 0.930 . S
H352 C363 0.930 . S
H353 C365 0.931 . S
C354 H348 0.930 . S
C354 C355 1.380 . S
C354 C356 1.394 . S
C355 C354 1.380 . S
C355 C359 1.382 . S
C356 C354 1.394 . S
C356 C357 1.400 . S
C357 H349 0.931 . S
C357 C356 1.400 . S
C357 C358 1.375 . S
C358 C357 1.375 . S
C358 C359 1.415 . S
C358 C360 1.501 . S
C359 H350 0.931 . S
C359 C355 1.382 . S
C359 C358 1.415 . S
C360 C358 1.501 . S
C360 C361 1.384 . S
C360 C365 1.408 . S
C361 H351 0.930 . S
C361 C360 1.384 . S
C361 C362 1.389 . S
C362 C361 1.389 . S
C362 C363 1.405 . S
C363 H352 0.930 . S
C363 C362 1.405 . S
C363 C364 1.364 . S
C364 C363 1.364 . S
C364 C365 1.400 . S
C365 H353 0.931 . S
C365 C360 1.408 . S
C365 C364 1.400 . S
H366 C372 0.930 . S
H367 C375 0.931 . S
H368 C377 0.931 . S
H369 C379 0.930 . S
H370 C381 0.930 . S
H371 C383 0.931 . S
C372 H366 0.930 . S
C372 C373 1.380 . S
C372 C374 1.394 . S
C373 C372 1.380 . S
C373 C377 1.382 . S
C374 C372 1.394 . S
C374 C375 1.400 . S
C375 H367 0.931 . S
C375 C374 1.400 . S
C375 C376 1.375 . S
C376 C375 1.375 . S
C376 C377 1.415 . S
C376 C378 1.501 . S
C377 H368 0.931 . S
C377 C373 1.382 . S
C377 C376 1.415 . S
C378 C376 1.501 . S
C378 C379 1.384 . S
C378 C383 1.408 . S
C379 H369 0.930 . S
C379 C378 1.384 . S
C379 C380 1.389 . S
C380 C379 1.389 . S
C380 C381 1.405 . S
C381 H370 0.930 . S
C381 C380 1.405 . S
C381 C382 1.364 . S
C382 C381 1.364 . S
C382 C383 1.400 . S
C383 H371 0.931 . S
C383 C378 1.408 . S
C383 C382 1.400 . S
H384 C402 0.951 . S
H385 C404 0.951 . S
H386 C406 0.950 . S
H387 C407 0.950 . S
H388 C409 0.950 . S
H389 C412 0.945 1_556 S
H390 C413 0.950 . S
H391 C415 0.950 . S
H392 C416 0.962 . S
H393 C417 0.951 . S
H394 C419 0.951 . S
H395 C421 0.950 . S
H396 C422 0.950 . S
H397 C424 0.950 . S
H398 C427 0.950 . S
H399 C428 0.950 . S
H400 C430 0.950 . S
H401 C431 0.950 . S
C402 H384 0.951 . S
C402 C403 1.366 . S
C402 C404 1.388 . S
C403 C402 1.366 . S
C403 C407 1.385 1_655 S
C404 H385 0.951 . S
C404 C402 1.388 . S
C404 C405 1.366 1_655 S
C405 C404 1.366 1_455 S
C405 C406 1.414 . S
C405 C408 1.499 1_554 S
C406 H386 0.950 . S
C406 C405 1.414 . S
C406 C407 1.374 . S
C407 H387 0.950 . S
C407 C403 1.385 1_455 S
C407 C406 1.374 . S
C408 C405 1.499 1_556 S
C408 C409 1.373 . S
C408 C410 1.389 1_455 S
C409 H388 0.950 . S
C409 C408 1.373 . S
C409 C425 1.377 . S
C410 C408 1.389 1_655 S
C410 C411 1.524 . S
C410 C424 1.377 . S
C411 C410 1.524 . S
C411 C412 1.391 1_556 S
C411 C416 1.367 . S
C412 H389 0.945 1_554 S
C412 C411 1.391 1_554 S
C412 C413 1.344 . S
C413 H390 0.950 . S
C413 C412 1.344 . S
C413 C414 1.287 . S
C414 C413 1.287 . S
C414 C415 1.524 . S
C414 H433 0.913 . S
C415 H391 0.950 . S
C415 C414 1.524 . S
C415 C416 1.401 1_554 S
C416 H392 0.962 . S
C416 C411 1.367 . S
C416 C415 1.401 1_556 S
C417 H393 0.951 . S
C417 C418 1.366 . S
C417 C419 1.388 . S
C418 C417 1.366 . S
C418 C422 1.385 . S
C419 H394 0.951 . S
C419 C417 1.388 . S
C419 C420 1.366 . S
C420 C419 1.366 . S
C420 C421 1.414 . S
C420 C423 1.499 . S
C421 H395 0.950 . S
C421 C420 1.414 . S
C421 C422 1.374 . S
C422 H396 0.950 . S
C422 C418 1.385 . S
C422 C421 1.374 . S
C423 C420 1.499 . S
C423 C424 1.373 1_455 S
C423 C425 1.389 . S
C424 H397 0.950 . S
C424 C410 1.377 . S
C424 C423 1.373 1_655 S
C425 C409 1.377 . S
C425 C423 1.389 . S
C425 C426 1.524 . S
C426 C425 1.524 . S
C426 C427 1.397 . S
C426 C431 1.363 . S
C427 H398 0.950 . S
C427 C426 1.397 . S
C427 C428 1.334 . S
C428 H399 0.950 . S
C428 C427 1.334 . S
C428 C429 1.287 . S
C429 C428 1.287 . S
C429 C430 1.524 . S
C429 H432 0.999 . S
C430 H400 0.950 . S
C430 C429 1.524 . S
C430 C431 1.415 . S
C431 H401 0.950 . S
C431 C426 1.363 . S
C431 C430 1.415 . S
H432 C429 0.999 . S
H433 C414 0.913 . S
H434 C452 0.951 . S
H435 C454 0.951 . S
H436 C456 0.950 . S
H437 C457 0.950 . S
H438 C459 0.950 . S
H439 C462 0.950 . S
H440 C463 0.945 1_455 S
H441 C465 0.950 . S
H442 C466 0.950 . S
H443 C467 0.951 . S
H444 C469 0.951 . S
H445 C471 0.950 . S
H446 C472 0.950 . S
H447 C474 0.950 . S
H448 C477 0.950 . S
H449 C478 0.950 . S
H450 C480 0.950 . S
H451 C481 0.950 . S
C452 H434 0.951 . S
C452 C453 1.366 . S
C452 C454 1.388 . S
C453 C452 1.366 . S
C453 C457 1.385 . S
C454 H435 0.951 . S
C454 C452 1.388 . S
C454 C455 1.366 . S
C455 C454 1.366 . S
C455 C456 1.414 . S
C455 C458 1.499 . S
C456 H436 0.950 . S
C456 C455 1.414 . S
C456 C457 1.374 . S
C457 H437 0.950 . S
C457 C453 1.385 . S
C457 C456 1.374 . S
C458 C455 1.499 . S
C458 C459 1.373 . S
C458 C460 1.389 . S
C459 H438 0.950 . S
C459 C458 1.373 . S
C459 C475 1.377 . S
C460 C458 1.389 . S
C460 C461 1.524 . S
C460 C474 1.377 . S
C461 C460 1.524 . S
C461 C462 1.397 . S
C461 C466 1.363 . S
C462 H439 0.950 . S
C462 C461 1.397 . S
C462 C463 1.334 . S
C463 H440 0.945 1_655 S
C463 C462 1.334 . S
C463 C464 1.287 1_655 S
C464 C463 1.287 1_455 S
C464 C465 1.524 . S
C464 H483 0.913 . S
C465 H441 0.950 . S
C465 C464 1.524 . S
C465 C466 1.415 1_455 S
C466 H442 0.950 . S
C466 C461 1.363 . S
C466 C465 1.415 1_655 S
C467 H443 0.951 . S
C467 C468 1.366 . S
C467 C469 1.388 . S
C468 C467 1.366 . S
C468 C472 1.385 . S
C469 H444 0.951 . S
C469 C467 1.388 . S
C469 C470 1.366 . S
C470 C469 1.366 . S
C470 C471 1.414 . S
C470 C473 1.499 . S
C471 H445 0.950 . S
C471 C470 1.414 . S
C471 C472 1.374 . S
C472 H446 0.950 . S
C472 C468 1.385 . S
C472 C471 1.374 . S
C473 C470 1.499 . S
C473 C474 1.373 . S
C473 C475 1.389 . S
C474 H447 0.950 . S
C474 C460 1.377 . S
C474 C473 1.373 . S
C475 C459 1.377 . S
C475 C473 1.389 . S
C475 C476 1.524 . S
C476 C475 1.524 . S
C476 C477 1.397 . S
C476 C481 1.363 . S
C477 H448 0.950 . S
C477 C476 1.397 . S
C477 C478 1.334 . S
C478 H449 0.950 . S
C478 C477 1.334 . S
C478 C479 1.287 . S
C479 C478 1.287 . S
C479 C480 1.524 . S
C479 H482 0.999 . S
C480 H450 0.950 . S
C480 C479 1.524 . S
C480 C481 1.415 . S
C481 H451 0.950 . S
C481 C476 1.363 . S
C481 C480 1.415 . S
H482 C479 0.999 . S
H483 C464 0.913 . S
H484 C502 0.951 . S
H485 C504 0.951 . S
H486 C506 0.950 . S
H487 C507 0.950 . S
H488 C509 0.950 . S
H489 C512 0.950 . S
H490 C513 0.950 . S
H491 C515 0.950 . S
H492 C516 0.950 . S
H493 C517 0.951 . S
H494 C519 0.951 . S
H495 C521 0.950 . S
H496 C522 0.950 . S
H497 C524 0.950 . S
H498 C527 0.950 . S
H499 C528 0.950 . S
H500 C530 0.950 . S
H501 C531 0.950 . S
C502 H484 0.951 . S
C502 C503 1.366 . S
C502 C504 1.388 . S
C503 C502 1.366 . S
C503 C507 1.385 . S
C504 H485 0.951 . S
C504 C502 1.388 . S
C504 C505 1.366 . S
C505 C504 1.366 . S
C505 C506 1.414 . S
C505 C508 1.499 . S
C506 H486 0.950 . S
C506 C505 1.414 . S
C506 C507 1.374 . S
C507 H487 0.950 . S
C507 C503 1.385 . S
C507 C506 1.374 . S
C508 C505 1.499 . S
C508 C509 1.373 . S
C508 C510 1.389 . S
C509 H488 0.950 . S
C509 C508 1.373 . S
C509 C525 1.377 . S
C510 C508 1.389 . S
C510 C511 1.524 . S
C510 C524 1.377 . S
C511 C510 1.524 . S
C511 C512 1.397 . S
C511 C516 1.363 . S
C512 H489 0.950 . S
C512 C511 1.397 . S
C512 C513 1.334 . S
C513 H490 0.950 . S
C513 C512 1.334 . S
C513 C514 1.287 . S
C514 C513 1.287 . S
C514 C515 1.524 . S
C514 H533 0.913 . S
C515 H491 0.950 . S
C515 C514 1.524 . S
C515 C516 1.415 . S
C516 H492 0.950 . S
C516 C511 1.363 . S
C516 C515 1.415 . S
C517 H493 0.951 . S
C517 C518 1.366 . S
C517 C519 1.388 . S
C518 C517 1.366 . S
C518 C522 1.385 . S
C519 H494 0.951 . S
C519 C517 1.388 . S
C519 C520 1.366 . S
C520 C519 1.366 . S
C520 C521 1.414 . S
C520 C523 1.499 . S
C521 H495 0.950 . S
C521 C520 1.414 . S
C521 C522 1.374 . S
C522 H496 0.950 . S
C522 C518 1.385 . S
C522 C521 1.374 . S
C523 C520 1.499 . S
C523 C524 1.373 . S
C523 C525 1.389 . S
C524 H497 0.950 . S
C524 C510 1.377 . S
C524 C523 1.373 . S
C525 C509 1.377 . S
C525 C523 1.389 . S
C525 C526 1.524 . S
C526 C525 1.524 . S
C526 C527 1.397 . S
C526 C531 1.363 . S
C527 H498 0.950 . S
C527 C526 1.397 . S
C527 C528 1.334 . S
C528 H499 0.950 . S
C528 C527 1.334 . S
C528 C529 1.287 . S
C529 C528 1.287 . S
C529 C530 1.524 . S
C529 H532 0.999 . S
C530 H500 0.950 . S
C530 C529 1.524 . S
C530 C531 1.415 . S
C531 H501 0.950 . S
C531 C526 1.363 . S
C531 C530 1.415 . S
H532 C529 0.999 . S
H533 C514 0.913 . S
H534 C552 0.951 . S
H535 C554 0.951 . S
H536 C556 0.950 . S
H537 C557 0.950 . S
H538 C559 0.950 . S
H539 C562 0.950 . S
H540 C563 0.950 . S
H541 C565 0.950 . S
H542 C566 0.950 . S
H543 C567 0.951 . S
H544 C569 0.951 . S
H545 C571 0.950 . S
H546 C572 0.950 . S
H547 C574 0.950 . S
H548 C577 0.950 . S
H549 C578 0.950 . S
H550 C580 0.950 . S
H551 C581 0.950 . S
C552 H534 0.951 . S
C552 C553 1.366 . S
C552 C554 1.388 . S
C553 C552 1.366 . S
C553 C557 1.385 . S
C554 H535 0.951 . S
C554 C552 1.388 . S
C554 C555 1.366 . S
C555 C554 1.366 . S
C555 C556 1.414 . S
C555 C558 1.499 . S
C556 H536 0.950 . S
C556 C555 1.414 . S
C556 C557 1.374 . S
C557 H537 0.950 . S
C557 C553 1.385 . S
C557 C556 1.374 . S
C558 C555 1.499 . S
C558 C559 1.373 . S
C558 C560 1.389 . S
C559 H538 0.950 . S
C559 C558 1.373 . S
C559 C575 1.377 . S
C560 C558 1.389 . S
C560 C561 1.524 . S
C560 C574 1.377 . S
C561 C560 1.524 . S
C561 C562 1.397 . S
C561 C566 1.363 . S
C562 H539 0.950 . S
C562 C561 1.397 . S
C562 C563 1.334 . S
C563 H540 0.950 . S
C563 C562 1.334 . S
C563 C564 1.287 . S
C564 C563 1.287 . S
C564 C565 1.524 . S
C564 H583 0.913 . S
C565 H541 0.950 . S
C565 C564 1.524 . S
C565 C566 1.415 . S
C566 H542 0.950 . S
C566 C561 1.363 . S
C566 C565 1.415 . S
C567 H543 0.951 . S
C567 C568 1.366 . S
C567 C569 1.388 . S
C568 C567 1.366 . S
C568 C572 1.385 . S
C569 H544 0.951 . S
C569 C567 1.388 . S
C569 C570 1.366 . S
C570 C569 1.366 . S
C570 C571 1.414 . S
C570 C573 1.499 . S
C571 H545 0.950 . S
C571 C570 1.414 . S
C571 C572 1.374 . S
C572 H546 0.950 . S
C572 C568 1.385 . S
C572 C571 1.374 . S
C573 C570 1.499 . S
C573 C574 1.373 . S
C573 C575 1.389 . S
C574 H547 0.950 . S
C574 C560 1.377 . S
C574 C573 1.373 . S
C575 C559 1.377 . S
C575 C573 1.389 . S
C575 C576 1.524 . S
C576 C575 1.524 . S
C576 C577 1.397 . S
C576 C581 1.363 . S
C577 H548 0.950 . S
C577 C576 1.397 . S
C577 C578 1.334 . S
C578 H549 0.950 . S
C578 C577 1.334 . S
C578 C579 1.287 . S
C579 C578 1.287 . S
C579 C580 1.524 . S
C579 H582 0.999 . S
C580 H550 0.950 . S
C580 C579 1.524 . S
C580 C581 1.415 . S
C581 H551 0.950 . S
C581 C576 1.363 . S
C581 C580 1.415 . S
H582 C579 0.999 . S
H583 C564 0.913 . S
H584 C602 0.951 . S
H585 C604 0.951 . S
H586 C606 0.950 . S
H587 C607 0.950 . S
H588 C609 0.950 . S
H589 C612 0.950 . S
H590 C613 0.950 . S
H591 C615 0.950 . S
H592 C616 0.950 . S
H593 C617 0.951 . S
H594 C619 0.951 1_655 S
H595 C621 0.950 . S
H596 C622 0.950 . S
H597 C624 0.950 . S
H598 C627 0.950 . S
H599 C628 0.950 . S
H600 C630 0.950 . S
H601 C631 0.950 . S
C602 H584 0.951 . S
C602 C603 1.366 1_455 S
C602 C604 1.388 . S
C603 C602 1.366 1_655 S
C603 C607 1.385 . S
C604 H585 0.951 . S
C604 C602 1.388 . S
C604 C605 1.366 . S
C605 C604 1.366 . S
C605 C606 1.414 1_455 S
C605 C608 1.499 . S
C606 H586 0.950 . S
C606 C605 1.414 1_655 S
C606 C607 1.374 . S
C607 H587 0.950 . S
C607 C603 1.385 . S
C607 C606 1.374 . S
C608 C605 1.499 . S
C608 C609 1.373 1_455 S
C608 C610 1.389 . S
C609 H588 0.950 . S
C609 C608 1.373 1_655 S
C609 C625 1.377 . S
C610 C608 1.389 . S
C610 C611 1.524 . S
C610 C624 1.377 . S
C611 C610 1.524 . S
C611 C612 1.397 . S
C611 C616 1.363 . S
C612 H589 0.950 . S
C612 C611 1.397 . S
C612 C613 1.334 . S
C613 H590 0.950 . S
C613 C612 1.334 . S
C613 C614 1.287 . S
C614 C613 1.287 . S
C614 C615 1.524 . S
C614 H633 0.913 . S
C615 H591 0.950 . S
C615 C614 1.524 . S
C615 C616 1.415 . S
C616 H592 0.950 . S
C616 C611 1.363 . S
C616 C615 1.415 . S
C617 H593 0.951 . S
C617 C618 1.366 . S
C617 C619 1.388 . S
C618 C617 1.366 . S
C618 C622 1.385 . S
C619 H594 0.951 1_455 S
C619 C617 1.388 . S
C619 C620 1.366 . S
C620 C619 1.366 . S
C620 C621 1.414 . S
C620 C623 1.499 . S
C621 H595 0.950 . S
C621 C620 1.414 . S
C621 C622 1.374 . S
C622 H596 0.950 . S
C622 C618 1.385 . S
C622 C621 1.374 . S
C623 C620 1.499 . S
C623 C624 1.373 . S
C623 C625 1.389 1_455 S
C624 H597 0.950 . S
C624 C610 1.377 . S
C624 C623 1.373 . S
C625 C609 1.377 . S
C625 C623 1.389 1_655 S
C625 C626 1.524 . S
C626 C625 1.524 . S
C626 C627 1.397 . S
C626 C631 1.363 . S
C627 H598 0.950 . S
C627 C626 1.397 . S
C627 C628 1.334 . S
C628 H599 0.950 . S
C628 C627 1.334 . S
C628 C629 1.287 . S
C629 C628 1.287 . S
C629 C630 1.524 . S
C629 H632 0.999 . S
C630 H600 0.950 . S
C630 C629 1.524 . S
C630 C631 1.415 . S
C631 H601 0.950 . S
C631 C626 1.363 . S
C631 C630 1.415 . S
H632 C629 0.999 . S
H633 C614 0.913 . S
H634 C652 0.951 . S
H635 C654 0.951 . S
H636 C656 0.950 . S
H637 C657 0.950 . S
H638 C659 0.950 . S
H639 C662 0.950 . S
H640 C663 0.950 . S
H641 C665 0.950 . S
H642 C666 0.950 . S
H643 C667 0.951 . S
H644 C669 0.951 . S
H645 C671 0.950 . S
H646 C672 0.950 . S
H647 C674 0.950 . S
H648 C677 0.950 . S
H649 C678 0.950 . S
H650 C680 0.950 . S
H651 C681 0.950 . S
C652 H634 0.951 . S
C652 C653 1.366 . S
C652 C654 1.388 . S
C653 C652 1.366 . S
C653 C657 1.385 . S
C654 H635 0.951 . S
C654 C652 1.388 . S
C654 C655 1.366 . S
C655 C654 1.366 . S
C655 C656 1.414 . S
C655 C658 1.499 . S
C656 H636 0.950 . S
C656 C655 1.414 . S
C656 C657 1.374 . S
C657 H637 0.950 . S
C657 C653 1.385 . S
C657 C656 1.374 . S
C658 C655 1.499 . S
C658 C659 1.373 . S
C658 C660 1.389 . S
C659 H638 0.950 . S
C659 C658 1.373 . S
C659 C675 1.377 . S
C660 C658 1.389 . S
C660 C661 1.524 . S
C660 C674 1.377 . S
C661 C660 1.524 . S
C661 C662 1.397 . S
C661 C666 1.363 . S
C662 H639 0.950 . S
C662 C661 1.397 . S
C662 C663 1.334 . S
C663 H640 0.950 . S
C663 C662 1.334 . S
C663 C664 1.287 . S
C664 C663 1.287 . S
C664 C665 1.524 . S
C664 H683 0.913 . S
C665 H641 0.950 . S
C665 C664 1.524 . S
C665 C666 1.415 . S
C666 H642 0.950 . S
C666 C661 1.363 . S
C666 C665 1.415 . S
C667 H643 0.951 . S
C667 C668 1.366 . S
C667 C669 1.388 . S
C668 C667 1.366 . S
C668 C672 1.385 . S
C669 H644 0.951 . S
C669 C667 1.388 . S
C669 C670 1.366 . S
C670 C669 1.366 . S
C670 C671 1.414 . S
C670 C673 1.499 . S
C671 H645 0.950 . S
C671 C670 1.414 . S
C671 C672 1.374 . S
C672 H646 0.950 . S
C672 C668 1.385 . S
C672 C671 1.374 . S
C673 C670 1.499 . S
C673 C674 1.373 . S
C673 C675 1.389 . S
C674 H647 0.950 . S
C674 C660 1.377 . S
C674 C673 1.373 . S
C675 C659 1.377 . S
C675 C673 1.389 . S
C675 C676 1.524 . S
C676 C675 1.524 . S
C676 C677 1.397 . S
C676 C681 1.363 . S
C677 H648 0.950 . S
C677 C676 1.397 . S
C677 C678 1.334 . S
C678 H649 0.950 . S
C678 C677 1.334 . S
C678 C679 1.287 . S
C679 C678 1.287 . S
C679 C680 1.524 . S
C679 H682 0.999 . S
C680 H650 0.950 . S
C680 C679 1.524 . S
C680 C681 1.415 . S
C681 H651 0.950 . S
C681 C676 1.363 . S
C681 C680 1.415 . S
H682 C679 0.999 . S
H683 C664 0.913 . S
H684 C702 0.951 . S
H685 C704 0.951 . S
H686 C706 0.950 . S
H687 C707 0.950 . S
H688 C709 0.950 . S
H689 C712 0.950 . S
H690 C713 0.950 . S
H691 C715 0.950 . S
H692 C716 0.950 . S
H693 C717 0.951 . S
H694 C719 0.951 . S
H695 C721 0.950 . S
H696 C722 0.950 . S
H697 C724 0.950 . S
H698 C727 0.950 . S
H699 C728 0.950 . S
H700 C730 0.950 . S
H701 C731 0.950 . S
C702 H684 0.951 . S
C702 C703 1.366 . S
C702 C704 1.388 1_556 S
C703 C702 1.366 . S
C703 C707 1.385 . S
C704 H685 0.951 . S
C704 C702 1.388 1_554 S
C704 C705 1.366 . S
C705 C704 1.366 . S
C705 C706 1.414 1_554 S
C705 C708 1.499 . S
C706 H686 0.950 . S
C706 C705 1.414 1_556 S
C706 C707 1.374 . S
C707 H687 0.950 . S
C707 C703 1.385 . S
C707 C706 1.374 . S
C708 C705 1.499 . S
C708 C709 1.373 . S
C708 C710 1.389 . S
C709 H688 0.950 . S
C709 C708 1.373 . S
C709 C725 1.377 . S
C710 C708 1.389 . S
C710 C711 1.524 . S
C710 C724 1.377 . S
C711 C710 1.524 . S
C711 C712 1.397 . S
C711 C716 1.363 . S
C712 H689 0.950 . S
C712 C711 1.397 . S
C712 C713 1.334 . S
C713 H690 0.950 . S
C713 C712 1.334 . S
C713 C714 1.287 . S
C714 C713 1.287 . S
C714 C715 1.524 . S
C714 H733 0.913 . S
C715 H691 0.950 . S
C715 C714 1.524 . S
C715 C716 1.415 . S
C716 H692 0.950 . S
C716 C711 1.363 . S
C716 C715 1.415 . S
C717 H693 0.951 . S
C717 C718 1.366 . S
C717 C719 1.388 . S
C718 C717 1.366 . S
C718 C722 1.385 . S
C719 H694 0.951 . S
C719 C717 1.388 . S
C719 C720 1.366 . S
C720 C719 1.366 . S
C720 C721 1.414 . S
C720 C723 1.499 . S
C721 H695 0.950 . S
C721 C720 1.414 . S
C721 C722 1.374 . S
C722 H696 0.950 . S
C722 C718 1.385 . S
C722 C721 1.374 . S
C723 C720 1.499 . S
C723 C724 1.373 . S
C723 C725 1.389 . S
C724 H697 0.950 . S
C724 C710 1.377 . S
C724 C723 1.373 . S
C725 C709 1.377 . S
C725 C723 1.389 . S
C725 C726 1.524 . S
C726 C725 1.524 . S
C726 C727 1.397 . S
C726 C731 1.363 . S
C727 H698 0.950 . S
C727 C726 1.397 . S
C727 C728 1.334 . S
C728 H699 0.950 . S
C728 C727 1.334 . S
C728 C729 1.287 . S
C729 C728 1.287 . S
C729 C730 1.524 . S
C729 H732 0.999 . S
C730 H700 0.950 . S
C730 C729 1.524 . S
C730 C731 1.415 . S
C731 H701 0.950 . S
C731 C726 1.363 . S
C731 C730 1.415 . S
H732 C729 0.999 . S
H733 C714 0.913 . S
H734 C752 0.951 . S
H735 C754 0.951 . S
H736 C756 0.950 . S
H737 C757 0.950 . S
H738 C759 0.950 . S
H739 C762 0.950 . S
H740 C763 0.950 . S
H741 C765 0.949 1_455 S
H742 C766 0.950 . S
H743 C767 0.951 . S
H744 C769 0.951 . S
H745 C771 0.950 . S
H746 C772 0.950 . S
H747 C774 0.950 . S
H748 C777 0.950 . S
H749 C778 0.950 . S
H750 C780 0.950 . S
H751 C781 0.950 . S
C752 H734 0.951 . S
C752 C753 1.366 . S
C752 C754 1.388 . S
C753 C752 1.366 . S
C753 C757 1.385 . S
C754 H735 0.951 . S
C754 C752 1.388 . S
C754 C755 1.366 . S
C755 C754 1.366 . S
C755 C756 1.414 . S
C755 C758 1.499 . S
C756 H736 0.950 . S
C756 C755 1.414 . S
C756 C757 1.374 . S
C757 H737 0.950 . S
C757 C753 1.385 . S
C757 C756 1.374 . S
C758 C755 1.499 . S
C758 C759 1.373 . S
C758 C760 1.389 . S
C759 H738 0.950 . S
C759 C758 1.373 . S
C759 C775 1.377 . S
C760 C758 1.389 . S
C760 C761 1.524 . S
C760 C774 1.377 . S
C761 C760 1.524 . S
C761 C762 1.397 . S
C761 C766 1.363 . S
C762 H739 0.950 . S
C762 C761 1.397 . S
C762 C763 1.334 1_655 S
C763 H740 0.950 . S
C763 C762 1.334 1_455 S
C763 C764 1.287 . S
C764 C763 1.287 . S
C764 C765 1.524 1_455 S
C764 H783 0.913 . S
C765 H741 0.949 1_655 S
C765 C764 1.524 1_655 S
C765 C766 1.415 . S
C766 H742 0.950 . S
C766 C761 1.363 . S
C766 C765 1.415 . S
C767 H743 0.951 . S
C767 C768 1.366 . S
C767 C769 1.388 . S
C768 C767 1.366 . S
C768 C772 1.385 . S
C769 H744 0.951 . S
C769 C767 1.388 . S
C769 C770 1.366 . S
C770 C769 1.366 . S
C770 C771 1.414 . S
C770 C773 1.499 . S
C771 H745 0.950 . S
C771 C770 1.414 . S
C771 C772 1.374 . S
C772 H746 0.950 . S
C772 C768 1.385 . S
C772 C771 1.374 . S
C773 C770 1.499 . S
C773 C774 1.373 . S
C773 C775 1.389 . S
C774 H747 0.950 . S
C774 C760 1.377 . S
C774 C773 1.373 . S
C775 C759 1.377 . S
C775 C773 1.389 . S
C775 C776 1.524 . S
C776 C775 1.524 . S
C776 C777 1.397 . S
C776 C781 1.363 . S
C777 H748 0.950 . S
C777 C776 1.397 . S
C777 C778 1.334 . S
C778 H749 0.950 . S
C778 C777 1.334 . S
C778 C779 1.287 . S
C779 C778 1.287 . S
C779 C780 1.524 . S
C779 H782 0.999 . S
C780 H750 0.950 . S
C780 C779 1.524 . S
C780 C781 1.415 . S
C781 H751 0.950 . S
C781 C776 1.363 . S
C781 C780 1.415 . S
H782 C779 0.999 . S
H783 C764 0.913 . S
H784 C802 0.951 . S
H785 C804 0.951 . S
H786 C806 0.950 . S
H787 C807 0.950 . S
H788 C809 0.950 . S
H789 C812 0.950 . S
H790 C813 0.950 . S
H791 C815 0.950 . S
H792 C816 0.950 . S
H793 C817 0.951 1_565 S
H794 C819 0.951 1_565 S
H795 C821 0.950 . S
H796 C822 0.950 . S
H797 C824 0.950 . S
H798 C827 0.950 . S
H799 C828 0.950 . S
H800 C830 0.950 . S
H801 C831 0.950 . S
C802 H784 0.951 . S
C802 C803 1.366 . S
C802 C804 1.388 . S
C803 C802 1.366 . S
C803 C807 1.385 1_545 S
C804 H785 0.951 . S
C804 C802 1.388 . S
C804 C805 1.366 . S
C805 C804 1.366 . S
C805 C806 1.414 1_545 S
C805 C808 1.499 1_455 S
C806 H786 0.950 . S
C806 C805 1.414 1_565 S
C806 C807 1.374 . S
C807 H787 0.950 . S
C807 C803 1.385 1_565 S
C807 C806 1.374 . S
C808 C805 1.499 1_655 S
C808 C809 1.373 1_545 S
C808 C810 1.389 . S
C809 H788 0.950 . S
C809 C808 1.373 1_565 S
C809 C825 1.377 . S
C810 C808 1.389 . S
C810 C811 1.524 . S
C810 C824 1.377 . S
C811 C810 1.524 . S
C811 C812 1.397 1_655 S
C811 C816 1.363 . S
C812 H789 0.950 . S
C812 C811 1.397 1_455 S
C812 C813 1.334 . S
C813 H790 0.950 . S
C813 C812 1.334 . S
C813 C814 1.287 . S
C814 C813 1.287 . S
C814 C815 1.524 1_455 S
C814 H833 0.913 . S
C815 H791 0.950 . S
C815 C814 1.524 1_655 S
C815 C816 1.415 . S
C816 H792 0.950 . S
C816 C811 1.363 . S
C816 C815 1.415 . S
C817 H793 0.951 1_545 S
C817 C818 1.366 . S
C817 C819 1.388 . S
C818 C817 1.366 . S
C818 C822 1.385 . S
C819 H794 0.951 1_545 S
C819 C817 1.388 . S
C819 C820 1.366 . S
C820 C819 1.366 . S
C820 C821 1.414 . S
C820 C823 1.499 . S
C821 H795 0.950 . S
C821 C820 1.414 . S
C821 C822 1.374 . S
C822 H796 0.950 . S
C822 C818 1.385 . S
C822 C821 1.374 . S
C823 C820 1.499 . S
C823 C824 1.373 . S
C823 C825 1.389 1_545 S
C824 H797 0.950 . S
C824 C810 1.377 . S
C824 C823 1.373 . S
C825 C809 1.377 . S
C825 C823 1.389 1_565 S
C825 C826 1.524 . S
C826 C825 1.524 . S
C826 C827 1.397 . S
C826 C831 1.363 . S
C827 H798 0.950 . S
C827 C826 1.397 . S
C827 C828 1.334 . S
C828 H799 0.950 . S
C828 C827 1.334 . S
C828 C829 1.287 . S
C829 C828 1.287 . S
C829 C830 1.524 . S
C829 H832 0.999 . S
C830 H800 0.950 . S
C830 C829 1.524 . S
C830 C831 1.415 . S
C831 H801 0.950 . S
C831 C826 1.363 . S
C831 C830 1.415 . S
H832 C829 0.999 . S
H833 C814 0.913 . S
H834 C852 0.951 . S
H835 C854 0.951 . S
H836 C856 0.950 . S
H837 C857 0.950 . S
H838 C859 0.950 . S
H839 C862 0.950 . S
H840 C863 0.950 . S
H841 C865 0.950 . S
H842 C866 0.950 . S
H843 C867 0.951 . S
H844 C869 0.951 . S
H845 C871 0.950 . S
H846 C872 0.950 . S
H847 C874 0.950 . S
H848 C877 0.950 . S
H849 C878 0.950 . S
H850 C880 0.950 . S
H851 C881 0.950 . S
C852 H834 0.951 . S
C852 C853 1.366 . S
C852 C854 1.388 . S
C853 C852 1.366 . S
C853 C857 1.385 . S
C854 H835 0.951 . S
C854 C852 1.388 . S
C854 C855 1.366 . S
C855 C854 1.366 . S
C855 C856 1.414 . S
C855 C858 1.499 . S
C856 H836 0.950 . S
C856 C855 1.414 . S
C856 C857 1.374 . S
C857 H837 0.950 . S
C857 C853 1.385 . S
C857 C856 1.374 . S
C858 C855 1.499 . S
C858 C859 1.373 . S
C858 C860 1.389 . S
C859 H838 0.950 . S
C859 C858 1.373 . S
C859 C875 1.377 . S
C860 C858 1.389 . S
C860 C861 1.524 . S
C860 C874 1.377 . S
C861 C860 1.524 . S
C861 C862 1.397 . S
C861 C866 1.363 . S
C862 H839 0.950 . S
C862 C861 1.397 . S
C862 C863 1.334 . S
C863 H840 0.950 . S
C863 C862 1.334 . S
C863 C864 1.287 . S
C864 C863 1.287 . S
C864 C865 1.524 . S
C864 H883 0.913 . S
C865 H841 0.950 . S
C865 C864 1.524 . S
C865 C866 1.415 . S
C866 H842 0.950 . S
C866 C861 1.363 . S
C866 C865 1.415 . S
C867 H843 0.951 . S
C867 C868 1.366 . S
C867 C869 1.388 . S
C868 C867 1.366 . S
C868 C872 1.385 . S
C869 H844 0.951 . S
C869 C867 1.388 . S
C869 C870 1.366 . S
C870 C869 1.366 . S
C870 C871 1.414 . S
C870 C873 1.499 . S
C871 H845 0.950 . S
C871 C870 1.414 . S
C871 C872 1.374 . S
C872 H846 0.950 . S
C872 C868 1.385 . S
C872 C871 1.374 . S
C873 C870 1.499 . S
C873 C874 1.373 . S
C873 C875 1.389 . S
C874 H847 0.950 . S
C874 C860 1.377 . S
C874 C873 1.373 . S
C875 C859 1.377 . S
C875 C873 1.389 . S
C875 C876 1.524 . S
C876 C875 1.524 . S
C876 C877 1.397 . S
C876 C881 1.363 . S
C877 H848 0.950 . S
C877 C876 1.397 . S
C877 C878 1.334 . S
C878 H849 0.950 . S
C878 C877 1.334 . S
C878 C879 1.287 . S
C879 C878 1.287 . S
C879 C880 1.524 . S
C879 H882 0.999 . S
C880 H850 0.950 . S
C880 C879 1.524 . S
C880 C881 1.415 . S
C881 H851 0.950 . S
C881 C876 1.363 . S
C881 C880 1.415 . S
H882 C879 0.999 . S
H883 C864 0.913 . S
H884 C902 0.951 . S
H885 C904 0.951 . S
H886 C906 0.950 . S
H887 C907 0.950 . S
H888 C909 0.950 . S
H889 C912 0.950 . S
H890 C913 0.950 . S
H891 C915 0.950 . S
H892 C916 0.950 . S
H893 C917 0.951 . S
H894 C919 0.951 . S
H895 C921 0.950 . S
H896 C922 0.950 . S
H897 C924 0.950 . S
H898 C927 0.950 . S
H899 C928 0.950 . S
H900 C930 0.950 . S
H901 C931 0.950 . S
C902 H884 0.951 . S
C902 C903 1.366 . S
C902 C904 1.388 . S
C903 C902 1.366 . S
C903 C907 1.385 1_545 S
C904 H885 0.951 . S
C904 C902 1.388 . S
C904 C905 1.366 . S
C905 C904 1.366 . S
C905 C906 1.414 1_545 S
C905 C908 1.499 . S
C906 H886 0.950 . S
C906 C905 1.414 1_565 S
C906 C907 1.374 . S
C907 H887 0.950 . S
C907 C903 1.385 1_565 S
C907 C906 1.374 . S
C908 C905 1.499 . S
C908 C909 1.373 1_545 S
C908 C910 1.389 . S
C909 H888 0.950 . S
C909 C908 1.373 1_565 S
C909 C925 1.377 . S
C910 C908 1.389 . S
C910 C911 1.524 . S
C910 C924 1.377 . S
C911 C910 1.524 . S
C911 C912 1.397 1_545 S
C911 C916 1.363 . S
C912 H889 0.950 . S
C912 C911 1.397 1_565 S
C912 C913 1.334 . S
C913 H890 0.950 . S
C913 C912 1.334 . S
C913 C914 1.287 1_565 S
C914 C913 1.287 1_545 S
C914 C915 1.524 . S
C914 H933 0.913 . S
C915 H891 0.950 . S
C915 C914 1.524 . S
C915 C916 1.415 . S
C916 H892 0.950 . S
C916 C911 1.363 . S
C916 C915 1.415 . S
C917 H893 0.951 . S
C917 C918 1.366 . S
C917 C919 1.388 . S
C918 C917 1.366 . S
C918 C922 1.385 1_565 S
C919 H894 0.951 . S
C919 C917 1.388 . S
C919 C920 1.366 1_565 S
C920 C919 1.366 1_545 S
C920 C921 1.414 . S
C920 C923 1.499 . S
C921 H895 0.950 . S
C921 C920 1.414 . S
C921 C922 1.374 . S
C922 H896 0.950 . S
C922 C918 1.385 1_545 S
C922 C921 1.374 . S
C923 C920 1.499 . S
C923 C924 1.373 . S
C923 C925 1.389 1_545 S
C924 H897 0.950 . S
C924 C910 1.377 . S
C924 C923 1.373 . S
C925 C909 1.377 . S
C925 C923 1.389 1_565 S
C925 C926 1.524 . S
C926 C925 1.524 . S
C926 C927 1.397 1_565 S
C926 C931 1.363 . S
C927 H898 0.950 . S
C927 C926 1.397 1_545 S
C927 C928 1.334 1_556 S
C928 H899 0.950 . S
C928 C927 1.334 1_554 S
C928 C929 1.287 1_545 S
C929 C928 1.287 1_565 S
C929 C930 1.524 . S
C929 H932 0.999 . S
C930 H900 0.950 . S
C930 C929 1.524 . S
C930 C931 1.415 1_554 S
C931 H901 0.950 . S
C931 C926 1.363 . S
C931 C930 1.415 1_556 S
H932 C929 0.999 . S
H933 C914 0.913 . S
H934 C952 0.951 . S
H935 C954 0.951 . S
H936 C956 0.950 . S
H937 C957 0.950 . S
H938 C959 0.950 . S
H939 C962 0.950 . S
H940 C963 0.950 . S
H941 C965 0.950 . S
H942 C966 0.950 . S
H943 C967 0.951 . S
H944 C969 0.951 . S
H945 C971 0.950 . S
H946 C972 0.950 . S
H947 C974 0.950 . S
H948 C977 0.950 . S
H949 C978 0.950 . S
H950 C980 0.950 . S
H951 C981 0.950 . S
C952 H934 0.951 . S
C952 C953 1.366 . S
C952 C954 1.388 . S
C953 C952 1.366 . S
C953 C957 1.385 . S
C954 H935 0.951 . S
C954 C952 1.388 . S
C954 C955 1.366 . S
C955 C954 1.366 . S
C955 C956 1.414 . S
C955 C958 1.499 . S
C956 H936 0.950 . S
C956 C955 1.414 . S
C956 C957 1.374 . S
C957 H937 0.950 . S
C957 C953 1.385 . S
C957 C956 1.374 . S
C958 C955 1.499 . S
C958 C959 1.373 . S
C958 C960 1.389 . S
C959 H938 0.950 . S
C959 C958 1.373 . S
C959 C975 1.377 . S
C960 C958 1.389 . S
C960 C961 1.524 . S
C960 C974 1.377 . S
C961 C960 1.524 . S
C961 C962 1.397 . S
C961 C966 1.363 . S
C962 H939 0.950 . S
C962 C961 1.397 . S
C962 C963 1.334 . S
C963 H940 0.950 . S
C963 C962 1.334 . S
C963 C964 1.287 . S
C964 C963 1.287 . S
C964 C965 1.524 . S
C964 H983 0.913 . S
C965 H941 0.950 . S
C965 C964 1.524 . S
C965 C966 1.415 . S
C966 H942 0.950 . S
C966 C961 1.363 . S
C966 C965 1.415 . S
C967 H943 0.951 . S
C967 C968 1.366 . S
C967 C969 1.388 . S
C968 C967 1.366 . S
C968 C972 1.385 . S
C969 H944 0.951 . S
C969 C967 1.388 . S
C969 C970 1.366 . S
C970 C969 1.366 . S
C970 C971 1.414 . S
C970 C973 1.499 . S
C971 H945 0.950 . S
C971 C970 1.414 . S
C971 C972 1.374 . S
C972 H946 0.950 . S
C972 C968 1.385 . S
C972 C971 1.374 . S
C973 C970 1.499 . S
C973 C974 1.373 . S
C973 C975 1.389 . S
C974 H947 0.950 . S
C974 C960 1.377 . S
C974 C973 1.373 . S
C975 C959 1.377 . S
C975 C973 1.389 . S
C975 C976 1.524 . S
C976 C975 1.524 . S
C976 C977 1.397 . S
C976 C981 1.363 . S
C977 H948 0.950 . S
C977 C976 1.397 . S
C977 C978 1.334 . S
C978 H949 0.950 . S
C978 C977 1.334 . S
C978 C979 1.287 . S
C979 C978 1.287 . S
C979 C980 1.524 . S
C979 H982 0.999 . S
C980 H950 0.950 . S
C980 C979 1.524 . S
C980 C981 1.415 . S
C981 H951 0.950 . S
C981 C976 1.363 . S
C981 C980 1.415 . S
H982 C979 0.999 . S
H983 C964 0.913 . S
H984 C1002 0.951 . S
H985 C1004 0.951 . S
H986 C1006 0.950 . S
H987 C1007 0.950 . S
H988 C1009 0.950 . S
H989 C1012 0.965 . S
H990 C1013 0.950 . S
H991 C1015 0.950 . S
H992 C1016 0.950 . S
H993 C1017 0.951 . S
H994 C1019 0.953 . S
H995 C1021 0.950 . S
H996 C1022 0.950 . S
H997 C1024 0.950 . S
H998 C1027 0.950 . S
H999 C1028 0.950 . S
H1000 C1030 0.950 . S
H1001 C1031 0.950 . S
C1002 H984 0.951 . S
C1002 C1003 1.366 . S
C1002 C1004 1.388 . S
C1003 C1002 1.366 . S
C1003 C1007 1.385 . S
C1004 H985 0.951 . S
C1004 C1002 1.388 . S
C1004 C1005 1.366 . S
C1005 C1004 1.366 . S
C1005 C1006 1.414 . S
C1005 C1008 1.499 1_455 S
C1006 H986 0.950 . S
C1006 C1005 1.414 . S
C1006 C1007 1.374 . S
C1007 H987 0.950 . S
C1007 C1003 1.385 . S
C1007 C1006 1.374 . S
C1008 C1005 1.499 1_655 S
C1008 C1009 1.373 . S
C1008 C1010 1.389 1_545 S
C1009 H988 0.950 . S
C1009 C1008 1.373 . S
C1009 C1025 1.377 . S
C1010 C1008 1.389 1_565 S
C1010 C1011 1.524 . S
C1010 C1024 1.377 . S
C1011 C1010 1.524 . S
C1011 C1012 1.374 1_655 S
C1011 C1016 1.363 . S
C1012 H989 0.965 . S
C1012 C1011 1.374 1_455 S
C1012 C1013 1.342 . S
C1013 H990 0.950 . S
C1013 C1012 1.342 . S
C1013 C1014 1.287 1_455 S
C1014 C1013 1.287 1_655 S
C1014 C1015 1.524 . S
C1014 H1033 0.913 . S
C1015 H991 0.950 . S
C1015 C1014 1.524 . S
C1015 C1016 1.415 . S
C1016 H992 0.950 . S
C1016 C1011 1.363 . S
C1016 C1015 1.415 . S
C1017 H993 0.951 . S
C1017 C1018 1.366 . S
C1017 C1019 1.387 1_565 S
C1018 C1017 1.366 . S
C1018 C1022 1.385 . S
C1019 H994 0.953 . S
C1019 C1017 1.387 1_545 S
C1019 C1020 1.365 . S
C1020 C1019 1.365 . S
C1020 C1021 1.413 1_545 S
C1020 C1023 1.499 . S
C1021 H995 0.950 . S
C1021 C1020 1.413 1_565 S
C1021 C1022 1.374 . S
C1022 H996 0.950 . S
C1022 C1018 1.385 . S
C1022 C1021 1.374 . S
C1023 C1020 1.499 . S
C1023 C1024 1.373 1_545 S
C1023 C1025 1.389 . S
C1024 H997 0.950 . S
C1024 C1010 1.377 . S
C1024 C1023 1.373 1_565 S
C1025 C1009 1.377 . S
C1025 C1023 1.389 . S
C1025 C1026 1.524 . S
C1026 C1025 1.524 . S
C1026 C1027 1.397 . S
C1026 C1031 1.363 . S
C1027 H998 0.950 . S
C1027 C1026 1.397 . S
C1027 C1028 1.334 . S
C1028 H999 0.950 . S
C1028 C1027 1.334 . S
C1028 C1029 1.287 . S
C1029 C1028 1.287 . S
C1029 C1030 1.524 . S
C1029 H1032 0.999 . S
C1030 H1000 0.950 . S
C1030 C1029 1.524 . S
C1030 C1031 1.415 . S
C1031 H1001 0.950 . S
C1031 C1026 1.363 . S
C1031 C1030 1.415 . S
H1032 C1029 0.999 . S
H1033 C1014 0.913 . S
H1034 C1052 0.951 . S
H1035 C1054 0.951 . S
H1036 C1056 0.950 . S
H1037 C1057 0.950 . S
H1038 C1059 0.950 . S
H1039 C1062 0.950 . S
H1040 C1063 0.950 . S
H1041 C1065 0.950 . S
H1042 C1066 0.950 . S
H1043 C1067 0.951 . S
H1044 C1069 0.951 . S
H1045 C1071 0.950 . S
H1046 C1072 0.950 . S
H1047 C1074 0.950 . S
H1048 C1077 0.950 . S
H1049 C1078 0.950 . S
H1050 C1080 0.950 . S
H1051 C1081 0.950 . S
C1052 H1034 0.951 . S
C1052 C1053 1.366 . S
C1052 C1054 1.388 . S
C1053 C1052 1.366 . S
C1053 C1057 1.385 . S
C1054 H1035 0.951 . S
C1054 C1052 1.388 . S
C1054 C1055 1.366 . S
C1055 C1054 1.366 . S
C1055 C1056 1.414 . S
C1055 C1058 1.499 . S
C1056 H1036 0.950 . S
C1056 C1055 1.414 . S
C1056 C1057 1.374 . S
C1057 H1037 0.950 . S
C1057 C1053 1.385 . S
C1057 C1056 1.374 . S
C1058 C1055 1.499 . S
C1058 C1059 1.373 . S
C1058 C1060 1.389 . S
C1059 H1038 0.950 . S
C1059 C1058 1.373 . S
C1059 C1075 1.377 . S
C1060 C1058 1.389 . S
C1060 C1061 1.524 . S
C1060 C1074 1.377 . S
C1061 C1060 1.524 . S
C1061 C1062 1.397 . S
C1061 C1066 1.363 . S
C1062 H1039 0.950 . S
C1062 C1061 1.397 . S
C1062 C1063 1.334 . S
C1063 H1040 0.950 . S
C1063 C1062 1.334 . S
C1063 C1064 1.287 . S
C1064 C1063 1.287 . S
C1064 C1065 1.524 . S
C1064 H1083 0.913 . S
C1065 H1041 0.950 . S
C1065 C1064 1.524 . S
C1065 C1066 1.415 . S
C1066 H1042 0.950 . S
C1066 C1061 1.363 . S
C1066 C1065 1.415 . S
C1067 H1043 0.951 . S
C1067 C1068 1.366 . S
C1067 C1069 1.388 . S
C1068 C1067 1.366 . S
C1068 C1072 1.385 . S
C1069 H1044 0.951 . S
C1069 C1067 1.388 . S
C1069 C1070 1.366 . S
C1070 C1069 1.366 . S
C1070 C1071 1.414 . S
C1070 C1073 1.499 . S
C1071 H1045 0.950 . S
C1071 C1070 1.414 . S
C1071 C1072 1.374 . S
C1072 H1046 0.950 . S
C1072 C1068 1.385 . S
C1072 C1071 1.374 . S
C1073 C1070 1.499 . S
C1073 C1074 1.373 . S
C1073 C1075 1.389 . S
C1074 H1047 0.950 . S
C1074 C1060 1.377 . S
C1074 C1073 1.373 . S
C1075 C1059 1.377 . S
C1075 C1073 1.389 . S
C1075 C1076 1.524 . S
C1076 C1075 1.524 . S
C1076 C1077 1.397 . S
C1076 C1081 1.363 . S
C1077 H1048 0.950 . S
C1077 C1076 1.397 . S
C1077 C1078 1.334 . S
C1078 H1049 0.950 . S
C1078 C1077 1.334 . S
C1078 C1079 1.287 . S
C1079 C1078 1.287 . S
C1079 C1080 1.524 . S
C1079 H1082 0.999 . S
C1080 H1050 0.950 . S
C1080 C1079 1.524 . S
C1080 C1081 1.415 . S
C1081 H1051 0.950 . S
C1081 C1076 1.363 . S
C1081 C1080 1.415 . S
H1082 C1079 0.999 . S
H1083 C1064 0.913 . S
H1084 C1102 0.951 . S
H1085 C1104 0.951 . S
H1086 C1106 0.950 . S
H1087 C1107 0.950 . S
H1088 C1109 0.950 . S
H1089 C1112 0.950 . S
H1090 C1113 0.950 . S
H1091 C1115 0.950 . S
H1092 C1116 0.950 . S
H1093 C1117 0.951 . S
H1094 C1119 0.951 . S
H1095 C1121 0.950 . S
H1096 C1122 0.950 . S
H1097 C1124 0.950 . S
H1098 C1127 0.950 . S
H1099 C1128 0.950 . S
H1100 C1130 0.950 . S
H1101 C1131 0.950 . S
C1102 H1084 0.951 . S
C1102 C1103 1.366 . S
C1102 C1104 1.387 1_565 S
C1103 C1102 1.366 . S
C1103 C1107 1.388 . S
C1104 H1085 0.951 . S
C1104 C1102 1.387 1_545 S
C1104 C1105 1.367 . S
C1105 C1104 1.367 . S
C1105 C1106 1.414 . S
C1105 C1108 1.499 . S
C1106 H1086 0.950 . S
C1106 C1105 1.414 . S
C1106 C1107 1.372 1_545 S
C1107 H1087 0.950 . S
C1107 C1103 1.388 . S
C1107 C1106 1.372 1_565 S
C1108 C1105 1.499 . S
C1108 C1109 1.373 1_545 S
C1108 C1110 1.389 . S
C1109 H1088 0.950 . S
C1109 C1108 1.373 1_565 S
C1109 C1125 1.377 . S
C1110 C1108 1.389 . S
C1110 C1111 1.524 . S
C1110 C1124 1.377 . S
C1111 C1110 1.524 . S
C1111 C1112 1.397 . S
C1111 C1116 1.363 . S
C1112 H1089 0.950 . S
C1112 C1111 1.397 . S
C1112 C1113 1.334 . S
C1113 H1090 0.950 . S
C1113 C1112 1.334 . S
C1113 C1114 1.287 . S
C1114 C1113 1.287 . S
C1114 C1115 1.524 . S
C1114 H1133 0.913 . S
C1115 H1091 0.950 . S
C1115 C1114 1.524 . S
C1115 C1116 1.415 . S
C1116 H1092 0.950 . S
C1116 C1111 1.363 . S
C1116 C1115 1.415 . S
C1117 H1093 0.951 . S
C1117 C1118 1.366 . S
C1117 C1119 1.388 . S
C1118 C1117 1.366 . S
C1118 C1122 1.385 . S
C1119 H1094 0.951 . S
C1119 C1117 1.388 . S
C1119 C1120 1.366 . S
C1120 C1119 1.366 . S
C1120 C1121 1.414 . S
C1120 C1123 1.499 . S
C1121 H1095 0.950 . S
C1121 C1120 1.414 . S
C1121 C1122 1.374 . S
C1122 H1096 0.950 . S
C1122 C1118 1.385 . S
C1122 C1121 1.374 . S
C1123 C1120 1.499 . S
C1123 C1124 1.373 . S
C1123 C1125 1.389 1_545 S
C1124 H1097 0.950 . S
C1124 C1110 1.377 . S
C1124 C1123 1.373 . S
C1125 C1109 1.377 . S
C1125 C1123 1.389 1_565 S
C1125 C1126 1.524 . S
C1126 C1125 1.524 . S
C1126 C1127 1.397 . S
C1126 C1131 1.363 . S
C1127 H1098 0.950 . S
C1127 C1126 1.397 . S
C1127 C1128 1.334 . S
C1128 H1099 0.950 . S
C1128 C1127 1.334 . S
C1128 C1129 1.287 . S
C1129 C1128 1.287 . S
C1129 C1130 1.524 . S
C1129 H1132 0.999 . S
C1130 H1100 0.950 . S
C1130 C1129 1.524 . S
C1130 C1131 1.415 . S
C1131 H1101 0.950 . S
C1131 C1126 1.363 . S
C1131 C1130 1.415 . S
H1132 C1129 0.999 . S
H1133 C1114 0.913 . S
H1134 C1152 0.951 . S
H1135 C1154 0.951 . S
H1136 C1156 0.950 . S
H1137 C1157 0.950 . S
H1138 C1159 0.950 . S
H1139 C1162 0.950 . S
H1140 C1163 0.950 . S
H1141 C1165 0.950 . S
H1142 C1166 0.950 . S
H1143 C1167 0.951 . S
H1144 C1169 0.951 . S
H1145 C1171 0.950 . S
H1146 C1172 0.950 . S
H1147 C1174 0.950 . S
H1148 C1177 0.950 . S
H1149 C1178 0.950 . S
H1150 C1180 0.950 . S
H1151 C1181 0.950 . S
C1152 H1134 0.951 . S
C1152 C1153 1.366 . S
C1152 C1154 1.388 . S
C1153 C1152 1.366 . S
C1153 C1157 1.385 . S
C1154 H1135 0.951 . S
C1154 C1152 1.388 . S
C1154 C1155 1.366 . S
C1155 C1154 1.366 . S
C1155 C1156 1.414 . S
C1155 C1158 1.499 . S
C1156 H1136 0.950 . S
C1156 C1155 1.414 . S
C1156 C1157 1.374 . S
C1157 H1137 0.950 . S
C1157 C1153 1.385 . S
C1157 C1156 1.374 . S
C1158 C1155 1.499 . S
C1158 C1159 1.373 . S
C1158 C1160 1.389 . S
C1159 H1138 0.950 . S
C1159 C1158 1.373 . S
C1159 C1175 1.377 . S
C1160 C1158 1.389 . S
C1160 C1161 1.524 . S
C1160 C1174 1.377 . S
C1161 C1160 1.524 . S
C1161 C1162 1.397 . S
C1161 C1166 1.363 . S
C1162 H1139 0.950 . S
C1162 C1161 1.397 . S
C1162 C1163 1.334 . S
C1163 H1140 0.950 . S
C1163 C1162 1.334 . S
C1163 C1164 1.287 . S
C1164 C1163 1.287 . S
C1164 C1165 1.524 . S
C1164 H1183 0.913 . S
C1165 H1141 0.950 . S
C1165 C1164 1.524 . S
C1165 C1166 1.415 . S
C1166 H1142 0.950 . S
C1166 C1161 1.363 . S
C1166 C1165 1.415 . S
C1167 H1143 0.951 . S
C1167 C1168 1.366 . S
C1167 C1169 1.388 . S
C1168 C1167 1.366 . S
C1168 C1172 1.385 . S
C1169 H1144 0.951 . S
C1169 C1167 1.388 . S
C1169 C1170 1.366 . S
C1170 C1169 1.366 . S
C1170 C1171 1.414 . S
C1170 C1173 1.499 . S
C1171 H1145 0.950 . S
C1171 C1170 1.414 . S
C1171 C1172 1.374 . S
C1172 H1146 0.950 . S
C1172 C1168 1.385 . S
C1172 C1171 1.374 . S
C1173 C1170 1.499 . S
C1173 C1174 1.373 . S
C1173 C1175 1.389 . S
C1174 H1147 0.950 . S
C1174 C1160 1.377 . S
C1174 C1173 1.373 . S
C1175 C1159 1.377 . S
C1175 C1173 1.389 . S
C1175 C1176 1.524 . S
C1176 C1175 1.524 . S
C1176 C1177 1.397 . S
C1176 C1181 1.363 . S
C1177 H1148 0.950 . S
C1177 C1176 1.397 . S
C1177 C1178 1.334 . S
C1178 H1149 0.950 . S
C1178 C1177 1.334 . S
C1178 C1179 1.287 . S
C1179 C1178 1.287 . S
C1179 C1180 1.524 . S
C1179 H1182 0.999 . S
C1180 H1150 0.950 . S
C1180 C1179 1.524 . S
C1180 C1181 1.415 . S
C1181 H1151 0.950 . S
C1181 C1176 1.363 . S
C1181 C1180 1.415 . S
H1182 C1179 0.999 . S
H1183 C1164 0.913 . S
H1184 C1202 0.951 . S
H1185 C1204 0.951 . S
H1186 C1206 0.950 1_565 S
H1187 C1207 0.950 . S
H1188 C1209 0.950 . S
H1189 C1212 0.950 . S
H1190 C1213 0.950 . S
H1191 C1215 0.950 . S
H1192 C1216 0.950 1_564 S
H1193 C1217 0.951 . S
H1194 C1219 0.951 . S
H1195 C1221 0.950 . S
H1196 C1222 0.950 . S
H1197 C1224 0.950 . S
H1198 C1227 0.950 . S
H1199 C1228 0.950 . S
H1200 C1230 0.950 . S
H1201 C1231 0.950 1_556 S
C1202 H1184 0.951 . S
C1202 C1203 1.366 1_554 S
C1202 C1204 1.388 . S
C1203 C1202 1.366 1_556 S
C1203 C1207 1.385 . S
C1204 H1185 0.951 . S
C1204 C1202 1.388 . S
C1204 C1205 1.366 1_554 S
C1205 C1204 1.366 1_556 S
C1205 C1206 1.414 . S
C1205 C1208 1.500 1_545 S
C1206 H1186 0.950 1_545 S
C1206 C1205 1.414 . S
C1206 C1207 1.374 . S
C1207 H1187 0.950 . S
C1207 C1203 1.385 . S
C1207 C1206 1.374 . S
C1208 C1205 1.500 1_565 S
C1208 C1209 1.370 1_556 S
C1208 C1210 1.391 . S
C1209 H1188 0.950 . S
C1209 C1208 1.370 1_554 S
C1209 C1225 1.377 . S
C1210 C1208 1.391 . S
C1210 C1211 1.524 . S
C1210 C1224 1.377 . S
C1211 C1210 1.524 . S
C1211 C1212 1.397 1_565 S
C1211 C1216 1.363 1_565 S
C1212 H1189 0.950 . S
C1212 C1211 1.397 1_545 S
C1212 C1213 1.334 . S
C1213 H1190 0.950 . S
C1213 C1212 1.334 . S
C1213 C1214 1.287 . S
C1214 C1213 1.287 . S
C1214 C1215 1.524 . S
C1214 H1233 0.913 . S
C1215 H1191 0.950 . S
C1215 C1214 1.524 . S
C1215 C1216 1.415 . S
C1216 H1192 0.950 1_546 S
C1216 C1211 1.363 1_545 S
C1216 C1215 1.415 . S
C1217 H1193 0.951 . S
C1217 C1218 1.366 1_556 S
C1217 C1219 1.388 . S
C1218 C1217 1.366 1_554 S
C1218 C1222 1.385 . S
C1219 H1194 0.951 . S
C1219 C1217 1.388 . S
C1219 C1220 1.366 1_556 S
C1220 C1219 1.366 1_554 S
C1220 C1221 1.414 . S
C1220 C1223 1.499 . S
C1221 H1195 0.950 . S
C1221 C1220 1.414 . S
C1221 C1222 1.374 . S
C1222 H1196 0.950 . S
C1222 C1218 1.385 . S
C1222 C1221 1.374 . S
C1223 C1220 1.499 . S
C1223 C1224 1.373 1_554 S
C1223 C1225 1.389 . S
C1224 H1197 0.950 . S
C1224 C1210 1.377 . S
C1224 C1223 1.373 1_556 S
C1225 C1209 1.377 . S
C1225 C1223 1.389 . S
C1225 C1226 1.524 . S
C1226 C1225 1.524 . S
C1226 C1227 1.397 . S
C1226 C1231 1.363 . S
C1227 H1198 0.950 . S
C1227 C1226 1.397 . S
C1227 C1228 1.334 . S
C1228 H1199 0.950 . S
C1228 C1227 1.334 . S
C1228 C1229 1.287 . S
C1229 C1228 1.287 . S
C1229 C1230 1.524 . S
C1229 H1232 0.999 . S
C1230 H1200 0.950 . S
C1230 C1229 1.524 . S
C1230 C1231 1.415 . S
C1231 H1201 0.950 1_554 S
C1231 C1226 1.363 . S
C1231 C1230 1.415 . S
H1232 C1229 0.999 . S
H1233 C1214 0.913 . S
H1234 C1252 0.951 . S
H1235 C1254 0.951 . S
H1236 C1256 0.950 . S
H1237 C1257 0.950 . S
H1238 C1259 0.950 . S
H1239 C1262 0.950 . S
H1240 C1263 0.950 . S
H1241 C1265 0.950 . S
H1242 C1266 0.950 . S
H1243 C1267 0.951 1_455 S
H1244 C1269 0.951 . S
H1245 C1271 0.950 . S
H1246 C1272 0.950 . S
H1247 C1274 0.950 . S
H1248 C1277 0.950 . S
H1249 C1278 0.950 . S
H1250 C1280 0.950 . S
H1251 C1281 0.950 . S
C1252 H1234 0.951 . S
C1252 C1253 1.366 . S
C1252 C1254 1.388 . S
C1253 C1252 1.366 . S
C1253 C1257 1.385 . S
C1254 H1235 0.951 . S
C1254 C1252 1.388 . S
C1254 C1255 1.366 . S
C1255 C1254 1.366 . S
C1255 C1256 1.414 . S
C1255 C1258 1.499 . S
C1256 H1236 0.950 . S
C1256 C1255 1.414 . S
C1256 C1257 1.374 . S
C1257 H1237 0.950 . S
C1257 C1253 1.385 . S
C1257 C1256 1.374 . S
C1258 C1255 1.499 . S
C1258 C1259 1.373 . S
C1258 C1260 1.389 1_554 S
C1259 H1238 0.950 . S
C1259 C1258 1.373 . S
C1259 C1275 1.377 . S
C1260 C1258 1.389 1_556 S
C1260 C1261 1.524 . S
C1260 C1274 1.377 . S
C1261 C1260 1.524 . S
C1261 C1262 1.397 . S
C1261 C1266 1.363 . S
C1262 H1239 0.950 . S
C1262 C1261 1.397 . S
C1262 C1263 1.334 . S
C1263 H1240 0.950 . S
C1263 C1262 1.334 . S
C1263 C1264 1.287 . S
C1264 C1263 1.287 . S
C1264 C1265 1.524 . S
C1264 H1283 0.913 . S
C1265 H1241 0.950 . S
C1265 C1264 1.524 . S
C1265 C1266 1.415 . S
C1266 H1242 0.950 . S
C1266 C1261 1.363 . S
C1266 C1265 1.415 . S
C1267 H1243 0.951 1_655 S
C1267 C1268 1.366 . S
C1267 C1269 1.388 . S
C1268 C1267 1.366 . S
C1268 C1272 1.385 . S
C1269 H1244 0.951 . S
C1269 C1267 1.388 . S
C1269 C1270 1.366 . S
C1270 C1269 1.366 . S
C1270 C1271 1.414 . S
C1270 C1273 1.499 . S
C1271 H1245 0.950 . S
C1271 C1270 1.414 . S
C1271 C1272 1.374 . S
C1272 H1246 0.950 . S
C1272 C1268 1.385 . S
C1272 C1271 1.374 . S
C1273 C1270 1.499 . S
C1273 C1274 1.373 1_554 S
C1273 C1275 1.389 . S
C1274 H1247 0.950 . S
C1274 C1260 1.377 . S
C1274 C1273 1.373 1_556 S
C1275 C1259 1.377 . S
C1275 C1273 1.389 . S
C1275 C1276 1.524 . S
C1276 C1275 1.524 . S
C1276 C1277 1.397 . S
C1276 C1281 1.363 . S
C1277 H1248 0.950 . S
C1277 C1276 1.397 . S
C1277 C1278 1.334 . S
C1278 H1249 0.950 . S
C1278 C1277 1.334 . S
C1278 C1279 1.287 1_655 S
C1279 C1278 1.287 1_455 S
C1279 C1280 1.524 . S
C1279 H1282 0.999 . S
C1280 H1250 0.950 . S
C1280 C1279 1.524 . S
C1280 C1281 1.415 1_455 S
C1281 H1251 0.950 . S
C1281 C1276 1.363 . S
C1281 C1280 1.415 1_655 S
H1282 C1279 0.999 . S
H1283 C1264 0.913 . S
H1284 C1302 0.951 . S
H1285 C1304 0.951 . S
H1286 C1306 0.950 . S
H1287 C1307 0.950 . S
H1288 C1309 0.950 . S
H1289 C1312 0.950 . S
H1290 C1313 0.950 . S
H1291 C1315 0.950 . S
H1292 C1316 0.950 . S
H1293 C1317 0.951 . S
H1294 C1319 0.951 . S
H1295 C1321 0.950 . S
H1296 C1322 0.950 . S
H1297 C1324 0.950 . S
H1298 C1327 0.950 . S
H1299 C1328 0.950 . S
H1300 C1330 0.950 . S
H1301 C1331 0.950 . S
C1302 H1284 0.951 . S
C1302 C1303 1.366 . S
C1302 C1304 1.388 . S
C1303 C1302 1.366 . S
C1303 C1307 1.385 . S
C1304 H1285 0.951 . S
C1304 C1302 1.388 . S
C1304 C1305 1.366 . S
C1305 C1304 1.366 . S
C1305 C1306 1.414 . S
C1305 C1308 1.499 . S
C1306 H1286 0.950 . S
C1306 C1305 1.414 . S
C1306 C1307 1.374 . S
C1307 H1287 0.950 . S
C1307 C1303 1.385 . S
C1307 C1306 1.374 . S
C1308 C1305 1.499 . S
C1308 C1309 1.373 . S
C1308 C1310 1.389 . S
C1309 H1288 0.950 . S
C1309 C1308 1.373 . S
C1309 C1325 1.377 . S
C1310 C1308 1.389 . S
C1310 C1311 1.524 . S
C1310 C1324 1.377 . S
C1311 C1310 1.524 . S
C1311 C1312 1.397 . S
C1311 C1316 1.363 . S
C1312 H1289 0.950 . S
C1312 C1311 1.397 . S
C1312 C1313 1.334 . S
C1313 H1290 0.950 . S
C1313 C1312 1.334 . S
C1313 C1314 1.287 . S
C1314 C1313 1.287 . S
C1314 C1315 1.524 . S
C1314 H1333 0.913 . S
C1315 H1291 0.950 . S
C1315 C1314 1.524 . S
C1315 C1316 1.415 . S
C1316 H1292 0.950 . S
C1316 C1311 1.363 . S
C1316 C1315 1.415 . S
C1317 H1293 0.951 . S
C1317 C1318 1.366 . S
C1317 C1319 1.388 . S
C1318 C1317 1.366 . S
C1318 C1322 1.385 . S
C1319 H1294 0.951 . S
C1319 C1317 1.388 . S
C1319 C1320 1.366 . S
C1320 C1319 1.366 . S
C1320 C1321 1.414 . S
C1320 C1323 1.499 . S
C1321 H1295 0.950 . S
C1321 C1320 1.414 . S
C1321 C1322 1.374 . S
C1322 H1296 0.950 . S
C1322 C1318 1.385 . S
C1322 C1321 1.374 . S
C1323 C1320 1.499 . S
C1323 C1324 1.373 . S
C1323 C1325 1.389 . S
C1324 H1297 0.950 . S
C1324 C1310 1.377 . S
C1324 C1323 1.373 . S
C1325 C1309 1.377 . S
C1325 C1323 1.389 . S
C1325 C1326 1.524 . S
C1326 C1325 1.524 . S
C1326 C1327 1.397 . S
C1326 C1331 1.363 . S
C1327 H1298 0.950 . S
C1327 C1326 1.397 . S
C1327 C1328 1.334 . S
C1328 H1299 0.950 . S
C1328 C1327 1.334 . S
C1328 C1329 1.287 . S
C1329 C1328 1.287 . S
C1329 C1330 1.524 . S
C1329 H1332 0.999 . S
C1330 H1300 0.950 . S
C1330 C1329 1.524 . S
C1330 C1331 1.415 . S
C1331 H1301 0.950 . S
C1331 C1326 1.363 . S
C1331 C1330 1.415 . S
H1332 C1329 0.999 . S
H1333 C1314 0.913 . S
H1334 C1352 0.951 . S
H1335 C1354 0.951 . S
H1336 C1356 0.950 . S
H1337 C1357 0.950 . S
H1338 C1359 0.950 . S
H1339 C1362 0.950 . S
H1340 C1363 0.950 . S
H1341 C1365 0.950 . S
H1342 C1366 0.950 . S
H1343 C1367 0.951 . S
H1344 C1369 0.951 . S
H1345 C1371 0.950 . S
H1346 C1372 0.950 . S
H1347 C1374 0.950 . S
H1348 C1377 0.950 . S
H1349 C1378 0.950 . S
H1350 C1380 0.950 . S
H1351 C1381 0.950 . S
C1352 H1334 0.951 . S
C1352 C1353 1.366 . S
C1352 C1354 1.388 . S
C1353 C1352 1.366 . S
C1353 C1357 1.385 . S
C1354 H1335 0.951 . S
C1354 C1352 1.388 . S
C1354 C1355 1.366 . S
C1355 C1354 1.366 . S
C1355 C1356 1.414 . S
C1355 C1358 1.499 . S
C1356 H1336 0.950 . S
C1356 C1355 1.414 . S
C1356 C1357 1.374 . S
C1357 H1337 0.950 . S
C1357 C1353 1.385 . S
C1357 C1356 1.374 . S
C1358 C1355 1.499 . S
C1358 C1359 1.373 . S
C1358 C1360 1.389 . S
C1359 H1338 0.950 . S
C1359 C1358 1.373 . S
C1359 C1375 1.377 . S
C1360 C1358 1.389 . S
C1360 C1361 1.524 . S
C1360 C1374 1.377 . S
C1361 C1360 1.524 . S
C1361 C1362 1.397 . S
C1361 C1366 1.363 . S
C1362 H1339 0.950 . S
C1362 C1361 1.397 . S
C1362 C1363 1.334 . S
C1363 H1340 0.950 . S
C1363 C1362 1.334 . S
C1363 C1364 1.287 . S
C1364 C1363 1.287 . S
C1364 C1365 1.524 . S
C1364 H1383 0.913 . S
C1365 H1341 0.950 . S
C1365 C1364 1.524 . S
C1365 C1366 1.415 . S
C1366 H1342 0.950 . S
C1366 C1361 1.363 . S
C1366 C1365 1.415 . S
C1367 H1343 0.951 . S
C1367 C1368 1.366 . S
C1367 C1369 1.388 . S
C1368 C1367 1.366 . S
C1368 C1372 1.385 . S
C1369 H1344 0.951 . S
C1369 C1367 1.388 . S
C1369 C1370 1.366 . S
C1370 C1369 1.366 . S
C1370 C1371 1.414 . S
C1370 C1373 1.499 . S
C1371 H1345 0.950 . S
C1371 C1370 1.414 . S
C1371 C1372 1.374 . S
C1372 H1346 0.950 . S
C1372 C1368 1.385 . S
C1372 C1371 1.374 . S
C1373 C1370 1.499 . S
C1373 C1374 1.373 . S
C1373 C1375 1.389 . S
C1374 H1347 0.950 . S
C1374 C1360 1.377 . S
C1374 C1373 1.373 . S
C1375 C1359 1.377 . S
C1375 C1373 1.389 . S
C1375 C1376 1.524 . S
C1376 C1375 1.524 . S
C1376 C1377 1.397 . S
C1376 C1381 1.363 . S
C1377 H1348 0.950 . S
C1377 C1376 1.397 . S
C1377 C1378 1.334 . S
C1378 H1349 0.950 . S
C1378 C1377 1.334 . S
C1378 C1379 1.287 . S
C1379 C1378 1.287 . S
C1379 C1380 1.524 . S
C1379 H1382 0.999 . S
C1380 H1350 0.950 . S
C1380 C1379 1.524 . S
C1380 C1381 1.415 . S
C1381 H1351 0.950 . S
C1381 C1376 1.363 . S
C1381 C1380 1.415 . S
H1382 C1379 0.999 . S
H1383 C1364 0.913 . S
H1384 C1402 0.951 . S
H1385 C1404 0.951 . S
H1386 C1406 0.950 . S
H1387 C1407 0.950 . S
H1388 C1409 0.950 . S
H1389 C1412 0.950 . S
H1390 C1413 0.950 . S
H1391 C1415 0.950 . S
H1392 C1416 0.950 . S
H1393 C1417 0.951 . S
H1394 C1419 0.951 . S
H1395 C1421 0.950 . S
H1396 C1422 0.950 . S
H1397 C1424 0.950 . S
H1398 C1427 0.950 . S
H1399 C1428 0.950 . S
H1400 C1430 0.950 . S
H1401 C1431 0.950 . S
C1402 H1384 0.951 . S
C1402 C1403 1.366 . S
C1402 C1404 1.388 . S
C1403 C1402 1.366 . S
C1403 C1407 1.385 . S
C1404 H1385 0.951 . S
C1404 C1402 1.388 . S
C1404 C1405 1.366 . S
C1405 C1404 1.366 . S
C1405 C1406 1.414 . S
C1405 C1408 1.499 . S
C1406 H1386 0.950 . S
C1406 C1405 1.414 . S
C1406 C1407 1.374 . S
C1407 H1387 0.950 . S
C1407 C1403 1.385 . S
C1407 C1406 1.374 . S
C1408 C1405 1.499 . S
C1408 C1409 1.373 . S
C1408 C1410 1.389 . S
C1409 H1388 0.950 . S
C1409 C1408 1.373 . S
C1409 C1425 1.377 . S
C1410 C1408 1.389 . S
C1410 C1411 1.524 . S
C1410 C1424 1.377 . S
C1411 C1410 1.524 . S
C1411 C1412 1.397 . S
C1411 C1416 1.363 . S
C1412 H1389 0.950 . S
C1412 C1411 1.397 . S
C1412 C1413 1.334 . S
C1413 H1390 0.950 . S
C1413 C1412 1.334 . S
C1413 C1414 1.287 . S
C1414 C1413 1.287 . S
C1414 C1415 1.524 . S
C1414 H1433 0.913 . S
C1415 H1391 0.950 . S
C1415 C1414 1.524 . S
C1415 C1416 1.415 . S
C1416 H1392 0.950 . S
C1416 C1411 1.363 . S
C1416 C1415 1.415 . S
C1417 H1393 0.951 . S
C1417 C1418 1.366 . S
C1417 C1419 1.388 . S
C1418 C1417 1.366 . S
C1418 C1422 1.385 . S
C1419 H1394 0.951 . S
C1419 C1417 1.388 . S
C1419 C1420 1.366 . S
C1420 C1419 1.366 . S
C1420 C1421 1.414 . S
C1420 C1423 1.499 . S
C1421 H1395 0.950 . S
C1421 C1420 1.414 . S
C1421 C1422 1.374 . S
C1422 H1396 0.950 . S
C1422 C1418 1.385 . S
C1422 C1421 1.374 . S
C1423 C1420 1.499 . S
C1423 C1424 1.373 . S
C1423 C1425 1.389 . S
C1424 H1397 0.950 . S
C1424 C1410 1.377 . S
C1424 C1423 1.373 . S
C1425 C1409 1.377 . S
C1425 C1423 1.389 . S
C1425 C1426 1.524 . S
C1426 C1425 1.524 . S
C1426 C1427 1.397 . S
C1426 C1431 1.363 . S
C1427 H1398 0.950 . S
C1427 C1426 1.397 . S
C1427 C1428 1.334 . S
C1428 H1399 0.950 . S
C1428 C1427 1.334 . S
C1428 C1429 1.287 . S
C1429 C1428 1.287 . S
C1429 C1430 1.524 . S
C1429 H1432 0.999 . S
C1430 H1400 0.950 . S
C1430 C1429 1.524 . S
C1430 C1431 1.415 . S
C1431 H1401 0.950 . S
C1431 C1426 1.363 . S
C1431 C1430 1.415 . S
H1432 C1429 0.999 . S
H1433 C1414 0.913 . S
H1434 C1452 0.951 . S
H1435 C1454 0.951 . S
H1436 C1456 0.950 . S
H1437 C1457 0.950 . S
H1438 C1459 0.950 . S
H1439 C1462 0.950 . S
H1440 C1463 0.950 . S
H1441 C1465 0.950 . S
H1442 C1466 0.950 . S
H1443 C1467 0.951 . S
H1444 C1469 0.951 . S
H1445 C1471 0.950 . S
H1446 C1472 0.950 . S
H1447 C1474 0.950 . S
H1448 C1477 0.950 . S
H1449 C1478 0.950 . S
H1450 C1480 0.950 . S
H1451 C1481 0.950 . S
C1452 H1434 0.951 . S
C1452 C1453 1.366 . S
C1452 C1454 1.388 . S
C1453 C1452 1.366 . S
C1453 C1457 1.385 . S
C1454 H1435 0.951 . S
C1454 C1452 1.388 . S
C1454 C1455 1.366 . S
C1455 C1454 1.366 . S
C1455 C1456 1.414 . S
C1455 C1458 1.499 1_565 S
C1456 H1436 0.950 . S
C1456 C1455 1.414 . S
C1456 C1457 1.374 . S
C1457 H1437 0.950 . S
C1457 C1453 1.385 . S
C1457 C1456 1.374 . S
C1458 C1455 1.499 1_545 S
C1458 C1459 1.373 . S
C1458 C1460 1.389 . S
C1459 H1438 0.950 . S
C1459 C1458 1.373 . S
C1459 C1475 1.377 . S
C1460 C1458 1.389 . S
C1460 C1461 1.524 . S
C1460 C1474 1.377 . S
C1461 C1460 1.524 . S
C1461 C1462 1.397 . S
C1461 C1466 1.363 . S
C1462 H1439 0.950 . S
C1462 C1461 1.397 . S
C1462 C1463 1.334 . S
C1463 H1440 0.950 . S
C1463 C1462 1.334 . S
C1463 C1464 1.287 . S
C1464 C1463 1.287 . S
C1464 C1465 1.524 . S
C1464 H1483 0.913 . S
C1465 H1441 0.950 . S
C1465 C1464 1.524 . S
C1465 C1466 1.415 . S
C1466 H1442 0.950 . S
C1466 C1461 1.363 . S
C1466 C1465 1.415 . S
C1467 H1443 0.951 . S
C1467 C1468 1.366 . S
C1467 C1469 1.388 . S
C1468 C1467 1.366 . S
C1468 C1472 1.385 . S
C1469 H1444 0.951 . S
C1469 C1467 1.388 . S
C1469 C1470 1.366 . S
C1470 C1469 1.366 . S
C1470 C1471 1.414 . S
C1470 C1473 1.499 . S
C1471 H1445 0.950 . S
C1471 C1470 1.414 . S
C1471 C1472 1.374 . S
C1472 H1446 0.950 . S
C1472 C1468 1.385 . S
C1472 C1471 1.374 . S
C1473 C1470 1.499 . S
C1473 C1474 1.373 . S
C1473 C1475 1.389 . S
C1474 H1447 0.950 . S
C1474 C1460 1.377 . S
C1474 C1473 1.373 . S
C1475 C1459 1.377 . S
C1475 C1473 1.389 . S
C1475 C1476 1.524 . S
C1476 C1475 1.524 . S
C1476 C1477 1.397 . S
C1476 C1481 1.363 . S
C1477 H1448 0.950 . S
C1477 C1476 1.397 . S
C1477 C1478 1.334 . S
C1478 H1449 0.950 . S
C1478 C1477 1.334 . S
C1478 C1479 1.287 . S
C1479 C1478 1.287 . S
C1479 C1480 1.524 . S
C1479 H1482 0.999 . S
C1480 H1450 0.950 . S
C1480 C1479 1.524 . S
C1480 C1481 1.415 . S
C1481 H1451 0.950 . S
C1481 C1476 1.363 . S
C1481 C1480 1.415 . S
H1482 C1479 0.999 . S
H1483 C1464 0.913 . S
H1484 C1502 0.951 . S
H1485 C1504 0.951 . S
H1486 C1506 0.950 . S
H1487 C1507 0.950 . S
H1488 C1509 0.950 . S
H1489 C1512 0.950 . S
H1490 C1513 0.950 . S
H1491 C1515 0.950 . S
H1492 C1516 0.950 . S
H1493 C1517 0.951 . S
H1494 C1519 0.951 . S
H1495 C1521 0.950 . S
H1496 C1522 0.950 . S
H1497 C1524 0.950 . S
H1498 C1527 0.950 . S
H1499 C1528 0.950 . S
H1500 C1530 0.950 . S
H1501 C1531 0.950 . S
C1502 H1484 0.951 . S
C1502 C1503 1.366 . S
C1502 C1504 1.388 . S
C1503 C1502 1.366 . S
C1503 C1507 1.385 . S
C1504 H1485 0.951 . S
C1504 C1502 1.388 . S
C1504 C1505 1.366 . S
C1505 C1504 1.366 . S
C1505 C1506 1.414 . S
C1505 C1508 1.499 . S
C1506 H1486 0.950 . S
C1506 C1505 1.414 . S
C1506 C1507 1.374 . S
C1507 H1487 0.950 . S
C1507 C1503 1.385 . S
C1507 C1506 1.374 . S
C1508 C1505 1.499 . S
C1508 C1509 1.373 . S
C1508 C1510 1.389 . S
C1509 H1488 0.950 . S
C1509 C1508 1.373 . S
C1509 C1525 1.377 . S
C1510 C1508 1.389 . S
C1510 C1511 1.524 . S
C1510 C1524 1.377 . S
C1511 C1510 1.524 . S
C1511 C1512 1.397 . S
C1511 C1516 1.363 . S
C1512 H1489 0.950 . S
C1512 C1511 1.397 . S
C1512 C1513 1.334 . S
C1513 H1490 0.950 . S
C1513 C1512 1.334 . S
C1513 C1514 1.287 . S
C1514 C1513 1.287 . S
C1514 C1515 1.524 . S
C1514 H1533 0.913 . S
C1515 H1491 0.950 . S
C1515 C1514 1.524 . S
C1515 C1516 1.415 . S
C1516 H1492 0.950 . S
C1516 C1511 1.363 . S
C1516 C1515 1.415 . S
C1517 H1493 0.951 . S
C1517 C1518 1.366 . S
C1517 C1519 1.388 . S
C1518 C1517 1.366 . S
C1518 C1522 1.385 . S
C1519 H1494 0.951 . S
C1519 C1517 1.388 . S
C1519 C1520 1.366 . S
C1520 C1519 1.366 . S
C1520 C1521 1.414 . S
C1520 C1523 1.499 . S
C1521 H1495 0.950 . S
C1521 C1520 1.414 . S
C1521 C1522 1.374 . S
C1522 H1496 0.950 . S
C1522 C1518 1.385 . S
C1522 C1521 1.374 . S
C1523 C1520 1.499 . S
C1523 C1524 1.373 . S
C1523 C1525 1.389 . S
C1524 H1497 0.950 . S
C1524 C1510 1.377 . S
C1524 C1523 1.373 . S
C1525 C1509 1.377 . S
C1525 C1523 1.389 . S
C1525 C1526 1.524 . S
C1526 C1525 1.524 . S
C1526 C1527 1.397 . S
C1526 C1531 1.363 . S
C1527 H1498 0.950 . S
C1527 C1526 1.397 . S
C1527 C1528 1.334 . S
C1528 H1499 0.950 . S
C1528 C1527 1.334 . S
C1528 C1529 1.287 . S
C1529 C1528 1.287 . S
C1529 C1530 1.524 . S
C1529 H1532 0.999 . S
C1530 H1500 0.950 . S
C1530 C1529 1.524 . S
C1530 C1531 1.415 . S
C1531 H1501 0.950 . S
C1531 C1526 1.363 . S
C1531 C1530 1.415 . S
H1532 C1529 0.999 . S
H1533 C1514 0.913 . S
H1534 C1552 0.951 . S
H1535 C1554 0.951 . S
H1536 C1556 0.950 . S
H1537 C1557 0.950 . S
H1538 C1559 0.950 . S
H1539 C1562 0.950 . S
H1540 C1563 0.950 . S
H1541 C1565 0.950 . S
H1542 C1566 0.950 . S
H1543 C1567 0.951 . S
H1544 C1569 0.951 . S
H1545 C1571 0.950 . S
H1546 C1572 0.950 . S
H1547 C1574 0.950 . S
H1548 C1577 0.950 . S
H1549 C1578 0.950 . S
H1550 C1580 0.950 . S
H1551 C1581 0.950 . S
C1552 H1534 0.951 . S
C1552 C1553 1.366 . S
C1552 C1554 1.388 . S
C1553 C1552 1.366 . S
C1553 C1557 1.385 . S
C1554 H1535 0.951 . S
C1554 C1552 1.388 . S
C1554 C1555 1.366 . S
C1555 C1554 1.366 . S
C1555 C1556 1.414 . S
C1555 C1558 1.499 . S
C1556 H1536 0.950 . S
C1556 C1555 1.414 . S
C1556 C1557 1.374 . S
C1557 H1537 0.950 . S
C1557 C1553 1.385 . S
C1557 C1556 1.374 . S
C1558 C1555 1.499 . S
C1558 C1559 1.373 . S
C1558 C1560 1.389 . S
C1559 H1538 0.950 . S
C1559 C1558 1.373 . S
C1559 C1575 1.377 . S
C1560 C1558 1.389 . S
C1560 C1561 1.524 . S
C1560 C1574 1.377 . S
C1561 C1560 1.524 . S
C1561 C1562 1.397 . S
C1561 C1566 1.363 . S
C1562 H1539 0.950 . S
C1562 C1561 1.397 . S
C1562 C1563 1.334 . S
C1563 H1540 0.950 . S
C1563 C1562 1.334 . S
C1563 C1564 1.287 . S
C1564 C1563 1.287 . S
C1564 C1565 1.524 . S
C1564 H1583 0.913 . S
C1565 H1541 0.950 . S
C1565 C1564 1.524 . S
C1565 C1566 1.415 . S
C1566 H1542 0.950 . S
C1566 C1561 1.363 . S
C1566 C1565 1.415 . S
C1567 H1543 0.951 . S
C1567 C1568 1.366 . S
C1567 C1569 1.388 . S
C1568 C1567 1.366 . S
C1568 C1572 1.385 . S
C1569 H1544 0.951 . S
C1569 C1567 1.388 . S
C1569 C1570 1.366 . S
C1570 C1569 1.366 . S
C1570 C1571 1.414 . S
C1570 C1573 1.499 . S
C1571 H1545 0.950 . S
C1571 C1570 1.414 . S
C1571 C1572 1.374 . S
C1572 H1546 0.950 . S
C1572 C1568 1.385 . S
C1572 C1571 1.374 . S
C1573 C1570 1.499 . S
C1573 C1574 1.373 . S
C1573 C1575 1.389 . S
C1574 H1547 0.950 . S
C1574 C1560 1.377 . S
C1574 C1573 1.373 . S
C1575 C1559 1.377 . S
C1575 C1573 1.389 . S
C1575 C1576 1.524 . S
C1576 C1575 1.524 . S
C1576 C1577 1.397 . S
C1576 C1581 1.363 . S
C1577 H1548 0.950 . S
C1577 C1576 1.397 . S
C1577 C1578 1.334 . S
C1578 H1549 0.950 . S
C1578 C1577 1.334 . S
C1578 C1579 1.287 . S
C1579 C1578 1.287 . S
C1579 C1580 1.524 . S
C1579 H1582 0.999 . S
C1580 H1550 0.950 . S
C1580 C1579 1.524 . S
C1580 C1581 1.415 . S
C1581 H1551 0.950 . S
C1581 C1576 1.363 . S
C1581 C1580 1.415 . S
H1582 C1579 0.999 . S
H1583 C1564 0.913 . S
H1584 C1602 0.951 . S
H1585 C1604 0.951 . S
H1586 C1606 0.950 . S
H1587 C1607 0.950 . S
H1588 C1609 0.950 . S
H1589 C1612 0.950 . S
H1590 C1613 0.950 . S
H1591 C1615 0.950 . S
H1592 C1616 0.950 . S
H1593 C1617 0.951 . S
H1594 C1619 0.951 . S
H1595 C1621 0.950 . S
H1596 C1622 0.950 . S
H1597 C1624 0.950 . S
H1598 C1627 0.950 . S
H1599 C1628 0.950 . S
H1600 C1630 0.950 1_545 S
H1601 C1631 0.950 . S
C1602 H1584 0.951 . S
C1602 C1603 1.366 . S
C1602 C1604 1.388 . S
C1603 C1602 1.366 . S
C1603 C1607 1.385 . S
C1604 H1585 0.951 . S
C1604 C1602 1.388 . S
C1604 C1605 1.366 . S
C1605 C1604 1.366 . S
C1605 C1606 1.414 . S
C1605 C1608 1.499 . S
C1606 H1586 0.950 . S
C1606 C1605 1.414 . S
C1606 C1607 1.374 . S
C1607 H1587 0.950 . S
C1607 C1603 1.385 . S
C1607 C1606 1.374 . S
C1608 C1605 1.499 . S
C1608 C1609 1.373 . S
C1608 C1610 1.389 . S
C1609 H1588 0.950 . S
C1609 C1608 1.373 . S
C1609 C1625 1.377 . S
C1610 C1608 1.389 . S
C1610 C1611 1.524 . S
C1610 C1624 1.377 . S
C1611 C1610 1.524 . S
C1611 C1612 1.397 . S
C1611 C1616 1.363 . S
C1612 H1589 0.950 . S
C1612 C1611 1.397 . S
C1612 C1613 1.334 . S
C1613 H1590 0.950 . S
C1613 C1612 1.334 . S
C1613 C1614 1.287 . S
C1614 C1613 1.287 . S
C1614 C1615 1.524 . S
C1614 H1633 0.913 . S
C1615 H1591 0.950 . S
C1615 C1614 1.524 . S
C1615 C1616 1.415 . S
C1616 H1592 0.950 . S
C1616 C1611 1.363 . S
C1616 C1615 1.415 . S
C1617 H1593 0.951 . S
C1617 C1618 1.366 . S
C1617 C1619 1.388 . S
C1618 C1617 1.366 . S
C1618 C1622 1.385 . S
C1619 H1594 0.951 . S
C1619 C1617 1.388 . S
C1619 C1620 1.366 . S
C1620 C1619 1.366 . S
C1620 C1621 1.414 . S
C1620 C1623 1.499 . S
C1621 H1595 0.950 . S
C1621 C1620 1.414 . S
C1621 C1622 1.374 . S
C1622 H1596 0.950 . S
C1622 C1618 1.385 . S
C1622 C1621 1.374 . S
C1623 C1620 1.499 . S
C1623 C1624 1.373 . S
C1623 C1625 1.389 . S
C1624 H1597 0.950 . S
C1624 C1610 1.377 . S
C1624 C1623 1.373 . S
C1625 C1609 1.377 . S
C1625 C1623 1.389 . S
C1625 C1626 1.524 . S
C1626 C1625 1.524 . S
C1626 C1627 1.397 . S
C1626 C1631 1.363 . S
C1627 H1598 0.950 . S
C1627 C1626 1.397 . S
C1627 C1628 1.334 . S
C1628 H1599 0.950 . S
C1628 C1627 1.334 . S
C1628 C1629 1.287 . S
C1629 C1628 1.287 . S
C1629 C1630 1.524 . S
C1629 H1632 0.999 . S
C1630 H1600 0.950 1_565 S
C1630 C1629 1.524 . S
C1630 C1631 1.415 . S
C1631 H1601 0.950 . S
C1631 C1626 1.363 . S
C1631 C1630 1.415 . S
H1632 C1629 0.999 . S
H1633 C1614 0.913 . S
H1634 C1652 0.951 . S
H1635 C1654 0.951 . S
H1636 C1656 0.950 . S
H1637 C1657 0.950 . S
H1638 C1659 0.950 . S
H1639 C1662 0.950 . S
H1640 C1663 0.950 . S
H1641 C1665 0.950 . S
H1642 C1666 0.950 . S
H1643 C1667 0.951 . S
H1644 C1669 0.951 . S
H1645 C1671 0.950 . S
H1646 C1672 0.950 . S
H1647 C1674 0.950 . S
H1648 C1677 0.950 . S
H1649 C1678 0.950 . S
H1650 C1680 0.950 . S
H1651 C1681 0.950 . S
C1652 H1634 0.951 . S
C1652 C1653 1.366 . S
C1652 C1654 1.388 . S
C1653 C1652 1.366 . S
C1653 C1657 1.385 . S
C1654 H1635 0.951 . S
C1654 C1652 1.388 . S
C1654 C1655 1.366 . S
C1655 C1654 1.366 . S
C1655 C1656 1.414 . S
C1655 C1658 1.499 . S
C1656 H1636 0.950 . S
C1656 C1655 1.414 . S
C1656 C1657 1.374 . S
C1657 H1637 0.950 . S
C1657 C1653 1.385 . S
C1657 C1656 1.374 . S
C1658 C1655 1.499 . S
C1658 C1659 1.373 . S
C1658 C1660 1.389 . S
C1659 H1638 0.950 . S
C1659 C1658 1.373 . S
C1659 C1675 1.377 . S
C1660 C1658 1.389 . S
C1660 C1661 1.524 . S
C1660 C1674 1.377 . S
C1661 C1660 1.524 . S
C1661 C1662 1.397 . S
C1661 C1666 1.363 . S
C1662 H1639 0.950 . S
C1662 C1661 1.397 . S
C1662 C1663 1.334 . S
C1663 H1640 0.950 . S
C1663 C1662 1.334 . S
C1663 C1664 1.287 . S
C1664 C1663 1.287 . S
C1664 C1665 1.524 . S
C1664 H1683 0.913 . S
C1665 H1641 0.950 . S
C1665 C1664 1.524 . S
C1665 C1666 1.415 . S
C1666 H1642 0.950 . S
C1666 C1661 1.363 . S
C1666 C1665 1.415 . S
C1667 H1643 0.951 . S
C1667 C1668 1.366 . S
C1667 C1669 1.388 . S
C1668 C1667 1.366 . S
C1668 C1672 1.385 . S
C1669 H1644 0.951 . S
C1669 C1667 1.388 . S
C1669 C1670 1.366 . S
C1670 C1669 1.366 . S
C1670 C1671 1.414 . S
C1670 C1673 1.499 . S
C1671 H1645 0.950 . S
C1671 C1670 1.414 . S
C1671 C1672 1.374 . S
C1672 H1646 0.950 . S
C1672 C1668 1.385 . S
C1672 C1671 1.374 . S
C1673 C1670 1.499 . S
C1673 C1674 1.373 . S
C1673 C1675 1.389 . S
C1674 H1647 0.950 . S
C1674 C1660 1.377 . S
C1674 C1673 1.373 . S
C1675 C1659 1.377 . S
C1675 C1673 1.389 . S
C1675 C1676 1.524 . S
C1676 C1675 1.524 . S
C1676 C1677 1.397 . S
C1676 C1681 1.363 . S
C1677 H1648 0.950 . S
C1677 C1676 1.397 . S
C1677 C1678 1.334 . S
C1678 H1649 0.950 . S
C1678 C1677 1.334 . S
C1678 C1679 1.287 . S
C1679 C1678 1.287 . S
C1679 C1680 1.524 . S
C1679 H1682 0.999 . S
C1680 H1650 0.950 . S
C1680 C1679 1.524 . S
C1680 C1681 1.415 . S
C1681 H1651 0.950 . S
C1681 C1676 1.363 . S
C1681 C1680 1.415 . S
H1682 C1679 0.999 . S
H1683 C1664 0.913 . S
H1684 C1702 0.951 . S
H1685 C1704 0.951 . S
H1686 C1706 0.950 . S
H1687 C1707 0.950 . S
H1688 C1709 0.950 . S
H1689 C1712 0.950 . S
H1690 C1713 0.950 . S
H1691 C1715 0.950 . S
H1692 C1716 0.950 . S
H1693 C1717 0.951 . S
H1694 C1719 0.951 . S
H1695 C1721 0.950 1_655 S
H1696 C1722 0.959 . S
H1697 C1724 0.950 . S
H1698 C1727 0.950 . S
H1699 C1728 0.950 . S
H1700 C1730 0.950 . S
H1701 C1731 0.950 1_455 S
C1702 H1684 0.951 . S
C1702 C1703 1.366 1_655 S
C1702 C1704 1.388 . S
C1703 C1702 1.366 1_455 S
C1703 C1707 1.385 . S
C1704 H1685 0.951 . S
C1704 C1702 1.388 . S
C1704 C1705 1.366 1_655 S
C1705 C1704 1.366 1_455 S
C1705 C1706 1.414 . S
C1705 C1708 1.499 1_554 S
C1706 H1686 0.950 . S
C1706 C1705 1.414 . S
C1706 C1707 1.374 . S
C1707 H1687 0.950 . S
C1707 C1703 1.385 . S
C1707 C1706 1.374 . S
C1708 C1705 1.499 1_556 S
C1708 C1709 1.373 1_455 S
C1708 C1710 1.389 . S
C1709 H1688 0.950 . S
C1709 C1708 1.373 1_655 S
C1709 C1725 1.377 . S
C1710 C1708 1.389 . S
C1710 C1711 1.524 1_556 S
C1710 C1724 1.377 . S
C1711 C1710 1.524 1_554 S
C1711 C1712 1.397 . S
C1711 C1716 1.363 . S
C1712 H1689 0.950 . S
C1712 C1711 1.397 . S
C1712 C1713 1.334 . S
C1713 H1690 0.950 . S
C1713 C1712 1.334 . S
C1713 C1714 1.287 . S
C1714 C1713 1.287 . S
C1714 C1715 1.524 . S
C1714 H1733 0.913 . S
C1715 H1691 0.950 . S
C1715 C1714 1.524 . S
C1715 C1716 1.415 . S
C1716 H1692 0.950 . S
C1716 C1711 1.363 . S
C1716 C1715 1.415 . S
C1717 H1693 0.951 . S
C1717 C1718 1.366 . S
C1717 C1719 1.388 . S
C1718 C1717 1.366 . S
C1718 C1722 1.385 . S
C1719 H1694 0.951 . S
C1719 C1717 1.388 . S
C1719 C1720 1.366 . S
C1720 C1719 1.366 . S
C1720 C1721 1.414 . S
C1720 C1723 1.499 . S
C1721 H1695 0.950 1_455 S
C1721 C1720 1.414 . S
C1721 C1722 1.374 . S
C1722 H1696 0.959 . S
C1722 C1718 1.385 . S
C1722 C1721 1.374 . S
C1723 C1720 1.499 . S
C1723 C1724 1.373 . S
C1723 C1725 1.389 1_455 S
C1724 H1697 0.950 . S
C1724 C1710 1.377 . S
C1724 C1723 1.373 . S
C1725 C1709 1.377 . S
C1725 C1723 1.389 1_655 S
C1725 C1726 1.524 . S
C1726 C1725 1.524 . S
C1726 C1727 1.397 . S
C1726 C1731 1.363 . S
C1727 H1698 0.950 . S
C1727 C1726 1.397 . S
C1727 C1728 1.334 . S
C1728 H1699 0.950 . S
C1728 C1727 1.334 . S
C1728 C1729 1.287 . S
C1729 C1728 1.287 . S
C1729 C1730 1.524 . S
C1729 H1732 0.999 . S
C1730 H1700 0.950 . S
C1730 C1729 1.524 . S
C1730 C1731 1.415 . S
C1731 H1701 0.950 1_655 S
C1731 C1726 1.363 . S
C1731 C1730 1.415 . S
H1732 C1729 0.999 . S
H1733 C1714 0.913 . S
H1734 C1752 0.951 . S
H1735 C1754 0.951 . S
H1736 C1756 0.950 . S
H1737 C1757 0.950 . S
H1738 C1759 0.950 . S
H1739 C1762 0.950 . S
H1740 C1763 0.950 . S
H1741 C1765 0.950 . S
H1742 C1766 0.950 . S
H1743 C1767 0.951 . S
H1744 C1769 0.951 . S
H1745 C1771 0.950 . S
H1746 C1772 0.950 . S
H1747 C1774 0.950 . S
H1748 C1777 0.950 . S
H1749 C1778 0.950 . S
H1750 C1780 0.950 . S
H1751 C1781 0.950 . S
C1752 H1734 0.951 . S
C1752 C1753 1.366 . S
C1752 C1754 1.388 . S
C1753 C1752 1.366 . S
C1753 C1757 1.385 . S
C1754 H1735 0.951 . S
C1754 C1752 1.388 . S
C1754 C1755 1.366 . S
C1755 C1754 1.366 . S
C1755 C1756 1.414 . S
C1755 C1758 1.499 . S
C1756 H1736 0.950 . S
C1756 C1755 1.414 . S
C1756 C1757 1.374 . S
C1757 H1737 0.950 . S
C1757 C1753 1.385 . S
C1757 C1756 1.374 . S
C1758 C1755 1.499 . S
C1758 C1759 1.373 . S
C1758 C1760 1.389 . S
C1759 H1738 0.950 . S
C1759 C1758 1.373 . S
C1759 C1775 1.377 . S
C1760 C1758 1.389 . S
C1760 C1761 1.524 . S
C1760 C1774 1.377 . S
C1761 C1760 1.524 . S
C1761 C1762 1.397 . S
C1761 C1766 1.363 . S
C1762 H1739 0.950 . S
C1762 C1761 1.397 . S
C1762 C1763 1.334 . S
C1763 H1740 0.950 . S
C1763 C1762 1.334 . S
C1763 C1764 1.287 . S
C1764 C1763 1.287 . S
C1764 C1765 1.524 . S
C1764 H1783 0.913 . S
C1765 H1741 0.950 . S
C1765 C1764 1.524 . S
C1765 C1766 1.415 . S
C1766 H1742 0.950 . S
C1766 C1761 1.363 . S
C1766 C1765 1.415 . S
C1767 H1743 0.951 . S
C1767 C1768 1.366 . S
C1767 C1769 1.388 . S
C1768 C1767 1.366 . S
C1768 C1772 1.385 . S
C1769 H1744 0.951 . S
C1769 C1767 1.388 . S
C1769 C1770 1.366 . S
C1770 C1769 1.366 . S
C1770 C1771 1.414 . S
C1770 C1773 1.499 . S
C1771 H1745 0.950 . S
C1771 C1770 1.414 . S
C1771 C1772 1.374 . S
C1772 H1746 0.950 . S
C1772 C1768 1.385 . S
C1772 C1771 1.374 . S
C1773 C1770 1.499 . S
C1773 C1774 1.373 . S
C1773 C1775 1.389 . S
C1774 H1747 0.950 . S
C1774 C1760 1.377 . S
C1774 C1773 1.373 . S
C1775 C1759 1.377 . S
C1775 C1773 1.389 . S
C1775 C1776 1.524 . S
C1776 C1775 1.524 . S
C1776 C1777 1.397 . S
C1776 C1781 1.363 . S
C1777 H1748 0.950 . S
C1777 C1776 1.397 . S
C1777 C1778 1.334 . S
C1778 H1749 0.950 . S
C1778 C1777 1.334 . S
C1778 C1779 1.287 . S
C1779 C1778 1.287 . S
C1779 C1780 1.524 . S
C1779 H1782 0.999 . S
C1780 H1750 0.950 . S
C1780 C1779 1.524 . S
C1780 C1781 1.415 . S
C1781 H1751 0.950 . S
C1781 C1776 1.363 . S
C1781 C1780 1.415 . S
H1782 C1779 0.999 . S
H1783 C1764 0.913 . S
H1784 C1802 0.951 . S
H1785 C1804 0.951 . S
H1786 C1806 0.950 . S
H1787 C1807 0.950 . S
H1788 C1809 0.950 . S
H1789 C1812 0.950 . S
H1790 C1813 0.950 . S
H1791 C1815 0.952 . S
H1792 C1816 0.950 . S
H1793 C1817 0.951 . S
H1794 C1819 0.951 . S
H1795 C1821 0.950 . S
H1796 C1822 0.950 . S
H1797 C1824 0.950 . S
H1798 C1827 0.950 . S
H1799 C1828 0.950 . S
H1800 C1830 0.950 . S
H1801 C1831 0.950 . S
C1802 H1784 0.951 . S
C1802 C1803 1.366 . S
C1802 C1804 1.388 . S
C1803 C1802 1.366 . S
C1803 C1807 1.385 . S
C1804 H1785 0.951 . S
C1804 C1802 1.388 . S
C1804 C1805 1.366 1_556 S
C1805 C1804 1.366 1_554 S
C1805 C1806 1.414 . S
C1805 C1808 1.499 . S
C1806 H1786 0.950 . S
C1806 C1805 1.414 . S
C1806 C1807 1.374 1_554 S
C1807 H1787 0.950 . S
C1807 C1803 1.385 . S
C1807 C1806 1.374 1_556 S
C1808 C1805 1.499 . S
C1808 C1809 1.373 . S
C1808 C1810 1.389 . S
C1809 H1788 0.950 . S
C1809 C1808 1.373 . S
C1809 C1825 1.377 . S
C1810 C1808 1.389 . S
C1810 C1811 1.524 . S
C1810 C1824 1.377 . S
C1811 C1810 1.524 . S
C1811 C1812 1.397 . S
C1811 C1816 1.363 . S
C1812 H1789 0.950 . S
C1812 C1811 1.397 . S
C1812 C1813 1.334 1_554 S
C1813 H1790 0.950 . S
C1813 C1812 1.334 1_556 S
C1813 C1814 1.287 . S
C1814 C1813 1.287 . S
C1814 C1815 1.527 . S
C1814 H1833 0.913 . S
C1815 H1791 0.952 . S
C1815 C1814 1.527 . S
C1815 C1816 1.409 1_556 S
C1816 H1792 0.950 . S
C1816 C1811 1.363 . S
C1816 C1815 1.409 1_554 S
C1817 H1793 0.951 . S
C1817 C1818 1.366 . S
C1817 C1819 1.388 . S
C1818 C1817 1.366 . S
C1818 C1822 1.385 . S
C1819 H1794 0.951 . S
C1819 C1817 1.388 . S
C1819 C1820 1.366 . S
C1820 C1819 1.366 . S
C1820 C1821 1.414 . S
C1820 C1823 1.499 . S
C1821 H1795 0.950 . S
C1821 C1820 1.414 . S
C1821 C1822 1.374 . S
C1822 H1796 0.950 . S
C1822 C1818 1.385 . S
C1822 C1821 1.374 . S
C1823 C1820 1.499 . S
C1823 C1824 1.373 . S
C1823 C1825 1.389 . S
C1824 H1797 0.950 . S
C1824 C1810 1.377 . S
C1824 C1823 1.373 . S
C1825 C1809 1.377 . S
C1825 C1823 1.389 . S
C1825 C1826 1.524 . S
C1826 C1825 1.524 . S
C1826 C1827 1.397 . S
C1826 C1831 1.363 . S
C1827 H1798 0.950 . S
C1827 C1826 1.397 . S
C1827 C1828 1.334 . S
C1828 H1799 0.950 . S
C1828 C1827 1.334 . S
C1828 C1829 1.287 . S
C1829 C1828 1.287 . S
C1829 C1830 1.524 . S
C1829 H1832 0.999 . S
C1830 H1800 0.950 . S
C1830 C1829 1.524 . S
C1830 C1831 1.415 . S
C1831 H1801 0.950 . S
C1831 C1826 1.363 . S
C1831 C1830 1.415 . S
H1832 C1829 0.999 . S
H1833 C1814 0.913 . S
H1834 C1852 0.951 . S
H1835 C1854 0.951 . S
H1836 C1856 0.950 . S
H1837 C1857 0.950 . S
H1838 C1859 0.950 . S
H1839 C1862 0.950 . S
H1840 C1863 0.950 1_655 S
H1841 C1865 0.950 . S
H1842 C1866 0.950 . S
H1843 C1867 0.951 . S
H1844 C1869 0.951 . S
H1845 C1871 0.950 . S
H1846 C1872 0.950 . S
H1847 C1874 0.950 . S
H1848 C1877 0.950 . S
H1849 C1878 0.950 . S
H1850 C1880 0.950 . S
H1851 C1881 0.950 . S
C1852 H1834 0.951 . S
C1852 C1853 1.366 . S
C1852 C1854 1.388 . S
C1853 C1852 1.366 . S
C1853 C1857 1.385 . S
C1854 H1835 0.951 . S
C1854 C1852 1.388 . S
C1854 C1855 1.366 . S
C1855 C1854 1.366 . S
C1855 C1856 1.414 . S
C1855 C1858 1.499 . S
C1856 H1836 0.950 . S
C1856 C1855 1.414 . S
C1856 C1857 1.374 . S
C1857 H1837 0.950 . S
C1857 C1853 1.385 . S
C1857 C1856 1.374 . S
C1858 C1855 1.499 . S
C1858 C1859 1.373 . S
C1858 C1860 1.389 . S
C1859 H1838 0.950 . S
C1859 C1858 1.373 . S
C1859 C1875 1.377 . S
C1860 C1858 1.389 . S
C1860 C1861 1.524 . S
C1860 C1874 1.377 . S
C1861 C1860 1.524 . S
C1861 C1862 1.397 . S
C1861 C1866 1.363 . S
C1862 H1839 0.950 . S
C1862 C1861 1.397 . S
C1862 C1863 1.334 . S
C1863 H1840 0.950 1_455 S
C1863 C1862 1.334 . S
C1863 C1864 1.287 . S
C1864 C1863 1.287 . S
C1864 C1865 1.524 . S
C1864 H1883 0.913 1_455 S
C1865 H1841 0.950 . S
C1865 C1864 1.524 . S
C1865 C1866 1.415 . S
C1866 H1842 0.950 . S
C1866 C1861 1.363 . S
C1866 C1865 1.415 . S
C1867 H1843 0.951 . S
C1867 C1868 1.366 . S
C1867 C1869 1.388 . S
C1868 C1867 1.366 . S
C1868 C1872 1.385 . S
C1869 H1844 0.951 . S
C1869 C1867 1.388 . S
C1869 C1870 1.366 . S
C1870 C1869 1.366 . S
C1870 C1871 1.414 . S
C1870 C1873 1.499 . S
C1871 H1845 0.950 . S
C1871 C1870 1.414 . S
C1871 C1872 1.374 . S
C1872 H1846 0.950 . S
C1872 C1868 1.385 . S
C1872 C1871 1.374 . S
C1873 C1870 1.499 . S
C1873 C1874 1.373 . S
C1873 C1875 1.389 . S
C1874 H1847 0.950 . S
C1874 C1860 1.377 . S
C1874 C1873 1.373 . S
C1875 C1859 1.377 . S
C1875 C1873 1.389 . S
C1875 C1876 1.524 . S
C1876 C1875 1.524 . S
C1876 C1877 1.397 . S
C1876 C1881 1.363 . S
C1877 H1848 0.950 . S
C1877 C1876 1.397 . S
C1877 C1878 1.334 . S
C1878 H1849 0.950 . S
C1878 C1877 1.334 . S
C1878 C1879 1.287 . S
C1879 C1878 1.287 . S
C1879 C1880 1.524 . S
C1879 H1882 0.999 . S
C1880 H1850 0.950 . S
C1880 C1879 1.524 . S
C1880 C1881 1.415 . S
C1881 H1851 0.950 . S
C1881 C1876 1.363 . S
C1881 C1880 1.415 . S
H1882 C1879 0.999 . S
H1883 C1864 0.913 1_655 S
H1884 C1902 0.951 . S
H1885 C1904 0.951 . S
H1886 C1906 0.950 . S
H1887 C1907 0.950 . S
H1888 C1909 0.950 . S
H1889 C1912 0.950 . S
H1890 C1913 0.950 . S
H1891 C1915 0.950 . S
H1892 C1916 0.950 . S
H1893 C1917 0.951 . S
H1894 C1919 0.951 . S
H1895 C1921 0.950 . S
H1896 C1922 0.950 . S
H1897 C1924 0.950 . S
H1898 C1927 0.950 . S
H1899 C1928 0.950 . S
H1900 C1930 0.950 . S
H1901 C1931 0.950 . S
C1902 H1884 0.951 . S
C1902 C1903 1.366 . S
C1902 C1904 1.388 . S
C1903 C1902 1.366 . S
C1903 C1907 1.385 . S
C1904 H1885 0.951 . S
C1904 C1902 1.388 . S
C1904 C1905 1.366 . S
C1905 C1904 1.366 . S
C1905 C1906 1.414 . S
C1905 C1908 1.499 . S
C1906 H1886 0.950 . S
C1906 C1905 1.414 . S
C1906 C1907 1.374 . S
C1907 H1887 0.950 . S
C1907 C1903 1.385 . S
C1907 C1906 1.374 . S
C1908 C1905 1.499 . S
C1908 C1909 1.373 1_455 S
C1908 C1910 1.389 . S
C1909 H1888 0.950 . S
C1909 C1908 1.373 1_655 S
C1909 C1925 1.377 . S
C1910 C1908 1.389 . S
C1910 C1911 1.524 . S
C1910 C1924 1.377 . S
C1911 C1910 1.524 . S
C1911 C1912 1.397 . S
C1911 C1916 1.363 . S
C1912 H1889 0.950 . S
C1912 C1911 1.397 . S
C1912 C1913 1.334 . S
C1913 H1890 0.950 . S
C1913 C1912 1.334 . S
C1913 C1914 1.287 . S
C1914 C1913 1.287 . S
C1914 C1915 1.524 . S
C1914 H1933 0.913 . S
C1915 H1891 0.950 . S
C1915 C1914 1.524 . S
C1915 C1916 1.415 . S
C1916 H1892 0.950 . S
C1916 C1911 1.363 . S
C1916 C1915 1.415 . S
C1917 H1893 0.951 . S
C1917 C1918 1.366 . S
C1917 C1919 1.388 . S
C1918 C1917 1.366 . S
C1918 C1922 1.385 . S
C1919 H1894 0.951 . S
C1919 C1917 1.388 . S
C1919 C1920 1.366 . S
C1920 C1919 1.366 . S
C1920 C1921 1.414 . S
C1920 C1923 1.499 . S
C1921 H1895 0.950 . S
C1921 C1920 1.414 . S
C1921 C1922 1.374 . S
C1922 H1896 0.950 . S
C1922 C1918 1.385 . S
C1922 C1921 1.374 . S
C1923 C1920 1.499 . S
C1923 C1924 1.373 . S
C1923 C1925 1.389 1_455 S
C1924 H1897 0.950 . S
C1924 C1910 1.377 . S
C1924 C1923 1.373 . S
C1925 C1909 1.377 . S
C1925 C1923 1.389 1_655 S
C1925 C1926 1.524 . S
C1926 C1925 1.524 . S
C1926 C1927 1.397 . S
C1926 C1931 1.363 . S
C1927 H1898 0.950 . S
C1927 C1926 1.397 . S
C1927 C1928 1.334 . S
C1928 H1899 0.950 . S
C1928 C1927 1.334 . S
C1928 C1929 1.287 . S
C1929 C1928 1.287 . S
C1929 C1930 1.524 . S
C1929 H1932 0.999 . S
C1930 H1900 0.950 . S
C1930 C1929 1.524 . S
C1930 C1931 1.415 . S
C1931 H1901 0.950 . S
C1931 C1926 1.363 . S
C1931 C1930 1.415 . S
H1932 C1929 0.999 . S
H1933 C1914 0.913 . S
H1934 C1952 0.951 . S
H1935 C1954 0.951 . S
H1936 C1956 0.950 . S
H1937 C1957 0.950 . S
H1938 C1959 0.950 . S
H1939 C1962 0.950 . S
H1940 C1963 0.950 . S
H1941 C1965 0.950 . S
H1942 C1966 0.950 . S
H1943 C1967 0.951 . S
H1944 C1969 0.951 . S
H1945 C1971 0.950 . S
H1946 C1972 0.950 . S
H1947 C1974 0.950 . S
H1948 C1977 0.950 . S
H1949 C1978 0.950 . S
H1950 C1980 0.950 . S
H1951 C1981 0.950 . S
C1952 H1934 0.951 . S
C1952 C1953 1.366 . S
C1952 C1954 1.388 . S
C1953 C1952 1.366 . S
C1953 C1957 1.385 . S
C1954 H1935 0.951 . S
C1954 C1952 1.388 . S
C1954 C1955 1.366 . S
C1955 C1954 1.366 . S
C1955 C1956 1.414 . S
C1955 C1958 1.499 . S
C1956 H1936 0.950 . S
C1956 C1955 1.414 . S
C1956 C1957 1.374 . S
C1957 H1937 0.950 . S
C1957 C1953 1.385 . S
C1957 C1956 1.374 . S
C1958 C1955 1.499 . S
C1958 C1959 1.373 . S
C1958 C1960 1.389 . S
C1959 H1938 0.950 . S
C1959 C1958 1.373 . S
C1959 C1975 1.377 . S
C1960 C1958 1.389 . S
C1960 C1961 1.524 . S
C1960 C1974 1.377 . S
C1961 C1960 1.524 . S
C1961 C1962 1.397 . S
C1961 C1966 1.363 . S
C1962 H1939 0.950 . S
C1962 C1961 1.397 . S
C1962 C1963 1.334 . S
C1963 H1940 0.950 . S
C1963 C1962 1.334 . S
C1963 C1964 1.287 . S
C1964 C1963 1.287 . S
C1964 C1965 1.524 . S
C1964 H1983 0.913 . S
C1965 H1941 0.950 . S
C1965 C1964 1.524 . S
C1965 C1966 1.415 . S
C1966 H1942 0.950 . S
C1966 C1961 1.363 . S
C1966 C1965 1.415 . S
C1967 H1943 0.951 . S
C1967 C1968 1.366 . S
C1967 C1969 1.388 . S
C1968 C1967 1.366 . S
C1968 C1972 1.385 . S
C1969 H1944 0.951 . S
C1969 C1967 1.388 . S
C1969 C1970 1.366 . S
C1970 C1969 1.366 . S
C1970 C1971 1.414 . S
C1970 C1973 1.499 . S
C1971 H1945 0.950 . S
C1971 C1970 1.414 . S
C1971 C1972 1.374 . S
C1972 H1946 0.950 . S
C1972 C1968 1.385 . S
C1972 C1971 1.374 . S
C1973 C1970 1.499 . S
C1973 C1974 1.373 . S
C1973 C1975 1.389 . S
C1974 H1947 0.950 . S
C1974 C1960 1.377 . S
C1974 C1973 1.373 . S
C1975 C1959 1.377 . S
C1975 C1973 1.389 . S
C1975 C1976 1.524 . S
C1976 C1975 1.524 . S
C1976 C1977 1.397 . S
C1976 C1981 1.363 . S
C1977 H1948 0.950 . S
C1977 C1976 1.397 . S
C1977 C1978 1.334 . S
C1978 H1949 0.950 . S
C1978 C1977 1.334 . S
C1978 C1979 1.287 . S
C1979 C1978 1.287 . S
C1979 C1980 1.524 . S
C1979 H1982 0.999 . S
C1980 H1950 0.950 . S
C1980 C1979 1.524 . S
C1980 C1981 1.415 . S
C1981 H1951 0.950 . S
C1981 C1976 1.363 . S
C1981 C1980 1.415 . S
H1982 C1979 0.999 . S
H1983 C1964 0.913 . S
H1984 C2002 0.951 . S
H1985 C2004 0.951 . S
H1986 C2006 0.950 . S
H1987 C2007 0.950 . S
H1988 C2009 0.950 . S
H1989 C2012 0.950 . S
H1990 C2013 0.950 . S
H1991 C2015 0.950 1_554 S
H1992 C2016 0.950 . S
H1993 C2017 0.951 . S
H1994 C2019 0.951 . S
H1995 C2021 0.950 . S
H1996 C2022 0.950 . S
H1997 C2024 0.950 . S
H1998 C2027 0.950 . S
H1999 C2028 0.950 . S
H2000 C2030 0.950 . S
H2001 C2031 0.950 . S
C2002 H1984 0.951 . S
C2002 C2003 1.366 . S
C2002 C2004 1.388 . S
C2003 C2002 1.366 . S
C2003 C2007 1.385 . S
C2004 H1985 0.951 . S
C2004 C2002 1.388 . S
C2004 C2005 1.366 . S
C2005 C2004 1.366 . S
C2005 C2006 1.414 . S
C2005 C2008 1.499 . S
C2006 H1986 0.950 . S
C2006 C2005 1.414 . S
C2006 C2007 1.374 . S
C2007 H1987 0.950 . S
C2007 C2003 1.385 . S
C2007 C2006 1.374 . S
C2008 C2005 1.499 . S
C2008 C2009 1.373 . S
C2008 C2010 1.389 . S
C2009 H1988 0.950 . S
C2009 C2008 1.373 . S
C2009 C2025 1.377 . S
C2010 C2008 1.389 . S
C2010 C2011 1.524 . S
C2010 C2024 1.377 . S
C2011 C2010 1.524 . S
C2011 C2012 1.397 . S
C2011 C2016 1.363 . S
C2012 H1989 0.950 . S
C2012 C2011 1.397 . S
C2012 C2013 1.334 . S
C2013 H1990 0.950 . S
C2013 C2012 1.334 . S
C2013 C2014 1.287 . S
C2014 C2013 1.287 . S
C2014 C2015 1.524 . S
C2014 H2033 0.913 . S
C2015 H1991 0.950 1_556 S
C2015 C2014 1.524 . S
C2015 C2016 1.415 . S
C2016 H1992 0.950 . S
C2016 C2011 1.363 . S
C2016 C2015 1.415 . S
C2017 H1993 0.951 . S
C2017 C2018 1.366 . S
C2017 C2019 1.388 . S
C2018 C2017 1.366 . S
C2018 C2022 1.385 . S
C2019 H1994 0.951 . S
C2019 C2017 1.388 . S
C2019 C2020 1.366 . S
C2020 C2019 1.366 . S
C2020 C2021 1.414 . S
C2020 C2023 1.499 . S
C2021 H1995 0.950 . S
C2021 C2020 1.414 . S
C2021 C2022 1.374 . S
C2022 H1996 0.950 . S
C2022 C2018 1.385 . S
C2022 C2021 1.374 . S
C2023 C2020 1.499 . S
C2023 C2024 1.373 . S
C2023 C2025 1.389 . S
C2024 H1997 0.950 . S
C2024 C2010 1.377 . S
C2024 C2023 1.373 . S
C2025 C2009 1.377 . S
C2025 C2023 1.389 . S
C2025 C2026 1.524 . S
C2026 C2025 1.524 . S
C2026 C2027 1.397 . S
C2026 C2031 1.363 . S
C2027 H1998 0.950 . S
C2027 C2026 1.397 . S
C2027 C2028 1.334 . S
C2028 H1999 0.950 . S
C2028 C2027 1.334 . S
C2028 C2029 1.287 . S
C2029 C2028 1.287 . S
C2029 C2030 1.524 . S
C2029 H2032 0.999 . S
C2030 H2000 0.950 . S
C2030 C2029 1.524 . S
C2030 C2031 1.415 . S
C2031 H2001 0.950 . S
C2031 C2026 1.363 . S
C2031 C2030 1.415 . S
H2032 C2029 0.999 . S
H2033 C2014 0.913 . S
H2034 C2052 0.951 . S
H2035 C2054 0.951 . S
H2036 C2056 0.950 . S
H2037 C2057 0.950 . S
H2038 C2059 0.950 . S
H2039 C2062 0.950 . S
H2040 C2063 0.950 . S
H2041 C2065 0.950 . S
H2042 C2066 0.950 . S
H2043 C2067 0.951 . S
H2044 C2069 0.951 . S
H2045 C2071 0.950 . S
H2046 C2072 0.950 . S
H2047 C2074 0.950 . S
H2048 C2077 0.950 . S
H2049 C2078 0.950 . S
H2050 C2080 0.950 . S
H2051 C2081 0.950 . S
C2052 H2034 0.951 . S
C2052 C2053 1.366 . S
C2052 C2054 1.388 . S
C2053 C2052 1.366 . S
C2053 C2057 1.385 . S
C2054 H2035 0.951 . S
C2054 C2052 1.388 . S
C2054 C2055 1.366 . S
C2055 C2054 1.366 . S
C2055 C2056 1.414 . S
C2055 C2058 1.499 . S
C2056 H2036 0.950 . S
C2056 C2055 1.414 . S
C2056 C2057 1.374 . S
C2057 H2037 0.950 . S
C2057 C2053 1.385 . S
C2057 C2056 1.374 . S
C2058 C2055 1.499 . S
C2058 C2059 1.373 . S
C2058 C2060 1.389 . S
C2059 H2038 0.950 . S
C2059 C2058 1.373 . S
C2059 C2075 1.377 . S
C2060 C2058 1.389 . S
C2060 C2061 1.524 . S
C2060 C2074 1.377 . S
C2061 C2060 1.524 . S
C2061 C2062 1.397 . S
C2061 C2066 1.363 . S
C2062 H2039 0.950 . S
C2062 C2061 1.397 . S
C2062 C2063 1.334 . S
C2063 H2040 0.950 . S
C2063 C2062 1.334 . S
C2063 C2064 1.287 . S
C2064 C2063 1.287 . S
C2064 C2065 1.524 . S
C2064 H2083 0.913 . S
C2065 H2041 0.950 . S
C2065 C2064 1.524 . S
C2065 C2066 1.415 . S
C2066 H2042 0.950 . S
C2066 C2061 1.363 . S
C2066 C2065 1.415 . S
C2067 H2043 0.951 . S
C2067 C2068 1.366 . S
C2067 C2069 1.388 . S
C2068 C2067 1.366 . S
C2068 C2072 1.385 . S
C2069 H2044 0.951 . S
C2069 C2067 1.388 . S
C2069 C2070 1.366 . S
C2070 C2069 1.366 . S
C2070 C2071 1.414 . S
C2070 C2073 1.499 . S
C2071 H2045 0.950 . S
C2071 C2070 1.414 . S
C2071 C2072 1.374 . S
C2072 H2046 0.950 . S
C2072 C2068 1.385 . S
C2072 C2071 1.374 . S
C2073 C2070 1.499 . S
C2073 C2074 1.373 . S
C2073 C2075 1.389 . S
C2074 H2047 0.950 . S
C2074 C2060 1.377 . S
C2074 C2073 1.373 . S
C2075 C2059 1.377 . S
C2075 C2073 1.389 . S
C2075 C2076 1.524 . S
C2076 C2075 1.524 . S
C2076 C2077 1.397 . S
C2076 C2081 1.363 . S
C2077 H2048 0.950 . S
C2077 C2076 1.397 . S
C2077 C2078 1.334 . S
C2078 H2049 0.950 . S
C2078 C2077 1.334 . S
C2078 C2079 1.287 . S
C2079 C2078 1.287 . S
C2079 C2080 1.524 . S
C2079 H2082 0.999 . S
C2080 H2050 0.950 . S
C2080 C2079 1.524 . S
C2080 C2081 1.415 . S
C2081 H2051 0.950 . S
C2081 C2076 1.363 . S
C2081 C2080 1.415 . S
H2082 C2079 0.999 . S
H2083 C2064 0.913 . S
H2084 C2102 0.951 . S
H2085 C2104 0.951 . S
H2086 C2106 0.950 . S
H2087 C2107 0.950 . S
H2088 C2109 0.950 . S
H2089 C2112 0.950 . S
H2090 C2113 0.950 . S
H2091 C2115 0.950 . S
H2092 C2116 0.950 . S
H2093 C2117 0.951 . S
H2094 C2119 0.951 . S
H2095 C2121 0.950 . S
H2096 C2122 0.950 . S
H2097 C2124 0.950 . S
H2098 C2127 0.950 . S
H2099 C2128 0.950 . S
H2100 C2130 0.950 . S
H2101 C2131 0.950 . S
C2102 H2084 0.951 . S
C2102 C2103 1.366 . S
C2102 C2104 1.388 1_655 S
C2103 C2102 1.366 . S
C2103 C2107 1.385 . S
C2104 H2085 0.951 . S
C2104 C2102 1.388 1_455 S
C2104 C2105 1.366 . S
C2105 C2104 1.366 . S
C2105 C2106 1.414 1_455 S
C2105 C2108 1.499 . S
C2106 H2086 0.950 . S
C2106 C2105 1.414 1_655 S
C2106 C2107 1.374 . S
C2107 H2087 0.950 . S
C2107 C2103 1.385 . S
C2107 C2106 1.374 . S
C2108 C2105 1.499 . S
C2108 C2109 1.373 . S
C2108 C2110 1.389 . S
C2109 H2088 0.950 . S
C2109 C2108 1.373 . S
C2109 C2125 1.377 . S
C2110 C2108 1.389 . S
C2110 C2111 1.524 . S
C2110 C2124 1.377 . S
C2111 C2110 1.524 . S
C2111 C2112 1.397 . S
C2111 C2116 1.363 . S
C2112 H2089 0.950 . S
C2112 C2111 1.397 . S
C2112 C2113 1.334 . S
C2113 H2090 0.950 . S
C2113 C2112 1.334 . S
C2113 C2114 1.287 . S
C2114 C2113 1.287 . S
C2114 C2115 1.524 . S
C2114 H2133 0.913 . S
C2115 H2091 0.950 . S
C2115 C2114 1.524 . S
C2115 C2116 1.415 . S
C2116 H2092 0.950 . S
C2116 C2111 1.363 . S
C2116 C2115 1.415 . S
C2117 H2093 0.951 . S
C2117 C2118 1.366 . S
C2117 C2119 1.388 . S
C2118 C2117 1.366 . S
C2118 C2122 1.385 . S
C2119 H2094 0.951 . S
C2119 C2117 1.388 . S
C2119 C2120 1.366 . S
C2120 C2119 1.366 . S
C2120 C2121 1.414 . S
C2120 C2123 1.499 . S
C2121 H2095 0.950 . S
C2121 C2120 1.414 . S
C2121 C2122 1.374 . S
C2122 H2096 0.950 . S
C2122 C2118 1.385 . S
C2122 C2121 1.374 . S
C2123 C2120 1.499 . S
C2123 C2124 1.373 . S
C2123 C2125 1.389 . S
C2124 H2097 0.950 . S
C2124 C2110 1.377 . S
C2124 C2123 1.373 . S
C2125 C2109 1.377 . S
C2125 C2123 1.389 . S
C2125 C2126 1.524 . S
C2126 C2125 1.524 . S
C2126 C2127 1.397 . S
C2126 C2131 1.363 . S
C2127 H2098 0.950 . S
C2127 C2126 1.397 . S
C2127 C2128 1.334 . S
C2128 H2099 0.950 . S
C2128 C2127 1.334 . S
C2128 C2129 1.287 . S
C2129 C2128 1.287 . S
C2129 C2130 1.524 . S
C2129 H2132 0.999 . S
C2130 H2100 0.950 . S
C2130 C2129 1.524 . S
C2130 C2131 1.415 . S
C2131 H2101 0.950 . S
C2131 C2126 1.363 . S
C2131 C2130 1.415 . S
H2132 C2129 0.999 . S
H2133 C2114 0.913 . S
H2134 C2152 0.951 . S
H2135 C2154 0.951 . S
H2136 C2156 0.950 . S
H2137 C2157 0.950 . S
H2138 C2159 0.950 . S
H2139 C2162 0.950 . S
H2140 C2163 0.950 . S
H2141 C2165 0.950 . S
H2142 C2166 0.950 . S
H2143 C2167 0.951 . S
H2144 C2169 0.951 . S
H2145 C2171 0.950 . S
H2146 C2172 0.950 . S
H2147 C2174 0.950 . S
H2148 C2177 0.950 . S
H2149 C2178 0.950 1_455 S
H2150 C2180 0.950 . S
H2151 C2181 0.950 . S
C2152 H2134 0.951 . S
C2152 C2153 1.366 . S
C2152 C2154 1.388 . S
C2153 C2152 1.366 . S
C2153 C2157 1.385 . S
C2154 H2135 0.951 . S
C2154 C2152 1.388 . S
C2154 C2155 1.366 . S
C2155 C2154 1.366 . S
C2155 C2156 1.414 . S
C2155 C2158 1.499 . S
C2156 H2136 0.950 . S
C2156 C2155 1.414 . S
C2156 C2157 1.374 . S
C2157 H2137 0.950 . S
C2157 C2153 1.385 . S
C2157 C2156 1.374 . S
C2158 C2155 1.499 . S
C2158 C2159 1.373 . S
C2158 C2160 1.389 . S
C2159 H2138 0.950 . S
C2159 C2158 1.373 . S
C2159 C2175 1.377 . S
C2160 C2158 1.389 . S
C2160 C2161 1.524 . S
C2160 C2174 1.377 . S
C2161 C2160 1.524 . S
C2161 C2162 1.397 . S
C2161 C2166 1.363 . S
C2162 H2139 0.950 . S
C2162 C2161 1.397 . S
C2162 C2163 1.334 . S
C2163 H2140 0.950 . S
C2163 C2162 1.334 . S
C2163 C2164 1.287 . S
C2164 C2163 1.287 . S
C2164 C2165 1.524 . S
C2164 H2183 0.913 . S
C2165 H2141 0.950 . S
C2165 C2164 1.524 . S
C2165 C2166 1.415 . S
C2166 H2142 0.950 . S
C2166 C2161 1.363 . S
C2166 C2165 1.415 . S
C2167 H2143 0.951 . S
C2167 C2168 1.366 . S
C2167 C2169 1.388 . S
C2168 C2167 1.366 . S
C2168 C2172 1.385 . S
C2169 H2144 0.951 . S
C2169 C2167 1.388 . S
C2169 C2170 1.366 . S
C2170 C2169 1.366 . S
C2170 C2171 1.414 . S
C2170 C2173 1.499 . S
C2171 H2145 0.950 . S
C2171 C2170 1.414 . S
C2171 C2172 1.374 . S
C2172 H2146 0.950 . S
C2172 C2168 1.385 . S
C2172 C2171 1.374 . S
C2173 C2170 1.499 . S
C2173 C2174 1.373 . S
C2173 C2175 1.389 . S
C2174 H2147 0.950 . S
C2174 C2160 1.377 . S
C2174 C2173 1.373 . S
C2175 C2159 1.377 . S
C2175 C2173 1.389 . S
C2175 C2176 1.524 . S
C2176 C2175 1.524 . S
C2176 C2177 1.397 . S
C2176 C2181 1.363 . S
C2177 H2148 0.950 . S
C2177 C2176 1.397 . S
C2177 C2178 1.334 . S
C2178 H2149 0.950 1_655 S
C2178 C2177 1.334 . S
C2178 C2179 1.287 . S
C2179 C2178 1.287 . S
C2179 C2180 1.524 . S
C2179 H2182 0.999 1_655 S
C2180 H2150 0.950 . S
C2180 C2179 1.524 . S
C2180 C2181 1.415 . S
C2181 H2151 0.950 . S
C2181 C2176 1.363 . S
C2181 C2180 1.415 . S
H2182 C2179 0.999 1_455 S
H2183 C2164 0.913 . S
H2184 C2202 0.951 . S
H2185 C2204 0.951 . S
H2186 C2206 0.950 . S
H2187 C2207 0.950 . S
H2188 C2209 0.950 . S
H2189 C2212 0.950 . S
H2190 C2213 0.950 . S
H2191 C2215 0.950 . S
H2192 C2216 0.950 . S
H2193 C2217 0.951 . S
H2194 C2219 0.951 . S
H2195 C2221 0.950 . S
H2196 C2222 0.950 . S
H2197 C2224 0.950 . S
H2198 C2227 0.950 . S
H2199 C2228 0.950 . S
H2200 C2230 0.950 . S
H2201 C2231 0.950 . S
C2202 H2184 0.951 . S
C2202 C2203 1.366 . S
C2202 C2204 1.388 . S
C2203 C2202 1.366 . S
C2203 C2207 1.385 . S
C2204 H2185 0.951 . S
C2204 C2202 1.388 . S
C2204 C2205 1.366 . S
C2205 C2204 1.366 . S
C2205 C2206 1.414 . S
C2205 C2208 1.499 . S
C2206 H2186 0.950 . S
C2206 C2205 1.414 . S
C2206 C2207 1.374 . S
C2207 H2187 0.950 . S
C2207 C2203 1.385 . S
C2207 C2206 1.374 . S
C2208 C2205 1.499 . S
C2208 C2209 1.373 . S
C2208 C2210 1.389 . S
C2209 H2188 0.950 . S
C2209 C2208 1.373 . S
C2209 C2225 1.377 . S
C2210 C2208 1.389 . S
C2210 C2211 1.524 . S
C2210 C2224 1.377 . S
C2211 C2210 1.524 . S
C2211 C2212 1.397 . S
C2211 C2216 1.363 . S
C2212 H2189 0.950 . S
C2212 C2211 1.397 . S
C2212 C2213 1.334 . S
C2213 H2190 0.950 . S
C2213 C2212 1.334 . S
C2213 C2214 1.287 . S
C2214 C2213 1.287 . S
C2214 C2215 1.524 . S
C2214 H2233 0.913 . S
C2215 H2191 0.950 . S
C2215 C2214 1.524 . S
C2215 C2216 1.415 . S
C2216 H2192 0.950 . S
C2216 C2211 1.363 . S
C2216 C2215 1.415 . S
C2217 H2193 0.951 . S
C2217 C2218 1.366 . S
C2217 C2219 1.388 . S
C2218 C2217 1.366 . S
C2218 C2222 1.385 . S
C2219 H2194 0.951 . S
C2219 C2217 1.388 . S
C2219 C2220 1.366 . S
C2220 C2219 1.366 . S
C2220 C2221 1.414 . S
C2220 C2223 1.499 . S
C2221 H2195 0.950 . S
C2221 C2220 1.414 . S
C2221 C2222 1.374 . S
C2222 H2196 0.950 . S
C2222 C2218 1.385 . S
C2222 C2221 1.374 . S
C2223 C2220 1.499 . S
C2223 C2224 1.373 . S
C2223 C2225 1.389 . S
C2224 H2197 0.950 . S
C2224 C2210 1.377 . S
C2224 C2223 1.373 . S
C2225 C2209 1.377 . S
C2225 C2223 1.389 . S
C2225 C2226 1.524 . S
C2226 C2225 1.524 . S
C2226 C2227 1.397 . S
C2226 C2231 1.363 . S
C2227 H2198 0.950 . S
C2227 C2226 1.397 . S
C2227 C2228 1.334 . S
C2228 H2199 0.950 . S
C2228 C2227 1.334 . S
C2228 C2229 1.287 . S
C2229 C2228 1.287 . S
C2229 C2230 1.524 . S
C2229 H2232 0.999 . S
C2230 H2200 0.950 . S
C2230 C2229 1.524 . S
C2230 C2231 1.415 . S
C2231 H2201 0.950 . S
C2231 C2226 1.363 . S
C2231 C2230 1.415 . S
H2232 C2229 0.999 . S
H2233 C2214 0.913 . S
H2234 C2252 0.951 . S
H2235 C2254 0.951 . S
H2236 C2256 0.950 . S
H2237 C2257 0.950 . S
H2238 C2259 0.950 . S
H2239 C2262 0.950 . S
H2240 C2263 0.950 . S
H2241 C2265 0.950 . S
H2242 C2266 0.950 . S
H2243 C2267 0.951 . S
H2244 C2269 0.951 . S
H2245 C2271 0.950 . S
H2246 C2272 0.950 . S
H2247 C2274 0.950 . S
H2248 C2277 0.950 . S
H2249 C2278 0.950 . S
H2250 C2280 0.950 . S
H2251 C2281 0.950 . S
C2252 H2234 0.951 . S
C2252 C2253 1.366 . S
C2252 C2254 1.388 . S
C2253 C2252 1.366 . S
C2253 C2257 1.385 . S
C2254 H2235 0.951 . S
C2254 C2252 1.388 . S
C2254 C2255 1.366 . S
C2255 C2254 1.366 . S
C2255 C2256 1.414 . S
C2255 C2258 1.499 . S
C2256 H2236 0.950 . S
C2256 C2255 1.414 . S
C2256 C2257 1.374 . S
C2257 H2237 0.950 . S
C2257 C2253 1.385 . S
C2257 C2256 1.374 . S
C2258 C2255 1.499 . S
C2258 C2259 1.373 . S
C2258 C2260 1.389 . S
C2259 H2238 0.950 . S
C2259 C2258 1.373 . S
C2259 C2275 1.377 . S
C2260 C2258 1.389 . S
C2260 C2261 1.524 . S
C2260 C2274 1.377 . S
C2261 C2260 1.524 . S
C2261 C2262 1.397 . S
C2261 C2266 1.363 . S
C2262 H2239 0.950 . S
C2262 C2261 1.397 . S
C2262 C2263 1.334 . S
C2263 H2240 0.950 . S
C2263 C2262 1.334 . S
C2263 C2264 1.287 . S
C2264 C2263 1.287 . S
C2264 C2265 1.524 . S
C2264 H2283 0.913 . S
C2265 H2241 0.950 . S
C2265 C2264 1.524 . S
C2265 C2266 1.415 . S
C2266 H2242 0.950 . S
C2266 C2261 1.363 . S
C2266 C2265 1.415 . S
C2267 H2243 0.951 . S
C2267 C2268 1.366 . S
C2267 C2269 1.388 . S
C2268 C2267 1.366 . S
C2268 C2272 1.385 . S
C2269 H2244 0.951 . S
C2269 C2267 1.388 . S
C2269 C2270 1.366 . S
C2270 C2269 1.366 . S
C2270 C2271 1.414 . S
C2270 C2273 1.499 . S
C2271 H2245 0.950 . S
C2271 C2270 1.414 . S
C2271 C2272 1.374 . S
C2272 H2246 0.950 . S
C2272 C2268 1.385 . S
C2272 C2271 1.374 . S
C2273 C2270 1.499 . S
C2273 C2274 1.373 . S
C2273 C2275 1.389 . S
C2274 H2247 0.950 . S
C2274 C2260 1.377 . S
C2274 C2273 1.373 . S
C2275 C2259 1.377 . S
C2275 C2273 1.389 . S
C2275 C2276 1.524 . S
C2276 C2275 1.524 . S
C2276 C2277 1.397 . S
C2276 C2281 1.363 . S
C2277 H2248 0.950 . S
C2277 C2276 1.397 . S
C2277 C2278 1.334 . S
C2278 H2249 0.950 . S
C2278 C2277 1.334 . S
C2278 C2279 1.287 . S
C2279 C2278 1.287 . S
C2279 C2280 1.524 . S
C2279 H2282 0.999 . S
C2280 H2250 0.950 . S
C2280 C2279 1.524 . S
C2280 C2281 1.415 . S
C2281 H2251 0.950 . S
C2281 C2276 1.363 . S
C2281 C2280 1.415 . S
H2282 C2279 0.999 . S
H2283 C2264 0.913 . S
H2284 C2302 0.951 . S
H2285 C2304 0.951 . S
H2286 C2306 0.950 . S
H2287 C2307 0.950 . S
H2288 C2309 0.950 . S
H2289 C2312 0.950 . S
H2290 C2313 0.951 1_655 S
H2291 C2315 0.950 . S
H2292 C2316 0.950 . S
H2293 C2317 0.951 . S
H2294 C2319 0.951 . S
H2295 C2321 0.950 . S
H2296 C2322 0.950 . S
H2297 C2324 0.950 . S
H2298 C2327 0.950 . S
H2299 C2328 0.950 . S
H2300 C2330 0.950 . S
H2301 C2331 0.950 . S
C2302 H2284 0.951 . S
C2302 C2303 1.366 . S
C2302 C2304 1.388 1_655 S
C2303 C2302 1.366 . S
C2303 C2307 1.385 . S
C2304 H2285 0.951 . S
C2304 C2302 1.388 1_455 S
C2304 C2305 1.366 . S
C2305 C2304 1.366 . S
C2305 C2306 1.414 1_455 S
C2305 C2308 1.499 . S
C2306 H2286 0.950 . S
C2306 C2305 1.414 1_655 S
C2306 C2307 1.374 . S
C2307 H2287 0.950 . S
C2307 C2303 1.385 . S
C2307 C2306 1.374 . S
C2308 C2305 1.499 . S
C2308 C2309 1.373 . S
C2308 C2310 1.389 . S
C2309 H2288 0.950 . S
C2309 C2308 1.373 . S
C2309 C2325 1.377 . S
C2310 C2308 1.389 . S
C2310 C2311 1.524 . S
C2310 C2324 1.377 . S
C2311 C2310 1.524 . S
C2311 C2312 1.397 . S
C2311 C2316 1.363 . S
C2312 H2289 0.950 . S
C2312 C2311 1.397 . S
C2312 C2313 1.334 . S
C2313 H2290 0.951 1_455 S
C2313 C2312 1.334 . S
C2313 C2314 1.287 . S
C2314 C2313 1.287 . S
C2314 C2315 1.524 . S
C2314 H2333 0.913 . S
C2315 H2291 0.950 . S
C2315 C2314 1.524 . S
C2315 C2316 1.415 . S
C2316 H2292 0.950 . S
C2316 C2311 1.363 . S
C2316 C2315 1.415 . S
C2317 H2293 0.951 . S
C2317 C2318 1.366 . S
C2317 C2319 1.388 . S
C2318 C2317 1.366 . S
C2318 C2322 1.385 . S
C2319 H2294 0.951 . S
C2319 C2317 1.388 . S
C2319 C2320 1.366 . S
C2320 C2319 1.366 . S
C2320 C2321 1.414 . S
C2320 C2323 1.499 . S
C2321 H2295 0.950 . S
C2321 C2320 1.414 . S
C2321 C2322 1.374 . S
C2322 H2296 0.950 . S
C2322 C2318 1.385 . S
C2322 C2321 1.374 . S
C2323 C2320 1.499 . S
C2323 C2324 1.373 . S
C2323 C2325 1.389 . S
C2324 H2297 0.950 . S
C2324 C2310 1.377 . S
C2324 C2323 1.373 . S
C2325 C2309 1.377 . S
C2325 C2323 1.389 . S
C2325 C2326 1.524 . S
C2326 C2325 1.524 . S
C2326 C2327 1.397 . S
C2326 C2331 1.363 . S
C2327 H2298 0.950 . S
C2327 C2326 1.397 . S
C2327 C2328 1.334 . S
C2328 H2299 0.950 . S
C2328 C2327 1.334 . S
C2328 C2329 1.287 . S
C2329 C2328 1.287 . S
C2329 C2330 1.524 . S
C2329 H2332 0.999 . S
C2330 H2300 0.950 . S
C2330 C2329 1.524 . S
C2330 C2331 1.415 . S
C2331 H2301 0.950 . S
C2331 C2326 1.363 . S
C2331 C2330 1.415 . S
H2332 C2329 0.999 . S
H2333 C2314 0.913 . S
H2334 C2352 0.951 . S
H2335 C2354 0.951 . S
H2336 C2356 0.950 . S
H2337 C2357 0.950 . S
H2338 C2359 0.950 . S
H2339 C2362 0.950 . S
H2340 C2363 0.950 . S
H2341 C2365 0.950 . S
H2342 C2366 0.950 . S
H2343 C2367 0.951 . S
H2344 C2369 0.951 . S
H2345 C2371 0.950 . S
H2346 C2372 0.950 . S
H2347 C2374 0.950 . S
H2348 C2377 0.950 . S
H2349 C2378 0.950 . S
H2350 C2380 0.950 . S
H2351 C2381 0.950 . S
C2352 H2334 0.951 . S
C2352 C2353 1.366 . S
C2352 C2354 1.388 . S
C2353 C2352 1.366 . S
C2353 C2357 1.385 . S
C2354 H2335 0.951 . S
C2354 C2352 1.388 . S
C2354 C2355 1.366 . S
C2355 C2354 1.366 . S
C2355 C2356 1.414 . S
C2355 C2358 1.499 . S
C2356 H2336 0.950 . S
C2356 C2355 1.414 . S
C2356 C2357 1.374 . S
C2357 H2337 0.950 . S
C2357 C2353 1.385 . S
C2357 C2356 1.374 . S
C2358 C2355 1.499 . S
C2358 C2359 1.373 . S
C2358 C2360 1.389 . S
C2359 H2338 0.950 . S
C2359 C2358 1.373 . S
C2359 C2375 1.377 . S
C2360 C2358 1.389 . S
C2360 C2361 1.524 . S
C2360 C2374 1.377 . S
C2361 C2360 1.524 . S
C2361 C2362 1.397 . S
C2361 C2366 1.363 . S
C2362 H2339 0.950 . S
C2362 C2361 1.397 . S
C2362 C2363 1.334 . S
C2363 H2340 0.950 . S
C2363 C2362 1.334 . S
C2363 C2364 1.287 . S
C2364 C2363 1.287 . S
C2364 C2365 1.524 . S
C2364 H2383 0.913 . S
C2365 H2341 0.950 . S
C2365 C2364 1.524 . S
C2365 C2366 1.415 . S
C2366 H2342 0.950 . S
C2366 C2361 1.363 . S
C2366 C2365 1.415 . S
C2367 H2343 0.951 . S
C2367 C2368 1.366 . S
C2367 C2369 1.388 . S
C2368 C2367 1.366 . S
C2368 C2372 1.385 . S
C2369 H2344 0.951 . S
C2369 C2367 1.388 . S
C2369 C2370 1.366 . S
C2370 C2369 1.366 . S
C2370 C2371 1.414 . S
C2370 C2373 1.499 . S
C2371 H2345 0.950 . S
C2371 C2370 1.414 . S
C2371 C2372 1.374 . S
C2372 H2346 0.950 . S
C2372 C2368 1.385 . S
C2372 C2371 1.374 . S
C2373 C2370 1.499 . S
C2373 C2374 1.373 . S
C2373 C2375 1.389 . S
C2374 H2347 0.950 . S
C2374 C2360 1.377 . S
C2374 C2373 1.373 . S
C2375 C2359 1.377 . S
C2375 C2373 1.389 . S
C2375 C2376 1.524 . S
C2376 C2375 1.524 . S
C2376 C2377 1.397 . S
C2376 C2381 1.363 . S
C2377 H2348 0.950 . S
C2377 C2376 1.397 . S
C2377 C2378 1.334 . S
C2378 H2349 0.950 . S
C2378 C2377 1.334 . S
C2378 C2379 1.287 . S
C2379 C2378 1.287 . S
C2379 C2380 1.524 . S
C2379 H2382 0.999 . S
C2380 H2350 0.950 . S
C2380 C2379 1.524 . S
C2380 C2381 1.415 . S
C2381 H2351 0.950 . S
C2381 C2376 1.363 . S
C2381 C2380 1.415 . S
H2382 C2379 0.999 . S
H2383 C2364 0.913 . S
H2384 C2402 0.951 . S
H2385 C2404 0.951 . S
H2386 C2406 0.950 . S
H2387 C2407 0.950 . S
H2388 C2409 0.950 . S
H2389 C2412 0.950 . S
H2390 C2413 0.950 . S
H2391 C2415 0.950 1_455 S
H2392 C2416 0.950 . S
H2393 C2417 0.951 . S
H2394 C2419 0.951 . S
H2395 C2421 0.950 . S
H2396 C2422 0.950 1_455 S
H2397 C2424 0.950 . S
H2398 C2427 0.950 . S
H2399 C2428 0.950 . S
H2400 C2430 0.950 . S
H2401 C2431 0.950 . S
C2402 H2384 0.951 . S
C2402 C2403 1.366 . S
C2402 C2404 1.388 . S
C2403 C2402 1.366 . S
C2403 C2407 1.385 . S
C2404 H2385 0.951 . S
C2404 C2402 1.388 . S
C2404 C2405 1.366 . S
C2405 C2404 1.366 . S
C2405 C2406 1.414 . S
C2405 C2408 1.499 . S
C2406 H2386 0.950 . S
C2406 C2405 1.414 . S
C2406 C2407 1.374 . S
C2407 H2387 0.950 . S
C2407 C2403 1.385 . S
C2407 C2406 1.374 . S
C2408 C2405 1.499 . S
C2408 C2409 1.373 . S
C2408 C2410 1.389 . S
C2409 H2388 0.950 . S
C2409 C2408 1.373 . S
C2409 C2425 1.377 . S
C2410 C2408 1.389 . S
C2410 C2411 1.524 . S
C2410 C2424 1.377 . S
C2411 C2410 1.524 . S
C2411 C2412 1.397 . S
C2411 C2416 1.363 . S
C2412 H2389 0.950 . S
C2412 C2411 1.397 . S
C2412 C2413 1.334 . S
C2413 H2390 0.950 . S
C2413 C2412 1.334 . S
C2413 C2414 1.287 . S
C2414 C2413 1.287 . S
C2414 C2415 1.524 . S
C2414 H2433 0.913 . S
C2415 H2391 0.950 1_655 S
C2415 C2414 1.524 . S
C2415 C2416 1.415 . S
C2416 H2392 0.950 . S
C2416 C2411 1.363 . S
C2416 C2415 1.415 . S
C2417 H2393 0.951 . S
C2417 C2418 1.366 . S
C2417 C2419 1.388 . S
C2418 C2417 1.366 . S
C2418 C2422 1.385 . S
C2419 H2394 0.951 . S
C2419 C2417 1.388 . S
C2419 C2420 1.366 . S
C2420 C2419 1.366 . S
C2420 C2421 1.414 . S
C2420 C2423 1.499 . S
C2421 H2395 0.950 . S
C2421 C2420 1.414 . S
C2421 C2422 1.374 . S
C2422 H2396 0.950 1_655 S
C2422 C2418 1.385 . S
C2422 C2421 1.374 . S
C2423 C2420 1.499 . S
C2423 C2424 1.373 . S
C2423 C2425 1.389 . S
C2424 H2397 0.950 . S
C2424 C2410 1.377 . S
C2424 C2423 1.373 . S
C2425 C2409 1.377 . S
C2425 C2423 1.389 . S
C2425 C2426 1.524 . S
C2426 C2425 1.524 . S
C2426 C2427 1.397 . S
C2426 C2431 1.363 . S
C2427 H2398 0.950 . S
C2427 C2426 1.397 . S
C2427 C2428 1.334 . S
C2428 H2399 0.950 . S
C2428 C2427 1.334 . S
C2428 C2429 1.287 . S
C2429 C2428 1.287 . S
C2429 C2430 1.524 . S
C2429 H2432 0.999 . S
C2430 H2400 0.950 . S
C2430 C2429 1.524 . S
C2430 C2431 1.415 . S
C2431 H2401 0.950 . S
C2431 C2426 1.363 . S
C2431 C2430 1.415 . S
H2432 C2429 0.999 . S
H2433 C2414 0.913 . S
H2434 C2452 0.951 . S
H2435 C2454 0.951 1_545 S
H2436 C2456 0.950 . S
H2437 C2457 0.950 . S
H2438 C2459 0.950 . S
H2439 C2462 0.950 1_565 S
H2440 C2463 0.950 . S
H2441 C2465 0.950 . S
H2442 C2466 0.950 . S
H2443 C2467 0.951 . S
H2444 C2469 0.951 . S
H2445 C2471 0.950 . S
H2446 C2472 0.950 . S
H2447 C2474 0.950 . S
H2448 C2477 0.950 . S
H2449 C2478 0.950 . S
H2450 C2480 0.950 . S
H2451 C2481 0.950 . S
C2452 H2434 0.951 . S
C2452 C2453 1.366 . S
C2452 C2454 1.388 . S
C2453 C2452 1.366 . S
C2453 C2457 1.385 . S
C2454 H2435 0.951 1_565 S
C2454 C2452 1.388 . S
C2454 C2455 1.366 . S
C2455 C2454 1.366 . S
C2455 C2456 1.414 . S
C2455 C2458 1.499 1_565 S
C2456 H2436 0.950 . S
C2456 C2455 1.414 . S
C2456 C2457 1.374 . S
C2457 H2437 0.950 . S
C2457 C2453 1.385 . S
C2457 C2456 1.374 . S
C2458 C2455 1.499 1_545 S
C2458 C2459 1.373 . S
C2458 C2460 1.389 . S
C2459 H2438 0.950 . S
C2459 C2458 1.373 . S
C2459 C2475 1.377 . S
C2460 C2458 1.389 . S
C2460 C2461 1.524 . S
C2460 C2474 1.377 . S
C2461 C2460 1.524 . S
C2461 C2462 1.397 . S
C2461 C2466 1.363 . S
C2462 H2439 0.950 1_545 S
C2462 C2461 1.397 . S
C2462 C2463 1.334 1_545 S
C2463 H2440 0.950 . S
C2463 C2462 1.334 1_565 S
C2463 C2464 1.287 1_565 S
C2464 C2463 1.287 1_545 S
C2464 C2465 1.524 . S
C2464 H2483 0.913 . S
C2465 H2441 0.950 . S
C2465 C2464 1.524 . S
C2465 C2466 1.415 . S
C2466 H2442 0.950 . S
C2466 C2461 1.363 . S
C2466 C2465 1.415 . S
C2467 H2443 0.951 . S
C2467 C2468 1.366 . S
C2467 C2469 1.388 . S
C2468 C2467 1.366 . S
C2468 C2472 1.385 . S
C2469 H2444 0.951 . S
C2469 C2467 1.388 . S
C2469 C2470 1.366 . S
C2470 C2469 1.366 . S
C2470 C2471 1.414 . S
C2470 C2473 1.499 . S
C2471 H2445 0.950 . S
C2471 C2470 1.414 . S
C2471 C2472 1.374 . S
C2472 H2446 0.950 . S
C2472 C2468 1.385 . S
C2472 C2471 1.374 . S
C2473 C2470 1.499 . S
C2473 C2474 1.373 . S
C2473 C2475 1.389 . S
C2474 H2447 0.950 . S
C2474 C2460 1.377 . S
C2474 C2473 1.373 . S
C2475 C2459 1.377 . S
C2475 C2473 1.389 . S
C2475 C2476 1.524 . S
C2476 C2475 1.524 . S
C2476 C2477 1.397 . S
C2476 C2481 1.363 . S
C2477 H2448 0.950 . S
C2477 C2476 1.397 . S
C2477 C2478 1.334 . S
C2478 H2449 0.950 . S
C2478 C2477 1.334 . S
C2478 C2479 1.287 . S
C2479 C2478 1.287 . S
C2479 C2480 1.524 . S
C2479 H2482 0.999 . S
C2480 H2450 0.950 . S
C2480 C2479 1.524 . S
C2480 C2481 1.415 . S
C2481 H2451 0.950 . S
C2481 C2476 1.363 . S
C2481 C2480 1.415 . S
H2482 C2479 0.999 . S
H2483 C2464 0.913 . S
H2484 C2502 0.951 . S
H2485 C2504 0.951 . S
H2486 C2506 0.950 . S
H2487 C2507 0.950 . S
H2488 C2509 0.950 . S
H2489 C2512 0.950 . S
H2490 C2513 0.950 . S
H2491 C2515 0.950 . S
H2492 C2516 0.950 . S
H2493 C2517 0.951 . S
H2494 C2519 0.951 . S
H2495 C2521 0.950 . S
H2496 C2522 0.950 . S
H2497 C2524 0.950 . S
H2498 C2527 0.950 . S
H2499 C2528 0.950 . S
H2500 C2530 0.950 . S
H2501 C2531 0.950 . S
C2502 H2484 0.951 . S
C2502 C2503 1.366 . S
C2502 C2504 1.388 . S
C2503 C2502 1.366 . S
C2503 C2507 1.385 . S
C2504 H2485 0.951 . S
C2504 C2502 1.388 . S
C2504 C2505 1.366 . S
C2505 C2504 1.366 . S
C2505 C2506 1.414 . S
C2505 C2508 1.499 . S
C2506 H2486 0.950 . S
C2506 C2505 1.414 . S
C2506 C2507 1.374 . S
C2507 H2487 0.950 . S
C2507 C2503 1.385 . S
C2507 C2506 1.374 . S
C2508 C2505 1.499 . S
C2508 C2509 1.373 . S
C2508 C2510 1.389 . S
C2509 H2488 0.950 . S
C2509 C2508 1.373 . S
C2509 C2525 1.377 . S
C2510 C2508 1.389 . S
C2510 C2511 1.524 . S
C2510 C2524 1.377 . S
C2511 C2510 1.524 . S
C2511 C2512 1.397 . S
C2511 C2516 1.363 . S
C2512 H2489 0.950 . S
C2512 C2511 1.397 . S
C2512 C2513 1.334 . S
C2513 H2490 0.950 . S
C2513 C2512 1.334 . S
C2513 C2514 1.287 . S
C2514 C2513 1.287 . S
C2514 C2515 1.524 . S
C2514 H2533 0.913 . S
C2515 H2491 0.950 . S
C2515 C2514 1.524 . S
C2515 C2516 1.415 . S
C2516 H2492 0.950 . S
C2516 C2511 1.363 . S
C2516 C2515 1.415 . S
C2517 H2493 0.951 . S
C2517 C2518 1.366 . S
C2517 C2519 1.388 . S
C2518 C2517 1.366 . S
C2518 C2522 1.385 . S
C2519 H2494 0.951 . S
C2519 C2517 1.388 . S
C2519 C2520 1.366 . S
C2520 C2519 1.366 . S
C2520 C2521 1.414 . S
C2520 C2523 1.499 . S
C2521 H2495 0.950 . S
C2521 C2520 1.414 . S
C2521 C2522 1.374 . S
C2522 H2496 0.950 . S
C2522 C2518 1.385 . S
C2522 C2521 1.374 . S
C2523 C2520 1.499 . S
C2523 C2524 1.373 . S
C2523 C2525 1.389 . S
C2524 H2497 0.950 . S
C2524 C2510 1.377 . S
C2524 C2523 1.373 . S
C2525 C2509 1.377 . S
C2525 C2523 1.389 . S
C2525 C2526 1.524 . S
C2526 C2525 1.524 . S
C2526 C2527 1.397 . S
C2526 C2531 1.363 . S
C2527 H2498 0.950 . S
C2527 C2526 1.397 . S
C2527 C2528 1.334 . S
C2528 H2499 0.950 . S
C2528 C2527 1.334 . S
C2528 C2529 1.287 . S
C2529 C2528 1.287 . S
C2529 C2530 1.524 . S
C2529 H2532 0.999 . S
C2530 H2500 0.950 . S
C2530 C2529 1.524 . S
C2530 C2531 1.415 . S
C2531 H2501 0.950 . S
C2531 C2526 1.363 . S
C2531 C2530 1.415 . S
H2532 C2529 0.999 . S
H2533 C2514 0.913 . S
H2534 C2552 0.951 . S
H2535 C2554 0.951 . S
H2536 C2556 0.950 1_565 S
H2537 C2557 0.950 . S
H2538 C2559 0.950 . S
H2539 C2562 0.950 . S
H2540 C2563 0.950 . S
H2541 C2565 0.950 . S
H2542 C2566 0.950 . S
H2543 C2567 0.951 . S
H2544 C2569 0.951 . S
H2545 C2571 0.950 . S
H2546 C2572 0.950 . S
H2547 C2574 0.950 . S
H2548 C2577 0.950 . S
H2549 C2578 0.950 . S
H2550 C2580 0.950 . S
H2551 C2581 0.950 . S
C2552 H2534 0.951 . S
C2552 C2553 1.366 . S
C2552 C2554 1.388 . S
C2553 C2552 1.366 . S
C2553 C2557 1.385 1_554 S
C2554 H2535 0.951 . S
C2554 C2552 1.388 . S
C2554 C2555 1.366 . S
C2555 C2554 1.366 . S
C2555 C2556 1.414 1_554 S
C2555 C2558 1.499 1_545 S
C2556 H2536 0.950 1_545 S
C2556 C2555 1.414 1_556 S
C2556 C2557 1.374 . S
C2557 H2537 0.950 . S
C2557 C2553 1.385 1_556 S
C2557 C2556 1.374 . S
C2558 C2555 1.499 1_565 S
C2558 C2559 1.373 1_554 S
C2558 C2560 1.389 . S
C2559 H2538 0.950 . S
C2559 C2558 1.373 1_556 S
C2559 C2575 1.377 . S
C2560 C2558 1.389 . S
C2560 C2561 1.524 . S
C2560 C2574 1.377 . S
C2561 C2560 1.524 . S
C2561 C2562 1.397 . S
C2561 C2566 1.363 . S
C2562 H2539 0.950 . S
C2562 C2561 1.397 . S
C2562 C2563 1.334 1_565 S
C2563 H2540 0.950 . S
C2563 C2562 1.334 1_545 S
C2563 C2564 1.287 . S
C2564 C2563 1.287 . S
C2564 C2565 1.524 . S
C2564 H2583 0.913 . S
C2565 H2541 0.950 . S
C2565 C2564 1.524 . S
C2565 C2566 1.415 1_545 S
C2566 H2542 0.950 . S
C2566 C2561 1.363 . S
C2566 C2565 1.415 1_565 S
C2567 H2543 0.951 . S
C2567 C2568 1.366 1_556 S
C2567 C2569 1.388 . S
C2568 C2567 1.366 1_554 S
C2568 C2572 1.385 . S
C2569 H2544 0.951 . S
C2569 C2567 1.388 . S
C2569 C2570 1.366 1_556 S
C2570 C2569 1.366 1_554 S
C2570 C2571 1.414 . S
C2570 C2573 1.499 . S
C2571 H2545 0.950 . S
C2571 C2570 1.414 . S
C2571 C2572 1.374 . S
C2572 H2546 0.950 . S
C2572 C2568 1.385 . S
C2572 C2571 1.374 . S
C2573 C2570 1.499 . S
C2573 C2574 1.373 . S
C2573 C2575 1.389 1_554 S
C2574 H2547 0.950 . S
C2574 C2560 1.377 . S
C2574 C2573 1.373 . S
C2575 C2559 1.377 . S
C2575 C2573 1.389 1_556 S
C2575 C2576 1.524 . S
C2576 C2575 1.524 . S
C2576 C2577 1.397 . S
C2576 C2581 1.363 . S
C2577 H2548 0.950 . S
C2577 C2576 1.397 . S
C2577 C2578 1.334 . S
C2578 H2549 0.950 . S
C2578 C2577 1.334 . S
C2578 C2579 1.287 . S
C2579 C2578 1.287 . S
C2579 C2580 1.524 . S
C2579 H2582 0.999 . S
C2580 H2550 0.950 . S
C2580 C2579 1.524 . S
C2580 C2581 1.415 . S
C2581 H2551 0.950 . S
C2581 C2576 1.363 . S
C2581 C2580 1.415 . S
H2582 C2579 0.999 . S
H2583 C2564 0.913 . S
H2584 C2602 0.951 . S
H2585 C2604 0.951 . S
H2586 C2606 0.950 . S
H2587 C2607 0.950 . S
H2588 C2609 0.950 . S
H2589 C2612 0.950 . S
H2590 C2613 0.950 . S
H2591 C2615 0.950 . S
H2592 C2616 0.950 . S
H2593 C2617 0.951 . S
H2594 C2619 0.951 . S
H2595 C2621 0.950 . S
H2596 C2622 0.950 . S
H2597 C2624 0.950 . S
H2598 C2627 0.950 . S
H2599 C2628 0.950 . S
H2600 C2630 0.950 . S
H2601 C2631 0.950 . S
C2602 H2584 0.951 . S
C2602 C2603 1.366 . S
C2602 C2604 1.388 . S
C2603 C2602 1.366 . S
C2603 C2607 1.385 . S
C2604 H2585 0.951 . S
C2604 C2602 1.388 . S
C2604 C2605 1.366 . S
C2605 C2604 1.366 . S
C2605 C2606 1.414 . S
C2605 C2608 1.499 . S
C2606 H2586 0.950 . S
C2606 C2605 1.414 . S
C2606 C2607 1.374 . S
C2607 H2587 0.950 . S
C2607 C2603 1.385 . S
C2607 C2606 1.374 . S
C2608 C2605 1.499 . S
C2608 C2609 1.373 . S
C2608 C2610 1.389 . S
C2609 H2588 0.950 . S
C2609 C2608 1.373 . S
C2609 C2625 1.377 . S
C2610 C2608 1.389 . S
C2610 C2611 1.524 . S
C2610 C2624 1.377 . S
C2611 C2610 1.524 . S
C2611 C2612 1.397 . S
C2611 C2616 1.363 . S
C2612 H2589 0.950 . S
C2612 C2611 1.397 . S
C2612 C2613 1.334 . S
C2613 H2590 0.950 . S
C2613 C2612 1.334 . S
C2613 C2614 1.287 . S
C2614 C2613 1.287 . S
C2614 C2615 1.524 . S
C2614 H2633 0.913 . S
C2615 H2591 0.950 . S
C2615 C2614 1.524 . S
C2615 C2616 1.415 . S
C2616 H2592 0.950 . S
C2616 C2611 1.363 . S
C2616 C2615 1.415 . S
C2617 H2593 0.951 . S
C2617 C2618 1.366 . S
C2617 C2619 1.388 . S
C2618 C2617 1.366 . S
C2618 C2622 1.385 . S
C2619 H2594 0.951 . S
C2619 C2617 1.388 . S
C2619 C2620 1.366 . S
C2620 C2619 1.366 . S
C2620 C2621 1.414 . S
C2620 C2623 1.499 . S
C2621 H2595 0.950 . S
C2621 C2620 1.414 . S
C2621 C2622 1.374 . S
C2622 H2596 0.950 . S
C2622 C2618 1.385 . S
C2622 C2621 1.374 . S
C2623 C2620 1.499 . S
C2623 C2624 1.373 . S
C2623 C2625 1.389 . S
C2624 H2597 0.950 . S
C2624 C2610 1.377 . S
C2624 C2623 1.373 . S
C2625 C2609 1.377 . S
C2625 C2623 1.389 . S
C2625 C2626 1.524 . S
C2626 C2625 1.524 . S
C2626 C2627 1.397 . S
C2626 C2631 1.363 . S
C2627 H2598 0.950 . S
C2627 C2626 1.397 . S
C2627 C2628 1.334 . S
C2628 H2599 0.950 . S
C2628 C2627 1.334 . S
C2628 C2629 1.287 . S
C2629 C2628 1.287 . S
C2629 C2630 1.524 . S
C2629 H2632 0.999 . S
C2630 H2600 0.950 . S
C2630 C2629 1.524 . S
C2630 C2631 1.415 . S
C2631 H2601 0.950 . S
C2631 C2626 1.363 . S
C2631 C2630 1.415 . S
H2632 C2629 0.999 . S
H2633 C2614 0.913 . S
H2634 C2652 0.951 . S
H2635 C2654 0.951 . S
H2636 C2656 0.950 . S
H2637 C2657 0.950 . S
H2638 C2659 0.950 . S
H2639 C2662 0.950 . S
H2640 C2663 0.950 . S
H2641 C2665 0.950 . S
H2642 C2666 0.950 . S
H2643 C2667 0.951 . S
H2644 C2669 0.951 . S
H2645 C2671 0.950 . S
H2646 C2672 0.950 . S
H2647 C2674 0.950 . S
H2648 C2677 0.950 . S
H2649 C2678 0.950 . S
H2650 C2680 0.950 . S
H2651 C2681 0.950 . S
C2652 H2634 0.951 . S
C2652 C2653 1.366 . S
C2652 C2654 1.388 . S
C2653 C2652 1.366 . S
C2653 C2657 1.385 1_554 S
C2654 H2635 0.951 . S
C2654 C2652 1.388 . S
C2654 C2655 1.366 . S
C2655 C2654 1.366 . S
C2655 C2656 1.414 1_554 S
C2655 C2658 1.499 . S
C2656 H2636 0.950 . S
C2656 C2655 1.414 1_556 S
C2656 C2657 1.374 . S
C2657 H2637 0.950 . S
C2657 C2653 1.385 1_556 S
C2657 C2656 1.374 . S
C2658 C2655 1.499 . S
C2658 C2659 1.373 1_554 S
C2658 C2660 1.389 . S
C2659 H2638 0.950 . S
C2659 C2658 1.373 1_556 S
C2659 C2675 1.377 . S
C2660 C2658 1.389 . S
C2660 C2661 1.524 . S
C2660 C2674 1.377 . S
C2661 C2660 1.524 . S
C2661 C2662 1.397 . S
C2661 C2666 1.363 . S
C2662 H2639 0.950 . S
C2662 C2661 1.397 . S
C2662 C2663 1.334 . S
C2663 H2640 0.950 . S
C2663 C2662 1.334 . S
C2663 C2664 1.287 . S
C2664 C2663 1.287 . S
C2664 C2665 1.524 . S
C2664 H2683 0.913 . S
C2665 H2641 0.950 . S
C2665 C2664 1.524 . S
C2665 C2666 1.415 . S
C2666 H2642 0.950 . S
C2666 C2661 1.363 . S
C2666 C2665 1.415 . S
C2667 H2643 0.951 . S
C2667 C2668 1.366 1_556 S
C2667 C2669 1.388 . S
C2668 C2667 1.366 1_554 S
C2668 C2672 1.385 . S
C2669 H2644 0.951 . S
C2669 C2667 1.388 . S
C2669 C2670 1.366 1_556 S
C2670 C2669 1.366 1_554 S
C2670 C2671 1.414 . S
C2670 C2673 1.499 . S
C2671 H2645 0.950 . S
C2671 C2670 1.414 . S
C2671 C2672 1.374 . S
C2672 H2646 0.950 . S
C2672 C2668 1.385 . S
C2672 C2671 1.374 . S
C2673 C2670 1.499 . S
C2673 C2674 1.373 . S
C2673 C2675 1.389 1_554 S
C2674 H2647 0.950 . S
C2674 C2660 1.377 . S
C2674 C2673 1.373 . S
C2675 C2659 1.377 . S
C2675 C2673 1.389 1_556 S
C2675 C2676 1.524 . S
C2676 C2675 1.524 . S
C2676 C2677 1.397 . S
C2676 C2681 1.363 . S
C2677 H2648 0.950 . S
C2677 C2676 1.397 . S
C2677 C2678 1.334 . S
C2678 H2649 0.950 . S
C2678 C2677 1.334 . S
C2678 C2679 1.287 . S
C2679 C2678 1.287 . S
C2679 C2680 1.524 . S
C2679 H2682 0.999 . S
C2680 H2650 0.950 . S
C2680 C2679 1.524 . S
C2680 C2681 1.415 . S
C2681 H2651 0.950 . S
C2681 C2676 1.363 . S
C2681 C2680 1.415 . S
H2682 C2679 0.999 . S
H2683 C2664 0.913 . S
H2684 C2702 0.951 . S
H2685 C2704 0.951 . S
H2686 C2706 0.950 . S
H2687 C2707 0.950 . S
H2688 C2709 0.950 . S
H2689 C2712 0.950 . S
H2690 C2713 0.950 . S
H2691 C2715 0.950 . S
H2692 C2716 0.950 . S
H2693 C2717 0.951 . S
H2694 C2719 0.951 . S
H2695 C2721 0.950 . S
H2696 C2722 0.950 . S
H2697 C2724 0.950 . S
H2698 C2727 0.950 . S
H2699 C2728 0.950 . S
H2700 C2730 0.950 . S
H2701 C2731 0.950 . S
C2702 H2684 0.951 . S
C2702 C2703 1.366 . S
C2702 C2704 1.388 . S
C2703 C2702 1.366 . S
C2703 C2707 1.385 . S
C2704 H2685 0.951 . S
C2704 C2702 1.388 . S
C2704 C2705 1.366 . S
C2705 C2704 1.366 . S
C2705 C2706 1.414 . S
C2705 C2708 1.499 . S
C2706 H2686 0.950 . S
C2706 C2705 1.414 . S
C2706 C2707 1.374 . S
C2707 H2687 0.950 . S
C2707 C2703 1.385 . S
C2707 C2706 1.374 . S
C2708 C2705 1.499 . S
C2708 C2709 1.373 . S
C2708 C2710 1.389 . S
C2709 H2688 0.950 . S
C2709 C2708 1.373 . S
C2709 C2725 1.377 . S
C2710 C2708 1.389 . S
C2710 C2711 1.524 . S
C2710 C2724 1.377 . S
C2711 C2710 1.524 . S
C2711 C2712 1.397 . S
C2711 C2716 1.363 . S
C2712 H2689 0.950 . S
C2712 C2711 1.397 . S
C2712 C2713 1.334 . S
C2713 H2690 0.950 . S
C2713 C2712 1.334 . S
C2713 C2714 1.287 . S
C2714 C2713 1.287 . S
C2714 C2715 1.524 . S
C2714 H2733 0.913 . S
C2715 H2691 0.950 . S
C2715 C2714 1.524 . S
C2715 C2716 1.415 . S
C2716 H2692 0.950 . S
C2716 C2711 1.363 . S
C2716 C2715 1.415 . S
C2717 H2693 0.951 . S
C2717 C2718 1.366 . S
C2717 C2719 1.388 . S
C2718 C2717 1.366 . S
C2718 C2722 1.385 . S
C2719 H2694 0.951 . S
C2719 C2717 1.388 . S
C2719 C2720 1.366 . S
C2720 C2719 1.366 . S
C2720 C2721 1.414 . S
C2720 C2723 1.499 . S
C2721 H2695 0.950 . S
C2721 C2720 1.414 . S
C2721 C2722 1.374 . S
C2722 H2696 0.950 . S
C2722 C2718 1.385 . S
C2722 C2721 1.374 . S
C2723 C2720 1.499 . S
C2723 C2724 1.373 . S
C2723 C2725 1.389 . S
C2724 H2697 0.950 . S
C2724 C2710 1.377 . S
C2724 C2723 1.373 . S
C2725 C2709 1.377 . S
C2725 C2723 1.389 . S
C2725 C2726 1.524 . S
C2726 C2725 1.524 . S
C2726 C2727 1.397 . S
C2726 C2731 1.363 . S
C2727 H2698 0.950 . S
C2727 C2726 1.397 . S
C2727 C2728 1.334 . S
C2728 H2699 0.950 . S
C2728 C2727 1.334 . S
C2728 C2729 1.287 . S
C2729 C2728 1.287 . S
C2729 C2730 1.524 . S
C2729 H2732 0.999 . S
C2730 H2700 0.950 . S
C2730 C2729 1.524 . S
C2730 C2731 1.415 . S
C2731 H2701 0.950 . S
C2731 C2726 1.363 . S
C2731 C2730 1.415 . S
H2732 C2729 0.999 . S
H2733 C2714 0.913 . S
H2734 C2752 0.951 . S
H2735 C2754 0.951 . S
H2736 C2756 0.950 . S
H2737 C2757 0.950 . S
H2738 C2759 0.950 . S
H2739 C2762 0.950 . S
H2740 C2763 0.950 . S
H2741 C2765 0.950 . S
H2742 C2766 0.950 . S
H2743 C2767 0.951 . S
H2744 C2769 0.951 . S
H2745 C2771 0.950 . S
H2746 C2772 0.950 . S
H2747 C2774 0.950 . S
H2748 C2777 0.950 . S
H2749 C2778 0.950 . S
H2750 C2780 0.950 . S
H2751 C2781 0.950 . S
C2752 H2734 0.951 . S
C2752 C2753 1.366 . S
C2752 C2754 1.388 . S
C2753 C2752 1.366 . S
C2753 C2757 1.385 . S
C2754 H2735 0.951 . S
C2754 C2752 1.388 . S
C2754 C2755 1.366 . S
C2755 C2754 1.366 . S
C2755 C2756 1.414 . S
C2755 C2758 1.499 . S
C2756 H2736 0.950 . S
C2756 C2755 1.414 . S
C2756 C2757 1.374 . S
C2757 H2737 0.950 . S
C2757 C2753 1.385 . S
C2757 C2756 1.374 . S
C2758 C2755 1.499 . S
C2758 C2759 1.373 . S
C2758 C2760 1.389 . S
C2759 H2738 0.950 . S
C2759 C2758 1.373 . S
C2759 C2775 1.377 . S
C2760 C2758 1.389 . S
C2760 C2761 1.524 . S
C2760 C2774 1.377 . S
C2761 C2760 1.524 . S
C2761 C2762 1.397 . S
C2761 C2766 1.363 . S
C2762 H2739 0.950 . S
C2762 C2761 1.397 . S
C2762 C2763 1.334 . S
C2763 H2740 0.950 . S
C2763 C2762 1.334 . S
C2763 C2764 1.287 . S
C2764 C2763 1.287 . S
C2764 C2765 1.524 . S
C2764 H2783 0.913 . S
C2765 H2741 0.950 . S
C2765 C2764 1.524 . S
C2765 C2766 1.415 . S
C2766 H2742 0.950 . S
C2766 C2761 1.363 . S
C2766 C2765 1.415 . S
C2767 H2743 0.951 . S
C2767 C2768 1.366 . S
C2767 C2769 1.388 . S
C2768 C2767 1.366 . S
C2768 C2772 1.385 . S
C2769 H2744 0.951 . S
C2769 C2767 1.388 . S
C2769 C2770 1.366 . S
C2770 C2769 1.366 . S
C2770 C2771 1.414 . S
C2770 C2773 1.499 . S
C2771 H2745 0.950 . S
C2771 C2770 1.414 . S
C2771 C2772 1.374 . S
C2772 H2746 0.950 . S
C2772 C2768 1.385 . S
C2772 C2771 1.374 . S
C2773 C2770 1.499 . S
C2773 C2774 1.373 . S
C2773 C2775 1.389 . S
C2774 H2747 0.950 . S
C2774 C2760 1.377 . S
C2774 C2773 1.373 . S
C2775 C2759 1.377 . S
C2775 C2773 1.389 . S
C2775 C2776 1.524 . S
C2776 C2775 1.524 . S
C2776 C2777 1.397 . S
C2776 C2781 1.363 . S
C2777 H2748 0.950 . S
C2777 C2776 1.397 . S
C2777 C2778 1.334 . S
C2778 H2749 0.950 . S
C2778 C2777 1.334 . S
C2778 C2779 1.287 . S
C2779 C2778 1.287 . S
C2779 C2780 1.524 . S
C2779 H2782 0.999 . S
C2780 H2750 0.950 . S
C2780 C2779 1.524 . S
C2780 C2781 1.415 . S
C2781 H2751 0.950 . S
C2781 C2776 1.363 . S
C2781 C2780 1.415 . S
H2782 C2779 0.999 . S
H2783 C2764 0.913 . S
C418 C373 0.885 . S
C403 C11 0.937 . S
C453 C19 1.302 . S
C468 C326 1.255 . S
C503 C37 0.964 . S
C518 C337 0.883 . S
C568 C362 1.172 . S
C553 C42 1.233 . S
C603 C25 0.945 . S
C618 C380 0.880 . S
C668 C319 1.135 . S
C653 C28 1.189 . S
C718 C344 0.885 . S
C703 C51 0.978 . S
C768 C355 1.222 . S
C753 C5 1.262 . S
C803 C61 0.955 . S
C818 C356 0.888 . S
C868 C382 1.207 . S
C853 C81 1.254 . S
C918 C320 0.926 . S
C903 C89 1.022 . S
C968 C346 1.167 . S
C953 C107 1.196 . S
C1003 C56 0.916 . S
C1018 C328 0.869 . S
C1053 C79 1.221 . S
C1068 C338 1.191 . S
C1103 C84 0.980 . S
C1118 C364 0.908 . S
C1168 C374 1.244 . S
C1153 C109 1.295 . S
C1218 C211 0.970 . S
C1203 C103 1.059 . S
C1268 C194 0.922 1_554 S
C1253 C117 1.004 . S
C1318 C220 1.174 . S
C1303 C137 1.224 . S
C1368 C238 0.863 . S
C1353 C140 0.923 . S
C1403 C67 1.182 . S
C1418 C212 1.140 . S
C1453 C70 0.972 . S
C1468 C182 0.889 . S
C1503 C135 1.276 . S
C1518 C236 1.238 . S
C1553 C163 1.240 . S
C1568 C193 1.217 . S
C1618 C247 0.881 . S
C1603 C39 0.937 . S
C1668 C272 1.256 . S
C1653 C47 1.301 . S
C1703 C9 0.963 . S
C1718 C283 0.885 . S
C1753 C14 1.233 . S
C1768 C308 1.173 . S
C1818 C254 0.883 . S
C1803 C53 0.945 . S
C1868 C265 1.136 . S
C1853 C0 1.190 . S
C1903 C23 0.977 . S
C1918 C290 0.888 . S
C1968 C301 1.222 . S
C1953 C33 1.261 . S
C2003 C159 0.954 . S
C2018 C302 0.890 . S
C2053 C123 1.253 . S
C2068 C256 1.207 . S
C2118 C266 0.924 . S
C2103 C131 1.022 . S
C2153 C149 1.198 . S
C2168 C292 1.167 . S
C2218 C274 0.871 . S
C2203 C154 0.916 . S
C2253 C121 1.221 . S
C2268 C284 1.189 . S
C2318 C310 0.908 . S
C2303 C126 0.980 . S
C2368 C248 1.244 . S
C2353 C151 1.294 . S
C2418 C175 0.971 . S
C2403 C145 1.060 . S
C2468 C230 0.923 . S
C2453 C75 1.004 . S
C2503 C95 1.225 . S
C2518 C184 1.176 . S
C2568 C202 0.863 1_554 S
C2553 C98 0.923 . S
C2618 C176 1.139 . S
C2603 C165 1.181 . S
C2653 C112 0.971 . S
C2668 C218 0.887 . S
C2703 C93 1.276 . S
C2718 C200 1.237 . S
C2753 C65 1.239 . S
C2768 C229 1.215 . S
