# Generated by pormake.
# Topology pyr, (3,6)-cn, num edge types: 1
# Building blocks:
#     Node 0, Type 0, BuildingBlock: PAMTOO_clean_linker_0, # of connection points: 3
#     Node 1, Type 0, BuildingBlock: PAMTOO_clean_linker_0, # of connection points: 3
#     Node 2, Type 0, BuildingBlock: PAMTOO_clean_linker_0, # of connection points: 3
#     Node 3, Type 0, BuildingBlock: PAMTOO_clean_linker_0, # of connection points: 3
#     Node 4, Type 0, BuildingBlock: PAMTOO_clean_linker_0, # of connection points: 3
#     Node 5, Type 0, BuildingBlock: PAMTOO_clean_linker_0, # of connection points: 3
#     Node 6, Type 0, BuildingBlock: PAMTOO_clean_linker_0, # of connection points: 3
#     Node 7, Type 0, BuildingBlock: PAMTOO_clean_linker_0, # of connection points: 3
#     Node 8, Type 1, BuildingBlock: BETDEL_clean_sbu_0, # of connection points: 6
#     Node 9, Type 1, BuildingBlock: BETDEL_clean_sbu_0, # of connection points: 6
#     Node 10, Type 1, BuildingBlock: BETDEL_clean_sbu_0, # of connection points: 6
#     Node 11, Type 1, BuildingBlock: BETDEL_clean_sbu_0, # of connection points: 6
#     Edge 12, Type (0, 1), BuildingBlock: CIFDUS_clean_linker_0, # of connection points: 2
#     Edge 13, Type (0, 1), BuildingBlock: CIFDUS_clean_linker_0, # of connection points: 2
#     Edge 14, Type (0, 1), BuildingBlock: CIFDUS_clean_linker_0, # of connection points: 2
#     Edge 15, Type (0, 1), BuildingBlock: CIFDUS_clean_linker_0, # of connection points: 2
#     Edge 16, Type (0, 1), BuildingBlock: CIFDUS_clean_linker_0, # of connection points: 2
#     Edge 17, Type (0, 1), BuildingBlock: CIFDUS_clean_linker_0, # of connection points: 2
#     Edge 18, Type (0, 1), BuildingBlock: CIFDUS_clean_linker_0, # of connection points: 2
#     Edge 19, Type (0, 1), BuildingBlock: CIFDUS_clean_linker_0, # of connection points: 2
#     Edge 20, Type (0, 1), BuildingBlock: CIFDUS_clean_linker_0, # of connection points: 2
#     Edge 21, Type (0, 1), BuildingBlock: CIFDUS_clean_linker_0, # of connection points: 2
#     Edge 22, Type (0, 1), BuildingBlock: CIFDUS_clean_linker_0, # of connection points: 2
#     Edge 23, Type (0, 1), BuildingBlock: CIFDUS_clean_linker_0, # of connection points: 2
#     Edge 24, Type (0, 1), BuildingBlock: CIFDUS_clean_linker_0, # of connection points: 2
#     Edge 25, Type (0, 1), BuildingBlock: CIFDUS_clean_linker_0, # of connection points: 2
#     Edge 26, Type (0, 1), BuildingBlock: CIFDUS_clean_linker_0, # of connection points: 2
#     Edge 27, Type (0, 1), BuildingBlock: CIFDUS_clean_linker_0, # of connection points: 2
#     Edge 28, Type (0, 1), BuildingBlock: CIFDUS_clean_linker_0, # of connection points: 2
#     Edge 29, Type (0, 1), BuildingBlock: CIFDUS_clean_linker_0, # of connection points: 2
#     Edge 30, Type (0, 1), BuildingBlock: CIFDUS_clean_linker_0, # of connection points: 2
#     Edge 31, Type (0, 1), BuildingBlock: CIFDUS_clean_linker_0, # of connection points: 2
#     Edge 32, Type (0, 1), BuildingBlock: CIFDUS_clean_linker_0, # of connection points: 2
#     Edge 33, Type (0, 1), BuildingBlock: CIFDUS_clean_linker_0, # of connection points: 2
#     Edge 34, Type (0, 1), BuildingBlock: CIFDUS_clean_linker_0, # of connection points: 2
#     Edge 35, Type (0, 1), BuildingBlock: CIFDUS_clean_linker_0, # of connection points: 2
# Relax obj value: 0.091
# Max RMSD: 0.197
# Mean RMSD: 0.138
data_MOF--net-pyr--node1-BETDEL_clean_sbu_0--node2-PAMTOO_clean_linker_0--edge1-CIFDUS_clean_linker_0
_symmetry_space_group_name_H-M    P1
_symmetry_Int_Tables_number       1
_symmetry_cell_setting            triclinic
loop_
_symmetry_equiv_pos_as_xyz
'x, y, z'
_cell_length_a     31.080058
_cell_length_b     33.899754
_cell_length_c     30.742416
_cell_angle_alpha  92.153346
_cell_angle_beta   89.897236
_cell_angle_gamma 101.03932
loop_
_atom_site_label
_atom_site_type_symbol
_atom_site_fract_x
_atom_site_fract_y
_atom_site_fract_z
_atom_type_partial_charge
H0 H 0.16466 0.24839 0.24623 0.0
H1 H 0.25405 0.16647 0.22776 0.0
H2 H 0.24268 0.251 0.13032 0.0
H3 H 0.24828 0.16887 0.09465 0.0
C4 C 0.26523 0.15862 0.12274 0.0
O5 O 0.27948 0.19109 0.15098 0.0
H6 H 0.24172 0.13503 0.13935 0.0
C7 C 0.18991 0.23757 0.22752 0.0
C8 C 0.20239 0.25437 0.18734 0.0
C9 C 0.20799 0.20566 0.24257 0.0
C10 C 0.23932 0.19091 0.21689 0.0
C11 C 0.25121 0.20696 0.17636 0.0
C12 C 0.23297 0.2387 0.16167 0.0
H13 H 0.27646 0.90666 0.72559 0.0
H14 H 0.28091 0.81627 0.62397 0.0
H15 H 0.36959 0.82792 0.73154 0.0
H16 H 0.40086 0.83163 0.6379 0.0
C17 C 0.38076 0.80176 0.628 0.0
O18 O 0.34714 0.791 0.65727 0.0
H19 H 0.3666 0.8043 0.59528 0.0
C20 C 0.28969 0.88156 0.71218 0.0
C21 C 0.32365 0.86868 0.73464 0.0
C22 C 0.27424 0.86362 0.67169 0.0
C23 C 0.29221 0.83115 0.65478 0.0
C24 C 0.32662 0.81877 0.67635 0.0
C25 C 0.34199 0.83719 0.71617 0.0
H26 H 0.73643 0.28383 0.92869 0.0
H27 H 0.63812 0.28471 0.82989 0.0
H28 H 0.74762 0.38236 0.84219 0.0
H29 H 0.66066 0.40327 0.82604 0.0
C30 C 0.64818 0.37922 0.80101 0.0
O31 O 0.67682 0.35268 0.79768 0.0
H32 H 0.61549 0.36292 0.81137 0.0
C33 C 0.72342 0.29832 0.90225 0.0
C34 C 0.74646 0.33577 0.88881 0.0
C35 C 0.68426 0.27916 0.88132 0.0
C36 C 0.66824 0.29844 0.84656 0.0
C37 C 0.69102 0.3356 0.83275 0.0
C38 C 0.72988 0.35409 0.85388 0.0
H39 H 0.8664 0.7289 0.44641 0.0
H40 H 0.85213 0.62826 0.35459 0.0
H41 H 0.95015 0.73304 0.33395 0.0
H42 H 0.90573 0.6957 0.2552 0.0
C43 C 0.90128 0.66345 0.26331 0.0
O44 O 0.91708 0.66034 0.30483 0.0
H45 H 0.86552 0.65072 0.26203 0.0
C46 C 0.87638 0.7153 0.41667 0.0
C47 C 0.91123 0.73658 0.39231 0.0
C48 C 0.85414 0.67647 0.40341 0.0
C49 C 0.86783 0.65844 0.36507 0.0
C50 C 0.90266 0.67882 0.34044 0.0
C51 C 0.92388 0.71774 0.35388 0.0
H52 H 0.84806 0.95371 0.90135 0.0
H53 H 0.81604 0.85795 0.99035 0.0
H54 H 0.92251 0.85849 0.90131 0.0
H55 H 0.84192 0.78491 0.91397 0.0
C56 C 0.85475 0.78266 0.94747 0.0
O57 O 0.8771 0.81964 0.96304 0.0
H58 H 0.82633 0.77238 0.96893 0.0
C59 C 0.85521 0.92651 0.9147 0.0
C60 C 0.88904 0.90879 0.89704 0.0
C61 C 0.82892 0.90845 0.94826 0.0
C62 C 0.83636 0.87231 0.96453 0.0
C63 C 0.87009 0.85452 0.94743 0.0
C64 C 0.89643 0.87268 0.91395 0.0
H65 H 0.8065 0.11805 0.37184 0.0
H66 H 0.74541 0.21956 0.34948 0.0
H67 H 0.83779 0.22605 0.45349 0.0
H68 H 0.76971 0.26346 0.48142 0.0
C69 C 0.75276 0.2642 0.4497 0.0
O70 O 0.78213 0.26239 0.41632 0.0
H71 H 0.72537 0.2376 0.44775 0.0
C72 C 0.80305 0.14871 0.37977 0.0
C73 C 0.82601 0.1698 0.41565 0.0
C74 C 0.7744 0.16671 0.35505 0.0
C75 C 0.76879 0.20585 0.36675 0.0
C76 C 0.79142 0.22679 0.40231 0.0
C77 C 0.8207 0.20929 0.42589 0.0
H78 H 0.37234 0.73387 0.09714 0.0
H79 H 0.36472 0.62792 0.17289 0.0
H80 H 0.47193 0.72587 0.19221 0.0
H81 H 0.49006 0.64048 0.18822 0.0
C82 C 0.46146 0.62665 0.20802 0.0
O83 O 0.4357 0.6549 0.21717 0.0
H84 H 0.442 0.60082 0.18893 0.0
C85 C 0.3855 0.71733 0.12163 0.0
C86 C 0.42578 0.73459 0.14209 0.0
C87 C 0.36225 0.67891 0.13262 0.0
C88 C 0.38046 0.65794 0.16444 0.0
C89 C 0.41976 0.67496 0.18554 0.0
C90 C 0.44205 0.71306 0.17464 0.0
H91 H 0.11467 0.32402 0.75951 0.0
H92 H 0.21222 0.43023 0.73982 0.0
H93 H 0.21427 0.32517 0.66015 0.0
H94 H 0.3005 0.36466 0.69502 0.0
C95 C 0.2958 0.39639 0.69521 0.0
O96 O 0.25457 0.39771 0.67934 0.0
H97 H 0.29869 0.40841 0.72951 0.0
C98 C 0.14321 0.33884 0.74218 0.0
C99 C 0.16207 0.3179 0.70842 0.0
C100 C 0.16057 0.37968 0.75305 0.0
C101 C 0.19817 0.39905 0.73156 0.0
C102 C 0.21787 0.37874 0.69921 0.0
C103 C 0.19937 0.33896 0.68704 0.0
Dy104 Dy 0.07461 0.03446 0.51165 0.0
C105 C 0.99672 0.97552 0.6702 0.0
C106 C 0.10752 0.06976 0.43749 0.0
Dy107 Dy 0.02595 0.0116 0.59525 0.0
O108 O 0.11134 0.03415 0.44877 0.0
O109 O 0.08543 0.08617 0.46655 0.0
O110 O 0.11766 0.9899 0.52017 0.0
O111 O 0.09414 0.01688 0.57564 0.0
C112 C 0.11394 0.98959 0.56214 0.0
C113 C 0.98561 0.05457 0.54262 0.0
O114 O 0.07041 0.06777 0.62046 0.0
O115 O 0.09538 0.0914 0.55326 0.0
O116 O 0.99151 0.01094 0.65946 0.0
O117 O 0.01755 0.95944 0.63982 0.0
O118 O 0.9809 0.05496 0.58459 0.0
O119 O 0.00672 0.02788 0.53107 0.0
O120 O 0.02737 0.97975 0.48619 0.0
O121 O 1.00316 0.95536 0.55338 0.0
C122 C 0.09124 0.09661 0.59598 0.0
C123 C 0.00615 0.95079 0.51047 0.0
Dy124 Dy 0.57269 0.03949 0.08553 0.0
C125 C 0.45368 0.95638 0.95047 0.0
C126 C 0.62535 0.08208 0.14874 0.0
Dy127 Dy 0.51275 1.00306 1.00493 0.0
O128 O 0.59498 0.05079 0.15513 0.0
O129 O 0.62647 0.09066 0.10785 0.0
O130 O 0.56772 0.9761 0.10715 0.0
O131 O 0.51484 0.99186 0.07408 0.0
C132 C 0.52907 0.96321 0.09027 0.0
C133 C 0.56561 0.07257 0.9837 0.0
O134 O 0.46687 0.03313 0.0442 0.0
O135 O 0.51584 0.07083 0.09466 0.0
O136 O 0.45779 0.995 0.95675 0.0
O137 O 0.48169 0.94284 0.97451 0.0
O138 O 0.53851 0.05039 0.95655 0.0
O139 O 0.56308 0.05522 0.01938 0.0
O140 O 0.6204 0.01644 0.04209 0.0
O141 O 0.57013 0.97186 0.99887 0.0
C142 C 0.4766 0.06122 0.07579 0.0
C143 C 0.6106 0.98578 0.01348 0.0
Dy144 Dy 0.56686 0.49032 0.49323 0.0
C145 C 0.49716 0.61441 0.58014 0.0
C146 C 0.61144 0.43573 0.45692 0.0
Dy147 Dy 0.54462 0.56172 0.54397 0.0
O148 O 0.56925 0.43314 0.45461 0.0
O149 O 0.62923 0.46843 0.47849 0.0
O150 O 0.49605 0.46021 0.49067 0.0
O151 O 0.52019 0.49712 0.54482 0.0
C152 C 0.48598 0.47699 0.52701 0.0
C153 C 0.62532 0.57437 0.50862 0.0
O154 O 0.56655 0.53089 0.60053 0.0
O155 O 0.5965 0.48408 0.55947 0.0
O156 O 0.53933 0.62233 0.57418 0.0
O157 O 0.48134 0.57775 0.56692 0.0
O158 O 0.61631 0.59123 0.54539 0.0
O159 O 0.59051 0.55469 0.49178 0.0
O160 O 0.54732 0.52354 0.43714 0.0
O161 O 0.51115 0.5648 0.4793 0.0
C162 C 0.58958 0.50176 0.59752 0.0
C163 C 0.52047 0.54952 0.44082 0.0
Dy164 Dy 0.04881 0.47449 0.04843 0.0
C165 C 0.00729 0.62399 0.99176 0.0
C166 C 0.07923 0.40962 0.07577 0.0
Dy167 Dy 0.03643 0.55441 1.00411 0.0
O168 O 0.07554 0.44092 0.1001 0.0
O169 O 0.06551 0.41334 0.03652 0.0
O170 O 0.99214 0.47824 0.09254 0.0
O171 O 0.03066 0.53135 0.07028 0.0
C172 C 0.99663 0.51716 0.09152 0.0
C173 C 0.07434 0.50732 0.9484 0.0
O174 O 0.10328 0.57686 0.03217 0.0
O175 O 0.1137 0.51622 0.06084 0.0
O176 O 1.00106 0.59291 0.96493 0.0
O177 O 0.03031 0.61741 0.02501 0.0
O178 O 0.06623 0.54214 0.93815 0.0
O179 O 0.06272 0.50193 0.98722 0.0
O180 O 0.99114 0.45139 1.00528 0.0
O181 O 0.97049 0.51331 0.99866 0.0
C182 C 0.12709 0.55505 0.05327 0.0
C183 C 0.96233 0.47345 0.99398 0.0
H184 H 0.19159 0.12584 0.25872 0.0
H185 H 0.18776 0.24236 0.31873 0.0
H186 H 0.15451 0.21042 0.38364 0.0
H187 H 0.1253 0.14927 0.42292 0.0
H188 H 0.13405 0.03325 0.36506 0.0
H189 H 0.1671 0.06516 0.29977 0.0
C190 C 0.18433 0.14435 0.28628 0.0
C191 C 0.1919 0.18644 0.28364 0.0
C192 C 0.16583 0.12586 0.32374 0.0
C193 C 0.18156 0.20985 0.31952 0.0
C194 C 0.16269 0.19165 0.35674 0.0
C195 C 0.13439 0.13109 0.39589 0.0
C196 C 0.12702 0.08911 0.39832 0.0
C197 C 0.15424 0.14968 0.35901 0.0
C198 C 0.1394 0.06571 0.36361 0.0
C199 C 0.1583 0.0839 0.32639 0.0
H200 H 0.35393 0.83669 0.8062 0.0
H201 H 0.3368 0.94955 0.75448 0.0
H202 H 0.37089 0.98548 0.8192 0.0
H203 H 0.4105 0.98587 0.88763 0.0
H204 H 0.43499 0.8747 0.93673 0.0
H205 H 0.39353 0.83708 0.87558 0.0
C206 C 0.3578 0.86916 0.80895 0.0
C207 C 0.34246 0.89019 0.7754 0.0
C208 C 0.37902 0.88999 0.84566 0.0
C209 C 0.34725 0.93227 0.78 0.0
C210 C 0.36723 0.95302 0.81687 0.0
C211 C 0.40634 0.95334 0.88521 0.0
C212 C 0.4256 0.93295 0.91645 0.0
C213 C 0.38375 0.93227 0.84953 0.0
C214 C 0.42035 0.89092 0.9129 0.0
C215 C 0.39679 0.8695 0.87796 0.0
H216 H 0.63277 0.45417 0.78746 0.0
H217 H 0.64855 0.34512 0.71791 0.0
H218 H 0.63484 0.3743 0.64884 0.0
H219 H 0.61527 0.42992 0.60842 0.0
H220 H 0.59597 0.53769 0.67885 0.0
H221 H 0.61446 0.51013 0.74703 0.0
C222 C 0.63383 0.43706 0.75707 0.0
C223 C 0.64289 0.39796 0.75778 0.0
C224 C 0.62511 0.45378 0.71756 0.0
C225 C 0.64279 0.37564 0.71826 0.0
C226 C 0.63472 0.39226 0.67874 0.0
C227 C 0.6156 0.4476 0.63859 0.0
C228 C 0.60425 0.48593 0.63832 0.0
C229 C 0.62555 0.43124 0.678 0.0
C230 C 0.60442 0.50812 0.67794 0.0
C231 C 0.61498 0.49235 0.71705 0.0
H232 H 0.87768 0.58594 0.2312 0.0
H233 H 0.97858 0.69166 0.22158 0.0
H234 H 0.01603 0.65716 0.16583 0.0
H235 H 0.02024 0.59622 0.11989 0.0
H236 H 0.91959 0.49028 0.13143 0.0
H237 H 0.8817 0.52549 0.18554 0.0
C238 C 0.90787 0.60134 0.21684 0.0
C239 C 0.92512 0.64141 0.23012 0.0
C240 C 0.92912 0.5813 0.18481 0.0
C241 C 0.96454 0.6609 0.21162 0.0
C242 C 0.98587 0.6412 0.17968 0.0
C243 C 0.98979 0.58106 0.13397 0.0
C244 C 0.9727 0.54066 0.12152 0.0
C245 C 0.96842 0.60138 0.16585 0.0
C246 C 0.93345 0.52132 0.14042 0.0
C247 C 0.91179 0.5414 0.17151 0.0
H248 H 0.34151 0.1549 0.16617 0.0
H249 H 0.27218 0.11891 0.04537 0.0
H250 H 0.33115 0.08529 0.02024 0.0
H251 H 0.40195 0.06611 0.03278 0.0
H252 H 0.47269 0.10383 0.15262 0.0
H253 H 0.41378 0.13746 0.17776 0.0
C254 C 0.33968 0.14027 0.13406 0.0
C255 C 0.30315 0.14026 0.10707 0.0
C256 C 0.37383 0.12134 0.11975 0.0
C257 C 0.30051 0.12002 0.0662 0.0
C258 C 0.33407 0.10073 0.05193 0.0
C259 C 0.40451 0.08161 0.06446 0.0
C260 C 0.44153 0.08226 0.09089 0.0
C261 C 0.37083 0.10119 0.07846 0.0
C262 C 0.44455 0.10292 0.1316 0.0
C263 C 0.41085 0.12208 0.14604 0.0
H264 H 0.20658 0.89998 0.70004 0.0
H265 H 0.27241 0.86906 0.58308 0.0
H266 H 0.22628 0.90246 0.53966 0.0
H267 H 0.17115 0.94422 0.53459 0.0
H268 H 0.11018 0.9823 0.65082 0.0
H269 H 0.15148 0.94324 0.69496 0.0
C270 C 0.21122 0.90073 0.66512 0.0
C271 C 0.24313 0.88155 0.64521 0.0
C272 C 0.18583 0.92178 0.64018 0.0
C273 C 0.24763 0.88238 0.59963 0.0
C274 C 0.22159 0.90207 0.5746 0.0
C275 C 0.16677 0.94395 0.56961 0.0
C276 C 0.13779 0.96607 0.58952 0.0
C277 C 0.19116 0.92233 0.59457 0.0
C278 C 0.13244 0.96549 0.63485 0.0
C279 C 0.15601 0.94318 0.66 0.0
H280 H 0.77349 0.41498 0.91193 0.0
H281 H 0.81406 0.30025 0.91391 0.0
H282 H 0.88362 0.33231 0.94782 0.0
H283 H 0.93386 0.39324 0.9751 0.0
H284 H 0.89349 0.50815 0.97155 0.0
H285 H 0.82333 0.47571 0.93971 0.0
C286 C 0.79766 0.39701 0.91953 0.0
C287 C 0.78846 0.35525 0.91034 0.0
C288 C 0.83778 0.41569 0.93865 0.0
C289 C 0.81994 0.33236 0.92109 0.0
C290 C 0.8599 0.35071 0.94024 0.0
C291 C 0.90971 0.41123 0.96753 0.0
C292 C 0.9192 0.45316 0.97572 0.0
C293 C 0.86928 0.3924 0.94899 0.0
C294 C 0.88734 0.47586 0.96558 0.0
C295 C 0.84708 0.45734 0.94733 0.0
H296 H 0.7774 0.62853 0.37427 0.0
H297 H 0.84592 0.67656 0.49249 0.0
H298 H 0.78185 0.64926 0.53526 0.0
H299 H 0.70465 0.61434 0.53927 0.0
H300 H 0.63787 0.56257 0.42177 0.0
H301 H 0.70294 0.5879 0.37902 0.0
C302 C 0.77874 0.63247 0.40943 0.0
C303 C 0.81647 0.6555 0.42974 0.0
C304 C 0.74184 0.61602 0.43419 0.0
C305 C 0.8171 0.66018 0.47552 0.0
C306 C 0.78046 0.64428 0.50022 0.0
C307 C 0.70453 0.6084 0.50436 0.0
C308 C 0.66631 0.58699 0.48374 0.0
C309 C 0.74235 0.62274 0.47989 0.0
C310 C 0.66678 0.57912 0.4385 0.0
C311 C 0.70401 0.59368 0.41395 0.0
H312 H 0.1672 0.26044 0.10765 0.0
H313 H 0.19171 0.32185 0.23322 0.0
H314 H 0.1545 0.37479 0.20998 0.0
H315 H 0.11472 0.40328 0.15434 0.0
H316 H 0.09038 0.34276 0.02836 0.0
H317 H 0.12778 0.28958 0.05135 0.0
C318 C 0.16477 0.28569 0.12965 0.0
C319 C 0.18209 0.28738 0.17202 0.0
C320 C 0.14314 0.31587 0.11615 0.0
C321 C 0.17827 0.31987 0.20054 0.0
C322 C 0.15708 0.3501 0.18729 0.0
C323 C 0.11745 0.37833 0.13201 0.0
C324 C 0.09978 0.37665 0.08989 0.0
C325 C 0.13918 0.34825 0.14531 0.0
C326 C 0.10365 0.34442 0.06108 0.0
C327 C 0.12512 0.31417 0.07414 0.0
H328 H 0.67373 0.24924 0.96367 0.0
H329 H 0.64347 0.21656 0.82837 0.0
H330 H 0.60534 0.15035 0.84853 0.0
H331 H 0.57985 0.10168 0.90396 0.0
H332 H 0.6111 0.13183 0.03907 0.0
H333 H 0.65077 0.19863 0.0195 0.0
C334 C 0.65926 0.22755 0.93848 0.0
C335 C 0.66124 0.23844 0.89444 0.0
C336 C 0.63788 0.18889 0.95023 0.0
C337 C 0.6417 0.20976 0.86253 0.0
C338 C 0.62019 0.17158 0.87398 0.0
C339 C 0.59558 0.12277 0.92918 0.0
C340 C 0.59271 0.11183 0.97292 0.0
C341 C 0.61793 0.1609 0.91764 0.0
C342 C 0.61328 0.13941 1.00517 0.0
C343 C 0.63566 0.17768 0.99394 0.0
H344 H 0.87815 0.79478 0.43955 0.0
H345 H 0.99812 0.77237 0.38072 0.0
H346 H 0.03659 0.83785 0.40825 0.0
H347 H 0.03776 0.90042 0.45308 0.0
H348 H 0.92068 0.91717 0.52067 0.0
H349 H 0.88004 0.85448 0.48698 0.0
C350 C 0.91291 0.80342 0.43325 0.0
C351 C 0.93475 0.77774 0.4079 0.0
C352 C 0.93565 0.84032 0.45122 0.0
C353 C 0.97966 0.79116 0.39922 0.0
C354 C 1.00206 0.82866 0.41547 0.0
C355 C 1.00328 0.89029 0.46011 0.0
C356 C 0.98202 0.91334 0.489 0.0
C357 C 0.98055 0.85333 0.44193 0.0
C358 C 0.9376 0.8998 0.49852 0.0
C359 C 0.91441 0.86402 0.47923 0.0
H360 H 0.35488 0.72044 0.61867 0.0
H361 H 0.47043 0.81372 0.62875 0.0
H362 H 0.51705 0.76375 0.61762 0.0
H363 H 0.5247 0.69379 0.60102 0.0
H364 H 0.40892 0.60064 0.59045 0.0
H365 H 0.36268 0.65002 0.60647 0.0
C366 C 0.39029 0.72961 0.61911 0.0
C367 C 0.40927 0.77051 0.6251 0.0
C368 C 0.41682 0.70075 0.61253 0.0
C369 C 0.45515 0.78228 0.62474 0.0
C370 C 0.48179 0.75376 0.61827 0.0
C371 C 0.48939 0.68433 0.60277 0.0
C372 C 0.47018 0.64378 0.59443 0.0
C373 C 0.46297 0.71295 0.61163 0.0
C374 C 0.42442 0.63178 0.59669 0.0
C375 C 0.39795 0.65999 0.60572 0.0
H376 H 0.91749 0.87062 0.82592 0.0
H377 H 0.91866 0.98877 0.88426 0.0
H378 H 0.95227 0.01964 0.8191 0.0
H379 H 0.9775 0.01316 0.74412 0.0
H380 H 0.98131 0.89577 0.68715 0.0
H381 H 0.95023 0.86438 0.75369 0.0
C382 C 0.92593 0.90311 0.82485 0.0
C383 C 0.91478 0.92728 0.85973 0.0
C384 C 0.94589 0.92077 0.78747 0.0
C385 C 0.92577 0.96939 0.85748 0.0
C386 C 0.9452 0.98712 0.82031 0.0
C387 C 0.97167 0.98071 0.74645 0.0
C388 C 0.98095 0.95664 0.71091 0.0
C389 C 0.95456 0.9631 0.78483 0.0
C390 C 0.9741 0.91475 0.71427 0.0
C391 C 0.95632 0.89687 0.75219 0.0
H392 H 0.76197 0.19234 0.27425 0.0
H393 H 0.72611 0.09057 0.35581 0.0
H394 H 0.67635 0.05553 0.2992 0.0
H395 H 0.641 0.05495 0.22759 0.0
H396 H 0.67849 0.15568 0.14495 0.0
H397 H 0.7293 0.19036 0.20109 0.0
C398 C 0.74334 0.16242 0.27947 0.0
C399 C 0.7476 0.14405 0.31911 0.0
C400 C 0.71481 0.14253 0.24682 0.0
C401 C 0.7237 0.10513 0.32538 0.0
C402 C 0.69499 0.08525 0.29319 0.0
C403 C 0.66026 0.08454 0.222 0.0
C404 C 0.65581 0.10303 0.18254 0.0
C405 C 0.68992 0.10385 0.25402 0.0
C406 C 0.68132 0.14104 0.17526 0.0
C407 C 0.71036 0.1608 0.20728 0.0
H408 H 0.42769 0.62668 0.29169 0.0
H409 H 0.53049 0.58911 0.21569 0.0
H410 H 0.55697 0.56038 0.27995 0.0
H411 H 0.55157 0.54677 0.35801 0.0
H412 H 0.45033 0.58662 0.43452 0.0
H413 H 0.4228 0.61376 0.36994 0.0
C414 C 0.4562 0.61266 0.28925 0.0
C415 C 0.4778 0.6109 0.24908 0.0
C416 C 0.47145 0.59647 0.32645 0.0
C417 C 0.51391 0.59155 0.24642 0.0
C418 C 0.52895 0.57499 0.2831 0.0
C419 C 0.52329 0.56114 0.3605 0.0
C420 C 0.50297 0.56449 0.40106 0.0
C421 C 0.50805 0.57734 0.32332 0.0
C422 C 0.46667 0.58366 0.40375 0.0
C423 C 0.45087 0.59922 0.3668 0.0
H424 H 0.1469 0.36996 0.84082 0.0
H425 H 0.12666 0.4449 0.7355 0.0
H426 H 0.09813 0.49064 0.78627 0.0
H427 H 0.08161 0.51116 0.86086 0.0
H428 H 0.10357 0.43845 0.96735 0.0
H429 H 0.12862 0.39024 0.91647 0.0
C430 C 0.13557 0.39599 0.8291 0.0
C431 C 0.13863 0.40394 0.7844 0.0
C432 C 0.11987 0.4228 0.85883 0.0
C433 C 0.12448 0.43812 0.7697 0.0
C434 C 0.10834 0.46438 0.79874 0.0
C435 C 0.09187 0.48474 0.87296 0.0
C436 C 0.09038 0.47824 0.91791 0.0
C437 C 0.10644 0.45738 0.84343 0.0
C438 C 0.10375 0.44383 0.93295 0.0
C439 C 0.11827 0.41634 0.90377 0.0
H440 H 0.74225 0.87686 0.94557 0.0
H441 H 0.8358 0.98236 0.98708 0.0
H442 H 0.77621 0.01571 0.0113 0.0
H443 H 0.69784 0.01517 0.01915 0.0
H444 H 0.60356 0.91098 0.97439 0.0
H445 H 0.66308 0.87683 0.95241 0.0
C446 C 0.74932 0.90698 0.96036 0.0
C447 C 0.79297 0.92719 0.96512 0.0
C448 C 0.71491 0.92623 0.97309 0.0
C449 C 0.80221 0.96641 0.98347 0.0
C450 C 0.76825 0.98542 0.99714 0.0
C451 C 0.69024 0.98496 1.00464 0.0
C452 C 0.64636 0.96563 0.99848 0.0
C453 C 0.72451 0.9657 0.99183 0.0
C454 C 0.6371 0.92664 0.97925 0.0
C455 C 0.67109 0.907 0.96688 0.0
H456 H 0.88628 0.12376 0.3926 0.0
H457 H 0.82561 0.17135 0.50407 0.0
H458 H 0.87062 0.14115 0.5529 0.0
H459 H 0.92687 0.10106 0.56432 0.0
H460 H 0.98719 0.05186 0.4538 0.0
H461 H 0.94282 0.08278 0.40425 0.0
C462 C 0.88281 0.12724 0.42757 0.0
C463 C 0.85295 0.15008 0.44464 0.0
C464 C 0.9088 0.10962 0.45564 0.0
C465 C 0.84892 0.15454 0.49006 0.0
C466 C 0.87449 0.13713 0.51806 0.0
C467 C 0.93036 0.0972 0.52938 0.0
C468 C 0.9601 0.07425 0.51267 0.0
C469 C 0.9046 0.11474 0.50125 0.0
C470 C 0.96437 0.06942 0.46736 0.0
C471 C 0.93898 0.08703 0.43906 0.0
H472 H 0.29314 0.62712 0.16747 0.0
H473 H 0.3332 0.68862 0.04911 0.0
H474 H 0.26337 0.65814 0.01517 0.0
H475 H 0.1911 0.61179 0.01805 0.0
H476 H 0.1573 0.54383 0.13311 0.0
H477 H 0.22516 0.57789 0.16857 0.0
C478 C 0.28753 0.63341 0.13389 0.0
C479 C 0.31923 0.66043 0.11128 0.0
C480 C 0.24821 0.61419 0.11364 0.0
C481 C 0.30963 0.66879 0.06813 0.0
C482 C 0.26968 0.65093 0.04832 0.0
C483 C 0.1988 0.60451 0.05083 0.0
C484 C 0.16928 0.5754 0.07299 0.0
C485 C 0.23876 0.62338 0.07067 0.0
C486 C 0.17968 0.56592 0.1153 0.0
C487 C 0.21839 0.58551 0.13567 0.0
H488 H 0.30996 0.38538 0.60843 0.0
H489 H 0.36113 0.45955 0.72054 0.0
H490 H 0.42294 0.49308 0.67771 0.0
H491 H 0.46523 0.49796 0.60965 0.0
H492 H 0.4144 0.42339 0.49752 0.0
H493 H 0.34963 0.39379 0.5387 0.0
C494 C 0.33438 0.40932 0.62314 0.0
C495 C 0.33099 0.42007 0.66745 0.0
C496 C 0.37003 0.42825 0.59836 0.0
C497 C 0.36296 0.45087 0.68642 0.0
C498 C 0.39837 0.46997 0.66198 0.0
C499 C 0.43971 0.47557 0.59412 0.0
C500 C 0.44478 0.46263 0.55072 0.0
C501 C 0.40267 0.45843 0.61812 0.0
C502 C 0.41139 0.4337 0.53097 0.0
C503 C 0.37437 0.41668 0.55453 0.0
H504 H 0.91191 0.7715 0.011 0.0
H505 H 0.86216 0.7251 0.88462 0.0
H506 H 0.90705 0.67326 0.88604 0.0
H507 H 0.95814 0.63963 0.92453 0.0
H508 H 0.00802 0.68588 0.05097 0.0
H509 H 0.96608 0.7399 0.04794 0.0
C510 C 0.91146 0.75034 0.98357 0.0
C511 C 0.8844 0.7524 0.94746 0.0
C512 C 0.9374 0.72077 0.9846 0.0
C513 C 0.88324 0.72435 0.91248 0.0
C514 C 0.90882 0.69473 0.91331 0.0
C515 C 0.96018 0.66184 0.95117 0.0
C516 C 0.986 0.65892 0.9879 0.0
C517 C 0.93576 0.6925 0.94932 0.0
C518 C 0.98842 0.68772 0.02228 0.0
C519 C 0.9643 0.71844 0.02065 0.0
H520 H 0.39436 0.8012 0.11706 0.0
H521 H 0.51506 0.75907 0.13869 0.0
H522 H 0.55708 0.82549 0.1248 0.0
H523 H 0.56013 0.89641 0.10873 0.0
H524 H 0.44065 0.93767 0.08084 0.0
H525 H 0.39785 0.87056 0.09369 0.0
C526 C 0.42984 0.80615 0.11803 0.0
C527 C 0.45114 0.77487 0.12995 0.0
C528 C 0.45421 0.84442 0.10877 0.0
C529 C 0.49734 0.78254 0.13115 0.0
C530 C 0.52163 0.82057 0.12276 0.0
C531 C 0.52472 0.8906 0.10528 0.0
C532 C 0.5035 0.92197 0.09443 0.0
C533 C 0.50044 0.85187 0.11211 0.0
C534 C 0.4577 0.91398 0.08938 0.0
C535 C 0.43322 0.87564 0.09683 0.0
H536 H 0.20352 0.26028 0.66972 0.0
H537 H 0.07574 0.27731 0.71357 0.0
H538 H 0.04395 0.20967 0.68661 0.0
H539 H 0.05103 0.14649 0.64609 0.0
H540 H 0.17622 0.1348 0.59226 0.0
H541 H 0.20989 0.20005 0.62601 0.0
C542 C 0.1685 0.25009 0.67278 0.0
C543 C 0.14251 0.27509 0.69383 0.0
C544 C 0.14968 0.21182 0.65483 0.0
C545 C 0.09736 0.25938 0.69854 0.0
C546 C 0.0788 0.22055 0.68251 0.0
C547 C 0.08573 0.15829 0.64203 0.0
C548 C 0.11131 0.13583 0.61709 0.0
C549 C 0.10449 0.19666 0.6601 0.0
C550 C 0.156 0.15158 0.61137 0.0
C551 C 0.1752 0.18884 0.63072 0.0
H552 H 0.67489 0.27348 0.41524 0.0
H553 H 0.79127 0.33947 0.47928 0.0
H554 H 0.75956 0.40037 0.48258 0.0
H555 H 0.69596 0.43257 0.47357 0.0
H556 H 0.57815 0.36561 0.41252 0.0
H557 H 0.61321 0.30732 0.40117 0.0
C558 C 0.69327 0.30135 0.42961 0.0
C559 C 0.7348 0.30212 0.44788 0.0
C560 C 0.67453 0.33585 0.43197 0.0
C561 C 0.7589 0.33835 0.4657 0.0
C562 C 0.7408 0.37302 0.46757 0.0
C563 C 0.67826 0.40542 0.45715 0.0
C564 C 0.63456 0.40313 0.44411 0.0
C565 C 0.69824 0.37183 0.45176 0.0
C566 C 0.61185 0.36789 0.42293 0.0
C567 C 0.6318 0.33456 0.4166 0.0
loop_
_geom_bond_atom_site_label_1
_geom_bond_atom_site_label_2
_geom_bond_distance
_geom_bond_site_symmetry_2
_ccdc_geom_bond_type
H0 C7 0.929 . S
H1 C10 0.930 . S
H2 C12 0.929 . S
H3 C4 0.969 . S
C4 H3 0.969 . S
C4 O5 1.550 . S
C4 H6 0.973 . S
O5 C4 1.550 . S
O5 C11 1.412 . S
H6 C4 0.973 . S
C7 H0 0.929 . S
C7 C8 1.400 . S
C7 C9 1.364 . S
C8 C7 1.400 . S
C8 C12 1.377 . S
C9 C7 1.364 . S
C9 C10 1.374 . S
C10 H1 0.930 . S
C10 C9 1.374 . S
C10 C11 1.383 . S
C11 O5 1.412 . S
C11 C10 1.383 . S
C11 C12 1.394 . S
C12 H2 0.929 . S
C12 C8 1.377 . S
C12 C11 1.394 . S
H13 C20 0.929 . S
H14 C23 0.930 . S
H15 C25 0.929 . S
H16 C17 0.969 . S
C17 H16 0.969 . S
C17 O18 1.550 . S
C17 H19 0.973 . S
O18 C17 1.550 . S
O18 C24 1.412 . S
H19 C17 0.973 . S
C20 H13 0.929 . S
C20 C21 1.400 . S
C20 C22 1.364 . S
C21 C20 1.400 . S
C21 C25 1.377 . S
C22 C20 1.364 . S
C22 C23 1.374 . S
C23 H14 0.930 . S
C23 C22 1.374 . S
C23 C24 1.383 . S
C24 O18 1.412 . S
C24 C23 1.383 . S
C24 C25 1.394 . S
C25 H15 0.929 . S
C25 C21 1.377 . S
C25 C24 1.394 . S
H26 C33 0.929 . S
H27 C36 0.930 . S
H28 C38 0.929 . S
H29 C30 0.969 . S
C30 H29 0.969 . S
C30 O31 1.550 . S
C30 H32 0.973 . S
O31 C30 1.550 . S
O31 C37 1.412 . S
H32 C30 0.973 . S
C33 H26 0.929 . S
C33 C34 1.400 . S
C33 C35 1.364 . S
C34 C33 1.400 . S
C34 C38 1.377 . S
C35 C33 1.364 . S
C35 C36 1.374 . S
C36 H27 0.930 . S
C36 C35 1.374 . S
C36 C37 1.383 . S
C37 O31 1.412 . S
C37 C36 1.383 . S
C37 C38 1.394 . S
C38 H28 0.929 . S
C38 C34 1.377 . S
C38 C37 1.394 . S
H39 C46 0.929 . S
H40 C49 0.930 . S
H41 C51 0.929 . S
H42 C43 0.969 . S
C43 H42 0.969 . S
C43 O44 1.550 . S
C43 H45 0.973 . S
O44 C43 1.550 . S
O44 C50 1.412 . S
H45 C43 0.973 . S
C46 H39 0.929 . S
C46 C47 1.400 . S
C46 C48 1.364 . S
C47 C46 1.400 . S
C47 C51 1.377 . S
C48 C46 1.364 . S
C48 C49 1.374 . S
C49 H40 0.930 . S
C49 C48 1.374 . S
C49 C50 1.383 . S
C50 O44 1.412 . S
C50 C49 1.383 . S
C50 C51 1.394 . S
C51 H41 0.929 . S
C51 C47 1.377 . S
C51 C50 1.394 . S
H52 C59 0.929 . S
H53 C62 0.930 . S
H54 C64 0.929 . S
H55 C56 0.969 . S
C56 H55 0.969 . S
C56 O57 1.550 . S
C56 H58 0.973 . S
O57 C56 1.550 . S
O57 C63 1.412 . S
H58 C56 0.973 . S
C59 H52 0.929 . S
C59 C60 1.400 . S
C59 C61 1.364 . S
C60 C59 1.400 . S
C60 C64 1.377 . S
C61 C59 1.364 . S
C61 C62 1.374 . S
C62 H53 0.930 . S
C62 C61 1.374 . S
C62 C63 1.383 . S
C63 O57 1.412 . S
C63 C62 1.383 . S
C63 C64 1.394 . S
C64 H54 0.929 . S
C64 C60 1.377 . S
C64 C63 1.394 . S
H65 C72 0.929 . S
H66 C75 0.930 . S
H67 C77 0.929 . S
H68 C69 0.969 . S
C69 H68 0.969 . S
C69 O70 1.550 . S
C69 H71 0.973 . S
O70 C69 1.550 . S
O70 C76 1.412 . S
H71 C69 0.973 . S
C72 H65 0.929 . S
C72 C73 1.400 . S
C72 C74 1.364 . S
C73 C72 1.400 . S
C73 C77 1.377 . S
C74 C72 1.364 . S
C74 C75 1.374 . S
C75 H66 0.930 . S
C75 C74 1.374 . S
C75 C76 1.383 . S
C76 O70 1.412 . S
C76 C75 1.383 . S
C76 C77 1.394 . S
C77 H67 0.929 . S
C77 C73 1.377 . S
C77 C76 1.394 . S
H78 C85 0.929 . S
H79 C88 0.930 . S
H80 C90 0.929 . S
H81 C82 0.969 . S
C82 H81 0.969 . S
C82 O83 1.550 . S
C82 H84 0.973 . S
O83 C82 1.550 . S
O83 C89 1.412 . S
H84 C82 0.973 . S
C85 H78 0.929 . S
C85 C86 1.400 . S
C85 C87 1.364 . S
C86 C85 1.400 . S
C86 C90 1.377 . S
C87 C85 1.364 . S
C87 C88 1.374 . S
C88 H79 0.930 . S
C88 C87 1.374 . S
C88 C89 1.383 . S
C89 O83 1.412 . S
C89 C88 1.383 . S
C89 C90 1.394 . S
C90 H80 0.929 . S
C90 C86 1.377 . S
C90 C89 1.394 . S
H91 C98 0.929 . S
H92 C101 0.930 . S
H93 C103 0.929 . S
H94 C95 0.969 . S
C95 H94 0.969 . S
C95 O96 1.550 . S
C95 H97 0.973 . S
O96 C95 1.550 . S
O96 C102 1.412 . S
H97 C95 0.973 . S
C98 H91 0.929 . S
C98 C99 1.400 . S
C98 C100 1.364 . S
C99 C98 1.400 . S
C99 C103 1.377 . S
C100 C98 1.364 . S
C100 C101 1.374 . S
C101 H92 0.930 . S
C101 C100 1.374 . S
C101 C102 1.383 . S
C102 O96 1.412 . S
C102 C101 1.383 . S
C102 C103 1.394 . S
C103 H93 0.929 . S
C103 C99 1.377 . S
C103 C102 1.394 . S
Dy104 O108 2.398 . S
Dy104 O109 2.491 . S
Dy104 O110 2.403 . S
Dy104 O111 2.677 . S
Dy104 O115 2.326 . S
Dy104 O119 2.310 1_455 S
Dy104 O120 2.351 1_545 S
C105 O116 1.185 . S
C105 O117 1.355 . S
C106 O108 1.185 . S
C106 O109 1.355 . S
Dy107 O111 2.319 1_655 S
Dy107 O114 2.351 1_655 S
Dy107 O116 2.398 1_545 S
Dy107 O117 2.491 1_545 S
Dy107 O118 2.403 . S
Dy107 O119 2.664 . S
Dy107 O121 2.326 1_545 S
O108 Dy104 2.398 . S
O108 C106 1.185 . S
O109 Dy104 2.491 . S
O109 C106 1.355 . S
O110 Dy104 2.403 . S
O110 C112 1.254 1_545 S
O111 Dy104 2.677 . S
O111 Dy107 2.319 1_455 S
O111 C112 1.260 1_545 S
C112 O110 1.254 1_565 S
C112 O111 1.260 1_565 S
C113 O118 1.254 . S
C113 O119 1.268 . S
O114 Dy107 2.351 1_455 S
O114 C122 1.249 . S
O115 Dy104 2.326 . S
O115 C122 1.267 . S
O116 C105 1.185 . S
O116 Dy107 2.398 1_565 S
O117 C105 1.355 . S
O117 Dy107 2.491 1_565 S
O118 Dy107 2.403 . S
O118 C113 1.254 . S
O119 Dy104 2.310 1_655 S
O119 Dy107 2.664 . S
O119 C113 1.268 . S
O120 Dy104 2.351 1_565 S
O120 C123 1.249 1_455 S
O121 Dy107 2.326 1_565 S
O121 C123 1.267 . S
C122 O114 1.249 . S
C122 O115 1.267 . S
C123 O120 1.249 1_655 S
C123 O121 1.267 . S
Dy124 O128 2.398 . S
Dy124 O129 2.491 . S
Dy124 O130 2.403 1_545 S
Dy124 O131 2.664 1_545 S
Dy124 O135 2.326 . S
Dy124 O139 2.310 . S
Dy124 O140 2.351 1_545 S
C125 O136 1.185 . S
C125 O137 1.355 . S
C126 O128 1.185 . S
C126 O129 1.355 . S
Dy127 O131 2.310 1_546 S
Dy127 O134 2.351 1_556 S
Dy127 O136 2.398 1_545 S
Dy127 O137 2.491 1_545 S
Dy127 O138 2.403 . S
Dy127 O139 2.664 1_556 S
Dy127 O141 2.326 1_545 S
O128 Dy124 2.398 . S
O128 C126 1.185 . S
O129 Dy124 2.491 . S
O129 C126 1.355 . S
O130 Dy124 2.403 1_565 S
O130 C132 1.254 . S
O131 Dy124 2.664 1_565 S
O131 Dy127 2.310 1_564 S
O131 C132 1.268 . S
C132 O130 1.254 . S
C132 O131 1.268 . S
C133 O138 1.254 . S
C133 O139 1.268 1_556 S
O134 Dy127 2.351 1_554 S
O134 C142 1.249 . S
O135 Dy124 2.326 . S
O135 C142 1.267 . S
O136 C125 1.185 . S
O136 Dy127 2.398 1_565 S
O137 C125 1.355 . S
O137 Dy127 2.491 1_565 S
O138 Dy127 2.403 . S
O138 C133 1.254 . S
O139 Dy124 2.310 . S
O139 Dy127 2.664 1_554 S
O139 C133 1.268 1_554 S
O140 Dy124 2.351 1_565 S
O140 C143 1.249 1_554 S
O141 Dy127 2.326 1_565 S
O141 C143 1.267 . S
C142 O134 1.249 . S
C142 O135 1.267 . S
C143 O140 1.249 1_556 S
C143 O141 1.267 . S
Dy144 O148 2.398 . S
Dy144 O149 2.491 . S
Dy144 O150 2.403 . S
Dy144 O151 2.664 . S
Dy144 O155 2.326 . S
Dy144 O159 2.310 . S
Dy144 O160 2.351 . S
C145 O156 1.185 . S
C145 O157 1.355 . S
C146 O148 1.185 . S
C146 O149 1.355 . S
Dy147 O151 2.310 . S
Dy147 O154 2.351 . S
Dy147 O156 2.398 . S
Dy147 O157 2.491 . S
Dy147 O158 2.403 . S
Dy147 O159 2.664 . S
Dy147 O161 2.326 . S
O148 Dy144 2.398 . S
O148 C146 1.185 . S
O149 Dy144 2.491 . S
O149 C146 1.355 . S
O150 Dy144 2.403 . S
O150 C152 1.254 . S
O151 Dy144 2.664 . S
O151 Dy147 2.310 . S
O151 C152 1.268 . S
C152 O150 1.254 . S
C152 O151 1.268 . S
C153 O158 1.254 . S
C153 O159 1.268 . S
O154 Dy147 2.351 . S
O154 C162 1.249 . S
O155 Dy144 2.326 . S
O155 C162 1.267 . S
O156 C145 1.185 . S
O156 Dy147 2.398 . S
O157 C145 1.355 . S
O157 Dy147 2.491 . S
O158 Dy147 2.403 . S
O158 C153 1.254 . S
O159 Dy144 2.310 . S
O159 Dy147 2.664 . S
O159 C153 1.268 . S
O160 Dy144 2.351 . S
O160 C163 1.249 . S
O161 Dy147 2.326 . S
O161 C163 1.267 . S
C162 O154 1.249 . S
C162 O155 1.267 . S
C163 O160 1.249 . S
C163 O161 1.267 . S
Dy164 O168 2.398 . S
Dy164 O169 2.491 . S
Dy164 O170 2.403 . S
Dy164 O171 2.664 . S
Dy164 O175 2.326 . S
Dy164 O179 2.310 . S
Dy164 O180 2.351 1_455 S
C165 O176 1.185 . S
C165 O177 1.355 1_556 S
C166 O168 1.185 . S
C166 O169 1.355 . S
Dy167 O171 2.310 . S
Dy167 O174 2.351 . S
Dy167 O176 2.398 1_454 S
Dy167 O177 2.491 1_455 S
Dy167 O178 2.403 1_554 S
Dy167 O179 2.664 . S
Dy167 O181 2.326 1_454 S
O168 Dy164 2.398 . S
O168 C166 1.185 . S
O169 Dy164 2.491 . S
O169 C166 1.355 . S
O170 Dy164 2.403 . S
O170 C172 1.254 . S
O171 Dy164 2.664 . S
O171 Dy167 2.310 . S
O171 C172 1.268 . S
C172 O170 1.254 . S
C172 O171 1.268 . S
C173 O178 1.254 . S
C173 O179 1.268 1_556 S
O174 Dy167 2.351 . S
O174 C182 1.249 . S
O175 Dy164 2.326 . S
O175 C182 1.267 . S
O176 C165 1.185 . S
O176 Dy167 2.398 1_656 S
O177 C165 1.355 1_554 S
O177 Dy167 2.491 1_655 S
O178 Dy167 2.403 1_556 S
O178 C173 1.254 . S
O179 Dy164 2.310 . S
O179 Dy167 2.664 . S
O179 C173 1.268 1_554 S
O180 Dy164 2.351 1_655 S
O180 C183 1.249 . S
O181 Dy167 2.326 1_656 S
O181 C183 1.267 1_556 S
C182 O174 1.249 . S
C182 O175 1.267 . S
C183 O180 1.249 . S
C183 O181 1.267 1_554 S
H184 C190 0.930 . S
H185 C193 0.930 . S
H186 C194 0.930 . S
H187 C195 0.930 . S
H188 C198 0.930 . S
H189 C199 0.930 . S
C190 H184 0.930 . S
C190 C191 1.355 . S
C190 C192 1.415 . S
C191 C190 1.355 . S
C191 C193 1.419 . S
C192 C190 1.415 . S
C192 C197 1.425 . S
C192 C199 1.409 . S
C193 H185 0.930 . S
C193 C191 1.419 . S
C193 C194 1.362 . S
C194 H186 0.930 . S
C194 C193 1.362 . S
C194 C197 1.409 . S
C195 H187 0.930 . S
C195 C196 1.355 . S
C195 C197 1.415 . S
C196 C195 1.355 . S
C196 C198 1.419 . S
C197 C192 1.425 . S
C197 C194 1.409 . S
C197 C195 1.415 . S
C198 H188 0.930 . S
C198 C196 1.419 . S
C198 C199 1.362 . S
C199 H189 0.930 . S
C199 C192 1.409 . S
C199 C198 1.362 . S
H200 C206 0.930 . S
H201 C209 0.930 . S
H202 C210 0.951 . S
H203 C211 0.930 . S
H204 C214 0.930 . S
H205 C215 0.930 . S
C206 H200 0.930 . S
C206 C207 1.355 . S
C206 C208 1.415 . S
C207 C206 1.355 . S
C207 C209 1.419 . S
C208 C206 1.415 . S
C208 C213 1.425 . S
C208 C215 1.409 . S
C209 H201 0.930 . S
C209 C207 1.419 . S
C209 C210 1.362 . S
C210 H202 0.951 . S
C210 C209 1.362 . S
C210 C213 1.409 . S
C211 H203 0.930 . S
C211 C212 1.355 . S
C211 C213 1.415 . S
C212 C211 1.355 . S
C212 C214 1.419 . S
C213 C208 1.425 . S
C213 C210 1.409 . S
C213 C211 1.415 . S
C214 H204 0.930 . S
C214 C212 1.419 . S
C214 C215 1.362 . S
C215 H205 0.930 . S
C215 C208 1.409 . S
C215 C214 1.362 . S
H216 C222 0.930 . S
H217 C225 0.930 . S
H218 C226 0.930 . S
H219 C227 0.930 . S
H220 C230 0.930 . S
H221 C231 0.930 . S
C222 H216 0.930 . S
C222 C223 1.355 . S
C222 C224 1.415 . S
C223 C222 1.355 . S
C223 C225 1.419 . S
C224 C222 1.415 . S
C224 C229 1.425 . S
C224 C231 1.409 . S
C225 H217 0.930 . S
C225 C223 1.419 . S
C225 C226 1.362 . S
C226 H218 0.930 . S
C226 C225 1.362 . S
C226 C229 1.409 . S
C227 H219 0.930 . S
C227 C228 1.355 . S
C227 C229 1.415 . S
C228 C227 1.355 . S
C228 C230 1.419 . S
C229 C224 1.425 . S
C229 C226 1.409 . S
C229 C227 1.415 . S
C230 H220 0.930 . S
C230 C228 1.419 . S
C230 C231 1.362 . S
C231 H221 0.930 . S
C231 C224 1.409 . S
C231 C230 1.362 . S
H232 C238 0.930 . S
H233 C241 0.930 . S
H234 C242 0.930 1_455 S
H235 C243 0.930 1_455 S
H236 C246 0.930 . S
H237 C247 0.930 . S
C238 H232 0.930 . S
C238 C239 1.355 . S
C238 C240 1.415 . S
C239 C238 1.355 . S
C239 C241 1.419 . S
C240 C238 1.415 . S
C240 C245 1.425 . S
C240 C247 1.409 . S
C241 H233 0.930 . S
C241 C239 1.419 . S
C241 C242 1.362 . S
C242 H234 0.930 1_655 S
C242 C241 1.362 . S
C242 C245 1.409 . S
C243 H235 0.930 1_655 S
C243 C244 1.355 . S
C243 C245 1.415 . S
C244 C243 1.355 . S
C244 C246 1.419 . S
C245 C240 1.425 . S
C245 C242 1.409 . S
C245 C243 1.415 . S
C246 H236 0.930 . S
C246 C244 1.419 . S
C246 C247 1.362 . S
C247 H237 0.930 . S
C247 C240 1.409 . S
C247 C246 1.362 . S
H248 C254 0.930 . S
H249 C257 0.930 . S
H250 C258 0.930 . S
H251 C259 0.930 . S
H252 C262 0.930 . S
H253 C263 0.930 . S
C254 H248 0.930 . S
C254 C255 1.355 . S
C254 C256 1.415 . S
C255 C254 1.355 . S
C255 C257 1.419 . S
C256 C254 1.415 . S
C256 C261 1.425 . S
C256 C263 1.409 . S
C257 H249 0.930 . S
C257 C255 1.419 . S
C257 C258 1.362 . S
C258 H250 0.930 . S
C258 C257 1.362 . S
C258 C261 1.409 . S
C259 H251 0.930 . S
C259 C260 1.355 . S
C259 C261 1.415 . S
C260 C259 1.355 . S
C260 C262 1.419 . S
C261 C256 1.425 . S
C261 C258 1.409 . S
C261 C259 1.415 . S
C262 H252 0.930 . S
C262 C260 1.419 . S
C262 C263 1.362 . S
C263 H253 0.930 . S
C263 C256 1.409 . S
C263 C262 1.362 . S
H264 C270 0.930 . S
H265 C273 0.930 . S
H266 C274 0.930 1_545 S
H267 C275 0.930 1_545 S
H268 C278 0.930 . S
H269 C279 0.930 . S
C270 H264 0.930 . S
C270 C271 1.355 . S
C270 C272 1.415 . S
C271 C270 1.355 . S
C271 C273 1.419 . S
C272 C270 1.415 . S
C272 C277 1.425 . S
C272 C279 1.409 . S
C273 H265 0.930 . S
C273 C271 1.419 . S
C273 C274 1.362 . S
C274 H266 0.930 1_565 S
C274 C273 1.362 . S
C274 C277 1.409 . S
C275 H267 0.930 1_565 S
C275 C276 1.355 . S
C275 C277 1.415 . S
C276 C275 1.355 . S
C276 C278 1.419 . S
C277 C272 1.425 . S
C277 C274 1.409 . S
C277 C275 1.415 . S
C278 H268 0.930 . S
C278 C276 1.419 . S
C278 C279 1.362 . S
C279 H269 0.930 . S
C279 C272 1.409 . S
C279 C278 1.362 . S
H280 C286 0.930 . S
H281 C289 0.930 . S
H282 C290 0.930 . S
H283 C291 0.930 . S
H284 C294 0.930 . S
H285 C295 0.927 1_554 S
C286 H280 0.930 . S
C286 C287 1.355 . S
C286 C288 1.415 . S
C287 C286 1.355 . S
C287 C289 1.419 . S
C288 C286 1.415 . S
C288 C293 1.425 . S
C288 C295 1.409 . S
C289 H281 0.930 . S
C289 C287 1.419 . S
C289 C290 1.362 . S
C290 H282 0.930 . S
C290 C289 1.362 . S
C290 C293 1.409 . S
C291 H283 0.930 . S
C291 C292 1.355 . S
C291 C293 1.415 . S
C292 C291 1.355 . S
C292 C294 1.419 1_556 S
C293 C288 1.425 . S
C293 C290 1.409 . S
C293 C291 1.415 . S
C294 H284 0.930 . S
C294 C292 1.419 1_554 S
C294 C295 1.362 1_554 S
C295 H285 0.927 1_556 S
C295 C288 1.409 . S
C295 C294 1.362 1_556 S
H296 C302 0.930 . S
H297 C305 0.930 . S
H298 C306 0.930 . S
H299 C307 0.930 . S
H300 C310 0.930 . S
H301 C311 0.930 . S
C302 H296 0.930 . S
C302 C303 1.355 . S
C302 C304 1.415 . S
C303 C302 1.355 . S
C303 C305 1.419 . S
C304 C302 1.415 . S
C304 C309 1.425 . S
C304 C311 1.409 . S
C305 H297 0.930 . S
C305 C303 1.419 . S
C305 C306 1.362 . S
C306 H298 0.930 . S
C306 C305 1.362 . S
C306 C309 1.409 . S
C307 H299 0.930 . S
C307 C308 1.355 . S
C307 C309 1.415 . S
C308 C307 1.355 . S
C308 C310 1.419 . S
C309 C304 1.425 . S
C309 C306 1.409 . S
C309 C307 1.415 . S
C310 H300 0.930 . S
C310 C308 1.419 . S
C310 C311 1.362 . S
C311 H301 0.930 . S
C311 C304 1.409 . S
C311 C310 1.362 . S
H312 C318 0.930 . S
H313 C321 0.930 . S
H314 C322 0.930 . S
H315 C323 0.930 . S
H316 C326 0.930 . S
H317 C327 0.930 . S
C318 H312 0.930 . S
C318 C319 1.355 . S
C318 C320 1.415 . S
C319 C318 1.355 . S
C319 C321 1.419 . S
C320 C318 1.415 . S
C320 C325 1.425 . S
C320 C327 1.409 . S
C321 H313 0.930 . S
C321 C319 1.419 . S
C321 C322 1.362 . S
C322 H314 0.930 . S
C322 C321 1.362 . S
C322 C325 1.409 . S
C323 H315 0.930 . S
C323 C324 1.355 . S
C323 C325 1.415 . S
C324 C323 1.355 . S
C324 C326 1.419 . S
C325 C320 1.425 . S
C325 C322 1.409 . S
C325 C323 1.415 . S
C326 H316 0.930 . S
C326 C324 1.419 . S
C326 C327 1.362 . S
C327 H317 0.930 . S
C327 C320 1.409 . S
C327 C326 1.362 . S
H328 C334 0.930 . S
H329 C337 0.930 . S
H330 C338 0.930 . S
H331 C339 0.930 . S
H332 C342 0.918 1_554 S
H333 C343 0.930 1_554 S
C334 H328 0.930 . S
C334 C335 1.355 . S
C334 C336 1.415 . S
C335 C334 1.355 . S
C335 C337 1.419 . S
C336 C334 1.415 . S
C336 C341 1.425 . S
C336 C343 1.409 . S
C337 H329 0.930 . S
C337 C335 1.419 . S
C337 C338 1.362 . S
C338 H330 0.930 . S
C338 C337 1.362 . S
C338 C341 1.409 . S
C339 H331 0.930 . S
C339 C340 1.355 . S
C339 C341 1.415 . S
C340 C339 1.355 . S
C340 C342 1.428 . S
C341 C336 1.425 . S
C341 C338 1.409 . S
C341 C339 1.415 . S
C342 H332 0.918 1_556 S
C342 C340 1.428 . S
C342 C343 1.365 . S
C343 H333 0.930 1_556 S
C343 C336 1.409 . S
C343 C342 1.365 . S
H344 C350 0.930 . S
H345 C353 0.930 . S
H346 C354 0.930 1_455 S
H347 C355 0.930 1_455 S
H348 C358 0.930 . S
H349 C359 0.930 . S
C350 H344 0.930 . S
C350 C351 1.355 . S
C350 C352 1.415 . S
C351 C350 1.355 . S
C351 C353 1.419 . S
C352 C350 1.415 . S
C352 C357 1.425 . S
C352 C359 1.409 . S
C353 H345 0.930 . S
C353 C351 1.419 . S
C353 C354 1.362 . S
C354 H346 0.930 1_655 S
C354 C353 1.362 . S
C354 C357 1.409 . S
C355 H347 0.930 1_655 S
C355 C356 1.355 . S
C355 C357 1.415 . S
C356 C355 1.355 . S
C356 C358 1.419 . S
C357 C352 1.425 . S
C357 C354 1.409 . S
C357 C355 1.415 . S
C358 H348 0.930 . S
C358 C356 1.419 . S
C358 C359 1.362 . S
C359 H349 0.930 . S
C359 C352 1.409 . S
C359 C358 1.362 . S
H360 C366 0.930 . S
H361 C369 0.930 . S
H362 C370 0.930 . S
H363 C371 0.930 . S
H364 C374 0.930 . S
H365 C375 0.930 . S
C366 H360 0.930 . S
C366 C367 1.355 . S
C366 C368 1.415 . S
C367 C366 1.355 . S
C367 C369 1.419 . S
C368 C366 1.415 . S
C368 C373 1.425 . S
C368 C375 1.409 . S
C369 H361 0.930 . S
C369 C367 1.419 . S
C369 C370 1.362 . S
C370 H362 0.930 . S
C370 C369 1.362 . S
C370 C373 1.409 . S
C371 H363 0.930 . S
C371 C372 1.355 . S
C371 C373 1.415 . S
C372 C371 1.355 . S
C372 C374 1.419 . S
C373 C368 1.425 . S
C373 C370 1.409 . S
C373 C371 1.415 . S
C374 H364 0.930 . S
C374 C372 1.419 . S
C374 C375 1.362 . S
C375 H365 0.930 . S
C375 C368 1.409 . S
C375 C374 1.362 . S
H376 C382 0.930 . S
H377 C385 0.930 . S
H378 C386 0.930 . S
H379 C387 0.930 . S
H380 C390 0.930 . S
H381 C391 0.930 . S
C382 H376 0.930 . S
C382 C383 1.355 . S
C382 C384 1.415 . S
C383 C382 1.355 . S
C383 C385 1.419 . S
C384 C382 1.415 . S
C384 C389 1.425 . S
C384 C391 1.409 . S
C385 H377 0.930 . S
C385 C383 1.419 . S
C385 C386 1.362 . S
C386 H378 0.930 . S
C386 C385 1.362 . S
C386 C389 1.409 . S
C387 H379 0.930 . S
C387 C388 1.355 . S
C387 C389 1.415 . S
C388 C387 1.355 . S
C388 C390 1.419 . S
C389 C384 1.425 . S
C389 C386 1.409 . S
C389 C387 1.415 . S
C390 H380 0.930 . S
C390 C388 1.419 . S
C390 C391 1.362 . S
C391 H381 0.930 . S
C391 C384 1.409 . S
C391 C390 1.362 . S
H392 C398 0.930 . S
H393 C401 0.930 . S
H394 C402 0.930 . S
H395 C403 0.930 . S
H396 C406 0.930 . S
H397 C407 0.930 . S
C398 H392 0.930 . S
C398 C399 1.355 . S
C398 C400 1.415 . S
C399 C398 1.355 . S
C399 C401 1.419 . S
C400 C398 1.415 . S
C400 C405 1.425 . S
C400 C407 1.409 . S
C401 H393 0.930 . S
C401 C399 1.419 . S
C401 C402 1.362 . S
C402 H394 0.930 . S
C402 C401 1.362 . S
C402 C405 1.409 . S
C403 H395 0.930 . S
C403 C404 1.355 . S
C403 C405 1.415 . S
C404 C403 1.355 . S
C404 C406 1.419 . S
C405 C400 1.425 . S
C405 C402 1.409 . S
C405 C403 1.415 . S
C406 H396 0.930 . S
C406 C404 1.419 . S
C406 C407 1.362 . S
C407 H397 0.930 . S
C407 C400 1.409 . S
C407 C406 1.362 . S
H408 C414 0.930 . S
H409 C417 0.930 . S
H410 C418 0.930 . S
H411 C419 0.930 . S
H412 C422 0.930 . S
H413 C423 0.930 . S
C414 H408 0.930 . S
C414 C415 1.355 . S
C414 C416 1.415 . S
C415 C414 1.355 . S
C415 C417 1.419 . S
C416 C414 1.415 . S
C416 C421 1.425 . S
C416 C423 1.409 . S
C417 H409 0.930 . S
C417 C415 1.419 . S
C417 C418 1.362 . S
C418 H410 0.930 . S
C418 C417 1.362 . S
C418 C421 1.409 . S
C419 H411 0.930 . S
C419 C420 1.355 . S
C419 C421 1.415 . S
C420 C419 1.355 . S
C420 C422 1.419 . S
C421 C416 1.425 . S
C421 C418 1.409 . S
C421 C419 1.415 . S
C422 H412 0.930 . S
C422 C420 1.419 . S
C422 C423 1.362 . S
C423 H413 0.930 . S
C423 C416 1.409 . S
C423 C422 1.362 . S
H424 C430 0.930 . S
H425 C433 0.930 . S
H426 C434 0.930 . S
H427 C435 0.930 . S
H428 C438 0.930 . S
H429 C439 0.930 . S
C430 H424 0.930 . S
C430 C431 1.355 . S
C430 C432 1.415 . S
C431 C430 1.355 . S
C431 C433 1.419 . S
C432 C430 1.415 . S
C432 C437 1.425 . S
C432 C439 1.409 . S
C433 H425 0.930 . S
C433 C431 1.419 . S
C433 C434 1.362 . S
C434 H426 0.930 . S
C434 C433 1.362 . S
C434 C437 1.409 . S
C435 H427 0.930 . S
C435 C436 1.355 . S
C435 C437 1.415 . S
C436 C435 1.355 . S
C436 C438 1.419 . S
C437 C432 1.425 . S
C437 C434 1.409 . S
C437 C435 1.415 . S
C438 H428 0.930 . S
C438 C436 1.419 . S
C438 C439 1.362 . S
C439 H429 0.930 . S
C439 C432 1.409 . S
C439 C438 1.362 . S
H440 C446 0.930 . S
H441 C449 0.930 . S
H442 C450 0.930 . S
H443 C451 0.930 . S
H444 C454 0.930 . S
H445 C455 0.930 . S
C446 H440 0.930 . S
C446 C447 1.355 . S
C446 C448 1.415 . S
C447 C446 1.355 . S
C447 C449 1.419 . S
C448 C446 1.415 . S
C448 C453 1.425 . S
C448 C455 1.409 . S
C449 H441 0.930 . S
C449 C447 1.419 . S
C449 C450 1.362 . S
C450 H442 0.930 . S
C450 C449 1.362 . S
C450 C453 1.409 . S
C451 H443 0.930 . S
C451 C452 1.355 . S
C451 C453 1.415 . S
C452 C451 1.355 . S
C452 C454 1.419 . S
C453 C448 1.425 . S
C453 C450 1.409 . S
C453 C451 1.415 . S
C454 H444 0.930 . S
C454 C452 1.419 . S
C454 C455 1.362 . S
C455 H445 0.930 . S
C455 C448 1.409 . S
C455 C454 1.362 . S
H456 C462 0.930 . S
H457 C465 0.930 . S
H458 C466 0.930 . S
H459 C467 0.930 . S
H460 C470 0.930 . S
H461 C471 0.930 . S
C462 H456 0.930 . S
C462 C463 1.355 . S
C462 C464 1.415 . S
C463 C462 1.355 . S
C463 C465 1.419 . S
C464 C462 1.415 . S
C464 C469 1.425 . S
C464 C471 1.409 . S
C465 H457 0.930 . S
C465 C463 1.419 . S
C465 C466 1.362 . S
C466 H458 0.930 . S
C466 C465 1.362 . S
C466 C469 1.409 . S
C467 H459 0.930 . S
C467 C468 1.355 . S
C467 C469 1.415 . S
C468 C467 1.355 . S
C468 C470 1.419 . S
C469 C464 1.425 . S
C469 C466 1.409 . S
C469 C467 1.415 . S
C470 H460 0.930 . S
C470 C468 1.419 . S
C470 C471 1.362 . S
C471 H461 0.930 . S
C471 C464 1.409 . S
C471 C470 1.362 . S
H472 C478 0.930 . S
H473 C481 0.930 . S
H474 C482 0.930 . S
H475 C483 0.930 . S
H476 C486 0.930 . S
H477 C487 0.930 . S
C478 H472 0.930 . S
C478 C479 1.355 . S
C478 C480 1.415 . S
C479 C478 1.355 . S
C479 C481 1.419 . S
C480 C478 1.415 . S
C480 C485 1.425 . S
C480 C487 1.409 . S
C481 H473 0.930 . S
C481 C479 1.419 . S
C481 C482 1.362 . S
C482 H474 0.930 . S
C482 C481 1.362 . S
C482 C485 1.409 . S
C483 H475 0.930 . S
C483 C484 1.355 . S
C483 C485 1.415 . S
C484 C483 1.355 . S
C484 C486 1.419 . S
C485 C480 1.425 . S
C485 C482 1.409 . S
C485 C483 1.415 . S
C486 H476 0.930 . S
C486 C484 1.419 . S
C486 C487 1.362 . S
C487 H477 0.930 . S
C487 C480 1.409 . S
C487 C486 1.362 . S
H488 C494 0.930 . S
H489 C497 0.930 . S
H490 C498 0.930 . S
H491 C499 0.930 . S
H492 C502 0.930 . S
H493 C503 0.930 . S
C494 H488 0.930 . S
C494 C495 1.355 . S
C494 C496 1.415 . S
C495 C494 1.355 . S
C495 C497 1.419 . S
C496 C494 1.415 . S
C496 C501 1.425 . S
C496 C503 1.409 . S
C497 H489 0.930 . S
C497 C495 1.419 . S
C497 C498 1.362 . S
C498 H490 0.930 . S
C498 C497 1.362 . S
C498 C501 1.409 . S
C499 H491 0.930 . S
C499 C500 1.355 . S
C499 C501 1.415 . S
C500 C499 1.355 . S
C500 C502 1.419 . S
C501 C496 1.425 . S
C501 C498 1.409 . S
C501 C499 1.415 . S
C502 H492 0.930 . S
C502 C500 1.419 . S
C502 C503 1.362 . S
C503 H493 0.930 . S
C503 C496 1.409 . S
C503 C502 1.362 . S
H504 C510 0.930 . S
H505 C513 0.930 . S
H506 C514 0.930 . S
H507 C515 0.930 . S
H508 C518 0.930 1_554 S
H509 C519 0.930 . S
C510 H504 0.930 . S
C510 C511 1.355 . S
C510 C512 1.415 . S
C511 C510 1.355 . S
C511 C513 1.419 . S
C512 C510 1.415 . S
C512 C517 1.425 . S
C512 C519 1.409 . S
C513 H505 0.930 . S
C513 C511 1.419 . S
C513 C514 1.362 . S
C514 H506 0.930 . S
C514 C513 1.362 . S
C514 C517 1.409 . S
C515 H507 0.930 . S
C515 C516 1.355 . S
C515 C517 1.415 . S
C516 C515 1.355 . S
C516 C518 1.419 . S
C517 C512 1.425 . S
C517 C514 1.409 . S
C517 C515 1.415 . S
C518 H508 0.930 1_556 S
C518 C516 1.419 . S
C518 C519 1.362 . S
C519 H509 0.930 . S
C519 C512 1.409 . S
C519 C518 1.362 . S
H520 C526 0.930 . S
H521 C529 0.930 . S
H522 C530 0.930 . S
H523 C531 0.930 . S
H524 C534 0.930 . S
H525 C535 0.930 . S
C526 H520 0.930 . S
C526 C527 1.355 . S
C526 C528 1.415 . S
C527 C526 1.355 . S
C527 C529 1.419 . S
C528 C526 1.415 . S
C528 C533 1.425 . S
C528 C535 1.409 . S
C529 H521 0.930 . S
C529 C527 1.419 . S
C529 C530 1.362 . S
C530 H522 0.930 . S
C530 C529 1.362 . S
C530 C533 1.409 . S
C531 H523 0.930 . S
C531 C532 1.355 . S
C531 C533 1.415 . S
C532 C531 1.355 . S
C532 C534 1.419 . S
C533 C528 1.425 . S
C533 C530 1.409 . S
C533 C531 1.415 . S
C534 H524 0.930 . S
C534 C532 1.419 . S
C534 C535 1.362 . S
C535 H525 0.930 . S
C535 C528 1.409 . S
C535 C534 1.362 . S
H536 C542 0.930 . S
H537 C545 0.930 . S
H538 C546 0.930 . S
H539 C547 0.930 . S
H540 C550 0.930 . S
H541 C551 0.930 . S
C542 H536 0.930 . S
C542 C543 1.355 . S
C542 C544 1.415 . S
C543 C542 1.355 . S
C543 C545 1.419 . S
C544 C542 1.415 . S
C544 C549 1.425 . S
C544 C551 1.409 . S
C545 H537 0.930 . S
C545 C543 1.419 . S
C545 C546 1.362 . S
C546 H538 0.930 . S
C546 C545 1.362 . S
C546 C549 1.409 . S
C547 H539 0.930 . S
C547 C548 1.355 . S
C547 C549 1.415 . S
C548 C547 1.355 . S
C548 C550 1.419 . S
C549 C544 1.425 . S
C549 C546 1.409 . S
C549 C547 1.415 . S
C550 H540 0.930 . S
C550 C548 1.419 . S
C550 C551 1.362 . S
C551 H541 0.930 . S
C551 C544 1.409 . S
C551 C550 1.362 . S
H552 C558 0.930 . S
H553 C561 0.930 . S
H554 C562 0.930 . S
H555 C563 0.930 . S
H556 C566 0.930 . S
H557 C567 0.930 . S
C558 H552 0.930 . S
C558 C559 1.355 . S
C558 C560 1.415 . S
C559 C558 1.355 . S
C559 C561 1.419 . S
C560 C558 1.415 . S
C560 C565 1.425 . S
C560 C567 1.409 . S
C561 H553 0.930 . S
C561 C559 1.419 . S
C561 C562 1.362 . S
C562 H554 0.930 . S
C562 C561 1.362 . S
C562 C565 1.409 . S
C563 H555 0.930 . S
C563 C564 1.355 . S
C563 C565 1.415 . S
C564 C563 1.355 . S
C564 C566 1.419 . S
C565 C560 1.425 . S
C565 C562 1.409 . S
C565 C563 1.415 . S
C566 H556 0.930 . S
C566 C564 1.419 . S
C566 C567 1.362 . S
C567 H557 0.930 . S
C567 C560 1.409 . S
C567 C566 1.362 . S
C191 C9 1.685 . S
C196 C106 1.647 . S
C207 C21 1.446 . S
C212 C125 1.404 . S
C228 C162 1.551 . S
C223 C30 1.514 . S
C239 C43 1.533 . S
C244 C172 1.558 1_655 S
C260 C142 1.707 . S
C255 C4 1.595 . S
C276 C112 1.868 . S
C271 C22 1.926 . S
C292 C183 1.286 1_556 S
C287 C34 1.286 . S
C308 C153 1.350 . S
C303 C48 1.337 . S
C319 C8 1.653 . S
C324 C166 1.640 . S
C340 C133 1.716 . S
C335 C35 1.764 . S
C351 C47 1.868 . S
C356 C123 1.871 . S
C367 C17 1.226 . S
C372 C145 1.232 . S
C388 C105 1.424 . S
C383 C60 1.391 . S
C399 C74 1.524 . S
C404 C126 1.505 . S
C415 C82 1.367 . S
C420 C163 1.380 . S
C431 C100 1.983 . S
C436 C173 1.942 . S
C447 C61 2.051 . S
C452 C143 2.115 . S
C468 C113 1.470 . S
C463 C73 1.494 . S
C484 C182 1.689 . S
C479 C87 1.748 . S
C500 C152 1.142 . S
C495 C95 1.083 . S
C511 C56 1.639 . S
C516 C165 1.618 . S
C532 C132 1.822 . S
C527 C86 1.841 . S
C548 C122 1.716 . S
C543 C99 1.730 . S
C559 C69 1.176 . S
C564 C146 1.137 . S
