# Generated by pormake.
# Topology apo, (3,6)-cn, num edge types: 1
# Building blocks:
#     Node 0, Type 0, BuildingBlock: KAKCAD_clean_linker_0, # of connection points: 3
#     Node 1, Type 0, BuildingBlock: KAKCAD_clean_linker_0, # of connection points: 3
#     Node 2, Type 0, BuildingBlock: KAKCAD_clean_linker_0, # of connection points: 3
#     Node 3, Type 0, BuildingBlock: KAKCAD_clean_linker_0, # of connection points: 3
#     Node 4, Type 0, BuildingBlock: KAKCAD_clean_linker_0, # of connection points: 3
#     Node 5, Type 0, BuildingBlock: KAKCAD_clean_linker_0, # of connection points: 3
#     Node 6, Type 0, BuildingBlock: KAKCAD_clean_linker_0, # of connection points: 3
#     Node 7, Type 0, BuildingBlock: KAKCAD_clean_linker_0, # of connection points: 3
#     Node 8, Type 1, BuildingBlock: KUMBOL_clean_sbu_1, # of connection points: 6
#     Node 9, Type 1, BuildingBlock: KUMBOL_clean_sbu_1, # of connection points: 6
#     Node 10, Type 1, BuildingBlock: KUMBOL_clean_sbu_1, # of connection points: 6
#     Node 11, Type 1, BuildingBlock: KUMBOL_clean_sbu_1, # of connection points: 6
#     Edge 12, Type (0, 1), BuildingBlock: UVAHIK_clean_linker_0, # of connection points: 2
#     Edge 13, Type (0, 1), BuildingBlock: UVAHIK_clean_linker_0, # of connection points: 2
#     Edge 14, Type (0, 1), BuildingBlock: UVAHIK_clean_linker_0, # of connection points: 2
#     Edge 15, Type (0, 1), BuildingBlock: UVAHIK_clean_linker_0, # of connection points: 2
#     Edge 16, Type (0, 1), BuildingBlock: UVAHIK_clean_linker_0, # of connection points: 2
#     Edge 17, Type (0, 1), BuildingBlock: UVAHIK_clean_linker_0, # of connection points: 2
#     Edge 18, Type (0, 1), BuildingBlock: UVAHIK_clean_linker_0, # of connection points: 2
#     Edge 19, Type (0, 1), BuildingBlock: UVAHIK_clean_linker_0, # of connection points: 2
#     Edge 20, Type (0, 1), BuildingBlock: UVAHIK_clean_linker_0, # of connection points: 2
#     Edge 21, Type (0, 1), BuildingBlock: UVAHIK_clean_linker_0, # of connection points: 2
#     Edge 22, Type (0, 1), BuildingBlock: UVAHIK_clean_linker_0, # of connection points: 2
#     Edge 23, Type (0, 1), BuildingBlock: UVAHIK_clean_linker_0, # of connection points: 2
#     Edge 24, Type (0, 1), BuildingBlock: UVAHIK_clean_linker_0, # of connection points: 2
#     Edge 25, Type (0, 1), BuildingBlock: UVAHIK_clean_linker_0, # of connection points: 2
#     Edge 26, Type (0, 1), BuildingBlock: UVAHIK_clean_linker_0, # of connection points: 2
#     Edge 27, Type (0, 1), BuildingBlock: UVAHIK_clean_linker_0, # of connection points: 2
#     Edge 28, Type (0, 1), BuildingBlock: UVAHIK_clean_linker_0, # of connection points: 2
#     Edge 29, Type (0, 1), BuildingBlock: UVAHIK_clean_linker_0, # of connection points: 2
#     Edge 30, Type (0, 1), BuildingBlock: UVAHIK_clean_linker_0, # of connection points: 2
#     Edge 31, Type (0, 1), BuildingBlock: UVAHIK_clean_linker_0, # of connection points: 2
#     Edge 32, Type (0, 1), BuildingBlock: UVAHIK_clean_linker_0, # of connection points: 2
#     Edge 33, Type (0, 1), BuildingBlock: UVAHIK_clean_linker_0, # of connection points: 2
#     Edge 34, Type (0, 1), BuildingBlock: UVAHIK_clean_linker_0, # of connection points: 2
#     Edge 35, Type (0, 1), BuildingBlock: UVAHIK_clean_linker_0, # of connection points: 2
# Relax obj value: 0.010
# Max RMSD: 0.088
# Mean RMSD: 0.069
data_MOF--net-apo--node1-KUMBOL_clean_sbu_1--node2-KAKCAD_clean_linker_0--edge1-UVAHIK_clean_linker_0
_symmetry_space_group_name_H-M    P1
_symmetry_Int_Tables_number       1
_symmetry_cell_setting            triclinic
loop_
_symmetry_equiv_pos_as_xyz
'x, y, z'
_cell_length_a     36.192904
_cell_length_b     65.481645
_cell_length_c     77.896332
_cell_angle_alpha  89.895615
_cell_angle_beta   89.93517
_cell_angle_gamma 90.518147
loop_
_atom_site_label
_atom_site_type_symbol
_atom_site_fract_x
_atom_site_fract_y
_atom_site_fract_z
_atom_type_partial_charge
C0 C 0.27856 0.44282 0.37395 0.0
C1 C 0.31525 0.44978 0.37581 0.0
C2 C 0.26544 0.42619 0.38354 0.0
C3 C 0.28867 0.41623 0.39525 0.0
C4 C 0.32529 0.42321 0.39712 0.0
C5 C 0.33842 0.43975 0.38752 0.0
C6 C 0.27534 0.39837 0.40535 0.0
C7 C 0.25491 0.38267 0.3975 0.0
C8 C 0.24513 0.36492 0.40668 0.0
C9 C 0.25596 0.36303 0.42396 0.0
C10 C 0.27602 0.37878 0.43211 0.0
C11 C 0.28496 0.39649 0.42271 0.0
C12 C 0.28875 0.37674 0.45022 0.0
C13 C 0.26639 0.36729 0.46278 0.0
C14 C 0.32345 0.38466 0.45513 0.0
C15 C 0.33496 0.3838 0.47219 0.0
C16 C 0.31241 0.37468 0.48474 0.0
C17 C 0.22546 0.34797 0.39781 0.0
C18 C 0.19533 0.35199 0.38699 0.0
C19 C 0.23786 0.32778 0.39942 0.0
C20 C 0.22116 0.31205 0.39001 0.0
C21 C 0.19152 0.31614 0.3789 0.0
C22 C 0.17843 0.33624 0.37769 0.0
C23 C 0.27823 0.36617 0.47987 0.0
H24 H 0.25985 0.45036 0.3652 0.0
H25 H 0.23701 0.42125 0.38194 0.0
H26 H 0.3441 0.41561 0.4058 0.0
H27 H 0.36702 0.4444 0.38903 0.0
H28 H 0.24811 0.38382 0.38398 0.0
H29 H 0.29956 0.40897 0.4289 0.0
H30 H 0.24919 0.34918 0.43096 0.0
H31 H 0.2394 0.36119 0.45952 0.0
H32 H 0.34194 0.3915 0.44577 0.0
H33 H 0.36173 0.39014 0.47557 0.0
H34 H 0.18503 0.36739 0.3856 0.0
H35 H 0.2612 0.32423 0.40754 0.0
H36 H 0.26028 0.3591 0.48934 0.0
H37 H 0.15581 0.3399 0.36917 0.0
H38 H 0.2316 0.29668 0.39136 0.0
C39 C 0.22926 0.05361 0.8737 0.0
C40 C 0.19312 0.04606 0.87602 0.0
C41 C 0.24217 0.07018 0.88335 0.0
C42 C 0.21918 0.07959 0.8955 0.0
C43 C 0.18311 0.07192 0.89788 0.0
C44 C 0.17026 0.05534 0.88828 0.0
C45 C 0.23239 0.09757 0.90545 0.0
C46 C 0.25301 0.11312 0.89743 0.0
C47 C 0.26479 0.13051 0.90659 0.0
C48 C 0.25474 0.13237 0.92401 0.0
C49 C 0.23354 0.11705 0.93221 0.0
C50 C 0.22331 0.09955 0.92286 0.0
C51 C 0.22109 0.11925 0.95037 0.0
C52 C 0.2442 0.12799 0.96294 0.0
C53 C 0.1858 0.11215 0.95531 0.0
C54 C 0.17441 0.11309 0.9724 0.0
C55 C 0.19772 0.12146 0.98498 0.0
C56 C 0.28635 0.14686 0.89758 0.0
C57 C 0.31219 0.14176 0.88479 0.0
C58 C 0.2801 0.16766 0.90101 0.0
C59 C 0.29837 0.18289 0.89153 0.0
C60 C 0.32288 0.17766 0.87828 0.0
C61 C 0.32996 0.15696 0.87516 0.0
C62 C 0.23253 0.12918 0.98007 0.0
H63 H 0.2477 0.04661 0.86452 0.0
H64 H 0.27027 0.07553 0.88138 0.0
H65 H 0.16445 0.07903 0.90691 0.0
H66 H 0.14208 0.05008 0.89018 0.0
H67 H 0.25879 0.11197 0.88382 0.0
H68 H 0.20833 0.08727 0.92919 0.0
H69 H 0.26304 0.14583 0.93112 0.0
H70 H 0.27164 0.13346 0.95966 0.0
H71 H 0.16677 0.10586 0.94595 0.0
H72 H 0.14716 0.10738 0.97578 0.0
H73 H 0.3185 0.12596 0.88206 0.0
H74 H 0.26014 0.17222 0.91059 0.0
H75 H 0.2511 0.13565 0.98955 0.0
H76 H 0.34919 0.15252 0.86521 0.0
H77 H 0.29228 0.19875 0.89413 0.0
C78 C 0.78676 0.05564 0.63104 0.0
C79 C 0.82227 0.04787 0.62815 0.0
C80 C 0.77372 0.07197 0.62127 0.0
C81 C 0.79605 0.08103 0.60852 0.0
C82 C 0.8316 0.07318 0.60565 0.0
C83 C 0.84446 0.05672 0.6153 0.0
C84 C 0.78258 0.09875 0.59839 0.0
C85 C 0.76167 0.11408 0.60626 0.0
C86 C 0.74926 0.13108 0.59691 0.0
C87 C 0.75857 0.13278 0.57939 0.0
C88 C 0.78007 0.11773 0.57138 0.0
C89 C 0.79141 0.10069 0.58092 0.0
C90 C 0.79203 0.11984 0.55322 0.0
C91 C 0.76673 0.12472 0.54021 0.0
C92 C 0.82907 0.11633 0.54877 0.0
C93 C 0.84058 0.11747 0.53169 0.0
C94 C 0.8153 0.12206 0.51861 0.0
C95 C 0.72804 0.1473 0.60586 0.0
C96 C 0.70154 0.14201 0.61838 0.0
C97 C 0.73565 0.1681 0.60284 0.0
C98 C 0.7182 0.18319 0.61256 0.0
C99 C 0.6929 0.1778 0.62555 0.0
C100 C 0.68432 0.15706 0.62814 0.0
C101 C 0.77822 0.12568 0.52303 0.0
H102 H 0.76893 0.04894 0.64075 0.0
H103 H 0.74599 0.07739 0.62364 0.0
H104 H 0.84985 0.08 0.59618 0.0
H105 H 0.87215 0.05121 0.61296 0.0
H106 H 0.75612 0.11312 0.61991 0.0
H107 H 0.80698 0.0888 0.57461 0.0
H108 H 0.74963 0.14591 0.57205 0.0
H109 H 0.73798 0.12739 0.54327 0.0
H110 H 0.84925 0.1127 0.55855 0.0
H111 H 0.86925 0.11444 0.5287 0.0
H112 H 0.69442 0.12617 0.6208 0.0
H113 H 0.75616 0.17272 0.59344 0.0
H114 H 0.75817 0.12943 0.51323 0.0
H115 H 0.66439 0.15244 0.63781 0.0
H116 H 0.72556 0.19905 0.61033 0.0
C117 C 0.72286 0.44371 0.128 0.0
C118 C 0.68488 0.44793 0.12839 0.0
C119 C 0.73618 0.42751 0.11815 0.0
C120 C 0.71182 0.41554 0.10828 0.0
C121 C 0.67393 0.41998 0.10848 0.0
C122 C 0.66055 0.43591 0.11856 0.0
C123 C 0.72569 0.3982 0.098 0.0
C124 C 0.74794 0.38333 0.10563 0.0
C125 C 0.76003 0.36631 0.09623 0.0
C126 C 0.7499 0.36457 0.07881 0.0
C127 C 0.72749 0.3794 0.07098 0.0
C128 C 0.71557 0.39614 0.08072 0.0
C129 C 0.71579 0.37739 0.05273 0.0
C130 C 0.74106 0.37167 0.03993 0.0
C131 C 0.6792 0.38165 0.04796 0.0
C132 C 0.66818 0.38041 0.0308 0.0
C133 C 0.69346 0.37489 0.01795 0.0
C134 C 0.78147 0.34999 0.10501 0.0
C135 C 0.80796 0.35503 0.11756 0.0
C136 C 0.77401 0.32922 0.10175 0.0
C137 C 0.79167 0.31395 0.11119 0.0
C138 C 0.817 0.31908 0.12419 0.0
C139 C 0.82536 0.33978 0.12708 0.0
C140 C 0.73005 0.3705 0.02272 0.0
H141 H 0.74211 0.45272 0.13554 0.0
H142 H 0.76553 0.42441 0.11815 0.0
H143 H 0.65458 0.41088 0.10107 0.0
H144 H 0.63117 0.43895 0.1186 0.0
H145 H 0.75448 0.38463 0.11916 0.0
H146 H 0.69872 0.4078 0.0748 0.0
H147 H 0.75898 0.35155 0.07141 0.0
H148 H 0.7695 0.36843 0.04317 0.0
H149 H 0.65892 0.38588 0.05752 0.0
H150 H 0.63989 0.38406 0.02759 0.0
H151 H 0.81499 0.37083 0.12018 0.0
H152 H 0.75346 0.32474 0.09236 0.0
H153 H 0.75012 0.36597 0.01317 0.0
H154 H 0.84526 0.34421 0.13679 0.0
H155 H 0.78443 0.29813 0.10876 0.0
C156 C 0.68706 0.56554 0.63195 0.0
C157 C 0.68967 0.54557 0.62551 0.0
C158 C 0.70073 0.58211 0.62253 0.0
C159 C 0.71715 0.57914 0.60638 0.0
C160 C 0.71971 0.55919 0.59987 0.0
C161 C 0.70631 0.54254 0.60941 0.0
C162 C 0.73112 0.59698 0.59641 0.0
C163 C 0.75165 0.61236 0.60462 0.0
C164 C 0.76243 0.63026 0.59587 0.0
C165 C 0.75348 0.63218 0.57834 0.0
C166 C 0.73352 0.6167 0.56972 0.0
C167 C 0.72239 0.59919 0.57897 0.0
C168 C 0.72286 0.61901 0.5513 0.0
C169 C 0.7123 0.6381 0.54463 0.0
C170 C 0.72185 0.60193 0.54034 0.0
C171 C 0.70952 0.60375 0.52341 0.0
C172 C 0.69837 0.62273 0.5169 0.0
C173 C 0.78185 0.64706 0.60534 0.0
C174 C 0.77321 0.65093 0.62268 0.0
C175 C 0.80904 0.65933 0.59732 0.0
C176 C 0.82708 0.67494 0.60642 0.0
C177 C 0.81875 0.67831 0.62377 0.0
C178 C 0.79176 0.66619 0.63182 0.0
C179 C 0.70043 0.63995 0.5276 0.0
H180 H 0.67474 0.56835 0.6444 0.0
H181 H 0.69801 0.59732 0.62781 0.0
H182 H 0.73237 0.55645 0.58749 0.0
H183 H 0.70851 0.52733 0.60409 0.0
H184 H 0.75928 0.61026 0.61795 0.0
H185 H 0.70554 0.58758 0.5728 0.0
H186 H 0.76161 0.64586 0.57143 0.0
H187 H 0.71212 0.65155 0.55268 0.0
H188 H 0.73053 0.58708 0.54485 0.0
H189 H 0.70879 0.59027 0.51537 0.0
H190 H 0.75178 0.64231 0.62925 0.0
H191 H 0.81686 0.65672 0.58409 0.0
H192 H 0.69175 0.65475 0.52295 0.0
H193 H 0.78469 0.66873 0.64516 0.0
H194 H 0.84795 0.68416 0.60002 0.0
C195 C 0.77724 0.86568 0.02189 0.0
C196 C 0.81338 0.87128 0.01695 0.0
C197 C 0.76558 0.86794 0.03893 0.0
C198 C 0.78973 0.87595 0.05139 0.0
C199 C 0.82591 0.88135 0.04649 0.0
C200 C 0.83759 0.87901 0.02952 0.0
C201 C 0.7773 0.87897 0.06942 0.0
C202 C 0.75712 0.86365 0.07812 0.0
C203 C 0.74636 0.86625 0.09537 0.0
C204 C 0.75567 0.88467 0.1037 0.0
C205 C 0.77641 0.89994 0.09533 0.0
C206 C 0.78677 0.89702 0.07815 0.0
C207 C 0.78907 0.91838 0.10489 0.0
C208 C 0.76543 0.92835 0.11643 0.0
C209 C 0.82562 0.92553 0.10311 0.0
C210 C 0.83848 0.94196 0.11292 0.0
C211 C 0.81512 0.95163 0.12476 0.0
C212 C 0.72697 0.84953 0.105 0.0
C213 C 0.70146 0.83639 0.0968 0.0
C214 C 0.73408 0.84647 0.12261 0.0
C215 C 0.71575 0.83111 0.13179 0.0
C216 C 0.69055 0.81808 0.12355 0.0
C217 C 0.68371 0.82068 0.10597 0.0
C218 C 0.77831 0.9448 0.12625 0.0
H219 H 0.75769 0.85991 0.01253 0.0
H220 H 0.73743 0.86383 0.04229 0.0
H221 H 0.84539 0.88722 0.05585 0.0
H222 H 0.86583 0.88309 0.02629 0.0
H223 H 0.75119 0.84939 0.07161 0.0
H224 H 0.80208 0.90895 0.07151 0.0
H225 H 0.74751 0.887 0.11692 0.0
H226 H 0.73702 0.92335 0.11798 0.0
H227 H 0.84468 0.91807 0.09448 0.0
H228 H 0.86685 0.947 0.11129 0.0
H229 H 0.69483 0.83836 0.08336 0.0
H230 H 0.75425 0.85574 0.12935 0.0
H231 H 0.75966 0.9518 0.13534 0.0
H232 H 0.66423 0.81077 0.0994 0.0
H233 H 0.72171 0.82916 0.14532 0.0
C234 C 0.18623 0.92863 0.36683 0.0
C235 C 0.18412 0.94822 0.37412 0.0
C236 C 0.1988 0.91208 0.37643 0.0
C237 C 0.21031 0.91466 0.39354 0.0
C238 C 0.20865 0.93429 0.4008 0.0
C239 C 0.19553 0.95082 0.39126 0.0
C240 C 0.22374 0.8969 0.40371 0.0
C241 C 0.24434 0.8815 0.39576 0.0
C242 C 0.25548 0.86407 0.40485 0.0
C243 C 0.24739 0.86264 0.42249 0.0
C244 C 0.2272 0.87804 0.43086 0.0
C245 C 0.21516 0.89495 0.42124 0.0
C246 C 0.21766 0.87634 0.44948 0.0
C247 C 0.20882 0.85729 0.45689 0.0
C248 C 0.21661 0.89384 0.45997 0.0
C249 C 0.20659 0.89236 0.47729 0.0
C250 C 0.19794 0.87331 0.48463 0.0
C251 C 0.27436 0.84722 0.39558 0.0
C252 C 0.26233 0.8415 0.3791 0.0
C253 C 0.30447 0.8369 0.40286 0.0
C254 C 0.32257 0.82153 0.39368 0.0
C255 C 0.31097 0.81621 0.37702 0.0
C256 C 0.28042 0.82626 0.36994 0.0
C257 C 0.1993 0.85579 0.47426 0.0
H258 H 0.17837 0.92601 0.3536 0.0
H259 H 0.19906 0.89717 0.37043 0.0
H260 H 0.21769 0.93695 0.41386 0.0
H261 H 0.19394 0.96559 0.39743 0.0
H262 H 0.252 0.8831 0.38237 0.0
H263 H 0.19799 0.90632 0.4273 0.0
H264 H 0.25643 0.84939 0.42962 0.0
H265 H 0.20853 0.84351 0.44922 0.0
H266 H 0.22386 0.90873 0.45486 0.0
H267 H 0.20619 0.90609 0.48502 0.0
H268 H 0.23867 0.84875 0.37326 0.0
H269 H 0.31459 0.841 0.41548 0.0
H270 H 0.19233 0.84092 0.47952 0.0
H271 H 0.27023 0.82223 0.35731 0.0
H272 H 0.34616 0.81414 0.39945 0.0
C273 C 0.28092 0.62984 0.97932 0.0
C274 C 0.31522 0.62218 0.9847 0.0
C275 C 0.27015 0.62852 0.96209 0.0
C276 C 0.29355 0.61962 0.94983 0.0
C277 C 0.32818 0.61236 0.95522 0.0
C278 C 0.33876 0.61351 0.97243 0.0
C279 C 0.28182 0.61736 0.93158 0.0
C280 C 0.2623 0.63293 0.92304 0.0
C281 C 0.25274 0.63089 0.90558 0.0
C282 C 0.26216 0.61289 0.89685 0.0
C283 C 0.28179 0.59739 0.90511 0.0
C284 C 0.29119 0.59964 0.92244 0.0
C285 C 0.29471 0.57948 0.8953 0.0
C286 C 0.27032 0.56825 0.88485 0.0
C287 C 0.33215 0.57405 0.89583 0.0
C288 C 0.34515 0.558 0.8858 0.0
C289 C 0.32087 0.54687 0.87526 0.0
C290 C 0.23464 0.64777 0.89603 0.0
C291 C 0.20486 0.65855 0.90312 0.0
C292 C 0.24673 0.65287 0.87939 0.0
C293 C 0.22892 0.66791 0.86987 0.0
C294 C 0.1985 0.67833 0.8767 0.0
C295 C 0.18695 0.67368 0.89354 0.0
C296 C 0.28324 0.55193 0.87502 0.0
H297 H 0.26208 0.6365 0.98852 0.0
H298 H 0.24317 0.63407 0.95845 0.0
H299 H 0.34736 0.60586 0.9461 0.0
H300 H 0.36564 0.60783 0.97611 0.0
H301 H 0.25593 0.64695 0.92973 0.0
H302 H 0.30576 0.58739 0.92882 0.0
H303 H 0.25506 0.61113 0.88341 0.0
H304 H 0.24131 0.57214 0.88426 0.0
H305 H 0.35156 0.58259 0.90366 0.0
H306 H 0.37425 0.55429 0.88626 0.0
H307 H 0.19482 0.65492 0.91587 0.0
H308 H 0.27015 0.64523 0.8737 0.0
H309 H 0.26406 0.5436 0.86692 0.0
H310 H 0.1635 0.68136 0.89916 0.0
H311 H 0.23918 0.67146 0.85713 0.0
C312 C 0.8785 0.11798 0.25681 0.0
C313 C 0.87865 0.08205 0.26446 0.0
C314 C 0.89652 0.10127 0.26387 0.0
C315 C 0.84293 0.07981 0.25764 0.0
C316 C 0.84263 0.1158 0.24998 0.0
C317 C 0.82497 0.09663 0.25043 0.0
N318 N 0.89668 0.13622 0.25604 0.0
C319 C 0.88042 0.15296 0.249 0.0
C320 C 0.82578 0.13291 0.24267 0.0
C321 C 0.84475 0.15158 0.24222 0.0
Gd322 Gd 0.04369 0.13162 0.23528 0.0
Gd323 Gd 0.95621 0.13714 0.26769 0.0
N324 N 0.93148 0.10381 0.27007 0.0
C325 C 0.89705 0.06567 0.27207 0.0
C326 C 0.94828 0.08823 0.27859 0.0
C327 C 0.93178 0.06886 0.27938 0.0
H328 H 0.97372 0.09068 0.28535 0.0
H329 H 0.94561 0.0565 0.28591 0.0
H330 H 0.03348 0.18025 0.22164 0.0
H331 H 0.89481 0.16747 0.24883 0.0
H332 H 0.0703 0.21191 0.22032 0.0
H333 H 0.88428 0.05066 0.27277 0.0
H334 H 0.82888 0.06513 0.25793 0.0
H335 H 0.09907 0.09605 0.25181 0.0
H336 H 0.79822 0.13185 0.23731 0.0
H337 H 0.8319 0.1649 0.23666 0.0
H338 H 0.18812 0.19312 0.24334 0.0
H339 H 0.79744 0.09464 0.2452 0.0
H340 H 0.20416 0.12399 0.26205 0.0
H341 H 0.16305 0.09359 0.2626 0.0
N342 N 0.10354 0.12769 0.24602 0.0
C343 C 0.12571 0.14455 0.24543 0.0
C344 C 0.11651 0.10952 0.25196 0.0
C345 C 0.17597 0.12522 0.25752 0.0
C346 C 0.15283 0.10803 0.25789 0.0
C347 C 0.16258 0.14376 0.25118 0.0
H348 H 0.21331 0.16107 0.25472 0.0
N349 N 0.07551 0.16301 0.23378 0.0
C350 C 0.11144 0.16267 0.23897 0.0
C351 C 0.11856 0.19833 0.23156 0.0
C352 C 0.13379 0.18039 0.23815 0.0
C353 C 0.06099 0.18026 0.22678 0.0
C354 C 0.08208 0.19822 0.22576 0.0
O355 O 0.94659 0.1222 0.24175 0.0
O356 O 0.00177 0.1064 0.23837 0.0
O357 O 0.04255 0.13404 0.20738 0.0
O358 O 0.07616 0.11113 0.2196 0.0
O359 O 0.00831 0.12199 0.27785 0.0
O360 O 0.0313 0.10615 0.25381 0.0
O361 O 0.05407 0.14935 0.25994 0.0
O362 O 0.99728 0.16299 0.26567 0.0
O363 O 0.95177 0.13526 0.29579 0.0
O364 O 0.91972 0.15755 0.28124 0.0
O365 O 0.99388 0.14922 0.22569 0.0
O366 O 0.96566 0.16358 0.24951 0.0
C367 C 0.96688 0.10823 0.2344 0.0
C368 C 0.03018 0.10856 0.27053 0.0
C369 C 0.09833 0.12519 0.19355 0.0
C370 C 0.12216 0.12989 0.16447 0.0
C371 C 0.16191 0.13617 0.18904 0.0
C372 C 0.13309 0.13083 0.20009 0.0
C373 C 0.15649 0.13582 0.17134 0.0
C374 C 0.09308 0.12449 0.17566 0.0
C375 C 0.06752 0.12005 0.20524 0.0
C376 C 0.17054 0.17965 0.24388 0.0
C377 C 0.18489 0.1614 0.25038 0.0
H378 H 0.13484 0.21226 0.2307 0.0
C379 C 0.03292 0.16209 0.2684 0.0
C380 C 0.97184 0.16275 0.23282 0.0
C381 C 0.91127 0.1581 0.31209 0.0
C382 C 0.89912 0.15613 0.34288 0.0
C383 C 0.87704 0.18499 0.32637 0.0
C384 C 0.89227 0.17673 0.31151 0.0
C385 C 0.88049 0.17479 0.34198 0.0
C386 C 0.91456 0.14774 0.32791 0.0
C387 C 0.92792 0.15004 0.29619 0.0
H388 H 0.18858 0.1405 0.19422 0.0
H389 H 0.13819 0.13099 0.21372 0.0
H390 H 0.17934 0.13986 0.16296 0.0
H391 H 0.06644 0.12 0.17047 0.0
H392 H 0.86258 0.19937 0.32579 0.0
H393 H 0.88941 0.18506 0.29956 0.0
H394 H 0.86847 0.18142 0.35342 0.0
H395 H 0.92905 0.13335 0.32861 0.0
C396 C 0.62951 0.37792 0.75779 0.0
C397 C 0.63139 0.41375 0.76561 0.0
C398 C 0.61255 0.39481 0.76509 0.0
C399 C 0.66704 0.4155 0.75855 0.0
C400 C 0.66547 0.37954 0.75092 0.0
C401 C 0.68406 0.39844 0.75128 0.0
N402 N 0.61045 0.35997 0.75708 0.0
C403 C 0.62635 0.34278 0.75071 0.0
C404 C 0.68164 0.3621 0.74387 0.0
C405 C 0.66208 0.3436 0.74389 0.0
Gd406 Gd 0.4655 0.36374 0.73508 0.0
Gd407 Gd 0.55133 0.35985 0.76905 0.0
N408 N 0.57786 0.39269 0.77176 0.0
C409 C 0.61402 0.43035 0.77336 0.0
C410 C 0.56178 0.40855 0.78019 0.0
C411 C 0.57926 0.42767 0.78085 0.0
H412 H 0.536 0.40659 0.78686 0.0
H413 H 0.56611 0.44026 0.78735 0.0
H414 H 0.47003 0.31902 0.71542 0.0
H415 H 0.61168 0.32838 0.75106 0.0
H416 H 0.43183 0.28774 0.71197 0.0
H417 H 0.62754 0.44516 0.77399 0.0
H418 H 0.68183 0.42996 0.75879 0.0
H419 H 0.40955 0.39867 0.75348 0.0
H420 H 0.70927 0.3627 0.73852 0.0
H421 H 0.67455 0.32996 0.73873 0.0
H422 H 0.32172 0.30177 0.74419 0.0
H423 H 0.71165 0.40001 0.74599 0.0
H424 H 0.30963 0.36847 0.76858 0.0
H425 H 0.34887 0.39956 0.76759 0.0
N426 N 0.40743 0.36668 0.74857 0.0
C427 C 0.38544 0.34971 0.74816 0.0
C428 C 0.394 0.38463 0.75479 0.0
C429 C 0.33696 0.36778 0.76293 0.0
C430 C 0.35906 0.38534 0.76243 0.0
C431 C 0.34965 0.34979 0.75536 0.0
H432 H 0.29966 0.33202 0.75969 0.0
N433 N 0.43171 0.33334 0.73206 0.0
C434 C 0.39772 0.33263 0.73943 0.0
C435 C 0.38756 0.29882 0.72788 0.0
C436 C 0.3748 0.31525 0.73766 0.0
C437 C 0.44371 0.31779 0.7219 0.0
C438 C 0.42205 0.30018 0.71984 0.0
O439 O 0.56167 0.37328 0.74255 0.0
O440 O 0.50672 0.38913 0.73895 0.0
O441 O 0.47175 0.3631 0.7072 0.0
O442 O 0.42992 0.38179 0.71882 0.0
O443 O 0.50054 0.37685 0.77836 0.0
O444 O 0.4738 0.39008 0.7537 0.0
O445 O 0.46817 0.33601 0.75261 0.0
O446 O 0.49332 0.35086 0.77627 0.0
O447 O 0.5744 0.36296 0.79474 0.0
O448 O 0.57166 0.3329 0.78238 0.0
O449 O 0.51715 0.34737 0.72661 0.0
O450 O 0.54255 0.3329 0.75115 0.0
C451 C 0.54177 0.38747 0.73525 0.0
C452 C 0.47812 0.38963 0.7705 0.0
C453 C 0.41509 0.3665 0.6924 0.0
C454 C 0.39408 0.36073 0.66304 0.0
C455 C 0.35638 0.34938 0.68712 0.0
C456 C 0.38258 0.35711 0.69852 0.0
C457 C 0.36208 0.35109 0.66949 0.0
C458 C 0.42061 0.36849 0.67459 0.0
C459 C 0.44287 0.3744 0.70459 0.0
C460 C 0.33969 0.31502 0.74533 0.0
C461 C 0.32717 0.33224 0.75419 0.0
H462 H 0.37074 0.2852 0.72618 0.0
C463 C 0.47492 0.33588 0.76915 0.0
C464 C 0.53626 0.33301 0.73443 0.0
C465 C 0.59776 0.33422 0.8113 0.0
C466 C 0.61365 0.33535 0.84176 0.0
C467 C 0.62726 0.3052 0.8249 0.0
C468 C 0.61218 0.3144 0.81037 0.0
C469 C 0.62789 0.31556 0.84053 0.0
C470 C 0.59876 0.34475 0.82709 0.0
C471 C 0.58089 0.34349 0.79591 0.0
H472 H 0.33143 0.34218 0.69197 0.0
H473 H 0.37713 0.35593 0.7121 0.0
H474 H 0.34107 0.34524 0.66087 0.0
H475 H 0.44544 0.37591 0.66976 0.0
H476 H 0.6383 0.28993 0.82408 0.0
H477 H 0.61179 0.306 0.79841 0.0
H478 H 0.63942 0.30811 0.85172 0.0
H479 H 0.58747 0.35998 0.82808 0.0
C480 C 0.88664 0.84225 0.75214 0.0
C481 C 0.88642 0.80622 0.75942 0.0
C482 C 0.90391 0.82556 0.7596 0.0
C483 C 0.85187 0.80386 0.75143 0.0
C484 C 0.85183 0.83997 0.74421 0.0
C485 C 0.83461 0.82069 0.74387 0.0
N486 N 0.90427 0.86066 0.75232 0.0
C487 C 0.88826 0.87751 0.74534 0.0
C488 C 0.83544 0.85716 0.73681 0.0
C489 C 0.85368 0.87602 0.73745 0.0
Gd490 Gd 0.05279 0.86044 0.73549 0.0
Gd491 Gd 0.96202 0.86171 0.76583 0.0
N492 N 0.93765 0.82825 0.76707 0.0
C493 C 0.90395 0.78985 0.76749 0.0
C494 C 0.95355 0.81264 0.77592 0.0
C495 C 0.9374 0.79315 0.77597 0.0
H496 H 0.97801 0.81512 0.78344 0.0
H497 H 0.95049 0.78077 0.7828 0.0
H498 H 0.0369 0.91016 0.72613 0.0
H499 H 0.9018 0.8922 0.74618 0.0
H500 H 0.06846 0.94325 0.7293 0.0
H501 H 0.89142 0.77476 0.76764 0.0
H502 H 0.83811 0.7891 0.75114 0.0
H503 H 0.11148 0.82536 0.7502 0.0
H504 H 0.80866 0.85604 0.73065 0.0
H505 H 0.84106 0.88944 0.73193 0.0
H506 H 0.18596 0.92646 0.75367 0.0
H507 H 0.8079 0.81863 0.73781 0.0
H508 H 0.21075 0.85613 0.7658 0.0
H509 H 0.17435 0.82422 0.7625 0.0
N510 N 0.11205 0.85759 0.74712 0.0
C511 C 0.13169 0.87531 0.74861 0.0
C512 C 0.12691 0.83939 0.75192 0.0
C513 C 0.18311 0.85673 0.7605 0.0
C514 C 0.16261 0.83868 0.75871 0.0
C515 C 0.16775 0.87535 0.75544 0.0
H516 H 0.21487 0.89423 0.7624 0.0
N517 N 0.07983 0.89313 0.73778 0.0
C518 C 0.11522 0.89357 0.74374 0.0
C519 C 0.11733 0.93027 0.74048 0.0
C520 C 0.13467 0.91221 0.74549 0.0
C521 C 0.06353 0.91059 0.73213 0.0
C522 C 0.08175 0.92942 0.73362 0.0
O523 O 0.95744 0.8473 0.73936 0.0
O524 O 0.01446 0.83312 0.73466 0.0
O525 O 0.0556 0.86772 0.70827 0.0
O526 O 0.09184 0.84493 0.71897 0.0
O527 O 0.01336 0.84587 0.77586 0.0
O528 O 0.04287 0.83256 0.75199 0.0
O529 O 0.05846 0.87486 0.76181 0.0
O530 O 0.00132 0.8885 0.76614 0.0
O531 O 0.95633 0.85978 0.79412 0.0
O532 O 0.92184 0.88006 0.77876 0.0
O533 O 0.0016 0.87619 0.72536 0.0
O534 O 0.97233 0.88926 0.74919 0.0
C535 C 0.97854 0.8334 0.73231 0.0
C536 C 0.0362 0.8328 0.76864 0.0
C537 C 0.07473 0.84131 0.68986 0.0
C538 C 0.08333 0.8358 0.65915 0.0
C539 C 0.05388 0.80964 0.67679 0.0
C540 C 0.05785 0.82201 0.69127 0.0
C541 C 0.06686 0.81639 0.66084 0.0
C542 C 0.08693 0.8483 0.67371 0.0
C543 C 0.08073 0.85413 0.7051 0.0
C544 C 0.17066 0.91227 0.75221 0.0
C545 C 0.18714 0.8939 0.75717 0.0
H546 H 0.13134 0.9449 0.74162 0.0
C547 C 0.0366 0.88767 0.76969 0.0
C548 C 0.97833 0.88895 0.73255 0.0
C549 C 0.91127 0.88164 0.80927 0.0
C550 C 0.89993 0.88271 0.8402 0.0
C551 C 0.87179 0.90779 0.82145 0.0
C552 C 0.88849 0.89879 0.80729 0.0
C553 C 0.87759 0.8999 0.83781 0.0
C554 C 0.91664 0.87343 0.82585 0.0
C555 C 0.93043 0.87351 0.79396 0.0
H556 H 0.04103 0.79472 0.67797 0.0
H557 H 0.04815 0.81643 0.70359 0.0
H558 H 0.06391 0.8065 0.64978 0.0
H559 H 0.10006 0.8632 0.67255 0.0
H560 H 0.85447 0.92103 0.81976 0.0
H561 H 0.8839 0.90553 0.79477 0.0
H562 H 0.86436 0.90716 0.84866 0.0
H563 H 0.93418 0.86027 0.82765 0.0
C564 C 0.62427 0.65154 0.25276 0.0
C565 C 0.62597 0.68754 0.26015 0.0
C566 C 0.60753 0.66848 0.26016 0.0
C567 C 0.66106 0.68939 0.25254 0.0
C568 C 0.65942 0.65337 0.24507 0.0
C569 C 0.67773 0.67236 0.24504 0.0
N570 N 0.60549 0.63346 0.25251 0.0
C571 C 0.6205 0.61652 0.24523 0.0
C572 C 0.67495 0.63608 0.23746 0.0
C573 C 0.65542 0.61757 0.23757 0.0
Gd574 Gd 0.45839 0.63766 0.23448 0.0
Gd575 Gd 0.54775 0.63317 0.26599 0.0
N576 N 0.5731 0.66635 0.26714 0.0
C577 C 0.60868 0.7042 0.26787 0.0
C578 C 0.55716 0.68228 0.27552 0.0
C579 C 0.57433 0.70149 0.27575 0.0
H580 H 0.53184 0.68024 0.2825 0.0
H581 H 0.56128 0.71414 0.28223 0.0
H582 H 0.47213 0.5919 0.21534 0.0
H583 H 0.6058 0.6021 0.24558 0.0
H584 H 0.43828 0.55972 0.2111 0.0
H585 H 0.62193 0.7191 0.26813 0.0
H586 H 0.67557 0.70393 0.25241 0.0
H587 H 0.4004 0.66856 0.25537 0.0
H588 H 0.70195 0.63685 0.23146 0.0
H589 H 0.66729 0.60411 0.23181 0.0
H590 H 0.32015 0.57129 0.23702 0.0
H591 H 0.70477 0.67405 0.2392 0.0
H592 H 0.2989 0.63605 0.26358 0.0
H593 H 0.33707 0.66729 0.26707 0.0
N594 N 0.39898 0.63798 0.24636 0.0
C595 C 0.37825 0.62081 0.24394 0.0
C596 C 0.38452 0.65462 0.25434 0.0
C597 C 0.32691 0.63642 0.25866 0.0
C598 C 0.34842 0.65405 0.26073 0.0
C599 C 0.34165 0.61955 0.25011 0.0
H600 H 0.29277 0.60035 0.25222 0.0
N601 N 0.42976 0.60572 0.23014 0.0
C602 C 0.39392 0.60433 0.23544 0.0
C603 C 0.38947 0.57001 0.22418 0.0
C604 C 0.37297 0.58632 0.23276 0.0
C605 C 0.44523 0.59022 0.22101 0.0
C606 C 0.42565 0.57204 0.21818 0.0
O607 O 0.55435 0.64805 0.23975 0.0
O608 O 0.49881 0.66377 0.23688 0.0
O609 O 0.45702 0.63765 0.20615 0.0
O610 O 0.4209 0.6575 0.22114 0.0
O611 O 0.49647 0.64819 0.27681 0.0
O612 O 0.46896 0.66324 0.25328 0.0
O613 O 0.44924 0.61931 0.25893 0.0
O614 O 0.50678 0.60721 0.2668 0.0
O615 O 0.55628 0.63592 0.29391 0.0
O616 O 0.58628 0.61335 0.27878 0.0
O617 O 0.50926 0.6211 0.22475 0.0
O618 O 0.53507 0.60634 0.24891 0.0
C619 C 0.53388 0.66242 0.23306 0.0
C620 C 0.47341 0.66138 0.26999 0.0
C621 C 0.41437 0.66005 0.19034 0.0
C622 C 0.40296 0.66004 0.15938 0.0
C623 C 0.37608 0.68625 0.17747 0.0
C624 C 0.3925 0.6776 0.19186 0.0
C625 C 0.38125 0.67759 0.16137 0.0
C626 C 0.41938 0.65116 0.174 0.0
C627 C 0.43099 0.65131 0.20603 0.0
C628 C 0.33651 0.58504 0.23889 0.0
C629 C 0.32092 0.60159 0.24756 0.0
H630 H 0.37436 0.55591 0.22193 0.0
C631 C 0.47067 0.60758 0.2683 0.0
C632 C 0.52996 0.60719 0.23222 0.0
C633 C 0.59996 0.61364 0.3092 0.0
C634 C 0.61237 0.61381 0.34002 0.0
C635 C 0.64347 0.58963 0.32155 0.0
C636 C 0.62507 0.5975 0.30735 0.0
C637 C 0.63715 0.59769 0.33779 0.0
C638 C 0.5937 0.62186 0.32569 0.0
C639 C 0.58036 0.62123 0.29381 0.0
H640 H 0.35916 0.6997 0.17882 0.0
H641 H 0.388 0.68473 0.20422 0.0
H642 H 0.36774 0.6845 0.15042 0.0
H643 H 0.43596 0.63756 0.17264 0.0
H644 H 0.66264 0.57718 0.31996 0.0
H645 H 0.63047 0.59084 0.29489 0.0
H646 H 0.65165 0.59132 0.3487 0.0
H647 H 0.57439 0.63425 0.32741 0.0
C648 C 0.14151 0.96273 0.35177 0.0
C649 C 0.16985 0.96575 0.3639 0.0
C650 C 0.12872 0.97896 0.34184 0.0
C651 C 0.11574 0.0334 0.34102 0.0
H652 H 0.11675 0.02804 0.29147 0.0
C653 C 0.0656 0.09876 0.29679 0.0
C654 C 0.04827 0.09319 0.2814 0.0
C655 C 0.08301 0.08399 0.30689 0.0
C656 C 0.11559 0.02974 0.30528 0.0
H657 H 0.20671 0.98851 0.37502 0.0
H658 H 0.18303 0.01701 0.35811 0.0
H659 H 0.14092 0.00065 0.30925 0.0
H660 H 0.03439 0.06798 0.2646 0.0
H661 H 0.06246 0.04208 0.28255 0.0
H662 H 0.08869 0.06193 0.33728 0.0
C663 C 0.17115 0.00192 0.35631 0.0
C664 C 0.12978 0.01407 0.31543 0.0
C665 C 0.18449 0.9856 0.36604 0.0
C666 C 0.04809 0.07266 0.27634 0.0
C667 C 0.06453 0.05784 0.28661 0.0
C668 C 0.10073 0.04892 0.33089 0.0
C669 C 0.14341 -0.00132 0.34402 0.0
C670 C 0.12978 0.01572 0.33337 0.0
C671 C 0.08255 0.06326 0.30198 0.0
C672 C 0.10014 0.04724 0.31285 0.0
H673 H 0.12884 0.94785 0.35001 0.0
H674 H 0.10695 0.97617 0.33258 0.0
H675 H 0.1153 0.03492 0.35486 0.0
H676 H 0.06628 0.11459 0.30083 0.0
H677 H 0.0971 0.0889 0.31843 0.0
C678 C 0.36558 0.53421 0.85341 0.0
C679 C 0.33519 0.53042 0.86418 0.0
C680 C 0.37967 0.51872 0.84308 0.0
C681 C 0.35738 0.46696 0.82568 0.0
H682 H 0.46292 0.46645 0.81693 0.0
C683 C 0.44263 0.39993 0.79642 0.0
C684 C 0.45997 0.4053 0.78092 0.0
C685 C 0.4256 0.41486 0.80641 0.0
C686 C 0.4334 0.4665 0.81927 0.0
H687 H 0.29566 0.50757 0.87271 0.0
H688 H 0.32112 0.48016 0.85522 0.0
H689 H 0.43704 0.49284 0.83526 0.0
H690 H 0.4737 0.43018 0.76364 0.0
H691 H 0.44527 0.45654 0.78159 0.0
H692 H 0.35454 0.43992 0.81014 0.0
C693 C 0.33352 0.49523 0.8543 0.0
C694 C 0.41843 0.48169 0.82965 0.0
C695 C 0.319 0.51087 0.86441 0.0
C696 C 0.46025 0.42575 0.77553 0.0
C697 C 0.44417 0.44076 0.78576 0.0
C698 C 0.37256 0.4515 0.81558 0.0
C699 C 0.36416 0.49893 0.84352 0.0
C700 C 0.38013 0.48229 0.83285 0.0
C701 C 0.42669 0.43539 0.80123 0.0
C702 C 0.4106 0.45132 0.8122 0.0
H703 H 0.3782 0.54926 0.85284 0.0
H704 H 0.40259 0.52239 0.83465 0.0
H705 H 0.32776 0.46704 0.82759 0.0
H706 H 0.44198 0.38418 0.8007 0.0
H707 H 0.41229 0.41047 0.81834 0.0
C708 C 0.69581 0.51027 0.63789 0.0
C709 C 0.67499 0.5281 0.6357 0.0
C710 C 0.68279 0.4944 0.6484 0.0
C711 C 0.61682 0.48482 0.68403 0.0
H712 H 0.63091 0.42778 0.67266 0.0
C713 C 0.53928 0.42032 0.71905 0.0
C714 C 0.55928 0.40297 0.72396 0.0
C715 C 0.55521 0.43513 0.70844 0.0
C716 C 0.62718 0.44366 0.67608 0.0
H717 H 0.62344 0.54286 0.6421 0.0
H718 H 0.60042 0.51514 0.66014 0.0
H719 H 0.65438 0.45433 0.65328 0.0
H720 H 0.61162 0.38741 0.72133 0.0
H721 H 0.63966 0.41351 0.70273 0.0
H722 H 0.58909 0.47418 0.70664 0.0
C723 C 0.6273 0.51359 0.65419 0.0
C724 C 0.64061 0.45887 0.66499 0.0
C725 C 0.64042 0.52946 0.6438 0.0
C726 C 0.59561 0.40069 0.71789 0.0
C727 C 0.61155 0.41553 0.70715 0.0
C728 C 0.60325 0.46966 0.69502 0.0
C729 C 0.64856 0.49598 0.65687 0.0
C730 C 0.63527 0.47965 0.66876 0.0
C731 C 0.5915 0.43295 0.70238 0.0
C732 C 0.60797 0.44891 0.6911 0.0
H733 H 0.72269 0.50886 0.6319 0.0
H734 H 0.70003 0.48116 0.65028 0.0
H735 H 0.61298 0.50064 0.68758 0.0
H736 H 0.5112 0.42256 0.72345 0.0
H737 H 0.53887 0.44822 0.7048 0.0
C738 C 0.80793 0.98555 0.1395 0.0
C739 C 0.8295 0.96832 0.13591 0.0
C740 C 0.82131 0.00097 0.15031 0.0
C741 C 0.89044 0.01034 0.18441 0.0
H742 H 0.87503 0.06744 0.17347 0.0
C743 C 0.96902 0.07502 0.21875 0.0
C744 C 0.94924 0.09252 0.22344 0.0
C745 C 0.95275 0.06004 0.20846 0.0
C746 C 0.87913 0.05155 0.1768 0.0
H747 H 0.882 0.95377 0.14097 0.0
H748 H 0.9056 0.9808 0.15945 0.0
H749 H 0.85014 0.04103 0.15451 0.0
H750 H 0.89698 0.10815 0.22079 0.0
H751 H 0.86833 0.08177 0.2029 0.0
H752 H 0.91978 0.02085 0.20657 0.0
C753 C 0.87816 0.98232 0.15408 0.0
C754 C 0.86489 0.03642 0.16595 0.0
C755 C 0.86481 0.96693 0.14329 0.0
C756 C 0.91282 0.09476 0.21753 0.0
C757 C 0.89653 0.07974 0.20717 0.0
C758 C 0.90472 0.02545 0.19521 0.0
C759 C 0.85651 -0.00052 0.1578 0.0
C760 C 0.87065 0.01563 0.16955 0.0
C761 C 0.91634 0.06221 0.20255 0.0
C762 C 0.8995 0.04622 0.19147 0.0
H763 H 0.78075 0.98719 0.1339 0.0
H764 H 0.80381 0.01391 0.15301 0.0
H765 H 0.89474 0.99448 0.18776 0.0
H766 H 0.99717 0.07282 0.22303 0.0
H767 H 0.96894 0.04687 0.20492 0.0
C768 C 0.83252 0.03114 0.65665 0.0
C769 C 0.83646 0.03083 0.63872 0.0
C770 C 0.84703 0.01544 0.66669 0.0
C771 C 0.87704 0.96203 0.6652 0.0
H772 H 0.93369 0.97666 0.70565 0.0
C773 C 0.96137 0.90302 0.7037 0.0
C774 C 0.96109 0.90477 0.72168 0.0
C775 C 0.94551 0.91813 0.69346 0.0
C776 C 0.91753 0.97228 0.69453 0.0
H777 H 0.85787 0.01368 0.61717 0.0
H778 H 0.88319 0.98618 0.63474 0.0
H779 H 0.90656 0.00342 0.68806 0.0
H780 H 0.94419 0.92383 0.743 0.0
H781 H 0.9159 0.9499 0.72519 0.0
H782 H 0.88772 0.93087 0.67173 0.0
C783 C 0.86889 -0.00144 0.64102 0.0
C784 C 0.90205 0.98763 0.68445 0.0
C785 C 0.85469 0.01436 0.63099 0.0
C786 C 0.94466 0.92194 0.72919 0.0
C787 C 0.92873 0.937 0.71897 0.0
C788 C 0.89235 0.94665 0.67534 0.0
C789 C 0.86547 -0.00096 0.65898 0.0
C790 C 0.88165 0.98267 0.66969 0.0
C791 C 0.92909 0.93533 0.70098 0.0
C792 C 0.91278 0.95161 0.69014 0.0
H793 H 0.81884 0.04372 0.66296 0.0
H794 H 0.84371 0.01611 0.6805 0.0
H795 H 0.8611 0.95777 0.65398 0.0
H796 H 0.97386 0.88998 0.69752 0.0
H797 H 0.94666 0.91649 0.67964 0.0
C798 C 0.68534 0.48444 0.13798 0.0
C799 C 0.67046 0.46463 0.13921 0.0
C800 C 0.67082 0.5003 0.14785 0.0
C801 C 0.58772 0.51352 0.17403 0.0
H802 H 0.6508 0.55761 0.19025 0.0
C803 C 0.54967 0.57127 0.22748 0.0
C804 C 0.54725 0.59144 0.22147 0.0
C805 C 0.56526 0.55617 0.2172 0.0
C806 C 0.63298 0.54539 0.18571 0.0
H807 H 0.62974 0.44561 0.15204 0.0
H808 H 0.60547 0.4729 0.16984 0.0
H809 H 0.67741 0.53009 0.1732 0.0
H810 H 0.56003 0.61189 0.20036 0.0
H811 H 0.58876 0.58543 0.18255 0.0
H812 H 0.54372 0.52855 0.18731 0.0
C813 C 0.6273 0.47657 0.16081 0.0
C814 C 0.64805 0.52968 0.17585 0.0
C815 C 0.64135 0.46084 0.15071 0.0
C816 C 0.56137 0.59638 0.20518 0.0
C817 C 0.57789 0.58136 0.19507 0.0
C818 C 0.5729 0.52898 0.18418 0.0
C819 C 0.64152 0.4966 0.15941 0.0
C820 C 0.62562 0.51349 0.16986 0.0
C821 C 0.57956 0.56112 0.20096 0.0
C822 C 0.59539 0.54501 0.19006 0.0
H823 H 0.70765 0.48775 0.12909 0.0
H824 H 0.68218 0.51552 0.14614 0.0
H825 H 0.56926 0.50169 0.16935 0.0
H826 H 0.53881 0.56711 0.23999 0.0
H827 H 0.56634 0.54062 0.22194 0.0
C828 C 0.35398 0.48164 0.37272 0.0
C829 C 0.32966 0.46719 0.36543 0.0
C830 C 0.36862 0.49757 0.36281 0.0
C831 C 0.35261 0.52739 0.32358 0.0
H832 H 0.45777 0.53896 0.32581 0.0
C833 C 0.42453 0.57997 0.27444 0.0
C834 C 0.45352 0.59259 0.28 0.0
C835 C 0.40911 0.56533 0.28539 0.0
C836 C 0.42826 0.53619 0.32522 0.0
H837 H 0.30178 0.45822 0.34194 0.0
H838 H 0.32693 0.48623 0.32473 0.0
H839 H 0.43104 0.51236 0.34404 0.0
H840 H 0.48963 0.59985 0.30129 0.0
H841 H 0.46198 0.57468 0.3208 0.0
H842 H 0.34955 0.55128 0.30494 0.0
C843 C 0.33441 0.48526 0.33817 0.0
C844 C 0.41299 0.52089 0.33564 0.0
C845 C 0.31994 0.46925 0.34805 0.0
C846 C 0.46711 0.59029 0.29674 0.0
C847 C 0.45141 0.5758 0.30784 0.0
C848 C 0.36779 0.5428 0.31328 0.0
C849 C 0.35907 0.49951 0.34542 0.0
C850 C 0.37507 0.51621 0.33481 0.0
C851 C 0.42222 0.56308 0.30228 0.0
C852 C 0.40587 0.54728 0.31384 0.0
H853 H 0.36156 0.48072 0.38615 0.0
H854 H 0.38717 0.5085 0.3688 0.0
H855 H 0.3232 0.52432 0.32286 0.0
H856 H 0.41468 0.58086 0.26145 0.0
H857 H 0.38745 0.55546 0.28045 0.0
C858 C 0.15733 0.01325 0.87294 0.0
C859 C 0.17894 0.02884 0.86547 0.0
C860 C 0.14296 0.99741 0.86289 0.0
C861 C 0.15407 0.97157 0.82095 0.0
H862 H 0.05355 0.95321 0.82949 0.0
C863 C 0.09003 0.90168 0.78651 0.0
C864 C 0.05319 0.90333 0.78103 0.0
C865 C 0.1059 0.91669 0.79696 0.0
C866 C 0.08157 0.95826 0.82685 0.0
H867 H 0.2023 0.04007 0.84157 0.0
H868 H 0.17708 0.01252 0.82401 0.0
H869 H 0.0804 0.98006 0.84725 0.0
H870 H 0.00402 0.92199 0.78234 0.0
H871 H 0.03172 0.94818 0.80049 0.0
H872 H 0.15485 0.95016 0.80023 0.0
C873 C 0.17174 0.01232 0.83769 0.0
C874 C 0.09714 0.97347 0.83718 0.0
C875 C 0.18619 0.02812 0.84775 0.0
C876 C 0.03244 0.92021 0.78638 0.0
C877 C 0.04828 0.93519 0.79685 0.0
C878 C 0.13848 0.95638 0.81059 0.0
C879 C 0.14979 0.99683 0.84513 0.0
C880 C 0.13355 0.98035 0.83433 0.0
C881 C 0.08521 0.93362 0.80225 0.0
C882 C 0.102 0.94959 0.81339 0.0
H883 H 0.1517 0.01321 0.8866 0.0
H884 H 0.1267 0.98554 0.86908 0.0
H885 H 0.18232 0.97636 0.81852 0.0
H886 H 0.10663 0.88873 0.78284 0.0
H887 H 0.13424 0.91485 0.80109 0.0
C888 C 0.17016 0.10422 0.01077 0.0
C889 C 0.18564 0.12181 0.00318 0.0
C890 C 0.15805 0.10452 0.02781 0.0
C891 C 0.12802 0.13943 0.06209 0.0
H892 H 0.15496 0.09521 0.09267 0.0
C893 C 0.12716 0.14631 0.13566 0.0
C894 C 0.11765 0.12917 0.14561 0.0
C895 C 0.12851 0.14498 0.11779 0.0
C896 C 0.14654 0.10748 0.08423 0.0
H897 H 0.20048 0.15351 0.0074 0.0
H898 H 0.17927 0.1541 0.03724 0.0
H899 H 0.17246 0.09374 0.06245 0.0
H900 H 0.10052 0.09743 0.1448 0.0
H901 H 0.10305 0.09498 0.11338 0.0
H902 H 0.10269 0.15335 0.08394 0.0
C903 C 0.17636 0.14009 0.02998 0.0
C904 C 0.15671 0.10667 0.06692 0.0
C905 C 0.18884 0.13972 0.01298 0.0
C906 C 0.10778 0.11088 0.13736 0.0
C907 C 0.10955 0.10945 0.11943 0.0
C908 C 0.1178 0.14022 0.07939 0.0
C909 C 0.16083 0.12248 0.03758 0.0
C910 C 0.1481 0.12279 0.05572 0.0
C911 C 0.12076 0.12639 0.10948 0.0
C912 C 0.12749 0.12443 0.09073 0.0
H913 H 0.16763 0.09016 0.00355 0.0
H914 H 0.14609 0.09075 0.03327 0.0
H915 H 0.12038 0.1519 0.0537 0.0
H916 H 0.13476 0.16059 0.14176 0.0
H917 H 0.1375 0.15826 0.11056 0.0
C918 C 0.32391 0.35597 0.5123 0.0
C919 C 0.32469 0.37426 0.50287 0.0
C920 C 0.33698 0.35551 0.52918 0.0
C921 C 0.35358 0.38792 0.56678 0.0
H922 H 0.41606 0.34344 0.58159 0.0
C923 C 0.40448 0.38222 0.63675 0.0
C924 C 0.39854 0.36294 0.64423 0.0
C925 C 0.40222 0.38466 0.61891 0.0
C926 C 0.39856 0.35594 0.57767 0.0
H927 H 0.3388 0.40647 0.50374 0.0
H928 H 0.36121 0.40572 0.53334 0.0
H929 H 0.39662 0.34549 0.55164 0.0
H930 H 0.38823 0.33093 0.63903 0.0
H931 H 0.38429 0.33508 0.60804 0.0
H932 H 0.3545 0.39805 0.59288 0.0
C933 C 0.35078 0.39174 0.52766 0.0
C934 C 0.38738 0.35707 0.56053 0.0
C935 C 0.33817 0.39214 0.51071 0.0
C936 C 0.39266 0.34598 0.63356 0.0
C937 C 0.39067 0.34836 0.61579 0.0
C938 C 0.36461 0.38674 0.58394 0.0
C939 C 0.35061 0.37338 0.53702 0.0
C940 C 0.36427 0.37288 0.55497 0.0
C941 C 0.39433 0.36781 0.60827 0.0
C942 C 0.3867 0.37052 0.58966 0.0
H943 H 0.31382 0.34197 0.50651 0.0
H944 H 0.3361 0.34119 0.53617 0.0
H945 H 0.33555 0.4002 0.56289 0.0
H946 H 0.40894 0.39555 0.64473 0.0
H947 H 0.40563 0.3998 0.61348 0.0
C948 C 0.64702 0.36503 0.99537 0.0
C949 C 0.68153 0.37362 0.99967 0.0
C950 C 0.63583 0.36364 0.97824 0.0
C951 C 0.65462 0.3838 0.93446 0.0
H952 H 0.61001 0.33261 0.92007 0.0
C953 C 0.64397 0.35803 0.8634 0.0
C954 C 0.61396 0.34561 0.85863 0.0
C955 C 0.64797 0.36446 0.88045 0.0
C956 C 0.62174 0.34718 0.92387 0.0
H957 H 0.73097 0.38794 0.98926 0.0
H958 H 0.71173 0.38518 0.95931 0.0
H959 H 0.62561 0.3377 0.95007 0.0
H960 H 0.5637 0.3309 0.86743 0.0
H961 H 0.56995 0.3425 0.89714 0.0
H962 H 0.65124 0.39311 0.90809 0.0
C963 C 0.69316 0.37967 0.96923 0.0
C964 C 0.6308 0.35008 0.94112 0.0
C965 C 0.70441 0.38101 0.98639 0.0
C966 C 0.58698 0.34057 0.87088 0.0
C967 C 0.59083 0.34704 0.88789 0.0
C968 C 0.64548 0.38091 0.91714 0.0
C969 C 0.65884 0.37082 0.96493 0.0
C970 C 0.64767 0.36833 0.94663 0.0
C971 C 0.62204 0.35848 0.89303 0.0
C972 C 0.62921 0.36247 0.9116 0.0
H973 H 0.62882 0.35904 0.00525 0.0
H974 H 0.60907 0.35693 0.97542 0.0
H975 H 0.66711 0.39817 0.93831 0.0
H976 H 0.66529 0.36188 0.85413 0.0
H977 H 0.67246 0.37311 0.88393 0.0
C978 C 0.86119 0.13308 0.49621 0.0
C979 C 0.82786 0.12309 0.50045 0.0
C980 C 0.87335 0.13399 0.4792 0.0
C981 C 0.8626 0.10997 0.43655 0.0
H982 H 0.89759 0.16252 0.41993 0.0
C983 C 0.87485 0.13137 0.36452 0.0
C984 C 0.90169 0.14586 0.35969 0.0
C985 C 0.87122 0.12549 0.38174 0.0
C986 C 0.8887 0.14759 0.42438 0.0
H987 H 0.78148 0.10591 0.49017 0.0
H988 H 0.80259 0.10767 0.46034 0.0
H989 H 0.87983 0.15871 0.44982 0.0
H990 H 0.94717 0.16466 0.36854 0.0
H991 H 0.94187 0.15391 0.39852 0.0
H992 H 0.8711 0.09894 0.41095 0.0
C993 C 0.8194 0.11469 0.47024 0.0
C994 C 0.87833 0.14545 0.44156 0.0
C995 C 0.80708 0.1139 0.48728 0.0
C996 C 0.92645 0.15334 0.37203 0.0
C997 C 0.92305 0.14737 0.3892 0.0
C998 C 0.87317 0.11208 0.41932 0.0
C999 C 0.85257 0.12487 0.466 0.0
C1000 C 0.86486 0.12668 0.44783 0.0
C1001 C 0.89436 0.13406 0.3944 0.0
C1002 C 0.88608 0.13099 0.41298 0.0
H1003 H 0.8777 0.14043 0.50605 0.0
H1004 H 0.89916 0.14181 0.47639 0.0
H1005 H 0.85275 0.09524 0.44106 0.0
H1006 H 0.85516 0.12566 0.35519 0.0
H1007 H 0.84869 0.11531 0.38524 0.0
C1008 C 0.81528 0.85224 0.98884 0.0
C1009 C 0.8259 0.86921 0.99879 0.0
C1010 C 0.82761 0.85025 0.97188 0.0
C1011 C 0.90031 0.86866 0.94186 0.0
H1012 H 0.83059 0.85282 0.90646 0.0
C1013 C 0.91974 0.88805 0.87043 0.0
C1014 C 0.9048 0.87501 0.85791 0.0
C1015 C 0.91597 0.88343 0.88785 0.0
C1016 C 0.8507 0.85682 0.9162 0.0
H1017 H 0.85707 0.89768 0.99844 0.0
H1018 H 0.87864 0.89414 0.969 0.0
H1019 H 0.81107 0.85289 0.9364 0.0
H1020 H 0.87618 0.84635 0.85359 0.0
H1021 H 0.86974 0.83803 0.88419 0.0
H1022 H 0.93968 0.87307 0.9216 0.0
C1023 C 0.86137 0.88215 0.97441 0.0
C1024 C 0.83943 0.85694 0.93339 0.0
C1025 C 0.84895 0.88419 0.99131 0.0
C1026 C 0.88822 0.85653 0.86304 0.0
C1027 C 0.88416 0.85194 0.88054 0.0
C1028 C 0.9116 0.86851 0.92467 0.0
C1029 C 0.85097 0.86514 0.96449 0.0
C1030 C 0.86386 0.86327 0.94639 0.0
C1031 C 0.89682 0.86572 0.89315 0.0
C1032 C 0.88671 0.863 0.91158 0.0
H1033 H 0.79793 0.84029 0.99423 0.0
H1034 H 0.8193 0.83687 0.96464 0.0
H1035 H 0.92005 0.87322 0.95159 0.0
H1036 H 0.93239 0.90247 0.86673 0.0
H1037 H 0.92582 0.89448 0.89714 0.0
C1038 C 0.65718 0.61031 0.49321 0.0
C1039 C 0.68373 0.62438 0.49914 0.0
C1040 C 0.64349 0.61161 0.47648 0.0
C1041 C 0.63839 0.64604 0.43819 0.0
H1042 H 0.62118 0.59495 0.41433 0.0
C1043 C 0.63024 0.63681 0.36411 0.0
C1044 C 0.60669 0.62155 0.3576 0.0
C1045 C 0.6329 0.63999 0.38184 0.0
C1046 C 0.62517 0.60939 0.42087 0.0
H1047 H 0.71673 0.65088 0.4922 0.0
H1048 H 0.69379 0.65282 0.46276 0.0
H1049 H 0.64053 0.59443 0.44411 0.0
H1050 H 0.56597 0.59848 0.36418 0.0
H1051 H 0.56994 0.60426 0.39516 0.0
H1052 H 0.62435 0.66087 0.41449 0.0
C1053 C 0.68273 0.64107 0.47116 0.0
C1054 C 0.63632 0.6091 0.43802 0.0
C1055 C 0.69608 0.63991 0.48801 0.0
C1056 C 0.58396 0.61051 0.36894 0.0
C1057 C 0.58661 0.61366 0.38665 0.0
C1058 C 0.62753 0.64631 0.42091 0.0
C1059 C 0.65638 0.62685 0.46512 0.0
C1060 C 0.64327 0.6274 0.44694 0.0
C1061 C 0.6123 0.6278 0.39334 0.0
C1062 C 0.62092 0.62796 0.41204 0.0
H1063 H 0.64667 0.59838 0.5016 0.0
H1064 H 0.62264 0.60065 0.47249 0.0
H1065 H 0.64292 0.66045 0.44467 0.0
H1066 H 0.64851 0.64521 0.35556 0.0
H1067 H 0.6531 0.65092 0.38656 0.0
C1068 C 0.32172 0.64143 0.01236 0.0
C1069 C 0.32666 0.62337 0.003 0.0
C1070 C 0.33295 0.64271 0.02948 0.0
C1071 C 0.3932 0.61818 0.06211 0.0
H1072 H 0.33422 0.65053 0.0933 0.0
C1073 C 0.39689 0.6308 0.1386 0.0
C1074 C 0.40683 0.65123 0.14192 0.0
C1075 C 0.39195 0.6241 0.12163 0.0
C1076 C 0.35077 0.64134 0.08472 0.0
H1077 H 0.34689 0.59234 0.00434 0.0
H1078 H 0.36587 0.59441 0.03439 0.0
H1079 H 0.31334 0.64546 0.06388 0.0
H1080 H 0.4229 0.68001 0.13021 0.0
H1081 H 0.41398 0.66834 0.10073 0.0
H1082 H 0.4305 0.61416 0.08336 0.0
C1083 C 0.35402 0.60776 0.02839 0.0
C1084 C 0.33908 0.63859 0.06782 0.0
C1085 C 0.34304 0.60655 0.01118 0.0
C1086 C 0.41486 0.66426 0.12802 0.0
C1087 C 0.40987 0.6576 0.11118 0.0
C1088 C 0.40475 0.62082 0.07916 0.0
C1089 C 0.34906 0.62586 0.03779 0.0
C1090 C 0.36048 0.62735 0.05615 0.0
C1091 C 0.39711 0.63774 0.10788 0.0
C1092 C 0.38383 0.63271 0.09047 0.0
H1093 H 0.30977 0.65475 0.00633 0.0
H1094 H 0.32945 0.65707 0.03613 0.0
H1095 H 0.41052 0.60954 0.05348 0.0
H1096 H 0.39034 0.62048 0.14907 0.0
H1097 H 0.38185 0.60873 0.1193 0.0
C1098 C 0.20353 0.85644 0.51338 0.0
C1099 C 0.18768 0.8716 0.50306 0.0
C1100 C 0.19315 0.85426 0.53057 0.0
C1101 C 0.14654 0.88024 0.56694 0.0
H1102 H 0.13529 0.82472 0.58362 0.0
C1103 C 0.08283 0.8594 0.6337 0.0
C1104 C 0.0978 0.84249 0.64225 0.0
C1105 C 0.0945 0.86442 0.61703 0.0
C1106 C 0.13878 0.84035 0.5793 0.0
H1107 H 0.14879 0.89657 0.5027 0.0
H1108 H 0.13003 0.89252 0.53273 0.0
H1109 H 0.15389 0.83068 0.55412 0.0
H1110 H 0.13789 0.81828 0.64067 0.0
H1111 H 0.15929 0.82738 0.61193 0.0
H1112 H 0.13112 0.88981 0.59227 0.0
C1113 C 0.15099 0.88253 0.5276 0.0
C1114 C 0.14946 0.84377 0.56232 0.0
C1115 C 0.16165 0.88481 0.5104 0.0
C1116 C 0.12563 0.83122 0.63421 0.0
C1117 C 0.13764 0.83638 0.61771 0.0
C1118 C 0.13581 0.87679 0.58403 0.0
C1119 C 0.16634 0.86705 0.53786 0.0
C1120 C 0.15389 0.86373 0.55592 0.0
C1121 C 0.12162 0.85272 0.6087 0.0
C1122 C 0.1322 0.85677 0.59047 0.0
H1123 H 0.22416 0.84628 0.50817 0.0
H1124 H 0.20624 0.8425 0.53816 0.0
H1125 H 0.14984 0.89582 0.56248 0.0
H1126 H 0.06121 0.86825 0.63969 0.0
H1127 H 0.08137 0.87701 0.61047 0.0
C1128 C 0.19824 0.28588 0.35949 0.0
C1129 C 0.17524 0.29965 0.36814 0.0
C1130 C 0.18316 0.27071 0.34895 0.0
C1131 C 0.09715 0.24173 0.34052 0.0
H1132 H 0.1427 0.23099 0.29638 0.0
C1133 C 0.02759 0.19111 0.2891 0.0
C1134 C 0.05001 0.17742 0.28 0.0
C1135 C 0.04326 0.20563 0.30007 0.0
C1136 C 0.12993 0.23363 0.30875 0.0
H1137 H 0.11832 0.30814 0.3727 0.0
H1138 H 0.09191 0.28168 0.35421 0.0
H1139 H 0.16901 0.25715 0.31513 0.0
H1140 H 0.1066 0.16801 0.27573 0.0
H1141 H 0.13397 0.1936 0.29465 0.0
H1142 H 0.05799 0.21826 0.33411 0.0
C1143 C 0.12165 0.28256 0.35565 0.0
C1144 C 0.14499 0.24862 0.3195 0.0
C1145 C 0.13676 0.29782 0.36612 0.0
C1146 C 0.08852 0.17851 0.28226 0.0
C1147 C 0.10423 0.1932 0.29313 0.0
C1148 C 0.08209 0.22674 0.32977 0.0
C1149 C 0.14469 0.26889 0.34687 0.0
C1150 C 0.12874 0.25287 0.33549 0.0
C1151 C 0.08175 0.2069 0.30218 0.0
C1152 C 0.09825 0.22255 0.31375 0.0
H1153 H 0.22801 0.28703 0.36064 0.0
H1154 H 0.20166 0.2603 0.34251 0.0
H1155 H 0.0843 0.24441 0.35286 0.0
H1156 H 0.9978 0.19065 0.2878 0.0
H1157 H 0.02517 0.21608 0.30672 0.0
C1158 C 0.35717 0.21088 0.87446 0.0
C1159 C 0.33989 0.19365 0.86724 0.0
C1160 C 0.3729 0.22596 0.86393 0.0
C1161 C 0.40459 0.23554 0.81902 0.0
H1162 H 0.39638 0.29232 0.83236 0.0
C1163 C 0.4412 0.30243 0.77307 0.0
C1164 C 0.46021 0.31921 0.78017 0.0
C1165 C 0.42702 0.28693 0.78365 0.0
C1166 C 0.39923 0.27652 0.82852 0.0
H1167 H 0.32484 0.17885 0.84338 0.0
H1168 H 0.35123 0.20535 0.82498 0.0
H1169 H 0.37099 0.26576 0.85095 0.0
H1170 H 0.48015 0.3325 0.80398 0.0
H1171 H 0.45597 0.3054 0.82232 0.0
H1172 H 0.43243 0.24642 0.79647 0.0
C1173 C 0.35376 0.20701 0.83875 0.0
C1174 C 0.38474 0.26126 0.83922 0.0
C1175 C 0.33847 0.19184 0.84929 0.0
C1176 C 0.46529 0.31993 0.79806 0.0
C1177 C 0.45124 0.30444 0.80861 0.0
C1178 C 0.41888 0.25083 0.80828 0.0
C1179 C 0.37124 0.22428 0.84591 0.0
C1180 C 0.3872 0.24055 0.83462 0.0
C1181 C 0.43175 0.28781 0.80156 0.0
C1182 C 0.41639 0.2715 0.81291 0.0
H1183 H 0.35893 0.21254 0.88827 0.0
H1184 H 0.38667 0.23884 0.86992 0.0
H1185 H 0.40761 0.21976 0.81518 0.0
H1186 H 0.43732 0.3012 0.75936 0.0
H1187 H 0.41194 0.27439 0.77781 0.0
C1188 C 0.66332 0.21203 0.62995 0.0
C1189 C 0.6765 0.19363 0.63683 0.0
C1190 C 0.64821 0.22692 0.64068 0.0
C1191 C 0.60835 0.23426 0.68421 0.0
H1192 H 0.62884 0.29143 0.67489 0.0
C1193 C 0.5677 0.29911 0.73109 0.0
C1194 C 0.55257 0.31674 0.72366 0.0
C1195 C 0.58312 0.28391 0.72076 0.0
C1196 C 0.62259 0.27554 0.67758 0.0
H1197 H 0.68487 0.17663 0.6604 0.0
H1198 H 0.659 0.20263 0.6791 0.0
H1199 H 0.65494 0.26537 0.6563 0.0
H1200 H 0.54157 0.33208 0.69948 0.0
H1201 H 0.56813 0.30561 0.68158 0.0
H1202 H 0.57615 0.24451 0.70558 0.0
C1203 C 0.65947 0.20541 0.66539 0.0
C1204 C 0.63749 0.26058 0.6669 0.0
C1205 C 0.67436 0.1905 0.65466 0.0
C1206 C 0.55304 0.31875 0.70568 0.0
C1207 C 0.56853 0.30363 0.69539 0.0
C1208 C 0.59356 0.24923 0.69494 0.0
C1209 C 0.64617 0.22382 0.65855 0.0
C1210 C 0.63044 0.23975 0.67002 0.0
C1211 C 0.58383 0.28605 0.70278 0.0
C1212 C 0.60036 0.27005 0.6917 0.0
H1213 H 0.66422 0.2148 0.61624 0.0
H1214 H 0.6377 0.24076 0.63492 0.0
H1215 H 0.60189 0.21839 0.68687 0.0
H1216 H 0.56762 0.29702 0.74488 0.0
H1217 H 0.59492 0.2706 0.72686 0.0
C1218 C 0.8471 0.28486 0.12793 0.0
C1219 C 0.83357 0.30297 0.13516 0.0
C1220 C 0.86214 0.26963 0.13837 0.0
C1221 C 0.86148 0.2503 0.18288 0.0
H1222 H 0.95234 0.22362 0.16966 0.0
C1223 C 0.93921 0.19611 0.22874 0.0
C1224 C 0.95533 0.17859 0.22163 0.0
C1225 C 0.92414 0.21115 0.21815 0.0
C1226 C 0.92669 0.23071 0.17344 0.0
H1227 H 0.82479 0.31917 0.15905 0.0
H1228 H 0.85114 0.29267 0.17725 0.0
H1229 H 0.92647 0.24997 0.15117 0.0
H1230 H 0.96802 0.16313 0.19776 0.0
H1231 H 0.94138 0.18919 0.17933 0.0
H1232 H 0.86145 0.23098 0.20507 0.0
C1233 C 0.85008 0.29022 0.16351 0.0
C1234 C 0.9119 0.24584 0.16284 0.0
C1235 C 0.83535 0.30549 0.15307 0.0
C1236 C 0.95598 0.17646 0.20368 0.0
C1237 C 0.94086 0.19148 0.19309 0.0
C1238 C 0.87616 0.23511 0.19343 0.0
C1239 C 0.86364 0.2721 0.1563 0.0
C1240 C 0.87918 0.25585 0.16746 0.0
C1241 C 0.92481 0.20905 0.20018 0.0
C1242 C 0.90901 0.22514 0.18887 0.0
H1243 H 0.84629 0.28252 0.11417 0.0
H1244 H 0.87211 0.25579 0.13244 0.0
H1245 H 0.83593 0.25751 0.18667 0.0
H1246 H 0.93857 0.19836 0.24251 0.0
H1247 H 0.91252 0.2246 0.22406 0.0
C1248 C 0.83055 0.71506 0.63054 0.0
C1249 C 0.83792 0.69442 0.63366 0.0
C1250 C 0.84609 0.73023 0.64099 0.0
C1251 C 0.89181 0.7369 0.68377 0.0
H1252 H 0.91372 0.79105 0.66604 0.0
C1253 C 0.97903 0.79859 0.71919 0.0
C1254 C 0.96142 0.81743 0.72146 0.0
C1255 C 0.96338 0.78358 0.70867 0.0
C1256 C 0.9075 0.776 0.67113 0.0
H1257 H 0.86795 0.67324 0.64961 0.0
H1258 H 0.89688 0.6996 0.66729 0.0
H1259 H 0.88977 0.76478 0.64673 0.0
H1260 H 0.91353 0.83532 0.71456 0.0
H1261 H 0.88657 0.80913 0.69578 0.0
H1262 H 0.91125 0.74812 0.70803 0.0
C1263 C 0.87804 0.70427 0.65727 0.0
C1264 C 0.89357 0.76093 0.66012 0.0
C1265 C 0.86188 0.68913 0.64704 0.0
C1266 C 0.9277 0.82093 0.71306 0.0
C1267 C 0.91238 0.80604 0.70227 0.0
C1268 C 0.90648 0.75185 0.69467 0.0
C1269 C 0.86987 0.72506 0.65463 0.0
C1270 C 0.88538 0.74114 0.66628 0.0
C1271 C 0.93014 0.78726 0.69999 0.0
C1272 C 0.91428 0.77153 0.68846 0.0
H1273 H 0.81179 0.7194 0.62036 0.0
H1274 H 0.83852 0.74593 0.63864 0.0
H1275 H 0.88509 0.7221 0.6892 0.0
H1276 H 0.0049 0.79539 0.72561 0.0
H1277 H 0.97757 0.76921 0.70706 0.0
C1278 C 0.64756 0.80675 0.14678 0.0
C1279 C 0.67187 0.80175 0.13346 0.0
C1280 C 0.63196 0.79143 0.15708 0.0
C1281 C 0.61888 0.73464 0.16033 0.0
H1282 H 0.60082 0.74758 0.20817 0.0
C1283 C 0.58439 0.67446 0.21333 0.0
C1284 C 0.55114 0.67825 0.22206 0.0
C1285 C 0.5998 0.6893 0.20244 0.0
C1286 C 0.60572 0.7438 0.19483 0.0
H1287 H 0.69909 0.77707 0.12027 0.0
H1288 H 0.67334 0.75025 0.13867 0.0
H1289 H 0.62606 0.77372 0.18911 0.0
H1290 H 0.50857 0.70072 0.22665 0.0
H1291 H 0.5361 0.72677 0.20799 0.0
H1292 H 0.59967 0.70438 0.16648 0.0
C1293 C 0.6651 0.76586 0.14094 0.0
C1294 C 0.61986 0.75882 0.18381 0.0
C1295 C 0.68007 0.78119 0.13041 0.0
C1296 C 0.53408 0.6973 0.22 0.0
C1297 C 0.54987 0.71224 0.20941 0.0
C1298 C 0.60545 0.7195 0.17148 0.0
C1299 C 0.64107 0.77077 0.15456 0.0
C1300 C 0.62634 0.75456 0.16633 0.0
C1301 C 0.58263 0.7083 0.2004 0.0
C1302 C 0.59848 0.72401 0.18877 0.0
H1303 H 0.64079 0.82255 0.14928 0.0
H1304 H 0.61285 0.79588 0.16706 0.0
H1305 H 0.62281 0.73076 0.14696 0.0
H1306 H 0.59812 0.65991 0.21467 0.0
H1307 H 0.62524 0.68599 0.19569 0.0
C1308 C 0.3375 0.8035 0.34929 0.0
C1309 C 0.33058 0.8004 0.36688 0.0
C1310 C 0.35448 0.78841 0.33947 0.0
C1311 C 0.3717 0.73293 0.3385 0.0
H1312 H 0.44248 0.74783 0.30312 0.0
C1313 C 0.45309 0.6731 0.29913 0.0
C1314 C 0.45661 0.67681 0.28142 0.0
C1315 C 0.43826 0.68794 0.30998 0.0
C1316 C 0.4225 0.74343 0.31284 0.0
H1317 H 0.33657 0.77907 0.38797 0.0
H1318 H 0.36675 0.75275 0.37085 0.0
H1319 H 0.4168 0.77423 0.32152 0.0
H1320 H 0.44758 0.69908 0.26124 0.0
H1321 H 0.42154 0.72487 0.28013 0.0
H1322 H 0.37744 0.70211 0.32976 0.0
C1323 C 0.35861 0.76681 0.36463 0.0
C1324 C 0.40778 0.75857 0.3234 0.0
C1325 C 0.34168 0.78197 0.37448 0.0
C1326 C 0.44499 0.69567 0.2748 0.0
C1327 C 0.43038 0.71054 0.28565 0.0
C1328 C 0.38651 0.71777 0.32795 0.0
C1329 C 0.36502 0.76981 0.34697 0.0
C1330 C 0.38197 0.75354 0.33628 0.0
C1331 C 0.42696 0.70689 0.30338 0.0
C1332 C 0.41187 0.72287 0.31491 0.0
H1333 H 0.32973 0.81763 0.34307 0.0
H1334 H 0.35864 0.79119 0.3259 0.0
H1335 H 0.3515 0.72855 0.34812 0.0
H1336 H 0.46184 0.65872 0.30461 0.0
H1337 H 0.43629 0.68472 0.32359 0.0
C1338 C 0.16748 0.71243 0.87326 0.0
C1339 C 0.17905 0.69384 0.86611 0.0
C1340 C 0.15103 0.72736 0.86295 0.0
C1341 C 0.1453 0.74413 0.81778 0.0
H1342 H 0.06087 0.77507 0.83332 0.0
C1343 C 0.06673 0.79887 0.77271 0.0
C1344 C 0.05353 0.81716 0.77971 0.0
C1345 C 0.08183 0.78385 0.78332 0.0
C1346 C 0.08475 0.76677 0.82885 0.0
H1347 H 0.18067 0.67601 0.84268 0.0
H1348 H 0.15222 0.70199 0.82476 0.0
H1349 H 0.08693 0.74886 0.85188 0.0
H1350 H 0.04632 0.83419 0.80331 0.0
H1351 H 0.07332 0.80824 0.82176 0.0
H1352 H 0.14351 0.76211 0.79485 0.0
C1353 C 0.15655 0.70523 0.83825 0.0
C1354 C 0.09963 0.7517 0.8395 0.0
C1355 C 0.17288 0.69033 0.84853 0.0
C1356 C 0.05605 0.82019 0.79752 0.0
C1357 C 0.07133 0.80524 0.80812 0.0
C1358 C 0.13056 0.75925 0.80717 0.0
C1359 C 0.14583 0.72402 0.84527 0.0
C1360 C 0.13001 0.74016 0.83407 0.0
C1361 C 0.08425 0.78682 0.80119 0.0
C1362 C 0.10004 0.77075 0.81254 0.0
H1363 H 0.17208 0.71569 0.88672 0.0
H1364 H 0.14333 0.74173 0.86873 0.0
H1365 H 0.1691 0.73575 0.81331 0.0
H1366 H 0.06475 0.79597 0.75905 0.0
H1367 H 0.09095 0.76974 0.77754 0.0
loop_
_geom_bond_atom_site_label_1
_geom_bond_atom_site_label_2
_geom_bond_distance
_geom_bond_site_symmetry_2
_ccdc_geom_bond_type
C0 C1 1.386 . S
C0 C2 1.397 . S
C0 H24 0.931 . S
C1 C0 1.386 . S
C1 C5 1.397 . S
C2 C0 1.397 . S
C2 C3 1.384 . S
C2 H25 0.930 . S
C3 C2 1.384 . S
C3 C4 1.377 . S
C3 C6 1.481 . S
C4 C3 1.377 . S
C4 C5 1.389 . S
C4 H26 0.929 . S
C5 C1 1.397 . S
C5 C4 1.389 . S
C5 H27 0.931 . S
C6 C3 1.481 . S
C6 C7 1.387 . S
C6 C11 1.390 . S
C7 C6 1.387 . S
C7 C8 1.401 . S
C7 H28 0.930 . S
C8 C7 1.401 . S
C8 C9 1.376 . S
C8 C17 1.511 . S
C9 C8 1.376 . S
C9 C10 1.392 . S
C9 H30 0.931 . S
C10 C9 1.392 . S
C10 C11 1.361 . S
C10 C12 1.500 . S
C11 C6 1.390 . S
C11 C10 1.361 . S
C11 H29 0.931 . S
C12 C10 1.500 . S
C12 C13 1.371 . S
C12 C14 1.365 . S
C13 C12 1.371 . S
C13 C23 1.386 . S
C13 H31 0.931 . S
C14 C12 1.365 . S
C14 C15 1.409 . S
C14 H32 0.929 . S
C15 C14 1.409 . S
C15 C16 1.380 . S
C15 H33 0.930 . S
C16 C15 1.380 . S
C16 C23 1.357 . S
C17 C8 1.511 . S
C17 C18 1.341 . S
C17 C19 1.371 . S
C18 C17 1.341 . S
C18 C22 1.394 . S
C18 H34 0.930 . S
C19 C17 1.371 . S
C19 C20 1.392 . S
C19 H35 0.931 . S
C20 C19 1.392 . S
C20 C21 1.331 . S
C20 H38 0.932 . S
C21 C20 1.331 . S
C21 C22 1.336 . S
C22 C18 1.394 . S
C22 C21 1.336 . S
C22 H37 0.929 . S
C23 C13 1.386 . S
C23 C16 1.357 . S
C23 H36 0.928 . S
H24 C0 0.931 . S
H25 C2 0.930 . S
H26 C4 0.929 . S
H27 C5 0.931 . S
H28 C7 0.930 . S
H29 C11 0.931 . S
H30 C9 0.931 . S
H31 C13 0.931 . S
H32 C14 0.929 . S
H33 C15 0.930 . S
H34 C18 0.930 . S
H35 C19 0.931 . S
H36 C23 0.928 . S
H37 C22 0.929 . S
H38 C20 0.932 . S
C39 C40 1.386 . S
C39 C41 1.397 . S
C39 H63 0.931 . S
C40 C39 1.386 . S
C40 C44 1.397 . S
C41 C39 1.397 . S
C41 C42 1.384 . S
C41 H64 0.930 . S
C42 C41 1.384 . S
C42 C43 1.377 . S
C42 C45 1.481 . S
C43 C42 1.377 . S
C43 C44 1.389 . S
C43 H65 0.929 . S
C44 C40 1.397 . S
C44 C43 1.389 . S
C44 H66 0.931 . S
C45 C42 1.481 . S
C45 C46 1.387 . S
C45 C50 1.390 . S
C46 C45 1.387 . S
C46 C47 1.401 . S
C46 H67 0.930 . S
C47 C46 1.401 . S
C47 C48 1.376 . S
C47 C56 1.511 . S
C48 C47 1.376 . S
C48 C49 1.392 . S
C48 H69 0.931 . S
C49 C48 1.392 . S
C49 C50 1.361 . S
C49 C51 1.500 . S
C50 C45 1.390 . S
C50 C49 1.361 . S
C50 H68 0.931 . S
C51 C49 1.500 . S
C51 C52 1.371 . S
C51 C53 1.365 . S
C52 C51 1.371 . S
C52 C62 1.386 . S
C52 H70 0.931 . S
C53 C51 1.365 . S
C53 C54 1.409 . S
C53 H71 0.929 . S
C54 C53 1.409 . S
C54 C55 1.380 . S
C54 H72 0.930 . S
C55 C54 1.380 . S
C55 C62 1.357 . S
C56 C47 1.511 . S
C56 C57 1.341 . S
C56 C58 1.371 . S
C57 C56 1.341 . S
C57 C61 1.394 . S
C57 H73 0.930 . S
C58 C56 1.371 . S
C58 C59 1.392 . S
C58 H74 0.931 . S
C59 C58 1.392 . S
C59 C60 1.331 . S
C59 H77 0.932 . S
C60 C59 1.331 . S
C60 C61 1.336 . S
C61 C57 1.394 . S
C61 C60 1.336 . S
C61 H76 0.929 . S
C62 C52 1.386 . S
C62 C55 1.357 . S
C62 H75 0.928 . S
H63 C39 0.931 . S
H64 C41 0.930 . S
H65 C43 0.929 . S
H66 C44 0.931 . S
H67 C46 0.930 . S
H68 C50 0.931 . S
H69 C48 0.931 . S
H70 C52 0.931 . S
H71 C53 0.929 . S
H72 C54 0.930 . S
H73 C57 0.930 . S
H74 C58 0.931 . S
H75 C62 0.928 . S
H76 C61 0.929 . S
H77 C59 0.932 . S
C78 C79 1.386 . S
C78 C80 1.397 . S
C78 H102 0.931 . S
C79 C78 1.386 . S
C79 C83 1.397 . S
C80 C78 1.397 . S
C80 C81 1.384 . S
C80 H103 0.930 . S
C81 C80 1.384 . S
C81 C82 1.377 . S
C81 C84 1.481 . S
C82 C81 1.377 . S
C82 C83 1.389 . S
C82 H104 0.929 . S
C83 C79 1.397 . S
C83 C82 1.389 . S
C83 H105 0.931 . S
C84 C81 1.481 . S
C84 C85 1.387 . S
C84 C89 1.390 . S
C85 C84 1.387 . S
C85 C86 1.401 . S
C85 H106 0.930 . S
C86 C85 1.401 . S
C86 C87 1.376 . S
C86 C95 1.511 . S
C87 C86 1.376 . S
C87 C88 1.392 . S
C87 H108 0.931 . S
C88 C87 1.392 . S
C88 C89 1.361 . S
C88 C90 1.500 . S
C89 C84 1.390 . S
C89 C88 1.361 . S
C89 H107 0.931 . S
C90 C88 1.500 . S
C90 C91 1.371 . S
C90 C92 1.365 . S
C91 C90 1.371 . S
C91 C101 1.386 . S
C91 H109 0.931 . S
C92 C90 1.365 . S
C92 C93 1.409 . S
C92 H110 0.929 . S
C93 C92 1.409 . S
C93 C94 1.380 . S
C93 H111 0.930 . S
C94 C93 1.380 . S
C94 C101 1.357 . S
C95 C86 1.511 . S
C95 C96 1.341 . S
C95 C97 1.371 . S
C96 C95 1.341 . S
C96 C100 1.394 . S
C96 H112 0.930 . S
C97 C95 1.371 . S
C97 C98 1.392 . S
C97 H113 0.931 . S
C98 C97 1.392 . S
C98 C99 1.331 . S
C98 H116 0.932 . S
C99 C98 1.331 . S
C99 C100 1.336 . S
C100 C96 1.394 . S
C100 C99 1.336 . S
C100 H115 0.929 . S
C101 C91 1.386 . S
C101 C94 1.357 . S
C101 H114 0.928 . S
H102 C78 0.931 . S
H103 C80 0.930 . S
H104 C82 0.929 . S
H105 C83 0.931 . S
H106 C85 0.930 . S
H107 C89 0.931 . S
H108 C87 0.931 . S
H109 C91 0.931 . S
H110 C92 0.929 . S
H111 C93 0.930 . S
H112 C96 0.930 . S
H113 C97 0.931 . S
H114 C101 0.928 . S
H115 C100 0.929 . S
H116 C98 0.932 . S
C117 C118 1.386 . S
C117 C119 1.397 . S
C117 H141 0.931 . S
C118 C117 1.386 . S
C118 C122 1.397 . S
C119 C117 1.397 . S
C119 C120 1.384 . S
C119 H142 0.930 . S
C120 C119 1.384 . S
C120 C121 1.377 . S
C120 C123 1.481 . S
C121 C120 1.377 . S
C121 C122 1.389 . S
C121 H143 0.929 . S
C122 C118 1.397 . S
C122 C121 1.389 . S
C122 H144 0.931 . S
C123 C120 1.481 . S
C123 C124 1.387 . S
C123 C128 1.390 . S
C124 C123 1.387 . S
C124 C125 1.401 . S
C124 H145 0.930 . S
C125 C124 1.401 . S
C125 C126 1.376 . S
C125 C134 1.511 . S
C126 C125 1.376 . S
C126 C127 1.392 . S
C126 H147 0.931 . S
C127 C126 1.392 . S
C127 C128 1.361 . S
C127 C129 1.500 . S
C128 C123 1.390 . S
C128 C127 1.361 . S
C128 H146 0.931 . S
C129 C127 1.500 . S
C129 C130 1.371 . S
C129 C131 1.365 . S
C130 C129 1.371 . S
C130 C140 1.386 . S
C130 H148 0.931 . S
C131 C129 1.365 . S
C131 C132 1.409 . S
C131 H149 0.929 . S
C132 C131 1.409 . S
C132 C133 1.380 . S
C132 H150 0.930 . S
C133 C132 1.380 . S
C133 C140 1.357 . S
C134 C125 1.511 . S
C134 C135 1.341 . S
C134 C136 1.371 . S
C135 C134 1.341 . S
C135 C139 1.394 . S
C135 H151 0.930 . S
C136 C134 1.371 . S
C136 C137 1.392 . S
C136 H152 0.931 . S
C137 C136 1.392 . S
C137 C138 1.331 . S
C137 H155 0.932 . S
C138 C137 1.331 . S
C138 C139 1.336 . S
C139 C135 1.394 . S
C139 C138 1.336 . S
C139 H154 0.929 . S
C140 C130 1.386 . S
C140 C133 1.357 . S
C140 H153 0.928 . S
H141 C117 0.931 . S
H142 C119 0.930 . S
H143 C121 0.929 . S
H144 C122 0.931 . S
H145 C124 0.930 . S
H146 C128 0.931 . S
H147 C126 0.931 . S
H148 C130 0.931 . S
H149 C131 0.929 . S
H150 C132 0.930 . S
H151 C135 0.930 . S
H152 C136 0.931 . S
H153 C140 0.928 . S
H154 C139 0.929 . S
H155 C137 0.932 . S
C156 C157 1.386 . S
C156 C158 1.397 . S
C156 H180 0.931 . S
C157 C156 1.386 . S
C157 C161 1.397 . S
C158 C156 1.397 . S
C158 C159 1.384 . S
C158 H181 0.930 . S
C159 C158 1.384 . S
C159 C160 1.377 . S
C159 C162 1.481 . S
C160 C159 1.377 . S
C160 C161 1.389 . S
C160 H182 0.929 . S
C161 C157 1.397 . S
C161 C160 1.389 . S
C161 H183 0.931 . S
C162 C159 1.481 . S
C162 C163 1.387 . S
C162 C167 1.390 . S
C163 C162 1.387 . S
C163 C164 1.401 . S
C163 H184 0.930 . S
C164 C163 1.401 . S
C164 C165 1.376 . S
C164 C173 1.511 . S
C165 C164 1.376 . S
C165 C166 1.392 . S
C165 H186 0.931 . S
C166 C165 1.392 . S
C166 C167 1.361 . S
C166 C168 1.500 . S
C167 C162 1.390 . S
C167 C166 1.361 . S
C167 H185 0.931 . S
C168 C166 1.500 . S
C168 C169 1.371 . S
C168 C170 1.365 . S
C169 C168 1.371 . S
C169 C179 1.386 . S
C169 H187 0.931 . S
C170 C168 1.365 . S
C170 C171 1.409 . S
C170 H188 0.929 . S
C171 C170 1.409 . S
C171 C172 1.380 . S
C171 H189 0.930 . S
C172 C171 1.380 . S
C172 C179 1.357 . S
C173 C164 1.511 . S
C173 C174 1.341 . S
C173 C175 1.371 . S
C174 C173 1.341 . S
C174 C178 1.394 . S
C174 H190 0.930 . S
C175 C173 1.371 . S
C175 C176 1.392 . S
C175 H191 0.931 . S
C176 C175 1.392 . S
C176 C177 1.331 . S
C176 H194 0.932 . S
C177 C176 1.331 . S
C177 C178 1.336 . S
C178 C174 1.394 . S
C178 C177 1.336 . S
C178 H193 0.929 . S
C179 C169 1.386 . S
C179 C172 1.357 . S
C179 H192 0.928 . S
H180 C156 0.931 . S
H181 C158 0.930 . S
H182 C160 0.929 . S
H183 C161 0.931 . S
H184 C163 0.930 . S
H185 C167 0.931 . S
H186 C165 0.931 . S
H187 C169 0.931 . S
H188 C170 0.929 . S
H189 C171 0.930 . S
H190 C174 0.930 . S
H191 C175 0.931 . S
H192 C179 0.928 . S
H193 C178 0.929 . S
H194 C176 0.932 . S
C195 C196 1.386 . S
C195 C197 1.397 . S
C195 H219 0.931 . S
C196 C195 1.386 . S
C196 C200 1.397 . S
C197 C195 1.397 . S
C197 C198 1.384 . S
C197 H220 0.930 . S
C198 C197 1.384 . S
C198 C199 1.377 . S
C198 C201 1.481 . S
C199 C198 1.377 . S
C199 C200 1.389 . S
C199 H221 0.929 . S
C200 C196 1.397 . S
C200 C199 1.389 . S
C200 H222 0.931 . S
C201 C198 1.481 . S
C201 C202 1.387 . S
C201 C206 1.390 . S
C202 C201 1.387 . S
C202 C203 1.401 . S
C202 H223 0.930 . S
C203 C202 1.401 . S
C203 C204 1.376 . S
C203 C212 1.511 . S
C204 C203 1.376 . S
C204 C205 1.392 . S
C204 H225 0.931 . S
C205 C204 1.392 . S
C205 C206 1.361 . S
C205 C207 1.500 . S
C206 C201 1.390 . S
C206 C205 1.361 . S
C206 H224 0.931 . S
C207 C205 1.500 . S
C207 C208 1.371 . S
C207 C209 1.365 . S
C208 C207 1.371 . S
C208 C218 1.386 . S
C208 H226 0.931 . S
C209 C207 1.365 . S
C209 C210 1.409 . S
C209 H227 0.929 . S
C210 C209 1.409 . S
C210 C211 1.380 . S
C210 H228 0.930 . S
C211 C210 1.380 . S
C211 C218 1.357 . S
C212 C203 1.511 . S
C212 C213 1.341 . S
C212 C214 1.371 . S
C213 C212 1.341 . S
C213 C217 1.394 . S
C213 H229 0.930 . S
C214 C212 1.371 . S
C214 C215 1.392 . S
C214 H230 0.931 . S
C215 C214 1.392 . S
C215 C216 1.331 . S
C215 H233 0.932 . S
C216 C215 1.331 . S
C216 C217 1.336 . S
C217 C213 1.394 . S
C217 C216 1.336 . S
C217 H232 0.929 . S
C218 C208 1.386 . S
C218 C211 1.357 . S
C218 H231 0.928 . S
H219 C195 0.931 . S
H220 C197 0.930 . S
H221 C199 0.929 . S
H222 C200 0.931 . S
H223 C202 0.930 . S
H224 C206 0.931 . S
H225 C204 0.931 . S
H226 C208 0.931 . S
H227 C209 0.929 . S
H228 C210 0.930 . S
H229 C213 0.930 . S
H230 C214 0.931 . S
H231 C218 0.928 . S
H232 C217 0.929 . S
H233 C215 0.932 . S
C234 C235 1.386 . S
C234 C236 1.397 . S
C234 H258 0.931 . S
C235 C234 1.386 . S
C235 C239 1.397 . S
C236 C234 1.397 . S
C236 C237 1.384 . S
C236 H259 0.930 . S
C237 C236 1.384 . S
C237 C238 1.377 . S
C237 C240 1.481 . S
C238 C237 1.377 . S
C238 C239 1.389 . S
C238 H260 0.929 . S
C239 C235 1.397 . S
C239 C238 1.389 . S
C239 H261 0.931 . S
C240 C237 1.481 . S
C240 C241 1.387 . S
C240 C245 1.390 . S
C241 C240 1.387 . S
C241 C242 1.401 . S
C241 H262 0.930 . S
C242 C241 1.401 . S
C242 C243 1.376 . S
C242 C251 1.511 . S
C243 C242 1.376 . S
C243 C244 1.392 . S
C243 H264 0.931 . S
C244 C243 1.392 . S
C244 C245 1.361 . S
C244 C246 1.500 . S
C245 C240 1.390 . S
C245 C244 1.361 . S
C245 H263 0.931 . S
C246 C244 1.500 . S
C246 C247 1.371 . S
C246 C248 1.365 . S
C247 C246 1.371 . S
C247 C257 1.386 . S
C247 H265 0.931 . S
C248 C246 1.365 . S
C248 C249 1.409 . S
C248 H266 0.929 . S
C249 C248 1.409 . S
C249 C250 1.380 . S
C249 H267 0.930 . S
C250 C249 1.380 . S
C250 C257 1.357 . S
C251 C242 1.511 . S
C251 C252 1.341 . S
C251 C253 1.371 . S
C252 C251 1.341 . S
C252 C256 1.394 . S
C252 H268 0.930 . S
C253 C251 1.371 . S
C253 C254 1.392 . S
C253 H269 0.931 . S
C254 C253 1.392 . S
C254 C255 1.331 . S
C254 H272 0.932 . S
C255 C254 1.331 . S
C255 C256 1.336 . S
C256 C252 1.394 . S
C256 C255 1.336 . S
C256 H271 0.929 . S
C257 C247 1.386 . S
C257 C250 1.357 . S
C257 H270 0.928 . S
H258 C234 0.931 . S
H259 C236 0.930 . S
H260 C238 0.929 . S
H261 C239 0.931 . S
H262 C241 0.930 . S
H263 C245 0.931 . S
H264 C243 0.931 . S
H265 C247 0.931 . S
H266 C248 0.929 . S
H267 C249 0.930 . S
H268 C252 0.930 . S
H269 C253 0.931 . S
H270 C257 0.928 . S
H271 C256 0.929 . S
H272 C254 0.932 . S
C273 C274 1.386 . S
C273 C275 1.397 . S
C273 H297 0.931 . S
C274 C273 1.386 . S
C274 C278 1.397 . S
C275 C273 1.397 . S
C275 C276 1.384 . S
C275 H298 0.930 . S
C276 C275 1.384 . S
C276 C277 1.377 . S
C276 C279 1.481 . S
C277 C276 1.377 . S
C277 C278 1.389 . S
C277 H299 0.929 . S
C278 C274 1.397 . S
C278 C277 1.389 . S
C278 H300 0.931 . S
C279 C276 1.481 . S
C279 C280 1.387 . S
C279 C284 1.390 . S
C280 C279 1.387 . S
C280 C281 1.401 . S
C280 H301 0.930 . S
C281 C280 1.401 . S
C281 C282 1.376 . S
C281 C290 1.511 . S
C282 C281 1.376 . S
C282 C283 1.392 . S
C282 H303 0.931 . S
C283 C282 1.392 . S
C283 C284 1.361 . S
C283 C285 1.500 . S
C284 C279 1.390 . S
C284 C283 1.361 . S
C284 H302 0.931 . S
C285 C283 1.500 . S
C285 C286 1.371 . S
C285 C287 1.365 . S
C286 C285 1.371 . S
C286 C296 1.386 . S
C286 H304 0.931 . S
C287 C285 1.365 . S
C287 C288 1.409 . S
C287 H305 0.929 . S
C288 C287 1.409 . S
C288 C289 1.380 . S
C288 H306 0.930 . S
C289 C288 1.380 . S
C289 C296 1.357 . S
C290 C281 1.511 . S
C290 C291 1.341 . S
C290 C292 1.371 . S
C291 C290 1.341 . S
C291 C295 1.394 . S
C291 H307 0.930 . S
C292 C290 1.371 . S
C292 C293 1.392 . S
C292 H308 0.931 . S
C293 C292 1.392 . S
C293 C294 1.331 . S
C293 H311 0.932 . S
C294 C293 1.331 . S
C294 C295 1.336 . S
C295 C291 1.394 . S
C295 C294 1.336 . S
C295 H310 0.929 . S
C296 C286 1.386 . S
C296 C289 1.357 . S
C296 H309 0.928 . S
H297 C273 0.931 . S
H298 C275 0.930 . S
H299 C277 0.929 . S
H300 C278 0.931 . S
H301 C280 0.930 . S
H302 C284 0.931 . S
H303 C282 0.931 . S
H304 C286 0.931 . S
H305 C287 0.929 . S
H306 C288 0.930 . S
H307 C291 0.930 . S
H308 C292 0.931 . S
H309 C296 0.928 . S
H310 C295 0.929 . S
H311 C293 0.932 . S
C312 C314 1.422 . S
C312 C316 1.415 . S
C312 N318 1.369 . S
C313 C314 1.421 . S
C313 C315 1.417 . S
C313 C325 1.422 . S
C314 C312 1.422 . S
C314 C313 1.421 . S
C314 N324 1.359 . S
C315 C313 1.417 . S
C315 C317 1.329 . S
C315 H334 0.930 . S
C316 C312 1.415 . S
C316 C317 1.437 . S
C316 C320 1.413 . S
C317 C315 1.329 . S
C317 C316 1.437 . S
C317 H339 0.929 . S
N318 C312 1.369 . S
N318 C319 1.338 . S
N318 Gd323 2.622 . S
C319 N318 1.338 . S
C319 C321 1.378 . S
C319 H331 0.929 . S
C320 C316 1.413 . S
C320 C321 1.348 . S
C320 H336 0.931 . S
C321 C319 1.378 . S
C321 C320 1.348 . S
C321 H337 0.930 . S
Gd322 N342 2.622 . S
Gd322 N349 2.570 . S
Gd322 O356 2.353 . S
Gd322 O357 2.468 . S
Gd322 O358 2.427 . S
Gd322 O360 2.388 . S
Gd322 O361 2.386 . S
Gd322 O365 2.307 . S
Gd322 C375 2.805 . S
Gd323 N318 2.622 . S
Gd323 N324 2.570 . S
Gd323 O355 2.386 . S
Gd323 O359 2.307 1_655 S
Gd323 O362 2.353 1_655 S
Gd323 O363 2.468 . S
Gd323 O364 2.427 . S
Gd323 O366 2.388 . S
Gd323 C387 2.805 . S
N324 C314 1.359 . S
N324 Gd323 2.570 . S
N324 C326 1.343 . S
C325 C313 1.422 . S
C325 C327 1.321 . S
C325 H333 0.931 . S
C326 N324 1.343 . S
C326 C327 1.390 . S
C326 H328 0.931 . S
C327 C325 1.321 . S
C327 C326 1.390 . S
C327 H329 0.930 . S
H328 C326 0.931 . S
H329 C327 0.930 . S
H330 C353 0.931 . S
H331 C319 0.929 . S
H332 C354 0.930 . S
H333 C325 0.931 . S
H334 C315 0.930 . S
H335 C344 0.929 . S
H336 C320 0.931 . S
H337 C321 0.930 . S
H338 C376 0.930 . S
H339 C317 0.929 . S
H340 C345 0.931 . S
H341 C346 0.930 . S
N342 Gd322 2.622 . S
N342 C343 1.369 . S
N342 C344 1.338 . S
C343 N342 1.369 . S
C343 C347 1.415 . S
C343 C350 1.422 . S
C344 H335 0.929 . S
C344 N342 1.338 . S
C344 C346 1.378 . S
C345 H340 0.931 . S
C345 C346 1.348 . S
C345 C347 1.413 . S
C346 H341 0.930 . S
C346 C344 1.378 . S
C346 C345 1.348 . S
C347 C343 1.415 . S
C347 C345 1.413 . S
C347 C377 1.437 . S
H348 C377 0.929 . S
N349 Gd322 2.570 . S
N349 C350 1.359 . S
N349 C353 1.343 . S
C350 C343 1.422 . S
C350 N349 1.359 . S
C350 C352 1.421 . S
C351 C352 1.422 . S
C351 C354 1.321 . S
C351 H378 0.931 . S
C352 C350 1.421 . S
C352 C351 1.422 . S
C352 C376 1.417 . S
C353 H330 0.931 . S
C353 N349 1.343 . S
C353 C354 1.390 . S
C354 H332 0.930 . S
C354 C351 1.321 . S
C354 C353 1.390 . S
O355 Gd323 2.386 . S
O355 C367 1.265 . S
O356 Gd322 2.353 . S
O356 C367 1.242 1_455 S
O357 Gd322 2.468 . S
O357 C375 1.263 . S
O358 Gd322 2.427 . S
O358 C375 1.252 . S
O359 Gd323 2.307 1_455 S
O359 C368 1.261 . S
O360 Gd322 2.388 . S
O360 C368 1.252 . S
O361 Gd322 2.386 . S
O361 C379 1.265 . S
O362 Gd323 2.353 1_455 S
O362 C379 1.242 . S
O363 Gd323 2.468 . S
O363 C387 1.263 . S
O364 Gd323 2.427 . S
O364 C387 1.252 . S
O365 Gd322 2.307 . S
O365 C380 1.261 1_455 S
O366 Gd323 2.388 . S
O366 C380 1.252 . S
C367 O355 1.265 . S
C367 O356 1.242 1_655 S
C368 O359 1.261 . S
C368 O360 1.252 . S
C369 C372 1.394 . S
C369 C374 1.370 . S
C369 C375 1.500 . S
C370 C373 1.383 . S
C370 C374 1.395 . S
C371 C372 1.396 . S
C371 C373 1.365 . S
C371 H388 0.929 . S
C372 C369 1.394 . S
C372 C371 1.396 . S
C372 H389 0.930 . S
C373 C370 1.383 . S
C373 C371 1.365 . S
C373 H390 0.931 . S
C374 C369 1.370 . S
C374 C370 1.395 . S
C374 H391 0.930 . S
C375 Gd322 2.805 . S
C375 O357 1.263 . S
C375 O358 1.252 . S
C375 C369 1.500 . S
C376 H338 0.930 . S
C376 C352 1.417 . S
C376 C377 1.329 . S
C377 C347 1.437 . S
C377 H348 0.929 . S
C377 C376 1.329 . S
H378 C351 0.931 . S
C379 O361 1.265 . S
C379 O362 1.242 . S
C380 O365 1.261 1_655 S
C380 O366 1.252 . S
C381 C384 1.394 . S
C381 C386 1.370 . S
C381 C387 1.500 . S
C382 C385 1.383 . S
C382 C386 1.395 . S
C383 C384 1.396 . S
C383 C385 1.365 . S
C383 H392 0.929 . S
C384 C381 1.394 . S
C384 C383 1.396 . S
C384 H393 0.930 . S
C385 C382 1.383 . S
C385 C383 1.365 . S
C385 H394 0.931 . S
C386 C381 1.370 . S
C386 C382 1.395 . S
C386 H395 0.930 . S
C387 Gd323 2.805 . S
C387 O363 1.263 . S
C387 O364 1.252 . S
C387 C381 1.500 . S
H388 C371 0.929 . S
H389 C372 0.930 . S
H390 C373 0.931 . S
H391 C374 0.930 . S
H392 C383 0.929 . S
H393 C384 0.930 . S
H394 C385 0.931 . S
H395 C386 0.930 . S
C396 C398 1.422 . S
C396 C400 1.415 . S
C396 N402 1.369 . S
C397 C398 1.421 . S
C397 C399 1.417 . S
C397 C409 1.422 . S
C398 C396 1.422 . S
C398 C397 1.421 . S
C398 N408 1.359 . S
C399 C397 1.417 . S
C399 C401 1.329 . S
C399 H418 0.930 . S
C400 C396 1.415 . S
C400 C401 1.437 . S
C400 C404 1.413 . S
C401 C399 1.329 . S
C401 C400 1.437 . S
C401 H423 0.929 . S
N402 C396 1.369 . S
N402 C403 1.338 . S
N402 Gd407 2.622 . S
C403 N402 1.338 . S
C403 C405 1.378 . S
C403 H415 0.929 . S
C404 C400 1.413 . S
C404 C405 1.348 . S
C404 H420 0.931 . S
C405 C403 1.378 . S
C405 C404 1.348 . S
C405 H421 0.930 . S
Gd406 N426 2.622 . S
Gd406 N433 2.570 . S
Gd406 O440 2.353 . S
Gd406 O441 2.468 . S
Gd406 O442 2.427 . S
Gd406 O444 2.388 . S
Gd406 O445 2.386 . S
Gd406 O449 2.307 . S
Gd406 C459 2.805 . S
Gd407 N402 2.622 . S
Gd407 N408 2.570 . S
Gd407 O439 2.386 . S
Gd407 O443 2.307 . S
Gd407 O446 2.353 . S
Gd407 O447 2.468 . S
Gd407 O448 2.427 . S
Gd407 O450 2.388 . S
Gd407 C471 2.805 . S
N408 C398 1.359 . S
N408 Gd407 2.570 . S
N408 C410 1.343 . S
C409 C397 1.422 . S
C409 C411 1.321 . S
C409 H417 0.931 . S
C410 N408 1.343 . S
C410 C411 1.390 . S
C410 H412 0.931 . S
C411 C409 1.321 . S
C411 C410 1.390 . S
C411 H413 0.930 . S
H412 C410 0.931 . S
H413 C411 0.930 . S
H414 C437 0.931 . S
H415 C403 0.929 . S
H416 C438 0.930 . S
H417 C409 0.931 . S
H418 C399 0.930 . S
H419 C428 0.929 . S
H420 C404 0.931 . S
H421 C405 0.930 . S
H422 C460 0.930 . S
H423 C401 0.929 . S
H424 C429 0.931 . S
H425 C430 0.930 . S
N426 Gd406 2.622 . S
N426 C427 1.369 . S
N426 C428 1.338 . S
C427 N426 1.369 . S
C427 C431 1.415 . S
C427 C434 1.422 . S
C428 H419 0.929 . S
C428 N426 1.338 . S
C428 C430 1.378 . S
C429 H424 0.931 . S
C429 C430 1.348 . S
C429 C431 1.413 . S
C430 H425 0.930 . S
C430 C428 1.378 . S
C430 C429 1.348 . S
C431 C427 1.415 . S
C431 C429 1.413 . S
C431 C461 1.437 . S
H432 C461 0.929 . S
N433 Gd406 2.570 . S
N433 C434 1.359 . S
N433 C437 1.343 . S
C434 C427 1.422 . S
C434 N433 1.359 . S
C434 C436 1.421 . S
C435 C436 1.422 . S
C435 C438 1.321 . S
C435 H462 0.931 . S
C436 C434 1.421 . S
C436 C435 1.422 . S
C436 C460 1.417 . S
C437 H414 0.931 . S
C437 N433 1.343 . S
C437 C438 1.390 . S
C438 H416 0.930 . S
C438 C435 1.321 . S
C438 C437 1.390 . S
O439 Gd407 2.386 . S
O439 C451 1.265 . S
O440 Gd406 2.353 . S
O440 C451 1.242 . S
O441 Gd406 2.468 . S
O441 C459 1.263 . S
O442 Gd406 2.427 . S
O442 C459 1.252 . S
O443 Gd407 2.307 . S
O443 C452 1.261 . S
O444 Gd406 2.388 . S
O444 C452 1.252 . S
O445 Gd406 2.386 . S
O445 C463 1.265 . S
O446 Gd407 2.353 . S
O446 C463 1.242 . S
O447 Gd407 2.468 . S
O447 C471 1.263 . S
O448 Gd407 2.427 . S
O448 C471 1.252 . S
O449 Gd406 2.307 . S
O449 C464 1.261 . S
O450 Gd407 2.388 . S
O450 C464 1.252 . S
C451 O439 1.265 . S
C451 O440 1.242 . S
C452 O443 1.261 . S
C452 O444 1.252 . S
C453 C456 1.394 . S
C453 C458 1.370 . S
C453 C459 1.500 . S
C454 C457 1.383 . S
C454 C458 1.395 . S
C455 C456 1.396 . S
C455 C457 1.365 . S
C455 H472 0.929 . S
C456 C453 1.394 . S
C456 C455 1.396 . S
C456 H473 0.930 . S
C457 C454 1.383 . S
C457 C455 1.365 . S
C457 H474 0.931 . S
C458 C453 1.370 . S
C458 C454 1.395 . S
C458 H475 0.930 . S
C459 Gd406 2.805 . S
C459 O441 1.263 . S
C459 O442 1.252 . S
C459 C453 1.500 . S
C460 H422 0.930 . S
C460 C436 1.417 . S
C460 C461 1.329 . S
C461 C431 1.437 . S
C461 H432 0.929 . S
C461 C460 1.329 . S
H462 C435 0.931 . S
C463 O445 1.265 . S
C463 O446 1.242 . S
C464 O449 1.261 . S
C464 O450 1.252 . S
C465 C468 1.394 . S
C465 C470 1.370 . S
C465 C471 1.500 . S
C466 C469 1.383 . S
C466 C470 1.395 . S
C467 C468 1.396 . S
C467 C469 1.365 . S
C467 H476 0.929 . S
C468 C465 1.394 . S
C468 C467 1.396 . S
C468 H477 0.930 . S
C469 C466 1.383 . S
C469 C467 1.365 . S
C469 H478 0.931 . S
C470 C465 1.370 . S
C470 C466 1.395 . S
C470 H479 0.930 . S
C471 Gd407 2.805 . S
C471 O447 1.263 . S
C471 O448 1.252 . S
C471 C465 1.500 . S
H472 C455 0.929 . S
H473 C456 0.930 . S
H474 C457 0.931 . S
H475 C458 0.930 . S
H476 C467 0.929 . S
H477 C468 0.930 . S
H478 C469 0.931 . S
H479 C470 0.930 . S
C480 C482 1.422 . S
C480 C484 1.415 . S
C480 N486 1.369 . S
C481 C482 1.421 . S
C481 C483 1.417 . S
C481 C493 1.422 . S
C482 C480 1.422 . S
C482 C481 1.421 . S
C482 N492 1.359 . S
C483 C481 1.417 . S
C483 C485 1.329 . S
C483 H502 0.930 . S
C484 C480 1.415 . S
C484 C485 1.437 . S
C484 C488 1.413 . S
C485 C483 1.329 . S
C485 C484 1.437 . S
C485 H507 0.929 . S
N486 C480 1.369 . S
N486 C487 1.338 . S
N486 Gd491 2.622 . S
C487 N486 1.338 . S
C487 C489 1.378 . S
C487 H499 0.929 . S
C488 C484 1.413 . S
C488 C489 1.348 . S
C488 H504 0.931 . S
C489 C487 1.378 . S
C489 C488 1.348 . S
C489 H505 0.930 . S
Gd490 N510 2.622 . S
Gd490 N517 2.570 . S
Gd490 O524 2.353 . S
Gd490 O525 2.468 . S
Gd490 O526 2.427 . S
Gd490 O528 2.388 . S
Gd490 O529 2.386 . S
Gd490 O533 2.307 . S
Gd490 C543 2.805 . S
Gd491 N486 2.622 . S
Gd491 N492 2.570 . S
Gd491 O523 2.386 . S
Gd491 O527 2.307 1_655 S
Gd491 O530 2.353 1_655 S
Gd491 O531 2.468 . S
Gd491 O532 2.427 . S
Gd491 O534 2.388 . S
Gd491 C555 2.805 . S
N492 C482 1.359 . S
N492 Gd491 2.570 . S
N492 C494 1.343 . S
C493 C481 1.422 . S
C493 C495 1.321 . S
C493 H501 0.931 . S
C494 N492 1.343 . S
C494 C495 1.390 . S
C494 H496 0.931 . S
C495 C493 1.321 . S
C495 C494 1.390 . S
C495 H497 0.930 . S
H496 C494 0.931 . S
H497 C495 0.930 . S
H498 C521 0.931 . S
H499 C487 0.929 . S
H500 C522 0.930 . S
H501 C493 0.931 . S
H502 C483 0.930 . S
H503 C512 0.929 . S
H504 C488 0.931 . S
H505 C489 0.930 . S
H506 C544 0.930 . S
H507 C485 0.929 . S
H508 C513 0.931 . S
H509 C514 0.930 . S
N510 Gd490 2.622 . S
N510 C511 1.369 . S
N510 C512 1.338 . S
C511 N510 1.369 . S
C511 C515 1.415 . S
C511 C518 1.422 . S
C512 H503 0.929 . S
C512 N510 1.338 . S
C512 C514 1.378 . S
C513 H508 0.931 . S
C513 C514 1.348 . S
C513 C515 1.413 . S
C514 H509 0.930 . S
C514 C512 1.378 . S
C514 C513 1.348 . S
C515 C511 1.415 . S
C515 C513 1.413 . S
C515 C545 1.437 . S
H516 C545 0.929 . S
N517 Gd490 2.570 . S
N517 C518 1.359 . S
N517 C521 1.343 . S
C518 C511 1.422 . S
C518 N517 1.359 . S
C518 C520 1.421 . S
C519 C520 1.422 . S
C519 C522 1.321 . S
C519 H546 0.931 . S
C520 C518 1.421 . S
C520 C519 1.422 . S
C520 C544 1.417 . S
C521 H498 0.931 . S
C521 N517 1.343 . S
C521 C522 1.390 . S
C522 H500 0.930 . S
C522 C519 1.321 . S
C522 C521 1.390 . S
O523 Gd491 2.386 . S
O523 C535 1.265 . S
O524 Gd490 2.353 . S
O524 C535 1.242 1_455 S
O525 Gd490 2.468 . S
O525 C543 1.263 . S
O526 Gd490 2.427 . S
O526 C543 1.252 . S
O527 Gd491 2.307 1_455 S
O527 C536 1.261 . S
O528 Gd490 2.388 . S
O528 C536 1.252 . S
O529 Gd490 2.386 . S
O529 C547 1.265 . S
O530 Gd491 2.353 1_455 S
O530 C547 1.242 . S
O531 Gd491 2.468 . S
O531 C555 1.263 . S
O532 Gd491 2.427 . S
O532 C555 1.252 . S
O533 Gd490 2.307 . S
O533 C548 1.261 1_455 S
O534 Gd491 2.388 . S
O534 C548 1.252 . S
C535 O523 1.265 . S
C535 O524 1.242 1_655 S
C536 O527 1.261 . S
C536 O528 1.252 . S
C537 C540 1.394 . S
C537 C542 1.370 . S
C537 C543 1.500 . S
C538 C541 1.383 . S
C538 C542 1.395 . S
C539 C540 1.396 . S
C539 C541 1.365 . S
C539 H556 0.929 . S
C540 C537 1.394 . S
C540 C539 1.396 . S
C540 H557 0.930 . S
C541 C538 1.383 . S
C541 C539 1.365 . S
C541 H558 0.931 . S
C542 C537 1.370 . S
C542 C538 1.395 . S
C542 H559 0.930 . S
C543 Gd490 2.805 . S
C543 O525 1.263 . S
C543 O526 1.252 . S
C543 C537 1.500 . S
C544 H506 0.930 . S
C544 C520 1.417 . S
C544 C545 1.329 . S
C545 C515 1.437 . S
C545 H516 0.929 . S
C545 C544 1.329 . S
H546 C519 0.931 . S
C547 O529 1.265 . S
C547 O530 1.242 . S
C548 O533 1.261 1_655 S
C548 O534 1.252 . S
C549 C552 1.394 . S
C549 C554 1.370 . S
C549 C555 1.500 . S
C550 C553 1.383 . S
C550 C554 1.395 . S
C551 C552 1.396 . S
C551 C553 1.365 . S
C551 H560 0.929 . S
C552 C549 1.394 . S
C552 C551 1.396 . S
C552 H561 0.930 . S
C553 C550 1.383 . S
C553 C551 1.365 . S
C553 H562 0.931 . S
C554 C549 1.370 . S
C554 C550 1.395 . S
C554 H563 0.930 . S
C555 Gd491 2.805 . S
C555 O531 1.263 . S
C555 O532 1.252 . S
C555 C549 1.500 . S
H556 C539 0.929 . S
H557 C540 0.930 . S
H558 C541 0.931 . S
H559 C542 0.930 . S
H560 C551 0.929 . S
H561 C552 0.930 . S
H562 C553 0.931 . S
H563 C554 0.930 . S
C564 C566 1.422 . S
C564 C568 1.415 . S
C564 N570 1.369 . S
C565 C566 1.421 . S
C565 C567 1.417 . S
C565 C577 1.422 . S
C566 C564 1.422 . S
C566 C565 1.421 . S
C566 N576 1.359 . S
C567 C565 1.417 . S
C567 C569 1.329 . S
C567 H586 0.930 . S
C568 C564 1.415 . S
C568 C569 1.437 . S
C568 C572 1.413 . S
C569 C567 1.329 . S
C569 C568 1.437 . S
C569 H591 0.929 . S
N570 C564 1.369 . S
N570 C571 1.338 . S
N570 Gd575 2.622 . S
C571 N570 1.338 . S
C571 C573 1.378 . S
C571 H583 0.929 . S
C572 C568 1.413 . S
C572 C573 1.348 . S
C572 H588 0.931 . S
C573 C571 1.378 . S
C573 C572 1.348 . S
C573 H589 0.930 . S
Gd574 N594 2.622 . S
Gd574 N601 2.570 . S
Gd574 O608 2.353 . S
Gd574 O609 2.468 . S
Gd574 O610 2.427 . S
Gd574 O612 2.388 . S
Gd574 O613 2.386 . S
Gd574 O617 2.307 . S
Gd574 C627 2.805 . S
Gd575 N570 2.622 . S
Gd575 N576 2.570 . S
Gd575 O607 2.386 . S
Gd575 O611 2.307 . S
Gd575 O614 2.353 . S
Gd575 O615 2.468 . S
Gd575 O616 2.427 . S
Gd575 O618 2.388 . S
Gd575 C639 2.805 . S
N576 C566 1.359 . S
N576 Gd575 2.570 . S
N576 C578 1.343 . S
C577 C565 1.422 . S
C577 C579 1.321 . S
C577 H585 0.931 . S
C578 N576 1.343 . S
C578 C579 1.390 . S
C578 H580 0.931 . S
C579 C577 1.321 . S
C579 C578 1.390 . S
C579 H581 0.930 . S
H580 C578 0.931 . S
H581 C579 0.930 . S
H582 C605 0.931 . S
H583 C571 0.929 . S
H584 C606 0.930 . S
H585 C577 0.931 . S
H586 C567 0.930 . S
H587 C596 0.929 . S
H588 C572 0.931 . S
H589 C573 0.930 . S
H590 C628 0.930 . S
H591 C569 0.929 . S
H592 C597 0.931 . S
H593 C598 0.930 . S
N594 Gd574 2.622 . S
N594 C595 1.369 . S
N594 C596 1.338 . S
C595 N594 1.369 . S
C595 C599 1.415 . S
C595 C602 1.422 . S
C596 H587 0.929 . S
C596 N594 1.338 . S
C596 C598 1.378 . S
C597 H592 0.931 . S
C597 C598 1.348 . S
C597 C599 1.413 . S
C598 H593 0.930 . S
C598 C596 1.378 . S
C598 C597 1.348 . S
C599 C595 1.415 . S
C599 C597 1.413 . S
C599 C629 1.437 . S
H600 C629 0.929 . S
N601 Gd574 2.570 . S
N601 C602 1.359 . S
N601 C605 1.343 . S
C602 C595 1.422 . S
C602 N601 1.359 . S
C602 C604 1.421 . S
C603 C604 1.422 . S
C603 C606 1.321 . S
C603 H630 0.931 . S
C604 C602 1.421 . S
C604 C603 1.422 . S
C604 C628 1.417 . S
C605 H582 0.931 . S
C605 N601 1.343 . S
C605 C606 1.390 . S
C606 H584 0.930 . S
C606 C603 1.321 . S
C606 C605 1.390 . S
O607 Gd575 2.386 . S
O607 C619 1.265 . S
O608 Gd574 2.353 . S
O608 C619 1.242 . S
O609 Gd574 2.468 . S
O609 C627 1.263 . S
O610 Gd574 2.427 . S
O610 C627 1.252 . S
O611 Gd575 2.307 . S
O611 C620 1.261 . S
O612 Gd574 2.388 . S
O612 C620 1.252 . S
O613 Gd574 2.386 . S
O613 C631 1.265 . S
O614 Gd575 2.353 . S
O614 C631 1.242 . S
O615 Gd575 2.468 . S
O615 C639 1.263 . S
O616 Gd575 2.427 . S
O616 C639 1.252 . S
O617 Gd574 2.307 . S
O617 C632 1.261 . S
O618 Gd575 2.388 . S
O618 C632 1.252 . S
C619 O607 1.265 . S
C619 O608 1.242 . S
C620 O611 1.261 . S
C620 O612 1.252 . S
C621 C624 1.394 . S
C621 C626 1.370 . S
C621 C627 1.500 . S
C622 C625 1.383 . S
C622 C626 1.395 . S
C623 C624 1.396 . S
C623 C625 1.365 . S
C623 H640 0.929 . S
C624 C621 1.394 . S
C624 C623 1.396 . S
C624 H641 0.930 . S
C625 C622 1.383 . S
C625 C623 1.365 . S
C625 H642 0.931 . S
C626 C621 1.370 . S
C626 C622 1.395 . S
C626 H643 0.930 . S
C627 Gd574 2.805 . S
C627 O609 1.263 . S
C627 O610 1.252 . S
C627 C621 1.500 . S
C628 H590 0.930 . S
C628 C604 1.417 . S
C628 C629 1.329 . S
C629 C599 1.437 . S
C629 H600 0.929 . S
C629 C628 1.329 . S
H630 C603 0.931 . S
C631 O613 1.265 . S
C631 O614 1.242 . S
C632 O617 1.261 . S
C632 O618 1.252 . S
C633 C636 1.394 . S
C633 C638 1.370 . S
C633 C639 1.500 . S
C634 C637 1.383 . S
C634 C638 1.395 . S
C635 C636 1.396 . S
C635 C637 1.365 . S
C635 H644 0.929 . S
C636 C633 1.394 . S
C636 C635 1.396 . S
C636 H645 0.930 . S
C637 C634 1.383 . S
C637 C635 1.365 . S
C637 H646 0.931 . S
C638 C633 1.370 . S
C638 C634 1.395 . S
C638 H647 0.930 . S
C639 Gd575 2.805 . S
C639 O615 1.263 . S
C639 O616 1.252 . S
C639 C633 1.500 . S
H640 C623 0.929 . S
H641 C624 0.930 . S
H642 C625 0.931 . S
H643 C626 0.930 . S
H644 C635 0.929 . S
H645 C636 0.930 . S
H646 C637 0.931 . S
H647 C638 0.930 . S
C648 C649 1.349 . S
C648 C650 1.327 . S
C648 H673 0.950 . S
C649 C648 1.349 . S
C649 C665 1.349 . S
C650 C648 1.327 . S
C650 C669 1.431 . S
C650 H674 0.950 . S
C651 C668 1.574 . S
C651 C670 1.368 . S
C651 H675 0.949 . S
H652 C656 0.949 . S
C653 C654 1.349 . S
C653 C655 1.327 . S
C653 H676 0.950 . S
C654 C653 1.349 . S
C654 C666 1.349 . S
C655 C653 1.327 . S
C655 C671 1.429 . S
C655 H677 0.950 . S
C656 H652 0.949 . S
C656 C664 1.574 . S
C656 C672 1.368 . S
H657 C665 0.950 . S
H658 C663 0.950 . S
H659 C664 0.949 1_565 S
H660 C666 0.950 . S
H661 C667 0.950 . S
H662 C668 0.949 . S
C663 H658 0.950 . S
C663 C665 1.327 1_545 S
C663 C669 1.428 1_545 S
C664 C656 1.574 . S
C664 H659 0.949 1_545 S
C664 C670 1.368 . S
C665 C649 1.349 . S
C665 H657 0.950 . S
C665 C663 1.327 1_565 S
C666 C654 1.349 . S
C666 H660 0.950 . S
C666 C667 1.327 . S
C667 H661 0.950 . S
C667 C666 1.327 . S
C667 C671 1.429 . S
C668 C651 1.574 . S
C668 H662 0.949 . S
C668 C672 1.368 . S
C669 C650 1.431 . S
C669 C663 1.428 1_565 S
C669 C670 1.521 1_565 S
C670 C651 1.368 . S
C670 C664 1.368 . S
C670 C669 1.521 1_545 S
C671 C655 1.429 . S
C671 C667 1.429 . S
C671 C672 1.523 . S
C672 C656 1.368 . S
C672 C668 1.368 . S
C672 C671 1.523 . S
H673 C648 0.950 . S
H674 C650 0.950 . S
H675 C651 0.949 . S
H676 C653 0.950 . S
H677 C655 0.950 . S
C678 C679 1.349 . S
C678 C680 1.327 . S
C678 H703 0.950 . S
C679 C678 1.349 . S
C679 C695 1.349 . S
C680 C678 1.327 . S
C680 C699 1.429 . S
C680 H704 0.950 . S
C681 C698 1.574 . S
C681 C700 1.368 . S
C681 H705 0.949 . S
H682 C686 0.949 . S
C683 C684 1.349 . S
C683 C685 1.327 . S
C683 H706 0.950 . S
C684 C683 1.349 . S
C684 C696 1.349 . S
C685 C683 1.327 . S
C685 C701 1.429 . S
C685 H707 0.950 . S
C686 H682 0.949 . S
C686 C694 1.574 . S
C686 C702 1.368 . S
H687 C695 0.950 . S
H688 C693 0.950 . S
H689 C694 0.949 . S
H690 C696 0.950 . S
H691 C697 0.950 . S
H692 C698 0.949 . S
C693 H688 0.950 . S
C693 C695 1.327 . S
C693 C699 1.429 . S
C694 C686 1.574 . S
C694 H689 0.949 . S
C694 C700 1.368 . S
C695 C679 1.349 . S
C695 H687 0.950 . S
C695 C693 1.327 . S
C696 C684 1.349 . S
C696 H690 0.950 . S
C696 C697 1.327 . S
C697 H691 0.950 . S
C697 C696 1.327 . S
C697 C701 1.429 . S
C698 C681 1.574 . S
C698 H692 0.949 . S
C698 C702 1.368 . S
C699 C680 1.429 . S
C699 C693 1.429 . S
C699 C700 1.523 . S
C700 C681 1.368 . S
C700 C694 1.368 . S
C700 C699 1.523 . S
C701 C685 1.429 . S
C701 C697 1.429 . S
C701 C702 1.523 . S
C702 C686 1.368 . S
C702 C698 1.368 . S
C702 C701 1.523 . S
H703 C678 0.950 . S
H704 C680 0.950 . S
H705 C681 0.949 . S
H706 C683 0.950 . S
H707 C685 0.950 . S
C708 C709 1.349 . S
C708 C710 1.327 . S
C708 H733 0.950 . S
C709 C708 1.349 . S
C709 C725 1.349 . S
C710 C708 1.327 . S
C710 C729 1.429 . S
C710 H734 0.950 . S
C711 C728 1.574 . S
C711 C730 1.368 . S
C711 H735 0.949 . S
H712 C716 0.949 . S
C713 C714 1.349 . S
C713 C715 1.327 . S
C713 H736 0.950 . S
C714 C713 1.349 . S
C714 C726 1.349 . S
C715 C713 1.327 . S
C715 C731 1.429 . S
C715 H737 0.950 . S
C716 H712 0.949 . S
C716 C724 1.574 . S
C716 C732 1.368 . S
H717 C725 0.950 . S
H718 C723 0.950 . S
H719 C724 0.949 . S
H720 C726 0.950 . S
H721 C727 0.950 . S
H722 C728 0.949 . S
C723 H718 0.950 . S
C723 C725 1.327 . S
C723 C729 1.429 . S
C724 C716 1.574 . S
C724 H719 0.949 . S
C724 C730 1.368 . S
C725 C709 1.349 . S
C725 H717 0.950 . S
C725 C723 1.327 . S
C726 C714 1.349 . S
C726 H720 0.950 . S
C726 C727 1.327 . S
C727 H721 0.950 . S
C727 C726 1.327 . S
C727 C731 1.429 . S
C728 C711 1.574 . S
C728 H722 0.949 . S
C728 C732 1.368 . S
C729 C710 1.429 . S
C729 C723 1.429 . S
C729 C730 1.523 . S
C730 C711 1.368 . S
C730 C724 1.368 . S
C730 C729 1.523 . S
C731 C715 1.429 . S
C731 C727 1.429 . S
C731 C732 1.523 . S
C732 C716 1.368 . S
C732 C728 1.368 . S
C732 C731 1.523 . S
H733 C708 0.950 . S
H734 C710 0.950 . S
H735 C711 0.949 . S
H736 C713 0.950 . S
H737 C715 0.950 . S
C738 C739 1.349 . S
C738 C740 1.327 1_565 S
C738 H763 0.950 . S
C739 C738 1.349 . S
C739 C755 1.349 . S
C740 C738 1.327 1_545 S
C740 C759 1.429 . S
C740 H764 0.950 . S
C741 C758 1.574 . S
C741 C760 1.368 . S
C741 H765 0.949 1_545 S
H742 C746 0.949 . S
C743 C744 1.349 . S
C743 C745 1.327 . S
C743 H766 0.950 . S
C744 C743 1.349 . S
C744 C756 1.349 . S
C745 C743 1.327 . S
C745 C761 1.429 . S
C745 H767 0.950 . S
C746 H742 0.949 . S
C746 C754 1.574 . S
C746 C762 1.368 . S
H747 C755 0.950 . S
H748 C753 0.950 . S
H749 C754 0.949 . S
H750 C756 0.950 . S
H751 C757 0.950 . S
H752 C758 0.949 . S
C753 H748 0.950 . S
C753 C755 1.327 . S
C753 C759 1.429 1_565 S
C754 C746 1.574 . S
C754 H749 0.949 . S
C754 C760 1.368 . S
C755 C739 1.349 . S
C755 H747 0.950 . S
C755 C753 1.327 . S
C756 C744 1.349 . S
C756 H750 0.950 . S
C756 C757 1.327 . S
C757 H751 0.950 . S
C757 C756 1.327 . S
C757 C761 1.429 . S
C758 C741 1.574 . S
C758 H752 0.949 . S
C758 C762 1.368 . S
C759 C740 1.429 . S
C759 C753 1.429 1_545 S
C759 C760 1.523 . S
C760 C741 1.368 . S
C760 C754 1.368 . S
C760 C759 1.523 . S
C761 C745 1.429 . S
C761 C757 1.429 . S
C761 C762 1.523 . S
C762 C746 1.368 . S
C762 C758 1.368 . S
C762 C761 1.523 . S
H763 C738 0.950 . S
H764 C740 0.950 . S
H765 C741 0.949 1_565 S
H766 C743 0.950 . S
H767 C745 0.950 . S
C768 C769 1.349 . S
C768 C770 1.327 . S
C768 H793 0.950 . S
C769 C768 1.349 . S
C769 C785 1.349 . S
C770 C768 1.327 . S
C770 C789 1.433 . S
C770 H794 0.950 . S
C771 C788 1.574 . S
C771 C790 1.368 . S
C771 H795 0.949 . S
H772 C776 0.949 . S
C773 C774 1.349 . S
C773 C775 1.327 . S
C773 H796 0.950 . S
C774 C773 1.349 . S
C774 C786 1.349 . S
C775 C773 1.327 . S
C775 C791 1.429 . S
C775 H797 0.950 . S
C776 H772 0.949 . S
C776 C784 1.574 . S
C776 C792 1.368 . S
H777 C785 0.950 . S
H778 C783 0.950 . S
H779 C784 0.949 1_545 S
H780 C786 0.950 . S
H781 C787 0.950 . S
H782 C788 0.949 . S
C783 H778 0.950 . S
C783 C785 1.327 1_565 S
C783 C789 1.428 1_565 S
C784 C776 1.574 . S
C784 H779 0.949 1_565 S
C784 C790 1.368 . S
C785 C769 1.349 . S
C785 H777 0.950 . S
C785 C783 1.327 1_545 S
C786 C774 1.349 . S
C786 H780 0.950 . S
C786 C787 1.327 . S
C787 H781 0.950 . S
C787 C786 1.327 . S
C787 C791 1.429 . S
C788 C771 1.574 . S
C788 H782 0.949 . S
C788 C792 1.368 . S
C789 C770 1.433 . S
C789 C783 1.428 1_545 S
C789 C790 1.520 1_545 S
C790 C771 1.368 . S
C790 C784 1.368 . S
C790 C789 1.520 1_565 S
C791 C775 1.429 . S
C791 C787 1.429 . S
C791 C792 1.523 . S
C792 C776 1.368 . S
C792 C788 1.368 . S
C792 C791 1.523 . S
H793 C768 0.950 . S
H794 C770 0.950 . S
H795 C771 0.949 . S
H796 C773 0.950 . S
H797 C775 0.950 . S
C798 C799 1.349 . S
C798 C800 1.327 . S
C798 H823 0.950 . S
C799 C798 1.349 . S
C799 C815 1.349 . S
C800 C798 1.327 . S
C800 C819 1.429 . S
C800 H824 0.950 . S
C801 C818 1.574 . S
C801 C820 1.368 . S
C801 H825 0.949 . S
H802 C806 0.949 . S
C803 C804 1.349 . S
C803 C805 1.327 . S
C803 H826 0.950 . S
C804 C803 1.349 . S
C804 C816 1.349 . S
C805 C803 1.327 . S
C805 C821 1.429 . S
C805 H827 0.950 . S
C806 H802 0.949 . S
C806 C814 1.574 . S
C806 C822 1.368 . S
H807 C815 0.950 . S
H808 C813 0.950 . S
H809 C814 0.949 . S
H810 C816 0.950 . S
H811 C817 0.950 . S
H812 C818 0.949 . S
C813 H808 0.950 . S
C813 C815 1.327 . S
C813 C819 1.429 . S
C814 C806 1.574 . S
C814 H809 0.949 . S
C814 C820 1.368 . S
C815 C799 1.349 . S
C815 H807 0.950 . S
C815 C813 1.327 . S
C816 C804 1.349 . S
C816 H810 0.950 . S
C816 C817 1.327 . S
C817 H811 0.950 . S
C817 C816 1.327 . S
C817 C821 1.429 . S
C818 C801 1.574 . S
C818 H812 0.949 . S
C818 C822 1.368 . S
C819 C800 1.429 . S
C819 C813 1.429 . S
C819 C820 1.523 . S
C820 C801 1.368 . S
C820 C814 1.368 . S
C820 C819 1.523 . S
C821 C805 1.429 . S
C821 C817 1.429 . S
C821 C822 1.523 . S
C822 C806 1.368 . S
C822 C818 1.368 . S
C822 C821 1.523 . S
H823 C798 0.950 . S
H824 C800 0.950 . S
H825 C801 0.949 . S
H826 C803 0.950 . S
H827 C805 0.950 . S
C828 C829 1.349 . S
C828 C830 1.327 . S
C828 H853 0.950 . S
C829 C828 1.349 . S
C829 C845 1.349 . S
C830 C828 1.327 . S
C830 C849 1.429 . S
C830 H854 0.950 . S
C831 C848 1.574 . S
C831 C850 1.368 . S
C831 H855 0.949 . S
H832 C836 0.949 . S
C833 C834 1.349 . S
C833 C835 1.327 . S
C833 H856 0.950 . S
C834 C833 1.349 . S
C834 C846 1.349 . S
C835 C833 1.327 . S
C835 C851 1.429 . S
C835 H857 0.950 . S
C836 H832 0.949 . S
C836 C844 1.574 . S
C836 C852 1.368 . S
H837 C845 0.950 . S
H838 C843 0.950 . S
H839 C844 0.949 . S
H840 C846 0.950 . S
H841 C847 0.950 . S
H842 C848 0.949 . S
C843 H838 0.950 . S
C843 C845 1.327 . S
C843 C849 1.429 . S
C844 C836 1.574 . S
C844 H839 0.949 . S
C844 C850 1.368 . S
C845 C829 1.349 . S
C845 H837 0.950 . S
C845 C843 1.327 . S
C846 C834 1.349 . S
C846 H840 0.950 . S
C846 C847 1.327 . S
C847 H841 0.950 . S
C847 C846 1.327 . S
C847 C851 1.429 . S
C848 C831 1.574 . S
C848 H842 0.949 . S
C848 C852 1.368 . S
C849 C830 1.429 . S
C849 C843 1.429 . S
C849 C850 1.523 . S
C850 C831 1.368 . S
C850 C844 1.368 . S
C850 C849 1.523 . S
C851 C835 1.429 . S
C851 C847 1.429 . S
C851 C852 1.523 . S
C852 C836 1.368 . S
C852 C848 1.368 . S
C852 C851 1.523 . S
H853 C828 0.950 . S
H854 C830 0.950 . S
H855 C831 0.949 . S
H856 C833 0.950 . S
H857 C835 0.950 . S
C858 C859 1.349 . S
C858 C860 1.327 . S
C858 H883 0.950 . S
C859 C858 1.349 . S
C859 C875 1.349 . S
C860 C858 1.327 . S
C860 C879 1.429 1_545 S
C860 H884 0.950 . S
C861 C878 1.574 . S
C861 C880 1.368 . S
C861 H885 0.949 . S
H862 C866 0.949 . S
C863 C864 1.349 . S
C863 C865 1.327 . S
C863 H886 0.950 . S
C864 C863 1.349 . S
C864 C876 1.349 . S
C865 C863 1.327 . S
C865 C881 1.429 . S
C865 H887 0.950 . S
C866 H862 0.949 . S
C866 C874 1.574 . S
C866 C882 1.368 . S
H867 C875 0.950 . S
H868 C873 0.931 1_565 S
H869 C874 0.949 . S
H870 C876 0.950 . S
H871 C877 0.950 . S
H872 C878 0.949 . S
C873 H868 0.931 1_545 S
C873 C875 1.327 . S
C873 C879 1.429 1_545 S
C874 C866 1.574 . S
C874 H869 0.949 . S
C874 C880 1.368 . S
C875 C859 1.349 . S
C875 H867 0.950 . S
C875 C873 1.327 . S
C876 C864 1.349 . S
C876 H870 0.950 . S
C876 C877 1.327 . S
C877 H871 0.950 . S
C877 C876 1.327 . S
C877 C881 1.429 . S
C878 C861 1.574 . S
C878 H872 0.949 . S
C878 C882 1.368 . S
C879 C860 1.429 1_565 S
C879 C873 1.429 1_565 S
C879 C880 1.523 . S
C880 C861 1.368 . S
C880 C874 1.368 . S
C880 C879 1.523 . S
C881 C865 1.429 . S
C881 C877 1.429 . S
C881 C882 1.523 . S
C882 C866 1.368 . S
C882 C878 1.368 . S
C882 C881 1.523 . S
H883 C858 0.950 . S
H884 C860 0.950 . S
H885 C861 0.949 . S
H886 C863 0.950 . S
H887 C865 0.950 . S
C888 C889 1.349 . S
C888 C890 1.327 . S
C888 H913 0.950 . S
C889 C888 1.349 . S
C889 C905 1.349 . S
C890 C888 1.327 . S
C890 C909 1.429 . S
C890 H914 0.950 . S
C891 C908 1.574 . S
C891 C910 1.368 . S
C891 H915 0.949 . S
H892 C896 0.949 . S
C893 C894 1.349 . S
C893 C895 1.327 . S
C893 H916 0.950 . S
C894 C893 1.349 . S
C894 C906 1.349 . S
C895 C893 1.327 . S
C895 C911 1.429 . S
C895 H917 0.950 . S
C896 H892 0.949 . S
C896 C904 1.574 . S
C896 C912 1.368 . S
H897 C905 0.950 1_556 S
H898 C903 0.950 . S
H899 C904 0.949 . S
H900 C906 0.950 . S
H901 C907 0.950 . S
H902 C908 0.949 . S
C903 H898 0.950 . S
C903 C905 1.327 . S
C903 C909 1.429 . S
C904 C896 1.574 . S
C904 H899 0.949 . S
C904 C910 1.368 . S
C905 C889 1.349 . S
C905 H897 0.950 1_554 S
C905 C903 1.327 . S
C906 C894 1.349 . S
C906 H900 0.950 . S
C906 C907 1.327 . S
C907 H901 0.950 . S
C907 C906 1.327 . S
C907 C911 1.429 . S
C908 C891 1.574 . S
C908 H902 0.949 . S
C908 C912 1.368 . S
C909 C890 1.429 . S
C909 C903 1.429 . S
C909 C910 1.523 . S
C910 C891 1.368 . S
C910 C904 1.368 . S
C910 C909 1.523 . S
C911 C895 1.429 . S
C911 C907 1.429 . S
C911 C912 1.523 . S
C912 C896 1.368 . S
C912 C908 1.368 . S
C912 C911 1.523 . S
H913 C888 0.950 . S
H914 C890 0.950 . S
H915 C891 0.949 . S
H916 C893 0.950 . S
H917 C895 0.950 . S
C918 C919 1.349 . S
C918 C920 1.327 . S
C918 H943 0.950 . S
C919 C918 1.349 . S
C919 C935 1.349 . S
C920 C918 1.327 . S
C920 C939 1.429 . S
C920 H944 0.950 . S
C921 C938 1.574 . S
C921 C940 1.368 . S
C921 H945 0.949 . S
H922 C926 0.949 . S
C923 C924 1.349 . S
C923 C925 1.327 . S
C923 H946 0.950 . S
C924 C923 1.349 . S
C924 C936 1.349 . S
C925 C923 1.327 . S
C925 C941 1.429 . S
C925 H947 0.950 . S
C926 H922 0.949 . S
C926 C934 1.574 . S
C926 C942 1.368 . S
H927 C935 0.950 . S
H928 C933 0.950 . S
H929 C934 0.949 . S
H930 C936 0.950 . S
H931 C937 0.950 . S
H932 C938 0.949 . S
C933 H928 0.950 . S
C933 C935 1.327 . S
C933 C939 1.429 . S
C934 C926 1.574 . S
C934 H929 0.949 . S
C934 C940 1.368 . S
C935 C919 1.349 . S
C935 H927 0.950 . S
C935 C933 1.327 . S
C936 C924 1.349 . S
C936 H930 0.950 . S
C936 C937 1.327 . S
C937 H931 0.950 . S
C937 C936 1.327 . S
C937 C941 1.429 . S
C938 C921 1.574 . S
C938 H932 0.949 . S
C938 C942 1.368 . S
C939 C920 1.429 . S
C939 C933 1.429 . S
C939 C940 1.523 . S
C940 C921 1.368 . S
C940 C934 1.368 . S
C940 C939 1.523 . S
C941 C925 1.429 . S
C941 C937 1.429 . S
C941 C942 1.523 . S
C942 C926 1.368 . S
C942 C938 1.368 . S
C942 C941 1.523 . S
H943 C918 0.950 . S
H944 C920 0.950 . S
H945 C921 0.949 . S
H946 C923 0.950 . S
H947 C925 0.950 . S
C948 C949 1.349 . S
C948 C950 1.327 . S
C948 H973 0.950 1_556 S
C949 C948 1.349 . S
C949 C965 1.351 . S
C950 C948 1.327 . S
C950 C969 1.429 . S
C950 H974 0.950 . S
C951 C968 1.574 . S
C951 C970 1.368 . S
C951 H975 0.949 . S
H952 C956 0.949 . S
C953 C954 1.349 . S
C953 C955 1.327 . S
C953 H976 0.950 . S
C954 C953 1.349 . S
C954 C966 1.349 . S
C955 C953 1.327 . S
C955 C971 1.429 . S
C955 H977 0.950 . S
C956 H952 0.949 . S
C956 C964 1.574 . S
C956 C972 1.368 . S
H957 C965 0.950 . S
H958 C963 0.950 . S
H959 C964 0.949 . S
H960 C966 0.950 . S
H961 C967 0.950 . S
H962 C968 0.949 . S
C963 H958 0.950 . S
C963 C965 1.327 . S
C963 C969 1.429 . S
C964 C956 1.574 . S
C964 H959 0.949 . S
C964 C970 1.368 . S
C965 C949 1.351 . S
C965 H957 0.950 . S
C965 C963 1.327 . S
C966 C954 1.349 . S
C966 H960 0.950 . S
C966 C967 1.327 . S
C967 H961 0.950 . S
C967 C966 1.327 . S
C967 C971 1.429 . S
C968 C951 1.574 . S
C968 H962 0.949 . S
C968 C972 1.368 . S
C969 C950 1.429 . S
C969 C963 1.429 . S
C969 C970 1.523 . S
C970 C951 1.368 . S
C970 C964 1.368 . S
C970 C969 1.523 . S
C971 C955 1.429 . S
C971 C967 1.429 . S
C971 C972 1.523 . S
C972 C956 1.368 . S
C972 C968 1.368 . S
C972 C971 1.523 . S
H973 C948 0.950 1_554 S
H974 C950 0.950 . S
H975 C951 0.949 . S
H976 C953 0.950 . S
H977 C955 0.950 . S
C978 C979 1.349 . S
C978 C980 1.327 . S
C978 H1003 0.950 . S
C979 C978 1.349 . S
C979 C995 1.349 . S
C980 C978 1.327 . S
C980 C999 1.429 . S
C980 H1004 0.950 . S
C981 C998 1.574 . S
C981 C1000 1.368 . S
C981 H1005 0.949 . S
H982 C986 0.949 . S
C983 C984 1.349 . S
C983 C985 1.327 . S
C983 H1006 0.950 . S
C984 C983 1.349 . S
C984 C996 1.349 . S
C985 C983 1.327 . S
C985 C1001 1.429 . S
C985 H1007 0.950 . S
C986 H982 0.949 . S
C986 C994 1.574 . S
C986 C1002 1.368 . S
H987 C995 0.950 . S
H988 C993 0.950 . S
H989 C994 0.949 . S
H990 C996 0.950 . S
H991 C997 0.950 . S
H992 C998 0.949 . S
C993 H988 0.950 . S
C993 C995 1.327 . S
C993 C999 1.429 . S
C994 C986 1.574 . S
C994 H989 0.949 . S
C994 C1000 1.368 . S
C995 C979 1.349 . S
C995 H987 0.950 . S
C995 C993 1.327 . S
C996 C984 1.349 . S
C996 H990 0.950 . S
C996 C997 1.327 . S
C997 H991 0.950 . S
C997 C996 1.327 . S
C997 C1001 1.429 . S
C998 C981 1.574 . S
C998 H992 0.949 . S
C998 C1002 1.368 . S
C999 C980 1.429 . S
C999 C993 1.429 . S
C999 C1000 1.523 . S
C1000 C981 1.368 . S
C1000 C994 1.368 . S
C1000 C999 1.523 . S
C1001 C985 1.429 . S
C1001 C997 1.429 . S
C1001 C1002 1.523 . S
C1002 C986 1.368 . S
C1002 C998 1.368 . S
C1002 C1001 1.523 . S
H1003 C978 0.950 . S
H1004 C980 0.950 . S
H1005 C981 0.949 . S
H1006 C983 0.950 . S
H1007 C985 0.950 . S
C1008 C1009 1.349 . S
C1008 C1010 1.327 . S
C1008 H1033 0.950 . S
C1009 C1008 1.349 . S
C1009 C1025 1.349 . S
C1010 C1008 1.327 . S
C1010 C1029 1.429 . S
C1010 H1034 0.950 . S
C1011 C1028 1.574 . S
C1011 C1030 1.368 . S
C1011 H1035 0.949 . S
H1012 C1016 0.949 . S
C1013 C1014 1.349 . S
C1013 C1015 1.327 . S
C1013 H1036 0.950 . S
C1014 C1013 1.349 . S
C1014 C1026 1.349 . S
C1015 C1013 1.327 . S
C1015 C1031 1.429 . S
C1015 H1037 0.950 . S
C1016 H1012 0.949 . S
C1016 C1024 1.574 . S
C1016 C1032 1.368 . S
H1017 C1025 0.945 1_554 S
H1018 C1023 0.950 . S
H1019 C1024 0.949 . S
H1020 C1026 0.950 . S
H1021 C1027 0.950 . S
H1022 C1028 0.949 . S
C1023 H1018 0.950 . S
C1023 C1025 1.327 . S
C1023 C1029 1.429 . S
C1024 C1016 1.574 . S
C1024 H1019 0.949 . S
C1024 C1030 1.368 . S
C1025 C1009 1.349 . S
C1025 H1017 0.945 1_556 S
C1025 C1023 1.327 . S
C1026 C1014 1.349 . S
C1026 H1020 0.950 . S
C1026 C1027 1.327 . S
C1027 H1021 0.950 . S
C1027 C1026 1.327 . S
C1027 C1031 1.429 . S
C1028 C1011 1.574 . S
C1028 H1022 0.949 . S
C1028 C1032 1.368 . S
C1029 C1010 1.429 . S
C1029 C1023 1.429 . S
C1029 C1030 1.523 . S
C1030 C1011 1.368 . S
C1030 C1024 1.368 . S
C1030 C1029 1.523 . S
C1031 C1015 1.429 . S
C1031 C1027 1.429 . S
C1031 C1032 1.523 . S
C1032 C1016 1.368 . S
C1032 C1028 1.368 . S
C1032 C1031 1.523 . S
H1033 C1008 0.950 . S
H1034 C1010 0.950 . S
H1035 C1011 0.949 . S
H1036 C1013 0.950 . S
H1037 C1015 0.950 . S
C1038 C1039 1.349 . S
C1038 C1040 1.327 . S
C1038 H1063 0.950 . S
C1039 C1038 1.349 . S
C1039 C1055 1.349 . S
C1040 C1038 1.327 . S
C1040 C1059 1.429 . S
C1040 H1064 0.950 . S
C1041 C1058 1.574 . S
C1041 C1060 1.368 . S
C1041 H1065 0.949 . S
H1042 C1046 0.949 . S
C1043 C1044 1.349 . S
C1043 C1045 1.327 . S
C1043 H1066 0.950 . S
C1044 C1043 1.349 . S
C1044 C1056 1.349 . S
C1045 C1043 1.327 . S
C1045 C1061 1.429 . S
C1045 H1067 0.950 . S
C1046 H1042 0.949 . S
C1046 C1054 1.574 . S
C1046 C1062 1.368 . S
H1047 C1055 0.950 . S
H1048 C1053 0.950 . S
H1049 C1054 0.949 . S
H1050 C1056 0.950 . S
H1051 C1057 0.950 . S
H1052 C1058 0.949 . S
C1053 H1048 0.950 . S
C1053 C1055 1.327 . S
C1053 C1059 1.429 . S
C1054 C1046 1.574 . S
C1054 H1049 0.949 . S
C1054 C1060 1.368 . S
C1055 C1039 1.349 . S
C1055 H1047 0.950 . S
C1055 C1053 1.327 . S
C1056 C1044 1.349 . S
C1056 H1050 0.950 . S
C1056 C1057 1.327 . S
C1057 H1051 0.950 . S
C1057 C1056 1.327 . S
C1057 C1061 1.429 . S
C1058 C1041 1.574 . S
C1058 H1052 0.949 . S
C1058 C1062 1.368 . S
C1059 C1040 1.429 . S
C1059 C1053 1.429 . S
C1059 C1060 1.523 . S
C1060 C1041 1.368 . S
C1060 C1054 1.368 . S
C1060 C1059 1.523 . S
C1061 C1045 1.429 . S
C1061 C1057 1.429 . S
C1061 C1062 1.523 . S
C1062 C1046 1.368 . S
C1062 C1058 1.368 . S
C1062 C1061 1.523 . S
H1063 C1038 0.950 . S
H1064 C1040 0.950 . S
H1065 C1041 0.949 . S
H1066 C1043 0.950 . S
H1067 C1045 0.950 . S
C1068 C1069 1.348 1_554 S
C1068 C1070 1.327 . S
C1068 H1093 0.950 . S
C1069 C1068 1.348 1_556 S
C1069 C1085 1.348 1_556 S
C1070 C1068 1.327 . S
C1070 C1089 1.429 . S
C1070 H1094 0.950 . S
C1071 C1088 1.574 . S
C1071 C1090 1.368 . S
C1071 H1095 0.949 . S
H1072 C1076 0.949 . S
C1073 C1074 1.349 . S
C1073 C1075 1.327 . S
C1073 H1096 0.950 . S
C1074 C1073 1.349 . S
C1074 C1086 1.349 . S
C1075 C1073 1.327 . S
C1075 C1091 1.429 . S
C1075 H1097 0.950 . S
C1076 H1072 0.949 . S
C1076 C1084 1.574 . S
C1076 C1092 1.368 . S
H1077 C1085 0.950 1_556 S
H1078 C1083 0.950 . S
H1079 C1084 0.949 . S
H1080 C1086 0.950 . S
H1081 C1087 0.950 . S
H1082 C1088 0.949 . S
C1083 H1078 0.950 . S
C1083 C1085 1.327 . S
C1083 C1089 1.429 . S
C1084 C1076 1.574 . S
C1084 H1079 0.949 . S
C1084 C1090 1.368 . S
C1085 C1069 1.348 1_554 S
C1085 H1077 0.950 1_554 S
C1085 C1083 1.327 . S
C1086 C1074 1.349 . S
C1086 H1080 0.950 . S
C1086 C1087 1.327 . S
C1087 H1081 0.950 . S
C1087 C1086 1.327 . S
C1087 C1091 1.429 . S
C1088 C1071 1.574 . S
C1088 H1082 0.949 . S
C1088 C1092 1.368 . S
C1089 C1070 1.429 . S
C1089 C1083 1.429 . S
C1089 C1090 1.523 . S
C1090 C1071 1.368 . S
C1090 C1084 1.368 . S
C1090 C1089 1.523 . S
C1091 C1075 1.429 . S
C1091 C1087 1.429 . S
C1091 C1092 1.523 . S
C1092 C1076 1.368 . S
C1092 C1088 1.368 . S
C1092 C1091 1.523 . S
H1093 C1068 0.950 . S
H1094 C1070 0.950 . S
H1095 C1071 0.949 . S
H1096 C1073 0.950 . S
H1097 C1075 0.950 . S
C1098 C1099 1.349 . S
C1098 C1100 1.327 . S
C1098 H1123 0.950 . S
C1099 C1098 1.349 . S
C1099 C1115 1.349 . S
C1100 C1098 1.327 . S
C1100 C1119 1.429 . S
C1100 H1124 0.950 . S
C1101 C1118 1.574 . S
C1101 C1120 1.368 . S
C1101 H1125 0.949 . S
H1102 C1106 0.949 . S
C1103 C1104 1.349 . S
C1103 C1105 1.327 . S
C1103 H1126 0.950 . S
C1104 C1103 1.349 . S
C1104 C1116 1.349 . S
C1105 C1103 1.327 . S
C1105 C1121 1.429 . S
C1105 H1127 0.950 . S
C1106 H1102 0.949 . S
C1106 C1114 1.574 . S
C1106 C1122 1.368 . S
H1107 C1115 0.950 . S
H1108 C1113 0.950 . S
H1109 C1114 0.949 . S
H1110 C1116 0.950 . S
H1111 C1117 0.950 . S
H1112 C1118 0.949 . S
C1113 H1108 0.950 . S
C1113 C1115 1.327 . S
C1113 C1119 1.429 . S
C1114 C1106 1.574 . S
C1114 H1109 0.949 . S
C1114 C1120 1.368 . S
C1115 C1099 1.349 . S
C1115 H1107 0.950 . S
C1115 C1113 1.327 . S
C1116 C1104 1.349 . S
C1116 H1110 0.950 . S
C1116 C1117 1.327 . S
C1117 H1111 0.950 . S
C1117 C1116 1.327 . S
C1117 C1121 1.429 . S
C1118 C1101 1.574 . S
C1118 H1112 0.949 . S
C1118 C1122 1.368 . S
C1119 C1100 1.429 . S
C1119 C1113 1.429 . S
C1119 C1120 1.523 . S
C1120 C1101 1.368 . S
C1120 C1114 1.368 . S
C1120 C1119 1.523 . S
C1121 C1105 1.429 . S
C1121 C1117 1.429 . S
C1121 C1122 1.523 . S
C1122 C1106 1.368 . S
C1122 C1118 1.368 . S
C1122 C1121 1.523 . S
H1123 C1098 0.950 . S
H1124 C1100 0.950 . S
H1125 C1101 0.949 . S
H1126 C1103 0.950 . S
H1127 C1105 0.950 . S
C1128 C1129 1.349 . S
C1128 C1130 1.327 . S
C1128 H1153 0.950 . S
C1129 C1128 1.349 . S
C1129 C1145 1.349 . S
C1130 C1128 1.327 . S
C1130 C1149 1.429 . S
C1130 H1154 0.950 . S
C1131 C1148 1.574 . S
C1131 C1150 1.368 . S
C1131 H1155 0.949 . S
H1132 C1136 0.949 . S
C1133 C1134 1.349 . S
C1133 C1135 1.327 . S
C1133 H1156 0.950 . S
C1134 C1133 1.349 . S
C1134 C1146 1.349 . S
C1135 C1133 1.327 . S
C1135 C1151 1.429 . S
C1135 H1157 0.950 . S
C1136 H1132 0.949 . S
C1136 C1144 1.574 . S
C1136 C1152 1.368 . S
H1137 C1145 0.950 . S
H1138 C1143 0.950 . S
H1139 C1144 0.949 . S
H1140 C1146 0.950 . S
H1141 C1147 0.950 . S
H1142 C1148 0.949 . S
C1143 H1138 0.950 . S
C1143 C1145 1.327 . S
C1143 C1149 1.429 . S
C1144 C1136 1.574 . S
C1144 H1139 0.949 . S
C1144 C1150 1.368 . S
C1145 C1129 1.349 . S
C1145 H1137 0.950 . S
C1145 C1143 1.327 . S
C1146 C1134 1.349 . S
C1146 H1140 0.950 . S
C1146 C1147 1.327 . S
C1147 H1141 0.950 . S
C1147 C1146 1.327 . S
C1147 C1151 1.429 . S
C1148 C1131 1.574 . S
C1148 H1142 0.949 . S
C1148 C1152 1.368 . S
C1149 C1130 1.429 . S
C1149 C1143 1.429 . S
C1149 C1150 1.523 . S
C1150 C1131 1.368 . S
C1150 C1144 1.368 . S
C1150 C1149 1.523 . S
C1151 C1135 1.429 . S
C1151 C1147 1.429 . S
C1151 C1152 1.523 . S
C1152 C1136 1.368 . S
C1152 C1148 1.368 . S
C1152 C1151 1.523 . S
H1153 C1128 0.950 . S
H1154 C1130 0.950 . S
H1155 C1131 0.949 . S
H1156 C1133 0.950 . S
H1157 C1135 0.950 . S
C1158 C1159 1.349 . S
C1158 C1160 1.327 . S
C1158 H1183 0.950 . S
C1159 C1158 1.349 . S
C1159 C1175 1.349 . S
C1160 C1158 1.327 . S
C1160 C1179 1.429 . S
C1160 H1184 0.950 . S
C1161 C1178 1.574 . S
C1161 C1180 1.368 . S
C1161 H1185 0.949 . S
H1162 C1166 0.949 . S
C1163 C1164 1.349 . S
C1163 C1165 1.327 . S
C1163 H1186 0.950 . S
C1164 C1163 1.349 . S
C1164 C1176 1.349 . S
C1165 C1163 1.327 . S
C1165 C1181 1.429 . S
C1165 H1187 0.950 . S
C1166 H1162 0.949 . S
C1166 C1174 1.574 . S
C1166 C1182 1.368 . S
H1167 C1175 0.950 . S
H1168 C1173 0.950 . S
H1169 C1174 0.949 . S
H1170 C1176 0.950 . S
H1171 C1177 0.950 . S
H1172 C1178 0.949 . S
C1173 H1168 0.950 . S
C1173 C1175 1.327 . S
C1173 C1179 1.429 . S
C1174 C1166 1.574 . S
C1174 H1169 0.949 . S
C1174 C1180 1.368 . S
C1175 C1159 1.349 . S
C1175 H1167 0.950 . S
C1175 C1173 1.327 . S
C1176 C1164 1.349 . S
C1176 H1170 0.950 . S
C1176 C1177 1.327 . S
C1177 H1171 0.950 . S
C1177 C1176 1.327 . S
C1177 C1181 1.429 . S
C1178 C1161 1.574 . S
C1178 H1172 0.949 . S
C1178 C1182 1.368 . S
C1179 C1160 1.429 . S
C1179 C1173 1.429 . S
C1179 C1180 1.523 . S
C1180 C1161 1.368 . S
C1180 C1174 1.368 . S
C1180 C1179 1.523 . S
C1181 C1165 1.429 . S
C1181 C1177 1.429 . S
C1181 C1182 1.523 . S
C1182 C1166 1.368 . S
C1182 C1178 1.368 . S
C1182 C1181 1.523 . S
H1183 C1158 0.950 . S
H1184 C1160 0.950 . S
H1185 C1161 0.949 . S
H1186 C1163 0.950 . S
H1187 C1165 0.950 . S
C1188 C1189 1.349 . S
C1188 C1190 1.327 . S
C1188 H1213 0.950 . S
C1189 C1188 1.349 . S
C1189 C1205 1.349 . S
C1190 C1188 1.327 . S
C1190 C1209 1.429 . S
C1190 H1214 0.950 . S
C1191 C1208 1.574 . S
C1191 C1210 1.368 . S
C1191 H1215 0.949 . S
H1192 C1196 0.949 . S
C1193 C1194 1.349 . S
C1193 C1195 1.327 . S
C1193 H1216 0.950 . S
C1194 C1193 1.349 . S
C1194 C1206 1.349 . S
C1195 C1193 1.327 . S
C1195 C1211 1.429 . S
C1195 H1217 0.950 . S
C1196 H1192 0.949 . S
C1196 C1204 1.574 . S
C1196 C1212 1.368 . S
H1197 C1205 0.950 . S
H1198 C1203 0.950 . S
H1199 C1204 0.949 . S
H1200 C1206 0.950 . S
H1201 C1207 0.950 . S
H1202 C1208 0.949 . S
C1203 H1198 0.950 . S
C1203 C1205 1.327 . S
C1203 C1209 1.429 . S
C1204 C1196 1.574 . S
C1204 H1199 0.949 . S
C1204 C1210 1.368 . S
C1205 C1189 1.349 . S
C1205 H1197 0.950 . S
C1205 C1203 1.327 . S
C1206 C1194 1.349 . S
C1206 H1200 0.950 . S
C1206 C1207 1.327 . S
C1207 H1201 0.950 . S
C1207 C1206 1.327 . S
C1207 C1211 1.429 . S
C1208 C1191 1.574 . S
C1208 H1202 0.949 . S
C1208 C1212 1.368 . S
C1209 C1190 1.429 . S
C1209 C1203 1.429 . S
C1209 C1210 1.523 . S
C1210 C1191 1.368 . S
C1210 C1204 1.368 . S
C1210 C1209 1.523 . S
C1211 C1195 1.429 . S
C1211 C1207 1.429 . S
C1211 C1212 1.523 . S
C1212 C1196 1.368 . S
C1212 C1208 1.368 . S
C1212 C1211 1.523 . S
H1213 C1188 0.950 . S
H1214 C1190 0.950 . S
H1215 C1191 0.949 . S
H1216 C1193 0.950 . S
H1217 C1195 0.950 . S
C1218 C1219 1.349 . S
C1218 C1220 1.327 . S
C1218 H1243 0.950 . S
C1219 C1218 1.349 . S
C1219 C1235 1.349 . S
C1220 C1218 1.327 . S
C1220 C1239 1.429 . S
C1220 H1244 0.950 . S
C1221 C1238 1.574 . S
C1221 C1240 1.368 . S
C1221 H1245 0.949 . S
H1222 C1226 0.949 . S
C1223 C1224 1.349 . S
C1223 C1225 1.327 . S
C1223 H1246 0.950 . S
C1224 C1223 1.349 . S
C1224 C1236 1.349 . S
C1225 C1223 1.327 . S
C1225 C1241 1.429 . S
C1225 H1247 0.950 . S
C1226 H1222 0.949 . S
C1226 C1234 1.574 . S
C1226 C1242 1.368 . S
H1227 C1235 0.950 . S
H1228 C1233 0.950 . S
H1229 C1234 0.949 . S
H1230 C1236 0.950 . S
H1231 C1237 0.950 . S
H1232 C1238 0.949 . S
C1233 H1228 0.950 . S
C1233 C1235 1.327 . S
C1233 C1239 1.429 . S
C1234 C1226 1.574 . S
C1234 H1229 0.949 . S
C1234 C1240 1.368 . S
C1235 C1219 1.349 . S
C1235 H1227 0.950 . S
C1235 C1233 1.327 . S
C1236 C1224 1.349 . S
C1236 H1230 0.950 . S
C1236 C1237 1.327 . S
C1237 H1231 0.950 . S
C1237 C1236 1.327 . S
C1237 C1241 1.429 . S
C1238 C1221 1.574 . S
C1238 H1232 0.949 . S
C1238 C1242 1.368 . S
C1239 C1220 1.429 . S
C1239 C1233 1.429 . S
C1239 C1240 1.523 . S
C1240 C1221 1.368 . S
C1240 C1234 1.368 . S
C1240 C1239 1.523 . S
C1241 C1225 1.429 . S
C1241 C1237 1.429 . S
C1241 C1242 1.523 . S
C1242 C1226 1.368 . S
C1242 C1238 1.368 . S
C1242 C1241 1.523 . S
H1243 C1218 0.950 . S
H1244 C1220 0.950 . S
H1245 C1221 0.949 . S
H1246 C1223 0.950 . S
H1247 C1225 0.950 . S
C1248 C1249 1.349 . S
C1248 C1250 1.327 . S
C1248 H1273 0.950 . S
C1249 C1248 1.349 . S
C1249 C1265 1.349 . S
C1250 C1248 1.327 . S
C1250 C1269 1.429 . S
C1250 H1274 0.950 . S
C1251 C1268 1.574 . S
C1251 C1270 1.368 . S
C1251 H1275 0.949 . S
H1252 C1256 0.949 . S
C1253 C1254 1.349 . S
C1253 C1255 1.327 . S
C1253 H1276 0.950 . S
C1254 C1253 1.349 . S
C1254 C1266 1.349 . S
C1255 C1253 1.327 . S
C1255 C1271 1.429 . S
C1255 H1277 0.950 . S
C1256 H1252 0.949 . S
C1256 C1264 1.574 . S
C1256 C1272 1.368 . S
H1257 C1265 0.950 . S
H1258 C1263 0.950 . S
H1259 C1264 0.949 . S
H1260 C1266 0.950 . S
H1261 C1267 0.950 . S
H1262 C1268 0.949 . S
C1263 H1258 0.950 . S
C1263 C1265 1.327 . S
C1263 C1269 1.429 . S
C1264 C1256 1.574 . S
C1264 H1259 0.949 . S
C1264 C1270 1.368 . S
C1265 C1249 1.349 . S
C1265 H1257 0.950 . S
C1265 C1263 1.327 . S
C1266 C1254 1.349 . S
C1266 H1260 0.950 . S
C1266 C1267 1.327 . S
C1267 H1261 0.950 . S
C1267 C1266 1.327 . S
C1267 C1271 1.429 . S
C1268 C1251 1.574 . S
C1268 H1262 0.949 . S
C1268 C1272 1.368 . S
C1269 C1250 1.429 . S
C1269 C1263 1.429 . S
C1269 C1270 1.523 . S
C1270 C1251 1.368 . S
C1270 C1264 1.368 . S
C1270 C1269 1.523 . S
C1271 C1255 1.429 . S
C1271 C1267 1.429 . S
C1271 C1272 1.523 . S
C1272 C1256 1.368 . S
C1272 C1268 1.368 . S
C1272 C1271 1.523 . S
H1273 C1248 0.950 . S
H1274 C1250 0.950 . S
H1275 C1251 0.949 . S
H1276 C1253 0.950 . S
H1277 C1255 0.950 . S
C1278 C1279 1.349 . S
C1278 C1280 1.327 . S
C1278 H1303 0.950 . S
C1279 C1278 1.349 . S
C1279 C1295 1.349 . S
C1280 C1278 1.327 . S
C1280 C1299 1.429 . S
C1280 H1304 0.950 . S
C1281 C1298 1.574 . S
C1281 C1300 1.368 . S
C1281 H1305 0.949 . S
H1282 C1286 0.949 . S
C1283 C1284 1.349 . S
C1283 C1285 1.327 . S
C1283 H1306 0.950 . S
C1284 C1283 1.349 . S
C1284 C1296 1.349 . S
C1285 C1283 1.327 . S
C1285 C1301 1.429 . S
C1285 H1307 0.950 . S
C1286 H1282 0.949 . S
C1286 C1294 1.574 . S
C1286 C1302 1.368 . S
H1287 C1295 0.950 . S
H1288 C1293 0.950 . S
H1289 C1294 0.949 . S
H1290 C1296 0.950 . S
H1291 C1297 0.950 . S
H1292 C1298 0.949 . S
C1293 H1288 0.950 . S
C1293 C1295 1.327 . S
C1293 C1299 1.429 . S
C1294 C1286 1.574 . S
C1294 H1289 0.949 . S
C1294 C1300 1.368 . S
C1295 C1279 1.349 . S
C1295 H1287 0.950 . S
C1295 C1293 1.327 . S
C1296 C1284 1.349 . S
C1296 H1290 0.950 . S
C1296 C1297 1.327 . S
C1297 H1291 0.950 . S
C1297 C1296 1.327 . S
C1297 C1301 1.429 . S
C1298 C1281 1.574 . S
C1298 H1292 0.949 . S
C1298 C1302 1.368 . S
C1299 C1280 1.429 . S
C1299 C1293 1.429 . S
C1299 C1300 1.523 . S
C1300 C1281 1.368 . S
C1300 C1294 1.368 . S
C1300 C1299 1.523 . S
C1301 C1285 1.429 . S
C1301 C1297 1.429 . S
C1301 C1302 1.523 . S
C1302 C1286 1.368 . S
C1302 C1298 1.368 . S
C1302 C1301 1.523 . S
H1303 C1278 0.950 . S
H1304 C1280 0.950 . S
H1305 C1281 0.949 . S
H1306 C1283 0.950 . S
H1307 C1285 0.950 . S
C1308 C1309 1.349 . S
C1308 C1310 1.327 . S
C1308 H1333 0.950 . S
C1309 C1308 1.349 . S
C1309 C1325 1.349 . S
C1310 C1308 1.327 . S
C1310 C1329 1.429 . S
C1310 H1334 0.950 . S
C1311 C1328 1.574 . S
C1311 C1330 1.368 . S
C1311 H1335 0.949 . S
H1312 C1316 0.949 . S
C1313 C1314 1.349 . S
C1313 C1315 1.327 . S
C1313 H1336 0.950 . S
C1314 C1313 1.349 . S
C1314 C1326 1.349 . S
C1315 C1313 1.327 . S
C1315 C1331 1.429 . S
C1315 H1337 0.950 . S
C1316 H1312 0.949 . S
C1316 C1324 1.574 . S
C1316 C1332 1.368 . S
H1317 C1325 0.950 . S
H1318 C1323 0.950 . S
H1319 C1324 0.949 . S
H1320 C1326 0.950 . S
H1321 C1327 0.950 . S
H1322 C1328 0.949 . S
C1323 H1318 0.950 . S
C1323 C1325 1.327 . S
C1323 C1329 1.429 . S
C1324 C1316 1.574 . S
C1324 H1319 0.949 . S
C1324 C1330 1.368 . S
C1325 C1309 1.349 . S
C1325 H1317 0.950 . S
C1325 C1323 1.327 . S
C1326 C1314 1.349 . S
C1326 H1320 0.950 . S
C1326 C1327 1.327 . S
C1327 H1321 0.950 . S
C1327 C1326 1.327 . S
C1327 C1331 1.429 . S
C1328 C1311 1.574 . S
C1328 H1322 0.949 . S
C1328 C1332 1.368 . S
C1329 C1310 1.429 . S
C1329 C1323 1.429 . S
C1329 C1330 1.523 . S
C1330 C1311 1.368 . S
C1330 C1324 1.368 . S
C1330 C1329 1.523 . S
C1331 C1315 1.429 . S
C1331 C1327 1.429 . S
C1331 C1332 1.523 . S
C1332 C1316 1.368 . S
C1332 C1328 1.368 . S
C1332 C1331 1.523 . S
H1333 C1308 0.950 . S
H1334 C1310 0.950 . S
H1335 C1311 0.949 . S
H1336 C1313 0.950 . S
H1337 C1315 0.950 . S
C1338 C1339 1.349 . S
C1338 C1340 1.327 . S
C1338 H1363 0.950 . S
C1339 C1338 1.349 . S
C1339 C1355 1.349 . S
C1340 C1338 1.327 . S
C1340 C1359 1.429 . S
C1340 H1364 0.950 . S
C1341 C1358 1.574 . S
C1341 C1360 1.368 . S
C1341 H1365 0.949 . S
H1342 C1346 0.949 . S
C1343 C1344 1.349 . S
C1343 C1345 1.327 . S
C1343 H1366 0.950 . S
C1344 C1343 1.349 . S
C1344 C1356 1.349 . S
C1345 C1343 1.327 . S
C1345 C1361 1.429 . S
C1345 H1367 0.950 . S
C1346 H1342 0.949 . S
C1346 C1354 1.574 . S
C1346 C1362 1.368 . S
H1347 C1355 0.950 . S
H1348 C1353 0.950 . S
H1349 C1354 0.949 . S
H1350 C1356 0.950 . S
H1351 C1357 0.950 . S
H1352 C1358 0.949 . S
C1353 H1348 0.950 . S
C1353 C1355 1.327 . S
C1353 C1359 1.429 . S
C1354 C1346 1.574 . S
C1354 H1349 0.949 . S
C1354 C1360 1.368 . S
C1355 C1339 1.349 . S
C1355 H1347 0.950 . S
C1355 C1353 1.327 . S
C1356 C1344 1.349 . S
C1356 H1350 0.950 . S
C1356 C1357 1.327 . S
C1357 H1351 0.950 . S
C1357 C1356 1.327 . S
C1357 C1361 1.429 . S
C1358 C1341 1.574 . S
C1358 H1352 0.949 . S
C1358 C1362 1.368 . S
C1359 C1340 1.429 . S
C1359 C1353 1.429 . S
C1359 C1360 1.523 . S
C1360 C1341 1.368 . S
C1360 C1354 1.368 . S
C1360 C1359 1.523 . S
C1361 C1345 1.429 . S
C1361 C1357 1.429 . S
C1361 C1362 1.523 . S
C1362 C1346 1.368 . S
C1362 C1358 1.368 . S
C1362 C1361 1.523 . S
H1363 C1338 0.950 . S
H1364 C1340 0.950 . S
H1365 C1341 0.949 . S
H1366 C1343 0.950 . S
H1367 C1345 0.950 . S
C649 C235 1.474 . S
C654 C368 1.458 . S
C684 C452 1.455 . S
C679 C289 1.472 . S
C714 C451 1.464 . S
C709 C157 1.462 . S
C739 C211 1.460 . S
C744 C367 1.461 . S
C774 C548 1.457 . S
C769 C79 1.475 . S
C804 C632 1.461 . S
C799 C118 1.479 . S
C829 C1 1.463 . S
C834 C631 1.462 . S
C859 C40 1.466 . S
C864 C547 1.466 . S
C894 C370 1.339 . S
C889 C55 1.514 1_554 S
C924 C454 1.340 . S
C919 C16 1.514 . S
C954 C466 1.405 . S
C949 C133 1.539 1_556 S
C984 C382 1.405 . S
C979 C94 1.542 . S
C1014 C550 1.344 . S
C1009 C196 1.521 1_556 S
C1039 C172 1.520 . S
C1044 C634 1.344 . S
C1074 C622 1.409 . S
C1069 C274 1.551 . S
C1099 C250 1.548 . S
C1104 C538 1.409 . S
C1134 C379 1.592 . S
C1129 C21 1.590 . S
C1164 C463 1.596 . S
C1159 C60 1.595 . S
C1189 C99 1.577 . S
C1194 C464 1.563 . S
C1224 C380 1.567 . S
C1219 C138 1.581 . S
C1254 C535 1.600 . S
C1249 C177 1.594 . S
C1279 C216 1.593 . S
C1284 C619 1.598 . S
C1309 C255 1.581 . S
C1314 C620 1.571 . S
C1339 C294 1.579 . S
C1344 C536 1.569 . S
