# Generated by pormake.
# Topology eea, (3,6)-cn, num edge types: 1
# Building blocks:
#     Node 0, Type 0, BuildingBlock: VETTIZ_charged_linker_0, # of connection points: 3
#     Node 1, Type 0, BuildingBlock: VETTIZ_charged_linker_0, # of connection points: 3
#     Node 2, Type 0, BuildingBlock: VETTIZ_charged_linker_0, # of connection points: 3
#     Node 3, Type 0, BuildingBlock: VETTIZ_charged_linker_0, # of connection points: 3
#     Node 4, Type 0, BuildingBlock: VETTIZ_charged_linker_0, # of connection points: 3
#     Node 5, Type 0, BuildingBlock: VETTIZ_charged_linker_0, # of connection points: 3
#     Node 6, Type 0, BuildingBlock: VETTIZ_charged_linker_0, # of connection points: 3
#     Node 7, Type 0, BuildingBlock: VETTIZ_charged_linker_0, # of connection points: 3
#     Node 8, Type 0, BuildingBlock: VETTIZ_charged_linker_0, # of connection points: 3
#     Node 9, Type 0, BuildingBlock: VETTIZ_charged_linker_0, # of connection points: 3
#     Node 10, Type 0, BuildingBlock: VETTIZ_charged_linker_0, # of connection points: 3
#     Node 11, Type 0, BuildingBlock: VETTIZ_charged_linker_0, # of connection points: 3
#     Node 12, Type 0, BuildingBlock: VETTIZ_charged_linker_0, # of connection points: 3
#     Node 13, Type 0, BuildingBlock: VETTIZ_charged_linker_0, # of connection points: 3
#     Node 14, Type 0, BuildingBlock: VETTIZ_charged_linker_0, # of connection points: 3
#     Node 15, Type 0, BuildingBlock: VETTIZ_charged_linker_0, # of connection points: 3
#     Node 16, Type 0, BuildingBlock: VETTIZ_charged_linker_0, # of connection points: 3
#     Node 17, Type 0, BuildingBlock: VETTIZ_charged_linker_0, # of connection points: 3
#     Node 18, Type 1, BuildingBlock: HISSIN_clean_sbu_0, # of connection points: 6
#     Node 19, Type 1, BuildingBlock: HISSIN_clean_sbu_0, # of connection points: 6
#     Node 20, Type 1, BuildingBlock: HISSIN_clean_sbu_0, # of connection points: 6
#     Node 21, Type 1, BuildingBlock: HISSIN_clean_sbu_0, # of connection points: 6
#     Node 22, Type 1, BuildingBlock: HISSIN_clean_sbu_0, # of connection points: 6
#     Node 23, Type 1, BuildingBlock: HISSIN_clean_sbu_0, # of connection points: 6
#     Node 24, Type 1, BuildingBlock: HISSIN_clean_sbu_0, # of connection points: 6
#     Node 25, Type 1, BuildingBlock: HISSIN_clean_sbu_0, # of connection points: 6
#     Node 26, Type 1, BuildingBlock: HISSIN_clean_sbu_0, # of connection points: 6
#     Edge 27, Type (0, 1), BuildingBlock: MIFKUJ_clean_linker_0, # of connection points: 2
#     Edge 28, Type (0, 1), BuildingBlock: MIFKUJ_clean_linker_0, # of connection points: 2
#     Edge 29, Type (0, 1), BuildingBlock: MIFKUJ_clean_linker_0, # of connection points: 2
#     Edge 30, Type (0, 1), BuildingBlock: MIFKUJ_clean_linker_0, # of connection points: 2
#     Edge 31, Type (0, 1), BuildingBlock: MIFKUJ_clean_linker_0, # of connection points: 2
#     Edge 32, Type (0, 1), BuildingBlock: MIFKUJ_clean_linker_0, # of connection points: 2
#     Edge 33, Type (0, 1), BuildingBlock: MIFKUJ_clean_linker_0, # of connection points: 2
#     Edge 34, Type (0, 1), BuildingBlock: MIFKUJ_clean_linker_0, # of connection points: 2
#     Edge 35, Type (0, 1), BuildingBlock: MIFKUJ_clean_linker_0, # of connection points: 2
#     Edge 36, Type (0, 1), BuildingBlock: MIFKUJ_clean_linker_0, # of connection points: 2
#     Edge 37, Type (0, 1), BuildingBlock: MIFKUJ_clean_linker_0, # of connection points: 2
#     Edge 38, Type (0, 1), BuildingBlock: MIFKUJ_clean_linker_0, # of connection points: 2
#     Edge 39, Type (0, 1), BuildingBlock: MIFKUJ_clean_linker_0, # of connection points: 2
#     Edge 40, Type (0, 1), BuildingBlock: MIFKUJ_clean_linker_0, # of connection points: 2
#     Edge 41, Type (0, 1), BuildingBlock: MIFKUJ_clean_linker_0, # of connection points: 2
#     Edge 42, Type (0, 1), BuildingBlock: MIFKUJ_clean_linker_0, # of connection points: 2
#     Edge 43, Type (0, 1), BuildingBlock: MIFKUJ_clean_linker_0, # of connection points: 2
#     Edge 44, Type (0, 1), BuildingBlock: MIFKUJ_clean_linker_0, # of connection points: 2
#     Edge 45, Type (0, 1), BuildingBlock: MIFKUJ_clean_linker_0, # of connection points: 2
#     Edge 46, Type (0, 1), BuildingBlock: MIFKUJ_clean_linker_0, # of connection points: 2
#     Edge 47, Type (0, 1), BuildingBlock: MIFKUJ_clean_linker_0, # of connection points: 2
#     Edge 48, Type (0, 1), BuildingBlock: MIFKUJ_clean_linker_0, # of connection points: 2
#     Edge 49, Type (0, 1), BuildingBlock: MIFKUJ_clean_linker_0, # of connection points: 2
#     Edge 50, Type (0, 1), BuildingBlock: MIFKUJ_clean_linker_0, # of connection points: 2
#     Edge 51, Type (0, 1), BuildingBlock: MIFKUJ_clean_linker_0, # of connection points: 2
#     Edge 52, Type (0, 1), BuildingBlock: MIFKUJ_clean_linker_0, # of connection points: 2
#     Edge 53, Type (0, 1), BuildingBlock: MIFKUJ_clean_linker_0, # of connection points: 2
#     Edge 54, Type (0, 1), BuildingBlock: MIFKUJ_clean_linker_0, # of connection points: 2
#     Edge 55, Type (0, 1), BuildingBlock: MIFKUJ_clean_linker_0, # of connection points: 2
#     Edge 56, Type (0, 1), BuildingBlock: MIFKUJ_clean_linker_0, # of connection points: 2
#     Edge 57, Type (0, 1), BuildingBlock: MIFKUJ_clean_linker_0, # of connection points: 2
#     Edge 58, Type (0, 1), BuildingBlock: MIFKUJ_clean_linker_0, # of connection points: 2
#     Edge 59, Type (0, 1), BuildingBlock: MIFKUJ_clean_linker_0, # of connection points: 2
#     Edge 60, Type (0, 1), BuildingBlock: MIFKUJ_clean_linker_0, # of connection points: 2
#     Edge 61, Type (0, 1), BuildingBlock: MIFKUJ_clean_linker_0, # of connection points: 2
#     Edge 62, Type (0, 1), BuildingBlock: MIFKUJ_clean_linker_0, # of connection points: 2
#     Edge 63, Type (0, 1), BuildingBlock: MIFKUJ_clean_linker_0, # of connection points: 2
#     Edge 64, Type (0, 1), BuildingBlock: MIFKUJ_clean_linker_0, # of connection points: 2
#     Edge 65, Type (0, 1), BuildingBlock: MIFKUJ_clean_linker_0, # of connection points: 2
#     Edge 66, Type (0, 1), BuildingBlock: MIFKUJ_clean_linker_0, # of connection points: 2
#     Edge 67, Type (0, 1), BuildingBlock: MIFKUJ_clean_linker_0, # of connection points: 2
#     Edge 68, Type (0, 1), BuildingBlock: MIFKUJ_clean_linker_0, # of connection points: 2
#     Edge 69, Type (0, 1), BuildingBlock: MIFKUJ_clean_linker_0, # of connection points: 2
#     Edge 70, Type (0, 1), BuildingBlock: MIFKUJ_clean_linker_0, # of connection points: 2
#     Edge 71, Type (0, 1), BuildingBlock: MIFKUJ_clean_linker_0, # of connection points: 2
#     Edge 72, Type (0, 1), BuildingBlock: MIFKUJ_clean_linker_0, # of connection points: 2
#     Edge 73, Type (0, 1), BuildingBlock: MIFKUJ_clean_linker_0, # of connection points: 2
#     Edge 74, Type (0, 1), BuildingBlock: MIFKUJ_clean_linker_0, # of connection points: 2
#     Edge 75, Type (0, 1), BuildingBlock: MIFKUJ_clean_linker_0, # of connection points: 2
#     Edge 76, Type (0, 1), BuildingBlock: MIFKUJ_clean_linker_0, # of connection points: 2
#     Edge 77, Type (0, 1), BuildingBlock: MIFKUJ_clean_linker_0, # of connection points: 2
#     Edge 78, Type (0, 1), BuildingBlock: MIFKUJ_clean_linker_0, # of connection points: 2
#     Edge 79, Type (0, 1), BuildingBlock: MIFKUJ_clean_linker_0, # of connection points: 2
#     Edge 80, Type (0, 1), BuildingBlock: MIFKUJ_clean_linker_0, # of connection points: 2
# Relax obj value: 0.035
# Max RMSD: 0.136
# Mean RMSD: 0.066
data_MOF--net-eea--node1-HISSIN_clean_sbu_0--node2-VETTIZ_charged_linker_0--edge1-MIFKUJ_clean_linker_0
_symmetry_space_group_name_H-M    P1
_symmetry_Int_Tables_number       1
_symmetry_cell_setting            triclinic
loop_
_symmetry_equiv_pos_as_xyz
'x, y, z'
_cell_length_a     77.486283
_cell_length_b     77.641592
_cell_length_c     108.7974
_cell_angle_alpha  93.468002
_cell_angle_beta   93.439131
_cell_angle_gamma 119.7838
loop_
_atom_site_label
_atom_site_type_symbol
_atom_site_fract_x
_atom_site_fract_y
_atom_site_fract_z
_atom_type_partial_charge
C0 C 0.27392 0.19488 0.39151 0.0
C1 C 0.2764 0.21242 0.39785 0.0
C2 C 0.28545 0.21802 0.41016 0.0
C3 C 0.28779 0.18803 0.40991 0.0
C4 C 0.27965 0.18295 0.3977 0.0
C5 C 0.27684 0.16321 0.39254 0.0
H6 H 0.27723 0.0784 0.40263 0.0
C7 C 0.29063 0.17168 0.41391 0.0
C8 C 0.28436 0.15715 0.40374 0.0
H9 H 0.25986 0.09392 0.36837 0.0
H10 H 0.26937 0.12653 0.37823 0.0
H11 H 0.31803 0.12106 0.40981 0.0
H12 H 0.25807 0.09623 0.41996 0.0
H13 H 0.27422 0.1092 0.43343 0.0
H14 H 0.27496 0.08838 0.42576 0.0
H15 H 0.30831 0.10256 0.42052 0.0
H16 H 0.32008 0.12888 0.42559 0.0
C17 C 0.29023 0.16689 0.38185 0.0
C18 C 0.25421 0.14889 0.3887 0.0
C19 C 0.31297 0.17296 0.459 0.0
C20 C 0.31516 0.15906 0.46563 0.0
C21 C 0.31236 0.14142 0.45919 0.0
C22 C 0.30695 0.13742 0.44639 0.0
C23 C 0.30414 0.15113 0.43995 0.0
C24 C 0.30741 0.16867 0.44622 0.0
C25 C 0.30333 0.18128 0.43787 0.0
C26 C 0.29705 0.16838 0.42558 0.0
C27 C 0.29746 0.15071 0.42688 0.0
C28 C 0.32308 0.20125 0.4376 0.0
C29 C 0.286 0.18352 0.44263 0.0
C30 C 0.27579 0.08893 0.39718 0.0
C31 C 0.26767 0.08351 0.38471 0.0
C32 C 0.26579 0.09761 0.37804 0.0
C33 C 0.27138 0.11656 0.38377 0.0
C34 C 0.27883 0.12147 0.39635 0.0
C35 C 0.28125 0.10787 0.40277 0.0
C36 C 0.28929 0.11558 0.41607 0.0
C37 C 0.29117 0.13602 0.41661 0.0
C38 C 0.28487 0.13932 0.40507 0.0
C39 C 0.30994 0.11702 0.41824 0.0
C40 C 0.2735 0.10166 0.42432 0.0
H41 H 0.29776 0.21091 0.42562 0.0
H42 H 0.26682 0.19005 0.38209 0.0
H43 H 0.24511 0.15117 0.39545 0.0
H44 H 0.24973 0.133 0.38859 0.0
H45 H 0.24964 0.15152 0.37945 0.0
H46 H 0.30424 0.18161 0.38368 0.0
H47 H 0.2824 0.16681 0.37293 0.0
H48 H 0.2953 0.15591 0.38075 0.0
H49 H 0.31484 0.18657 0.46372 0.0
H50 H 0.31425 0.13062 0.46408 0.0
H51 H 0.30485 0.12364 0.44205 0.0
H52 H 0.33616 0.19892 0.43817 0.0
H53 H 0.3254 0.21215 0.44552 0.0
H54 H 0.32379 0.20804 0.42887 0.0
H55 H 0.27484 0.16955 0.44624 0.0
H56 H 0.27736 0.18616 0.43532 0.0
H57 H 0.29164 0.19577 0.45027 0.0
H58 H 0.28779 0.23162 0.41518 0.0
C59 C 0.29124 0.20598 0.4162 0.0
C60 C 0.93803 0.17425 0.40055 0.0
C61 C 0.95436 0.19174 0.40669 0.0
C62 C 0.953 0.19814 0.41883 0.0
C63 C 0.91971 0.1694 0.41858 0.0
C64 C 0.92101 0.16341 0.40662 0.0
C65 C 0.90265 0.14434 0.40135 0.0
H66 H 0.81245 0.06622 0.40903 0.0
C67 C 0.90006 0.15444 0.42223 0.0
C68 C 0.89003 0.13979 0.41211 0.0
H69 H 0.84537 0.07656 0.37693 0.0
H70 H 0.87114 0.10837 0.38695 0.0
H71 H 0.84962 0.0802 0.42857 0.0
H72 H 0.8207 0.11106 0.41453 0.0
H73 H 0.82759 0.11932 0.43037 0.0
H74 H 0.81022 0.09325 0.42557 0.0
H75 H 0.82585 0.07568 0.43291 0.0
H76 H 0.84902 0.09491 0.44123 0.0
C77 C 0.90884 0.12846 0.39849 0.0
C78 C 0.89299 0.14877 0.38998 0.0
C79 C 0.88119 0.16016 0.46583 0.0
C80 C 0.86426 0.1478 0.47176 0.0
C81 C 0.84817 0.13083 0.4649 0.0
C82 C 0.84904 0.1259 0.45247 0.0
C83 C 0.86623 0.13799 0.44676 0.0
C84 C 0.88187 0.15493 0.45334 0.0
C85 C 0.8989 0.1659 0.44562 0.0
C86 C 0.8909 0.1526 0.4334 0.0
C87 C 0.87178 0.13625 0.43419 0.0
C88 C 0.91763 0.16627 0.45178 0.0
C89 C 0.90155 0.1868 0.44433 0.0
C90 C 0.82523 0.07531 0.40416 0.0
C91 C 0.82684 0.06876 0.39216 0.0
C92 C 0.84358 0.08128 0.3861 0.0
C93 C 0.85867 0.09971 0.392 0.0
C94 C 0.85715 0.10572 0.40415 0.0
C95 C 0.84051 0.0937 0.40995 0.0
C96 C 0.84156 0.10236 0.42291 0.0
C97 C 0.8617 0.12146 0.42396 0.0
C98 C 0.87075 0.1233 0.41296 0.0
C99 C 0.84137 0.08758 0.43195 0.0
C100 C 0.82409 0.10664 0.4235 0.0
H101 H 0.93569 0.19259 0.43407 0.0
H102 H 0.9384 0.16909 0.39114 0.0
H103 H 0.89485 0.16394 0.39143 0.0
H104 H 0.87667 0.13858 0.38827 0.0
H105 H 0.9 0.1481 0.38148 0.0
H106 H 0.92118 0.13063 0.40535 0.0
H107 H 0.91415 0.12938 0.38916 0.0
H108 H 0.89672 0.11307 0.39915 0.0
H109 H 0.89381 0.1733 0.47086 0.0
H110 H 0.83479 0.1213 0.46916 0.0
H111 H 0.83631 0.11272 0.44783 0.0
H112 H 0.91349 0.15177 0.45543 0.0
H113 H 0.92497 0.17815 0.45966 0.0
H114 H 0.92873 0.16837 0.44527 0.0
H115 H 0.88679 0.18603 0.44339 0.0
H116 H 0.90853 0.19317 0.43594 0.0
H117 H 0.91054 0.19738 0.45258 0.0
H118 H 0.96541 0.21152 0.42379 0.0
C119 C 0.93577 0.18707 0.42481 0.0
C120 C 0.94405 0.77477 0.4074 0.0
C121 C 0.96001 0.77306 0.41288 0.0
C122 C 0.95848 0.76634 0.42477 0.0
C123 C 0.9259 0.76355 0.42544 0.0
C124 C 0.92742 0.77021 0.41385 0.0
C125 C 0.90988 0.77242 0.40953 0.0
H126 H 0.82102 0.76436 0.41988 0.0
C127 C 0.90685 0.76052 0.42968 0.0
C128 C 0.89752 0.76591 0.42042 0.0
H129 H 0.85457 0.78603 0.3884 0.0
H130 H 0.88015 0.78024 0.39733 0.0
H131 H 0.82961 0.72757 0.42289 0.0
H132 H 0.85741 0.78798 0.43982 0.0
H133 H 0.85915 0.77392 0.45136 0.0
H134 H 0.83481 0.76849 0.44471 0.0
H135 H 0.81791 0.73623 0.43342 0.0
H136 H 0.83412 0.72728 0.43889 0.0
C137 C 0.89899 0.75791 0.39766 0.0
C138 C 0.91768 0.7947 0.40782 0.0
C139 C 0.88517 0.73282 0.47094 0.0
C140 C 0.86852 0.72904 0.47735 0.0
C141 C 0.85434 0.73354 0.47201 0.0
C142 C 0.85635 0.74109 0.4605 0.0
C143 C 0.87285 0.74451 0.45417 0.0
C144 C 0.88708 0.74065 0.45945 0.0
C145 C 0.90412 0.7462 0.45159 0.0
C146 C 0.89745 0.75353 0.44061 0.0
C147 C 0.87905 0.75237 0.44218 0.0
C148 C 0.90494 0.72713 0.44774 0.0
C149 C 0.92351 0.76312 0.45902 0.0
C150 C 0.83393 0.76803 0.41492 0.0
C151 C 0.83557 0.77558 0.40333 0.0
C152 C 0.85261 0.77986 0.39721 0.0
C153 C 0.86761 0.77664 0.40247 0.0
C154 C 0.86576 0.76919 0.41407 0.0
C155 C 0.84914 0.76505 0.4201 0.0
C156 C 0.84988 0.75758 0.43245 0.0
C157 C 0.86968 0.75791 0.43283 0.0
C158 C 0.87887 0.76464 0.42202 0.0
C159 C 0.83192 0.73608 0.43202 0.0
C160 C 0.85019 0.77259 0.44268 0.0
H161 H 0.94134 0.75651 0.44003 0.0
H162 H 0.94436 0.77956 0.39824 0.0
H163 H 0.93111 0.80464 0.41441 0.0
H164 H 0.90677 0.79946 0.40984 0.0
H165 H 0.92193 0.79797 0.39831 0.0
H166 H 0.89847 0.74345 0.39849 0.0
H167 H 0.90682 0.76422 0.38942 0.0
H168 H 0.88322 0.754 0.39588 0.0
H169 H 0.89642 0.72963 0.47467 0.0
H170 H 0.84171 0.73149 0.4768 0.0
H171 H 0.84497 0.74408 0.457 0.0
H172 H 0.88964 0.71435 0.44485 0.0
H173 H 0.91153 0.72301 0.45558 0.0
H174 H 0.91351 0.72859 0.43975 0.0
H175 H 0.92025 0.77269 0.46536 0.0
H176 H 0.93415 0.7735 0.45303 0.0
H177 H 0.9311 0.75697 0.46476 0.0
H178 H 0.97055 0.76516 0.42941 0.0
C179 C 0.94153 0.76149 0.43102 0.0
C180 C 0.15758 0.22243 0.5966 0.0
C181 C 0.17527 0.2259 0.59163 0.0
C182 C 0.17934 0.23409 0.58021 0.0
C183 C 0.14835 0.23485 0.57888 0.0
C184 C 0.14444 0.22699 0.59011 0.0
C185 C 0.12497 0.22406 0.59409 0.0
H186 H 0.03992 0.22709 0.58181 0.0
C187 C 0.1315 0.23757 0.57445 0.0
C188 C 0.11776 0.23128 0.58333 0.0
H189 H 0.05924 0.20954 0.61453 0.0
H190 H 0.08973 0.2167 0.60607 0.0
H191 H 0.08321 0.26652 0.58029 0.0
H192 H 0.05547 0.20688 0.56175 0.0
H193 H 0.06676 0.22388 0.5508 0.0
H194 H 0.04683 0.2239 0.55852 0.0
H195 H 0.0629 0.25739 0.56827 0.0
H196 H 0.08851 0.2684 0.5648 0.0
C197 C 0.12955 0.23754 0.60634 0.0
C198 C 0.11102 0.20148 0.59498 0.0
C199 C 0.13167 0.2648 0.5331 0.0
C200 C 0.11813 0.2687 0.52636 0.0
C201 C 0.10025 0.26466 0.53138 0.0
C202 C 0.096 0.25694 0.54286 0.0
C203 C 0.10972 0.25315 0.54947 0.0
C204 C 0.12721 0.2571 0.54455 0.0
C205 C 0.14004 0.25209 0.55278 0.0
C206 C 0.12747 0.24463 0.56351 0.0
C207 C 0.10969 0.24524 0.56153 0.0
C208 C 0.16014 0.27155 0.55681 0.0
C209 C 0.14205 0.23538 0.54565 0.0
C210 C 0.05077 0.22492 0.5872 0.0
C211 C 0.04685 0.2174 0.59882 0.0
C212 C 0.06148 0.21479 0.60545 0.0
C213 C 0.07934 0.21912 0.60055 0.0
C214 C 0.08286 0.2263 0.58889 0.0
C215 C 0.06883 0.22932 0.58247 0.0
C216 C 0.07551 0.2376 0.57034 0.0
C217 C 0.09571 0.23877 0.57052 0.0
C218 C 0.09984 0.232 0.58138 0.0
C219 C 0.07755 0.25852 0.57082 0.0
C220 C 0.06037 0.22243 0.55973 0.0
H221 H 0.17002 0.24476 0.56519 0.0
H222 H 0.15383 0.21597 0.60528 0.0
H223 H 0.11268 0.1924 0.58733 0.0
H224 H 0.09502 0.1969 0.59402 0.0
H225 H 0.11464 0.19705 0.60386 0.0
H226 H 0.14447 0.2513 0.60681 0.0
H227 H 0.1296 0.22964 0.61451 0.0
H228 H 0.11896 0.24307 0.60726 0.0
H229 H 0.14539 0.2674 0.52948 0.0
H230 H 0.08963 0.2677 0.52648 0.0
H231 H 0.08218 0.25422 0.54616 0.0
H232 H 0.1578 0.28452 0.55827 0.0
H233 H 0.17069 0.27481 0.54965 0.0
H234 H 0.16744 0.2712 0.56575 0.0
H235 H 0.12802 0.22493 0.53967 0.0
H236 H 0.14454 0.22587 0.55181 0.0
H237 H 0.15433 0.24171 0.53957 0.0
H238 H 0.19297 0.23724 0.57624 0.0
C239 C 0.16602 0.23857 0.57383 0.0
C240 C 0.73381 0.81032 0.60809 0.0
C241 C 0.73213 0.79338 0.60144 0.0
C242 C 0.7239 0.78842 0.58897 0.0
C243 C 0.72003 0.81757 0.58981 0.0
C244 C 0.7278 0.82221 0.6021 0.0
C245 C 0.7299 0.84149 0.60759 0.0
H246 H 0.72452 0.92432 0.59921 0.0
C247 C 0.71623 0.83352 0.58621 0.0
C248 C 0.72194 0.84756 0.59659 0.0
H249 H 0.74714 0.91054 0.63224 0.0
H250 H 0.73743 0.87795 0.62228 0.0
H251 H 0.74414 0.90852 0.58083 0.0
H252 H 0.68497 0.88075 0.59248 0.0
H253 H 0.68221 0.87291 0.57665 0.0
H254 H 0.69289 0.89913 0.58166 0.0
H255 H 0.72602 0.91534 0.57593 0.0
H256 H 0.72745 0.89541 0.56759 0.0
C257 C 0.75241 0.85633 0.61152 0.0
C258 C 0.71642 0.83689 0.61828 0.0
C259 C 0.6917 0.83244 0.54162 0.0
C260 C 0.68794 0.84581 0.53543 0.0
C261 C 0.68943 0.86256 0.54232 0.0
C262 C 0.69519 0.86628 0.55507 0.0
C263 C 0.69968 0.85322 0.56104 0.0
C264 C 0.69755 0.83644 0.55438 0.0
C265 C 0.70302 0.82429 0.5623 0.0
C266 C 0.70896 0.83668 0.57477 0.0
C267 C 0.70712 0.85367 0.57393 0.0
C268 C 0.72093 0.82364 0.55713 0.0
C269 C 0.68411 0.80357 0.56248 0.0
C270 C 0.7274 0.9143 0.60431 0.0
C271 C 0.73681 0.92014 0.61649 0.0
C272 C 0.73984 0.90642 0.62287 0.0
C273 C 0.73437 0.88756 0.61702 0.0
C274 C 0.72591 0.88238 0.60462 0.0
C275 C 0.72224 0.89554 0.59856 0.0
C276 C 0.71362 0.88781 0.58534 0.0
C277 C 0.71303 0.86795 0.58439 0.0
C278 C 0.72027 0.86485 0.59568 0.0
C279 C 0.72838 0.90248 0.5769 0.0
C280 C 0.69236 0.88509 0.58383 0.0
H281 H 0.71173 0.79588 0.57361 0.0
H282 H 0.7404 0.81468 0.61763 0.0
H283 H 0.70209 0.82261 0.61586 0.0
H284 H 0.71204 0.84823 0.62026 0.0
H285 H 0.72387 0.83545 0.62689 0.0
H286 H 0.76192 0.85386 0.6052 0.0
H287 H 0.75686 0.85455 0.62105 0.0
H288 H 0.75657 0.87206 0.61099 0.0
H289 H 0.69081 0.81951 0.53658 0.0
H290 H 0.68625 0.87288 0.5378 0.0
H291 H 0.69626 0.87939 0.55975 0.0
H292 H 0.73117 0.83797 0.55349 0.0
H293 H 0.71577 0.81156 0.54943 0.0
H294 H 0.73044 0.82174 0.56425 0.0
H295 H 0.67046 0.8049 0.56245 0.0
H296 H 0.6843 0.79646 0.57094 0.0
H297 H 0.6821 0.79335 0.55424 0.0
H298 H 0.72236 0.77534 0.5837 0.0
C299 C 0.71773 0.80035 0.58314 0.0
C300 C 0.06013 0.82412 0.60329 0.0
C301 C 0.04271 0.8072 0.59753 0.0
C302 C 0.04257 0.80041 0.58517 0.0
C303 C 0.07655 0.82742 0.58454 0.0
C304 C 0.07667 0.834 0.59665 0.0
C305 C 0.09585 0.85275 0.60131 0.0
H306 H 0.18433 0.92947 0.58941 0.0
C307 C 0.096 0.8414 0.58023 0.0
C308 C 0.1073 0.85632 0.59003 0.0
H309 H 0.15683 0.92068 0.62361 0.0
H310 H 0.12991 0.88837 0.61476 0.0
H311 H 0.17791 0.88636 0.58534 0.0
H312 H 0.14415 0.91198 0.57062 0.0
H313 H 0.14699 0.898 0.55835 0.0
H314 H 0.16884 0.91857 0.56694 0.0
H315 H 0.18446 0.89961 0.57189 0.0
H316 H 0.16701 0.87308 0.57073 0.0
C317 C 0.10605 0.84822 0.61234 0.0
C318 C 0.09081 0.8694 0.60449 0.0
C319 C 0.11154 0.83023 0.53652 0.0
C320 C 0.12869 0.84064 0.53031 0.0
C321 C 0.14532 0.85801 0.53644 0.0
C322 C 0.14498 0.86493 0.54853 0.0
C323 C 0.12784 0.8544 0.55466 0.0
C324 C 0.11153 0.83727 0.54872 0.0
C325 C 0.0949 0.82784 0.55693 0.0
C326 C 0.10407 0.84205 0.56875 0.0
C327 C 0.12326 0.85769 0.56725 0.0
C328 C 0.09124 0.80674 0.55886 0.0
C329 C 0.07644 0.82811 0.55088 0.0
C330 C 0.17244 0.92054 0.59495 0.0
C331 C 0.17247 0.92764 0.60714 0.0
C332 C 0.15707 0.91546 0.61419 0.0
C333 C 0.1414 0.8968 0.609 0.0
C334 C 0.14115 0.89021 0.59663 0.0
C335 C 0.15678 0.9018 0.58993 0.0
C336 C 0.1545 0.892 0.57713 0.0
C337 C 0.13444 0.87303 0.57704 0.0
C338 C 0.12662 0.87218 0.58843 0.0
C339 C 0.17187 0.8876 0.57611 0.0
C340 C 0.15367 0.9058 0.56768 0.0
H341 H 0.05829 0.80454 0.56928 0.0
H342 H 0.06097 0.82964 0.61282 0.0
H343 H 0.07867 0.86797 0.59775 0.0
H344 H 0.10342 0.88455 0.60394 0.0
H345 H 0.08566 0.86854 0.61386 0.0
H346 H 0.10313 0.83264 0.61102 0.0
H347 H 0.10035 0.85 0.62118 0.0
H348 H 0.12251 0.85764 0.6133 0.0
H349 H 0.09859 0.81677 0.53205 0.0
H350 H 0.15858 0.86644 0.53179 0.0
H351 H 0.15808 0.87829 0.55262 0.0
H352 H 0.10566 0.80686 0.56009 0.0
H353 H 0.08207 0.79588 0.55075 0.0
H354 H 0.08395 0.80109 0.56729 0.0
H355 H 0.08106 0.84186 0.54617 0.0
H356 H 0.06655 0.8284 0.55768 0.0
H357 H 0.06761 0.81509 0.54383 0.0
H358 H 0.02932 0.78758 0.58041 0.0
C359 C 0.05939 0.81037 0.57867 0.0
C360 C 0.93735 0.52046 0.72191 0.0
C361 C 0.93727 0.53677 0.72821 0.0
C362 C 0.94401 0.54167 0.74096 0.0
C363 C 0.94929 0.51344 0.74103 0.0
C364 C 0.94324 0.50898 0.72848 0.0
C365 C 0.94261 0.49024 0.72335 0.0
H366 H 0.9457 0.40709 0.73399 0.0
C367 C 0.95298 0.49771 0.74524 0.0
C368 C 0.9491 0.48408 0.73492 0.0
H369 H 0.93217 0.42378 0.69903 0.0
H370 H 0.93967 0.45565 0.70904 0.0
H371 H 0.98515 0.45053 0.74288 0.0
H372 H 0.92354 0.42285 0.75013 0.0
H373 H 0.93817 0.43512 0.76422 0.0
H374 H 0.94041 0.41531 0.75641 0.0
H375 H 0.97492 0.43177 0.75338 0.0
H376 H 0.98512 0.45789 0.75845 0.0
C377 C 0.95799 0.49579 0.7137 0.0
C378 C 0.92073 0.475 0.71814 0.0
C379 C 0.97205 0.49858 0.79088 0.0
C380 C 0.97521 0.48533 0.79765 0.0
C381 C 0.97369 0.4682 0.79125 0.0
C382 C 0.96899 0.46426 0.77839 0.0
C383 C 0.96559 0.47748 0.77181 0.0
C384 C 0.96726 0.49436 0.77804 0.0
C385 C 0.96282 0.50654 0.76952 0.0
C386 C 0.95842 0.49427 0.75714 0.0
C387 C 0.95997 0.47722 0.75856 0.0
C388 C 0.98185 0.52731 0.76992 0.0
C389 C 0.94417 0.50706 0.77351 0.0
C390 C 0.9447 0.41774 0.72843 0.0
C391 C 0.9381 0.4128 0.71572 0.0
C392 C 0.93685 0.42707 0.70888 0.0
C393 C 0.94123 0.44558 0.71471 0.0
C394 C 0.94679 0.44985 0.72754 0.0
C395 C 0.94895 0.43626 0.73412 0.0
C396 C 0.95515 0.44341 0.74766 0.0
C397 C 0.95586 0.46333 0.74816 0.0
C398 C 0.95077 0.46692 0.73638 0.0
C399 C 0.9761 0.44595 0.75088 0.0
C400 C 0.93862 0.42843 0.75509 0.0
H401 H 0.95474 0.53448 0.75709 0.0
H402 H 0.93255 0.51642 0.7121 0.0
H403 H 0.91 0.47608 0.72405 0.0
H404 H 0.91711 0.45934 0.71802 0.0
H405 H 0.91737 0.47778 0.70864 0.0
H406 H 0.97122 0.51088 0.71638 0.0
H407 H 0.95132 0.49593 0.70441 0.0
H408 H 0.96418 0.4857 0.713 0.0
H409 H 0.97328 0.51198 0.79547 0.0
H410 H 0.97572 0.45756 0.79622 0.0
H411 H 0.9679 0.45089 0.77412 0.0
H412 H 0.9955 0.52593 0.77037 0.0
H413 H 0.98325 0.5372 0.77819 0.0
H414 H 0.98236 0.53483 0.76154 0.0
H415 H 0.93382 0.49307 0.77744 0.0
H416 H 0.935 0.50797 0.76568 0.0
H417 H 0.94849 0.51969 0.78069 0.0
H418 H 0.94391 0.554 0.7461 0.0
C419 C 0.9501 0.53017 0.74737 0.0
C420 C 0.60961 0.51849 0.73587 0.0
C421 C 0.62516 0.53633 0.74219 0.0
C422 C 0.62343 0.54189 0.75443 0.0
C423 C 0.59083 0.51207 0.75378 0.0
C424 C 0.59275 0.50659 0.74184 0.0
C425 C 0.57542 0.4867 0.73658 0.0
H426 H 0.48652 0.40576 0.74354 0.0
C427 C 0.57151 0.49624 0.75726 0.0
C428 C 0.56249 0.48133 0.74721 0.0
H429 H 0.52203 0.41597 0.71277 0.0
H430 H 0.54669 0.4485 0.72277 0.0
H431 H 0.5222 0.42122 0.764 0.0
H432 H 0.49328 0.45077 0.74789 0.0
H433 H 0.49832 0.45864 0.76383 0.0
H434 H 0.48198 0.43253 0.7586 0.0
H435 H 0.49811 0.41656 0.76775 0.0
H436 H 0.52091 0.43634 0.77613 0.0
C437 C 0.58333 0.4721 0.73404 0.0
C438 C 0.56512 0.48988 0.725 0.0
C439 C 0.54907 0.50253 0.79957 0.0
C440 C 0.53173 0.49021 0.80518 0.0
C441 C 0.5166 0.47242 0.79841 0.0
C442 C 0.51869 0.46692 0.78635 0.0
C443 C 0.53614 0.47925 0.78093 0.0
C444 C 0.55092 0.4968 0.78746 0.0
C445 C 0.56835 0.50802 0.7801 0.0
C446 C 0.5616 0.49421 0.76813 0.0
C447 C 0.54275 0.47736 0.76872 0.0
C448 C 0.58721 0.50965 0.78708 0.0
C449 C 0.57004 0.52834 0.77806 0.0
C450 C 0.49948 0.41517 0.7389 0.0
C451 C 0.50236 0.40842 0.72735 0.0
C452 C 0.51959 0.42088 0.7217 0.0
C453 C 0.53387 0.43974 0.72753 0.0
C454 C 0.53102 0.44613 0.73922 0.0
C455 C 0.51402 0.43392 0.74469 0.0
C456 C 0.51392 0.44275 0.75735 0.0
C457 C 0.53373 0.46222 0.75861 0.0
C458 C 0.54359 0.46418 0.74794 0.0
C459 C 0.51363 0.42853 0.76687 0.0
C460 C 0.49591 0.44629 0.75703 0.0
H461 H 0.60579 0.53494 0.76954 0.0
H462 H 0.61075 0.51364 0.72656 0.0
H463 H 0.5641 0.50361 0.7267 0.0
H464 H 0.54958 0.47767 0.72249 0.0
H465 H 0.5737 0.4916 0.7169 0.0
H466 H 0.59702 0.47632 0.74031 0.0
H467 H 0.58719 0.47199 0.72438 0.0
H468 H 0.57262 0.45667 0.73586 0.0
H469 H 0.5609 0.51639 0.80447 0.0
H470 H 0.50324 0.46249 0.80254 0.0
H471 H 0.50668 0.45314 0.78178 0.0
H472 H 0.58335 0.49598 0.79171 0.0
H473 H 0.59431 0.52257 0.79432 0.0
H474 H 0.59844 0.51088 0.78086 0.0
H475 H 0.55496 0.52659 0.77613 0.0
H476 H 0.57797 0.53489 0.76998 0.0
H477 H 0.57767 0.53923 0.7864 0.0
H478 H 0.63529 0.55559 0.75946 0.0
C479 C 0.60629 0.52991 0.76023 0.0
C480 C 0.61435 0.11177 0.7417 0.0
C481 C 0.63047 0.1104 0.74727 0.0
C482 C 0.62892 0.10364 0.75916 0.0
C483 C 0.59582 0.09964 0.75951 0.0
C484 C 0.59744 0.10658 0.74799 0.0
C485 C 0.5796 0.10821 0.74354 0.0
H486 H 0.48853 0.09542 0.75265 0.0
C487 C 0.57623 0.09546 0.76345 0.0
C488 C 0.56677 0.10062 0.75414 0.0
H489 H 0.52427 0.12193 0.72271 0.0
H490 H 0.54983 0.11601 0.73149 0.0
H491 H 0.49752 0.05962 0.75418 0.0
H492 H 0.52485 0.1182 0.77393 0.0
H493 H 0.52319 0.10175 0.78478 0.0
H494 H 0.50063 0.09841 0.77659 0.0
H495 H 0.48586 0.06578 0.76609 0.0
H496 H 0.50317 0.05713 0.76961 0.0
C497 C 0.56955 0.09421 0.73139 0.0
C498 C 0.58673 0.1305 0.74226 0.0
C499 C 0.55383 0.06561 0.80406 0.0
C500 C 0.53606 0.05945 0.80973 0.0
C501 C 0.52067 0.06161 0.80377 0.0
C502 C 0.52283 0.06968 0.79242 0.0
C503 C 0.5406 0.07574 0.78687 0.0
C504 C 0.55571 0.07359 0.79263 0.0
C505 C 0.57339 0.08062 0.78518 0.0
C506 C 0.56637 0.08737 0.77406 0.0
C507 C 0.54717 0.08453 0.77516 0.0
C508 C 0.57602 0.06256 0.78149 0.0
C509 C 0.59178 0.09826 0.79296 0.0
C510 C 0.50191 0.10013 0.748 0.0
C511 C 0.50417 0.1091 0.73688 0.0
C512 C 0.52181 0.11466 0.73113 0.0
C513 C 0.53682 0.1114 0.73633 0.0
C514 C 0.5344 0.10266 0.7475 0.0
C515 C 0.51718 0.09722 0.75315 0.0
C516 C 0.51743 0.08863 0.76515 0.0
C517 C 0.53773 0.09001 0.76582 0.0
C518 C 0.54752 0.09809 0.7554 0.0
C519 C 0.50006 0.06669 0.76382 0.0
C520 C 0.51633 0.10226 0.77572 0.0
H521 H 0.61154 0.09319 0.77424 0.0
H522 H 0.61471 0.11666 0.73257 0.0
H523 H 0.60038 0.14054 0.74866 0.0
H524 H 0.57565 0.13475 0.74483 0.0
H525 H 0.59037 0.13421 0.73271 0.0
H526 H 0.56902 0.07972 0.73213 0.0
H527 H 0.57801 0.10096 0.72344 0.0
H528 H 0.55387 0.09033 0.72918 0.0
H529 H 0.56588 0.06403 0.80833 0.0
H530 H 0.50698 0.0573 0.80799 0.0
H531 H 0.51056 0.07094 0.78844 0.0
H532 H 0.56124 0.04892 0.77875 0.0
H533 H 0.58354 0.05944 0.78935 0.0
H534 H 0.58451 0.06453 0.77341 0.0
H535 H 0.58729 0.10749 0.79865 0.0
H536 H 0.6028 0.10873 0.7872 0.0
H537 H 0.5993 0.09283 0.79937 0.0
H538 H 0.64113 0.1028 0.76389 0.0
C539 C 0.61172 0.09819 0.76525 0.0
C540 C 0.82211 0.55669 0.9307 0.0
C541 C 0.83921 0.55889 0.92547 0.0
C542 C 0.84261 0.56561 0.9136 0.0
C543 C 0.8123 0.56761 0.91244 0.0
C544 C 0.8089 0.56099 0.92403 0.0
C545 C 0.78975 0.55881 0.92811 0.0
H546 H 0.70477 0.56186 0.91533 0.0
C547 C 0.79556 0.57046 0.90794 0.0
C548 C 0.78225 0.56524 0.91707 0.0
H549 H 0.72441 0.54588 0.94864 0.0
H550 H 0.75484 0.5526 0.94021 0.0
H551 H 0.74791 0.6009 0.91333 0.0
H552 H 0.72002 0.54071 0.89566 0.0
H553 H 0.73082 0.55733 0.88443 0.0
H554 H 0.71117 0.55754 0.89235 0.0
H555 H 0.72801 0.59167 0.90104 0.0
H556 H 0.75379 0.60227 0.89796 0.0
C557 C 0.79501 0.57336 0.93995 0.0
C558 C 0.77568 0.53653 0.9298 0.0
C559 C 0.79521 0.59568 0.86593 0.0
C560 C 0.78189 0.59989 0.8592 0.0
C561 C 0.76444 0.59681 0.8644 0.0
C562 C 0.76031 0.58962 0.87604 0.0
C563 C 0.77378 0.58547 0.88262 0.0
C564 C 0.79091 0.58858 0.87754 0.0
C565 C 0.80361 0.5835 0.88585 0.0
C566 C 0.79139 0.57698 0.8968 0.0
C567 C 0.77387 0.57807 0.89486 0.0
C568 C 0.82408 0.60273 0.88945 0.0
C569 C 0.80485 0.5661 0.879 0.0
C570 C 0.71567 0.55994 0.92086 0.0
C571 C 0.71186 0.55296 0.93263 0.0
C572 C 0.72657 0.55068 0.93944 0.0
C573 C 0.74438 0.55474 0.93455 0.0
C574 C 0.74774 0.56124 0.92271 0.0
C575 C 0.73365 0.56403 0.91613 0.0
C576 C 0.74016 0.57164 0.90384 0.0
C577 C 0.76021 0.57248 0.90403 0.0
C578 C 0.76449 0.56627 0.9151 0.0
C579 C 0.7425 0.59266 0.90391 0.0
C580 C 0.72475 0.55615 0.89345 0.0
H581 H 0.8328 0.57499 0.89812 0.0
H582 H 0.81906 0.55182 0.93983 0.0
H583 H 0.77726 0.52667 0.92266 0.0
H584 H 0.7597 0.53202 0.92862 0.0
H585 H 0.77924 0.53297 0.93902 0.0
H586 H 0.8096 0.58724 0.93967 0.0
H587 H 0.79614 0.56647 0.94839 0.0
H588 H 0.78416 0.57854 0.94095 0.0
H589 H 0.80888 0.59811 0.86232 0.0
H590 H 0.75381 0.59972 0.85938 0.0
H591 H 0.74674 0.58749 0.87943 0.0
H592 H 0.82212 0.61592 0.89108 0.0
H593 H 0.83405 0.60561 0.88198 0.0
H594 H 0.83185 0.60236 0.89819 0.0
H595 H 0.79086 0.55605 0.87288 0.0
H596 H 0.80641 0.55628 0.88537 0.0
H597 H 0.81741 0.57177 0.87312 0.0
H598 H 0.8554 0.56713 0.90919 0.0
C599 C 0.82934 0.57001 0.9071 0.0
C600 C 0.39157 0.14456 0.94852 0.0
C601 C 0.39319 0.12898 0.94243 0.0
C602 C 0.38864 0.12501 0.92944 0.0
C603 C 0.38239 0.15259 0.92886 0.0
C604 C 0.38645 0.15627 0.94158 0.0
C605 C 0.3861 0.1746 0.94653 0.0
H606 H 0.38604 0.25877 0.93466 0.0
C607 C 0.37904 0.16835 0.92434 0.0
C608 C 0.38129 0.18136 0.93465 0.0
H609 H 0.39243 0.23983 0.97044 0.0
H610 H 0.38613 0.20832 0.96052 0.0
H611 H 0.40968 0.24265 0.92014 0.0
H612 H 0.34719 0.21708 0.92448 0.0
H613 H 0.34825 0.20808 0.90953 0.0
H614 H 0.35885 0.2346 0.91345 0.0
H615 H 0.39423 0.25156 0.91342 0.0
H616 H 0.39631 0.23175 0.9055 0.0
C617 C 0.40725 0.18979 0.95293 0.0
C618 C 0.36917 0.16825 0.95512 0.0
C619 C 0.36518 0.16922 0.87814 0.0
C620 C 0.36265 0.18269 0.87123 0.0
C621 C 0.36338 0.1995 0.8775 0.0
C622 C 0.36678 0.20299 0.89041 0.0
C623 C 0.3696 0.1896 0.89719 0.0
C624 C 0.36865 0.17298 0.89107 0.0
C625 C 0.37231 0.16059 0.89984 0.0
C626 C 0.37514 0.1723 0.91222 0.0
C627 C 0.3737 0.18933 0.91057 0.0
C628 C 0.39161 0.16055 0.89683 0.0
C629 C 0.35336 0.13964 0.89868 0.0
C630 C 0.38574 0.24779 0.94045 0.0
C631 C 0.39013 0.25209 0.95339 0.0
C632 C 0.38966 0.23721 0.96044 0.0
C633 C 0.38594 0.21887 0.95467 0.0
C634 C 0.38267 0.21532 0.94169 0.0
C635 C 0.38194 0.22939 0.93486 0.0
C636 C 0.37745 0.22278 0.92121 0.0
C637 C 0.37644 0.20275 0.92094 0.0
C638 C 0.37978 0.19857 0.93294 0.0
C639 C 0.39521 0.23795 0.91462 0.0
C640 C 0.35697 0.22061 0.91684 0.0
H641 H 0.38014 0.13297 0.91282 0.0
H642 H 0.39463 0.14793 0.95848 0.0
H643 H 0.35637 0.15316 0.9518 0.0
H644 H 0.36271 0.17814 0.95529 0.0
H645 H 0.3745 0.16772 0.96472 0.0
H646 H 0.41899 0.18975 0.94754 0.0
H647 H 0.40943 0.18602 0.96237 0.0
H648 H 0.41048 0.20534 0.95359 0.0
H649 H 0.3649 0.15628 0.87358 0.0
H650 H 0.36118 0.20993 0.87239 0.0
H651 H 0.36727 0.21611 0.8946 0.0
H652 H 0.40204 0.17437 0.89277 0.0
H653 H 0.38815 0.14767 0.89006 0.0
H654 H 0.40041 0.1604 0.90516 0.0
H655 H 0.33963 0.14086 0.89801 0.0
H656 H 0.35236 0.13146 0.9068 0.0
H657 H 0.35267 0.13043 0.89023 0.0
H658 H 0.39003 0.11337 0.92441 0.0
C659 C 0.38312 0.1366 0.92266 0.0
C660 C 0.72642 0.15416 0.93528 0.0
C661 C 0.71086 0.13515 0.93037 0.0
C662 C 0.71228 0.12707 0.91874 0.0
C663 C 0.74406 0.1569 0.91712 0.0
C664 C 0.74277 0.16464 0.92859 0.0
C665 C 0.7604 0.18498 0.93261 0.0
H666 H 0.84766 0.26335 0.92051 0.0
C667 C 0.76283 0.1719 0.91254 0.0
C668 C 0.77245 0.18833 0.92164 0.0
H669 H 0.8168 0.25665 0.95328 0.0
H670 H 0.79103 0.22371 0.94478 0.0
H671 H 0.84125 0.21924 0.91781 0.0
H672 H 0.80897 0.2452 0.90128 0.0
H673 H 0.80916 0.22869 0.88963 0.0
H674 H 0.83252 0.24964 0.89658 0.0
H675 H 0.85045 0.23554 0.90584 0.0
H676 H 0.83423 0.20896 0.90229 0.0
C677 C 0.77148 0.18366 0.94456 0.0
C678 C 0.7527 0.19993 0.93408 0.0
C679 C 0.78093 0.15951 0.86983 0.0
C680 C 0.79728 0.17112 0.86322 0.0
C681 C 0.81237 0.19003 0.86877 0.0
C682 C 0.81133 0.19725 0.88062 0.0
C683 C 0.79498 0.18555 0.8871 0.0
C684 C 0.78012 0.167 0.88174 0.0
C685 C 0.76389 0.15679 0.89011 0.0
C686 C 0.7715 0.17232 0.90131 0.0
C687 C 0.78972 0.18912 0.89944 0.0
C688 C 0.76335 0.13736 0.89329 0.0
C689 C 0.74406 0.1535 0.88353 0.0
C690 C 0.83529 0.25482 0.92582 0.0
C691 C 0.83429 0.26265 0.93759 0.0
C692 C 0.81807 0.2509 0.94426 0.0
C693 C 0.80304 0.23179 0.93927 0.0
C694 C 0.80416 0.22426 0.92745 0.0
C695 C 0.82015 0.23569 0.92097 0.0
C696 C 0.81889 0.22523 0.90857 0.0
C697 C 0.79946 0.20566 0.90867 0.0
C698 C 0.7909 0.20521 0.91972 0.0
C699 C 0.83717 0.22213 0.90849 0.0
C700 C 0.81745 0.23779 0.89842 0.0
H701 H 0.72895 0.13089 0.90332 0.0
H702 H 0.72577 0.16104 0.94407 0.0
H703 H 0.74015 0.19603 0.92688 0.0
H704 H 0.76409 0.21536 0.9328 0.0
H705 H 0.74715 0.19981 0.94327 0.0
H706 H 0.77038 0.16881 0.94449 0.0
H707 H 0.76501 0.18587 0.95294 0.0
H708 H 0.7877 0.19445 0.94552 0.0
H709 H 0.76913 0.14488 0.86588 0.0
H710 H 0.82492 0.19949 0.86384 0.0
H711 H 0.8233 0.21177 0.88423 0.0
H712 H 0.7787 0.13955 0.89438 0.0
H713 H 0.75445 0.125 0.88585 0.0
H714 H 0.75734 0.13259 0.9022 0.0
H715 H 0.74669 0.16667 0.87867 0.0
H716 H 0.73298 0.15174 0.88999 0.0
H717 H 0.73727 0.14027 0.87652 0.0
H718 H 0.70068 0.11235 0.91479 0.0
C719 C 0.72877 0.13783 0.91211 0.0
C720 C 0.60709 0.85807 0.05391 0.0
C721 C 0.60928 0.87586 0.05965 0.0
C722 C 0.61797 0.88218 0.07203 0.0
C723 C 0.62072 0.85252 0.07294 0.0
C724 C 0.61277 0.84666 0.06071 0.0
C725 C 0.61018 0.82676 0.05618 0.0
H726 H 0.61014 0.74289 0.06911 0.0
C727 C 0.6238 0.83663 0.07756 0.0
C728 C 0.6177 0.82154 0.06776 0.0
H729 H 0.59321 0.75661 0.03401 0.0
H730 H 0.60314 0.78974 0.04297 0.0
H731 H 0.6512 0.78514 0.07519 0.0
H732 H 0.59197 0.76316 0.08611 0.0
H733 H 0.60905 0.77593 0.0993 0.0
H734 H 0.60823 0.75434 0.09155 0.0
H735 H 0.64205 0.76857 0.08702 0.0
H736 H 0.65415 0.79531 0.09054 0.0
C737 C 0.6237 0.82983 0.04562 0.0
C738 C 0.58757 0.81219 0.05238 0.0
C739 C 0.64837 0.84199 0.12278 0.0
C740 C 0.65173 0.82913 0.12983 0.0
C741 C 0.64868 0.81101 0.12393 0.0
C742 C 0.64216 0.80566 0.11128 0.0
C743 C 0.63852 0.81848 0.10442 0.0
C744 C 0.64183 0.83639 0.11014 0.0
C745 C 0.63713 0.84809 0.10136 0.0
C746 C 0.63053 0.83427 0.08943 0.0
C747 C 0.63122 0.81688 0.09131 0.0
C748 C 0.6566 0.86803 0.10044 0.0
C749 C 0.61985 0.85047 0.10605 0.0
C750 C 0.60883 0.75311 0.0633 0.0
C751 C 0.60061 0.74699 0.05086 0.0
C752 C 0.59909 0.76079 0.04368 0.0
C753 C 0.60493 0.78006 0.04889 0.0
C754 C 0.6123 0.78564 0.06146 0.0
C755 C 0.61458 0.77243 0.06837 0.0
C756 C 0.62296 0.7811 0.08154 0.0
C757 C 0.62489 0.80153 0.08144 0.0
C758 C 0.61843 0.804 0.06969 0.0
C759 C 0.6436 0.78254 0.08381 0.0
C760 C 0.60741 0.76799 0.09017 0.0
H761 H 0.62996 0.87611 0.08812 0.0
H762 H 0.60076 0.85292 0.04436 0.0
H763 H 0.57836 0.81495 0.05881 0.0
H764 H 0.58312 0.79639 0.05284 0.0
H765 H 0.58307 0.81408 0.04289 0.0
H766 H 0.6375 0.84476 0.04712 0.0
H767 H 0.61581 0.82882 0.03651 0.0
H768 H 0.62915 0.8191 0.04514 0.0
H769 H 0.65078 0.85611 0.12699 0.0
H770 H 0.65089 0.8007 0.12916 0.0
H771 H 0.63993 0.79159 0.10739 0.0
H772 H 0.66975 0.86584 0.10078 0.0
H773 H 0.6593 0.8793 0.10822 0.0
H774 H 0.65662 0.8743 0.09159 0.0
H775 H 0.60916 0.83695 0.11027 0.0
H776 H 0.61064 0.85208 0.09857 0.0
H777 H 0.62563 0.86342 0.11321 0.0
H778 H 0.61968 0.89573 0.07672 0.0
C779 C 0.62376 0.87066 0.07868 0.0
C780 C 0.2755 0.84888 0.06883 0.0
C781 C 0.29105 0.86744 0.07438 0.0
C782 C 0.2895 0.8744 0.08632 0.0
C783 C 0.2574 0.84446 0.08693 0.0
C784 C 0.25895 0.8377 0.07523 0.0
C785 C 0.24145 0.81748 0.0707 0.0
H786 H 0.15413 0.73748 0.08127 0.0
C787 C 0.23841 0.82908 0.09106 0.0
C788 C 0.22903 0.81325 0.08156 0.0
H789 H 0.18628 0.74563 0.04898 0.0
H790 H 0.21132 0.77874 0.05783 0.0
H791 H 0.19249 0.75601 0.10105 0.0
H792 H 0.15922 0.78064 0.08411 0.0
H793 H 0.1665 0.79179 0.09944 0.0
H794 H 0.15042 0.76507 0.09645 0.0
H795 H 0.16801 0.74997 0.10482 0.0
H796 H 0.19023 0.77114 0.11274 0.0
C797 C 0.2493 0.80273 0.06877 0.0
C798 C 0.23064 0.81952 0.0589 0.0
C799 C 0.21853 0.83907 0.13361 0.0
C800 C 0.20166 0.82726 0.13975 0.0
C801 C 0.18644 0.80886 0.13368 0.0
C802 C 0.18794 0.80226 0.12176 0.0
C803 C 0.20489 0.81411 0.11577 0.0
C804 C 0.21978 0.83226 0.12163 0.0
C805 C 0.23653 0.84287 0.11367 0.0
C806 C 0.22924 0.82802 0.10215 0.0
C807 C 0.21076 0.81118 0.10351 0.0
C808 C 0.25594 0.84542 0.12045 0.0
C809 C 0.23761 0.86271 0.11095 0.0
C810 C 0.16663 0.74634 0.07613 0.0
C811 C 0.16827 0.73885 0.06443 0.0
C812 C 0.18457 0.75108 0.05796 0.0
C813 C 0.19918 0.77027 0.06316 0.0
C814 C 0.19753 0.77737 0.07498 0.0
C815 C 0.18135 0.7655 0.0812 0.0
C816 C 0.18199 0.77543 0.09364 0.0
C817 C 0.20138 0.79513 0.09396 0.0
C818 C 0.21043 0.79618 0.08303 0.0
C819 C 0.1831 0.76252 0.10366 0.0
C820 C 0.16356 0.77832 0.09354 0.0
H821 H 0.27246 0.86916 0.10165 0.0
H822 H 0.27636 0.84294 0.05976 0.0
H823 H 0.23076 0.83394 0.05971 0.0
H824 H 0.21467 0.80797 0.05732 0.0
H825 H 0.23807 0.81906 0.05057 0.0
H826 H 0.26209 0.80656 0.07576 0.0
H827 H 0.25456 0.80311 0.05947 0.0
H828 H 0.23809 0.78721 0.07002 0.0
H829 H 0.23041 0.85336 0.13798 0.0
H830 H 0.17345 0.79931 0.13825 0.0
H831 H 0.17588 0.78808 0.11772 0.0
H832 H 0.25274 0.83206 0.12527 0.0
H833 H 0.26292 0.85858 0.12752 0.0
H834 H 0.26706 0.84684 0.1141 0.0
H835 H 0.22237 0.86076 0.10962 0.0
H836 H 0.24425 0.86813 0.1023 0.0
H837 H 0.24618 0.87454 0.11873 0.0
H838 H 0.30119 0.88873 0.09076 0.0
C839 C 0.27276 0.86305 0.0926 0.0
C840 C 0.27646 0.44083 0.07384 0.0
C841 C 0.29116 0.43665 0.07857 0.0
C842 C 0.28874 0.42807 0.08988 0.0
C843 C 0.25787 0.42856 0.0916 0.0
C844 C 0.26005 0.43663 0.08043 0.0
C845 C 0.24317 0.44012 0.07657 0.0
H846 H 0.15811 0.43893 0.08921 0.0
C847 C 0.2394 0.42654 0.09622 0.0
C848 C 0.23073 0.43327 0.08741 0.0
H849 H 0.18842 0.45517 0.05613 0.0
H850 H 0.21343 0.44803 0.06457 0.0
H851 H 0.16201 0.39992 0.09137 0.0
H852 H 0.19731 0.46019 0.10861 0.0
H853 H 0.19596 0.44452 0.11994 0.0
H854 H 0.17331 0.443 0.11322 0.0
H855 H 0.15347 0.41001 0.10327 0.0
H856 H 0.16822 0.39856 0.10693 0.0
C857 C 0.23186 0.42669 0.06436 0.0
C858 C 0.25203 0.46275 0.07564 0.0
C859 C 0.21897 0.40037 0.13797 0.0
C860 C 0.20333 0.39819 0.14488 0.0
C861 C 0.18958 0.4035 0.13995 0.0
C862 C 0.1913 0.41082 0.12837 0.0
C863 C 0.20701 0.413 0.12158 0.0
C864 C 0.22061 0.40794 0.12642 0.0
C865 C 0.23672 0.41196 0.11802 0.0
C866 C 0.23033 0.41996 0.1073 0.0
C867 C 0.21285 0.42043 0.10944 0.0
C868 C 0.23556 0.39193 0.11398 0.0
C869 C 0.25702 0.42797 0.12502 0.0
C870 C 0.17024 0.44107 0.08385 0.0
C871 C 0.17134 0.44766 0.07201 0.0
C872 C 0.18717 0.44996 0.06523 0.0
C873 C 0.20172 0.44586 0.07016 0.0
C874 C 0.20041 0.43924 0.082 0.0
C875 C 0.18478 0.4368 0.08859 0.0
C876 C 0.18544 0.42898 0.10083 0.0
C877 C 0.20407 0.42718 0.1005 0.0
C878 C 0.21286 0.43338 0.0895 0.0
C879 C 0.16628 0.40835 0.10073 0.0
C880 C 0.18799 0.44482 0.11126 0.0
H881 H 0.27131 0.41753 0.10494 0.0
H882 H 0.27782 0.44758 0.06527 0.0
H883 H 0.26383 0.47165 0.08342 0.0
H884 H 0.24091 0.46761 0.07634 0.0
H885 H 0.25892 0.46706 0.06686 0.0
H886 H 0.2329 0.41287 0.06371 0.0
H887 H 0.23814 0.4346 0.05614 0.0
H888 H 0.21563 0.42125 0.06367 0.0
H889 H 0.2299 0.39664 0.14157 0.0
H890 H 0.1773 0.40177 0.14503 0.0
H891 H 0.1803 0.41451 0.12516 0.0
H892 H 0.21973 0.37964 0.11227 0.0
H893 H 0.24317 0.38786 0.12126 0.0
H894 H 0.242 0.39204 0.10519 0.0
H895 H 0.25528 0.4392 0.13083 0.0
H896 H 0.26822 0.43671 0.11877 0.0
H897 H 0.26326 0.42111 0.13123 0.0
H898 H 0.29954 0.4243 0.09368 0.0
C899 C 0.27224 0.42403 0.0964 0.0
C900 C 0.48746 0.88791 0.26273 0.0
C901 C 0.50546 0.89184 0.25804 0.0
C902 C 0.51033 0.90105 0.247 0.0
C903 C 0.47934 0.9018 0.24535 0.0
C904 C 0.47475 0.89311 0.2563 0.0
C905 C 0.45527 0.89036 0.26014 0.0
H906 H 0.37187 0.89643 0.24782 0.0
C907 C 0.46284 0.90505 0.24091 0.0
C908 C 0.44876 0.89851 0.24958 0.0
H909 H 0.38949 0.87685 0.28024 0.0
H910 H 0.41994 0.88346 0.27192 0.0
H911 H 0.41555 0.9352 0.24692 0.0
H912 H 0.38737 0.87611 0.2275 0.0
H913 H 0.39904 0.89362 0.21687 0.0
H914 H 0.37911 0.89353 0.22462 0.0
H915 H 0.39574 0.92692 0.23465 0.0
H916 H 0.4215 0.9376 0.23155 0.0
C917 C 0.45967 0.90319 0.27267 0.0
C918 C 0.44084 0.86774 0.26049 0.0
C919 C 0.46445 0.93316 0.19972 0.0
C920 C 0.45141 0.93773 0.19299 0.0
C921 C 0.43371 0.93431 0.19802 0.0
C922 C 0.4291 0.92646 0.20945 0.0
C923 C 0.4423 0.92196 0.21602 0.0
C924 C 0.45967 0.92542 0.21114 0.0
C925 C 0.47211 0.92 0.21941 0.0
C926 C 0.45933 0.91263 0.23006 0.0
C927 C 0.44182 0.91372 0.22802 0.0
C928 C 0.49242 0.93919 0.22357 0.0
C929 C 0.47379 0.9031 0.21227 0.0
C930 C 0.38233 0.89369 0.25318 0.0
C931 C 0.37794 0.88577 0.26467 0.0
C932 C 0.39208 0.88241 0.27124 0.0
C933 C 0.40993 0.88643 0.26644 0.0
C934 C 0.41395 0.89406 0.25492 0.0
C935 C 0.40038 0.89778 0.24854 0.0
C936 C 0.40757 0.90646 0.23659 0.0
C937 C 0.42756 0.90716 0.23684 0.0
C938 C 0.43111 0.89973 0.24758 0.0
C939 C 0.41014 0.92761 0.23733 0.0
C940 C 0.39251 0.89183 0.22576 0.0
H941 H 0.50188 0.91281 0.23223 0.0
H942 H 0.48345 0.88113 0.27129 0.0
H943 H 0.44217 0.859 0.25249 0.0
H944 H 0.42496 0.86361 0.25974 0.0
H945 H 0.4443 0.86253 0.26909 0.0
H946 H 0.47495 0.91652 0.27365 0.0
H947 H 0.45866 0.89452 0.28061 0.0
H948 H 0.44962 0.90939 0.27353 0.0
H949 H 0.47804 0.93528 0.19614 0.0
H950 H 0.42349 0.93793 0.19318 0.0
H951 H 0.41543 0.92423 0.21274 0.0
H952 H 0.49068 0.95259 0.22435 0.0
H953 H 0.50344 0.94165 0.21683 0.0
H954 H 0.49886 0.93904 0.23288 0.0
H955 H 0.45938 0.89235 0.20673 0.0
H956 H 0.477 0.89401 0.2184 0.0
H957 H 0.48547 0.9092 0.20578 0.0
H958 H 0.52405 0.90412 0.24317 0.0
C959 C 0.49738 0.906 0.24063 0.0
C960 C 0.06271 0.48119 0.28234 0.0
C961 C 0.06249 0.46422 0.27684 0.0
C962 C 0.05622 0.45845 0.26409 0.0
C963 C 0.0524 0.48738 0.26237 0.0
C964 C 0.05774 0.49256 0.27496 0.0
C965 C 0.05864 0.5118 0.27922 0.0
H966 H 0.06239 0.59646 0.26432 0.0
C967 C 0.04995 0.50328 0.2572 0.0
C968 C 0.05354 0.51762 0.26703 0.0
H969 H 0.06706 0.57921 0.30095 0.0
H970 H 0.05998 0.54696 0.29198 0.0
H971 H 0.08479 0.57741 0.25075 0.0
H972 H 0.02265 0.55528 0.25486 0.0
H973 H 0.02336 0.5454 0.24009 0.0
H974 H 0.03519 0.57212 0.24365 0.0
H975 H 0.07036 0.58683 0.24326 0.0
H976 H 0.07124 0.5657 0.23627 0.0
C977 C 0.08028 0.52678 0.28493 0.0
C978 C 0.04247 0.50731 0.28822 0.0
C979 C 0.03615 0.50102 0.21063 0.0
C980 C 0.035 0.51461 0.20313 0.0
C981 C 0.03722 0.53253 0.20875 0.0
C982 C 0.04073 0.53698 0.22162 0.0
C983 C 0.04219 0.52344 0.229 0.0
C984 C 0.03982 0.50576 0.22351 0.0
C985 C 0.04236 0.49346 0.23285 0.0
C986 C 0.04621 0.50648 0.24484 0.0
C987 C 0.04619 0.52405 0.24249 0.0
C988 C 0.06075 0.49148 0.2301 0.0
C989 C 0.02251 0.47335 0.23224 0.0
C990 C 0.06162 0.58573 0.27049 0.0
C991 C 0.06573 0.59072 0.2834 0.0
C992 C 0.06458 0.57611 0.29096 0.0
C993 C 0.06034 0.55729 0.28575 0.0
C994 C 0.05714 0.55293 0.27282 0.0
C995 C 0.05717 0.5668 0.26545 0.0
C996 C 0.05236 0.55917 0.25194 0.0
C997 C 0.05004 0.53864 0.2524 0.0
C998 C 0.05322 0.53522 0.26463 0.0
C999 C 0.07049 0.57297 0.24509 0.0
C1000 C 0.03246 0.55801 0.24728 0.0
H1001 H 0.04685 0.46495 0.24716 0.0
H1002 H 0.06711 0.48583 0.29215 0.0
H1003 H 0.0297 0.49178 0.28617 0.0
H1004 H 0.03567 0.51684 0.28734 0.0
H1005 H 0.04867 0.50905 0.29798 0.0
H1006 H 0.09129 0.52612 0.27909 0.0
H1007 H 0.08313 0.52328 0.29433 0.0
H1008 H 0.08385 0.54244 0.28558 0.0
H1009 H 0.03469 0.48721 0.20656 0.0
H1010 H 0.03611 0.54309 0.20316 0.0
H1011 H 0.04236 0.55089 0.2253 0.0
H1012 H 0.0722 0.50498 0.22622 0.0
H1013 H 0.05641 0.47842 0.22326 0.0
H1014 H 0.06872 0.49032 0.23848 0.0
H1015 H 0.00946 0.47562 0.2309 0.0
H1016 H 0.02067 0.46612 0.24088 0.0
H1017 H 0.02127 0.46282 0.22439 0.0
H1018 H 0.05604 0.44553 0.25959 0.0
C1019 C 0.0511 0.46989 0.25685 0.0
C1020 C 0.39082 0.4774 0.26962 0.0
C1021 C 0.37484 0.45957 0.26356 0.0
C1022 C 0.37598 0.45364 0.25127 0.0
C1023 C 0.40862 0.48319 0.2513 0.0
C1024 C 0.4074 0.48893 0.26335 0.0
C1025 C 0.4252 0.50864 0.26838 0.0
H1026 H 0.51253 0.58969 0.25931 0.0
C1027 C 0.42773 0.4988 0.24744 0.0
C1028 C 0.43744 0.51376 0.25743 0.0
H1029 H 0.48138 0.57798 0.29221 0.0
H1030 H 0.45587 0.54585 0.28234 0.0
H1031 H 0.50752 0.54663 0.25461 0.0
H1032 H 0.47408 0.5726 0.23982 0.0
H1033 H 0.47668 0.55878 0.22741 0.0
H1034 H 0.4987 0.57933 0.23594 0.0
H1035 H 0.51595 0.56285 0.24256 0.0
H1036 H 0.4996 0.53623 0.23916 0.0
C1037 C 0.43592 0.50519 0.27965 0.0
C1038 C 0.41782 0.52356 0.27134 0.0
C1039 C 0.44751 0.49191 0.20431 0.0
C1040 C 0.4646 0.50402 0.19844 0.0
C1041 C 0.47988 0.52202 0.20491 0.0
C1042 C 0.47828 0.52788 0.21699 0.0
C1043 C 0.46121 0.51565 0.22276 0.0
C1044 C 0.44619 0.49796 0.21648 0.0
C1045 C 0.42931 0.48684 0.22427 0.0
C1046 C 0.43678 0.50077 0.23622 0.0
C1047 C 0.45541 0.51767 0.2352 0.0
C1048 C 0.42774 0.46652 0.22614 0.0
C1049 C 0.41012 0.4852 0.21781 0.0
C1050 C 0.50036 0.58012 0.26446 0.0
C1051 C 0.49895 0.5865 0.27655 0.0
C1052 C 0.48268 0.5736 0.28283 0.0
C1053 C 0.46791 0.55489 0.27709 0.0
C1054 C 0.46933 0.54893 0.26491 0.0
C1055 C 0.48548 0.56138 0.25887 0.0
C1056 C 0.48461 0.55255 0.24601 0.0
C1057 C 0.46508 0.53287 0.24525 0.0
C1058 C 0.45618 0.53086 0.25632 0.0
C1059 C 0.50288 0.54947 0.24543 0.0
C1060 C 0.4836 0.56649 0.23673 0.0
H1061 H 0.39281 0.46003 0.23578 0.0
H1062 H 0.39023 0.48257 0.27898 0.0
H1063 H 0.40498 0.52055 0.26463 0.0
H1064 H 0.42921 0.53919 0.27054 0.0
H1065 H 0.41278 0.52241 0.28076 0.0
H1066 H 0.43525 0.49056 0.27813 0.0
H1067 H 0.42882 0.5052 0.28822 0.0
H1068 H 0.45204 0.51631 0.28125 0.0
H1069 H 0.43557 0.47794 0.19961 0.0
H1070 H 0.49303 0.53178 0.20054 0.0
H1071 H 0.49041 0.54177 0.22134 0.0
H1072 H 0.44287 0.4682 0.22755 0.0
H1073 H 0.41948 0.45552 0.21793 0.0
H1074 H 0.42051 0.46016 0.23446 0.0
H1075 H 0.41366 0.49898 0.21337 0.0
H1076 H 0.39919 0.48374 0.22432 0.0
H1077 H 0.4028 0.47243 0.21047 0.0
H1078 H 0.36388 0.43991 0.24642 0.0
C1079 C 0.39281 0.46532 0.24512 0.0
Eu1080 Eu 0.49188 0.98791 0.98799 0.0
Eu1081 Eu 0.50874 0.01546 0.01539 0.0
C1082 C 0.4847 0.02449 0.99383 0.0
C1083 C 0.48535 0.97493 0.95353 0.0
C1084 C 0.49692 0.99534 0.95216 0.0
C1085 C 0.48336 0.96738 0.93131 0.0
C1086 C 0.50173 0.00173 0.94046 0.0
C1087 C 0.4786 0.96099 0.94305 0.0
C1088 C 0.49503 0.98784 0.92988 0.0
C1089 C 0.48078 0.9683 0.96592 0.0
O1090 O 0.48374 0.98508 0.01838 0.0
O1091 O 0.46566 0.97627 0.99939 0.0
C1092 C 0.46674 0.97484 0.01134 0.0
O1093 O 0.50209 0.97199 1.00061 0.0
O1094 O 0.50425 0.03189 0.03067 0.0
O1095 O 0.52957 0.02735 0.03227 0.0
O1096 O 0.52629 -4e-05 0.01242 0.0
C1097 C 0.5187 0.98123 0.0081 0.0
O1098 O 0.52336 0.01221 0.9864 0.0
O1099 O 0.53001 0.0359 0.00271 0.0
O1100 O 0.4878 0.02386 0.00575 0.0
O1101 O 0.49591 0.97042 0.97315 0.0
O1102 O 0.47 0.97414 0.97169 0.0
O1103 O 0.48935 0.015 0.98551 0.0
C1104 C 0.5135 0.02594 0.05053 0.0
C1105 C 0.52496 0.01969 0.05743 0.0
C1106 C 0.49181 0.01844 0.06714 0.0
C1107 C 0.51979 0.01274 0.06899 0.0
C1108 C 0.49698 0.02542 0.0556 0.0
C1109 C 0.50308 0.01192 0.07397 0.0
C1110 C 0.51861 0.03285 0.03811 0.0
C1111 C 0.53423 0.03029 0.99219 0.0
H1112 H 0.50223 0.00633 0.96017 0.0
H1113 H 0.47814 0.95626 0.92339 0.0
H1114 H 0.5105 0.01759 0.9397 0.0
H1115 H 0.46974 0.94518 0.94395 0.0
H1116 H 0.53785 0.02 0.05386 0.0
H1117 H 0.47906 0.01836 0.07078 0.0
H1118 H 0.52872 0.00768 0.07394 0.0
H1119 H 0.48796 0.03035 0.05063 0.0
Eu1120 Eu 0.01408 0.50508 0.98895 0.0
Eu1121 Eu 0.98907 0.49555 0.01332 0.0
C1122 C 0.97639 0.46272 0.99028 0.0
C1123 C 0.02754 0.51027 0.9556 0.0
C1124 C 0.02384 0.4933 0.94796 0.0
C1125 C 0.02149 0.52415 0.93746 0.0
C1126 C 0.0189 0.4917 0.93524 0.0
C1127 C 0.0264 0.52573 0.9502 0.0
C1128 C 0.01771 0.50712 0.92983 0.0
C1129 C 0.0328 0.51183 0.96908 0.0
O1130 O 0.01874 0.49885 0.01983 0.0
O1131 O 0.0253 0.48941 0.00118 0.0
C1132 C 0.02837 0.49227 0.01333 0.0
O1133 O 0.03364 0.53028 0.00357 0.0
O1134 O 0.9726 0.47405 0.02613 0.0
O1135 O 0.97593 0.50344 0.02834 0.0
O1136 O 0.00899 0.529 0.01474 0.0
C1137 C 0.02728 0.53865 0.01155 0.0
O1138 O 0.99329 0.51737 0.98634 0.0
O1139 O 0.96902 0.49778 0.9984 0.0
O1140 O 0.98039 0.46634 0.00234 0.0
O1141 O 0.0319 0.52563 0.97602 0.0
O1142 O 0.02582 0.49511 0.97413 0.0
O1143 O 0.98467 0.47715 0.98319 0.0
C1144 C 0.97655 0.48833 0.04635 0.0
C1145 C 0.99682 0.49625 0.05044 0.0
C1146 C 0.96818 0.48184 0.06732 0.0
C1147 C 0.00275 0.49696 0.06293 0.0
C1148 C 0.96227 0.48113 0.05482 0.0
C1149 C 0.98849 0.48974 0.0715 0.0
C1150 C 0.97019 0.4867 0.03317 0.0
C1151 C 0.97508 0.50985 0.98966 0.0
H1152 H 0.02473 0.48119 0.95182 0.0
H1153 H 0.02098 0.53641 0.93356 0.0
H1154 H 0.01585 0.47828 0.92964 0.0
H1155 H 0.02937 0.53912 0.9558 0.0
H1156 H 0.00802 0.50171 0.04396 0.0
H1157 H 0.95688 0.47641 0.07373 0.0
H1158 H 0.01847 0.50291 0.06584 0.0
H1159 H 0.94655 0.4749 0.05177 0.0
Eu1160 Eu 0.51032 0.49706 0.0152 0.0
Eu1161 Eu 0.48941 0.50264 0.98952 0.0
C1162 C 0.51503 0.53877 0.00982 0.0
C1163 C 0.51839 0.49088 0.04885 0.0
C1164 C 0.50476 0.49683 0.05217 0.0
C1165 C 0.51909 0.48035 0.06934 0.0
C1166 C 0.49848 0.49474 0.06403 0.0
C1167 C 0.52539 0.48249 0.05746 0.0
C1168 C 0.50567 0.48661 0.0728 0.0
C1169 C 0.52534 0.49352 0.03645 0.0
O1170 O 0.52178 0.51379 0.98671 0.0
O1171 O 0.52952 0.49676 1.00051 0.0
C1172 C 0.53333 0.50699 0.99084 0.0
O1173 O 0.48703 0.46639 0.0067 0.0
O1174 O 0.4884 0.52245 0.97653 0.0
O1175 O 0.46787 0.49064 0.97296 0.0
O1176 O 0.4879 0.47303 0.98649 0.0
C1177 C 0.48338 0.46036 0.99484 0.0
O1178 O 0.48321 0.49805 0.02067 0.0
O1179 O 0.46439 0.4892 0.00179 0.0
O1180 O 0.49758 0.52897 0.00324 0.0
O1181 O 0.51489 0.47861 0.02797 0.0
O1182 O 0.52998 0.51058 0.03237 0.0
O1183 O 0.52497 0.52975 0.0127 0.0
C1184 C 0.48076 0.50827 0.95559 0.0
C1185 C 0.46708 0.49366 0.9463 0.0
C1186 C 0.50441 0.52286 0.94032 0.0
C1187 C 0.47207 0.49352 0.93416 0.0
C1188 C 0.49947 0.52292 0.95246 0.0
C1189 C 0.49082 0.50811 0.93102 0.0
C1190 C 0.4755 0.50785 0.96847 0.0
C1191 C 0.466 0.4914 0.01397 0.0
H1192 H 0.49919 0.50336 0.04564 0.0
H1193 H 0.5247 0.47378 0.07581 0.0
H1194 H 0.48838 0.49998 0.06641 0.0
H1195 H 0.53581 0.47769 0.05502 0.0
H1196 H 0.45258 0.48219 0.94846 0.0
H1197 H 0.51884 0.53452 0.93822 0.0
H1198 H 0.46134 0.48176 0.92729 0.0
H1199 H 0.5104 0.53443 0.95938 0.0
Eu1200 Eu 0.15575 0.31844 0.32171 0.0
Eu1201 Eu 0.17174 0.34522 0.34907 0.0
C1202 C 0.14959 0.35601 0.32802 0.0
C1203 C 0.14969 0.30642 0.28667 0.0
C1204 C 0.14175 0.31758 0.28161 0.0
C1205 C 0.1664 0.30868 0.26807 0.0
C1206 C 0.14615 0.32426 0.26992 0.0
C1207 C 0.16187 0.30189 0.27972 0.0
C1208 C 0.15869 0.32006 0.26302 0.0
C1209 C 0.14613 0.30003 0.2993 0.0
O1210 O 0.13859 0.32461 0.34865 0.0
O1211 O 0.13384 0.29902 0.33455 0.0
C1212 C 0.12792 0.30601 0.3437 0.0
O1213 O 0.17679 0.31067 0.33186 0.0
O1214 O 0.16855 0.36278 0.36427 0.0
O1215 O 0.19295 0.35671 0.36572 0.0
O1216 O 0.17012 0.31596 0.35137 0.0
C1217 C 0.177 0.30789 0.34361 0.0
O1218 O 0.18147 0.34836 0.31885 0.0
O1219 O 0.19853 0.35609 0.33812 0.0
O1220 O 0.16488 0.36359 0.33659 0.0
O1221 O 0.1619 0.30349 0.3064 0.0
O1222 O 0.13409 0.30378 0.30533 0.0
O1223 O 0.14146 0.33754 0.3229 0.0
C1224 C 0.17754 0.35632 0.38376 0.0
C1225 C 0.16391 0.33613 0.38469 0.0
C1226 C 0.1808 0.36286 0.40615 0.0
C1227 C 0.15874 0.32935 0.39627 0.0
C1228 C 0.18595 0.36963 0.39454 0.0
C1229 C 0.16711 0.34262 0.40716 0.0
C1230 C 0.18289 0.3634 0.37155 0.0
C1231 C 0.19819 0.35802 0.3262 0.0
H1232 H 0.13228 0.32132 0.28671 0.0
H1233 H 0.17632 0.30537 0.26316 0.0
H1234 H 0.13965 0.33267 0.26626 0.0
H1235 H 0.16822 0.29335 0.28339 0.0
H1236 H 0.15729 0.32561 0.37645 0.0
H1237 H 0.18734 0.37353 0.41432 0.0
H1238 H 0.14839 0.31363 0.3967 0.0
H1239 H 0.19645 0.38528 0.39399 0.0
Eu1240 Eu 0.67688 0.83057 0.31938 0.0
Eu1241 Eu 0.65339 0.82571 0.34431 0.0
C1242 C 0.64014 0.78933 0.32418 0.0
C1243 C 0.69347 0.84042 0.28675 0.0
C1244 C 0.67536 0.83729 0.28089 0.0
C1245 C 0.70931 0.85215 0.26806 0.0
C1246 C 0.6741 0.84102 0.26856 0.0
C1247 C 0.71051 0.84828 0.28036 0.0
C1248 C 0.69097 0.84808 0.26191 0.0
C1249 C 0.69455 0.83435 0.29916 0.0
O1250 O 0.67499 0.81495 0.34911 0.0
O1251 O 0.69657 0.82756 0.33408 0.0
C1252 C 0.69176 0.81916 0.34442 0.0
O1253 O 0.68655 0.86141 0.32841 0.0
O1254 O 0.63448 0.80646 0.35742 0.0
O1255 O 0.64311 0.83777 0.3589 0.0
O1256 O 0.68321 0.85366 0.34835 0.0
C1257 C 0.69114 0.86677 0.34037 0.0
O1258 O 0.64875 0.83074 0.31297 0.0
O1259 O 0.64286 0.84129 0.33159 0.0
O1260 O 0.63362 0.79965 0.33027 0.0
O1261 O 0.70145 0.84826 0.30844 0.0
O1262 O 0.67909 0.81787 0.3016 0.0
O1263 O 0.65881 0.79786 0.32176 0.0
C1264 C 0.63923 0.82244 0.37735 0.0
C1265 C 0.65917 0.83183 0.38259 0.0
C1266 C 0.62806 0.81483 0.39769 0.0
C1267 C 0.66353 0.83286 0.39535 0.0
C1268 C 0.62373 0.81391 0.38494 0.0
C1269 C 0.648 0.82436 0.40303 0.0
C1270 C 0.63442 0.82106 0.36397 0.0
C1271 C 0.63994 0.83841 0.31943 0.0
H1272 H 0.66203 0.83131 0.2857 0.0
H1273 H 0.72267 0.85795 0.26329 0.0
H1274 H 0.6597 0.83754 0.26409 0.0
H1275 H 0.72464 0.85091 0.28478 0.0
H1276 H 0.67132 0.83831 0.3768 0.0
H1277 H 0.6158 0.80836 0.40339 0.0
H1278 H 0.67902 0.8401 0.3992 0.0
H1279 H 0.60826 0.80656 0.381 0.0
Eu1280 Eu 0.17816 0.8335 0.34832 0.0
Eu1281 Eu 0.15756 0.84019 0.32287 0.0
C1282 C 0.18316 0.87565 0.34351 0.0
C1283 C 0.18479 0.82638 0.38176 0.0
C1284 C 0.1717 0.83318 0.38486 0.0
C1285 C 0.18312 0.81436 0.40199 0.0
C1286 C 0.16462 0.83087 0.3965 0.0
C1287 C 0.1903 0.81679 0.39034 0.0
C1288 C 0.17034 0.82156 0.40526 0.0
C1289 C 0.19248 0.82919 0.36955 0.0
O1290 O 0.18986 0.85076 0.32011 0.0
O1291 O 0.1971 0.83294 0.33354 0.0
C1292 C 0.20102 0.84337 0.32396 0.0
O1293 O 0.15455 0.80313 0.33956 0.0
O1294 O 0.15843 0.86051 0.30963 0.0
O1295 O 0.13542 0.82933 0.30671 0.0
O1296 O 0.15533 0.81031 0.31946 0.0
C1297 C 0.15077 0.7974 0.32765 0.0
O1298 O 0.1509 0.83382 0.35402 0.0
O1299 O 0.13246 0.82752 0.33516 0.0
O1300 O 0.16576 0.86611 0.3369 0.0
O1301 O 0.18221 0.81451 0.3609 0.0
O1302 O 0.19773 0.84644 0.36557 0.0
O1303 O 0.19294 0.86642 0.34629 0.0
C1304 C 0.14911 0.84551 0.2892 0.0
C1305 C 0.16235 0.83881 0.28635 0.0
C1306 C 0.14675 0.85229 0.26787 0.0
C1307 C 0.1678 0.83887 0.27433 0.0
C1308 C 0.14131 0.8522 0.27991 0.0
C1309 C 0.16013 0.8457 0.26495 0.0
C1310 C 0.14416 0.84633 0.30195 0.0
C1311 C 0.13398 0.8284 0.34733 0.0
H1312 H 0.16715 0.84054 0.37834 0.0
H1313 H 0.18757 0.80682 0.40842 0.0
H1314 H 0.15506 0.83686 0.39871 0.0
H1315 H 0.20021 0.81126 0.38805 0.0
H1316 H 0.16858 0.83366 0.29346 0.0
H1317 H 0.14079 0.85789 0.26092 0.0
H1318 H 0.17791 0.83346 0.27238 0.0
H1319 H 0.1312 0.85758 0.28199 0.0
Eu1320 Eu 0.8269 0.65532 0.65619 0.0
Eu1321 Eu 0.84174 0.6822 0.68348 0.0
C1322 C 0.82252 0.69331 0.66082 0.0
C1323 C 0.81976 0.64379 0.6212 0.0
C1324 C 0.81576 0.65847 0.61717 0.0
C1325 C 0.83255 0.64224 0.60152 0.0
C1326 C 0.82004 0.66487 0.60541 0.0
C1327 C 0.82812 0.63571 0.61324 0.0
C1328 C 0.82856 0.65689 0.59747 0.0
C1329 C 0.81583 0.63715 0.63373 0.0
O1330 O 0.81693 0.6517 0.68609 0.0
O1331 O 0.79984 0.64435 0.66694 0.0
C1332 C 0.80026 0.64189 0.67877 0.0
O1333 O 0.83465 0.63758 0.66871 0.0
O1334 O 0.83394 0.69631 0.69838 0.0
O1335 O 0.86208 0.69676 0.70043 0.0
O1336 O 0.85683 0.66384 0.68279 0.0
C1337 C 0.84946 0.64548 0.67763 0.0
O1338 O 0.86 0.67648 0.65681 0.0
O1339 O 0.86472 0.70178 0.67123 0.0
O1340 O 0.8215 0.69022 0.67253 0.0
O1341 O 0.83103 0.63885 0.64069 0.0
O1342 O 0.80497 0.6424 0.63993 0.0
O1343 O 0.82939 0.68477 0.65343 0.0
C1344 C 0.84447 0.6922 0.71806 0.0
C1345 C 0.83431 0.67154 0.71887 0.0
C1346 C 0.84353 0.69774 0.74018 0.0
C1347 C 0.82877 0.66402 0.73023 0.0
C1348 C 0.84904 0.70525 0.72878 0.0
C1349 C 0.83331 0.67703 0.74104 0.0
C1350 C 0.84931 0.69998 0.70597 0.0
C1351 C 0.87067 0.69498 0.66198 0.0
H1352 H 0.80948 0.66516 0.62313 0.0
H1353 H 0.83894 0.63567 0.59557 0.0
H1354 H 0.81701 0.67636 0.60263 0.0
H1355 H 0.83135 0.6244 0.61612 0.0
H1356 H 0.83048 0.66121 0.71067 0.0
H1357 H 0.84744 0.70818 0.74833 0.0
H1358 H 0.82062 0.648 0.7305 0.0
H1359 H 0.85677 0.72123 0.72832 0.0
Eu1360 Eu 0.34932 0.17172 0.65617 0.0
Eu1361 Eu 0.32435 0.16361 0.68063 0.0
C1362 C 0.31114 0.12929 0.65865 0.0
C1363 C 0.36365 0.17772 0.62316 0.0
C1364 C 0.34369 0.16933 0.61815 0.0
C1365 C 0.37446 0.18529 0.60275 0.0
C1366 C 0.33914 0.16891 0.60548 0.0
C1367 C 0.37898 0.18565 0.61541 0.0
C1368 C 0.3545 0.17699 0.59765 0.0
C1369 C 0.36869 0.17894 0.63648 0.0
O1370 O 0.34561 0.15207 0.68422 0.0
O1371 O 0.36925 0.16981 0.67123 0.0
C1372 C 0.36345 0.15873 0.68046 0.0
O1373 O 0.3583 0.20144 0.66654 0.0
O1374 O 0.30585 0.14318 0.6934 0.0
O1375 O 0.3129 0.17402 0.6954 0.0
O1376 O 0.35373 0.19179 0.68602 0.0
C1377 C 0.36211 0.2057 0.67858 0.0
O1378 O 0.32024 0.16961 0.64946 0.0
O1379 O 0.31351 0.1792 0.66807 0.0
O1380 O 0.30472 0.13838 0.66602 0.0
O1381 O 0.36707 0.19237 0.64326 0.0
O1382 O 0.36135 0.16206 0.64132 0.0
O1383 O 0.32961 0.13841 0.65578 0.0
C1384 C 0.31036 0.1583 0.71354 0.0
C1385 C 0.33045 0.16715 0.71836 0.0
C1386 C 0.30022 0.15117 0.73414 0.0
C1387 C 0.33542 0.16814 0.73104 0.0
C1388 C 0.29528 0.15027 0.72147 0.0
C1389 C 0.32034 0.16017 0.73906 0.0
C1390 C 0.30503 0.15709 0.70025 0.0
C1391 C 0.31081 0.17658 0.6559 0.0
H1392 H 0.33168 0.16328 0.62407 0.0
H1393 H 0.38659 0.19136 0.59693 0.0
H1394 H 0.32364 0.16259 0.60183 0.0
H1395 H 0.39446 0.19221 0.61917 0.0
H1396 H 0.34227 0.17326 0.71231 0.0
H1397 H 0.28831 0.14511 0.74012 0.0
H1398 H 0.35103 0.17496 0.73455 0.0
H1399 H 0.2797 0.14335 0.71785 0.0
Eu1400 Eu 0.84619 0.16271 0.68215 0.0
Eu1401 Eu 0.82533 0.16799 0.65629 0.0
C1402 C 0.852 0.20458 0.676 0.0
C1403 C 0.85415 0.15492 0.71569 0.0
C1404 C 0.86646 0.16683 0.7263 0.0
C1405 C 0.82746 0.13652 0.72854 0.0
C1406 C 0.85932 0.16383 0.73791 0.0
C1407 C 0.83458 0.13969 0.71688 0.0
C1408 C 0.8397 0.14867 0.73922 0.0
C1409 C 0.86147 0.15987 0.70348 0.0
O1410 O 0.8576 0.17872 0.65346 0.0
O1411 O 0.86531 0.162 0.66751 0.0
C1412 C 0.86909 0.17195 0.65772 0.0
O1413 O 0.82177 0.13218 0.67416 0.0
O1414 O 0.82578 0.18722 0.64236 0.0
O1415 O 0.80296 0.15595 0.64021 0.0
O1416 O 0.82409 0.1384 0.65394 0.0
C1417 C 0.81883 0.12582 0.66237 0.0
O1418 O 0.8189 0.16306 0.68771 0.0
O1419 O 0.80052 0.15685 0.66882 0.0
O1420 O 0.8344 0.19496 0.6696 0.0
O1421 O 0.85378 0.14557 0.69438 0.0
O1422 O 0.86332 0.17647 0.7001 0.0
O1423 O 0.86153 0.19521 0.67903 0.0
C1424 C 0.81589 0.17103 0.62218 0.0
C1425 C 0.82663 0.16154 0.619 0.0
C1426 C 0.81531 0.17937 0.60106 0.0
C1427 C 0.83158 0.16086 0.6069 0.0
C1428 C 0.81027 0.17995 0.61315 0.0
C1429 C 0.82603 0.16982 0.5978 0.0
C1430 C 0.81141 0.17256 0.63501 0.0
C1431 C 0.80212 0.1581 0.68101 0.0
H1432 H 0.88148 0.17886 0.72556 0.0
H1433 H 0.81236 0.1246 0.72917 0.0
H1434 H 0.86906 0.17385 0.74582 0.0
H1435 H 0.82467 0.13047 0.70878 0.0
H1436 H 0.83134 0.15481 0.62591 0.0
H1437 H 0.81065 0.18623 0.59423 0.0
H1438 H 0.84006 0.15361 0.60473 0.0
H1439 H 0.8021 0.18746 0.61548 0.0
H1440 H 0.33035 0.88723 0.0839 0.0
H1441 H 0.35978 0.90543 0.07284 0.0
H1442 H 0.32164 0.8924 0.03896 0.0
H1443 H 0.29215 0.87411 0.04996 0.0
H1444 H 0.35141 0.88567 0.03499 0.0
H1445 H 0.34586 0.93914 0.05515 0.0
H1446 H 0.34308 0.9589 0.07273 0.0
H1447 H 0.3994 0.97017 0.09022 0.0
H1448 H 0.40238 0.95023 0.07282 0.0
H1449 H 0.42789 0.95443 1.0007 0.0
H1450 H 0.39769 0.93576 0.01105 0.0
H1451 H 0.43395 0.94782 0.04562 0.0
H1452 H 0.4641 0.96675 0.03546 0.0
H1453 H 0.40462 0.95526 0.04883 0.0
H1454 H 0.40992 0.90131 0.02899 0.0
H1455 H 0.41286 0.88161 0.01144 0.0
H1456 H 0.35726 0.87136 0.99341 0.0
H1457 H 0.35411 0.89123 0.01078 0.0
C1458 C 0.32823 0.88847 0.07413 0.0
C1459 C 0.30892 0.87925 0.06781 0.0
C1460 C 0.34506 0.89886 0.06781 0.0
C1461 C 0.34292 0.90044 0.05508 0.0
C1462 C 0.32366 0.89134 0.04877 0.0
C1463 C 0.30683 0.88087 0.05506 0.0
C1464 C 0.36078 0.91119 0.04829 0.0
C1465 C 0.36291 0.90099 0.03791 0.0
C1466 C 0.37601 0.93103 0.05225 0.0
C1467 C 0.37424 0.94302 0.06273 0.0
C1468 C 0.35757 0.94569 0.06279 0.0
C1469 C 0.35597 0.95695 0.07272 0.0
C1470 C 0.37103 0.96574 0.0826 0.0
C1471 C 0.38774 0.96333 0.08257 0.0
C1472 C 0.38939 0.95206 0.07267 0.0
C1473 C 0.42944 0.95293 0.01048 0.0
C1474 C 0.44843 0.96209 0.01724 0.0
C1475 C 0.41216 0.94222 0.01638 0.0
C1476 C 0.41355 0.94029 0.02911 0.0
C1477 C 0.4325 0.94915 0.03581 0.0
C1478 C 0.44974 0.95991 0.02995 0.0
C1479 C 0.39532 0.9297 0.03559 0.0
C1480 C 0.39311 0.93995 0.0459 0.0
C1481 C 0.38004 0.90991 0.03157 0.0
C1482 C 0.38188 0.89793 0.02113 0.0
C1483 C 0.3984 0.89499 0.02124 0.0
C1484 C 0.40009 0.88377 0.01133 0.0
C1485 C 0.38528 0.87529 0.0013 0.0
C1486 C 0.36873 0.87797 0.00118 0.0
C1487 C 0.36697 0.88919 0.01105 0.0
H1488 H 0.38662 0.8666 0.99364 0.0
H1489 H 0.36977 0.97446 0.09027 0.0
H1490 H 0.15118 0.43527 0.04889 0.0
H1491 H 0.12675 0.44328 0.03977 0.0
H1492 H 0.13284 0.47834 0.07379 0.0
H1493 H 0.15688 0.46981 0.08307 0.0
H1494 H 0.09533 0.45864 0.06497 0.0
H1495 H 0.15609 0.50014 0.04785 0.0
H1496 H 0.18617 0.50823 0.03736 0.0
H1497 H 0.14933 0.47136 0.00465 0.0
H1498 H 0.11902 0.46281 0.01501 0.0
H1499 H 0.04662 0.50601 0.03693 0.0
H1500 H 0.07126 0.49962 0.04754 0.0
H1501 H 0.06757 0.46244 0.01519 0.0
H1502 H 0.04358 0.46951 0.00435 0.0
H1503 H 0.10487 0.48531 0.02408 0.0
H1504 H 0.04366 0.44304 0.04279 0.0
H1505 H 0.01466 0.43787 0.05369 0.0
H1506 H 0.05412 0.48009 0.08391 0.0
H1507 H 0.08332 0.48545 0.07321 0.0
C1508 C 0.14731 0.44471 0.05441 0.0
C1509 C 0.15605 0.45207 0.06665 0.0
C1510 C 0.13339 0.44933 0.04919 0.0
C1511 C 0.12823 0.46179 0.05599 0.0
C1512 C 0.1366 0.46876 0.06833 0.0
C1513 C 0.15033 0.46389 0.07363 0.0
C1514 C 0.1143 0.46766 0.05015 0.0
C1515 C 0.09756 0.46468 0.05609 0.0
C1516 C 0.11709 0.47551 0.03854 0.0
C1517 C 0.13529 0.4807 0.03225 0.0
C1518 C 0.1544 0.49365 0.03845 0.0
C1519 C 0.17149 0.49833 0.03252 0.0
C1520 C 0.16966 0.49028 0.02036 0.0
C1521 C 0.15073 0.47756 0.01408 0.0
C1522 C 0.13359 0.47281 0.01997 0.0
C1523 C 0.05102 0.49643 0.03209 0.0
C1524 C 0.04309 0.48819 0.01981 0.0
C1525 C 0.06505 0.4927 0.0382 0.0
C1526 C 0.07102 0.48021 0.03227 0.0
C1527 C 0.06318 0.47208 0.01998 0.0
C1528 C 0.04943 0.4761 0.0138 0.0
C1529 C 0.08566 0.47581 0.03873 0.0
C1530 C 0.10262 0.4792 0.03294 0.0
C1531 C 0.0832 0.46861 0.05054 0.0
C1532 C 0.06565 0.46471 0.05718 0.0
C1533 C 0.04613 0.45118 0.05178 0.0
C1534 C 0.02966 0.4482 0.05792 0.0
C1535 C 0.03254 0.45863 0.06949 0.0
C1536 C 0.0519 0.47196 0.07498 0.0
C1537 C 0.06841 0.47492 0.0689 0.0
H1538 H 0.01978 0.45639 0.07421 0.0
H1539 H 0.18291 0.49392 0.01578 0.0
H1540 H 0.61701 0.7232 0.05426 0.0
H1541 H 0.60267 0.68804 0.04663 0.0
H1542 H 0.55231 0.68843 0.02773 0.0
H1543 H 0.56613 0.7233 0.03572 0.0
H1544 H 0.54014 0.65678 0.04018 0.0
H1545 H 0.58897 0.68804 0.01183 0.0
H1546 H 0.62245 0.71016 0.00553 0.0
H1547 H 0.64529 0.6771 0.02391 0.0
H1548 H 0.612 0.65494 0.03048 0.0
H1549 H 0.49978 0.56288 0.00446 0.0
H1550 H 0.51462 0.5985 0.01089 0.0
H1551 H 0.56479 0.59886 0.03065 0.0
H1552 H 0.55024 0.56334 0.0241 0.0
H1553 H 0.57693 0.63021 0.01738 0.0
H1554 H 0.52743 0.59901 0.0458 0.0
H1555 H 0.49368 0.57722 0.05189 0.0
H1556 H 0.47177 0.61051 0.03287 0.0
H1557 H 0.5053 0.6323 0.02649 0.0
C1558 C 0.60287 0.71578 0.0485 0.0
C1559 C 0.59273 0.72606 0.04559 0.0
C1560 C 0.59479 0.69575 0.04404 0.0
C1561 C 0.57651 0.68567 0.03651 0.0
C1562 C 0.56646 0.69594 0.0335 0.0
C1563 C 0.57449 0.71593 0.03797 0.0
C1564 C 0.56745 0.66421 0.03216 0.0
C1565 C 0.54807 0.651 0.03503 0.0
C1566 C 0.57798 0.65665 0.02569 0.0
C1567 C 0.59803 0.66995 0.02175 0.0
C1568 C 0.60117 0.68559 0.01462 0.0
C1569 C 0.62011 0.69812 0.01098 0.0
C1570 C 0.636 0.69507 0.01434 0.0
C1571 C 0.63298 0.67946 0.02132 0.0
C1572 C 0.61407 0.6669 0.025 0.0
C1573 C 0.51395 0.57052 0.01019 0.0
C1574 C 0.5238 0.56026 0.0138 0.0
C1575 C 0.52238 0.59086 0.01389 0.0
C1576 C 0.5407 0.60127 0.02136 0.0
C1577 C 0.55063 0.5911 0.02489 0.0
C1578 C 0.54225 0.57078 0.02117 0.0
C1579 C 0.54964 0.6228 0.02542 0.0
C1580 C 0.569 0.63601 0.02251 0.0
C1581 C 0.53905 0.63038 0.03181 0.0
C1582 C 0.51884 0.61717 0.03557 0.0
C1583 C 0.51537 0.60157 0.04282 0.0
C1584 C 0.49629 0.58924 0.04634 0.0
C1585 C 0.48059 0.59248 0.04275 0.0
C1586 C 0.48394 0.60802 0.03563 0.0
C1587 C 0.50297 0.62036 0.03207 0.0
H1588 H 0.46586 0.58301 0.04552 0.0
H1589 H 0.65065 0.70478 0.01151 0.0
H1590 H 0.85215 0.27514 0.96138 0.0
H1591 H 0.87693 0.30905 0.97012 0.0
H1592 H 0.87651 0.33023 0.93441 0.0
H1593 H 0.85168 0.29636 0.92561 0.0
H1594 H 0.91415 0.34649 0.94556 0.0
H1595 H 0.85119 0.33714 0.95677 0.0
H1596 H 0.81913 0.32 0.96583 0.0
H1597 H 0.8504 0.32755 0.00147 0.0
H1598 H 0.88266 0.3445 0.99259 0.0
H1599 H 0.96156 0.44999 0.96594 0.0
H1600 H 0.93807 0.41592 0.95686 0.0
H1601 H 0.93644 0.39469 0.99276 0.0
H1602 H 0.95955 0.42874 0.00196 0.0
H1603 H 0.89992 0.37839 0.9814 0.0
H1604 H 0.96289 0.38781 0.97035 0.0
H1605 H 0.99504 0.40496 0.96139 0.0
H1606 H 0.96403 0.39726 0.92563 0.0
H1607 H 0.93168 0.38029 0.93441 0.0
C1608 C 0.85725 0.28704 0.95541 0.0
C1609 C 0.84987 0.28309 0.94282 0.0
C1610 C 0.87144 0.3064 0.9604 0.0
C1611 C 0.87837 0.32221 0.95295 0.0
C1612 C 0.87136 0.31825 0.94033 0.0
C1613 C 0.85722 0.29888 0.93531 0.0
C1614 C 0.89272 0.34293 0.95835 0.0
C1615 C 0.91096 0.35357 0.9533 0.0
C1616 C 0.8887 0.35199 0.96861 0.0
C1617 C 0.86933 0.34192 0.97399 0.0
C1618 C 0.85122 0.33502 0.96652 0.0
C1619 C 0.83302 0.32536 0.97162 0.0
C1620 C 0.83272 0.32264 0.98421 0.0
C1621 C 0.85065 0.32964 0.99172 0.0
C1622 C 0.8689 0.33929 0.98666 0.0
C1623 C 0.95626 0.43807 0.97191 0.0
C1624 C 0.96246 0.44208 0.98468 0.0
C1625 C 0.94289 0.41858 0.96669 0.0
C1626 C 0.93567 0.40271 0.97411 0.0
C1627 C 0.94181 0.4067 0.98686 0.0
C1628 C 0.95507 0.42618 0.99209 0.0
C1629 C 0.92142 0.38197 0.96865 0.0
C1630 C 0.90316 0.37132 0.97368 0.0
C1631 C 0.92545 0.3729 0.95838 0.0
C1632 C 0.94487 0.38295 0.95306 0.0
C1633 C 0.96293 0.3899 0.96059 0.0
C1634 C 0.98119 0.39957 0.95555 0.0
C1635 C 0.98158 0.40225 0.94296 0.0
C1636 C 0.96371 0.3952 0.93538 0.0
C1637 C 0.9454 0.38554 0.94039 0.0
H1638 H 0.99573 0.40975 0.93907 0.0
H1639 H 0.81861 0.31516 0.98814 0.0
H1640 H 0.69003 0.52227 0.94642 0.0
H1641 H 0.65957 0.51476 0.95571 0.0
H1642 H 0.65888 0.56379 0.9395 0.0
H1643 H 0.69014 0.57217 0.93074 0.0
H1644 H 0.65019 0.56386 0.96224 0.0
H1645 H 0.62617 0.51384 0.92792 0.0
H1646 H 0.62461 0.48654 0.91418 0.0
H1647 H 0.61167 0.45026 0.94437 0.0
H1648 H 0.61341 0.47744 0.95834 0.0
H1649 H 0.54943 0.53272 0.97324 0.0
H1650 H 0.57923 0.54037 0.96294 0.0
H1651 H 0.58776 0.499 0.98355 0.0
H1652 H 0.55797 0.49129 0.994 0.0
H1653 H 0.59168 0.49521 0.95799 0.0
H1654 H 0.6163 0.54679 0.99219 0.0
H1655 H 0.61669 0.57424 0.00509 0.0
H1656 H 0.62716 0.60786 0.9737 0.0
H1657 H 0.62654 0.58047 0.96057 0.0
C1658 C 0.68358 0.53164 0.94491 0.0
C1659 C 0.69269 0.54791 0.93784 0.0
C1660 C 0.66593 0.52712 0.9501 0.0
C1661 C 0.65668 0.5385 0.94817 0.0
C1662 C 0.66566 0.55472 0.94109 0.0
C1663 C 0.68346 0.55938 0.93597 0.0
C1664 C 0.63794 0.53372 0.95381 0.0
C1665 C 0.6373 0.54891 0.96113 0.0
C1666 C 0.62115 0.51414 0.95257 0.0
C1667 C 0.6201 0.49775 0.94421 0.0
C1668 C 0.62315 0.5001 0.93166 0.0
C1669 C 0.6222 0.48463 0.92382 0.0
C1670 C 0.6181 0.4667 0.92841 0.0
C1671 C 0.61488 0.46417 0.94084 0.0
C1672 C 0.61581 0.47959 0.94871 0.0
C1673 C 0.55761 0.52521 0.97561 0.0
C1674 C 0.55132 0.51143 0.9845 0.0
C1675 C 0.57468 0.52966 0.96972 0.0
C1676 C 0.58579 0.52036 0.97255 0.0
C1677 C 0.57941 0.50636 0.98126 0.0
C1678 C 0.56242 0.50204 0.98725 0.0
C1679 C 0.60409 0.5253 0.96643 0.0
C1680 C 0.6046 0.51015 0.95904 0.0
C1681 C 0.62064 0.54495 0.96746 0.0
C1682 C 0.62117 0.56149 0.97537 0.0
C1683 C 0.61852 0.55997 0.98801 0.0
C1684 C 0.61881 0.57553 0.99537 0.0
C1685 C 0.62189 0.59276 0.99021 0.0
C1686 C 0.62475 0.59449 0.97769 0.0
C1687 C 0.62444 0.57896 0.97028 0.0
H1688 H 0.62211 0.60479 0.99592 0.0
H1689 H 0.61737 0.45475 0.92233 0.0
H1690 H 0.38238 0.08943 0.93819 0.0
H1691 H 0.39726 0.07219 0.94843 0.0
H1692 H 0.43516 0.12531 0.97332 0.0
H1693 H 0.42163 0.14318 0.96245 0.0
H1694 H 0.45647 0.11128 0.96614 0.0
H1695 H 0.39351 0.08196 0.98239 0.0
H1696 H 0.35683 0.06509 0.98209 0.0
H1697 H 0.35108 0.01378 0.96078 0.0
H1698 H 0.38772 0.03045 0.9608 0.0
H1699 H 0.48424 0.05584 0.00638 0.0
H1700 H 0.46785 0.07404 0.99909 0.0
H1701 H 0.44635 0.03588 0.96466 0.0
H1702 H 0.46308 0.01801 0.97169 0.0
H1703 H 0.41682 0.04297 0.97868 0.0
H1704 H 0.48124 0.07569 0.96175 0.0
H1705 H 0.51809 0.0932 0.96369 0.0
H1706 H 0.5206 0.1393 0.98892 0.0
H1707 H 0.48373 0.12186 0.98727 0.0
C1708 C 0.39398 0.09754 0.94578 0.0
C1709 C 0.40078 0.11777 0.94943 0.0
C1710 C 0.40227 0.08753 0.95178 0.0
C1711 C 0.41715 0.09733 0.96179 0.0
C1712 C 0.42365 0.11738 0.96564 0.0
C1713 C 0.41566 0.12752 0.9595 0.0
C1714 C 0.42674 0.08704 0.96778 0.0
C1715 C 0.44772 0.09649 0.96908 0.0
C1716 C 0.41543 0.06764 0.97154 0.0
C1717 C 0.39337 0.05753 0.97151 0.0
C1718 C 0.38442 0.06714 0.97756 0.0
C1719 C 0.36363 0.0576 0.97745 0.0
C1720 C 0.35163 0.03839 0.9714 0.0
C1721 C 0.3604 0.02867 0.96546 0.0
C1722 C 0.38118 0.03814 0.96553 0.0
C1723 C 0.47603 0.05137 0.99726 0.0
C1724 C 0.47499 0.0356 0.98958 0.0
C1725 C 0.46671 0.06174 0.99313 0.0
C1726 C 0.45592 0.05619 0.98138 0.0
C1727 C 0.4546 0.04028 0.97378 0.0
C1728 C 0.46426 0.03021 0.97778 0.0
C1729 C 0.44627 0.06721 0.97685 0.0
C1730 C 0.42538 0.05786 0.97584 0.0
C1731 C 0.45761 0.08682 0.97359 0.0
C1732 C 0.47975 0.09735 0.97451 0.0
C1733 C 0.48965 0.08944 0.96781 0.0
C1734 C 0.51054 0.09938 0.96884 0.0
C1735 C 0.52168 0.11732 0.97646 0.0
C1736 C 0.51195 0.12539 0.98304 0.0
C1737 C 0.49107 0.11549 0.98206 0.0
H1738 H 0.53785 0.12499 0.97724 0.0
H1739 H 0.33554 0.03104 0.97133 0.0
H1740 H 0.6715 0.11227 0.92091 0.0
H1741 H 0.64226 0.09597 0.93231 0.0
H1742 H 0.6804 0.11778 0.9668 0.0
H1743 H 0.70981 0.13316 0.95544 0.0
H1744 H 0.65176 0.08127 0.96807 0.0
H1745 H 0.65434 0.1405 0.95589 0.0
H1746 H 0.65645 0.16468 0.94151 0.0
H1747 H 0.60137 0.11987 0.92107 0.0
H1748 H 0.59907 0.09533 0.93523 0.0
H1749 H 0.56987 0.0604 0.00392 0.0
H1750 H 0.60082 0.0806 0.99436 0.0
H1751 H 0.56991 0.05185 0.95831 0.0
H1752 H 0.53924 0.03149 0.96776 0.0
H1753 H 0.59588 0.09429 0.95935 0.0
H1754 H 0.59527 0.03478 0.97119 0.0
H1755 H 0.59322 0.01132 0.98612 0.0
H1756 H 0.64521 0.05837 0.00806 0.0
H1757 H 0.64737 0.08219 0.99334 0.0
C1758 C 0.67374 0.11332 0.9309 0.0
C1759 C 0.69306 0.1242 0.93724 0.0
C1760 C 0.65696 0.10421 0.93743 0.0
C1761 C 0.65908 0.10603 0.95044 0.0
C1762 C 0.67836 0.11632 0.95678 0.0
C1763 C 0.69516 0.12527 0.95025 0.0
C1764 C 0.6412 0.09738 0.95742 0.0
C1765 C 0.63972 0.08441 0.9663 0.0
C1766 C 0.62535 0.10129 0.95507 0.0
C1767 C 0.62663 0.11603 0.94657 0.0
C1768 C 0.64275 0.13577 0.94828 0.0
C1769 C 0.64397 0.14954 0.94017 0.0
C1770 C 0.62908 0.1438 0.93037 0.0
C1771 C 0.6129 0.12429 0.92867 0.0
C1772 C 0.61162 0.11044 0.93674 0.0
C1773 C 0.56966 0.05866 0.99395 0.0
C1774 C 0.55223 0.04433 0.98658 0.0
C1775 C 0.58731 0.07011 0.98851 0.0
C1776 C 0.58761 0.06758 0.97564 0.0
C1777 C 0.56996 0.054 0.96825 0.0
C1778 C 0.55249 0.04234 0.97367 0.0
C1779 C 0.60647 0.07815 0.96984 0.0
C1780 C 0.60809 0.09141 0.96119 0.0
C1781 C 0.6225 0.07466 0.97248 0.0
C1782 C 0.62133 0.06031 0.98125 0.0
C1783 C 0.60616 0.04016 0.97926 0.0
C1784 C 0.605 0.02679 0.98767 0.0
C1785 C 0.61904 0.03337 0.99805 0.0
C1786 C 0.63432 0.05331 1.00002 0.0
C1787 C 0.63552 0.06675 0.99165 0.0
H1788 H 0.61812 0.023 0.00456 0.0
H1789 H 0.63005 0.15449 0.9241 0.0
H1790 H 0.83025 0.52854 0.94016 0.0
H1791 H 0.85337 0.52065 0.95127 0.0
H1792 H 0.90306 0.56954 0.93695 0.0
H1793 H 0.88017 0.57803 0.92613 0.0
H1794 H 0.90427 0.53391 0.93487 0.0
H1795 H 0.89543 0.57503 0.96588 0.0
H1796 H 0.87591 0.58488 0.97865 0.0
H1797 H 0.8505 0.52875 0.99407 0.0
H1798 H 0.86966 0.51844 0.98124 0.0
H1799 H 0.98327 0.5373 0.973 0.0
H1800 H 0.96013 0.54548 0.96228 0.0
H1801 H 0.91186 0.50197 0.98075 0.0
H1802 H 0.93505 0.49402 0.99177 0.0
H1803 H 0.90954 0.53458 0.9806 0.0
H1804 H 0.91733 0.49279 0.95009 0.0
H1805 H 0.93559 0.48146 0.93717 0.0
H1806 H 0.96136 0.53656 0.92056 0.0
H1807 H 0.94345 0.54835 0.93352 0.0
C1808 C 0.84611 0.53784 0.9395 0.0
C1809 C 0.85329 0.554 0.93225 0.0
C1810 C 0.8593 0.53321 0.94581 0.0
C1811 C 0.87994 0.54455 0.94498 0.0
C1812 C 0.88718 0.56054 0.93768 0.0
C1813 C 0.87402 0.56531 0.93145 0.0
C1814 C 0.89397 0.53972 0.95172 0.0
C1815 C 0.90565 0.53431 0.94488 0.0
C1816 C 0.8953 0.53968 0.96474 0.0
C1817 C 0.88383 0.54588 0.9725 0.0
C1818 C 0.88555 0.56471 0.97191 0.0
C1819 C 0.87458 0.5704 0.97918 0.0
C1820 C 0.86193 0.55743 0.98714 0.0
C1821 C 0.86028 0.53877 0.98788 0.0
C1822 C 0.8712 0.533 0.98062 0.0
C1823 C 0.96774 0.52944 0.9748 0.0
C1824 C 0.96102 0.51494 0.98323 0.0
C1825 C 0.95448 0.53408 0.96861 0.0
C1826 C 0.93416 0.52413 0.97055 0.0
C1827 C 0.92745 0.50982 0.97907 0.0
C1828 C 0.94074 0.50527 0.98535 0.0
C1829 C 0.91994 0.52877 0.96376 0.0
C1830 C 0.90821 0.53414 0.97058 0.0
C1831 C 0.9184 0.52855 0.9507 0.0
C1832 C 0.92918 0.52153 0.94286 0.0
C1833 C 0.92701 0.50256 0.94376 0.0
C1834 C 0.93728 0.49604 0.93641 0.0
C1835 C 0.94965 0.5083 0.92807 0.0
C1836 C 0.95178 0.52709 0.92704 0.0
C1837 C 0.94155 0.53369 0.93437 0.0
H1838 H 0.95753 0.50318 0.92237 0.0
H1839 H 0.85345 0.56186 0.99277 0.0
H1840 H 0.41848 0.27321 0.97307 0.0
H1841 H 0.4317 0.30796 0.98113 0.0
H1842 H 0.39084 0.31251 0.9547 0.0
H1843 H 0.3766 0.27741 0.947 0.0
H1844 H 0.43495 0.34164 0.95506 0.0
H1845 H 0.38101 0.31428 0.98115 0.0
H1846 H 0.36109 0.2918 0.99619 0.0
H1847 H 0.41311 0.31686 0.02261 0.0
H1848 H 0.43342 0.3393 0.00764 0.0
H1849 H 0.46045 0.44087 0.97313 0.0
H1850 H 0.44282 0.40503 0.96683 0.0
H1851 H 0.46675 0.39551 1.00097 0.0
H1852 H 0.48353 0.43128 0.00759 0.0
H1853 H 0.43038 0.36818 0.99663 0.0
H1854 H 0.48503 0.39414 0.97184 0.0
H1855 H 0.50726 0.41594 0.95732 0.0
H1856 H 0.45771 0.39296 0.92915 0.0
H1857 H 0.43511 0.3712 0.94356 0.0
C1858 C 0.41181 0.28132 0.96919 0.0
C1859 C 0.39653 0.27245 0.95929 0.0
C1860 C 0.41953 0.30125 0.97376 0.0
C1861 C 0.41229 0.31271 0.96843 0.0
C1862 C 0.39666 0.30384 0.95885 0.0
C1863 C 0.38866 0.28382 0.95442 0.0
C1864 C 0.42202 0.3343 0.97229 0.0
C1865 C 0.43375 0.34754 0.96407 0.0
C1866 C 0.42098 0.34176 0.98421 0.0
C1867 C 0.40877 0.32832 0.99322 0.0
C1868 C 0.38825 0.31486 0.99012 0.0
C1869 C 0.37687 0.30216 0.99864 0.0
C1870 C 0.38584 0.30286 0.01033 0.0
C1871 C 0.40619 0.31631 0.01354 0.0
C1872 C 0.41763 0.32904 0.00504 0.0
C1873 C 0.46202 0.43112 0.97926 0.0
C1874 C 0.47343 0.43883 0.99081 0.0
C1875 C 0.452 0.41064 0.97563 0.0
C1876 C 0.45372 0.39754 0.98332 0.0
C1877 C 0.46516 0.40528 0.99488 0.0
C1878 C 0.47481 0.42572 0.99863 0.0
C1879 C 0.44342 0.37578 0.97938 0.0
C1880 C 0.43162 0.36243 0.98759 0.0
C1881 C 0.44478 0.36817 0.96753 0.0
C1882 C 0.45834 0.38119 0.95882 0.0
C1883 C 0.47884 0.39384 0.96257 0.0
C1884 C 0.49152 0.40618 0.95436 0.0
C1885 C 0.48389 0.40588 0.94233 0.0
C1886 C 0.46359 0.3932 0.93848 0.0
C1887 C 0.45084 0.38085 0.94666 0.0
H1888 H 0.49373 0.41544 0.93598 0.0
H1889 H 0.37701 0.29301 0.01692 0.0
H1890 H 0.15111 0.72574 0.04047 0.0
H1891 H 0.12654 0.6916 0.03192 0.0
H1892 H 0.12667 0.67133 0.06796 0.0
H1893 H 0.15164 0.70525 0.07648 0.0
H1894 H 0.12814 0.64658 0.05052 0.0
H1895 H 0.08849 0.67734 0.05667 0.0
H1896 H 0.07874 0.70291 0.05462 0.0
H1897 H 0.06934 0.68945 0.0151 0.0
H1898 H 0.07931 0.66399 0.01689 0.0
H1899 H 0.0198 0.56125 0.02837 0.0
H1900 H 0.04309 0.59519 0.03784 0.0
H1901 H 0.08924 0.59682 0.01681 0.0
H1902 H 0.06621 0.56291 0.00741 0.0
H1903 H 0.06338 0.63038 0.02804 0.0
H1904 H 0.1338 0.62255 0.03473 0.0
H1905 H 0.14224 0.59632 0.03806 0.0
H1906 H 0.08774 0.56287 0.05469 0.0
H1907 H 0.07913 0.58903 0.05164 0.0
C1908 C 0.14601 0.71398 0.04655 0.0
C1909 C 0.15326 0.71822 0.05917 0.0
C1910 C 0.13185 0.69452 0.04167 0.0
C1911 C 0.12462 0.67897 0.04933 0.0
C1912 C 0.13199 0.68312 0.06189 0.0
C1913 C 0.14613 0.70254 0.06677 0.0
C1914 C 0.1095 0.6583 0.04425 0.0
C1915 C 0.11399 0.64305 0.0456 0.0
C1916 C 0.09089 0.65364 0.03802 0.0
C1917 C 0.08482 0.66889 0.03691 0.0
C1918 C 0.08449 0.67994 0.04753 0.0
C1919 C 0.0789 0.6944 0.04642 0.0
C1920 C 0.07348 0.69784 0.03474 0.0
C1921 C 0.07358 0.68679 0.02414 0.0
C1922 C 0.07918 0.67233 0.0252 0.0
C1923 C 0.0349 0.56881 0.02576 0.0
C1924 C 0.04116 0.5593 0.01717 0.0
C1925 C 0.04816 0.58824 0.03115 0.0
C1926 C 0.06793 0.59843 0.02811 0.0
C1927 C 0.07412 0.58911 0.01941 0.0
C1928 C 0.0609 0.56972 0.01402 0.0
C1929 C 0.08218 0.61877 0.03413 0.0
C1930 C 0.07754 0.63394 0.03295 0.0
C1931 C 0.1005 0.6233 0.04072 0.0
C1932 C 0.10574 0.60767 0.04284 0.0
C1933 C 0.12367 0.60964 0.03916 0.0
C1934 C 0.12847 0.59478 0.04099 0.0
C1935 C 0.1155 0.57791 0.04655 0.0
C1936 C 0.09774 0.57591 0.05034 0.0
C1937 C 0.09289 0.59074 0.04856 0.0
H1938 H 0.11923 0.56641 0.04794 0.0
H1939 H 0.06915 0.70903 0.0339 0.0
H1940 H 0.29295 0.43339 0.05343 0.0
H1941 H 0.32238 0.44276 0.04243 0.0
H1942 H 0.35914 0.45929 0.07727 0.0
H1943 H 0.32996 0.45105 0.08835 0.0
H1944 H 0.37744 0.48634 0.0624 0.0
H1945 H 0.34479 0.41496 0.05838 0.0
H1946 H 0.31685 0.38052 0.0531 0.0
H1947 H 0.31312 0.39159 0.01511 0.0
H1948 H 0.34087 0.4262 0.0202 0.0
H1949 H 0.463 0.49143 0.03892 0.0
H1950 H 0.43321 0.48182 0.04956 0.0
H1951 H 0.39809 0.46955 0.0145 0.0
H1952 H 0.42784 0.47882 0.00371 0.0
H1953 H 0.37896 0.44046 0.02926 0.0
H1954 H 0.41267 0.51222 0.03374 0.0
H1955 H 0.44162 0.54596 0.03937 0.0
H1956 H 0.44414 0.5334 0.07713 0.0
H1957 H 0.41538 0.49943 0.07167 0.0
C1958 C 0.3073 0.43919 0.05878 0.0
C1959 C 0.30899 0.44145 0.07182 0.0
C1960 C 0.32412 0.44431 0.05246 0.0
C1961 C 0.343 0.45149 0.05899 0.0
C1962 C 0.34475 0.45372 0.07199 0.0
C1963 C 0.32796 0.44878 0.07833 0.0
C1964 C 0.361 0.45709 0.05229 0.0
C1965 C 0.37783 0.47618 0.05527 0.0
C1966 C 0.36146 0.44404 0.04279 0.0
C1967 C 0.34478 0.42323 0.0397 0.0
C1968 C 0.3379 0.4101 0.04892 0.0
C1969 C 0.32212 0.39054 0.04596 0.0
C1970 C 0.31318 0.38389 0.03379 0.0
C1971 C 0.32004 0.39677 0.02454 0.0
C1972 C 0.33581 0.41636 0.02746 0.0
C1973 C 0.44899 0.48678 0.03343 0.0
C1974 C 0.4479 0.48603 0.02043 0.0
C1975 C 0.43194 0.48133 0.03955 0.0
C1976 C 0.41343 0.4752 0.03285 0.0
C1977 C 0.41222 0.47427 0.01987 0.0
C1978 C 0.42928 0.47966 0.01372 0.0
C1979 C 0.39534 0.46965 0.03939 0.0
C1980 C 0.37851 0.45059 0.03638 0.0
C1981 C 0.39493 0.48265 0.04893 0.0
C1982 C 0.41196 0.50322 0.05228 0.0
C1983 C 0.41946 0.51661 0.04323 0.0
C1984 C 0.43584 0.53579 0.0464 0.0
C1985 C 0.44474 0.54182 0.0586 0.0
C1986 C 0.43724 0.5287 0.06768 0.0
C1987 C 0.42089 0.50949 0.06456 0.0
H1988 H 0.45743 0.55665 0.06104 0.0
H1989 H 0.30096 0.36874 0.03151 0.0
H1990 H 0.62635 0.91643 0.0598 0.0
H1991 H 0.6122 0.93473 0.04982 0.0
H1992 H 0.56061 0.87911 0.03444 0.0
H1993 H 0.57443 0.86072 0.04451 0.0
H1994 H 0.57415 0.90691 0.01755 0.0
H1995 H 0.55764 0.90322 0.05968 0.0
H1996 H 0.56499 0.90772 0.08239 0.0
H1997 H 0.60245 0.97087 0.08142 0.0
H1998 H 0.59555 0.96671 0.05867 0.0
H1999 H 0.50575 0.94127 0.00378 0.0
H2000 H 0.52261 0.92374 0.01128 0.0
H2001 H 0.57201 0.97953 0.02852 0.0
H2002 H 0.55522 0.99706 0.02129 0.0
H2003 H 0.56033 0.95195 0.04415 0.0
H2004 H 0.5762 0.95616 0.00216 0.0
H2005 H 0.56909 0.95193 0.97944 0.0
H2006 H 0.53336 0.88848 0.97998 0.0
H2007 H 0.54003 0.89236 0.00274 0.0
C2008 C 0.61198 0.9081 0.05431 0.0
C2009 C 0.60149 0.88712 0.05299 0.0
C2010 C 0.60397 0.91857 0.04858 0.0
C2011 C 0.5853 0.90824 0.04148 0.0
C2012 C 0.57508 0.88734 0.03984 0.0
C2013 C 0.58304 0.87687 0.04558 0.0
C2014 C 0.57597 0.91915 0.0362 0.0
C2015 C 0.57094 0.91663 0.02335 0.0
C2016 C 0.57216 0.93209 0.04378 0.0
C2017 C 0.57625 0.93462 0.05746 0.0
C2018 C 0.56757 0.91805 0.0643 0.0
C2019 C 0.57164 0.92054 0.07718 0.0
C2020 C 0.58422 0.93956 0.08334 0.0
C2021 C 0.59273 0.95614 0.07663 0.0
C2022 C 0.58874 0.95373 0.06375 0.0
C2023 C 0.52026 0.94981 0.0091 0.0
C2024 C 0.52909 0.97053 0.01199 0.0
C2025 C 0.52991 0.93979 0.01333 0.0
C2026 C 0.54862 0.95037 0.0204 0.0
C2027 C 0.55756 0.97108 0.02312 0.0
C2028 C 0.54792 0.98107 0.01895 0.0
C2029 C 0.55855 0.93983 0.02546 0.0
C2030 C 0.56363 0.94235 0.0383 0.0
C2031 C 0.56244 0.92696 0.01786 0.0
C2032 C 0.55845 0.92457 0.00417 0.0
C2033 C 0.56669 0.94132 0.99745 0.0
C2034 C 0.56277 0.93898 0.98456 0.0
C2035 C 0.55074 0.91995 0.97828 0.0
C2036 C 0.54265 0.90322 0.98487 0.0
C2037 C 0.54651 0.90547 0.99776 0.0
H2038 H 0.54772 0.91817 0.9683 0.0
H2039 H 0.58735 0.94146 0.09331 0.0
H2040 H 0.97287 0.17678 0.39257 0.0
H2041 H 0.00174 0.19512 0.38115 0.0
H2042 H 0.00651 0.25062 0.39524 0.0
H2043 H 0.97715 0.23227 0.40642 0.0
H2044 H 0.00963 0.24929 0.37074 0.0
H2045 H 0.03921 0.23667 0.40653 0.0
H2046 H 0.04304 0.21625 0.42178 0.0
H2047 H 0.05223 0.1824 0.39286 0.0
H2048 H 0.04821 0.20248 0.37741 0.0
H2049 H 0.10784 0.31751 0.35872 0.0
H2050 H 0.07755 0.29644 0.36816 0.0
H2051 H 0.07452 0.24391 0.35004 0.0
H2052 H 0.10511 0.26505 0.34044 0.0
H2053 H 0.06976 0.24206 0.37538 0.0
H2054 H 0.04235 0.25678 0.33977 0.0
H2055 H 0.03935 0.27817 0.32494 0.0
H2056 H 0.02661 0.30892 0.35394 0.0
H2057 H 0.02991 0.28797 0.36901 0.0
C2058 C 0.98 0.19289 0.3932 0.0
C2059 C 0.97267 0.20308 0.40037 0.0
C2060 C 0.99663 0.20336 0.38676 0.0
C2061 C 0.00638 0.22425 0.38741 0.0
C2062 C 0.99921 0.2345 0.39462 0.0
C2063 C 0.98256 0.22402 0.40109 0.0
C2064 C 0.02378 0.23535 0.38033 0.0
C2065 C 0.02288 0.2479 0.37187 0.0
C2066 C 0.04082 0.23307 0.38154 0.0
C2067 C 0.04319 0.22094 0.3908 0.0
C2068 C 0.04187 0.22476 0.40341 0.0
C2069 C 0.04412 0.21327 0.41209 0.0
C2070 C 0.04782 0.198 0.40829 0.0
C2071 C 0.04933 0.19422 0.39579 0.0
C2072 C 0.04709 0.20566 0.38707 0.0
C2073 C 0.10074 0.30148 0.35665 0.0
C2074 C 0.10891 0.29294 0.34881 0.0
C2075 C 0.08335 0.28946 0.36203 0.0
C2076 C 0.07372 0.26864 0.35973 0.0
C2077 C 0.08174 0.25998 0.35189 0.0
C2078 C 0.09913 0.27206 0.34638 0.0
C2079 C 0.05566 0.25611 0.3659 0.0
C2080 C 0.05644 0.24331 0.3742 0.0
C2081 C 0.03855 0.25824 0.36459 0.0
C2082 C 0.03654 0.27089 0.35555 0.0
C2083 C 0.03909 0.26822 0.34302 0.0
C2084 C 0.03732 0.28026 0.33456 0.0
C2085 C 0.03284 0.29492 0.3385 0.0
C2086 C 0.03011 0.29757 0.3509 0.0
C2087 C 0.03192 0.28561 0.35941 0.0
H2088 H 0.03143 0.30419 0.33193 0.0
H2089 H 0.04956 0.18912 0.41502 0.0
H2090 H 0.82149 0.76997 0.37879 0.0
H2091 H 0.79674 0.77739 0.36951 0.0
H2092 H 0.78845 0.79618 0.40569 0.0
H2093 H 0.81372 0.78949 0.41507 0.0
H2094 H 0.75211 0.77092 0.39025 0.0
H2095 H 0.81555 0.8307 0.38866 0.0
H2096 H 0.85032 0.84968 0.38352 0.0
H2097 H 0.83041 0.8296 0.34497 0.0
H2098 H 0.79553 0.81026 0.34991 0.0
H2099 H 0.69653 0.81588 0.36915 0.0
H2100 H 0.72051 0.80857 0.37983 0.0
H2101 H 0.74194 0.803 0.34491 0.0
H2102 H 0.7188 0.81135 0.33437 0.0
H2103 H 0.77202 0.82209 0.36063 0.0
H2104 H 0.70949 0.76146 0.36133 0.0
H2105 H 0.67446 0.74078 0.36565 0.0
H2106 H 0.69175 0.75992 0.40449 0.0
H2107 H 0.72687 0.78091 0.40038 0.0
C2108 C 0.81461 0.77588 0.3848 0.0
C2109 C 0.81979 0.77925 0.3977 0.0
C2110 C 0.80034 0.77999 0.37947 0.0
C2111 C 0.79086 0.78745 0.38691 0.0
C2112 C 0.79556 0.79037 0.39979 0.0
C2113 C 0.80997 0.78644 0.40513 0.0
C2114 C 0.77639 0.79264 0.38118 0.0
C2115 C 0.75646 0.78228 0.38389 0.0
C2116 C 0.782 0.8071 0.37266 0.0
C2117 C 0.80295 0.81889 0.36967 0.0
C2118 C 0.8186 0.83021 0.3791 0.0
C2119 C 0.83833 0.84105 0.37622 0.0
C2120 C 0.84258 0.84081 0.36393 0.0
C2121 C 0.8271 0.82976 0.35449 0.0
C2122 C 0.80735 0.81887 0.35732 0.0
C2123 C 0.70634 0.81304 0.36377 0.0
C2124 C 0.70578 0.81417 0.35093 0.0
C2125 C 0.71998 0.80874 0.36987 0.0
C2126 C 0.73291 0.80488 0.36318 0.0
C2127 C 0.73223 0.80594 0.35033 0.0
C2128 C 0.71894 0.81068 0.34429 0.0
C2129 C 0.74746 0.80016 0.36951 0.0
C2130 C 0.76751 0.81069 0.36697 0.0
C2131 C 0.74185 0.78559 0.37802 0.0
C2132 C 0.72077 0.7729 0.38053 0.0
C2133 C 0.7058 0.76135 0.37078 0.0
C2134 C 0.68593 0.74956 0.3732 0.0
C2135 C 0.68087 0.74908 0.38533 0.0
C2136 C 0.69569 0.76033 0.39509 0.0
C2137 C 0.71557 0.77216 0.39272 0.0
H2138 H 0.66548 0.73995 0.38719 0.0
H2139 H 0.85786 0.84921 0.36172 0.0
H2140 H 0.28513 0.0605 0.38706 0.0
H2141 H 0.27121 0.02553 0.37916 0.0
H2142 H 0.21968 0.02504 0.36134 0.0
H2143 H 0.23316 0.05979 0.36958 0.0
H2144 H 0.20877 0.99353 0.37407 0.0
H2145 H 0.25553 0.02486 0.34454 0.0
H2146 H 0.28841 0.04731 0.33758 0.0
H2147 H 0.31318 0.01536 0.35536 0.0
H2148 H 0.2805 0.99288 0.36257 0.0
H2149 H 0.16771 0.89972 0.33866 0.0
H2150 H 0.18276 0.93536 0.34496 0.0
H2151 H 0.23383 0.93602 0.36363 0.0
H2152 H 0.21901 0.90037 0.35723 0.0
H2153 H 0.24498 0.96748 0.35014 0.0
H2154 H 0.19843 0.93664 0.37999 0.0
H2155 H 0.16554 0.91414 0.38692 0.0
H2156 H 0.14044 0.94531 0.36853 0.0
H2157 H 0.17313 0.96783 0.36134 0.0
C2158 C 0.27084 0.05295 0.38144 0.0
C2159 C 0.26023 0.06291 0.37896 0.0
C2160 C 0.263 0.03302 0.37684 0.0
C2161 C 0.24448 0.02273 0.36958 0.0
C2162 C 0.23402 0.03273 0.3669 0.0
C2163 C 0.24184 0.05264 0.37151 0.0
C2164 C 0.23554 0.00125 0.3653 0.0
C2165 C 0.21656 0.98787 0.36867 0.0
C2166 C 0.24594 0.99384 0.35854 0.0
C2167 C 0.2656 0.0073 0.35419 0.0
C2168 C 0.26803 0.02272 0.34705 0.0
C2169 C 0.28662 0.03543 0.34304 0.0
C2170 C 0.30289 0.03279 0.34605 0.0
C2171 C 0.30057 0.0174 0.35305 0.0
C2172 C 0.28201 0.00466 0.35708 0.0
C2173 C 0.18213 0.90741 0.34412 0.0
C2174 C 0.19214 0.89718 0.34748 0.0
C2175 C 0.19068 0.92778 0.34774 0.0
C2176 C 0.20931 0.93828 0.35486 0.0
C2177 C 0.21943 0.92817 0.35814 0.0
C2178 C 0.2109 0.90779 0.35451 0.0
C2179 C 0.21822 0.95982 0.35889 0.0
C2180 C 0.2372 0.97318 0.35551 0.0
C2181 C 0.20783 0.96724 0.36564 0.0
C2182 C 0.18818 0.9538 0.37003 0.0
C2183 C 0.18586 0.9386 0.37735 0.0
C2184 C 0.16726 0.92586 0.38134 0.0
C2185 C 0.1509 0.92826 0.37815 0.0
C2186 C 0.15312 0.94345 0.37099 0.0
C2187 C 0.17168 0.95622 0.36696 0.0
H2188 H 0.13651 0.91838 0.38124 0.0
H2189 H 0.31727 0.04265 0.34294 0.0
H2190 H 0.53954 0.6062 0.27562 0.0
H2191 H 0.56394 0.64028 0.28423 0.0
H2192 H 0.51705 0.64649 0.29963 0.0
H2193 H 0.49245 0.61275 0.2906 0.0
H2194 H 0.54014 0.67819 0.28836 0.0
H2195 H 0.55102 0.64024 0.3179 0.0
H2196 H 0.55799 0.61447 0.32488 0.0
H2197 H 0.61458 0.64277 0.30988 0.0
H2198 H 0.60782 0.66857 0.30265 0.0
H2199 H 0.60063 0.76714 0.32763 0.0
H2200 H 0.5774 0.73229 0.32007 0.0
H2201 H 0.62461 0.72848 0.30331 0.0
H2202 H 0.64811 0.76337 0.31097 0.0
H2203 H 0.60183 0.69566 0.3152 0.0
H2204 H 0.59072 0.73362 0.28569 0.0
H2205 H 0.5838 0.75961 0.27908 0.0
H2206 H 0.52743 0.7312 0.29433 0.0
H2207 H 0.53415 0.70519 0.3012 0.0
C2208 C 0.5344 0.61485 0.2808 0.0
C2209 C 0.51403 0.60674 0.28242 0.0
C2210 C 0.54841 0.63425 0.28583 0.0
C2211 C 0.54235 0.64587 0.29268 0.0
C2212 C 0.52206 0.63777 0.2944 0.0
C2213 C 0.50804 0.6184 0.28934 0.0
C2214 C 0.55703 0.66672 0.29769 0.0
C2215 C 0.55348 0.68197 0.29437 0.0
C2216 C 0.5747 0.6717 0.30527 0.0
C2217 C 0.57882 0.65623 0.30963 0.0
C2218 C 0.56488 0.64088 0.316 0.0
C2219 C 0.56881 0.62629 0.32002 0.0
C2220 C 0.58669 0.62696 0.3178 0.0
C2221 C 0.60071 0.64226 0.31158 0.0
C2222 C 0.59685 0.65688 0.30753 0.0
C2223 C 0.60613 0.75892 0.32235 0.0
C2224 C 0.62621 0.76808 0.31983 0.0
C2225 C 0.5928 0.739 0.31802 0.0
C2226 C 0.59923 0.72789 0.311 0.0
C2227 C 0.61935 0.73683 0.30869 0.0
C2228 C 0.63273 0.75678 0.31304 0.0
C2229 C 0.58484 0.70704 0.30592 0.0
C2230 C 0.58847 0.69183 0.30919 0.0
C2231 C 0.56721 0.70206 0.29831 0.0
C2232 C 0.56302 0.71755 0.29406 0.0
C2233 C 0.57691 0.73299 0.28771 0.0
C2234 C 0.57302 0.74772 0.28391 0.0
C2235 C 0.55521 0.74709 0.28631 0.0
C2236 C 0.54123 0.73168 0.29249 0.0
C2237 C 0.54506 0.71693 0.29633 0.0
H2238 H 0.55223 0.75851 0.28337 0.0
H2239 H 0.58971 0.61565 0.32092 0.0
H2240 H 0.35732 0.90619 0.26341 0.0
H2241 H 0.32652 0.89862 0.27245 0.0
H2242 H 0.32497 0.84769 0.28736 0.0
H2243 H 0.35495 0.85438 0.27771 0.0
H2244 H 0.28916 0.83796 0.27912 0.0
H2245 H 0.34163 0.89384 0.30526 0.0
H2246 H 0.37066 0.92775 0.3102 0.0
H2247 H 0.33572 0.95278 0.29646 0.0
H2248 H 0.30653 0.91899 0.29129 0.0
H2249 H 0.22432 0.826 0.32616 0.0
H2250 H 0.25343 0.83278 0.31521 0.0
H2251 H 0.24692 0.87651 0.296 0.0
H2252 H 0.21777 0.86976 0.30679 0.0
H2253 H 0.28614 0.89013 0.306 0.0
H2254 H 0.23296 0.83302 0.28092 0.0
H2255 H 0.20458 0.79867 0.2763 0.0
H2256 H 0.24172 0.77548 0.28912 0.0
H2257 H 0.27025 0.80971 0.29402 0.0
C2258 C 0.35029 0.8932 0.26845 0.0
C2259 C 0.35884 0.88103 0.26989 0.0
C2260 C 0.33278 0.88903 0.27377 0.0
C2261 C 0.32357 0.87279 0.28083 0.0
C2262 C 0.33181 0.86038 0.28205 0.0
C2263 C 0.34916 0.86439 0.27662 0.0
C2264 C 0.30539 0.86866 0.28699 0.0
C2265 C 0.28863 0.84933 0.28512 0.0
C2266 C 0.30445 0.88355 0.29465 0.0
C2267 C 0.32196 0.90388 0.29777 0.0
C2268 C 0.34018 0.90657 0.30321 0.0
C2269 C 0.35666 0.92577 0.30606 0.0
C2270 C 0.35505 0.94241 0.30361 0.0
C2271 C 0.33695 0.93988 0.29833 0.0
C2272 C 0.32043 0.92071 0.29544 0.0
C2273 C 0.22907 0.83705 0.31961 0.0
C2274 C 0.2187 0.84734 0.31738 0.0
C2275 C 0.24566 0.84085 0.31331 0.0
C2276 C 0.25229 0.85509 0.30474 0.0
C2277 C 0.24206 0.86547 0.30257 0.0
C2278 C 0.22536 0.86153 0.30874 0.0
C2279 C 0.27009 0.85943 0.29819 0.0
C2280 C 0.28673 0.8788 0.29999 0.0
C2281 C 0.27101 0.84452 0.2906 0.0
C2282 C 0.25371 0.82395 0.28795 0.0
C2283 C 0.23502 0.82061 0.2829 0.0
C2284 C 0.21892 0.80115 0.2802 0.0
C2285 C 0.22136 0.78491 0.28241 0.0
C2286 C 0.23986 0.78808 0.28741 0.0
C2287 C 0.256 0.8075 0.29015 0.0
H2288 H 0.20896 0.76986 0.2802 0.0
H2289 H 0.36782 0.95726 0.30583 0.0
H2290 H 0.09522 0.48037 0.29393 0.0
H2291 H 0.10955 0.46303 0.30477 0.0
H2292 H 0.06229 0.40662 0.28673 0.0
H2293 H 0.04742 0.42383 0.27614 0.0
H2294 H 0.07127 0.40421 0.31107 0.0
H2295 H 0.10696 0.42945 0.27554 0.0
H2296 H 0.12642 0.45537 0.26206 0.0
H2297 H 0.17257 0.48776 0.29206 0.0
H2298 H 0.15323 0.46216 0.30577 0.0
H2299 H 0.11497 0.34355 0.31326 0.0
H2300 H 0.10033 0.36342 0.30683 0.0
H2301 H 0.14953 0.41591 0.32743 0.0
H2302 H 0.16444 0.39607 0.33396 0.0
H2303 H 0.14056 0.42218 0.30363 0.0
H2304 H 0.10612 0.39543 0.33871 0.0
H2305 H 0.08683 0.36927 0.35208 0.0
H2306 H 0.03855 0.33951 0.32303 0.0
H2307 H 0.05769 0.36535 0.3094 0.0
C2308 C 0.08761 0.46423 0.29246 0.0
C2309 C 0.0702 0.45347 0.28413 0.0
C2310 C 0.09593 0.45438 0.29857 0.0
C2311 C 0.08714 0.43359 0.29641 0.0
C2312 C 0.06935 0.4227 0.28848 0.0
C2313 C 0.06097 0.43255 0.28237 0.0
C2314 C 0.097 0.42331 0.30194 0.0
C2315 C 0.08635 0.408 0.30936 0.0
C2316 C 0.11687 0.42865 0.29996 0.0
C2317 C 0.12855 0.44401 0.29171 0.0
C2318 C 0.12118 0.44218 0.27929 0.0
C2319 C 0.1322 0.4568 0.2716 0.0
C2320 C 0.1507 0.47323 0.27621 0.0
C2321 C 0.15823 0.47505 0.28851 0.0
C2322 C 0.14725 0.46048 0.29624 0.0
C2323 C 0.12273 0.35932 0.31646 0.0
C2324 C 0.14089 0.36824 0.32414 0.0
C2325 C 0.11426 0.37062 0.31282 0.0
C2326 C 0.12374 0.39106 0.31678 0.0
C2327 C 0.14196 0.40011 0.32434 0.0
C2328 C 0.15042 0.38876 0.32807 0.0
C2329 C 0.11477 0.40295 0.31266 0.0
C2330 C 0.12556 0.41853 0.30546 0.0
C2331 C 0.09504 0.39784 0.31484 0.0
C2332 C 0.08342 0.38227 0.323 0.0
C2333 C 0.09146 0.38322 0.33513 0.0
C2334 C 0.08054 0.36847 0.34276 0.0
C2335 C 0.06149 0.35273 0.3384 0.0
C2336 C 0.05332 0.35171 0.32639 0.0
C2337 C 0.06418 0.36643 0.31871 0.0
H2338 H 0.05306 0.34137 0.34434 0.0
H2339 H 0.15921 0.48453 0.27024 0.0
H2340 H 0.33563 0.4429 0.25439 0.0
H2341 H 0.3061 0.42567 0.26558 0.0
H2342 H 0.34386 0.43262 0.29848 0.0
H2343 H 0.37344 0.4496 0.28729 0.0
H2344 H 0.30991 0.39507 0.29444 0.0
H2345 H 0.32673 0.46377 0.29604 0.0
H2346 H 0.33444 0.49505 0.28724 0.0
H2347 H 0.27682 0.46547 0.2661 0.0
H2348 H 0.26888 0.43392 0.27464 0.0
H2349 H 0.23674 0.37369 0.33673 0.0
H2350 H 0.26747 0.39149 0.32666 0.0
H2351 H 0.23272 0.3877 0.29305 0.0
H2352 H 0.20207 0.37007 0.303 0.0
H2353 H 0.26595 0.42429 0.29812 0.0
H2354 H 0.24889 0.35581 0.29592 0.0
H2355 H 0.24073 0.32394 0.30401 0.0
H2356 H 0.29814 0.35211 0.32533 0.0
H2357 H 0.30646 0.3843 0.31762 0.0
C2358 C 0.33761 0.44047 0.26395 0.0
C2359 C 0.35684 0.44769 0.26999 0.0
C2360 C 0.32075 0.43078 0.27035 0.0
C2361 C 0.32284 0.42811 0.2829 0.0
C2362 C 0.34195 0.43461 0.28882 0.0
C2363 C 0.35881 0.44441 0.28244 0.0
C2364 C 0.30514 0.41912 0.28995 0.0
C2365 C 0.30044 0.4016 0.29541 0.0
C2366 C 0.2926 0.42745 0.29098 0.0
C2367 C 0.29729 0.44644 0.28589 0.0
C2368 C 0.31577 0.4639 0.28944 0.0
C2369 C 0.32017 0.48168 0.28451 0.0
C2370 C 0.30615 0.48223 0.27609 0.0
C2371 C 0.28768 0.46501 0.27261 0.0
C2372 C 0.28321 0.44718 0.2775 0.0
C2373 C 0.23568 0.37687 0.32725 0.0
C2374 C 0.21696 0.37039 0.32066 0.0
C2375 C 0.25323 0.38693 0.32149 0.0
C2376 C 0.25234 0.39071 0.30907 0.0
C2377 C 0.23374 0.38491 0.30263 0.0
C2378 C 0.21623 0.37477 0.30834 0.0
C2379 C 0.27065 0.40018 0.30259 0.0
C2380 C 0.27546 0.41781 0.29722 0.0
C2381 C 0.28321 0.39186 0.30158 0.0
C2382 C 0.27819 0.37254 0.30632 0.0
C2383 C 0.25969 0.35528 0.30246 0.0
C2384 C 0.25503 0.33714 0.30697 0.0
C2385 C 0.26887 0.33601 0.31522 0.0
C2386 C 0.2874 0.35302 0.31898 0.0
C2387 C 0.29208 0.37123 0.31455 0.0
H2388 H 0.26525 0.32193 0.31865 0.0
H2389 H 0.30959 0.49602 0.27229 0.0
H2390 H 0.54597 0.91451 0.26361 0.0
H2391 H 0.56838 0.90493 0.27394 0.0
H2392 H 0.51806 0.84665 0.27718 0.0
H2393 H 0.49556 0.85643 0.26718 0.0
H2394 H 0.54123 0.85821 0.29742 0.0
H2395 H 0.55173 0.85547 0.25477 0.0
H2396 H 0.55924 0.8678 0.23429 0.0
H2397 H 0.61736 0.91456 0.2499 0.0
H2398 H 0.61008 0.90267 0.27052 0.0
H2399 H 0.62365 0.82768 0.29525 0.0
H2400 H 0.60019 0.83576 0.28473 0.0
H2401 H 0.60245 0.87012 0.31811 0.0
H2402 H 0.62531 0.86152 0.32879 0.0
H2403 H 0.60202 0.86817 0.27879 0.0
H2404 H 0.55884 0.8687 0.32053 0.0
H2405 H 0.54897 0.85212 0.33961 0.0
H2406 H 0.5518 0.80196 0.32326 0.0
H2407 H 0.56143 0.81811 0.30404 0.0
C2408 C 0.53972 0.89965 0.26651 0.0
C2409 C 0.51903 0.88618 0.26454 0.0
C2410 C 0.55254 0.89415 0.27238 0.0
C2411 C 0.54501 0.87492 0.27617 0.0
C2412 C 0.52428 0.86156 0.27436 0.0
C2413 C 0.51142 0.86716 0.26864 0.0
C2414 C 0.55868 0.86873 0.28202 0.0
C2415 C 0.55451 0.8604 0.29333 0.0
C2416 C 0.57582 0.87112 0.2766 0.0
C2417 C 0.58029 0.87829 0.26421 0.0
C2418 C 0.56606 0.86847 0.25385 0.0
C2419 C 0.57028 0.87537 0.24221 0.0
C2420 C 0.58875 0.89198 0.2408 0.0
C2421 C 0.60305 0.90171 0.25101 0.0
C2422 C 0.59889 0.89488 0.26267 0.0
C2423 C 0.61913 0.83693 0.30036 0.0
C2424 C 0.62623 0.8438 0.31289 0.0
C2425 C 0.60574 0.84158 0.29432 0.0
C2426 C 0.59927 0.85331 0.30065 0.0
C2427 C 0.60679 0.86064 0.31308 0.0
C2428 C 0.61996 0.85577 0.31917 0.0
C2429 C 0.58471 0.85792 0.29427 0.0
C2430 C 0.58873 0.86598 0.28287 0.0
C2431 C 0.56708 0.85467 0.29942 0.0
C2432 C 0.56105 0.84472 0.31089 0.0
C2433 C 0.55728 0.85409 0.32099 0.0
C2434 C 0.55174 0.84478 0.33184 0.0
C2435 C 0.54982 0.82602 0.33266 0.0
C2436 C 0.55337 0.81651 0.32263 0.0
C2437 C 0.55888 0.82575 0.31176 0.0
H2438 H 0.54556 0.81885 0.34107 0.0
H2439 H 0.59199 0.8973 0.23178 0.0
H2440 H 0.09296 0.61228 0.30353 0.0
H2441 H 0.10487 0.64675 0.31164 0.0
H2442 H 0.06617 0.651 0.28337 0.0
H2443 H 0.05312 0.61613 0.27561 0.0
H2444 H 0.1111 0.68197 0.28644 0.0
H2445 H 0.05183 0.65042 0.30816 0.0
H2446 H 0.02955 0.62602 0.32156 0.0
H2447 H 0.07716 0.65021 0.35111 0.0
H2448 H 0.09982 0.67457 0.33781 0.0
H2449 H 0.13005 0.77868 0.30521 0.0
H2450 H 0.11367 0.74312 0.29822 0.0
H2451 H 0.13353 0.7322 0.3333 0.0
H2452 H 0.14917 0.76766 0.34054 0.0
H2453 H 0.09742 0.70395 0.32665 0.0
H2454 H 0.15694 0.73459 0.30655 0.0
H2455 H 0.18144 0.75898 0.29413 0.0
H2456 H 0.13743 0.73617 0.26253 0.0
H2457 H 0.11246 0.71192 0.27488 0.0
C2458 C 0.08651 0.62028 0.2992 0.0
C2459 C 0.07206 0.61131 0.28886 0.0
C2460 C 0.09351 0.64005 0.3038 0.0
C2461 C 0.08642 0.65131 0.29804 0.0
C2462 C 0.07186 0.64248 0.28786 0.0
C2463 C 0.06455 0.62258 0.28339 0.0
C2464 C 0.09486 0.67259 0.30238 0.0
C2465 C 0.10791 0.68687 0.29513 0.0
C2466 C 0.09121 0.67875 0.31393 0.0
C2467 C 0.07758 0.66417 0.32195 0.0
C2468 C 0.05761 0.65041 0.31747 0.0
C2469 C 0.04489 0.63661 0.32506 0.0
C2470 C 0.05195 0.63652 0.33716 0.0
C2471 C 0.07172 0.65027 0.34172 0.0
C2472 C 0.0845 0.66409 0.33417 0.0
C2473 C 0.13093 0.76869 0.31143 0.0
C2474 C 0.141 0.77594 0.32339 0.0
C2475 C 0.12161 0.74838 0.30741 0.0
C2476 C 0.12266 0.73501 0.31515 0.0
C2477 C 0.13251 0.74221 0.32716 0.0
C2478 C 0.14152 0.76249 0.33127 0.0
C2479 C 0.11369 0.71357 0.31067 0.0
C2480 C 0.10061 0.69919 0.31792 0.0
C2481 C 0.1177 0.70728 0.29922 0.0
C2482 C 0.13277 0.72157 0.29168 0.0
C2483 C 0.15243 0.73485 0.29698 0.0
C2484 C 0.16641 0.74865 0.28994 0.0
C2485 C 0.161 0.74914 0.27754 0.0
C2486 C 0.14159 0.73579 0.27214 0.0
C2487 C 0.12751 0.72202 0.27916 0.0
H2488 H 0.17184 0.75985 0.27211 0.0
H2489 H 0.04209 0.62584 0.34302 0.0
H2490 H 0.80853 0.03415 0.40317 0.0
H2491 H 0.78512 0.00063 0.39339 0.0
H2492 H 0.78828 0.02362 0.35797 0.0
H2493 H 0.81114 0.05747 0.3678 0.0
H2494 H 0.75046 0.99572 0.3609 0.0
H2495 H 0.81463 0.00092 0.36528 0.0
H2496 H 0.84674 0.0084 0.37626 0.0
H2497 H 0.81554 0.96394 0.40073 0.0
H2498 H 0.78321 0.95639 0.39 0.0
H2499 H 0.70774 0.89904 0.32697 0.0
H2500 H 0.7307 0.93396 0.33486 0.0
H2501 H 0.72907 0.9172 0.37204 0.0
H2502 H 0.70626 0.88235 0.36428 0.0
H2503 H 0.76712 0.94255 0.36676 0.0
H2504 H 0.70281 0.93851 0.36258 0.0
H2505 H 0.67094 0.93116 0.35131 0.0
H2506 H 0.70292 0.9735 0.32587 0.0
H2507 H 0.735 0.9809 0.3369 0.0
C2508 C 0.804 0.03219 0.39333 0.0
C2509 C 0.81178 0.04852 0.38626 0.0
C2510 C 0.79078 0.01296 0.38773 0.0
C2511 C 0.78524 0.00958 0.37491 0.0
C2512 C 0.79247 0.02588 0.36786 0.0
C2513 C 0.80566 0.04518 0.37348 0.0
C2514 C 0.77224 0.98895 0.3689 0.0
C2515 C 0.75424 0.98416 0.36202 0.0
C2516 C 0.77707 0.97382 0.37048 0.0
C2517 C 0.79649 0.97821 0.3769 0.0
C2518 C 0.81461 0.99284 0.37306 0.0
C2519 C 0.83285 0.99707 0.37923 0.0
C2520 C 0.83318 0.98668 0.3892 0.0
C2521 C 0.81526 0.97199 0.39301 0.0
C2522 C 0.79697 0.96771 0.38688 0.0
C2523 C 0.71228 0.90278 0.33683 0.0
C2524 C 0.70514 0.88791 0.345 0.0
C2525 C 0.72533 0.92275 0.34132 0.0
C2526 C 0.73145 0.92816 0.35404 0.0
C2527 C 0.72452 0.91333 0.36218 0.0
C2528 C 0.71143 0.89342 0.35773 0.0
C2529 C 0.74521 0.94926 0.35894 0.0
C2530 C 0.7634 0.95415 0.36559 0.0
C2531 C 0.74058 0.96446 0.35708 0.0
C2532 C 0.72131 0.96009 0.35048 0.0
C2533 C 0.70305 0.94613 0.35452 0.0
C2534 C 0.68495 0.94197 0.34819 0.0
C2535 C 0.6849 0.95181 0.33786 0.0
C2536 C 0.70297 0.96586 0.33386 0.0
C2537 C 0.72112 0.97006 0.34015 0.0
H2538 H 0.67087 0.94857 0.33296 0.0
H2539 H 0.84732 0.98999 0.39397 0.0
H2540 H 0.98429 0.75638 0.41351 0.0
H2541 H 0.0141 0.76578 0.40278 0.0
H2542 H 0.0064 0.81074 0.38607 0.0
H2543 H 0.97739 0.80244 0.39728 0.0
H2544 H 0.01243 0.78223 0.36932 0.0
H2545 H 0.03973 0.82663 0.40775 0.0
H2546 H 0.04614 0.83396 0.43047 0.0
H2547 H 0.07547 0.79942 0.43187 0.0
H2548 H 0.06884 0.79152 0.4092 0.0
H2549 H 0.10185 0.83294 0.34088 0.0
H2550 H 0.0725 0.82354 0.35212 0.0
H2551 H 0.0957 0.79987 0.37933 0.0
H2552 H 0.1256 0.81062 0.36861 0.0
H2553 H 0.08101 0.81633 0.39104 0.0
H2554 H 0.05479 0.77001 0.3549 0.0
H2555 H 0.04782 0.75832 0.33262 0.0
H2556 H 0.01575 0.78962 0.32714 0.0
H2557 H 0.02276 0.80173 0.34937 0.0
C2558 C 0.98905 0.76851 0.40774 0.0
C2559 C 0.97821 0.77857 0.4063 0.0
C2560 C 0.00604 0.77374 0.40153 0.0
C2561 C 0.01239 0.78891 0.39362 0.0
C2562 C 0.00163 0.79888 0.39207 0.0
C2563 C 0.9849 0.79395 0.39844 0.0
C2564 C 0.03022 0.79441 0.3869 0.0
C2565 C 0.02748 0.78987 0.37401 0.0
C2566 C 0.04971 0.80359 0.39313 0.0
C2567 C 0.05354 0.80826 0.40678 0.0
C2568 C 0.0473 0.82037 0.41292 0.0
C2569 C 0.05102 0.82467 0.42579 0.0
C2570 C 0.06113 0.81708 0.43262 0.0
C2571 C 0.06757 0.80522 0.42659 0.0
C2572 C 0.06383 0.80083 0.41372 0.0
C2573 C 0.10062 0.82574 0.34927 0.0
C2574 C 0.11597 0.8225 0.35387 0.0
C2575 C 0.08375 0.82019 0.35565 0.0
C2576 C 0.08152 0.81055 0.3665 0.0
C2577 C 0.09693 0.8073 0.37104 0.0
C2578 C 0.11404 0.8134 0.36488 0.0
C2579 C 0.06342 0.80422 0.37329 0.0
C2580 C 0.06604 0.80859 0.38624 0.0
C2581 C 0.04373 0.79417 0.36716 0.0
C2582 C 0.03948 0.78695 0.35378 0.0
C2583 C 0.04638 0.77453 0.34893 0.0
C2584 C 0.0424 0.7678 0.33631 0.0
C2585 C 0.0314 0.77327 0.32846 0.0
C2586 C 0.0243 0.78543 0.33323 0.0
C2587 C 0.02826 0.79221 0.34583 0.0
H2588 H 0.02833 0.76805 0.3187 0.0
H2589 H 0.06403 0.82046 0.44258 0.0
H2590 H 0.25501 0.2276 0.40826 0.0
H2591 H 0.2389 0.24397 0.39816 0.0
H2592 H 0.26234 0.23897 0.364 0.0
H2593 H 0.2789 0.22286 0.37413 0.0
H2594 H 0.26469 0.27588 0.3691 0.0
H2595 H 0.21588 0.20632 0.36717 0.0
H2596 H 0.19617 0.17413 0.37562 0.0
H2597 H 0.17077 0.19998 0.39928 0.0
H2598 H 0.19058 0.23244 0.39111 0.0
H2599 H 0.19868 0.29463 0.33133 0.0
H2600 H 0.21598 0.27813 0.33979 0.0
H2601 H 0.19386 0.27948 0.37508 0.0
H2602 H 0.17649 0.2959 0.36673 0.0
H2603 H 0.19092 0.24352 0.36828 0.0
H2604 H 0.23993 0.31306 0.37072 0.0
H2605 H 0.26 0.34562 0.36279 0.0
H2606 H 0.28553 0.32041 0.33875 0.0
H2607 H 0.26519 0.28753 0.34629 0.0
C2608 C 0.25707 0.23032 0.39866 0.0
C2609 C 0.26819 0.22391 0.39197 0.0
C2610 C 0.24771 0.23951 0.39288 0.0
C2611 C 0.24923 0.24241 0.3803 0.0
C2612 C 0.26094 0.23676 0.3737 0.0
C2613 C 0.27026 0.22747 0.37947 0.0
C2614 C 0.23795 0.25068 0.37399 0.0
C2615 C 0.24854 0.26867 0.36873 0.0
C2616 C 0.21691 0.2414 0.37374 0.0
C2617 C 0.20485 0.22186 0.3786 0.0
C2618 C 0.20621 0.20519 0.37424 0.0
C2619 C 0.195 0.18689 0.37897 0.0
C2620 C 0.18226 0.18502 0.388 0.0
C2621 C 0.18066 0.20145 0.3923 0.0
C2622 C 0.19186 0.2198 0.38761 0.0
C2623 C 0.19735 0.29126 0.34086 0.0
C2624 C 0.18628 0.29664 0.34838 0.0
C2625 C 0.20732 0.28192 0.34569 0.0
C2626 C 0.20635 0.27779 0.35809 0.0
C2627 C 0.19481 0.28258 0.36549 0.0
C2628 C 0.18494 0.29201 0.36071 0.0
C2629 C 0.21766 0.26883 0.36347 0.0
C2630 C 0.20706 0.25068 0.36856 0.0
C2631 C 0.23868 0.27801 0.36358 0.0
C2632 C 0.25082 0.29775 0.35895 0.0
C2633 C 0.24962 0.31438 0.36362 0.0
C2634 C 0.26106 0.3329 0.3592 0.0
C2635 C 0.27396 0.33506 0.35023 0.0
C2636 C 0.27546 0.3187 0.34566 0.0
C2637 C 0.26396 0.3001 0.34999 0.0
H2638 H 0.28285 0.34944 0.34686 0.0
H2639 H 0.1736 0.17084 0.39165 0.0
H2640 H 0.62699 0.5491 0.71929 0.0
H2641 H 0.65671 0.56737 0.70848 0.0
H2642 H 0.69384 0.56898 0.74024 0.0
H2643 H 0.66412 0.55128 0.75124 0.0
H2644 H 0.71194 0.60288 0.73091 0.0
H2645 H 0.67969 0.53452 0.71404 0.0
H2646 H 0.65171 0.50228 0.70442 0.0
H2647 H 0.64684 0.52999 0.67243 0.0
H2648 H 0.67461 0.56248 0.68195 0.0
H2649 H 0.79736 0.62611 0.70069 0.0
H2650 H 0.76741 0.60757 0.7111 0.0
H2651 H 0.73144 0.61006 0.68018 0.0
H2652 H 0.76146 0.62823 0.66948 0.0
H2653 H 0.71296 0.57428 0.68908 0.0
H2654 H 0.74689 0.64321 0.70681 0.0
H2655 H 0.77629 0.6742 0.7167 0.0
H2656 H 0.77943 0.64372 0.74764 0.0
H2657 H 0.75021 0.61247 0.73786 0.0
C2658 C 0.64153 0.55348 0.72397 0.0
C2659 C 0.6433 0.5487 0.73605 0.0
C2660 C 0.65849 0.56383 0.71778 0.0
C2661 C 0.6775 0.56916 0.72343 0.0
C2662 C 0.67934 0.56497 0.73567 0.0
C2663 C 0.66239 0.55489 0.74195 0.0
C2664 C 0.69537 0.57869 0.71648 0.0
C2665 C 0.71222 0.59649 0.72183 0.0
C2666 C 0.69572 0.57052 0.70455 0.0
C2667 C 0.6791 0.55097 0.69876 0.0
C2668 C 0.67256 0.53377 0.70499 0.0
C2669 C 0.65675 0.51544 0.69955 0.0
C2670 C 0.64747 0.5141 0.68784 0.0
C2671 C 0.65403 0.53107 0.68152 0.0
C2672 C 0.66981 0.54943 0.68693 0.0
C2673 C 0.78306 0.62257 0.69603 0.0
C2674 C 0.78177 0.6288 0.68431 0.0
C2675 C 0.76596 0.61204 0.70203 0.0
C2676 C 0.74726 0.60788 0.69656 0.0
C2677 C 0.74576 0.61326 0.68461 0.0
C2678 C 0.7629 0.62361 0.6785 0.0
C2679 C 0.72941 0.59846 0.70349 0.0
C2680 C 0.7126 0.58068 0.69815 0.0
C2681 C 0.72922 0.6065 0.71549 0.0
C2682 C 0.74642 0.62546 0.72156 0.0
C2683 C 0.75388 0.6431 0.7157 0.0
C2684 C 0.77052 0.66071 0.72129 0.0
C2685 C 0.77973 0.66093 0.73279 0.0
C2686 C 0.77228 0.64354 0.73874 0.0
C2687 C 0.75566 0.62588 0.73319 0.0
H2688 H 0.7926 0.67459 0.73708 0.0
H2689 H 0.63524 0.4999 0.68364 0.0
H2690 H 0.4921 0.10695 0.71227 0.0
H2691 H 0.46784 0.11533 0.70338 0.0
H2692 H 0.45569 0.12774 0.73999 0.0
H2693 H 0.48058 0.12028 0.74904 0.0
H2694 H 0.42059 0.10365 0.72227 0.0
H2695 H 0.48382 0.16548 0.72649 0.0
H2696 H 0.51943 0.18652 0.72352 0.0
H2697 H 0.50498 0.17443 0.68408 0.0
H2698 H 0.4693 0.15305 0.68682 0.0
H2699 H 0.36527 0.15024 0.70437 0.0
H2700 H 0.3887 0.14181 0.71459 0.0
H2701 H 0.41581 0.14578 0.68055 0.0
H2702 H 0.39319 0.15533 0.67057 0.0
H2703 H 0.4436 0.16173 0.69784 0.0
H2704 H 0.38161 0.09952 0.69252 0.0
H2705 H 0.34588 0.07669 0.69438 0.0
H2706 H 0.35723 0.08686 0.73402 0.0
H2707 H 0.393 0.10995 0.73239 0.0
C2708 C 0.48448 0.11167 0.71848 0.0
C2709 C 0.4885 0.11307 0.73141 0.0
C2710 C 0.47048 0.1163 0.71336 0.0
C2711 C 0.46007 0.12224 0.72104 0.0
C2712 C 0.46354 0.12311 0.73392 0.0
C2713 C 0.47773 0.11873 0.73906 0.0
C2714 C 0.44597 0.12809 0.7156 0.0
C2715 C 0.42558 0.11648 0.71705 0.0
C2716 C 0.45249 0.14451 0.70853 0.0
C2717 C 0.47391 0.15752 0.70687 0.0
C2718 C 0.48825 0.16717 0.71719 0.0
C2719 C 0.50845 0.17919 0.71554 0.0
C2720 C 0.51447 0.18177 0.70362 0.0
C2721 C 0.5003 0.17239 0.69331 0.0
C2722 C 0.48008 0.16034 0.69491 0.0
C2723 C 0.37624 0.14929 0.69909 0.0
C2724 C 0.3774 0.1534 0.68667 0.0
C2725 C 0.38956 0.14434 0.70491 0.0
C2726 C 0.40387 0.14276 0.69831 0.0
C2727 C 0.40498 0.14691 0.68589 0.0
C2728 C 0.39201 0.15233 0.68017 0.0
C2729 C 0.41794 0.13714 0.70432 0.0
C2730 C 0.43844 0.14885 0.70302 0.0
C2731 C 0.41142 0.12056 0.71133 0.0
C2732 C 0.38994 0.10661 0.71233 0.0
C2733 C 0.37646 0.09699 0.70163 0.0
C2734 C 0.3562 0.08399 0.70264 0.0
C2735 C 0.34928 0.08037 0.71431 0.0
C2736 C 0.36261 0.0897 0.72499 0.0
C2737 C 0.38288 0.10273 0.72403 0.0
H2738 H 0.33359 0.0703 0.71507 0.0
H2739 H 0.53011 0.19108 0.70236 0.0
H2740 H 0.9551 0.38953 0.71909 0.0
H2741 H 0.94137 0.35457 0.71117 0.0
H2742 H 0.89182 0.355 0.69116 0.0
H2743 H 0.90506 0.38969 0.69937 0.0
H2744 H 0.87925 0.32368 0.70434 0.0
H2745 H 0.92876 0.35407 0.67607 0.0
H2746 H 0.96253 0.37582 0.67004 0.0
H2747 H 0.98438 0.34265 0.68928 0.0
H2748 H 0.95079 0.32087 0.69558 0.0
H2749 H 0.83783 0.22925 0.66991 0.0
H2750 H 0.85357 0.26512 0.67569 0.0
H2751 H 0.90316 0.26487 0.69578 0.0
H2752 H 0.8877 0.22903 0.68988 0.0
H2753 H 0.91589 0.29616 0.68226 0.0
H2754 H 0.8671 0.26648 0.71102 0.0
H2755 H 0.83351 0.24456 0.71726 0.0
H2756 H 0.81064 0.27646 0.69751 0.0
H2757 H 0.84404 0.29839 0.69099 0.0
C2758 C 0.94133 0.3822 0.71296 0.0
C2759 C 0.93116 0.39237 0.70986 0.0
C2760 C 0.93359 0.36228 0.70836 0.0
C2761 C 0.91563 0.35224 0.70052 0.0
C2762 C 0.90572 0.3625 0.69718 0.0
C2763 C 0.91342 0.38239 0.70178 0.0
C2764 C 0.90654 0.33071 0.6964 0.0
C2765 C 0.88715 0.3177 0.69934 0.0
C2766 C 0.91708 0.32289 0.6902 0.0
C2767 C 0.93729 0.33595 0.6864 0.0
C2768 C 0.9408 0.35151 0.67911 0.0
C2769 C 0.95991 0.36383 0.67562 0.0
C2770 C 0.9756 0.36065 0.6793 0.0
C2771 C 0.97222 0.34511 0.68645 0.0
C2772 C 0.95314 0.33277 0.68997 0.0
C2773 C 0.85208 0.2368 0.67557 0.0
C2774 C 0.86146 0.22627 0.67949 0.0
C2775 C 0.86103 0.2573 0.67888 0.0
C2776 C 0.87942 0.26759 0.68628 0.0
C2777 C 0.88896 0.25719 0.69007 0.0
C2778 C 0.88005 0.23669 0.68673 0.0
C2779 C 0.8886 0.28919 0.69016 0.0
C2780 C 0.908 0.30219 0.68722 0.0
C2781 C 0.87811 0.29702 0.69642 0.0
C2782 C 0.85804 0.28396 0.70042 0.0
C2783 C 0.85488 0.26873 0.70793 0.0
C2784 C 0.83588 0.25632 0.71153 0.0
C2785 C 0.81995 0.25908 0.70776 0.0
C2786 C 0.82299 0.27431 0.70041 0.0
C2787 C 0.84196 0.28675 0.69677 0.0
H2788 H 0.80525 0.24945 0.71055 0.0
H2789 H 0.99038 0.3702 0.67659 0.0
H2790 H 0.19569 0.93927 0.6293 0.0
H2791 H 0.22033 0.97337 0.63798 0.0
H2792 H 0.20781 0.99603 0.60539 0.0
H2793 H 0.18386 0.96196 0.59652 0.0
H2794 H 0.24529 0.01606 0.61165 0.0
H2795 H 0.18779 0.99678 0.63368 0.0
H2796 H 0.16111 0.97562 0.64626 0.0
H2797 H 0.20516 0.98481 0.67574 0.0
H2798 H 0.23213 0.00581 0.66326 0.0
H2799 H 0.2704 0.10891 0.65745 0.0
H2800 H 0.24744 0.07465 0.64852 0.0
H2801 H 0.29754 0.06805 0.63962 0.0
H2802 H 0.32054 0.10256 0.64813 0.0
H2803 H 0.24092 0.04026 0.65397 0.0
H2804 H 0.28536 0.03664 0.61375 0.0
H2805 H 0.30898 0.0593 0.60011 0.0
H2806 H 0.28534 0.09863 0.60498 0.0
H2807 H 0.2614 0.07608 0.6185 0.0
C2808 C 0.19832 0.95158 0.62401 0.0
C2809 C 0.18791 0.94806 0.61227 0.0
C2810 C 0.21231 0.97104 0.62898 0.0
C2811 C 0.21571 0.98734 0.62244 0.0
C2812 C 0.20551 0.98374 0.61061 0.0
C2813 C 0.19183 0.96429 0.60555 0.0
C2814 C 0.22959 0.00818 0.62795 0.0
C2815 C 0.24434 0.02132 0.62092 0.0
C2816 C 0.22814 0.01524 0.63994 0.0
C2817 C 0.21197 0.0027 0.64749 0.0
C2818 C 0.19178 0.99417 0.64282 0.0
C2819 C 0.17661 0.98223 0.64993 0.0
C2820 C 0.18144 0.97883 0.66178 0.0
C2821 C 0.20145 0.98743 0.66655 0.0
C2822 C 0.21668 0.99937 0.65947 0.0
C2823 C 0.27653 0.10017 0.65357 0.0
C2824 C 0.29727 0.10847 0.65342 0.0
C2825 C 0.26338 0.08056 0.6485 0.0
C2826 C 0.27072 0.06881 0.64326 0.0
C2827 C 0.29148 0.07694 0.64336 0.0
C2828 C 0.30462 0.09666 0.64826 0.0
C2829 C 0.25663 0.04809 0.63769 0.0
C2830 C 0.2419 0.03497 0.64472 0.0
C2831 C 0.25761 0.04126 0.62553 0.0
C2832 C 0.27174 0.05476 0.61724 0.0
C2833 C 0.28515 0.05008 0.61187 0.0
C2834 C 0.2986 0.06292 0.60416 0.0
C2835 C 0.2987 0.08043 0.60172 0.0
C2836 C 0.28529 0.0851 0.60692 0.0
C2837 C 0.27179 0.07231 0.61461 0.0
H2838 H 0.30915 0.09036 0.59577 0.0
H2839 H 0.16967 0.96958 0.66728 0.0
H2840 H 0.02487 0.18616 0.61221 0.0
H2841 H 0.99462 0.17862 0.62177 0.0
H2842 H 0.99429 0.22847 0.60651 0.0
H2843 H 0.02537 0.2369 0.59751 0.0
H2844 H 0.986 0.22802 0.62933 0.0
H2845 H 0.96125 0.17871 0.59453 0.0
H2846 H 0.9593 0.15156 0.58044 0.0
H2847 H 0.94611 0.11446 0.61021 0.0
H2848 H 0.94826 0.14149 0.62453 0.0
H2849 H 0.8856 0.19785 0.6403 0.0
H2850 H 0.91535 0.20524 0.63004 0.0
H2851 H 0.92298 0.16308 0.65034 0.0
H2852 H 0.89321 0.15563 0.66077 0.0
H2853 H 0.92693 0.15969 0.62464 0.0
H2854 H 0.95209 0.21039 0.65932 0.0
H2855 H 0.95291 0.2377 0.67262 0.0
H2856 H 0.96399 0.27244 0.64175 0.0
H2857 H 0.96294 0.24519 0.6282 0.0
C2858 C 0.01854 0.1957 0.61097 0.0
C2859 C 0.02771 0.21223 0.6041 0.0
C2860 C 0.00101 0.19117 0.61631 0.0
C2861 C 0.99193 0.20277 0.61473 0.0
C2862 C 0.00095 0.21923 0.60783 0.0
C2863 C 0.01863 0.22391 0.60257 0.0
C2864 C 0.97334 0.19801 0.62056 0.0
C2865 C 0.97299 0.21314 0.62812 0.0
C2866 C 0.95642 0.17851 0.61921 0.0
C2867 C 0.9551 0.16221 0.61063 0.0
C2868 C 0.95809 0.16482 0.5981 0.0
C2869 C 0.95692 0.14944 0.59006 0.0
C2870 C 0.95264 0.13132 0.59444 0.0
C2871 C 0.94946 0.12852 0.60684 0.0
C2872 C 0.95063 0.14386 0.61492 0.0
C2873 C 0.89356 0.19011 0.64261 0.0
C2874 C 0.88704 0.17619 0.65141 0.0
C2875 C 0.91061 0.19441 0.63674 0.0
C2876 C 0.92145 0.18482 0.63949 0.0
C2877 C 0.91483 0.17067 0.64811 0.0
C2878 C 0.89787 0.1665 0.65409 0.0
C2879 C 0.93973 0.18965 0.63339 0.0
C2880 C 0.93998 0.17455 0.62578 0.0
C2881 C 0.95644 0.2092 0.63457 0.0
C2882 C 0.95724 0.22566 0.64272 0.0
C2883 C 0.95454 0.22378 0.65534 0.0
C2884 C 0.95508 0.23927 0.66293 0.0
C2885 C 0.95845 0.25677 0.65802 0.0
C2886 C 0.96135 0.25886 0.64553 0.0
C2887 C 0.9608 0.24341 0.63789 0.0
H2888 H 0.95886 0.26874 0.66391 0.0
H2889 H 0.95174 0.11943 0.5882 0.0
H2890 H 0.72564 0.77939 0.62412 0.0
H2891 H 0.74058 0.76199 0.63437 0.0
H2892 H 0.77179 0.76415 0.60242 0.0
H2893 H 0.75647 0.78107 0.59203 0.0
H2894 H 0.75878 0.72955 0.61099 0.0
H2895 H 0.79497 0.79766 0.62878 0.0
H2896 H 0.7991 0.82885 0.63908 0.0
H2897 H 0.77368 0.79886 0.67079 0.0
H2898 H 0.76913 0.7674 0.6606 0.0
H2899 H 0.83029 0.7099 0.63904 0.0
H2900 H 0.81547 0.72777 0.62945 0.0
H2901 H 0.78214 0.7218 0.66085 0.0
H2902 H 0.79747 0.70443 0.67074 0.0
H2903 H 0.79602 0.758 0.65266 0.0
H2904 H 0.76063 0.68943 0.63402 0.0
H2905 H 0.75972 0.65977 0.6237 0.0
H2906 H 0.78665 0.69245 0.59315 0.0
H2907 H 0.78793 0.72239 0.60336 0.0
C2908 C 0.73562 0.77604 0.61928 0.0
C2909 C 0.73998 0.78162 0.60732 0.0
C2910 C 0.74419 0.76616 0.62515 0.0
C2911 C 0.75761 0.7621 0.61925 0.0
C2912 C 0.7615 0.76714 0.60715 0.0
C2913 C 0.75273 0.77678 0.60122 0.0
C2914 C 0.76801 0.75306 0.6258 0.0
C2915 C 0.76706 0.73589 0.62005 0.0
C2916 C 0.77868 0.7612 0.63768 0.0
C2917 C 0.78153 0.78013 0.64387 0.0
C2918 C 0.79013 0.79769 0.63791 0.0
C2919 C 0.79257 0.81542 0.64374 0.0
C2920 C 0.78661 0.81583 0.65557 0.0
C2921 C 0.77826 0.79851 0.66162 0.0
C2922 C 0.77576 0.78073 0.65583 0.0
C2923 C 0.81993 0.71253 0.64397 0.0
C2924 C 0.81485 0.70558 0.65558 0.0
C2925 C 0.81143 0.72269 0.63845 0.0
C2926 C 0.79734 0.72567 0.64431 0.0
C2927 C 0.79289 0.71952 0.65615 0.0
C2928 C 0.80163 0.70959 0.66177 0.0
C2929 C 0.7867 0.73452 0.63786 0.0
C2930 C 0.78762 0.75163 0.64363 0.0
C2931 C 0.77622 0.72647 0.62593 0.0
C2932 C 0.77446 0.70817 0.61949 0.0
C2933 C 0.76634 0.69028 0.6251 0.0
C2934 C 0.76579 0.67343 0.61928 0.0
C2935 C 0.77315 0.67424 0.60778 0.0
C2936 C 0.78095 0.69185 0.60205 0.0
C2937 C 0.78155 0.70875 0.60784 0.0
H2938 H 0.77282 0.66121 0.60332 0.0
H2939 H 0.7885 0.82957 0.66006 0.0
H2940 H 0.0284 0.82408 0.61395 0.0
H2941 H 0.99965 0.80712 0.6257 0.0
H2942 H 0.98706 0.75024 0.60813 0.0
H2943 H 0.01623 0.76697 0.59664 0.0
H2944 H 0.95324 0.75503 0.60857 0.0
H2945 H 0.00858 0.76375 0.63647 0.0
H2946 H 0.04164 0.7833 0.64852 0.0
H2947 H 0.02143 0.81827 0.66845 0.0
H2948 H 0.98831 0.7991 0.65637 0.0
H2949 H 0.88862 0.68447 0.64468 0.0
H2950 H 0.91785 0.70615 0.63463 0.0
H2951 H 0.92478 0.75745 0.65695 0.0
H2952 H 0.89527 0.73565 0.66725 0.0
H2953 H 0.96092 0.75891 0.65445 0.0
H2954 H 0.90453 0.74814 0.62829 0.0
H2955 H 0.8714 0.72897 0.6163 0.0
H2956 H 0.8933 0.69925 0.59281 0.0
H2957 H 0.92635 0.71773 0.60489 0.0
C2958 C 0.01971 0.80794 0.61268 0.0
C2959 C 0.02477 0.7969 0.60438 0.0
C2960 C 0.0032 0.7983 0.61936 0.0
C2961 C 0.99133 0.77745 0.61783 0.0
C2962 C 0.99604 0.76637 0.60941 0.0
C2963 C 0.01267 0.77598 0.6028 0.0
C2964 C 0.97399 0.76711 0.62503 0.0
C2965 C 0.95489 0.7557 0.61859 0.0
C2966 C 0.97617 0.76866 0.63813 0.0
C2967 C 0.99605 0.78015 0.64542 0.0
C2968 C 0.01124 0.77573 0.64334 0.0
C2969 C 0.02998 0.78672 0.65019 0.0
C2970 C 0.03365 0.80206 0.65922 0.0
C2971 C 0.01858 0.80641 0.66144 0.0
C2972 C 0.99982 0.79548 0.6546 0.0
C2973 C 0.89632 0.70034 0.64755 0.0
C2974 C 0.88944 0.70834 0.65671 0.0
C2975 C 0.91304 0.71273 0.64174 0.0
C2976 C 0.92325 0.73343 0.64487 0.0
C2977 C 0.91699 0.7415 0.65435 0.0
C2978 C 0.90015 0.72904 0.66022 0.0
C2979 C 0.94017 0.74641 0.63796 0.0
C2980 C 0.95918 0.75838 0.64444 0.0
C2981 C 0.93789 0.74549 0.62488 0.0
C2982 C 0.91793 0.73423 0.61759 0.0
C2983 C 0.90223 0.73734 0.62066 0.0
C2984 C 0.88343 0.72658 0.61385 0.0
C2985 C 0.88019 0.71283 0.60383 0.0
C2986 C 0.89575 0.70981 0.60061 0.0
C2987 C 0.91453 0.72042 0.60745 0.0
H2988 H 0.86566 0.7046 0.59855 0.0
H2989 H 0.04817 0.81054 0.66452 0.0
H2990 H 0.18648 0.23124 0.6166 0.0
H2991 H 0.20924 0.22261 0.62744 0.0
H2992 H 0.21918 0.2012 0.59258 0.0
H2993 H 0.19581 0.20905 0.5817 0.0
H2994 H 0.21421 0.17604 0.60938 0.0
H2995 H 0.25396 0.24671 0.60795 0.0
H2996 H 0.26212 0.28178 0.61109 0.0
H2997 H 0.26014 0.27828 0.65026 0.0
H2998 H 0.25168 0.24309 0.64734 0.0
H2999 H 0.30079 0.17256 0.63088 0.0
H3000 H 0.27779 0.18092 0.62006 0.0
H3001 H 0.26613 0.20025 0.65502 0.0
H3002 H 0.28925 0.19213 0.66593 0.0
H3003 H 0.27204 0.22644 0.63817 0.0
H3004 H 0.2324 0.1556 0.63945 0.0
H3005 H 0.22483 0.12073 0.63619 0.0
H3006 H 0.22712 0.12476 0.59707 0.0
H3007 H 0.235 0.15976 0.60013 0.0
C3008 C 0.19335 0.22452 0.61124 0.0
C3009 C 0.18934 0.2209 0.59826 0.0
C3010 C 0.20653 0.21978 0.61744 0.0
C3011 C 0.21614 0.21149 0.61082 0.0
C3012 C 0.21202 0.20766 0.59789 0.0
C3013 C 0.1988 0.21235 0.59167 0.0
C3014 C 0.23039 0.20668 0.61736 0.0
C3015 C 0.227 0.18714 0.61555 0.0
C3016 C 0.24686 0.22103 0.62562 0.0
C3017 C 0.25199 0.24221 0.62741 0.0
C3018 C 0.2551 0.25337 0.61722 0.0
C3019 C 0.25981 0.27328 0.61896 0.0
C3020 C 0.26159 0.28224 0.63086 0.0
C3021 C 0.25872 0.27132 0.64105 0.0
C3022 C 0.25399 0.25139 0.63935 0.0
C3023 C 0.29333 0.17857 0.63629 0.0
C3024 C 0.29683 0.1816 0.64929 0.0
C3025 C 0.28013 0.18328 0.63008 0.0
C3026 C 0.27007 0.19102 0.63674 0.0
C3027 C 0.2737 0.19427 0.6497 0.0
C3028 C 0.28689 0.18956 0.65592 0.0
C3029 C 0.25584 0.19582 0.63019 0.0
C3030 C 0.25924 0.21536 0.63201 0.0
C3031 C 0.23941 0.18148 0.62191 0.0
C3032 C 0.23448 0.16037 0.62003 0.0
C3033 C 0.23143 0.1491 0.63017 0.0
C3034 C 0.22707 0.1293 0.62835 0.0
C3035 C 0.22555 0.12055 0.61643 0.0
C3036 C 0.22833 0.13156 0.6063 0.0
C3037 C 0.23273 0.15138 0.60807 0.0
H3038 H 0.22218 0.10523 0.61505 0.0
H3039 H 0.26524 0.29765 0.63219 0.0
H3040 H 0.73603 0.93284 0.64049 0.0
H3041 H 0.75001 0.9673 0.64971 0.0
H3042 H 0.76874 0.98856 0.61444 0.0
H3043 H 0.75562 0.95442 0.60533 0.0
H3044 H 0.79778 0.00991 0.63235 0.0
H3045 H 0.7272 0.98653 0.62564 0.0
H3046 H 0.69146 0.96408 0.62769 0.0
H3047 H 0.70275 0.97745 0.66722 0.0
H3048 H 0.73862 -0.00021 0.66541 0.0
H3049 H 0.81417 0.10778 0.63911 0.0
H3050 H 0.80011 0.07226 0.63284 0.0
H3051 H 0.78928 0.05947 0.67055 0.0
H3052 H 0.80329 0.09506 0.67695 0.0
H3053 H 0.75708 0.03343 0.65343 0.0
H3054 H 0.82767 0.0589 0.65969 0.0
H3055 H 0.86309 0.08195 0.65718 0.0
H3056 H 0.85145 0.06493 0.61796 0.0
H3057 H 0.81588 0.04199 0.62021 0.0
C3058 C 0.74323 0.94488 0.63473 0.0
C3059 C 0.74458 0.94086 0.62215 0.0
C3060 C 0.75105 0.96454 0.63998 0.0
C3061 C 0.76025 0.98049 0.63273 0.0
C3062 C 0.76167 0.97649 0.6202 0.0
C3063 C 0.75394 0.95692 0.61497 0.0
C3064 C 0.76871 0.00143 0.63812 0.0
C3065 C 0.78882 0.01507 0.63686 0.0
C3066 C 0.75718 0.00806 0.6443 0.0
C3067 C 0.73562 0.99464 0.6454 0.0
C3068 C 0.72209 0.98455 0.63478 0.0
C3069 C 0.7018 0.97187 0.63589 0.0
C3070 C 0.69485 0.96929 0.64758 0.0
C3071 C 0.70816 0.97943 0.65817 0.0
C3072 C 0.72847 0.99211 0.65711 0.0
C3073 C 0.80878 0.09745 0.64609 0.0
C3074 C 0.80994 0.10427 0.65855 0.0
C3075 C 0.80081 0.07716 0.64249 0.0
C3076 C 0.79387 0.06331 0.65126 0.0
C3077 C 0.79462 0.06997 0.66366 0.0
C3078 C 0.80269 0.0903 0.66729 0.0
C3079 C 0.78598 0.04188 0.64743 0.0
C3080 C 0.76605 0.02819 0.64901 0.0
C3081 C 0.79763 0.03519 0.64148 0.0
C3082 C 0.81906 0.04884 0.64011 0.0
C3083 C 0.83263 0.06017 0.65051 0.0
C3084 C 0.85274 0.07321 0.64914 0.0
C3085 C 0.85951 0.07493 0.63741 0.0
C3086 C 0.84619 0.06359 0.62704 0.0
C3087 C 0.82605 0.05055 0.62836 0.0
H3088 H 0.87508 0.08503 0.63637 0.0
H3089 H 0.67914 0.95947 0.64842 0.0
H3090 H 0.46174 0.39085 0.72352 0.0
H3091 H 0.43784 0.35654 0.71487 0.0
H3092 H 0.4866 0.34562 0.71003 0.0
H3093 H 0.5105 0.38011 0.71824 0.0
H3094 H 0.4607 0.32848 0.69114 0.0
H3095 H 0.45716 0.32983 0.73488 0.0
H3096 H 0.45297 0.34188 0.75536 0.0
H3097 H 0.39329 0.32703 0.74235 0.0
H3098 H 0.39722 0.31515 0.72173 0.0
H3099 H 0.38154 0.21919 0.70195 0.0
H3100 H 0.40568 0.25365 0.7101 0.0
H3101 H 0.39744 0.27374 0.67524 0.0
H3102 H 0.37397 0.23932 0.66691 0.0
H3103 H 0.40409 0.28573 0.71452 0.0
H3104 H 0.43948 0.31381 0.66906 0.0
H3105 H 0.44627 0.30051 0.64992 0.0
H3106 H 0.44709 0.25398 0.66891 0.0
H3107 H 0.44057 0.26714 0.68819 0.0
C3108 C 0.4673 0.3811 0.72054 0.0
C3109 C 0.48792 0.38805 0.72155 0.0
C3110 C 0.45366 0.3615 0.71566 0.0
C3111 C 0.46038 0.34835 0.712 0.0
C3112 C 0.48103 0.35546 0.71278 0.0
C3113 C 0.49468 0.37515 0.71746 0.0
C3114 C 0.44595 0.32714 0.70753 0.0
C3115 C 0.44832 0.31915 0.69626 0.0
C3116 C 0.43003 0.31478 0.71431 0.0
C3117 C 0.42756 0.32177 0.72673 0.0
C3118 C 0.44319 0.32926 0.73636 0.0
C3119 C 0.44086 0.33604 0.748 0.0
C3120 C 0.42289 0.33526 0.75015 0.0
C3121 C 0.4072 0.32765 0.74067 0.0
C3122 C 0.40947 0.32087 0.72901 0.0
C3123 C 0.3849 0.23097 0.69603 0.0
C3124 C 0.37602 0.22654 0.68375 0.0
C3125 C 0.39866 0.25066 0.7007 0.0
C3126 C 0.40365 0.26629 0.69323 0.0
C3127 C 0.39425 0.26192 0.6811 0.0
C3128 C 0.38076 0.24223 0.67636 0.0
C3129 C 0.41874 0.28713 0.69808 0.0
C3130 C 0.41647 0.29506 0.7094 0.0
C3131 C 0.43515 0.29924 0.69155 0.0
C3132 C 0.43935 0.29136 0.68003 0.0
C3133 C 0.4412 0.30079 0.66916 0.0
C3134 C 0.44498 0.29326 0.65829 0.0
C3135 C 0.44705 0.27637 0.65819 0.0
C3136 C 0.44541 0.26701 0.66898 0.0
C3137 C 0.44165 0.27449 0.67988 0.0
H3138 H 0.44995 0.27056 0.64976 0.0
H3139 H 0.42112 0.34053 0.75916 0.0
H3140 H 0.64765 0.13961 0.73149 0.0
H3141 H 0.67652 0.14767 0.72014 0.0
H3142 H 0.68469 0.10335 0.73733 0.0
H3143 H 0.65504 0.09413 0.74815 0.0
H3144 H 0.72108 0.14581 0.73702 0.0
H3145 H 0.66651 0.08911 0.71119 0.0
H3146 H 0.63311 0.07138 0.69942 0.0
H3147 H 0.65053 0.11963 0.67674 0.0
H3148 H 0.68396 0.13779 0.68852 0.0
H3149 H 0.79345 0.14195 0.70283 0.0
H3150 H 0.76448 0.13425 0.71394 0.0
H3151 H 0.74225 0.15702 0.68559 0.0
H3152 H 0.77075 0.16357 0.67403 0.0
H3153 H 0.71264 0.12666 0.69179 0.0
H3154 H 0.76665 0.18326 0.71562 0.0
H3155 H 0.79994 0.2038 0.72726 0.0
H3156 H 0.78424 0.16096 0.75376 0.0
H3157 H 0.75104 0.13984 0.7421 0.0
C3158 C 0.65528 0.13126 0.73275 0.0
C3159 C 0.64873 0.11604 0.74074 0.0
C3160 C 0.67195 0.13608 0.72633 0.0
C3161 C 0.68269 0.1261 0.72791 0.0
C3162 C 0.67662 0.11129 0.73605 0.0
C3163 C 0.6597 0.10615 0.7423 0.0
C3164 C 0.70006 0.1309 0.72087 0.0
C3165 C 0.71933 0.14145 0.72716 0.0
C3166 C 0.69768 0.12587 0.70795 0.0
C3167 C 0.67764 0.1149 0.70083 0.0
C3168 C 0.66315 0.09603 0.70378 0.0
C3169 C 0.64423 0.08588 0.69709 0.0
C3170 C 0.63968 0.0944 0.68737 0.0
C3171 C 0.65406 0.11306 0.68429 0.0
C3172 C 0.673 0.12328 0.69096 0.0
C3173 C 0.78238 0.14532 0.69896 0.0
C3174 C 0.78441 0.15349 0.6876 0.0
C3175 C 0.76586 0.14105 0.70538 0.0
C3176 C 0.75132 0.14551 0.70083 0.0
C3177 C 0.75324 0.15348 0.68937 0.0
C3178 C 0.76954 0.15726 0.68276 0.0
C3179 C 0.73401 0.14154 0.70791 0.0
C3180 C 0.71463 0.13116 0.70164 0.0
C3181 C 0.73638 0.1472 0.72084 0.0
C3182 C 0.75639 0.15985 0.72789 0.0
C3183 C 0.77035 0.1781 0.72386 0.0
C3184 C 0.78922 0.18983 0.73046 0.0
C3185 C 0.79425 0.18361 0.7412 0.0
C3186 C 0.78038 0.16567 0.74539 0.0
C3187 C 0.76153 0.1538 0.73878 0.0
H3188 H 0.80885 0.19271 0.74631 0.0
H3189 H 0.62503 0.08652 0.68219 0.0
H3190 H 0.95098 0.577 0.73097 0.0
H3191 H 0.93567 0.59463 0.72149 0.0
H3192 H 0.89005 0.53949 0.70117 0.0
H3193 H 0.90482 0.52161 0.71086 0.0
H3194 H 0.90552 0.57215 0.68687 0.0
H3195 H 0.87845 0.5549 0.72578 0.0
H3196 H 0.88004 0.55331 0.74835 0.0
H3197 H 0.9127 0.6173 0.7544 0.0
H3198 H 0.91159 0.61927 0.73184 0.0
H3199 H 0.83777 0.60642 0.67035 0.0
H3200 H 0.85254 0.58713 0.67807 0.0
H3201 H 0.89593 0.63857 0.70248 0.0
H3202 H 0.88116 0.65777 0.69504 0.0
H3203 H 0.88042 0.60625 0.71441 0.0
H3204 H 0.90837 0.62392 0.67574 0.0
H3205 H 0.90742 0.62597 0.6532 0.0
H3206 H 0.87387 0.56203 0.64667 0.0
H3207 H 0.87438 0.55961 0.66918 0.0
C3208 C 0.93765 0.5686 0.72452 0.0
C3209 C 0.92908 0.54787 0.72173 0.0
C3210 C 0.929 0.57871 0.71907 0.0
C3211 C 0.91167 0.56829 0.71072 0.0
C3212 C 0.90347 0.54777 0.70757 0.0
C3213 C 0.91201 0.53761 0.71308 0.0
C3214 C 0.90163 0.57868 0.70568 0.0
C3215 C 0.89979 0.57942 0.69284 0.0
C3216 C 0.89448 0.58837 0.71354 0.0
C3217 C 0.89511 0.58723 0.72712 0.0
C3218 C 0.88613 0.56863 0.73192 0.0
C3219 C 0.88692 0.56766 0.74471 0.0
C3220 C 0.89651 0.58519 0.75281 0.0
C3221 C 0.9053 0.60373 0.74812 0.0
C3222 C 0.90459 0.60479 0.73533 0.0
C3223 C 0.85047 0.61362 0.67735 0.0
C3224 C 0.85828 0.63364 0.68207 0.0
C3225 C 0.85894 0.60261 0.68171 0.0
C3226 C 0.87544 0.61149 0.69077 0.0
C3227 C 0.8832 0.63143 0.6955 0.0
C3228 C 0.87473 0.64239 0.6912 0.0
C3229 C 0.88452 0.60003 0.69557 0.0
C3230 C 0.88611 0.599 0.70839 0.0
C3231 C 0.89152 0.59018 0.68768 0.0
C3232 C 0.89122 0.59159 0.67414 0.0
C3233 C 0.90064 0.6103 0.66949 0.0
C3234 C 0.90021 0.61153 0.65672 0.0
C3235 C 0.89054 0.59414 0.6485 0.0
C3236 C 0.88132 0.57549 0.65304 0.0
C3237 C 0.88169 0.57418 0.66581 0.0
H3238 H 0.89022 0.59512 0.63862 0.0
H3239 H 0.8971 0.58441 0.76271 0.0
H3240 H 0.42566 0.92961 0.17211 0.0
H3241 H 0.43379 0.94268 0.1521 0.0
H3242 H 0.49625 0.97671 0.16592 0.0
H3243 H 0.48814 0.96457 0.18615 0.0
H3244 H 0.48697 0.99853 0.15267 0.0
H3245 H 0.47581 0.93182 0.14666 0.0
H3246 H 0.45697 0.89528 0.14698 0.0
H3247 H 0.40994 0.89121 0.1218 0.0
H3248 H 0.42839 0.92777 0.12146 0.0
H3249 H 0.52783 0.01888 0.09507 0.0
H3250 H 0.51847 0.00633 0.11512 0.0
H3251 H 0.45621 0.97563 0.10083 0.0
H3252 H 0.46549 0.98761 0.08063 0.0
H3253 H 0.46471 0.95219 0.11417 0.0
H3254 H 0.47671 0.0192 0.11991 0.0
H3255 H 0.49607 0.05571 0.11956 0.0
H3256 H 0.54224 0.05913 0.14523 0.0
H3257 H 0.52328 0.02259 0.1456 0.0
C3258 C 0.44111 0.94009 0.17098 0.0
C3259 C 0.45624 0.94591 0.18079 0.0
C3260 C 0.44577 0.94737 0.15945 0.0
C3261 C 0.4657 0.96043 0.15739 0.0
C3262 C 0.48078 0.96657 0.16722 0.0
C3263 C 0.47612 0.95942 0.17877 0.0
C3264 C 0.47089 0.96772 0.14502 0.0
C3265 C 0.4823 0.98836 0.14428 0.0
C3266 C 0.46446 0.95453 0.13399 0.0
C3267 C 0.45339 0.93255 0.13414 0.0
C3268 C 0.46138 0.92314 0.14127 0.0
C3269 C 0.45079 0.90243 0.14144 0.0
C3270 C 0.43225 0.89094 0.13444 0.0
C3271 C 0.42429 0.90014 0.12723 0.0
C3272 C 0.43482 0.92085 0.12704 0.0
C3273 C 0.51215 0.00931 0.09615 0.0
C3274 C 0.49742 0.00432 0.08622 0.0
C3275 C 0.5068 0.00231 0.10767 0.0
C3276 C 0.48661 0.99024 0.10955 0.0
C3277 C 0.47188 0.985 0.09963 0.0
C3278 C 0.47721 0.99201 0.08811 0.0
C3279 C 0.48086 0.98297 0.12184 0.0
C3280 C 0.46934 0.96234 0.12256 0.0
C3281 C 0.48727 0.99616 0.13286 0.0
C3282 C 0.49865 0.01814 0.1327 0.0
C3283 C 0.49106 0.02772 0.12541 0.0
C3284 C 0.50195 0.04842 0.12522 0.0
C3285 C 0.52039 0.05973 0.13234 0.0
C3286 C 0.52796 0.05035 0.1397 0.0
C3287 C 0.51714 0.02965 0.13992 0.0
H3288 H 0.5288 0.07575 0.13218 0.0
H3289 H 0.42407 0.87491 0.13459 0.0
H3290 H 0.0551 0.53982 0.18618 0.0
H3291 H 0.04828 0.53382 0.16365 0.0
H3292 H 1.00059 0.47398 0.16668 0.0
H3293 H 0.00757 0.47986 0.1893 0.0
H3294 H 0.02144 0.47467 0.14755 0.0
H3295 H 0.99018 0.51073 0.16207 0.0
H3296 H 0.98831 0.53787 0.17376 0.0
H3297 H 0.03235 0.58074 0.15289 0.0
H3298 H 0.0347 0.55386 0.1412 0.0
H3299 H 0.97083 0.46119 0.08735 0.0
H3300 H 0.9801 0.4639 0.10958 0.0
H3301 H 0.02973 0.52317 0.10786 0.0
H3302 H 0.02026 0.52077 0.08571 0.0
H3303 H 0.00725 0.52177 0.12633 0.0
H3304 H 0.03755 0.48429 0.11146 0.0
H3305 H 0.03805 0.45624 0.09989 0.0
H3306 H 0.99359 0.41493 0.12121 0.0
H3307 H 0.9927 0.44269 0.13286 0.0
C3308 C 0.04317 0.52538 0.18204 0.0
C3309 C 0.03168 0.51038 0.18948 0.0
C3310 C 0.03931 0.52196 0.16918 0.0
C3311 C 0.02368 0.50358 0.16351 0.0
C3312 C 0.01268 0.48829 0.17088 0.0
C3313 C 0.01667 0.49166 0.18378 0.0
C3314 C 0.01836 0.50073 0.14993 0.0
C3315 C 0.01811 0.48481 0.14291 0.0
C3316 C 0.01422 0.51411 0.14388 0.0
C3317 C 0.01275 0.5303 0.15084 0.0
C3318 C 0.99957 0.52596 0.16004 0.0
C3319 C 0.99841 0.54129 0.16665 0.0
C3320 C 0.01024 0.56102 0.16409 0.0
C3321 C 0.02322 0.56545 0.15487 0.0
C3322 C 0.02446 0.55017 0.14824 0.0
C3323 C 0.98372 0.47479 0.09172 0.0
C3324 C 0.99477 0.4908 0.0848 0.0
C3325 C 0.98911 0.47624 0.10438 0.0
C3326 C 0.00568 0.49368 0.11034 0.0
C3327 C 0.01692 0.50955 0.10342 0.0
C3328 C 0.01157 0.50811 0.09076 0.0
C3329 C 0.01063 0.4959 0.12391 0.0
C3330 C 0.01067 0.51166 0.13095 0.0
C3331 C 0.01435 0.48226 0.12994 0.0
C3332 C 0.01493 0.46557 0.12296 0.0
C3333 C 0.02777 0.46922 0.11362 0.0
C3334 C 0.02814 0.45338 0.10705 0.0
C3335 C 0.0158 0.43383 0.10977 0.0
C3336 C 0.00312 0.43008 0.1191 0.0
C3337 C 0.0027 0.44586 0.12571 0.0
H3338 H 0.01611 0.42159 0.10467 0.0
H3339 H 0.00932 0.57287 0.16922 0.0
H3340 H 0.43645 0.48927 0.17827 0.0
H3341 H 0.44136 0.48325 0.15672 0.0
H3342 H 0.50247 0.50005 0.16809 0.0
H3343 H 0.49765 0.50605 0.18956 0.0
H3344 H 0.50025 0.5198 0.14929 0.0
H3345 H 0.46673 0.45147 0.15878 0.0
H3346 H 0.43932 0.42122 0.16587 0.0
H3347 H 0.39826 0.42002 0.13705 0.0
H3348 H 0.42538 0.45043 0.12989 0.0
H3349 H 0.52928 0.49445 0.0945 0.0
H3350 H 0.52015 0.49437 0.11558 0.0
H3351 H 0.45992 0.47691 0.10137 0.0
H3352 H 0.46873 0.47617 0.08019 0.0
H3353 H 0.46003 0.45741 0.12115 0.0
H3354 H 0.49272 0.52504 0.11151 0.0
H3355 H 0.51949 0.5556 0.1043 0.0
H3356 H 0.56125 0.55869 0.13336 0.0
H3357 H 0.53479 0.52796 0.14065 0.0
C3358 C 0.45081 0.49131 0.17619 0.0
C3359 C 0.46672 0.4983 0.18559 0.0
C3360 C 0.4536 0.48789 0.16387 0.0
C3361 C 0.4723 0.49122 0.16079 0.0
C3362 C 0.48796 0.49752 0.17024 0.0
C3363 C 0.4852 0.50099 0.1825 0.0
C3364 C 0.47606 0.48935 0.14769 0.0
C3365 C 0.49163 0.50605 0.1432 0.0
C3366 C 0.46434 0.47166 0.13961 0.0
C3367 C 0.44804 0.45335 0.14388 0.0
C3368 C 0.45182 0.44485 0.15402 0.0
C3369 C 0.43634 0.42766 0.15804 0.0
C3370 C 0.41705 0.41873 0.15193 0.0
C3371 C 0.4132 0.42696 0.14178 0.0
C3372 C 0.42862 0.44417 0.13773 0.0
C3373 C 0.51399 0.49022 0.09583 0.0
C3374 C 0.49977 0.48542 0.08563 0.0
C3375 C 0.50884 0.49039 0.1079 0.0
C3376 C 0.48944 0.48595 0.11005 0.0
C3377 C 0.47501 0.48049 0.09992 0.0
C3378 C 0.48013 0.48025 0.08782 0.0
C3379 C 0.48449 0.48773 0.12286 0.0
C3380 C 0.46865 0.47112 0.12727 0.0
C3381 C 0.49586 0.50556 0.13088 0.0
C3382 C 0.51181 0.52409 0.12655 0.0
C3383 C 0.50765 0.53215 0.11631 0.0
C3384 C 0.52276 0.54951 0.11222 0.0
C3385 C 0.54207 0.55905 0.11835 0.0
C3386 C 0.54629 0.55127 0.12861 0.0
C3387 C 0.53124 0.53389 0.13273 0.0
H3388 H 0.55375 0.5725 0.11517 0.0
H3389 H 0.40509 0.40542 0.15505 0.0
H3390 H 0.00161 0.47945 0.81207 0.0
H3391 H 0.00745 0.4837 0.83464 0.0
H3392 H 0.96515 0.50427 0.83681 0.0
H3393 H 0.95882 0.4996 0.81421 0.0
H3394 H 1.00017 0.5273 0.8528 0.0
H3395 H 0.95046 0.45865 0.84257 0.0
H3396 H 0.93556 0.42491 0.83157 0.0
H3397 H 0.98494 0.41957 0.84674 0.0
H3398 H 1.0003 0.45343 0.85769 0.0
H3399 H 0.99318 0.51788 0.91754 0.0
H3400 H 0.98501 0.51495 0.89516 0.0
H3401 H 0.02297 0.48993 0.88913 0.0
H3402 H 0.03121 0.49282 0.91144 0.0
H3403 H 0.98774 0.46894 0.87513 0.0
H3404 H 0.03821 0.53821 0.88457 0.0
H3405 H 0.05323 0.57203 0.89548 0.0
H3406 H 0.00241 0.57621 0.88184 0.0
H3407 H 0.98697 0.54228 0.87097 0.0
C3408 C 0.99343 0.48474 0.81733 0.0
C3409 C 0.97962 0.48902 0.81133 0.0
C3410 C 0.99685 0.48724 0.83022 0.0
C3411 C 0.98657 0.49409 0.83736 0.0
C3412 C 0.97323 0.49897 0.83144 0.0
C3413 C 0.9697 0.49637 0.81853 0.0
C3414 C 0.98951 0.49574 0.85103 0.0
C3415 C 0.99718 0.51451 0.85773 0.0
C3416 C 0.98585 0.47907 0.85738 0.0
C3417 C 0.97662 0.45866 0.85086 0.0
C3418 C 0.95823 0.45035 0.84348 0.0
C3419 C 0.94968 0.43119 0.83727 0.0
C3420 C 0.95932 0.42012 0.83843 0.0
C3421 C 0.97751 0.42817 0.84584 0.0
C3422 C 0.98613 0.44734 0.85206 0.0
C3423 C 0.99987 0.51187 0.91144 0.0
C3424 C 0.01279 0.50552 0.91627 0.0
C3425 C 0.99519 0.51021 0.89866 0.0
C3426 C 0.0035 0.50235 0.89049 0.0
C3427 C 0.01634 0.49596 0.89528 0.0
C3428 C 0.02098 0.49756 0.90804 0.0
C3429 C 0.99876 0.50058 0.87692 0.0
C3430 C 0.99066 0.48174 0.87023 0.0
C3431 C 0.00204 0.5172 0.8706 0.0
C3432 C 0.01134 0.53763 0.87707 0.0
C3433 C 0.03017 0.54628 0.88398 0.0
C3434 C 0.03877 0.56548 0.89014 0.0
C3435 C 0.02875 0.57624 0.88938 0.0
C3436 C 0.01014 0.56784 0.88243 0.0
C3437 C 0.00146 0.54864 0.87626 0.0
H3438 H 0.03544 0.5911 0.89416 0.0
H3439 H 0.95268 0.40529 0.83362 0.0
H3440 H 0.49812 0.4866 0.81436 0.0
H3441 H 0.49342 0.49234 0.83588 0.0
H3442 H 0.55534 0.5118 0.84681 0.0
H3443 H 0.55998 0.50538 0.82528 0.0
H3444 H 0.53154 0.48575 0.86162 0.0
H3445 H 0.53848 0.5452 0.8465 0.0
H3446 H 0.53144 0.56506 0.83232 0.0
H3447 H 0.47038 0.53622 0.84059 0.0
H3448 H 0.47698 0.51598 0.8547 0.0
H3449 H 0.52721 0.51669 0.92352 0.0
H3450 H 0.53612 0.5166 0.9024 0.0
H3451 H 0.4756 0.49804 0.88817 0.0
H3452 H 0.46681 0.49914 0.90927 0.0
H3453 H 0.50112 0.52583 0.87533 0.0
H3454 H 0.49356 0.46486 0.88924 0.0
H3455 H 0.50029 0.44463 0.90329 0.0
H3456 H 0.56232 0.4761 0.89713 0.0
H3457 H 0.55599 0.49669 0.88316 0.0
C3458 C 0.51075 0.4921 0.82133 0.0
C3459 C 0.5294 0.49544 0.81811 0.0
C3460 C 0.50809 0.49558 0.83362 0.0
C3461 C 0.52407 0.50268 0.84295 0.0
C3462 C 0.54281 0.50637 0.83975 0.0
C3463 C 0.54548 0.50286 0.82744 0.0
C3464 C 0.52087 0.50528 0.8561 0.0
C3465 C 0.52523 0.49481 0.86467 0.0
C3466 C 0.5122 0.51673 0.86002 0.0
C3467 C 0.5082 0.52896 0.85159 0.0
C3468 C 0.52352 0.54299 0.84523 0.0
C3469 C 0.51961 0.55434 0.83722 0.0
C3470 C 0.50046 0.55188 0.83554 0.0
C3471 C 0.4852 0.5381 0.8419 0.0
C3472 C 0.48902 0.52671 0.84991 0.0
C3473 C 0.51583 0.51284 0.91592 0.0
C3474 C 0.49625 0.50788 0.91813 0.0
C3475 C 0.52091 0.51257 0.90382 0.0
C3476 C 0.50647 0.50703 0.89368 0.0
C3477 C 0.48699 0.50229 0.89585 0.0
C3478 C 0.48193 0.50271 0.90794 0.0
C3479 C 0.51159 0.50611 0.8808 0.0
C3480 C 0.50758 0.51689 0.8723 0.0
C3481 C 0.52054 0.49491 0.87692 0.0
C3482 C 0.52434 0.48245 0.88525 0.0
C3483 C 0.50866 0.46756 0.89095 0.0
C3484 C 0.5124 0.45601 0.89889 0.0
C3485 C 0.53173 0.45912 0.90113 0.0
C3486 C 0.54736 0.47373 0.8954 0.0
C3487 C 0.5437 0.48533 0.88746 0.0
H3488 H 0.5346 0.45017 0.90728 0.0
H3489 H 0.49747 0.56068 0.82933 0.0
H3490 H 0.50289 0.02717 0.81644 0.0
H3491 H 0.49734 0.01483 0.83678 0.0
H3492 H 0.55747 0.05996 0.85083 0.0
H3493 H 0.56316 0.07241 0.83041 0.0
H3494 H 0.54736 0.02457 0.85971 0.0
H3495 H 0.51846 0.06633 0.85662 0.0
H3496 H 0.49726 0.07827 0.84699 0.0
H3497 H 0.44499 0.0213 0.84899 0.0
H3498 H 0.46593 0.00892 0.85847 0.0
H3499 H 0.53078 0.01749 0.92355 0.0
H3500 H 0.53879 0.02929 0.90318 0.0
H3501 H 0.47912 0.98532 0.88754 0.0
H3502 H 0.47081 0.97383 0.90795 0.0
H3503 H 0.48997 0.02109 0.87972 0.0
H3504 H 0.51929 0.97938 0.88279 0.0
H3505 H 0.54078 0.9678 0.89247 0.0
H3506 H 0.59258 0.02525 0.8908 0.0
H3507 H 0.57135 0.03726 0.88125 0.0
C3508 C 0.51495 0.0345 0.82385 0.0
C3509 C 0.53339 0.05094 0.82184 0.0
C3510 C 0.51176 0.02741 0.83548 0.0
C3511 C 0.52685 0.0367 0.84541 0.0
C3512 C 0.54557 0.0526 0.84332 0.0
C3513 C 0.54882 0.05967 0.83164 0.0
C3514 C 0.52279 0.03017 0.85802 0.0
C3515 C 0.53498 0.02406 0.86417 0.0
C3516 C 0.50644 0.0292 0.86377 0.0
C3517 C 0.49378 0.03665 0.85816 0.0
C3518 C 0.50246 0.05631 0.85493 0.0
C3519 C 0.49049 0.06316 0.84951 0.0
C3520 C 0.46979 0.05054 0.84735 0.0
C3521 C 0.46103 0.03105 0.85065 0.0
C3522 C 0.47293 0.02412 0.85606 0.0
C3523 C 0.51931 0.0104 0.9158 0.0
C3524 C 0.50013 0.99469 0.91741 0.0
C3525 C 0.52399 0.01703 0.90412 0.0
C3526 C 0.50963 0.00806 0.89379 0.0
C3527 C 0.49047 0.99243 0.89536 0.0
C3528 C 0.48579 0.98576 0.90703 0.0
C3529 C 0.51438 0.01526 0.88138 0.0
C3530 C 0.50235 0.02158 0.87528 0.0
C3531 C 0.53091 0.01649 0.87572 0.0
C3532 C 0.54371 0.00928 0.88142 0.0
C3533 C 0.53525 0.98959 0.88457 0.0
C3534 C 0.54738 0.98294 0.89002 0.0
C3535 C 0.56803 0.9958 0.89228 0.0
C3536 C 0.57658 0.01532 0.88906 0.0
C3537 C 0.56451 0.02205 0.88362 0.0
H3538 H 0.5774 0.99062 0.89649 0.0
H3539 H 0.46055 0.05587 0.84315 0.0
H3540 H 0.09234 0.25852 0.50528 0.0
H3541 H 0.09999 0.27154 0.48519 0.0
H3542 H 0.16178 0.30983 0.49954 0.0
H3543 H 0.15412 0.29742 0.51978 0.0
H3544 H 0.14906 0.32952 0.4858 0.0
H3545 H 0.14634 0.26626 0.48108 0.0
H3546 H 0.13119 0.22994 0.48173 0.0
H3547 H 0.08272 0.21968 0.45533 0.0
H3548 H 0.09745 0.25597 0.45466 0.0
H3549 H 0.19167 0.35307 0.42882 0.0
H3550 H 0.18262 0.34098 0.449 0.0
H3551 H 0.12121 0.30347 0.43368 0.0
H3552 H 0.13011 0.31557 0.41347 0.0
H3553 H 0.13299 0.28338 0.44782 0.0
H3554 H 0.13602 0.34662 0.45224 0.0
H3555 H 0.15124 0.38294 0.45153 0.0
H3556 H 0.19912 0.39324 0.47843 0.0
H3557 H 0.18433 0.35695 0.47917 0.0
C3558 C 0.10751 0.26989 0.50422 0.0
C3559 C 0.12262 0.27685 0.51415 0.0
C3560 C 0.11191 0.27717 0.49267 0.0
C3561 C 0.13153 0.29148 0.49078 0.0
C3562 C 0.14655 0.29874 0.50074 0.0
C3563 C 0.14217 0.29148 0.51229 0.0
C3564 C 0.13645 0.29883 0.47842 0.0
C3565 C 0.14576 0.31944 0.47752 0.0
C3566 C 0.13174 0.28567 0.46755 0.0
C3567 C 0.12289 0.26385 0.46792 0.0
C3568 C 0.13237 0.25627 0.47549 0.0
C3569 C 0.12387 0.23569 0.47585 0.0
C3570 C 0.10597 0.22251 0.4686 0.0
C3571 C 0.09657 0.2299 0.46096 0.0
C3572 C 0.10499 0.25048 0.46058 0.0
C3573 C 0.17619 0.34242 0.42976 0.0
C3574 C 0.16161 0.33536 0.41951 0.0
C3575 C 0.17104 0.33549 0.44132 0.0
C3576 C 0.15118 0.32146 0.44291 0.0
C3577 C 0.13663 0.31427 0.43268 0.0
C3578 C 0.14176 0.32117 0.42112 0.0
C3579 C 0.14565 0.31408 0.4552 0.0
C3580 C 0.13624 0.29346 0.45609 0.0
C3581 C 0.15027 0.32722 0.46606 0.0
C3582 C 0.15916 0.34906 0.46567 0.0
C3583 C 0.14988 0.35662 0.45793 0.0
C3584 C 0.15841 0.3772 0.45754 0.0
C3585 C 0.17616 0.39038 0.46491 0.0
C3586 C 0.18538 0.38301 0.47272 0.0
C3587 C 0.17692 0.36244 0.47313 0.0
H3588 H 0.18274 0.40631 0.46459 0.0
H3589 H 0.09942 0.20658 0.46889 0.0
H3590 H 0.66238 0.81108 0.52087 0.0
H3591 H 0.65532 0.80643 0.4983 0.0
H3592 H 0.69622 0.86914 0.4967 0.0
H3593 H 0.70322 0.87389 0.5192 0.0
H3594 H 0.66282 0.85723 0.48219 0.0
H3595 H 0.70905 0.83372 0.48903 0.0
H3596 H 0.7217 0.8132 0.49802 0.0
H3597 H 0.66947 0.75988 0.48114 0.0
H3598 H 0.65636 0.78008 0.47218 0.0
H3599 H 0.67566 0.85685 0.41843 0.0
H3600 H 0.68219 0.85935 0.44094 0.0
H3601 H 0.63693 0.7975 0.44078 0.0
H3602 H 0.63054 0.79481 0.41822 0.0
H3603 H 0.67142 0.80791 0.45607 0.0
H3604 H 0.62574 0.83205 0.44891 0.0
H3605 H 0.61379 0.85302 0.43978 0.0
H3606 H 0.66601 0.9058 0.45723 0.0
H3607 H 0.67844 0.88515 0.46633 0.0
C3608 C 0.66992 0.82384 0.51568 0.0
C3609 C 0.68331 0.84286 0.5218 0.0
C3610 C 0.66589 0.82116 0.5028 0.0
C3611 C 0.67539 0.83741 0.49581 0.0
C3612 C 0.68867 0.85642 0.50191 0.0
C3613 C 0.69261 0.85911 0.51477 0.0
C3614 C 0.67142 0.83476 0.48213 0.0
C3615 C 0.66493 0.84661 0.47648 0.0
C3616 C 0.67375 0.82058 0.4747 0.0
C3617 C 0.68163 0.80841 0.48004 0.0
C3618 C 0.70018 0.81761 0.48732 0.0
C3619 C 0.70745 0.80604 0.49239 0.0
C3620 C 0.69637 0.78525 0.49018 0.0
C3621 C 0.67802 0.77599 0.48286 0.0
C3622 C 0.67067 0.78749 0.47777 0.0
C3623 C 0.66727 0.84373 0.42318 0.0
C3624 C 0.65252 0.82566 0.41659 0.0
C3625 C 0.67091 0.84521 0.43603 0.0
C3626 C 0.65988 0.82866 0.44251 0.0
C3627 C 0.64554 0.81045 0.43593 0.0
C3628 C 0.64181 0.80899 0.42308 0.0
C3629 C 0.66302 0.83051 0.45618 0.0
C3630 C 0.66929 0.81849 0.46181 0.0
C3631 C 0.6606 0.8446 0.4636 0.0
C3632 C 0.65311 0.85706 0.4582 0.0
C3633 C 0.63476 0.84814 0.45072 0.0
C3634 C 0.62788 0.85996 0.44557 0.0
C3635 C 0.63916 0.88073 0.4479 0.0
C3636 C 0.65731 0.88972 0.45542 0.0
C3637 C 0.66427 0.87795 0.46059 0.0
H3638 H 0.63381 0.88987 0.4439 0.0
H3639 H 0.70203 0.77632 0.49412 0.0
H3640 H 0.15856 0.83644 0.52136 0.0
H3641 H 0.1624 0.8298 0.49977 0.0
H3642 H 0.10492 0.82325 0.48853 0.0
H3643 H 0.10089 0.82968 0.51027 0.0
H3644 H 0.1116 0.79664 0.47464 0.0
H3645 H 0.14594 0.86679 0.4868 0.0
H3646 H 0.1688 0.89784 0.50013 0.0
H3647 H 0.21816 0.88896 0.49388 0.0
H3648 H 0.19552 0.85767 0.48067 0.0
H3649 H 0.13371 0.81409 0.41191 0.0
H3650 H 0.12395 0.8147 0.4328 0.0
H3651 H 0.18158 0.82561 0.44812 0.0
H3652 H 0.19185 0.82615 0.42734 0.0
H3653 H 0.17261 0.85038 0.45953 0.0
H3654 H 0.13707 0.77913 0.4475 0.0
H3655 H 0.11356 0.74852 0.43398 0.0
H3656 H 0.06583 0.76033 0.43944 0.0
H3657 H 0.08911 0.79111 0.45291 0.0
C3658 C 0.14665 0.83338 0.5143 0.0
C3659 C 0.12956 0.83386 0.51745 0.0
C3660 C 0.14885 0.82958 0.50197 0.0
C3661 C 0.13414 0.82646 0.49252 0.0
C3662 C 0.11649 0.82572 0.49569 0.0
C3663 C 0.1142 0.82938 0.50808 0.0
C3664 C 0.138 0.82543 0.47937 0.0
C3665 C 0.1248 0.80847 0.47127 0.0
C3666 C 0.15527 0.84084 0.475 0.0
C3667 C 0.16899 0.85979 0.48282 0.0
C3668 C 0.16164 0.87139 0.48833 0.0
C3669 C 0.17456 0.88904 0.49586 0.0
C3670 C 0.19491 0.89535 0.49787 0.0
C3671 C 0.20239 0.88404 0.49232 0.0
C3672 C 0.18952 0.86636 0.48481 0.0
C3673 C 0.14436 0.8167 0.41972 0.0
C3674 C 0.16362 0.82013 0.41791 0.0
C3675 C 0.13864 0.81679 0.43167 0.0
C3676 C 0.15196 0.82002 0.44205 0.0
C3677 C 0.17102 0.82305 0.44025 0.0
C3678 C 0.17681 0.82314 0.42834 0.0
C3679 C 0.14656 0.8213 0.45482 0.0
C3680 C 0.15941 0.83848 0.46286 0.0
C3681 C 0.12891 0.80616 0.45906 0.0
C3682 C 0.11487 0.78751 0.45111 0.0
C3683 C 0.12158 0.77525 0.44576 0.0
C3684 C 0.10829 0.75786 0.43812 0.0
C3685 C 0.08822 0.7525 0.43583 0.0
C3686 C 0.08138 0.76449 0.44122 0.0
C3687 C 0.09461 0.78189 0.44887 0.0
H3688 H 0.07796 0.73905 0.4299 0.0
H3689 H 0.20489 0.90901 0.5037 0.0
H3690 H 0.63772 0.84553 0.1467 0.0
H3691 H 0.6462 0.85186 0.16915 0.0
H3692 H 0.6875 0.83016 0.16603 0.0
H3693 H 0.67928 0.824 0.14357 0.0
H3694 H 0.66226 0.81293 0.18338 0.0
H3695 H 0.70435 0.8795 0.17262 0.0
H3696 H 0.71172 0.91001 0.16293 0.0
H3697 H 0.67145 0.91788 0.1849 0.0
H3698 H 0.66361 0.88724 0.19461 0.0
H3699 H 0.70839 0.83785 0.24395 0.0
H3700 H 0.70333 0.83786 0.22165 0.0
H3701 H 0.66338 0.86077 0.22675 0.0
H3702 H 0.66906 0.86164 0.24923 0.0
H3703 H 0.68712 0.87783 0.2085 0.0
H3704 H 0.6446 0.81176 0.21909 0.0
H3705 H 0.63625 0.78103 0.22878 0.0
H3706 H 0.67589 0.77177 0.20699 0.0
H3707 H 0.68471 0.80262 0.19729 0.0
C3708 C 0.64888 0.84245 0.15077 0.0
C3709 C 0.65779 0.8342 0.14336 0.0
C3710 C 0.65368 0.84604 0.1636 0.0
C3711 C 0.66754 0.84156 0.16924 0.0
C3712 C 0.67671 0.83367 0.16185 0.0
C3713 C 0.67194 0.83008 0.14903 0.0
C3714 C 0.67171 0.84405 0.1829 0.0
C3715 C 0.66799 0.82719 0.18886 0.0
C3716 C 0.6785 0.86251 0.19005 0.0
C3717 C 0.68324 0.88096 0.18425 0.0
C3718 C 0.69693 0.88764 0.17531 0.0
C3719 C 0.70122 0.90498 0.16983 0.0
C3720 C 0.69202 0.91585 0.17327 0.0
C3721 C 0.67855 0.90943 0.18223 0.0
C3722 C 0.67419 0.89209 0.18774 0.0
C3723 C 0.69889 0.84335 0.2404 0.0
C3724 C 0.68907 0.84968 0.24841 0.0
C3725 C 0.69583 0.84313 0.22761 0.0
C3726 C 0.6827 0.84897 0.22254 0.0
C3727 C 0.67348 0.85607 0.23048 0.0
C3728 C 0.67661 0.85639 0.24331 0.0
C3729 C 0.67797 0.84677 0.20894 0.0
C3730 C 0.68145 0.8636 0.20301 0.0
C3731 C 0.67079 0.82824 0.20177 0.0
C3732 C 0.66545 0.80961 0.20755 0.0
C3733 C 0.65165 0.80326 0.21643 0.0
C3734 C 0.64682 0.7858 0.22192 0.0
C3735 C 0.65557 0.77448 0.21853 0.0
C3736 C 0.66914 0.78057 0.20962 0.0
C3737 C 0.67405 0.79803 0.20411 0.0
H3738 H 0.65181 0.76096 0.22279 0.0
H3739 H 0.69536 0.92926 0.16902 0.0
H3740 H 0.23066 0.84391 0.15946 0.0
H3741 H 0.22658 0.85111 0.18098 0.0
H3742 H 0.16448 0.83145 0.17053 0.0
H3743 H 0.1686 0.82482 0.14899 0.0
H3744 H 0.1809 0.86374 0.18722 0.0
H3745 H 0.1786 0.80035 0.18271 0.0
H3746 H 0.19155 0.77789 0.17732 0.0
H3747 H 0.2427 0.81247 0.20399 0.0
H3748 H 0.23017 0.83532 0.20942 0.0
H3749 H 0.13656 0.83562 0.24296 0.0
H3750 H 0.14653 0.83632 0.22204 0.0
H3751 H 0.20718 0.857 0.23708 0.0
H3752 H 0.19737 0.85654 0.25807 0.0
H3753 H 0.19479 0.82725 0.21863 0.0
H3754 H 0.19512 0.88891 0.22449 0.0
H3755 H 0.18149 0.91077 0.22993 0.0
H3756 H 0.13357 0.87908 0.20083 0.0
H3757 H 0.14675 0.85684 0.19532 0.0
C3758 C 0.21625 0.84149 0.16171 0.0
C3759 C 0.19989 0.83358 0.15255 0.0
C3760 C 0.21389 0.84545 0.17403 0.0
C3761 C 0.19513 0.8415 0.17739 0.0
C3762 C 0.17906 0.83451 0.16816 0.0
C3763 C 0.1814 0.83057 0.15588 0.0
C3764 C 0.19185 0.84363 0.19057 0.0
C3765 C 0.18382 0.85567 0.19408 0.0
C3766 C 0.19607 0.83344 0.19958 0.0
C3767 C 0.20357 0.81967 0.19636 0.0
C3768 C 0.19269 0.80326 0.18736 0.0
C3769 C 0.19994 0.79044 0.18431 0.0
C3770 C 0.21797 0.79378 0.19028 0.0
C3771 C 0.22876 0.80992 0.19935 0.0
C3772 C 0.22158 0.82281 0.20242 0.0
C3773 C 0.15207 0.84055 0.24183 0.0
C3774 C 0.16617 0.84608 0.2522 0.0
C3775 C 0.15775 0.84092 0.22986 0.0
C3776 C 0.17765 0.84694 0.22799 0.0
C3777 C 0.19174 0.85231 0.23831 0.0
C3778 C 0.18608 0.85195 0.25029 0.0
C3779 C 0.1836 0.84716 0.21526 0.0
C3780 C 0.1921 0.83553 0.21183 0.0
C3781 C 0.17976 0.85768 0.20632 0.0
C3782 C 0.17184 0.8711 0.20956 0.0
C3783 C 0.18159 0.88651 0.21931 0.0
C3784 C 0.17396 0.89898 0.22239 0.0
C3785 C 0.15665 0.89629 0.21575 0.0
C3786 C 0.14696 0.88114 0.20598 0.0
C3787 C 0.15452 0.86861 0.20286 0.0
H3788 H 0.15076 0.90596 0.21815 0.0
H3789 H 0.22356 0.78384 0.18791 0.0
H3790 H 0.19667 0.41345 0.16615 0.0
H3791 H 0.19112 0.39978 0.18615 0.0
H3792 H 0.19936 0.35178 0.17152 0.0
H3793 H 0.20492 0.36543 0.15141 0.0
H3794 H 0.16512 0.33889 0.1841 0.0
H3795 H 0.23494 0.38703 0.19117 0.0
H3796 H 0.26502 0.42018 0.19147 0.0
H3797 H 0.24109 0.44508 0.21702 0.0
H3798 H 0.21071 0.41212 0.21673 0.0
H3799 H 0.1635 0.30143 0.24226 0.0
H3800 H 0.17302 0.31446 0.2224 0.0
H3801 H 0.17453 0.36871 0.23574 0.0
H3802 H 0.16612 0.35626 0.25587 0.0
H3803 H 0.20531 0.3776 0.22346 0.0
H3804 H 0.1349 0.33083 0.21553 0.0
H3805 H 0.10405 0.29822 0.21505 0.0
H3806 H 0.12808 0.27137 0.19099 0.0
H3807 H 0.15919 0.30379 0.19147 0.0
C3808 C 0.19735 0.40001 0.1672 0.0
C3809 C 0.20118 0.39048 0.15721 0.0
C3810 C 0.19429 0.39228 0.17865 0.0
C3811 C 0.19491 0.37481 0.18034 0.0
C3812 C 0.19885 0.3653 0.17041 0.0
C3813 C 0.20215 0.37317 0.15897 0.0
C3814 C 0.19078 0.36622 0.19239 0.0
C3815 C 0.17411 0.34719 0.19269 0.0
C3816 C 0.20219 0.37729 0.20362 0.0
C3817 C 0.22046 0.39713 0.20384 0.0
C3818 C 0.23601 0.3996 0.19677 0.0
C3819 C 0.25313 0.41835 0.19695 0.0
C3820 C 0.25494 0.43473 0.20424 0.0
C3821 C 0.23966 0.43238 0.21138 0.0
C3822 C 0.22249 0.41367 0.21121 0.0
C3823 C 0.16606 0.31623 0.24105 0.0
C3824 C 0.16395 0.32774 0.25072 0.0
C3825 C 0.17128 0.32358 0.2296 0.0
C3826 C 0.17423 0.34248 0.22746 0.0
C3827 C 0.17227 0.35405 0.23711 0.0
C3828 C 0.16722 0.34679 0.2486 0.0
C3829 C 0.17947 0.35029 0.21523 0.0
C3830 C 0.19637 0.36921 0.21488 0.0
C3831 C 0.16815 0.33918 0.20395 0.0
C3832 C 0.14945 0.31968 0.20365 0.0
C3833 C 0.13366 0.31794 0.21022 0.0
C3834 C 0.11612 0.2995 0.20993 0.0
C3835 C 0.11413 0.28273 0.20302 0.0
C3836 C 0.12965 0.28437 0.19636 0.0
C3837 C 0.14724 0.30277 0.19663 0.0
H3838 H 0.10053 0.26846 0.20281 0.0
H3839 H 0.26821 0.44924 0.20437 0.0
H3840 H 0.77702 0.62946 0.8499 0.0
H3841 H 0.78488 0.64229 0.82976 0.0
H3842 H 0.80455 0.60047 0.82042 0.0
H3843 H 0.79675 0.58758 0.84053 0.0
H3844 H 0.83052 0.63628 0.81449 0.0
H3845 H 0.75931 0.59368 0.80783 0.0
H3846 H 0.72436 0.58092 0.81217 0.0
H3847 H 0.73041 0.63816 0.80766 0.0
H3848 H 0.7655 0.65136 0.80347 0.0
H3849 H 0.83517 0.64587 0.7503 0.0
H3850 H 0.82553 0.63272 0.77016 0.0
H3851 H 0.80874 0.67689 0.77918 0.0
H3852 H 0.81785 0.68981 0.75916 0.0
H3853 H 0.78131 0.64045 0.78532 0.0
H3854 H 0.85257 0.68286 0.79186 0.0
H3855 H 0.88741 0.69536 0.78737 0.0
H3856 H 0.88105 0.63801 0.79198 0.0
H3857 H 0.84607 0.62509 0.79633 0.0
C3858 C 0.7828 0.62283 0.8435 0.0
C3859 C 0.78624 0.60747 0.84684 0.0
C3860 C 0.78731 0.6302 0.83198 0.0
C3861 C 0.79515 0.62223 0.8235 0.0
C3862 C 0.79858 0.6069 0.82681 0.0
C3863 C 0.79415 0.59958 0.83833 0.0
C3864 C 0.80019 0.63013 0.81127 0.0
C3865 C 0.81966 0.63693 0.80805 0.0
C3866 C 0.7862 0.63146 0.80297 0.0
C3867 C 0.7651 0.62356 0.80546 0.0
C3868 C 0.75324 0.60359 0.80787 0.0
C3869 C 0.73339 0.59627 0.81028 0.0
C3870 C 0.72519 0.60874 0.81022 0.0
C3871 C 0.7368 0.62854 0.80772 0.0
C3872 C 0.75666 0.63594 0.80532 0.0
C3873 C 0.82926 0.6527 0.75645 0.0
C3874 C 0.8274 0.66899 0.75315 0.0
C3875 C 0.82391 0.64526 0.76785 0.0
C3876 C 0.81665 0.65398 0.77624 0.0
C3877 C 0.8144 0.66999 0.77289 0.0
C3878 C 0.81981 0.67748 0.76149 0.0
C3879 C 0.81158 0.64647 0.78854 0.0
C3880 C 0.79214 0.63979 0.79178 0.0
C3881 C 0.82558 0.6452 0.79686 0.0
C3882 C 0.84664 0.65296 0.79431 0.0
C3883 C 0.85855 0.67287 0.79182 0.0
C3884 C 0.87833 0.68004 0.78932 0.0
C3885 C 0.88642 0.66747 0.78935 0.0
C3886 C 0.87476 0.64772 0.79193 0.0
C3887 C 0.85496 0.64047 0.79444 0.0
H3888 H 0.90174 0.67305 0.78741 0.0
H3889 H 0.70982 0.60304 0.81209 0.0
H3890 H 0.3377 0.14787 0.85664 0.0
H3891 H 0.33137 0.14305 0.83403 0.0
H3892 H 0.37398 0.20531 0.83235 0.0
H3893 H 0.38024 0.21022 0.85492 0.0
H3894 H 0.34065 0.19458 0.81819 0.0
H3895 H 0.38469 0.16835 0.82416 0.0
H3896 H 0.39637 0.14684 0.8328 0.0
H3897 H 0.34261 0.09467 0.81633 0.0
H3898 H 0.33047 0.11587 0.80773 0.0
H3899 H 0.34953 0.19237 0.75398 0.0
H3900 H 0.35739 0.19502 0.77637 0.0
H3901 H 0.31068 0.13396 0.77704 0.0
H3902 H 0.30296 0.13108 0.75458 0.0
H3903 H 0.34556 0.1433 0.79158 0.0
H3904 H 0.30173 0.16991 0.78568 0.0
H3905 H 0.29044 0.19165 0.77694 0.0
H3906 H 0.34455 0.24354 0.79332 0.0
H3907 H 0.3563 0.22209 0.80201 0.0
C3908 C 0.34587 0.16046 0.85142 0.0
C3909 C 0.3594 0.17944 0.85753 0.0
C3910 C 0.34226 0.15769 0.83852 0.0
C3911 C 0.35231 0.1738 0.8315 0.0
C3912 C 0.36601 0.19269 0.83759 0.0
C3913 C 0.36953 0.19549 0.85047 0.0
C3914 C 0.34804 0.17122 0.81784 0.0
C3915 C 0.34201 0.18356 0.81237 0.0
C3916 C 0.3493 0.15648 0.81027 0.0
C3917 C 0.35658 0.1437 0.81541 0.0
C3918 C 0.37528 0.15229 0.82247 0.0
C3919 C 0.382 0.14015 0.82734 0.0
C3920 C 0.37021 0.1194 0.82515 0.0
C3921 C 0.35171 0.11075 0.81804 0.0
C3922 C 0.34491 0.12281 0.81316 0.0
C3923 C 0.3411 0.17944 0.75888 0.0
C3924 C 0.32557 0.16154 0.75255 0.0
C3925 C 0.34551 0.18102 0.77166 0.0
C3926 C 0.33447 0.16475 0.77835 0.0
C3927 C 0.31932 0.14669 0.77203 0.0
C3928 C 0.31484 0.14513 0.75924 0.0
C3929 C 0.33839 0.16679 0.79199 0.0
C3930 C 0.34426 0.15433 0.79744 0.0
C3931 C 0.33705 0.18146 0.79956 0.0
C3932 C 0.32998 0.19439 0.79439 0.0
C3933 C 0.31129 0.18596 0.78733 0.0
C3934 C 0.3048 0.19823 0.7824 0.0
C3935 C 0.3168 0.21896 0.78454 0.0
C3936 C 0.33529 0.22747 0.79165 0.0
C3937 C 0.34187 0.21526 0.79659 0.0
H3938 H 0.31174 0.22844 0.78072 0.0
H3939 H 0.37544 0.11003 0.82893 0.0
H3940 H 0.76742 0.15156 0.84403 0.0
H3941 H 0.77104 0.14338 0.82255 0.0
H3942 H 0.83409 0.16692 0.83221 0.0
H3943 H 0.83056 0.17471 0.85364 0.0
H3944 H 0.82637 0.18319 0.81235 0.0
H3945 H 0.80369 0.11802 0.82593 0.0
H3946 H 0.78049 0.08746 0.83494 0.0
H3947 H 0.73403 0.07541 0.8064 0.0
H3948 H 0.75689 0.10608 0.79731 0.0
H3949 H 0.8602 0.15326 0.76175 0.0
H3950 H 0.84901 0.15339 0.78221 0.0
H3951 H 0.79044 0.13737 0.76557 0.0
H3952 H 0.80176 0.13835 0.74495 0.0
H3953 H 0.79236 0.11676 0.78786 0.0
H3954 H 0.81486 0.18123 0.77399 0.0
H3955 H 0.83799 0.21155 0.76475 0.0
H3956 H 0.88416 0.22493 0.79383 0.0
H3957 H 0.86139 0.19447 0.80314 0.0
C3958 C 0.78197 0.15459 0.84163 0.0
C3959 C 0.79876 0.16402 0.85052 0.0
C3960 C 0.78402 0.14997 0.82934 0.0
C3961 C 0.80287 0.15466 0.82578 0.0
C3962 C 0.81945 0.16335 0.83474 0.0
C3963 C 0.81741 0.16787 0.84698 0.0
C3964 C 0.80576 0.15178 0.81261 0.0
C3965 C 0.81904 0.16862 0.80705 0.0
C3966 C 0.79569 0.13288 0.80556 0.0
C3967 C 0.78193 0.11448 0.81103 0.0
C3968 C 0.78846 0.10897 0.82165 0.0
C3969 C 0.77539 0.0916 0.82675 0.0
C3970 C 0.75577 0.07954 0.82127 0.0
C3971 C 0.74921 0.08479 0.81065 0.0
C3972 C 0.76223 0.10216 0.80552 0.0
C3973 C 0.84495 0.14988 0.76237 0.0
C3974 C 0.83203 0.14617 0.75163 0.0
C3975 C 0.83853 0.14974 0.77409 0.0
C3976 C 0.81897 0.14556 0.77536 0.0
C3977 C 0.80561 0.14063 0.76474 0.0
C3978 C 0.81212 0.14112 0.75296 0.0
C3979 C 0.81327 0.1481 0.7878 0.0
C3980 C 0.7995 0.13129 0.79318 0.0
C3981 C 0.82277 0.16705 0.79471 0.0
C3982 C 0.83648 0.18545 0.78919 0.0
C3983 C 0.83001 0.19052 0.77835 0.0
C3984 C 0.84304 0.20775 0.77311 0.0
C3985 C 0.86255 0.22013 0.77868 0.0
C3986 C 0.86905 0.21531 0.78952 0.0
C3987 C 0.85608 0.19807 0.79478 0.0
H3988 H 0.87261 0.23347 0.77461 0.0
H3989 H 0.74568 0.06609 0.82523 0.0
H3990 H 0.29713 0.13243 0.48233 0.0
H3991 H 0.30394 0.13797 0.50487 0.0
H3992 H 0.34942 0.19896 0.50237 0.0
H3993 H 0.34284 0.19343 0.47972 0.0
H3994 H 0.36169 0.1798 0.51838 0.0
H3995 H 0.3063 0.19025 0.51144 0.0
H3996 H 0.27273 0.18227 0.50275 0.0
H3997 H 0.24619 0.12941 0.52163 0.0
H3998 H 0.27964 0.1369 0.53029 0.0
H3999 H 0.37352 0.20707 0.58304 0.0
H4000 H 0.36671 0.20612 0.5607 0.0
H4001 H 0.31809 0.14551 0.55957 0.0
H4002 H 0.32482 0.14635 0.58192 0.0
H4003 H 0.30802 0.16716 0.54537 0.0
H4004 H 0.36329 0.15537 0.55104 0.0
H4005 H 0.39678 0.16292 0.55962 0.0
H4006 H 0.42344 0.21799 0.54297 0.0
H4007 H 0.39006 0.21088 0.53443 0.0
C4008 C 0.30869 0.14698 0.48657 0.0
C4009 C 0.31951 0.16249 0.47928 0.0
C4010 C 0.31243 0.15017 0.49945 0.0
C4011 C 0.32703 0.16892 0.50527 0.0
C4012 C 0.33802 0.18441 0.49803 0.0
C4013 C 0.33419 0.18126 0.48513 0.0
C4014 C 0.33098 0.17214 0.51893 0.0
C4015 C 0.35007 0.1774 0.5243 0.0
C4016 C 0.31566 0.16858 0.52659 0.0
C4017 C 0.2955 0.16405 0.52143 0.0
C4018 C 0.29332 0.17683 0.51366 0.0
C4019 C 0.27431 0.17241 0.50875 0.0
C4020 C 0.25734 0.15532 0.51161 0.0
C4021 C 0.25935 0.14263 0.51941 0.0
C4022 C 0.27833 0.14697 0.52434 0.0
C4023 C 0.36142 0.19351 0.57802 0.0
C4024 C 0.3498 0.17672 0.58421 0.0
C4025 C 0.35753 0.19302 0.56527 0.0
C4026 C 0.34207 0.17566 0.55846 0.0
C4027 C 0.33009 0.15905 0.56466 0.0
C4028 C 0.33393 0.15957 0.57742 0.0
C4029 C 0.33868 0.17459 0.54482 0.0
C4030 C 0.31969 0.16973 0.53945 0.0
C4031 C 0.35408 0.17846 0.53715 0.0
C4032 C 0.37417 0.18269 0.54221 0.0
C4033 C 0.37628 0.16916 0.54929 0.0
C4034 C 0.39524 0.17335 0.55413 0.0
C4035 C 0.41222 0.19095 0.55187 0.0
C4036 C 0.41028 0.20437 0.54473 0.0
C4037 C 0.39134 0.20027 0.53988 0.0
H4038 H 0.42689 0.19417 0.55563 0.0
H4039 H 0.24264 0.15193 0.5078 0.0
H4040 H 0.87434 0.18372 0.48451 0.0
H4041 H 0.86976 0.18976 0.50616 0.0
H4042 H 0.84722 0.12756 0.51066 0.0
H4043 H 0.85168 0.12148 0.48914 0.0
H4044 H 0.82302 0.13933 0.51913 0.0
H4045 H 0.89402 0.16444 0.52349 0.0
H4046 H 0.92887 0.18571 0.51901 0.0
H4047 H 0.92617 0.23816 0.53045 0.0
H4048 H 0.8912 0.21719 0.53483 0.0
H4049 H 0.82332 0.13799 0.58378 0.0
H4050 H 0.83156 0.13662 0.56253 0.0
H4051 H 0.84865 0.19847 0.56138 0.0
H4052 H 0.84074 0.20004 0.58276 0.0
H4053 H 0.87541 0.18927 0.55104 0.0
H4054 H 0.80486 0.16406 0.54742 0.0
H4055 H 0.77009 0.14274 0.55202 0.0
H4056 H 0.77204 0.09042 0.53912 0.0
H4057 H 0.80694 0.11143 0.53461 0.0
C4058 C 0.86868 0.17143 0.49019 0.0
C4059 C 0.86319 0.15209 0.4851 0.0
C4060 C 0.86606 0.17488 0.50255 0.0
C4061 C 0.85813 0.1591 0.51004 0.0
C4062 C 0.8532 0.13994 0.50504 0.0
C4063 C 0.85572 0.13648 0.49273 0.0
C4064 C 0.85403 0.16213 0.52293 0.0
C4065 C 0.83456 0.1501 0.52613 0.0
C4066 C 0.8689 0.17662 0.53198 0.0
C4067 C 0.88992 0.18924 0.52935 0.0
C4068 C 0.9008 0.18051 0.52494 0.0
C4069 C 0.92059 0.19251 0.52245 0.0
C4070 C 0.92971 0.21328 0.52441 0.0
C4071 C 0.91908 0.22208 0.52891 0.0
C4072 C 0.89928 0.21014 0.53141 0.0
C4073 C 0.82901 0.15135 0.57905 0.0
C4074 C 0.83131 0.1691 0.58494 0.0
C4075 C 0.83359 0.15052 0.56688 0.0
C4076 C 0.84053 0.1674 0.56034 0.0
C4077 C 0.84325 0.18526 0.56626 0.0
C4078 C 0.83857 0.18608 0.57843 0.0
C4079 C 0.84455 0.16616 0.54724 0.0
C4080 C 0.8639 0.17857 0.544 0.0
C4081 C 0.82959 0.152 0.53812 0.0
C4082 C 0.80858 0.13932 0.54078 0.0
C4083 C 0.79793 0.148 0.54566 0.0
C4084 C 0.77819 0.13597 0.54823 0.0
C4085 C 0.76888 0.11523 0.54589 0.0
C4086 C 0.77928 0.10648 0.54094 0.0
C4087 C 0.79904 0.11845 0.53836 0.0
H4088 H 0.75359 0.10595 0.54788 0.0
H4089 H 0.94504 0.22255 0.52247 0.0
H4090 H 0.83337 0.70319 0.48646 0.0
H4091 H 0.8287 0.69173 0.50701 0.0
H4092 H 0.89249 0.72297 0.51645 0.0
H4093 H 0.89746 0.73566 0.49612 0.0
H4094 H 0.8658 0.67827 0.52231 0.0
H4095 H 0.87609 0.74537 0.5285 0.0
H4096 H 0.8694 0.77212 0.52329 0.0
H4097 H 0.80763 0.73515 0.52894 0.0
H4098 H 0.81391 0.70805 0.53398 0.0
H4099 H 0.86261 0.66646 0.5865 0.0
H4100 H 0.8711 0.67908 0.5664 0.0
H4101 H 0.81358 0.67497 0.55999 0.0
H4102 H 0.80553 0.66335 0.58038 0.0
H4103 H 0.83907 0.70716 0.55246 0.0
H4104 H 0.82638 0.64021 0.54575 0.0
H4105 H 0.83006 0.61117 0.54964 0.0
H4106 H 0.89208 0.64425 0.54362 0.0
H4107 H 0.88883 0.67359 0.53985 0.0
C4108 C 0.84649 0.70794 0.4929 0.0
C4109 C 0.86583 0.72068 0.48959 0.0
C4110 C 0.84375 0.70115 0.50462 0.0
C4111 C 0.86024 0.70658 0.51323 0.0
C4112 C 0.87958 0.71859 0.50988 0.0
C4113 C 0.88236 0.72573 0.49821 0.0
C4114 C 0.85704 0.70023 0.52587 0.0
C4115 C 0.86029 0.68476 0.52902 0.0
C4116 C 0.84919 0.70828 0.53439 0.0
C4117 C 0.84543 0.72462 0.53149 0.0
C4118 C 0.86105 0.74288 0.52851 0.0
C4119 C 0.85733 0.75812 0.52561 0.0
C4120 C 0.83809 0.75532 0.52575 0.0
C4121 C 0.82253 0.73729 0.52882 0.0
C4122 C 0.82616 0.72199 0.53171 0.0
C4123 C 0.85177 0.66821 0.58078 0.0
C4124 C 0.83342 0.66394 0.58504 0.0
C4125 C 0.85659 0.67533 0.56923 0.0
C4126 C 0.84287 0.6777 0.56149 0.0
C4127 C 0.82448 0.67335 0.56575 0.0
C4128 C 0.81986 0.66667 0.57741 0.0
C4129 C 0.84773 0.68497 0.54907 0.0
C4130 C 0.84472 0.70064 0.54588 0.0
C4131 C 0.85541 0.67677 0.54041 0.0
C4132 C 0.85741 0.65916 0.54265 0.0
C4133 C 0.84084 0.64134 0.54535 0.0
C4134 C 0.84284 0.62482 0.54751 0.0
C4135 C 0.8613 0.62588 0.54691 0.0
C4136 C 0.87779 0.64346 0.5441 0.0
C4137 C 0.87588 0.66003 0.54194 0.0
H4138 H 0.86282 0.61308 0.54859 0.0
H4139 H 0.83524 0.76714 0.52351 0.0
loop_
_geom_bond_atom_site_label_1
_geom_bond_atom_site_label_2
_geom_bond_distance
_geom_bond_site_symmetry_2
_ccdc_geom_bond_type
C0 C1 1.391 . S
C0 C4 1.391 . S
C0 H42 0.948 . S
C1 C0 1.391 . S
C1 C2 1.391 . S
C2 C1 1.391 . S
C2 H58 0.947 . S
C2 C59 1.392 . S
C3 C4 1.391 . S
C3 C7 1.397 . S
C3 C59 1.419 . S
C4 C0 1.391 . S
C4 C3 1.391 . S
C4 C5 1.399 . S
C5 C4 1.399 . S
C5 C8 1.396 . S
C5 C17 1.453 . S
C5 C18 1.684 . S
H6 C30 0.948 . S
C7 C3 1.397 . S
C7 C8 1.394 . S
C7 C26 1.723 . S
C8 C5 1.396 . S
C8 C7 1.394 . S
C8 C38 1.723 . S
H9 C32 0.947 . S
H10 C33 0.948 . S
H11 C39 0.982 . S
H12 C40 0.979 . S
H13 C40 0.980 . S
H14 C40 0.983 . S
H15 C39 0.979 . S
H16 C39 0.977 . S
C17 C5 1.453 . S
C17 H46 0.982 . S
C17 H47 0.979 . S
C17 H48 0.977 . S
C18 C5 1.684 . S
C18 H43 0.979 . S
C18 H44 0.980 . S
C18 H45 0.983 . S
C19 C20 1.391 . S
C19 C24 1.391 . S
C19 H49 0.948 . S
C20 C19 1.391 . S
C20 C21 1.391 . S
C21 C20 1.391 . S
C21 C22 1.392 . S
C21 H50 0.947 . S
C22 C21 1.392 . S
C22 C23 1.419 . S
C22 H51 0.948 . S
C23 C22 1.419 . S
C23 C24 1.391 . S
C23 C27 1.397 . S
C24 C19 1.391 . S
C24 C23 1.391 . S
C24 C25 1.399 . S
C25 C24 1.399 . S
C25 C26 1.396 . S
C25 C28 1.453 . S
C25 C29 1.684 . S
C26 C7 1.723 . S
C26 C25 1.396 . S
C26 C27 1.394 . S
C27 C23 1.397 . S
C27 C26 1.394 . S
C27 C37 1.723 . S
C28 C25 1.453 . S
C28 H52 0.982 . S
C28 H53 0.979 . S
C28 H54 0.977 . S
C29 C25 1.684 . S
C29 H55 0.979 . S
C29 H56 0.980 . S
C29 H57 0.983 . S
C30 H6 0.948 . S
C30 C31 1.391 . S
C30 C35 1.391 . S
C31 C30 1.391 . S
C31 C32 1.391 . S
C32 H9 0.947 . S
C32 C31 1.391 . S
C32 C33 1.392 . S
C33 H10 0.948 . S
C33 C32 1.392 . S
C33 C34 1.419 . S
C34 C33 1.419 . S
C34 C35 1.391 . S
C34 C38 1.397 . S
C35 C30 1.391 . S
C35 C34 1.391 . S
C35 C36 1.399 . S
C36 C35 1.399 . S
C36 C37 1.396 . S
C36 C39 1.453 . S
C36 C40 1.684 . S
C37 C27 1.723 . S
C37 C36 1.396 . S
C37 C38 1.394 . S
C38 C8 1.723 . S
C38 C34 1.397 . S
C38 C37 1.394 . S
C39 H11 0.982 . S
C39 H15 0.979 . S
C39 H16 0.977 . S
C39 C36 1.453 . S
C40 H12 0.979 . S
C40 H13 0.980 . S
C40 H14 0.983 . S
C40 C36 1.684 . S
H41 C59 0.948 . S
H42 C0 0.948 . S
H43 C18 0.979 . S
H44 C18 0.980 . S
H45 C18 0.983 . S
H46 C17 0.982 . S
H47 C17 0.979 . S
H48 C17 0.977 . S
H49 C19 0.948 . S
H50 C21 0.947 . S
H51 C22 0.948 . S
H52 C28 0.982 . S
H53 C28 0.979 . S
H54 C28 0.977 . S
H55 C29 0.979 . S
H56 C29 0.980 . S
H57 C29 0.983 . S
H58 C2 0.947 . S
C59 C2 1.392 . S
C59 C3 1.419 . S
C59 H41 0.948 . S
C60 C61 1.391 . S
C60 C64 1.391 . S
C60 H102 0.948 . S
C61 C60 1.391 . S
C61 C62 1.391 . S
C62 C61 1.391 . S
C62 H118 0.947 . S
C62 C119 1.392 . S
C63 C64 1.391 . S
C63 C67 1.397 . S
C63 C119 1.419 . S
C64 C60 1.391 . S
C64 C63 1.391 . S
C64 C65 1.399 . S
C65 C64 1.399 . S
C65 C68 1.396 . S
C65 C77 1.453 . S
C65 C78 1.684 . S
H66 C90 0.948 . S
C67 C63 1.397 . S
C67 C68 1.394 . S
C67 C86 1.723 . S
C68 C65 1.396 . S
C68 C67 1.394 . S
C68 C98 1.723 . S
H69 C92 0.947 . S
H70 C93 0.948 . S
H71 C99 0.982 . S
H72 C100 0.979 . S
H73 C100 0.980 . S
H74 C100 0.983 . S
H75 C99 0.979 . S
H76 C99 0.977 . S
C77 C65 1.453 . S
C77 H106 0.982 . S
C77 H107 0.979 . S
C77 H108 0.977 . S
C78 C65 1.684 . S
C78 H103 0.979 . S
C78 H104 0.980 . S
C78 H105 0.983 . S
C79 C80 1.391 . S
C79 C84 1.391 . S
C79 H109 0.948 . S
C80 C79 1.391 . S
C80 C81 1.391 . S
C81 C80 1.391 . S
C81 C82 1.392 . S
C81 H110 0.947 . S
C82 C81 1.392 . S
C82 C83 1.419 . S
C82 H111 0.948 . S
C83 C82 1.419 . S
C83 C84 1.391 . S
C83 C87 1.397 . S
C84 C79 1.391 . S
C84 C83 1.391 . S
C84 C85 1.399 . S
C85 C84 1.399 . S
C85 C86 1.396 . S
C85 C88 1.453 . S
C85 C89 1.684 . S
C86 C67 1.723 . S
C86 C85 1.396 . S
C86 C87 1.394 . S
C87 C83 1.397 . S
C87 C86 1.394 . S
C87 C97 1.723 . S
C88 C85 1.453 . S
C88 H112 0.982 . S
C88 H113 0.979 . S
C88 H114 0.977 . S
C89 C85 1.684 . S
C89 H115 0.979 . S
C89 H116 0.980 . S
C89 H117 0.983 . S
C90 H66 0.948 . S
C90 C91 1.391 . S
C90 C95 1.391 . S
C91 C90 1.391 . S
C91 C92 1.391 . S
C92 H69 0.947 . S
C92 C91 1.391 . S
C92 C93 1.392 . S
C93 H70 0.948 . S
C93 C92 1.392 . S
C93 C94 1.419 . S
C94 C93 1.419 . S
C94 C95 1.391 . S
C94 C98 1.397 . S
C95 C90 1.391 . S
C95 C94 1.391 . S
C95 C96 1.399 . S
C96 C95 1.399 . S
C96 C97 1.396 . S
C96 C99 1.453 . S
C96 C100 1.684 . S
C97 C87 1.723 . S
C97 C96 1.396 . S
C97 C98 1.394 . S
C98 C68 1.723 . S
C98 C94 1.397 . S
C98 C97 1.394 . S
C99 H71 0.982 . S
C99 H75 0.979 . S
C99 H76 0.977 . S
C99 C96 1.453 . S
C100 H72 0.979 . S
C100 H73 0.980 . S
C100 H74 0.983 . S
C100 C96 1.684 . S
H101 C119 0.948 . S
H102 C60 0.948 . S
H103 C78 0.979 . S
H104 C78 0.980 . S
H105 C78 0.983 . S
H106 C77 0.982 . S
H107 C77 0.979 . S
H108 C77 0.977 . S
H109 C79 0.948 . S
H110 C81 0.947 . S
H111 C82 0.948 . S
H112 C88 0.982 . S
H113 C88 0.979 . S
H114 C88 0.977 . S
H115 C89 0.979 . S
H116 C89 0.980 . S
H117 C89 0.983 . S
H118 C62 0.947 . S
C119 C62 1.392 . S
C119 C63 1.419 . S
C119 H101 0.948 . S
C120 C121 1.391 . S
C120 C124 1.391 . S
C120 H162 0.948 . S
C121 C120 1.391 . S
C121 C122 1.391 . S
C122 C121 1.391 . S
C122 H178 0.947 . S
C122 C179 1.392 . S
C123 C124 1.391 . S
C123 C127 1.397 . S
C123 C179 1.419 . S
C124 C120 1.391 . S
C124 C123 1.391 . S
C124 C125 1.399 . S
C125 C124 1.399 . S
C125 C128 1.396 . S
C125 C137 1.453 . S
C125 C138 1.684 . S
H126 C150 0.948 . S
C127 C123 1.397 . S
C127 C128 1.394 . S
C127 C146 1.723 . S
C128 C125 1.396 . S
C128 C127 1.394 . S
C128 C158 1.723 . S
H129 C152 0.947 . S
H130 C153 0.948 . S
H131 C159 0.982 . S
H132 C160 0.979 . S
H133 C160 0.980 . S
H134 C160 0.983 . S
H135 C159 0.979 . S
H136 C159 0.977 . S
C137 C125 1.453 . S
C137 H166 0.982 . S
C137 H167 0.979 . S
C137 H168 0.977 . S
C138 C125 1.684 . S
C138 H163 0.979 . S
C138 H164 0.980 . S
C138 H165 0.983 . S
C139 C140 1.391 . S
C139 C144 1.391 . S
C139 H169 0.948 . S
C140 C139 1.391 . S
C140 C141 1.391 . S
C141 C140 1.391 . S
C141 C142 1.392 . S
C141 H170 0.947 . S
C142 C141 1.392 . S
C142 C143 1.419 . S
C142 H171 0.948 . S
C143 C142 1.419 . S
C143 C144 1.391 . S
C143 C147 1.397 . S
C144 C139 1.391 . S
C144 C143 1.391 . S
C144 C145 1.399 . S
C145 C144 1.399 . S
C145 C146 1.396 . S
C145 C148 1.453 . S
C145 C149 1.684 . S
C146 C127 1.723 . S
C146 C145 1.396 . S
C146 C147 1.394 . S
C147 C143 1.397 . S
C147 C146 1.394 . S
C147 C157 1.723 . S
C148 C145 1.453 . S
C148 H172 0.982 . S
C148 H173 0.979 . S
C148 H174 0.977 . S
C149 C145 1.684 . S
C149 H175 0.979 . S
C149 H176 0.980 . S
C149 H177 0.983 . S
C150 H126 0.948 . S
C150 C151 1.391 . S
C150 C155 1.391 . S
C151 C150 1.391 . S
C151 C152 1.391 . S
C152 H129 0.947 . S
C152 C151 1.391 . S
C152 C153 1.392 . S
C153 H130 0.948 . S
C153 C152 1.392 . S
C153 C154 1.419 . S
C154 C153 1.419 . S
C154 C155 1.391 . S
C154 C158 1.397 . S
C155 C150 1.391 . S
C155 C154 1.391 . S
C155 C156 1.399 . S
C156 C155 1.399 . S
C156 C157 1.396 . S
C156 C159 1.453 . S
C156 C160 1.684 . S
C157 C147 1.723 . S
C157 C156 1.396 . S
C157 C158 1.394 . S
C158 C128 1.723 . S
C158 C154 1.397 . S
C158 C157 1.394 . S
C159 H131 0.982 . S
C159 H135 0.979 . S
C159 H136 0.977 . S
C159 C156 1.453 . S
C160 H132 0.979 . S
C160 H133 0.980 . S
C160 H134 0.983 . S
C160 C156 1.684 . S
H161 C179 0.948 . S
H162 C120 0.948 . S
H163 C138 0.979 . S
H164 C138 0.980 . S
H165 C138 0.983 . S
H166 C137 0.982 . S
H167 C137 0.979 . S
H168 C137 0.977 . S
H169 C139 0.948 . S
H170 C141 0.947 . S
H171 C142 0.948 . S
H172 C148 0.982 . S
H173 C148 0.979 . S
H174 C148 0.977 . S
H175 C149 0.979 . S
H176 C149 0.980 . S
H177 C149 0.983 . S
H178 C122 0.947 . S
C179 C122 1.392 . S
C179 C123 1.419 . S
C179 H161 0.948 . S
C180 C181 1.391 . S
C180 C184 1.391 . S
C180 H222 0.948 . S
C181 C180 1.391 . S
C181 C182 1.391 . S
C182 C181 1.391 . S
C182 H238 0.947 . S
C182 C239 1.392 . S
C183 C184 1.391 . S
C183 C187 1.397 . S
C183 C239 1.419 . S
C184 C180 1.391 . S
C184 C183 1.391 . S
C184 C185 1.399 . S
C185 C184 1.399 . S
C185 C188 1.396 . S
C185 C197 1.453 . S
C185 C198 1.684 . S
H186 C210 0.948 . S
C187 C183 1.397 . S
C187 C188 1.394 . S
C187 C206 1.723 . S
C188 C185 1.396 . S
C188 C187 1.394 . S
C188 C218 1.723 . S
H189 C212 0.947 . S
H190 C213 0.948 . S
H191 C219 0.982 . S
H192 C220 0.979 . S
H193 C220 0.980 . S
H194 C220 0.983 . S
H195 C219 0.979 . S
H196 C219 0.977 . S
C197 C185 1.453 . S
C197 H226 0.982 . S
C197 H227 0.979 . S
C197 H228 0.977 . S
C198 C185 1.684 . S
C198 H223 0.979 . S
C198 H224 0.980 . S
C198 H225 0.983 . S
C199 C200 1.391 . S
C199 C204 1.391 . S
C199 H229 0.948 . S
C200 C199 1.391 . S
C200 C201 1.391 . S
C201 C200 1.391 . S
C201 C202 1.392 . S
C201 H230 0.947 . S
C202 C201 1.392 . S
C202 C203 1.419 . S
C202 H231 0.948 . S
C203 C202 1.419 . S
C203 C204 1.391 . S
C203 C207 1.397 . S
C204 C199 1.391 . S
C204 C203 1.391 . S
C204 C205 1.399 . S
C205 C204 1.399 . S
C205 C206 1.396 . S
C205 C208 1.453 . S
C205 C209 1.684 . S
C206 C187 1.723 . S
C206 C205 1.396 . S
C206 C207 1.394 . S
C207 C203 1.397 . S
C207 C206 1.394 . S
C207 C217 1.723 . S
C208 C205 1.453 . S
C208 H232 0.982 . S
C208 H233 0.979 . S
C208 H234 0.977 . S
C209 C205 1.684 . S
C209 H235 0.979 . S
C209 H236 0.980 . S
C209 H237 0.983 . S
C210 H186 0.948 . S
C210 C211 1.391 . S
C210 C215 1.391 . S
C211 C210 1.391 . S
C211 C212 1.391 . S
C212 H189 0.947 . S
C212 C211 1.391 . S
C212 C213 1.392 . S
C213 H190 0.948 . S
C213 C212 1.392 . S
C213 C214 1.419 . S
C214 C213 1.419 . S
C214 C215 1.391 . S
C214 C218 1.397 . S
C215 C210 1.391 . S
C215 C214 1.391 . S
C215 C216 1.399 . S
C216 C215 1.399 . S
C216 C217 1.396 . S
C216 C219 1.453 . S
C216 C220 1.684 . S
C217 C207 1.723 . S
C217 C216 1.396 . S
C217 C218 1.394 . S
C218 C188 1.723 . S
C218 C214 1.397 . S
C218 C217 1.394 . S
C219 H191 0.982 . S
C219 H195 0.979 . S
C219 H196 0.977 . S
C219 C216 1.453 . S
C220 H192 0.979 . S
C220 H193 0.980 . S
C220 H194 0.983 . S
C220 C216 1.684 . S
H221 C239 0.948 . S
H222 C180 0.948 . S
H223 C198 0.979 . S
H224 C198 0.980 . S
H225 C198 0.983 . S
H226 C197 0.982 . S
H227 C197 0.979 . S
H228 C197 0.977 . S
H229 C199 0.948 . S
H230 C201 0.947 . S
H231 C202 0.948 . S
H232 C208 0.982 . S
H233 C208 0.979 . S
H234 C208 0.977 . S
H235 C209 0.979 . S
H236 C209 0.980 . S
H237 C209 0.983 . S
H238 C182 0.947 . S
C239 C182 1.392 . S
C239 C183 1.419 . S
C239 H221 0.948 . S
C240 C241 1.391 . S
C240 C244 1.391 . S
C240 H282 0.948 . S
C241 C240 1.391 . S
C241 C242 1.391 . S
C242 C241 1.391 . S
C242 H298 0.947 . S
C242 C299 1.392 . S
C243 C244 1.391 . S
C243 C247 1.397 . S
C243 C299 1.419 . S
C244 C240 1.391 . S
C244 C243 1.391 . S
C244 C245 1.399 . S
C245 C244 1.399 . S
C245 C248 1.396 . S
C245 C257 1.453 . S
C245 C258 1.684 . S
H246 C270 0.948 . S
C247 C243 1.397 . S
C247 C248 1.394 . S
C247 C266 1.723 . S
C248 C245 1.396 . S
C248 C247 1.394 . S
C248 C278 1.723 . S
H249 C272 0.947 . S
H250 C273 0.948 . S
H251 C279 0.982 . S
H252 C280 0.979 . S
H253 C280 0.980 . S
H254 C280 0.983 . S
H255 C279 0.979 . S
H256 C279 0.977 . S
C257 C245 1.453 . S
C257 H286 0.982 . S
C257 H287 0.979 . S
C257 H288 0.977 . S
C258 C245 1.684 . S
C258 H283 0.979 . S
C258 H284 0.980 . S
C258 H285 0.983 . S
C259 C260 1.391 . S
C259 C264 1.391 . S
C259 H289 0.948 . S
C260 C259 1.391 . S
C260 C261 1.391 . S
C261 C260 1.391 . S
C261 C262 1.392 . S
C261 H290 0.947 . S
C262 C261 1.392 . S
C262 C263 1.419 . S
C262 H291 0.948 . S
C263 C262 1.419 . S
C263 C264 1.391 . S
C263 C267 1.397 . S
C264 C259 1.391 . S
C264 C263 1.391 . S
C264 C265 1.399 . S
C265 C264 1.399 . S
C265 C266 1.396 . S
C265 C268 1.453 . S
C265 C269 1.684 . S
C266 C247 1.723 . S
C266 C265 1.396 . S
C266 C267 1.394 . S
C267 C263 1.397 . S
C267 C266 1.394 . S
C267 C277 1.723 . S
C268 C265 1.453 . S
C268 H292 0.982 . S
C268 H293 0.979 . S
C268 H294 0.977 . S
C269 C265 1.684 . S
C269 H295 0.979 . S
C269 H296 0.980 . S
C269 H297 0.983 . S
C270 H246 0.948 . S
C270 C271 1.391 . S
C270 C275 1.391 . S
C271 C270 1.391 . S
C271 C272 1.391 . S
C272 H249 0.947 . S
C272 C271 1.391 . S
C272 C273 1.392 . S
C273 H250 0.948 . S
C273 C272 1.392 . S
C273 C274 1.419 . S
C274 C273 1.419 . S
C274 C275 1.391 . S
C274 C278 1.397 . S
C275 C270 1.391 . S
C275 C274 1.391 . S
C275 C276 1.399 . S
C276 C275 1.399 . S
C276 C277 1.396 . S
C276 C279 1.453 . S
C276 C280 1.684 . S
C277 C267 1.723 . S
C277 C276 1.396 . S
C277 C278 1.394 . S
C278 C248 1.723 . S
C278 C274 1.397 . S
C278 C277 1.394 . S
C279 H251 0.982 . S
C279 H255 0.979 . S
C279 H256 0.977 . S
C279 C276 1.453 . S
C280 H252 0.979 . S
C280 H253 0.980 . S
C280 H254 0.983 . S
C280 C276 1.684 . S
H281 C299 0.948 . S
H282 C240 0.948 . S
H283 C258 0.979 . S
H284 C258 0.980 . S
H285 C258 0.983 . S
H286 C257 0.982 . S
H287 C257 0.979 . S
H288 C257 0.977 . S
H289 C259 0.948 . S
H290 C261 0.947 . S
H291 C262 0.948 . S
H292 C268 0.982 . S
H293 C268 0.979 . S
H294 C268 0.977 . S
H295 C269 0.979 . S
H296 C269 0.980 . S
H297 C269 0.983 . S
H298 C242 0.947 . S
C299 C242 1.392 . S
C299 C243 1.419 . S
C299 H281 0.948 . S
C300 C301 1.391 . S
C300 C304 1.391 . S
C300 H342 0.948 . S
C301 C300 1.391 . S
C301 C302 1.391 . S
C302 C301 1.391 . S
C302 H358 0.947 . S
C302 C359 1.392 . S
C303 C304 1.391 . S
C303 C307 1.397 . S
C303 C359 1.419 . S
C304 C300 1.391 . S
C304 C303 1.391 . S
C304 C305 1.399 . S
C305 C304 1.399 . S
C305 C308 1.396 . S
C305 C317 1.453 . S
C305 C318 1.684 . S
H306 C330 0.948 . S
C307 C303 1.397 . S
C307 C308 1.394 . S
C307 C326 1.723 . S
C308 C305 1.396 . S
C308 C307 1.394 . S
C308 C338 1.723 . S
H309 C332 0.947 . S
H310 C333 0.948 . S
H311 C339 0.982 . S
H312 C340 0.979 . S
H313 C340 0.980 . S
H314 C340 0.983 . S
H315 C339 0.979 . S
H316 C339 0.977 . S
C317 C305 1.453 . S
C317 H346 0.982 . S
C317 H347 0.979 . S
C317 H348 0.977 . S
C318 C305 1.684 . S
C318 H343 0.979 . S
C318 H344 0.980 . S
C318 H345 0.983 . S
C319 C320 1.391 . S
C319 C324 1.391 . S
C319 H349 0.948 . S
C320 C319 1.391 . S
C320 C321 1.391 . S
C321 C320 1.391 . S
C321 C322 1.392 . S
C321 H350 0.947 . S
C322 C321 1.392 . S
C322 C323 1.419 . S
C322 H351 0.948 . S
C323 C322 1.419 . S
C323 C324 1.391 . S
C323 C327 1.397 . S
C324 C319 1.391 . S
C324 C323 1.391 . S
C324 C325 1.399 . S
C325 C324 1.399 . S
C325 C326 1.396 . S
C325 C328 1.453 . S
C325 C329 1.684 . S
C326 C307 1.723 . S
C326 C325 1.396 . S
C326 C327 1.394 . S
C327 C323 1.397 . S
C327 C326 1.394 . S
C327 C337 1.723 . S
C328 C325 1.453 . S
C328 H352 0.982 . S
C328 H353 0.979 . S
C328 H354 0.977 . S
C329 C325 1.684 . S
C329 H355 0.979 . S
C329 H356 0.980 . S
C329 H357 0.983 . S
C330 H306 0.948 . S
C330 C331 1.391 . S
C330 C335 1.391 . S
C331 C330 1.391 . S
C331 C332 1.391 . S
C332 H309 0.947 . S
C332 C331 1.391 . S
C332 C333 1.392 . S
C333 H310 0.948 . S
C333 C332 1.392 . S
C333 C334 1.419 . S
C334 C333 1.419 . S
C334 C335 1.391 . S
C334 C338 1.397 . S
C335 C330 1.391 . S
C335 C334 1.391 . S
C335 C336 1.399 . S
C336 C335 1.399 . S
C336 C337 1.396 . S
C336 C339 1.453 . S
C336 C340 1.684 . S
C337 C327 1.723 . S
C337 C336 1.396 . S
C337 C338 1.394 . S
C338 C308 1.723 . S
C338 C334 1.397 . S
C338 C337 1.394 . S
C339 H311 0.982 . S
C339 H315 0.979 . S
C339 H316 0.977 . S
C339 C336 1.453 . S
C340 H312 0.979 . S
C340 H313 0.980 . S
C340 H314 0.983 . S
C340 C336 1.684 . S
H341 C359 0.948 . S
H342 C300 0.948 . S
H343 C318 0.979 . S
H344 C318 0.980 . S
H345 C318 0.983 . S
H346 C317 0.982 . S
H347 C317 0.979 . S
H348 C317 0.977 . S
H349 C319 0.948 . S
H350 C321 0.947 . S
H351 C322 0.948 . S
H352 C328 0.982 . S
H353 C328 0.979 . S
H354 C328 0.977 . S
H355 C329 0.979 . S
H356 C329 0.980 . S
H357 C329 0.983 . S
H358 C302 0.947 . S
C359 C302 1.392 . S
C359 C303 1.419 . S
C359 H341 0.948 . S
C360 C361 1.391 . S
C360 C364 1.391 . S
C360 H402 0.948 . S
C361 C360 1.391 . S
C361 C362 1.391 . S
C362 C361 1.391 . S
C362 H418 0.947 . S
C362 C419 1.392 . S
C363 C364 1.391 . S
C363 C367 1.397 . S
C363 C419 1.419 . S
C364 C360 1.391 . S
C364 C363 1.391 . S
C364 C365 1.399 . S
C365 C364 1.399 . S
C365 C368 1.396 . S
C365 C377 1.453 . S
C365 C378 1.684 . S
H366 C390 0.948 . S
C367 C363 1.397 . S
C367 C368 1.394 . S
C367 C386 1.723 . S
C368 C365 1.396 . S
C368 C367 1.394 . S
C368 C398 1.723 . S
H369 C392 0.947 . S
H370 C393 0.948 . S
H371 C399 0.982 . S
H372 C400 0.979 . S
H373 C400 0.980 . S
H374 C400 0.983 . S
H375 C399 0.979 . S
H376 C399 0.977 . S
C377 C365 1.453 . S
C377 H406 0.982 . S
C377 H407 0.979 . S
C377 H408 0.977 . S
C378 C365 1.684 . S
C378 H403 0.979 . S
C378 H404 0.980 . S
C378 H405 0.983 . S
C379 C380 1.391 . S
C379 C384 1.391 . S
C379 H409 0.948 . S
C380 C379 1.391 . S
C380 C381 1.391 . S
C381 C380 1.391 . S
C381 C382 1.392 . S
C381 H410 0.947 . S
C382 C381 1.392 . S
C382 C383 1.419 . S
C382 H411 0.948 . S
C383 C382 1.419 . S
C383 C384 1.391 . S
C383 C387 1.397 . S
C384 C379 1.391 . S
C384 C383 1.391 . S
C384 C385 1.399 . S
C385 C384 1.399 . S
C385 C386 1.396 . S
C385 C388 1.453 . S
C385 C389 1.684 . S
C386 C367 1.723 . S
C386 C385 1.396 . S
C386 C387 1.394 . S
C387 C383 1.397 . S
C387 C386 1.394 . S
C387 C397 1.723 . S
C388 C385 1.453 . S
C388 H412 0.982 . S
C388 H413 0.979 . S
C388 H414 0.977 . S
C389 C385 1.684 . S
C389 H415 0.979 . S
C389 H416 0.980 . S
C389 H417 0.983 . S
C390 H366 0.948 . S
C390 C391 1.391 . S
C390 C395 1.391 . S
C391 C390 1.391 . S
C391 C392 1.391 . S
C392 H369 0.947 . S
C392 C391 1.391 . S
C392 C393 1.392 . S
C393 H370 0.948 . S
C393 C392 1.392 . S
C393 C394 1.419 . S
C394 C393 1.419 . S
C394 C395 1.391 . S
C394 C398 1.397 . S
C395 C390 1.391 . S
C395 C394 1.391 . S
C395 C396 1.399 . S
C396 C395 1.399 . S
C396 C397 1.396 . S
C396 C399 1.453 . S
C396 C400 1.684 . S
C397 C387 1.723 . S
C397 C396 1.396 . S
C397 C398 1.394 . S
C398 C368 1.723 . S
C398 C394 1.397 . S
C398 C397 1.394 . S
C399 H371 0.982 . S
C399 H375 0.979 . S
C399 H376 0.977 . S
C399 C396 1.453 . S
C400 H372 0.979 . S
C400 H373 0.980 . S
C400 H374 0.983 . S
C400 C396 1.684 . S
H401 C419 0.948 . S
H402 C360 0.948 . S
H403 C378 0.979 . S
H404 C378 0.980 . S
H405 C378 0.983 . S
H406 C377 0.982 . S
H407 C377 0.979 . S
H408 C377 0.977 . S
H409 C379 0.948 . S
H410 C381 0.947 . S
H411 C382 0.948 . S
H412 C388 0.982 . S
H413 C388 0.979 . S
H414 C388 0.977 . S
H415 C389 0.979 . S
H416 C389 0.980 . S
H417 C389 0.983 . S
H418 C362 0.947 . S
C419 C362 1.392 . S
C419 C363 1.419 . S
C419 H401 0.948 . S
C420 C421 1.391 . S
C420 C424 1.391 . S
C420 H462 0.948 . S
C421 C420 1.391 . S
C421 C422 1.391 . S
C422 C421 1.391 . S
C422 H478 0.947 . S
C422 C479 1.392 . S
C423 C424 1.391 . S
C423 C427 1.397 . S
C423 C479 1.419 . S
C424 C420 1.391 . S
C424 C423 1.391 . S
C424 C425 1.399 . S
C425 C424 1.399 . S
C425 C428 1.396 . S
C425 C437 1.453 . S
C425 C438 1.684 . S
H426 C450 0.948 . S
C427 C423 1.397 . S
C427 C428 1.394 . S
C427 C446 1.723 . S
C428 C425 1.396 . S
C428 C427 1.394 . S
C428 C458 1.723 . S
H429 C452 0.947 . S
H430 C453 0.948 . S
H431 C459 0.982 . S
H432 C460 0.979 . S
H433 C460 0.980 . S
H434 C460 0.983 . S
H435 C459 0.979 . S
H436 C459 0.977 . S
C437 C425 1.453 . S
C437 H466 0.982 . S
C437 H467 0.979 . S
C437 H468 0.977 . S
C438 C425 1.684 . S
C438 H463 0.979 . S
C438 H464 0.980 . S
C438 H465 0.983 . S
C439 C440 1.391 . S
C439 C444 1.391 . S
C439 H469 0.948 . S
C440 C439 1.391 . S
C440 C441 1.391 . S
C441 C440 1.391 . S
C441 C442 1.392 . S
C441 H470 0.947 . S
C442 C441 1.392 . S
C442 C443 1.419 . S
C442 H471 0.948 . S
C443 C442 1.419 . S
C443 C444 1.391 . S
C443 C447 1.397 . S
C444 C439 1.391 . S
C444 C443 1.391 . S
C444 C445 1.399 . S
C445 C444 1.399 . S
C445 C446 1.396 . S
C445 C448 1.453 . S
C445 C449 1.684 . S
C446 C427 1.723 . S
C446 C445 1.396 . S
C446 C447 1.394 . S
C447 C443 1.397 . S
C447 C446 1.394 . S
C447 C457 1.723 . S
C448 C445 1.453 . S
C448 H472 0.982 . S
C448 H473 0.979 . S
C448 H474 0.977 . S
C449 C445 1.684 . S
C449 H475 0.979 . S
C449 H476 0.980 . S
C449 H477 0.983 . S
C450 H426 0.948 . S
C450 C451 1.391 . S
C450 C455 1.391 . S
C451 C450 1.391 . S
C451 C452 1.391 . S
C452 H429 0.947 . S
C452 C451 1.391 . S
C452 C453 1.392 . S
C453 H430 0.948 . S
C453 C452 1.392 . S
C453 C454 1.419 . S
C454 C453 1.419 . S
C454 C455 1.391 . S
C454 C458 1.397 . S
C455 C450 1.391 . S
C455 C454 1.391 . S
C455 C456 1.399 . S
C456 C455 1.399 . S
C456 C457 1.396 . S
C456 C459 1.453 . S
C456 C460 1.684 . S
C457 C447 1.723 . S
C457 C456 1.396 . S
C457 C458 1.394 . S
C458 C428 1.723 . S
C458 C454 1.397 . S
C458 C457 1.394 . S
C459 H431 0.982 . S
C459 H435 0.979 . S
C459 H436 0.977 . S
C459 C456 1.453 . S
C460 H432 0.979 . S
C460 H433 0.980 . S
C460 H434 0.983 . S
C460 C456 1.684 . S
H461 C479 0.948 . S
H462 C420 0.948 . S
H463 C438 0.979 . S
H464 C438 0.980 . S
H465 C438 0.983 . S
H466 C437 0.982 . S
H467 C437 0.979 . S
H468 C437 0.977 . S
H469 C439 0.948 . S
H470 C441 0.947 . S
H471 C442 0.948 . S
H472 C448 0.982 . S
H473 C448 0.979 . S
H474 C448 0.977 . S
H475 C449 0.979 . S
H476 C449 0.980 . S
H477 C449 0.983 . S
H478 C422 0.947 . S
C479 C422 1.392 . S
C479 C423 1.419 . S
C479 H461 0.948 . S
C480 C481 1.391 . S
C480 C484 1.391 . S
C480 H522 0.948 . S
C481 C480 1.391 . S
C481 C482 1.391 . S
C482 C481 1.391 . S
C482 H538 0.947 . S
C482 C539 1.392 . S
C483 C484 1.391 . S
C483 C487 1.397 . S
C483 C539 1.419 . S
C484 C480 1.391 . S
C484 C483 1.391 . S
C484 C485 1.399 . S
C485 C484 1.399 . S
C485 C488 1.396 . S
C485 C497 1.453 . S
C485 C498 1.684 . S
H486 C510 0.948 . S
C487 C483 1.397 . S
C487 C488 1.394 . S
C487 C506 1.723 . S
C488 C485 1.396 . S
C488 C487 1.394 . S
C488 C518 1.723 . S
H489 C512 0.947 . S
H490 C513 0.948 . S
H491 C519 0.982 . S
H492 C520 0.979 . S
H493 C520 0.980 . S
H494 C520 0.983 . S
H495 C519 0.979 . S
H496 C519 0.977 . S
C497 C485 1.453 . S
C497 H526 0.982 . S
C497 H527 0.979 . S
C497 H528 0.977 . S
C498 C485 1.684 . S
C498 H523 0.979 . S
C498 H524 0.980 . S
C498 H525 0.983 . S
C499 C500 1.391 . S
C499 C504 1.391 . S
C499 H529 0.948 . S
C500 C499 1.391 . S
C500 C501 1.391 . S
C501 C500 1.391 . S
C501 C502 1.392 . S
C501 H530 0.947 . S
C502 C501 1.392 . S
C502 C503 1.419 . S
C502 H531 0.948 . S
C503 C502 1.419 . S
C503 C504 1.391 . S
C503 C507 1.397 . S
C504 C499 1.391 . S
C504 C503 1.391 . S
C504 C505 1.399 . S
C505 C504 1.399 . S
C505 C506 1.396 . S
C505 C508 1.453 . S
C505 C509 1.684 . S
C506 C487 1.723 . S
C506 C505 1.396 . S
C506 C507 1.394 . S
C507 C503 1.397 . S
C507 C506 1.394 . S
C507 C517 1.723 . S
C508 C505 1.453 . S
C508 H532 0.982 . S
C508 H533 0.979 . S
C508 H534 0.977 . S
C509 C505 1.684 . S
C509 H535 0.979 . S
C509 H536 0.980 . S
C509 H537 0.983 . S
C510 H486 0.948 . S
C510 C511 1.391 . S
C510 C515 1.391 . S
C511 C510 1.391 . S
C511 C512 1.391 . S
C512 H489 0.947 . S
C512 C511 1.391 . S
C512 C513 1.392 . S
C513 H490 0.948 . S
C513 C512 1.392 . S
C513 C514 1.419 . S
C514 C513 1.419 . S
C514 C515 1.391 . S
C514 C518 1.397 . S
C515 C510 1.391 . S
C515 C514 1.391 . S
C515 C516 1.399 . S
C516 C515 1.399 . S
C516 C517 1.396 . S
C516 C519 1.453 . S
C516 C520 1.684 . S
C517 C507 1.723 . S
C517 C516 1.396 . S
C517 C518 1.394 . S
C518 C488 1.723 . S
C518 C514 1.397 . S
C518 C517 1.394 . S
C519 H491 0.982 . S
C519 H495 0.979 . S
C519 H496 0.977 . S
C519 C516 1.453 . S
C520 H492 0.979 . S
C520 H493 0.980 . S
C520 H494 0.983 . S
C520 C516 1.684 . S
H521 C539 0.948 . S
H522 C480 0.948 . S
H523 C498 0.979 . S
H524 C498 0.980 . S
H525 C498 0.983 . S
H526 C497 0.982 . S
H527 C497 0.979 . S
H528 C497 0.977 . S
H529 C499 0.948 . S
H530 C501 0.947 . S
H531 C502 0.948 . S
H532 C508 0.982 . S
H533 C508 0.979 . S
H534 C508 0.977 . S
H535 C509 0.979 . S
H536 C509 0.980 . S
H537 C509 0.983 . S
H538 C482 0.947 . S
C539 C482 1.392 . S
C539 C483 1.419 . S
C539 H521 0.948 . S
C540 C541 1.391 . S
C540 C544 1.391 . S
C540 H582 0.948 . S
C541 C540 1.391 . S
C541 C542 1.391 . S
C542 C541 1.391 . S
C542 H598 0.947 . S
C542 C599 1.392 . S
C543 C544 1.391 . S
C543 C547 1.397 . S
C543 C599 1.419 . S
C544 C540 1.391 . S
C544 C543 1.391 . S
C544 C545 1.399 . S
C545 C544 1.399 . S
C545 C548 1.396 . S
C545 C557 1.453 . S
C545 C558 1.684 . S
H546 C570 0.948 . S
C547 C543 1.397 . S
C547 C548 1.394 . S
C547 C566 1.723 . S
C548 C545 1.396 . S
C548 C547 1.394 . S
C548 C578 1.723 . S
H549 C572 0.947 . S
H550 C573 0.948 . S
H551 C579 0.982 . S
H552 C580 0.979 . S
H553 C580 0.980 . S
H554 C580 0.983 . S
H555 C579 0.979 . S
H556 C579 0.977 . S
C557 C545 1.453 . S
C557 H586 0.982 . S
C557 H587 0.979 . S
C557 H588 0.977 . S
C558 C545 1.684 . S
C558 H583 0.979 . S
C558 H584 0.980 . S
C558 H585 0.983 . S
C559 C560 1.391 . S
C559 C564 1.391 . S
C559 H589 0.948 . S
C560 C559 1.391 . S
C560 C561 1.391 . S
C561 C560 1.391 . S
C561 C562 1.392 . S
C561 H590 0.947 . S
C562 C561 1.392 . S
C562 C563 1.419 . S
C562 H591 0.948 . S
C563 C562 1.419 . S
C563 C564 1.391 . S
C563 C567 1.397 . S
C564 C559 1.391 . S
C564 C563 1.391 . S
C564 C565 1.399 . S
C565 C564 1.399 . S
C565 C566 1.396 . S
C565 C568 1.453 . S
C565 C569 1.684 . S
C566 C547 1.723 . S
C566 C565 1.396 . S
C566 C567 1.394 . S
C567 C563 1.397 . S
C567 C566 1.394 . S
C567 C577 1.723 . S
C568 C565 1.453 . S
C568 H592 0.982 . S
C568 H593 0.979 . S
C568 H594 0.977 . S
C569 C565 1.684 . S
C569 H595 0.979 . S
C569 H596 0.980 . S
C569 H597 0.983 . S
C570 H546 0.948 . S
C570 C571 1.391 . S
C570 C575 1.391 . S
C571 C570 1.391 . S
C571 C572 1.391 . S
C572 H549 0.947 . S
C572 C571 1.391 . S
C572 C573 1.392 . S
C573 H550 0.948 . S
C573 C572 1.392 . S
C573 C574 1.419 . S
C574 C573 1.419 . S
C574 C575 1.391 . S
C574 C578 1.397 . S
C575 C570 1.391 . S
C575 C574 1.391 . S
C575 C576 1.399 . S
C576 C575 1.399 . S
C576 C577 1.396 . S
C576 C579 1.453 . S
C576 C580 1.684 . S
C577 C567 1.723 . S
C577 C576 1.396 . S
C577 C578 1.394 . S
C578 C548 1.723 . S
C578 C574 1.397 . S
C578 C577 1.394 . S
C579 H551 0.982 . S
C579 H555 0.979 . S
C579 H556 0.977 . S
C579 C576 1.453 . S
C580 H552 0.979 . S
C580 H553 0.980 . S
C580 H554 0.983 . S
C580 C576 1.684 . S
H581 C599 0.948 . S
H582 C540 0.948 . S
H583 C558 0.979 . S
H584 C558 0.980 . S
H585 C558 0.983 . S
H586 C557 0.982 . S
H587 C557 0.979 . S
H588 C557 0.977 . S
H589 C559 0.948 . S
H590 C561 0.947 . S
H591 C562 0.948 . S
H592 C568 0.982 . S
H593 C568 0.979 . S
H594 C568 0.977 . S
H595 C569 0.979 . S
H596 C569 0.980 . S
H597 C569 0.983 . S
H598 C542 0.947 . S
C599 C542 1.392 . S
C599 C543 1.419 . S
C599 H581 0.948 . S
C600 C601 1.391 . S
C600 C604 1.391 . S
C600 H642 0.948 . S
C601 C600 1.391 . S
C601 C602 1.391 . S
C602 C601 1.391 . S
C602 H658 0.947 . S
C602 C659 1.392 . S
C603 C604 1.391 . S
C603 C607 1.397 . S
C603 C659 1.419 . S
C604 C600 1.391 . S
C604 C603 1.391 . S
C604 C605 1.399 . S
C605 C604 1.399 . S
C605 C608 1.396 . S
C605 C617 1.453 . S
C605 C618 1.684 . S
H606 C630 0.948 . S
C607 C603 1.397 . S
C607 C608 1.394 . S
C607 C626 1.723 . S
C608 C605 1.396 . S
C608 C607 1.394 . S
C608 C638 1.723 . S
H609 C632 0.947 . S
H610 C633 0.948 . S
H611 C639 0.982 . S
H612 C640 0.979 . S
H613 C640 0.980 . S
H614 C640 0.983 . S
H615 C639 0.979 . S
H616 C639 0.977 . S
C617 C605 1.453 . S
C617 H646 0.982 . S
C617 H647 0.979 . S
C617 H648 0.977 . S
C618 C605 1.684 . S
C618 H643 0.979 . S
C618 H644 0.980 . S
C618 H645 0.983 . S
C619 C620 1.391 . S
C619 C624 1.391 . S
C619 H649 0.948 . S
C620 C619 1.391 . S
C620 C621 1.391 . S
C621 C620 1.391 . S
C621 C622 1.392 . S
C621 H650 0.947 . S
C622 C621 1.392 . S
C622 C623 1.419 . S
C622 H651 0.948 . S
C623 C622 1.419 . S
C623 C624 1.391 . S
C623 C627 1.397 . S
C624 C619 1.391 . S
C624 C623 1.391 . S
C624 C625 1.399 . S
C625 C624 1.399 . S
C625 C626 1.396 . S
C625 C628 1.453 . S
C625 C629 1.684 . S
C626 C607 1.723 . S
C626 C625 1.396 . S
C626 C627 1.394 . S
C627 C623 1.397 . S
C627 C626 1.394 . S
C627 C637 1.723 . S
C628 C625 1.453 . S
C628 H652 0.982 . S
C628 H653 0.979 . S
C628 H654 0.977 . S
C629 C625 1.684 . S
C629 H655 0.979 . S
C629 H656 0.980 . S
C629 H657 0.983 . S
C630 H606 0.948 . S
C630 C631 1.391 . S
C630 C635 1.391 . S
C631 C630 1.391 . S
C631 C632 1.391 . S
C632 H609 0.947 . S
C632 C631 1.391 . S
C632 C633 1.392 . S
C633 H610 0.948 . S
C633 C632 1.392 . S
C633 C634 1.419 . S
C634 C633 1.419 . S
C634 C635 1.391 . S
C634 C638 1.397 . S
C635 C630 1.391 . S
C635 C634 1.391 . S
C635 C636 1.399 . S
C636 C635 1.399 . S
C636 C637 1.396 . S
C636 C639 1.453 . S
C636 C640 1.684 . S
C637 C627 1.723 . S
C637 C636 1.396 . S
C637 C638 1.394 . S
C638 C608 1.723 . S
C638 C634 1.397 . S
C638 C637 1.394 . S
C639 H611 0.982 . S
C639 H615 0.979 . S
C639 H616 0.977 . S
C639 C636 1.453 . S
C640 H612 0.979 . S
C640 H613 0.980 . S
C640 H614 0.983 . S
C640 C636 1.684 . S
H641 C659 0.948 . S
H642 C600 0.948 . S
H643 C618 0.979 . S
H644 C618 0.980 . S
H645 C618 0.983 . S
H646 C617 0.982 . S
H647 C617 0.979 . S
H648 C617 0.977 . S
H649 C619 0.948 . S
H650 C621 0.947 . S
H651 C622 0.948 . S
H652 C628 0.982 . S
H653 C628 0.979 . S
H654 C628 0.977 . S
H655 C629 0.979 . S
H656 C629 0.980 . S
H657 C629 0.983 . S
H658 C602 0.947 . S
C659 C602 1.392 . S
C659 C603 1.419 . S
C659 H641 0.948 . S
C660 C661 1.391 . S
C660 C664 1.391 . S
C660 H702 0.948 . S
C661 C660 1.391 . S
C661 C662 1.391 . S
C662 C661 1.391 . S
C662 H718 0.947 . S
C662 C719 1.392 . S
C663 C664 1.391 . S
C663 C667 1.397 . S
C663 C719 1.419 . S
C664 C660 1.391 . S
C664 C663 1.391 . S
C664 C665 1.399 . S
C665 C664 1.399 . S
C665 C668 1.396 . S
C665 C677 1.453 . S
C665 C678 1.684 . S
H666 C690 0.948 . S
C667 C663 1.397 . S
C667 C668 1.394 . S
C667 C686 1.723 . S
C668 C665 1.396 . S
C668 C667 1.394 . S
C668 C698 1.723 . S
H669 C692 0.947 . S
H670 C693 0.948 . S
H671 C699 0.982 . S
H672 C700 0.979 . S
H673 C700 0.980 . S
H674 C700 0.983 . S
H675 C699 0.979 . S
H676 C699 0.977 . S
C677 C665 1.453 . S
C677 H706 0.982 . S
C677 H707 0.979 . S
C677 H708 0.977 . S
C678 C665 1.684 . S
C678 H703 0.979 . S
C678 H704 0.980 . S
C678 H705 0.983 . S
C679 C680 1.391 . S
C679 C684 1.391 . S
C679 H709 0.948 . S
C680 C679 1.391 . S
C680 C681 1.391 . S
C681 C680 1.391 . S
C681 C682 1.392 . S
C681 H710 0.947 . S
C682 C681 1.392 . S
C682 C683 1.419 . S
C682 H711 0.948 . S
C683 C682 1.419 . S
C683 C684 1.391 . S
C683 C687 1.397 . S
C684 C679 1.391 . S
C684 C683 1.391 . S
C684 C685 1.399 . S
C685 C684 1.399 . S
C685 C686 1.396 . S
C685 C688 1.453 . S
C685 C689 1.684 . S
C686 C667 1.723 . S
C686 C685 1.396 . S
C686 C687 1.394 . S
C687 C683 1.397 . S
C687 C686 1.394 . S
C687 C697 1.723 . S
C688 C685 1.453 . S
C688 H712 0.982 . S
C688 H713 0.979 . S
C688 H714 0.977 . S
C689 C685 1.684 . S
C689 H715 0.979 . S
C689 H716 0.980 . S
C689 H717 0.983 . S
C690 H666 0.948 . S
C690 C691 1.391 . S
C690 C695 1.391 . S
C691 C690 1.391 . S
C691 C692 1.391 . S
C692 H669 0.947 . S
C692 C691 1.391 . S
C692 C693 1.392 . S
C693 H670 0.948 . S
C693 C692 1.392 . S
C693 C694 1.419 . S
C694 C693 1.419 . S
C694 C695 1.391 . S
C694 C698 1.397 . S
C695 C690 1.391 . S
C695 C694 1.391 . S
C695 C696 1.399 . S
C696 C695 1.399 . S
C696 C697 1.396 . S
C696 C699 1.453 . S
C696 C700 1.684 . S
C697 C687 1.723 . S
C697 C696 1.396 . S
C697 C698 1.394 . S
C698 C668 1.723 . S
C698 C694 1.397 . S
C698 C697 1.394 . S
C699 H671 0.982 . S
C699 H675 0.979 . S
C699 H676 0.977 . S
C699 C696 1.453 . S
C700 H672 0.979 . S
C700 H673 0.980 . S
C700 H674 0.983 . S
C700 C696 1.684 . S
H701 C719 0.948 . S
H702 C660 0.948 . S
H703 C678 0.979 . S
H704 C678 0.980 . S
H705 C678 0.983 . S
H706 C677 0.982 . S
H707 C677 0.979 . S
H708 C677 0.977 . S
H709 C679 0.948 . S
H710 C681 0.947 . S
H711 C682 0.948 . S
H712 C688 0.982 . S
H713 C688 0.979 . S
H714 C688 0.977 . S
H715 C689 0.979 . S
H716 C689 0.980 . S
H717 C689 0.983 . S
H718 C662 0.947 . S
C719 C662 1.392 . S
C719 C663 1.419 . S
C719 H701 0.948 . S
C720 C721 1.391 . S
C720 C724 1.391 . S
C720 H762 0.948 . S
C721 C720 1.391 . S
C721 C722 1.391 . S
C722 C721 1.391 . S
C722 H778 0.947 . S
C722 C779 1.392 . S
C723 C724 1.391 . S
C723 C727 1.397 . S
C723 C779 1.419 . S
C724 C720 1.391 . S
C724 C723 1.391 . S
C724 C725 1.399 . S
C725 C724 1.399 . S
C725 C728 1.396 . S
C725 C737 1.453 . S
C725 C738 1.684 . S
H726 C750 0.948 . S
C727 C723 1.397 . S
C727 C728 1.394 . S
C727 C746 1.723 . S
C728 C725 1.396 . S
C728 C727 1.394 . S
C728 C758 1.723 . S
H729 C752 0.947 . S
H730 C753 0.948 . S
H731 C759 0.982 . S
H732 C760 0.979 . S
H733 C760 0.980 . S
H734 C760 0.983 . S
H735 C759 0.979 . S
H736 C759 0.977 . S
C737 C725 1.453 . S
C737 H766 0.982 . S
C737 H767 0.979 . S
C737 H768 0.977 . S
C738 C725 1.684 . S
C738 H763 0.979 . S
C738 H764 0.980 . S
C738 H765 0.983 . S
C739 C740 1.391 . S
C739 C744 1.391 . S
C739 H769 0.948 . S
C740 C739 1.391 . S
C740 C741 1.391 . S
C741 C740 1.391 . S
C741 C742 1.392 . S
C741 H770 0.947 . S
C742 C741 1.392 . S
C742 C743 1.419 . S
C742 H771 0.948 . S
C743 C742 1.419 . S
C743 C744 1.391 . S
C743 C747 1.397 . S
C744 C739 1.391 . S
C744 C743 1.391 . S
C744 C745 1.399 . S
C745 C744 1.399 . S
C745 C746 1.396 . S
C745 C748 1.453 . S
C745 C749 1.684 . S
C746 C727 1.723 . S
C746 C745 1.396 . S
C746 C747 1.394 . S
C747 C743 1.397 . S
C747 C746 1.394 . S
C747 C757 1.723 . S
C748 C745 1.453 . S
C748 H772 0.982 . S
C748 H773 0.979 . S
C748 H774 0.977 . S
C749 C745 1.684 . S
C749 H775 0.979 . S
C749 H776 0.980 . S
C749 H777 0.983 . S
C750 H726 0.948 . S
C750 C751 1.391 . S
C750 C755 1.391 . S
C751 C750 1.391 . S
C751 C752 1.391 . S
C752 H729 0.947 . S
C752 C751 1.391 . S
C752 C753 1.392 . S
C753 H730 0.948 . S
C753 C752 1.392 . S
C753 C754 1.419 . S
C754 C753 1.419 . S
C754 C755 1.391 . S
C754 C758 1.397 . S
C755 C750 1.391 . S
C755 C754 1.391 . S
C755 C756 1.399 . S
C756 C755 1.399 . S
C756 C757 1.396 . S
C756 C759 1.453 . S
C756 C760 1.684 . S
C757 C747 1.723 . S
C757 C756 1.396 . S
C757 C758 1.394 . S
C758 C728 1.723 . S
C758 C754 1.397 . S
C758 C757 1.394 . S
C759 H731 0.982 . S
C759 H735 0.979 . S
C759 H736 0.977 . S
C759 C756 1.453 . S
C760 H732 0.979 . S
C760 H733 0.980 . S
C760 H734 0.983 . S
C760 C756 1.684 . S
H761 C779 0.948 . S
H762 C720 0.948 . S
H763 C738 0.979 . S
H764 C738 0.980 . S
H765 C738 0.983 . S
H766 C737 0.982 . S
H767 C737 0.979 . S
H768 C737 0.977 . S
H769 C739 0.948 . S
H770 C741 0.947 . S
H771 C742 0.948 . S
H772 C748 0.982 . S
H773 C748 0.979 . S
H774 C748 0.977 . S
H775 C749 0.979 . S
H776 C749 0.980 . S
H777 C749 0.983 . S
H778 C722 0.947 . S
C779 C722 1.392 . S
C779 C723 1.419 . S
C779 H761 0.948 . S
C780 C781 1.391 . S
C780 C784 1.391 . S
C780 H822 0.948 . S
C781 C780 1.391 . S
C781 C782 1.391 . S
C782 C781 1.391 . S
C782 H838 0.947 . S
C782 C839 1.392 . S
C783 C784 1.391 . S
C783 C787 1.397 . S
C783 C839 1.419 . S
C784 C780 1.391 . S
C784 C783 1.391 . S
C784 C785 1.399 . S
C785 C784 1.399 . S
C785 C788 1.396 . S
C785 C797 1.453 . S
C785 C798 1.684 . S
H786 C810 0.948 . S
C787 C783 1.397 . S
C787 C788 1.394 . S
C787 C806 1.723 . S
C788 C785 1.396 . S
C788 C787 1.394 . S
C788 C818 1.723 . S
H789 C812 0.947 . S
H790 C813 0.948 . S
H791 C819 0.982 . S
H792 C820 0.979 . S
H793 C820 0.980 . S
H794 C820 0.983 . S
H795 C819 0.979 . S
H796 C819 0.977 . S
C797 C785 1.453 . S
C797 H826 0.982 . S
C797 H827 0.979 . S
C797 H828 0.977 . S
C798 C785 1.684 . S
C798 H823 0.979 . S
C798 H824 0.980 . S
C798 H825 0.983 . S
C799 C800 1.391 . S
C799 C804 1.391 . S
C799 H829 0.948 . S
C800 C799 1.391 . S
C800 C801 1.391 . S
C801 C800 1.391 . S
C801 C802 1.392 . S
C801 H830 0.947 . S
C802 C801 1.392 . S
C802 C803 1.419 . S
C802 H831 0.948 . S
C803 C802 1.419 . S
C803 C804 1.391 . S
C803 C807 1.397 . S
C804 C799 1.391 . S
C804 C803 1.391 . S
C804 C805 1.399 . S
C805 C804 1.399 . S
C805 C806 1.396 . S
C805 C808 1.453 . S
C805 C809 1.684 . S
C806 C787 1.723 . S
C806 C805 1.396 . S
C806 C807 1.394 . S
C807 C803 1.397 . S
C807 C806 1.394 . S
C807 C817 1.723 . S
C808 C805 1.453 . S
C808 H832 0.982 . S
C808 H833 0.979 . S
C808 H834 0.977 . S
C809 C805 1.684 . S
C809 H835 0.979 . S
C809 H836 0.980 . S
C809 H837 0.983 . S
C810 H786 0.948 . S
C810 C811 1.391 . S
C810 C815 1.391 . S
C811 C810 1.391 . S
C811 C812 1.391 . S
C812 H789 0.947 . S
C812 C811 1.391 . S
C812 C813 1.392 . S
C813 H790 0.948 . S
C813 C812 1.392 . S
C813 C814 1.419 . S
C814 C813 1.419 . S
C814 C815 1.391 . S
C814 C818 1.397 . S
C815 C810 1.391 . S
C815 C814 1.391 . S
C815 C816 1.399 . S
C816 C815 1.399 . S
C816 C817 1.396 . S
C816 C819 1.453 . S
C816 C820 1.684 . S
C817 C807 1.723 . S
C817 C816 1.396 . S
C817 C818 1.394 . S
C818 C788 1.723 . S
C818 C814 1.397 . S
C818 C817 1.394 . S
C819 H791 0.982 . S
C819 H795 0.979 . S
C819 H796 0.977 . S
C819 C816 1.453 . S
C820 H792 0.979 . S
C820 H793 0.980 . S
C820 H794 0.983 . S
C820 C816 1.684 . S
H821 C839 0.948 . S
H822 C780 0.948 . S
H823 C798 0.979 . S
H824 C798 0.980 . S
H825 C798 0.983 . S
H826 C797 0.982 . S
H827 C797 0.979 . S
H828 C797 0.977 . S
H829 C799 0.948 . S
H830 C801 0.947 . S
H831 C802 0.948 . S
H832 C808 0.982 . S
H833 C808 0.979 . S
H834 C808 0.977 . S
H835 C809 0.979 . S
H836 C809 0.980 . S
H837 C809 0.983 . S
H838 C782 0.947 . S
C839 C782 1.392 . S
C839 C783 1.419 . S
C839 H821 0.948 . S
C840 C841 1.391 . S
C840 C844 1.391 . S
C840 H882 0.948 . S
C841 C840 1.391 . S
C841 C842 1.391 . S
C842 C841 1.391 . S
C842 H898 0.947 . S
C842 C899 1.392 . S
C843 C844 1.391 . S
C843 C847 1.397 . S
C843 C899 1.419 . S
C844 C840 1.391 . S
C844 C843 1.391 . S
C844 C845 1.399 . S
C845 C844 1.399 . S
C845 C848 1.396 . S
C845 C857 1.453 . S
C845 C858 1.684 . S
H846 C870 0.948 . S
C847 C843 1.397 . S
C847 C848 1.394 . S
C847 C866 1.723 . S
C848 C845 1.396 . S
C848 C847 1.394 . S
C848 C878 1.723 . S
H849 C872 0.947 . S
H850 C873 0.948 . S
H851 C879 0.982 . S
H852 C880 0.979 . S
H853 C880 0.980 . S
H854 C880 0.983 . S
H855 C879 0.979 . S
H856 C879 0.977 . S
C857 C845 1.453 . S
C857 H886 0.982 . S
C857 H887 0.979 . S
C857 H888 0.977 . S
C858 C845 1.684 . S
C858 H883 0.979 . S
C858 H884 0.980 . S
C858 H885 0.983 . S
C859 C860 1.391 . S
C859 C864 1.391 . S
C859 H889 0.948 . S
C860 C859 1.391 . S
C860 C861 1.391 . S
C861 C860 1.391 . S
C861 C862 1.392 . S
C861 H890 0.947 . S
C862 C861 1.392 . S
C862 C863 1.419 . S
C862 H891 0.948 . S
C863 C862 1.419 . S
C863 C864 1.391 . S
C863 C867 1.397 . S
C864 C859 1.391 . S
C864 C863 1.391 . S
C864 C865 1.399 . S
C865 C864 1.399 . S
C865 C866 1.396 . S
C865 C868 1.453 . S
C865 C869 1.684 . S
C866 C847 1.723 . S
C866 C865 1.396 . S
C866 C867 1.394 . S
C867 C863 1.397 . S
C867 C866 1.394 . S
C867 C877 1.723 . S
C868 C865 1.453 . S
C868 H892 0.982 . S
C868 H893 0.979 . S
C868 H894 0.977 . S
C869 C865 1.684 . S
C869 H895 0.979 . S
C869 H896 0.980 . S
C869 H897 0.983 . S
C870 H846 0.948 . S
C870 C871 1.391 . S
C870 C875 1.391 . S
C871 C870 1.391 . S
C871 C872 1.391 . S
C872 H849 0.947 . S
C872 C871 1.391 . S
C872 C873 1.392 . S
C873 H850 0.948 . S
C873 C872 1.392 . S
C873 C874 1.419 . S
C874 C873 1.419 . S
C874 C875 1.391 . S
C874 C878 1.397 . S
C875 C870 1.391 . S
C875 C874 1.391 . S
C875 C876 1.399 . S
C876 C875 1.399 . S
C876 C877 1.396 . S
C876 C879 1.453 . S
C876 C880 1.684 . S
C877 C867 1.723 . S
C877 C876 1.396 . S
C877 C878 1.394 . S
C878 C848 1.723 . S
C878 C874 1.397 . S
C878 C877 1.394 . S
C879 H851 0.982 . S
C879 H855 0.979 . S
C879 H856 0.977 . S
C879 C876 1.453 . S
C880 H852 0.979 . S
C880 H853 0.980 . S
C880 H854 0.983 . S
C880 C876 1.684 . S
H881 C899 0.948 . S
H882 C840 0.948 . S
H883 C858 0.979 . S
H884 C858 0.980 . S
H885 C858 0.983 . S
H886 C857 0.982 . S
H887 C857 0.979 . S
H888 C857 0.977 . S
H889 C859 0.948 . S
H890 C861 0.947 . S
H891 C862 0.948 . S
H892 C868 0.982 . S
H893 C868 0.979 . S
H894 C868 0.977 . S
H895 C869 0.979 . S
H896 C869 0.980 . S
H897 C869 0.983 . S
H898 C842 0.947 . S
C899 C842 1.392 . S
C899 C843 1.419 . S
C899 H881 0.948 . S
C900 C901 1.391 . S
C900 C904 1.391 . S
C900 H942 0.948 . S
C901 C900 1.391 . S
C901 C902 1.391 . S
C902 C901 1.391 . S
C902 H958 0.947 . S
C902 C959 1.392 . S
C903 C904 1.391 . S
C903 C907 1.397 . S
C903 C959 1.419 . S
C904 C900 1.391 . S
C904 C903 1.391 . S
C904 C905 1.399 . S
C905 C904 1.399 . S
C905 C908 1.396 . S
C905 C917 1.453 . S
C905 C918 1.684 . S
H906 C930 0.948 . S
C907 C903 1.397 . S
C907 C908 1.394 . S
C907 C926 1.723 . S
C908 C905 1.396 . S
C908 C907 1.394 . S
C908 C938 1.723 . S
H909 C932 0.947 . S
H910 C933 0.948 . S
H911 C939 0.982 . S
H912 C940 0.979 . S
H913 C940 0.980 . S
H914 C940 0.983 . S
H915 C939 0.979 . S
H916 C939 0.977 . S
C917 C905 1.453 . S
C917 H946 0.982 . S
C917 H947 0.979 . S
C917 H948 0.977 . S
C918 C905 1.684 . S
C918 H943 0.979 . S
C918 H944 0.980 . S
C918 H945 0.983 . S
C919 C920 1.391 . S
C919 C924 1.391 . S
C919 H949 0.948 . S
C920 C919 1.391 . S
C920 C921 1.391 . S
C921 C920 1.391 . S
C921 C922 1.392 . S
C921 H950 0.947 . S
C922 C921 1.392 . S
C922 C923 1.419 . S
C922 H951 0.948 . S
C923 C922 1.419 . S
C923 C924 1.391 . S
C923 C927 1.397 . S
C924 C919 1.391 . S
C924 C923 1.391 . S
C924 C925 1.399 . S
C925 C924 1.399 . S
C925 C926 1.396 . S
C925 C928 1.453 . S
C925 C929 1.684 . S
C926 C907 1.723 . S
C926 C925 1.396 . S
C926 C927 1.394 . S
C927 C923 1.397 . S
C927 C926 1.394 . S
C927 C937 1.723 . S
C928 C925 1.453 . S
C928 H952 0.982 . S
C928 H953 0.979 . S
C928 H954 0.977 . S
C929 C925 1.684 . S
C929 H955 0.979 . S
C929 H956 0.980 . S
C929 H957 0.983 . S
C930 H906 0.948 . S
C930 C931 1.391 . S
C930 C935 1.391 . S
C931 C930 1.391 . S
C931 C932 1.391 . S
C932 H909 0.947 . S
C932 C931 1.391 . S
C932 C933 1.392 . S
C933 H910 0.948 . S
C933 C932 1.392 . S
C933 C934 1.419 . S
C934 C933 1.419 . S
C934 C935 1.391 . S
C934 C938 1.397 . S
C935 C930 1.391 . S
C935 C934 1.391 . S
C935 C936 1.399 . S
C936 C935 1.399 . S
C936 C937 1.396 . S
C936 C939 1.453 . S
C936 C940 1.684 . S
C937 C927 1.723 . S
C937 C936 1.396 . S
C937 C938 1.394 . S
C938 C908 1.723 . S
C938 C934 1.397 . S
C938 C937 1.394 . S
C939 H911 0.982 . S
C939 H915 0.979 . S
C939 H916 0.977 . S
C939 C936 1.453 . S
C940 H912 0.979 . S
C940 H913 0.980 . S
C940 H914 0.983 . S
C940 C936 1.684 . S
H941 C959 0.948 . S
H942 C900 0.948 . S
H943 C918 0.979 . S
H944 C918 0.980 . S
H945 C918 0.983 . S
H946 C917 0.982 . S
H947 C917 0.979 . S
H948 C917 0.977 . S
H949 C919 0.948 . S
H950 C921 0.947 . S
H951 C922 0.948 . S
H952 C928 0.982 . S
H953 C928 0.979 . S
H954 C928 0.977 . S
H955 C929 0.979 . S
H956 C929 0.980 . S
H957 C929 0.983 . S
H958 C902 0.947 . S
C959 C902 1.392 . S
C959 C903 1.419 . S
C959 H941 0.948 . S
C960 C961 1.391 . S
C960 C964 1.391 . S
C960 H1002 0.948 . S
C961 C960 1.391 . S
C961 C962 1.391 . S
C962 C961 1.391 . S
C962 H1018 0.947 . S
C962 C1019 1.392 . S
C963 C964 1.391 . S
C963 C967 1.397 . S
C963 C1019 1.419 . S
C964 C960 1.391 . S
C964 C963 1.391 . S
C964 C965 1.399 . S
C965 C964 1.399 . S
C965 C968 1.396 . S
C965 C977 1.453 . S
C965 C978 1.684 . S
H966 C990 0.948 . S
C967 C963 1.397 . S
C967 C968 1.394 . S
C967 C986 1.723 . S
C968 C965 1.396 . S
C968 C967 1.394 . S
C968 C998 1.723 . S
H969 C992 0.947 . S
H970 C993 0.948 . S
H971 C999 0.982 . S
H972 C1000 0.979 . S
H973 C1000 0.980 . S
H974 C1000 0.983 . S
H975 C999 0.979 . S
H976 C999 0.977 . S
C977 C965 1.453 . S
C977 H1006 0.982 . S
C977 H1007 0.979 . S
C977 H1008 0.977 . S
C978 C965 1.684 . S
C978 H1003 0.979 . S
C978 H1004 0.980 . S
C978 H1005 0.983 . S
C979 C980 1.391 . S
C979 C984 1.391 . S
C979 H1009 0.948 . S
C980 C979 1.391 . S
C980 C981 1.391 . S
C981 C980 1.391 . S
C981 C982 1.392 . S
C981 H1010 0.947 . S
C982 C981 1.392 . S
C982 C983 1.419 . S
C982 H1011 0.948 . S
C983 C982 1.419 . S
C983 C984 1.391 . S
C983 C987 1.397 . S
C984 C979 1.391 . S
C984 C983 1.391 . S
C984 C985 1.399 . S
C985 C984 1.399 . S
C985 C986 1.396 . S
C985 C988 1.453 . S
C985 C989 1.684 . S
C986 C967 1.723 . S
C986 C985 1.396 . S
C986 C987 1.394 . S
C987 C983 1.397 . S
C987 C986 1.394 . S
C987 C997 1.723 . S
C988 C985 1.453 . S
C988 H1012 0.982 . S
C988 H1013 0.979 . S
C988 H1014 0.977 . S
C989 C985 1.684 . S
C989 H1015 0.979 1_455 S
C989 H1016 0.980 . S
C989 H1017 0.983 . S
C990 H966 0.948 . S
C990 C991 1.391 . S
C990 C995 1.391 . S
C991 C990 1.391 . S
C991 C992 1.391 . S
C992 H969 0.947 . S
C992 C991 1.391 . S
C992 C993 1.392 . S
C993 H970 0.948 . S
C993 C992 1.392 . S
C993 C994 1.419 . S
C994 C993 1.419 . S
C994 C995 1.391 . S
C994 C998 1.397 . S
C995 C990 1.391 . S
C995 C994 1.391 . S
C995 C996 1.399 . S
C996 C995 1.399 . S
C996 C997 1.396 . S
C996 C999 1.453 . S
C996 C1000 1.684 . S
C997 C987 1.723 . S
C997 C996 1.396 . S
C997 C998 1.394 . S
C998 C968 1.723 . S
C998 C994 1.397 . S
C998 C997 1.394 . S
C999 H971 0.982 . S
C999 H975 0.979 . S
C999 H976 0.977 . S
C999 C996 1.453 . S
C1000 H972 0.979 . S
C1000 H973 0.980 . S
C1000 H974 0.983 . S
C1000 C996 1.684 . S
H1001 C1019 0.948 . S
H1002 C960 0.948 . S
H1003 C978 0.979 . S
H1004 C978 0.980 . S
H1005 C978 0.983 . S
H1006 C977 0.982 . S
H1007 C977 0.979 . S
H1008 C977 0.977 . S
H1009 C979 0.948 . S
H1010 C981 0.947 . S
H1011 C982 0.948 . S
H1012 C988 0.982 . S
H1013 C988 0.979 . S
H1014 C988 0.977 . S
H1015 C989 0.979 1_655 S
H1016 C989 0.980 . S
H1017 C989 0.983 . S
H1018 C962 0.947 . S
C1019 C962 1.392 . S
C1019 C963 1.419 . S
C1019 H1001 0.948 . S
C1020 C1021 1.391 . S
C1020 C1024 1.391 . S
C1020 H1062 0.948 . S
C1021 C1020 1.391 . S
C1021 C1022 1.391 . S
C1022 C1021 1.391 . S
C1022 H1078 0.947 . S
C1022 C1079 1.392 . S
C1023 C1024 1.391 . S
C1023 C1027 1.397 . S
C1023 C1079 1.419 . S
C1024 C1020 1.391 . S
C1024 C1023 1.391 . S
C1024 C1025 1.399 . S
C1025 C1024 1.399 . S
C1025 C1028 1.396 . S
C1025 C1037 1.453 . S
C1025 C1038 1.684 . S
H1026 C1050 0.948 . S
C1027 C1023 1.397 . S
C1027 C1028 1.394 . S
C1027 C1046 1.723 . S
C1028 C1025 1.396 . S
C1028 C1027 1.394 . S
C1028 C1058 1.723 . S
H1029 C1052 0.947 . S
H1030 C1053 0.948 . S
H1031 C1059 0.982 . S
H1032 C1060 0.979 . S
H1033 C1060 0.980 . S
H1034 C1060 0.983 . S
H1035 C1059 0.979 . S
H1036 C1059 0.977 . S
C1037 C1025 1.453 . S
C1037 H1066 0.982 . S
C1037 H1067 0.979 . S
C1037 H1068 0.977 . S
C1038 C1025 1.684 . S
C1038 H1063 0.979 . S
C1038 H1064 0.980 . S
C1038 H1065 0.983 . S
C1039 C1040 1.391 . S
C1039 C1044 1.391 . S
C1039 H1069 0.948 . S
C1040 C1039 1.391 . S
C1040 C1041 1.391 . S
C1041 C1040 1.391 . S
C1041 C1042 1.392 . S
C1041 H1070 0.947 . S
C1042 C1041 1.392 . S
C1042 C1043 1.419 . S
C1042 H1071 0.948 . S
C1043 C1042 1.419 . S
C1043 C1044 1.391 . S
C1043 C1047 1.397 . S
C1044 C1039 1.391 . S
C1044 C1043 1.391 . S
C1044 C1045 1.399 . S
C1045 C1044 1.399 . S
C1045 C1046 1.396 . S
C1045 C1048 1.453 . S
C1045 C1049 1.684 . S
C1046 C1027 1.723 . S
C1046 C1045 1.396 . S
C1046 C1047 1.394 . S
C1047 C1043 1.397 . S
C1047 C1046 1.394 . S
C1047 C1057 1.723 . S
C1048 C1045 1.453 . S
C1048 H1072 0.982 . S
C1048 H1073 0.979 . S
C1048 H1074 0.977 . S
C1049 C1045 1.684 . S
C1049 H1075 0.979 . S
C1049 H1076 0.980 . S
C1049 H1077 0.983 . S
C1050 H1026 0.948 . S
C1050 C1051 1.391 . S
C1050 C1055 1.391 . S
C1051 C1050 1.391 . S
C1051 C1052 1.391 . S
C1052 H1029 0.947 . S
C1052 C1051 1.391 . S
C1052 C1053 1.392 . S
C1053 H1030 0.948 . S
C1053 C1052 1.392 . S
C1053 C1054 1.419 . S
C1054 C1053 1.419 . S
C1054 C1055 1.391 . S
C1054 C1058 1.397 . S
C1055 C1050 1.391 . S
C1055 C1054 1.391 . S
C1055 C1056 1.399 . S
C1056 C1055 1.399 . S
C1056 C1057 1.396 . S
C1056 C1059 1.453 . S
C1056 C1060 1.684 . S
C1057 C1047 1.723 . S
C1057 C1056 1.396 . S
C1057 C1058 1.394 . S
C1058 C1028 1.723 . S
C1058 C1054 1.397 . S
C1058 C1057 1.394 . S
C1059 H1031 0.982 . S
C1059 H1035 0.979 . S
C1059 H1036 0.977 . S
C1059 C1056 1.453 . S
C1060 H1032 0.979 . S
C1060 H1033 0.980 . S
C1060 H1034 0.983 . S
C1060 C1056 1.684 . S
H1061 C1079 0.948 . S
H1062 C1020 0.948 . S
H1063 C1038 0.979 . S
H1064 C1038 0.980 . S
H1065 C1038 0.983 . S
H1066 C1037 0.982 . S
H1067 C1037 0.979 . S
H1068 C1037 0.977 . S
H1069 C1039 0.948 . S
H1070 C1041 0.947 . S
H1071 C1042 0.948 . S
H1072 C1048 0.982 . S
H1073 C1048 0.979 . S
H1074 C1048 0.977 . S
H1075 C1049 0.979 . S
H1076 C1049 0.980 . S
H1077 C1049 0.983 . S
H1078 C1022 0.947 . S
C1079 C1022 1.392 . S
C1079 C1023 1.419 . S
C1079 H1061 0.948 . S
Eu1080 C1089 2.828 . S
Eu1080 O1091 2.392 . S
Eu1080 O1093 2.418 . S
Eu1080 O1098 2.373 1_565 S
Eu1080 O1101 2.488 . S
Eu1080 O1102 2.437 1_565 S
Eu1080 O1103 2.349 1_565 S
Eu1081 O1090 2.373 1_545 S
Eu1081 O1094 2.488 . S
Eu1081 O1095 2.445 1_545 S
Eu1081 O1096 2.349 1_545 S
Eu1081 O1099 2.392 . S
Eu1081 O1100 2.418 . S
Eu1081 C1110 2.828 . S
C1082 O1100 1.244 1_556 S
C1082 O1103 1.265 . S
C1083 C1084 1.379 1_565 S
C1083 C1087 1.373 . S
C1083 C1089 1.505 . S
C1084 C1083 1.379 1_545 S
C1084 C1086 1.369 . S
C1084 H1112 0.930 . S
C1085 C1087 1.383 . S
C1085 C1088 1.382 1_565 S
C1085 H1113 0.930 . S
C1086 C1084 1.369 . S
C1086 C1088 1.392 . S
C1086 H1114 0.930 . S
C1087 C1083 1.373 . S
C1087 C1085 1.383 . S
C1087 H1115 0.931 . S
C1088 C1085 1.382 1_545 S
C1088 C1086 1.392 . S
C1089 Eu1080 2.828 . S
C1089 C1083 1.505 . S
C1089 O1101 1.249 . S
C1089 O1102 1.193 1_565 S
O1090 Eu1081 2.373 1_565 S
O1090 C1092 1.258 . S
O1091 Eu1080 2.392 . S
O1091 C1092 1.242 1_556 S
C1092 O1090 1.258 . S
C1092 O1091 1.242 1_554 S
O1093 Eu1080 2.418 . S
O1093 C1097 1.244 1_556 S
O1094 Eu1081 2.488 . S
O1094 C1110 1.249 . S
O1095 Eu1081 2.445 1_565 S
O1095 C1110 1.205 1_565 S
O1096 Eu1081 2.349 1_565 S
O1096 C1097 1.265 . S
C1097 O1093 1.244 1_554 S
C1097 O1096 1.265 . S
O1098 Eu1080 2.373 1_545 S
O1098 C1111 1.258 . S
O1099 Eu1081 2.392 . S
O1099 C1111 1.242 1_554 S
O1100 Eu1081 2.418 . S
O1100 C1082 1.244 1_554 S
O1101 Eu1080 2.488 . S
O1101 C1089 1.249 . S
O1102 Eu1080 2.437 1_545 S
O1102 C1089 1.193 1_545 S
O1103 Eu1080 2.349 1_545 S
O1103 C1082 1.265 . S
C1104 C1105 1.379 1_545 S
C1104 C1108 1.373 . S
C1104 C1110 1.505 . S
C1105 C1104 1.379 1_565 S
C1105 C1107 1.369 . S
C1105 H1116 0.930 . S
C1106 C1108 1.383 . S
C1106 C1109 1.382 1_545 S
C1106 H1117 0.930 . S
C1107 C1105 1.369 . S
C1107 C1109 1.392 . S
C1107 H1118 0.930 . S
C1108 C1104 1.373 . S
C1108 C1106 1.383 . S
C1108 H1119 0.931 . S
C1109 C1106 1.382 1_565 S
C1109 C1107 1.392 . S
C1110 Eu1081 2.828 . S
C1110 O1094 1.249 . S
C1110 O1095 1.205 1_545 S
C1110 C1104 1.505 . S
C1111 O1098 1.258 . S
C1111 O1099 1.242 1_556 S
H1112 C1084 0.930 . S
H1113 C1085 0.930 . S
H1114 C1086 0.930 . S
H1115 C1087 0.931 . S
H1116 C1105 0.930 . S
H1117 C1106 0.930 . S
H1118 C1107 0.930 . S
H1119 C1108 0.931 . S
Eu1120 C1129 2.828 . S
Eu1120 O1131 2.392 1_556 S
Eu1120 O1133 2.418 . S
Eu1120 O1138 2.373 1_455 S
Eu1120 O1141 2.488 . S
Eu1120 O1142 2.471 1_455 S
Eu1120 O1143 2.349 1_455 S
Eu1121 O1130 2.373 1_655 S
Eu1121 O1134 2.488 . S
Eu1121 O1135 2.471 1_655 S
Eu1121 O1136 2.349 1_655 S
Eu1121 O1139 2.392 1_554 S
Eu1121 O1140 2.418 . S
Eu1121 C1150 2.828 . S
C1122 O1140 1.244 1_556 S
C1122 O1143 1.265 . S
C1123 C1124 1.379 1_455 S
C1123 C1127 1.373 . S
C1123 C1129 1.505 . S
C1124 C1123 1.379 1_655 S
C1124 C1126 1.369 . S
C1124 H1152 0.930 . S
C1125 C1127 1.383 . S
C1125 C1128 1.382 1_455 S
C1125 H1153 0.930 . S
C1126 C1124 1.369 . S
C1126 C1128 1.392 . S
C1126 H1154 0.930 . S
C1127 C1123 1.373 . S
C1127 C1125 1.383 . S
C1127 H1155 0.931 . S
C1128 C1125 1.382 1_655 S
C1128 C1126 1.392 . S
C1129 Eu1120 2.828 . S
C1129 C1123 1.505 . S
C1129 O1141 1.249 . S
C1129 O1142 1.244 1_455 S
O1130 Eu1121 2.373 1_455 S
O1130 C1132 1.258 . S
O1131 Eu1120 2.392 1_554 S
O1131 C1132 1.242 . S
C1132 O1130 1.258 . S
C1132 O1131 1.242 . S
O1133 Eu1120 2.418 . S
O1133 C1137 1.244 1_556 S
O1134 Eu1121 2.488 . S
O1134 C1150 1.249 . S
O1135 Eu1121 2.471 1_455 S
O1135 C1150 1.244 1_455 S
O1136 Eu1121 2.349 1_455 S
O1136 C1137 1.265 . S
C1137 O1133 1.244 1_554 S
C1137 O1136 1.265 . S
O1138 Eu1120 2.373 1_655 S
O1138 C1151 1.258 . S
O1139 Eu1121 2.392 1_556 S
O1139 C1151 1.242 . S
O1140 Eu1121 2.418 . S
O1140 C1122 1.244 1_554 S
O1141 Eu1120 2.488 . S
O1141 C1129 1.249 . S
O1142 Eu1120 2.471 1_655 S
O1142 C1129 1.244 1_655 S
O1143 Eu1120 2.349 1_655 S
O1143 C1122 1.265 . S
C1144 C1145 1.379 1_655 S
C1144 C1148 1.373 . S
C1144 C1150 1.505 . S
C1145 C1144 1.379 1_455 S
C1145 C1147 1.369 . S
C1145 H1156 0.930 . S
C1146 C1148 1.383 . S
C1146 C1149 1.382 1_655 S
C1146 H1157 0.930 . S
C1147 C1145 1.369 . S
C1147 C1149 1.392 . S
C1147 H1158 0.930 . S
C1148 C1144 1.373 . S
C1148 C1146 1.383 . S
C1148 H1159 0.931 . S
C1149 C1146 1.382 1_455 S
C1149 C1147 1.392 . S
C1150 Eu1121 2.828 . S
C1150 O1134 1.249 . S
C1150 O1135 1.244 1_655 S
C1150 C1144 1.505 . S
C1151 O1138 1.258 . S
C1151 O1139 1.242 . S
H1152 C1124 0.930 . S
H1153 C1125 0.930 . S
H1154 C1126 0.930 . S
H1155 C1127 0.931 . S
H1156 C1145 0.930 . S
H1157 C1146 0.930 . S
H1158 C1147 0.930 . S
H1159 C1148 0.931 . S
Eu1160 C1169 2.828 . S
Eu1160 O1171 2.400 . S
Eu1160 O1173 2.418 . S
Eu1160 O1178 2.373 . S
Eu1160 O1181 2.488 . S
Eu1160 O1182 2.471 . S
Eu1160 O1183 2.349 . S
Eu1161 O1170 2.373 . S
Eu1161 O1174 2.488 . S
Eu1161 O1175 2.471 . S
Eu1161 O1176 2.349 . S
Eu1161 O1179 2.338 1_556 S
Eu1161 O1180 2.418 . S
Eu1161 C1190 2.828 . S
C1162 O1180 1.244 1_554 S
C1162 O1183 1.265 . S
C1163 C1164 1.379 . S
C1163 C1167 1.373 . S
C1163 C1169 1.505 . S
C1164 C1163 1.379 . S
C1164 C1166 1.369 . S
C1164 H1192 0.930 . S
C1165 C1167 1.383 . S
C1165 C1168 1.382 . S
C1165 H1193 0.930 . S
C1166 C1164 1.369 . S
C1166 C1168 1.392 . S
C1166 H1194 0.930 . S
C1167 C1163 1.373 . S
C1167 C1165 1.383 . S
C1167 H1195 0.931 . S
C1168 C1165 1.382 . S
C1168 C1166 1.392 . S
C1169 Eu1160 2.828 . S
C1169 C1163 1.505 . S
C1169 O1181 1.249 . S
C1169 O1182 1.244 . S
O1170 Eu1161 2.373 . S
O1170 C1172 1.258 . S
O1171 Eu1160 2.400 . S
O1171 C1172 1.233 1_554 S
C1172 O1170 1.258 . S
C1172 O1171 1.233 1_556 S
O1173 Eu1160 2.418 . S
O1173 C1177 1.244 1_554 S
O1174 Eu1161 2.488 . S
O1174 C1190 1.249 . S
O1175 Eu1161 2.471 . S
O1175 C1190 1.244 . S
O1176 Eu1161 2.349 . S
O1176 C1177 1.265 . S
C1177 O1173 1.244 1_556 S
C1177 O1176 1.265 . S
O1178 Eu1160 2.373 . S
O1178 C1191 1.258 . S
O1179 Eu1161 2.338 1_554 S
O1179 C1191 1.306 . S
O1180 Eu1161 2.418 . S
O1180 C1162 1.244 1_556 S
O1181 Eu1160 2.488 . S
O1181 C1169 1.249 . S
O1182 Eu1160 2.471 . S
O1182 C1169 1.244 . S
O1183 Eu1160 2.349 . S
O1183 C1162 1.265 . S
C1184 C1185 1.379 . S
C1184 C1188 1.373 . S
C1184 C1190 1.505 . S
C1185 C1184 1.379 . S
C1185 C1187 1.369 . S
C1185 H1196 0.930 . S
C1186 C1188 1.383 . S
C1186 C1189 1.382 . S
C1186 H1197 0.930 . S
C1187 C1185 1.369 . S
C1187 C1189 1.392 . S
C1187 H1198 0.930 . S
C1188 C1184 1.373 . S
C1188 C1186 1.383 . S
C1188 H1199 0.931 . S
C1189 C1186 1.382 . S
C1189 C1187 1.392 . S
C1190 Eu1161 2.828 . S
C1190 O1174 1.249 . S
C1190 O1175 1.244 . S
C1190 C1184 1.505 . S
C1191 O1178 1.258 . S
C1191 O1179 1.306 . S
H1192 C1164 0.930 . S
H1193 C1165 0.930 . S
H1194 C1166 0.930 . S
H1195 C1167 0.931 . S
H1196 C1185 0.930 . S
H1197 C1186 0.930 . S
H1198 C1187 0.930 . S
H1199 C1188 0.931 . S
Eu1200 C1209 2.828 . S
Eu1200 O1211 2.392 . S
Eu1200 O1213 2.418 . S
Eu1200 O1218 2.373 . S
Eu1200 O1221 2.488 . S
Eu1200 O1222 2.471 . S
Eu1200 O1223 2.349 . S
Eu1201 O1210 2.373 . S
Eu1201 O1214 2.488 . S
Eu1201 O1215 2.471 . S
Eu1201 O1216 2.349 . S
Eu1201 O1219 2.392 . S
Eu1201 O1220 2.418 . S
Eu1201 C1230 2.828 . S
C1202 O1220 1.244 . S
C1202 O1223 1.265 . S
C1203 C1204 1.379 . S
C1203 C1207 1.373 . S
C1203 C1209 1.505 . S
C1204 C1203 1.379 . S
C1204 C1206 1.369 . S
C1204 H1232 0.930 . S
C1205 C1207 1.383 . S
C1205 C1208 1.382 . S
C1205 H1233 0.930 . S
C1206 C1204 1.369 . S
C1206 C1208 1.392 . S
C1206 H1234 0.930 . S
C1207 C1203 1.373 . S
C1207 C1205 1.383 . S
C1207 H1235 0.931 . S
C1208 C1205 1.382 . S
C1208 C1206 1.392 . S
C1209 Eu1200 2.828 . S
C1209 C1203 1.505 . S
C1209 O1221 1.249 . S
C1209 O1222 1.244 . S
O1210 Eu1201 2.373 . S
O1210 C1212 1.258 . S
O1211 Eu1200 2.392 . S
O1211 C1212 1.242 . S
C1212 O1210 1.258 . S
C1212 O1211 1.242 . S
O1213 Eu1200 2.418 . S
O1213 C1217 1.244 . S
O1214 Eu1201 2.488 . S
O1214 C1230 1.249 . S
O1215 Eu1201 2.471 . S
O1215 C1230 1.244 . S
O1216 Eu1201 2.349 . S
O1216 C1217 1.265 . S
C1217 O1213 1.244 . S
C1217 O1216 1.265 . S
O1218 Eu1200 2.373 . S
O1218 C1231 1.258 . S
O1219 Eu1201 2.392 . S
O1219 C1231 1.242 . S
O1220 Eu1201 2.418 . S
O1220 C1202 1.244 . S
O1221 Eu1200 2.488 . S
O1221 C1209 1.249 . S
O1222 Eu1200 2.471 . S
O1222 C1209 1.244 . S
O1223 Eu1200 2.349 . S
O1223 C1202 1.265 . S
C1224 C1225 1.379 . S
C1224 C1228 1.373 . S
C1224 C1230 1.505 . S
C1225 C1224 1.379 . S
C1225 C1227 1.369 . S
C1225 H1236 0.930 . S
C1226 C1228 1.383 . S
C1226 C1229 1.382 . S
C1226 H1237 0.930 . S
C1227 C1225 1.369 . S
C1227 C1229 1.392 . S
C1227 H1238 0.930 . S
C1228 C1224 1.373 . S
C1228 C1226 1.383 . S
C1228 H1239 0.931 . S
C1229 C1226 1.382 . S
C1229 C1227 1.392 . S
C1230 Eu1201 2.828 . S
C1230 O1214 1.249 . S
C1230 O1215 1.244 . S
C1230 C1224 1.505 . S
C1231 O1218 1.258 . S
C1231 O1219 1.242 . S
H1232 C1204 0.930 . S
H1233 C1205 0.930 . S
H1234 C1206 0.930 . S
H1235 C1207 0.931 . S
H1236 C1225 0.930 . S
H1237 C1226 0.930 . S
H1238 C1227 0.930 . S
H1239 C1228 0.931 . S
Eu1240 C1249 2.828 . S
Eu1240 O1251 2.392 . S
Eu1240 O1253 2.418 . S
Eu1240 O1258 2.373 . S
Eu1240 O1261 2.488 . S
Eu1240 O1262 2.471 . S
Eu1240 O1263 2.349 . S
Eu1241 O1250 2.373 . S
Eu1241 O1254 2.488 . S
Eu1241 O1255 2.471 . S
Eu1241 O1256 2.349 . S
Eu1241 O1259 2.392 . S
Eu1241 O1260 2.418 . S
Eu1241 C1270 2.828 . S
C1242 O1260 1.244 . S
C1242 O1263 1.265 . S
C1243 C1244 1.379 . S
C1243 C1247 1.373 . S
C1243 C1249 1.505 . S
C1244 C1243 1.379 . S
C1244 C1246 1.369 . S
C1244 H1272 0.930 . S
C1245 C1247 1.383 . S
C1245 C1248 1.382 . S
C1245 H1273 0.930 . S
C1246 C1244 1.369 . S
C1246 C1248 1.392 . S
C1246 H1274 0.930 . S
C1247 C1243 1.373 . S
C1247 C1245 1.383 . S
C1247 H1275 0.931 . S
C1248 C1245 1.382 . S
C1248 C1246 1.392 . S
C1249 Eu1240 2.828 . S
C1249 C1243 1.505 . S
C1249 O1261 1.249 . S
C1249 O1262 1.244 . S
O1250 Eu1241 2.373 . S
O1250 C1252 1.258 . S
O1251 Eu1240 2.392 . S
O1251 C1252 1.242 . S
C1252 O1250 1.258 . S
C1252 O1251 1.242 . S
O1253 Eu1240 2.418 . S
O1253 C1257 1.244 . S
O1254 Eu1241 2.488 . S
O1254 C1270 1.249 . S
O1255 Eu1241 2.471 . S
O1255 C1270 1.244 . S
O1256 Eu1241 2.349 . S
O1256 C1257 1.265 . S
C1257 O1253 1.244 . S
C1257 O1256 1.265 . S
O1258 Eu1240 2.373 . S
O1258 C1271 1.258 . S
O1259 Eu1241 2.392 . S
O1259 C1271 1.242 . S
O1260 Eu1241 2.418 . S
O1260 C1242 1.244 . S
O1261 Eu1240 2.488 . S
O1261 C1249 1.249 . S
O1262 Eu1240 2.471 . S
O1262 C1249 1.244 . S
O1263 Eu1240 2.349 . S
O1263 C1242 1.265 . S
C1264 C1265 1.379 . S
C1264 C1268 1.373 . S
C1264 C1270 1.505 . S
C1265 C1264 1.379 . S
C1265 C1267 1.369 . S
C1265 H1276 0.930 . S
C1266 C1268 1.383 . S
C1266 C1269 1.382 . S
C1266 H1277 0.930 . S
C1267 C1265 1.369 . S
C1267 C1269 1.392 . S
C1267 H1278 0.930 . S
C1268 C1264 1.373 . S
C1268 C1266 1.383 . S
C1268 H1279 0.931 . S
C1269 C1266 1.382 . S
C1269 C1267 1.392 . S
C1270 Eu1241 2.828 . S
C1270 O1254 1.249 . S
C1270 O1255 1.244 . S
C1270 C1264 1.505 . S
C1271 O1258 1.258 . S
C1271 O1259 1.242 . S
H1272 C1244 0.930 . S
H1273 C1245 0.930 . S
H1274 C1246 0.930 . S
H1275 C1247 0.931 . S
H1276 C1265 0.930 . S
H1277 C1266 0.930 . S
H1278 C1267 0.930 . S
H1279 C1268 0.931 . S
Eu1280 C1289 2.828 . S
Eu1280 O1291 2.392 . S
Eu1280 O1293 2.418 . S
Eu1280 O1298 2.373 . S
Eu1280 O1301 2.488 . S
Eu1280 O1302 2.471 . S
Eu1280 O1303 2.349 . S
Eu1281 O1290 2.373 . S
Eu1281 O1294 2.488 . S
Eu1281 O1295 2.471 . S
Eu1281 O1296 2.349 . S
Eu1281 O1299 2.392 . S
Eu1281 O1300 2.418 . S
Eu1281 C1310 2.828 . S
C1282 O1300 1.244 . S
C1282 O1303 1.265 . S
C1283 C1284 1.379 . S
C1283 C1287 1.373 . S
C1283 C1289 1.505 . S
C1284 C1283 1.379 . S
C1284 C1286 1.369 . S
C1284 H1312 0.930 . S
C1285 C1287 1.383 . S
C1285 C1288 1.382 . S
C1285 H1313 0.930 . S
C1286 C1284 1.369 . S
C1286 C1288 1.392 . S
C1286 H1314 0.930 . S
C1287 C1283 1.373 . S
C1287 C1285 1.383 . S
C1287 H1315 0.931 . S
C1288 C1285 1.382 . S
C1288 C1286 1.392 . S
C1289 Eu1280 2.828 . S
C1289 C1283 1.505 . S
C1289 O1301 1.249 . S
C1289 O1302 1.244 . S
O1290 Eu1281 2.373 . S
O1290 C1292 1.258 . S
O1291 Eu1280 2.392 . S
O1291 C1292 1.242 . S
C1292 O1290 1.258 . S
C1292 O1291 1.242 . S
O1293 Eu1280 2.418 . S
O1293 C1297 1.244 . S
O1294 Eu1281 2.488 . S
O1294 C1310 1.249 . S
O1295 Eu1281 2.471 . S
O1295 C1310 1.244 . S
O1296 Eu1281 2.349 . S
O1296 C1297 1.265 . S
C1297 O1293 1.244 . S
C1297 O1296 1.265 . S
O1298 Eu1280 2.373 . S
O1298 C1311 1.258 . S
O1299 Eu1281 2.392 . S
O1299 C1311 1.242 . S
O1300 Eu1281 2.418 . S
O1300 C1282 1.244 . S
O1301 Eu1280 2.488 . S
O1301 C1289 1.249 . S
O1302 Eu1280 2.471 . S
O1302 C1289 1.244 . S
O1303 Eu1280 2.349 . S
O1303 C1282 1.265 . S
C1304 C1305 1.379 . S
C1304 C1308 1.373 . S
C1304 C1310 1.505 . S
C1305 C1304 1.379 . S
C1305 C1307 1.369 . S
C1305 H1316 0.930 . S
C1306 C1308 1.383 . S
C1306 C1309 1.382 . S
C1306 H1317 0.930 . S
C1307 C1305 1.369 . S
C1307 C1309 1.392 . S
C1307 H1318 0.930 . S
C1308 C1304 1.373 . S
C1308 C1306 1.383 . S
C1308 H1319 0.931 . S
C1309 C1306 1.382 . S
C1309 C1307 1.392 . S
C1310 Eu1281 2.828 . S
C1310 O1294 1.249 . S
C1310 O1295 1.244 . S
C1310 C1304 1.505 . S
C1311 O1298 1.258 . S
C1311 O1299 1.242 . S
H1312 C1284 0.930 . S
H1313 C1285 0.930 . S
H1314 C1286 0.930 . S
H1315 C1287 0.931 . S
H1316 C1305 0.930 . S
H1317 C1306 0.930 . S
H1318 C1307 0.930 . S
H1319 C1308 0.931 . S
Eu1320 C1329 2.828 . S
Eu1320 O1331 2.392 . S
Eu1320 O1333 2.418 . S
Eu1320 O1338 2.373 . S
Eu1320 O1341 2.488 . S
Eu1320 O1342 2.471 . S
Eu1320 O1343 2.349 . S
Eu1321 O1330 2.373 . S
Eu1321 O1334 2.488 . S
Eu1321 O1335 2.471 . S
Eu1321 O1336 2.349 . S
Eu1321 O1339 2.392 . S
Eu1321 O1340 2.418 . S
Eu1321 C1350 2.828 . S
C1322 O1340 1.244 . S
C1322 O1343 1.265 . S
C1323 C1324 1.379 . S
C1323 C1327 1.373 . S
C1323 C1329 1.505 . S
C1324 C1323 1.379 . S
C1324 C1326 1.369 . S
C1324 H1352 0.930 . S
C1325 C1327 1.383 . S
C1325 C1328 1.382 . S
C1325 H1353 0.930 . S
C1326 C1324 1.369 . S
C1326 C1328 1.392 . S
C1326 H1354 0.930 . S
C1327 C1323 1.373 . S
C1327 C1325 1.383 . S
C1327 H1355 0.931 . S
C1328 C1325 1.382 . S
C1328 C1326 1.392 . S
C1329 Eu1320 2.828 . S
C1329 C1323 1.505 . S
C1329 O1341 1.249 . S
C1329 O1342 1.244 . S
O1330 Eu1321 2.373 . S
O1330 C1332 1.258 . S
O1331 Eu1320 2.392 . S
O1331 C1332 1.242 . S
C1332 O1330 1.258 . S
C1332 O1331 1.242 . S
O1333 Eu1320 2.418 . S
O1333 C1337 1.244 . S
O1334 Eu1321 2.488 . S
O1334 C1350 1.249 . S
O1335 Eu1321 2.471 . S
O1335 C1350 1.244 . S
O1336 Eu1321 2.349 . S
O1336 C1337 1.265 . S
C1337 O1333 1.244 . S
C1337 O1336 1.265 . S
O1338 Eu1320 2.373 . S
O1338 C1351 1.258 . S
O1339 Eu1321 2.392 . S
O1339 C1351 1.242 . S
O1340 Eu1321 2.418 . S
O1340 C1322 1.244 . S
O1341 Eu1320 2.488 . S
O1341 C1329 1.249 . S
O1342 Eu1320 2.471 . S
O1342 C1329 1.244 . S
O1343 Eu1320 2.349 . S
O1343 C1322 1.265 . S
C1344 C1345 1.379 . S
C1344 C1348 1.373 . S
C1344 C1350 1.505 . S
C1345 C1344 1.379 . S
C1345 C1347 1.369 . S
C1345 H1356 0.930 . S
C1346 C1348 1.383 . S
C1346 C1349 1.382 . S
C1346 H1357 0.930 . S
C1347 C1345 1.369 . S
C1347 C1349 1.392 . S
C1347 H1358 0.930 . S
C1348 C1344 1.373 . S
C1348 C1346 1.383 . S
C1348 H1359 0.931 . S
C1349 C1346 1.382 . S
C1349 C1347 1.392 . S
C1350 Eu1321 2.828 . S
C1350 O1334 1.249 . S
C1350 O1335 1.244 . S
C1350 C1344 1.505 . S
C1351 O1338 1.258 . S
C1351 O1339 1.242 . S
H1352 C1324 0.930 . S
H1353 C1325 0.930 . S
H1354 C1326 0.930 . S
H1355 C1327 0.931 . S
H1356 C1345 0.930 . S
H1357 C1346 0.930 . S
H1358 C1347 0.930 . S
H1359 C1348 0.931 . S
Eu1360 C1369 2.828 . S
Eu1360 O1371 2.392 . S
Eu1360 O1373 2.418 . S
Eu1360 O1378 2.373 . S
Eu1360 O1381 2.488 . S
Eu1360 O1382 2.471 . S
Eu1360 O1383 2.349 . S
Eu1361 O1370 2.373 . S
Eu1361 O1374 2.488 . S
Eu1361 O1375 2.471 . S
Eu1361 O1376 2.349 . S
Eu1361 O1379 2.392 . S
Eu1361 O1380 2.418 . S
Eu1361 C1390 2.828 . S
C1362 O1380 1.244 . S
C1362 O1383 1.265 . S
C1363 C1364 1.379 . S
C1363 C1367 1.373 . S
C1363 C1369 1.505 . S
C1364 C1363 1.379 . S
C1364 C1366 1.369 . S
C1364 H1392 0.930 . S
C1365 C1367 1.383 . S
C1365 C1368 1.382 . S
C1365 H1393 0.930 . S
C1366 C1364 1.369 . S
C1366 C1368 1.392 . S
C1366 H1394 0.930 . S
C1367 C1363 1.373 . S
C1367 C1365 1.383 . S
C1367 H1395 0.931 . S
C1368 C1365 1.382 . S
C1368 C1366 1.392 . S
C1369 Eu1360 2.828 . S
C1369 C1363 1.505 . S
C1369 O1381 1.249 . S
C1369 O1382 1.244 . S
O1370 Eu1361 2.373 . S
O1370 C1372 1.258 . S
O1371 Eu1360 2.392 . S
O1371 C1372 1.242 . S
C1372 O1370 1.258 . S
C1372 O1371 1.242 . S
O1373 Eu1360 2.418 . S
O1373 C1377 1.244 . S
O1374 Eu1361 2.488 . S
O1374 C1390 1.249 . S
O1375 Eu1361 2.471 . S
O1375 C1390 1.244 . S
O1376 Eu1361 2.349 . S
O1376 C1377 1.265 . S
C1377 O1373 1.244 . S
C1377 O1376 1.265 . S
O1378 Eu1360 2.373 . S
O1378 C1391 1.258 . S
O1379 Eu1361 2.392 . S
O1379 C1391 1.242 . S
O1380 Eu1361 2.418 . S
O1380 C1362 1.244 . S
O1381 Eu1360 2.488 . S
O1381 C1369 1.249 . S
O1382 Eu1360 2.471 . S
O1382 C1369 1.244 . S
O1383 Eu1360 2.349 . S
O1383 C1362 1.265 . S
C1384 C1385 1.379 . S
C1384 C1388 1.373 . S
C1384 C1390 1.505 . S
C1385 C1384 1.379 . S
C1385 C1387 1.369 . S
C1385 H1396 0.930 . S
C1386 C1388 1.383 . S
C1386 C1389 1.382 . S
C1386 H1397 0.930 . S
C1387 C1385 1.369 . S
C1387 C1389 1.392 . S
C1387 H1398 0.930 . S
C1388 C1384 1.373 . S
C1388 C1386 1.383 . S
C1388 H1399 0.931 . S
C1389 C1386 1.382 . S
C1389 C1387 1.392 . S
C1390 Eu1361 2.828 . S
C1390 O1374 1.249 . S
C1390 O1375 1.244 . S
C1390 C1384 1.505 . S
C1391 O1378 1.258 . S
C1391 O1379 1.242 . S
H1392 C1364 0.930 . S
H1393 C1365 0.930 . S
H1394 C1366 0.930 . S
H1395 C1367 0.931 . S
H1396 C1385 0.930 . S
H1397 C1386 0.930 . S
H1398 C1387 0.930 . S
H1399 C1388 0.931 . S
Eu1400 C1409 2.828 . S
Eu1400 O1411 2.392 . S
Eu1400 O1413 2.418 . S
Eu1400 O1418 2.373 . S
Eu1400 O1421 2.488 . S
Eu1400 O1422 2.471 . S
Eu1400 O1423 2.349 . S
Eu1401 O1410 2.373 . S
Eu1401 O1414 2.488 . S
Eu1401 O1415 2.471 . S
Eu1401 O1416 2.349 . S
Eu1401 O1419 2.392 . S
Eu1401 O1420 2.418 . S
Eu1401 C1430 2.828 . S
C1402 O1420 1.244 . S
C1402 O1423 1.265 . S
C1403 C1404 1.379 . S
C1403 C1407 1.373 . S
C1403 C1409 1.505 . S
C1404 C1403 1.379 . S
C1404 C1406 1.369 . S
C1404 H1432 0.930 . S
C1405 C1407 1.383 . S
C1405 C1408 1.382 . S
C1405 H1433 0.930 . S
C1406 C1404 1.369 . S
C1406 C1408 1.392 . S
C1406 H1434 0.930 . S
C1407 C1403 1.373 . S
C1407 C1405 1.383 . S
C1407 H1435 0.931 . S
C1408 C1405 1.382 . S
C1408 C1406 1.392 . S
C1409 Eu1400 2.828 . S
C1409 C1403 1.505 . S
C1409 O1421 1.249 . S
C1409 O1422 1.244 . S
O1410 Eu1401 2.373 . S
O1410 C1412 1.258 . S
O1411 Eu1400 2.392 . S
O1411 C1412 1.242 . S
C1412 O1410 1.258 . S
C1412 O1411 1.242 . S
O1413 Eu1400 2.418 . S
O1413 C1417 1.244 . S
O1414 Eu1401 2.488 . S
O1414 C1430 1.249 . S
O1415 Eu1401 2.471 . S
O1415 C1430 1.244 . S
O1416 Eu1401 2.349 . S
O1416 C1417 1.265 . S
C1417 O1413 1.244 . S
C1417 O1416 1.265 . S
O1418 Eu1400 2.373 . S
O1418 C1431 1.258 . S
O1419 Eu1401 2.392 . S
O1419 C1431 1.242 . S
O1420 Eu1401 2.418 . S
O1420 C1402 1.244 . S
O1421 Eu1400 2.488 . S
O1421 C1409 1.249 . S
O1422 Eu1400 2.471 . S
O1422 C1409 1.244 . S
O1423 Eu1400 2.349 . S
O1423 C1402 1.265 . S
C1424 C1425 1.379 . S
C1424 C1428 1.373 . S
C1424 C1430 1.505 . S
C1425 C1424 1.379 . S
C1425 C1427 1.369 . S
C1425 H1436 0.930 . S
C1426 C1428 1.383 . S
C1426 C1429 1.382 . S
C1426 H1437 0.930 . S
C1427 C1425 1.369 . S
C1427 C1429 1.392 . S
C1427 H1438 0.930 . S
C1428 C1424 1.373 . S
C1428 C1426 1.383 . S
C1428 H1439 0.931 . S
C1429 C1426 1.382 . S
C1429 C1427 1.392 . S
C1430 Eu1401 2.828 . S
C1430 O1414 1.249 . S
C1430 O1415 1.244 . S
C1430 C1424 1.505 . S
C1431 O1418 1.258 . S
C1431 O1419 1.242 . S
H1432 C1404 0.930 . S
H1433 C1405 0.930 . S
H1434 C1406 0.930 . S
H1435 C1407 0.931 . S
H1436 C1425 0.930 . S
H1437 C1426 0.930 . S
H1438 C1427 0.930 . S
H1439 C1428 0.931 . S
H1440 C1458 0.951 . S
H1441 C1460 0.951 . S
H1442 C1462 0.950 . S
H1443 C1463 0.950 . S
H1444 C1465 0.950 . S
H1445 C1468 0.950 . S
H1446 C1469 0.950 . S
H1447 C1471 0.950 . S
H1448 C1472 0.950 . S
H1449 C1473 0.951 1_556 S
H1450 C1475 0.951 . S
H1451 C1477 0.950 . S
H1452 C1478 0.950 . S
H1453 C1480 0.950 . S
H1454 C1483 0.950 . S
H1455 C1484 0.950 . S
H1456 C1486 0.950 . S
H1457 C1487 0.970 . S
C1458 H1440 0.951 . S
C1458 C1459 1.366 . S
C1458 C1460 1.388 . S
C1459 C1458 1.366 . S
C1459 C1463 1.385 . S
C1460 H1441 0.951 . S
C1460 C1458 1.388 . S
C1460 C1461 1.366 . S
C1461 C1460 1.366 . S
C1461 C1462 1.414 . S
C1461 C1464 1.499 . S
C1462 H1442 0.950 . S
C1462 C1461 1.414 . S
C1462 C1463 1.374 . S
C1463 H1443 0.950 . S
C1463 C1459 1.385 . S
C1463 C1462 1.374 . S
C1464 C1461 1.499 . S
C1464 C1465 1.373 . S
C1464 C1466 1.389 . S
C1465 H1444 0.950 . S
C1465 C1464 1.373 . S
C1465 C1481 1.377 . S
C1466 C1464 1.389 . S
C1466 C1467 1.524 . S
C1466 C1480 1.377 . S
C1467 C1466 1.524 . S
C1467 C1468 1.397 . S
C1467 C1472 1.363 . S
C1468 H1445 0.950 . S
C1468 C1467 1.397 . S
C1468 C1469 1.334 . S
C1469 H1446 0.950 . S
C1469 C1468 1.334 . S
C1469 C1470 1.287 . S
C1470 C1469 1.287 . S
C1470 C1471 1.524 . S
C1470 H1489 0.913 . S
C1471 H1447 0.950 . S
C1471 C1470 1.524 . S
C1471 C1472 1.415 . S
C1472 H1448 0.950 . S
C1472 C1467 1.363 . S
C1472 C1471 1.415 . S
C1473 H1449 0.951 1_554 S
C1473 C1474 1.366 . S
C1473 C1475 1.388 . S
C1474 C1473 1.366 . S
C1474 C1478 1.385 . S
C1475 H1450 0.951 . S
C1475 C1473 1.388 . S
C1475 C1476 1.366 . S
C1476 C1475 1.366 . S
C1476 C1477 1.414 . S
C1476 C1479 1.499 . S
C1477 H1451 0.950 . S
C1477 C1476 1.414 . S
C1477 C1478 1.374 . S
C1478 H1452 0.950 . S
C1478 C1474 1.385 . S
C1478 C1477 1.374 . S
C1479 C1476 1.499 . S
C1479 C1480 1.373 . S
C1479 C1481 1.389 . S
C1480 H1453 0.950 . S
C1480 C1466 1.377 . S
C1480 C1479 1.373 . S
C1481 C1465 1.377 . S
C1481 C1479 1.389 . S
C1481 C1482 1.524 . S
C1482 C1481 1.524 . S
C1482 C1483 1.397 . S
C1482 C1487 1.363 . S
C1483 H1454 0.950 . S
C1483 C1482 1.397 . S
C1483 C1484 1.334 . S
C1484 H1455 0.950 . S
C1484 C1483 1.334 . S
C1484 C1485 1.309 . S
C1485 C1484 1.309 . S
C1485 C1486 1.514 1_554 S
C1485 H1488 0.982 1_554 S
C1486 H1456 0.950 . S
C1486 C1485 1.514 1_556 S
C1486 C1487 1.415 1_556 S
C1487 H1457 0.970 . S
C1487 C1482 1.363 . S
C1487 C1486 1.415 1_554 S
H1488 C1485 0.982 1_556 S
H1489 C1470 0.913 . S
H1490 C1508 0.951 . S
H1491 C1510 0.951 . S
H1492 C1512 0.950 . S
H1493 C1513 0.950 . S
H1494 C1515 0.950 . S
H1495 C1518 0.950 . S
H1496 C1519 0.950 . S
H1497 C1521 0.866 1_556 S
H1498 C1522 0.950 . S
H1499 C1523 0.951 . S
H1500 C1525 0.951 . S
H1501 C1527 0.950 . S
H1502 C1528 0.950 . S
H1503 C1530 0.950 . S
H1504 C1533 0.950 . S
H1505 C1534 0.950 . S
H1506 C1536 0.950 . S
H1507 C1537 0.950 . S
C1508 H1490 0.951 . S
C1508 C1509 1.366 . S
C1508 C1510 1.388 . S
C1509 C1508 1.366 . S
C1509 C1513 1.385 . S
C1510 H1491 0.951 . S
C1510 C1508 1.388 . S
C1510 C1511 1.366 . S
C1511 C1510 1.366 . S
C1511 C1512 1.414 . S
C1511 C1514 1.499 . S
C1512 H1492 0.950 . S
C1512 C1511 1.414 . S
C1512 C1513 1.374 . S
C1513 H1493 0.950 . S
C1513 C1509 1.385 . S
C1513 C1512 1.374 . S
C1514 C1511 1.499 . S
C1514 C1515 1.373 . S
C1514 C1516 1.389 . S
C1515 H1494 0.950 . S
C1515 C1514 1.373 . S
C1515 C1531 1.377 . S
C1516 C1514 1.389 . S
C1516 C1517 1.524 . S
C1516 C1530 1.377 . S
C1517 C1516 1.524 . S
C1517 C1518 1.397 . S
C1517 C1522 1.363 . S
C1518 H1495 0.950 . S
C1518 C1517 1.397 . S
C1518 C1519 1.334 . S
C1519 H1496 0.950 . S
C1519 C1518 1.334 . S
C1519 C1520 1.287 . S
C1520 C1519 1.287 . S
C1520 C1521 1.556 . S
C1520 H1539 0.913 . S
C1521 H1497 0.866 1_554 S
C1521 C1520 1.556 . S
C1521 C1522 1.483 . S
C1522 H1498 0.950 . S
C1522 C1517 1.363 . S
C1522 C1521 1.483 . S
C1523 H1499 0.951 . S
C1523 C1524 1.366 . S
C1523 C1525 1.388 . S
C1524 C1523 1.366 . S
C1524 C1528 1.385 . S
C1525 H1500 0.951 . S
C1525 C1523 1.388 . S
C1525 C1526 1.366 . S
C1526 C1525 1.366 . S
C1526 C1527 1.414 . S
C1526 C1529 1.499 . S
C1527 H1501 0.950 . S
C1527 C1526 1.414 . S
C1527 C1528 1.374 . S
C1528 H1502 0.950 . S
C1528 C1524 1.385 . S
C1528 C1527 1.374 . S
C1529 C1526 1.499 . S
C1529 C1530 1.373 . S
C1529 C1531 1.389 . S
C1530 H1503 0.950 . S
C1530 C1516 1.377 . S
C1530 C1529 1.373 . S
C1531 C1515 1.377 . S
C1531 C1529 1.389 . S
C1531 C1532 1.524 . S
C1532 C1531 1.524 . S
C1532 C1533 1.397 . S
C1532 C1537 1.363 . S
C1533 H1504 0.950 . S
C1533 C1532 1.397 . S
C1533 C1534 1.334 . S
C1534 H1505 0.950 . S
C1534 C1533 1.334 . S
C1534 C1535 1.287 . S
C1535 C1534 1.287 . S
C1535 C1536 1.524 . S
C1535 H1538 0.999 . S
C1536 H1506 0.950 . S
C1536 C1535 1.524 . S
C1536 C1537 1.415 . S
C1537 H1507 0.950 . S
C1537 C1532 1.363 . S
C1537 C1536 1.415 . S
H1538 C1535 0.999 . S
H1539 C1520 0.913 . S
H1540 C1558 0.951 . S
H1541 C1560 0.951 . S
H1542 C1562 0.950 . S
H1543 C1563 0.950 . S
H1544 C1565 0.950 . S
H1545 C1568 0.950 1_554 S
H1546 C1569 0.950 . S
H1547 C1571 0.950 . S
H1548 C1572 0.918 1_554 S
H1549 C1573 0.951 . S
H1550 C1575 0.951 . S
H1551 C1577 0.950 . S
H1552 C1578 0.950 . S
H1553 C1580 0.950 . S
H1554 C1583 0.950 . S
H1555 C1584 0.950 . S
H1556 C1586 0.950 . S
H1557 C1587 0.950 . S
C1558 H1540 0.951 . S
C1558 C1559 1.366 . S
C1558 C1560 1.388 . S
C1559 C1558 1.366 . S
C1559 C1563 1.385 . S
C1560 H1541 0.951 . S
C1560 C1558 1.388 . S
C1560 C1561 1.366 . S
C1561 C1560 1.366 . S
C1561 C1562 1.414 . S
C1561 C1564 1.499 . S
C1562 H1542 0.950 . S
C1562 C1561 1.414 . S
C1562 C1563 1.374 . S
C1563 H1543 0.950 . S
C1563 C1559 1.385 . S
C1563 C1562 1.374 . S
C1564 C1561 1.499 . S
C1564 C1565 1.373 . S
C1564 C1566 1.389 . S
C1565 H1544 0.950 . S
C1565 C1564 1.373 . S
C1565 C1581 1.377 . S
C1566 C1564 1.389 . S
C1566 C1567 1.524 . S
C1566 C1580 1.377 . S
C1567 C1566 1.524 . S
C1567 C1568 1.397 1_554 S
C1567 C1572 1.330 1_554 S
C1568 H1545 0.950 1_556 S
C1568 C1567 1.397 1_556 S
C1568 C1569 1.334 . S
C1569 H1546 0.950 . S
C1569 C1568 1.334 . S
C1569 C1570 1.287 . S
C1570 C1569 1.287 . S
C1570 C1571 1.524 . S
C1570 H1589 0.913 . S
C1571 H1547 0.950 . S
C1571 C1570 1.524 . S
C1571 C1572 1.486 . S
C1572 H1548 0.918 1_556 S
C1572 C1567 1.330 1_556 S
C1572 C1571 1.486 . S
C1573 H1549 0.951 . S
C1573 C1574 1.366 . S
C1573 C1575 1.388 . S
C1574 C1573 1.366 . S
C1574 C1578 1.385 . S
C1575 H1550 0.951 . S
C1575 C1573 1.388 . S
C1575 C1576 1.366 . S
C1576 C1575 1.366 . S
C1576 C1577 1.414 . S
C1576 C1579 1.499 . S
C1577 H1551 0.950 . S
C1577 C1576 1.414 . S
C1577 C1578 1.374 . S
C1578 H1552 0.950 . S
C1578 C1574 1.385 . S
C1578 C1577 1.374 . S
C1579 C1576 1.499 . S
C1579 C1580 1.373 . S
C1579 C1581 1.389 . S
C1580 H1553 0.950 . S
C1580 C1566 1.377 . S
C1580 C1579 1.373 . S
C1581 C1565 1.377 . S
C1581 C1579 1.389 . S
C1581 C1582 1.524 . S
C1582 C1581 1.524 . S
C1582 C1583 1.397 . S
C1582 C1587 1.363 . S
C1583 H1554 0.950 . S
C1583 C1582 1.397 . S
C1583 C1584 1.334 . S
C1584 H1555 0.950 . S
C1584 C1583 1.334 . S
C1584 C1585 1.287 . S
C1585 C1584 1.287 . S
C1585 C1586 1.524 . S
C1585 H1588 0.999 . S
C1586 H1556 0.950 . S
C1586 C1585 1.524 . S
C1586 C1587 1.415 . S
C1587 H1557 0.950 . S
C1587 C1582 1.363 . S
C1587 C1586 1.415 . S
H1588 C1585 0.999 . S
H1589 C1570 0.913 . S
H1590 C1608 0.951 . S
H1591 C1610 0.951 . S
H1592 C1612 0.950 . S
H1593 C1613 0.950 . S
H1594 C1615 0.950 . S
H1595 C1618 0.950 . S
H1596 C1619 0.950 . S
H1597 C1621 0.950 . S
H1598 C1622 0.946 . S
H1599 C1623 0.951 . S
H1600 C1625 0.951 . S
H1601 C1627 0.937 1_554 S
H1602 C1628 0.950 1_554 S
H1603 C1630 0.950 . S
H1604 C1633 0.950 . S
H1605 C1634 0.999 . S
H1606 C1636 0.950 . S
H1607 C1637 0.950 . S
C1608 H1590 0.951 . S
C1608 C1609 1.366 . S
C1608 C1610 1.388 . S
C1609 C1608 1.366 . S
C1609 C1613 1.385 . S
C1610 H1591 0.951 . S
C1610 C1608 1.388 . S
C1610 C1611 1.366 . S
C1611 C1610 1.366 . S
C1611 C1612 1.414 . S
C1611 C1614 1.499 . S
C1612 H1592 0.950 . S
C1612 C1611 1.414 . S
C1612 C1613 1.374 . S
C1613 H1593 0.950 . S
C1613 C1609 1.385 . S
C1613 C1612 1.374 . S
C1614 C1611 1.499 . S
C1614 C1615 1.373 . S
C1614 C1616 1.389 . S
C1615 H1594 0.950 . S
C1615 C1614 1.373 . S
C1615 C1631 1.377 . S
C1616 C1614 1.389 . S
C1616 C1617 1.524 . S
C1616 C1630 1.377 . S
C1617 C1616 1.524 . S
C1617 C1618 1.397 . S
C1617 C1622 1.373 1_556 S
C1618 H1595 0.950 . S
C1618 C1617 1.397 . S
C1618 C1619 1.334 . S
C1619 H1596 0.950 . S
C1619 C1618 1.334 . S
C1619 C1620 1.287 . S
C1620 C1619 1.287 . S
C1620 C1621 1.524 1_556 S
C1620 H1639 0.913 1_556 S
C1621 H1597 0.950 . S
C1621 C1620 1.524 1_554 S
C1621 C1622 1.409 . S
C1622 H1598 0.946 . S
C1622 C1617 1.373 1_554 S
C1622 C1621 1.409 . S
C1623 H1599 0.951 . S
C1623 C1624 1.366 . S
C1623 C1625 1.388 . S
C1624 C1623 1.366 . S
C1624 C1628 1.385 . S
C1625 H1600 0.951 . S
C1625 C1623 1.388 . S
C1625 C1626 1.366 . S
C1626 C1625 1.366 . S
C1626 C1627 1.414 . S
C1626 C1629 1.499 . S
C1627 H1601 0.937 1_556 S
C1627 C1626 1.414 . S
C1627 C1628 1.374 . S
C1628 H1602 0.950 1_556 S
C1628 C1624 1.385 . S
C1628 C1627 1.374 . S
C1629 C1626 1.499 . S
C1629 C1630 1.373 . S
C1629 C1631 1.389 . S
C1630 H1603 0.950 . S
C1630 C1616 1.377 . S
C1630 C1629 1.373 . S
C1631 C1615 1.377 . S
C1631 C1629 1.389 . S
C1631 C1632 1.524 . S
C1632 C1631 1.524 . S
C1632 C1633 1.397 . S
C1632 C1637 1.363 . S
C1633 H1604 0.950 . S
C1633 C1632 1.397 . S
C1633 C1634 1.334 . S
C1634 H1605 0.999 . S
C1634 C1633 1.334 . S
C1634 C1635 1.287 . S
C1635 C1634 1.287 . S
C1635 C1636 1.524 . S
C1635 H1638 0.999 . S
C1636 H1606 0.950 . S
C1636 C1635 1.524 . S
C1636 C1637 1.415 . S
C1637 H1607 0.950 . S
C1637 C1632 1.363 . S
C1637 C1636 1.415 . S
H1638 C1635 0.999 . S
H1639 C1620 0.913 1_554 S
H1640 C1658 0.951 . S
H1641 C1660 0.951 . S
H1642 C1662 0.950 . S
H1643 C1663 0.950 . S
H1644 C1665 0.950 . S
H1645 C1668 0.950 . S
H1646 C1669 0.950 . S
H1647 C1671 0.950 . S
H1648 C1672 0.950 . S
H1649 C1673 0.951 . S
H1650 C1675 0.951 . S
H1651 C1677 0.950 . S
H1652 C1678 0.950 . S
H1653 C1680 0.950 . S
H1654 C1683 0.950 . S
H1655 C1684 0.950 1_554 S
H1656 C1686 0.950 . S
H1657 C1687 0.950 . S
C1658 H1640 0.951 . S
C1658 C1659 1.366 . S
C1658 C1660 1.388 . S
C1659 C1658 1.366 . S
C1659 C1663 1.385 . S
C1660 H1641 0.951 . S
C1660 C1658 1.388 . S
C1660 C1661 1.366 . S
C1661 C1660 1.366 . S
C1661 C1662 1.414 . S
C1661 C1664 1.499 . S
C1662 H1642 0.950 . S
C1662 C1661 1.414 . S
C1662 C1663 1.374 . S
C1663 H1643 0.950 . S
C1663 C1659 1.385 . S
C1663 C1662 1.374 . S
C1664 C1661 1.499 . S
C1664 C1665 1.373 . S
C1664 C1666 1.389 . S
C1665 H1644 0.950 . S
C1665 C1664 1.373 . S
C1665 C1681 1.377 . S
C1666 C1664 1.389 . S
C1666 C1667 1.524 . S
C1666 C1680 1.377 . S
C1667 C1666 1.524 . S
C1667 C1668 1.397 . S
C1667 C1672 1.363 . S
C1668 H1645 0.950 . S
C1668 C1667 1.397 . S
C1668 C1669 1.334 . S
C1669 H1646 0.950 . S
C1669 C1668 1.334 . S
C1669 C1670 1.287 . S
C1670 C1669 1.287 . S
C1670 C1671 1.524 . S
C1670 H1689 0.913 . S
C1671 H1647 0.950 . S
C1671 C1670 1.524 . S
C1671 C1672 1.415 . S
C1672 H1648 0.950 . S
C1672 C1667 1.363 . S
C1672 C1671 1.415 . S
C1673 H1649 0.951 . S
C1673 C1674 1.366 . S
C1673 C1675 1.388 . S
C1674 C1673 1.366 . S
C1674 C1678 1.385 . S
C1675 H1650 0.951 . S
C1675 C1673 1.388 . S
C1675 C1676 1.366 . S
C1676 C1675 1.366 . S
C1676 C1677 1.414 . S
C1676 C1679 1.499 . S
C1677 H1651 0.950 . S
C1677 C1676 1.414 . S
C1677 C1678 1.374 . S
C1678 H1652 0.950 . S
C1678 C1674 1.385 . S
C1678 C1677 1.374 . S
C1679 C1676 1.499 . S
C1679 C1680 1.373 . S
C1679 C1681 1.389 . S
C1680 H1653 0.950 . S
C1680 C1666 1.377 . S
C1680 C1679 1.373 . S
C1681 C1665 1.377 . S
C1681 C1679 1.389 . S
C1681 C1682 1.524 . S
C1682 C1681 1.524 . S
C1682 C1683 1.397 . S
C1682 C1687 1.363 . S
C1683 H1654 0.950 . S
C1683 C1682 1.397 . S
C1683 C1684 1.334 . S
C1684 H1655 0.950 1_556 S
C1684 C1683 1.334 . S
C1684 C1685 1.287 . S
C1685 C1684 1.287 . S
C1685 C1686 1.524 . S
C1685 H1688 0.999 . S
C1686 H1656 0.950 . S
C1686 C1685 1.524 . S
C1686 C1687 1.415 . S
C1687 H1657 0.950 . S
C1687 C1682 1.363 . S
C1687 C1686 1.415 . S
H1688 C1685 0.999 . S
H1689 C1670 0.913 . S
H1690 C1708 0.951 . S
H1691 C1710 0.951 . S
H1692 C1712 0.950 . S
H1693 C1713 0.950 . S
H1694 C1715 0.950 . S
H1695 C1718 0.950 . S
H1696 C1719 0.950 . S
H1697 C1721 0.950 . S
H1698 C1722 0.950 . S
H1699 C1723 0.951 1_554 S
H1700 C1725 0.951 . S
H1701 C1727 0.950 . S
H1702 C1728 0.950 . S
H1703 C1730 0.950 . S
H1704 C1733 0.950 . S
H1705 C1734 0.950 . S
H1706 C1736 0.950 . S
H1707 C1737 0.950 . S
C1708 H1690 0.951 . S
C1708 C1709 1.366 . S
C1708 C1710 1.388 . S
C1709 C1708 1.366 . S
C1709 C1713 1.385 . S
C1710 H1691 0.951 . S
C1710 C1708 1.388 . S
C1710 C1711 1.366 . S
C1711 C1710 1.366 . S
C1711 C1712 1.414 . S
C1711 C1714 1.499 . S
C1712 H1692 0.950 . S
C1712 C1711 1.414 . S
C1712 C1713 1.374 . S
C1713 H1693 0.950 . S
C1713 C1709 1.385 . S
C1713 C1712 1.374 . S
C1714 C1711 1.499 . S
C1714 C1715 1.373 . S
C1714 C1716 1.389 . S
C1715 H1694 0.950 . S
C1715 C1714 1.373 . S
C1715 C1731 1.377 . S
C1716 C1714 1.389 . S
C1716 C1717 1.524 . S
C1716 C1730 1.377 . S
C1717 C1716 1.524 . S
C1717 C1718 1.397 . S
C1717 C1722 1.363 . S
C1718 H1695 0.950 . S
C1718 C1717 1.397 . S
C1718 C1719 1.334 . S
C1719 H1696 0.950 . S
C1719 C1718 1.334 . S
C1719 C1720 1.287 . S
C1720 C1719 1.287 . S
C1720 C1721 1.524 . S
C1720 H1739 0.913 . S
C1721 H1697 0.950 . S
C1721 C1720 1.524 . S
C1721 C1722 1.415 . S
C1722 H1698 0.950 . S
C1722 C1717 1.363 . S
C1722 C1721 1.415 . S
C1723 H1699 0.951 1_556 S
C1723 C1724 1.366 . S
C1723 C1725 1.388 . S
C1724 C1723 1.366 . S
C1724 C1728 1.385 . S
C1725 H1700 0.951 . S
C1725 C1723 1.388 . S
C1725 C1726 1.366 . S
C1726 C1725 1.366 . S
C1726 C1727 1.414 . S
C1726 C1729 1.499 . S
C1727 H1701 0.950 . S
C1727 C1726 1.414 . S
C1727 C1728 1.374 . S
C1728 H1702 0.950 . S
C1728 C1724 1.385 . S
C1728 C1727 1.374 . S
C1729 C1726 1.499 . S
C1729 C1730 1.373 . S
C1729 C1731 1.389 . S
C1730 H1703 0.950 . S
C1730 C1716 1.377 . S
C1730 C1729 1.373 . S
C1731 C1715 1.377 . S
C1731 C1729 1.389 . S
C1731 C1732 1.524 . S
C1732 C1731 1.524 . S
C1732 C1733 1.397 . S
C1732 C1737 1.363 . S
C1733 H1704 0.950 . S
C1733 C1732 1.397 . S
C1733 C1734 1.334 . S
C1734 H1705 0.950 . S
C1734 C1733 1.334 . S
C1734 C1735 1.287 . S
C1735 C1734 1.287 . S
C1735 C1736 1.524 . S
C1735 H1738 0.999 . S
C1736 H1706 0.950 . S
C1736 C1735 1.524 . S
C1736 C1737 1.415 . S
C1737 H1707 0.950 . S
C1737 C1732 1.363 . S
C1737 C1736 1.415 . S
H1738 C1735 0.999 . S
H1739 C1720 0.913 . S
H1740 C1758 0.951 . S
H1741 C1760 0.951 . S
H1742 C1762 0.950 . S
H1743 C1763 0.950 . S
H1744 C1765 0.950 . S
H1745 C1768 0.950 . S
H1746 C1769 0.950 . S
H1747 C1771 0.950 . S
H1748 C1772 0.950 . S
H1749 C1773 0.951 1_554 S
H1750 C1775 0.951 . S
H1751 C1777 0.950 . S
H1752 C1778 0.950 . S
H1753 C1780 0.950 . S
H1754 C1783 0.950 . S
H1755 C1784 0.950 . S
H1756 C1786 0.950 . S
H1757 C1787 0.951 1_554 S
C1758 H1740 0.951 . S
C1758 C1759 1.366 . S
C1758 C1760 1.388 . S
C1759 C1758 1.366 . S
C1759 C1763 1.385 . S
C1760 H1741 0.951 . S
C1760 C1758 1.388 . S
C1760 C1761 1.366 . S
C1761 C1760 1.366 . S
C1761 C1762 1.414 . S
C1761 C1764 1.499 . S
C1762 H1742 0.950 . S
C1762 C1761 1.414 . S
C1762 C1763 1.374 . S
C1763 H1743 0.950 . S
C1763 C1759 1.385 . S
C1763 C1762 1.374 . S
C1764 C1761 1.499 . S
C1764 C1765 1.373 . S
C1764 C1766 1.389 . S
C1765 H1744 0.950 . S
C1765 C1764 1.373 . S
C1765 C1781 1.377 . S
C1766 C1764 1.389 . S
C1766 C1767 1.524 . S
C1766 C1780 1.377 . S
C1767 C1766 1.524 . S
C1767 C1768 1.397 . S
C1767 C1772 1.363 . S
C1768 H1745 0.950 . S
C1768 C1767 1.397 . S
C1768 C1769 1.334 . S
C1769 H1746 0.950 . S
C1769 C1768 1.334 . S
C1769 C1770 1.287 . S
C1770 C1769 1.287 . S
C1770 C1771 1.524 . S
C1770 H1789 0.913 . S
C1771 H1747 0.950 . S
C1771 C1770 1.524 . S
C1771 C1772 1.415 . S
C1772 H1748 0.950 . S
C1772 C1767 1.363 . S
C1772 C1771 1.415 . S
C1773 H1749 0.951 1_556 S
C1773 C1774 1.366 . S
C1773 C1775 1.388 . S
C1774 C1773 1.366 . S
C1774 C1778 1.385 . S
C1775 H1750 0.951 . S
C1775 C1773 1.388 . S
C1775 C1776 1.366 . S
C1776 C1775 1.366 . S
C1776 C1777 1.414 . S
C1776 C1779 1.499 . S
C1777 H1751 0.950 . S
C1777 C1776 1.414 . S
C1777 C1778 1.374 . S
C1778 H1752 0.950 . S
C1778 C1774 1.385 . S
C1778 C1777 1.374 . S
C1779 C1776 1.499 . S
C1779 C1780 1.373 . S
C1779 C1781 1.389 . S
C1780 H1753 0.950 . S
C1780 C1766 1.377 . S
C1780 C1779 1.373 . S
C1781 C1765 1.377 . S
C1781 C1779 1.389 . S
C1781 C1782 1.524 . S
C1782 C1781 1.524 . S
C1782 C1783 1.397 . S
C1782 C1787 1.361 . S
C1783 H1754 0.950 . S
C1783 C1782 1.397 . S
C1783 C1784 1.334 . S
C1784 H1755 0.950 . S
C1784 C1783 1.334 . S
C1784 C1785 1.287 1_556 S
C1785 C1784 1.287 1_554 S
C1785 C1786 1.524 . S
C1785 H1788 0.999 . S
C1786 H1756 0.950 . S
C1786 C1785 1.524 . S
C1786 C1787 1.417 1_554 S
C1787 H1757 0.951 1_556 S
C1787 C1782 1.361 . S
C1787 C1786 1.417 1_556 S
H1788 C1785 0.999 . S
H1789 C1770 0.913 . S
H1790 C1808 0.951 . S
H1791 C1810 0.951 . S
H1792 C1812 0.950 . S
H1793 C1813 0.950 . S
H1794 C1815 0.950 . S
H1795 C1818 0.950 . S
H1796 C1819 0.950 . S
H1797 C1821 0.950 . S
H1798 C1822 0.950 . S
H1799 C1823 0.951 . S
H1800 C1825 0.951 . S
H1801 C1827 0.950 . S
H1802 C1828 0.950 . S
H1803 C1830 0.950 . S
H1804 C1833 0.950 . S
H1805 C1834 0.950 . S
H1806 C1836 0.950 . S
H1807 C1837 0.950 . S
C1808 H1790 0.951 . S
C1808 C1809 1.366 . S
C1808 C1810 1.388 . S
C1809 C1808 1.366 . S
C1809 C1813 1.385 . S
C1810 H1791 0.951 . S
C1810 C1808 1.388 . S
C1810 C1811 1.366 . S
C1811 C1810 1.366 . S
C1811 C1812 1.414 . S
C1811 C1814 1.499 . S
C1812 H1792 0.950 . S
C1812 C1811 1.414 . S
C1812 C1813 1.374 . S
C1813 H1793 0.950 . S
C1813 C1809 1.385 . S
C1813 C1812 1.374 . S
C1814 C1811 1.499 . S
C1814 C1815 1.373 . S
C1814 C1816 1.389 . S
C1815 H1794 0.950 . S
C1815 C1814 1.373 . S
C1815 C1831 1.377 . S
C1816 C1814 1.389 . S
C1816 C1817 1.524 . S
C1816 C1830 1.377 . S
C1817 C1816 1.524 . S
C1817 C1818 1.397 . S
C1817 C1822 1.363 . S
C1818 H1795 0.950 . S
C1818 C1817 1.397 . S
C1818 C1819 1.334 . S
C1819 H1796 0.950 . S
C1819 C1818 1.334 . S
C1819 C1820 1.287 . S
C1820 C1819 1.287 . S
C1820 C1821 1.524 . S
C1820 H1839 0.913 1_556 S
C1821 H1797 0.950 . S
C1821 C1820 1.524 . S
C1821 C1822 1.415 . S
C1822 H1798 0.950 . S
C1822 C1817 1.363 . S
C1822 C1821 1.415 . S
C1823 H1799 0.951 . S
C1823 C1824 1.366 . S
C1823 C1825 1.388 . S
C1824 C1823 1.366 . S
C1824 C1828 1.385 . S
C1825 H1800 0.951 . S
C1825 C1823 1.388 . S
C1825 C1826 1.366 . S
C1826 C1825 1.366 . S
C1826 C1827 1.414 . S
C1826 C1829 1.499 . S
C1827 H1801 0.950 . S
C1827 C1826 1.414 . S
C1827 C1828 1.374 . S
C1828 H1802 0.950 . S
C1828 C1824 1.385 . S
C1828 C1827 1.374 . S
C1829 C1826 1.499 . S
C1829 C1830 1.373 . S
C1829 C1831 1.389 . S
C1830 H1803 0.950 . S
C1830 C1816 1.377 . S
C1830 C1829 1.373 . S
C1831 C1815 1.377 . S
C1831 C1829 1.389 . S
C1831 C1832 1.524 . S
C1832 C1831 1.524 . S
C1832 C1833 1.397 . S
C1832 C1837 1.363 . S
C1833 H1804 0.950 . S
C1833 C1832 1.397 . S
C1833 C1834 1.334 . S
C1834 H1805 0.950 . S
C1834 C1833 1.334 . S
C1834 C1835 1.287 . S
C1835 C1834 1.287 . S
C1835 C1836 1.524 . S
C1835 H1838 0.999 . S
C1836 H1806 0.950 . S
C1836 C1835 1.524 . S
C1836 C1837 1.415 . S
C1837 H1807 0.950 . S
C1837 C1832 1.363 . S
C1837 C1836 1.415 . S
H1838 C1835 0.999 . S
H1839 C1820 0.913 1_554 S
H1840 C1858 0.951 . S
H1841 C1860 0.951 . S
H1842 C1862 0.950 . S
H1843 C1863 0.950 . S
H1844 C1865 0.950 . S
H1845 C1868 0.950 . S
H1846 C1869 0.950 . S
H1847 C1871 0.950 . S
H1848 C1872 0.950 . S
H1849 C1873 0.951 . S
H1850 C1875 0.951 . S
H1851 C1877 0.957 . S
H1852 C1878 0.950 1_554 S
H1853 C1880 0.950 . S
H1854 C1883 0.950 . S
H1855 C1884 0.950 . S
H1856 C1886 0.950 . S
H1857 C1887 0.950 . S
C1858 H1840 0.951 . S
C1858 C1859 1.366 . S
C1858 C1860 1.388 . S
C1859 C1858 1.366 . S
C1859 C1863 1.385 . S
C1860 H1841 0.951 . S
C1860 C1858 1.388 . S
C1860 C1861 1.366 . S
C1861 C1860 1.366 . S
C1861 C1862 1.414 . S
C1861 C1864 1.499 . S
C1862 H1842 0.950 . S
C1862 C1861 1.414 . S
C1862 C1863 1.374 . S
C1863 H1843 0.950 . S
C1863 C1859 1.385 . S
C1863 C1862 1.374 . S
C1864 C1861 1.499 . S
C1864 C1865 1.373 . S
C1864 C1866 1.389 . S
C1865 H1844 0.950 . S
C1865 C1864 1.373 . S
C1865 C1881 1.377 . S
C1866 C1864 1.389 . S
C1866 C1867 1.524 . S
C1866 C1880 1.377 . S
C1867 C1866 1.524 . S
C1867 C1868 1.397 . S
C1867 C1872 1.363 1_556 S
C1868 H1845 0.950 . S
C1868 C1867 1.397 . S
C1868 C1869 1.334 1_556 S
C1869 H1846 0.950 . S
C1869 C1868 1.334 1_554 S
C1869 C1870 1.287 . S
C1870 C1869 1.287 . S
C1870 C1871 1.524 . S
C1870 H1889 0.913 . S
C1871 H1847 0.950 . S
C1871 C1870 1.524 . S
C1871 C1872 1.415 . S
C1872 H1848 0.950 . S
C1872 C1867 1.363 1_554 S
C1872 C1871 1.415 . S
C1873 H1849 0.951 . S
C1873 C1874 1.366 . S
C1873 C1875 1.388 . S
C1874 C1873 1.366 . S
C1874 C1878 1.385 . S
C1875 H1850 0.951 . S
C1875 C1873 1.388 . S
C1875 C1876 1.366 . S
C1876 C1875 1.366 . S
C1876 C1877 1.414 . S
C1876 C1879 1.499 . S
C1877 H1851 0.957 . S
C1877 C1876 1.414 . S
C1877 C1878 1.374 . S
C1878 H1852 0.950 1_556 S
C1878 C1874 1.385 . S
C1878 C1877 1.374 . S
C1879 C1876 1.499 . S
C1879 C1880 1.373 . S
C1879 C1881 1.389 . S
C1880 H1853 0.950 . S
C1880 C1866 1.377 . S
C1880 C1879 1.373 . S
C1881 C1865 1.377 . S
C1881 C1879 1.389 . S
C1881 C1882 1.524 . S
C1882 C1881 1.524 . S
C1882 C1883 1.397 . S
C1882 C1887 1.363 . S
C1883 H1854 0.950 . S
C1883 C1882 1.397 . S
C1883 C1884 1.334 . S
C1884 H1855 0.950 . S
C1884 C1883 1.334 . S
C1884 C1885 1.287 . S
C1885 C1884 1.287 . S
C1885 C1886 1.524 . S
C1885 H1888 0.999 . S
C1886 H1856 0.950 . S
C1886 C1885 1.524 . S
C1886 C1887 1.415 . S
C1887 H1857 0.950 . S
C1887 C1882 1.363 . S
C1887 C1886 1.415 . S
H1888 C1885 0.999 . S
H1889 C1870 0.913 . S
H1890 C1908 0.951 . S
H1891 C1910 0.951 . S
H1892 C1912 0.950 . S
H1893 C1913 0.950 . S
H1894 C1915 0.950 . S
H1895 C1918 0.950 . S
H1896 C1919 0.950 . S
H1897 C1921 0.950 . S
H1898 C1922 0.950 . S
H1899 C1923 0.951 . S
H1900 C1925 0.951 . S
H1901 C1927 0.950 . S
H1902 C1928 0.950 1_556 S
H1903 C1930 0.950 . S
H1904 C1933 0.950 . S
H1905 C1934 0.950 . S
H1906 C1936 0.950 . S
H1907 C1937 0.950 . S
C1908 H1890 0.951 . S
C1908 C1909 1.366 . S
C1908 C1910 1.388 . S
C1909 C1908 1.366 . S
C1909 C1913 1.385 . S
C1910 H1891 0.951 . S
C1910 C1908 1.388 . S
C1910 C1911 1.366 . S
C1911 C1910 1.366 . S
C1911 C1912 1.414 . S
C1911 C1914 1.499 . S
C1912 H1892 0.950 . S
C1912 C1911 1.414 . S
C1912 C1913 1.374 . S
C1913 H1893 0.950 . S
C1913 C1909 1.385 . S
C1913 C1912 1.374 . S
C1914 C1911 1.499 . S
C1914 C1915 1.373 . S
C1914 C1916 1.389 . S
C1915 H1894 0.950 . S
C1915 C1914 1.373 . S
C1915 C1931 1.377 . S
C1916 C1914 1.389 . S
C1916 C1917 1.524 . S
C1916 C1930 1.377 . S
C1917 C1916 1.524 . S
C1917 C1918 1.397 . S
C1917 C1922 1.363 . S
C1918 H1895 0.950 . S
C1918 C1917 1.397 . S
C1918 C1919 1.334 . S
C1919 H1896 0.950 . S
C1919 C1918 1.334 . S
C1919 C1920 1.287 . S
C1920 C1919 1.287 . S
C1920 C1921 1.524 . S
C1920 H1939 0.913 . S
C1921 H1897 0.950 . S
C1921 C1920 1.524 . S
C1921 C1922 1.415 . S
C1922 H1898 0.950 . S
C1922 C1917 1.363 . S
C1922 C1921 1.415 . S
C1923 H1899 0.951 . S
C1923 C1924 1.366 . S
C1923 C1925 1.388 . S
C1924 C1923 1.366 . S
C1924 C1928 1.385 . S
C1925 H1900 0.951 . S
C1925 C1923 1.388 . S
C1925 C1926 1.366 . S
C1926 C1925 1.366 . S
C1926 C1927 1.414 . S
C1926 C1929 1.499 . S
C1927 H1901 0.950 . S
C1927 C1926 1.414 . S
C1927 C1928 1.374 . S
C1928 H1902 0.950 1_554 S
C1928 C1924 1.385 . S
C1928 C1927 1.374 . S
C1929 C1926 1.499 . S
C1929 C1930 1.373 . S
C1929 C1931 1.389 . S
C1930 H1903 0.950 . S
C1930 C1916 1.377 . S
C1930 C1929 1.373 . S
C1931 C1915 1.377 . S
C1931 C1929 1.389 . S
C1931 C1932 1.524 . S
C1932 C1931 1.524 . S
C1932 C1933 1.397 . S
C1932 C1937 1.363 . S
C1933 H1904 0.950 . S
C1933 C1932 1.397 . S
C1933 C1934 1.334 . S
C1934 H1905 0.950 . S
C1934 C1933 1.334 . S
C1934 C1935 1.287 . S
C1935 C1934 1.287 . S
C1935 C1936 1.524 . S
C1935 H1938 0.999 . S
C1936 H1906 0.950 . S
C1936 C1935 1.524 . S
C1936 C1937 1.415 . S
C1937 H1907 0.950 . S
C1937 C1932 1.363 . S
C1937 C1936 1.415 . S
H1938 C1935 0.999 . S
H1939 C1920 0.913 . S
H1940 C1958 0.951 . S
H1941 C1960 0.951 . S
H1942 C1962 0.950 . S
H1943 C1963 0.950 . S
H1944 C1965 0.950 . S
H1945 C1968 0.950 . S
H1946 C1969 0.950 . S
H1947 C1971 0.950 1_556 S
H1948 C1972 0.950 . S
H1949 C1973 0.951 . S
H1950 C1975 0.951 . S
H1951 C1977 0.950 . S
H1952 C1978 0.950 . S
H1953 C1980 0.950 . S
H1954 C1983 0.950 . S
H1955 C1984 0.950 . S
H1956 C1986 0.950 . S
H1957 C1987 0.950 . S
C1958 H1940 0.951 . S
C1958 C1959 1.366 . S
C1958 C1960 1.388 . S
C1959 C1958 1.366 . S
C1959 C1963 1.385 . S
C1960 H1941 0.951 . S
C1960 C1958 1.388 . S
C1960 C1961 1.366 . S
C1961 C1960 1.366 . S
C1961 C1962 1.414 . S
C1961 C1964 1.499 . S
C1962 H1942 0.950 . S
C1962 C1961 1.414 . S
C1962 C1963 1.374 . S
C1963 H1943 0.950 . S
C1963 C1959 1.385 . S
C1963 C1962 1.374 . S
C1964 C1961 1.499 . S
C1964 C1965 1.373 . S
C1964 C1966 1.389 . S
C1965 H1944 0.950 . S
C1965 C1964 1.373 . S
C1965 C1981 1.377 . S
C1966 C1964 1.389 . S
C1966 C1967 1.524 . S
C1966 C1980 1.377 . S
C1967 C1966 1.524 . S
C1967 C1968 1.397 . S
C1967 C1972 1.363 . S
C1968 H1945 0.950 . S
C1968 C1967 1.397 . S
C1968 C1969 1.334 . S
C1969 H1946 0.950 . S
C1969 C1968 1.334 . S
C1969 C1970 1.287 . S
C1970 C1969 1.287 . S
C1970 C1971 1.524 . S
C1970 H1989 0.913 . S
C1971 H1947 0.950 1_554 S
C1971 C1970 1.524 . S
C1971 C1972 1.415 . S
C1972 H1948 0.950 . S
C1972 C1967 1.363 . S
C1972 C1971 1.415 . S
C1973 H1949 0.951 . S
C1973 C1974 1.366 . S
C1973 C1975 1.388 . S
C1974 C1973 1.366 . S
C1974 C1978 1.385 . S
C1975 H1950 0.951 . S
C1975 C1973 1.388 . S
C1975 C1976 1.366 . S
C1976 C1975 1.366 . S
C1976 C1977 1.414 . S
C1976 C1979 1.499 . S
C1977 H1951 0.950 . S
C1977 C1976 1.414 . S
C1977 C1978 1.374 . S
C1978 H1952 0.950 . S
C1978 C1974 1.385 . S
C1978 C1977 1.374 . S
C1979 C1976 1.499 . S
C1979 C1980 1.373 . S
C1979 C1981 1.389 . S
C1980 H1953 0.950 . S
C1980 C1966 1.377 . S
C1980 C1979 1.373 . S
C1981 C1965 1.377 . S
C1981 C1979 1.389 . S
C1981 C1982 1.524 . S
C1982 C1981 1.524 . S
C1982 C1983 1.397 . S
C1982 C1987 1.363 . S
C1983 H1954 0.950 . S
C1983 C1982 1.397 . S
C1983 C1984 1.334 . S
C1984 H1955 0.950 . S
C1984 C1983 1.334 . S
C1984 C1985 1.287 . S
C1985 C1984 1.287 . S
C1985 C1986 1.524 . S
C1985 H1988 0.999 . S
C1986 H1956 0.950 . S
C1986 C1985 1.524 . S
C1986 C1987 1.415 . S
C1987 H1957 0.950 . S
C1987 C1982 1.363 . S
C1987 C1986 1.415 . S
H1988 C1985 0.999 . S
H1989 C1970 0.913 . S
H1990 C2008 0.951 . S
H1991 C2010 0.951 . S
H1992 C2012 0.950 . S
H1993 C2013 0.950 . S
H1994 C2015 0.950 . S
H1995 C2018 0.950 . S
H1996 C2019 0.950 . S
H1997 C2021 0.950 . S
H1998 C2022 0.950 . S
H1999 C2023 0.951 . S
H2000 C2025 0.951 . S
H2001 C2027 0.950 . S
H2002 C2028 0.950 . S
H2003 C2030 0.950 . S
H2004 C2033 0.950 . S
H2005 C2034 0.950 . S
H2006 C2036 0.950 . S
H2007 C2037 0.950 1_554 S
C2008 H1990 0.951 . S
C2008 C2009 1.366 . S
C2008 C2010 1.388 . S
C2009 C2008 1.366 . S
C2009 C2013 1.385 . S
C2010 H1991 0.951 . S
C2010 C2008 1.388 . S
C2010 C2011 1.366 . S
C2011 C2010 1.366 . S
C2011 C2012 1.414 . S
C2011 C2014 1.499 . S
C2012 H1992 0.950 . S
C2012 C2011 1.414 . S
C2012 C2013 1.374 . S
C2013 H1993 0.950 . S
C2013 C2009 1.385 . S
C2013 C2012 1.374 . S
C2014 C2011 1.499 . S
C2014 C2015 1.373 . S
C2014 C2016 1.389 . S
C2015 H1994 0.950 . S
C2015 C2014 1.373 . S
C2015 C2031 1.377 . S
C2016 C2014 1.389 . S
C2016 C2017 1.524 . S
C2016 C2030 1.377 . S
C2017 C2016 1.524 . S
C2017 C2018 1.397 . S
C2017 C2022 1.363 . S
C2018 H1995 0.950 . S
C2018 C2017 1.397 . S
C2018 C2019 1.334 . S
C2019 H1996 0.950 . S
C2019 C2018 1.334 . S
C2019 C2020 1.287 . S
C2020 C2019 1.287 . S
C2020 C2021 1.524 . S
C2020 H2039 0.913 . S
C2021 H1997 0.950 . S
C2021 C2020 1.524 . S
C2021 C2022 1.415 . S
C2022 H1998 0.950 . S
C2022 C2017 1.363 . S
C2022 C2021 1.415 . S
C2023 H1999 0.951 . S
C2023 C2024 1.366 . S
C2023 C2025 1.388 . S
C2024 C2023 1.366 . S
C2024 C2028 1.385 . S
C2025 H2000 0.951 . S
C2025 C2023 1.388 . S
C2025 C2026 1.366 . S
C2026 C2025 1.366 . S
C2026 C2027 1.414 . S
C2026 C2029 1.499 . S
C2027 H2001 0.950 . S
C2027 C2026 1.414 . S
C2027 C2028 1.374 . S
C2028 H2002 0.950 . S
C2028 C2024 1.385 . S
C2028 C2027 1.374 . S
C2029 C2026 1.499 . S
C2029 C2030 1.373 . S
C2029 C2031 1.389 . S
C2030 H2003 0.950 . S
C2030 C2016 1.377 . S
C2030 C2029 1.373 . S
C2031 C2015 1.377 . S
C2031 C2029 1.389 . S
C2031 C2032 1.494 1_554 S
C2032 C2031 1.494 1_556 S
C2032 C2033 1.425 . S
C2032 C2037 1.366 . S
C2033 H2004 0.950 . S
C2033 C2032 1.425 . S
C2033 C2034 1.334 . S
C2034 H2005 0.950 . S
C2034 C2033 1.334 . S
C2034 C2035 1.287 . S
C2035 C2034 1.287 . S
C2035 C2036 1.524 . S
C2035 H2038 0.999 . S
C2036 H2006 0.950 . S
C2036 C2035 1.524 . S
C2036 C2037 1.415 . S
C2037 H2007 0.950 1_556 S
C2037 C2032 1.366 . S
C2037 C2036 1.415 . S
H2038 C2035 0.999 . S
H2039 C2020 0.913 . S
H2040 C2058 0.951 . S
H2041 C2060 0.951 . S
H2042 C2062 0.950 . S
H2043 C2063 0.950 . S
H2044 C2065 0.950 . S
H2045 C2068 0.950 . S
H2046 C2069 0.950 . S
H2047 C2071 0.950 . S
H2048 C2072 0.950 . S
H2049 C2073 0.951 . S
H2050 C2075 0.951 . S
H2051 C2077 0.950 . S
H2052 C2078 0.950 . S
H2053 C2080 0.950 . S
H2054 C2083 0.950 . S
H2055 C2084 0.950 . S
H2056 C2086 0.950 . S
H2057 C2087 0.950 . S
C2058 H2040 0.951 . S
C2058 C2059 1.366 . S
C2058 C2060 1.388 . S
C2059 C2058 1.366 . S
C2059 C2063 1.385 . S
C2060 H2041 0.951 . S
C2060 C2058 1.388 . S
C2060 C2061 1.366 . S
C2061 C2060 1.366 . S
C2061 C2062 1.414 . S
C2061 C2064 1.499 1_655 S
C2062 H2042 0.950 . S
C2062 C2061 1.414 . S
C2062 C2063 1.374 . S
C2063 H2043 0.950 . S
C2063 C2059 1.385 . S
C2063 C2062 1.374 . S
C2064 C2061 1.499 1_455 S
C2064 C2065 1.373 . S
C2064 C2066 1.389 . S
C2065 H2044 0.950 . S
C2065 C2064 1.373 . S
C2065 C2081 1.377 . S
C2066 C2064 1.389 . S
C2066 C2067 1.524 . S
C2066 C2080 1.377 . S
C2067 C2066 1.524 . S
C2067 C2068 1.397 . S
C2067 C2072 1.363 . S
C2068 H2045 0.950 . S
C2068 C2067 1.397 . S
C2068 C2069 1.334 . S
C2069 H2046 0.950 . S
C2069 C2068 1.334 . S
C2069 C2070 1.287 . S
C2070 C2069 1.287 . S
C2070 C2071 1.524 . S
C2070 H2089 0.913 . S
C2071 H2047 0.950 . S
C2071 C2070 1.524 . S
C2071 C2072 1.415 . S
C2072 H2048 0.950 . S
C2072 C2067 1.363 . S
C2072 C2071 1.415 . S
C2073 H2049 0.951 . S
C2073 C2074 1.366 . S
C2073 C2075 1.388 . S
C2074 C2073 1.366 . S
C2074 C2078 1.385 . S
C2075 H2050 0.951 . S
C2075 C2073 1.388 . S
C2075 C2076 1.366 . S
C2076 C2075 1.366 . S
C2076 C2077 1.414 . S
C2076 C2079 1.499 . S
C2077 H2051 0.950 . S
C2077 C2076 1.414 . S
C2077 C2078 1.374 . S
C2078 H2052 0.950 . S
C2078 C2074 1.385 . S
C2078 C2077 1.374 . S
C2079 C2076 1.499 . S
C2079 C2080 1.373 . S
C2079 C2081 1.389 . S
C2080 H2053 0.950 . S
C2080 C2066 1.377 . S
C2080 C2079 1.373 . S
C2081 C2065 1.377 . S
C2081 C2079 1.389 . S
C2081 C2082 1.524 . S
C2082 C2081 1.524 . S
C2082 C2083 1.397 . S
C2082 C2087 1.363 . S
C2083 H2054 0.950 . S
C2083 C2082 1.397 . S
C2083 C2084 1.334 . S
C2084 H2055 0.950 . S
C2084 C2083 1.334 . S
C2084 C2085 1.287 . S
C2085 C2084 1.287 . S
C2085 C2086 1.524 . S
C2085 H2088 0.999 . S
C2086 H2056 0.950 . S
C2086 C2085 1.524 . S
C2086 C2087 1.415 . S
C2087 H2057 0.950 . S
C2087 C2082 1.363 . S
C2087 C2086 1.415 . S
H2088 C2085 0.999 . S
H2089 C2070 0.913 . S
H2090 C2108 0.951 . S
H2091 C2110 0.951 . S
H2092 C2112 0.950 . S
H2093 C2113 0.950 . S
H2094 C2115 0.950 . S
H2095 C2118 0.950 . S
H2096 C2119 0.950 . S
H2097 C2121 0.950 . S
H2098 C2122 0.950 . S
H2099 C2123 0.951 . S
H2100 C2125 0.951 . S
H2101 C2127 0.950 . S
H2102 C2128 0.950 . S
H2103 C2130 0.950 . S
H2104 C2133 0.950 . S
H2105 C2134 0.950 . S
H2106 C2136 0.950 . S
H2107 C2137 0.950 . S
C2108 H2090 0.951 . S
C2108 C2109 1.366 . S
C2108 C2110 1.388 . S
C2109 C2108 1.366 . S
C2109 C2113 1.385 . S
C2110 H2091 0.951 . S
C2110 C2108 1.388 . S
C2110 C2111 1.366 . S
C2111 C2110 1.366 . S
C2111 C2112 1.414 . S
C2111 C2114 1.499 . S
C2112 H2092 0.950 . S
C2112 C2111 1.414 . S
C2112 C2113 1.374 . S
C2113 H2093 0.950 . S
C2113 C2109 1.385 . S
C2113 C2112 1.374 . S
C2114 C2111 1.499 . S
C2114 C2115 1.373 . S
C2114 C2116 1.389 . S
C2115 H2094 0.950 . S
C2115 C2114 1.373 . S
C2115 C2131 1.377 . S
C2116 C2114 1.389 . S
C2116 C2117 1.524 . S
C2116 C2130 1.377 . S
C2117 C2116 1.524 . S
C2117 C2118 1.397 . S
C2117 C2122 1.363 . S
C2118 H2095 0.950 . S
C2118 C2117 1.397 . S
C2118 C2119 1.334 . S
C2119 H2096 0.950 . S
C2119 C2118 1.334 . S
C2119 C2120 1.287 . S
C2120 C2119 1.287 . S
C2120 C2121 1.524 . S
C2120 H2139 0.913 . S
C2121 H2097 0.950 . S
C2121 C2120 1.524 . S
C2121 C2122 1.415 . S
C2122 H2098 0.950 . S
C2122 C2117 1.363 . S
C2122 C2121 1.415 . S
C2123 H2099 0.951 . S
C2123 C2124 1.366 . S
C2123 C2125 1.388 . S
C2124 C2123 1.366 . S
C2124 C2128 1.385 . S
C2125 H2100 0.951 . S
C2125 C2123 1.388 . S
C2125 C2126 1.366 . S
C2126 C2125 1.366 . S
C2126 C2127 1.414 . S
C2126 C2129 1.499 . S
C2127 H2101 0.950 . S
C2127 C2126 1.414 . S
C2127 C2128 1.374 . S
C2128 H2102 0.950 . S
C2128 C2124 1.385 . S
C2128 C2127 1.374 . S
C2129 C2126 1.499 . S
C2129 C2130 1.373 . S
C2129 C2131 1.389 . S
C2130 H2103 0.950 . S
C2130 C2116 1.377 . S
C2130 C2129 1.373 . S
C2131 C2115 1.377 . S
C2131 C2129 1.389 . S
C2131 C2132 1.524 . S
C2132 C2131 1.524 . S
C2132 C2133 1.397 . S
C2132 C2137 1.363 . S
C2133 H2104 0.950 . S
C2133 C2132 1.397 . S
C2133 C2134 1.334 . S
C2134 H2105 0.950 . S
C2134 C2133 1.334 . S
C2134 C2135 1.287 . S
C2135 C2134 1.287 . S
C2135 C2136 1.524 . S
C2135 H2138 0.999 . S
C2136 H2106 0.950 . S
C2136 C2135 1.524 . S
C2136 C2137 1.415 . S
C2137 H2107 0.950 . S
C2137 C2132 1.363 . S
C2137 C2136 1.415 . S
H2138 C2135 0.999 . S
H2139 C2120 0.913 . S
H2140 C2158 0.951 . S
H2141 C2160 0.951 . S
H2142 C2162 0.950 . S
H2143 C2163 0.950 . S
H2144 C2165 0.950 . S
H2145 C2168 0.950 . S
H2146 C2169 0.950 . S
H2147 C2171 0.950 . S
H2148 C2172 0.950 . S
H2149 C2173 0.951 . S
H2150 C2175 0.951 . S
H2151 C2177 0.950 . S
H2152 C2178 0.950 . S
H2153 C2180 0.950 . S
H2154 C2183 0.950 . S
H2155 C2184 0.950 . S
H2156 C2186 0.950 . S
H2157 C2187 0.950 . S
C2158 H2140 0.951 . S
C2158 C2159 1.366 . S
C2158 C2160 1.388 . S
C2159 C2158 1.366 . S
C2159 C2163 1.385 . S
C2160 H2141 0.951 . S
C2160 C2158 1.388 . S
C2160 C2161 1.366 . S
C2161 C2160 1.366 . S
C2161 C2162 1.414 . S
C2161 C2164 1.499 . S
C2162 H2142 0.950 . S
C2162 C2161 1.414 . S
C2162 C2163 1.374 . S
C2163 H2143 0.950 . S
C2163 C2159 1.385 . S
C2163 C2162 1.374 . S
C2164 C2161 1.499 . S
C2164 C2165 1.373 1_545 S
C2164 C2166 1.389 1_545 S
C2165 H2144 0.950 . S
C2165 C2164 1.373 1_565 S
C2165 C2181 1.377 . S
C2166 C2164 1.389 1_565 S
C2166 C2167 1.524 1_565 S
C2166 C2180 1.377 . S
C2167 C2166 1.524 1_545 S
C2167 C2168 1.397 . S
C2167 C2172 1.363 1_545 S
C2168 H2145 0.950 . S
C2168 C2167 1.397 . S
C2168 C2169 1.334 . S
C2169 H2146 0.950 . S
C2169 C2168 1.334 . S
C2169 C2170 1.287 . S
C2170 C2169 1.287 . S
C2170 C2171 1.524 . S
C2170 H2189 0.913 . S
C2171 H2147 0.950 . S
C2171 C2170 1.524 . S
C2171 C2172 1.415 1_545 S
C2172 H2148 0.950 . S
C2172 C2167 1.363 1_565 S
C2172 C2171 1.415 1_565 S
C2173 H2149 0.951 . S
C2173 C2174 1.366 . S
C2173 C2175 1.388 . S
C2174 C2173 1.366 . S
C2174 C2178 1.385 . S
C2175 H2150 0.951 . S
C2175 C2173 1.388 . S
C2175 C2176 1.366 . S
C2176 C2175 1.366 . S
C2176 C2177 1.414 . S
C2176 C2179 1.499 . S
C2177 H2151 0.950 . S
C2177 C2176 1.414 . S
C2177 C2178 1.374 . S
C2178 H2152 0.950 . S
C2178 C2174 1.385 . S
C2178 C2177 1.374 . S
C2179 C2176 1.499 . S
C2179 C2180 1.373 . S
C2179 C2181 1.389 . S
C2180 H2153 0.950 . S
C2180 C2166 1.377 . S
C2180 C2179 1.373 . S
C2181 C2165 1.377 . S
C2181 C2179 1.389 . S
C2181 C2182 1.524 . S
C2182 C2181 1.524 . S
C2182 C2183 1.397 . S
C2182 C2187 1.363 . S
C2183 H2154 0.950 . S
C2183 C2182 1.397 . S
C2183 C2184 1.334 . S
C2184 H2155 0.950 . S
C2184 C2183 1.334 . S
C2184 C2185 1.287 . S
C2185 C2184 1.287 . S
C2185 C2186 1.524 . S
C2185 H2188 0.999 . S
C2186 H2156 0.950 . S
C2186 C2185 1.524 . S
C2186 C2187 1.415 . S
C2187 H2157 0.950 . S
C2187 C2182 1.363 . S
C2187 C2186 1.415 . S
H2188 C2185 0.999 . S
H2189 C2170 0.913 . S
H2190 C2208 0.951 . S
H2191 C2210 0.951 . S
H2192 C2212 0.950 . S
H2193 C2213 0.950 . S
H2194 C2215 0.950 . S
H2195 C2218 0.950 . S
H2196 C2219 0.950 . S
H2197 C2221 0.950 . S
H2198 C2222 0.950 . S
H2199 C2223 0.951 . S
H2200 C2225 0.951 . S
H2201 C2227 0.950 . S
H2202 C2228 0.950 . S
H2203 C2230 0.950 . S
H2204 C2233 0.950 . S
H2205 C2234 0.950 . S
H2206 C2236 0.950 . S
H2207 C2237 0.950 . S
C2208 H2190 0.951 . S
C2208 C2209 1.366 . S
C2208 C2210 1.388 . S
C2209 C2208 1.366 . S
C2209 C2213 1.385 . S
C2210 H2191 0.951 . S
C2210 C2208 1.388 . S
C2210 C2211 1.366 . S
C2211 C2210 1.366 . S
C2211 C2212 1.414 . S
C2211 C2214 1.499 . S
C2212 H2192 0.950 . S
C2212 C2211 1.414 . S
C2212 C2213 1.374 . S
C2213 H2193 0.950 . S
C2213 C2209 1.385 . S
C2213 C2212 1.374 . S
C2214 C2211 1.499 . S
C2214 C2215 1.373 . S
C2214 C2216 1.389 . S
C2215 H2194 0.950 . S
C2215 C2214 1.373 . S
C2215 C2231 1.377 . S
C2216 C2214 1.389 . S
C2216 C2217 1.524 . S
C2216 C2230 1.377 . S
C2217 C2216 1.524 . S
C2217 C2218 1.397 . S
C2217 C2222 1.363 . S
C2218 H2195 0.950 . S
C2218 C2217 1.397 . S
C2218 C2219 1.334 . S
C2219 H2196 0.950 . S
C2219 C2218 1.334 . S
C2219 C2220 1.287 . S
C2220 C2219 1.287 . S
C2220 C2221 1.524 . S
C2220 H2239 0.913 . S
C2221 H2197 0.950 . S
C2221 C2220 1.524 . S
C2221 C2222 1.415 . S
C2222 H2198 0.950 . S
C2222 C2217 1.363 . S
C2222 C2221 1.415 . S
C2223 H2199 0.951 . S
C2223 C2224 1.366 . S
C2223 C2225 1.388 . S
C2224 C2223 1.366 . S
C2224 C2228 1.385 . S
C2225 H2200 0.951 . S
C2225 C2223 1.388 . S
C2225 C2226 1.366 . S
C2226 C2225 1.366 . S
C2226 C2227 1.414 . S
C2226 C2229 1.499 . S
C2227 H2201 0.950 . S
C2227 C2226 1.414 . S
C2227 C2228 1.374 . S
C2228 H2202 0.950 . S
C2228 C2224 1.385 . S
C2228 C2227 1.374 . S
C2229 C2226 1.499 . S
C2229 C2230 1.373 . S
C2229 C2231 1.389 . S
C2230 H2203 0.950 . S
C2230 C2216 1.377 . S
C2230 C2229 1.373 . S
C2231 C2215 1.377 . S
C2231 C2229 1.389 . S
C2231 C2232 1.524 . S
C2232 C2231 1.524 . S
C2232 C2233 1.397 . S
C2232 C2237 1.363 . S
C2233 H2204 0.950 . S
C2233 C2232 1.397 . S
C2233 C2234 1.334 . S
C2234 H2205 0.950 . S
C2234 C2233 1.334 . S
C2234 C2235 1.287 . S
C2235 C2234 1.287 . S
C2235 C2236 1.524 . S
C2235 H2238 0.999 . S
C2236 H2206 0.950 . S
C2236 C2235 1.524 . S
C2236 C2237 1.415 . S
C2237 H2207 0.950 . S
C2237 C2232 1.363 . S
C2237 C2236 1.415 . S
H2238 C2235 0.999 . S
H2239 C2220 0.913 . S
H2240 C2258 0.951 . S
H2241 C2260 0.951 . S
H2242 C2262 0.950 . S
H2243 C2263 0.950 . S
H2244 C2265 0.950 . S
H2245 C2268 0.950 . S
H2246 C2269 0.950 . S
H2247 C2271 0.950 . S
H2248 C2272 0.950 . S
H2249 C2273 0.951 . S
H2250 C2275 0.951 . S
H2251 C2277 0.950 . S
H2252 C2278 0.950 . S
H2253 C2280 0.950 . S
H2254 C2283 0.950 . S
H2255 C2284 0.950 . S
H2256 C2286 0.950 . S
H2257 C2287 0.950 . S
C2258 H2240 0.951 . S
C2258 C2259 1.366 . S
C2258 C2260 1.388 . S
C2259 C2258 1.366 . S
C2259 C2263 1.385 . S
C2260 H2241 0.951 . S
C2260 C2258 1.388 . S
C2260 C2261 1.366 . S
C2261 C2260 1.366 . S
C2261 C2262 1.414 . S
C2261 C2264 1.499 . S
C2262 H2242 0.950 . S
C2262 C2261 1.414 . S
C2262 C2263 1.374 . S
C2263 H2243 0.950 . S
C2263 C2259 1.385 . S
C2263 C2262 1.374 . S
C2264 C2261 1.499 . S
C2264 C2265 1.373 . S
C2264 C2266 1.389 . S
C2265 H2244 0.950 . S
C2265 C2264 1.373 . S
C2265 C2281 1.377 . S
C2266 C2264 1.389 . S
C2266 C2267 1.524 . S
C2266 C2280 1.377 . S
C2267 C2266 1.524 . S
C2267 C2268 1.397 . S
C2267 C2272 1.363 . S
C2268 H2245 0.950 . S
C2268 C2267 1.397 . S
C2268 C2269 1.334 . S
C2269 H2246 0.950 . S
C2269 C2268 1.334 . S
C2269 C2270 1.287 . S
C2270 C2269 1.287 . S
C2270 C2271 1.524 . S
C2270 H2289 0.913 . S
C2271 H2247 0.950 . S
C2271 C2270 1.524 . S
C2271 C2272 1.415 . S
C2272 H2248 0.950 . S
C2272 C2267 1.363 . S
C2272 C2271 1.415 . S
C2273 H2249 0.951 . S
C2273 C2274 1.366 . S
C2273 C2275 1.388 . S
C2274 C2273 1.366 . S
C2274 C2278 1.385 . S
C2275 H2250 0.951 . S
C2275 C2273 1.388 . S
C2275 C2276 1.366 . S
C2276 C2275 1.366 . S
C2276 C2277 1.414 . S
C2276 C2279 1.499 . S
C2277 H2251 0.950 . S
C2277 C2276 1.414 . S
C2277 C2278 1.374 . S
C2278 H2252 0.950 . S
C2278 C2274 1.385 . S
C2278 C2277 1.374 . S
C2279 C2276 1.499 . S
C2279 C2280 1.373 . S
C2279 C2281 1.389 . S
C2280 H2253 0.950 . S
C2280 C2266 1.377 . S
C2280 C2279 1.373 . S
C2281 C2265 1.377 . S
C2281 C2279 1.389 . S
C2281 C2282 1.524 . S
C2282 C2281 1.524 . S
C2282 C2283 1.397 . S
C2282 C2287 1.363 . S
C2283 H2254 0.950 . S
C2283 C2282 1.397 . S
C2283 C2284 1.334 . S
C2284 H2255 0.950 . S
C2284 C2283 1.334 . S
C2284 C2285 1.287 . S
C2285 C2284 1.287 . S
C2285 C2286 1.524 . S
C2285 H2288 0.999 . S
C2286 H2256 0.950 . S
C2286 C2285 1.524 . S
C2286 C2287 1.415 . S
C2287 H2257 0.950 . S
C2287 C2282 1.363 . S
C2287 C2286 1.415 . S
H2288 C2285 0.999 . S
H2289 C2270 0.913 . S
H2290 C2308 0.951 . S
H2291 C2310 0.951 . S
H2292 C2312 0.950 . S
H2293 C2313 0.950 . S
H2294 C2315 0.950 . S
H2295 C2318 0.950 . S
H2296 C2319 0.950 . S
H2297 C2321 0.950 . S
H2298 C2322 0.950 . S
H2299 C2323 0.951 . S
H2300 C2325 0.951 . S
H2301 C2327 0.950 . S
H2302 C2328 0.950 . S
H2303 C2330 0.950 . S
H2304 C2333 0.950 . S
H2305 C2334 0.950 . S
H2306 C2336 0.950 . S
H2307 C2337 0.950 . S
C2308 H2290 0.951 . S
C2308 C2309 1.366 . S
C2308 C2310 1.388 . S
C2309 C2308 1.366 . S
C2309 C2313 1.385 . S
C2310 H2291 0.951 . S
C2310 C2308 1.388 . S
C2310 C2311 1.366 . S
C2311 C2310 1.366 . S
C2311 C2312 1.414 . S
C2311 C2314 1.499 . S
C2312 H2292 0.950 . S
C2312 C2311 1.414 . S
C2312 C2313 1.374 . S
C2313 H2293 0.950 . S
C2313 C2309 1.385 . S
C2313 C2312 1.374 . S
C2314 C2311 1.499 . S
C2314 C2315 1.373 . S
C2314 C2316 1.389 . S
C2315 H2294 0.950 . S
C2315 C2314 1.373 . S
C2315 C2331 1.377 . S
C2316 C2314 1.389 . S
C2316 C2317 1.524 . S
C2316 C2330 1.377 . S
C2317 C2316 1.524 . S
C2317 C2318 1.397 . S
C2317 C2322 1.363 . S
C2318 H2295 0.950 . S
C2318 C2317 1.397 . S
C2318 C2319 1.334 . S
C2319 H2296 0.950 . S
C2319 C2318 1.334 . S
C2319 C2320 1.287 . S
C2320 C2319 1.287 . S
C2320 C2321 1.524 . S
C2320 H2339 0.913 . S
C2321 H2297 0.950 . S
C2321 C2320 1.524 . S
C2321 C2322 1.415 . S
C2322 H2298 0.950 . S
C2322 C2317 1.363 . S
C2322 C2321 1.415 . S
C2323 H2299 0.951 . S
C2323 C2324 1.366 . S
C2323 C2325 1.388 . S
C2324 C2323 1.366 . S
C2324 C2328 1.385 . S
C2325 H2300 0.951 . S
C2325 C2323 1.388 . S
C2325 C2326 1.366 . S
C2326 C2325 1.366 . S
C2326 C2327 1.414 . S
C2326 C2329 1.499 . S
C2327 H2301 0.950 . S
C2327 C2326 1.414 . S
C2327 C2328 1.374 . S
C2328 H2302 0.950 . S
C2328 C2324 1.385 . S
C2328 C2327 1.374 . S
C2329 C2326 1.499 . S
C2329 C2330 1.373 . S
C2329 C2331 1.389 . S
C2330 H2303 0.950 . S
C2330 C2316 1.377 . S
C2330 C2329 1.373 . S
C2331 C2315 1.377 . S
C2331 C2329 1.389 . S
C2331 C2332 1.524 . S
C2332 C2331 1.524 . S
C2332 C2333 1.397 . S
C2332 C2337 1.363 . S
C2333 H2304 0.950 . S
C2333 C2332 1.397 . S
C2333 C2334 1.334 . S
C2334 H2305 0.950 . S
C2334 C2333 1.334 . S
C2334 C2335 1.287 . S
C2335 C2334 1.287 . S
C2335 C2336 1.524 . S
C2335 H2338 0.999 . S
C2336 H2306 0.950 . S
C2336 C2335 1.524 . S
C2336 C2337 1.415 . S
C2337 H2307 0.950 . S
C2337 C2332 1.363 . S
C2337 C2336 1.415 . S
H2338 C2335 0.999 . S
H2339 C2320 0.913 . S
H2340 C2358 0.951 . S
H2341 C2360 0.951 . S
H2342 C2362 0.950 . S
H2343 C2363 0.950 . S
H2344 C2365 0.950 . S
H2345 C2368 0.950 . S
H2346 C2369 0.950 . S
H2347 C2371 0.950 . S
H2348 C2372 0.950 . S
H2349 C2373 0.951 . S
H2350 C2375 0.951 . S
H2351 C2377 0.950 . S
H2352 C2378 0.950 . S
H2353 C2380 0.950 . S
H2354 C2383 0.950 . S
H2355 C2384 0.950 . S
H2356 C2386 0.950 . S
H2357 C2387 0.950 . S
C2358 H2340 0.951 . S
C2358 C2359 1.366 . S
C2358 C2360 1.388 . S
C2359 C2358 1.366 . S
C2359 C2363 1.385 . S
C2360 H2341 0.951 . S
C2360 C2358 1.388 . S
C2360 C2361 1.366 . S
C2361 C2360 1.366 . S
C2361 C2362 1.414 . S
C2361 C2364 1.499 . S
C2362 H2342 0.950 . S
C2362 C2361 1.414 . S
C2362 C2363 1.374 . S
C2363 H2343 0.950 . S
C2363 C2359 1.385 . S
C2363 C2362 1.374 . S
C2364 C2361 1.499 . S
C2364 C2365 1.373 . S
C2364 C2366 1.389 . S
C2365 H2344 0.950 . S
C2365 C2364 1.373 . S
C2365 C2381 1.377 . S
C2366 C2364 1.389 . S
C2366 C2367 1.524 . S
C2366 C2380 1.377 . S
C2367 C2366 1.524 . S
C2367 C2368 1.397 . S
C2367 C2372 1.363 . S
C2368 H2345 0.950 . S
C2368 C2367 1.397 . S
C2368 C2369 1.334 . S
C2369 H2346 0.950 . S
C2369 C2368 1.334 . S
C2369 C2370 1.287 . S
C2370 C2369 1.287 . S
C2370 C2371 1.524 . S
C2370 H2389 0.913 . S
C2371 H2347 0.950 . S
C2371 C2370 1.524 . S
C2371 C2372 1.415 . S
C2372 H2348 0.950 . S
C2372 C2367 1.363 . S
C2372 C2371 1.415 . S
C2373 H2349 0.951 . S
C2373 C2374 1.366 . S
C2373 C2375 1.388 . S
C2374 C2373 1.366 . S
C2374 C2378 1.385 . S
C2375 H2350 0.951 . S
C2375 C2373 1.388 . S
C2375 C2376 1.366 . S
C2376 C2375 1.366 . S
C2376 C2377 1.414 . S
C2376 C2379 1.499 . S
C2377 H2351 0.950 . S
C2377 C2376 1.414 . S
C2377 C2378 1.374 . S
C2378 H2352 0.950 . S
C2378 C2374 1.385 . S
C2378 C2377 1.374 . S
C2379 C2376 1.499 . S
C2379 C2380 1.373 . S
C2379 C2381 1.389 . S
C2380 H2353 0.950 . S
C2380 C2366 1.377 . S
C2380 C2379 1.373 . S
C2381 C2365 1.377 . S
C2381 C2379 1.389 . S
C2381 C2382 1.524 . S
C2382 C2381 1.524 . S
C2382 C2383 1.397 . S
C2382 C2387 1.363 . S
C2383 H2354 0.950 . S
C2383 C2382 1.397 . S
C2383 C2384 1.334 . S
C2384 H2355 0.950 . S
C2384 C2383 1.334 . S
C2384 C2385 1.287 . S
C2385 C2384 1.287 . S
C2385 C2386 1.524 . S
C2385 H2388 0.999 . S
C2386 H2356 0.950 . S
C2386 C2385 1.524 . S
C2386 C2387 1.415 . S
C2387 H2357 0.950 . S
C2387 C2382 1.363 . S
C2387 C2386 1.415 . S
H2388 C2385 0.999 . S
H2389 C2370 0.913 . S
H2390 C2408 0.951 . S
H2391 C2410 0.951 . S
H2392 C2412 0.950 . S
H2393 C2413 0.950 . S
H2394 C2415 0.950 . S
H2395 C2418 0.950 . S
H2396 C2419 0.950 . S
H2397 C2421 0.950 . S
H2398 C2422 0.950 . S
H2399 C2423 0.951 . S
H2400 C2425 0.951 . S
H2401 C2427 0.950 . S
H2402 C2428 0.950 . S
H2403 C2430 0.950 . S
H2404 C2433 0.950 . S
H2405 C2434 0.950 . S
H2406 C2436 0.950 . S
H2407 C2437 0.950 . S
C2408 H2390 0.951 . S
C2408 C2409 1.366 . S
C2408 C2410 1.388 . S
C2409 C2408 1.366 . S
C2409 C2413 1.385 . S
C2410 H2391 0.951 . S
C2410 C2408 1.388 . S
C2410 C2411 1.366 . S
C2411 C2410 1.366 . S
C2411 C2412 1.414 . S
C2411 C2414 1.499 . S
C2412 H2392 0.950 . S
C2412 C2411 1.414 . S
C2412 C2413 1.374 . S
C2413 H2393 0.950 . S
C2413 C2409 1.385 . S
C2413 C2412 1.374 . S
C2414 C2411 1.499 . S
C2414 C2415 1.373 . S
C2414 C2416 1.389 . S
C2415 H2394 0.950 . S
C2415 C2414 1.373 . S
C2415 C2431 1.377 . S
C2416 C2414 1.389 . S
C2416 C2417 1.524 . S
C2416 C2430 1.377 . S
C2417 C2416 1.524 . S
C2417 C2418 1.397 . S
C2417 C2422 1.363 . S
C2418 H2395 0.950 . S
C2418 C2417 1.397 . S
C2418 C2419 1.334 . S
C2419 H2396 0.950 . S
C2419 C2418 1.334 . S
C2419 C2420 1.287 . S
C2420 C2419 1.287 . S
C2420 C2421 1.524 . S
C2420 H2439 0.913 . S
C2421 H2397 0.950 . S
C2421 C2420 1.524 . S
C2421 C2422 1.415 . S
C2422 H2398 0.950 . S
C2422 C2417 1.363 . S
C2422 C2421 1.415 . S
C2423 H2399 0.951 . S
C2423 C2424 1.366 . S
C2423 C2425 1.388 . S
C2424 C2423 1.366 . S
C2424 C2428 1.385 . S
C2425 H2400 0.951 . S
C2425 C2423 1.388 . S
C2425 C2426 1.366 . S
C2426 C2425 1.366 . S
C2426 C2427 1.414 . S
C2426 C2429 1.499 . S
C2427 H2401 0.950 . S
C2427 C2426 1.414 . S
C2427 C2428 1.374 . S
C2428 H2402 0.950 . S
C2428 C2424 1.385 . S
C2428 C2427 1.374 . S
C2429 C2426 1.499 . S
C2429 C2430 1.373 . S
C2429 C2431 1.389 . S
C2430 H2403 0.950 . S
C2430 C2416 1.377 . S
C2430 C2429 1.373 . S
C2431 C2415 1.377 . S
C2431 C2429 1.389 . S
C2431 C2432 1.524 . S
C2432 C2431 1.524 . S
C2432 C2433 1.397 . S
C2432 C2437 1.363 . S
C2433 H2404 0.950 . S
C2433 C2432 1.397 . S
C2433 C2434 1.334 . S
C2434 H2405 0.950 . S
C2434 C2433 1.334 . S
C2434 C2435 1.287 . S
C2435 C2434 1.287 . S
C2435 C2436 1.524 . S
C2435 H2438 0.999 . S
C2436 H2406 0.950 . S
C2436 C2435 1.524 . S
C2436 C2437 1.415 . S
C2437 H2407 0.950 . S
C2437 C2432 1.363 . S
C2437 C2436 1.415 . S
H2438 C2435 0.999 . S
H2439 C2420 0.913 . S
H2440 C2458 0.951 . S
H2441 C2460 0.951 . S
H2442 C2462 0.950 . S
H2443 C2463 0.950 . S
H2444 C2465 0.950 . S
H2445 C2468 0.950 . S
H2446 C2469 0.950 . S
H2447 C2471 0.950 . S
H2448 C2472 0.950 . S
H2449 C2473 0.951 . S
H2450 C2475 0.951 . S
H2451 C2477 0.950 . S
H2452 C2478 0.950 . S
H2453 C2480 0.950 . S
H2454 C2483 0.950 . S
H2455 C2484 0.950 . S
H2456 C2486 0.950 . S
H2457 C2487 0.950 . S
C2458 H2440 0.951 . S
C2458 C2459 1.366 . S
C2458 C2460 1.388 . S
C2459 C2458 1.366 . S
C2459 C2463 1.385 . S
C2460 H2441 0.951 . S
C2460 C2458 1.388 . S
C2460 C2461 1.366 . S
C2461 C2460 1.366 . S
C2461 C2462 1.414 . S
C2461 C2464 1.499 . S
C2462 H2442 0.950 . S
C2462 C2461 1.414 . S
C2462 C2463 1.374 . S
C2463 H2443 0.950 . S
C2463 C2459 1.385 . S
C2463 C2462 1.374 . S
C2464 C2461 1.499 . S
C2464 C2465 1.373 . S
C2464 C2466 1.389 . S
C2465 H2444 0.950 . S
C2465 C2464 1.373 . S
C2465 C2481 1.377 . S
C2466 C2464 1.389 . S
C2466 C2467 1.524 . S
C2466 C2480 1.377 . S
C2467 C2466 1.524 . S
C2467 C2468 1.397 . S
C2467 C2472 1.363 . S
C2468 H2445 0.950 . S
C2468 C2467 1.397 . S
C2468 C2469 1.334 . S
C2469 H2446 0.950 . S
C2469 C2468 1.334 . S
C2469 C2470 1.287 . S
C2470 C2469 1.287 . S
C2470 C2471 1.524 . S
C2470 H2489 0.913 . S
C2471 H2447 0.950 . S
C2471 C2470 1.524 . S
C2471 C2472 1.415 . S
C2472 H2448 0.950 . S
C2472 C2467 1.363 . S
C2472 C2471 1.415 . S
C2473 H2449 0.951 . S
C2473 C2474 1.366 . S
C2473 C2475 1.388 . S
C2474 C2473 1.366 . S
C2474 C2478 1.385 . S
C2475 H2450 0.951 . S
C2475 C2473 1.388 . S
C2475 C2476 1.366 . S
C2476 C2475 1.366 . S
C2476 C2477 1.414 . S
C2476 C2479 1.499 . S
C2477 H2451 0.950 . S
C2477 C2476 1.414 . S
C2477 C2478 1.374 . S
C2478 H2452 0.950 . S
C2478 C2474 1.385 . S
C2478 C2477 1.374 . S
C2479 C2476 1.499 . S
C2479 C2480 1.373 . S
C2479 C2481 1.389 . S
C2480 H2453 0.950 . S
C2480 C2466 1.377 . S
C2480 C2479 1.373 . S
C2481 C2465 1.377 . S
C2481 C2479 1.389 . S
C2481 C2482 1.524 . S
C2482 C2481 1.524 . S
C2482 C2483 1.397 . S
C2482 C2487 1.363 . S
C2483 H2454 0.950 . S
C2483 C2482 1.397 . S
C2483 C2484 1.334 . S
C2484 H2455 0.950 . S
C2484 C2483 1.334 . S
C2484 C2485 1.287 . S
C2485 C2484 1.287 . S
C2485 C2486 1.524 . S
C2485 H2488 0.999 . S
C2486 H2456 0.950 . S
C2486 C2485 1.524 . S
C2486 C2487 1.415 . S
C2487 H2457 0.950 . S
C2487 C2482 1.363 . S
C2487 C2486 1.415 . S
H2488 C2485 0.999 . S
H2489 C2470 0.913 . S
H2490 C2508 0.951 . S
H2491 C2510 0.951 . S
H2492 C2512 0.950 . S
H2493 C2513 0.950 . S
H2494 C2515 0.950 . S
H2495 C2518 0.950 . S
H2496 C2519 0.950 . S
H2497 C2521 0.950 . S
H2498 C2522 0.950 . S
H2499 C2523 0.951 . S
H2500 C2525 0.951 . S
H2501 C2527 0.950 . S
H2502 C2528 0.950 . S
H2503 C2530 0.950 . S
H2504 C2533 0.950 . S
H2505 C2534 0.950 . S
H2506 C2536 0.950 . S
H2507 C2537 0.950 . S
C2508 H2490 0.951 . S
C2508 C2509 1.366 . S
C2508 C2510 1.388 . S
C2509 C2508 1.366 . S
C2509 C2513 1.385 . S
C2510 H2491 0.951 . S
C2510 C2508 1.388 . S
C2510 C2511 1.366 . S
C2511 C2510 1.366 . S
C2511 C2512 1.414 . S
C2511 C2514 1.499 1_545 S
C2512 H2492 0.950 . S
C2512 C2511 1.414 . S
C2512 C2513 1.374 . S
C2513 H2493 0.950 . S
C2513 C2509 1.385 . S
C2513 C2512 1.374 . S
C2514 C2511 1.499 1_565 S
C2514 C2515 1.373 . S
C2514 C2516 1.389 . S
C2515 H2494 0.950 . S
C2515 C2514 1.373 . S
C2515 C2531 1.377 . S
C2516 C2514 1.389 . S
C2516 C2517 1.524 . S
C2516 C2530 1.377 . S
C2517 C2516 1.524 . S
C2517 C2518 1.397 1_565 S
C2517 C2522 1.363 . S
C2518 H2495 0.950 . S
C2518 C2517 1.397 1_545 S
C2518 C2519 1.334 . S
C2519 H2496 0.950 . S
C2519 C2518 1.334 . S
C2519 C2520 1.287 . S
C2520 C2519 1.287 . S
C2520 C2521 1.524 1_545 S
C2520 H2539 0.913 . S
C2521 H2497 0.950 . S
C2521 C2520 1.524 1_565 S
C2521 C2522 1.415 . S
C2522 H2498 0.950 . S
C2522 C2517 1.363 . S
C2522 C2521 1.415 . S
C2523 H2499 0.951 . S
C2523 C2524 1.366 . S
C2523 C2525 1.388 . S
C2524 C2523 1.366 . S
C2524 C2528 1.385 . S
C2525 H2500 0.951 . S
C2525 C2523 1.388 . S
C2525 C2526 1.366 . S
C2526 C2525 1.366 . S
C2526 C2527 1.414 . S
C2526 C2529 1.499 . S
C2527 H2501 0.950 . S
C2527 C2526 1.414 . S
C2527 C2528 1.374 . S
C2528 H2502 0.950 . S
C2528 C2524 1.385 . S
C2528 C2527 1.374 . S
C2529 C2526 1.499 . S
C2529 C2530 1.373 . S
C2529 C2531 1.389 . S
C2530 H2503 0.950 . S
C2530 C2516 1.377 . S
C2530 C2529 1.373 . S
C2531 C2515 1.377 . S
C2531 C2529 1.389 . S
C2531 C2532 1.524 . S
C2532 C2531 1.524 . S
C2532 C2533 1.397 . S
C2532 C2537 1.363 . S
C2533 H2504 0.950 . S
C2533 C2532 1.397 . S
C2533 C2534 1.334 . S
C2534 H2505 0.950 . S
C2534 C2533 1.334 . S
C2534 C2535 1.287 . S
C2535 C2534 1.287 . S
C2535 C2536 1.524 . S
C2535 H2538 0.999 . S
C2536 H2506 0.950 . S
C2536 C2535 1.524 . S
C2536 C2537 1.415 . S
C2537 H2507 0.950 . S
C2537 C2532 1.363 . S
C2537 C2536 1.415 . S
H2538 C2535 0.999 . S
H2539 C2520 0.913 . S
H2540 C2558 0.951 . S
H2541 C2560 0.951 . S
H2542 C2562 0.950 . S
H2543 C2563 0.950 . S
H2544 C2565 0.950 . S
H2545 C2568 0.950 . S
H2546 C2569 0.950 . S
H2547 C2571 0.950 . S
H2548 C2572 0.950 . S
H2549 C2573 0.951 . S
H2550 C2575 0.951 . S
H2551 C2577 0.950 . S
H2552 C2578 0.950 . S
H2553 C2580 0.950 . S
H2554 C2583 0.950 . S
H2555 C2584 0.950 . S
H2556 C2586 0.950 . S
H2557 C2587 0.950 . S
C2558 H2540 0.951 . S
C2558 C2559 1.366 . S
C2558 C2560 1.388 1_655 S
C2559 C2558 1.366 . S
C2559 C2563 1.385 . S
C2560 H2541 0.951 . S
C2560 C2558 1.388 1_455 S
C2560 C2561 1.366 . S
C2561 C2560 1.366 . S
C2561 C2562 1.414 1_455 S
C2561 C2564 1.499 . S
C2562 H2542 0.950 . S
C2562 C2561 1.414 1_655 S
C2562 C2563 1.374 . S
C2563 H2543 0.950 . S
C2563 C2559 1.385 . S
C2563 C2562 1.374 . S
C2564 C2561 1.499 . S
C2564 C2565 1.373 . S
C2564 C2566 1.389 . S
C2565 H2544 0.950 . S
C2565 C2564 1.373 . S
C2565 C2581 1.377 . S
C2566 C2564 1.389 . S
C2566 C2567 1.524 . S
C2566 C2580 1.377 . S
C2567 C2566 1.524 . S
C2567 C2568 1.397 . S
C2567 C2572 1.363 . S
C2568 H2545 0.950 . S
C2568 C2567 1.397 . S
C2568 C2569 1.334 . S
C2569 H2546 0.950 . S
C2569 C2568 1.334 . S
C2569 C2570 1.287 . S
C2570 C2569 1.287 . S
C2570 C2571 1.524 . S
C2570 H2589 0.913 . S
C2571 H2547 0.950 . S
C2571 C2570 1.524 . S
C2571 C2572 1.415 . S
C2572 H2548 0.950 . S
C2572 C2567 1.363 . S
C2572 C2571 1.415 . S
C2573 H2549 0.951 . S
C2573 C2574 1.366 . S
C2573 C2575 1.388 . S
C2574 C2573 1.366 . S
C2574 C2578 1.385 . S
C2575 H2550 0.951 . S
C2575 C2573 1.388 . S
C2575 C2576 1.366 . S
C2576 C2575 1.366 . S
C2576 C2577 1.414 . S
C2576 C2579 1.499 . S
C2577 H2551 0.950 . S
C2577 C2576 1.414 . S
C2577 C2578 1.374 . S
C2578 H2552 0.950 . S
C2578 C2574 1.385 . S
C2578 C2577 1.374 . S
C2579 C2576 1.499 . S
C2579 C2580 1.373 . S
C2579 C2581 1.389 . S
C2580 H2553 0.950 . S
C2580 C2566 1.377 . S
C2580 C2579 1.373 . S
C2581 C2565 1.377 . S
C2581 C2579 1.389 . S
C2581 C2582 1.524 . S
C2582 C2581 1.524 . S
C2582 C2583 1.397 . S
C2582 C2587 1.363 . S
C2583 H2554 0.950 . S
C2583 C2582 1.397 . S
C2583 C2584 1.334 . S
C2584 H2555 0.950 . S
C2584 C2583 1.334 . S
C2584 C2585 1.287 . S
C2585 C2584 1.287 . S
C2585 C2586 1.524 . S
C2585 H2588 0.999 . S
C2586 H2556 0.950 . S
C2586 C2585 1.524 . S
C2586 C2587 1.415 . S
C2587 H2557 0.950 . S
C2587 C2582 1.363 . S
C2587 C2586 1.415 . S
H2588 C2585 0.999 . S
H2589 C2570 0.913 . S
H2590 C2608 0.951 . S
H2591 C2610 0.951 . S
H2592 C2612 0.950 . S
H2593 C2613 0.950 . S
H2594 C2615 0.950 . S
H2595 C2618 0.950 . S
H2596 C2619 0.950 . S
H2597 C2621 0.950 . S
H2598 C2622 0.950 . S
H2599 C2623 0.951 . S
H2600 C2625 0.951 . S
H2601 C2627 0.950 . S
H2602 C2628 0.950 . S
H2603 C2630 0.950 . S
H2604 C2633 0.950 . S
H2605 C2634 0.950 . S
H2606 C2636 0.950 . S
H2607 C2637 0.950 . S
C2608 H2590 0.951 . S
C2608 C2609 1.366 . S
C2608 C2610 1.388 . S
C2609 C2608 1.366 . S
C2609 C2613 1.385 . S
C2610 H2591 0.951 . S
C2610 C2608 1.388 . S
C2610 C2611 1.366 . S
C2611 C2610 1.366 . S
C2611 C2612 1.414 . S
C2611 C2614 1.499 . S
C2612 H2592 0.950 . S
C2612 C2611 1.414 . S
C2612 C2613 1.374 . S
C2613 H2593 0.950 . S
C2613 C2609 1.385 . S
C2613 C2612 1.374 . S
C2614 C2611 1.499 . S
C2614 C2615 1.373 . S
C2614 C2616 1.389 . S
C2615 H2594 0.950 . S
C2615 C2614 1.373 . S
C2615 C2631 1.377 . S
C2616 C2614 1.389 . S
C2616 C2617 1.524 . S
C2616 C2630 1.377 . S
C2617 C2616 1.524 . S
C2617 C2618 1.397 . S
C2617 C2622 1.363 . S
C2618 H2595 0.950 . S
C2618 C2617 1.397 . S
C2618 C2619 1.334 . S
C2619 H2596 0.950 . S
C2619 C2618 1.334 . S
C2619 C2620 1.287 . S
C2620 C2619 1.287 . S
C2620 C2621 1.524 . S
C2620 H2639 0.913 . S
C2621 H2597 0.950 . S
C2621 C2620 1.524 . S
C2621 C2622 1.415 . S
C2622 H2598 0.950 . S
C2622 C2617 1.363 . S
C2622 C2621 1.415 . S
C2623 H2599 0.951 . S
C2623 C2624 1.366 . S
C2623 C2625 1.388 . S
C2624 C2623 1.366 . S
C2624 C2628 1.385 . S
C2625 H2600 0.951 . S
C2625 C2623 1.388 . S
C2625 C2626 1.366 . S
C2626 C2625 1.366 . S
C2626 C2627 1.414 . S
C2626 C2629 1.499 . S
C2627 H2601 0.950 . S
C2627 C2626 1.414 . S
C2627 C2628 1.374 . S
C2628 H2602 0.950 . S
C2628 C2624 1.385 . S
C2628 C2627 1.374 . S
C2629 C2626 1.499 . S
C2629 C2630 1.373 . S
C2629 C2631 1.389 . S
C2630 H2603 0.950 . S
C2630 C2616 1.377 . S
C2630 C2629 1.373 . S
C2631 C2615 1.377 . S
C2631 C2629 1.389 . S
C2631 C2632 1.524 . S
C2632 C2631 1.524 . S
C2632 C2633 1.397 . S
C2632 C2637 1.363 . S
C2633 H2604 0.950 . S
C2633 C2632 1.397 . S
C2633 C2634 1.334 . S
C2634 H2605 0.950 . S
C2634 C2633 1.334 . S
C2634 C2635 1.287 . S
C2635 C2634 1.287 . S
C2635 C2636 1.524 . S
C2635 H2638 0.999 . S
C2636 H2606 0.950 . S
C2636 C2635 1.524 . S
C2636 C2637 1.415 . S
C2637 H2607 0.950 . S
C2637 C2632 1.363 . S
C2637 C2636 1.415 . S
H2638 C2635 0.999 . S
H2639 C2620 0.913 . S
H2640 C2658 0.951 . S
H2641 C2660 0.951 . S
H2642 C2662 0.950 . S
H2643 C2663 0.950 . S
H2644 C2665 0.950 . S
H2645 C2668 0.950 . S
H2646 C2669 0.950 . S
H2647 C2671 0.950 . S
H2648 C2672 0.950 . S
H2649 C2673 0.951 . S
H2650 C2675 0.951 . S
H2651 C2677 0.950 . S
H2652 C2678 0.950 . S
H2653 C2680 0.950 . S
H2654 C2683 0.950 . S
H2655 C2684 0.950 . S
H2656 C2686 0.950 . S
H2657 C2687 0.950 . S
C2658 H2640 0.951 . S
C2658 C2659 1.366 . S
C2658 C2660 1.388 . S
C2659 C2658 1.366 . S
C2659 C2663 1.385 . S
C2660 H2641 0.951 . S
C2660 C2658 1.388 . S
C2660 C2661 1.366 . S
C2661 C2660 1.366 . S
C2661 C2662 1.414 . S
C2661 C2664 1.499 . S
C2662 H2642 0.950 . S
C2662 C2661 1.414 . S
C2662 C2663 1.374 . S
C2663 H2643 0.950 . S
C2663 C2659 1.385 . S
C2663 C2662 1.374 . S
C2664 C2661 1.499 . S
C2664 C2665 1.373 . S
C2664 C2666 1.389 . S
C2665 H2644 0.950 . S
C2665 C2664 1.373 . S
C2665 C2681 1.377 . S
C2666 C2664 1.389 . S
C2666 C2667 1.524 . S
C2666 C2680 1.377 . S
C2667 C2666 1.524 . S
C2667 C2668 1.397 . S
C2667 C2672 1.363 . S
C2668 H2645 0.950 . S
C2668 C2667 1.397 . S
C2668 C2669 1.334 . S
C2669 H2646 0.950 . S
C2669 C2668 1.334 . S
C2669 C2670 1.287 . S
C2670 C2669 1.287 . S
C2670 C2671 1.524 . S
C2670 H2689 0.913 . S
C2671 H2647 0.950 . S
C2671 C2670 1.524 . S
C2671 C2672 1.415 . S
C2672 H2648 0.950 . S
C2672 C2667 1.363 . S
C2672 C2671 1.415 . S
C2673 H2649 0.951 . S
C2673 C2674 1.366 . S
C2673 C2675 1.388 . S
C2674 C2673 1.366 . S
C2674 C2678 1.385 . S
C2675 H2650 0.951 . S
C2675 C2673 1.388 . S
C2675 C2676 1.366 . S
C2676 C2675 1.366 . S
C2676 C2677 1.414 . S
C2676 C2679 1.499 . S
C2677 H2651 0.950 . S
C2677 C2676 1.414 . S
C2677 C2678 1.374 . S
C2678 H2652 0.950 . S
C2678 C2674 1.385 . S
C2678 C2677 1.374 . S
C2679 C2676 1.499 . S
C2679 C2680 1.373 . S
C2679 C2681 1.389 . S
C2680 H2653 0.950 . S
C2680 C2666 1.377 . S
C2680 C2679 1.373 . S
C2681 C2665 1.377 . S
C2681 C2679 1.389 . S
C2681 C2682 1.524 . S
C2682 C2681 1.524 . S
C2682 C2683 1.397 . S
C2682 C2687 1.363 . S
C2683 H2654 0.950 . S
C2683 C2682 1.397 . S
C2683 C2684 1.334 . S
C2684 H2655 0.950 . S
C2684 C2683 1.334 . S
C2684 C2685 1.287 . S
C2685 C2684 1.287 . S
C2685 C2686 1.524 . S
C2685 H2688 0.999 . S
C2686 H2656 0.950 . S
C2686 C2685 1.524 . S
C2686 C2687 1.415 . S
C2687 H2657 0.950 . S
C2687 C2682 1.363 . S
C2687 C2686 1.415 . S
H2688 C2685 0.999 . S
H2689 C2670 0.913 . S
H2690 C2708 0.951 . S
H2691 C2710 0.951 . S
H2692 C2712 0.950 . S
H2693 C2713 0.950 . S
H2694 C2715 0.950 . S
H2695 C2718 0.950 . S
H2696 C2719 0.950 . S
H2697 C2721 0.950 . S
H2698 C2722 0.950 . S
H2699 C2723 0.951 . S
H2700 C2725 0.951 . S
H2701 C2727 0.950 . S
H2702 C2728 0.950 . S
H2703 C2730 0.950 . S
H2704 C2733 0.950 . S
H2705 C2734 0.950 . S
H2706 C2736 0.950 . S
H2707 C2737 0.950 . S
C2708 H2690 0.951 . S
C2708 C2709 1.366 . S
C2708 C2710 1.388 . S
C2709 C2708 1.366 . S
C2709 C2713 1.385 . S
C2710 H2691 0.951 . S
C2710 C2708 1.388 . S
C2710 C2711 1.366 . S
C2711 C2710 1.366 . S
C2711 C2712 1.414 . S
C2711 C2714 1.499 . S
C2712 H2692 0.950 . S
C2712 C2711 1.414 . S
C2712 C2713 1.374 . S
C2713 H2693 0.950 . S
C2713 C2709 1.385 . S
C2713 C2712 1.374 . S
C2714 C2711 1.499 . S
C2714 C2715 1.373 . S
C2714 C2716 1.389 . S
C2715 H2694 0.950 . S
C2715 C2714 1.373 . S
C2715 C2731 1.377 . S
C2716 C2714 1.389 . S
C2716 C2717 1.524 . S
C2716 C2730 1.377 . S
C2717 C2716 1.524 . S
C2717 C2718 1.397 . S
C2717 C2722 1.363 . S
C2718 H2695 0.950 . S
C2718 C2717 1.397 . S
C2718 C2719 1.334 . S
C2719 H2696 0.950 . S
C2719 C2718 1.334 . S
C2719 C2720 1.287 . S
C2720 C2719 1.287 . S
C2720 C2721 1.524 . S
C2720 H2739 0.913 . S
C2721 H2697 0.950 . S
C2721 C2720 1.524 . S
C2721 C2722 1.415 . S
C2722 H2698 0.950 . S
C2722 C2717 1.363 . S
C2722 C2721 1.415 . S
C2723 H2699 0.951 . S
C2723 C2724 1.366 . S
C2723 C2725 1.388 . S
C2724 C2723 1.366 . S
C2724 C2728 1.385 . S
C2725 H2700 0.951 . S
C2725 C2723 1.388 . S
C2725 C2726 1.366 . S
C2726 C2725 1.366 . S
C2726 C2727 1.414 . S
C2726 C2729 1.499 . S
C2727 H2701 0.950 . S
C2727 C2726 1.414 . S
C2727 C2728 1.374 . S
C2728 H2702 0.950 . S
C2728 C2724 1.385 . S
C2728 C2727 1.374 . S
C2729 C2726 1.499 . S
C2729 C2730 1.373 . S
C2729 C2731 1.389 . S
C2730 H2703 0.950 . S
C2730 C2716 1.377 . S
C2730 C2729 1.373 . S
C2731 C2715 1.377 . S
C2731 C2729 1.389 . S
C2731 C2732 1.524 . S
C2732 C2731 1.524 . S
C2732 C2733 1.397 . S
C2732 C2737 1.363 . S
C2733 H2704 0.950 . S
C2733 C2732 1.397 . S
C2733 C2734 1.334 . S
C2734 H2705 0.950 . S
C2734 C2733 1.334 . S
C2734 C2735 1.287 . S
C2735 C2734 1.287 . S
C2735 C2736 1.524 . S
C2735 H2738 0.999 . S
C2736 H2706 0.950 . S
C2736 C2735 1.524 . S
C2736 C2737 1.415 . S
C2737 H2707 0.950 . S
C2737 C2732 1.363 . S
C2737 C2736 1.415 . S
H2738 C2735 0.999 . S
H2739 C2720 0.913 . S
H2740 C2758 0.951 . S
H2741 C2760 0.951 . S
H2742 C2762 0.950 . S
H2743 C2763 0.950 . S
H2744 C2765 0.950 . S
H2745 C2768 0.950 . S
H2746 C2769 0.950 . S
H2747 C2771 0.950 . S
H2748 C2772 0.950 . S
H2749 C2773 0.951 . S
H2750 C2775 0.951 . S
H2751 C2777 0.950 . S
H2752 C2778 0.950 . S
H2753 C2780 0.950 . S
H2754 C2783 0.950 . S
H2755 C2784 0.950 . S
H2756 C2786 0.950 . S
H2757 C2787 0.950 . S
C2758 H2740 0.951 . S
C2758 C2759 1.366 . S
C2758 C2760 1.388 . S
C2759 C2758 1.366 . S
C2759 C2763 1.385 . S
C2760 H2741 0.951 . S
C2760 C2758 1.388 . S
C2760 C2761 1.366 . S
C2761 C2760 1.366 . S
C2761 C2762 1.414 . S
C2761 C2764 1.499 . S
C2762 H2742 0.950 . S
C2762 C2761 1.414 . S
C2762 C2763 1.374 . S
C2763 H2743 0.950 . S
C2763 C2759 1.385 . S
C2763 C2762 1.374 . S
C2764 C2761 1.499 . S
C2764 C2765 1.373 . S
C2764 C2766 1.389 . S
C2765 H2744 0.950 . S
C2765 C2764 1.373 . S
C2765 C2781 1.377 . S
C2766 C2764 1.389 . S
C2766 C2767 1.524 . S
C2766 C2780 1.377 . S
C2767 C2766 1.524 . S
C2767 C2768 1.397 . S
C2767 C2772 1.363 . S
C2768 H2745 0.950 . S
C2768 C2767 1.397 . S
C2768 C2769 1.334 . S
C2769 H2746 0.950 . S
C2769 C2768 1.334 . S
C2769 C2770 1.287 . S
C2770 C2769 1.287 . S
C2770 C2771 1.524 . S
C2770 H2789 0.913 . S
C2771 H2747 0.950 . S
C2771 C2770 1.524 . S
C2771 C2772 1.415 . S
C2772 H2748 0.950 . S
C2772 C2767 1.363 . S
C2772 C2771 1.415 . S
C2773 H2749 0.951 . S
C2773 C2774 1.366 . S
C2773 C2775 1.388 . S
C2774 C2773 1.366 . S
C2774 C2778 1.385 . S
C2775 H2750 0.951 . S
C2775 C2773 1.388 . S
C2775 C2776 1.366 . S
C2776 C2775 1.366 . S
C2776 C2777 1.414 . S
C2776 C2779 1.499 . S
C2777 H2751 0.950 . S
C2777 C2776 1.414 . S
C2777 C2778 1.374 . S
C2778 H2752 0.950 . S
C2778 C2774 1.385 . S
C2778 C2777 1.374 . S
C2779 C2776 1.499 . S
C2779 C2780 1.373 . S
C2779 C2781 1.389 . S
C2780 H2753 0.950 . S
C2780 C2766 1.377 . S
C2780 C2779 1.373 . S
C2781 C2765 1.377 . S
C2781 C2779 1.389 . S
C2781 C2782 1.524 . S
C2782 C2781 1.524 . S
C2782 C2783 1.397 . S
C2782 C2787 1.363 . S
C2783 H2754 0.950 . S
C2783 C2782 1.397 . S
C2783 C2784 1.334 . S
C2784 H2755 0.950 . S
C2784 C2783 1.334 . S
C2784 C2785 1.287 . S
C2785 C2784 1.287 . S
C2785 C2786 1.524 . S
C2785 H2788 0.999 . S
C2786 H2756 0.950 . S
C2786 C2785 1.524 . S
C2786 C2787 1.415 . S
C2787 H2757 0.950 . S
C2787 C2782 1.363 . S
C2787 C2786 1.415 . S
H2788 C2785 0.999 . S
H2789 C2770 0.913 . S
H2790 C2808 0.951 . S
H2791 C2810 0.951 . S
H2792 C2812 0.950 . S
H2793 C2813 0.950 . S
H2794 C2815 0.950 . S
H2795 C2818 0.950 . S
H2796 C2819 0.950 . S
H2797 C2821 0.950 . S
H2798 C2822 0.951 . S
H2799 C2823 0.951 . S
H2800 C2825 0.951 . S
H2801 C2827 0.950 . S
H2802 C2828 0.950 . S
H2803 C2830 0.950 . S
H2804 C2833 0.950 . S
H2805 C2834 0.950 . S
H2806 C2836 0.950 . S
H2807 C2837 0.950 . S
C2808 H2790 0.951 . S
C2808 C2809 1.366 . S
C2808 C2810 1.388 . S
C2809 C2808 1.366 . S
C2809 C2813 1.385 . S
C2810 H2791 0.951 . S
C2810 C2808 1.388 . S
C2810 C2811 1.366 . S
C2811 C2810 1.366 . S
C2811 C2812 1.414 . S
C2811 C2814 1.499 1_565 S
C2812 H2792 0.950 . S
C2812 C2811 1.414 . S
C2812 C2813 1.374 . S
C2813 H2793 0.950 . S
C2813 C2809 1.385 . S
C2813 C2812 1.374 . S
C2814 C2811 1.499 1_545 S
C2814 C2815 1.373 . S
C2814 C2816 1.389 . S
C2815 H2794 0.950 . S
C2815 C2814 1.373 . S
C2815 C2831 1.377 . S
C2816 C2814 1.389 . S
C2816 C2817 1.524 1_545 S
C2816 C2830 1.377 . S
C2817 C2816 1.524 1_565 S
C2817 C2818 1.397 . S
C2817 C2822 1.365 1_565 S
C2818 H2795 0.950 . S
C2818 C2817 1.397 . S
C2818 C2819 1.334 . S
C2819 H2796 0.950 . S
C2819 C2818 1.334 . S
C2819 C2820 1.287 . S
C2820 C2819 1.287 . S
C2820 C2821 1.524 . S
C2820 H2839 0.913 . S
C2821 H2797 0.950 . S
C2821 C2820 1.524 . S
C2821 C2822 1.412 1_565 S
C2822 H2798 0.951 . S
C2822 C2817 1.365 1_545 S
C2822 C2821 1.412 1_545 S
C2823 H2799 0.951 . S
C2823 C2824 1.366 . S
C2823 C2825 1.388 . S
C2824 C2823 1.366 . S
C2824 C2828 1.385 . S
C2825 H2800 0.951 . S
C2825 C2823 1.388 . S
C2825 C2826 1.366 . S
C2826 C2825 1.366 . S
C2826 C2827 1.414 . S
C2826 C2829 1.499 . S
C2827 H2801 0.950 . S
C2827 C2826 1.414 . S
C2827 C2828 1.374 . S
C2828 H2802 0.950 . S
C2828 C2824 1.385 . S
C2828 C2827 1.374 . S
C2829 C2826 1.499 . S
C2829 C2830 1.373 . S
C2829 C2831 1.389 . S
C2830 H2803 0.950 . S
C2830 C2816 1.377 . S
C2830 C2829 1.373 . S
C2831 C2815 1.377 . S
C2831 C2829 1.389 . S
C2831 C2832 1.524 . S
C2832 C2831 1.524 . S
C2832 C2833 1.397 . S
C2832 C2837 1.363 . S
C2833 H2804 0.950 . S
C2833 C2832 1.397 . S
C2833 C2834 1.334 . S
C2834 H2805 0.950 . S
C2834 C2833 1.334 . S
C2834 C2835 1.287 . S
C2835 C2834 1.287 . S
C2835 C2836 1.524 . S
C2835 H2838 0.999 . S
C2836 H2806 0.950 . S
C2836 C2835 1.524 . S
C2836 C2837 1.415 . S
C2837 H2807 0.950 . S
C2837 C2832 1.363 . S
C2837 C2836 1.415 . S
H2838 C2835 0.999 . S
H2839 C2820 0.913 . S
H2840 C2858 0.951 . S
H2841 C2860 0.951 1_655 S
H2842 C2862 0.991 . S
H2843 C2863 0.950 . S
H2844 C2865 0.950 . S
H2845 C2868 0.950 . S
H2846 C2869 0.950 . S
H2847 C2871 0.950 . S
H2848 C2872 0.950 . S
H2849 C2873 0.951 . S
H2850 C2875 0.951 . S
H2851 C2877 0.950 . S
H2852 C2878 0.950 . S
H2853 C2880 0.950 . S
H2854 C2883 0.950 . S
H2855 C2884 0.950 . S
H2856 C2886 0.950 . S
H2857 C2887 0.950 . S
C2858 H2840 0.951 . S
C2858 C2859 1.366 . S
C2858 C2860 1.388 . S
C2859 C2858 1.366 . S
C2859 C2863 1.385 . S
C2860 H2841 0.951 1_455 S
C2860 C2858 1.388 . S
C2860 C2861 1.366 1_455 S
C2861 C2860 1.366 1_655 S
C2861 C2862 1.414 1_655 S
C2861 C2864 1.499 . S
C2862 H2842 0.991 . S
C2862 C2861 1.414 1_455 S
C2862 C2863 1.374 . S
C2863 H2843 0.950 . S
C2863 C2859 1.385 . S
C2863 C2862 1.374 . S
C2864 C2861 1.499 . S
C2864 C2865 1.373 . S
C2864 C2866 1.389 . S
C2865 H2844 0.950 . S
C2865 C2864 1.373 . S
C2865 C2881 1.377 . S
C2866 C2864 1.389 . S
C2866 C2867 1.524 . S
C2866 C2880 1.377 . S
C2867 C2866 1.524 . S
C2867 C2868 1.397 . S
C2867 C2872 1.363 . S
C2868 H2845 0.950 . S
C2868 C2867 1.397 . S
C2868 C2869 1.334 . S
C2869 H2846 0.950 . S
C2869 C2868 1.334 . S
C2869 C2870 1.287 . S
C2870 C2869 1.287 . S
C2870 C2871 1.524 . S
C2870 H2889 0.913 . S
C2871 H2847 0.950 . S
C2871 C2870 1.524 . S
C2871 C2872 1.415 . S
C2872 H2848 0.950 . S
C2872 C2867 1.363 . S
C2872 C2871 1.415 . S
C2873 H2849 0.951 . S
C2873 C2874 1.366 . S
C2873 C2875 1.388 . S
C2874 C2873 1.366 . S
C2874 C2878 1.385 . S
C2875 H2850 0.951 . S
C2875 C2873 1.388 . S
C2875 C2876 1.366 . S
C2876 C2875 1.366 . S
C2876 C2877 1.414 . S
C2876 C2879 1.499 . S
C2877 H2851 0.950 . S
C2877 C2876 1.414 . S
C2877 C2878 1.374 . S
C2878 H2852 0.950 . S
C2878 C2874 1.385 . S
C2878 C2877 1.374 . S
C2879 C2876 1.499 . S
C2879 C2880 1.373 . S
C2879 C2881 1.389 . S
C2880 H2853 0.950 . S
C2880 C2866 1.377 . S
C2880 C2879 1.373 . S
C2881 C2865 1.377 . S
C2881 C2879 1.389 . S
C2881 C2882 1.524 . S
C2882 C2881 1.524 . S
C2882 C2883 1.397 . S
C2882 C2887 1.363 . S
C2883 H2854 0.950 . S
C2883 C2882 1.397 . S
C2883 C2884 1.334 . S
C2884 H2855 0.950 . S
C2884 C2883 1.334 . S
C2884 C2885 1.287 . S
C2885 C2884 1.287 . S
C2885 C2886 1.524 . S
C2885 H2888 0.999 . S
C2886 H2856 0.950 . S
C2886 C2885 1.524 . S
C2886 C2887 1.415 . S
C2887 H2857 0.950 . S
C2887 C2882 1.363 . S
C2887 C2886 1.415 . S
H2888 C2885 0.999 . S
H2889 C2870 0.913 . S
H2890 C2908 0.951 . S
H2891 C2910 0.951 . S
H2892 C2912 0.950 . S
H2893 C2913 0.950 . S
H2894 C2915 0.950 . S
H2895 C2918 0.950 . S
H2896 C2919 0.950 . S
H2897 C2921 0.950 . S
H2898 C2922 0.950 . S
H2899 C2923 0.951 . S
H2900 C2925 0.951 . S
H2901 C2927 0.950 . S
H2902 C2928 0.950 . S
H2903 C2930 0.950 . S
H2904 C2933 0.950 . S
H2905 C2934 0.950 . S
H2906 C2936 0.950 . S
H2907 C2937 0.950 . S
C2908 H2890 0.951 . S
C2908 C2909 1.366 . S
C2908 C2910 1.388 . S
C2909 C2908 1.366 . S
C2909 C2913 1.385 . S
C2910 H2891 0.951 . S
C2910 C2908 1.388 . S
C2910 C2911 1.366 . S
C2911 C2910 1.366 . S
C2911 C2912 1.414 . S
C2911 C2914 1.499 . S
C2912 H2892 0.950 . S
C2912 C2911 1.414 . S
C2912 C2913 1.374 . S
C2913 H2893 0.950 . S
C2913 C2909 1.385 . S
C2913 C2912 1.374 . S
C2914 C2911 1.499 . S
C2914 C2915 1.373 . S
C2914 C2916 1.389 . S
C2915 H2894 0.950 . S
C2915 C2914 1.373 . S
C2915 C2931 1.377 . S
C2916 C2914 1.389 . S
C2916 C2917 1.524 . S
C2916 C2930 1.377 . S
C2917 C2916 1.524 . S
C2917 C2918 1.397 . S
C2917 C2922 1.363 . S
C2918 H2895 0.950 . S
C2918 C2917 1.397 . S
C2918 C2919 1.334 . S
C2919 H2896 0.950 . S
C2919 C2918 1.334 . S
C2919 C2920 1.287 . S
C2920 C2919 1.287 . S
C2920 C2921 1.524 . S
C2920 H2939 0.913 . S
C2921 H2897 0.950 . S
C2921 C2920 1.524 . S
C2921 C2922 1.415 . S
C2922 H2898 0.950 . S
C2922 C2917 1.363 . S
C2922 C2921 1.415 . S
C2923 H2899 0.951 . S
C2923 C2924 1.366 . S
C2923 C2925 1.388 . S
C2924 C2923 1.366 . S
C2924 C2928 1.385 . S
C2925 H2900 0.951 . S
C2925 C2923 1.388 . S
C2925 C2926 1.366 . S
C2926 C2925 1.366 . S
C2926 C2927 1.414 . S
C2926 C2929 1.499 . S
C2927 H2901 0.950 . S
C2927 C2926 1.414 . S
C2927 C2928 1.374 . S
C2928 H2902 0.950 . S
C2928 C2924 1.385 . S
C2928 C2927 1.374 . S
C2929 C2926 1.499 . S
C2929 C2930 1.373 . S
C2929 C2931 1.389 . S
C2930 H2903 0.950 . S
C2930 C2916 1.377 . S
C2930 C2929 1.373 . S
C2931 C2915 1.377 . S
C2931 C2929 1.389 . S
C2931 C2932 1.524 . S
C2932 C2931 1.524 . S
C2932 C2933 1.397 . S
C2932 C2937 1.363 . S
C2933 H2904 0.950 . S
C2933 C2932 1.397 . S
C2933 C2934 1.334 . S
C2934 H2905 0.950 . S
C2934 C2933 1.334 . S
C2934 C2935 1.287 . S
C2935 C2934 1.287 . S
C2935 C2936 1.524 . S
C2935 H2938 0.999 . S
C2936 H2906 0.950 . S
C2936 C2935 1.524 . S
C2936 C2937 1.415 . S
C2937 H2907 0.950 . S
C2937 C2932 1.363 . S
C2937 C2936 1.415 . S
H2938 C2935 0.999 . S
H2939 C2920 0.913 . S
H2940 C2958 0.951 . S
H2941 C2960 0.951 . S
H2942 C2962 0.950 . S
H2943 C2963 0.950 . S
H2944 C2965 0.950 . S
H2945 C2968 0.950 . S
H2946 C2969 0.950 . S
H2947 C2971 0.950 . S
H2948 C2972 0.887 1_655 S
H2949 C2973 0.951 . S
H2950 C2975 0.951 . S
H2951 C2977 0.950 . S
H2952 C2978 0.950 . S
H2953 C2980 0.950 . S
H2954 C2983 0.950 . S
H2955 C2984 0.950 . S
H2956 C2986 0.950 . S
H2957 C2987 0.950 . S
C2958 H2940 0.951 . S
C2958 C2959 1.366 . S
C2958 C2960 1.388 . S
C2959 C2958 1.366 . S
C2959 C2963 1.385 . S
C2960 H2941 0.951 . S
C2960 C2958 1.388 . S
C2960 C2961 1.366 . S
C2961 C2960 1.366 . S
C2961 C2962 1.414 . S
C2961 C2964 1.499 1_455 S
C2962 H2942 0.950 . S
C2962 C2961 1.414 . S
C2962 C2963 1.374 . S
C2963 H2943 0.950 . S
C2963 C2959 1.385 . S
C2963 C2962 1.374 . S
C2964 C2961 1.499 1_655 S
C2964 C2965 1.373 . S
C2964 C2966 1.389 . S
C2965 H2944 0.950 . S
C2965 C2964 1.373 . S
C2965 C2981 1.377 . S
C2966 C2964 1.389 . S
C2966 C2967 1.524 1_655 S
C2966 C2980 1.377 . S
C2967 C2966 1.524 1_455 S
C2967 C2968 1.397 . S
C2967 C2972 1.395 . S
C2968 H2945 0.950 . S
C2968 C2967 1.397 . S
C2968 C2969 1.334 . S
C2969 H2946 0.950 . S
C2969 C2968 1.334 . S
C2969 C2970 1.287 . S
C2970 C2969 1.287 . S
C2970 C2971 1.524 . S
C2970 H2989 0.913 . S
C2971 H2947 0.950 . S
C2971 C2970 1.524 . S
C2971 C2972 1.447 . S
C2972 H2948 0.887 1_455 S
C2972 C2967 1.395 . S
C2972 C2971 1.447 . S
C2973 H2949 0.951 . S
C2973 C2974 1.366 . S
C2973 C2975 1.388 . S
C2974 C2973 1.366 . S
C2974 C2978 1.385 . S
C2975 H2950 0.951 . S
C2975 C2973 1.388 . S
C2975 C2976 1.366 . S
C2976 C2975 1.366 . S
C2976 C2977 1.414 . S
C2976 C2979 1.499 . S
C2977 H2951 0.950 . S
C2977 C2976 1.414 . S
C2977 C2978 1.374 . S
C2978 H2952 0.950 . S
C2978 C2974 1.385 . S
C2978 C2977 1.374 . S
C2979 C2976 1.499 . S
C2979 C2980 1.373 . S
C2979 C2981 1.389 . S
C2980 H2953 0.950 . S
C2980 C2966 1.377 . S
C2980 C2979 1.373 . S
C2981 C2965 1.377 . S
C2981 C2979 1.389 . S
C2981 C2982 1.524 . S
C2982 C2981 1.524 . S
C2982 C2983 1.397 . S
C2982 C2987 1.363 . S
C2983 H2954 0.950 . S
C2983 C2982 1.397 . S
C2983 C2984 1.334 . S
C2984 H2955 0.950 . S
C2984 C2983 1.334 . S
C2984 C2985 1.287 . S
C2985 C2984 1.287 . S
C2985 C2986 1.524 . S
C2985 H2988 0.999 . S
C2986 H2956 0.950 . S
C2986 C2985 1.524 . S
C2986 C2987 1.415 . S
C2987 H2957 0.950 . S
C2987 C2982 1.363 . S
C2987 C2986 1.415 . S
H2988 C2985 0.999 . S
H2989 C2970 0.913 . S
H2990 C3008 0.951 . S
H2991 C3010 0.951 . S
H2992 C3012 0.950 . S
H2993 C3013 0.950 . S
H2994 C3015 0.950 . S
H2995 C3018 0.950 . S
H2996 C3019 0.950 . S
H2997 C3021 0.950 . S
H2998 C3022 0.950 . S
H2999 C3023 0.951 . S
H3000 C3025 0.951 . S
H3001 C3027 0.950 . S
H3002 C3028 0.950 . S
H3003 C3030 0.950 . S
H3004 C3033 0.950 . S
H3005 C3034 0.950 . S
H3006 C3036 0.950 . S
H3007 C3037 0.950 . S
C3008 H2990 0.951 . S
C3008 C3009 1.366 . S
C3008 C3010 1.388 . S
C3009 C3008 1.366 . S
C3009 C3013 1.385 . S
C3010 H2991 0.951 . S
C3010 C3008 1.388 . S
C3010 C3011 1.366 . S
C3011 C3010 1.366 . S
C3011 C3012 1.414 . S
C3011 C3014 1.499 . S
C3012 H2992 0.950 . S
C3012 C3011 1.414 . S
C3012 C3013 1.374 . S
C3013 H2993 0.950 . S
C3013 C3009 1.385 . S
C3013 C3012 1.374 . S
C3014 C3011 1.499 . S
C3014 C3015 1.373 . S
C3014 C3016 1.389 . S
C3015 H2994 0.950 . S
C3015 C3014 1.373 . S
C3015 C3031 1.377 . S
C3016 C3014 1.389 . S
C3016 C3017 1.524 . S
C3016 C3030 1.377 . S
C3017 C3016 1.524 . S
C3017 C3018 1.397 . S
C3017 C3022 1.363 . S
C3018 H2995 0.950 . S
C3018 C3017 1.397 . S
C3018 C3019 1.334 . S
C3019 H2996 0.950 . S
C3019 C3018 1.334 . S
C3019 C3020 1.287 . S
C3020 C3019 1.287 . S
C3020 C3021 1.524 . S
C3020 H3039 0.913 . S
C3021 H2997 0.950 . S
C3021 C3020 1.524 . S
C3021 C3022 1.415 . S
C3022 H2998 0.950 . S
C3022 C3017 1.363 . S
C3022 C3021 1.415 . S
C3023 H2999 0.951 . S
C3023 C3024 1.366 . S
C3023 C3025 1.388 . S
C3024 C3023 1.366 . S
C3024 C3028 1.385 . S
C3025 H3000 0.951 . S
C3025 C3023 1.388 . S
C3025 C3026 1.366 . S
C3026 C3025 1.366 . S
C3026 C3027 1.414 . S
C3026 C3029 1.499 . S
C3027 H3001 0.950 . S
C3027 C3026 1.414 . S
C3027 C3028 1.374 . S
C3028 H3002 0.950 . S
C3028 C3024 1.385 . S
C3028 C3027 1.374 . S
C3029 C3026 1.499 . S
C3029 C3030 1.373 . S
C3029 C3031 1.389 . S
C3030 H3003 0.950 . S
C3030 C3016 1.377 . S
C3030 C3029 1.373 . S
C3031 C3015 1.377 . S
C3031 C3029 1.389 . S
C3031 C3032 1.524 . S
C3032 C3031 1.524 . S
C3032 C3033 1.397 . S
C3032 C3037 1.363 . S
C3033 H3004 0.950 . S
C3033 C3032 1.397 . S
C3033 C3034 1.334 . S
C3034 H3005 0.950 . S
C3034 C3033 1.334 . S
C3034 C3035 1.287 . S
C3035 C3034 1.287 . S
C3035 C3036 1.524 . S
C3035 H3038 0.999 . S
C3036 H3006 0.950 . S
C3036 C3035 1.524 . S
C3036 C3037 1.415 . S
C3037 H3007 0.950 . S
C3037 C3032 1.363 . S
C3037 C3036 1.415 . S
H3038 C3035 0.999 . S
H3039 C3020 0.913 . S
H3040 C3058 0.951 . S
H3041 C3060 0.951 . S
H3042 C3062 0.950 . S
H3043 C3063 0.950 . S
H3044 C3065 0.950 . S
H3045 C3068 0.950 . S
H3046 C3069 0.950 . S
H3047 C3071 0.950 . S
H3048 C3072 0.950 . S
H3049 C3073 0.951 . S
H3050 C3075 0.951 . S
H3051 C3077 0.950 . S
H3052 C3078 0.950 . S
H3053 C3080 0.950 . S
H3054 C3083 0.950 . S
H3055 C3084 0.950 . S
H3056 C3086 0.950 . S
H3057 C3087 0.950 . S
C3058 H3040 0.951 . S
C3058 C3059 1.366 . S
C3058 C3060 1.388 . S
C3059 C3058 1.366 . S
C3059 C3063 1.385 . S
C3060 H3041 0.951 . S
C3060 C3058 1.388 . S
C3060 C3061 1.366 . S
C3061 C3060 1.366 . S
C3061 C3062 1.414 . S
C3061 C3064 1.548 . S
C3062 H3042 0.950 . S
C3062 C3061 1.414 . S
C3062 C3063 1.374 . S
C3063 H3043 0.950 . S
C3063 C3059 1.385 . S
C3063 C3062 1.374 . S
C3064 C3061 1.548 . S
C3064 C3065 1.373 1_565 S
C3064 C3066 1.342 1_565 S
C3065 H3044 0.950 . S
C3065 C3064 1.373 1_545 S
C3065 C3081 1.377 . S
C3066 C3064 1.342 1_545 S
C3066 C3067 1.526 1_545 S
C3066 C3080 1.377 . S
C3067 C3066 1.526 1_565 S
C3067 C3068 1.400 . S
C3067 C3072 1.357 1_565 S
C3068 H3045 0.950 . S
C3068 C3067 1.400 . S
C3068 C3069 1.334 . S
C3069 H3046 0.950 . S
C3069 C3068 1.334 . S
C3069 C3070 1.287 . S
C3070 C3069 1.287 . S
C3070 C3071 1.524 . S
C3070 H3089 0.913 . S
C3071 H3047 0.950 . S
C3071 C3070 1.524 . S
C3071 C3072 1.415 1_565 S
C3072 H3048 0.950 . S
C3072 C3067 1.357 1_545 S
C3072 C3071 1.415 1_545 S
C3073 H3049 0.951 . S
C3073 C3074 1.366 . S
C3073 C3075 1.388 . S
C3074 C3073 1.366 . S
C3074 C3078 1.385 . S
C3075 H3050 0.951 . S
C3075 C3073 1.388 . S
C3075 C3076 1.366 . S
C3076 C3075 1.366 . S
C3076 C3077 1.414 . S
C3076 C3079 1.499 . S
C3077 H3051 0.950 . S
C3077 C3076 1.414 . S
C3077 C3078 1.374 . S
C3078 H3052 0.950 . S
C3078 C3074 1.385 . S
C3078 C3077 1.374 . S
C3079 C3076 1.499 . S
C3079 C3080 1.373 . S
C3079 C3081 1.389 . S
C3080 H3053 0.950 . S
C3080 C3066 1.377 . S
C3080 C3079 1.373 . S
C3081 C3065 1.377 . S
C3081 C3079 1.389 . S
C3081 C3082 1.524 . S
C3082 C3081 1.524 . S
C3082 C3083 1.397 . S
C3082 C3087 1.363 . S
C3083 H3054 0.950 . S
C3083 C3082 1.397 . S
C3083 C3084 1.334 . S
C3084 H3055 0.950 . S
C3084 C3083 1.334 . S
C3084 C3085 1.287 . S
C3085 C3084 1.287 . S
C3085 C3086 1.524 . S
C3085 H3088 0.999 . S
C3086 H3056 0.950 . S
C3086 C3085 1.524 . S
C3086 C3087 1.415 . S
C3087 H3057 0.950 . S
C3087 C3082 1.363 . S
C3087 C3086 1.415 . S
H3088 C3085 0.999 . S
H3089 C3070 0.913 . S
H3090 C3108 0.951 . S
H3091 C3110 0.951 . S
H3092 C3112 0.950 . S
H3093 C3113 0.950 . S
H3094 C3115 0.950 . S
H3095 C3118 0.950 . S
H3096 C3119 0.950 . S
H3097 C3121 0.950 . S
H3098 C3122 0.950 . S
H3099 C3123 0.951 . S
H3100 C3125 0.951 . S
H3101 C3127 0.950 . S
H3102 C3128 0.950 . S
H3103 C3130 0.950 . S
H3104 C3133 0.950 . S
H3105 C3134 0.950 . S
H3106 C3136 0.950 . S
H3107 C3137 0.950 . S
C3108 H3090 0.951 . S
C3108 C3109 1.366 . S
C3108 C3110 1.388 . S
C3109 C3108 1.366 . S
C3109 C3113 1.385 . S
C3110 H3091 0.951 . S
C3110 C3108 1.388 . S
C3110 C3111 1.366 . S
C3111 C3110 1.366 . S
C3111 C3112 1.414 . S
C3111 C3114 1.499 . S
C3112 H3092 0.950 . S
C3112 C3111 1.414 . S
C3112 C3113 1.374 . S
C3113 H3093 0.950 . S
C3113 C3109 1.385 . S
C3113 C3112 1.374 . S
C3114 C3111 1.499 . S
C3114 C3115 1.373 . S
C3114 C3116 1.389 . S
C3115 H3094 0.950 . S
C3115 C3114 1.373 . S
C3115 C3131 1.377 . S
C3116 C3114 1.389 . S
C3116 C3117 1.524 . S
C3116 C3130 1.377 . S
C3117 C3116 1.524 . S
C3117 C3118 1.397 . S
C3117 C3122 1.363 . S
C3118 H3095 0.950 . S
C3118 C3117 1.397 . S
C3118 C3119 1.334 . S
C3119 H3096 0.950 . S
C3119 C3118 1.334 . S
C3119 C3120 1.287 . S
C3120 C3119 1.287 . S
C3120 C3121 1.524 . S
C3120 H3139 0.913 . S
C3121 H3097 0.950 . S
C3121 C3120 1.524 . S
C3121 C3122 1.415 . S
C3122 H3098 0.950 . S
C3122 C3117 1.363 . S
C3122 C3121 1.415 . S
C3123 H3099 0.951 . S
C3123 C3124 1.366 . S
C3123 C3125 1.388 . S
C3124 C3123 1.366 . S
C3124 C3128 1.385 . S
C3125 H3100 0.951 . S
C3125 C3123 1.388 . S
C3125 C3126 1.366 . S
C3126 C3125 1.366 . S
C3126 C3127 1.414 . S
C3126 C3129 1.499 . S
C3127 H3101 0.950 . S
C3127 C3126 1.414 . S
C3127 C3128 1.374 . S
C3128 H3102 0.950 . S
C3128 C3124 1.385 . S
C3128 C3127 1.374 . S
C3129 C3126 1.499 . S
C3129 C3130 1.373 . S
C3129 C3131 1.389 . S
C3130 H3103 0.950 . S
C3130 C3116 1.377 . S
C3130 C3129 1.373 . S
C3131 C3115 1.377 . S
C3131 C3129 1.389 . S
C3131 C3132 1.524 . S
C3132 C3131 1.524 . S
C3132 C3133 1.397 . S
C3132 C3137 1.363 . S
C3133 H3104 0.950 . S
C3133 C3132 1.397 . S
C3133 C3134 1.334 . S
C3134 H3105 0.950 . S
C3134 C3133 1.334 . S
C3134 C3135 1.287 . S
C3135 C3134 1.287 . S
C3135 C3136 1.524 . S
C3135 H3138 0.999 . S
C3136 H3106 0.950 . S
C3136 C3135 1.524 . S
C3136 C3137 1.415 . S
C3137 H3107 0.950 . S
C3137 C3132 1.363 . S
C3137 C3136 1.415 . S
H3138 C3135 0.999 . S
H3139 C3120 0.913 . S
H3140 C3158 0.951 . S
H3141 C3160 0.951 . S
H3142 C3162 0.950 . S
H3143 C3163 0.950 . S
H3144 C3165 0.950 . S
H3145 C3168 0.950 . S
H3146 C3169 0.950 . S
H3147 C3171 0.950 . S
H3148 C3172 0.950 . S
H3149 C3173 0.951 . S
H3150 C3175 0.951 . S
H3151 C3177 0.950 . S
H3152 C3178 0.950 . S
H3153 C3180 0.950 . S
H3154 C3183 0.950 . S
H3155 C3184 0.950 . S
H3156 C3186 0.950 . S
H3157 C3187 0.950 . S
C3158 H3140 0.951 . S
C3158 C3159 1.366 . S
C3158 C3160 1.388 . S
C3159 C3158 1.366 . S
C3159 C3163 1.385 . S
C3160 H3141 0.951 . S
C3160 C3158 1.388 . S
C3160 C3161 1.366 . S
C3161 C3160 1.366 . S
C3161 C3162 1.414 . S
C3161 C3164 1.499 . S
C3162 H3142 0.950 . S
C3162 C3161 1.414 . S
C3162 C3163 1.374 . S
C3163 H3143 0.950 . S
C3163 C3159 1.385 . S
C3163 C3162 1.374 . S
C3164 C3161 1.499 . S
C3164 C3165 1.373 . S
C3164 C3166 1.389 . S
C3165 H3144 0.950 . S
C3165 C3164 1.373 . S
C3165 C3181 1.377 . S
C3166 C3164 1.389 . S
C3166 C3167 1.524 . S
C3166 C3180 1.377 . S
C3167 C3166 1.524 . S
C3167 C3168 1.397 . S
C3167 C3172 1.363 . S
C3168 H3145 0.950 . S
C3168 C3167 1.397 . S
C3168 C3169 1.334 . S
C3169 H3146 0.950 . S
C3169 C3168 1.334 . S
C3169 C3170 1.287 . S
C3170 C3169 1.287 . S
C3170 C3171 1.524 . S
C3170 H3189 0.913 . S
C3171 H3147 0.950 . S
C3171 C3170 1.524 . S
C3171 C3172 1.415 . S
C3172 H3148 0.950 . S
C3172 C3167 1.363 . S
C3172 C3171 1.415 . S
C3173 H3149 0.951 . S
C3173 C3174 1.366 . S
C3173 C3175 1.388 . S
C3174 C3173 1.366 . S
C3174 C3178 1.385 . S
C3175 H3150 0.951 . S
C3175 C3173 1.388 . S
C3175 C3176 1.366 . S
C3176 C3175 1.366 . S
C3176 C3177 1.414 . S
C3176 C3179 1.499 . S
C3177 H3151 0.950 . S
C3177 C3176 1.414 . S
C3177 C3178 1.374 . S
C3178 H3152 0.950 . S
C3178 C3174 1.385 . S
C3178 C3177 1.374 . S
C3179 C3176 1.499 . S
C3179 C3180 1.373 . S
C3179 C3181 1.389 . S
C3180 H3153 0.950 . S
C3180 C3166 1.377 . S
C3180 C3179 1.373 . S
C3181 C3165 1.377 . S
C3181 C3179 1.389 . S
C3181 C3182 1.524 . S
C3182 C3181 1.524 . S
C3182 C3183 1.397 . S
C3182 C3187 1.363 . S
C3183 H3154 0.950 . S
C3183 C3182 1.397 . S
C3183 C3184 1.334 . S
C3184 H3155 0.950 . S
C3184 C3183 1.334 . S
C3184 C3185 1.287 . S
C3185 C3184 1.287 . S
C3185 C3186 1.524 . S
C3185 H3188 0.999 . S
C3186 H3156 0.950 . S
C3186 C3185 1.524 . S
C3186 C3187 1.415 . S
C3187 H3157 0.950 . S
C3187 C3182 1.363 . S
C3187 C3186 1.415 . S
H3188 C3185 0.999 . S
H3189 C3170 0.913 . S
H3190 C3208 0.951 . S
H3191 C3210 0.951 . S
H3192 C3212 0.950 . S
H3193 C3213 0.950 . S
H3194 C3215 0.950 . S
H3195 C3218 0.950 . S
H3196 C3219 0.950 . S
H3197 C3221 0.950 . S
H3198 C3222 0.950 . S
H3199 C3223 0.951 . S
H3200 C3225 0.951 . S
H3201 C3227 0.950 . S
H3202 C3228 0.950 . S
H3203 C3230 0.950 . S
H3204 C3233 0.950 . S
H3205 C3234 0.950 . S
H3206 C3236 0.950 . S
H3207 C3237 0.950 . S
C3208 H3190 0.951 . S
C3208 C3209 1.366 . S
C3208 C3210 1.388 . S
C3209 C3208 1.366 . S
C3209 C3213 1.385 . S
C3210 H3191 0.951 . S
C3210 C3208 1.388 . S
C3210 C3211 1.366 . S
C3211 C3210 1.366 . S
C3211 C3212 1.414 . S
C3211 C3214 1.499 . S
C3212 H3192 0.950 . S
C3212 C3211 1.414 . S
C3212 C3213 1.374 . S
C3213 H3193 0.950 . S
C3213 C3209 1.385 . S
C3213 C3212 1.374 . S
C3214 C3211 1.499 . S
C3214 C3215 1.373 . S
C3214 C3216 1.389 . S
C3215 H3194 0.950 . S
C3215 C3214 1.373 . S
C3215 C3231 1.377 . S
C3216 C3214 1.389 . S
C3216 C3217 1.524 . S
C3216 C3230 1.377 . S
C3217 C3216 1.524 . S
C3217 C3218 1.397 . S
C3217 C3222 1.363 . S
C3218 H3195 0.950 . S
C3218 C3217 1.397 . S
C3218 C3219 1.334 . S
C3219 H3196 0.950 . S
C3219 C3218 1.334 . S
C3219 C3220 1.287 . S
C3220 C3219 1.287 . S
C3220 C3221 1.524 . S
C3220 H3239 0.913 . S
C3221 H3197 0.950 . S
C3221 C3220 1.524 . S
C3221 C3222 1.415 . S
C3222 H3198 0.950 . S
C3222 C3217 1.363 . S
C3222 C3221 1.415 . S
C3223 H3199 0.951 . S
C3223 C3224 1.366 . S
C3223 C3225 1.388 . S
C3224 C3223 1.366 . S
C3224 C3228 1.385 . S
C3225 H3200 0.951 . S
C3225 C3223 1.388 . S
C3225 C3226 1.366 . S
C3226 C3225 1.366 . S
C3226 C3227 1.414 . S
C3226 C3229 1.499 . S
C3227 H3201 0.950 . S
C3227 C3226 1.414 . S
C3227 C3228 1.374 . S
C3228 H3202 0.950 . S
C3228 C3224 1.385 . S
C3228 C3227 1.374 . S
C3229 C3226 1.499 . S
C3229 C3230 1.373 . S
C3229 C3231 1.389 . S
C3230 H3203 0.950 . S
C3230 C3216 1.377 . S
C3230 C3229 1.373 . S
C3231 C3215 1.377 . S
C3231 C3229 1.389 . S
C3231 C3232 1.524 . S
C3232 C3231 1.524 . S
C3232 C3233 1.397 . S
C3232 C3237 1.363 . S
C3233 H3204 0.950 . S
C3233 C3232 1.397 . S
C3233 C3234 1.334 . S
C3234 H3205 0.950 . S
C3234 C3233 1.334 . S
C3234 C3235 1.287 . S
C3235 C3234 1.287 . S
C3235 C3236 1.524 . S
C3235 H3238 0.999 . S
C3236 H3206 0.950 . S
C3236 C3235 1.524 . S
C3236 C3237 1.415 . S
C3237 H3207 0.950 . S
C3237 C3232 1.363 . S
C3237 C3236 1.415 . S
H3238 C3235 0.999 . S
H3239 C3220 0.913 . S
H3240 C3258 0.951 . S
H3241 C3260 0.951 . S
H3242 C3262 0.950 . S
H3243 C3263 0.950 . S
H3244 C3265 0.950 . S
H3245 C3268 0.950 . S
H3246 C3269 0.950 . S
H3247 C3271 0.950 . S
H3248 C3272 0.950 . S
H3249 C3273 0.951 . S
H3250 C3275 0.951 . S
H3251 C3277 0.950 . S
H3252 C3278 0.950 . S
H3253 C3280 0.950 . S
H3254 C3283 0.950 . S
H3255 C3284 0.950 . S
H3256 C3286 0.950 . S
H3257 C3287 0.950 . S
C3258 H3240 0.951 . S
C3258 C3259 1.366 . S
C3258 C3260 1.388 . S
C3259 C3258 1.366 . S
C3259 C3263 1.385 . S
C3260 H3241 0.951 . S
C3260 C3258 1.388 . S
C3260 C3261 1.366 . S
C3261 C3260 1.366 . S
C3261 C3262 1.414 . S
C3261 C3264 1.499 . S
C3262 H3242 0.950 . S
C3262 C3261 1.414 . S
C3262 C3263 1.374 . S
C3263 H3243 0.950 . S
C3263 C3259 1.385 . S
C3263 C3262 1.374 . S
C3264 C3261 1.499 . S
C3264 C3265 1.373 . S
C3264 C3266 1.389 . S
C3265 H3244 0.950 . S
C3265 C3264 1.373 . S
C3265 C3281 1.377 . S
C3266 C3264 1.389 . S
C3266 C3267 1.524 . S
C3266 C3280 1.377 . S
C3267 C3266 1.524 . S
C3267 C3268 1.397 . S
C3267 C3272 1.363 . S
C3268 H3245 0.950 . S
C3268 C3267 1.397 . S
C3268 C3269 1.334 . S
C3269 H3246 0.950 . S
C3269 C3268 1.334 . S
C3269 C3270 1.287 . S
C3270 C3269 1.287 . S
C3270 C3271 1.524 . S
C3270 H3289 0.913 . S
C3271 H3247 0.950 . S
C3271 C3270 1.524 . S
C3271 C3272 1.415 . S
C3272 H3248 0.950 . S
C3272 C3267 1.363 . S
C3272 C3271 1.415 . S
C3273 H3249 0.951 . S
C3273 C3274 1.366 . S
C3273 C3275 1.388 . S
C3274 C3273 1.366 . S
C3274 C3278 1.385 . S
C3275 H3250 0.951 . S
C3275 C3273 1.388 . S
C3275 C3276 1.366 . S
C3276 C3275 1.366 . S
C3276 C3277 1.414 . S
C3276 C3279 1.499 . S
C3277 H3251 0.950 . S
C3277 C3276 1.414 . S
C3277 C3278 1.374 . S
C3278 H3252 0.950 . S
C3278 C3274 1.385 . S
C3278 C3277 1.374 . S
C3279 C3276 1.499 . S
C3279 C3280 1.373 . S
C3279 C3281 1.389 . S
C3280 H3253 0.950 . S
C3280 C3266 1.377 . S
C3280 C3279 1.373 . S
C3281 C3265 1.377 . S
C3281 C3279 1.389 . S
C3281 C3282 1.524 1_565 S
C3282 C3281 1.524 1_545 S
C3282 C3283 1.397 . S
C3282 C3287 1.363 . S
C3283 H3254 0.950 . S
C3283 C3282 1.397 . S
C3283 C3284 1.334 . S
C3284 H3255 0.950 . S
C3284 C3283 1.334 . S
C3284 C3285 1.287 . S
C3285 C3284 1.287 . S
C3285 C3286 1.524 . S
C3285 H3288 0.999 . S
C3286 H3256 0.950 . S
C3286 C3285 1.524 . S
C3286 C3287 1.415 . S
C3287 H3257 0.950 . S
C3287 C3282 1.363 . S
C3287 C3286 1.415 . S
H3288 C3285 0.999 . S
H3289 C3270 0.913 . S
H3290 C3308 0.951 . S
H3291 C3310 0.951 . S
H3292 C3312 0.950 . S
H3293 C3313 0.950 . S
H3294 C3315 0.950 . S
H3295 C3318 0.950 . S
H3296 C3319 0.950 . S
H3297 C3321 0.950 . S
H3298 C3322 0.950 . S
H3299 C3323 0.951 . S
H3300 C3325 0.951 . S
H3301 C3327 0.950 . S
H3302 C3328 0.950 . S
H3303 C3330 0.950 . S
H3304 C3333 0.950 . S
H3305 C3334 0.950 . S
H3306 C3336 0.951 . S
H3307 C3337 0.950 1_655 S
C3308 H3290 0.951 . S
C3308 C3309 1.366 . S
C3308 C3310 1.388 . S
C3309 C3308 1.366 . S
C3309 C3313 1.385 1_455 S
C3310 H3291 0.951 . S
C3310 C3308 1.388 . S
C3310 C3311 1.366 . S
C3311 C3310 1.366 . S
C3311 C3312 1.414 1_455 S
C3311 C3314 1.499 . S
C3312 H3292 0.950 . S
C3312 C3311 1.414 1_655 S
C3312 C3313 1.374 . S
C3313 H3293 0.950 . S
C3313 C3309 1.385 1_655 S
C3313 C3312 1.374 . S
C3314 C3311 1.499 . S
C3314 C3315 1.373 . S
C3314 C3316 1.389 . S
C3315 H3294 0.950 . S
C3315 C3314 1.373 . S
C3315 C3331 1.377 . S
C3316 C3314 1.389 . S
C3316 C3317 1.524 . S
C3316 C3330 1.377 . S
C3317 C3316 1.524 . S
C3317 C3318 1.397 1_455 S
C3317 C3322 1.363 . S
C3318 H3295 0.950 . S
C3318 C3317 1.397 1_655 S
C3318 C3319 1.334 . S
C3319 H3296 0.950 . S
C3319 C3318 1.334 . S
C3319 C3320 1.287 . S
C3320 C3319 1.287 . S
C3320 C3321 1.524 1_655 S
C3320 H3339 0.913 . S
C3321 H3297 0.950 . S
C3321 C3320 1.524 1_455 S
C3321 C3322 1.415 . S
C3322 H3298 0.950 . S
C3322 C3317 1.363 . S
C3322 C3321 1.415 . S
C3323 H3299 0.951 . S
C3323 C3324 1.366 1_655 S
C3323 C3325 1.388 . S
C3324 C3323 1.366 1_455 S
C3324 C3328 1.385 . S
C3325 H3300 0.951 . S
C3325 C3323 1.388 . S
C3325 C3326 1.366 1_655 S
C3326 C3325 1.366 1_455 S
C3326 C3327 1.414 . S
C3326 C3329 1.499 . S
C3327 H3301 0.950 . S
C3327 C3326 1.414 . S
C3327 C3328 1.374 . S
C3328 H3302 0.950 . S
C3328 C3324 1.385 . S
C3328 C3327 1.374 . S
C3329 C3326 1.499 . S
C3329 C3330 1.373 . S
C3329 C3331 1.389 . S
C3330 H3303 0.950 . S
C3330 C3316 1.377 . S
C3330 C3329 1.373 . S
C3331 C3315 1.377 . S
C3331 C3329 1.389 . S
C3331 C3332 1.524 . S
C3332 C3331 1.524 . S
C3332 C3333 1.397 . S
C3332 C3337 1.363 . S
C3333 H3304 0.950 . S
C3333 C3332 1.397 . S
C3333 C3334 1.334 . S
C3334 H3305 0.950 . S
C3334 C3333 1.334 . S
C3334 C3335 1.287 . S
C3335 C3334 1.287 . S
C3335 C3336 1.524 . S
C3335 H3338 0.999 . S
C3336 H3306 0.951 . S
C3336 C3335 1.524 . S
C3336 C3337 1.415 . S
C3337 H3307 0.950 1_455 S
C3337 C3332 1.363 . S
C3337 C3336 1.415 . S
H3338 C3335 0.999 . S
H3339 C3320 0.913 . S
H3340 C3358 0.951 . S
H3341 C3360 0.951 . S
H3342 C3362 0.950 . S
H3343 C3363 0.950 . S
H3344 C3365 0.950 . S
H3345 C3368 0.950 . S
H3346 C3369 0.950 . S
H3347 C3371 0.950 . S
H3348 C3372 0.950 . S
H3349 C3373 0.951 . S
H3350 C3375 0.951 . S
H3351 C3377 0.950 . S
H3352 C3378 0.950 . S
H3353 C3380 0.950 . S
H3354 C3383 0.950 . S
H3355 C3384 0.950 . S
H3356 C3386 0.950 . S
H3357 C3387 0.950 . S
C3358 H3340 0.951 . S
C3358 C3359 1.366 . S
C3358 C3360 1.388 . S
C3359 C3358 1.366 . S
C3359 C3363 1.385 . S
C3360 H3341 0.951 . S
C3360 C3358 1.388 . S
C3360 C3361 1.366 . S
C3361 C3360 1.366 . S
C3361 C3362 1.414 . S
C3361 C3364 1.499 . S
C3362 H3342 0.950 . S
C3362 C3361 1.414 . S
C3362 C3363 1.374 . S
C3363 H3343 0.950 . S
C3363 C3359 1.385 . S
C3363 C3362 1.374 . S
C3364 C3361 1.499 . S
C3364 C3365 1.373 . S
C3364 C3366 1.389 . S
C3365 H3344 0.950 . S
C3365 C3364 1.373 . S
C3365 C3381 1.377 . S
C3366 C3364 1.389 . S
C3366 C3367 1.524 . S
C3366 C3380 1.377 . S
C3367 C3366 1.524 . S
C3367 C3368 1.397 . S
C3367 C3372 1.363 . S
C3368 H3345 0.950 . S
C3368 C3367 1.397 . S
C3368 C3369 1.334 . S
C3369 H3346 0.950 . S
C3369 C3368 1.334 . S
C3369 C3370 1.287 . S
C3370 C3369 1.287 . S
C3370 C3371 1.524 . S
C3370 H3389 0.913 . S
C3371 H3347 0.950 . S
C3371 C3370 1.524 . S
C3371 C3372 1.415 . S
C3372 H3348 0.950 . S
C3372 C3367 1.363 . S
C3372 C3371 1.415 . S
C3373 H3349 0.951 . S
C3373 C3374 1.366 . S
C3373 C3375 1.388 . S
C3374 C3373 1.366 . S
C3374 C3378 1.385 . S
C3375 H3350 0.951 . S
C3375 C3373 1.388 . S
C3375 C3376 1.366 . S
C3376 C3375 1.366 . S
C3376 C3377 1.414 . S
C3376 C3379 1.499 . S
C3377 H3351 0.950 . S
C3377 C3376 1.414 . S
C3377 C3378 1.374 . S
C3378 H3352 0.950 . S
C3378 C3374 1.385 . S
C3378 C3377 1.374 . S
C3379 C3376 1.499 . S
C3379 C3380 1.373 . S
C3379 C3381 1.389 . S
C3380 H3353 0.950 . S
C3380 C3366 1.377 . S
C3380 C3379 1.373 . S
C3381 C3365 1.377 . S
C3381 C3379 1.389 . S
C3381 C3382 1.524 . S
C3382 C3381 1.524 . S
C3382 C3383 1.397 . S
C3382 C3387 1.363 . S
C3383 H3354 0.950 . S
C3383 C3382 1.397 . S
C3383 C3384 1.334 . S
C3384 H3355 0.950 . S
C3384 C3383 1.334 . S
C3384 C3385 1.287 . S
C3385 C3384 1.287 . S
C3385 C3386 1.524 . S
C3385 H3388 0.999 . S
C3386 H3356 0.950 . S
C3386 C3385 1.524 . S
C3386 C3387 1.415 . S
C3387 H3357 0.950 . S
C3387 C3382 1.363 . S
C3387 C3386 1.415 . S
H3388 C3385 0.999 . S
H3389 C3370 0.913 . S
H3390 C3408 0.951 . S
H3391 C3410 0.951 . S
H3392 C3412 0.950 . S
H3393 C3413 0.950 . S
H3394 C3415 0.948 1_455 S
H3395 C3418 0.950 . S
H3396 C3419 0.950 . S
H3397 C3421 0.950 . S
H3398 C3422 0.950 . S
H3399 C3423 0.951 . S
H3400 C3425 0.951 . S
H3401 C3427 0.950 . S
H3402 C3428 0.950 . S
H3403 C3430 0.950 . S
H3404 C3433 0.950 . S
H3405 C3434 0.950 . S
H3406 C3436 0.950 . S
H3407 C3437 0.950 . S
C3408 H3390 0.951 . S
C3408 C3409 1.366 . S
C3408 C3410 1.388 . S
C3409 C3408 1.366 . S
C3409 C3413 1.385 . S
C3410 H3391 0.951 . S
C3410 C3408 1.388 . S
C3410 C3411 1.366 . S
C3411 C3410 1.366 . S
C3411 C3412 1.414 . S
C3411 C3414 1.499 . S
C3412 H3392 0.950 . S
C3412 C3411 1.414 . S
C3412 C3413 1.374 . S
C3413 H3393 0.950 . S
C3413 C3409 1.385 . S
C3413 C3412 1.374 . S
C3414 C3411 1.499 . S
C3414 C3415 1.377 . S
C3414 C3416 1.389 . S
C3415 H3394 0.948 1_655 S
C3415 C3414 1.377 . S
C3415 C3431 1.379 1_655 S
C3416 C3414 1.389 . S
C3416 C3417 1.524 . S
C3416 C3430 1.377 . S
C3417 C3416 1.524 . S
C3417 C3418 1.397 . S
C3417 C3422 1.363 . S
C3418 H3395 0.950 . S
C3418 C3417 1.397 . S
C3418 C3419 1.334 . S
C3419 H3396 0.950 . S
C3419 C3418 1.334 . S
C3419 C3420 1.287 . S
C3420 C3419 1.287 . S
C3420 C3421 1.524 . S
C3420 H3439 0.913 . S
C3421 H3397 0.950 . S
C3421 C3420 1.524 . S
C3421 C3422 1.415 . S
C3422 H3398 0.950 . S
C3422 C3417 1.363 . S
C3422 C3421 1.415 . S
C3423 H3399 0.951 . S
C3423 C3424 1.366 . S
C3423 C3425 1.388 . S
C3424 C3423 1.366 . S
C3424 C3428 1.385 . S
C3425 H3400 0.951 . S
C3425 C3423 1.388 . S
C3425 C3426 1.366 . S
C3426 C3425 1.366 . S
C3426 C3427 1.414 . S
C3426 C3429 1.499 . S
C3427 H3401 0.950 . S
C3427 C3426 1.414 . S
C3427 C3428 1.374 . S
C3428 H3402 0.950 . S
C3428 C3424 1.385 . S
C3428 C3427 1.374 . S
C3429 C3426 1.499 . S
C3429 C3430 1.373 . S
C3429 C3431 1.388 1_655 S
C3430 H3403 0.950 . S
C3430 C3416 1.377 . S
C3430 C3429 1.373 . S
C3431 C3415 1.379 1_455 S
C3431 C3429 1.388 1_455 S
C3431 C3432 1.528 . S
C3432 C3431 1.528 . S
C3432 C3433 1.397 . S
C3432 C3437 1.363 . S
C3433 H3404 0.950 . S
C3433 C3432 1.397 . S
C3433 C3434 1.334 . S
C3434 H3405 0.950 . S
C3434 C3433 1.334 . S
C3434 C3435 1.287 . S
C3435 C3434 1.287 . S
C3435 C3436 1.524 . S
C3435 H3438 0.999 . S
C3436 H3406 0.950 . S
C3436 C3435 1.524 . S
C3436 C3437 1.415 . S
C3437 H3407 0.950 . S
C3437 C3432 1.363 . S
C3437 C3436 1.415 . S
H3438 C3435 0.999 . S
H3439 C3420 0.913 . S
H3440 C3458 0.951 . S
H3441 C3460 0.951 . S
H3442 C3462 0.950 . S
H3443 C3463 0.950 . S
H3444 C3465 0.950 . S
H3445 C3468 0.950 . S
H3446 C3469 0.950 . S
H3447 C3471 0.950 . S
H3448 C3472 0.950 . S
H3449 C3473 0.951 . S
H3450 C3475 0.951 . S
H3451 C3477 0.950 . S
H3452 C3478 0.950 . S
H3453 C3480 0.950 . S
H3454 C3483 0.950 . S
H3455 C3484 0.950 . S
H3456 C3486 0.950 . S
H3457 C3487 0.950 . S
C3458 H3440 0.951 . S
C3458 C3459 1.366 . S
C3458 C3460 1.388 . S
C3459 C3458 1.366 . S
C3459 C3463 1.385 . S
C3460 H3441 0.951 . S
C3460 C3458 1.388 . S
C3460 C3461 1.366 . S
C3461 C3460 1.366 . S
C3461 C3462 1.414 . S
C3461 C3464 1.499 . S
C3462 H3442 0.950 . S
C3462 C3461 1.414 . S
C3462 C3463 1.374 . S
C3463 H3443 0.950 . S
C3463 C3459 1.385 . S
C3463 C3462 1.374 . S
C3464 C3461 1.499 . S
C3464 C3465 1.373 . S
C3464 C3466 1.389 . S
C3465 H3444 0.950 . S
C3465 C3464 1.373 . S
C3465 C3481 1.377 . S
C3466 C3464 1.389 . S
C3466 C3467 1.524 . S
C3466 C3480 1.377 . S
C3467 C3466 1.524 . S
C3467 C3468 1.397 . S
C3467 C3472 1.363 . S
C3468 H3445 0.950 . S
C3468 C3467 1.397 . S
C3468 C3469 1.334 . S
C3469 H3446 0.950 . S
C3469 C3468 1.334 . S
C3469 C3470 1.287 . S
C3470 C3469 1.287 . S
C3470 C3471 1.524 . S
C3470 H3489 0.913 . S
C3471 H3447 0.950 . S
C3471 C3470 1.524 . S
C3471 C3472 1.415 . S
C3472 H3448 0.950 . S
C3472 C3467 1.363 . S
C3472 C3471 1.415 . S
C3473 H3449 0.951 . S
C3473 C3474 1.366 . S
C3473 C3475 1.388 . S
C3474 C3473 1.366 . S
C3474 C3478 1.385 . S
C3475 H3450 0.951 . S
C3475 C3473 1.388 . S
C3475 C3476 1.366 . S
C3476 C3475 1.366 . S
C3476 C3477 1.414 . S
C3476 C3479 1.499 . S
C3477 H3451 0.950 . S
C3477 C3476 1.414 . S
C3477 C3478 1.374 . S
C3478 H3452 0.950 . S
C3478 C3474 1.385 . S
C3478 C3477 1.374 . S
C3479 C3476 1.499 . S
C3479 C3480 1.373 . S
C3479 C3481 1.389 . S
C3480 H3453 0.950 . S
C3480 C3466 1.377 . S
C3480 C3479 1.373 . S
C3481 C3465 1.377 . S
C3481 C3479 1.389 . S
C3481 C3482 1.524 . S
C3482 C3481 1.524 . S
C3482 C3483 1.397 . S
C3482 C3487 1.363 . S
C3483 H3454 0.950 . S
C3483 C3482 1.397 . S
C3483 C3484 1.334 . S
C3484 H3455 0.950 . S
C3484 C3483 1.334 . S
C3484 C3485 1.287 . S
C3485 C3484 1.287 . S
C3485 C3486 1.524 . S
C3485 H3488 0.999 . S
C3486 H3456 0.950 . S
C3486 C3485 1.524 . S
C3486 C3487 1.415 . S
C3487 H3457 0.950 . S
C3487 C3482 1.363 . S
C3487 C3486 1.415 . S
H3488 C3485 0.999 . S
H3489 C3470 0.913 . S
H3490 C3508 0.951 . S
H3491 C3510 0.951 . S
H3492 C3512 0.950 . S
H3493 C3513 0.950 . S
H3494 C3515 0.950 . S
H3495 C3518 0.950 . S
H3496 C3519 0.950 . S
H3497 C3521 0.950 . S
H3498 C3522 0.950 . S
H3499 C3523 0.951 . S
H3500 C3525 0.951 . S
H3501 C3527 0.951 . S
H3502 C3528 0.944 1_565 S
H3503 C3530 0.950 . S
H3504 C3533 0.950 . S
H3505 C3534 0.950 . S
H3506 C3536 0.950 . S
H3507 C3537 0.950 . S
C3508 H3490 0.951 . S
C3508 C3509 1.366 . S
C3508 C3510 1.388 . S
C3509 C3508 1.366 . S
C3509 C3513 1.385 . S
C3510 H3491 0.951 . S
C3510 C3508 1.388 . S
C3510 C3511 1.366 . S
C3511 C3510 1.366 . S
C3511 C3512 1.414 . S
C3511 C3514 1.499 . S
C3512 H3492 0.950 . S
C3512 C3511 1.414 . S
C3512 C3513 1.374 . S
C3513 H3493 0.950 . S
C3513 C3509 1.385 . S
C3513 C3512 1.374 . S
C3514 C3511 1.499 . S
C3514 C3515 1.373 . S
C3514 C3516 1.389 . S
C3515 H3494 0.950 . S
C3515 C3514 1.373 . S
C3515 C3531 1.377 . S
C3516 C3514 1.389 . S
C3516 C3517 1.524 . S
C3516 C3530 1.377 . S
C3517 C3516 1.524 . S
C3517 C3518 1.397 . S
C3517 C3522 1.363 . S
C3518 H3495 0.950 . S
C3518 C3517 1.397 . S
C3518 C3519 1.334 . S
C3519 H3496 0.950 . S
C3519 C3518 1.334 . S
C3519 C3520 1.287 . S
C3520 C3519 1.287 . S
C3520 C3521 1.524 . S
C3520 H3539 0.913 . S
C3521 H3497 0.950 . S
C3521 C3520 1.524 . S
C3521 C3522 1.415 . S
C3522 H3498 0.950 . S
C3522 C3517 1.363 . S
C3522 C3521 1.415 . S
C3523 H3499 0.951 . S
C3523 C3524 1.366 . S
C3523 C3525 1.388 . S
C3524 C3523 1.366 . S
C3524 C3528 1.379 . S
C3525 H3500 0.951 . S
C3525 C3523 1.388 . S
C3525 C3526 1.366 . S
C3526 C3525 1.366 . S
C3526 C3527 1.414 . S
C3526 C3529 1.499 . S
C3527 H3501 0.951 . S
C3527 C3526 1.414 . S
C3527 C3528 1.390 . S
C3528 H3502 0.944 1_545 S
C3528 C3524 1.379 . S
C3528 C3527 1.390 . S
C3529 C3526 1.499 . S
C3529 C3530 1.373 . S
C3529 C3531 1.389 . S
C3530 H3503 0.950 . S
C3530 C3516 1.377 . S
C3530 C3529 1.373 . S
C3531 C3515 1.377 . S
C3531 C3529 1.389 . S
C3531 C3532 1.524 . S
C3532 C3531 1.524 . S
C3532 C3533 1.397 1_545 S
C3532 C3537 1.363 . S
C3533 H3504 0.950 . S
C3533 C3532 1.397 1_565 S
C3533 C3534 1.334 . S
C3534 H3505 0.950 . S
C3534 C3533 1.334 . S
C3534 C3535 1.287 . S
C3535 C3534 1.287 . S
C3535 C3536 1.524 1_565 S
C3535 H3538 0.999 . S
C3536 H3506 0.950 . S
C3536 C3535 1.524 1_545 S
C3536 C3537 1.415 . S
C3537 H3507 0.950 . S
C3537 C3532 1.363 . S
C3537 C3536 1.415 . S
H3538 C3535 0.999 . S
H3539 C3520 0.913 . S
H3540 C3558 0.951 . S
H3541 C3560 0.951 . S
H3542 C3562 0.950 . S
H3543 C3563 0.950 . S
H3544 C3565 0.950 . S
H3545 C3568 0.950 . S
H3546 C3569 0.950 . S
H3547 C3571 0.950 . S
H3548 C3572 0.950 . S
H3549 C3573 0.951 . S
H3550 C3575 0.951 . S
H3551 C3577 0.950 . S
H3552 C3578 0.950 . S
H3553 C3580 0.950 . S
H3554 C3583 0.950 . S
H3555 C3584 0.950 . S
H3556 C3586 0.950 . S
H3557 C3587 0.950 . S
C3558 H3540 0.951 . S
C3558 C3559 1.366 . S
C3558 C3560 1.388 . S
C3559 C3558 1.366 . S
C3559 C3563 1.385 . S
C3560 H3541 0.951 . S
C3560 C3558 1.388 . S
C3560 C3561 1.366 . S
C3561 C3560 1.366 . S
C3561 C3562 1.414 . S
C3561 C3564 1.499 . S
C3562 H3542 0.950 . S
C3562 C3561 1.414 . S
C3562 C3563 1.374 . S
C3563 H3543 0.950 . S
C3563 C3559 1.385 . S
C3563 C3562 1.374 . S
C3564 C3561 1.499 . S
C3564 C3565 1.373 . S
C3564 C3566 1.389 . S
C3565 H3544 0.950 . S
C3565 C3564 1.373 . S
C3565 C3581 1.377 . S
C3566 C3564 1.389 . S
C3566 C3567 1.524 . S
C3566 C3580 1.377 . S
C3567 C3566 1.524 . S
C3567 C3568 1.397 . S
C3567 C3572 1.363 . S
C3568 H3545 0.950 . S
C3568 C3567 1.397 . S
C3568 C3569 1.334 . S
C3569 H3546 0.950 . S
C3569 C3568 1.334 . S
C3569 C3570 1.287 . S
C3570 C3569 1.287 . S
C3570 C3571 1.524 . S
C3570 H3589 0.913 . S
C3571 H3547 0.950 . S
C3571 C3570 1.524 . S
C3571 C3572 1.415 . S
C3572 H3548 0.950 . S
C3572 C3567 1.363 . S
C3572 C3571 1.415 . S
C3573 H3549 0.951 . S
C3573 C3574 1.366 . S
C3573 C3575 1.388 . S
C3574 C3573 1.366 . S
C3574 C3578 1.385 . S
C3575 H3550 0.951 . S
C3575 C3573 1.388 . S
C3575 C3576 1.366 . S
C3576 C3575 1.366 . S
C3576 C3577 1.414 . S
C3576 C3579 1.499 . S
C3577 H3551 0.950 . S
C3577 C3576 1.414 . S
C3577 C3578 1.374 . S
C3578 H3552 0.950 . S
C3578 C3574 1.385 . S
C3578 C3577 1.374 . S
C3579 C3576 1.499 . S
C3579 C3580 1.373 . S
C3579 C3581 1.389 . S
C3580 H3553 0.950 . S
C3580 C3566 1.377 . S
C3580 C3579 1.373 . S
C3581 C3565 1.377 . S
C3581 C3579 1.389 . S
C3581 C3582 1.524 . S
C3582 C3581 1.524 . S
C3582 C3583 1.397 . S
C3582 C3587 1.363 . S
C3583 H3554 0.950 . S
C3583 C3582 1.397 . S
C3583 C3584 1.334 . S
C3584 H3555 0.950 . S
C3584 C3583 1.334 . S
C3584 C3585 1.287 . S
C3585 C3584 1.287 . S
C3585 C3586 1.524 . S
C3585 H3588 0.999 . S
C3586 H3556 0.950 . S
C3586 C3585 1.524 . S
C3586 C3587 1.415 . S
C3587 H3557 0.950 . S
C3587 C3582 1.363 . S
C3587 C3586 1.415 . S
H3588 C3585 0.999 . S
H3589 C3570 0.913 . S
H3590 C3608 0.951 . S
H3591 C3610 0.951 . S
H3592 C3612 0.950 . S
H3593 C3613 0.950 . S
H3594 C3615 0.950 . S
H3595 C3618 0.950 . S
H3596 C3619 0.950 . S
H3597 C3621 0.950 . S
H3598 C3622 0.950 . S
H3599 C3623 0.951 . S
H3600 C3625 0.951 . S
H3601 C3627 0.950 . S
H3602 C3628 0.950 . S
H3603 C3630 0.950 . S
H3604 C3633 0.950 . S
H3605 C3634 0.950 . S
H3606 C3636 0.950 . S
H3607 C3637 0.950 . S
C3608 H3590 0.951 . S
C3608 C3609 1.366 . S
C3608 C3610 1.388 . S
C3609 C3608 1.366 . S
C3609 C3613 1.385 . S
C3610 H3591 0.951 . S
C3610 C3608 1.388 . S
C3610 C3611 1.366 . S
C3611 C3610 1.366 . S
C3611 C3612 1.414 . S
C3611 C3614 1.499 . S
C3612 H3592 0.950 . S
C3612 C3611 1.414 . S
C3612 C3613 1.374 . S
C3613 H3593 0.950 . S
C3613 C3609 1.385 . S
C3613 C3612 1.374 . S
C3614 C3611 1.499 . S
C3614 C3615 1.373 . S
C3614 C3616 1.389 . S
C3615 H3594 0.950 . S
C3615 C3614 1.373 . S
C3615 C3631 1.377 . S
C3616 C3614 1.389 . S
C3616 C3617 1.524 . S
C3616 C3630 1.377 . S
C3617 C3616 1.524 . S
C3617 C3618 1.397 . S
C3617 C3622 1.363 . S
C3618 H3595 0.950 . S
C3618 C3617 1.397 . S
C3618 C3619 1.334 . S
C3619 H3596 0.950 . S
C3619 C3618 1.334 . S
C3619 C3620 1.287 . S
C3620 C3619 1.287 . S
C3620 C3621 1.524 . S
C3620 H3639 0.913 . S
C3621 H3597 0.950 . S
C3621 C3620 1.524 . S
C3621 C3622 1.415 . S
C3622 H3598 0.950 . S
C3622 C3617 1.363 . S
C3622 C3621 1.415 . S
C3623 H3599 0.951 . S
C3623 C3624 1.366 . S
C3623 C3625 1.388 . S
C3624 C3623 1.366 . S
C3624 C3628 1.385 . S
C3625 H3600 0.951 . S
C3625 C3623 1.388 . S
C3625 C3626 1.366 . S
C3626 C3625 1.366 . S
C3626 C3627 1.414 . S
C3626 C3629 1.499 . S
C3627 H3601 0.950 . S
C3627 C3626 1.414 . S
C3627 C3628 1.374 . S
C3628 H3602 0.950 . S
C3628 C3624 1.385 . S
C3628 C3627 1.374 . S
C3629 C3626 1.499 . S
C3629 C3630 1.373 . S
C3629 C3631 1.389 . S
C3630 H3603 0.950 . S
C3630 C3616 1.377 . S
C3630 C3629 1.373 . S
C3631 C3615 1.377 . S
C3631 C3629 1.389 . S
C3631 C3632 1.524 . S
C3632 C3631 1.524 . S
C3632 C3633 1.397 . S
C3632 C3637 1.363 . S
C3633 H3604 0.950 . S
C3633 C3632 1.397 . S
C3633 C3634 1.334 . S
C3634 H3605 0.950 . S
C3634 C3633 1.334 . S
C3634 C3635 1.287 . S
C3635 C3634 1.287 . S
C3635 C3636 1.524 . S
C3635 H3638 0.999 . S
C3636 H3606 0.950 . S
C3636 C3635 1.524 . S
C3636 C3637 1.415 . S
C3637 H3607 0.950 . S
C3637 C3632 1.363 . S
C3637 C3636 1.415 . S
H3638 C3635 0.999 . S
H3639 C3620 0.913 . S
H3640 C3658 0.951 . S
H3641 C3660 0.951 . S
H3642 C3662 0.950 . S
H3643 C3663 0.950 . S
H3644 C3665 0.950 . S
H3645 C3668 0.950 . S
H3646 C3669 0.950 . S
H3647 C3671 0.950 . S
H3648 C3672 0.950 . S
H3649 C3673 0.951 . S
H3650 C3675 0.951 . S
H3651 C3677 0.950 . S
H3652 C3678 0.950 . S
H3653 C3680 0.950 . S
H3654 C3683 0.950 . S
H3655 C3684 0.950 . S
H3656 C3686 0.950 . S
H3657 C3687 0.950 . S
C3658 H3640 0.951 . S
C3658 C3659 1.366 . S
C3658 C3660 1.388 . S
C3659 C3658 1.366 . S
C3659 C3663 1.385 . S
C3660 H3641 0.951 . S
C3660 C3658 1.388 . S
C3660 C3661 1.366 . S
C3661 C3660 1.366 . S
C3661 C3662 1.414 . S
C3661 C3664 1.499 . S
C3662 H3642 0.950 . S
C3662 C3661 1.414 . S
C3662 C3663 1.374 . S
C3663 H3643 0.950 . S
C3663 C3659 1.385 . S
C3663 C3662 1.374 . S
C3664 C3661 1.499 . S
C3664 C3665 1.373 . S
C3664 C3666 1.389 . S
C3665 H3644 0.950 . S
C3665 C3664 1.373 . S
C3665 C3681 1.377 . S
C3666 C3664 1.389 . S
C3666 C3667 1.524 . S
C3666 C3680 1.377 . S
C3667 C3666 1.524 . S
C3667 C3668 1.397 . S
C3667 C3672 1.363 . S
C3668 H3645 0.950 . S
C3668 C3667 1.397 . S
C3668 C3669 1.334 . S
C3669 H3646 0.950 . S
C3669 C3668 1.334 . S
C3669 C3670 1.287 . S
C3670 C3669 1.287 . S
C3670 C3671 1.524 . S
C3670 H3689 0.913 . S
C3671 H3647 0.950 . S
C3671 C3670 1.524 . S
C3671 C3672 1.415 . S
C3672 H3648 0.950 . S
C3672 C3667 1.363 . S
C3672 C3671 1.415 . S
C3673 H3649 0.951 . S
C3673 C3674 1.366 . S
C3673 C3675 1.388 . S
C3674 C3673 1.366 . S
C3674 C3678 1.385 . S
C3675 H3650 0.951 . S
C3675 C3673 1.388 . S
C3675 C3676 1.366 . S
C3676 C3675 1.366 . S
C3676 C3677 1.414 . S
C3676 C3679 1.499 . S
C3677 H3651 0.950 . S
C3677 C3676 1.414 . S
C3677 C3678 1.374 . S
C3678 H3652 0.950 . S
C3678 C3674 1.385 . S
C3678 C3677 1.374 . S
C3679 C3676 1.499 . S
C3679 C3680 1.373 . S
C3679 C3681 1.389 . S
C3680 H3653 0.950 . S
C3680 C3666 1.377 . S
C3680 C3679 1.373 . S
C3681 C3665 1.377 . S
C3681 C3679 1.389 . S
C3681 C3682 1.524 . S
C3682 C3681 1.524 . S
C3682 C3683 1.397 . S
C3682 C3687 1.363 . S
C3683 H3654 0.950 . S
C3683 C3682 1.397 . S
C3683 C3684 1.334 . S
C3684 H3655 0.950 . S
C3684 C3683 1.334 . S
C3684 C3685 1.287 . S
C3685 C3684 1.287 . S
C3685 C3686 1.524 . S
C3685 H3688 0.999 . S
C3686 H3656 0.950 . S
C3686 C3685 1.524 . S
C3686 C3687 1.415 . S
C3687 H3657 0.950 . S
C3687 C3682 1.363 . S
C3687 C3686 1.415 . S
H3688 C3685 0.999 . S
H3689 C3670 0.913 . S
H3690 C3708 0.951 . S
H3691 C3710 0.951 . S
H3692 C3712 0.950 . S
H3693 C3713 0.950 . S
H3694 C3715 0.950 . S
H3695 C3718 0.950 . S
H3696 C3719 0.950 . S
H3697 C3721 0.950 . S
H3698 C3722 0.950 . S
H3699 C3723 0.951 . S
H3700 C3725 0.951 . S
H3701 C3727 0.950 . S
H3702 C3728 0.950 . S
H3703 C3730 0.950 . S
H3704 C3733 0.950 . S
H3705 C3734 0.950 . S
H3706 C3736 0.950 . S
H3707 C3737 0.950 . S
C3708 H3690 0.951 . S
C3708 C3709 1.366 . S
C3708 C3710 1.388 . S
C3709 C3708 1.366 . S
C3709 C3713 1.385 . S
C3710 H3691 0.951 . S
C3710 C3708 1.388 . S
C3710 C3711 1.366 . S
C3711 C3710 1.366 . S
C3711 C3712 1.414 . S
C3711 C3714 1.499 . S
C3712 H3692 0.950 . S
C3712 C3711 1.414 . S
C3712 C3713 1.374 . S
C3713 H3693 0.950 . S
C3713 C3709 1.385 . S
C3713 C3712 1.374 . S
C3714 C3711 1.499 . S
C3714 C3715 1.373 . S
C3714 C3716 1.389 . S
C3715 H3694 0.950 . S
C3715 C3714 1.373 . S
C3715 C3731 1.377 . S
C3716 C3714 1.389 . S
C3716 C3717 1.524 . S
C3716 C3730 1.377 . S
C3717 C3716 1.524 . S
C3717 C3718 1.397 . S
C3717 C3722 1.363 . S
C3718 H3695 0.950 . S
C3718 C3717 1.397 . S
C3718 C3719 1.334 . S
C3719 H3696 0.950 . S
C3719 C3718 1.334 . S
C3719 C3720 1.287 . S
C3720 C3719 1.287 . S
C3720 C3721 1.524 . S
C3720 H3739 0.913 . S
C3721 H3697 0.950 . S
C3721 C3720 1.524 . S
C3721 C3722 1.415 . S
C3722 H3698 0.950 . S
C3722 C3717 1.363 . S
C3722 C3721 1.415 . S
C3723 H3699 0.951 . S
C3723 C3724 1.366 . S
C3723 C3725 1.388 . S
C3724 C3723 1.366 . S
C3724 C3728 1.385 . S
C3725 H3700 0.951 . S
C3725 C3723 1.388 . S
C3725 C3726 1.366 . S
C3726 C3725 1.366 . S
C3726 C3727 1.414 . S
C3726 C3729 1.499 . S
C3727 H3701 0.950 . S
C3727 C3726 1.414 . S
C3727 C3728 1.374 . S
C3728 H3702 0.950 . S
C3728 C3724 1.385 . S
C3728 C3727 1.374 . S
C3729 C3726 1.499 . S
C3729 C3730 1.373 . S
C3729 C3731 1.389 . S
C3730 H3703 0.950 . S
C3730 C3716 1.377 . S
C3730 C3729 1.373 . S
C3731 C3715 1.377 . S
C3731 C3729 1.389 . S
C3731 C3732 1.524 . S
C3732 C3731 1.524 . S
C3732 C3733 1.397 . S
C3732 C3737 1.363 . S
C3733 H3704 0.950 . S
C3733 C3732 1.397 . S
C3733 C3734 1.334 . S
C3734 H3705 0.950 . S
C3734 C3733 1.334 . S
C3734 C3735 1.287 . S
C3735 C3734 1.287 . S
C3735 C3736 1.524 . S
C3735 H3738 0.999 . S
C3736 H3706 0.950 . S
C3736 C3735 1.524 . S
C3736 C3737 1.415 . S
C3737 H3707 0.950 . S
C3737 C3732 1.363 . S
C3737 C3736 1.415 . S
H3738 C3735 0.999 . S
H3739 C3720 0.913 . S
H3740 C3758 0.951 . S
H3741 C3760 0.951 . S
H3742 C3762 0.950 . S
H3743 C3763 0.950 . S
H3744 C3765 0.950 . S
H3745 C3768 0.950 . S
H3746 C3769 0.950 . S
H3747 C3771 0.950 . S
H3748 C3772 0.950 . S
H3749 C3773 0.951 . S
H3750 C3775 0.951 . S
H3751 C3777 0.950 . S
H3752 C3778 0.950 . S
H3753 C3780 0.950 . S
H3754 C3783 0.950 . S
H3755 C3784 0.950 . S
H3756 C3786 0.950 . S
H3757 C3787 0.950 . S
C3758 H3740 0.951 . S
C3758 C3759 1.366 . S
C3758 C3760 1.388 . S
C3759 C3758 1.366 . S
C3759 C3763 1.385 . S
C3760 H3741 0.951 . S
C3760 C3758 1.388 . S
C3760 C3761 1.366 . S
C3761 C3760 1.366 . S
C3761 C3762 1.414 . S
C3761 C3764 1.499 . S
C3762 H3742 0.950 . S
C3762 C3761 1.414 . S
C3762 C3763 1.374 . S
C3763 H3743 0.950 . S
C3763 C3759 1.385 . S
C3763 C3762 1.374 . S
C3764 C3761 1.499 . S
C3764 C3765 1.373 . S
C3764 C3766 1.389 . S
C3765 H3744 0.950 . S
C3765 C3764 1.373 . S
C3765 C3781 1.377 . S
C3766 C3764 1.389 . S
C3766 C3767 1.524 . S
C3766 C3780 1.377 . S
C3767 C3766 1.524 . S
C3767 C3768 1.397 . S
C3767 C3772 1.363 . S
C3768 H3745 0.950 . S
C3768 C3767 1.397 . S
C3768 C3769 1.334 . S
C3769 H3746 0.950 . S
C3769 C3768 1.334 . S
C3769 C3770 1.287 . S
C3770 C3769 1.287 . S
C3770 C3771 1.524 . S
C3770 H3789 0.913 . S
C3771 H3747 0.950 . S
C3771 C3770 1.524 . S
C3771 C3772 1.415 . S
C3772 H3748 0.950 . S
C3772 C3767 1.363 . S
C3772 C3771 1.415 . S
C3773 H3749 0.951 . S
C3773 C3774 1.366 . S
C3773 C3775 1.388 . S
C3774 C3773 1.366 . S
C3774 C3778 1.385 . S
C3775 H3750 0.951 . S
C3775 C3773 1.388 . S
C3775 C3776 1.366 . S
C3776 C3775 1.366 . S
C3776 C3777 1.414 . S
C3776 C3779 1.499 . S
C3777 H3751 0.950 . S
C3777 C3776 1.414 . S
C3777 C3778 1.374 . S
C3778 H3752 0.950 . S
C3778 C3774 1.385 . S
C3778 C3777 1.374 . S
C3779 C3776 1.499 . S
C3779 C3780 1.373 . S
C3779 C3781 1.389 . S
C3780 H3753 0.950 . S
C3780 C3766 1.377 . S
C3780 C3779 1.373 . S
C3781 C3765 1.377 . S
C3781 C3779 1.389 . S
C3781 C3782 1.524 . S
C3782 C3781 1.524 . S
C3782 C3783 1.397 . S
C3782 C3787 1.363 . S
C3783 H3754 0.950 . S
C3783 C3782 1.397 . S
C3783 C3784 1.334 . S
C3784 H3755 0.950 . S
C3784 C3783 1.334 . S
C3784 C3785 1.287 . S
C3785 C3784 1.287 . S
C3785 C3786 1.524 . S
C3785 H3788 0.999 . S
C3786 H3756 0.950 . S
C3786 C3785 1.524 . S
C3786 C3787 1.415 . S
C3787 H3757 0.950 . S
C3787 C3782 1.363 . S
C3787 C3786 1.415 . S
H3788 C3785 0.999 . S
H3789 C3770 0.913 . S
H3790 C3808 0.951 . S
H3791 C3810 0.951 . S
H3792 C3812 0.950 . S
H3793 C3813 0.950 . S
H3794 C3815 0.950 . S
H3795 C3818 0.950 . S
H3796 C3819 0.950 . S
H3797 C3821 0.950 . S
H3798 C3822 0.950 . S
H3799 C3823 0.951 . S
H3800 C3825 0.951 . S
H3801 C3827 0.950 . S
H3802 C3828 0.950 . S
H3803 C3830 0.950 . S
H3804 C3833 0.950 . S
H3805 C3834 0.950 . S
H3806 C3836 0.950 . S
H3807 C3837 0.950 . S
C3808 H3790 0.951 . S
C3808 C3809 1.366 . S
C3808 C3810 1.388 . S
C3809 C3808 1.366 . S
C3809 C3813 1.385 . S
C3810 H3791 0.951 . S
C3810 C3808 1.388 . S
C3810 C3811 1.366 . S
C3811 C3810 1.366 . S
C3811 C3812 1.414 . S
C3811 C3814 1.499 . S
C3812 H3792 0.950 . S
C3812 C3811 1.414 . S
C3812 C3813 1.374 . S
C3813 H3793 0.950 . S
C3813 C3809 1.385 . S
C3813 C3812 1.374 . S
C3814 C3811 1.499 . S
C3814 C3815 1.373 . S
C3814 C3816 1.389 . S
C3815 H3794 0.950 . S
C3815 C3814 1.373 . S
C3815 C3831 1.377 . S
C3816 C3814 1.389 . S
C3816 C3817 1.524 . S
C3816 C3830 1.377 . S
C3817 C3816 1.524 . S
C3817 C3818 1.397 . S
C3817 C3822 1.363 . S
C3818 H3795 0.950 . S
C3818 C3817 1.397 . S
C3818 C3819 1.334 . S
C3819 H3796 0.950 . S
C3819 C3818 1.334 . S
C3819 C3820 1.287 . S
C3820 C3819 1.287 . S
C3820 C3821 1.524 . S
C3820 H3839 0.913 . S
C3821 H3797 0.950 . S
C3821 C3820 1.524 . S
C3821 C3822 1.415 . S
C3822 H3798 0.950 . S
C3822 C3817 1.363 . S
C3822 C3821 1.415 . S
C3823 H3799 0.951 . S
C3823 C3824 1.366 . S
C3823 C3825 1.388 . S
C3824 C3823 1.366 . S
C3824 C3828 1.385 . S
C3825 H3800 0.951 . S
C3825 C3823 1.388 . S
C3825 C3826 1.366 . S
C3826 C3825 1.366 . S
C3826 C3827 1.414 . S
C3826 C3829 1.499 . S
C3827 H3801 0.950 . S
C3827 C3826 1.414 . S
C3827 C3828 1.374 . S
C3828 H3802 0.950 . S
C3828 C3824 1.385 . S
C3828 C3827 1.374 . S
C3829 C3826 1.499 . S
C3829 C3830 1.373 . S
C3829 C3831 1.389 . S
C3830 H3803 0.950 . S
C3830 C3816 1.377 . S
C3830 C3829 1.373 . S
C3831 C3815 1.377 . S
C3831 C3829 1.389 . S
C3831 C3832 1.524 . S
C3832 C3831 1.524 . S
C3832 C3833 1.397 . S
C3832 C3837 1.363 . S
C3833 H3804 0.950 . S
C3833 C3832 1.397 . S
C3833 C3834 1.334 . S
C3834 H3805 0.950 . S
C3834 C3833 1.334 . S
C3834 C3835 1.287 . S
C3835 C3834 1.287 . S
C3835 C3836 1.524 . S
C3835 H3838 0.999 . S
C3836 H3806 0.950 . S
C3836 C3835 1.524 . S
C3836 C3837 1.415 . S
C3837 H3807 0.950 . S
C3837 C3832 1.363 . S
C3837 C3836 1.415 . S
H3838 C3835 0.999 . S
H3839 C3820 0.913 . S
H3840 C3858 0.951 . S
H3841 C3860 0.951 . S
H3842 C3862 0.950 . S
H3843 C3863 0.950 . S
H3844 C3865 0.950 . S
H3845 C3868 0.950 . S
H3846 C3869 0.950 . S
H3847 C3871 0.950 . S
H3848 C3872 0.950 . S
H3849 C3873 0.951 . S
H3850 C3875 0.951 . S
H3851 C3877 0.950 . S
H3852 C3878 0.950 . S
H3853 C3880 0.950 . S
H3854 C3883 0.950 . S
H3855 C3884 0.950 . S
H3856 C3886 0.950 . S
H3857 C3887 0.950 . S
C3858 H3840 0.951 . S
C3858 C3859 1.366 . S
C3858 C3860 1.388 . S
C3859 C3858 1.366 . S
C3859 C3863 1.385 . S
C3860 H3841 0.951 . S
C3860 C3858 1.388 . S
C3860 C3861 1.366 . S
C3861 C3860 1.366 . S
C3861 C3862 1.414 . S
C3861 C3864 1.499 . S
C3862 H3842 0.950 . S
C3862 C3861 1.414 . S
C3862 C3863 1.374 . S
C3863 H3843 0.950 . S
C3863 C3859 1.385 . S
C3863 C3862 1.374 . S
C3864 C3861 1.499 . S
C3864 C3865 1.373 . S
C3864 C3866 1.389 . S
C3865 H3844 0.950 . S
C3865 C3864 1.373 . S
C3865 C3881 1.377 . S
C3866 C3864 1.389 . S
C3866 C3867 1.524 . S
C3866 C3880 1.377 . S
C3867 C3866 1.524 . S
C3867 C3868 1.397 . S
C3867 C3872 1.363 . S
C3868 H3845 0.950 . S
C3868 C3867 1.397 . S
C3868 C3869 1.334 . S
C3869 H3846 0.950 . S
C3869 C3868 1.334 . S
C3869 C3870 1.287 . S
C3870 C3869 1.287 . S
C3870 C3871 1.524 . S
C3870 H3889 0.913 . S
C3871 H3847 0.950 . S
C3871 C3870 1.524 . S
C3871 C3872 1.415 . S
C3872 H3848 0.950 . S
C3872 C3867 1.363 . S
C3872 C3871 1.415 . S
C3873 H3849 0.951 . S
C3873 C3874 1.366 . S
C3873 C3875 1.388 . S
C3874 C3873 1.366 . S
C3874 C3878 1.385 . S
C3875 H3850 0.951 . S
C3875 C3873 1.388 . S
C3875 C3876 1.366 . S
C3876 C3875 1.366 . S
C3876 C3877 1.414 . S
C3876 C3879 1.499 . S
C3877 H3851 0.950 . S
C3877 C3876 1.414 . S
C3877 C3878 1.374 . S
C3878 H3852 0.950 . S
C3878 C3874 1.385 . S
C3878 C3877 1.374 . S
C3879 C3876 1.499 . S
C3879 C3880 1.373 . S
C3879 C3881 1.389 . S
C3880 H3853 0.950 . S
C3880 C3866 1.377 . S
C3880 C3879 1.373 . S
C3881 C3865 1.377 . S
C3881 C3879 1.389 . S
C3881 C3882 1.524 . S
C3882 C3881 1.524 . S
C3882 C3883 1.397 . S
C3882 C3887 1.363 . S
C3883 H3854 0.950 . S
C3883 C3882 1.397 . S
C3883 C3884 1.334 . S
C3884 H3855 0.950 . S
C3884 C3883 1.334 . S
C3884 C3885 1.287 . S
C3885 C3884 1.287 . S
C3885 C3886 1.524 . S
C3885 H3888 0.999 . S
C3886 H3856 0.950 . S
C3886 C3885 1.524 . S
C3886 C3887 1.415 . S
C3887 H3857 0.950 . S
C3887 C3882 1.363 . S
C3887 C3886 1.415 . S
H3888 C3885 0.999 . S
H3889 C3870 0.913 . S
H3890 C3908 0.951 . S
H3891 C3910 0.951 . S
H3892 C3912 0.950 . S
H3893 C3913 0.950 . S
H3894 C3915 0.950 . S
H3895 C3918 0.950 . S
H3896 C3919 0.950 . S
H3897 C3921 0.950 . S
H3898 C3922 0.950 . S
H3899 C3923 0.951 . S
H3900 C3925 0.951 . S
H3901 C3927 0.950 . S
H3902 C3928 0.950 . S
H3903 C3930 0.950 . S
H3904 C3933 0.950 . S
H3905 C3934 0.950 . S
H3906 C3936 0.950 . S
H3907 C3937 0.950 . S
C3908 H3890 0.951 . S
C3908 C3909 1.366 . S
C3908 C3910 1.388 . S
C3909 C3908 1.366 . S
C3909 C3913 1.385 . S
C3910 H3891 0.951 . S
C3910 C3908 1.388 . S
C3910 C3911 1.366 . S
C3911 C3910 1.366 . S
C3911 C3912 1.414 . S
C3911 C3914 1.499 . S
C3912 H3892 0.950 . S
C3912 C3911 1.414 . S
C3912 C3913 1.374 . S
C3913 H3893 0.950 . S
C3913 C3909 1.385 . S
C3913 C3912 1.374 . S
C3914 C3911 1.499 . S
C3914 C3915 1.373 . S
C3914 C3916 1.389 . S
C3915 H3894 0.950 . S
C3915 C3914 1.373 . S
C3915 C3931 1.377 . S
C3916 C3914 1.389 . S
C3916 C3917 1.524 . S
C3916 C3930 1.377 . S
C3917 C3916 1.524 . S
C3917 C3918 1.397 . S
C3917 C3922 1.363 . S
C3918 H3895 0.950 . S
C3918 C3917 1.397 . S
C3918 C3919 1.334 . S
C3919 H3896 0.950 . S
C3919 C3918 1.334 . S
C3919 C3920 1.287 . S
C3920 C3919 1.287 . S
C3920 C3921 1.524 . S
C3920 H3939 0.913 . S
C3921 H3897 0.950 . S
C3921 C3920 1.524 . S
C3921 C3922 1.415 . S
C3922 H3898 0.950 . S
C3922 C3917 1.363 . S
C3922 C3921 1.415 . S
C3923 H3899 0.951 . S
C3923 C3924 1.366 . S
C3923 C3925 1.388 . S
C3924 C3923 1.366 . S
C3924 C3928 1.385 . S
C3925 H3900 0.951 . S
C3925 C3923 1.388 . S
C3925 C3926 1.366 . S
C3926 C3925 1.366 . S
C3926 C3927 1.414 . S
C3926 C3929 1.499 . S
C3927 H3901 0.950 . S
C3927 C3926 1.414 . S
C3927 C3928 1.374 . S
C3928 H3902 0.950 . S
C3928 C3924 1.385 . S
C3928 C3927 1.374 . S
C3929 C3926 1.499 . S
C3929 C3930 1.373 . S
C3929 C3931 1.389 . S
C3930 H3903 0.950 . S
C3930 C3916 1.377 . S
C3930 C3929 1.373 . S
C3931 C3915 1.377 . S
C3931 C3929 1.389 . S
C3931 C3932 1.524 . S
C3932 C3931 1.524 . S
C3932 C3933 1.397 . S
C3932 C3937 1.363 . S
C3933 H3904 0.950 . S
C3933 C3932 1.397 . S
C3933 C3934 1.334 . S
C3934 H3905 0.950 . S
C3934 C3933 1.334 . S
C3934 C3935 1.287 . S
C3935 C3934 1.287 . S
C3935 C3936 1.524 . S
C3935 H3938 0.999 . S
C3936 H3906 0.950 . S
C3936 C3935 1.524 . S
C3936 C3937 1.415 . S
C3937 H3907 0.950 . S
C3937 C3932 1.363 . S
C3937 C3936 1.415 . S
H3938 C3935 0.999 . S
H3939 C3920 0.913 . S
H3940 C3958 0.951 . S
H3941 C3960 0.951 . S
H3942 C3962 0.950 . S
H3943 C3963 0.950 . S
H3944 C3965 0.950 . S
H3945 C3968 0.950 . S
H3946 C3969 0.950 . S
H3947 C3971 0.950 . S
H3948 C3972 0.950 . S
H3949 C3973 0.951 . S
H3950 C3975 0.951 . S
H3951 C3977 0.950 . S
H3952 C3978 0.950 . S
H3953 C3980 0.950 . S
H3954 C3983 0.950 . S
H3955 C3984 0.950 . S
H3956 C3986 0.950 . S
H3957 C3987 0.950 . S
C3958 H3940 0.951 . S
C3958 C3959 1.366 . S
C3958 C3960 1.388 . S
C3959 C3958 1.366 . S
C3959 C3963 1.385 . S
C3960 H3941 0.951 . S
C3960 C3958 1.388 . S
C3960 C3961 1.366 . S
C3961 C3960 1.366 . S
C3961 C3962 1.414 . S
C3961 C3964 1.499 . S
C3962 H3942 0.950 . S
C3962 C3961 1.414 . S
C3962 C3963 1.374 . S
C3963 H3943 0.950 . S
C3963 C3959 1.385 . S
C3963 C3962 1.374 . S
C3964 C3961 1.499 . S
C3964 C3965 1.373 . S
C3964 C3966 1.389 . S
C3965 H3944 0.950 . S
C3965 C3964 1.373 . S
C3965 C3981 1.377 . S
C3966 C3964 1.389 . S
C3966 C3967 1.524 . S
C3966 C3980 1.377 . S
C3967 C3966 1.524 . S
C3967 C3968 1.397 . S
C3967 C3972 1.363 . S
C3968 H3945 0.950 . S
C3968 C3967 1.397 . S
C3968 C3969 1.334 . S
C3969 H3946 0.950 . S
C3969 C3968 1.334 . S
C3969 C3970 1.287 . S
C3970 C3969 1.287 . S
C3970 C3971 1.524 . S
C3970 H3989 0.913 . S
C3971 H3947 0.950 . S
C3971 C3970 1.524 . S
C3971 C3972 1.415 . S
C3972 H3948 0.950 . S
C3972 C3967 1.363 . S
C3972 C3971 1.415 . S
C3973 H3949 0.951 . S
C3973 C3974 1.366 . S
C3973 C3975 1.388 . S
C3974 C3973 1.366 . S
C3974 C3978 1.385 . S
C3975 H3950 0.951 . S
C3975 C3973 1.388 . S
C3975 C3976 1.366 . S
C3976 C3975 1.366 . S
C3976 C3977 1.414 . S
C3976 C3979 1.499 . S
C3977 H3951 0.950 . S
C3977 C3976 1.414 . S
C3977 C3978 1.374 . S
C3978 H3952 0.950 . S
C3978 C3974 1.385 . S
C3978 C3977 1.374 . S
C3979 C3976 1.499 . S
C3979 C3980 1.373 . S
C3979 C3981 1.389 . S
C3980 H3953 0.950 . S
C3980 C3966 1.377 . S
C3980 C3979 1.373 . S
C3981 C3965 1.377 . S
C3981 C3979 1.389 . S
C3981 C3982 1.524 . S
C3982 C3981 1.524 . S
C3982 C3983 1.397 . S
C3982 C3987 1.363 . S
C3983 H3954 0.950 . S
C3983 C3982 1.397 . S
C3983 C3984 1.334 . S
C3984 H3955 0.950 . S
C3984 C3983 1.334 . S
C3984 C3985 1.287 . S
C3985 C3984 1.287 . S
C3985 C3986 1.524 . S
C3985 H3988 0.999 . S
C3986 H3956 0.950 . S
C3986 C3985 1.524 . S
C3986 C3987 1.415 . S
C3987 H3957 0.950 . S
C3987 C3982 1.363 . S
C3987 C3986 1.415 . S
H3988 C3985 0.999 . S
H3989 C3970 0.913 . S
H3990 C4008 0.951 . S
H3991 C4010 0.951 . S
H3992 C4012 0.950 . S
H3993 C4013 0.950 . S
H3994 C4015 0.950 . S
H3995 C4018 0.950 . S
H3996 C4019 0.950 . S
H3997 C4021 0.950 . S
H3998 C4022 0.950 . S
H3999 C4023 0.951 . S
H4000 C4025 0.951 . S
H4001 C4027 0.950 . S
H4002 C4028 0.950 . S
H4003 C4030 0.950 . S
H4004 C4033 0.950 . S
H4005 C4034 0.950 . S
H4006 C4036 0.950 . S
H4007 C4037 0.950 . S
C4008 H3990 0.951 . S
C4008 C4009 1.366 . S
C4008 C4010 1.388 . S
C4009 C4008 1.366 . S
C4009 C4013 1.385 . S
C4010 H3991 0.951 . S
C4010 C4008 1.388 . S
C4010 C4011 1.366 . S
C4011 C4010 1.366 . S
C4011 C4012 1.414 . S
C4011 C4014 1.499 . S
C4012 H3992 0.950 . S
C4012 C4011 1.414 . S
C4012 C4013 1.374 . S
C4013 H3993 0.950 . S
C4013 C4009 1.385 . S
C4013 C4012 1.374 . S
C4014 C4011 1.499 . S
C4014 C4015 1.373 . S
C4014 C4016 1.389 . S
C4015 H3994 0.950 . S
C4015 C4014 1.373 . S
C4015 C4031 1.377 . S
C4016 C4014 1.389 . S
C4016 C4017 1.524 . S
C4016 C4030 1.377 . S
C4017 C4016 1.524 . S
C4017 C4018 1.397 . S
C4017 C4022 1.363 . S
C4018 H3995 0.950 . S
C4018 C4017 1.397 . S
C4018 C4019 1.334 . S
C4019 H3996 0.950 . S
C4019 C4018 1.334 . S
C4019 C4020 1.287 . S
C4020 C4019 1.287 . S
C4020 C4021 1.524 . S
C4020 H4039 0.913 . S
C4021 H3997 0.950 . S
C4021 C4020 1.524 . S
C4021 C4022 1.415 . S
C4022 H3998 0.950 . S
C4022 C4017 1.363 . S
C4022 C4021 1.415 . S
C4023 H3999 0.951 . S
C4023 C4024 1.366 . S
C4023 C4025 1.388 . S
C4024 C4023 1.366 . S
C4024 C4028 1.385 . S
C4025 H4000 0.951 . S
C4025 C4023 1.388 . S
C4025 C4026 1.366 . S
C4026 C4025 1.366 . S
C4026 C4027 1.414 . S
C4026 C4029 1.499 . S
C4027 H4001 0.950 . S
C4027 C4026 1.414 . S
C4027 C4028 1.374 . S
C4028 H4002 0.950 . S
C4028 C4024 1.385 . S
C4028 C4027 1.374 . S
C4029 C4026 1.499 . S
C4029 C4030 1.373 . S
C4029 C4031 1.389 . S
C4030 H4003 0.950 . S
C4030 C4016 1.377 . S
C4030 C4029 1.373 . S
C4031 C4015 1.377 . S
C4031 C4029 1.389 . S
C4031 C4032 1.524 . S
C4032 C4031 1.524 . S
C4032 C4033 1.397 . S
C4032 C4037 1.363 . S
C4033 H4004 0.950 . S
C4033 C4032 1.397 . S
C4033 C4034 1.334 . S
C4034 H4005 0.950 . S
C4034 C4033 1.334 . S
C4034 C4035 1.287 . S
C4035 C4034 1.287 . S
C4035 C4036 1.524 . S
C4035 H4038 0.999 . S
C4036 H4006 0.950 . S
C4036 C4035 1.524 . S
C4036 C4037 1.415 . S
C4037 H4007 0.950 . S
C4037 C4032 1.363 . S
C4037 C4036 1.415 . S
H4038 C4035 0.999 . S
H4039 C4020 0.913 . S
H4040 C4058 0.951 . S
H4041 C4060 0.951 . S
H4042 C4062 0.950 . S
H4043 C4063 0.950 . S
H4044 C4065 0.950 . S
H4045 C4068 0.950 . S
H4046 C4069 0.950 . S
H4047 C4071 0.950 . S
H4048 C4072 0.950 . S
H4049 C4073 0.951 . S
H4050 C4075 0.951 . S
H4051 C4077 0.950 . S
H4052 C4078 0.950 . S
H4053 C4080 0.950 . S
H4054 C4083 0.950 . S
H4055 C4084 0.950 . S
H4056 C4086 0.950 . S
H4057 C4087 0.950 . S
C4058 H4040 0.951 . S
C4058 C4059 1.366 . S
C4058 C4060 1.388 . S
C4059 C4058 1.366 . S
C4059 C4063 1.385 . S
C4060 H4041 0.951 . S
C4060 C4058 1.388 . S
C4060 C4061 1.366 . S
C4061 C4060 1.366 . S
C4061 C4062 1.414 . S
C4061 C4064 1.499 . S
C4062 H4042 0.950 . S
C4062 C4061 1.414 . S
C4062 C4063 1.374 . S
C4063 H4043 0.950 . S
C4063 C4059 1.385 . S
C4063 C4062 1.374 . S
C4064 C4061 1.499 . S
C4064 C4065 1.373 . S
C4064 C4066 1.389 . S
C4065 H4044 0.950 . S
C4065 C4064 1.373 . S
C4065 C4081 1.377 . S
C4066 C4064 1.389 . S
C4066 C4067 1.524 . S
C4066 C4080 1.377 . S
C4067 C4066 1.524 . S
C4067 C4068 1.397 . S
C4067 C4072 1.363 . S
C4068 H4045 0.950 . S
C4068 C4067 1.397 . S
C4068 C4069 1.334 . S
C4069 H4046 0.950 . S
C4069 C4068 1.334 . S
C4069 C4070 1.287 . S
C4070 C4069 1.287 . S
C4070 C4071 1.524 . S
C4070 H4089 0.913 . S
C4071 H4047 0.950 . S
C4071 C4070 1.524 . S
C4071 C4072 1.415 . S
C4072 H4048 0.950 . S
C4072 C4067 1.363 . S
C4072 C4071 1.415 . S
C4073 H4049 0.951 . S
C4073 C4074 1.366 . S
C4073 C4075 1.388 . S
C4074 C4073 1.366 . S
C4074 C4078 1.385 . S
C4075 H4050 0.951 . S
C4075 C4073 1.388 . S
C4075 C4076 1.366 . S
C4076 C4075 1.366 . S
C4076 C4077 1.414 . S
C4076 C4079 1.499 . S
C4077 H4051 0.950 . S
C4077 C4076 1.414 . S
C4077 C4078 1.374 . S
C4078 H4052 0.950 . S
C4078 C4074 1.385 . S
C4078 C4077 1.374 . S
C4079 C4076 1.499 . S
C4079 C4080 1.373 . S
C4079 C4081 1.389 . S
C4080 H4053 0.950 . S
C4080 C4066 1.377 . S
C4080 C4079 1.373 . S
C4081 C4065 1.377 . S
C4081 C4079 1.389 . S
C4081 C4082 1.524 . S
C4082 C4081 1.524 . S
C4082 C4083 1.397 . S
C4082 C4087 1.363 . S
C4083 H4054 0.950 . S
C4083 C4082 1.397 . S
C4083 C4084 1.334 . S
C4084 H4055 0.950 . S
C4084 C4083 1.334 . S
C4084 C4085 1.287 . S
C4085 C4084 1.287 . S
C4085 C4086 1.524 . S
C4085 H4088 0.999 . S
C4086 H4056 0.950 . S
C4086 C4085 1.524 . S
C4086 C4087 1.415 . S
C4087 H4057 0.950 . S
C4087 C4082 1.363 . S
C4087 C4086 1.415 . S
H4088 C4085 0.999 . S
H4089 C4070 0.913 . S
H4090 C4108 0.951 . S
H4091 C4110 0.951 . S
H4092 C4112 0.950 . S
H4093 C4113 0.950 . S
H4094 C4115 0.950 . S
H4095 C4118 0.950 . S
H4096 C4119 0.950 . S
H4097 C4121 0.950 . S
H4098 C4122 0.950 . S
H4099 C4123 0.951 . S
H4100 C4125 0.951 . S
H4101 C4127 0.950 . S
H4102 C4128 0.950 . S
H4103 C4130 0.950 . S
H4104 C4133 0.950 . S
H4105 C4134 0.950 . S
H4106 C4136 0.950 . S
H4107 C4137 0.950 . S
C4108 H4090 0.951 . S
C4108 C4109 1.366 . S
C4108 C4110 1.388 . S
C4109 C4108 1.366 . S
C4109 C4113 1.385 . S
C4110 H4091 0.951 . S
C4110 C4108 1.388 . S
C4110 C4111 1.366 . S
C4111 C4110 1.366 . S
C4111 C4112 1.414 . S
C4111 C4114 1.499 . S
C4112 H4092 0.950 . S
C4112 C4111 1.414 . S
C4112 C4113 1.374 . S
C4113 H4093 0.950 . S
C4113 C4109 1.385 . S
C4113 C4112 1.374 . S
C4114 C4111 1.499 . S
C4114 C4115 1.373 . S
C4114 C4116 1.389 . S
C4115 H4094 0.950 . S
C4115 C4114 1.373 . S
C4115 C4131 1.377 . S
C4116 C4114 1.389 . S
C4116 C4117 1.524 . S
C4116 C4130 1.377 . S
C4117 C4116 1.524 . S
C4117 C4118 1.397 . S
C4117 C4122 1.363 . S
C4118 H4095 0.950 . S
C4118 C4117 1.397 . S
C4118 C4119 1.334 . S
C4119 H4096 0.950 . S
C4119 C4118 1.334 . S
C4119 C4120 1.287 . S
C4120 C4119 1.287 . S
C4120 C4121 1.524 . S
C4120 H4139 0.913 . S
C4121 H4097 0.950 . S
C4121 C4120 1.524 . S
C4121 C4122 1.415 . S
C4122 H4098 0.950 . S
C4122 C4117 1.363 . S
C4122 C4121 1.415 . S
C4123 H4099 0.951 . S
C4123 C4124 1.366 . S
C4123 C4125 1.388 . S
C4124 C4123 1.366 . S
C4124 C4128 1.385 . S
C4125 H4100 0.951 . S
C4125 C4123 1.388 . S
C4125 C4126 1.366 . S
C4126 C4125 1.366 . S
C4126 C4127 1.414 . S
C4126 C4129 1.499 . S
C4127 H4101 0.950 . S
C4127 C4126 1.414 . S
C4127 C4128 1.374 . S
C4128 H4102 0.950 . S
C4128 C4124 1.385 . S
C4128 C4127 1.374 . S
C4129 C4126 1.499 . S
C4129 C4130 1.373 . S
C4129 C4131 1.389 . S
C4130 H4103 0.950 . S
C4130 C4116 1.377 . S
C4130 C4129 1.373 . S
C4131 C4115 1.377 . S
C4131 C4129 1.389 . S
C4131 C4132 1.524 . S
C4132 C4131 1.524 . S
C4132 C4133 1.397 . S
C4132 C4137 1.363 . S
C4133 H4104 0.950 . S
C4133 C4132 1.397 . S
C4133 C4134 1.334 . S
C4134 H4105 0.950 . S
C4134 C4133 1.334 . S
C4134 C4135 1.287 . S
C4135 C4134 1.287 . S
C4135 C4136 1.524 . S
C4135 H4138 0.999 . S
C4136 H4106 0.950 . S
C4136 C4135 1.524 . S
C4136 C4137 1.415 . S
C4137 H4107 0.950 . S
C4137 C4132 1.363 . S
C4137 C4136 1.415 . S
H4138 C4135 0.999 . S
H4139 C4120 0.913 . S
C1459 C781 1.653 . S
C1474 C1092 1.664 . S
C1509 C871 1.786 . S
C1524 C1132 1.823 . S
C1559 C751 1.684 . S
C1574 C1162 1.723 . S
C1609 C691 1.504 . S
C1624 C1122 1.530 . S
C1674 C1172 1.438 . S
C1659 C571 1.383 . S
C1709 C601 1.331 . S
C1724 C1082 1.342 . S
C1774 C1111 1.664 . S
C1759 C661 1.598 . S
C1824 C1151 1.828 . S
C1809 C541 1.776 . S
C1859 C631 1.749 . S
C1874 C1177 1.723 . S
C1909 C811 1.552 . S
C1924 C1137 1.530 . S
C1959 C841 1.404 . S
C1974 C1191 1.438 . S
C2024 C1097 1.346 . S
C2009 C721 1.280 . S
C2074 C1212 1.664 . S
C2059 C61 1.654 . S
C2109 C151 1.786 . S
C2124 C1252 1.828 . S
C2159 C31 1.683 . S
C2174 C1282 1.723 . S
C2209 C1051 1.503 . S
C2224 C1242 1.530 . S
C2259 C931 1.382 . S
C2274 C1292 1.438 . S
C2309 C961 1.331 . S
C2324 C1202 1.345 . S
C2359 C1021 1.599 . S
C2374 C1231 1.665 . S
C2409 C901 1.772 . S
C2424 C1271 1.828 . S
C2474 C1297 1.723 . S
C2459 C991 1.748 . S
C2509 C91 1.553 . S
C2524 C1257 1.530 . S
C2574 C1311 1.438 . S
C2559 C121 1.405 . S
C2609 C1 1.276 . S
C2624 C1217 1.345 . S
C2674 C1332 1.665 . S
C2659 C421 1.654 . S
C2709 C511 1.786 . S
C2724 C1372 1.828 . S
C2774 C1402 1.723 . S
C2759 C391 1.682 . S
C2824 C1362 1.530 . S
C2809 C331 1.504 . S
C2874 C1412 1.438 . S
C2859 C211 1.383 . S
C2909 C241 1.330 . S
C2924 C1322 1.345 . S
C2959 C301 1.598 . S
C2974 C1351 1.664 . S
C3009 C181 1.771 . S
C3024 C1391 1.828 . S
C3074 C1417 1.723 . S
C3059 C271 1.749 . S
C3109 C451 1.552 . S
C3124 C1377 1.530 . S
C3159 C481 1.403 . S
C3174 C1431 1.438 . S
C3209 C361 1.277 . S
C3224 C1337 1.345 . S
C3259 C920 1.233 . S
C3274 C1109 1.249 . S
C3324 C1149 1.901 . S
C3309 C980 1.902 . S
C3359 C1040 1.522 . S
C3374 C1168 1.579 . S
C3409 C380 1.849 . S
C3424 C1128 1.902 . S
C3459 C440 1.555 . S
C3474 C1189 1.578 . S
C3524 C1088 1.248 . S
C3509 C500 1.228 . S
C3559 C200 1.233 . S
C3574 C1229 1.249 . S
C3609 C260 1.902 . S
C3624 C1269 1.902 . S
C3659 C320 1.523 . S
C3674 C1288 1.579 . S
C3709 C740 1.848 . S
C3724 C1248 1.902 . S
C3774 C1309 1.579 . S
C3759 C800 1.555 . S
C3809 C860 1.229 . S
C3824 C1208 1.249 . S
C3859 C560 1.234 . S
C3874 C1349 1.249 . S
C3909 C620 1.902 . S
C3924 C1389 1.902 . S
C3974 C1408 1.579 . S
C3959 C680 1.522 . S
C4009 C20 1.848 . S
C4024 C1368 1.902 . S
C4059 C80 1.555 . S
C4074 C1429 1.579 . S
C4109 C140 1.230 . S
C4124 C1328 1.249 . S
