# Generated by pormake.
# Topology pyr, (3,6)-cn, num edge types: 1
# Building blocks:
#     Node 0, Type 0, BuildingBlock: BETDIP_clean_linker_0, # of connection points: 3
#     Node 1, Type 0, BuildingBlock: BETDIP_clean_linker_0, # of connection points: 3
#     Node 2, Type 0, BuildingBlock: BETDIP_clean_linker_0, # of connection points: 3
#     Node 3, Type 0, BuildingBlock: BETDIP_clean_linker_0, # of connection points: 3
#     Node 4, Type 0, BuildingBlock: BETDIP_clean_linker_0, # of connection points: 3
#     Node 5, Type 0, BuildingBlock: BETDIP_clean_linker_0, # of connection points: 3
#     Node 6, Type 0, BuildingBlock: BETDIP_clean_linker_0, # of connection points: 3
#     Node 7, Type 0, BuildingBlock: BETDIP_clean_linker_0, # of connection points: 3
#     Node 8, Type 1, BuildingBlock: JUFBIX_clean_sbu_0, # of connection points: 6
#     Node 9, Type 1, BuildingBlock: JUFBIX_clean_sbu_0, # of connection points: 6
#     Node 10, Type 1, BuildingBlock: JUFBIX_clean_sbu_0, # of connection points: 6
#     Node 11, Type 1, BuildingBlock: JUFBIX_clean_sbu_0, # of connection points: 6
#     Edge 12, Type (0, 1), BuildingBlock: TEMPAE_clean_linker_10, # of connection points: 2
#     Edge 13, Type (0, 1), BuildingBlock: TEMPAE_clean_linker_10, # of connection points: 2
#     Edge 14, Type (0, 1), BuildingBlock: TEMPAE_clean_linker_10, # of connection points: 2
#     Edge 15, Type (0, 1), BuildingBlock: TEMPAE_clean_linker_10, # of connection points: 2
#     Edge 16, Type (0, 1), BuildingBlock: TEMPAE_clean_linker_10, # of connection points: 2
#     Edge 17, Type (0, 1), BuildingBlock: TEMPAE_clean_linker_10, # of connection points: 2
#     Edge 18, Type (0, 1), BuildingBlock: TEMPAE_clean_linker_10, # of connection points: 2
#     Edge 19, Type (0, 1), BuildingBlock: TEMPAE_clean_linker_10, # of connection points: 2
#     Edge 20, Type (0, 1), BuildingBlock: TEMPAE_clean_linker_10, # of connection points: 2
#     Edge 21, Type (0, 1), BuildingBlock: TEMPAE_clean_linker_10, # of connection points: 2
#     Edge 22, Type (0, 1), BuildingBlock: TEMPAE_clean_linker_10, # of connection points: 2
#     Edge 23, Type (0, 1), BuildingBlock: TEMPAE_clean_linker_10, # of connection points: 2
#     Edge 24, Type (0, 1), BuildingBlock: TEMPAE_clean_linker_10, # of connection points: 2
#     Edge 25, Type (0, 1), BuildingBlock: TEMPAE_clean_linker_10, # of connection points: 2
#     Edge 26, Type (0, 1), BuildingBlock: TEMPAE_clean_linker_10, # of connection points: 2
#     Edge 27, Type (0, 1), BuildingBlock: TEMPAE_clean_linker_10, # of connection points: 2
#     Edge 28, Type (0, 1), BuildingBlock: TEMPAE_clean_linker_10, # of connection points: 2
#     Edge 29, Type (0, 1), BuildingBlock: TEMPAE_clean_linker_10, # of connection points: 2
#     Edge 30, Type (0, 1), BuildingBlock: TEMPAE_clean_linker_10, # of connection points: 2
#     Edge 31, Type (0, 1), BuildingBlock: TEMPAE_clean_linker_10, # of connection points: 2
#     Edge 32, Type (0, 1), BuildingBlock: TEMPAE_clean_linker_10, # of connection points: 2
#     Edge 33, Type (0, 1), BuildingBlock: TEMPAE_clean_linker_10, # of connection points: 2
#     Edge 34, Type (0, 1), BuildingBlock: TEMPAE_clean_linker_10, # of connection points: 2
#     Edge 35, Type (0, 1), BuildingBlock: TEMPAE_clean_linker_10, # of connection points: 2
# Relax obj value: 0.160
# Max RMSD: 0.200
# Mean RMSD: 0.129
data_MOF--net-pyr--node1-JUFBIX_clean_sbu_0--node2-BETDIP_clean_linker_0--edge1-TEMPAE_clean_linker_10
_symmetry_space_group_name_H-M    P1
_symmetry_Int_Tables_number       1
_symmetry_cell_setting            triclinic
loop_
_symmetry_equiv_pos_as_xyz
'x, y, z'
_cell_length_a     37.474348
_cell_length_b     34.595595
_cell_length_c     38.5556
_cell_angle_alpha  87.335749
_cell_angle_beta   85.967267
_cell_angle_gamma 97.939023
loop_
_atom_site_label
_atom_site_type_symbol
_atom_site_fract_x
_atom_site_fract_y
_atom_site_fract_z
_atom_type_partial_charge
H0 H 0.14645 0.18048 0.23797 0.0
H1 H 0.22582 0.18952 0.15123 0.0
H2 H 0.23172 0.10886 0.23933 0.0
H3 H 0.20854 0.25465 0.14684 0.0
C4 C 0.1795 0.24913 0.15311 0.0
C5 C 0.17079 0.17151 0.22598 0.0
C6 C 0.18747 0.14283 0.24334 0.0
C7 C 0.1846 0.1891 0.19332 0.0
C8 C 0.21592 0.17697 0.17692 0.0
C9 C 0.23335 0.14733 0.19277 0.0
C10 C 0.21853 0.13063 0.22617 0.0
N11 N 0.165 0.21741 0.1775 0.0
H12 H 0.42142 0.93851 0.66273 0.0
H13 H 0.42334 0.84718 0.59192 0.0
H14 H 0.45507 0.82939 0.69591 0.0
H15 H 0.37677 0.87156 0.57116 0.0
C16 C 0.37699 0.90157 0.57826 0.0
C17 C 0.42684 0.90927 0.65755 0.0
C18 C 0.43973 0.88601 0.68342 0.0
C19 C 0.41914 0.89473 0.62534 0.0
C20 C 0.42708 0.85747 0.61764 0.0
C21 C 0.4405 0.83366 0.6428 0.0
C22 C 0.4464 0.8481 0.6758 0.0
N23 N 0.4012 0.91746 0.60241 0.0
H24 H 0.73813 0.43938 0.85844 0.0
H25 H 0.64448 0.35487 0.84944 0.0
H26 H 0.71639 0.33597 0.92821 0.0
H27 H 0.6252 0.41997 0.8331 0.0
C28 C 0.64682 0.42554 0.8124 0.0
C29 C 0.72196 0.41193 0.86747 0.0
C30 C 0.73139 0.38998 0.89652 0.0
C31 C 0.69069 0.39954 0.85045 0.0
C32 C 0.66838 0.36481 0.86261 0.0
C33 C 0.67764 0.34186 0.89068 0.0
C34 C 0.70929 0.35432 0.90701 0.0
N35 N 0.68274 0.42151 0.82038 0.0
H36 H 0.93649 0.56246 0.45466 0.0
H37 H 0.03013 0.64835 0.46073 0.0
H38 H 0.92647 0.66875 0.50535 0.0
H39 H 0.05022 0.62128 0.41229 0.0
C40 C 0.03317 0.59402 0.40854 0.0
C41 C 0.94879 0.58989 0.46397 0.0
C42 C 0.92723 0.6138 0.48168 0.0
C43 C 0.98569 0.60225 0.45584 0.0
C44 C 1.00161 0.63849 0.46674 0.0
C45 C 0.98047 0.6623 0.48541 0.0
C46 C 0.94336 0.64955 0.49288 0.0
N47 N 1.00483 0.57894 0.43399 0.0
H48 H 0.79302 0.85925 0.92484 0.0
H49 H 0.8775 0.8615 0.84357 0.0
H50 H 0.79823 0.94011 0.83506 0.0
H51 H 0.90736 0.84043 0.89107 0.0
C52 C 0.88668 0.81845 0.90416 0.0
C53 C 0.80555 0.87145 0.89983 0.0
C54 C 0.79105 0.90188 0.88209 0.0
C55 C 0.83687 0.85705 0.88655 0.0
C56 C 0.85379 0.87286 0.85413 0.0
C57 C 0.84026 0.90285 0.83494 0.0
C58 C 0.80912 0.91751 0.84959 0.0
N59 N 0.84987 0.82579 0.90579 0.0
H60 H 0.61183 0.09378 0.40972 0.0
H61 H 0.62445 0.19176 0.47418 0.0
H62 H 0.57616 0.20199 0.37722 0.0
H63 H 0.65767 0.15945 0.50418 0.0
C64 C 0.66019 0.13132 0.49375 0.0
C65 C 0.60801 0.12365 0.41434 0.0
C66 C 0.59288 0.14597 0.38933 0.0
C67 C 0.6199 0.13985 0.44475 0.0
C68 C 0.61511 0.17855 0.45106 0.0
C69 C 0.59878 0.20104 0.42711 0.0
C70 C 0.58791 0.18454 0.39621 0.0
N71 N 0.63881 0.11707 0.4668 0.0
H72 H 0.29772 0.60632 0.20791 0.0
H73 H 0.39035 0.69315 0.21383 0.0
H74 H 0.31263 0.71175 0.14064 0.0
H75 H 0.41225 0.627 0.22479 0.0
C76 C 0.39264 0.62133 0.24724 0.0
C77 C 0.31274 0.63438 0.19885 0.0
C78 C 0.30089 0.65669 0.17126 0.0
C79 C 0.34501 0.64727 0.21419 0.0
C80 C 0.36573 0.68287 0.20189 0.0
C81 C 0.35408 0.70617 0.17536 0.0
C82 C 0.32155 0.69318 0.16068 0.0
N83 N 0.35577 0.62489 0.2427 0.0
H84 H 0.03455 0.3882 0.63421 0.0
H85 H 0.14009 0.45597 0.63162 0.0
H86 H 0.12366 0.35736 0.5692 0.0
H87 H 0.10986 0.50208 0.6529 0.0
C88 C 0.09218 0.4833 0.67218 0.0
C89 C 0.0624 0.39422 0.6235 0.0
C90 C 0.07588 0.36948 0.59928 0.0
C91 C 0.08512 0.42608 0.63486 0.0
C92 C 0.12161 0.43273 0.62212 0.0
C93 C 0.13542 0.40828 0.59831 0.0
C94 C 0.1124 0.37721 0.58646 0.0
N95 N 0.07194 0.44854 0.66168 0.0
Co96 Co 0.99367 0.01889 0.52769 0.0
C97 C 0.01948 0.94742 0.52729 0.0
Co98 Co 0.04438 0.01848 0.55282 0.0
C99 C 0.92102 0.032 0.51769 0.0
C100 C 0.94499 1.0063 0.47396 0.0
N101 N 0.9515 0.01865 0.50588 0.0
N102 N 0.89587 0.02878 0.49427 0.0
C103 C 0.91082 0.01271 0.46666 0.0
H104 H 0.91774 0.0449 0.54257 0.0
H105 H 0.96405 0.99388 0.45694 0.0
C106 C 0.01879 0.08994 0.5533 0.0
N107 N 0.08675 0.01858 0.5744 0.0
C108 C 0.11703 1.00521 0.56206 0.0
C109 C 0.09383 0.0308 0.60624 0.0
N110 N 0.14267 0.00833 0.585 0.0
C111 C 0.12819 0.02434 0.61291 0.0
C112 C 0.05602 0.04058 0.4808 0.0
O113 O 0.99323 0.07228 0.53754 0.0
O114 O 0.04399 0.07148 0.56232 0.0
O115 O 0.07209 0.0348 0.50828 0.0
O116 O 0.02156 0.03528 0.48347 0.0
O117 O 0.04474 0.96529 0.54322 0.0
H118 H 0.07507 0.04322 0.62359 0.0
H119 H 0.11983 0.99239 0.5371 0.0
O120 O 0.99423 0.96568 0.518 0.0
O121 O 0.96595 1.00254 0.57196 0.0
O122 O 1.01627 1.00229 0.59727 0.0
C123 C 0.98176 0.997 0.59963 0.0
H124 H 0.89795 1.00613 0.44293 0.0
H125 H 0.14151 0.03091 0.63639 0.0
Co126 Co 0.49593 0.01937 1.01149 0.0
C127 C 0.48931 0.96042 0.0655 0.0
Co128 Co 0.52732 0.03417 0.05632 0.0
C129 C 0.47799 0.99888 0.9421 0.0
C130 C 0.4324 0.98856 0.97972 0.0
N131 N 0.46771 1.00365 0.97574 0.0
N132 N 0.4506 0.98078 0.92523 0.0
C133 C 0.42184 0.97444 0.94877 0.0
H134 H 0.50548 0.00634 0.93074 0.0
H135 H 0.41581 0.98612 1.00406 0.0
C136 C 0.53404 0.09304 1.00218 0.0
N137 N 0.55546 0.0496 0.09207 0.0
C138 C 0.54558 0.05119 0.12627 0.0
C139 C 0.5904 0.06607 0.08817 0.0
N140 N 0.57287 0.06856 0.14368 0.0
C141 C 0.60114 0.07782 0.11981 0.0
C142 C 0.56671 0.99911 1.00305 0.0
O143 O 0.51225 0.06878 0.98737 0.0
O144 O 0.54324 0.08366 0.03221 0.0
O145 O 0.56829 0.01297 0.03312 0.0
O146 O 0.53699 0.99842 0.9887 0.0
O147 O 0.51107 0.98468 0.08035 0.0
H148 H 0.60664 0.07057 0.06362 0.0
H149 H 0.51845 0.04155 0.13785 0.0
O150 O 0.48 0.96994 0.03557 0.0
O151 O 0.45496 0.04073 0.03481 0.0
O152 O 0.48637 0.05512 0.0792 0.0
C153 C 0.45663 0.05457 0.0649 0.0
H154 H 0.39536 0.9596 0.9442 0.0
H155 H 0.6275 0.09266 0.12479 0.0
Co156 Co 0.55527 0.54209 0.51522 0.0
C157 C 0.50005 0.54292 0.46995 0.0
Co158 Co 0.50415 0.50638 0.53522 0.0
C159 C 0.63151 0.56414 0.5025 0.0
C160 C 0.60266 0.60726 0.48041 0.0
N161 N 0.5979 0.57251 0.49861 0.0
N162 N 0.6573 0.59224 0.48751 0.0
C163 C 0.63914 0.61946 0.47351 0.0
H164 H 0.63678 0.53805 0.51663 0.0
H165 H 0.58102 0.6227 0.47269 0.0
C166 C 0.55906 0.50549 0.58067 0.0
N167 N 0.46222 0.47469 0.55173 0.0
C168 C 0.4277 0.47935 0.54721 0.0
C169 C 0.46021 0.43934 0.5686 0.0
N170 N 0.40422 0.44811 0.56037 0.0
C171 C 0.42464 0.42299 0.57403 0.0
C172 C 0.54975 0.46591 0.49587 0.0
O173 O 0.57685 0.52915 0.55741 0.0
O174 O 0.52671 0.49162 0.57593 0.0
O175 O 0.51905 0.46379 0.51241 0.0
O176 O 0.5712 0.49786 0.4942 0.0
O177 O 0.48192 0.52104 0.49428 0.0
H178 H 0.48322 0.42585 0.57576 0.0
H179 H 0.42008 0.5046 0.5335 0.0
O180 O 0.53317 0.55523 0.4734 0.0
O181 O 0.53921 0.58567 0.53605 0.0
O182 O 0.48909 0.54973 0.5581 0.0
C183 C 0.5092 0.58267 0.55421 0.0
H184 H 0.65116 0.64614 0.45898 0.0
H185 H 0.41465 0.39479 0.58705 0.0
Co186 Co 0.02675 0.51972 1.01141 0.0
C187 C 0.95435 0.48394 0.02171 0.0
Co188 Co 1.00037 0.52705 0.06304 0.0
C189 C 0.07604 0.51261 0.94875 0.0
C190 C 0.02213 0.52236 0.93955 0.0
N191 N 0.04385 0.51688 0.96537 0.0
N192 N 0.07463 0.51578 0.9138 0.0
C193 C 0.04085 0.52168 0.90811 0.0
H194 H 0.09996 0.50837 0.9618 0.0
H195 H 0.99433 0.52749 0.94327 0.0
C196 C 0.07286 0.56241 0.05289 0.0
N197 N 0.98117 0.53102 0.10791 0.0
C198 C 0.99877 0.53115 0.13725 0.0
C199 C 0.9473 0.53678 0.11829 0.0
N200 N 0.97742 0.5372 0.16556 0.0
C201 C 0.94491 0.54059 0.15371 0.0
C202 C 0.03897 0.46065 0.05781 0.0
O203 O 0.07145 0.54923 0.02259 0.0
O204 O 0.04458 0.55713 0.07372 0.0
O205 O 0.01952 0.47934 0.07776 0.0
O206 O 0.04507 0.47254 0.02581 0.0
O207 O 0.95573 0.49729 0.0518 0.0
H208 H 0.92597 0.53893 0.1011 0.0
H209 H 0.02716 0.52833 0.13756 0.0
O210 O 0.98255 0.48948 1.00099 0.0
O211 O 1.00808 0.56759 0.99717 0.0
O212 O 0.98193 0.57439 0.04838 0.0
C213 C 0.98858 0.58644 1.0166 0.0
H214 H 0.03064 0.52557 0.88276 0.0
H215 H 0.92114 0.54583 0.1694 0.0
C216 C 0.15909 0.15121 0.30401 0.0
C217 C 0.17182 0.12642 0.2794 0.0
C218 C 0.14185 0.13667 0.33681 0.0
C219 C 0.13666 0.09594 0.34596 0.0
C220 C 0.15014 0.07074 0.32162 0.0
C221 C 0.1676 0.08617 0.28896 0.0
C222 C 0.12865 0.16508 0.36158 0.0
C223 C 0.14533 0.02719 0.32975 0.0
C224 C 0.11491 0.06257 0.44334 0.0
C225 C 0.07694 0.05364 0.44619 0.0
C226 C 0.13458 0.07568 0.41114 0.0
C227 C 0.11624 0.07998 0.38043 0.0
C228 C 0.07798 0.07046 0.38308 0.0
C229 C 0.05898 0.05765 0.41561 0.0
C230 C 0.17514 0.08553 0.41013 0.0
C231 C 0.05689 0.07419 0.35146 0.0
H232 H 0.16254 0.18239 0.29757 0.0
H233 H 0.17693 0.06645 0.27043 0.0
H234 H 0.09883 0.15867 0.36642 0.0
H235 H 0.14029 0.1617 0.38704 0.0
H236 H 0.13588 0.19595 0.35139 0.0
H237 H 0.15845 0.01153 0.309 0.0
H238 H 0.15681 0.02066 0.35475 0.0
H239 H 0.1161 0.01559 0.33288 0.0
H240 H 0.12938 0.0597 0.46648 0.0
H241 H 0.02978 0.05084 0.41705 0.0
H242 H 0.1833 0.11695 0.40228 0.0
H243 H 0.18811 0.06855 0.39036 0.0
H244 H 0.18569 0.07937 0.43573 0.0
H245 H 0.06064 0.10513 0.3413 0.0
H246 H 0.02752 0.06419 0.35726 0.0
H247 H 0.06719 0.0568 0.33047 0.0
C248 C 0.47305 0.89224 0.73787 0.0
C249 C 0.44423 0.90071 0.71881 0.0
C250 C 0.47684 0.90537 0.77155 0.0
C251 C 0.45151 0.92794 0.7863 0.0
C252 C 0.42275 0.93712 0.76702 0.0
C253 C 0.41923 0.92304 0.73377 0.0
C254 C 0.50757 0.89455 0.79158 0.0
C255 C 0.39528 0.96132 0.78174 0.0
C256 C 0.43346 0.93056 0.88404 0.0
C257 C 0.45251 0.9669 0.89066 0.0
C258 C 0.43408 0.9169 0.85039 0.0
C259 C 0.45378 0.94048 0.82255 0.0
C260 C 0.47366 0.97693 0.82918 0.0
C261 C 0.47305 0.98956 0.86331 0.0
C262 C 0.41308 0.87754 0.84454 0.0
C263 C 0.49451 1.00315 0.80008 0.0
H264 H 0.49274 0.87541 0.72644 0.0
H265 H 0.39636 0.92902 0.71974 0.0
H266 H 0.52412 0.9213 0.79954 0.0
H267 H 0.49663 0.87696 0.81575 0.0
H268 H 0.5254 0.87748 0.77616 0.0
H269 H 0.37595 0.96804 0.76251 0.0
H270 H 0.37974 0.94543 0.80489 0.0
H271 H 0.40912 0.98925 0.79044 0.0
H272 H 0.41816 0.91269 0.90533 0.0
H273 H 0.48769 0.01769 0.8685 0.0
H274 H 0.43085 0.85915 0.8307 0.0
H275 H 0.39078 0.88141 0.82781 0.0
H276 H 0.40132 0.86164 0.86931 0.0
H277 H 0.5135 0.98698 0.78522 0.0
H278 H 0.51007 0.0296 0.80982 0.0
H279 H 0.47552 0.01254 0.78163 0.0
C280 C 0.60727 0.45858 0.77484 0.0
C281 C 0.63818 0.44035 0.77756 0.0
C282 C 0.59681 0.47094 0.74227 0.0
C283 C 0.61702 0.46368 0.71138 0.0
C284 C 0.64846 0.44538 0.71399 0.0
C285 C 0.65897 0.43445 0.74708 0.0
C286 C 0.56374 0.49128 0.74095 0.0
C287 C 0.67021 0.43602 0.6818 0.0
C288 C 0.56335 0.45796 0.63076 0.0
C289 C 0.57545 0.49425 0.61304 0.0
C290 C 0.57773 0.44709 0.66194 0.0
C291 C 0.60409 0.47362 0.67653 0.0
C292 C 0.61655 0.51028 0.65862 0.0
C293 C 0.6025 0.51989 0.62684 0.0
C294 C 0.56434 0.40729 0.67948 0.0
C295 C 0.64379 0.53992 0.67362 0.0
H296 H 0.59117 0.46321 0.79837 0.0
H297 H 0.68265 0.41992 0.74903 0.0
H298 H 0.57027 0.51911 0.72482 0.0
H299 H 0.54226 0.47267 0.72856 0.0
H300 H 0.55283 0.49774 0.76727 0.0
H301 H 0.69453 0.42284 0.68816 0.0
H302 H 0.65312 0.41529 0.66663 0.0
H303 H 0.67893 0.46287 0.66478 0.0
H304 H 0.5427 0.43783 0.62008 0.0
H305 H 0.61184 0.54806 0.61337 0.0
H306 H 0.54938 0.41055 0.70478 0.0
H307 H 0.58754 0.39182 0.685 0.0
H308 H 0.54617 0.38884 0.66334 0.0
H309 H 0.63241 0.54852 0.699 0.0
H310 H 0.65149 0.56663 0.6561 0.0
H311 H 0.66854 0.52697 0.67862 0.0
C312 C 0.05148 0.60257 0.34497 0.0
C313 C 0.03216 0.57985 0.37296 0.0
C314 C 0.04615 0.59326 0.31048 0.0
C315 C 0.02099 0.5604 0.30402 0.0
C316 C 1.0033 0.53587 0.33226 0.0
C317 C 1.00911 0.54589 0.36644 0.0
C318 C 0.0657 0.61998 0.28102 0.0
C319 C 0.97649 0.50041 0.32646 0.0
C320 C 0.9704 0.56581 0.22261 0.0
C321 C 0.98808 0.54229 0.20046 0.0
C322 C 0.981 0.57196 0.25628 0.0
C323 C 1.01008 0.55419 0.26816 0.0
C324 C 0.02809 0.53035 0.24602 0.0
C325 C 0.01685 0.52466 0.21242 0.0
C326 C 0.96112 0.59766 0.2791 0.0
C327 C 0.05912 0.51084 0.25786 0.0
H328 H 0.06941 0.62875 0.35001 0.0
H329 H 0.99441 0.5279 0.388 0.0
H330 H 0.07783 0.60278 0.2609 0.0
H331 H 0.04614 0.63626 0.26836 0.0
H332 H 0.08737 0.64147 0.29018 0.0
H333 H 0.96829 0.48195 0.35083 0.0
H334 H 0.95194 0.50995 0.3163 0.0
H335 H 0.98801 0.48231 0.30673 0.0
H336 H 0.94862 0.58009 0.21342 0.0
H337 H 0.03038 0.50608 0.19561 0.0
H338 H 0.98028 0.62259 0.28683 0.0
H339 H 0.94916 0.58084 0.30334 0.0
H340 H 0.93916 0.6094 0.26588 0.0
H341 H 0.08103 0.53321 0.26521 0.0
H342 H 0.0704 0.49337 0.23739 0.0
H343 H 0.05003 0.4913 0.28137 0.0
C344 C 0.27313 0.09463 0.17763 0.0
C345 C 0.26667 0.13383 0.17435 0.0
C346 C 0.30368 0.08166 0.16025 0.0
C347 C 0.32914 0.10817 0.13859 0.0
C348 C 0.32292 0.14775 0.13524 0.0
C349 C 0.2922 0.15996 0.15295 0.0
C350 C 0.3086 0.03923 0.16495 0.0
C351 C 0.34891 0.17747 0.1128 0.0
C352 C 0.4257 0.08288 0.11718 0.0
C353 C 0.42415 0.06889 0.08347 0.0
C354 C 0.39538 0.09559 0.13519 0.0
C355 C 0.36204 0.0946 0.11951 0.0
C356 C 0.36035 0.0806 0.08545 0.0
C357 C 0.39107 0.06802 0.06804 0.0
C358 C 0.39908 0.11002 0.17126 0.0
C359 C 0.32586 0.07882 0.06727 0.0
H360 H 0.25386 0.0736 0.19341 0.0
H361 H 0.28852 0.19042 0.15027 0.0
H362 H 0.30867 0.02579 0.13938 0.0
H363 H 0.3351 0.03683 0.17538 0.0
H364 H 0.28697 0.02222 0.1829 0.0
H365 H 0.34049 0.20703 0.11252 0.0
H366 H 0.37628 0.17935 0.1224 0.0
H367 H 0.35101 0.16817 0.08566 0.0
H368 H 0.45075 0.08378 0.12975 0.0
H369 H 0.38906 0.05731 0.04218 0.0
H370 H 0.37916 0.09189 0.19012 0.0
H371 H 0.39306 0.1405 0.17186 0.0
H372 H 0.42658 0.10914 0.18003 0.0
H373 H 0.30372 0.05977 0.08299 0.0
H374 H 0.32862 0.06742 0.04089 0.0
H375 H 0.31771 0.1084 0.06479 0.0
C376 C 0.34426 0.95992 0.57824 0.0
C377 C 0.34488 0.92046 0.57183 0.0
C378 C 0.31222 0.97646 0.57685 0.0
C379 C 0.28005 0.95275 0.56946 0.0
C380 C 0.28098 0.91338 0.56136 0.0
C381 C 0.31356 0.8978 0.56233 0.0
C382 C 0.31244 0.01879 0.5849 0.0
C383 C 0.24718 0.88704 0.5537 0.0
C384 C 0.19187 0.9787 0.60984 0.0
C385 C 0.17748 0.99533 0.58111 0.0
C386 C 0.22522 0.96469 0.60631 0.0
C387 C 0.2449 0.96801 0.57332 0.0
C388 C 0.23076 0.98536 0.54428 0.0
C389 C 0.197 0.99852 0.54848 0.0
C390 C 0.23912 0.94582 0.63782 0.0
C391 C 0.25128 0.99003 0.50887 0.0
H392 H 0.36859 0.97763 0.58523 0.0
H393 H 0.31408 0.86727 0.55741 0.0
H394 H 0.2988 0.0342 0.56493 0.0
H395 H 0.2972 0.02055 0.61037 0.0
H396 H 0.34029 0.03433 0.58608 0.0
H397 H 0.253 0.85813 0.54527 0.0
H398 H 0.2282 0.8823 0.57743 0.0
H399 H 0.23322 0.90097 0.53309 0.0
H400 H 0.17656 0.97577 0.63495 0.0
H401 H 0.18601 0.01179 0.52634 0.0
H402 H 0.26573 0.96187 0.64312 0.0
H403 H 0.2432 0.91537 0.6327 0.0
H404 H 0.22034 0.94522 0.66151 0.0
H405 H 0.27843 0.00695 0.51059 0.0
H406 H 0.23697 1.00514 0.48919 0.0
H407 H 0.2554 0.96095 0.49967 0.0
C408 C 0.79433 0.42769 0.89985 0.0
C409 C 0.76367 0.40401 0.91631 0.0
C410 C 0.82442 0.4409 0.91836 0.0
C411 C 0.82482 0.42904 0.95401 0.0
C412 C 0.79433 0.40492 0.97075 0.0
C413 C 0.76401 0.3936 0.95208 0.0
C414 C 0.85587 0.46761 0.89967 0.0
C415 C 0.79384 0.3906 1.00842 0.0
C416 C 0.91807 0.43358 0.98912 0.0
C417 C 0.91973 0.4669 1.00858 0.0
C418 C 0.88687 0.42009 0.97239 0.0
C419 C 0.85721 0.44155 0.97372 0.0
C420 C 0.85883 0.47528 0.99346 0.0
C421 C 0.88979 0.4871 1.01118 0.0
C422 C 0.8859 0.38319 0.95287 0.0
C423 C 0.82858 0.49994 0.99454 0.0
H424 H 0.7952 0.43574 0.87231 0.0
H425 H 0.74044 0.37661 0.9659 0.0
H426 H 0.86237 0.49417 0.91439 0.0
H427 H 0.8802 0.45263 0.89816 0.0
H428 H 0.85027 0.47673 0.87281 0.0
H429 H 0.76892 0.37023 1.01716 0.0
H430 H 0.81759 0.37538 1.01226 0.0
H431 H 0.79581 0.41573 0.02535 0.0
H432 H 0.94137 0.41818 0.9868 0.0
H433 H 0.89142 0.51347 0.02548 0.0
H434 H 0.88534 0.39023 0.92459 0.0
H435 H 0.86094 0.36279 0.96131 0.0
H436 H 0.90967 0.36804 0.95697 0.0
H437 H 0.82492 0.51114 0.96777 0.0
H438 H 0.83389 0.52519 1.01114 0.0
H439 H 0.80278 0.48202 1.00458 0.0
C440 C 0.86934 0.59536 0.45453 0.0
C441 C 0.88736 0.60426 0.48442 0.0
C442 C 0.83155 0.59126 0.45538 0.0
C443 C 0.81135 0.59576 0.48699 0.0
C444 C 0.82935 0.60315 0.51761 0.0
C445 C 0.86724 0.60767 0.51588 0.0
C446 C 0.81337 0.58387 0.4221 0.0
C447 C 0.80865 0.60746 0.55191 0.0
C448 C 0.7193 0.62854 0.48144 0.0
C449 C 0.69598 0.59308 0.48723 0.0
C450 C 0.75688 0.62978 0.48128 0.0
C451 C 0.77156 0.59477 0.48753 0.0
C452 C 0.74832 0.55892 0.49366 0.0
C453 C 0.71087 0.55845 0.49313 0.0
C454 C 0.78089 0.66858 0.47431 0.0
C455 C 0.76302 0.52104 0.50066 0.0
H456 H 0.88491 0.59335 0.43006 0.0
H457 H 0.88123 0.61447 0.539 0.0
H458 H 0.79222 0.55794 0.42596 0.0
H459 H 0.79979 0.60926 0.41472 0.0
H460 H 0.83281 0.57909 0.40015 0.0
H461 H 0.82647 0.61016 0.57377 0.0
H462 H 0.79492 0.63383 0.55014 0.0
H463 H 0.78736 0.58192 0.55798 0.0
H464 H 0.70826 0.65554 0.47737 0.0
H465 H 0.69338 0.53075 0.49703 0.0
H466 H 0.80011 0.66721 0.45131 0.0
H467 H 0.79716 0.6751 0.49683 0.0
H468 H 0.76523 0.69305 0.46949 0.0
H469 H 0.78071 0.51493 0.47788 0.0
H470 H 0.74123 0.49582 0.50614 0.0
H471 H 0.77983 0.52349 0.52324 0.0
C472 C 0.17379 0.31552 0.12591 0.0
C473 C 0.15686 0.27878 0.13997 0.0
C474 C 0.15375 0.3443 0.11333 0.0
C475 C 0.11552 0.33622 0.11374 0.0
C476 C 0.09825 0.29893 0.12758 0.0
C477 C 0.11896 0.27097 0.14083 0.0
C478 C 0.17364 0.38361 0.09974 0.0
C479 C 0.0578 0.28834 0.12799 0.0
C480 C 0.0611 0.42297 0.10813 0.0
C481 C 0.05644 0.42721 0.07231 0.0
C482 C 0.07987 0.39361 0.12189 0.0
C483 C 0.0939 0.36677 0.09963 0.0
C484 C 0.0884 0.37028 0.06357 0.0
C485 C 0.0703 0.40054 0.05038 0.0
C486 C 0.08561 0.39206 0.16024 0.0
C487 C 0.10199 0.34218 0.03873 0.0
H488 H 0.20299 0.32201 0.12514 0.0
H489 H 0.10546 0.2427 0.15134 0.0
H490 H 0.16913 0.38878 0.07189 0.0
H491 H 0.16298 0.40718 0.11411 0.0
H492 H 0.20319 0.38599 0.10231 0.0
H493 H 0.04837 0.25806 0.13885 0.0
H494 H 0.04418 0.30887 0.14374 0.0
H495 H 0.04922 0.29118 0.10113 0.0
H496 H 0.05098 0.44348 0.12543 0.0
H497 H 0.06698 0.40328 0.02271 0.0
H498 H 0.11499 0.39668 0.16384 0.0
H499 H 0.07446 0.3628 0.17238 0.0
H500 H 0.07272 0.41451 0.17426 0.0
H501 H 0.13193 0.34565 0.03738 0.0
H502 H 0.09346 0.34688 1.01202 0.0
H503 H 0.09188 0.31161 0.0483 0.0
C504 C 0.66923 0.27053 0.90946 0.0
C505 C 0.65415 0.30492 0.90343 0.0
C506 C 0.64779 0.23601 0.92342 0.0
C507 C 0.61039 0.23594 0.93207 0.0
C508 C 0.59488 0.27038 0.92536 0.0
C509 C 0.6169 0.30437 0.9109 0.0
C510 C 0.66537 0.19983 0.92963 0.0
C511 C 0.55527 0.27173 0.9346 0.0
C512 C 0.55093 0.13693 0.94799 0.0
C513 C 0.55055 0.13091 0.98427 0.0
C514 C 0.56974 0.17126 0.93061 0.0
C515 C 0.58816 0.2005 0.95003 0.0
C516 C 0.58671 0.19512 0.98677 0.0
C517 C 0.5682 0.16036 1.00337 0.0
C518 C 0.57096 0.17563 0.8914 0.0
C519 C 0.60547 0.22572 1.00856 0.0
H520 H 0.69794 0.2707 0.90334 0.0
H521 H 0.60518 0.33096 0.90651 0.0
H522 H 0.66399 0.19201 0.95798 0.0
H523 H 0.65063 0.17476 0.91719 0.0
H524 H 0.69415 0.20391 0.9193 0.0
H525 H 0.54695 0.30002 0.92598 0.0
H526 H 0.53851 0.24776 0.92256 0.0
H527 H 0.54939 0.26724 0.96322 0.0
H528 H 0.53757 0.11423 0.93301 0.0
H529 H 0.56792 0.15606 0.03142 0.0
H530 H 0.5992 0.17648 0.88026 0.0
H531 H 0.56196 0.20362 0.88311 0.0
H532 H 0.55374 0.15127 0.88025 0.0
H533 H 0.63511 0.22895 1.0022 0.0
H534 H 0.59984 0.21822 0.03693 0.0
H535 H 0.59677 0.25451 1.00253 0.0
C536 C 0.98575 0.71649 0.52625 0.0
C537 C 0.99562 0.70233 0.49398 0.0
C538 C 0.99411 0.75618 0.53249 0.0
C539 C 1.0129 0.78229 0.50584 0.0
C540 C 0.02516 0.76771 0.47411 0.0
C541 C 1.01632 0.72783 0.46852 0.0
C542 C 0.98076 0.77053 0.56678 0.0
C543 C 0.04548 0.7946 0.44517 0.0
C544 C 0.98969 0.88552 0.5048 0.0
C545 C 0.0189 0.90562 0.52041 0.0
C546 C 0.98783 0.84554 0.49941 0.0
C547 C 1.01594 0.82513 0.50976 0.0
C548 C 0.04591 0.84537 0.52483 0.0
C549 C 0.04701 0.88541 0.53006 0.0
C550 C 0.95537 0.82496 0.48326 0.0
C551 C 0.07646 0.82459 0.53598 0.0
H552 H 0.97016 0.69672 0.54615 0.0
H553 H 0.02379 0.71712 0.44344 0.0
H554 H 1.00283 0.78949 0.57805 0.0
H555 H 0.95891 0.78843 0.56243 0.0
H556 H 0.97002 0.74608 0.58603 0.0
H557 H 0.05734 0.77817 0.42423 0.0
H558 H 0.02678 0.81288 0.43356 0.0
H559 H 0.06745 0.81467 0.45544 0.0
H560 H 0.9679 0.9009 0.49719 0.0
H561 H 0.06976 0.90079 0.54202 0.0
H562 H 0.94064 0.8018 0.50189 0.0
H563 H 0.9642 0.8105 0.45969 0.0
H564 H 0.93633 0.84528 0.47581 0.0
H565 H 0.0662 0.80208 0.55708 0.0
H566 H 0.09876 0.84496 0.5455 0.0
H567 H 0.08751 0.80923 0.51391 0.0
C568 C 0.42565 0.77098 0.613 0.0
C569 C 0.44793 0.79371 0.63445 0.0
C570 C 0.43414 0.73501 0.60209 0.0
C571 C 0.46512 0.72075 0.61365 0.0
C572 C 0.48658 0.74234 0.63689 0.0
C573 C 0.47798 0.77875 0.64669 0.0
C574 C 0.41081 0.71313 0.57694 0.0
C575 C 0.5194 0.72766 0.65038 0.0
C576 C 0.47352 0.6141 0.59956 0.0
C577 C 0.49781 0.6176 0.56985 0.0
C578 C 0.46317 0.64746 0.61468 0.0
C579 C 0.47671 0.68499 0.59908 0.0
C580 C 0.50093 0.68855 0.56886 0.0
C581 C 0.51153 0.65485 0.55489 0.0
C582 C 0.43798 0.64261 0.64738 0.0
C583 C 0.51531 0.72795 0.55095 0.0
H584 H 0.40175 0.78159 0.6042 0.0
H585 H 0.49553 0.79602 0.66308 0.0
H586 H 0.42689 0.71156 0.55188 0.0
H587 H 0.40157 0.68268 0.58729 0.0
H588 H 0.38672 0.72729 0.5717 0.0
H589 H 0.53061 0.74544 0.6714 0.0
H590 H 0.51255 0.69678 0.66053 0.0
H591 H 0.54074 0.7286 0.62879 0.0
H592 H 0.46309 0.58531 0.61132 0.0
H593 H 0.5301 0.65765 0.53175 0.0
H594 H 0.41272 0.6546 0.6425 0.0
H595 H 0.45072 0.65937 0.66824 0.0
H596 H 0.43087 0.61151 0.65693 0.0
H597 H 0.49252 0.74299 0.54328 0.0
H598 H 0.53346 0.72559 0.52732 0.0
H599 H 0.53049 0.74669 0.56911 0.0
C600 C 0.86483 0.95797 0.78908 0.0
C601 C 0.85879 0.91788 0.79948 0.0
C602 C 0.88411 0.97205 0.75686 0.0
C603 C 0.89768 0.94565 0.73376 0.0
C604 C 0.89094 0.90513 0.7438 0.0
C605 C 0.87187 0.89191 0.77617 0.0
C606 C 0.89053 0.01545 0.74778 0.0
C607 C 0.90414 0.87549 0.72033 0.0
C608 C 0.92221 0.9764 0.63623 0.0
C609 C 0.96022 0.98453 0.63408 0.0
C610 C 0.9017 0.96426 0.6682 0.0
C611 C 0.9192 0.96012 0.69943 0.0
C612 C 0.95754 0.9687 0.69747 0.0
C613 C 0.97741 0.98057 0.66513 0.0
C614 C 0.86112 0.95539 0.66842 0.0
C615 C 0.97776 0.96508 0.72968 0.0
H616 H 0.85531 0.97859 0.8066 0.0
H617 H 0.86704 0.86084 0.78317 0.0
H618 H 0.91999 0.02591 0.74488 0.0
H619 H 0.87965 0.02181 0.72243 0.0
H620 H 0.87776 0.03225 0.76789 0.0
H621 H 0.89615 0.84501 0.73131 0.0
H622 H 0.89316 0.87821 0.69449 0.0
H623 H 0.93403 0.8812 0.71607 0.0
H624 H 0.9083 0.97924 0.61273 0.0
H625 H 1.00662 0.98677 0.66421 0.0
H626 H 0.84819 0.97351 0.68724 0.0
H627 H 0.8521 0.92433 0.67711 0.0
H628 H 0.85133 0.96089 0.64236 0.0
H629 H 0.96763 0.98347 0.74996 0.0
H630 H 1.00734 0.97398 0.72433 0.0
H631 H 0.9729 0.93439 0.74057 0.0
C632 C 0.5549 0.13888 0.33801 0.0
C633 C 0.58499 0.1301 0.35499 0.0
C634 C 0.54936 0.12711 0.30419 0.0
C635 C 0.57423 0.10561 0.28715 0.0
C636 C 0.6037 0.09516 0.3047 0.0
C637 C 0.6089 0.10782 0.33821 0.0
C638 C 0.51776 0.13902 0.28618 0.0
C639 C 0.6307 0.07201 0.28752 0.0
C640 C 0.55169 0.05283 0.20541 0.0
C641 C 0.57148 0.07843 0.17952 0.0
C642 C 0.55169 0.06152 0.24066 0.0
C643 C 0.57148 0.09693 0.24997 0.0
C644 C 0.59048 0.12343 0.22372 0.0
C645 C 0.59044 0.11371 0.18887 0.0
C646 C 0.53151 0.03234 0.26797 0.0
C647 C 0.61145 0.16178 0.2325 0.0
H648 H 0.53594 0.15551 0.35094 0.0
H649 H 0.63259 0.1014 0.35071 0.0
H650 H 0.52785 0.15989 0.26377 0.0
H651 H 0.50201 0.11323 0.27568 0.0
H652 H 0.49939 0.15311 0.30388 0.0
H653 H 0.64996 0.06296 0.30588 0.0
H654 H 0.61653 0.04548 0.2767 0.0
H655 H 0.64635 0.08994 0.26549 0.0
H656 H 0.53716 0.02548 0.19814 0.0
H657 H 0.60516 0.13385 0.16878 0.0
H658 H 0.51279 0.04668 0.28497 0.0
H659 H 0.55097 0.02096 0.28483 0.0
H660 H 0.51578 0.00727 0.25632 0.0
H661 H 0.59371 0.17857 0.24826 0.0
H662 H 0.62295 0.18011 0.20886 0.0
H663 H 0.63393 0.15616 0.24841 0.0
C664 C 0.43595 0.58857 0.2804 0.0
C665 C 0.40499 0.60715 0.28079 0.0
C666 C 0.44992 0.57677 0.3115 0.0
C667 C 0.43337 0.58506 0.34399 0.0
C668 C 0.40201 0.60391 0.34452 0.0
C669 C 0.38786 0.61418 0.31293 0.0
C670 C 0.48264 0.55569 0.30953 0.0
C671 C 0.38411 0.61439 0.37842 0.0
C672 C 0.45378 0.52892 0.42643 0.0
C673 C 0.48267 0.55396 0.43809 0.0
C674 C 0.43752 0.53858 0.39593 0.0
C675 C 0.44955 0.57481 0.37716 0.0
C676 C 0.47811 0.60065 0.38942 0.0
C677 C 0.4947 0.58964 0.41933 0.0
C678 C 0.40805 0.50957 0.38332 0.0
C679 C 0.49116 0.64002 0.37094 0.0
H680 H 0.44927 0.58312 0.25558 0.0
H681 H 0.36421 0.62905 0.31335 0.0
H682 H 0.5058 0.57391 0.31985 0.0
H683 H 0.4771 0.52798 0.32592 0.0
H684 H 0.49069 0.54887 0.28246 0.0
H685 H 0.35983 0.62874 0.37451 0.0
H686 H 0.376 0.58781 0.39592 0.0
H687 H 0.40359 0.63444 0.39191 0.0
H688 H 0.44446 0.50121 0.44071 0.0
H689 H 0.51674 0.60931 0.4284 0.0
H690 H 0.41638 0.50116 0.35685 0.0
H691 H 0.38302 0.52304 0.38135 0.0
H692 H 0.40174 0.48269 0.40082 0.0
H693 H 0.50316 0.63608 0.34444 0.0
H694 H 0.51174 0.65786 0.38513 0.0
H695 H 0.46806 0.65648 0.36789 0.0
C696 C 0.07109 0.47972 0.73496 0.0
C697 C 0.09939 0.48684 0.70897 0.0
C698 C 0.07763 0.48437 0.76998 0.0
C699 C 0.11363 0.49469 0.7792 0.0
C700 C 0.14253 0.49988 0.75298 0.0
C701 C 0.13492 0.49688 0.71799 0.0
C702 C 0.04581 0.47952 0.79694 0.0
C703 C 0.18138 0.50929 0.76143 0.0
C704 C 0.10941 0.54626 0.86217 0.0
C705 C 0.10175 0.51408 0.88618 0.0
C706 C 0.11794 0.54116 0.82692 0.0
C707 C 0.11979 0.50298 0.81596 0.0
C708 C 0.11887 0.47168 0.84119 0.0
C709 C 0.10931 0.47751 0.87626 0.0
C710 C 0.11935 0.57557 0.80108 0.0
C711 C 0.12341 0.43112 0.83065 0.0
H712 H 0.04369 0.47184 0.72774 0.0
H713 H 0.15685 0.50174 0.69767 0.0
H714 H 0.04825 0.4556 0.81642 0.0
H715 H 0.04546 0.50673 0.81106 0.0
H716 H 0.01957 0.47269 0.78524 0.0
H717 H 0.19975 0.49745 0.74203 0.0
H718 H 0.18912 0.54146 0.76036 0.0
H719 H 0.18573 0.4974 0.78778 0.0
H720 H 0.10348 0.57448 0.87018 0.0
H721 H 0.10341 0.45266 0.89496 0.0
H722 H 0.09429 0.5725 0.78711 0.0
H723 H 0.14252 0.57648 0.78141 0.0
H724 H 0.12173 0.60379 0.81395 0.0
H725 H 0.09765 0.41669 0.82168 0.0
H726 H 0.13072 0.41289 0.85283 0.0
H727 H 0.14457 0.43233 0.80882 0.0
C728 C 0.72964 0.89111 0.91753 0.0
C729 C 0.75714 0.91667 0.89786 0.0
C730 C 0.69884 0.90436 0.93398 0.0
C731 C 0.6944 0.94446 0.93089 0.0
C732 C 0.72157 0.97038 0.91055 0.0
C733 C 0.75229 0.95636 0.89447 0.0
C734 C 0.67102 0.87521 0.95504 0.0
C735 C 0.71842 0.01329 0.90607 0.0
C736 C 0.59846 0.97223 0.95045 0.0
C737 C 0.59931 0.98491 0.98465 0.0
C738 C 0.62893 0.95954 0.93271 0.0
C739 C 0.66166 0.95909 0.94923 0.0
C740 C 0.66266 0.97186 0.98375 0.0
C741 C 0.63185 0.98458 1.00081 0.0
C742 C 0.62603 0.94654 0.89609 0.0
C743 C 0.69643 0.97193 1.00287 0.0
H744 H 0.73195 0.86027 0.92005 0.0
H745 H 0.77299 0.97687 0.87982 0.0
H746 H 0.66837 0.88378 0.98238 0.0
H747 H 0.64421 0.87513 0.94452 0.0
H748 H 0.67806 0.84506 0.95501 0.0
H749 H 0.74091 0.02962 0.88865 0.0
H750 H 0.69244 0.01714 0.89515 0.0
H751 H 0.71835 0.02637 0.9318 0.0
H752 H 0.57384 0.97234 0.93731 0.0
H753 H 0.63332 0.99427 0.02707 0.0
H754 H 0.63071 0.91563 0.89503 0.0
H755 H 0.64721 0.96428 0.87821 0.0
H756 H 0.59919 0.94921 0.88643 0.0
H757 H 0.70347 0.94185 1.00526 0.0
H758 H 0.69331 0.98296 0.02936 0.0
H759 H 0.71946 0.99042 0.98789 0.0
C760 C 0.7224 0.13598 0.51299 0.0
C761 C 0.69237 0.11314 0.50118 0.0
C762 C 0.75525 0.12123 0.51516 0.0
C763 C 0.75765 0.08244 0.50605 0.0
C764 C 0.72662 0.05843 0.49638 0.0
C765 C 0.69437 0.07424 0.49367 0.0
C766 C 0.78789 0.14792 0.52506 0.0
C767 C 0.72794 0.01663 0.4873 0.0
C768 C 0.8479 0.05939 0.46841 0.0
C769 C 0.86111 0.04182 0.49736 0.0
C770 C 0.81439 0.07304 0.47106 0.0
C771 C 0.7933 0.06827 0.50332 0.0
C772 C 0.80634 0.05014 0.53261 0.0
C773 C 0.84036 0.03746 0.52934 0.0
C774 C 0.80171 0.0929 0.43938 0.0
C775 C 0.78427 0.04387 0.5672 0.0
H776 H 0.72075 0.16611 0.51873 0.0
H777 H 0.67097 0.0564 0.48491 0.0
H778 H 0.80118 0.13357 0.54593 0.0
H779 H 0.80791 0.15413 0.50219 0.0
H780 H 0.78082 0.17613 0.53411 0.0
H781 H 0.7006 1.00056 0.48448 0.0
H782 H 0.74455 0.01616 0.46238 0.0
H783 H 0.74088 1.0009 0.5076 0.0
H784 H 0.86423 0.0632 0.44384 0.0
H785 H 0.85055 0.02352 0.55162 0.0
H786 H 0.7964 0.12277 0.44528 0.0
H787 H 0.77595 0.07646 0.43228 0.0
H788 H 0.82178 0.09511 0.4165 0.0
H789 H 0.77875 0.07236 0.57679 0.0
H790 H 0.79809 0.02874 0.58727 0.0
H791 H 0.75776 0.02623 0.56403 0.0
C792 C 0.26512 0.65348 0.11767 0.0
C793 C 0.26764 0.64222 0.15295 0.0
C794 C 0.23385 0.64191 0.10041 0.0
C795 C 0.20457 0.61669 0.11801 0.0
C796 C 0.20716 0.60396 0.15313 0.0
C797 C 0.23821 0.61737 0.17029 0.0
C798 C 0.23205 0.65714 0.06331 0.0
C799 C 0.17708 0.57611 0.17267 0.0
C800 C 0.10945 0.61136 0.08679 0.0
C801 C 0.10767 0.57905 0.06602 0.0
C802 C 0.1411 0.62461 0.10295 0.0
C803 C 0.17122 0.60392 0.09968 0.0
C804 C 0.16939 0.57106 0.07882 0.0
C805 C 0.13793 0.55951 0.06173 0.0
C806 C 0.14218 0.66059 0.12375 0.0
C807 C 0.20012 0.54715 0.07567 0.0
H808 H 0.28771 0.67138 0.10313 0.0
H809 H 0.23906 0.60856 0.19749 0.0
H810 H 0.22974 0.63254 0.04579 0.0
H811 H 0.20762 0.67171 0.06121 0.0
H812 H 0.2562 0.67832 0.05388 0.0
H813 H 0.18437 0.56641 0.19879 0.0
H814 H 0.15243 0.59039 0.17604 0.0
H815 H 0.17019 0.54995 0.15753 0.0
H816 H 0.08594 0.62625 0.09044 0.0
H817 H 0.13629 0.53389 0.04644 0.0
H818 H 0.16639 0.68188 0.11481 0.0
H819 H 0.14433 0.65261 0.15163 0.0
H820 H 0.11772 0.6751 0.12148 0.0
H821 H 0.22519 0.56571 0.06458 0.0
H822 H 0.19429 0.52206 0.05898 0.0
H823 H 0.2055 0.53576 0.1019 0.0
C824 C 0.18844 0.41482 0.55406 0.0
C825 C 0.17472 0.41307 0.58892 0.0
C826 C 0.22589 0.42063 0.54536 0.0
C827 C 0.24979 0.42426 0.57225 0.0
C828 C 0.23593 0.42179 0.6075 0.0
C829 C 0.19856 0.41626 0.61537 0.0
C830 C 0.23987 0.42334 0.50752 0.0
C831 C 0.26057 0.42504 0.63694 0.0
C832 C 0.3464 0.40441 0.56072 0.0
C833 C 0.36551 0.44233 0.5597 0.0
C834 C 0.30857 0.39811 0.56297 0.0
C835 C 0.28944 0.43056 0.56405 0.0
C836 C 0.30852 0.46898 0.5612 0.0
C837 C 0.34639 0.47441 0.55915 0.0
C838 C 0.28912 0.35669 0.56595 0.0
C839 C 0.28895 0.5043 0.56214 0.0
H840 H 0.16988 0.41239 0.53367 0.0
H841 H 0.18786 0.41421 0.64238 0.0
H842 H 0.25635 0.45227 0.50091 0.0
H843 H 0.25777 0.40084 0.50269 0.0
H844 H 0.21769 0.41937 0.48979 0.0
H845 H 0.24533 0.42219 0.66293 0.0
H846 H 0.27839 0.40198 0.63572 0.0
H847 H 0.27825 0.45368 0.63437 0.0
H848 H 0.36101 0.37952 0.56024 0.0
H849 H 0.36094 0.50377 0.55851 0.0
H850 H 0.26802 0.35299 0.54712 0.0
H851 H 0.27533 0.35032 0.59243 0.0
H852 H 0.30783 0.33488 0.56126 0.0
H853 H 0.26749 0.50193 0.54363 0.0
H854 H 0.30753 0.532 0.55563 0.0
H855 H 0.27561 0.50578 0.58858 0.0
C856 C 0.93589 0.78574 0.92888 0.0
C857 C 0.89908 0.78429 0.92325 0.0
C858 C 0.94944 0.75414 0.94548 0.0
C859 C 0.92593 0.71925 0.95625 0.0
C860 C 0.88861 0.71756 0.95069 0.0
C861 C 0.8756 0.75011 0.93465 0.0
C862 C 0.98918 0.75807 0.95123 0.0
C863 C 0.86251 0.68094 0.96095 0.0
C864 C 0.97105 0.62618 0.96534 0.0
C865 C 0.97247 0.62055 1.00158 0.0
C866 C 0.95521 0.65725 0.95051 0.0
C867 C 0.94085 0.68439 0.97215 0.0
C868 C 0.9423 0.67896 1.00878 0.0
C869 C 0.95761 0.64705 0.023 0.0
C870 C 0.9539 0.66101 0.91148 0.0
C871 C 0.92816 0.70731 0.03302 0.0
H872 H 0.95432 0.81193 0.92025 0.0
H873 H 0.84719 0.74839 0.93025 0.0
H874 H 0.99283 0.75161 0.97912 0.0
H875 H 1.00207 0.73651 0.93609 0.0
H876 H 1.00354 0.78778 0.94331 0.0
H877 H 0.83434 0.68423 0.95548 0.0
H878 H 0.8708 0.6562 0.94653 0.0
H879 H 0.86311 0.67312 0.98911 0.0
H880 H 0.98197 0.60584 0.94838 0.0
H881 H 0.9584 0.64319 0.05097 0.0
H882 H 0.97027 0.68879 0.90095 0.0
H883 H 0.92571 0.66201 0.90479 0.0
H884 H 0.96428 0.63644 0.89834 0.0
H885 H 0.94312 0.73708 0.02672 0.0
H886 H 0.93084 0.69906 0.0608 0.0
H887 H 0.89927 0.7088 0.02939 0.0
C888 C 0.35968 0.77778 0.1581 0.0
C889 C 0.37607 0.74399 0.16251 0.0
C890 C 0.37973 0.81319 0.14434 0.0
C891 C 0.41704 0.81482 0.13429 0.0
C892 C 0.43389 0.78097 0.13931 0.0
C893 C 0.41325 0.74604 0.15354 0.0
C894 C 0.36078 0.84869 0.13988 0.0
C895 C 0.47345 0.78128 0.12858 0.0
C896 C 0.45553 0.89301 0.06382 0.0
C897 C 0.47336 0.92219 0.08308 0.0
C898 C 0.43801 0.85762 0.08007 0.0
C899 C 0.43779 0.85129 0.11664 0.0
C900 C 0.45626 0.88033 0.13622 0.0
C901 C 0.47405 0.91533 0.11917 0.0
C902 C 0.41912 0.82728 0.05811 0.0
C903 C 0.45634 0.8749 0.17528 0.0
H904 H 0.33105 0.77648 0.16539 0.0
H905 H 0.426 0.71993 0.15665 0.0
H906 H 0.37526 0.87372 0.15259 0.0
H907 H 0.36105 0.85738 0.11179 0.0
H908 H 0.33228 0.84331 0.15105 0.0
H909 H 0.48293 0.75319 0.13589 0.0
H910 H 0.47828 0.7869 0.09994 0.0
H911 H 0.49003 0.80524 0.1408 0.0
H912 H 0.455 0.89794 0.03589 0.0
H913 H 0.48757 0.93781 0.13428 0.0
H914 H 0.38965 0.82284 0.0656 0.0
H915 H 0.42894 0.79881 0.0628 0.0
H916 H 0.42345 0.83579 0.02983 0.0
H917 H 0.42828 0.87253 0.18731 0.0
H918 H 0.47313 0.89949 0.18657 0.0
H919 H 0.46667 0.8473 0.18243 0.0
C920 C 0.05674 0.32005 0.55649 0.0
C921 C 0.05394 0.33264 0.5905 0.0
C922 C 0.04418 0.28137 0.54941 0.0
C923 C 0.02814 0.25482 0.57699 0.0
C924 C 0.02173 0.26847 0.61061 0.0
C925 C 0.03487 0.30727 0.61703 0.0
C926 C 0.05141 0.26811 0.51314 0.0
C927 C 1.00415 0.24124 0.64059 0.0
C928 C 0.99067 0.15175 0.55462 0.0
C929 C 0.02006 0.13176 0.56037 0.0
C930 C 0.9924 0.19174 0.5606 0.0
C931 C 0.02441 0.21211 0.57214 0.0
C932 C 0.05396 0.19192 0.57825 0.0
C933 C 0.05134 0.15203 0.57248 0.0
C934 C 0.96023 0.21225 0.55427 0.0
C935 C 0.08873 0.21259 0.59035 0.0
H936 H 0.07086 0.33983 0.53577 0.0
H937 H 0.03263 0.31673 0.64341 0.0
H938 H 0.07414 0.25065 0.51291 0.0
H939 H 0.0275 0.24911 0.50502 0.0
H940 H 0.0587 0.29318 0.4937 0.0
H941 H 0.99483 0.25753 0.66286 0.0
H942 H 0.98077 0.22149 0.63231 0.0
H943 H 0.02395 0.22273 0.64971 0.0
H944 H 0.96633 0.13619 0.54542 0.0
H945 H 0.07419 0.13685 0.57695 0.0
H946 H 0.96753 0.2351 0.53284 0.0
H947 H 0.95219 0.22717 0.57784 0.0
H948 H 0.93664 0.19176 0.54731 0.0
H949 H 0.10062 0.23649 0.57102 0.0
H950 H 0.10908 0.19255 0.59405 0.0
H951 H 0.08323 0.22607 0.61536 0.0
C952 C 0.58369 0.2515 0.46822 0.0
C953 C 0.59386 0.24199 0.43429 0.0
C954 C 0.57938 0.28988 0.47574 0.0
C955 C 0.58447 0.31945 0.44852 0.0
C956 C 0.59466 0.31022 0.41419 0.0
C957 C 0.59957 0.27165 0.40753 0.0
C958 C 0.56876 0.29862 0.51278 0.0
C959 C 0.59973 0.3409 0.38444 0.0
C960 C 0.5329 0.40328 0.46836 0.0
C961 C 0.55994 0.43096 0.47957 0.0
C962 C 0.54101 0.36779 0.45615 0.0
C963 C 0.57691 0.35939 0.456 0.0
C964 C 0.60463 0.38787 0.46604 0.0
C965 C 0.59584 0.42367 0.47738 0.0
C966 C 0.51083 0.3386 0.44487 0.0
C967 C 0.64311 0.37969 0.46675 0.0
H968 H 0.57857 0.22876 0.48898 0.0
H969 H 0.60805 0.26482 0.38135 0.0
H970 H 0.5878 0.32328 0.52119 0.0
H971 H 0.54144 0.30764 0.51439 0.0
H972 H 0.56848 0.27298 0.53131 0.0
H973 H 0.60855 0.3292 0.3594 0.0
H974 H 0.57396 0.35263 0.38132 0.0
H975 H 0.62007 0.36577 0.39016 0.0
H976 H 0.50516 0.40916 0.46966 0.0
H977 H 0.61671 0.44507 0.48619 0.0
H978 H 0.50549 0.31309 0.46396 0.0
H979 H 0.51871 0.32763 0.41926 0.0
H980 H 0.48536 0.35134 0.44287 0.0
H981 H 0.64456 0.35668 0.48743 0.0
H982 H 0.66199 0.40611 0.47194 0.0
H983 H 0.65233 0.36849 0.44167 0.0
loop_
_geom_bond_atom_site_label_1
_geom_bond_atom_site_label_2
_geom_bond_distance
_geom_bond_site_symmetry_2
_ccdc_geom_bond_type
H0 C5 0.930 . S
H1 C8 0.930 . S
H2 C10 0.930 . S
H3 C4 1.016 . S
C4 H3 1.016 . S
C4 N11 1.286 . S
C5 H0 0.930 . S
C5 C6 1.397 . S
C5 C7 1.361 . S
C6 C5 1.397 . S
C6 C10 1.390 . S
C7 C5 1.361 . S
C7 C8 1.393 . S
C7 N11 1.413 . S
C8 H1 0.930 . S
C8 C7 1.393 . S
C8 C9 1.399 . S
C9 C8 1.399 . S
C9 C10 1.381 . S
C10 H2 0.930 . S
C10 C6 1.390 . S
C10 C9 1.381 . S
N11 C4 1.286 . S
N11 C7 1.413 . S
H12 C17 0.930 . S
H13 C20 0.930 . S
H14 C22 0.930 . S
H15 C16 1.016 . S
C16 H15 1.016 . S
C16 N23 1.286 . S
C17 H12 0.930 . S
C17 C18 1.397 . S
C17 C19 1.361 . S
C18 C17 1.397 . S
C18 C22 1.390 . S
C19 C17 1.361 . S
C19 C20 1.393 . S
C19 N23 1.413 . S
C20 H13 0.930 . S
C20 C19 1.393 . S
C20 C21 1.399 . S
C21 C20 1.399 . S
C21 C22 1.381 . S
C22 H14 0.930 . S
C22 C18 1.390 . S
C22 C21 1.381 . S
N23 C16 1.286 . S
N23 C19 1.413 . S
H24 C29 0.930 . S
H25 C32 0.930 . S
H26 C34 0.930 . S
H27 C28 1.016 . S
C28 H27 1.016 . S
C28 N35 1.286 . S
C29 H24 0.930 . S
C29 C30 1.397 . S
C29 C31 1.361 . S
C30 C29 1.397 . S
C30 C34 1.390 . S
C31 C29 1.361 . S
C31 C32 1.393 . S
C31 N35 1.413 . S
C32 H25 0.930 . S
C32 C31 1.393 . S
C32 C33 1.399 . S
C33 C32 1.399 . S
C33 C34 1.381 . S
C34 H26 0.930 . S
C34 C30 1.390 . S
C34 C33 1.381 . S
N35 C28 1.286 . S
N35 C31 1.413 . S
H36 C41 0.930 . S
H37 C44 0.930 . S
H38 C46 0.930 . S
H39 C40 1.016 . S
C40 H39 1.016 . S
C40 N47 1.286 . S
C41 H36 0.930 . S
C41 C42 1.397 . S
C41 C43 1.361 . S
C42 C41 1.397 . S
C42 C46 1.390 . S
C43 C41 1.361 . S
C43 C44 1.393 . S
C43 N47 1.413 . S
C44 H37 0.930 . S
C44 C43 1.393 . S
C44 C45 1.399 . S
C45 C44 1.399 . S
C45 C46 1.381 . S
C46 H38 0.930 . S
C46 C42 1.390 . S
C46 C45 1.381 . S
N47 C40 1.286 . S
N47 C43 1.413 . S
H48 C53 0.930 . S
H49 C56 0.930 . S
H50 C58 0.930 . S
H51 C52 1.016 . S
C52 H51 1.016 . S
C52 N59 1.286 . S
C53 H48 0.930 . S
C53 C54 1.397 . S
C53 C55 1.361 . S
C54 C53 1.397 . S
C54 C58 1.390 . S
C55 C53 1.361 . S
C55 C56 1.393 . S
C55 N59 1.413 . S
C56 H49 0.930 . S
C56 C55 1.393 . S
C56 C57 1.399 . S
C57 C56 1.399 . S
C57 C58 1.381 . S
C58 H50 0.930 . S
C58 C54 1.390 . S
C58 C57 1.381 . S
N59 C52 1.286 . S
N59 C55 1.413 . S
H60 C65 0.930 . S
H61 C68 0.930 . S
H62 C70 0.930 . S
H63 C64 1.016 . S
C64 H63 1.016 . S
C64 N71 1.286 . S
C65 H60 0.930 . S
C65 C66 1.397 . S
C65 C67 1.361 . S
C66 C65 1.397 . S
C66 C70 1.390 . S
C67 C65 1.361 . S
C67 C68 1.393 . S
C67 N71 1.413 . S
C68 H61 0.930 . S
C68 C67 1.393 . S
C68 C69 1.399 . S
C69 C68 1.399 . S
C69 C70 1.381 . S
C70 H62 0.930 . S
C70 C66 1.390 . S
C70 C69 1.381 . S
N71 C64 1.286 . S
N71 C67 1.413 . S
H72 C77 0.930 . S
H73 C80 0.930 . S
H74 C82 0.930 . S
H75 C76 1.016 . S
C76 H75 1.016 . S
C76 N83 1.286 . S
C77 H72 0.930 . S
C77 C78 1.397 . S
C77 C79 1.361 . S
C78 C77 1.397 . S
C78 C82 1.390 . S
C79 C77 1.361 . S
C79 C80 1.393 . S
C79 N83 1.413 . S
C80 H73 0.930 . S
C80 C79 1.393 . S
C80 C81 1.399 . S
C81 C80 1.399 . S
C81 C82 1.381 . S
C82 H74 0.930 . S
C82 C78 1.390 . S
C82 C81 1.381 . S
N83 C76 1.286 . S
N83 C79 1.413 . S
H84 C89 0.930 . S
H85 C92 0.930 . S
H86 C94 0.930 . S
H87 C88 1.016 . S
C88 H87 1.016 . S
C88 N95 1.286 . S
C89 H84 0.930 . S
C89 C90 1.397 . S
C89 C91 1.361 . S
C90 C89 1.397 . S
C90 C94 1.390 . S
C91 C89 1.361 . S
C91 C92 1.393 . S
C91 N95 1.413 . S
C92 H85 0.930 . S
C92 C91 1.393 . S
C92 C93 1.399 . S
C93 C92 1.399 . S
C93 C94 1.381 . S
C94 H86 0.930 . S
C94 C90 1.390 . S
C94 C93 1.381 . S
N95 C88 1.286 . S
N95 C91 1.413 . S
Co96 N101 2.057 . S
Co96 O113 2.021 . S
Co96 O116 2.062 . S
Co96 O120 2.117 1_545 S
Co96 O121 2.016 1_545 S
C97 O117 1.259 1_655 S
C97 O120 1.258 . S
Co98 N107 2.057 . S
Co98 O114 2.117 1_565 S
Co98 O115 2.020 1_565 S
Co98 O117 2.021 . S
Co98 O122 2.062 . S
C99 N101 1.316 . S
C99 N102 1.347 . S
C99 H104 0.931 . S
C100 N101 1.375 1_565 S
C100 C103 1.350 1_565 S
C100 H105 0.930 . S
N101 Co96 2.057 . S
N101 C99 1.316 . S
N101 C100 1.375 1_545 S
N102 C99 1.347 . S
N102 C103 1.373 . S
C103 C100 1.350 1_545 S
C103 N102 1.373 . S
C103 H124 0.931 1_545 S
H104 C99 0.931 . S
H105 C100 0.930 . S
C106 O113 1.259 1_455 S
C106 O114 1.258 . S
N107 Co98 2.057 . S
N107 C108 1.316 . S
N107 C109 1.375 1_565 S
C108 N107 1.316 . S
C108 N110 1.347 . S
C108 H119 0.931 . S
C109 N107 1.375 1_545 S
C109 C111 1.350 . S
C109 H118 0.930 . S
N110 C108 1.347 . S
N110 C111 1.373 1_565 S
C111 C109 1.350 . S
C111 N110 1.373 1_545 S
C111 H125 0.931 . S
C112 O115 1.256 . S
C112 O116 1.255 1_455 S
O113 Co96 2.021 . S
O113 C106 1.259 1_655 S
O114 Co98 2.117 1_545 S
O114 C106 1.258 . S
O115 Co98 2.020 1_545 S
O115 C112 1.256 . S
O116 Co96 2.062 . S
O116 C112 1.255 1_655 S
O117 C97 1.259 1_455 S
O117 Co98 2.021 . S
H118 C109 0.930 . S
H119 C108 0.931 . S
O120 Co96 2.117 1_565 S
O120 C97 1.258 . S
O121 Co96 2.016 1_565 S
O121 C123 1.262 . S
O122 Co98 2.062 . S
O122 C123 1.255 1_455 S
C123 O121 1.262 . S
C123 O122 1.255 1_655 S
H124 C103 0.931 1_565 S
H125 C111 0.931 . S
Co126 N131 2.057 1_545 S
Co126 O143 2.021 . S
Co126 O146 2.058 1_545 S
Co126 O150 2.117 1_546 S
Co126 O151 2.020 1_556 S
C127 O147 1.259 . S
C127 O150 1.258 . S
Co128 N137 2.057 . S
Co128 O144 2.117 . S
Co128 O145 2.020 . S
Co128 O147 2.021 1_545 S
Co128 O152 2.062 . S
C129 N131 1.316 . S
C129 N132 1.347 . S
C129 H134 0.931 1_565 S
C130 N131 1.375 . S
C130 C133 1.350 . S
C130 H135 0.930 . S
N131 Co126 2.057 1_565 S
N131 C129 1.316 . S
N131 C130 1.375 . S
N132 C129 1.347 . S
N132 C133 1.373 . S
C133 C130 1.350 . S
C133 N132 1.373 . S
C133 H154 0.931 . S
H134 C129 0.931 1_545 S
H135 C130 0.930 . S
C136 O143 1.259 . S
C136 O144 1.258 1_556 S
N137 Co128 2.057 . S
N137 C138 1.316 . S
N137 C139 1.375 . S
C138 N137 1.316 . S
C138 N140 1.347 . S
C138 H149 0.931 . S
C139 N137 1.375 . S
C139 C141 1.350 . S
C139 H148 0.930 . S
N140 C138 1.347 . S
N140 C141 1.373 . S
C141 C139 1.350 . S
C141 N140 1.373 . S
C141 H155 0.931 . S
C142 O145 1.260 1_556 S
C142 O146 1.258 1_545 S
O143 Co126 2.021 . S
O143 C136 1.259 . S
O144 Co128 2.117 . S
O144 C136 1.258 1_554 S
O145 Co128 2.020 . S
O145 C142 1.260 1_554 S
O146 Co126 2.058 1_565 S
O146 C142 1.258 1_565 S
O147 C127 1.259 . S
O147 Co128 2.021 1_565 S
H148 C139 0.930 . S
H149 C138 0.931 . S
O150 Co126 2.117 1_564 S
O150 C127 1.258 . S
O151 Co126 2.020 1_554 S
O151 C153 1.256 . S
O152 Co128 2.062 . S
O152 C153 1.255 . S
C153 O151 1.256 . S
C153 O152 1.255 . S
H154 C133 0.931 . S
H155 C141 0.931 . S
Co156 N161 2.057 . S
Co156 O173 2.021 . S
Co156 O176 2.062 . S
Co156 O180 2.117 . S
Co156 O181 2.020 . S
C157 O177 1.259 . S
C157 O180 1.258 . S
Co158 N167 2.057 . S
Co158 O174 2.117 . S
Co158 O175 2.020 . S
Co158 O177 2.021 . S
Co158 O182 2.062 . S
C159 N161 1.316 . S
C159 N162 1.347 . S
C159 H164 0.931 . S
C160 N161 1.375 . S
C160 C163 1.350 . S
C160 H165 0.930 . S
N161 Co156 2.057 . S
N161 C159 1.316 . S
N161 C160 1.375 . S
N162 C159 1.347 . S
N162 C163 1.373 . S
C163 C160 1.350 . S
C163 N162 1.373 . S
C163 H184 0.931 . S
H164 C159 0.931 . S
H165 C160 0.930 . S
C166 O173 1.259 . S
C166 O174 1.258 . S
N167 Co158 2.057 . S
N167 C168 1.316 . S
N167 C169 1.375 . S
C168 N167 1.316 . S
C168 N170 1.347 . S
C168 H179 0.931 . S
C169 N167 1.375 . S
C169 C171 1.350 . S
C169 H178 0.930 . S
N170 C168 1.347 . S
N170 C171 1.373 . S
C171 C169 1.350 . S
C171 N170 1.373 . S
C171 H185 0.931 . S
C172 O175 1.256 . S
C172 O176 1.255 . S
O173 Co156 2.021 . S
O173 C166 1.259 . S
O174 Co158 2.117 . S
O174 C166 1.258 . S
O175 Co158 2.020 . S
O175 C172 1.256 . S
O176 Co156 2.062 . S
O176 C172 1.255 . S
O177 C157 1.259 . S
O177 Co158 2.021 . S
H178 C169 0.930 . S
H179 C168 0.931 . S
O180 Co156 2.117 . S
O180 C157 1.258 . S
O181 Co156 2.020 . S
O181 C183 1.256 . S
O182 Co158 2.062 . S
O182 C183 1.255 . S
C183 O181 1.256 . S
C183 O182 1.255 . S
H184 C163 0.931 . S
H185 C171 0.931 . S
Co186 N191 2.057 . S
Co186 O203 2.021 . S
Co186 O206 2.049 1_556 S
Co186 O210 2.117 1_455 S
Co186 O211 2.020 . S
C187 O207 1.259 . S
C187 O210 1.258 1_554 S
Co188 N197 2.057 . S
Co188 O204 2.117 1_655 S
Co188 O205 2.020 1_655 S
Co188 O207 2.021 . S
Co188 O212 2.062 . S
C189 N191 1.316 . S
C189 N192 1.347 . S
C189 H194 0.931 . S
C190 N191 1.375 . S
C190 C193 1.350 . S
C190 H195 0.930 1_455 S
N191 Co186 2.057 . S
N191 C189 1.316 . S
N191 C190 1.375 . S
N192 C189 1.347 . S
N192 C193 1.373 . S
C193 C190 1.350 . S
C193 N192 1.373 . S
C193 H214 0.931 . S
H194 C189 0.931 . S
H195 C190 0.930 1_655 S
C196 O203 1.259 1_554 S
C196 O204 1.258 . S
N197 Co188 2.057 . S
N197 C198 1.316 . S
N197 C199 1.375 1_655 S
C198 N197 1.316 . S
C198 N200 1.347 . S
C198 H209 0.931 . S
C199 N197 1.375 1_455 S
C199 C201 1.350 . S
C199 H208 0.930 . S
N200 C198 1.347 . S
N200 C201 1.373 1_655 S
C201 C199 1.350 . S
C201 N200 1.373 1_455 S
C201 H215 0.931 . S
C202 O205 1.256 . S
C202 O206 1.284 . S
O203 Co186 2.021 . S
O203 C196 1.259 1_556 S
O204 Co188 2.117 1_455 S
O204 C196 1.258 . S
O205 Co188 2.020 1_455 S
O205 C202 1.256 . S
O206 Co186 2.049 1_554 S
O206 C202 1.284 . S
O207 C187 1.259 . S
O207 Co188 2.021 . S
H208 C199 0.930 . S
H209 C198 0.931 . S
O210 Co186 2.117 1_655 S
O210 C187 1.258 1_556 S
O211 Co186 2.020 . S
O211 C213 1.256 1_455 S
O212 Co188 2.062 . S
O212 C213 1.255 1_554 S
C213 O211 1.256 1_655 S
C213 O212 1.255 1_556 S
H214 C193 0.931 . S
H215 C201 0.931 . S
C216 C217 1.391 . S
C216 C218 1.394 . S
C216 H232 0.931 . S
C217 C216 1.391 . S
C217 C221 1.376 . S
C218 C216 1.394 . S
C218 C219 1.369 . S
C218 C222 1.531 . S
C219 C218 1.369 . S
C219 C220 1.410 . S
C219 C227 1.503 . S
C220 C219 1.410 . S
C220 C221 1.392 . S
C220 C223 1.511 . S
C221 C217 1.376 . S
C221 C220 1.392 . S
C221 H233 0.929 . S
C222 C218 1.531 . S
C222 H234 0.960 . S
C222 H235 0.962 . S
C222 H236 0.960 . S
C223 C220 1.511 . S
C223 H237 0.961 1_545 S
C223 H238 0.961 . S
C223 H239 0.961 . S
C224 C225 1.370 . S
C224 C226 1.363 . S
C224 H240 0.931 . S
C225 C224 1.370 . S
C225 C229 1.408 . S
C226 C224 1.363 . S
C226 C227 1.370 . S
C226 C230 1.524 . S
C227 C219 1.503 . S
C227 C226 1.370 . S
C227 C228 1.403 . S
C228 C227 1.403 . S
C228 C229 1.404 . S
C228 C231 1.539 . S
C229 C225 1.408 . S
C229 C228 1.404 . S
C229 H241 0.951 . S
C230 C226 1.524 . S
C230 H242 0.956 . S
C230 H243 0.961 . S
C230 H244 0.961 . S
C231 C228 1.539 . S
C231 H245 0.958 . S
C231 H246 0.961 1_455 S
C231 H247 0.960 . S
H232 C216 0.931 . S
H233 C221 0.929 . S
H234 C222 0.960 . S
H235 C222 0.962 . S
H236 C222 0.960 . S
H237 C223 0.961 1_565 S
H238 C223 0.961 . S
H239 C223 0.961 . S
H240 C224 0.931 . S
H241 C229 0.951 . S
H242 C230 0.956 . S
H243 C230 0.961 . S
H244 C230 0.961 . S
H245 C231 0.958 . S
H246 C231 0.961 1_655 S
H247 C231 0.960 . S
C248 C249 1.391 . S
C248 C250 1.394 . S
C248 H264 0.931 . S
C249 C248 1.391 . S
C249 C253 1.376 . S
C250 C248 1.394 . S
C250 C251 1.369 . S
C250 C254 1.531 . S
C251 C250 1.369 . S
C251 C252 1.410 . S
C251 C259 1.503 . S
C252 C251 1.410 . S
C252 C253 1.392 . S
C252 C255 1.511 . S
C253 C249 1.376 . S
C253 C252 1.392 . S
C253 H265 0.929 . S
C254 C250 1.531 . S
C254 H266 0.960 . S
C254 H267 0.962 . S
C254 H268 0.960 . S
C255 C252 1.511 . S
C255 H269 0.961 . S
C255 H270 0.961 . S
C255 H271 0.961 . S
C256 C257 1.370 . S
C256 C258 1.363 . S
C256 H272 0.931 . S
C257 C256 1.370 . S
C257 C261 1.408 . S
C258 C256 1.363 . S
C258 C259 1.370 . S
C258 C262 1.524 . S
C259 C251 1.503 . S
C259 C258 1.370 . S
C259 C260 1.403 . S
C260 C259 1.403 . S
C260 C261 1.404 . S
C260 C263 1.539 1_565 S
C261 C257 1.408 . S
C261 C260 1.404 . S
C261 H273 0.930 1_565 S
C262 C258 1.524 . S
C262 H274 0.956 . S
C262 H275 0.961 . S
C262 H276 0.961 . S
C263 C260 1.539 1_545 S
C263 H277 0.958 . S
C263 H278 0.961 . S
C263 H279 0.960 1_545 S
H264 C248 0.931 . S
H265 C253 0.929 . S
H266 C254 0.960 . S
H267 C254 0.962 . S
H268 C254 0.960 . S
H269 C255 0.961 . S
H270 C255 0.961 . S
H271 C255 0.961 . S
H272 C256 0.931 . S
H273 C261 0.930 1_545 S
H274 C262 0.956 . S
H275 C262 0.961 . S
H276 C262 0.961 . S
H277 C263 0.958 . S
H278 C263 0.961 . S
H279 C263 0.960 1_565 S
C280 C281 1.391 . S
C280 C282 1.394 . S
C280 H296 0.931 . S
C281 C280 1.391 . S
C281 C285 1.376 . S
C282 C280 1.394 . S
C282 C283 1.369 . S
C282 C286 1.531 . S
C283 C282 1.369 . S
C283 C284 1.410 . S
C283 C291 1.503 . S
C284 C283 1.410 . S
C284 C285 1.392 . S
C284 C287 1.511 . S
C285 C281 1.376 . S
C285 C284 1.392 . S
C285 H297 0.929 . S
C286 C282 1.531 . S
C286 H298 0.960 . S
C286 H299 0.962 . S
C286 H300 0.960 . S
C287 C284 1.511 . S
C287 H301 0.961 . S
C287 H302 0.961 . S
C287 H303 0.961 . S
C288 C289 1.370 . S
C288 C290 1.363 . S
C288 H304 0.931 . S
C289 C288 1.370 . S
C289 C293 1.408 . S
C290 C288 1.363 . S
C290 C291 1.370 . S
C290 C294 1.524 . S
C291 C283 1.503 . S
C291 C290 1.370 . S
C291 C292 1.403 . S
C292 C291 1.403 . S
C292 C293 1.404 . S
C292 C295 1.539 . S
C293 C289 1.408 . S
C293 C292 1.404 . S
C293 H305 0.930 . S
C294 C290 1.524 . S
C294 H306 0.956 . S
C294 H307 0.961 . S
C294 H308 0.961 . S
C295 C292 1.539 . S
C295 H309 0.958 . S
C295 H310 0.961 . S
C295 H311 0.960 . S
H296 C280 0.931 . S
H297 C285 0.929 . S
H298 C286 0.960 . S
H299 C286 0.962 . S
H300 C286 0.960 . S
H301 C287 0.961 . S
H302 C287 0.961 . S
H303 C287 0.961 . S
H304 C288 0.931 . S
H305 C293 0.930 . S
H306 C294 0.956 . S
H307 C294 0.961 . S
H308 C294 0.961 . S
H309 C295 0.958 . S
H310 C295 0.961 . S
H311 C295 0.960 . S
C312 C313 1.391 . S
C312 C314 1.394 . S
C312 H328 0.931 . S
C313 C312 1.391 . S
C313 C317 1.376 . S
C314 C312 1.394 . S
C314 C315 1.369 . S
C314 C318 1.531 . S
C315 C314 1.369 . S
C315 C316 1.410 . S
C315 C323 1.503 . S
C316 C315 1.410 . S
C316 C317 1.392 . S
C316 C319 1.511 . S
C317 C313 1.376 . S
C317 C316 1.392 . S
C317 H329 0.929 . S
C318 C314 1.531 . S
C318 H330 0.960 . S
C318 H331 0.962 . S
C318 H332 0.960 . S
C319 C316 1.511 . S
C319 H333 0.961 . S
C319 H334 0.961 . S
C319 H335 0.961 1_655 S
C320 C321 1.370 . S
C320 C322 1.363 . S
C320 H336 0.931 . S
C321 C320 1.370 . S
C321 C325 1.408 . S
C322 C320 1.363 . S
C322 C323 1.370 . S
C322 C326 1.524 . S
C323 C315 1.503 . S
C323 C322 1.370 . S
C323 C324 1.403 . S
C324 C323 1.403 . S
C324 C325 1.404 . S
C324 C327 1.539 1_655 S
C325 C321 1.408 . S
C325 C324 1.404 . S
C325 H337 0.930 1_655 S
C326 C322 1.524 . S
C326 H338 0.956 . S
C326 H339 0.961 . S
C326 H340 0.961 . S
C327 C324 1.539 1_455 S
C327 H341 0.958 . S
C327 H342 0.961 . S
C327 H343 0.960 . S
H328 C312 0.931 . S
H329 C317 0.929 . S
H330 C318 0.960 . S
H331 C318 0.962 . S
H332 C318 0.960 . S
H333 C319 0.961 . S
H334 C319 0.961 . S
H335 C319 0.961 1_455 S
H336 C320 0.931 . S
H337 C325 0.930 1_455 S
H338 C326 0.956 . S
H339 C326 0.961 . S
H340 C326 0.961 . S
H341 C327 0.958 . S
H342 C327 0.961 . S
H343 C327 0.960 . S
C344 C345 1.391 . S
C344 C346 1.394 . S
C344 H360 0.931 . S
C345 C344 1.391 . S
C345 C349 1.376 . S
C346 C344 1.394 . S
C346 C347 1.369 . S
C346 C350 1.531 . S
C347 C346 1.369 . S
C347 C348 1.410 . S
C347 C355 1.503 . S
C348 C347 1.410 . S
C348 C349 1.392 . S
C348 C351 1.511 . S
C349 C345 1.376 . S
C349 C348 1.392 . S
C349 H361 0.929 . S
C350 C346 1.531 . S
C350 H362 0.960 . S
C350 H363 0.970 . S
C350 H364 0.960 . S
C351 C348 1.511 . S
C351 H365 0.961 . S
C351 H366 0.961 . S
C351 H367 0.961 . S
C352 C353 1.370 . S
C352 C354 1.363 . S
C352 H368 0.931 . S
C353 C352 1.370 . S
C353 C357 1.408 . S
C354 C352 1.363 . S
C354 C355 1.370 . S
C354 C358 1.524 . S
C355 C347 1.503 . S
C355 C354 1.370 . S
C355 C356 1.403 . S
C356 C355 1.403 . S
C356 C357 1.404 . S
C356 C359 1.539 . S
C357 C353 1.408 . S
C357 C356 1.404 . S
C357 H369 0.930 . S
C358 C354 1.524 . S
C358 H370 0.956 . S
C358 H371 0.961 . S
C358 H372 0.961 . S
C359 C356 1.539 . S
C359 H373 0.958 . S
C359 H374 0.961 . S
C359 H375 0.960 . S
H360 C344 0.931 . S
H361 C349 0.929 . S
H362 C350 0.960 . S
H363 C350 0.970 . S
H364 C350 0.960 . S
H365 C351 0.961 . S
H366 C351 0.961 . S
H367 C351 0.961 . S
H368 C352 0.931 . S
H369 C357 0.930 . S
H370 C358 0.956 . S
H371 C358 0.961 . S
H372 C358 0.961 . S
H373 C359 0.958 . S
H374 C359 0.961 . S
H375 C359 0.960 . S
C376 C377 1.391 . S
C376 C378 1.394 . S
C376 H392 0.931 . S
C377 C376 1.391 . S
C377 C381 1.376 . S
C378 C376 1.394 . S
C378 C379 1.369 . S
C378 C382 1.533 1_565 S
C379 C378 1.369 . S
C379 C380 1.410 . S
C379 C387 1.503 . S
C380 C379 1.410 . S
C380 C381 1.392 . S
C380 C383 1.511 . S
C381 C377 1.376 . S
C381 C380 1.392 . S
C381 H393 0.929 . S
C382 C378 1.533 1_545 S
C382 H394 0.959 . S
C382 H395 0.961 . S
C382 H396 0.959 . S
C383 C380 1.511 . S
C383 H397 0.961 . S
C383 H398 0.961 . S
C383 H399 0.961 . S
C384 C385 1.370 . S
C384 C386 1.363 . S
C384 H400 0.931 . S
C385 C384 1.370 . S
C385 C389 1.408 . S
C386 C384 1.363 . S
C386 C387 1.370 . S
C386 C390 1.524 . S
C387 C379 1.503 . S
C387 C386 1.370 . S
C387 C388 1.403 . S
C388 C387 1.403 . S
C388 C389 1.404 . S
C388 C391 1.539 . S
C389 C385 1.408 . S
C389 C388 1.404 . S
C389 H401 0.930 . S
C390 C386 1.524 . S
C390 H402 0.956 . S
C390 H403 0.961 . S
C390 H404 0.961 . S
C391 C388 1.539 . S
C391 H405 0.958 . S
C391 H406 0.961 . S
C391 H407 0.960 . S
H392 C376 0.931 . S
H393 C381 0.929 . S
H394 C382 0.959 . S
H395 C382 0.961 . S
H396 C382 0.959 . S
H397 C383 0.961 . S
H398 C383 0.961 . S
H399 C383 0.961 . S
H400 C384 0.931 . S
H401 C389 0.930 . S
H402 C390 0.956 . S
H403 C390 0.961 . S
H404 C390 0.961 . S
H405 C391 0.958 . S
H406 C391 0.961 . S
H407 C391 0.960 . S
C408 C409 1.391 . S
C408 C410 1.394 . S
C408 H424 0.931 . S
C409 C408 1.391 . S
C409 C413 1.376 . S
C410 C408 1.394 . S
C410 C411 1.369 . S
C410 C414 1.531 . S
C411 C410 1.369 . S
C411 C412 1.410 . S
C411 C419 1.503 . S
C412 C411 1.410 . S
C412 C413 1.392 . S
C412 C415 1.511 1_556 S
C413 C409 1.376 . S
C413 C412 1.392 . S
C413 H425 0.929 . S
C414 C410 1.531 . S
C414 H426 0.960 . S
C414 H427 0.962 . S
C414 H428 0.960 . S
C415 C412 1.511 1_554 S
C415 H429 0.961 . S
C415 H430 0.961 . S
C415 H431 0.961 . S
C416 C417 1.370 . S
C416 C418 1.363 . S
C416 H432 0.931 . S
C417 C416 1.370 . S
C417 C421 1.408 1_556 S
C418 C416 1.363 . S
C418 C419 1.370 . S
C418 C422 1.524 . S
C419 C411 1.503 . S
C419 C418 1.370 . S
C419 C420 1.403 . S
C420 C419 1.403 . S
C420 C421 1.404 1_556 S
C420 C423 1.539 1_556 S
C421 C417 1.408 1_554 S
C421 C420 1.404 1_554 S
C421 H433 0.930 . S
C422 C418 1.524 . S
C422 H434 0.956 . S
C422 H435 0.961 . S
C422 H436 0.961 . S
C423 C420 1.539 1_554 S
C423 H437 0.958 1_554 S
C423 H438 0.961 . S
C423 H439 0.960 . S
H424 C408 0.931 . S
H425 C413 0.929 . S
H426 C414 0.960 . S
H427 C414 0.962 . S
H428 C414 0.960 . S
H429 C415 0.961 . S
H430 C415 0.961 . S
H431 C415 0.961 . S
H432 C416 0.931 . S
H433 C421 0.930 . S
H434 C422 0.956 . S
H435 C422 0.961 . S
H436 C422 0.961 . S
H437 C423 0.958 1_556 S
H438 C423 0.961 . S
H439 C423 0.960 . S
C440 C441 1.391 . S
C440 C442 1.394 . S
C440 H456 0.931 . S
C441 C440 1.391 . S
C441 C445 1.376 . S
C442 C440 1.394 . S
C442 C443 1.369 . S
C442 C446 1.531 . S
C443 C442 1.369 . S
C443 C444 1.410 . S
C443 C451 1.503 . S
C444 C443 1.410 . S
C444 C445 1.392 . S
C444 C447 1.511 . S
C445 C441 1.376 . S
C445 C444 1.392 . S
C445 H457 0.929 . S
C446 C442 1.531 . S
C446 H458 0.960 . S
C446 H459 0.962 . S
C446 H460 0.960 . S
C447 C444 1.511 . S
C447 H461 0.961 . S
C447 H462 0.961 . S
C447 H463 0.961 . S
C448 C449 1.370 . S
C448 C450 1.363 . S
C448 H464 0.931 . S
C449 C448 1.370 . S
C449 C453 1.408 . S
C450 C448 1.363 . S
C450 C451 1.370 . S
C450 C454 1.524 . S
C451 C443 1.503 . S
C451 C450 1.370 . S
C451 C452 1.403 . S
C452 C451 1.403 . S
C452 C453 1.404 . S
C452 C455 1.539 . S
C453 C449 1.408 . S
C453 C452 1.404 . S
C453 H465 0.930 . S
C454 C450 1.524 . S
C454 H466 0.956 . S
C454 H467 0.961 . S
C454 H468 0.961 . S
C455 C452 1.539 . S
C455 H469 0.958 . S
C455 H470 0.961 . S
C455 H471 0.960 . S
H456 C440 0.931 . S
H457 C445 0.929 . S
H458 C446 0.960 . S
H459 C446 0.962 . S
H460 C446 0.960 . S
H461 C447 0.961 . S
H462 C447 0.961 . S
H463 C447 0.961 . S
H464 C448 0.931 . S
H465 C453 0.930 . S
H466 C454 0.956 . S
H467 C454 0.961 . S
H468 C454 0.961 . S
H469 C455 0.958 . S
H470 C455 0.961 . S
H471 C455 0.960 . S
C472 C473 1.391 . S
C472 C474 1.394 . S
C472 H488 0.931 . S
C473 C472 1.391 . S
C473 C477 1.376 . S
C474 C472 1.394 . S
C474 C475 1.369 . S
C474 C478 1.531 . S
C475 C474 1.369 . S
C475 C476 1.410 . S
C475 C483 1.503 . S
C476 C475 1.410 . S
C476 C477 1.392 . S
C476 C479 1.511 . S
C477 C473 1.376 . S
C477 C476 1.392 . S
C477 H489 0.929 . S
C478 C474 1.531 . S
C478 H490 0.960 . S
C478 H491 0.962 . S
C478 H492 0.960 . S
C479 C476 1.511 . S
C479 H493 0.961 1_455 S
C479 H494 0.961 1_455 S
C479 H495 0.961 1_455 S
C480 C481 1.370 . S
C480 C482 1.363 . S
C480 H496 0.931 . S
C481 C480 1.370 . S
C481 C485 1.408 . S
C482 C480 1.363 . S
C482 C483 1.370 . S
C482 C486 1.524 . S
C483 C475 1.503 . S
C483 C482 1.370 . S
C483 C484 1.403 . S
C484 C483 1.403 . S
C484 C485 1.404 . S
C484 C487 1.539 1_554 S
C485 C481 1.408 . S
C485 C484 1.404 . S
C485 H497 0.930 1_554 S
C486 C482 1.524 . S
C486 H498 0.956 . S
C486 H499 0.961 . S
C486 H500 0.961 . S
C487 C484 1.539 1_556 S
C487 H501 0.958 . S
C487 H502 0.961 . S
C487 H503 0.960 1_556 S
H488 C472 0.931 . S
H489 C477 0.929 . S
H490 C478 0.960 . S
H491 C478 0.962 . S
H492 C478 0.960 . S
H493 C479 0.961 1_655 S
H494 C479 0.961 1_655 S
H495 C479 0.961 1_655 S
H496 C480 0.931 . S
H497 C485 0.930 1_556 S
H498 C486 0.956 . S
H499 C486 0.961 . S
H500 C486 0.961 . S
H501 C487 0.958 . S
H502 C487 0.961 . S
H503 C487 0.960 1_554 S
C504 C505 1.391 . S
C504 C506 1.394 . S
C504 H520 0.931 . S
C505 C504 1.391 . S
C505 C509 1.376 . S
C506 C504 1.394 . S
C506 C507 1.369 . S
C506 C510 1.531 . S
C507 C506 1.369 . S
C507 C508 1.410 . S
C507 C515 1.503 . S
C508 C507 1.410 . S
C508 C509 1.392 . S
C508 C511 1.511 . S
C509 C505 1.376 . S
C509 C508 1.392 . S
C509 H521 0.929 . S
C510 C506 1.531 . S
C510 H522 0.960 . S
C510 H523 0.962 . S
C510 H524 0.960 . S
C511 C508 1.511 . S
C511 H525 0.961 . S
C511 H526 0.961 . S
C511 H527 0.961 . S
C512 C513 1.370 . S
C512 C514 1.363 . S
C512 H528 0.931 1_556 S
C513 C512 1.370 . S
C513 C517 1.408 . S
C514 C512 1.363 . S
C514 C515 1.370 . S
C514 C518 1.524 . S
C515 C507 1.503 . S
C515 C514 1.370 . S
C515 C516 1.403 . S
C516 C515 1.403 . S
C516 C517 1.404 . S
C516 C519 1.539 . S
C517 C513 1.408 . S
C517 C516 1.404 . S
C517 H529 0.930 . S
C518 C514 1.524 . S
C518 H530 0.956 . S
C518 H531 0.961 1_556 S
C518 H532 0.961 1_556 S
C519 C516 1.539 . S
C519 H533 0.958 . S
C519 H534 0.961 . S
C519 H535 0.960 . S
H520 C504 0.931 . S
H521 C509 0.929 . S
H522 C510 0.960 . S
H523 C510 0.962 . S
H524 C510 0.960 . S
H525 C511 0.961 . S
H526 C511 0.961 . S
H527 C511 0.961 . S
H528 C512 0.931 1_554 S
H529 C517 0.930 . S
H530 C518 0.956 . S
H531 C518 0.961 1_554 S
H532 C518 0.961 1_554 S
H533 C519 0.958 . S
H534 C519 0.961 . S
H535 C519 0.960 . S
C536 C537 1.391 . S
C536 C538 1.394 . S
C536 H552 0.931 . S
C537 C536 1.391 . S
C537 C541 1.376 . S
C538 C536 1.394 . S
C538 C539 1.369 . S
C538 C542 1.531 . S
C539 C538 1.369 . S
C539 C540 1.410 . S
C539 C547 1.503 . S
C540 C539 1.410 . S
C540 C541 1.392 . S
C540 C543 1.511 . S
C541 C537 1.376 . S
C541 C540 1.392 . S
C541 H553 0.929 . S
C542 C538 1.531 . S
C542 H554 0.960 . S
C542 H555 0.962 . S
C542 H556 0.960 . S
C543 C540 1.511 . S
C543 H557 0.961 . S
C543 H558 0.961 . S
C543 H559 0.961 . S
C544 C545 1.370 . S
C544 C546 1.363 . S
C544 H560 0.931 . S
C545 C544 1.370 . S
C545 C549 1.408 1_655 S
C546 C544 1.363 . S
C546 C547 1.370 . S
C546 C550 1.524 . S
C547 C539 1.503 . S
C547 C546 1.370 . S
C547 C548 1.403 . S
C548 C547 1.403 . S
C548 C549 1.404 1_655 S
C548 C551 1.539 1_655 S
C549 C545 1.408 1_455 S
C549 C548 1.404 1_455 S
C549 H561 0.930 . S
C550 C546 1.524 . S
C550 H562 0.956 . S
C550 H563 0.961 . S
C550 H564 0.961 . S
C551 C548 1.539 1_455 S
C551 H565 0.958 . S
C551 H566 0.961 . S
C551 H567 0.960 . S
H552 C536 0.931 . S
H553 C541 0.929 . S
H554 C542 0.960 . S
H555 C542 0.962 . S
H556 C542 0.960 . S
H557 C543 0.961 . S
H558 C543 0.961 . S
H559 C543 0.961 . S
H560 C544 0.931 . S
H561 C549 0.930 . S
H562 C550 0.956 . S
H563 C550 0.961 . S
H564 C550 0.961 . S
H565 C551 0.958 . S
H566 C551 0.961 . S
H567 C551 0.960 . S
C568 C569 1.391 . S
C568 C570 1.394 . S
C568 H584 0.931 . S
C569 C568 1.391 . S
C569 C573 1.376 . S
C570 C568 1.394 . S
C570 C571 1.369 . S
C570 C574 1.531 . S
C571 C570 1.369 . S
C571 C572 1.410 . S
C571 C579 1.503 . S
C572 C571 1.410 . S
C572 C573 1.392 . S
C572 C575 1.511 . S
C573 C569 1.376 . S
C573 C572 1.392 . S
C573 H585 0.929 . S
C574 C570 1.531 . S
C574 H586 0.960 . S
C574 H587 0.962 . S
C574 H588 0.960 . S
C575 C572 1.511 . S
C575 H589 0.961 . S
C575 H590 0.961 . S
C575 H591 0.961 . S
C576 C577 1.370 . S
C576 C578 1.363 . S
C576 H592 0.931 . S
C577 C576 1.370 . S
C577 C581 1.408 . S
C578 C576 1.363 . S
C578 C579 1.370 . S
C578 C582 1.524 . S
C579 C571 1.503 . S
C579 C578 1.370 . S
C579 C580 1.403 . S
C580 C579 1.403 . S
C580 C581 1.404 . S
C580 C583 1.539 . S
C581 C577 1.408 . S
C581 C580 1.404 . S
C581 H593 0.930 . S
C582 C578 1.524 . S
C582 H594 0.956 . S
C582 H595 0.961 . S
C582 H596 0.961 . S
C583 C580 1.539 . S
C583 H597 0.958 . S
C583 H598 0.961 . S
C583 H599 0.960 . S
H584 C568 0.931 . S
H585 C573 0.929 . S
H586 C574 0.960 . S
H587 C574 0.962 . S
H588 C574 0.960 . S
H589 C575 0.961 . S
H590 C575 0.961 . S
H591 C575 0.961 . S
H592 C576 0.931 . S
H593 C581 0.930 . S
H594 C582 0.956 . S
H595 C582 0.961 . S
H596 C582 0.961 . S
H597 C583 0.958 . S
H598 C583 0.961 . S
H599 C583 0.960 . S
C600 C601 1.391 . S
C600 C602 1.394 . S
C600 H616 0.931 . S
C601 C600 1.391 . S
C601 C605 1.376 . S
C602 C600 1.394 . S
C602 C603 1.369 . S
C602 C606 1.531 . S
C603 C602 1.369 . S
C603 C604 1.410 . S
C603 C611 1.503 . S
C604 C603 1.410 . S
C604 C605 1.392 . S
C604 C607 1.511 . S
C605 C601 1.376 . S
C605 C604 1.392 . S
C605 H617 0.929 . S
C606 C602 1.531 . S
C606 H618 0.960 . S
C606 H619 0.962 . S
C606 H620 0.960 . S
C607 C604 1.511 . S
C607 H621 0.961 1_655 S
C607 H622 0.961 . S
C607 H623 0.961 1_655 S
C608 C609 1.370 . S
C608 C610 1.363 . S
C608 H624 0.931 . S
C609 C608 1.370 . S
C609 C613 1.408 1_565 S
C610 C608 1.363 . S
C610 C611 1.370 . S
C610 C614 1.524 . S
C611 C603 1.503 . S
C611 C610 1.370 . S
C611 C612 1.403 1_565 S
C612 C611 1.403 1_545 S
C612 C613 1.404 . S
C612 C615 1.539 . S
C613 C609 1.408 1_545 S
C613 C612 1.404 . S
C613 H625 0.930 . S
C614 C610 1.524 . S
C614 H626 0.956 . S
C614 H627 0.961 . S
C614 H628 0.961 . S
C615 C612 1.539 . S
C615 H629 0.958 . S
C615 H630 0.961 . S
C615 H631 0.960 . S
H616 C600 0.931 . S
H617 C605 0.929 . S
H618 C606 0.960 . S
H619 C606 0.962 . S
H620 C606 0.960 . S
H621 C607 0.961 1_455 S
H622 C607 0.961 . S
H623 C607 0.961 1_455 S
H624 C608 0.931 . S
H625 C613 0.930 . S
H626 C614 0.956 . S
H627 C614 0.961 . S
H628 C614 0.961 . S
H629 C615 0.958 . S
H630 C615 0.961 . S
H631 C615 0.960 . S
C632 C633 1.391 . S
C632 C634 1.394 . S
C632 H648 0.931 . S
C633 C632 1.391 . S
C633 C637 1.376 . S
C634 C632 1.394 . S
C634 C635 1.369 . S
C634 C638 1.531 . S
C635 C634 1.369 . S
C635 C636 1.410 . S
C635 C643 1.503 . S
C636 C635 1.410 . S
C636 C637 1.392 . S
C636 C639 1.511 . S
C637 C633 1.376 . S
C637 C636 1.392 . S
C637 H649 0.929 . S
C638 C634 1.531 . S
C638 H650 0.960 . S
C638 H651 0.962 . S
C638 H652 0.960 . S
C639 C636 1.511 . S
C639 H653 0.961 . S
C639 H654 0.961 . S
C639 H655 0.961 . S
C640 C641 1.370 . S
C640 C642 1.363 . S
C640 H656 0.931 . S
C641 C640 1.370 . S
C641 C645 1.408 . S
C642 C640 1.363 . S
C642 C643 1.370 . S
C642 C646 1.524 . S
C643 C635 1.503 . S
C643 C642 1.370 . S
C643 C644 1.403 . S
C644 C643 1.403 . S
C644 C645 1.404 . S
C644 C647 1.539 . S
C645 C641 1.408 . S
C645 C644 1.404 . S
C645 H657 0.930 . S
C646 C642 1.524 . S
C646 H658 0.956 . S
C646 H659 0.961 . S
C646 H660 0.961 . S
C647 C644 1.539 . S
C647 H661 0.958 . S
C647 H662 0.961 . S
C647 H663 0.960 . S
H648 C632 0.931 . S
H649 C637 0.929 . S
H650 C638 0.960 . S
H651 C638 0.962 . S
H652 C638 0.960 . S
H653 C639 0.961 . S
H654 C639 0.961 . S
H655 C639 0.961 . S
H656 C640 0.931 . S
H657 C645 0.930 . S
H658 C646 0.956 . S
H659 C646 0.961 . S
H660 C646 0.961 . S
H661 C647 0.958 . S
H662 C647 0.961 . S
H663 C647 0.960 . S
C664 C665 1.391 . S
C664 C666 1.394 . S
C664 H680 0.931 . S
C665 C664 1.391 . S
C665 C669 1.376 . S
C666 C664 1.394 . S
C666 C667 1.369 . S
C666 C670 1.531 . S
C667 C666 1.369 . S
C667 C668 1.410 . S
C667 C675 1.503 . S
C668 C667 1.410 . S
C668 C669 1.392 . S
C668 C671 1.511 . S
C669 C665 1.376 . S
C669 C668 1.392 . S
C669 H681 0.929 . S
C670 C666 1.531 . S
C670 H682 0.960 . S
C670 H683 0.962 . S
C670 H684 0.960 . S
C671 C668 1.511 . S
C671 H685 0.961 . S
C671 H686 0.961 . S
C671 H687 0.961 . S
C672 C673 1.370 . S
C672 C674 1.363 . S
C672 H688 0.931 . S
C673 C672 1.370 . S
C673 C677 1.408 . S
C674 C672 1.363 . S
C674 C675 1.370 . S
C674 C678 1.524 . S
C675 C667 1.503 . S
C675 C674 1.370 . S
C675 C676 1.403 . S
C676 C675 1.403 . S
C676 C677 1.404 . S
C676 C679 1.539 . S
C677 C673 1.408 . S
C677 C676 1.404 . S
C677 H689 0.930 . S
C678 C674 1.524 . S
C678 H690 0.956 . S
C678 H691 0.961 . S
C678 H692 0.961 . S
C679 C676 1.539 . S
C679 H693 0.958 . S
C679 H694 0.961 . S
C679 H695 0.960 . S
H680 C664 0.931 . S
H681 C669 0.929 . S
H682 C670 0.960 . S
H683 C670 0.962 . S
H684 C670 0.960 . S
H685 C671 0.961 . S
H686 C671 0.961 . S
H687 C671 0.961 . S
H688 C672 0.931 . S
H689 C677 0.930 . S
H690 C678 0.956 . S
H691 C678 0.961 . S
H692 C678 0.961 . S
H693 C679 0.958 . S
H694 C679 0.961 . S
H695 C679 0.960 . S
C696 C697 1.391 . S
C696 C698 1.394 . S
C696 H712 0.931 . S
C697 C696 1.391 . S
C697 C701 1.376 . S
C698 C696 1.394 . S
C698 C699 1.369 . S
C698 C702 1.531 . S
C699 C698 1.369 . S
C699 C700 1.410 . S
C699 C707 1.503 . S
C700 C699 1.410 . S
C700 C701 1.392 . S
C700 C703 1.511 . S
C701 C697 1.376 . S
C701 C700 1.392 . S
C701 H713 0.929 . S
C702 C698 1.531 . S
C702 H714 0.960 . S
C702 H715 0.962 1_455 S
C702 H716 0.960 1_455 S
C703 C700 1.511 . S
C703 H717 0.961 . S
C703 H718 0.961 . S
C703 H719 0.961 . S
C704 C705 1.370 . S
C704 C706 1.363 . S
C704 H720 0.931 . S
C705 C704 1.370 . S
C705 C709 1.408 . S
C706 C704 1.363 . S
C706 C707 1.370 . S
C706 C710 1.524 . S
C707 C699 1.503 . S
C707 C706 1.370 . S
C707 C708 1.403 . S
C708 C707 1.403 . S
C708 C709 1.404 . S
C708 C711 1.539 . S
C709 C705 1.408 . S
C709 C708 1.404 . S
C709 H721 0.930 . S
C710 C706 1.524 . S
C710 H722 0.956 . S
C710 H723 0.961 . S
C710 H724 0.961 . S
C711 C708 1.539 . S
C711 H725 0.958 . S
C711 H726 0.961 . S
C711 H727 0.960 . S
H712 C696 0.931 . S
H713 C701 0.929 . S
H714 C702 0.960 . S
H715 C702 0.962 1_655 S
H716 C702 0.960 1_655 S
H717 C703 0.961 . S
H718 C703 0.961 . S
H719 C703 0.961 . S
H720 C704 0.931 . S
H721 C709 0.930 . S
H722 C710 0.956 . S
H723 C710 0.961 . S
H724 C710 0.961 . S
H725 C711 0.958 . S
H726 C711 0.961 . S
H727 C711 0.960 . S
C728 C729 1.391 . S
C728 C730 1.394 . S
C728 H744 0.931 . S
C729 C728 1.391 . S
C729 C733 1.376 . S
C730 C728 1.394 . S
C730 C731 1.369 . S
C730 C734 1.531 . S
C731 C730 1.369 . S
C731 C732 1.410 . S
C731 C739 1.503 . S
C732 C731 1.410 . S
C732 C733 1.392 . S
C732 C735 1.511 1_565 S
C733 C729 1.376 . S
C733 C732 1.392 . S
C733 H745 0.929 . S
C734 C730 1.531 . S
C734 H746 0.960 . S
C734 H747 0.962 . S
C734 H748 0.960 . S
C735 C732 1.511 1_545 S
C735 H749 0.961 . S
C735 H750 0.961 . S
C735 H751 0.961 1_556 S
C736 C737 1.370 . S
C736 C738 1.363 . S
C736 H752 0.931 1_565 S
C737 C736 1.370 . S
C737 C741 1.392 1_556 S
C738 C736 1.363 . S
C738 C739 1.370 . S
C738 C742 1.524 1_565 S
C739 C731 1.503 . S
C739 C738 1.370 . S
C739 C740 1.403 . S
C740 C739 1.403 . S
C740 C741 1.398 1_556 S
C740 C743 1.539 1_556 S
C741 C737 1.392 1_554 S
C741 C740 1.398 1_554 S
C741 H753 0.951 . S
C742 C738 1.524 1_545 S
C742 H754 0.956 1_545 S
C742 H755 0.961 . S
C742 H756 0.961 . S
C743 C740 1.539 1_554 S
C743 H757 0.958 . S
C743 H758 0.961 . S
C743 H759 0.960 . S
H744 C728 0.931 . S
H745 C733 0.929 . S
H746 C734 0.960 . S
H747 C734 0.962 . S
H748 C734 0.960 . S
H749 C735 0.961 . S
H750 C735 0.961 . S
H751 C735 0.961 1_554 S
H752 C736 0.931 1_545 S
H753 C741 0.951 . S
H754 C742 0.956 1_565 S
H755 C742 0.961 . S
H756 C742 0.961 . S
H757 C743 0.958 . S
H758 C743 0.961 . S
H759 C743 0.960 . S
C760 C761 1.391 . S
C760 C762 1.394 . S
C760 H776 0.931 . S
C761 C760 1.391 . S
C761 C765 1.376 . S
C762 C760 1.394 . S
C762 C763 1.369 . S
C762 C766 1.531 . S
C763 C762 1.369 . S
C763 C764 1.410 . S
C763 C771 1.503 . S
C764 C763 1.410 . S
C764 C765 1.392 . S
C764 C767 1.511 . S
C765 C761 1.376 . S
C765 C764 1.392 . S
C765 H777 0.929 . S
C766 C762 1.531 . S
C766 H778 0.960 . S
C766 H779 0.962 . S
C766 H780 0.960 . S
C767 C764 1.511 . S
C767 H781 0.961 . S
C767 H782 0.961 . S
C767 H783 0.961 . S
C768 C769 1.370 . S
C768 C770 1.363 . S
C768 H784 0.931 . S
C769 C768 1.370 . S
C769 C773 1.408 . S
C770 C768 1.363 . S
C770 C771 1.370 . S
C770 C774 1.524 . S
C771 C763 1.503 . S
C771 C770 1.370 . S
C771 C772 1.403 . S
C772 C771 1.403 . S
C772 C773 1.404 . S
C772 C775 1.539 . S
C773 C769 1.408 . S
C773 C772 1.404 . S
C773 H785 0.930 . S
C774 C770 1.524 . S
C774 H786 0.956 . S
C774 H787 0.961 . S
C774 H788 0.961 . S
C775 C772 1.539 . S
C775 H789 0.958 . S
C775 H790 0.961 . S
C775 H791 0.960 . S
H776 C760 0.931 . S
H777 C765 0.929 . S
H778 C766 0.960 . S
H779 C766 0.962 . S
H780 C766 0.960 . S
H781 C767 0.961 . S
H782 C767 0.961 . S
H783 C767 0.961 . S
H784 C768 0.931 . S
H785 C773 0.930 . S
H786 C774 0.956 . S
H787 C774 0.961 . S
H788 C774 0.961 . S
H789 C775 0.958 . S
H790 C775 0.961 . S
H791 C775 0.960 . S
C792 C793 1.391 . S
C792 C794 1.394 . S
C792 H808 0.931 . S
C793 C792 1.391 . S
C793 C797 1.376 . S
C794 C792 1.394 . S
C794 C795 1.369 . S
C794 C798 1.531 . S
C795 C794 1.369 . S
C795 C796 1.410 . S
C795 C803 1.503 . S
C796 C795 1.410 . S
C796 C797 1.392 . S
C796 C799 1.511 . S
C797 C793 1.376 . S
C797 C796 1.392 . S
C797 H809 0.929 . S
C798 C794 1.531 . S
C798 H810 0.960 . S
C798 H811 0.962 . S
C798 H812 0.960 . S
C799 C796 1.511 . S
C799 H813 0.961 . S
C799 H814 0.961 . S
C799 H815 0.961 . S
C800 C801 1.370 . S
C800 C802 1.363 . S
C800 H816 0.931 . S
C801 C800 1.370 . S
C801 C805 1.408 . S
C802 C800 1.363 . S
C802 C803 1.370 . S
C802 C806 1.524 . S
C803 C795 1.503 . S
C803 C802 1.370 . S
C803 C804 1.403 . S
C804 C803 1.403 . S
C804 C805 1.404 . S
C804 C807 1.539 . S
C805 C801 1.408 . S
C805 C804 1.404 . S
C805 H817 0.930 . S
C806 C802 1.524 . S
C806 H818 0.956 . S
C806 H819 0.961 . S
C806 H820 0.961 . S
C807 C804 1.539 . S
C807 H821 0.958 . S
C807 H822 0.961 . S
C807 H823 0.960 . S
H808 C792 0.931 . S
H809 C797 0.929 . S
H810 C798 0.960 . S
H811 C798 0.962 . S
H812 C798 0.960 . S
H813 C799 0.961 . S
H814 C799 0.961 . S
H815 C799 0.961 . S
H816 C800 0.931 . S
H817 C805 0.930 . S
H818 C806 0.956 . S
H819 C806 0.961 . S
H820 C806 0.961 . S
H821 C807 0.958 . S
H822 C807 0.961 . S
H823 C807 0.960 . S
C824 C825 1.391 . S
C824 C826 1.394 . S
C824 H840 0.931 . S
C825 C824 1.391 . S
C825 C829 1.376 . S
C826 C824 1.394 . S
C826 C827 1.369 . S
C826 C830 1.531 . S
C827 C826 1.369 . S
C827 C828 1.410 . S
C827 C835 1.503 . S
C828 C827 1.410 . S
C828 C829 1.392 . S
C828 C831 1.511 . S
C829 C825 1.376 . S
C829 C828 1.392 . S
C829 H841 0.929 . S
C830 C826 1.531 . S
C830 H842 0.960 . S
C830 H843 0.962 . S
C830 H844 0.960 . S
C831 C828 1.511 . S
C831 H845 0.961 . S
C831 H846 0.961 . S
C831 H847 0.961 . S
C832 C833 1.370 . S
C832 C834 1.363 . S
C832 H848 0.931 . S
C833 C832 1.370 . S
C833 C837 1.408 . S
C834 C832 1.363 . S
C834 C835 1.370 . S
C834 C838 1.524 . S
C835 C827 1.503 . S
C835 C834 1.370 . S
C835 C836 1.403 . S
C836 C835 1.403 . S
C836 C837 1.404 . S
C836 C839 1.539 . S
C837 C833 1.408 . S
C837 C836 1.404 . S
C837 H849 0.930 . S
C838 C834 1.524 . S
C838 H850 0.956 . S
C838 H851 0.961 . S
C838 H852 0.961 . S
C839 C836 1.539 . S
C839 H853 0.958 . S
C839 H854 0.961 . S
C839 H855 0.960 . S
H840 C824 0.931 . S
H841 C829 0.929 . S
H842 C830 0.960 . S
H843 C830 0.962 . S
H844 C830 0.960 . S
H845 C831 0.961 . S
H846 C831 0.961 . S
H847 C831 0.961 . S
H848 C832 0.931 . S
H849 C837 0.930 . S
H850 C838 0.956 . S
H851 C838 0.961 . S
H852 C838 0.961 . S
H853 C839 0.958 . S
H854 C839 0.961 . S
H855 C839 0.960 . S
C856 C857 1.391 . S
C856 C858 1.394 . S
C856 H872 0.931 . S
C857 C856 1.391 . S
C857 C861 1.376 . S
C858 C856 1.394 . S
C858 C859 1.369 . S
C858 C862 1.531 1_556 S
C859 C858 1.369 . S
C859 C860 1.410 . S
C859 C867 1.503 . S
C860 C859 1.410 . S
C860 C861 1.392 . S
C860 C863 1.511 . S
C861 C857 1.376 . S
C861 C860 1.392 . S
C861 H873 0.929 . S
C862 C858 1.531 1_554 S
C862 H874 0.960 . S
C862 H875 0.962 1_654 S
C862 H876 0.960 . S
C863 C860 1.511 . S
C863 H877 0.961 . S
C863 H878 0.961 . S
C863 H879 0.961 . S
C864 C865 1.366 1_455 S
C864 C866 1.355 1_455 S
C864 H880 0.943 . S
C865 C864 1.366 1_655 S
C865 C869 1.408 1_556 S
C866 C864 1.355 1_655 S
C866 C867 1.370 . S
C866 C870 1.524 1_655 S
C867 C859 1.503 . S
C867 C866 1.370 . S
C867 C868 1.382 1_556 S
C868 C867 1.382 1_554 S
C868 C869 1.410 . S
C868 C871 1.553 . S
C869 C865 1.408 1_554 S
C869 C868 1.410 . S
C869 H881 0.930 . S
C870 C866 1.524 1_455 S
C870 H882 0.956 . S
C870 H883 0.961 1_455 S
C870 H884 0.961 . S
C871 C868 1.553 . S
C871 H885 0.958 . S
C871 H886 0.961 . S
C871 H887 0.960 . S
H872 C856 0.931 . S
H873 C861 0.929 . S
H874 C862 0.960 . S
H875 C862 0.962 1_456 S
H876 C862 0.960 . S
H877 C863 0.961 . S
H878 C863 0.961 . S
H879 C863 0.961 . S
H880 C864 0.943 . S
H881 C869 0.930 . S
H882 C870 0.956 . S
H883 C870 0.961 1_655 S
H884 C870 0.961 . S
H885 C871 0.958 . S
H886 C871 0.961 . S
H887 C871 0.960 . S
C888 C889 1.391 . S
C888 C890 1.394 . S
C888 H904 0.931 . S
C889 C888 1.391 . S
C889 C893 1.376 . S
C890 C888 1.394 . S
C890 C891 1.369 . S
C890 C894 1.531 . S
C891 C890 1.369 . S
C891 C892 1.410 . S
C891 C899 1.503 . S
C892 C891 1.410 . S
C892 C893 1.392 . S
C892 C895 1.511 . S
C893 C889 1.376 . S
C893 C892 1.392 . S
C893 H905 0.929 . S
C894 C890 1.531 . S
C894 H906 0.960 . S
C894 H907 0.962 . S
C894 H908 0.960 . S
C895 C892 1.511 . S
C895 H909 0.961 . S
C895 H910 0.961 . S
C895 H911 0.961 . S
C896 C897 1.370 . S
C896 C898 1.363 . S
C896 H912 0.931 . S
C897 C896 1.370 . S
C897 C901 1.408 . S
C898 C896 1.363 . S
C898 C899 1.370 . S
C898 C902 1.524 . S
C899 C891 1.503 . S
C899 C898 1.370 . S
C899 C900 1.403 . S
C900 C899 1.403 . S
C900 C901 1.404 . S
C900 C903 1.539 . S
C901 C897 1.408 . S
C901 C900 1.404 . S
C901 H913 0.930 . S
C902 C898 1.524 . S
C902 H914 0.956 . S
C902 H915 0.961 . S
C902 H916 0.961 . S
C903 C900 1.539 . S
C903 H917 0.958 . S
C903 H918 0.961 . S
C903 H919 0.960 . S
H904 C888 0.931 . S
H905 C893 0.929 . S
H906 C894 0.960 . S
H907 C894 0.962 . S
H908 C894 0.960 . S
H909 C895 0.961 . S
H910 C895 0.961 . S
H911 C895 0.961 . S
H912 C896 0.931 . S
H913 C901 0.930 . S
H914 C902 0.956 . S
H915 C902 0.961 . S
H916 C902 0.961 . S
H917 C903 0.958 . S
H918 C903 0.961 . S
H919 C903 0.960 . S
C920 C921 1.391 . S
C920 C922 1.394 . S
C920 H936 0.931 . S
C921 C920 1.391 . S
C921 C925 1.376 . S
C922 C920 1.394 . S
C922 C923 1.369 . S
C922 C926 1.531 . S
C923 C922 1.369 . S
C923 C924 1.410 . S
C923 C931 1.503 . S
C924 C923 1.410 . S
C924 C925 1.392 . S
C924 C927 1.511 . S
C925 C921 1.376 . S
C925 C924 1.392 . S
C925 H937 0.929 . S
C926 C922 1.531 . S
C926 H938 0.960 . S
C926 H939 0.962 . S
C926 H940 0.960 . S
C927 C924 1.511 . S
C927 H941 0.961 . S
C927 H942 0.961 . S
C927 H943 0.961 . S
C928 C929 1.370 . S
C928 C930 1.363 . S
C928 H944 0.931 1_455 S
C929 C928 1.370 . S
C929 C933 1.408 . S
C930 C928 1.363 . S
C930 C931 1.370 . S
C930 C934 1.524 . S
C931 C923 1.503 . S
C931 C930 1.370 . S
C931 C932 1.403 . S
C932 C931 1.403 . S
C932 C933 1.404 . S
C932 C935 1.539 . S
C933 C929 1.408 . S
C933 C932 1.404 . S
C933 H945 0.930 . S
C934 C930 1.524 . S
C934 H946 0.956 1_455 S
C934 H947 0.961 . S
C934 H948 0.961 1_455 S
C935 C932 1.539 . S
C935 H949 0.958 . S
C935 H950 0.961 . S
C935 H951 0.960 . S
H936 C920 0.931 . S
H937 C925 0.929 . S
H938 C926 0.960 . S
H939 C926 0.962 . S
H940 C926 0.960 . S
H941 C927 0.961 . S
H942 C927 0.961 . S
H943 C927 0.961 . S
H944 C928 0.931 1_655 S
H945 C933 0.930 . S
H946 C934 0.956 1_655 S
H947 C934 0.961 . S
H948 C934 0.961 1_655 S
H949 C935 0.958 . S
H950 C935 0.961 . S
H951 C935 0.960 . S
C952 C953 1.391 . S
C952 C954 1.394 . S
C952 H968 0.931 . S
C953 C952 1.391 . S
C953 C957 1.376 . S
C954 C952 1.394 . S
C954 C955 1.369 . S
C954 C958 1.531 . S
C955 C954 1.369 . S
C955 C956 1.410 . S
C955 C963 1.503 . S
C956 C955 1.410 . S
C956 C957 1.392 . S
C956 C959 1.511 . S
C957 C953 1.376 . S
C957 C956 1.392 . S
C957 H969 0.929 . S
C958 C954 1.531 . S
C958 H970 0.960 . S
C958 H971 0.962 . S
C958 H972 0.960 . S
C959 C956 1.511 . S
C959 H973 0.961 . S
C959 H974 0.961 . S
C959 H975 0.961 . S
C960 C961 1.370 . S
C960 C962 1.363 . S
C960 H976 0.931 . S
C961 C960 1.370 . S
C961 C965 1.408 . S
C962 C960 1.363 . S
C962 C963 1.370 . S
C962 C966 1.524 . S
C963 C955 1.503 . S
C963 C962 1.370 . S
C963 C964 1.403 . S
C964 C963 1.403 . S
C964 C965 1.404 . S
C964 C967 1.539 . S
C965 C961 1.408 . S
C965 C964 1.404 . S
C965 H977 0.930 . S
C966 C962 1.524 . S
C966 H978 0.956 . S
C966 H979 0.961 . S
C966 H980 0.961 . S
C967 C964 1.539 . S
C967 H981 0.958 . S
C967 H982 0.961 . S
C967 H983 0.960 . S
H968 C952 0.931 . S
H969 C957 0.929 . S
H970 C958 0.960 . S
H971 C958 0.962 . S
H972 C958 0.960 . S
H973 C959 0.961 . S
H974 C959 0.961 . S
H975 C959 0.961 . S
H976 C960 0.931 . S
H977 C965 0.930 . S
H978 C966 0.956 . S
H979 C966 0.961 . S
H980 C966 0.961 . S
H981 C967 0.958 . S
H982 C967 0.961 . S
H983 C967 0.960 . S
C217 C6 2.309 . S
C225 C112 2.331 . S
C249 C18 1.353 . S
C257 N132 1.359 . S
C289 C166 2.009 . S
C281 C28 1.992 . S
C313 C40 0.874 . S
C321 N200 0.824 . S
C353 C153 2.571 . S
C345 C9 2.559 . S
C385 N110 1.092 . S
C377 C16 1.135 . S
C417 C187 2.012 1_556 S
C409 C30 2.013 . S
C449 N162 0.823 . S
C441 C42 0.829 . S
C473 C4 1.779 . S
C481 C202 1.789 . S
C513 C136 1.723 . S
C505 C33 1.698 . S
C537 C45 1.139 . S
C545 C97 1.121 . S
C569 C21 1.689 . S
C577 C183 1.697 . S
C609 C123 2.374 . S
C601 C57 2.372 . S
C633 C66 1.342 . S
C641 N140 1.327 . S
C665 C76 2.026 . S
C673 C157 2.056 . S
C697 C88 0.791 . S
C705 N192 0.832 . S
C729 C54 2.521 . S
C737 C142 2.529 1_565 S
C769 N102 1.146 . S
C761 C64 1.149 . S
C801 C196 1.907 . S
C793 C78 1.899 . S
C833 N170 0.835 . S
C825 C93 0.845 . S
C857 C52 1.722 . S
C865 C213 1.735 . S
C897 C127 1.728 . S
C889 C81 1.722 . S
C929 C106 1.131 . S
C921 C90 1.118 . S
C953 C69 1.731 . S
C961 C172 1.740 . S
