# Generated by pormake.
# Topology zzz, (3,6)-cn, num edge types: 1
# Building blocks:
#     Node 0, Type 0, BuildingBlock: VETTIZ_charged_linker_0, # of connection points: 3
#     Node 1, Type 0, BuildingBlock: VETTIZ_charged_linker_0, # of connection points: 3
#     Node 2, Type 0, BuildingBlock: VETTIZ_charged_linker_0, # of connection points: 3
#     Node 3, Type 0, BuildingBlock: VETTIZ_charged_linker_0, # of connection points: 3
#     Node 4, Type 0, BuildingBlock: VETTIZ_charged_linker_0, # of connection points: 3
#     Node 5, Type 0, BuildingBlock: VETTIZ_charged_linker_0, # of connection points: 3
#     Node 6, Type 0, BuildingBlock: VETTIZ_charged_linker_0, # of connection points: 3
#     Node 7, Type 0, BuildingBlock: VETTIZ_charged_linker_0, # of connection points: 3
#     Node 8, Type 1, BuildingBlock: BETDAH_clean_sbu_0, # of connection points: 6
#     Node 9, Type 1, BuildingBlock: BETDAH_clean_sbu_0, # of connection points: 6
#     Node 10, Type 1, BuildingBlock: BETDAH_clean_sbu_0, # of connection points: 6
#     Node 11, Type 1, BuildingBlock: BETDAH_clean_sbu_0, # of connection points: 6
#     Edge 12, Type (0, 1), BuildingBlock: OJICUG_clean_linker_0, # of connection points: 2
#     Edge 13, Type (0, 1), BuildingBlock: OJICUG_clean_linker_0, # of connection points: 2
#     Edge 14, Type (0, 1), BuildingBlock: OJICUG_clean_linker_0, # of connection points: 2
#     Edge 15, Type (0, 1), BuildingBlock: OJICUG_clean_linker_0, # of connection points: 2
#     Edge 16, Type (0, 1), BuildingBlock: OJICUG_clean_linker_0, # of connection points: 2
#     Edge 17, Type (0, 1), BuildingBlock: OJICUG_clean_linker_0, # of connection points: 2
#     Edge 18, Type (0, 1), BuildingBlock: OJICUG_clean_linker_0, # of connection points: 2
#     Edge 19, Type (0, 1), BuildingBlock: OJICUG_clean_linker_0, # of connection points: 2
#     Edge 20, Type (0, 1), BuildingBlock: OJICUG_clean_linker_0, # of connection points: 2
#     Edge 21, Type (0, 1), BuildingBlock: OJICUG_clean_linker_0, # of connection points: 2
#     Edge 22, Type (0, 1), BuildingBlock: OJICUG_clean_linker_0, # of connection points: 2
#     Edge 23, Type (0, 1), BuildingBlock: OJICUG_clean_linker_0, # of connection points: 2
#     Edge 24, Type (0, 1), BuildingBlock: OJICUG_clean_linker_0, # of connection points: 2
#     Edge 25, Type (0, 1), BuildingBlock: OJICUG_clean_linker_0, # of connection points: 2
#     Edge 26, Type (0, 1), BuildingBlock: OJICUG_clean_linker_0, # of connection points: 2
#     Edge 27, Type (0, 1), BuildingBlock: OJICUG_clean_linker_0, # of connection points: 2
#     Edge 28, Type (0, 1), BuildingBlock: OJICUG_clean_linker_0, # of connection points: 2
#     Edge 29, Type (0, 1), BuildingBlock: OJICUG_clean_linker_0, # of connection points: 2
#     Edge 30, Type (0, 1), BuildingBlock: OJICUG_clean_linker_0, # of connection points: 2
#     Edge 31, Type (0, 1), BuildingBlock: OJICUG_clean_linker_0, # of connection points: 2
#     Edge 32, Type (0, 1), BuildingBlock: OJICUG_clean_linker_0, # of connection points: 2
#     Edge 33, Type (0, 1), BuildingBlock: OJICUG_clean_linker_0, # of connection points: 2
#     Edge 34, Type (0, 1), BuildingBlock: OJICUG_clean_linker_0, # of connection points: 2
#     Edge 35, Type (0, 1), BuildingBlock: OJICUG_clean_linker_0, # of connection points: 2
# Relax obj value: 0.510
# Max RMSD: 0.269
# Mean RMSD: 0.259
data_MOF--net-zzz--node1-BETDAH_clean_sbu_0--node2-VETTIZ_charged_linker_0--edge1-OJICUG_clean_linker_0
_symmetry_space_group_name_H-M    P1
_symmetry_Int_Tables_number       1
_symmetry_cell_setting            triclinic
loop_
_symmetry_equiv_pos_as_xyz
'x, y, z'
_cell_length_a     45.628538
_cell_length_b     45.559657
_cell_length_c     14.277723
_cell_angle_alpha  89.896198
_cell_angle_beta   89.898365
_cell_angle_gamma 89.877399
loop_
_atom_site_label
_atom_site_type_symbol
_atom_site_fract_x
_atom_site_fract_y
_atom_site_fract_z
_atom_type_partial_charge
C0 C 0.81464 0.51679 0.4423 0.0
C1 C 0.83569 0.50081 0.49661 0.0
C2 C 0.83229 0.47014 0.50429 0.0
C3 C 0.79388 0.4709 0.38884 0.0
C4 C 0.79286 0.501 0.3913 0.0
C5 C 0.76563 0.51165 0.33775 0.0
H6 H 0.65505 0.46846 0.03058 0.0
C7 C 0.77306 0.45999 0.31958 0.0
C8 C 0.75444 0.48307 0.29202 0.0
H9 H 0.66119 0.55365 0.15958 0.0
H10 H 0.70639 0.53836 0.23999 0.0
H11 H 0.71551 0.47024 0.96928 0.0
H12 H 0.67623 0.42455 0.19779 0.0
H13 H 0.6998 0.40027 0.13626 0.0
H14 H 0.6704 0.41821 0.07491 0.0
H15 H 0.70629 0.43244 0.95817 0.0
H16 H 0.74226 0.44393 0.99644 0.0
C17 C 0.77444 0.53465 0.26405 0.0
C18 C 0.74355 0.52379 0.40962 0.0
C19 C 0.81111 0.37768 0.12089 0.0
C20 C 0.8035 0.37003 0.02887 0.0
C21 C 0.77451 0.37496 0.99888 0.0
C22 C 0.75493 0.39097 0.05513 0.0
C23 C 0.76506 0.40353 0.13904 0.0
C24 C 0.79222 0.39552 0.17309 0.0
C25 C 0.80062 0.41238 0.25941 0.0
C26 C 0.77484 0.43383 0.26639 0.0
C27 C 0.75443 0.42871 0.19524 0.0
C28 C 0.83007 0.42838 0.24074 0.0
C29 C 0.80242 0.39059 0.34284 0.0
C30 C 0.66531 0.48362 0.07879 0.0
C31 C 0.65368 0.51185 0.09111 0.0
C32 C 0.66919 0.53147 0.15008 0.0
C33 C 0.69519 0.52254 0.1975 0.0
C34 C 0.70613 0.49383 0.18497 0.0
C35 C 0.69126 0.47533 0.1244 0.0
C36 C 0.70759 0.44745 0.10605 0.0
C37 C 0.73246 0.44998 0.17569 0.0
C38 C 0.7323 0.4774 0.22216 0.0
C39 C 0.71843 0.4483 1.00247 0.0
C40 C 0.68748 0.42109 0.12946 0.0
H41 H 0.8085 0.43221 0.46287 0.0
H42 H 0.81513 0.54052 0.4402 0.0
H43 H 0.7396 0.50747 0.46626 0.0
H44 H 0.7221 0.52875 0.37791 0.0
H45 H 0.75208 0.54419 0.44225 0.0
H46 H 0.79158 0.52562 0.21666 0.0
H47 H 0.78329 0.55463 0.29824 0.0
H48 H 0.75549 0.54122 0.22047 0.0
H49 H 0.83308 0.37369 0.14634 0.0
H50 H 0.76788 0.36868 0.92893 0.0
H51 H 0.73334 0.39466 0.02827 0.0
H52 H 0.82845 0.44246 0.17723 0.0
H53 H 0.84826 0.41251 0.23042 0.0
H54 H 0.83691 0.44243 0.2994 0.0
H55 H 0.80274 0.36728 0.31974 0.0
H56 H 0.78333 0.39303 0.39066 0.0
H57 H 0.82294 0.39352 0.3834 0.0
H58 H 0.84679 0.4573 0.54837 0.0
C59 C 0.81107 0.45534 0.45258 0.0
C60 C 0.16158 0.79103 0.08579 0.0
C61 C 0.17428 0.81778 0.11528 0.0
C62 C 0.17689 0.82264 0.21281 0.0
C63 C 0.14238 0.78381 0.2415 0.0
C64 C 0.14516 0.77455 0.15034 0.0
C65 C 0.12527 0.74893 0.13039 0.0
H66 H 0.99669 0.68639 0.16355 0.0
C67 C 0.11591 0.77045 0.28186 0.0
C68 C 0.10725 0.74796 0.22151 0.0
H69 H 0.07803 0.6441 0.0815 0.0
H70 H 0.10517 0.68252 0.16049 0.0
H71 H 0.02782 0.70558 0.38566 0.0
H72 H 0.01776 0.76163 0.14038 0.0
H73 H 1.00231 0.77532 0.24653 0.0
H74 H 0.98635 0.74379 0.19136 0.0
H75 H 0.99224 0.71096 0.33387 0.0
H76 H 1.00855 0.73925 0.40378 0.0
C77 C 0.14464 0.72159 0.11361 0.0
C78 C 0.10571 0.75557 0.04464 0.0
C79 C 0.06101 0.83828 0.50061 0.0
C80 C 0.03143 0.84397 0.51964 0.0
C81 C 1.01032 0.82489 0.47963 0.0
C82 C 0.0189 0.80064 0.42286 0.0
C83 C 0.04886 0.79584 0.40318 0.0
C84 C 0.06906 0.81518 0.44096 0.0
C85 C 0.09943 0.81037 0.4047 0.0
C86 C 0.09489 0.78378 0.34219 0.0
C87 C 0.06522 0.7746 0.34151 0.0
C88 C 0.11955 0.80282 0.48846 0.0
C89 C 0.10899 0.83847 0.34982 0.0
C90 C 0.02035 0.68613 0.15805 0.0
C91 C 0.03501 0.66253 0.11135 0.0
C92 C 0.06596 0.66214 0.11248 0.0
C93 C 0.0819 0.68496 0.15285 0.0
C94 C 0.06718 0.70935 0.18827 0.0
C95 C 0.03724 0.70905 0.19923 0.0
C96 C 0.02781 0.73451 0.26305 0.0
C97 C 0.05732 0.74946 0.28546 0.0
C98 C 0.07936 0.73515 0.23404 0.0
C99 C 1.0132 0.72198 0.35166 0.0
C100 C 1.00733 0.75501 0.20762 0.0
H101 H 0.16264 0.81033 0.3495 0.0
H102 H 0.16146 0.785 0.01256 0.0
H103 H 0.0931 0.7762 0.05536 0.0
H104 H 0.08992 0.73751 0.03238 0.0
H105 H 0.11908 0.75785 0.97997 0.0
H106 H 0.16538 0.72748 0.07719 0.0
H107 H 0.13383 0.70564 0.06646 0.0
H108 H 0.15053 0.71075 0.18083 0.0
H109 H 0.0778 0.85287 0.52691 0.0
H110 H 0.98723 0.82876 0.4922 0.0
H111 H 1.00206 0.78688 0.39436 0.0
H112 H 0.10842 0.78749 0.53771 0.0
H113 H 0.12549 0.82293 0.52799 0.0
H114 H 0.13987 0.79152 0.46629 0.0
H115 H 0.0939 0.85738 0.35995 0.0
H116 H 0.10934 0.83475 0.27299 0.0
H117 H 0.13068 0.84662 0.37293 0.0
H118 H 0.18787 0.84176 0.24033 0.0
C119 C 0.16134 0.80519 0.27635 0.0
C120 C 0.85193 0.01491 0.18662 0.0
C121 C 0.87267 0.03203 0.13523 0.0
C122 C 0.86566 0.06162 0.11588 0.0
C123 C 0.8166 0.05442 0.1742 0.0
C124 C 0.82416 0.02734 0.20942 0.0
C125 C 0.79819 1.01435 0.26327 0.0
H126 H 0.64791 0.02154 0.31888 0.0
C127 C 0.78486 0.0584 0.18197 0.0
C128 C 0.77395 0.03735 0.24592 0.0
H129 H 0.70458 0.01811 0.5601 0.0
H130 H 0.74784 0.02453 0.45602 0.0
H131 H 0.65074 0.05718 0.20353 0.0
H132 H 0.67755 0.98821 0.17375 0.0
H133 H 0.69848 1.00152 0.07785 0.0
H134 H 0.66126 1.01384 0.095 0.0
H135 H 0.67284 0.07095 0.1119 0.0
H136 H 0.68204 0.07967 0.23013 0.0
C137 C 0.80578 1.01159 0.36766 0.0
C138 C 0.7898 0.98429 0.22215 0.0
C139 C 0.73404 0.10792 0.90376 0.0
C140 C 0.70735 0.1011 0.85952 0.0
C141 C 0.69206 0.07551 0.88667 0.0
C142 C 0.70119 0.05909 0.96357 0.0
C143 C 0.72545 0.06855 0.01426 0.0
C144 C 0.74329 0.09033 0.97925 0.0
C145 C 0.77195 0.0917 0.03184 0.0
C146 C 0.76628 0.06903 0.10954 0.0
C147 C 0.7382 0.05722 0.10048 0.0
C148 C 0.77593 0.12276 0.07244 0.0
C149 C 0.79693 0.08288 0.96344 0.0
C150 C 0.66951 0.02092 0.3501 0.0
C151 C 0.67252 0.01825 0.44775 0.0
C152 C 0.70138 0.01932 0.48508 0.0
C153 C 0.72635 0.02229 0.42545 0.0
C154 C 0.72249 0.02415 0.32775 0.0
C155 C 0.69419 0.02484 0.29262 0.0
C156 C 0.69325 0.0342 0.19158 0.0
C157 C 0.72549 0.04091 0.17426 0.0
C158 C 0.74291 0.03267 0.25051 0.0
C159 C 0.67375 0.06202 0.18351 0.0
C160 C 0.68206 1.00821 0.1313 0.0
H161 H 0.83319 0.0955 0.12028 0.0
H162 H 0.85699 0.99251 0.20617 0.0
H163 H 0.78487 0.9863 0.14616 0.0
H164 H 0.77008 0.97541 0.25802 0.0
H165 H 0.80796 0.96824 0.2311 0.0
H166 H 0.80895 0.0336 0.39952 0.0
H167 H 0.8263 0.99873 0.37693 0.0
H168 H 0.78815 0.99993 0.40606 0.0
H169 H 0.74667 0.12687 0.88224 0.0
H170 H 0.67163 0.06948 0.85331 0.0
H171 H 0.68856 0.0403 0.98359 0.0
H172 H 0.75576 0.12994 0.10987 0.0
H173 H 0.7806 0.13884 0.01576 0.0
H174 H 0.79409 0.12353 0.12358 0.0
H175 H 0.79127 0.08787 0.8894 0.0
H176 H 0.8017 0.05898 0.96751 0.0
H177 H 0.8173 0.09537 0.97609 0.0
H178 H 0.88118 0.07567 0.0799 0.0
C179 C 0.83782 0.07288 0.13594 0.0
C180 C 0.50008 0.71896 0.44565 0.0
C181 C 0.48451 0.69842 0.50318 0.0
C182 C 0.4541 0.70274 0.51574 0.0
C183 C 0.45399 0.74045 0.39761 0.0
C184 C 0.48402 0.74095 0.39598 0.0
C185 C 0.4942 0.76779 0.3393 0.0
H186 H 0.44776 0.87611 0.02593 0.0
C187 C 0.44248 0.76059 0.32721 0.0
C188 C 0.46522 0.77888 0.29558 0.0
H189 H 0.53354 0.8718 0.15107 0.0
H190 H 0.51944 0.8268 0.23531 0.0
H191 H 0.4503 0.81525 0.96889 0.0
H192 H 0.40464 0.85497 0.19636 0.0
H193 H 0.38084 0.83076 0.13585 0.0
H194 H 0.39821 0.86022 0.07315 0.0
H195 H 0.41217 0.82302 0.95933 0.0
H196 H 0.42529 0.78777 1.00044 0.0
C197 C 0.51646 0.75844 0.2641 0.0
C198 C 0.50702 0.79025 0.40841 0.0
C199 C 0.3616 0.71811 0.13406 0.0
C200 C 0.35379 0.72448 0.04114 0.0
C201 C 0.35762 0.75337 1.00789 0.0
C202 C 0.37285 0.77407 0.06186 0.0
C203 C 0.38574 0.76519 0.14681 0.0
C204 C 0.37869 0.73812 0.18404 0.0
C205 C 0.39596 0.73102 0.2708 0.0
C206 C 0.41633 0.75765 0.27495 0.0
C207 C 0.41057 0.77716 0.20135 0.0
C208 C 0.41308 0.70197 0.25466 0.0
C209 C 0.37444 0.729 0.35472 0.0
C210 C 0.46329 0.8663 0.07409 0.0
C211 C 0.49134 0.87839 0.08427 0.0
C212 C 0.51148 0.86345 0.14328 0.0
C213 C 0.50324 0.83761 0.19301 0.0
C214 C 0.4747 0.82626 0.18285 0.0
C215 C 0.45567 0.84047 0.12202 0.0
C216 C 0.42806 0.82353 0.10629 0.0
C217 C 0.43132 0.79926 0.1783 0.0
C218 C 0.45891 0.8002 0.22334 0.0
C219 C 0.42875 0.81182 1.00379 0.0
C220 C 0.40139 0.84339 0.12862 0.0
H221 H 0.41614 0.72755 0.47844 0.0
H222 H 0.5237 0.71782 0.43976 0.0
H223 H 0.4912 0.79477 0.46598 0.0
H224 H 0.51189 0.81144 0.37466 0.0
H225 H 0.52757 0.78168 0.44011 0.0
H226 H 0.50697 0.74114 0.21858 0.0
H227 H 0.53669 0.74958 0.29698 0.0
H228 H 0.52269 0.77719 0.21891 0.0
H229 H 0.3584 0.69628 0.16214 0.0
H230 H 0.35109 0.75911 0.93728 0.0
H231 H 0.37574 0.79555 0.03274 0.0
H232 H 0.42716 0.70364 0.19122 0.0
H233 H 0.39797 0.68314 0.24567 0.0
H234 H 0.42724 0.69598 0.31412 0.0
H235 H 0.35135 0.72596 0.33189 0.0
H236 H 0.375 0.74925 0.39798 0.0
H237 H 0.37928 0.70972 0.39973 0.0
H238 H 0.44161 0.68872 0.56229 0.0
C239 C 0.43902 0.72413 0.46496 0.0
C240 C 0.35368 0.52551 0.30321 0.0
C241 C 0.37407 0.54285 0.35487 0.0
C242 C 0.36772 0.57295 0.36733 0.0
C243 C 0.31944 0.56613 0.30316 0.0
C244 C 0.32672 0.53833 0.27383 0.0
C245 C 0.30124 0.52527 0.21824 0.0
H246 H 0.15223 0.53365 0.14251 0.0
C247 C 0.28796 0.57078 0.29062 0.0
C248 C 0.27741 0.5491 0.22864 0.0
H249 H 0.21197 0.52642 0.90929 0.0
H250 H 0.25393 0.5339 0.01751 0.0
H251 H 0.1816 0.50197 0.29796 0.0
H252 H 0.18523 0.59261 0.22366 0.0
H253 H 0.17528 0.58653 0.34291 0.0
H254 H 0.1537 0.57079 0.25355 0.0
H255 H 0.16218 0.52862 0.36537 0.0
H256 H 0.19917 0.5182 0.39544 0.0
C257 C 0.29142 0.49602 0.26239 0.0
C258 C 0.31034 0.52093 0.11558 0.0
C259 C 0.23574 0.62387 0.55931 0.0
C260 C 0.20848 0.61816 0.60172 0.0
C261 C 0.19209 0.59354 0.57267 0.0
C262 C 0.20118 0.57667 0.49685 0.0
C263 C 0.22657 0.58468 0.44884 0.0
C264 C 0.24491 0.60585 0.48483 0.0
C265 C 0.27416 0.60593 0.43524 0.0
C266 C 0.26868 0.58292 0.35877 0.0
C267 C 0.24008 0.57217 0.36533 0.0
C268 C 0.29809 0.59687 0.50692 0.0
C269 C 0.27952 0.63658 0.39262 0.0
C270 C 0.17424 0.53247 0.11422 0.0
C271 C 0.17853 0.52842 0.01759 0.0
C272 C 0.20783 0.5287 0.9836 0.0
C273 C 0.23203 0.53225 0.04572 0.0
C274 C 0.22691 0.53554 0.14245 0.0
C275 C 0.19819 0.53705 0.17393 0.0
C276 C 0.19606 0.54805 0.27296 0.0
C277 C 0.22809 0.55494 0.29273 0.0
C278 C 0.24638 0.54517 0.22042 0.0
C279 C 0.1841 0.52304 0.33634 0.0
C280 C 0.17659 0.57601 0.27374 0.0
H281 H 0.33641 0.6076 0.35182 0.0
H282 H 0.35834 0.50268 0.28847 0.0
H283 H 0.31462 0.5424 0.0811 0.0
H284 H 0.293 0.50923 0.0763 0.0
H285 H 0.33061 0.50743 0.11121 0.0
H286 H 0.28541 0.49918 0.33722 0.0
H287 H 0.30924 0.47941 0.25841 0.0
H288 H 0.27202 0.48717 0.225 0.0
H289 H 0.24908 0.64213 0.58211 0.0
H290 H 0.17108 0.58853 0.60438 0.0
H291 H 0.1877 0.55865 0.47586 0.0
H292 H 0.3021 0.5728 0.50548 0.0
H293 H 0.29182 0.60261 0.5799 0.0
H294 H 0.31897 0.6086 0.4952 0.0
H295 H 0.25997 0.64412 0.35274 0.0
H296 H 0.29819 0.63646 0.34314 0.0
H297 H 0.2841 0.65289 0.44846 0.0
H298 H 0.38301 0.58719 0.40311 0.0
C299 C 0.34062 0.58465 0.34085 0.0
C300 C 0.95919 0.23051 0.67767 0.0
C301 C 0.95742 0.20057 0.69937 0.0
C302 C 0.97592 0.18046 0.65254 0.0
C303 C 0.99295 0.21912 0.55137 0.0
C304 C 0.97813 0.23939 0.60552 0.0
C305 C 0.98558 0.27021 0.57728 0.0
H306 H 0.01491 0.37244 0.28227 0.0
C307 C 1.00704 0.23446 0.47298 0.0
C308 C 1.00606 0.26425 0.49376 0.0
H309 H 0.03747 0.37159 0.57739 0.0
H310 H 0.03765 0.31828 0.574 0.0
H311 H 0.06308 0.30741 0.25616 0.0
H312 H 0.96766 0.30886 0.26227 0.0
H313 H 0.98501 0.29226 0.16269 0.0
H314 H 0.98713 0.33132 0.17894 0.0
H315 H 0.04325 0.3301 0.17439 0.0
H316 H 0.04441 0.29098 0.1596 0.0
C317 C 1.0 0.28557 0.66174 0.0
C318 C 0.95759 0.28656 0.54617 0.0
C319 C 1.01013 0.1767 0.17134 0.0
C320 C 1.01054 0.18329 0.07528 0.0
C321 C 1.01282 0.2134 0.04976 0.0
C322 C 0.01391 0.23602 0.11909 0.0
C323 C 1.01294 0.2286 0.21519 0.0
C324 C 1.01077 0.1991 0.23867 0.0
C325 C 1.00955 0.19395 0.34217 0.0
C326 C 1.01095 0.22518 0.37862 0.0
C327 C 1.01351 0.24607 0.30497 0.0
C328 C 0.03714 0.17633 0.37095 0.0
C329 C 0.9803 0.17811 0.36706 0.0
C330 C 0.0179 0.36086 0.34781 0.0
C331 C 0.02377 0.37664 0.43264 0.0
C332 C 0.03078 0.36052 0.51377 0.0
C333 C 0.02929 0.33011 0.51447 0.0
C334 C 0.01867 0.31558 0.43614 0.0
C335 C 0.01652 0.32948 0.35116 0.0
C336 C 0.0154 0.30603 0.2731 0.0
C337 C 0.01523 0.27691 0.32955 0.0
C338 C 0.01472 0.2844 0.4247 0.0
C339 C 0.04306 0.30873 0.21203 0.0
C340 C 0.98719 0.3098 0.21571 0.0
H341 H 1.00774 0.17381 0.54559 0.0
H342 H 0.94581 0.24638 0.71469 0.0
H343 H 0.94663 0.27472 0.48793 0.0
H344 H 0.96293 0.30906 0.52158 0.0
H345 H 0.94183 0.28859 0.60523 0.0
H346 H 0.98871 0.27999 0.72843 0.0
H347 H 0.99809 0.30976 0.65653 0.0
H348 H 0.02332 0.27885 0.66901 0.0
H349 H 1.00924 0.15408 0.19468 0.0
H350 H 1.01319 0.21948 0.97643 0.0
H351 H 0.01509 0.2585 0.09638 0.0
H352 H 0.05684 0.18429 0.33261 0.0
H353 H 0.0344 0.15262 0.35508 0.0
H354 H 0.04234 0.17881 0.44608 0.0
H355 H 0.96359 0.19373 0.39415 0.0
H356 H 0.98353 0.16031 0.41892 0.0
H357 H 0.97017 0.16716 0.30571 0.0
H358 H 0.97521 0.15726 0.6693 0.0
C359 C 0.9939 0.18971 0.57898 0.0
C360 C 0.30695 1.01147 0.0175 0.0
C361 C 0.32631 0.99576 0.95627 0.0
C362 C 0.32057 0.96574 0.94029 0.0
C363 C 0.28365 0.96575 0.06086 0.0
C364 C 0.28463 0.99577 0.06673 0.0
C365 C 0.25876 1.00648 0.1269 0.0
H366 H 0.15061 0.96159 0.44238 0.0
C367 C 0.26331 0.95421 0.1307 0.0
C368 C 0.24645 0.97743 0.16693 0.0
H369 H 0.15926 0.04911 0.33075 0.0
H370 H 0.20227 0.03347 0.23942 0.0
H371 H 0.16745 0.92006 0.26244 0.0
H372 H 0.21131 0.95888 0.4938 0.0
H373 H 0.23726 0.93314 0.45529 0.0
H374 H 0.2018 0.92104 0.49698 0.0
H375 H 0.16285 0.91173 0.38477 0.0
H376 H 0.19064 0.89369 0.31634 0.0
C377 C 0.23658 0.02169 0.06164 0.0
C378 C 0.26979 0.02692 0.20471 0.0
C379 C 0.30252 0.86846 0.31032 0.0
C380 C 0.29632 0.86021 0.40307 0.0
C381 C 0.26762 0.86447 0.4372 0.0
C382 C 0.24728 0.88101 0.38535 0.0
C383 C 0.25641 0.8947 0.3019 0.0
C384 C 0.28301 0.88692 0.26278 0.0
C385 C 0.29053 0.9051 0.17811 0.0
C386 C 0.26502 0.927 0.17842 0.0
C387 C 0.24551 0.92108 0.25186 0.0
C388 C 0.29092 0.88475 0.0912 0.0
C389 C 0.32051 0.92031 0.19476 0.0
C390 C 0.16089 0.97728 0.39572 0.0
C391 C 0.1506 1.00631 0.3917 0.0
C392 C 0.16621 0.02639 0.33419 0.0
C393 C 0.19091 0.01729 0.28034 0.0
C394 C 0.20049 0.98787 0.28465 0.0
C395 C 0.18564 0.96875 0.34369 0.0
C396 C 0.20094 0.9398 0.35324 0.0
C397 C 0.22478 0.94274 0.27969 0.0
C398 C 0.22519 0.97114 0.23931 0.0
C399 C 0.17935 0.91486 0.32834 0.0
C400 C 0.21342 0.93787 0.45466 0.0
H401 H 0.29435 0.92847 0.97431 0.0
H402 H 0.30917 0.03495 0.0263 0.0
H403 H 0.28688 0.01571 0.2472 0.0
H404 H 0.25178 0.0334 0.25243 0.0
H405 H 0.27944 0.04719 0.17433 0.0
H406 H 0.23095 1.00715 1.00184 0.0
H407 H 0.24593 0.04233 0.03284 0.0
H408 H 0.21588 0.02703 0.09764 0.0
H409 H 0.3241 0.86472 0.28116 0.0
H410 H 0.26188 0.85747 0.5074 0.0
H411 H 0.226 0.88434 0.41532 0.0
H412 H 0.29279 0.86116 0.11065 0.0
H413 H 0.31018 0.88912 0.04575 0.0
H414 H 0.27055 0.88716 0.04927 0.0
H415 H 0.32684 0.9352 0.13743 0.0
H416 H 0.33857 0.90402 0.19956 0.0
H417 H 0.32002 0.9333 0.26062 0.0
H418 H 0.33365 0.95325 0.89104 0.0
C419 C 0.29886 0.95098 0.99052 0.0
C420 C 0.51658 0.32657 1.00147 0.0
C421 C 0.53381 0.34659 0.94683 0.0
C422 C 0.56421 0.34126 0.93989 0.0
C423 C 0.56104 0.30361 0.05795 0.0
C424 C 0.53101 0.30409 0.05407 0.0
C425 C 0.519 0.27749 0.1083 0.0
H426 H 0.55636 0.16804 0.43096 0.0
C427 C 0.57059 0.28309 0.13044 0.0
C428 C 0.54671 0.26558 0.15786 0.0
H429 H 0.47427 0.17293 0.28291 0.0
H430 H 0.49052 0.21834 0.20496 0.0
H431 H 0.60294 0.18774 0.27305 0.0
H432 H 0.55333 0.23103 0.48569 0.0
H433 H 0.58124 0.25634 0.46114 0.0
H434 H 0.59039 0.22041 0.50659 0.0
H435 H 0.60693 0.1834 0.39762 0.0
H436 H 0.62616 0.21187 0.33587 0.0
C437 C 0.50704 0.25545 0.03628 0.0
C438 C 0.49548 0.28728 0.17884 0.0
C439 C 0.65222 0.32157 0.33032 0.0
C440 C 0.65899 0.31546 0.42424 0.0
C441 C 0.65218 0.28747 0.4603 0.0
C442 C 0.63538 0.26768 0.40755 0.0
C443 C 0.62424 0.27658 0.32007 0.0
C444 C 0.63381 0.30261 0.28107 0.0
C445 C 0.61804 0.31022 0.19193 0.0
C446 C 0.59594 0.28505 0.18709 0.0
C447 C 0.59946 0.26578 0.26275 0.0
C448 C 0.64058 0.31015 0.11043 0.0
C449 C 0.6028 0.34047 0.20455 0.0
C450 C 0.54211 0.17815 0.3795 0.0
C451 C 0.51451 0.166 0.36082 0.0
C452 C 0.49599 0.18128 0.29734 0.0
C453 C 0.50552 0.20733 0.25112 0.0
C454 C 0.53374 0.21854 0.26901 0.0
C455 C 0.55103 0.20409 0.33445 0.0
C456 C 0.57863 0.22045 0.35579 0.0
C457 C 0.57754 0.24453 0.28249 0.0
C458 C 0.55092 0.24423 0.23172 0.0
C459 C 0.6052 0.19982 0.3403 0.0
C460 C 0.57601 0.23263 0.45733 0.0
H461 H 0.60062 0.31544 0.9841 0.0
H462 H 0.49295 0.32847 1.00299 0.0
H463 H 0.50448 0.30416 0.22693 0.0
H464 H 0.4878 0.26854 0.22182 0.0
H465 H 0.47625 0.29682 0.14198 0.0
H466 H 0.52392 0.25048 0.98226 0.0
H467 H 0.48749 0.26465 1.00023 0.0
H468 H 0.50081 0.23441 0.06862 0.0
H469 H 0.6575 0.3427 0.30009 0.0
H470 H 0.65773 0.2819 0.53191 0.0
H471 H 0.63015 0.24702 0.43929 0.0
H472 H 0.66364 0.31016 0.13563 0.0
H473 H 0.63854 0.33013 0.06631 0.0
H474 H 0.63808 0.29039 0.0656 0.0
H475 H 0.58803 0.34017 0.26659 0.0
H476 H 0.58963 0.34705 0.14344 0.0
H477 H 0.61908 0.35827 0.21412 0.0
H478 H 0.57799 0.35486 0.89584 0.0
C479 C 0.57766 0.31943 0.99333 0.0
Ho480 Ho 0.03698 1.01076 0.83871 0.0
Ho481 Ho 0.99111 0.02161 0.72298 0.0
C482 C 0.01497 0.95757 0.70418 0.0
C483 C 0.07549 0.99175 0.9579 0.0
C484 C 0.10018 0.97111 0.95679 0.0
C485 C 0.11632 0.9665 0.03877 0.0
C486 C 0.13768 0.94453 0.04224 0.0
C487 C 0.14316 0.9267 0.96362 0.0
C488 C 0.12838 0.93298 0.87933 0.0
C489 C 0.10696 0.95496 0.87606 0.0
C490 C 0.05785 0.02867 0.66676 0.0
C491 C 1.01316 0.07539 0.85286 0.0
C492 C 0.94876 0.04081 0.62031 0.0
C493 C 0.92471 0.06 0.6511 0.0
C494 C 0.9155 0.08293 0.59315 0.0
C495 C 0.90151 0.1073 0.63204 0.0
C496 C 0.8972 0.10922 0.72991 0.0
C497 C 0.90173 0.08393 0.78446 0.0
C498 C 0.9158 0.05959 0.74555 0.0
C499 C 0.97098 1.00317 0.89495 0.0
O500 O 0.02691 0.96412 0.78613 0.0
O501 O 1.0031 0.97889 0.6549 0.0
O502 O 0.07881 0.01548 0.90803 0.0
O503 O 0.04948 0.98023 0.94794 0.0
O504 O 0.06632 0.03857 0.74692 0.0
O505 O 0.037 1.01095 0.68127 0.0
O506 O 1.00199 0.06875 0.77009 0.0
O507 O 0.02418 0.05398 0.90369 0.0
O508 O 0.94901 0.01467 0.65726 0.0
O509 O 0.97466 0.05303 0.62157 0.0
O510 O 0.9635 0.99239 0.81524 0.0
O511 O 0.99115 0.0216 0.87987 0.0
H512 H 0.1115 0.97901 0.10146 0.0
H513 H 0.14831 0.94021 0.10859 0.0
H514 H 0.13231 0.91993 0.81722 0.0
H515 H 0.09488 0.95857 0.81174 0.0
H516 H 0.92198 0.08353 0.52011 0.0
H517 H 0.89815 0.12615 0.58701 0.0
H518 H 0.89815 0.08446 0.8595 0.0
H519 H 0.92246 0.04192 0.79175 0.0
Ho520 Ho 0.5058 0.04194 0.77258 0.0
Ho521 Ho 0.49237 0.99831 0.65236 0.0
C522 C 0.55805 0.01753 0.63788 0.0
C523 C 0.52888 0.08048 0.88198 0.0
C524 C 0.55106 0.10253 0.85801 0.0
C525 C 0.57 0.11303 0.92688 0.0
C526 C 0.59518 0.12844 0.90116 0.0
C527 C 0.60192 0.1334 0.80582 0.0
C528 C 0.58119 0.12542 0.73782 0.0
C529 C 0.55607 0.1099 0.76366 0.0
C530 C 0.48883 0.06565 0.6039 0.0
C531 C 0.44047 0.02144 0.78954 0.0
C532 C 0.47018 0.96179 0.53281 0.0
C533 C 0.44819 0.93835 0.53646 0.0
C534 C 0.44195 0.92242 0.45531 0.0
C535 C 0.41988 0.90125 0.45584 0.0
C536 C 0.40359 0.89555 0.53786 0.0
C537 C 0.41094 0.91072 0.62044 0.0
C538 C 0.43306 0.93198 0.61969 0.0
C539 C 0.51028 0.97469 0.82031 0.0
O540 O 0.55204 0.02915 0.72072 0.0
O541 O 0.53611 1.00767 0.58745 0.0
O542 O 0.50348 0.08404 0.84196 0.0
O543 O 0.53801 0.05331 0.87768 0.0
O544 O 0.47845 0.07279 0.68474 0.0
O545 O 0.50586 0.04396 0.61568 0.0
O546 O 0.44661 1.01082 0.70555 0.0
O547 O 0.46227 0.03158 0.84035 0.0
O548 O 0.49416 0.95679 0.5795 0.0
O549 O 0.46045 0.9885 0.54475 0.0
O550 O 0.51946 0.96681 0.73867 0.0
O551 O 0.49301 0.99621 0.80948 0.0
H552 H 0.56649 0.10747 0.99987 0.0
H553 H 0.61069 0.1338 0.95581 0.0
H554 H 0.58553 0.12906 0.66409 0.0
H555 H 0.54161 0.10191 0.70925 0.0
H556 H 0.45356 0.92698 0.39063 0.0
H557 H 0.41456 0.89055 0.39038 0.0
H558 H 0.39903 0.90678 0.68491 0.0
H559 H 0.43788 0.94393 0.68337 0.0
Ho560 Ho 0.49022 0.52853 0.78628 0.0
Ho561 Ho 0.53455 0.51762 0.66071 0.0
C562 C 0.51252 0.58299 0.65692 0.0
C563 C 0.45355 0.54885 0.90892 0.0
C564 C 0.43028 0.5711 0.90582 0.0
C565 C 0.42436 0.58658 0.82286 0.0
C566 C 0.40356 0.60919 0.82237 0.0
C567 C 0.38839 0.61669 0.90494 0.0
C568 C 0.39357 0.60006 0.98666 0.0
C569 C 0.41432 0.57749 0.98696 0.0
C570 C 0.46735 0.51334 0.61487 0.0
C571 C 0.51169 0.46315 0.79033 0.0
C572 C 0.57149 0.49715 0.53924 0.0
C573 C 0.59411 0.47429 0.54441 0.0
C574 C 0.6093 0.46601 0.46351 0.0
C575 C 0.62892 0.44245 0.46611 0.0
C576 C 0.63366 0.42672 0.5499 0.0
C577 C 0.61948 0.43622 0.63209 0.0
C578 C 0.59981 0.45979 0.6293 0.0
C579 C 0.55737 0.53346 0.83103 0.0
O580 O 0.5017 0.57531 0.7395 0.0
O581 O 0.52334 0.5623 0.60253 0.0
O582 O 0.4488 0.52537 0.85934 0.0
O583 O 0.48028 0.55862 0.8992 0.0
O584 O 0.45906 0.50293 0.69474 0.0
O585 O 0.48863 0.53046 0.62938 0.0
O586 O 0.52291 0.4708 0.70816 0.0
O587 O 0.50087 0.48387 0.84442 0.0
O588 O 0.57634 0.52042 0.58975 0.0
O589 O 0.54447 0.48798 0.54657 0.0
O590 O 0.56512 0.54414 0.75099 0.0
O591 O 0.53636 0.51587 0.8174 0.0
H592 H 0.43638 0.58168 0.75921 0.0
H593 H 0.4 0.62138 0.75818 0.0
H594 H 0.38283 0.60549 0.05208 0.0
H595 H 0.41857 0.56564 0.05143 0.0
H596 H 0.60518 0.47706 0.39753 0.0
H597 H 0.63895 0.43549 0.40101 0.0
H598 H 0.62274 0.42476 0.69778 0.0
H599 H 0.58837 0.46613 0.69273 0.0
Ho600 Ho 1.0012 0.50462 0.79831 0.0
Ho601 Ho 0.01373 0.55001 0.68347 0.0
C602 C 0.94897 0.52784 0.66433 0.0
C603 C 0.97959 0.46555 0.91093 0.0
C604 C 0.9571 0.44277 0.90247 0.0
C605 C 0.95023 0.42544 0.98029 0.0
C606 C 0.92743 0.40514 0.97562 0.0
C607 C 0.91104 0.40176 0.89274 0.0
C608 C 0.91902 0.41829 0.81328 0.0
C609 C 0.94188 0.43866 0.81816 0.0
C610 C 0.02182 0.48411 0.62963 0.0
C611 C 0.06605 0.52557 0.81836 0.0
C612 C 0.03555 0.59034 0.57722 0.0
C613 C 0.05604 0.61375 0.60269 0.0
C614 C 0.07457 0.62575 0.53486 0.0
C615 C 0.09848 0.64278 0.56196 0.0
C616 C 0.10436 0.64787 0.6577 0.0
C617 C 0.08376 0.63842 0.72454 0.0
C618 C 0.05993 0.62126 0.69732 0.0
C619 C 0.99643 0.57134 0.85501 0.0
O620 O 0.95528 0.51656 0.74714 0.0
O621 O 0.97052 0.53914 0.61466 0.0
O622 O 1.00315 0.46145 0.86106 0.0
O623 O 0.97026 0.49263 0.90692 0.0
O624 O 0.03092 0.47611 0.71118 0.0
O625 O 1.00294 0.50421 0.64082 0.0
O626 O 0.06015 0.53803 0.73645 0.0
O627 O 0.04412 0.51454 0.8667 0.0
O628 O 1.00965 0.59223 0.61527 0.0
O629 O 0.04633 0.56379 0.58216 0.0
O630 O 0.98627 0.5797 0.77508 0.0
O631 O 1.01349 0.54991 0.84032 0.0
H632 H 0.96187 0.4283 0.04574 0.0
H633 H 0.92162 0.39336 0.0389 0.0
H634 H 0.90699 0.41616 0.74834 0.0
H635 H 0.94716 0.45176 0.757 0.0
H636 H 0.07185 0.62018 0.46163 0.0
H637 H 0.11388 0.64929 0.50806 0.0
H638 H 0.0874 0.64216 0.79852 0.0
H639 H 0.04571 0.61219 0.75089 0.0
C640 C 0.09975 0.99682 0.45761 0.0
C641 C 0.12472 0.01501 0.45197 0.0
H642 H 0.05904 0.98708 0.52707 0.0
C643 C 0.12583 0.03953 0.51184 0.0
H644 H 0.09795 0.9778 0.41259 0.0
C645 C 0.10353 0.04468 0.57864 0.0
C646 C 0.07917 0.02577 0.58664 0.0
H647 H 0.1447 0.0539 0.51045 0.0
H648 H 0.10584 0.063 0.62628 0.0
C649 C 0.07728 1.00222 0.52324 0.0
C650 C 0.52505 0.11422 0.41793 0.0
C651 C 0.50553 0.13825 0.41143 0.0
H652 H 0.53494 0.07239 0.48082 0.0
C653 C 0.47906 0.13653 0.46198 0.0
H654 H 0.54565 0.11465 0.38014 0.0
C655 C 0.4731 0.11235 0.52103 0.0
C656 C 0.4931 0.08883 0.52988 0.0
H657 H 0.46363 0.15461 0.45977 0.0
H658 H 0.45315 0.1125 0.56227 0.0
C659 C 0.51884 0.08982 0.47546 0.0
C660 C 0.39761 0.5069 0.46762 0.0
C661 C 0.40052 0.53047 0.4044 0.0
H662 H 0.41627 0.48304 0.58331 0.0
C663 C 0.42742 0.54575 0.40338 0.0
H664 H 0.37718 0.4949 0.4716 0.0
C665 C 0.44987 0.539 0.46753 0.0
C666 C 0.44607 0.51688 0.53537 0.0
H667 H 0.43054 0.56404 0.35585 0.0
H668 H 0.46957 0.55223 0.46723 0.0
C669 C 0.42 0.50029 0.53239 0.0
C670 C 0.04981 0.42307 0.47349 0.0
C671 C 0.02371 0.40939 0.44423 0.0
H672 H 0.06952 0.45724 0.55535 0.0
C673 C 0.9971 0.42429 0.46114 0.0
H674 H 0.07061 0.41193 0.4641 0.0
C675 C 0.99649 0.45068 0.51321 0.0
C676 C 0.02247 0.46248 0.55076 0.0
H677 H 0.97653 0.41403 0.44256 0.0
H678 H 0.97549 0.4602 0.53166 0.0
C679 C 0.04916 0.44896 0.52683 0.0
C680 C 0.92697 0.03522 0.09858 0.0
C681 C 0.90028 0.01971 0.09257 0.0
H682 H 0.97053 0.04148 0.04418 0.0
C683 C 0.89892 0.99591 0.03008 0.0
H684 H 0.92887 0.05372 0.14573 0.0
C685 C 0.92265 0.98936 0.97026 0.0
C686 C 0.94858 1.0062 0.97175 0.0
H687 H 0.87871 0.98374 0.02236 0.0
H688 H 0.92005 0.97203 0.91913 0.0
C689 C 0.95085 0.02837 0.03978 0.0
C690 C 0.47973 0.92959 0.0245 0.0
C691 C 0.49912 0.90541 0.02819 0.0
H692 H 0.46827 0.97056 0.95862 0.0
C693 C 0.52387 0.90597 0.96922 0.0
H694 H 0.46043 0.92999 0.06878 0.0
C695 C 0.52813 0.92913 0.90483 0.0
C696 C 0.50809 0.95269 0.89863 0.0
H697 H 0.5391 0.88771 0.96916 0.0
H698 H 0.54668 0.92809 0.85749 0.0
C699 C 0.48427 0.95298 0.9614 0.0
C700 C 0.60239 0.50109 0.03212 0.0
C701 C 0.62658 0.52034 0.03687 0.0
H702 H 0.56149 0.49029 0.9659 0.0
C703 C 0.62596 0.54562 0.9801 0.0
H704 H 0.60201 0.48141 0.07477 0.0
C705 C 0.60279 0.55052 0.9166 0.0
C706 C 0.57929 0.53057 0.909 0.0
H707 H 0.64421 0.56078 0.98088 0.0
H708 H 0.6038 0.56949 0.87085 0.0
C709 C 0.57903 0.50622 0.96976 0.0
C710 C 0.99865 0.64401 0.99023 0.0
C711 C 0.01959 0.63806 0.06004 0.0
H712 H 0.97476 0.62775 0.87135 0.0
C713 C 0.02956 0.6088 0.06909 0.0
H714 H 0.99066 0.66619 0.98025 0.0
C715 C 0.02066 0.58678 1.00634 0.0
C716 C 1.00136 0.59318 0.93237 0.0
H717 H 0.04551 0.60319 0.12234 0.0
H718 H 0.03008 0.56503 0.0131 0.0
C719 C 0.98969 0.6219 0.92726 0.0
C720 C 0.94026 0.16811 0.82633 0.0
C721 C 0.93339 0.18875 0.75692 0.0
H722 H 0.93165 0.12527 0.87769 0.0
C723 C 0.90537 0.18826 0.71654 0.0
H724 H 0.96148 0.16858 0.86012 0.0
C725 C 0.88805 0.16317 0.72599 0.0
C726 C 0.89932 0.13867 0.77405 0.0
H727 H 0.89926 0.20447 0.6644 0.0
H728 H 0.86908 0.16087 0.68109 0.0
C729 C 0.92292 0.14314 0.83606 0.0
C730 C 0.32326 0.87787 0.54242 0.0
C731 C 0.32161 0.8577 0.46814 0.0
H732 H 0.35076 0.90611 0.6221 0.0
C733 C 0.34751 0.84361 0.43879 0.0
H734 H 0.30381 0.88912 0.56724 0.0
C735 C 0.37475 0.85355 0.47027 0.0
C736 C 0.37643 0.87755 0.53202 0.0
H737 H 0.34691 0.82754 0.38298 0.0
H738 H 0.39443 0.84435 0.43939 0.0
C739 C 0.35044 0.88785 0.57368 0.0
C740 C 0.64374 0.3451 0.56125 0.0
C741 C 0.66368 0.34093 0.48725 0.0
H742 H 0.61824 0.37589 0.63869 0.0
C743 C 0.6802 0.36511 0.45609 0.0
H744 H 0.63069 0.32701 0.58745 0.0
C745 C 0.67284 0.39348 0.4852 0.0
C746 C 0.64912 0.39795 0.54669 0.0
H747 H 0.6962 0.36249 0.40053 0.0
H748 H 0.68378 0.41196 0.45267 0.0
C749 C 0.6364 0.37339 0.59041 0.0
C750 C 0.18197 0.66455 0.61377 0.0
C751 C 0.19331 0.63995 0.6608 0.0
H752 H 0.14272 0.68771 0.57819 0.0
C753 C 0.17828 0.62947 0.7399 0.0
H754 H 0.19361 0.67383 0.55452 0.0
C755 C 0.1488 0.63678 0.75198 0.0
C756 C 0.13485 0.65518 0.68621 0.0
H757 H 0.18705 0.6111 0.77932 0.0
H758 H 0.13623 0.62391 0.80158 0.0
C759 C 0.15255 0.6722 0.62646 0.0
C760 C 0.1553 0.84549 0.97629 0.0
C761 C 0.17589 0.84342 0.04959 0.0
H762 H 0.12887 0.87341 0.89188 0.0
C763 C 0.19171 0.86893 0.07334 0.0
H764 H 0.14257 0.82676 0.95409 0.0
C765 C 0.18326 0.89634 0.0377 0.0
C766 C 0.15939 0.89859 0.97581 0.0
H767 H 0.2088 0.86827 0.1258 0.0
H768 H 0.19386 0.91588 0.06426 0.0
C769 C 0.14719 0.87269 0.93999 0.0
C770 C 0.6757 0.11254 0.72445 0.0
C771 C 0.69119 0.12281 0.80262 0.0
H772 H 0.63342 0.10793 0.66387 0.0
C773 C 0.68027 0.14741 0.85057 0.0
H774 H 0.68412 0.09415 0.68451 0.0
C775 C 0.65098 0.1556 0.83879 0.0
C776 C 0.63289 0.1392 0.77888 0.0
H777 H 0.6922 0.15645 0.90937 0.0
H778 H 0.64151 0.17128 0.8872 0.0
C779 C 0.64634 0.12043 0.71322 0.0
C780 C 0.33699 0.6736 1.00359 0.0
C781 C 0.35158 0.69933 0.97559 0.0
H782 H 0.33701 0.62661 1.00154 0.0
C783 C 0.37221 0.69752 0.90252 0.0
H784 H 0.32064 0.67438 0.05864 0.0
C785 C 0.38193 0.6702 0.8709 0.0
C786 C 0.37093 0.64426 0.91107 0.0
H787 H 0.38387 0.71688 0.879 0.0
H788 H 0.40046 0.66964 0.82341 0.0
C789 C 0.34667 0.64623 0.97175 0.0
C790 C 0.853 0.35088 0.98498 0.0
C791 C 0.82782 0.36696 0.9605 0.0
H792 H 0.89985 0.34903 0.98041 0.0
C793 C 0.83005 0.38827 0.88951 0.0
H794 H 0.85182 0.33399 0.03837 0.0
C795 C 0.85755 0.39732 0.85774 0.0
C796 C 0.88315 0.38487 0.89557 0.0
H797 H 0.81108 0.40102 0.86863 0.0
H798 H 0.8586 0.41646 0.81278 0.0
C799 C 0.88053 0.35981 0.95274 0.0
C800 C 0.02645 0.15558 0.92633 0.0
C801 C 1.00816 0.15812 1.00592 0.0
H802 H 0.04238 0.12762 0.81476 0.0
C803 C 0.98919 0.1344 0.02536 0.0
H804 H 0.0414 0.17317 0.90864 0.0
C805 C 0.98992 0.10846 0.97224 0.0
C806 C 1.0093 0.10519 0.89649 0.0
H807 H 0.97419 0.13548 0.08415 0.0
H808 H 0.97569 0.09054 0.99218 0.0
C809 C 0.02704 0.12941 0.87242 0.0
C810 C 0.37548 0.02199 0.96229 0.0
C811 C 0.35308 1.0087 0.90955 0.0
H812 H 0.42043 0.0363 0.9668 0.0
C813 C 0.35909 1.0024 0.81463 0.0
H814 H 0.37197 0.0267 0.03578 0.0
C815 C 0.38691 1.00753 0.77529 0.0
C816 C 0.40987 0.01924 0.82924 0.0
H817 H 0.34253 0.99213 0.77152 0.0
H818 H 0.39068 1.00127 0.70312 0.0
C819 C 0.40346 0.02717 0.92275 0.0
C820 C 0.53157 0.3815 0.80845 0.0
C821 C 0.52209 0.3739 0.89962 0.0
H822 H 0.53597 0.41495 0.70305 0.0
C823 C 0.50665 0.39533 0.95081 0.0
H824 H 0.54359 0.36571 0.76663 0.0
C825 C 0.50241 0.42388 0.91423 0.0
C826 C 0.5134 0.43189 0.82514 0.0
H827 H 0.49944 0.39063 0.02157 0.0
H828 H 0.49142 0.44001 0.95751 0.0
C829 C 0.52732 0.40993 0.77191 0.0
C830 C 0.12864 0.50699 0.98563 0.0
C831 C 0.15179 0.52516 0.95586 0.0
H832 H 0.08442 0.49286 0.9667 0.0
C833 C 0.14726 0.54226 0.87441 0.0
H834 H 0.13117 0.49328 0.04718 0.0
C835 C 0.1199 0.54204 0.8272 0.0
C836 C 0.09639 0.52472 0.86033 0.0
H837 H 0.16437 0.55678 0.84964 0.0
H838 H 0.11686 0.55616 0.76687 0.0
C839 C 0.10159 0.50682 0.93916 0.0
C840 C 1.00346 0.8918 0.54072 0.0
C841 C 0.02372 0.8711 0.57504 0.0
H842 H 0.98506 0.93507 0.55336 0.0
C843 C 0.03958 0.87847 0.65657 0.0
H844 H 0.99115 0.8872 0.47766 0.0
C845 C 0.03605 0.90593 0.70044 0.0
C846 C 0.01681 0.92716 0.66352 0.0
H847 H 0.05541 0.86316 0.68523 0.0
H848 H 0.04922 0.91089 0.76142 0.0
C849 C 1.00021 0.91944 0.58386 0.0
C850 C 0.62172 0.99794 0.47531 0.0
C851 C 0.64498 0.01566 0.50682 0.0
H852 H 0.57703 0.9847 0.49066 0.0
C853 C 0.64002 0.03274 0.58793 0.0
H854 H 0.62455 0.98411 0.41431 0.0
C855 C 0.61224 0.03298 0.63294 0.0
C856 C 0.58869 0.01618 0.59789 0.0
H857 H 0.65718 0.04687 0.61424 0.0
H858 H 0.60896 0.04707 0.6931 0.0
C859 C 0.59423 0.9983 0.51946 0.0
C860 C 0.49063 0.66406 0.64136 0.0
C861 C 0.49798 0.67162 0.54826 0.0
H862 H 0.48923 0.63083 0.74807 0.0
C863 C 0.51292 0.65048 0.49435 0.0
H864 H 0.47906 0.67964 0.68523 0.0
C865 C 0.51866 0.62214 0.53056 0.0
C866 C 0.5097 0.61412 0.62188 0.0
H867 H 0.51849 0.65518 0.42211 0.0
H868 H 0.52909 0.60614 0.48541 0.0
C869 C 0.49635 0.63587 0.67746 0.0
C870 C 0.86829 0.50641 0.63827 0.0
C871 C 0.86184 0.5142 0.54483 0.0
H872 H 0.90014 0.50442 0.74844 0.0
C873 C 0.88361 0.5292 0.49373 0.0
H874 H 0.85224 0.49465 0.67981 0.0
C875 C 0.91149 0.53467 0.53322 0.0
C876 C 0.91839 0.52532 0.62503 0.0
H877 H 0.87976 0.53504 0.42121 0.0
H878 H 0.92803 0.54517 0.49032 0.0
C879 C 0.89598 0.51186 0.6776 0.0
loop_
_geom_bond_atom_site_label_1
_geom_bond_atom_site_label_2
_geom_bond_distance
_geom_bond_site_symmetry_2
_ccdc_geom_bond_type
C0 C1 1.391 . S
C0 C4 1.391 . S
C0 H42 0.948 . S
C1 C0 1.391 . S
C1 C2 1.391 . S
C2 C1 1.391 . S
C2 H58 0.947 . S
C2 C59 1.392 . S
C3 C4 1.391 . S
C3 C7 1.397 . S
C3 C59 1.419 . S
C4 C0 1.391 . S
C4 C3 1.391 . S
C4 C5 1.399 . S
C5 C4 1.399 . S
C5 C8 1.396 . S
C5 C17 1.453 . S
C5 C18 1.684 . S
H6 C30 0.948 . S
C7 C3 1.397 . S
C7 C8 1.394 . S
C7 C26 1.723 . S
C8 C5 1.396 . S
C8 C7 1.394 . S
C8 C38 1.723 . S
H9 C32 0.947 . S
H10 C33 0.948 . S
H11 C39 0.982 . S
H12 C40 0.979 . S
H13 C40 0.980 . S
H14 C40 0.983 . S
H15 C39 0.979 . S
H16 C39 0.977 . S
C17 C5 1.453 . S
C17 H46 0.982 . S
C17 H47 0.979 . S
C17 H48 0.977 . S
C18 C5 1.684 . S
C18 H43 0.979 . S
C18 H44 0.980 . S
C18 H45 0.983 . S
C19 C20 1.391 . S
C19 C24 1.391 . S
C19 H49 0.948 . S
C20 C19 1.391 . S
C20 C21 1.391 . S
C21 C20 1.391 . S
C21 C22 1.392 . S
C21 H50 0.947 . S
C22 C21 1.392 . S
C22 C23 1.419 . S
C22 H51 0.948 . S
C23 C22 1.419 . S
C23 C24 1.391 . S
C23 C27 1.397 . S
C24 C19 1.391 . S
C24 C23 1.391 . S
C24 C25 1.399 . S
C25 C24 1.399 . S
C25 C26 1.396 . S
C25 C28 1.453 . S
C25 C29 1.684 . S
C26 C7 1.723 . S
C26 C25 1.396 . S
C26 C27 1.394 . S
C27 C23 1.397 . S
C27 C26 1.394 . S
C27 C37 1.723 . S
C28 C25 1.453 . S
C28 H52 0.982 . S
C28 H53 0.979 . S
C28 H54 0.977 . S
C29 C25 1.684 . S
C29 H55 0.979 . S
C29 H56 0.980 . S
C29 H57 0.983 . S
C30 H6 0.948 . S
C30 C31 1.391 . S
C30 C35 1.391 . S
C31 C30 1.391 . S
C31 C32 1.391 . S
C32 H9 0.947 . S
C32 C31 1.391 . S
C32 C33 1.392 . S
C33 H10 0.948 . S
C33 C32 1.392 . S
C33 C34 1.419 . S
C34 C33 1.419 . S
C34 C35 1.391 . S
C34 C38 1.397 . S
C35 C30 1.391 . S
C35 C34 1.391 . S
C35 C36 1.399 . S
C36 C35 1.399 . S
C36 C37 1.396 . S
C36 C39 1.453 . S
C36 C40 1.684 . S
C37 C27 1.723 . S
C37 C36 1.396 . S
C37 C38 1.394 . S
C38 C8 1.723 . S
C38 C34 1.397 . S
C38 C37 1.394 . S
C39 H11 0.982 . S
C39 H15 0.979 . S
C39 H16 0.977 . S
C39 C36 1.453 . S
C40 H12 0.979 . S
C40 H13 0.980 . S
C40 H14 0.983 . S
C40 C36 1.684 . S
H41 C59 0.948 . S
H42 C0 0.948 . S
H43 C18 0.979 . S
H44 C18 0.980 . S
H45 C18 0.983 . S
H46 C17 0.982 . S
H47 C17 0.979 . S
H48 C17 0.977 . S
H49 C19 0.948 . S
H50 C21 0.947 . S
H51 C22 0.948 . S
H52 C28 0.982 . S
H53 C28 0.979 . S
H54 C28 0.977 . S
H55 C29 0.979 . S
H56 C29 0.980 . S
H57 C29 0.983 . S
H58 C2 0.947 . S
C59 C2 1.392 . S
C59 C3 1.419 . S
C59 H41 0.948 . S
C60 C61 1.391 . S
C60 C64 1.391 . S
C60 H102 0.948 . S
C61 C60 1.391 . S
C61 C62 1.391 . S
C62 C61 1.391 . S
C62 H118 0.947 . S
C62 C119 1.392 . S
C63 C64 1.391 . S
C63 C67 1.397 1_655 S
C63 C119 1.419 . S
C64 C60 1.391 . S
C64 C63 1.391 . S
C64 C65 1.399 . S
C65 C64 1.399 . S
C65 C68 1.396 1_655 S
C65 C77 1.453 1_655 S
C65 C78 1.684 . S
H66 C90 0.948 . S
C67 C63 1.397 1_455 S
C67 C68 1.394 . S
C67 C86 1.723 . S
C68 C65 1.396 1_455 S
C68 C67 1.394 . S
C68 C98 1.723 . S
H69 C92 0.947 . S
H70 C93 0.948 . S
H71 C99 0.982 . S
H72 C100 0.979 . S
H73 C100 0.980 . S
H74 C100 0.983 . S
H75 C99 0.979 . S
H76 C99 0.977 . S
C77 C65 1.453 1_455 S
C77 H106 0.982 . S
C77 H107 0.979 . S
C77 H108 0.977 . S
C78 C65 1.684 . S
C78 H103 0.979 . S
C78 H104 0.980 . S
C78 H105 0.983 . S
C79 C80 1.391 . S
C79 C84 1.391 . S
C79 H109 0.948 . S
C80 C79 1.391 . S
C80 C81 1.391 . S
C81 C80 1.391 . S
C81 C82 1.392 . S
C81 H110 0.947 . S
C82 C81 1.392 . S
C82 C83 1.419 . S
C82 H111 0.948 . S
C83 C82 1.419 . S
C83 C84 1.391 . S
C83 C87 1.397 1_655 S
C84 C79 1.391 . S
C84 C83 1.391 . S
C84 C85 1.399 . S
C85 C84 1.399 . S
C85 C86 1.396 1_655 S
C85 C88 1.453 1_655 S
C85 C89 1.684 . S
C86 C67 1.723 . S
C86 C85 1.396 1_455 S
C86 C87 1.394 . S
C87 C83 1.397 1_455 S
C87 C86 1.394 . S
C87 C97 1.723 . S
C88 C85 1.453 1_455 S
C88 H112 0.982 . S
C88 H113 0.979 . S
C88 H114 0.977 . S
C89 C85 1.684 . S
C89 H115 0.979 . S
C89 H116 0.980 . S
C89 H117 0.983 . S
C90 H66 0.948 . S
C90 C91 1.391 . S
C90 C95 1.391 . S
C91 C90 1.391 . S
C91 C92 1.391 . S
C92 H69 0.947 . S
C92 C91 1.391 . S
C92 C93 1.392 . S
C93 H70 0.948 . S
C93 C92 1.392 . S
C93 C94 1.419 . S
C94 C93 1.419 . S
C94 C95 1.391 . S
C94 C98 1.397 1_655 S
C95 C90 1.391 . S
C95 C94 1.391 . S
C95 C96 1.399 . S
C96 C95 1.399 . S
C96 C97 1.396 1_655 S
C96 C99 1.453 1_655 S
C96 C100 1.684 . S
C97 C87 1.723 . S
C97 C96 1.396 1_455 S
C97 C98 1.394 . S
C98 C68 1.723 . S
C98 C94 1.397 1_455 S
C98 C97 1.394 . S
C99 H71 0.982 . S
C99 H75 0.979 . S
C99 H76 0.977 . S
C99 C96 1.453 1_455 S
C100 H72 0.979 . S
C100 H73 0.980 . S
C100 H74 0.983 . S
C100 C96 1.684 . S
H101 C119 0.948 . S
H102 C60 0.948 . S
H103 C78 0.979 . S
H104 C78 0.980 . S
H105 C78 0.983 . S
H106 C77 0.982 . S
H107 C77 0.979 . S
H108 C77 0.977 . S
H109 C79 0.948 . S
H110 C81 0.947 . S
H111 C82 0.948 . S
H112 C88 0.982 . S
H113 C88 0.979 . S
H114 C88 0.977 . S
H115 C89 0.979 . S
H116 C89 0.980 . S
H117 C89 0.983 . S
H118 C62 0.947 . S
C119 C62 1.392 . S
C119 C63 1.419 . S
C119 H101 0.948 . S
C120 C121 1.391 . S
C120 C124 1.391 . S
C120 H162 0.948 . S
C121 C120 1.391 . S
C121 C122 1.391 . S
C122 C121 1.391 . S
C122 H178 0.947 . S
C122 C179 1.392 . S
C123 C124 1.391 . S
C123 C127 1.397 1_565 S
C123 C179 1.419 . S
C124 C120 1.391 . S
C124 C123 1.391 . S
C124 C125 1.399 . S
C125 C124 1.399 . S
C125 C128 1.396 1_565 S
C125 C137 1.453 1_565 S
C125 C138 1.684 . S
H126 C150 0.948 . S
C127 C123 1.397 1_545 S
C127 C128 1.394 . S
C127 C146 1.723 . S
C128 C125 1.396 1_545 S
C128 C127 1.394 . S
C128 C158 1.723 . S
H129 C152 0.947 . S
H130 C153 0.948 . S
H131 C159 0.982 . S
H132 C160 0.979 . S
H133 C160 0.980 . S
H134 C160 0.983 . S
H135 C159 0.979 . S
H136 C159 0.977 . S
C137 C125 1.453 1_545 S
C137 H166 0.982 . S
C137 H167 0.979 . S
C137 H168 0.977 . S
C138 C125 1.684 . S
C138 H163 0.979 . S
C138 H164 0.980 . S
C138 H165 0.983 . S
C139 C140 1.391 . S
C139 C144 1.391 . S
C139 H169 0.948 . S
C140 C139 1.391 . S
C140 C141 1.391 . S
C141 C140 1.391 . S
C141 C142 1.392 . S
C141 H170 0.947 . S
C142 C141 1.392 . S
C142 C143 1.419 . S
C142 H171 0.948 . S
C143 C142 1.419 . S
C143 C144 1.391 . S
C143 C147 1.397 1_565 S
C144 C139 1.391 . S
C144 C143 1.391 . S
C144 C145 1.399 . S
C145 C144 1.399 . S
C145 C146 1.396 1_565 S
C145 C148 1.453 1_565 S
C145 C149 1.684 . S
C146 C127 1.723 . S
C146 C145 1.396 1_545 S
C146 C147 1.394 . S
C147 C143 1.397 1_545 S
C147 C146 1.394 . S
C147 C157 1.723 . S
C148 C145 1.453 1_545 S
C148 H172 0.982 . S
C148 H173 0.979 . S
C148 H174 0.977 . S
C149 C145 1.684 . S
C149 H175 0.979 . S
C149 H176 0.980 . S
C149 H177 0.983 . S
C150 H126 0.948 . S
C150 C151 1.391 . S
C150 C155 1.391 . S
C151 C150 1.391 . S
C151 C152 1.391 . S
C152 H129 0.947 . S
C152 C151 1.391 . S
C152 C153 1.392 . S
C153 H130 0.948 . S
C153 C152 1.392 . S
C153 C154 1.419 . S
C154 C153 1.419 . S
C154 C155 1.391 . S
C154 C158 1.397 1_565 S
C155 C150 1.391 . S
C155 C154 1.391 . S
C155 C156 1.399 . S
C156 C155 1.399 . S
C156 C157 1.396 1_565 S
C156 C159 1.453 1_565 S
C156 C160 1.684 . S
C157 C147 1.723 . S
C157 C156 1.396 1_545 S
C157 C158 1.394 . S
C158 C128 1.723 . S
C158 C154 1.397 1_545 S
C158 C157 1.394 . S
C159 H131 0.982 . S
C159 H135 0.979 . S
C159 H136 0.977 . S
C159 C156 1.453 1_545 S
C160 H132 0.979 . S
C160 H133 0.980 . S
C160 H134 0.983 . S
C160 C156 1.684 . S
H161 C179 0.948 . S
H162 C120 0.948 . S
H163 C138 0.979 . S
H164 C138 0.980 . S
H165 C138 0.983 . S
H166 C137 0.982 . S
H167 C137 0.979 . S
H168 C137 0.977 . S
H169 C139 0.948 . S
H170 C141 0.947 . S
H171 C142 0.948 . S
H172 C148 0.982 . S
H173 C148 0.979 . S
H174 C148 0.977 . S
H175 C149 0.979 . S
H176 C149 0.980 . S
H177 C149 0.983 . S
H178 C122 0.947 . S
C179 C122 1.392 . S
C179 C123 1.419 . S
C179 H161 0.948 . S
C180 C181 1.391 . S
C180 C184 1.391 . S
C180 H222 0.948 . S
C181 C180 1.391 . S
C181 C182 1.391 . S
C182 C181 1.391 . S
C182 H238 0.947 . S
C182 C239 1.392 . S
C183 C184 1.391 . S
C183 C187 1.397 . S
C183 C239 1.419 . S
C184 C180 1.391 . S
C184 C183 1.391 . S
C184 C185 1.399 . S
C185 C184 1.399 . S
C185 C188 1.396 . S
C185 C197 1.453 . S
C185 C198 1.684 . S
H186 C210 0.948 . S
C187 C183 1.397 . S
C187 C188 1.394 . S
C187 C206 1.723 . S
C188 C185 1.396 . S
C188 C187 1.394 . S
C188 C218 1.723 . S
H189 C212 0.947 . S
H190 C213 0.948 . S
H191 C219 0.982 . S
H192 C220 0.979 . S
H193 C220 0.980 . S
H194 C220 0.983 . S
H195 C219 0.979 . S
H196 C219 0.977 . S
C197 C185 1.453 . S
C197 H226 0.982 . S
C197 H227 0.979 . S
C197 H228 0.977 . S
C198 C185 1.684 . S
C198 H223 0.979 . S
C198 H224 0.980 . S
C198 H225 0.983 . S
C199 C200 1.391 . S
C199 C204 1.391 . S
C199 H229 0.948 . S
C200 C199 1.391 . S
C200 C201 1.391 . S
C201 C200 1.391 . S
C201 C202 1.392 . S
C201 H230 0.947 . S
C202 C201 1.392 . S
C202 C203 1.419 . S
C202 H231 0.948 . S
C203 C202 1.419 . S
C203 C204 1.391 . S
C203 C207 1.397 . S
C204 C199 1.391 . S
C204 C203 1.391 . S
C204 C205 1.399 . S
C205 C204 1.399 . S
C205 C206 1.396 . S
C205 C208 1.453 . S
C205 C209 1.684 . S
C206 C187 1.723 . S
C206 C205 1.396 . S
C206 C207 1.394 . S
C207 C203 1.397 . S
C207 C206 1.394 . S
C207 C217 1.723 . S
C208 C205 1.453 . S
C208 H232 0.982 . S
C208 H233 0.979 . S
C208 H234 0.977 . S
C209 C205 1.684 . S
C209 H235 0.979 . S
C209 H236 0.980 . S
C209 H237 0.983 . S
C210 H186 0.948 . S
C210 C211 1.391 . S
C210 C215 1.391 . S
C211 C210 1.391 . S
C211 C212 1.391 . S
C212 H189 0.947 . S
C212 C211 1.391 . S
C212 C213 1.392 . S
C213 H190 0.948 . S
C213 C212 1.392 . S
C213 C214 1.419 . S
C214 C213 1.419 . S
C214 C215 1.391 . S
C214 C218 1.397 . S
C215 C210 1.391 . S
C215 C214 1.391 . S
C215 C216 1.399 . S
C216 C215 1.399 . S
C216 C217 1.396 . S
C216 C219 1.453 . S
C216 C220 1.684 . S
C217 C207 1.723 . S
C217 C216 1.396 . S
C217 C218 1.394 . S
C218 C188 1.723 . S
C218 C214 1.397 . S
C218 C217 1.394 . S
C219 H191 0.982 . S
C219 H195 0.979 . S
C219 H196 0.977 . S
C219 C216 1.453 . S
C220 H192 0.979 . S
C220 H193 0.980 . S
C220 H194 0.983 . S
C220 C216 1.684 . S
H221 C239 0.948 . S
H222 C180 0.948 . S
H223 C198 0.979 . S
H224 C198 0.980 . S
H225 C198 0.983 . S
H226 C197 0.982 . S
H227 C197 0.979 . S
H228 C197 0.977 . S
H229 C199 0.948 . S
H230 C201 0.947 . S
H231 C202 0.948 . S
H232 C208 0.982 . S
H233 C208 0.979 . S
H234 C208 0.977 . S
H235 C209 0.979 . S
H236 C209 0.980 . S
H237 C209 0.983 . S
H238 C182 0.947 . S
C239 C182 1.392 . S
C239 C183 1.419 . S
C239 H221 0.948 . S
C240 C241 1.391 . S
C240 C244 1.391 . S
C240 H282 0.947 1_554 S
C241 C240 1.391 . S
C241 C242 1.391 . S
C242 C241 1.391 . S
C242 H298 0.947 . S
C242 C299 1.392 . S
C243 C244 1.391 . S
C243 C247 1.397 . S
C243 C299 1.419 . S
C244 C240 1.391 . S
C244 C243 1.391 . S
C244 C245 1.399 1_554 S
C245 C244 1.399 1_556 S
C245 C248 1.396 . S
C245 C257 1.453 . S
C245 C258 1.684 . S
H246 C270 0.948 . S
C247 C243 1.397 . S
C247 C248 1.394 1_554 S
C247 C266 1.723 . S
C248 C245 1.396 . S
C248 C247 1.394 1_556 S
C248 C278 1.723 . S
H249 C272 0.947 . S
H250 C273 0.948 . S
H251 C279 0.982 . S
H252 C280 0.979 . S
H253 C280 0.980 . S
H254 C280 0.983 . S
H255 C279 0.979 . S
H256 C279 0.977 1_554 S
C257 C245 1.453 . S
C257 H286 0.982 . S
C257 H287 0.979 . S
C257 H288 0.977 . S
C258 C245 1.684 . S
C258 H283 0.979 . S
C258 H284 0.980 . S
C258 H285 0.983 . S
C259 C260 1.391 . S
C259 C264 1.391 . S
C259 H289 0.948 . S
C260 C259 1.391 . S
C260 C261 1.391 . S
C261 C260 1.391 . S
C261 C262 1.392 . S
C261 H290 0.947 . S
C262 C261 1.392 . S
C262 C263 1.419 . S
C262 H291 0.948 . S
C263 C262 1.419 . S
C263 C264 1.391 . S
C263 C267 1.397 . S
C264 C259 1.391 . S
C264 C263 1.391 . S
C264 C265 1.399 . S
C265 C264 1.399 . S
C265 C266 1.396 . S
C265 C268 1.453 . S
C265 C269 1.684 . S
C266 C247 1.723 . S
C266 C265 1.396 . S
C266 C267 1.394 . S
C267 C263 1.397 . S
C267 C266 1.394 . S
C267 C277 1.723 1_554 S
C268 C265 1.453 . S
C268 H292 0.982 . S
C268 H293 0.979 . S
C268 H294 0.977 . S
C269 C265 1.684 . S
C269 H295 0.979 . S
C269 H296 0.980 . S
C269 H297 0.983 . S
C270 H246 0.948 . S
C270 C271 1.391 . S
C270 C275 1.391 . S
C271 C270 1.391 . S
C271 C272 1.391 . S
C272 H249 0.947 . S
C272 C271 1.391 . S
C272 C273 1.392 . S
C273 H250 0.948 . S
C273 C272 1.392 . S
C273 C274 1.419 . S
C274 C273 1.419 . S
C274 C275 1.391 . S
C274 C278 1.397 . S
C275 C270 1.391 . S
C275 C274 1.391 . S
C275 C276 1.399 . S
C276 C275 1.399 . S
C276 C277 1.396 . S
C276 C279 1.453 . S
C276 C280 1.684 . S
C277 C267 1.723 1_556 S
C277 C276 1.396 . S
C277 C278 1.394 . S
C278 C248 1.723 . S
C278 C274 1.397 . S
C278 C277 1.394 . S
C279 H251 0.982 . S
C279 H255 0.979 . S
C279 H256 0.977 1_556 S
C279 C276 1.453 . S
C280 H252 0.979 . S
C280 H253 0.980 . S
C280 H254 0.983 . S
C280 C276 1.684 . S
H281 C299 0.948 . S
H282 C240 0.947 1_556 S
H283 C258 0.979 . S
H284 C258 0.980 . S
H285 C258 0.983 . S
H286 C257 0.982 . S
H287 C257 0.979 . S
H288 C257 0.977 . S
H289 C259 0.948 . S
H290 C261 0.947 . S
H291 C262 0.948 . S
H292 C268 0.982 . S
H293 C268 0.979 . S
H294 C268 0.977 . S
H295 C269 0.979 . S
H296 C269 0.980 . S
H297 C269 0.983 . S
H298 C242 0.947 . S
C299 C242 1.392 . S
C299 C243 1.419 . S
C299 H281 0.948 . S
C300 C301 1.391 . S
C300 C304 1.391 . S
C300 H342 0.948 . S
C301 C300 1.391 . S
C301 C302 1.391 . S
C302 C301 1.391 . S
C302 H358 0.947 . S
C302 C359 1.392 . S
C303 C304 1.391 . S
C303 C307 1.396 1_655 S
C303 C359 1.419 . S
C304 C300 1.391 . S
C304 C303 1.391 . S
C304 C305 1.399 . S
C305 C304 1.399 . S
C305 C308 1.396 1_655 S
C305 C317 1.453 1_655 S
C305 C318 1.684 . S
H306 C330 0.948 . S
C307 C303 1.396 1_455 S
C307 C308 1.395 . S
C307 C326 1.723 1_554 S
C308 C305 1.396 1_455 S
C308 C307 1.395 . S
C308 C338 1.723 . S
H309 C332 0.947 . S
H310 C333 0.948 . S
H311 C339 0.982 . S
H312 C340 0.979 . S
H313 C340 0.980 . S
H314 C340 0.983 . S
H315 C339 0.979 . S
H316 C339 0.977 . S
C317 C305 1.453 1_455 S
C317 H346 0.982 . S
C317 H347 0.979 . S
C317 H348 0.977 . S
C318 C305 1.684 . S
C318 H343 0.979 . S
C318 H344 0.980 . S
C318 H345 0.983 . S
C319 C320 1.391 . S
C319 C324 1.391 . S
C319 H349 0.948 . S
C320 C319 1.391 . S
C320 C321 1.391 . S
C321 C320 1.391 . S
C321 C322 1.392 . S
C321 H350 0.947 . S
C322 C321 1.392 . S
C322 C323 1.419 . S
C322 H351 0.948 . S
C323 C322 1.419 . S
C323 C324 1.391 . S
C323 C327 1.396 1_655 S
C324 C319 1.391 . S
C324 C323 1.391 . S
C324 C325 1.399 . S
C325 C324 1.399 . S
C325 C326 1.396 1_655 S
C325 C328 1.453 1_655 S
C325 C329 1.684 . S
C326 C307 1.723 1_556 S
C326 C325 1.396 1_455 S
C326 C327 1.395 . S
C327 C323 1.396 1_455 S
C327 C326 1.395 . S
C327 C337 1.723 . S
C328 C325 1.453 1_455 S
C328 H352 0.982 . S
C328 H353 0.979 . S
C328 H354 0.977 1_556 S
C329 C325 1.684 . S
C329 H355 0.979 . S
C329 H356 0.980 1_556 S
C329 H357 0.983 . S
C330 H306 0.948 . S
C330 C331 1.391 . S
C330 C335 1.391 . S
C331 C330 1.391 . S
C331 C332 1.391 . S
C332 H309 0.947 . S
C332 C331 1.391 . S
C332 C333 1.392 . S
C333 H310 0.948 . S
C333 C332 1.392 . S
C333 C334 1.419 . S
C334 C333 1.419 . S
C334 C335 1.391 . S
C334 C338 1.396 1_655 S
C335 C330 1.391 . S
C335 C334 1.391 . S
C335 C336 1.399 1_554 S
C336 C335 1.399 1_556 S
C336 C337 1.396 1_655 S
C336 C339 1.453 1_655 S
C336 C340 1.684 . S
C337 C327 1.723 . S
C337 C336 1.396 1_455 S
C337 C338 1.395 1_556 S
C338 C308 1.723 . S
C338 C334 1.396 1_455 S
C338 C337 1.395 1_554 S
C339 H311 0.982 . S
C339 H315 0.979 . S
C339 H316 0.977 . S
C339 C336 1.453 1_455 S
C340 H312 0.979 . S
C340 H313 0.980 . S
C340 H314 0.983 . S
C340 C336 1.684 . S
H341 C359 0.948 . S
H342 C300 0.948 . S
H343 C318 0.979 . S
H344 C318 0.980 . S
H345 C318 0.983 . S
H346 C317 0.982 . S
H347 C317 0.979 . S
H348 C317 0.977 . S
H349 C319 0.948 . S
H350 C321 0.947 . S
H351 C322 0.948 . S
H352 C328 0.982 . S
H353 C328 0.979 . S
H354 C328 0.977 1_554 S
H355 C329 0.979 . S
H356 C329 0.980 1_554 S
H357 C329 0.983 . S
H358 C302 0.947 . S
C359 C302 1.392 . S
C359 C303 1.419 . S
C359 H341 0.948 . S
C360 C361 1.391 . S
C360 C364 1.391 . S
C360 H402 0.948 . S
C361 C360 1.391 . S
C361 C362 1.391 . S
C362 C361 1.391 . S
C362 H418 0.947 . S
C362 C419 1.392 . S
C363 C364 1.391 . S
C363 C367 1.397 1_545 S
C363 C419 1.419 . S
C364 C360 1.391 . S
C364 C363 1.391 . S
C364 C365 1.399 . S
C365 C364 1.399 . S
C365 C368 1.396 1_545 S
C365 C377 1.453 1_545 S
C365 C378 1.684 . S
H366 C390 0.948 . S
C367 C363 1.397 1_565 S
C367 C368 1.394 . S
C367 C386 1.723 1_556 S
C368 C365 1.396 1_565 S
C368 C367 1.394 . S
C368 C398 1.723 1_556 S
H369 C392 0.947 1_556 S
H370 C393 0.948 . S
H371 C399 0.982 . S
H372 C400 0.979 . S
H373 C400 0.980 . S
H374 C400 0.983 . S
H375 C399 0.979 . S
H376 C399 0.977 . S
C377 C365 1.453 1_565 S
C377 H406 0.982 . S
C377 H407 0.979 . S
C377 H408 0.977 . S
C378 C365 1.684 . S
C378 H403 0.979 . S
C378 H404 0.980 . S
C378 H405 0.983 . S
C379 C380 1.391 . S
C379 C384 1.391 . S
C379 H409 0.948 . S
C380 C379 1.391 . S
C380 C381 1.391 . S
C381 C380 1.391 . S
C381 C382 1.392 . S
C381 H410 0.947 . S
C382 C381 1.392 . S
C382 C383 1.419 . S
C382 H411 0.948 . S
C383 C382 1.419 . S
C383 C384 1.391 . S
C383 C387 1.397 1_545 S
C384 C379 1.391 . S
C384 C383 1.391 . S
C384 C385 1.399 . S
C385 C384 1.399 . S
C385 C386 1.396 1_545 S
C385 C388 1.453 1_545 S
C385 C389 1.684 . S
C386 C367 1.723 1_554 S
C386 C385 1.396 1_565 S
C386 C387 1.394 . S
C387 C383 1.397 1_565 S
C387 C386 1.394 . S
C387 C397 1.723 . S
C388 C385 1.453 1_565 S
C388 H412 0.982 . S
C388 H413 0.979 . S
C388 H414 0.977 1_554 S
C389 C385 1.684 . S
C389 H415 0.979 . S
C389 H416 0.980 1_554 S
C389 H417 0.983 . S
C390 H366 0.948 . S
C390 C391 1.391 . S
C390 C395 1.391 . S
C391 C390 1.391 . S
C391 C392 1.391 . S
C392 H369 0.947 1_554 S
C392 C391 1.391 . S
C392 C393 1.392 1_554 S
C393 H370 0.948 . S
C393 C392 1.392 1_556 S
C393 C394 1.419 1_556 S
C394 C393 1.419 1_554 S
C394 C395 1.391 . S
C394 C398 1.397 1_545 S
C395 C390 1.391 . S
C395 C394 1.391 . S
C395 C396 1.399 . S
C396 C395 1.399 . S
C396 C397 1.396 1_545 S
C396 C399 1.453 1_545 S
C396 C400 1.684 . S
C397 C387 1.723 . S
C397 C396 1.396 1_565 S
C397 C398 1.394 . S
C398 C368 1.723 1_554 S
C398 C394 1.397 1_565 S
C398 C397 1.394 . S
C399 H371 0.982 . S
C399 H375 0.979 . S
C399 H376 0.977 . S
C399 C396 1.453 1_565 S
C400 H372 0.979 . S
C400 H373 0.980 . S
C400 H374 0.983 . S
C400 C396 1.684 . S
H401 C419 0.948 . S
H402 C360 0.948 . S
H403 C378 0.979 . S
H404 C378 0.980 . S
H405 C378 0.983 . S
H406 C377 0.982 . S
H407 C377 0.979 . S
H408 C377 0.977 . S
H409 C379 0.948 . S
H410 C381 0.947 . S
H411 C382 0.948 . S
H412 C388 0.982 . S
H413 C388 0.979 . S
H414 C388 0.977 1_556 S
H415 C389 0.979 . S
H416 C389 0.980 1_556 S
H417 C389 0.983 . S
H418 C362 0.947 . S
C419 C362 1.392 . S
C419 C363 1.419 . S
C419 H401 0.948 . S
C420 C421 1.391 . S
C420 C424 1.391 . S
C420 H462 0.948 . S
C421 C420 1.391 . S
C421 C422 1.391 . S
C422 C421 1.391 . S
C422 H478 0.947 . S
C422 C479 1.392 . S
C423 C424 1.391 . S
C423 C427 1.397 . S
C423 C479 1.419 . S
C424 C420 1.391 . S
C424 C423 1.391 . S
C424 C425 1.399 . S
C425 C424 1.399 . S
C425 C428 1.396 . S
C425 C437 1.453 . S
C425 C438 1.684 . S
H426 C450 0.948 . S
C427 C423 1.397 . S
C427 C428 1.394 . S
C427 C446 1.723 1_556 S
C428 C425 1.396 . S
C428 C427 1.394 . S
C428 C458 1.723 1_556 S
H429 C452 0.947 1_556 S
H430 C453 0.948 . S
H431 C459 0.982 . S
H432 C460 0.979 . S
H433 C460 0.980 . S
H434 C460 0.983 . S
H435 C459 0.979 . S
H436 C459 0.977 . S
C437 C425 1.453 . S
C437 H466 0.982 . S
C437 H467 0.979 . S
C437 H468 0.977 . S
C438 C425 1.684 . S
C438 H463 0.979 . S
C438 H464 0.980 . S
C438 H465 0.983 . S
C439 C440 1.391 . S
C439 C444 1.391 . S
C439 H469 0.948 . S
C440 C439 1.391 . S
C440 C441 1.391 . S
C441 C440 1.391 . S
C441 C442 1.392 . S
C441 H470 0.947 . S
C442 C441 1.392 . S
C442 C443 1.419 . S
C442 H471 0.948 . S
C443 C442 1.419 . S
C443 C444 1.391 . S
C443 C447 1.397 . S
C444 C439 1.391 . S
C444 C443 1.391 . S
C444 C445 1.399 . S
C445 C444 1.399 . S
C445 C446 1.396 . S
C445 C448 1.453 . S
C445 C449 1.684 . S
C446 C427 1.723 1_554 S
C446 C445 1.396 . S
C446 C447 1.394 . S
C447 C443 1.397 . S
C447 C446 1.394 . S
C447 C457 1.723 . S
C448 C445 1.453 . S
C448 H472 0.982 . S
C448 H473 0.979 . S
C448 H474 0.977 1_554 S
C449 C445 1.684 . S
C449 H475 0.979 . S
C449 H476 0.980 1_554 S
C449 H477 0.983 . S
C450 H426 0.948 . S
C450 C451 1.391 . S
C450 C455 1.391 . S
C451 C450 1.391 . S
C451 C452 1.391 . S
C452 H429 0.947 1_554 S
C452 C451 1.391 . S
C452 C453 1.392 1_554 S
C453 H430 0.948 . S
C453 C452 1.392 1_556 S
C453 C454 1.419 1_556 S
C454 C453 1.419 1_554 S
C454 C455 1.391 . S
C454 C458 1.397 . S
C455 C450 1.391 . S
C455 C454 1.391 . S
C455 C456 1.399 . S
C456 C455 1.399 . S
C456 C457 1.396 . S
C456 C459 1.453 . S
C456 C460 1.684 . S
C457 C447 1.723 . S
C457 C456 1.396 . S
C457 C458 1.394 . S
C458 C428 1.723 1_554 S
C458 C454 1.397 . S
C458 C457 1.394 . S
C459 H431 0.982 . S
C459 H435 0.979 . S
C459 H436 0.977 . S
C459 C456 1.453 . S
C460 H432 0.979 . S
C460 H433 0.980 . S
C460 H434 0.983 . S
C460 C456 1.684 . S
H461 C479 0.948 . S
H462 C420 0.948 . S
H463 C438 0.979 . S
H464 C438 0.980 . S
H465 C438 0.983 . S
H466 C437 0.982 . S
H467 C437 0.979 . S
H468 C437 0.977 . S
H469 C439 0.948 . S
H470 C441 0.947 . S
H471 C442 0.948 . S
H472 C448 0.982 . S
H473 C448 0.979 . S
H474 C448 0.977 1_556 S
H475 C449 0.979 . S
H476 C449 0.980 1_556 S
H477 C449 0.983 . S
H478 C422 0.947 . S
C479 C422 1.392 . S
C479 C423 1.419 . S
C479 H461 0.948 . S
Ho480 C483 2.811 . S
Ho480 O500 2.322 . S
Ho480 O502 2.378 . S
Ho480 O503 2.524 . S
Ho480 O504 2.381 . S
Ho480 O505 2.669 1_565 S
Ho480 O507 2.346 1_565 S
Ho480 O511 2.305 1_455 S
Ho481 C492 2.811 . S
Ho481 O501 2.346 1_545 S
Ho481 O505 2.305 1_655 S
Ho481 O506 2.322 . S
Ho481 O508 2.378 . S
Ho481 O509 2.524 . S
Ho481 O510 2.381 . S
Ho481 O511 2.669 1_545 S
C482 O500 1.259 1_655 S
C482 O501 1.268 . S
C483 Ho480 2.811 . S
C483 C484 1.488 . S
C483 O502 1.215 . S
C483 O503 1.289 . S
C484 C483 1.488 . S
C484 C485 1.348 1_556 S
C484 C489 1.413 . S
C485 C484 1.348 1_554 S
C485 C486 1.442 . S
C485 H512 0.930 1_454 S
C486 C485 1.442 . S
C486 C487 1.381 . S
C486 H513 0.931 . S
C487 C486 1.381 . S
C487 C488 1.321 . S
C488 C487 1.321 . S
C488 C489 1.403 1_554 S
C488 H514 0.934 . S
C489 C484 1.413 . S
C489 C488 1.403 1_556 S
C489 H515 0.930 . S
C490 O504 1.275 . S
C490 O505 1.256 1_565 S
C491 O506 1.259 1_455 S
C491 O507 1.268 . S
C492 Ho481 2.811 . S
C492 C493 1.488 . S
C492 O508 1.215 . S
C492 O509 1.289 . S
C493 C492 1.488 . S
C493 C494 1.348 . S
C493 C498 1.413 . S
C494 C493 1.348 . S
C494 C495 1.442 . S
C494 H516 0.930 1_655 S
C495 C494 1.442 . S
C495 C496 1.381 . S
C495 H517 0.931 . S
C496 C495 1.381 . S
C496 C497 1.321 . S
C497 C496 1.321 . S
C497 C498 1.403 . S
C497 H518 0.934 . S
C498 C493 1.413 . S
C498 C497 1.403 . S
C498 H519 0.930 . S
C499 O510 1.275 . S
C499 O511 1.256 1_545 S
O500 Ho480 2.322 . S
O500 C482 1.259 1_455 S
O501 Ho481 2.346 1_565 S
O501 C482 1.268 . S
O502 Ho480 2.378 . S
O502 C483 1.215 . S
O503 Ho480 2.524 . S
O503 C483 1.289 . S
O504 Ho480 2.381 . S
O504 C490 1.275 . S
O505 Ho480 2.669 1_545 S
O505 Ho481 2.305 1_455 S
O505 C490 1.256 1_545 S
O506 Ho481 2.322 . S
O506 C491 1.259 1_655 S
O507 Ho480 2.346 1_545 S
O507 C491 1.268 . S
O508 Ho481 2.378 . S
O508 C492 1.215 . S
O509 Ho481 2.524 . S
O509 C492 1.289 . S
O510 Ho481 2.381 . S
O510 C499 1.275 . S
O511 Ho480 2.305 1_655 S
O511 Ho481 2.669 1_565 S
O511 C499 1.256 1_565 S
H512 C485 0.930 1_656 S
H513 C486 0.931 . S
H514 C488 0.934 . S
H515 C489 0.930 . S
H516 C494 0.930 1_455 S
H517 C495 0.931 . S
H518 C497 0.934 . S
H519 C498 0.930 . S
Ho520 C523 2.811 . S
Ho520 O540 2.322 . S
Ho520 O542 2.378 . S
Ho520 O543 2.524 . S
Ho520 O544 2.381 . S
Ho520 O545 2.669 . S
Ho520 O547 2.346 . S
Ho520 O551 2.305 1_545 S
Ho521 C532 2.811 . S
Ho521 O541 2.346 . S
Ho521 O545 2.305 1_565 S
Ho521 O546 2.322 . S
Ho521 O548 2.378 . S
Ho521 O549 2.524 . S
Ho521 O550 2.381 . S
Ho521 O551 2.669 . S
C522 O540 1.259 1_565 S
C522 O541 1.268 . S
C523 Ho520 2.811 . S
C523 C524 1.488 . S
C523 O542 1.215 . S
C523 O543 1.289 . S
C524 C523 1.488 . S
C524 C525 1.348 1_556 S
C524 C529 1.413 . S
C525 C524 1.348 1_554 S
C525 C526 1.442 . S
C525 H552 0.930 1_544 S
C526 C525 1.442 . S
C526 C527 1.381 . S
C526 H553 0.931 . S
C527 C526 1.381 . S
C527 C528 1.321 . S
C528 C527 1.321 . S
C528 C529 1.403 1_554 S
C528 H554 0.934 . S
C529 C524 1.413 . S
C529 C528 1.403 1_556 S
C529 H555 0.930 . S
C530 O544 1.275 . S
C530 O545 1.256 . S
C531 O546 1.259 1_545 S
C531 O547 1.268 . S
C532 Ho521 2.811 . S
C532 C533 1.488 . S
C532 O548 1.215 . S
C532 O549 1.289 . S
C533 C532 1.488 . S
C533 C534 1.348 . S
C533 C538 1.413 . S
C534 C533 1.348 . S
C534 C535 1.442 . S
C534 H556 0.930 1_565 S
C535 C534 1.442 . S
C535 C536 1.381 . S
C535 H557 0.931 . S
C536 C535 1.381 . S
C536 C537 1.321 . S
C537 C536 1.321 . S
C537 C538 1.403 . S
C537 H558 0.934 . S
C538 C533 1.413 . S
C538 C537 1.403 . S
C538 H559 0.930 . S
C539 O550 1.275 . S
C539 O551 1.256 . S
O540 Ho520 2.322 . S
O540 C522 1.259 1_545 S
O541 Ho521 2.346 . S
O541 C522 1.268 . S
O542 Ho520 2.378 . S
O542 C523 1.215 . S
O543 Ho520 2.524 . S
O543 C523 1.289 . S
O544 Ho520 2.381 . S
O544 C530 1.275 . S
O545 Ho520 2.669 . S
O545 Ho521 2.305 1_545 S
O545 C530 1.256 . S
O546 Ho521 2.322 . S
O546 C531 1.259 1_565 S
O547 Ho520 2.346 . S
O547 C531 1.268 . S
O548 Ho521 2.378 . S
O548 C532 1.215 . S
O549 Ho521 2.524 . S
O549 C532 1.289 . S
O550 Ho521 2.381 . S
O550 C539 1.275 . S
O551 Ho520 2.305 1_565 S
O551 Ho521 2.669 . S
O551 C539 1.256 . S
H552 C525 0.930 1_566 S
H553 C526 0.931 . S
H554 C528 0.934 . S
H555 C529 0.930 . S
H556 C534 0.930 1_545 S
H557 C535 0.931 . S
H558 C537 0.934 . S
H559 C538 0.930 . S
Ho560 C563 2.811 . S
Ho560 O580 2.322 . S
Ho560 O582 2.378 . S
Ho560 O583 2.524 . S
Ho560 O584 2.381 . S
Ho560 O585 2.669 . S
Ho560 O587 2.346 . S
Ho560 O591 2.305 . S
Ho561 C572 2.811 . S
Ho561 O581 2.346 . S
Ho561 O585 2.305 . S
Ho561 O586 2.322 . S
Ho561 O588 2.378 . S
Ho561 O589 2.524 . S
Ho561 O590 2.381 . S
Ho561 O591 2.669 . S
C562 O580 1.259 . S
C562 O581 1.268 . S
C563 Ho560 2.811 . S
C563 C564 1.488 . S
C563 O582 1.215 . S
C563 O583 1.289 . S
C564 C563 1.488 . S
C564 C565 1.348 1_556 S
C564 C569 1.413 . S
C565 C564 1.348 1_554 S
C565 C566 1.442 . S
C565 H592 0.930 . S
C566 C565 1.442 . S
C566 C567 1.381 . S
C566 H593 0.931 . S
C567 C566 1.381 . S
C567 C568 1.321 . S
C568 C567 1.321 . S
C568 C569 1.403 1_554 S
C568 H594 0.934 . S
C569 C564 1.413 . S
C569 C568 1.403 1_556 S
C569 H595 0.930 . S
C570 O584 1.275 . S
C570 O585 1.256 . S
C571 O586 1.259 . S
C571 O587 1.268 . S
C572 Ho561 2.811 . S
C572 C573 1.488 . S
C572 O588 1.215 . S
C572 O589 1.289 . S
C573 C572 1.488 . S
C573 C574 1.348 . S
C573 C578 1.413 . S
C574 C573 1.348 . S
C574 C575 1.442 . S
C574 H596 0.930 . S
C575 C574 1.442 . S
C575 C576 1.381 . S
C575 H597 0.931 . S
C576 C575 1.381 . S
C576 C577 1.321 . S
C577 C576 1.321 . S
C577 C578 1.403 . S
C577 H598 0.934 . S
C578 C573 1.413 . S
C578 C577 1.403 . S
C578 H599 0.930 . S
C579 O590 1.275 . S
C579 O591 1.256 . S
O580 Ho560 2.322 . S
O580 C562 1.259 . S
O581 Ho561 2.346 . S
O581 C562 1.268 . S
O582 Ho560 2.378 . S
O582 C563 1.215 . S
O583 Ho560 2.524 . S
O583 C563 1.289 . S
O584 Ho560 2.381 . S
O584 C570 1.275 . S
O585 Ho560 2.669 . S
O585 Ho561 2.305 . S
O585 C570 1.256 . S
O586 Ho561 2.322 . S
O586 C571 1.259 . S
O587 Ho560 2.346 . S
O587 C571 1.268 . S
O588 Ho561 2.378 . S
O588 C572 1.215 . S
O589 Ho561 2.524 . S
O589 C572 1.289 . S
O590 Ho561 2.381 . S
O590 C579 1.275 . S
O591 Ho560 2.305 . S
O591 Ho561 2.669 . S
O591 C579 1.256 . S
H592 C565 0.930 . S
H593 C566 0.931 . S
H594 C568 0.934 . S
H595 C569 0.930 . S
H596 C574 0.930 . S
H597 C575 0.931 . S
H598 C577 0.934 . S
H599 C578 0.930 . S
Ho600 C603 2.811 . S
Ho600 O620 2.322 . S
Ho600 O622 2.378 . S
Ho600 O623 2.524 . S
Ho600 O624 2.381 . S
Ho600 O625 2.669 1_655 S
Ho600 O627 2.346 1_655 S
Ho600 O631 2.305 . S
Ho601 C612 2.811 . S
Ho601 O621 2.346 1_455 S
Ho601 O625 2.305 . S
Ho601 O626 2.322 . S
Ho601 O628 2.378 . S
Ho601 O629 2.524 . S
Ho601 O630 2.381 . S
Ho601 O631 2.669 1_455 S
C602 O620 1.259 . S
C602 O621 1.268 . S
C603 Ho600 2.811 . S
C603 C604 1.488 . S
C603 O622 1.215 . S
C603 O623 1.289 . S
C604 C603 1.488 . S
C604 C605 1.348 1_556 S
C604 C609 1.413 . S
C605 C604 1.348 1_554 S
C605 C606 1.442 . S
C605 H632 0.930 . S
C606 C605 1.442 . S
C606 C607 1.381 . S
C606 H633 0.931 . S
C607 C606 1.381 . S
C607 C608 1.321 . S
C608 C607 1.321 . S
C608 C609 1.403 1_554 S
C608 H634 0.934 . S
C609 C604 1.413 . S
C609 C608 1.403 1_556 S
C609 H635 0.930 . S
C610 O624 1.281 . S
C610 O625 1.252 1_655 S
C611 O626 1.259 . S
C611 O627 1.268 . S
C612 Ho601 2.811 . S
C612 C613 1.488 . S
C612 O628 1.215 . S
C612 O629 1.289 . S
C613 C612 1.488 . S
C613 C614 1.348 . S
C613 C618 1.413 . S
C614 C613 1.348 . S
C614 C615 1.442 . S
C614 H636 0.930 . S
C615 C614 1.442 . S
C615 C616 1.381 . S
C615 H637 0.931 . S
C616 C615 1.381 . S
C616 C617 1.321 . S
C617 C616 1.321 . S
C617 C618 1.403 . S
C617 H638 0.934 . S
C618 C613 1.413 . S
C618 C617 1.403 . S
C618 H639 0.930 . S
C619 O630 1.286 . S
C619 O631 1.250 1_455 S
O620 Ho600 2.322 . S
O620 C602 1.259 . S
O621 Ho601 2.346 1_655 S
O621 C602 1.268 . S
O622 Ho600 2.378 . S
O622 C603 1.215 . S
O623 Ho600 2.524 . S
O623 C603 1.289 . S
O624 Ho600 2.381 . S
O624 C610 1.281 . S
O625 Ho600 2.669 1_455 S
O625 Ho601 2.305 . S
O625 C610 1.252 1_455 S
O626 Ho601 2.322 . S
O626 C611 1.259 . S
O627 Ho600 2.346 1_455 S
O627 C611 1.268 . S
O628 Ho601 2.378 . S
O628 C612 1.215 . S
O629 Ho601 2.524 . S
O629 C612 1.289 . S
O630 Ho601 2.381 . S
O630 C619 1.286 . S
O631 Ho600 2.305 . S
O631 Ho601 2.669 1_655 S
O631 C619 1.250 1_655 S
H632 C605 0.930 . S
H633 C606 0.931 . S
H634 C608 0.934 . S
H635 C609 0.930 . S
H636 C614 0.930 . S
H637 C615 0.931 . S
H638 C617 0.934 . S
H639 C618 0.930 . S
C640 C641 1.371 1_565 S
C640 H644 0.950 . S
C640 C649 1.390 . S
C641 C640 1.371 1_545 S
C641 C643 1.405 . S
H642 C649 0.950 . S
C643 C641 1.405 . S
C643 C645 1.390 . S
C643 H647 0.950 . S
H644 C640 0.950 . S
C645 C643 1.390 . S
C645 C646 1.387 . S
C645 H648 0.950 . S
C646 C645 1.387 . S
C646 C649 1.387 1_545 S
H647 C643 0.950 . S
H648 C645 0.950 . S
C649 C640 1.390 . S
C649 H642 0.950 . S
C649 C646 1.387 1_565 S
C650 C651 1.387 . S
C650 H654 0.950 . S
C650 C659 1.390 . S
C651 C650 1.387 . S
C651 C653 1.387 . S
H652 C659 0.950 . S
C653 C651 1.387 . S
C653 C655 1.390 . S
C653 H657 0.950 . S
H654 C650 0.950 . S
C655 C653 1.390 . S
C655 C656 1.387 . S
C655 H658 0.950 . S
C656 C655 1.387 . S
C656 C659 1.387 . S
H657 C653 0.950 . S
H658 C655 0.950 . S
C659 C650 1.390 . S
C659 H652 0.950 . S
C659 C656 1.387 . S
C660 C661 1.387 . S
C660 H664 0.950 . S
C660 C669 1.390 . S
C661 C660 1.387 . S
C661 C663 1.387 . S
H662 C669 0.950 . S
C663 C661 1.387 . S
C663 C665 1.390 . S
C663 H667 0.950 . S
H664 C660 0.950 . S
C665 C663 1.390 . S
C665 C666 1.387 . S
C665 H668 0.950 . S
C666 C665 1.387 . S
C666 C669 1.387 . S
H667 C663 0.950 . S
H668 C665 0.950 . S
C669 C660 1.390 . S
C669 H662 0.950 . S
C669 C666 1.387 . S
C670 C671 1.418 . S
C670 H674 0.950 . S
C670 C679 1.390 . S
C671 C670 1.418 . S
C671 C673 1.358 1_455 S
H672 C679 0.950 . S
C673 C671 1.358 1_655 S
C673 C675 1.390 . S
C673 H677 0.950 . S
H674 C670 0.950 . S
C675 C673 1.390 . S
C675 C676 1.387 1_655 S
C675 H678 0.950 . S
C676 C675 1.387 1_455 S
C676 C679 1.387 . S
H677 C673 0.950 . S
H678 C675 0.950 . S
C679 C670 1.390 . S
C679 H672 0.950 . S
C679 C676 1.387 . S
C680 C681 1.378 1_545 S
C680 H684 0.950 . S
C680 C689 1.390 . S
C681 C680 1.378 1_565 S
C681 C683 1.397 . S
H682 C689 0.950 . S
C683 C681 1.397 . S
C683 C685 1.390 . S
C683 H687 0.950 . S
H684 C680 0.950 . S
C685 C683 1.390 . S
C685 C686 1.419 . S
C685 H688 0.950 . S
C686 C685 1.419 . S
C686 C689 1.355 1_565 S
H687 C683 0.950 . S
H688 C685 0.950 . S
C689 C680 1.390 . S
C689 H682 0.950 . S
C689 C686 1.355 1_545 S
C690 C691 1.387 . S
C690 H694 0.950 . S
C690 C699 1.390 . S
C691 C690 1.387 . S
C691 C693 1.387 . S
H692 C699 0.950 . S
C693 C691 1.387 . S
C693 C695 1.390 . S
C693 H697 0.950 . S
H694 C690 0.950 . S
C695 C693 1.390 . S
C695 C696 1.387 . S
C695 H698 0.950 . S
C696 C695 1.387 . S
C696 C699 1.387 . S
H697 C693 0.950 . S
H698 C695 0.950 . S
C699 C690 1.390 . S
C699 H692 0.950 . S
C699 C696 1.387 . S
C700 C701 1.387 . S
C700 H704 0.950 . S
C700 C709 1.390 . S
C701 C700 1.387 . S
C701 C703 1.387 . S
H702 C709 0.950 . S
C703 C701 1.387 . S
C703 C705 1.390 . S
C703 H707 0.950 . S
H704 C700 0.950 . S
C705 C703 1.390 . S
C705 C706 1.387 . S
C705 H708 0.950 . S
C706 C705 1.387 . S
C706 C709 1.387 . S
H707 C703 0.950 . S
H708 C705 0.950 . S
C709 C700 1.390 . S
C709 H702 0.950 . S
C709 C706 1.387 . S
C710 C711 1.411 . S
C710 H714 0.950 . S
C710 C719 1.390 . S
C711 C710 1.411 . S
C711 C713 1.365 1_655 S
H712 C719 0.950 . S
C713 C711 1.365 1_455 S
C713 C715 1.390 . S
C713 H717 0.950 . S
H714 C710 0.950 . S
C715 C713 1.390 . S
C715 C716 1.387 1_455 S
C715 H718 0.950 . S
C716 C715 1.387 1_655 S
C716 C719 1.387 . S
H717 C713 0.950 . S
H718 C715 0.950 . S
C719 C710 1.390 . S
C719 H712 0.950 . S
C719 C716 1.387 . S
C720 C721 1.387 . S
C720 H724 0.950 . S
C720 C729 1.390 . S
C721 C720 1.387 . S
C721 C723 1.387 . S
H722 C729 0.950 . S
C723 C721 1.387 . S
C723 C725 1.390 . S
C723 H727 0.950 . S
H724 C720 0.950 . S
C725 C723 1.390 . S
C725 C726 1.387 . S
C725 H728 0.950 . S
C726 C725 1.387 . S
C726 C729 1.387 . S
H727 C723 0.950 . S
H728 C725 0.950 . S
C729 C720 1.390 . S
C729 H722 0.950 . S
C729 C726 1.387 . S
C730 C731 1.387 . S
C730 H734 0.950 1_565 S
C730 C739 1.390 . S
C731 C730 1.387 . S
C731 C733 1.387 . S
H732 C739 0.950 . S
C733 C731 1.387 . S
C733 C735 1.390 . S
C733 H737 0.950 . S
H734 C730 0.950 1_545 S
C735 C733 1.390 . S
C735 C736 1.387 . S
C735 H738 0.950 . S
C736 C735 1.387 . S
C736 C739 1.387 . S
H737 C733 0.950 . S
H738 C735 0.950 . S
C739 C730 1.390 . S
C739 H732 0.950 . S
C739 C736 1.387 . S
C740 C741 1.387 . S
C740 H744 0.950 . S
C740 C749 1.390 . S
C741 C740 1.387 . S
C741 C743 1.387 . S
H742 C749 0.950 . S
C743 C741 1.387 . S
C743 C745 1.390 . S
C743 H747 0.950 . S
H744 C740 0.950 . S
C745 C743 1.390 . S
C745 C746 1.387 . S
C745 H748 0.950 . S
C746 C745 1.387 . S
C746 C749 1.387 . S
H747 C743 0.950 . S
H748 C745 0.950 . S
C749 C740 1.390 . S
C749 H742 0.950 . S
C749 C746 1.387 . S
C750 C751 1.387 . S
C750 H754 0.950 . S
C750 C759 1.390 . S
C751 C750 1.387 . S
C751 C753 1.387 . S
H752 C759 0.950 . S
C753 C751 1.387 . S
C753 C755 1.390 . S
C753 H757 0.950 . S
H754 C750 0.950 . S
C755 C753 1.390 . S
C755 C756 1.387 . S
C755 H758 0.950 . S
C756 C755 1.387 . S
C756 C759 1.387 . S
H757 C753 0.950 . S
H758 C755 0.950 . S
C759 C750 1.390 . S
C759 H752 0.950 . S
C759 C756 1.387 . S
C760 C761 1.387 . S
C760 H764 0.950 1_554 S
C760 C769 1.390 . S
C761 C760 1.387 . S
C761 C763 1.387 . S
H762 C769 0.950 1_556 S
C763 C761 1.387 . S
C763 C765 1.390 . S
C763 H767 0.955 . S
H764 C760 0.950 1_556 S
C765 C763 1.390 . S
C765 C766 1.387 . S
C765 H768 0.950 . S
C766 C765 1.387 . S
C766 C769 1.387 . S
H767 C763 0.955 . S
H768 C765 0.950 . S
C769 C760 1.390 . S
C769 H762 0.950 1_554 S
C769 C766 1.387 . S
C770 C771 1.387 . S
C770 H774 0.950 1_544 S
C770 C779 1.390 . S
C771 C770 1.387 . S
C771 C773 1.387 . S
H772 C779 0.950 1_556 S
C773 C771 1.387 . S
C773 C775 1.390 . S
C773 H777 0.950 . S
H774 C770 0.950 1_566 S
C775 C773 1.390 . S
C775 C776 1.387 . S
C775 H778 0.950 . S
C776 C775 1.387 . S
C776 C779 1.387 . S
H777 C773 0.950 . S
H778 C775 0.950 . S
C779 C770 1.390 . S
C779 H772 0.950 1_554 S
C779 C776 1.387 . S
C780 C781 1.387 . S
C780 H784 0.950 1_554 S
C780 C789 1.390 . S
C781 C780 1.387 . S
C781 C783 1.387 . S
H782 C789 0.950 1_556 S
C783 C781 1.387 . S
C783 C785 1.390 . S
C783 H787 0.950 . S
H784 C780 0.950 1_556 S
C785 C783 1.390 . S
C785 C786 1.387 . S
C785 H788 0.950 . S
C786 C785 1.387 . S
C786 C789 1.387 . S
H787 C783 0.950 . S
H788 C785 0.950 . S
C789 C780 1.390 . S
C789 H782 0.950 1_554 S
C789 C786 1.387 . S
C790 C791 1.387 . S
C790 H794 0.950 . S
C790 C799 1.390 . S
C791 C790 1.387 . S
C791 C793 1.387 . S
H792 C799 0.950 . S
C793 C791 1.387 . S
C793 C795 1.390 . S
C793 H797 0.950 1_554 S
H794 C790 0.950 . S
C795 C793 1.390 . S
C795 C796 1.387 . S
C795 H798 0.950 1_554 S
C796 C795 1.387 . S
C796 C799 1.387 . S
H797 C793 0.950 1_556 S
H798 C795 0.950 1_556 S
C799 C790 1.390 . S
C799 H792 0.950 . S
C799 C796 1.387 . S
C800 C801 1.387 . S
C800 H804 0.950 . S
C800 C809 1.390 . S
C801 C800 1.387 . S
C801 C803 1.387 1_455 S
H802 C809 0.950 . S
C803 C801 1.387 1_655 S
C803 C805 1.390 . S
C803 H807 0.950 . S
H804 C800 0.950 . S
C805 C803 1.390 . S
C805 C806 1.387 1_655 S
C805 H808 0.950 . S
C806 C805 1.387 1_455 S
C806 C809 1.387 . S
H807 C803 0.950 . S
H808 C805 0.950 . S
C809 C800 1.390 . S
C809 H802 0.950 . S
C809 C806 1.387 . S
C810 C811 1.387 . S
C810 H814 0.950 . S
C810 C819 1.390 . S
C811 C810 1.387 . S
C811 C813 1.387 1_545 S
H812 C819 0.950 . S
C813 C811 1.387 1_565 S
C813 C815 1.390 . S
C813 H817 0.950 . S
H814 C810 0.950 . S
C815 C813 1.390 . S
C815 C816 1.387 1_565 S
C815 H818 0.950 . S
C816 C815 1.387 1_545 S
C816 C819 1.387 . S
H817 C813 0.950 . S
H818 C815 0.950 . S
C819 C810 1.390 . S
C819 H812 0.950 . S
C819 C816 1.387 . S
C820 C821 1.387 . S
C820 H824 0.950 . S
C820 C829 1.390 . S
C821 C820 1.387 . S
C821 C823 1.387 . S
H822 C829 0.950 . S
C823 C821 1.387 . S
C823 C825 1.390 . S
C823 H827 0.950 . S
H824 C820 0.950 . S
C825 C823 1.390 . S
C825 C826 1.387 . S
C825 H828 0.950 . S
C826 C825 1.387 . S
C826 C829 1.387 . S
H827 C823 0.950 . S
H828 C825 0.950 . S
C829 C820 1.390 . S
C829 H822 0.950 . S
C829 C826 1.387 . S
C830 C831 1.387 . S
C830 H834 0.950 . S
C830 C839 1.390 . S
C831 C830 1.387 . S
C831 C833 1.387 . S
H832 C839 0.950 . S
C833 C831 1.387 . S
C833 C835 1.390 . S
C833 H837 0.950 . S
H834 C830 0.950 . S
C835 C833 1.390 . S
C835 C836 1.387 . S
C835 H838 0.950 . S
C836 C835 1.387 . S
C836 C839 1.387 . S
H837 C833 0.950 . S
H838 C835 0.950 . S
C839 C830 1.390 . S
C839 H832 0.950 . S
C839 C836 1.387 . S
C840 C841 1.387 . S
C840 H844 0.950 1_655 S
C840 C849 1.390 . S
C841 C840 1.387 . S
C841 C843 1.387 . S
H842 C849 0.950 . S
C843 C841 1.387 . S
C843 C845 1.390 . S
C843 H847 0.950 . S
H844 C840 0.950 1_455 S
C845 C843 1.390 . S
C845 C846 1.387 . S
C845 H848 0.950 . S
C846 C845 1.387 . S
C846 C849 1.387 . S
H847 C843 0.950 . S
H848 C845 0.950 . S
C849 C840 1.390 . S
C849 H842 0.950 . S
C849 C846 1.387 . S
C850 C851 1.387 . S
C850 H854 0.950 . S
C850 C859 1.390 . S
C851 C850 1.387 . S
C851 C853 1.387 1_565 S
H852 C859 0.950 . S
C853 C851 1.387 1_545 S
C853 C855 1.390 . S
C853 H857 0.950 . S
H854 C850 0.950 . S
C855 C853 1.390 . S
C855 C856 1.387 1_545 S
C855 H858 0.950 . S
C856 C855 1.387 1_565 S
C856 C859 1.387 . S
H857 C853 0.950 . S
H858 C855 0.950 . S
C859 C850 1.390 . S
C859 H852 0.950 . S
C859 C856 1.387 . S
C860 C861 1.387 . S
C860 H864 0.950 . S
C860 C869 1.390 . S
C861 C860 1.387 . S
C861 C863 1.387 . S
H862 C869 0.950 . S
C863 C861 1.387 . S
C863 C865 1.390 . S
C863 H867 0.950 . S
H864 C860 0.950 . S
C865 C863 1.390 . S
C865 C866 1.387 . S
C865 H868 0.950 . S
C866 C865 1.387 . S
C866 C869 1.387 . S
H867 C863 0.950 . S
H868 C865 0.950 . S
C869 C860 1.390 . S
C869 H862 0.950 . S
C869 C866 1.387 . S
C870 C871 1.387 . S
C870 H874 0.950 . S
C870 C879 1.390 . S
C871 C870 1.387 . S
C871 C873 1.387 . S
H872 C879 0.950 . S
C873 C871 1.387 . S
C873 C875 1.390 . S
C873 H877 0.950 . S
H874 C870 0.950 . S
C875 C873 1.390 . S
C875 C876 1.387 . S
C875 H878 0.950 . S
C876 C875 1.387 . S
C876 C879 1.387 . S
H877 C873 0.950 . S
H878 C875 0.950 . S
C879 C870 1.390 . S
C879 H872 0.950 . S
C879 C876 1.387 . S
C641 C391 2.670 . S
C646 C490 2.845 1_545 S
C656 C530 2.859 . S
C651 C451 2.676 . S
C666 C570 2.863 . S
C661 C241 2.331 . S
C676 C610 2.848 1_455 S
C671 C331 2.304 1_455 S
C686 C499 2.843 1_564 S
C681 C121 2.300 . S
C691 C211 2.693 . S
C696 C539 2.861 1_554 S
C701 C31 2.698 . S
C706 C579 2.863 1_554 S
C711 C91 2.307 . S
C716 C619 2.849 1_654 S
C726 C496 0.818 . S
C721 C301 0.793 . S
C736 C536 0.814 . S
C731 C380 0.841 1_565 S
C746 C576 0.789 . S
C741 C440 0.805 . S
C751 C260 0.774 . S
C756 C616 0.780 . S
C761 C61 0.821 1_455 S
C766 C487 0.812 . S
C776 C527 0.807 . S
C771 C140 0.821 1_545 S
C786 C567 0.780 . S
C781 C200 0.782 . S
C791 C20 0.793 . S
C796 C607 0.794 . S
C801 C320 3.441 1_455 S
C806 C491 3.762 . S
C811 C361 2.958 . S
C816 C531 3.740 . S
C826 C571 3.734 . S
C821 C421 2.947 . S
C836 C611 3.760 . S
C831 C271 3.435 . S
C841 C80 3.419 . S
C846 C482 3.771 . S
C856 C522 3.739 . S
C851 C151 3.390 . S
C866 C562 3.734 . S
C861 C181 2.985 . S
C871 C1 3.011 . S
C876 C602 3.765 . S
