# Generated by pormake.
# Topology pth, (4,4)-cn, num edge types: 1
# Building blocks:
#     Node 0, Type 0, BuildingBlock: CEKHIL_clean_sbu_0, # of connection points: 4
#     Node 1, Type 0, BuildingBlock: CEKHIL_clean_sbu_0, # of connection points: 4
#     Node 2, Type 0, BuildingBlock: CEKHIL_clean_sbu_0, # of connection points: 4
#     Node 3, Type 1, BuildingBlock: MIFKUJ_clean_linker_1, # of connection points: 4
#     Node 4, Type 1, BuildingBlock: MIFKUJ_clean_linker_1, # of connection points: 4
#     Node 5, Type 1, BuildingBlock: MIFKUJ_clean_linker_1, # of connection points: 4
#     Edge 6, Type (0, 1), BuildingBlock: TEMPAE_clean_linker_10, # of connection points: 2
#     Edge 7, Type (0, 1), BuildingBlock: TEMPAE_clean_linker_10, # of connection points: 2
#     Edge 8, Type (0, 1), BuildingBlock: TEMPAE_clean_linker_10, # of connection points: 2
#     Edge 9, Type (0, 1), BuildingBlock: TEMPAE_clean_linker_10, # of connection points: 2
#     Edge 10, Type (0, 1), BuildingBlock: TEMPAE_clean_linker_10, # of connection points: 2
#     Edge 11, Type (0, 1), BuildingBlock: TEMPAE_clean_linker_10, # of connection points: 2
#     Edge 12, Type (0, 1), BuildingBlock: TEMPAE_clean_linker_10, # of connection points: 2
#     Edge 13, Type (0, 1), BuildingBlock: TEMPAE_clean_linker_10, # of connection points: 2
#     Edge 14, Type (0, 1), BuildingBlock: TEMPAE_clean_linker_10, # of connection points: 2
#     Edge 15, Type (0, 1), BuildingBlock: TEMPAE_clean_linker_10, # of connection points: 2
#     Edge 16, Type (0, 1), BuildingBlock: TEMPAE_clean_linker_10, # of connection points: 2
#     Edge 17, Type (0, 1), BuildingBlock: TEMPAE_clean_linker_10, # of connection points: 2
# Relax obj value: 0.014
# Max RMSD: 0.063
# Mean RMSD: 0.055
data_MOF--net-pth--node1-CEKHIL_clean_sbu_0--node2-MIFKUJ_clean_linker_1--edge1-TEMPAE_clean_linker_10
_symmetry_space_group_name_H-M    P1
_symmetry_Int_Tables_number       1
_symmetry_cell_setting            triclinic
loop_
_symmetry_equiv_pos_as_xyz
'x, y, z'
_cell_length_a     29.445681
_cell_length_b     29.529201
_cell_length_c     65.171553
_cell_angle_alpha  90.796379
_cell_angle_beta   89.996102
_cell_angle_gamma 120.26375
loop_
_atom_site_label
_atom_site_type_symbol
_atom_site_fract_x
_atom_site_fract_y
_atom_site_fract_z
_atom_type_partial_charge
Co0 Co 0.01563 0.02748 0.05762 0.0
O1 O 0.98543 0.97596 0.07868 0.0
O2 O 0.05163 0.98757 0.05902 0.0
C3 C 0.02067 0.09384 0.07703 0.0
O4 O 0.05853 0.07896 0.03515 0.0
Co5 Co 0.9536 0.0788 0.04128 0.0
O6 O 0.02074 0.12652 0.02738 0.0
C7 C 0.9215 0.97076 0.02882 0.0
C8 C 0.02014 0.96287 0.07411 0.0
C9 C 0.05821 0.11688 0.02566 0.0
O10 O 0.96409 0.97624 0.03668 0.0
O11 O 0.90725 0.00497 0.03081 0.0
O12 O 0.05703 0.08135 0.07822 0.0
O13 O 0.98068 0.06326 0.06557 0.0
Co14 Co 0.01434 0.03599 0.37607 0.0
O15 O 0.98086 0.05633 0.35578 0.0
O16 O 0.05007 0.11179 0.37445 0.0
C17 C 0.01734 0.97417 0.35632 0.0
O18 O 0.06105 0.02972 0.39778 0.0
Co19 Co 0.95783 0.92352 0.39322 0.0
O20 O 0.02568 0.94552 0.40708 0.0
C21 C 0.92827 0.99963 0.40841 0.0
C22 C 0.01612 0.1045 0.36013 0.0
C23 C 0.0625 0.99323 0.40788 0.0
O24 O 0.96505 0.03596 0.39773 0.0
O25 O 0.91736 0.95184 0.40789 0.0
O26 O 0.05322 0.02323 0.35481 0.0
O27 O 0.97876 0.96444 0.36842 0.0
Co28 Co 0.00785 0.01987 0.70913 0.0
O29 O 0.06392 0.05505 0.68974 0.0
O30 O 0.04899 0.98545 0.70746 0.0
C31 C 0.94417 0.01647 0.68874 0.0
O32 O 0.95309 0.97159 0.72986 0.0
Co33 Co 0.94717 0.07175 0.72663 0.0
O34 O 0.8971 0.00051 0.73644 0.0
C35 C 0.05341 0.10464 0.74267 0.0
C36 C 0.07683 0.02009 0.69379 0.0
C37 C 0.91059 0.96592 0.73794 0.0
O38 O 0.05473 0.06871 0.7317 0.0
O39 O 0.0153 0.1138 0.74206 0.0
O40 O 0.95842 0.98155 0.68689 0.0
O41 O 0.97127 0.05429 0.7017 0.0
H42 H 0.10855 0.50728 0.1801 0.0
H43 H 0.10724 0.4384 0.15846 0.0
H44 H 0.95817 0.32534 0.1845 0.0
H45 H 0.95999 0.39443 0.20625 0.0
H46 H 0.04106 0.54162 0.17914 0.0
H47 H 0.09951 0.46547 0.22978 0.0
H48 H 0.10022 0.40078 0.25262 0.0
H49 H 0.95315 0.37168 0.2787 0.0
H50 H 0.95276 0.43645 0.2559 0.0
H51 H 0.95361 0.56761 0.25597 0.0
H52 H 0.9528 0.63524 0.27784 0.0
H53 H 0.0888 0.75444 0.24648 0.0
H54 H 0.09176 0.68669 0.22536 0.0
H55 H 0.01926 0.53746 0.25459 0.0
H56 H 0.95673 0.6079 0.20121 0.0
H57 H 0.95733 0.67312 0.17811 0.0
H58 H 0.11197 0.71236 0.15725 0.0
H59 H 0.11121 0.64729 0.18035 0.0
C60 C 0.03456 0.45599 0.19489 0.0
C61 C 0.07578 0.46757 0.18126 0.0
C62 C 0.07482 0.42822 0.16881 0.0
C63 C 0.03242 0.37645 0.16965 0.0
C64 C 0.99167 0.36469 0.18364 0.0
C65 C 0.99268 0.40414 0.19611 0.0
C66 C 0.03361 0.49888 0.20665 0.0
C67 C 0.03693 0.54106 0.1957 0.0
C68 C 0.02695 0.49745 0.22818 0.0
C69 C 0.0259 0.45566 0.241 0.0
C70 C 0.06702 0.4446 0.24019 0.0
C71 C 0.06743 0.40764 0.2533 0.0
C72 C 0.02689 0.38125 0.26759 0.0
C73 C 0.98543 0.39192 0.26814 0.0
C74 C 0.98501 0.42876 0.25503 0.0
C75 C 0.02244 0.62182 0.23879 0.0
C76 C 0.98335 0.60825 0.25373 0.0
C77 C 0.98278 0.64678 0.2662 0.0
C78 C 0.02069 0.69974 0.26374 0.0
C79 C 0.05893 0.71374 0.24848 0.0
C80 C 0.06027 0.67505 0.2363 0.0
C81 C 0.02558 0.57987 0.22705 0.0
C82 C 0.02299 0.53792 0.23802 0.0
C83 C 0.03275 0.58139 0.20553 0.0
C84 C 0.03406 0.62299 0.19259 0.0
C85 C 0.99094 0.63094 0.19181 0.0
C86 C 0.99116 0.66785 0.1785 0.0
C87 C 0.03467 0.6977 0.16585 0.0
C88 C 0.0781 0.69023 0.16692 0.0
C89 C 0.07762 0.65296 0.18005 0.0
H90 H 0.63466 0.12393 0.51778 0.0
H91 H 0.70272 0.12472 0.49567 0.0
H92 H 0.64574 0.9624 0.50963 0.0
H93 H 0.57844 0.96198 0.5319 0.0
H94 H 0.5234 0.05493 0.51259 0.0
H95 H 0.65773 0.10226 0.56423 0.0
H96 H 0.72324 0.09683 0.58541 0.0
H97 H 0.60584 0.94038 0.60324 0.0
H98 H 0.54032 0.94669 0.58238 0.0
H99 H 0.41052 0.95079 0.58757 0.0
H100 H 0.34228 0.94527 0.61058 0.0
H101 H 0.35683 0.08507 0.58421 0.0
H102 H 0.42724 0.09258 0.562 0.0
H103 H 0.5061 0.01574 0.58684 0.0
H104 H 0.37623 0.95885 0.53165 0.0
H105 H 0.30932 0.95809 0.50893 0.0
H106 H 0.41286 0.12221 0.49677 0.0
H107 H 0.48027 0.12254 0.51912 0.0
C108 C 0.60178 0.04299 0.52653 0.0
C109 C 0.63723 0.08872 0.5162 0.0
C110 C 0.67606 0.08919 0.50366 0.0
C111 C 0.67919 0.04356 0.50093 0.0
C112 C 0.64387 0.99796 0.5114 0.0
C113 C 0.6057 0.99777 0.52418 0.0
C114 C 0.55879 0.04132 0.53892 0.0
C115 C 0.51993 0.04721 0.52892 0.0
C116 C 0.5535 0.02952 0.56001 0.0
C117 C 0.59418 0.02482 0.57168 0.0
C118 C 0.64631 0.06657 0.57251 0.0
C119 C 0.68375 0.06333 0.58461 0.0
C120 C 0.66983 0.0182 0.59611 0.0
C121 C 0.61775 0.97606 0.59489 0.0
C122 C 0.58029 0.97947 0.58288 0.0
C123 C 0.42402 0.02186 0.57279 0.0
C124 C 0.39914 0.98034 0.58665 0.0
C125 C 0.36011 0.97708 0.59979 0.0
C126 C 0.34444 0.0147 0.59908 0.0
C127 C 0.36797 0.05531 0.58485 0.0
C128 C 0.40789 0.05927 0.57202 0.0
C129 C 0.46947 0.02806 0.56048 0.0
C130 C 0.50917 0.02337 0.57051 0.0
C131 C 0.475 0.03997 0.53932 0.0
C132 C 0.433 0.04081 0.52712 0.0
C133 C 0.3843 0.99475 0.52425 0.0
C134 C 0.34633 0.99429 0.51122 0.0
C135 C 0.35618 0.04009 0.50113 0.0
C136 C 0.40437 0.08652 0.50446 0.0
C137 C 0.44277 0.0867 0.51716 0.0
H138 H 0.47765 0.39402 0.85025 0.0
H139 H 0.40611 0.32689 0.82873 0.0
H140 H 0.3076 0.39052 0.84584 0.0
H141 H 0.37864 0.45668 0.86773 0.0
H142 H 0.52188 0.50712 0.84539 0.0
H143 H 0.43655 0.3715 0.89492 0.0
H144 H 0.36744 0.30671 0.9168 0.0
H145 H 0.34519 0.42858 0.94371 0.0
H146 H 0.41394 0.49309 0.92171 0.0
H147 H 0.5493 0.63131 0.91716 0.0
H148 H 0.61693 0.70192 0.93861 0.0
H149 H 0.72974 0.65802 0.91901 0.0
H150 H 0.66193 0.5876 0.89733 0.0
H151 H 0.51385 0.52494 0.92087 0.0
H152 H 0.5948 0.65975 0.87182 0.0
H153 H 0.66075 0.72661 0.8497 0.0
H154 H 0.68803 0.60982 0.82102 0.0
H155 H 0.62261 0.54303 0.8435 0.0
C156 C 0.4332 0.42999 0.86063 0.0
C157 C 0.44042 0.39307 0.84952 0.0
C158 C 0.39966 0.35481 0.83731 0.0
C159 C 0.35162 0.35383 0.83566 0.0
C160 C 0.34442 0.39071 0.84685 0.0
C161 C 0.38476 0.42824 0.85938 0.0
C162 C 0.47714 0.4723 0.87264 0.0
C163 C 0.52081 0.51061 0.86196 0.0
C164 C 0.47439 0.4774 0.89414 0.0
C165 C 0.43026 0.43724 0.90649 0.0
C166 C 0.41616 0.38416 0.90525 0.0
C167 C 0.37676 0.34714 0.91783 0.0
C168 C 0.35102 0.36254 0.93208 0.0
C169 C 0.36482 0.41558 0.93313 0.0
C170 C 0.40398 0.45247 0.92049 0.0
C171 C 0.6007 0.60441 0.90562 0.0
C172 C 0.58871 0.63718 0.91735 0.0
C173 C 0.62735 0.67756 0.92951 0.0
C174 C 0.67846 0.68532 0.93044 0.0
C175 C 0.69054 0.65265 0.91861 0.0
C176 C 0.65202 0.61271 0.90617 0.0
C177 C 0.55868 0.55996 0.89364 0.0
C178 C 0.51529 0.52127 0.90432 0.0
C179 C 0.56149 0.55483 0.87212 0.0
C180 C 0.60416 0.59631 0.85961 0.0
C181 C 0.61584 0.64863 0.86116 0.0
C182 C 0.65345 0.68687 0.84843 0.0
C183 C 0.67966 0.67351 0.83363 0.0
C184 C 0.66821 0.62124 0.83217 0.0
C185 C 0.63093 0.58308 0.84504 0.0
C186 C 0.06867 0.17165 0.10044 0.0
C187 C 0.0231 0.13758 0.08924 0.0
C188 C 0.07054 0.21139 0.1131 0.0
C189 C 0.02559 0.21688 0.11472 0.0
C190 C 0.97972 0.18308 0.1032 0.0
C191 C 0.97911 0.14395 0.0905 0.0
C192 C 0.12037 0.24705 0.12498 0.0
C193 C 0.93094 0.18758 0.10459 0.0
C194 C 0.01367 0.28473 0.16269 0.0
C195 C 0.03016 0.33528 0.15557 0.0
C196 C 0.01157 0.24569 0.14951 0.0
C197 C 0.02641 0.2575 0.12873 0.0
C198 C 0.04277 0.30832 0.12142 0.0
C199 C 0.04435 0.34654 0.13491 0.0
C200 C 0.99387 0.1919 0.15786 0.0
C201 C 0.05877 0.32237 0.09936 0.0
H202 H 0.10285 0.167 0.09945 0.0
H203 H 0.94372 0.11762 0.08191 0.0
H204 H 0.13426 0.28859 0.12133 0.0
H205 H 0.11245 0.24252 0.14169 0.0
H206 H 0.15238 0.23865 0.12154 0.0
H207 H 0.89892 0.15907 0.09428 0.0
H208 H 0.91633 0.18072 0.12059 0.0
H209 H 0.94033 0.22776 0.10058 0.0
H210 H 0.00313 0.2759 0.17867 0.0
H211 H 0.05623 0.38523 0.12921 0.0
H212 H 0.02594 0.18274 0.15636 0.0
H213 H 0.9598 0.16175 0.14882 0.0
H214 H 0.98246 0.18869 0.17426 0.0
H215 H 0.0924 0.3167 0.09571 0.0
H216 H 0.07024 0.36359 0.09607 0.0
H217 H 0.02588 0.296 0.08894 0.0
C218 C 0.88194 0.04923 0.41649 0.0
C219 C 0.89707 0.01319 0.42229 0.0
C220 C 0.84842 0.05858 0.42897 0.0
C221 C 0.83107 0.03237 0.4479 0.0
C222 C 0.84844 0.99789 0.45421 0.0
C223 C 0.88055 0.98813 0.44119 0.0
C224 C 0.82983 0.09472 0.42151 0.0
C225 C 0.83208 0.97026 0.47451 0.0
C226 C 0.7717 0.08016 0.48869 0.0
C227 C 0.71813 0.04278 0.48674 0.0
C228 C 0.80904 0.07796 0.4759 0.0
C229 C 0.79211 0.03807 0.46059 0.0
C230 C 0.73779 0.00133 0.45816 0.0
C231 C 0.70154 0.00382 0.47141 0.0
C232 C 0.86665 0.11714 0.47925 0.0
C233 C 0.718 0.95875 0.44181 0.0
H234 H 0.89454 0.06845 0.40183 0.0
H235 H 0.89281 0.96074 0.44581 0.0
H236 H 0.78669 0.07198 0.41886 0.0
H237 H 0.83758 0.12522 0.43333 0.0
H238 H 0.84919 0.11429 0.40702 0.0
H239 H 0.85281 0.94851 0.47795 0.0
H240 H 0.84017 0.999 0.48714 0.0
H241 H 0.78914 0.94206 0.47433 0.0
H242 H 0.7845 0.11014 0.50062 0.0
H243 H 0.66 0.97529 0.46976 0.0
H244 H 0.88479 0.13721 0.46472 0.0
H245 H 0.88741 0.0964 0.4841 0.0
H246 H 0.87316 0.14722 0.49113 0.0
H247 H 0.73342 0.97607 0.42659 0.0
H248 H 0.67437 0.93585 0.44093 0.0
H249 H 0.73248 0.9314 0.44505 0.0
C250 C 0.89582 0.88643 0.75728 0.0
C251 C 0.87715 0.91905 0.75049 0.0
C252 C 0.86567 0.84443 0.77044 0.0
C253 C 0.81551 0.83454 0.77681 0.0
C254 C 0.7959 0.8664 0.76954 0.0
C255 C 0.82692 0.90822 0.75655 0.0
C256 C 0.88798 0.81142 0.77792 0.0
C257 C 0.74242 0.85693 0.77578 0.0
C258 C 0.71425 0.70235 0.79813 0.0
C259 C 0.71713 0.71363 0.81924 0.0
C260 C 0.74701 0.7409 0.78418 0.0
C261 C 0.78381 0.79189 0.79151 0.0
C262 C 0.78797 0.80304 0.81287 0.0
C263 C 0.75444 0.76388 0.82645 0.0
C264 C 0.74095 0.72756 0.76152 0.0
C265 C 0.82699 0.85677 0.82134 0.0
H266 H 0.93458 0.89448 0.75275 0.0
H267 H 0.81184 0.93283 0.7513 0.0
H268 H 0.89286 0.81539 0.79485 0.0
H269 H 0.86035 0.76941 0.77432 0.0
H270 H 0.92667 0.82288 0.77095 0.0
H271 H 0.73202 0.88391 0.76813 0.0
H272 H 0.71178 0.81596 0.77196 0.0
H273 H 0.74156 0.86226 0.79264 0.0
H274 H 0.68511 0.66377 0.79243 0.0
H275 H 0.75725 0.77262 0.84277 0.0
H276 H 0.77953 0.73782 0.75481 0.0
H277 H 0.72669 0.75102 0.75352 0.0
H278 H 0.71284 0.68533 0.75841 0.0
H279 H 0.8671 0.86882 0.81581 0.0
H280 H 0.82767 0.85815 0.83839 0.0
H281 H 0.81691 0.88596 0.81574 0.0
C282 C 0.00529 0.91451 0.10663 0.0
C283 C 0.02463 0.92372 0.08653 0.0
C284 C 0.00891 0.87806 0.11904 0.0
C285 C 0.03131 0.84902 0.11102 0.0
C286 C 0.05072 0.85788 0.09067 0.0
C287 C 0.04777 0.89573 0.07873 0.0
C288 C 0.98882 0.87077 0.14078 0.0
C289 C 0.07392 0.82691 0.08148 0.0
C290 C 0.07821 0.78675 0.15011 0.0
C291 C 0.03453 0.736 0.15134 0.0
C292 C 0.07823 0.82362 0.13671 0.0
C293 C 0.03375 0.80917 0.12403 0.0
C294 C 0.99004 0.75757 0.12487 0.0
C295 C 0.99081 0.72174 0.13862 0.0
C296 C 0.12519 0.87849 0.13658 0.0
C297 C 0.94212 0.74043 0.11146 0.0
H298 H 0.98788 0.93649 0.11283 0.0
H299 H 0.0626 0.90267 0.06318 0.0
H300 H 0.95627 0.82991 0.14277 0.0
H301 H 0.02056 0.87746 0.15172 0.0
H302 H 0.9743 0.89787 0.14491 0.0
H303 H 0.08702 0.83825 0.06543 0.0
H304 H 0.10802 0.8328 0.09082 0.0
H305 H 0.04435 0.78442 0.08165 0.0
H306 H 0.11194 0.798 0.16002 0.0
H307 H 0.95727 0.68231 0.13932 0.0
H308 H 0.11321 0.90686 0.1418 0.0
H309 H 0.1404 0.88924 0.12076 0.0
H310 H 0.15755 0.88281 0.14669 0.0
H311 H 0.92267 0.76304 0.11572 0.0
H312 H 0.91306 0.69799 0.11289 0.0
H313 H 0.95383 0.74872 0.09514 0.0
C314 C 0.09963 0.97839 0.43969 0.0
C315 C 0.10772 0.00658 0.42161 0.0
C316 C 0.14174 0.98819 0.45263 0.0
C317 C 0.19356 0.02623 0.4471 0.0
C318 C 0.20202 0.05539 0.42898 0.0
C319 C 0.15881 0.04569 0.41655 0.0
C320 C 0.13079 0.95709 0.47205 0.0
C321 C 0.25679 0.09546 0.42236 0.0
C322 C 0.29742 0.07324 0.48938 0.0
C323 C 0.31674 0.03886 0.48669 0.0
C324 C 0.2581 0.07052 0.47631 0.0
C325 C 0.23867 0.03332 0.45992 0.0
C326 C 0.25965 0.9999 0.45673 0.0
C327 C 0.29797 0.00265 0.47031 0.0
C328 C 0.23597 0.106 0.48051 0.0
C329 C 0.24079 0.96042 0.43921 0.0
H330 H 0.06008 0.94855 0.44378 0.0
H331 H 0.16516 0.06733 0.40252 0.0
H332 H 0.14859 0.9318 0.47104 0.0
H333 H 0.14899 0.98396 0.48545 0.0
H334 H 0.08801 0.93179 0.47489 0.0
H335 H 0.25659 0.11638 0.40836 0.0
H336 H 0.27748 0.12472 0.43485 0.0
H337 H 0.27978 0.07578 0.41922 0.0
H338 H 0.31194 0.10114 0.50211 0.0
H339 H 0.31346 0.97651 0.46811 0.0
H340 H 0.19393 0.08203 0.48475 0.0
H341 H 0.23781 0.12777 0.46651 0.0
H342 H 0.25731 0.1347 0.49314 0.0
H343 H 0.19912 0.92998 0.44163 0.0
H344 H 0.2644 0.94077 0.43774 0.0
H345 H 0.24264 0.97986 0.42453 0.0
C346 C 0.1494 0.15055 0.75152 0.0
C347 C 0.098 0.13738 0.75668 0.0
C348 C 0.19226 0.18458 0.76414 0.0
C349 C 0.18321 0.20462 0.7826 0.0
C350 C 0.13115 0.18984 0.78821 0.0
C351 C 0.08928 0.15702 0.77505 0.0
C352 C 0.24728 0.20041 0.75739 0.0
C353 C 0.11968 0.20926 0.80801 0.0
C354 C 0.28947 0.26158 0.82407 0.0
C355 C 0.30957 0.31547 0.8218 0.0
C356 C 0.24846 0.22491 0.81134 0.0
C357 C 0.22814 0.24277 0.7957 0.0
C358 C 0.2494 0.29732 0.79306 0.0
C359 C 0.28943 0.333 0.80632 0.0
C360 C 0.22602 0.16712 0.81495 0.0
C361 C 0.22963 0.31801 0.77632 0.0
H362 H 0.15627 0.13569 0.73726 0.0
H363 H 0.04951 0.14646 0.77919 0.0
H364 H 0.27011 0.24341 0.75508 0.0
H365 H 0.26784 0.19129 0.76948 0.0
H366 H 0.24756 0.18034 0.74289 0.0
H367 H 0.07682 0.19112 0.81082 0.0
H368 H 0.13793 0.20063 0.82115 0.0
H369 H 0.13714 0.25243 0.80759 0.0
H370 H 0.30501 0.24817 0.83613 0.0
H371 H 0.30545 0.37477 0.80448 0.0
H372 H 0.22861 0.14741 0.80076 0.0
H373 H 0.18376 0.14875 0.81886 0.0
H374 H 0.24672 0.15969 0.82755 0.0
H375 H 0.23171 0.30132 0.76122 0.0
H376 H 0.25254 0.36147 0.77552 0.0
H377 H 0.18779 0.30565 0.779 0.0
C378 C 0.87235 0.97209 0.66253 0.0
C379 C 0.90142 0.01442 0.67609 0.0
C380 C 0.83349 0.97088 0.64966 0.0
C381 C 0.82368 0.01314 0.65031 0.0
C382 C 0.8524 0.05562 0.66418 0.0
C383 C 0.89083 0.05567 0.67696 0.0
C384 C 0.80339 0.92469 0.6352 0.0
C385 C 0.84316 0.10147 0.66528 0.0
C386 C 0.76142 0.03658 0.60357 0.0
C387 C 0.70905 0.01571 0.60978 0.0
C388 C 0.79906 0.03586 0.61658 0.0
C389 C 0.78396 0.01337 0.63623 0.0
C390 C 0.7311 0.99164 0.64251 0.0
C391 C 0.69438 0.99329 0.62927 0.0
C392 C 0.85509 0.05947 0.60934 0.0
C393 C 0.71344 0.96711 0.66331 0.0
H394 H 0.88028 0.94002 0.66182 0.0
H395 H 0.9132 0.08851 0.68739 0.0
H396 H 0.76054 0.90652 0.63789 0.0
H397 H 0.81064 0.93812 0.61909 0.0
H398 H 0.81466 0.89426 0.63701 0.0
H399 H 0.86811 0.13096 0.67717 0.0
H400 H 0.85166 0.12096 0.6502 0.0
H401 H 0.80131 0.08753 0.66875 0.0
H402 H 0.77299 0.05328 0.58845 0.0
H403 H 0.65426 0.9778 0.63436 0.0
H404 H 0.86717 0.02945 0.60943 0.0
H405 H 0.88189 0.09159 0.61998 0.0
H406 H 0.86045 0.07542 0.59362 0.0
H407 H 0.72273 0.93535 0.66517 0.0
H408 H 0.67058 0.95053 0.66564 0.0
H409 H 0.73505 0.99686 0.67556 0.0
C410 C 0.91078 0.91528 0.99811 0.0
C411 C 0.88901 0.92468 0.01561 0.0
C412 C 0.87894 0.87543 0.98394 0.0
C413 C 0.82449 0.84327 0.98782 0.0
C414 C 0.80298 0.85119 0.00605 0.0
C415 C 0.83537 0.89259 0.01953 0.0
C416 C 0.90306 0.86936 0.96441 0.0
C417 C 0.74553 0.8167 0.01108 0.0
C418 C 0.72712 0.77768 0.94386 0.0
C419 C 0.71838 0.72646 0.94425 0.0
C420 C 0.7627 0.81641 0.95758 0.0
C421 C 0.78937 0.80329 0.97233 0.0
C422 C 0.78111 0.75172 0.97264 0.0
C423 C 0.74603 0.71401 0.95844 0.0
C424 C 0.77123 0.87121 0.95646 0.0
C425 C 0.80803 0.73597 0.98835 0.0
H426 H 0.95227 0.94074 0.99503 0.0
H427 H 0.81878 0.90007 0.03313 0.0
H428 H 0.89449 0.82841 0.96252 0.0
H429 H 0.88536 0.87785 0.95103 0.0
H430 H 0.94634 0.89609 0.9641 0.0
H431 H 0.73616 0.82479 0.02675 0.0
H432 H 0.72108 0.82309 0.99985 0.0
H433 H 0.73419 0.77476 0.00992 0.0
H434 H 0.70603 0.7874 0.93277 0.0
H435 H 0.73887 0.67424 0.95888 0.0
H436 H 0.81379 0.90012 0.95506 0.0
H437 H 0.75744 0.88092 0.9708 0.0
H438 H 0.75002 0.8758 0.94329 0.0
H439 H 0.85128 0.76195 0.98754 0.0
H440 H 0.79849 0.6947 0.98618 0.0
H441 H 0.7959 0.74064 0.004 0.0
C442 C 0.06613 0.94194 0.33506 0.0
C443 C 0.01897 0.93268 0.344 0.0
C444 C 0.06773 0.90381 0.32247 0.0
C445 C 0.02079 0.85583 0.31836 0.0
C446 C 0.97312 0.84618 0.32747 0.0
C447 C 0.97292 0.88453 0.34039 0.0
C448 C 0.11956 0.91502 0.31344 0.0
C449 C 0.92209 0.79589 0.32318 0.0
C450 C 0.01555 0.78072 0.2697 0.0
C451 C 0.0213 0.74005 0.27759 0.0
C452 C 0.01479 0.81845 0.28283 0.0
C453 C 0.02136 0.81604 0.30426 0.0
C454 C 0.02817 0.77544 0.31222 0.0
C455 C 0.02736 0.73748 0.29878 0.0
C456 C 0.0063 0.86045 0.27382 0.0
C457 C 0.03658 0.77227 0.33489 0.0
H458 H 0.10187 0.97905 0.33793 0.0
H459 H 0.93632 0.87739 0.34719 0.0
H460 H 0.12768 0.88335 0.31742 0.0
H461 H 0.11763 0.91577 0.29646 0.0
H462 H 0.15289 0.95309 0.31899 0.0
H463 H 0.88844 0.79446 0.33147 0.0
H464 H 0.91332 0.7917 0.30647 0.0
H465 H 0.92559 0.76172 0.32773 0.0
H466 H 0.0106 0.78233 0.25329 0.0
H467 H 0.03219 0.70609 0.30479 0.0
H468 H 0.04048 0.89976 0.27742 0.0
H469 H 0.97119 0.85895 0.28079 0.0
H470 H 0.00069 0.85615 0.2569 0.0
H471 H 0.07117 0.80937 0.34041 0.0
H472 H 0.04295 0.73921 0.3385 0.0
H473 H 0.00201 0.76729 0.34358 0.0
C474 C 0.16067 0.06455 0.67431 0.0
C475 C 0.11918 0.01838 0.68229 0.0
C476 C 0.19884 0.0633 0.6618 0.0
C477 C 0.19441 0.01449 0.65661 0.0
C478 C 0.15296 0.96776 0.6649 0.0
C479 C 0.11623 0.97037 0.67792 0.0
C480 C 0.2433 0.11415 0.6538 0.0
C481 C 0.14618 0.91488 0.65936 0.0
C482 C 0.25959 0.01136 0.60664 0.0
C483 C 0.30516 0.01282 0.61375 0.0
C484 C 0.22247 0.01036 0.62045 0.0
C485 C 0.232 0.01236 0.64186 0.0
C486 C 0.27817 0.01398 0.64908 0.0
C487 C 0.3139 0.01353 0.63492 0.0
C488 C 0.17319 0.00742 0.61212 0.0
C489 C 0.29044 0.01751 0.67174 0.0
H490 H 0.16313 0.10174 0.67779 0.0
H491 H 0.08383 0.93458 0.68392 0.0
H492 H 0.28164 0.11705 0.65717 0.0
H493 H 0.23982 0.11519 0.63689 0.0
H494 H 0.24354 0.14895 0.66063 0.0
H495 H 0.11286 0.88244 0.66759 0.0
H496 H 0.13903 0.90758 0.6426 0.0
H497 H 0.1826 0.91415 0.66298 0.0
H498 H 0.25281 0.01051 0.59025 0.0
H499 H 0.34947 0.0151 0.64037 0.0
H500 H 0.17255 0.04355 0.61647 0.0
H501 H 0.13795 0.97386 0.61894 0.0
H502 H 0.17019 0.00289 0.59514 0.0
H503 H 0.29351 0.05373 0.67842 0.0
H504 H 0.32778 0.01797 0.67484 0.0
H505 H 0.25812 0.98385 0.67979 0.0
C506 C 0.14724 0.1453 0.01046 0.0
C507 C 0.10258 0.15066 0.01189 0.0
C508 C 0.1893 0.17771 0.99757 0.0
C509 C 0.18657 0.21622 0.98577 0.0
C510 C 0.14149 0.22152 0.98703 0.0
C511 C 0.10025 0.18887 1.00005 0.0
C512 C 0.23683 0.17104 0.99669 0.0
C513 C 0.1369 0.26197 0.97467 0.0
C514 C 0.31 0.33642 0.96684 0.0
C515 C 0.31041 0.32374 0.94603 0.0
C516 C 0.27091 0.30111 0.98008 0.0
C517 C 0.23104 0.25189 0.97235 0.0
C518 C 0.23188 0.23833 0.95147 0.0
C519 C 0.27162 0.27436 0.93857 0.0
C520 C 0.27164 0.317 1.00226 0.0
C521 C 0.18992 0.18638 0.9426 0.0
H522 H 0.14958 0.11603 0.01952 0.0
H523 H 0.06601 0.19342 1.0009 0.0
H524 H 0.24347 0.16268 0.98067 0.0
H525 H 0.27239 0.208 1.00167 0.0
H526 H 0.23262 0.13881 0.00658 0.0
H527 H 0.09877 0.26039 0.97707 0.0
H528 H 0.16916 0.30185 0.97896 0.0
H529 H 0.14094 0.25594 0.95808 0.0
H530 H 0.34039 0.37413 0.9728 0.0
H531 H 0.27146 0.26443 0.92249 0.0
H532 H 0.27049 0.28677 0.01251 0.0
H533 H 0.23617 0.31986 0.0055 0.0
H534 H 0.30703 0.35532 0.00615 0.0
H535 H 0.18672 0.15369 0.95187 0.0
H536 H 0.19795 0.18044 0.92643 0.0
H537 H 0.15122 0.18425 0.94318 0.0
C538 C 0.06453 0.19736 0.34803 0.0
C539 C 0.01836 0.14826 0.34848 0.0
C540 C 0.06807 0.23743 0.3355 0.0
C541 C 0.02413 0.22834 0.32343 0.0
C542 C 0.97693 0.17935 0.32437 0.0
C543 C 0.97477 0.13984 0.33676 0.0
C544 C 0.11922 0.28897 0.33475 0.0
C545 C 0.92892 0.16831 0.31202 0.0
C546 C 0.01402 0.34272 0.30268 0.0
C547 C 0.02802 0.34322 0.28206 0.0
C548 C 0.01357 0.30626 0.31642 0.0
C549 C 0.02758 0.2694 0.3094 0.0
C550 C 0.04264 0.27024 0.2887 0.0
C551 C 0.04264 0.30709 0.27528 0.0
C552 C 0.99728 0.30666 0.33836 0.0
C553 C 0.05776 0.23152 0.2806 0.0
H554 H 0.09842 0.20394 0.35697 0.0
H555 H 0.93886 0.10206 0.33714 0.0
H556 H 0.13525 0.29533 0.31897 0.0
H557 H 0.11247 0.32184 0.33854 0.0
H558 H 0.14917 0.29045 0.34554 0.0
H559 H 0.89461 0.12899 0.31513 0.0
H560 H 0.9179 0.19839 0.31553 0.0
H561 H 0.93778 0.17057 0.29539 0.0
H562 H 0.00354 0.37108 0.30814 0.0
H563 H 0.053 0.30684 0.25934 0.0
H564 H 0.02861 0.31092 0.34903 0.0
H565 H 0.96141 0.26878 0.34174 0.0
H566 H 0.9891 0.33891 0.34156 0.0
H567 H 0.08983 0.23328 0.29015 0.0
H568 H 0.07093 0.23897 0.2644 0.0
H569 H 0.02367 0.1911 0.28158 0.0
loop_
_geom_bond_atom_site_label_1
_geom_bond_atom_site_label_2
_geom_bond_distance
_geom_bond_site_symmetry_2
_ccdc_geom_bond_type
Co0 O1 2.216 1_445 S
Co0 O2 2.091 1_545 S
Co0 O4 2.004 . S
Co0 O10 2.021 1_445 S
Co0 O12 2.137 . S
Co0 O13 2.244 1_455 S
O1 Co0 2.216 1_665 S
O1 C8 1.247 1_655 S
O2 Co0 2.091 1_565 S
O2 C8 1.261 . S
C3 O12 1.247 . S
C3 O13 1.272 1_455 S
O4 Co0 2.004 . S
O4 C9 1.259 . S
Co5 O6 2.061 1_655 S
Co5 O11 2.052 . S
Co5 O13 2.135 . S
O6 Co5 2.061 1_455 S
O6 C9 1.235 . S
C7 O10 1.238 . S
C7 O11 1.241 1_565 S
C8 O1 1.247 1_455 S
C8 O2 1.261 . S
C9 O4 1.259 . S
C9 O6 1.235 . S
O10 Co0 2.021 1_665 S
O10 C7 1.238 . S
O11 Co5 2.052 . S
O11 C7 1.241 1_545 S
O12 Co0 2.137 . S
O12 C3 1.247 . S
O13 Co0 2.244 1_655 S
O13 C3 1.272 1_655 S
O13 Co5 2.135 . S
Co14 O15 2.216 1_455 S
Co14 O16 2.091 . S
Co14 O18 2.004 . S
Co14 O24 2.021 1_455 S
Co14 O26 2.137 . S
Co14 O27 2.244 1_445 S
O15 Co14 2.216 1_655 S
O15 C22 1.247 1_655 S
O16 Co14 2.091 . S
O16 C22 1.261 . S
C17 O26 1.247 1_565 S
C17 O27 1.272 1_455 S
O18 Co14 2.004 . S
O18 C23 1.259 . S
Co19 O20 2.061 1_655 S
Co19 O25 2.052 . S
Co19 O27 2.135 . S
O20 Co19 2.061 1_455 S
O20 C23 1.235 1_565 S
C21 O24 1.238 . S
C21 O25 1.241 1_545 S
C22 O15 1.247 1_455 S
C22 O16 1.261 . S
C23 O18 1.259 . S
C23 O20 1.235 1_545 S
O24 Co14 2.021 1_655 S
O24 C21 1.238 . S
O25 Co19 2.052 . S
O25 C21 1.241 1_565 S
O26 Co14 2.137 . S
O26 C17 1.247 1_545 S
O27 Co14 2.244 1_665 S
O27 C17 1.272 1_655 S
O27 Co19 2.135 . S
Co28 O29 2.216 . S
Co28 O30 2.091 1_545 S
Co28 O32 2.004 1_445 S
Co28 O38 2.021 . S
Co28 O40 2.137 1_445 S
Co28 O41 2.244 1_455 S
O29 Co28 2.216 . S
O29 C36 1.247 . S
O30 Co28 2.091 1_565 S
O30 C36 1.261 1_565 S
C31 O40 1.247 1_545 S
C31 O41 1.272 . S
O32 Co28 2.004 1_665 S
O32 C37 1.259 . S
Co33 O34 2.061 1_545 S
Co33 O39 2.052 1_655 S
Co33 O41 2.135 . S
O34 Co33 2.061 1_565 S
O34 C37 1.235 . S
C35 O38 1.238 . S
C35 O39 1.241 . S
C36 O29 1.247 . S
C36 O30 1.261 1_545 S
C37 O32 1.259 . S
C37 O34 1.235 . S
O38 Co28 2.021 . S
O38 C35 1.238 . S
O39 Co33 2.052 1_455 S
O39 C35 1.241 . S
O40 Co28 2.137 1_665 S
O40 C31 1.247 1_565 S
O41 Co28 2.244 1_655 S
O41 C31 1.272 . S
O41 Co33 2.135 . S
H42 C61 0.949 . S
H43 C62 0.950 . S
H44 C64 0.950 . S
H45 C65 0.950 . S
H46 C67 0.950 . S
H47 C70 0.950 . S
H48 C71 0.950 . S
H49 C73 0.951 . S
H50 C74 0.949 . S
H51 C76 0.949 . S
H52 C77 0.950 . S
H53 C79 0.950 . S
H54 C80 0.950 . S
H55 C82 0.950 1_655 S
H56 C85 0.950 . S
H57 C86 0.950 . S
H58 C88 0.951 . S
H59 C89 0.949 . S
C60 C61 1.376 . S
C60 C65 1.386 1_455 S
C60 C66 1.483 . S
C61 H42 0.949 . S
C61 C60 1.376 . S
C61 C62 1.397 . S
C62 H43 0.950 . S
C62 C61 1.397 . S
C62 C63 1.391 . S
C63 C62 1.391 . S
C63 C64 1.405 1_455 S
C64 H44 0.950 . S
C64 C63 1.405 1_655 S
C64 C65 1.367 . S
C65 H45 0.950 . S
C65 C60 1.386 1_655 S
C65 C64 1.367 . S
C66 C60 1.483 . S
C66 C67 1.382 . S
C66 C68 1.403 . S
C67 H46 0.950 . S
C67 C66 1.382 . S
C67 C83 1.411 . S
C68 C66 1.403 . S
C68 C69 1.489 . S
C68 C82 1.411 . S
C69 C68 1.489 . S
C69 C70 1.383 . S
C69 C74 1.382 1_455 S
C70 H47 0.950 . S
C70 C69 1.383 . S
C70 C71 1.395 . S
C71 H48 0.950 . S
C71 C70 1.395 . S
C71 C72 1.288 . S
C72 C71 1.288 . S
C72 C73 1.392 1_455 S
C73 H49 0.951 . S
C73 C72 1.392 1_655 S
C73 C74 1.392 . S
C74 H50 0.949 . S
C74 C69 1.382 1_655 S
C74 C73 1.392 . S
C75 C76 1.376 1_455 S
C75 C80 1.386 . S
C75 C81 1.483 . S
C76 H51 0.949 . S
C76 C75 1.376 1_655 S
C76 C77 1.397 . S
C77 H52 0.950 . S
C77 C76 1.397 . S
C77 C78 1.391 1_655 S
C78 C77 1.391 1_455 S
C78 C79 1.405 . S
C79 H53 0.950 . S
C79 C78 1.405 . S
C79 C80 1.367 . S
C80 H54 0.950 . S
C80 C75 1.386 . S
C80 C79 1.367 . S
C81 C75 1.483 . S
C81 C82 1.382 . S
C81 C83 1.403 . S
C82 H55 0.950 1_455 S
C82 C68 1.411 . S
C82 C81 1.382 . S
C83 C67 1.411 . S
C83 C81 1.403 . S
C83 C84 1.489 . S
C84 C83 1.489 . S
C84 C85 1.383 1_455 S
C84 C89 1.382 . S
C85 H56 0.950 . S
C85 C84 1.383 1_655 S
C85 C86 1.395 . S
C86 H57 0.950 . S
C86 C85 1.395 . S
C86 C87 1.288 1_655 S
C87 C86 1.288 1_455 S
C87 C88 1.392 . S
C88 H58 0.951 . S
C88 C87 1.392 . S
C88 C89 1.392 . S
C89 H59 0.949 . S
C89 C84 1.382 . S
C89 C88 1.392 . S
H90 C109 0.949 . S
H91 C110 0.950 . S
H92 C112 0.950 . S
H93 C113 0.950 . S
H94 C115 0.950 . S
H95 C118 0.950 . S
H96 C119 0.950 . S
H97 C121 0.951 . S
H98 C122 0.949 . S
H99 C124 0.949 . S
H100 C125 0.950 . S
H101 C127 0.950 . S
H102 C128 0.950 . S
H103 C130 0.950 . S
H104 C133 0.950 . S
H105 C134 0.950 . S
H106 C136 0.951 . S
H107 C137 0.949 . S
C108 C109 1.376 . S
C108 C113 1.386 1_545 S
C108 C114 1.483 . S
C109 H90 0.949 . S
C109 C108 1.376 . S
C109 C110 1.397 . S
C110 H91 0.950 . S
C110 C109 1.397 . S
C110 C111 1.391 . S
C111 C110 1.391 . S
C111 C112 1.405 1_545 S
C112 H92 0.950 . S
C112 C111 1.405 1_565 S
C112 C113 1.367 . S
C113 H93 0.950 . S
C113 C108 1.386 1_565 S
C113 C112 1.367 . S
C114 C108 1.483 . S
C114 C115 1.382 . S
C114 C116 1.403 . S
C115 H94 0.950 . S
C115 C114 1.382 . S
C115 C131 1.411 . S
C116 C114 1.403 . S
C116 C117 1.489 . S
C116 C130 1.411 . S
C117 C116 1.489 . S
C117 C118 1.383 . S
C117 C122 1.382 1_545 S
C118 H95 0.950 . S
C118 C117 1.383 . S
C118 C119 1.395 . S
C119 H96 0.950 . S
C119 C118 1.395 . S
C119 C120 1.288 . S
C120 C119 1.288 . S
C120 C121 1.392 1_545 S
C121 H97 0.951 . S
C121 C120 1.392 1_565 S
C121 C122 1.392 . S
C122 H98 0.949 . S
C122 C117 1.382 1_565 S
C122 C121 1.392 . S
C123 C124 1.376 1_545 S
C123 C128 1.386 . S
C123 C129 1.483 . S
C124 H99 0.949 . S
C124 C123 1.376 1_565 S
C124 C125 1.397 . S
C125 H100 0.950 . S
C125 C124 1.397 . S
C125 C126 1.391 1_565 S
C126 C125 1.391 1_545 S
C126 C127 1.405 . S
C127 H101 0.950 . S
C127 C126 1.405 . S
C127 C128 1.367 . S
C128 H102 0.950 . S
C128 C123 1.386 . S
C128 C127 1.367 . S
C129 C123 1.483 . S
C129 C130 1.382 . S
C129 C131 1.403 . S
C130 H103 0.950 . S
C130 C116 1.411 . S
C130 C129 1.382 . S
C131 C115 1.411 . S
C131 C129 1.403 . S
C131 C132 1.489 . S
C132 C131 1.489 . S
C132 C133 1.383 1_545 S
C132 C137 1.382 . S
C133 H104 0.950 . S
C133 C132 1.383 1_565 S
C133 C134 1.395 . S
C134 H105 0.950 . S
C134 C133 1.395 . S
C134 C135 1.288 1_565 S
C135 C134 1.288 1_545 S
C135 C136 1.392 . S
C136 H106 0.951 . S
C136 C135 1.392 . S
C136 C137 1.392 . S
C137 H107 0.949 . S
C137 C132 1.382 . S
C137 C136 1.392 . S
H138 C157 0.949 . S
H139 C158 0.950 . S
H140 C160 0.950 . S
H141 C161 0.950 . S
H142 C163 0.950 . S
H143 C166 0.950 . S
H144 C167 0.950 . S
H145 C169 0.951 . S
H146 C170 0.949 . S
H147 C172 0.949 . S
H148 C173 0.950 . S
H149 C175 0.950 . S
H150 C176 0.950 . S
H151 C178 0.950 . S
H152 C181 0.950 . S
H153 C182 0.950 . S
H154 C184 0.951 . S
H155 C185 0.949 . S
C156 C157 1.376 . S
C156 C161 1.386 . S
C156 C162 1.483 . S
C157 H138 0.949 . S
C157 C156 1.376 . S
C157 C158 1.397 . S
C158 H139 0.950 . S
C158 C157 1.397 . S
C158 C159 1.391 . S
C159 C158 1.391 . S
C159 C160 1.405 . S
C160 H140 0.950 . S
C160 C159 1.405 . S
C160 C161 1.367 . S
C161 H141 0.950 . S
C161 C156 1.386 . S
C161 C160 1.367 . S
C162 C156 1.483 . S
C162 C163 1.382 . S
C162 C164 1.403 . S
C163 H142 0.950 . S
C163 C162 1.382 . S
C163 C179 1.411 . S
C164 C162 1.403 . S
C164 C165 1.489 . S
C164 C178 1.411 . S
C165 C164 1.489 . S
C165 C166 1.383 . S
C165 C170 1.382 . S
C166 H143 0.950 . S
C166 C165 1.383 . S
C166 C167 1.395 . S
C167 H144 0.950 . S
C167 C166 1.395 . S
C167 C168 1.288 . S
C168 C167 1.288 . S
C168 C169 1.392 . S
C169 H145 0.951 . S
C169 C168 1.392 . S
C169 C170 1.392 . S
C170 H146 0.949 . S
C170 C165 1.382 . S
C170 C169 1.392 . S
C171 C172 1.376 . S
C171 C176 1.386 . S
C171 C177 1.483 . S
C172 H147 0.949 . S
C172 C171 1.376 . S
C172 C173 1.397 . S
C173 H148 0.950 . S
C173 C172 1.397 . S
C173 C174 1.391 . S
C174 C173 1.391 . S
C174 C175 1.405 . S
C175 H149 0.950 . S
C175 C174 1.405 . S
C175 C176 1.367 . S
C176 H150 0.950 . S
C176 C171 1.386 . S
C176 C175 1.367 . S
C177 C171 1.483 . S
C177 C178 1.382 . S
C177 C179 1.403 . S
C178 H151 0.950 . S
C178 C164 1.411 . S
C178 C177 1.382 . S
C179 C163 1.411 . S
C179 C177 1.403 . S
C179 C180 1.489 . S
C180 C179 1.489 . S
C180 C181 1.383 . S
C180 C185 1.382 . S
C181 H152 0.950 . S
C181 C180 1.383 . S
C181 C182 1.395 . S
C182 H153 0.950 . S
C182 C181 1.395 . S
C182 C183 1.288 . S
C183 C182 1.288 . S
C183 C184 1.392 . S
C184 H154 0.951 . S
C184 C183 1.392 . S
C184 C185 1.392 . S
C185 H155 0.949 . S
C185 C180 1.382 . S
C185 C184 1.392 . S
C186 C187 1.391 . S
C186 C188 1.394 . S
C186 H202 0.931 . S
C187 C186 1.391 . S
C187 C191 1.376 1_455 S
C188 C186 1.394 . S
C188 C189 1.369 . S
C188 C192 1.531 . S
C189 C188 1.369 . S
C189 C190 1.410 1_455 S
C189 C197 1.503 . S
C190 C189 1.410 1_655 S
C190 C191 1.392 . S
C190 C193 1.511 . S
C191 C187 1.376 1_655 S
C191 C190 1.392 . S
C191 H203 0.929 . S
C192 C188 1.531 . S
C192 H204 0.960 . S
C192 H205 0.962 . S
C192 H206 0.960 . S
C193 C190 1.511 . S
C193 H207 0.961 . S
C193 H208 0.961 . S
C193 H209 0.961 . S
C194 C195 1.370 . S
C194 C196 1.363 . S
C194 H210 0.931 . S
C195 C194 1.370 . S
C195 C199 1.408 1_455 S
C196 C194 1.363 . S
C196 C197 1.370 . S
C196 C200 1.524 . S
C197 C189 1.503 . S
C197 C196 1.370 . S
C197 C198 1.403 1_455 S
C198 C197 1.403 1_655 S
C198 C199 1.404 . S
C198 C201 1.539 . S
C199 C195 1.408 1_655 S
C199 C198 1.404 . S
C199 H211 0.930 . S
C200 C196 1.524 . S
C200 H212 0.956 . S
C200 H213 0.961 . S
C200 H214 0.961 . S
C201 C198 1.539 . S
C201 H215 0.958 . S
C201 H216 0.961 . S
C201 H217 0.960 . S
H202 C186 0.931 . S
H203 C191 0.929 . S
H204 C192 0.960 . S
H205 C192 0.962 . S
H206 C192 0.960 . S
H207 C193 0.961 . S
H208 C193 0.961 . S
H209 C193 0.961 . S
H210 C194 0.931 . S
H211 C199 0.930 . S
H212 C200 0.956 . S
H213 C200 0.961 . S
H214 C200 0.961 . S
H215 C201 0.958 . S
H216 C201 0.961 . S
H217 C201 0.960 . S
C218 C219 1.391 . S
C218 C220 1.394 . S
C218 H234 0.931 . S
C219 C218 1.391 . S
C219 C223 1.376 . S
C220 C218 1.394 . S
C220 C221 1.369 . S
C220 C224 1.531 . S
C221 C220 1.369 . S
C221 C222 1.410 . S
C221 C229 1.503 . S
C222 C221 1.410 . S
C222 C223 1.392 . S
C222 C225 1.511 1_545 S
C223 C219 1.376 . S
C223 C222 1.392 . S
C223 H235 0.929 . S
C224 C220 1.531 . S
C224 H236 0.960 . S
C224 H237 0.962 . S
C224 H238 0.960 . S
C225 C222 1.511 1_565 S
C225 H239 0.961 . S
C225 H240 0.961 1_565 S
C225 H241 0.961 . S
C226 C227 1.370 . S
C226 C228 1.363 . S
C226 H242 0.931 . S
C227 C226 1.370 . S
C227 C231 1.408 1_545 S
C228 C226 1.363 . S
C228 C229 1.370 . S
C228 C232 1.524 . S
C229 C221 1.503 . S
C229 C228 1.370 . S
C229 C230 1.403 1_545 S
C230 C229 1.403 1_565 S
C230 C231 1.404 . S
C230 C233 1.539 . S
C231 C227 1.408 1_565 S
C231 C230 1.404 . S
C231 H243 0.930 . S
C232 C228 1.524 . S
C232 H244 0.956 . S
C232 H245 0.961 . S
C232 H246 0.961 . S
C233 C230 1.539 . S
C233 H247 0.958 . S
C233 H248 0.961 . S
C233 H249 0.960 . S
H234 C218 0.931 . S
H235 C223 0.929 . S
H236 C224 0.960 . S
H237 C224 0.962 . S
H238 C224 0.960 . S
H239 C225 0.961 . S
H240 C225 0.961 1_545 S
H241 C225 0.961 . S
H242 C226 0.931 . S
H243 C231 0.930 . S
H244 C232 0.956 . S
H245 C232 0.961 . S
H246 C232 0.961 . S
H247 C233 0.958 . S
H248 C233 0.961 . S
H249 C233 0.960 . S
C250 C251 1.391 . S
C250 C252 1.394 . S
C250 H266 0.931 . S
C251 C250 1.391 . S
C251 C255 1.376 . S
C252 C250 1.394 . S
C252 C253 1.369 . S
C252 C256 1.531 . S
C253 C252 1.369 . S
C253 C254 1.410 . S
C253 C261 1.503 . S
C254 C253 1.410 . S
C254 C255 1.392 . S
C254 C257 1.511 . S
C255 C251 1.376 . S
C255 C254 1.392 . S
C255 H267 0.929 . S
C256 C252 1.531 . S
C256 H268 0.960 . S
C256 H269 0.962 . S
C256 H270 0.960 . S
C257 C254 1.511 . S
C257 H271 0.961 . S
C257 H272 0.961 . S
C257 H273 0.961 . S
C258 C259 1.370 . S
C258 C260 1.363 . S
C258 H274 0.931 . S
C259 C258 1.370 . S
C259 C263 1.408 . S
C260 C258 1.363 . S
C260 C261 1.370 . S
C260 C264 1.524 . S
C261 C253 1.503 . S
C261 C260 1.370 . S
C261 C262 1.403 . S
C262 C261 1.403 . S
C262 C263 1.404 . S
C262 C265 1.539 . S
C263 C259 1.408 . S
C263 C262 1.404 . S
C263 H275 0.930 . S
C264 C260 1.524 . S
C264 H276 0.956 . S
C264 H277 0.961 . S
C264 H278 0.961 . S
C265 C262 1.539 . S
C265 H279 0.958 . S
C265 H280 0.961 . S
C265 H281 0.960 . S
H266 C250 0.931 . S
H267 C255 0.929 . S
H268 C256 0.960 . S
H269 C256 0.962 . S
H270 C256 0.960 . S
H271 C257 0.961 . S
H272 C257 0.961 . S
H273 C257 0.961 . S
H274 C258 0.931 . S
H275 C263 0.930 . S
H276 C264 0.956 . S
H277 C264 0.961 . S
H278 C264 0.961 . S
H279 C265 0.958 . S
H280 C265 0.961 . S
H281 C265 0.960 . S
C282 C283 1.391 . S
C282 C284 1.394 . S
C282 H298 0.931 . S
C283 C282 1.391 . S
C283 C287 1.376 1_455 S
C284 C282 1.394 . S
C284 C285 1.369 . S
C284 C288 1.531 . S
C285 C284 1.369 . S
C285 C286 1.410 1_455 S
C285 C293 1.503 . S
C286 C285 1.410 1_655 S
C286 C287 1.392 . S
C286 C289 1.511 . S
C287 C283 1.376 1_655 S
C287 C286 1.392 . S
C287 H299 0.929 . S
C288 C284 1.531 . S
C288 H300 0.960 . S
C288 H301 0.962 . S
C288 H302 0.960 . S
C289 C286 1.511 . S
C289 H303 0.961 . S
C289 H304 0.961 . S
C289 H305 0.961 . S
C290 C291 1.370 . S
C290 C292 1.363 . S
C290 H306 0.931 . S
C291 C290 1.370 . S
C291 C295 1.408 1_455 S
C292 C290 1.363 . S
C292 C293 1.370 . S
C292 C296 1.524 . S
C293 C285 1.503 . S
C293 C292 1.370 . S
C293 C294 1.403 1_455 S
C294 C293 1.403 1_655 S
C294 C295 1.404 . S
C294 C297 1.539 . S
C295 C291 1.408 1_655 S
C295 C294 1.404 . S
C295 H307 0.930 . S
C296 C292 1.524 . S
C296 H308 0.956 . S
C296 H309 0.961 . S
C296 H310 0.961 . S
C297 C294 1.539 . S
C297 H311 0.958 . S
C297 H312 0.961 . S
C297 H313 0.960 . S
H298 C282 0.931 . S
H299 C287 0.929 . S
H300 C288 0.960 . S
H301 C288 0.962 . S
H302 C288 0.960 . S
H303 C289 0.961 . S
H304 C289 0.961 . S
H305 C289 0.961 . S
H306 C290 0.931 . S
H307 C295 0.930 . S
H308 C296 0.956 . S
H309 C296 0.961 . S
H310 C296 0.961 . S
H311 C297 0.958 . S
H312 C297 0.961 . S
H313 C297 0.960 . S
C314 C315 1.391 1_565 S
C314 C316 1.394 . S
C314 H330 0.931 . S
C315 C314 1.391 1_545 S
C315 C319 1.376 . S
C316 C314 1.394 . S
C316 C317 1.369 1_565 S
C316 C320 1.531 . S
C317 C316 1.369 1_545 S
C317 C318 1.410 . S
C317 C325 1.503 . S
C318 C317 1.410 . S
C318 C319 1.392 . S
C318 C321 1.511 . S
C319 C315 1.376 . S
C319 C318 1.392 . S
C319 H331 0.929 . S
C320 C316 1.531 . S
C320 H332 0.960 . S
C320 H333 0.962 . S
C320 H334 0.960 . S
C321 C318 1.511 . S
C321 H335 0.961 . S
C321 H336 0.961 . S
C321 H337 0.961 . S
C322 C323 1.370 . S
C322 C324 1.363 . S
C322 H338 0.931 . S
C323 C322 1.370 . S
C323 C327 1.408 1_545 S
C324 C322 1.363 . S
C324 C325 1.370 . S
C324 C328 1.524 . S
C325 C317 1.503 . S
C325 C324 1.370 . S
C325 C326 1.403 1_545 S
C326 C325 1.403 1_565 S
C326 C327 1.404 . S
C326 C329 1.539 . S
C327 C323 1.408 1_565 S
C327 C326 1.404 . S
C327 H339 0.930 . S
C328 C324 1.524 . S
C328 H340 0.956 . S
C328 H341 0.961 . S
C328 H342 0.961 . S
C329 C326 1.539 . S
C329 H343 0.958 . S
C329 H344 0.961 . S
C329 H345 0.960 . S
H330 C314 0.931 . S
H331 C319 0.929 . S
H332 C320 0.960 . S
H333 C320 0.962 . S
H334 C320 0.960 . S
H335 C321 0.961 . S
H336 C321 0.961 . S
H337 C321 0.961 . S
H338 C322 0.931 . S
H339 C327 0.930 . S
H340 C328 0.956 . S
H341 C328 0.961 . S
H342 C328 0.961 . S
H343 C329 0.958 . S
H344 C329 0.961 . S
H345 C329 0.960 . S
C346 C347 1.391 . S
C346 C348 1.394 . S
C346 H362 0.931 . S
C347 C346 1.391 . S
C347 C351 1.376 . S
C348 C346 1.394 . S
C348 C349 1.369 . S
C348 C352 1.531 . S
C349 C348 1.369 . S
C349 C350 1.410 . S
C349 C357 1.503 . S
C350 C349 1.410 . S
C350 C351 1.392 . S
C350 C353 1.511 . S
C351 C347 1.376 . S
C351 C350 1.392 . S
C351 H363 0.929 . S
C352 C348 1.531 . S
C352 H364 0.960 . S
C352 H365 0.962 . S
C352 H366 0.960 . S
C353 C350 1.511 . S
C353 H367 0.961 . S
C353 H368 0.961 . S
C353 H369 0.961 . S
C354 C355 1.370 . S
C354 C356 1.363 . S
C354 H370 0.931 . S
C355 C354 1.370 . S
C355 C359 1.408 . S
C356 C354 1.363 . S
C356 C357 1.370 . S
C356 C360 1.524 . S
C357 C349 1.503 . S
C357 C356 1.370 . S
C357 C358 1.403 . S
C358 C357 1.403 . S
C358 C359 1.404 . S
C358 C361 1.539 . S
C359 C355 1.408 . S
C359 C358 1.404 . S
C359 H371 0.930 . S
C360 C356 1.524 . S
C360 H372 0.956 . S
C360 H373 0.961 . S
C360 H374 0.961 . S
C361 C358 1.539 . S
C361 H375 0.958 . S
C361 H376 0.961 . S
C361 H377 0.960 . S
H362 C346 0.931 . S
H363 C351 0.929 . S
H364 C352 0.960 . S
H365 C352 0.962 . S
H366 C352 0.960 . S
H367 C353 0.961 . S
H368 C353 0.961 . S
H369 C353 0.961 . S
H370 C354 0.931 . S
H371 C359 0.930 . S
H372 C360 0.956 . S
H373 C360 0.961 . S
H374 C360 0.961 . S
H375 C361 0.958 . S
H376 C361 0.961 . S
H377 C361 0.960 . S
C378 C379 1.391 1_565 S
C378 C380 1.394 . S
C378 H394 0.931 . S
C379 C378 1.391 1_545 S
C379 C383 1.376 . S
C380 C378 1.394 . S
C380 C381 1.369 1_565 S
C380 C384 1.531 . S
C381 C380 1.369 1_545 S
C381 C382 1.410 . S
C381 C389 1.503 . S
C382 C381 1.410 . S
C382 C383 1.392 . S
C382 C385 1.511 . S
C383 C379 1.376 . S
C383 C382 1.392 . S
C383 H395 0.929 . S
C384 C380 1.531 . S
C384 H396 0.960 . S
C384 H397 0.962 . S
C384 H398 0.960 . S
C385 C382 1.511 . S
C385 H399 0.961 . S
C385 H400 0.961 . S
C385 H401 0.961 . S
C386 C387 1.370 . S
C386 C388 1.363 . S
C386 H402 0.931 . S
C387 C386 1.370 . S
C387 C391 1.408 1_545 S
C388 C386 1.363 . S
C388 C389 1.370 . S
C388 C392 1.524 . S
C389 C381 1.503 . S
C389 C388 1.370 . S
C389 C390 1.403 1_545 S
C390 C389 1.403 1_565 S
C390 C391 1.404 . S
C390 C393 1.539 . S
C391 C387 1.408 1_565 S
C391 C390 1.404 . S
C391 H403 0.930 . S
C392 C388 1.524 . S
C392 H404 0.956 . S
C392 H405 0.961 . S
C392 H406 0.961 . S
C393 C390 1.539 . S
C393 H407 0.958 . S
C393 H408 0.961 . S
C393 H409 0.960 . S
H394 C378 0.931 . S
H395 C383 0.929 . S
H396 C384 0.960 . S
H397 C384 0.962 . S
H398 C384 0.960 . S
H399 C385 0.961 . S
H400 C385 0.961 . S
H401 C385 0.961 . S
H402 C386 0.931 . S
H403 C391 0.930 . S
H404 C392 0.956 . S
H405 C392 0.961 . S
H406 C392 0.961 . S
H407 C393 0.958 . S
H408 C393 0.961 . S
H409 C393 0.960 . S
C410 C411 1.391 1_556 S
C410 C412 1.394 . S
C410 H426 0.931 . S
C411 C410 1.391 1_554 S
C411 C415 1.376 . S
C412 C410 1.394 . S
C412 C413 1.369 . S
C412 C416 1.531 . S
C413 C412 1.369 . S
C413 C414 1.410 1_556 S
C413 C421 1.503 . S
C414 C413 1.410 1_554 S
C414 C415 1.392 . S
C414 C417 1.511 . S
C415 C411 1.376 . S
C415 C414 1.392 . S
C415 H427 0.929 . S
C416 C412 1.531 . S
C416 H428 0.960 . S
C416 H429 0.962 . S
C416 H430 0.960 . S
C417 C414 1.511 . S
C417 H431 0.961 . S
C417 H432 0.961 . S
C417 H433 0.961 . S
C418 C419 1.370 . S
C418 C420 1.363 . S
C418 H434 0.931 . S
C419 C418 1.370 . S
C419 C423 1.408 . S
C420 C418 1.363 . S
C420 C421 1.370 . S
C420 C424 1.524 . S
C421 C413 1.503 . S
C421 C420 1.370 . S
C421 C422 1.403 . S
C422 C421 1.403 . S
C422 C423 1.404 . S
C422 C425 1.539 . S
C423 C419 1.408 . S
C423 C422 1.404 . S
C423 H435 0.930 . S
C424 C420 1.524 . S
C424 H436 0.956 . S
C424 H437 0.961 . S
C424 H438 0.961 . S
C425 C422 1.539 . S
C425 H439 0.958 . S
C425 H440 0.961 . S
C425 H441 0.960 . S
H426 C410 0.931 . S
H427 C415 0.929 . S
H428 C416 0.960 . S
H429 C416 0.962 . S
H430 C416 0.960 . S
H431 C417 0.961 . S
H432 C417 0.961 . S
H433 C417 0.961 . S
H434 C418 0.931 . S
H435 C423 0.930 . S
H436 C424 0.956 . S
H437 C424 0.961 . S
H438 C424 0.961 . S
H439 C425 0.958 . S
H440 C425 0.961 . S
H441 C425 0.960 . S
C442 C443 1.391 . S
C442 C444 1.394 . S
C442 H458 0.931 . S
C443 C442 1.391 . S
C443 C447 1.376 1_455 S
C444 C442 1.394 . S
C444 C445 1.369 . S
C444 C448 1.531 . S
C445 C444 1.369 . S
C445 C446 1.410 1_455 S
C445 C453 1.503 . S
C446 C445 1.410 1_655 S
C446 C447 1.392 . S
C446 C449 1.511 . S
C447 C443 1.376 1_655 S
C447 C446 1.392 . S
C447 H459 0.929 . S
C448 C444 1.531 . S
C448 H460 0.960 . S
C448 H461 0.962 . S
C448 H462 0.960 . S
C449 C446 1.511 . S
C449 H463 0.961 . S
C449 H464 0.961 . S
C449 H465 0.961 . S
C450 C451 1.372 1_655 S
C450 C452 1.362 1_655 S
C450 H466 0.930 . S
C451 C450 1.372 1_455 S
C451 C455 1.408 . S
C452 C450 1.362 1_455 S
C452 C453 1.370 . S
C452 C456 1.524 1_455 S
C453 C445 1.503 . S
C453 C452 1.370 . S
C453 C454 1.403 . S
C454 C453 1.403 . S
C454 C455 1.404 . S
C454 C457 1.539 . S
C455 C451 1.408 . S
C455 C454 1.404 . S
C455 H467 0.930 . S
C456 C452 1.524 1_655 S
C456 H468 0.956 1_655 S
C456 H469 0.961 . S
C456 H470 0.961 . S
C457 C454 1.539 . S
C457 H471 0.958 . S
C457 H472 0.961 . S
C457 H473 0.960 . S
H458 C442 0.931 . S
H459 C447 0.929 . S
H460 C448 0.960 . S
H461 C448 0.962 . S
H462 C448 0.960 . S
H463 C449 0.961 . S
H464 C449 0.961 . S
H465 C449 0.961 . S
H466 C450 0.930 . S
H467 C455 0.930 . S
H468 C456 0.956 1_455 S
H469 C456 0.961 . S
H470 C456 0.961 . S
H471 C457 0.958 . S
H472 C457 0.961 . S
H473 C457 0.960 . S
C474 C475 1.391 . S
C474 C476 1.394 . S
C474 H490 0.931 . S
C475 C474 1.391 . S
C475 C479 1.376 1_545 S
C476 C474 1.394 . S
C476 C477 1.369 . S
C476 C480 1.531 . S
C477 C476 1.369 . S
C477 C478 1.410 1_545 S
C477 C485 1.503 . S
C478 C477 1.410 1_565 S
C478 C479 1.392 . S
C478 C481 1.511 . S
C479 C475 1.376 1_565 S
C479 C478 1.392 . S
C479 H491 0.929 . S
C480 C476 1.531 . S
C480 H492 0.960 . S
C480 H493 0.962 . S
C480 H494 0.960 . S
C481 C478 1.511 . S
C481 H495 0.961 . S
C481 H496 0.961 . S
C481 H497 0.961 . S
C482 C483 1.370 . S
C482 C484 1.363 . S
C482 H498 0.931 . S
C483 C482 1.370 . S
C483 C487 1.408 . S
C484 C482 1.363 . S
C484 C485 1.370 . S
C484 C488 1.524 . S
C485 C477 1.503 . S
C485 C484 1.370 . S
C485 C486 1.403 . S
C486 C485 1.403 . S
C486 C487 1.404 . S
C486 C489 1.539 1_545 S
C487 C483 1.408 . S
C487 C486 1.404 . S
C487 H499 0.930 . S
C488 C484 1.524 . S
C488 H500 0.956 . S
C488 H501 0.961 . S
C488 H502 0.961 . S
C489 C486 1.539 1_565 S
C489 H503 0.958 1_565 S
C489 H504 0.961 . S
C489 H505 0.960 . S
H490 C474 0.931 . S
H491 C479 0.929 . S
H492 C480 0.960 . S
H493 C480 0.962 . S
H494 C480 0.960 . S
H495 C481 0.961 . S
H496 C481 0.961 . S
H497 C481 0.961 . S
H498 C482 0.931 . S
H499 C487 0.930 . S
H500 C488 0.956 . S
H501 C488 0.961 . S
H502 C488 0.961 . S
H503 C489 0.958 1_545 S
H504 C489 0.961 . S
H505 C489 0.960 . S
C506 C507 1.403 . S
C506 C508 1.360 1_554 S
C506 H522 0.954 . S
C507 C506 1.403 . S
C507 C511 1.376 1_554 S
C508 C506 1.360 1_556 S
C508 C509 1.369 . S
C508 C512 1.531 . S
C509 C508 1.369 . S
C509 C510 1.410 . S
C509 C517 1.503 . S
C510 C509 1.410 . S
C510 C511 1.392 . S
C510 C513 1.511 . S
C511 C507 1.376 1_556 S
C511 C510 1.392 . S
C511 H523 0.941 . S
C512 C508 1.531 . S
C512 H524 0.960 . S
C512 H525 0.962 . S
C512 H526 0.960 . S
C513 C510 1.511 . S
C513 H527 0.961 . S
C513 H528 0.961 . S
C513 H529 0.961 . S
C514 C515 1.370 . S
C514 C516 1.363 . S
C514 H530 0.931 . S
C515 C514 1.370 . S
C515 C519 1.408 . S
C516 C514 1.363 . S
C516 C517 1.370 . S
C516 C520 1.524 . S
C517 C509 1.503 . S
C517 C516 1.370 . S
C517 C518 1.403 . S
C518 C517 1.403 . S
C518 C519 1.404 . S
C518 C521 1.539 . S
C519 C515 1.408 . S
C519 C518 1.404 . S
C519 H531 0.930 . S
C520 C516 1.524 . S
C520 H532 0.956 1_556 S
C520 H533 0.961 1_556 S
C520 H534 0.954 1_556 S
C521 C518 1.539 . S
C521 H535 0.958 . S
C521 H536 0.961 . S
C521 H537 0.960 . S
H522 C506 0.954 . S
H523 C511 0.941 . S
H524 C512 0.960 . S
H525 C512 0.962 . S
H526 C512 0.960 . S
H527 C513 0.961 . S
H528 C513 0.961 . S
H529 C513 0.961 . S
H530 C514 0.931 . S
H531 C519 0.930 . S
H532 C520 0.956 1_554 S
H533 C520 0.961 1_554 S
H534 C520 0.954 1_554 S
H535 C521 0.958 . S
H536 C521 0.961 . S
H537 C521 0.960 . S
C538 C539 1.391 . S
C538 C540 1.394 . S
C538 H554 0.931 . S
C539 C538 1.391 . S
C539 C543 1.376 1_455 S
C540 C538 1.394 . S
C540 C541 1.369 . S
C540 C544 1.531 . S
C541 C540 1.369 . S
C541 C542 1.410 1_455 S
C541 C549 1.503 . S
C542 C541 1.410 1_655 S
C542 C543 1.392 . S
C542 C545 1.511 . S
C543 C539 1.376 1_655 S
C543 C542 1.392 . S
C543 H555 0.929 . S
C544 C540 1.531 . S
C544 H556 0.960 . S
C544 H557 0.962 . S
C544 H558 0.960 . S
C545 C542 1.511 . S
C545 H559 0.961 . S
C545 H560 0.961 . S
C545 H561 0.961 . S
C546 C547 1.370 . S
C546 C548 1.363 . S
C546 H562 0.931 . S
C547 C546 1.370 . S
C547 C551 1.408 1_455 S
C548 C546 1.363 . S
C548 C549 1.370 . S
C548 C552 1.524 . S
C549 C541 1.503 . S
C549 C548 1.370 . S
C549 C550 1.403 1_455 S
C550 C549 1.403 1_655 S
C550 C551 1.404 . S
C550 C553 1.539 . S
C551 C547 1.408 1_655 S
C551 C550 1.404 . S
C551 H563 0.930 . S
C552 C548 1.524 . S
C552 H564 0.956 . S
C552 H565 0.961 . S
C552 H566 0.961 . S
C553 C550 1.539 . S
C553 H567 0.958 . S
C553 H568 0.961 . S
C553 H569 0.960 . S
H554 C538 0.931 . S
H555 C543 0.929 . S
H556 C544 0.960 . S
H557 C544 0.962 . S
H558 C544 0.960 . S
H559 C545 0.961 . S
H560 C545 0.961 . S
H561 C545 0.961 . S
H562 C546 0.931 . S
H563 C551 0.930 . S
H564 C552 0.956 . S
H565 C552 0.961 . S
H566 C552 0.961 . S
H567 C553 0.958 . S
H568 C553 0.961 . S
H569 C553 0.960 . S
C195 C63 1.512 . S
C187 C3 1.510 . S
C219 C21 1.507 . S
C227 C111 1.547 . S
C251 C37 1.502 . S
C259 C183 1.518 . S
C283 C8 1.514 . S
C291 C87 1.514 . S
C323 C135 1.526 . S
C315 C23 1.495 . S
C347 C35 1.493 . S
C355 C159 1.529 . S
C387 C120 1.493 . S
C379 C31 1.488 . S
C411 C7 1.521 . S
C419 C174 1.529 . S
C451 C78 1.513 . S
C443 C17 1.505 . S
C483 C126 1.495 . S
C475 C36 1.491 . S
C515 C168 1.528 . S
C507 C9 1.505 . S
C539 C22 1.514 . S
C547 C72 1.513 . S
