# Generated by pormake.
# Topology anh, (6,3)-cn, num edge types: 1
# Building blocks:
#     Node 0, Type 0, BuildingBlock: BETFEN_clean_sbu_0, # of connection points: 6
#     Node 1, Type 0, BuildingBlock: BETFEN_clean_sbu_0, # of connection points: 6
#     Node 2, Type 0, BuildingBlock: BETFEN_clean_sbu_0, # of connection points: 6
#     Node 3, Type 1, BuildingBlock: VETTIZ_charged_linker_0, # of connection points: 3
#     Node 4, Type 1, BuildingBlock: VETTIZ_charged_linker_0, # of connection points: 3
#     Node 5, Type 1, BuildingBlock: VETTIZ_charged_linker_0, # of connection points: 3
#     Node 6, Type 1, BuildingBlock: VETTIZ_charged_linker_0, # of connection points: 3
#     Node 7, Type 1, BuildingBlock: VETTIZ_charged_linker_0, # of connection points: 3
#     Node 8, Type 1, BuildingBlock: VETTIZ_charged_linker_0, # of connection points: 3
#     Edge 9, Type (0, 1), BuildingBlock: XIVTED_clean_linker_0, # of connection points: 2
#     Edge 10, Type (0, 1), BuildingBlock: XIVTED_clean_linker_0, # of connection points: 2
#     Edge 11, Type (0, 1), BuildingBlock: XIVTED_clean_linker_0, # of connection points: 2
#     Edge 12, Type (0, 1), BuildingBlock: XIVTED_clean_linker_0, # of connection points: 2
#     Edge 13, Type (0, 1), BuildingBlock: XIVTED_clean_linker_0, # of connection points: 2
#     Edge 14, Type (0, 1), BuildingBlock: XIVTED_clean_linker_0, # of connection points: 2
#     Edge 15, Type (0, 1), BuildingBlock: XIVTED_clean_linker_0, # of connection points: 2
#     Edge 16, Type (0, 1), BuildingBlock: XIVTED_clean_linker_0, # of connection points: 2
#     Edge 17, Type (0, 1), BuildingBlock: XIVTED_clean_linker_0, # of connection points: 2
#     Edge 18, Type (0, 1), BuildingBlock: XIVTED_clean_linker_0, # of connection points: 2
#     Edge 19, Type (0, 1), BuildingBlock: XIVTED_clean_linker_0, # of connection points: 2
#     Edge 20, Type (0, 1), BuildingBlock: XIVTED_clean_linker_0, # of connection points: 2
#     Edge 21, Type (0, 1), BuildingBlock: XIVTED_clean_linker_0, # of connection points: 2
#     Edge 22, Type (0, 1), BuildingBlock: XIVTED_clean_linker_0, # of connection points: 2
#     Edge 23, Type (0, 1), BuildingBlock: XIVTED_clean_linker_0, # of connection points: 2
#     Edge 24, Type (0, 1), BuildingBlock: XIVTED_clean_linker_0, # of connection points: 2
#     Edge 25, Type (0, 1), BuildingBlock: XIVTED_clean_linker_0, # of connection points: 2
#     Edge 26, Type (0, 1), BuildingBlock: XIVTED_clean_linker_0, # of connection points: 2
# Relax obj value: 0.187
# Max RMSD: 0.209
# Mean RMSD: 0.159
data_MOF--net-anh--node1-BETFEN_clean_sbu_0--node2-VETTIZ_charged_linker_0--edge1-XIVTED_clean_linker_0
_symmetry_space_group_name_H-M    P1
_symmetry_Int_Tables_number       1
_symmetry_cell_setting            triclinic
loop_
_symmetry_equiv_pos_as_xyz
'x, y, z'
_cell_length_a     35.229371
_cell_length_b     36.153276
_cell_length_c     67.306811
_cell_angle_alpha  90.278863
_cell_angle_beta   92.010282
_cell_angle_gamma 104.4926
loop_
_atom_site_label
_atom_site_type_symbol
_atom_site_fract_x
_atom_site_fract_y
_atom_site_fract_z
_atom_type_partial_charge
Pr0 Pr 0.05048 0.55229 0.15917 0.0
Pr1 Pr 0.07436 0.63597 0.14827 0.0
C2 C 1.01837 0.48348 0.17476 0.0
C3 C 0.9795 0.45666 0.17691 0.0
C4 C 0.95573 0.44043 0.16029 0.0
C5 C 0.91947 0.41441 0.1628 0.0
C6 C 0.90616 0.40436 0.18197 0.0
C7 C 0.92992 0.42085 0.19854 0.0
C8 C 0.96622 0.44659 0.19602 0.0
C9 C 0.05751 0.56543 0.11859 0.0
C10 C 0.98085 0.59988 0.15157 0.0
C11 C 0.10694 0.70439 0.13246 0.0
C12 C 0.14587 0.73167 0.1333 0.0
C13 C 0.14867 0.77081 0.13571 0.0
C14 C 0.18536 0.79683 0.13805 0.0
C15 C 0.22004 0.78417 0.13802 0.0
C16 C 0.21708 0.74496 0.13506 0.0
C17 C 0.18039 0.71897 0.13277 0.0
C18 C 0.06719 0.62358 0.18888 0.0
C19 C 0.14424 0.58846 0.15628 0.0
O20 O 1.02551 0.51541 0.18508 0.0
O21 O 1.03259 0.4878 0.15699 0.0
O22 O 0.04107 0.58328 0.13029 0.0
O23 O 0.07046 0.5391 0.1276 0.0
O24 O 1.00707 0.62656 0.1427 0.0
O25 O 0.99096 0.57119 0.16063 0.0
O26 O 0.10392 0.67189 0.12309 0.0
O27 O 0.08773 0.70062 0.14891 0.0
O28 O 0.08323 0.60503 0.17732 0.0
O29 O 0.05603 0.65085 0.17977 0.0
O30 O 0.11786 0.56036 0.16408 0.0
O31 O 0.13435 0.61799 0.14803 0.0
H32 H 0.96511 0.4477 0.14534 0.0
H33 H 0.90169 0.40242 0.14976 0.0
H34 H 0.92079 0.41328 0.21349 0.0
H35 H 0.9841 0.45849 0.20907 0.0
H36 H 0.12239 0.78116 0.13626 0.0
H37 H 0.18646 0.82669 0.14057 0.0
H38 H 0.24314 0.73425 0.13468 0.0
H39 H 0.17904 0.6889 0.13091 0.0
Pr40 Pr 0.58916 0.0714 0.50379 0.0
Pr41 Pr 0.49704 1.04751 0.51439 0.0
C42 C 0.66086 0.101 0.48963 0.0
C43 C 0.68864 0.13809 0.48631 0.0
C44 C 0.69134 0.16949 0.49913 0.0
C45 C 0.7198 0.20368 0.49641 0.0
C46 C 0.74594 0.20708 0.48077 0.0
C47 C 0.74218 0.17579 0.46766 0.0
C48 C 0.71391 0.14165 0.47046 0.0
C49 C 0.57158 0.05604 0.54326 0.0
C50 C 0.54058 0.14097 0.51077 0.0
C51 C 0.4303 1.01919 0.53324 0.0
C52 C 0.39873 0.98441 0.5295 0.0
C53 C 0.39919 0.96219 0.51243 0.0
C54 C 0.37078 0.92796 0.50913 0.0
C55 C 0.34138 0.91501 0.52291 0.0
C56 C 0.34071 0.93767 0.53992 0.0
C57 C 0.36929 0.9721 0.54321 0.0
C58 C 0.50492 1.04416 0.47314 0.0
C59 C 0.54567 0.97892 0.5054 0.0
O60 O 0.62899 0.09207 0.47818 0.0
O61 O 0.6549 0.09092 0.50813 0.0
O62 O 0.55436 0.07434 0.53165 0.0
O63 O 0.60059 1.04664 0.53488 0.0
O64 O 0.50923 0.11493 0.51655 0.0
O65 O 0.57241 0.13133 0.50468 0.0
O66 O 0.46408 1.01314 0.53913 0.0
O67 O 0.43356 1.04568 0.51968 0.0
O68 O 0.53167 0.05301 0.48638 0.0
O69 O 0.47102 1.03693 0.48129 0.0
O70 O 0.57492 1.00485 0.49772 0.0
O71 O 0.5163 0.98882 0.51414 0.0
H72 H 0.67192 0.16739 0.51144 0.0
H73 H 0.72193 0.22706 0.50684 0.0
H74 H 0.76112 0.1776 0.45518 0.0
H75 H 0.71209 0.1178 0.46034 0.0
H76 H 0.42185 0.97118 0.50173 0.0
H77 H 0.37181 0.91168 0.49569 0.0
H78 H 0.31866 0.9284 0.55088 0.0
H79 H 0.36874 0.98881 0.55655 0.0
Pr80 Pr 0.54347 0.56239 0.81568 0.0
Pr81 Pr 0.55862 0.65145 0.83031 0.0
C82 C 0.5416 0.49822 0.79526 0.0
C83 C 0.55639 0.46514 0.80083 0.0
C84 C 0.57007 0.46216 0.82045 0.0
C85 C 0.58174 0.4297 0.82642 0.0
C86 C 0.5805 0.39997 0.81276 0.0
C87 C 0.56835 0.40373 0.79289 0.0
C88 C 0.55618 0.43611 0.78698 0.0
C89 C 0.54691 0.56811 0.85731 0.0
C90 C 0.63551 0.61639 0.8262 0.0
C91 C 0.55369 0.71487 0.84978 0.0
C92 C 0.51959 0.72511 0.85804 0.0
C93 C 0.51766 0.7633 0.85829 0.0
C94 C 0.48196 0.77233 0.86132 0.0
C95 C 0.4476 0.74316 0.86388 0.0
C96 C 0.45045 0.70521 0.86536 0.0
C97 C 0.48621 0.69627 0.86252 0.0
C98 C 0.56599 0.63785 0.7901 0.0
C99 C 0.46602 0.59758 0.82046 0.0
O100 O 0.56857 0.53005 0.79283 0.0
O101 O 0.51203 0.50276 0.80549 0.0
O102 O 0.55064 0.59435 0.84493 0.0
O103 O 0.54159 0.53565 0.84797 0.0
O104 O 0.62182 0.64281 0.83519 0.0
O105 O 0.61231 0.58699 0.8163 0.0
O106 O 0.56513 0.68702 0.85855 0.0
O107 O 0.55275 0.71227 0.83033 0.0
O108 O 0.54039 0.61846 0.80109 0.0
O109 O 0.58786 0.6677 0.79953 0.0
O110 O 0.47919 0.56953 0.81282 0.0
O111 O 0.48963 0.6288 0.82859 0.0
H112 H 0.571 0.48463 0.83126 0.0
H113 H 0.59123 0.42759 0.84177 0.0
H114 H 0.56678 0.38097 0.78212 0.0
H115 H 0.54588 0.43813 0.77176 0.0
H116 H 0.54305 0.78587 0.85475 0.0
H117 H 0.48063 0.8018 0.85984 0.0
H118 H 0.42451 0.68222 0.86735 0.0
H119 H 0.48709 0.66655 0.86247 0.0
C120 C 0.64679 0.17381 0.20915 0.0
C121 C 0.67289 0.20187 0.22102 0.0
C122 C 0.67192 0.19889 0.24188 0.0
C123 C 0.61967 0.14101 0.23887 0.0
C124 C 0.62033 0.14376 0.2184 0.0
C125 C 0.58983 0.11177 0.20825 0.0
H126 H 0.44545 0.94868 0.21704 0.0
C127 C 0.5893 0.10652 0.24389 0.0
C128 C 0.57161 0.08907 0.22602 0.0
H129 H 0.48457 1.00744 0.16289 0.0
H130 H 0.5326 0.05574 0.18192 0.0
H131 H 0.53085 0.95833 0.23826 0.0
H132 H 0.44273 1.02146 0.24082 0.0
H133 H 0.46256 1.02198 0.26509 0.0
H134 H 0.43819 0.97695 0.25332 0.0
H135 H 0.48578 0.94118 0.25076 0.0
H136 H 0.52868 0.97122 0.2633 0.0
C137 C 0.61109 0.08861 0.19516 0.0
C138 C 0.56011 0.12941 0.19662 0.0
C139 C 0.56461 0.07333 0.31646 0.0
C140 C 0.53799 1.04339 0.32573 0.0
C141 C 0.51349 1.01421 0.31381 0.0
C142 C 0.51471 1.0153 0.29306 0.0
C143 C 0.54065 1.04594 0.284 0.0
C144 C 0.56536 0.07404 0.29566 0.0
C145 C 0.59099 0.10434 0.28339 0.0
C146 C 0.57706 0.09007 0.26245 0.0
C147 C 0.54759 0.05596 0.26295 0.0
C148 C 0.63429 0.10361 0.28784 0.0
C149 C 0.5815 0.14301 0.28813 0.0
C150 C 0.46477 0.97159 0.20921 0.0
C151 C 0.46163 0.97401 0.18844 0.0
C152 C 0.48652 1.00498 0.1789 0.0
C153 C 0.51435 1.03291 0.18997 0.0
C154 C 0.51694 1.03005 0.21081 0.0
C155 C 0.49218 0.99975 0.22001 0.0
C156 C 0.49739 1.0018 0.24223 0.0
C157 C 0.52962 1.03821 0.24498 0.0
C158 C 0.54129 0.05468 0.22658 0.0
C159 C 0.51113 0.96627 0.24917 0.0
C160 C 0.45829 1.00548 0.25098 0.0
H161 H 0.64657 0.1682 0.26675 0.0
H162 H 0.64664 0.17546 0.19309 0.0
H163 H 0.55541 0.15473 0.2047 0.0
H164 H 0.53067 0.10966 0.19492 0.0
H165 H 0.57079 0.13891 0.1817 0.0
H166 H 0.63755 0.08393 0.20325 0.0
H167 H 0.62079 0.10403 0.18127 0.0
H168 H 0.59285 0.05985 0.1912 0.0
H169 H 0.58365 0.09634 0.32516 0.0
H170 H 0.49322 0.99047 0.32057 0.0
H171 H 0.49507 0.99237 0.28489 0.0
H172 H 0.63672 0.07412 0.29112 0.0
H173 H 0.64692 0.12195 0.30094 0.0
H174 H 0.65315 0.1124 0.27506 0.0
H175 H 0.54974 0.13885 0.29084 0.0
H176 H 0.58724 0.16327 0.27572 0.0
H177 H 0.59821 0.15677 0.30165 0.0
H178 H 0.6921 0.2197 0.25135 0.0
C179 C 0.6456 0.16873 0.25083 0.0
C180 C 0.55005 0.66868 0.51575 0.0
C181 C 0.55392 0.70531 0.52479 0.0
C182 C 0.56189 0.70938 0.54533 0.0
C183 C 0.56066 0.64221 0.54814 0.0
C184 C 0.55376 0.63727 0.52785 0.0
C185 C 0.55148 0.59577 0.52179 0.0
H186 H 0.54719 0.41316 0.55589 0.0
C187 C 0.56166 0.60512 0.55707 0.0
C188 C 0.55635 0.57696 0.5419 0.0
H189 H 0.54245 0.44377 0.49422 0.0
H190 H 0.54772 0.51061 0.50406 0.0
H191 H 0.61669 0.48172 0.568 0.0
H192 H 0.49186 0.46184 0.57174 0.0
H193 H 0.51195 0.48529 0.59399 0.0
H194 H 0.52076 0.43955 0.58796 0.0
H195 H 0.58967 0.45155 0.58646 0.0
H196 H 0.60932 0.50217 0.59074 0.0
C197 C 0.58569 0.59546 0.50823 0.0
C198 C 0.51119 0.57804 0.5116 0.0
C199 C 0.5755 0.60088 0.63237 0.0
C200 C 0.5749 0.57122 0.64587 0.0
C201 C 0.57131 0.53396 0.63837 0.0
C202 C 0.56793 0.52638 0.61784 0.0
C203 C 0.56804 0.55632 0.60452 0.0
C204 C 0.57197 0.59277 0.61193 0.0
C205 C 0.57076 0.62094 0.59579 0.0
C206 C 0.56546 0.59544 0.57734 0.0
C207 C 0.56395 0.55777 0.58252 0.0
C208 C 0.61097 0.65103 0.59647 0.0
C209 C 0.53454 0.63727 0.59899 0.0
C210 C 0.54697 0.43395 0.54436 0.0
C211 C 0.54383 0.4227 0.5243 0.0
C212 C 0.54473 0.45141 0.50987 0.0
C213 C 0.54775 0.49015 0.51558 0.0
C214 C 0.55069 0.50065 0.53594 0.0
C215 C 0.55071 0.47226 0.54974 0.0
C216 C 0.5558 0.48709 0.57065 0.0
C217 C 0.55874 0.52906 0.56754 0.0
C218 C 0.55532 0.5379 0.54719 0.0
C219 C 0.59465 0.48018 0.57962 0.0
C220 C 0.51844 0.46741 0.58184 0.0
H221 H 0.57107 0.68433 0.57245 0.0
H222 H 0.54419 0.66469 0.49989 0.0
H223 H 0.48727 0.58137 0.52127 0.0
H224 H 0.50687 0.54719 0.50859 0.0
H225 H 0.50799 0.59227 0.49727 0.0
H226 H 0.61393 0.61195 0.51527 0.0
H227 H 0.5815 0.60865 0.4937 0.0
H228 H 0.58873 0.56628 0.50542 0.0
H229 H 0.57755 0.62974 0.63758 0.0
H230 H 0.57117 0.51061 0.64841 0.0
H231 H 0.56509 0.49737 0.61319 0.0
H232 H 0.63501 0.63844 0.60208 0.0
H233 H 0.61059 0.6755 0.60644 0.0
H234 H 0.62023 0.66185 0.5816 0.0
H235 H 0.5107 0.61608 0.60622 0.0
H236 H 0.52063 0.64389 0.58493 0.0
H237 H 0.54234 0.66326 0.60865 0.0
H238 H 0.56512 0.73689 0.5526 0.0
C239 C 0.56529 0.67849 0.55691 0.0
C240 C 0.15416 0.58549 0.84191 0.0
C241 C 0.18763 0.5766 0.85086 0.0
C242 C 0.18809 0.56889 0.87131 0.0
C243 C 0.12386 0.58077 0.87406 0.0
C244 C 0.12224 0.58685 0.8538 0.0
C245 C 0.08306 0.59382 0.84714 0.0
H246 H 0.9087 0.62567 0.87525 0.0
C247 C 0.08772 0.58653 0.88259 0.0
C248 C 0.0633 0.59425 0.86696 0.0
H249 H 0.94221 0.61227 0.81509 0.0
H250 H 1.00542 0.60382 0.82751 0.0
H251 H 0.93716 0.55604 0.89206 0.0
H252 H 0.98881 0.6768 0.89153 0.0
H253 H 1.00594 0.66124 0.91397 0.0
H254 H 0.95389 0.65565 0.90955 0.0
H255 H 0.92028 0.59013 0.90657 0.0
H256 H 0.95829 0.56893 0.9159 0.0
C257 C 0.06114 0.55983 0.83372 0.0
C258 C 0.09024 0.63278 0.83676 0.0
C259 C 0.07426 0.58147 0.95774 0.0
C260 C 0.0467 0.59056 0.97039 0.0
C261 C 1.01566 0.60405 0.96178 0.0
C262 C 1.01129 0.60707 0.94117 0.0
C263 C 0.03849 0.59708 0.92879 0.0
C264 C 0.06984 0.58545 0.93712 0.0
C265 C 0.09749 0.57906 0.92166 0.0
C266 C 0.07675 0.58764 0.90266 0.0
C267 C 0.04196 0.59746 0.90697 0.0
C268 C 0.09902 0.53661 0.9224 0.0
C269 C 0.13762 0.60828 0.92574 0.0
C270 C 0.92973 0.62143 0.86465 0.0
C271 C 0.92059 0.62011 0.84418 0.0
C272 C 0.94855 0.61341 0.83097 0.0
C273 C 0.9851 0.60837 0.83821 0.0
C274 C 0.99338 0.60921 0.85888 0.0
C275 C 0.96556 0.61556 0.87159 0.0
C276 C 0.97743 0.61371 0.89304 0.0
C277 C 1.01672 0.60441 0.89136 0.0
C278 C 1.02672 0.60232 0.87137 0.0
C279 C 0.94677 0.58074 0.90258 0.0
C280 C 0.98154 0.6537 0.90268 0.0
H281 H 0.15929 0.56532 0.89843 0.0
H282 H 0.15286 0.59093 0.82613 0.0
H283 H 0.11048 0.6553 0.84607 0.0
H284 H 0.06302 0.6422 0.83427 0.0
H285 H 0.10371 0.6316 0.82216 0.0
H286 H 0.06595 0.53248 0.83944 0.0
H287 H 0.07166 0.56327 0.8183 0.0
H288 H 1.02906 0.55594 0.83331 0.0
H289 H 0.09863 0.57114 0.96361 0.0
H290 H 0.99469 0.61274 0.97094 0.0
H291 H 0.98676 0.61708 0.93571 0.0
H292 H 0.06959 0.5178 0.92532 0.0
H293 H 0.11969 0.53198 0.93442 0.0
H294 H 0.1072 0.52596 0.90817 0.0
H295 H 0.13395 0.63466 0.93318 0.0
H296 H 0.15281 0.61862 0.91199 0.0
H297 H 0.15731 0.59611 0.93554 0.0
H298 H 0.21348 0.56205 0.87847 0.0
C299 C 0.15663 0.57104 0.88291 0.0
C300 C 0.96848 0.4733 0.45513 0.0
C301 C 0.94673 0.44214 0.44354 0.0
C302 C 0.94942 0.44313 0.42273 0.0
C303 C 0.99526 0.50531 0.42515 0.0
C304 C 0.99296 0.5044 0.44562 0.0
C305 C 1.02013 0.53914 0.45547 0.0
H306 H 0.16372 0.70248 0.4453 0.0
C307 C 1.02355 0.54101 0.41982 0.0
C308 C 0.03862 0.56101 0.4375 0.0
H309 H 0.1151 0.65335 0.5 0.0
H310 H 0.06888 0.60279 0.48131 0.0
H311 H 0.16457 0.62425 0.42253 0.0
H312 H 0.0831 0.69491 0.42329 0.0
H313 H 0.07853 0.67522 0.3992 0.0
H314 H 0.12493 0.70586 0.40795 0.0
H315 H 0.17394 0.67126 0.41223 0.0
H316 H 0.1492 0.62965 0.39778 0.0
C317 C 0.05062 0.52559 0.46876 0.0
C318 C 0.99509 0.56119 0.46683 0.0
C319 C 0.04693 0.57178 0.34692 0.0
C320 C 0.07023 0.60346 0.33733 0.0
C321 C 0.09436 0.6334 0.3489 0.0
C322 C 0.0951 0.63198 0.36969 0.0
C323 C 0.07127 0.60038 0.37909 0.0
C324 C 0.04768 0.57101 0.36774 0.0
C325 C 1.02361 0.54023 0.38032 0.0
C326 C 0.03631 0.55628 0.4011 0.0
C327 C 0.06441 0.59126 0.40025 0.0
C328 C 0.03607 0.5027 0.37633 0.0
C329 C 0.97969 0.53784 0.37552 0.0
C330 C 0.14329 0.68063 0.45325 0.0
C331 C 0.14336 0.68129 0.47408 0.0
C332 C 0.11562 0.65311 0.48392 0.0
C333 C 0.08905 0.62378 0.47305 0.0
C334 C 0.09011 0.62296 0.45215 0.0
C335 C 0.11649 0.65163 0.44266 0.0
C336 C 0.11256 0.64772 0.42044 0.0
C337 C 0.0805 0.6111 0.41804 0.0
C338 C 0.06748 0.59639 0.43661 0.0
C339 C 0.15208 0.6432 0.41267 0.0
C340 C 0.09936 0.68272 0.41215 0.0
H341 H 0.974 0.4734 0.3976 0.0
H342 H 0.96718 0.473 0.47118 0.0
H343 H 0.96749 0.56092 0.4582 0.0
H344 H 1.00996 0.59169 0.46915 0.0
H345 H 0.98694 0.54806 0.48146 0.0
H346 H 0.06059 0.50249 0.46116 0.0
H347 H 0.03782 0.51412 0.483 0.0
H348 H 0.07752 0.54827 0.47207 0.0
H349 H 1.02777 0.54853 0.33841 0.0
H350 H 0.11287 0.65791 0.34183 0.0
H351 H 0.11417 0.65562 0.37762 0.0
H352 H 0.06716 0.50866 0.37194 0.0
H353 H 1.01767 0.48555 0.36415 0.0
H354 H 0.03495 0.48487 0.38971 0.0
H355 H 0.97494 0.56685 0.3733 0.0
H356 H 0.96041 0.5256 0.38767 0.0
H357 H 0.96931 0.5209 0.36169 0.0
H358 H 0.9327 0.41952 0.41356 0.0
C359 C 0.97337 0.4745 0.41349 0.0
C360 C 0.36777 0.92981 0.80338 0.0
C361 C 0.34329 0.8979 0.79339 0.0
C362 C 0.34212 0.89722 0.77238 0.0
C363 C 0.39415 0.95572 0.77217 0.0
C364 C 0.39289 0.95793 0.79262 0.0
C365 C 0.42346 0.99101 0.80149 0.0
H366 H 0.57207 0.14575 0.78821 0.0
C367 C 0.4274 0.98678 0.76591 0.0
C368 C 0.44448 1.00749 0.78311 0.0
H369 H 0.51573 0.1067 0.84307 0.0
H370 H 0.47585 1.05079 0.82595 0.0
H371 H 0.58117 0.0637 0.77414 0.0
H372 H 0.49821 0.12983 0.76119 0.0
H373 H 0.50707 0.10987 0.73849 0.0
H374 H 0.54719 0.14118 0.75232 0.0
H375 H 0.58989 0.10023 0.75576 0.0
H376 H 0.56485 1.05132 0.74952 0.0
C377 C 0.45062 0.97537 0.81608 0.0
C378 C 0.40205 1.01879 0.81111 0.0
C379 C 0.46858 0.99737 0.69371 0.0
C380 C 0.50089 1.02135 0.68463 0.0
C381 C 0.52702 1.0501 0.69601 0.0
C382 C 0.52156 0.05479 0.7162 0.0
C383 C 0.48973 1.03033 0.72525 0.0
C384 C 0.46381 1.00213 0.71413 0.0
C385 C 0.43283 0.97789 0.72679 0.0
C386 C 0.44453 0.99644 0.74719 0.0
C387 C 0.4778 1.02716 0.74603 0.0
C388 C 0.43718 0.93635 0.72597 0.0
C389 C 0.39226 0.98237 0.71924 0.0
C390 C 0.55213 0.12471 0.7968 0.0
C391 C 0.54696 0.13101 0.81706 0.0
C392 C 0.51992 0.10294 0.82739 0.0
C393 C 0.49661 0.07059 0.81739 0.0
C394 C 0.50039 0.06622 0.79682 0.0
C395 C 0.52861 0.09248 0.78705 0.0
C396 C 0.52846 0.08366 0.76522 0.0
C397 C 0.49429 1.04858 0.76332 0.0
C398 C 0.47795 1.03856 0.7818 0.0
C399 C 0.5681 0.07446 0.76076 0.0
C400 C 0.52008 0.11785 0.75355 0.0
H401 H 0.36617 0.9232 0.74582 0.0
H402 H 0.37026 0.93151 0.81945 0.0
H403 H 0.37466 1.01919 0.80244 0.0
H404 H 0.41948 1.04878 0.81134 0.0
H405 H 0.39376 1.01013 0.82649 0.0
H406 H 0.45471 0.94759 0.8106 0.0
H407 H 0.43806 0.97068 0.83104 0.0
H408 H 0.48059 0.99415 0.81763 0.0
H409 H 0.44826 0.97488 0.68525 0.0
H410 H 0.5518 0.06912 0.68921 0.0
H411 H 0.54253 0.07727 0.72395 0.0
H412 H 0.46869 0.93599 0.72652 0.0
H413 H 0.42355 0.92161 0.712 0.0
H414 H 0.42444 0.91918 0.73871 0.0
H415 H 0.39405 1.01242 0.71496 0.0
H416 H 0.37002 0.97594 0.73073 0.0
H417 H 0.38138 0.96386 0.70597 0.0
H418 H 0.32307 0.87348 0.76419 0.0
C419 C 0.36739 0.92599 0.76172 0.0
C420 C 0.668 0.59915 0.13205 0.0
C421 C 0.70337 0.60173 0.12233 0.0
C422 C 0.70302 0.60087 0.10145 0.0
C423 C 0.63321 0.59552 0.09995 0.0
C424 C 0.63316 0.59636 0.12049 0.0
C425 C 0.59271 0.59514 0.12782 0.0
H426 H 0.39874 0.57855 0.1043 0.0
C427 C 0.59305 0.59305 0.09211 0.0
C428 C 0.56882 0.59285 0.10828 0.0
H429 H 0.45427 0.59306 0.16293 0.0
H430 H 0.51759 0.59561 0.14875 0.0
H431 H 0.46094 0.64263 0.08558 0.0
H432 H 0.4475 0.52109 0.08582 0.0
H433 H 0.45746 0.53712 0.06143 0.0
H434 H 0.4142 0.5438 0.07288 0.0
H435 H 0.42697 0.61127 0.06875 0.0
H436 H 0.47745 0.63118 0.06263 0.0
C437 C 0.59485 0.63268 0.13942 0.0
C438 C 0.57905 0.55878 0.14028 0.0
C439 C 0.56702 0.58574 0.01741 0.0
C440 C 0.53333 0.58397 0.00529 0.0
C441 C 0.49778 0.58398 0.01424 0.0
C442 C 0.49573 0.58512 0.03501 0.0
C443 C 0.52969 0.5866 0.04696 0.0
C444 C 0.56457 0.58725 0.03806 0.0
C445 C 0.59795 0.59009 0.05294 0.0
C446 C 0.57736 0.59081 0.07232 0.0
C447 C 0.53743 0.58843 0.06875 0.0
C448 C 0.62897 0.62819 0.04945 0.0
C449 C 0.61313 0.55358 0.05073 0.0
C450 C 0.42452 0.58183 0.11408 0.0
C451 C 0.42171 0.58496 0.13469 0.0
C452 C 0.45594 0.59031 0.14698 0.0
C453 C 0.49252 0.5918 0.13871 0.0
C454 C 0.49485 0.58862 0.11794 0.0
C455 C 0.46109 0.58419 0.10606 0.0
C456 C 0.46878 0.58372 0.08431 0.0
C457 C 0.5126 0.58771 0.08494 0.0
C458 C 0.52803 0.59021 0.10465 0.0
C459 C 0.45781 0.61875 0.07466 0.0
C460 C 0.44571 0.54456 0.07547 0.0
H461 H 0.67034 0.59718 0.07443 0.0
H462 H 0.66768 0.60008 0.14813 0.0
H463 H 0.58487 0.53365 0.1325 0.0
H464 H 0.54728 0.55145 0.14272 0.0
H465 H 0.595 0.56202 0.15498 0.0
H466 H 0.61471 0.65733 0.13217 0.0
H467 H 0.60628 0.63122 0.15491 0.0
H468 H 0.56626 0.63993 0.13975 0.0
H469 H 0.5949 0.5864 0.01093 0.0
H470 H 0.47141 0.58244 0.00517 0.0
H471 H 0.46774 0.58462 0.04094 0.0
H472 H 0.61522 0.6501 0.04288 0.0
H473 H 0.65151 0.624 0.03913 0.0
H474 H 0.64367 0.64165 0.06342 0.0
H475 H 0.58846 0.52819 0.04717 0.0
H476 H 0.62711 0.54603 0.06455 0.0
H477 H 0.63412 0.55651 0.03856 0.0
H478 H 0.72994 0.60268 0.09375 0.0
C479 C 0.6683 0.59767 0.09026 0.0
H480 H 0.17386 0.52538 0.15908 0.0
H481 H 0.39885 0.64193 0.15402 0.0
H482 H 0.20955 0.64804 0.15404 0.0
H483 H 0.35633 0.52583 0.13275 0.0
H484 H 0.3314 0.64253 0.16216 0.0
H485 H 0.24273 0.52329 0.15724 0.0
C486 C 0.19619 0.55189 0.15779 0.0
C487 C 0.1859 0.58691 0.15652 0.0
C488 C 0.33699 0.61677 0.15599 0.0
C489 C 0.26466 0.58471 0.15465 0.0
C490 C 0.3754 0.61633 0.15153 0.0
C491 C 0.38293 0.58373 0.14282 0.0
C492 C 0.30617 0.58419 0.15194 0.0
C493 C 0.35156 0.55143 0.13953 0.0
C494 C 0.23542 0.55064 0.15667 0.0
C495 C 0.21609 0.62037 0.15481 0.0
N496 N 0.31453 0.55245 0.14409 0.0
N497 N 0.2541 0.61847 0.15394 0.0
H498 H 0.74254 0.2819 0.48615 0.0
H499 H 0.94886 0.36818 0.43841 0.0
H500 H 0.82149 0.21377 0.4697 0.0
H501 H 0.88679 0.43873 0.46896 0.0
H502 H 0.90211 0.31126 0.44998 0.0
H503 H 0.79424 0.33975 0.48031 0.0
C504 C 0.77078 0.27902 0.4815 0.0
C505 C 0.77739 0.24275 0.47819 0.0
C506 C 0.89883 0.33911 0.45438 0.0
C507 C 0.83651 0.30893 0.47125 0.0
C508 C 0.9255 0.37156 0.44776 0.0
C509 C 0.92147 0.40804 0.45271 0.0
C510 C 0.86741 0.3431 0.46578 0.0
C511 C 0.89087 0.411 0.46491 0.0
C512 C 0.80025 0.3121 0.47812 0.0
C513 C 0.81456 0.24097 0.47197 0.0
N514 N 0.86461 0.37888 0.47084 0.0
N515 N 0.84251 0.2735 0.46857 0.0
H516 H 0.38757 0.70505 0.83955 0.0
H517 H 0.31359 0.89236 0.83115 0.0
H518 H 0.42046 0.80165 0.87981 0.0
H519 H 0.33524 0.8228 0.78257 0.0
H520 H 0.31788 0.84117 0.85405 0.0
H521 H 0.33458 0.73031 0.82552 0.0
C522 C 0.38245 0.73063 0.84609 0.0
C523 C 0.40885 0.75164 0.86058 0.0
C524 C 0.3201 0.8367 0.83825 0.0
C525 C 0.34889 0.78111 0.84434 0.0
C526 C 0.31792 0.86595 0.82514 0.0
C527 C 0.32663 0.86297 0.80503 0.0
C528 C 0.32992 0.80402 0.83104 0.0
C529 C 0.32966 0.82721 0.79799 0.0
C530 C 0.35236 0.74518 0.83797 0.0
C531 C 0.40125 0.78503 0.86832 0.0
N532 N 0.33242 0.79949 0.81108 0.0
N533 N 0.37244 0.79926 0.85978 0.0
H534 H 0.91625 0.54636 0.16417 0.0
H535 H 0.76562 0.66329 0.12274 0.0
H536 H 0.9502 0.65758 0.13748 0.0
H537 H 0.72829 0.54891 0.14493 0.0
H538 H 0.8332 0.66507 0.13319 0.0
H539 H 0.84751 0.5494 0.16153 0.0
C540 C 0.90935 0.57151 0.15786 0.0
C541 C 0.93915 0.60164 0.15088 0.0
C542 C 0.81028 0.63974 0.13613 0.0
C543 C 0.86048 0.60534 0.14794 0.0
C544 C 0.77168 0.63893 0.13035 0.0
C545 C 0.74152 0.60604 0.13315 0.0
C546 C 0.81898 0.60716 0.14452 0.0
C547 C 0.75081 0.57494 0.14276 0.0
C548 C 0.87006 0.57321 0.15639 0.0
C549 C 0.92833 0.6335 0.14291 0.0
N550 N 0.78887 0.57605 0.1479 0.0
N551 N 0.89 0.63442 0.1416 0.0
H552 H 0.26203 0.89692 0.5294 0.0
H553 H 0.22226 0.69858 0.47057 0.0
H554 H 0.35359 0.84819 0.50848 0.0
H555 H 0.1318 0.73244 0.50214 0.0
H556 H 0.27084 0.75281 0.4854 0.0
H557 H 0.21383 0.83678 0.52085 0.0
C558 C 0.27209 0.8735 0.52323 0.0
C559 C 0.31192 0.87789 0.51938 0.0
C560 C 0.24049 0.7483 0.48932 0.0
C561 C 0.25688 0.80921 0.50938 0.0
C562 C 0.21278 0.71735 0.48083 0.0
C563 C 0.17307 0.71125 0.48511 0.0
C564 C 0.22839 0.77383 0.50197 0.0
C565 C 0.16224 0.73622 0.49856 0.0
C566 C 0.24453 0.83922 0.5183 0.0
C567 C 0.32314 0.84656 0.51125 0.0
N568 N 0.18972 0.76681 0.50634 0.0
N569 N 0.29579 0.81379 0.50639 0.0
H570 H 0.62707 0.35921 0.79584 0.0
H571 H 0.51371 0.17182 0.84271 0.0
H572 H 0.5516 0.35845 0.845 0.0
H573 H 0.62023 0.17846 0.81152 0.0
H574 H 0.53371 0.24041 0.84834 0.0
H575 H 0.63127 0.29463 0.80444 0.0
C576 C 0.6119 0.34558 0.80862 0.0
C577 C 0.58852 0.36378 0.81955 0.0
C578 C 0.55325 0.22681 0.84068 0.0
C579 C 0.59279 0.29006 0.82939 0.0
C580 C 0.54197 0.18738 0.83759 0.0
C581 C 0.56468 0.16936 0.82601 0.0
C582 C 0.58699 0.24839 0.83178 0.0
C583 C 0.601 0.19137 0.81982 0.0
C584 C 0.61451 0.3089 0.81364 0.0
C585 C 0.56985 0.34526 0.83616 0.0
N586 N 0.6105 0.22994 0.82225 0.0
N587 N 0.57171 0.30904 0.84033 0.0
H588 H 0.60518 0.94605 0.49448 0.0
H589 H 0.48754 0.73081 0.51988 0.0
H590 H 0.48696 0.9159 0.51505 0.0
H591 H 0.61079 0.76219 0.50857 0.0
H592 H 0.48431 0.79664 0.51296 0.0
H593 H 0.60569 0.87823 0.49513 0.0
C594 C 0.57919 0.92529 0.49902 0.0
C595 C 0.54603 0.93724 0.5048 0.0
C596 C 0.51195 0.78906 0.5115 0.0
C597 C 0.54639 0.85872 0.50546 0.0
C598 C 0.51362 0.75118 0.51511 0.0
C599 C 0.54921 0.74042 0.51419 0.0
C600 C 0.54626 0.81697 0.5071 0.0
C601 C 0.58247 0.76876 0.50885 0.0
C602 C 0.57955 0.8864 0.4994 0.0
C603 C 0.51336 0.90852 0.51055 0.0
N604 N 0.58025 0.80555 0.50563 0.0
N605 N 0.51441 0.87095 0.51074 0.0
H606 H 0.694 0.67166 0.84502 0.0
H607 H 0.86774 0.57498 0.81743 0.0
H608 H 0.67575 0.56897 0.80912 0.0
H609 H 0.88295 0.67366 0.85593 0.0
H610 H 0.79889 0.57607 0.8111 0.0
H611 H 0.76433 0.67587 0.84663 0.0
C612 C 0.70468 0.65 0.83743 0.0
C613 C 0.67862 0.61979 0.82701 0.0
C614 C 0.81742 0.59773 0.82077 0.0
C615 C 0.75964 0.62453 0.82877 0.0
C616 C 0.85683 0.59732 0.82422 0.0
C617 C 0.88109 0.6241 0.83733 0.0
C618 C 0.8022 0.6252 0.83045 0.0
C619 C 0.8652 0.65217 0.8459 0.0
C620 C 0.74499 0.65246 0.83833 0.0
C621 C 0.69453 0.59271 0.81742 0.0
N622 N 0.82685 0.65181 0.84243 0.0
N623 N 0.73387 0.59566 0.81859 0.0
H624 H 0.24658 0.8581 0.12514 0.0
H625 H 0.44467 0.8966 0.19242 0.0
H626 H 0.28215 0.77257 0.16064 0.0
H627 H 0.40917 0.98484 0.15924 0.0
H628 H 0.38883 0.84936 0.17757 0.0
H629 H 0.30878 0.90359 0.1345 0.0
C630 C 0.26746 0.84881 0.13484 0.0
C631 C 0.2589 0.81141 0.14218 0.0
C632 C 0.39334 0.87897 0.17335 0.0
C633 C 0.33035 0.8633 0.1528 0.0
C634 C 0.42523 0.90595 0.18185 0.0
C635 C 0.43129 0.94474 0.17721 0.0
C636 C 0.367 0.89078 0.16019 0.0
C637 C 0.40557 0.9552 0.16318 0.0
C638 C 0.30308 0.87476 0.14008 0.0
C639 C 0.28747 0.80088 0.15442 0.0
N640 N 0.37424 0.92842 0.15533 0.0
N641 N 0.32169 0.82671 0.15942 0.0
H642 H 0.59514 0.20331 0.49641 0.0
H643 H 0.49179 0.36041 0.53904 0.0
H644 H 0.48561 0.17481 0.5264 0.0
H645 H 0.58706 0.38945 0.49895 0.0
H646 H 0.49011 0.29274 0.53481 0.0
H647 H 0.59423 0.27101 0.4977 0.0
C648 C 0.57082 0.21109 0.50327 0.0
C649 C 0.54038 0.18274 0.51132 0.0
C650 C 0.51123 0.31371 0.52676 0.0
C651 C 0.53934 0.26111 0.5129 0.0
C652 C 0.51216 0.35254 0.52914 0.0
C653 C 0.53953 0.38102 0.5193 0.0
C654 C 0.53828 0.30261 0.51463 0.0
C655 C 0.56517 0.3687 0.50669 0.0
C656 C 0.57032 0.24996 0.50393 0.0
C657 C 0.50978 0.19519 0.51995 0.0
N658 N 0.56419 0.33063 0.50489 0.0
N659 N 0.5102 0.23313 0.52059 0.0
H660 H 0.42774 0.65484 0.82174 0.0
H661 H 0.2216 0.51741 0.84585 0.0
H662 H 0.40613 0.53205 0.81915 0.0
H663 H 0.23601 0.63619 0.83203 0.0
H664 H 0.28776 0.52122 0.83445 0.0
H665 H 0.357 0.6481 0.82377 0.0
C666 C 0.40816 0.62646 0.82158 0.0
C667 C 0.423 0.59392 0.82037 0.0
C668 C 0.27627 0.5463 0.8335 0.0
C669 C 0.34201 0.58622 0.82339 0.0
C670 C 0.23844 0.54406 0.83991 0.0
C671 C 0.2233 0.57647 0.83974 0.0
C672 C 0.29959 0.58147 0.82728 0.0
C673 C 0.24646 0.61045 0.83218 0.0
C674 C 0.3678 0.62271 0.82276 0.0
C675 C 0.39606 0.55792 0.82005 0.0
N676 N 0.28368 0.61224 0.82655 0.0
N677 N 0.357 0.55502 0.82188 0.0
H678 H 0.8753 0.33635 0.16205 0.0
H679 H 0.69136 0.27721 0.23208 0.0
H680 H 0.8501 0.40852 0.20843 0.0
H681 H 0.72047 0.19962 0.18975 0.0
H682 H 0.7447 0.32826 0.22033 0.0
H683 H 0.81437 0.28869 0.16879 0.0
C684 C 0.85674 0.34237 0.17349 0.0
C685 C 0.868 0.37633 0.18483 0.0
C686 C 0.73935 0.30017 0.21348 0.0
C687 C 0.79841 0.32187 0.19268 0.0
C688 C 0.70891 0.27099 0.22022 0.0
C689 C 0.70182 0.23397 0.21208 0.0
C690 C 0.76314 0.29241 0.1985 0.0
C691 C 0.72494 0.22775 0.19644 0.0
C692 C 0.82207 0.31507 0.17739 0.0
C693 C 0.84295 0.38246 0.19957 0.0
N694 N 0.75487 0.25659 0.19029 0.0
N695 N 0.8095 0.35547 0.20311 0.0
H696 H 1.00819 0.59659 0.09604 0.0
H697 H 0.11368 0.59897 -0.00543 0.0
H698 H 0.10611 0.54562 0.09204 0.0
H699 H 0.98715 0.57186 -0.00318 0.0
H700 H 0.11744 0.59235 0.0307 0.0
H701 H 1.00638 0.60242 0.05975 0.0
C702 C 1.02944 0.58687 0.0875 0.0
C703 C 0.05718 0.57037 0.09691 0.0
C704 C 0.08898 0.58793 0.02313 0.0
C705 C 0.05568 0.57758 0.05569 0.0
C706 C 0.08666 0.59142 0.00248 0.0
C707 C 0.04998 0.58623 0.99239 0.0
C708 C 0.05452 0.58013 0.03383 0.0
C709 C 1.01619 0.57728 0.00378 0.0
C710 C 1.02827 0.59005 0.06687 0.0
C711 C 0.08409 0.55821 0.08523 0.0
N712 N 1.01931 0.57492 0.02386 0.0
N713 N 0.0829 0.56231 0.06515 0.0
H714 H 0.44809 1.02951 0.44387 0.0
H715 H 0.59704 0.06091 0.35467 0.0
H716 H 0.57371 0.05684 0.45338 0.0
H717 H 0.47097 1.02576 0.34668 0.0
H718 H 0.58986 0.06103 0.39076 0.0
H719 H 0.45653 1.02894 0.40808 0.0
C720 C 0.47753 1.03545 0.43838 0.0
C721 C 0.51032 1.04352 0.45155 0.0
C722 C 0.56381 0.05318 0.38109 0.0
C723 C 0.5203 1.04294 0.41056 0.0
C724 C 0.56787 0.0533 0.3605 0.0
C725 C 0.53455 1.04315 0.34764 0.0
C726 C 0.52615 1.04308 0.38884 0.0
C727 C 0.4975 1.03318 0.35602 0.0
C728 C 0.48235 1.03511 0.41794 0.0
C729 C 0.54775 1.05089 0.44368 0.0
N730 N 0.49433 1.03347 0.37604 0.0
N731 N 0.55178 1.0505 0.42366 0.0
H732 H 0.61807 0.67653 0.76349 0.0
H733 H 0.53213 0.52765 0.67448 0.0
H734 H 0.52333 0.57565 0.7693 0.0
H735 H 0.62086 0.63261 0.66683 0.0
H736 H 0.53239 0.54251 0.7099 0.0
H737 H 0.62295 0.65907 0.72857 0.0
C738 C 0.59839 0.65069 0.75741 0.0
C739 C 0.57016 0.62758 0.76921 0.0
C740 C 0.55193 0.56226 0.7005 0.0
C741 C 0.57556 0.60737 0.72944 0.0
C742 C 0.55201 0.55363 0.68028 0.0
C743 C 0.57645 0.57896 0.66762 0.0
C744 C 0.57648 0.59648 0.7082 0.0
C745 C 0.60114 0.61251 0.67597 0.0
C746 C 0.60116 0.64072 0.73751 0.0
C747 C 0.54544 0.59434 0.76067 0.0
N748 N 0.60045 0.62034 0.69572 0.0
N749 N 0.54867 0.58527 0.74131 0.0
H750 H 0.60116 1.0108 0.56848 0.0
H751 H 0.5681 1.01244 0.66916 0.0
H752 H 0.51342 0.07518 0.56383 0.0
H753 H 0.45178 1.02177 0.65221 0.0
H754 H 0.58474 1.01532 0.6343 0.0
H755 H 0.58171 0.99363 0.60233 0.0
C756 C 0.57794 1.02152 0.57467 0.0
C757 C 0.55925 1.04489 0.56351 0.0
C758 C 0.55518 1.01559 0.63801 0.0
C759 C 0.53736 1.02611 0.60237 0.0
C760 C 0.54581 1.01426 0.65795 0.0
C761 C 0.50856 1.01684 0.66345 0.0
C762 C 0.5271 1.01977 0.62342 0.0
C763 C 0.48073 1.0194 0.64847 0.0
C764 C 0.567 1.01191 0.59405 0.0
C765 C 0.52884 0.0574 0.57206 0.0
N766 N 0.49077 1.02142 0.62908 0.0
N767 N 0.51888 1.04794 0.59105 0.0
H768 H 0.53232 0.6273 0.87864 0.0
H769 H 0.56702 0.5374 0.98383 0.0
H770 H 0.55942 0.51809 0.88512 0.0
H771 H 0.50468 0.62547 0.97713 0.0
H772 H 0.57168 0.5347 0.94774 0.0
H773 H 0.52942 0.63217 0.91492 0.0
C774 C 0.53821 0.60469 0.88775 0.0
C775 C 0.54656 0.57251 0.87902 0.0
C776 C 0.5569 0.55457 0.95414 0.0
C777 C 0.54289 0.5775 0.92026 0.0
C778 C 0.55441 0.55624 0.97472 0.0
C779 C 0.53544 0.58169 0.98342 0.0
C780 C 0.5407 0.57883 0.94216 0.0
C781 C 0.51925 0.60522 0.97095 0.0
C782 C 0.53616 0.60724 0.90838 0.0
C783 C 0.55298 0.54342 0.89135 0.0
N784 N 0.52242 0.60338 0.95091 0.0
N785 N 0.55118 0.54667 0.91138 0.0
H786 H 0.08712 0.56718 0.21077 0.0
H787 H 0.06385 0.66442 0.31491 0.0
H788 H 0.04548 0.66915 0.21628 0.0
H789 H 0.07319 0.54805 0.30987 0.0
H790 H 0.06217 0.66847 0.27869 0.0
H791 H 0.08678 0.56104 0.24706 0.0
C792 C 0.07787 0.5882 0.21963 0.0
C793 C 0.06642 0.61877 0.21059 0.0
C794 C 0.06449 0.642 0.28548 0.0
C795 C 0.06623 0.61215 0.25193 0.0
C796 C 0.06571 0.63977 0.30615 0.0
C797 C 0.06881 0.6059 0.31537 0.0
C798 C 0.06677 0.61025 0.27391 0.0
C799 C 0.07056 0.57462 0.30331 0.0
C800 C 0.0776 0.58466 0.2403 0.0
C801 C 0.0546 0.6452 0.22269 0.0
N802 N 0.06975 0.57761 0.28317 0.0
N803 N 0.05503 0.64141 0.24274 0.0
loop_
_geom_bond_atom_site_label_1
_geom_bond_atom_site_label_2
_geom_bond_distance
_geom_bond_site_symmetry_2
_ccdc_geom_bond_type
Pr0 C2 2.880 . S
Pr0 O20 2.562 . S
Pr0 O21 2.490 . S
Pr0 O22 2.695 1_655 S
Pr0 O23 2.512 . S
Pr0 O25 2.437 . S
Pr0 O28 2.436 . S
Pr0 O30 2.438 1_655 S
Pr1 C11 2.880 . S
Pr1 O22 2.436 . S
Pr1 O24 2.438 1_455 S
Pr1 O26 2.562 . S
Pr1 O27 2.490 . S
Pr1 O28 2.695 1_455 S
Pr1 O29 2.512 . S
Pr1 O31 2.437 . S
C2 Pr0 2.880 . S
C2 C3 1.491 . S
C2 O20 1.254 . S
C2 O21 1.225 . S
C3 C2 1.491 . S
C3 C4 1.392 . S
C3 C8 1.356 . S
C4 C3 1.392 . S
C4 C5 1.368 . S
C4 H32 0.929 . S
C5 C4 1.368 . S
C5 C6 1.386 . S
C5 H33 0.929 . S
C6 C5 1.386 . S
C6 C7 1.373 . S
C7 C6 1.373 . S
C7 C8 1.409 . S
C7 H34 0.931 . S
C8 C3 1.356 . S
C8 C7 1.409 . S
C8 H35 0.930 . S
C9 O22 1.270 . S
C9 O23 1.248 1_455 S
C10 O24 1.267 . S
C10 O25 1.278 . S
C11 Pr1 2.880 . S
C11 C12 1.491 . S
C11 O26 1.254 . S
C11 O27 1.225 . S
C12 C11 1.491 . S
C12 C13 1.392 . S
C12 C17 1.356 . S
C13 C12 1.392 . S
C13 C14 1.368 . S
C13 H36 0.929 . S
C14 C13 1.368 . S
C14 C15 1.386 . S
C14 H37 0.929 . S
C15 C14 1.386 . S
C15 C16 1.373 . S
C16 C15 1.373 . S
C16 C17 1.409 . S
C16 H38 0.931 . S
C17 C12 1.356 . S
C17 C16 1.409 . S
C17 H39 0.930 . S
C18 O28 1.270 1_455 S
C18 O29 1.248 . S
C19 O30 1.267 . S
C19 O31 1.278 . S
O20 Pr0 2.562 . S
O20 C2 1.254 . S
O21 Pr0 2.490 . S
O21 C2 1.225 . S
O22 Pr0 2.695 1_455 S
O22 Pr1 2.436 . S
O22 C9 1.270 . S
O23 Pr0 2.512 . S
O23 C9 1.248 1_655 S
O24 Pr1 2.438 1_655 S
O24 C10 1.267 . S
O25 Pr0 2.437 . S
O25 C10 1.278 . S
O26 Pr1 2.562 . S
O26 C11 1.254 . S
O27 Pr1 2.490 . S
O27 C11 1.225 . S
O28 Pr0 2.436 . S
O28 Pr1 2.695 1_655 S
O28 C18 1.270 1_655 S
O29 Pr1 2.512 . S
O29 C18 1.248 . S
O30 Pr0 2.438 1_455 S
O30 C19 1.267 . S
O31 Pr1 2.437 . S
O31 C19 1.278 . S
H32 C4 0.929 . S
H33 C5 0.929 . S
H34 C7 0.931 . S
H35 C8 0.930 . S
H36 C13 0.929 . S
H37 C14 0.929 . S
H38 C16 0.931 . S
H39 C17 0.930 . S
Pr40 C42 2.880 . S
Pr40 O60 2.562 . S
Pr40 O61 2.490 . S
Pr40 O62 2.695 . S
Pr40 O63 2.512 . S
Pr40 O65 2.437 . S
Pr40 O68 2.436 . S
Pr40 O70 2.438 1_545 S
Pr41 C51 2.880 . S
Pr41 O62 2.436 1_565 S
Pr41 O64 2.438 1_565 S
Pr41 O66 2.562 . S
Pr41 O67 2.490 . S
Pr41 O68 2.695 1_565 S
Pr41 O69 2.512 . S
Pr41 O71 2.437 . S
C42 Pr40 2.880 . S
C42 C43 1.491 . S
C42 O60 1.254 . S
C42 O61 1.225 . S
C43 C42 1.491 . S
C43 C44 1.392 . S
C43 C48 1.356 . S
C44 C43 1.392 . S
C44 C45 1.368 . S
C44 H72 0.929 . S
C45 C44 1.368 . S
C45 C46 1.386 . S
C45 H73 0.929 . S
C46 C45 1.386 . S
C46 C47 1.373 . S
C47 C46 1.373 . S
C47 C48 1.409 . S
C47 H74 0.931 . S
C48 C43 1.356 . S
C48 C47 1.409 . S
C48 H75 0.930 . S
C49 O62 1.270 . S
C49 O63 1.248 . S
C50 O64 1.267 . S
C50 O65 1.278 . S
C51 Pr41 2.880 . S
C51 C52 1.491 . S
C51 O66 1.254 . S
C51 O67 1.225 . S
C52 C51 1.491 . S
C52 C53 1.392 . S
C52 C57 1.356 . S
C53 C52 1.392 . S
C53 C54 1.368 . S
C53 H76 0.929 . S
C54 C53 1.368 . S
C54 C55 1.386 . S
C54 H77 0.929 . S
C55 C54 1.386 . S
C55 C56 1.373 . S
C56 C55 1.373 . S
C56 C57 1.409 . S
C56 H78 0.931 . S
C57 C52 1.356 . S
C57 C56 1.409 . S
C57 H79 0.930 . S
C58 O68 1.270 . S
C58 O69 1.248 1_545 S
C59 O70 1.267 . S
C59 O71 1.278 . S
O60 Pr40 2.562 . S
O60 C42 1.254 . S
O61 Pr40 2.490 . S
O61 C42 1.225 . S
O62 Pr40 2.695 . S
O62 Pr41 2.436 1_545 S
O62 C49 1.270 . S
O63 Pr40 2.512 . S
O63 C49 1.248 . S
O64 Pr41 2.438 1_545 S
O64 C50 1.267 . S
O65 Pr40 2.437 . S
O65 C50 1.278 . S
O66 Pr41 2.562 . S
O66 C51 1.254 . S
O67 Pr41 2.490 . S
O67 C51 1.225 . S
O68 Pr40 2.436 . S
O68 Pr41 2.695 1_545 S
O68 C58 1.270 . S
O69 Pr41 2.512 . S
O69 C58 1.248 1_565 S
O70 Pr40 2.438 1_565 S
O70 C59 1.267 . S
O71 Pr41 2.437 . S
O71 C59 1.278 . S
H72 C44 0.929 . S
H73 C45 0.929 . S
H74 C47 0.931 . S
H75 C48 0.930 . S
H76 C53 0.929 . S
H77 C54 0.929 . S
H78 C56 0.931 . S
H79 C57 0.930 . S
Pr80 C82 2.880 . S
Pr80 O100 2.562 . S
Pr80 O101 2.490 . S
Pr80 O102 2.695 . S
Pr80 O103 2.512 . S
Pr80 O105 2.437 . S
Pr80 O108 2.436 . S
Pr80 O110 2.438 . S
Pr81 C91 2.880 . S
Pr81 O102 2.436 . S
Pr81 O104 2.438 . S
Pr81 O106 2.562 . S
Pr81 O107 2.490 . S
Pr81 O108 2.695 . S
Pr81 O109 2.512 . S
Pr81 O111 2.437 . S
C82 Pr80 2.880 . S
C82 C83 1.491 . S
C82 O100 1.254 . S
C82 O101 1.225 . S
C83 C82 1.491 . S
C83 C84 1.392 . S
C83 C88 1.356 . S
C84 C83 1.392 . S
C84 C85 1.368 . S
C84 H112 0.929 . S
C85 C84 1.368 . S
C85 C86 1.386 . S
C85 H113 0.929 . S
C86 C85 1.386 . S
C86 C87 1.373 . S
C87 C86 1.373 . S
C87 C88 1.409 . S
C87 H114 0.931 . S
C88 C83 1.356 . S
C88 C87 1.409 . S
C88 H115 0.930 . S
C89 O102 1.270 . S
C89 O103 1.248 . S
C90 O104 1.267 . S
C90 O105 1.278 . S
C91 Pr81 2.880 . S
C91 C92 1.491 . S
C91 O106 1.254 . S
C91 O107 1.225 . S
C92 C91 1.491 . S
C92 C93 1.392 . S
C92 C97 1.356 . S
C93 C92 1.392 . S
C93 C94 1.368 . S
C93 H116 0.929 . S
C94 C93 1.368 . S
C94 C95 1.386 . S
C94 H117 0.929 . S
C95 C94 1.386 . S
C95 C96 1.373 . S
C96 C95 1.373 . S
C96 C97 1.409 . S
C96 H118 0.931 . S
C97 C92 1.356 . S
C97 C96 1.409 . S
C97 H119 0.930 . S
C98 O108 1.270 . S
C98 O109 1.248 . S
C99 O110 1.267 . S
C99 O111 1.278 . S
O100 Pr80 2.562 . S
O100 C82 1.254 . S
O101 Pr80 2.490 . S
O101 C82 1.225 . S
O102 Pr80 2.695 . S
O102 Pr81 2.436 . S
O102 C89 1.270 . S
O103 Pr80 2.512 . S
O103 C89 1.248 . S
O104 Pr81 2.438 . S
O104 C90 1.267 . S
O105 Pr80 2.437 . S
O105 C90 1.278 . S
O106 Pr81 2.562 . S
O106 C91 1.254 . S
O107 Pr81 2.490 . S
O107 C91 1.225 . S
O108 Pr80 2.436 . S
O108 Pr81 2.695 . S
O108 C98 1.270 . S
O109 Pr81 2.512 . S
O109 C98 1.248 . S
O110 Pr80 2.438 . S
O110 C99 1.267 . S
O111 Pr81 2.437 . S
O111 C99 1.278 . S
H112 C84 0.929 . S
H113 C85 0.929 . S
H114 C87 0.931 . S
H115 C88 0.930 . S
H116 C93 0.929 . S
H117 C94 0.929 . S
H118 C96 0.931 . S
H119 C97 0.930 . S
C120 C121 1.391 . S
C120 C124 1.391 . S
C120 H162 0.948 . S
C121 C120 1.391 . S
C121 C122 1.391 . S
C122 C121 1.391 . S
C122 H178 0.947 . S
C122 C179 1.392 . S
C123 C124 1.391 . S
C123 C127 1.397 . S
C123 C179 1.419 . S
C124 C120 1.391 . S
C124 C123 1.391 . S
C124 C125 1.399 . S
C125 C124 1.399 . S
C125 C128 1.396 . S
C125 C137 1.453 . S
C125 C138 1.684 . S
H126 C150 0.948 . S
C127 C123 1.397 . S
C127 C128 1.394 . S
C127 C146 1.723 . S
C128 C125 1.396 . S
C128 C127 1.394 . S
C128 C158 1.723 . S
H129 C152 0.947 . S
H130 C153 0.948 . S
H131 C159 0.982 . S
H132 C160 0.979 . S
H133 C160 0.980 . S
H134 C160 0.983 . S
H135 C159 0.979 . S
H136 C159 0.977 . S
C137 C125 1.453 . S
C137 H166 0.982 . S
C137 H167 0.979 . S
C137 H168 0.977 . S
C138 C125 1.684 . S
C138 H163 0.979 . S
C138 H164 0.980 . S
C138 H165 0.983 . S
C139 C140 1.391 . S
C139 C144 1.391 . S
C139 H169 0.948 . S
C140 C139 1.391 . S
C140 C141 1.391 1_545 S
C141 C140 1.391 1_565 S
C141 C142 1.392 . S
C141 H170 0.947 . S
C142 C141 1.392 . S
C142 C143 1.419 1_565 S
C142 H171 0.948 . S
C143 C142 1.419 1_545 S
C143 C144 1.391 . S
C143 C147 1.397 . S
C144 C139 1.391 . S
C144 C143 1.391 . S
C144 C145 1.399 . S
C145 C144 1.399 . S
C145 C146 1.396 . S
C145 C148 1.453 . S
C145 C149 1.684 . S
C146 C127 1.723 . S
C146 C145 1.396 . S
C146 C147 1.394 . S
C147 C143 1.397 . S
C147 C146 1.394 . S
C147 C157 1.723 1_545 S
C148 C145 1.453 . S
C148 H172 0.982 . S
C148 H173 0.979 . S
C148 H174 0.977 . S
C149 C145 1.684 . S
C149 H175 0.979 . S
C149 H176 0.980 . S
C149 H177 0.983 . S
C150 H126 0.948 . S
C150 C151 1.391 . S
C150 C155 1.391 . S
C151 C150 1.391 . S
C151 C152 1.391 . S
C152 H129 0.947 . S
C152 C151 1.391 . S
C152 C153 1.392 . S
C153 H130 0.948 . S
C153 C152 1.392 . S
C153 C154 1.419 . S
C154 C153 1.419 . S
C154 C155 1.391 . S
C154 C158 1.397 1_565 S
C155 C150 1.391 . S
C155 C154 1.391 . S
C155 C156 1.399 . S
C156 C155 1.399 . S
C156 C157 1.396 . S
C156 C159 1.453 . S
C156 C160 1.684 . S
C157 C147 1.723 1_565 S
C157 C156 1.396 . S
C157 C158 1.394 1_565 S
C158 C128 1.723 . S
C158 C154 1.397 1_545 S
C158 C157 1.394 1_545 S
C159 H131 0.982 . S
C159 H135 0.979 . S
C159 H136 0.977 . S
C159 C156 1.453 . S
C160 H132 0.979 . S
C160 H133 0.980 . S
C160 H134 0.983 . S
C160 C156 1.684 . S
H161 C179 0.948 . S
H162 C120 0.948 . S
H163 C138 0.979 . S
H164 C138 0.980 . S
H165 C138 0.983 . S
H166 C137 0.982 . S
H167 C137 0.979 . S
H168 C137 0.977 . S
H169 C139 0.948 . S
H170 C141 0.947 . S
H171 C142 0.948 . S
H172 C148 0.982 . S
H173 C148 0.979 . S
H174 C148 0.977 . S
H175 C149 0.979 . S
H176 C149 0.980 . S
H177 C149 0.983 . S
H178 C122 0.947 . S
C179 C122 1.392 . S
C179 C123 1.419 . S
C179 H161 0.948 . S
C180 C181 1.391 . S
C180 C184 1.391 . S
C180 H222 0.948 . S
C181 C180 1.391 . S
C181 C182 1.391 . S
C182 C181 1.391 . S
C182 H238 0.947 . S
C182 C239 1.392 . S
C183 C184 1.391 . S
C183 C187 1.397 . S
C183 C239 1.419 . S
C184 C180 1.391 . S
C184 C183 1.391 . S
C184 C185 1.399 . S
C185 C184 1.399 . S
C185 C188 1.396 . S
C185 C197 1.453 . S
C185 C198 1.684 . S
H186 C210 0.948 . S
C187 C183 1.397 . S
C187 C188 1.394 . S
C187 C206 1.723 . S
C188 C185 1.396 . S
C188 C187 1.394 . S
C188 C218 1.723 . S
H189 C212 0.947 . S
H190 C213 0.948 . S
H191 C219 0.982 . S
H192 C220 0.979 . S
H193 C220 0.980 . S
H194 C220 0.983 . S
H195 C219 0.979 . S
H196 C219 0.977 . S
C197 C185 1.453 . S
C197 H226 0.982 . S
C197 H227 0.979 . S
C197 H228 0.977 . S
C198 C185 1.684 . S
C198 H223 0.979 . S
C198 H224 0.980 . S
C198 H225 0.983 . S
C199 C200 1.391 . S
C199 C204 1.391 . S
C199 H229 0.948 . S
C200 C199 1.391 . S
C200 C201 1.391 . S
C201 C200 1.391 . S
C201 C202 1.392 . S
C201 H230 0.947 . S
C202 C201 1.392 . S
C202 C203 1.419 . S
C202 H231 0.948 . S
C203 C202 1.419 . S
C203 C204 1.391 . S
C203 C207 1.397 . S
C204 C199 1.391 . S
C204 C203 1.391 . S
C204 C205 1.399 . S
C205 C204 1.399 . S
C205 C206 1.396 . S
C205 C208 1.453 . S
C205 C209 1.684 . S
C206 C187 1.723 . S
C206 C205 1.396 . S
C206 C207 1.394 . S
C207 C203 1.397 . S
C207 C206 1.394 . S
C207 C217 1.723 . S
C208 C205 1.453 . S
C208 H232 0.982 . S
C208 H233 0.979 . S
C208 H234 0.977 . S
C209 C205 1.684 . S
C209 H235 0.979 . S
C209 H236 0.980 . S
C209 H237 0.983 . S
C210 H186 0.948 . S
C210 C211 1.391 . S
C210 C215 1.391 . S
C211 C210 1.391 . S
C211 C212 1.391 . S
C212 H189 0.947 . S
C212 C211 1.391 . S
C212 C213 1.392 . S
C213 H190 0.948 . S
C213 C212 1.392 . S
C213 C214 1.419 . S
C214 C213 1.419 . S
C214 C215 1.391 . S
C214 C218 1.397 . S
C215 C210 1.391 . S
C215 C214 1.391 . S
C215 C216 1.399 . S
C216 C215 1.399 . S
C216 C217 1.396 . S
C216 C219 1.453 . S
C216 C220 1.684 . S
C217 C207 1.723 . S
C217 C216 1.396 . S
C217 C218 1.394 . S
C218 C188 1.723 . S
C218 C214 1.397 . S
C218 C217 1.394 . S
C219 H191 0.982 . S
C219 H195 0.979 . S
C219 H196 0.977 . S
C219 C216 1.453 . S
C220 H192 0.979 . S
C220 H193 0.980 . S
C220 H194 0.983 . S
C220 C216 1.684 . S
H221 C239 0.948 . S
H222 C180 0.948 . S
H223 C198 0.979 . S
H224 C198 0.980 . S
H225 C198 0.983 . S
H226 C197 0.982 . S
H227 C197 0.979 . S
H228 C197 0.977 . S
H229 C199 0.948 . S
H230 C201 0.947 . S
H231 C202 0.948 . S
H232 C208 0.982 . S
H233 C208 0.979 . S
H234 C208 0.977 . S
H235 C209 0.979 . S
H236 C209 0.980 . S
H237 C209 0.983 . S
H238 C182 0.947 . S
C239 C182 1.392 . S
C239 C183 1.419 . S
C239 H221 0.948 . S
C240 C241 1.391 . S
C240 C244 1.391 . S
C240 H282 0.948 . S
C241 C240 1.391 . S
C241 C242 1.391 . S
C242 C241 1.391 . S
C242 H298 0.947 . S
C242 C299 1.392 . S
C243 C244 1.391 . S
C243 C247 1.397 . S
C243 C299 1.419 . S
C244 C240 1.391 . S
C244 C243 1.391 . S
C244 C245 1.399 . S
C245 C244 1.399 . S
C245 C248 1.396 . S
C245 C257 1.453 . S
C245 C258 1.684 . S
H246 C270 0.948 . S
C247 C243 1.397 . S
C247 C248 1.394 . S
C247 C266 1.723 . S
C248 C245 1.396 . S
C248 C247 1.394 . S
C248 C278 1.723 1_455 S
H249 C272 0.947 . S
H250 C273 0.948 . S
H251 C279 0.982 . S
H252 C280 0.979 . S
H253 C280 0.980 . S
H254 C280 0.983 . S
H255 C279 0.979 . S
H256 C279 0.977 . S
C257 C245 1.453 . S
C257 H286 0.982 . S
C257 H287 0.979 . S
C257 H288 0.977 1_455 S
C258 C245 1.684 . S
C258 H283 0.979 . S
C258 H284 0.980 . S
C258 H285 0.983 . S
C259 C260 1.391 . S
C259 C264 1.391 . S
C259 H289 0.948 . S
C260 C259 1.391 . S
C260 C261 1.391 1_455 S
C261 C260 1.391 1_655 S
C261 C262 1.392 . S
C261 H290 0.947 . S
C262 C261 1.392 . S
C262 C263 1.419 1_655 S
C262 H291 0.948 . S
C263 C262 1.419 1_455 S
C263 C264 1.391 . S
C263 C267 1.397 . S
C264 C259 1.391 . S
C264 C263 1.391 . S
C264 C265 1.399 . S
C265 C264 1.399 . S
C265 C266 1.396 . S
C265 C268 1.453 . S
C265 C269 1.684 . S
C266 C247 1.723 . S
C266 C265 1.396 . S
C266 C267 1.394 . S
C267 C263 1.397 . S
C267 C266 1.394 . S
C267 C277 1.723 1_455 S
C268 C265 1.453 . S
C268 H292 0.982 . S
C268 H293 0.979 . S
C268 H294 0.977 . S
C269 C265 1.684 . S
C269 H295 0.979 . S
C269 H296 0.980 . S
C269 H297 0.983 . S
C270 H246 0.948 . S
C270 C271 1.391 . S
C270 C275 1.391 . S
C271 C270 1.391 . S
C271 C272 1.391 . S
C272 H249 0.947 . S
C272 C271 1.391 . S
C272 C273 1.392 . S
C273 H250 0.948 . S
C273 C272 1.392 . S
C273 C274 1.419 . S
C274 C273 1.419 . S
C274 C275 1.391 . S
C274 C278 1.397 . S
C275 C270 1.391 . S
C275 C274 1.391 . S
C275 C276 1.399 . S
C276 C275 1.399 . S
C276 C277 1.396 . S
C276 C279 1.453 . S
C276 C280 1.684 . S
C277 C267 1.723 1_655 S
C277 C276 1.396 . S
C277 C278 1.394 . S
C278 C248 1.723 1_655 S
C278 C274 1.397 . S
C278 C277 1.394 . S
C279 H251 0.982 . S
C279 H255 0.979 . S
C279 H256 0.977 . S
C279 C276 1.453 . S
C280 H252 0.979 . S
C280 H253 0.980 . S
C280 H254 0.983 . S
C280 C276 1.684 . S
H281 C299 0.948 . S
H282 C240 0.948 . S
H283 C258 0.979 . S
H284 C258 0.980 . S
H285 C258 0.983 . S
H286 C257 0.982 . S
H287 C257 0.979 . S
H288 C257 0.977 1_655 S
H289 C259 0.948 . S
H290 C261 0.947 . S
H291 C262 0.948 . S
H292 C268 0.982 . S
H293 C268 0.979 . S
H294 C268 0.977 . S
H295 C269 0.979 . S
H296 C269 0.980 . S
H297 C269 0.983 . S
H298 C242 0.947 . S
C299 C242 1.392 . S
C299 C243 1.419 . S
C299 H281 0.948 . S
C300 C301 1.391 . S
C300 C304 1.391 . S
C300 H342 0.948 . S
C301 C300 1.391 . S
C301 C302 1.391 . S
C302 C301 1.391 . S
C302 H358 0.947 . S
C302 C359 1.392 . S
C303 C304 1.391 . S
C303 C307 1.397 . S
C303 C359 1.419 . S
C304 C300 1.391 . S
C304 C303 1.391 . S
C304 C305 1.399 . S
C305 C304 1.399 . S
C305 C308 1.396 . S
C305 C317 1.453 1_655 S
C305 C318 1.684 . S
H306 C330 0.948 . S
C307 C303 1.397 . S
C307 C308 1.394 . S
C307 C326 1.723 . S
C308 C305 1.396 . S
C308 C307 1.394 . S
C308 C338 1.723 1_655 S
H309 C332 0.947 . S
H310 C333 0.948 . S
H311 C339 0.982 . S
H312 C340 0.979 . S
H313 C340 0.980 . S
H314 C340 0.983 . S
H315 C339 0.979 . S
H316 C339 0.977 . S
C317 C305 1.453 1_455 S
C317 H346 0.982 . S
C317 H347 0.979 1_455 S
C317 H348 0.977 . S
C318 C305 1.684 . S
C318 H343 0.979 . S
C318 H344 0.980 . S
C318 H345 0.983 . S
C319 C320 1.391 . S
C319 C324 1.391 . S
C319 H349 0.948 . S
C320 C319 1.391 . S
C320 C321 1.391 1_655 S
C321 C320 1.391 1_455 S
C321 C322 1.392 . S
C321 H350 0.947 . S
C322 C321 1.392 . S
C322 C323 1.419 . S
C322 H351 0.948 . S
C323 C322 1.419 . S
C323 C324 1.391 1_455 S
C323 C327 1.397 . S
C324 C319 1.391 . S
C324 C323 1.391 1_655 S
C324 C325 1.399 . S
C325 C324 1.399 . S
C325 C326 1.396 . S
C325 C328 1.453 . S
C325 C329 1.684 . S
C326 C307 1.723 . S
C326 C325 1.396 . S
C326 C327 1.394 1_655 S
C327 C323 1.397 . S
C327 C326 1.394 1_455 S
C327 C337 1.723 . S
C328 C325 1.453 . S
C328 H352 0.982 . S
C328 H353 0.979 . S
C328 H354 0.977 . S
C329 C325 1.684 . S
C329 H355 0.979 . S
C329 H356 0.980 . S
C329 H357 0.983 . S
C330 H306 0.948 . S
C330 C331 1.391 . S
C330 C335 1.391 . S
C331 C330 1.391 . S
C331 C332 1.391 . S
C332 H309 0.947 . S
C332 C331 1.391 . S
C332 C333 1.392 . S
C333 H310 0.948 . S
C333 C332 1.392 . S
C333 C334 1.419 . S
C334 C333 1.419 . S
C334 C335 1.391 . S
C334 C338 1.397 . S
C335 C330 1.391 . S
C335 C334 1.391 . S
C335 C336 1.399 . S
C336 C335 1.399 . S
C336 C337 1.396 . S
C336 C339 1.453 . S
C336 C340 1.684 . S
C337 C327 1.723 . S
C337 C336 1.396 . S
C337 C338 1.394 . S
C338 C308 1.723 1_455 S
C338 C334 1.397 . S
C338 C337 1.394 . S
C339 H311 0.982 . S
C339 H315 0.979 . S
C339 H316 0.977 . S
C339 C336 1.453 . S
C340 H312 0.979 . S
C340 H313 0.980 . S
C340 H314 0.983 . S
C340 C336 1.684 . S
H341 C359 0.948 . S
H342 C300 0.948 . S
H343 C318 0.979 . S
H344 C318 0.980 . S
H345 C318 0.983 . S
H346 C317 0.982 . S
H347 C317 0.979 1_655 S
H348 C317 0.977 . S
H349 C319 0.948 . S
H350 C321 0.947 . S
H351 C322 0.948 . S
H352 C328 0.982 . S
H353 C328 0.979 . S
H354 C328 0.977 . S
H355 C329 0.979 . S
H356 C329 0.980 . S
H357 C329 0.983 . S
H358 C302 0.947 . S
C359 C302 1.392 . S
C359 C303 1.419 . S
C359 H341 0.948 . S
C360 C361 1.391 . S
C360 C364 1.391 . S
C360 H402 0.948 . S
C361 C360 1.391 . S
C361 C362 1.391 . S
C362 C361 1.391 . S
C362 H418 0.947 . S
C362 C419 1.392 . S
C363 C364 1.391 . S
C363 C367 1.397 . S
C363 C419 1.419 . S
C364 C360 1.391 . S
C364 C363 1.391 . S
C364 C365 1.399 . S
C365 C364 1.399 . S
C365 C368 1.396 . S
C365 C377 1.453 . S
C365 C378 1.684 . S
H366 C390 0.948 . S
C367 C363 1.397 . S
C367 C368 1.394 . S
C367 C386 1.723 . S
C368 C365 1.396 . S
C368 C367 1.394 . S
C368 C398 1.723 1_565 S
H369 C392 0.947 . S
H370 C393 0.948 . S
H371 C399 0.982 . S
H372 C400 0.979 . S
H373 C400 0.980 . S
H374 C400 0.983 . S
H375 C399 0.979 . S
H376 C399 0.977 . S
C377 C365 1.453 . S
C377 H406 0.982 . S
C377 H407 0.979 . S
C377 H408 0.977 1_565 S
C378 C365 1.684 . S
C378 H403 0.979 . S
C378 H404 0.980 1_565 S
C378 H405 0.983 . S
C379 C380 1.391 1_565 S
C379 C384 1.391 . S
C379 H409 0.948 . S
C380 C379 1.391 1_545 S
C380 C381 1.391 . S
C381 C380 1.391 . S
C381 C382 1.392 . S
C381 H410 0.947 . S
C382 C381 1.392 . S
C382 C383 1.419 . S
C382 H411 0.948 . S
C383 C382 1.419 . S
C383 C384 1.391 1_545 S
C383 C387 1.397 . S
C384 C379 1.391 . S
C384 C383 1.391 1_565 S
C384 C385 1.399 . S
C385 C384 1.399 . S
C385 C386 1.396 . S
C385 C388 1.453 . S
C385 C389 1.684 . S
C386 C367 1.723 . S
C386 C385 1.396 . S
C386 C387 1.394 1_565 S
C387 C383 1.397 . S
C387 C386 1.394 1_545 S
C387 C397 1.723 . S
C388 C385 1.453 . S
C388 H412 0.982 . S
C388 H413 0.979 . S
C388 H414 0.977 . S
C389 C385 1.684 . S
C389 H415 0.979 . S
C389 H416 0.980 . S
C389 H417 0.983 . S
C390 H366 0.948 . S
C390 C391 1.391 . S
C390 C395 1.391 . S
C391 C390 1.391 . S
C391 C392 1.391 . S
C392 H369 0.947 . S
C392 C391 1.391 . S
C392 C393 1.392 . S
C393 H370 0.948 . S
C393 C392 1.392 . S
C393 C394 1.419 . S
C394 C393 1.419 . S
C394 C395 1.391 . S
C394 C398 1.397 . S
C395 C390 1.391 . S
C395 C394 1.391 . S
C395 C396 1.399 . S
C396 C395 1.399 . S
C396 C397 1.396 . S
C396 C399 1.453 . S
C396 C400 1.684 . S
C397 C387 1.723 . S
C397 C396 1.396 . S
C397 C398 1.394 . S
C398 C368 1.723 1_545 S
C398 C394 1.397 . S
C398 C397 1.394 . S
C399 H371 0.982 . S
C399 H375 0.979 . S
C399 H376 0.977 . S
C399 C396 1.453 . S
C400 H372 0.979 . S
C400 H373 0.980 . S
C400 H374 0.983 . S
C400 C396 1.684 . S
H401 C419 0.948 . S
H402 C360 0.948 . S
H403 C378 0.979 . S
H404 C378 0.980 1_545 S
H405 C378 0.983 . S
H406 C377 0.982 . S
H407 C377 0.979 . S
H408 C377 0.977 1_545 S
H409 C379 0.948 . S
H410 C381 0.947 . S
H411 C382 0.948 . S
H412 C388 0.982 . S
H413 C388 0.979 . S
H414 C388 0.977 . S
H415 C389 0.979 . S
H416 C389 0.980 . S
H417 C389 0.983 . S
H418 C362 0.947 . S
C419 C362 1.392 . S
C419 C363 1.419 . S
C419 H401 0.948 . S
C420 C421 1.391 . S
C420 C424 1.391 . S
C420 H462 0.948 . S
C421 C420 1.391 . S
C421 C422 1.391 . S
C422 C421 1.391 . S
C422 H478 0.947 . S
C422 C479 1.392 . S
C423 C424 1.391 . S
C423 C427 1.397 . S
C423 C479 1.419 . S
C424 C420 1.391 . S
C424 C423 1.391 . S
C424 C425 1.399 . S
C425 C424 1.399 . S
C425 C428 1.396 . S
C425 C437 1.453 . S
C425 C438 1.684 . S
H426 C450 0.948 . S
C427 C423 1.397 . S
C427 C428 1.394 . S
C427 C446 1.723 . S
C428 C425 1.396 . S
C428 C427 1.394 . S
C428 C458 1.723 . S
H429 C452 0.947 . S
H430 C453 0.948 . S
H431 C459 0.982 . S
H432 C460 0.979 . S
H433 C460 0.980 . S
H434 C460 0.983 . S
H435 C459 0.979 . S
H436 C459 0.977 . S
C437 C425 1.453 . S
C437 H466 0.982 . S
C437 H467 0.979 . S
C437 H468 0.977 . S
C438 C425 1.684 . S
C438 H463 0.979 . S
C438 H464 0.980 . S
C438 H465 0.983 . S
C439 C440 1.391 . S
C439 C444 1.391 . S
C439 H469 0.948 . S
C440 C439 1.391 . S
C440 C441 1.391 . S
C441 C440 1.391 . S
C441 C442 1.392 . S
C441 H470 0.947 . S
C442 C441 1.392 . S
C442 C443 1.419 . S
C442 H471 0.948 . S
C443 C442 1.419 . S
C443 C444 1.391 . S
C443 C447 1.397 . S
C444 C439 1.391 . S
C444 C443 1.391 . S
C444 C445 1.399 . S
C445 C444 1.399 . S
C445 C446 1.396 . S
C445 C448 1.453 . S
C445 C449 1.684 . S
C446 C427 1.723 . S
C446 C445 1.396 . S
C446 C447 1.394 . S
C447 C443 1.397 . S
C447 C446 1.394 . S
C447 C457 1.723 . S
C448 C445 1.453 . S
C448 H472 0.982 . S
C448 H473 0.979 . S
C448 H474 0.977 . S
C449 C445 1.684 . S
C449 H475 0.979 . S
C449 H476 0.980 . S
C449 H477 0.983 . S
C450 H426 0.948 . S
C450 C451 1.391 . S
C450 C455 1.391 . S
C451 C450 1.391 . S
C451 C452 1.391 . S
C452 H429 0.947 . S
C452 C451 1.391 . S
C452 C453 1.392 . S
C453 H430 0.948 . S
C453 C452 1.392 . S
C453 C454 1.419 . S
C454 C453 1.419 . S
C454 C455 1.391 . S
C454 C458 1.397 . S
C455 C450 1.391 . S
C455 C454 1.391 . S
C455 C456 1.399 . S
C456 C455 1.399 . S
C456 C457 1.396 . S
C456 C459 1.453 . S
C456 C460 1.684 . S
C457 C447 1.723 . S
C457 C456 1.396 . S
C457 C458 1.394 . S
C458 C428 1.723 . S
C458 C454 1.397 . S
C458 C457 1.394 . S
C459 H431 0.982 . S
C459 H435 0.979 . S
C459 H436 0.977 . S
C459 C456 1.453 . S
C460 H432 0.979 . S
C460 H433 0.980 . S
C460 H434 0.983 . S
C460 C456 1.684 . S
H461 C479 0.948 . S
H462 C420 0.948 . S
H463 C438 0.979 . S
H464 C438 0.980 . S
H465 C438 0.983 . S
H466 C437 0.982 . S
H467 C437 0.979 . S
H468 C437 0.977 . S
H469 C439 0.948 . S
H470 C441 0.947 . S
H471 C442 0.948 . S
H472 C448 0.982 . S
H473 C448 0.979 . S
H474 C448 0.977 . S
H475 C449 0.979 . S
H476 C449 0.980 . S
H477 C449 0.983 . S
H478 C422 0.947 . S
C479 C422 1.392 . S
C479 C423 1.419 . S
C479 H461 0.948 . S
H480 C486 0.930 . S
H481 C490 0.930 . S
H482 C495 0.929 . S
H483 C493 0.929 . S
H484 C488 0.929 . S
H485 C494 0.929 . S
C486 H480 0.930 . S
C486 C487 1.367 . S
C486 C494 1.378 . S
C487 C486 1.367 . S
C487 C495 1.433 . S
C488 H484 0.929 . S
C488 C490 1.378 . S
C488 C492 1.350 . S
C489 C492 1.463 . S
C489 C494 1.350 . S
C489 N497 1.427 . S
C490 H481 0.930 . S
C490 C488 1.378 . S
C490 C491 1.367 . S
C491 C490 1.367 . S
C491 C493 1.433 . S
C492 C488 1.350 . S
C492 C489 1.463 . S
C492 N496 1.427 . S
C493 H483 0.929 . S
C493 C491 1.433 . S
C493 N496 1.384 . S
C494 H485 0.929 . S
C494 C486 1.378 . S
C494 C489 1.350 . S
C495 H482 0.929 . S
C495 C487 1.433 . S
C495 N497 1.384 . S
N496 C492 1.427 . S
N496 C493 1.384 . S
N497 C489 1.427 . S
N497 C495 1.384 . S
H498 C504 0.930 . S
H499 C508 0.930 . S
H500 C513 0.929 . S
H501 C511 0.929 . S
H502 C506 0.929 . S
H503 C512 0.929 . S
C504 H498 0.930 . S
C504 C505 1.367 . S
C504 C512 1.378 . S
C505 C504 1.367 . S
C505 C513 1.433 . S
C506 H502 0.929 . S
C506 C508 1.378 . S
C506 C510 1.350 . S
C507 C510 1.463 . S
C507 C512 1.350 . S
C507 N515 1.427 . S
C508 H499 0.930 . S
C508 C506 1.378 . S
C508 C509 1.367 . S
C509 C508 1.367 . S
C509 C511 1.433 . S
C510 C506 1.350 . S
C510 C507 1.463 . S
C510 N514 1.427 . S
C511 H501 0.929 . S
C511 C509 1.433 . S
C511 N514 1.384 . S
C512 H503 0.929 . S
C512 C504 1.378 . S
C512 C507 1.350 . S
C513 H500 0.929 . S
C513 C505 1.433 . S
C513 N515 1.384 . S
N514 C510 1.427 . S
N514 C511 1.384 . S
N515 C507 1.427 . S
N515 C513 1.384 . S
H516 C522 0.930 . S
H517 C526 0.930 . S
H518 C531 0.929 . S
H519 C529 0.929 . S
H520 C524 0.929 . S
H521 C530 0.929 . S
C522 H516 0.930 . S
C522 C523 1.367 . S
C522 C530 1.378 . S
C523 C522 1.367 . S
C523 C531 1.433 . S
C524 H520 0.929 . S
C524 C526 1.378 . S
C524 C528 1.350 . S
C525 C528 1.463 . S
C525 C530 1.350 . S
C525 N533 1.427 . S
C526 H517 0.930 . S
C526 C524 1.378 . S
C526 C527 1.367 . S
C527 C526 1.367 . S
C527 C529 1.433 . S
C528 C524 1.350 . S
C528 C525 1.463 . S
C528 N532 1.427 . S
C529 H519 0.929 . S
C529 C527 1.433 . S
C529 N532 1.384 . S
C530 H521 0.929 . S
C530 C522 1.378 . S
C530 C525 1.350 . S
C531 H518 0.929 . S
C531 C523 1.433 . S
C531 N533 1.384 . S
N532 C528 1.427 . S
N532 C529 1.384 . S
N533 C525 1.427 . S
N533 C531 1.384 . S
H534 C540 0.930 . S
H535 C544 0.930 . S
H536 C549 0.929 . S
H537 C547 0.929 . S
H538 C542 0.929 . S
H539 C548 0.929 . S
C540 H534 0.930 . S
C540 C541 1.367 . S
C540 C548 1.378 . S
C541 C540 1.367 . S
C541 C549 1.433 . S
C542 H538 0.929 . S
C542 C544 1.378 . S
C542 C546 1.350 . S
C543 C546 1.463 . S
C543 C548 1.350 . S
C543 N551 1.427 . S
C544 H535 0.930 . S
C544 C542 1.378 . S
C544 C545 1.367 . S
C545 C544 1.367 . S
C545 C547 1.433 . S
C546 C542 1.350 . S
C546 C543 1.463 . S
C546 N550 1.427 . S
C547 H537 0.929 . S
C547 C545 1.433 . S
C547 N550 1.384 . S
C548 H539 0.929 . S
C548 C540 1.378 . S
C548 C543 1.350 . S
C549 H536 0.929 . S
C549 C541 1.433 . S
C549 N551 1.384 . S
N550 C546 1.427 . S
N550 C547 1.384 . S
N551 C543 1.427 . S
N551 C549 1.384 . S
H552 C558 0.930 . S
H553 C562 0.930 . S
H554 C567 0.929 . S
H555 C565 0.929 . S
H556 C560 0.929 . S
H557 C566 0.929 . S
C558 H552 0.930 . S
C558 C559 1.367 . S
C558 C566 1.378 . S
C559 C558 1.367 . S
C559 C567 1.433 . S
C560 H556 0.929 . S
C560 C562 1.378 . S
C560 C564 1.350 . S
C561 C564 1.463 . S
C561 C566 1.350 . S
C561 N569 1.427 . S
C562 H553 0.930 . S
C562 C560 1.378 . S
C562 C563 1.367 . S
C563 C562 1.367 . S
C563 C565 1.433 . S
C564 C560 1.350 . S
C564 C561 1.463 . S
C564 N568 1.427 . S
C565 H555 0.929 . S
C565 C563 1.433 . S
C565 N568 1.384 . S
C566 H557 0.929 . S
C566 C558 1.378 . S
C566 C561 1.350 . S
C567 H554 0.929 . S
C567 C559 1.433 . S
C567 N569 1.384 . S
N568 C564 1.427 . S
N568 C565 1.384 . S
N569 C561 1.427 . S
N569 C567 1.384 . S
H570 C576 0.930 . S
H571 C580 0.930 . S
H572 C585 0.929 . S
H573 C583 0.929 . S
H574 C578 0.929 . S
H575 C584 0.929 . S
C576 H570 0.930 . S
C576 C577 1.367 . S
C576 C584 1.378 . S
C577 C576 1.367 . S
C577 C585 1.433 . S
C578 H574 0.929 . S
C578 C580 1.378 . S
C578 C582 1.350 . S
C579 C582 1.463 . S
C579 C584 1.350 . S
C579 N587 1.427 . S
C580 H571 0.930 . S
C580 C578 1.378 . S
C580 C581 1.367 . S
C581 C580 1.367 . S
C581 C583 1.433 . S
C582 C578 1.350 . S
C582 C579 1.463 . S
C582 N586 1.427 . S
C583 H573 0.929 . S
C583 C581 1.433 . S
C583 N586 1.384 . S
C584 H575 0.929 . S
C584 C576 1.378 . S
C584 C579 1.350 . S
C585 H572 0.929 . S
C585 C577 1.433 . S
C585 N587 1.384 . S
N586 C582 1.427 . S
N586 C583 1.384 . S
N587 C579 1.427 . S
N587 C585 1.384 . S
H588 C594 0.930 . S
H589 C598 0.930 . S
H590 C603 0.929 . S
H591 C601 0.929 . S
H592 C596 0.929 . S
H593 C602 0.929 . S
C594 H588 0.930 . S
C594 C595 1.367 . S
C594 C602 1.378 . S
C595 C594 1.367 . S
C595 C603 1.433 . S
C596 H592 0.929 . S
C596 C598 1.378 . S
C596 C600 1.350 . S
C597 C600 1.463 . S
C597 C602 1.350 . S
C597 N605 1.427 . S
C598 H589 0.930 . S
C598 C596 1.378 . S
C598 C599 1.367 . S
C599 C598 1.367 . S
C599 C601 1.433 . S
C600 C596 1.350 . S
C600 C597 1.463 . S
C600 N604 1.427 . S
C601 H591 0.929 . S
C601 C599 1.433 . S
C601 N604 1.384 . S
C602 H593 0.929 . S
C602 C594 1.378 . S
C602 C597 1.350 . S
C603 H590 0.929 . S
C603 C595 1.433 . S
C603 N605 1.384 . S
N604 C600 1.427 . S
N604 C601 1.384 . S
N605 C597 1.427 . S
N605 C603 1.384 . S
H606 C612 0.930 . S
H607 C616 0.930 . S
H608 C621 0.929 . S
H609 C619 0.929 . S
H610 C614 0.929 . S
H611 C620 0.929 . S
C612 H606 0.930 . S
C612 C613 1.367 . S
C612 C620 1.378 . S
C613 C612 1.367 . S
C613 C621 1.433 . S
C614 H610 0.929 . S
C614 C616 1.378 . S
C614 C618 1.350 . S
C615 C618 1.463 . S
C615 C620 1.350 . S
C615 N623 1.427 . S
C616 H607 0.930 . S
C616 C614 1.378 . S
C616 C617 1.367 . S
C617 C616 1.367 . S
C617 C619 1.433 . S
C618 C614 1.350 . S
C618 C615 1.463 . S
C618 N622 1.427 . S
C619 H609 0.929 . S
C619 C617 1.433 . S
C619 N622 1.384 . S
C620 H611 0.929 . S
C620 C612 1.378 . S
C620 C615 1.350 . S
C621 H608 0.929 . S
C621 C613 1.433 . S
C621 N623 1.384 . S
N622 C618 1.427 . S
N622 C619 1.384 . S
N623 C615 1.427 . S
N623 C621 1.384 . S
H624 C630 0.930 . S
H625 C634 0.930 . S
H626 C639 0.929 . S
H627 C637 0.929 . S
H628 C632 0.929 . S
H629 C638 0.929 . S
C630 H624 0.930 . S
C630 C631 1.367 . S
C630 C638 1.378 . S
C631 C630 1.367 . S
C631 C639 1.433 . S
C632 H628 0.929 . S
C632 C634 1.378 . S
C632 C636 1.350 . S
C633 C636 1.463 . S
C633 C638 1.350 . S
C633 N641 1.427 . S
C634 H625 0.930 . S
C634 C632 1.378 . S
C634 C635 1.367 . S
C635 C634 1.367 . S
C635 C637 1.433 . S
C636 C632 1.350 . S
C636 C633 1.463 . S
C636 N640 1.427 . S
C637 H627 0.929 . S
C637 C635 1.433 . S
C637 N640 1.384 . S
C638 H629 0.929 . S
C638 C630 1.378 . S
C638 C633 1.350 . S
C639 H626 0.929 . S
C639 C631 1.433 . S
C639 N641 1.384 . S
N640 C636 1.427 . S
N640 C637 1.384 . S
N641 C633 1.427 . S
N641 C639 1.384 . S
H642 C648 0.930 . S
H643 C652 0.930 . S
H644 C657 0.929 . S
H645 C655 0.929 . S
H646 C650 0.929 . S
H647 C656 0.929 . S
C648 H642 0.930 . S
C648 C649 1.367 . S
C648 C656 1.378 . S
C649 C648 1.367 . S
C649 C657 1.433 . S
C650 H646 0.929 . S
C650 C652 1.378 . S
C650 C654 1.350 . S
C651 C654 1.463 . S
C651 C656 1.350 . S
C651 N659 1.427 . S
C652 H643 0.930 . S
C652 C650 1.378 . S
C652 C653 1.367 . S
C653 C652 1.367 . S
C653 C655 1.433 . S
C654 C650 1.350 . S
C654 C651 1.463 . S
C654 N658 1.427 . S
C655 H645 0.929 . S
C655 C653 1.433 . S
C655 N658 1.384 . S
C656 H647 0.929 . S
C656 C648 1.378 . S
C656 C651 1.350 . S
C657 H644 0.929 . S
C657 C649 1.433 . S
C657 N659 1.384 . S
N658 C654 1.427 . S
N658 C655 1.384 . S
N659 C651 1.427 . S
N659 C657 1.384 . S
H660 C666 0.930 . S
H661 C670 0.930 . S
H662 C675 0.929 . S
H663 C673 0.929 . S
H664 C668 0.929 . S
H665 C674 0.929 . S
C666 H660 0.930 . S
C666 C667 1.367 . S
C666 C674 1.378 . S
C667 C666 1.367 . S
C667 C675 1.433 . S
C668 H664 0.929 . S
C668 C670 1.378 . S
C668 C672 1.350 . S
C669 C672 1.463 . S
C669 C674 1.350 . S
C669 N677 1.427 . S
C670 H661 0.930 . S
C670 C668 1.378 . S
C670 C671 1.367 . S
C671 C670 1.367 . S
C671 C673 1.433 . S
C672 C668 1.350 . S
C672 C669 1.463 . S
C672 N676 1.427 . S
C673 H663 0.929 . S
C673 C671 1.433 . S
C673 N676 1.384 . S
C674 H665 0.929 . S
C674 C666 1.378 . S
C674 C669 1.350 . S
C675 H662 0.929 . S
C675 C667 1.433 . S
C675 N677 1.384 . S
N676 C672 1.427 . S
N676 C673 1.384 . S
N677 C669 1.427 . S
N677 C675 1.384 . S
H678 C684 0.930 . S
H679 C688 0.930 . S
H680 C693 0.929 . S
H681 C691 0.929 . S
H682 C686 0.929 . S
H683 C692 0.929 . S
C684 H678 0.930 . S
C684 C685 1.367 . S
C684 C692 1.378 . S
C685 C684 1.367 . S
C685 C693 1.433 . S
C686 H682 0.929 . S
C686 C688 1.378 . S
C686 C690 1.350 . S
C687 C690 1.463 . S
C687 C692 1.350 . S
C687 N695 1.427 . S
C688 H679 0.930 . S
C688 C686 1.378 . S
C688 C689 1.367 . S
C689 C688 1.367 . S
C689 C691 1.433 . S
C690 C686 1.350 . S
C690 C687 1.463 . S
C690 N694 1.427 . S
C691 H681 0.929 . S
C691 C689 1.433 . S
C691 N694 1.384 . S
C692 H683 0.929 . S
C692 C684 1.378 . S
C692 C687 1.350 . S
C693 H680 0.929 . S
C693 C685 1.433 . S
C693 N695 1.384 . S
N694 C690 1.427 . S
N694 C691 1.384 . S
N695 C687 1.427 . S
N695 C693 1.384 . S
H696 C702 0.930 . S
H697 C706 0.930 . S
H698 C711 0.929 . S
H699 C709 0.929 1_556 S
H700 C704 0.929 . S
H701 C710 0.929 . S
C702 H696 0.930 . S
C702 C703 1.367 1_655 S
C702 C710 1.378 . S
C703 C702 1.367 1_455 S
C703 C711 1.433 . S
C704 H700 0.929 . S
C704 C706 1.378 . S
C704 C708 1.350 . S
C705 C708 1.463 . S
C705 C710 1.350 1_455 S
C705 N713 1.427 . S
C706 H697 0.930 . S
C706 C704 1.378 . S
C706 C707 1.367 1_554 S
C707 C706 1.367 1_556 S
C707 C709 1.433 1_456 S
C708 C704 1.350 . S
C708 C705 1.463 . S
C708 N712 1.427 1_455 S
C709 H699 0.929 1_554 S
C709 C707 1.433 1_654 S
C709 N712 1.384 . S
C710 H701 0.929 . S
C710 C702 1.378 . S
C710 C705 1.350 1_655 S
C711 H698 0.929 . S
C711 C703 1.433 . S
C711 N713 1.384 . S
N712 C708 1.427 1_655 S
N712 C709 1.384 . S
N713 C705 1.427 . S
N713 C711 1.384 . S
H714 C720 0.930 . S
H715 C724 0.930 . S
H716 C729 0.929 . S
H717 C727 0.929 . S
H718 C722 0.929 . S
H719 C728 0.929 . S
C720 H714 0.930 . S
C720 C721 1.367 . S
C720 C728 1.378 . S
C721 C720 1.367 . S
C721 C729 1.433 . S
C722 H718 0.929 . S
C722 C724 1.378 . S
C722 C726 1.350 . S
C723 C726 1.463 . S
C723 C728 1.350 . S
C723 N731 1.427 . S
C724 H715 0.930 . S
C724 C722 1.378 . S
C724 C725 1.367 . S
C725 C724 1.367 . S
C725 C727 1.433 . S
C726 C722 1.350 . S
C726 C723 1.463 . S
C726 N730 1.427 . S
C727 H717 0.929 . S
C727 C725 1.433 . S
C727 N730 1.384 . S
C728 H719 0.929 . S
C728 C720 1.378 . S
C728 C723 1.350 . S
C729 H716 0.929 . S
C729 C721 1.433 . S
C729 N731 1.384 . S
N730 C726 1.427 . S
N730 C727 1.384 . S
N731 C723 1.427 . S
N731 C729 1.384 . S
H732 C738 0.930 . S
H733 C742 0.930 . S
H734 C747 0.929 . S
H735 C745 0.929 . S
H736 C740 0.929 . S
H737 C746 0.929 . S
C738 H732 0.930 . S
C738 C739 1.367 . S
C738 C746 1.378 . S
C739 C738 1.367 . S
C739 C747 1.433 . S
C740 H736 0.929 . S
C740 C742 1.378 . S
C740 C744 1.350 . S
C741 C744 1.463 . S
C741 C746 1.350 . S
C741 N749 1.427 . S
C742 H733 0.930 . S
C742 C740 1.378 . S
C742 C743 1.367 . S
C743 C742 1.367 . S
C743 C745 1.433 . S
C744 C740 1.350 . S
C744 C741 1.463 . S
C744 N748 1.427 . S
C745 H735 0.929 . S
C745 C743 1.433 . S
C745 N748 1.384 . S
C746 H737 0.929 . S
C746 C738 1.378 . S
C746 C741 1.350 . S
C747 H734 0.929 . S
C747 C739 1.433 . S
C747 N749 1.384 . S
N748 C744 1.427 . S
N748 C745 1.384 . S
N749 C741 1.427 . S
N749 C747 1.384 . S
H750 C756 0.930 . S
H751 C760 0.930 . S
H752 C765 0.929 . S
H753 C763 0.929 . S
H754 C758 0.929 . S
H755 C764 0.929 . S
C756 H750 0.930 . S
C756 C757 1.367 1_565 S
C756 C764 1.378 . S
C757 C756 1.367 1_545 S
C757 C765 1.433 . S
C758 H754 0.929 . S
C758 C760 1.378 . S
C758 C762 1.350 . S
C759 C762 1.463 . S
C759 C764 1.350 1_545 S
C759 N767 1.427 . S
C760 H751 0.930 . S
C760 C758 1.378 . S
C760 C761 1.367 . S
C761 C760 1.367 . S
C761 C763 1.433 1_545 S
C762 C758 1.350 . S
C762 C759 1.463 . S
C762 N766 1.427 1_545 S
C763 H753 0.929 . S
C763 C761 1.433 1_565 S
C763 N766 1.384 . S
C764 H755 0.929 . S
C764 C756 1.378 . S
C764 C759 1.350 1_565 S
C765 H752 0.929 . S
C765 C757 1.433 . S
C765 N767 1.384 . S
N766 C762 1.427 1_565 S
N766 C763 1.384 . S
N767 C759 1.427 . S
N767 C765 1.384 . S
H768 C774 0.930 . S
H769 C778 0.930 1_554 S
H770 C783 0.929 . S
H771 C781 0.929 1_554 S
H772 C776 0.929 . S
H773 C782 0.929 . S
C774 H768 0.930 . S
C774 C775 1.367 . S
C774 C782 1.378 . S
C775 C774 1.367 . S
C775 C783 1.433 . S
C776 H772 0.929 . S
C776 C778 1.378 . S
C776 C780 1.350 . S
C777 C780 1.463 . S
C777 C782 1.350 . S
C777 N785 1.427 . S
C778 H769 0.930 1_556 S
C778 C776 1.378 . S
C778 C779 1.367 1_556 S
C779 C778 1.367 1_554 S
C779 C781 1.433 1_554 S
C780 C776 1.350 . S
C780 C777 1.463 . S
C780 N784 1.427 . S
C781 H771 0.929 1_556 S
C781 C779 1.433 1_556 S
C781 N784 1.384 . S
C782 H773 0.929 . S
C782 C774 1.378 . S
C782 C777 1.350 . S
C783 H770 0.929 . S
C783 C775 1.433 . S
C783 N785 1.384 . S
N784 C780 1.427 . S
N784 C781 1.384 . S
N785 C777 1.427 . S
N785 C783 1.384 . S
H786 C792 0.930 . S
H787 C796 0.930 . S
H788 C801 0.929 . S
H789 C799 0.929 . S
H790 C794 0.929 . S
H791 C800 0.929 . S
C792 H786 0.930 . S
C792 C793 1.367 . S
C792 C800 1.378 . S
C793 C792 1.367 . S
C793 C801 1.433 . S
C794 H790 0.929 . S
C794 C796 1.378 . S
C794 C798 1.360 . S
C795 C798 1.460 1_455 S
C795 C800 1.350 . S
C795 N803 1.433 . S
C796 H787 0.930 . S
C796 C794 1.378 . S
C796 C797 1.367 . S
C797 C796 1.367 . S
C797 C799 1.433 . S
C798 C794 1.360 . S
C798 C795 1.460 1_655 S
C798 N802 1.422 . S
C799 H789 0.929 . S
C799 C797 1.433 . S
C799 N802 1.384 . S
C800 H791 0.929 . S
C800 C792 1.378 . S
C800 C795 1.350 . S
C801 H788 0.929 . S
C801 C793 1.433 . S
C801 N803 1.385 . S
N802 C798 1.422 . S
N802 C799 1.384 . S
N803 C795 1.433 . S
N803 C801 1.385 . S
C487 C19 1.927 . S
C491 C451 1.924 . S
C505 C46 1.235 . S
C509 C301 1.202 . S
C523 C95 0.432 . S
C527 C361 0.449 . S
C541 C10 2.031 . S
C545 C421 1.862 . S
C563 C331 1.321 . S
C559 C55 1.311 . S
C581 C391 0.548 . S
C577 C86 0.595 . S
C595 C59 3.107 . S
C599 C181 2.936 . S
C613 C90 2.052 . S
C617 C271 2.072 . S
C631 C15 1.289 . S
C635 C151 1.311 . S
C653 C211 3.015 . S
C649 C50 3.015 . S
C671 C241 1.799 . S
C667 C99 1.925 . S
C685 C6 1.214 . S
C689 C121 1.169 . S
C707 C260 1.353 . S
C703 C9 1.325 . S
C721 C58 1.443 . S
C725 C140 1.483 . S
C739 C98 1.699 . S
C743 C200 1.744 . S
C761 C380 1.075 . S
C757 C49 1.075 . S
C779 C440 1.342 . S
C775 C89 1.330 . S
C793 C18 1.447 . S
C797 C320 1.456 . S
