# Generated by pormake.
# Topology eea, (3,6)-cn, num edge types: 1
# Building blocks:
#     Node 0, Type 0, BuildingBlock: VETTIZ_charged_linker_0, # of connection points: 3
#     Node 1, Type 0, BuildingBlock: VETTIZ_charged_linker_0, # of connection points: 3
#     Node 2, Type 0, BuildingBlock: VETTIZ_charged_linker_0, # of connection points: 3
#     Node 3, Type 0, BuildingBlock: VETTIZ_charged_linker_0, # of connection points: 3
#     Node 4, Type 0, BuildingBlock: VETTIZ_charged_linker_0, # of connection points: 3
#     Node 5, Type 0, BuildingBlock: VETTIZ_charged_linker_0, # of connection points: 3
#     Node 6, Type 0, BuildingBlock: VETTIZ_charged_linker_0, # of connection points: 3
#     Node 7, Type 0, BuildingBlock: VETTIZ_charged_linker_0, # of connection points: 3
#     Node 8, Type 0, BuildingBlock: VETTIZ_charged_linker_0, # of connection points: 3
#     Node 9, Type 0, BuildingBlock: VETTIZ_charged_linker_0, # of connection points: 3
#     Node 10, Type 0, BuildingBlock: VETTIZ_charged_linker_0, # of connection points: 3
#     Node 11, Type 0, BuildingBlock: VETTIZ_charged_linker_0, # of connection points: 3
#     Node 12, Type 0, BuildingBlock: VETTIZ_charged_linker_0, # of connection points: 3
#     Node 13, Type 0, BuildingBlock: VETTIZ_charged_linker_0, # of connection points: 3
#     Node 14, Type 0, BuildingBlock: VETTIZ_charged_linker_0, # of connection points: 3
#     Node 15, Type 0, BuildingBlock: VETTIZ_charged_linker_0, # of connection points: 3
#     Node 16, Type 0, BuildingBlock: VETTIZ_charged_linker_0, # of connection points: 3
#     Node 17, Type 0, BuildingBlock: VETTIZ_charged_linker_0, # of connection points: 3
#     Node 18, Type 1, BuildingBlock: KUMBOL_clean_sbu_0, # of connection points: 6
#     Node 19, Type 1, BuildingBlock: KUMBOL_clean_sbu_0, # of connection points: 6
#     Node 20, Type 1, BuildingBlock: KUMBOL_clean_sbu_0, # of connection points: 6
#     Node 21, Type 1, BuildingBlock: KUMBOL_clean_sbu_0, # of connection points: 6
#     Node 22, Type 1, BuildingBlock: KUMBOL_clean_sbu_0, # of connection points: 6
#     Node 23, Type 1, BuildingBlock: KUMBOL_clean_sbu_0, # of connection points: 6
#     Node 24, Type 1, BuildingBlock: KUMBOL_clean_sbu_0, # of connection points: 6
#     Node 25, Type 1, BuildingBlock: KUMBOL_clean_sbu_0, # of connection points: 6
#     Node 26, Type 1, BuildingBlock: KUMBOL_clean_sbu_0, # of connection points: 6
#     Edge 27, Type (0, 1), BuildingBlock: AJUNOK_clean_linker_0, # of connection points: 2
#     Edge 28, Type (0, 1), BuildingBlock: AJUNOK_clean_linker_0, # of connection points: 2
#     Edge 29, Type (0, 1), BuildingBlock: AJUNOK_clean_linker_0, # of connection points: 2
#     Edge 30, Type (0, 1), BuildingBlock: AJUNOK_clean_linker_0, # of connection points: 2
#     Edge 31, Type (0, 1), BuildingBlock: AJUNOK_clean_linker_0, # of connection points: 2
#     Edge 32, Type (0, 1), BuildingBlock: AJUNOK_clean_linker_0, # of connection points: 2
#     Edge 33, Type (0, 1), BuildingBlock: AJUNOK_clean_linker_0, # of connection points: 2
#     Edge 34, Type (0, 1), BuildingBlock: AJUNOK_clean_linker_0, # of connection points: 2
#     Edge 35, Type (0, 1), BuildingBlock: AJUNOK_clean_linker_0, # of connection points: 2
#     Edge 36, Type (0, 1), BuildingBlock: AJUNOK_clean_linker_0, # of connection points: 2
#     Edge 37, Type (0, 1), BuildingBlock: AJUNOK_clean_linker_0, # of connection points: 2
#     Edge 38, Type (0, 1), BuildingBlock: AJUNOK_clean_linker_0, # of connection points: 2
#     Edge 39, Type (0, 1), BuildingBlock: AJUNOK_clean_linker_0, # of connection points: 2
#     Edge 40, Type (0, 1), BuildingBlock: AJUNOK_clean_linker_0, # of connection points: 2
#     Edge 41, Type (0, 1), BuildingBlock: AJUNOK_clean_linker_0, # of connection points: 2
#     Edge 42, Type (0, 1), BuildingBlock: AJUNOK_clean_linker_0, # of connection points: 2
#     Edge 43, Type (0, 1), BuildingBlock: AJUNOK_clean_linker_0, # of connection points: 2
#     Edge 44, Type (0, 1), BuildingBlock: AJUNOK_clean_linker_0, # of connection points: 2
#     Edge 45, Type (0, 1), BuildingBlock: AJUNOK_clean_linker_0, # of connection points: 2
#     Edge 46, Type (0, 1), BuildingBlock: AJUNOK_clean_linker_0, # of connection points: 2
#     Edge 47, Type (0, 1), BuildingBlock: AJUNOK_clean_linker_0, # of connection points: 2
#     Edge 48, Type (0, 1), BuildingBlock: AJUNOK_clean_linker_0, # of connection points: 2
#     Edge 49, Type (0, 1), BuildingBlock: AJUNOK_clean_linker_0, # of connection points: 2
#     Edge 50, Type (0, 1), BuildingBlock: AJUNOK_clean_linker_0, # of connection points: 2
#     Edge 51, Type (0, 1), BuildingBlock: AJUNOK_clean_linker_0, # of connection points: 2
#     Edge 52, Type (0, 1), BuildingBlock: AJUNOK_clean_linker_0, # of connection points: 2
#     Edge 53, Type (0, 1), BuildingBlock: AJUNOK_clean_linker_0, # of connection points: 2
#     Edge 54, Type (0, 1), BuildingBlock: AJUNOK_clean_linker_0, # of connection points: 2
#     Edge 55, Type (0, 1), BuildingBlock: AJUNOK_clean_linker_0, # of connection points: 2
#     Edge 56, Type (0, 1), BuildingBlock: AJUNOK_clean_linker_0, # of connection points: 2
#     Edge 57, Type (0, 1), BuildingBlock: AJUNOK_clean_linker_0, # of connection points: 2
#     Edge 58, Type (0, 1), BuildingBlock: AJUNOK_clean_linker_0, # of connection points: 2
#     Edge 59, Type (0, 1), BuildingBlock: AJUNOK_clean_linker_0, # of connection points: 2
#     Edge 60, Type (0, 1), BuildingBlock: AJUNOK_clean_linker_0, # of connection points: 2
#     Edge 61, Type (0, 1), BuildingBlock: AJUNOK_clean_linker_0, # of connection points: 2
#     Edge 62, Type (0, 1), BuildingBlock: AJUNOK_clean_linker_0, # of connection points: 2
#     Edge 63, Type (0, 1), BuildingBlock: AJUNOK_clean_linker_0, # of connection points: 2
#     Edge 64, Type (0, 1), BuildingBlock: AJUNOK_clean_linker_0, # of connection points: 2
#     Edge 65, Type (0, 1), BuildingBlock: AJUNOK_clean_linker_0, # of connection points: 2
#     Edge 66, Type (0, 1), BuildingBlock: AJUNOK_clean_linker_0, # of connection points: 2
#     Edge 67, Type (0, 1), BuildingBlock: AJUNOK_clean_linker_0, # of connection points: 2
#     Edge 68, Type (0, 1), BuildingBlock: AJUNOK_clean_linker_0, # of connection points: 2
#     Edge 69, Type (0, 1), BuildingBlock: AJUNOK_clean_linker_0, # of connection points: 2
#     Edge 70, Type (0, 1), BuildingBlock: AJUNOK_clean_linker_0, # of connection points: 2
#     Edge 71, Type (0, 1), BuildingBlock: AJUNOK_clean_linker_0, # of connection points: 2
#     Edge 72, Type (0, 1), BuildingBlock: AJUNOK_clean_linker_0, # of connection points: 2
#     Edge 73, Type (0, 1), BuildingBlock: AJUNOK_clean_linker_0, # of connection points: 2
#     Edge 74, Type (0, 1), BuildingBlock: AJUNOK_clean_linker_0, # of connection points: 2
#     Edge 75, Type (0, 1), BuildingBlock: AJUNOK_clean_linker_0, # of connection points: 2
#     Edge 76, Type (0, 1), BuildingBlock: AJUNOK_clean_linker_0, # of connection points: 2
#     Edge 77, Type (0, 1), BuildingBlock: AJUNOK_clean_linker_0, # of connection points: 2
#     Edge 78, Type (0, 1), BuildingBlock: AJUNOK_clean_linker_0, # of connection points: 2
#     Edge 79, Type (0, 1), BuildingBlock: AJUNOK_clean_linker_0, # of connection points: 2
#     Edge 80, Type (0, 1), BuildingBlock: AJUNOK_clean_linker_0, # of connection points: 2
# Relax obj value: 0.008
# Max RMSD: 0.090
# Mean RMSD: 0.071
data_MOF--net-eea--node1-KUMBOL_clean_sbu_0--node2-VETTIZ_charged_linker_0--edge1-AJUNOK_clean_linker_0
_symmetry_space_group_name_H-M    P1
_symmetry_Int_Tables_number       1
_symmetry_cell_setting            triclinic
loop_
_symmetry_equiv_pos_as_xyz
'x, y, z'
_cell_length_a     47.846687
_cell_length_b     49.384427
_cell_length_c     71.511997
_cell_angle_alpha  89.795964
_cell_angle_beta   89.909422
_cell_angle_gamma 119.93354
loop_
_atom_site_label
_atom_site_type_symbol
_atom_site_fract_x
_atom_site_fract_y
_atom_site_fract_z
_atom_type_partial_charge
C0 C 0.21677 0.17913 0.3928 0.0
C1 C 0.22203 0.20728 0.40071 0.0
C2 C 0.23269 0.21401 0.4194 0.0
C3 C 0.23471 0.16605 0.42146 0.0
C4 C 0.22303 0.15889 0.40342 0.0
C5 C 0.21803 0.12778 0.3972 0.0
H6 H 0.23059 -0.00022 0.41453 0.0
C7 C 0.23922 0.1403 0.42848 0.0
C8 C 0.22907 0.11765 0.41439 0.0
H9 H 0.19202 0.02079 0.36548 0.0
H10 H 0.20213 0.06931 0.37921 0.0
H11 H 0.29083 0.07036 0.42056 0.0
H12 H 0.19509 0.02003 0.4439 0.0
H13 H 0.22067 0.04306 0.46194 0.0
H14 H 0.22667 0.01306 0.45152 0.0
H15 H 0.27816 0.03812 0.43651 0.0
H16 H 0.29372 0.07746 0.44475 0.0
C17 C 0.24031 0.13337 0.38013 0.0
C18 C 0.18156 0.10601 0.39334 0.0
C19 C 0.29213 0.14931 0.49159 0.0
C20 C 0.29947 0.12913 0.50169 0.0
C21 C 0.2908 0.09966 0.49409 0.0
C22 C 0.27554 0.0906 0.47669 0.0
C23 C 0.26875 0.11116 0.46668 0.0
C24 C 0.27655 0.13976 0.47428 0.0
C25 C 0.2664 0.15806 0.46192 0.0
C26 C 0.25206 0.13606 0.44543 0.0
C27 C 0.25377 0.10876 0.44825 0.0
C28 C 0.29696 0.18896 0.45629 0.0
C29 C 0.24069 0.16252 0.47252 0.0
C30 C 0.2243 0.01487 0.4068 0.0
C31 C 0.211 0.00676 0.38878 0.0
C32 C 0.20303 0.02693 0.37917 0.0
C33 C 0.20866 0.05497 0.38726 0.0
C34 C 0.22228 0.06294 0.40519 0.0
C35 C 0.22969 0.04296 0.41471 0.0
C36 C 0.24356 0.05511 0.43374 0.0
C37 C 0.24318 0.08568 0.43407 0.0
C38 C 0.23086 0.09014 0.41727 0.0
C39 C 0.27833 0.06044 0.43411 0.0
C40 C 0.2206 0.03165 0.44865 0.0
H41 H 0.24762 0.20027 0.44381 0.0
H42 H 0.20831 0.17309 0.37856 0.0
H43 H 0.16649 0.11231 0.40216 0.0
H44 H 0.17315 0.08132 0.39693 0.0
H45 H 0.17566 0.10756 0.3785 0.0
H46 H 0.26414 0.15485 0.38208 0.0
H47 H 0.22955 0.13644 0.3671 0.0
H48 H 0.24591 0.11446 0.37802 0.0
H49 H 0.29886 0.1723 0.49683 0.0
H50 H 0.29582 0.08352 0.50165 0.0
H51 H 0.26973 0.06794 0.47167 0.0
H52 H 0.31678 0.18451 0.45225 0.0
H53 H 0.30564 0.2057 0.46811 0.0
H54 H 0.29325 0.20046 0.44407 0.0
H55 H 0.22702 0.14322 0.48271 0.0
H56 H 0.22204 0.16186 0.46311 0.0
H57 H 0.25198 0.18478 0.48044 0.0
H58 H 0.23581 0.23498 0.42609 0.0
C59 C 0.23925 0.19368 0.42976 0.0
C60 C 0.98579 0.18951 0.38896 0.0
C61 C 0.00771 0.2197 0.39534 0.0
C62 C 1.00229 0.22931 0.41286 0.0
C63 C 0.95377 0.17916 0.41739 0.0
C64 C 0.95892 0.1698 0.40011 0.0
C65 C 0.93242 0.13749 0.39514 0.0
H66 H 0.7877 0.01097 0.41598 0.0
C67 C 0.92345 0.15339 0.42536 0.0
C68 C 0.9107 0.12897 0.41228 0.0
H69 H 0.84738 0.0259 0.36721 0.0
H70 H 0.88766 0.07585 0.37928 0.0
H71 H 0.84523 0.03281 0.44466 0.0
H72 H 0.80057 0.08136 0.42008 0.0
H73 H 0.80574 0.09012 0.4441 0.0
H74 H 0.78075 0.05021 0.43681 0.0
H75 H 0.80752 0.02753 0.45312 0.0
H76 H 0.84563 0.05817 0.46189 0.0
C77 C 0.94742 0.11616 0.39313 0.0
C78 C 0.91562 0.14006 0.37727 0.0
C79 C 0.8847 0.16398 0.49013 0.0
C80 C 0.85733 0.144 0.50096 0.0
C81 C 0.83491 0.11456 0.49364 0.0
C82 C 0.83932 0.10529 0.47588 0.0
C83 C 0.86654 0.12556 0.46517 0.0
C84 C 0.88877 0.15431 0.47234 0.0
C85 C 0.9162 0.17273 0.45887 0.0
C86 C 0.90696 0.1501 0.44258 0.0
C87 C 0.87774 0.12258 0.44635 0.0
C88 C 0.94786 0.17864 0.46827 0.0
C89 C 0.91568 0.20286 0.45335 0.0
C90 C 0.80962 0.02471 0.40799 0.0
C91 C 0.81425 0.01423 0.39059 0.0
C92 C 0.84294 0.03344 0.38054 0.0
C93 C 0.86642 0.06243 0.38763 0.0
C94 C 0.86138 0.07252 0.40502 0.0
C95 C 0.83352 0.05354 0.41499 0.0
C96 C 0.83283 0.06739 0.43358 0.0
C97 C 0.86447 0.09819 0.43292 0.0
C98 C 0.881 0.10121 0.41608 0.0
C99 C 0.83255 0.04541 0.44922 0.0
C100 C 0.80338 0.07245 0.43385 0.0
H101 H 0.97299 0.21795 0.43714 0.0
H102 H 0.98918 0.18165 0.37546 0.0
H103 H 0.91373 0.16162 0.37755 0.0
H104 H 0.89057 0.12076 0.37585 0.0
H105 H 0.92942 0.1411 0.36452 0.0
H106 H 0.96726 0.12272 0.40336 0.0
H107 H 0.95768 0.11814 0.37891 0.0
H108 H 0.93007 0.09136 0.39618 0.0
H109 H 0.90265 0.18657 0.4954 0.0
H110 H 0.81354 0.09883 0.50158 0.0
H111 H 0.82116 0.08272 0.47113 0.0
H112 H 0.94411 0.15735 0.47584 0.0
H113 H 0.95637 0.19792 0.47857 0.0
H114 H 0.96743 0.1841 0.45815 0.0
H115 H 0.8906 0.19874 0.45321 0.0
H116 H 0.92485 0.21101 0.43904 0.0
H117 H 0.92973 0.22202 0.46339 0.0
H118 H 0.01897 0.25244 0.41806 0.0
C119 C 0.97562 0.20923 0.42393 0.0
C120 C 0.97866 0.79184 0.38835 0.0
C121 C 1.001 0.78345 0.39513 0.0
C122 C 0.99561 0.76923 0.41292 0.0
C123 C 0.94637 0.77148 0.41681 0.0
C124 C 0.95144 0.7854 0.39935 0.0
C125 C 0.9244 0.79136 0.39408 0.0
H126 H 0.77737 0.7747 0.41462 0.0
C127 C 0.91565 0.76738 0.42457 0.0
C128 C 0.90248 0.77886 0.41122 0.0
H129 H 0.8351 0.81687 0.36522 0.0
H130 H 0.87739 0.8084 0.37762 0.0
H131 H 0.79246 0.71774 0.41916 0.0
H132 H 0.83476 0.8097 0.44292 0.0
H133 H 0.83631 0.78547 0.46039 0.0
H134 H 0.79766 0.77791 0.45167 0.0
H135 H 0.77195 0.72919 0.43563 0.0
H136 H 0.79782 0.71457 0.44325 0.0
C137 C 0.90792 0.77218 0.37634 0.0
C138 C 0.93868 0.82701 0.39163 0.0
C139 C 0.87633 0.71775 0.48931 0.0
C140 C 0.8487 0.71072 0.50007 0.0
C141 C 0.82626 0.71846 0.49262 0.0
C142 C 0.83088 0.7325 0.47493 0.0
C143 C 0.85831 0.73906 0.46429 0.0
C144 C 0.88066 0.73197 0.47158 0.0
C145 C 0.9084 0.74081 0.45821 0.0
C146 C 0.89911 0.75452 0.44181 0.0
C147 C 0.86957 0.75318 0.44543 0.0
C148 C 0.90862 0.71059 0.45269 0.0
C149 C 0.93969 0.76572 0.46781 0.0
C150 C 0.79908 0.78194 0.40645 0.0
C151 C 0.80283 0.79622 0.38887 0.0
C152 C 0.83169 0.80585 0.37881 0.0
C153 C 0.85612 0.80077 0.38601 0.0
C154 C 0.85183 0.78605 0.40355 0.0
C155 C 0.8238 0.77739 0.41355 0.0
C156 C 0.82375 0.76337 0.43228 0.0
C157 C 0.8559 0.76416 0.43176 0.0
C158 C 0.8723 0.77722 0.41483 0.0
C159 C 0.79494 0.72948 0.43281 0.0
C160 C 0.82285 0.78494 0.44771 0.0
H161 H 0.96617 0.75248 0.43714 0.0
H162 H 0.98191 0.80247 0.37466 0.0
H163 H 0.95754 0.84004 0.40231 0.0
H164 H 0.92059 0.83439 0.39365 0.0
H165 H 0.95001 0.83493 0.37762 0.0
H166 H 0.90534 0.74854 0.37728 0.0
H167 H 0.92237 0.78386 0.36363 0.0
H168 H 0.88323 0.768 0.37438 0.0
H169 H 0.89383 0.71167 0.49434 0.0
H170 H 0.80494 0.71363 0.50056 0.0
H171 H 0.81268 0.7375 0.47016 0.0
H172 H 0.88367 0.69029 0.45214 0.0
H173 H 0.92233 0.7049 0.46297 0.0
H174 H 0.91857 0.7119 0.43856 0.0
H175 H 0.93522 0.78256 0.47572 0.0
H176 H 0.95908 0.78016 0.45779 0.0
H177 H 0.94875 0.7547 0.47786 0.0
H178 H 0.01246 0.76268 0.41849 0.0
C179 C 0.96868 0.76336 0.42376 0.0
C180 C 0.19077 0.20333 0.64036 0.0
C181 C 0.2209 0.20991 0.63297 0.0
C182 C 0.22909 0.22182 0.61462 0.0
C183 C 0.17866 0.22197 0.61151 0.0
C184 C 0.17013 0.20977 0.62942 0.0
C185 C 0.13779 0.20573 0.63512 0.0
H186 H 0.0118 0.22923 0.61547 0.0
C187 C 0.15285 0.2273 0.60404 0.0
C188 C 0.12872 0.21793 0.61785 0.0
H189 H 0.02475 0.18683 0.66512 0.0
H190 H 0.07433 0.19221 0.65222 0.0
H191 H 0.08618 0.28336 0.61012 0.0
H192 H 0.03108 0.19112 0.5868 0.0
H193 H 0.056 0.21593 0.56893 0.0
H194 H 0.02579 0.22298 0.57927 0.0
H195 H 0.05454 0.2733 0.59343 0.0
H196 H 0.09526 0.28576 0.58612 0.0
C197 C 0.14292 0.22632 0.65246 0.0
C198 C 0.11418 0.17053 0.63845 0.0
C199 C 0.16576 0.2752 0.5389 0.0
C200 C 0.14696 0.28434 0.52833 0.0
C201 C 0.11772 0.27962 0.53613 0.0
C202 C 0.10744 0.2662 0.55399 0.0
C203 C 0.12658 0.25741 0.56443 0.0
C204 C 0.15515 0.26186 0.55678 0.0
C205 C 0.17271 0.25169 0.57 0.0
C206 C 0.14987 0.24008 0.58674 0.0
C207 C 0.12288 0.24355 0.58344 0.0
C208 C 0.20555 0.28079 0.57487 0.0
C209 C 0.17538 0.22485 0.5606 0.0
C210 C 0.02544 0.22128 0.62359 0.0
C211 C 0.0146 0.208 0.64145 0.0
C212 C 0.03266 0.19724 0.65138 0.0
C213 C 0.06149 0.20051 0.64387 0.0
C214 C 0.07237 0.21442 0.62612 0.0
C215 C 0.05402 0.22404 0.6162 0.0
C216 C 0.06831 0.23714 0.59727 0.0
C217 C 0.09857 0.23441 0.59749 0.0
C218 C 0.10116 0.22133 0.61452 0.0
C219 C 0.0764 0.27165 0.5965 0.0
C220 C 0.04412 0.21599 0.58217 0.0
H221 H 0.21623 0.23702 0.5901 0.0
H222 H 0.18391 0.19428 0.65445 0.0
H223 H 0.1183 0.15617 0.62805 0.0
H224 H 0.0887 0.16413 0.63669 0.0
H225 H 0.11744 0.1632 0.65261 0.0
H226 H 0.16486 0.24966 0.65065 0.0
H227 H 0.14614 0.2154 0.66527 0.0
H228 H 0.12296 0.23101 0.65483 0.0
H229 H 0.18869 0.27908 0.5336 0.0
H230 H 0.10271 0.28635 0.52836 0.0
H231 H 0.08502 0.26342 0.55906 0.0
H232 H 0.20378 0.30241 0.57474 0.0
H233 H 0.22453 0.28415 0.56464 0.0
H234 H 0.21384 0.27976 0.58913 0.0
H235 H 0.15297 0.20919 0.55277 0.0
H236 H 0.17811 0.20944 0.57075 0.0
H237 H 0.1958 0.23415 0.5505 0.0
H238 H 0.25201 0.22686 0.60861 0.0
C239 C 0.20824 0.22775 0.60389 0.0
C240 C 0.80168 0.82148 0.63506 0.0
C241 C 0.79524 0.79271 0.62748 0.0
C242 C 0.78239 0.78484 0.60928 0.0
C243 C 0.78117 0.83321 0.60691 0.0
C244 C 0.79447 0.84126 0.62457 0.0
C245 C 0.79945 0.8725 0.63064 0.0
H246 H 0.78535 -0.00016 0.61243 0.0
C247 C 0.77615 0.85868 0.59988 0.0
C248 C 0.78702 0.88186 0.6137 0.0
H249 H 0.82313 0.97978 0.66214 0.0
H250 H 0.81372 0.93111 0.64876 0.0
H251 H 0.82056 0.97848 0.58332 0.0
H252 H 0.7254 0.93011 0.6074 0.0
H253 H 0.72155 0.92093 0.5835 0.0
H254 H 0.73765 0.96099 0.59051 0.0
H255 H 0.78904 0.98549 0.57563 0.0
H256 H 0.7946 0.955 0.56556 0.0
C257 C 0.83606 0.8947 0.6336 0.0
C258 C 0.77839 0.86735 0.64824 0.0
C259 C 0.72245 0.84876 0.5368 0.0
C260 C 0.71504 0.86888 0.52665 0.0
C261 C 0.72383 0.89842 0.53415 0.0
C262 C 0.73925 0.90766 0.55149 0.0
C263 C 0.74609 0.88719 0.56156 0.0
C264 C 0.73815 0.85848 0.55408 0.0
C265 C 0.74821 0.84025 0.5666 0.0
C266 C 0.76283 0.86251 0.58297 0.0
C267 C 0.76125 0.88983 0.57997 0.0
C268 C 0.7737 0.83544 0.55602 0.0
C269 C 0.71755 0.80956 0.57242 0.0
C270 C 0.79169 0.98497 0.62036 0.0
C271 C 0.80467 0.99341 0.63841 0.0
C272 C 0.81255 0.97344 0.64834 0.0
C273 C 0.80724 0.94529 0.64049 0.0
C274 C 0.79389 0.93696 0.6225 0.0
C275 C 0.78642 0.95672 0.61275 0.0
C276 C 0.77215 0.94397 0.59389 0.0
C277 C 0.7723 0.9133 0.59392 0.0
C278 C 0.78506 0.90931 0.6107 0.0
C279 C 0.79498 0.96687 0.57871 0.0
C280 C 0.73744 0.93883 0.5936 0.0
H281 H 0.7653 0.79737 0.58531 0.0
H282 H 0.8116 0.82821 0.64898 0.0
H283 H 0.75526 0.84481 0.6474 0.0
H284 H 0.77115 0.88523 0.64982 0.0
H285 H 0.79097 0.8667 0.66113 0.0
H286 H 0.85043 0.89015 0.62312 0.0
H287 H 0.84362 0.89141 0.64771 0.0
H288 H 0.84343 0.91957 0.63165 0.0
H289 H 0.71566 0.82573 0.53161 0.0
H290 H 0.71877 0.9145 0.52655 0.0
H291 H 0.74512 0.93038 0.5564 0.0
H292 H 0.78833 0.85535 0.54637 0.0
H293 H 0.76207 0.81382 0.5475 0.0
H294 H 0.79153 0.83464 0.56547 0.0
H295 H 0.69748 0.81403 0.57571 0.0
H296 H 0.72087 0.79893 0.5852 0.0
H297 H 0.70938 0.79213 0.56098 0.0
H298 H 0.77796 0.76316 0.60295 0.0
C299 C 0.77525 0.80484 0.599 0.0
C300 C 0.02805 0.81174 0.64065 0.0
C301 C 1.00608 0.78197 0.63372 0.0
C302 C 0.01067 0.7738 0.61558 0.0
C303 C 0.05905 0.82422 0.61166 0.0
C304 C 0.05449 0.83235 0.62946 0.0
C305 C 0.08126 0.8643 0.63491 0.0
H306 H 0.22365 0.99388 0.61321 0.0
C307 C 0.08914 0.85045 0.60383 0.0
C308 C 0.10236 0.87402 0.61745 0.0
H309 H 0.16897 0.97429 0.66453 0.0
H310 H 0.12789 0.9248 0.65211 0.0
H311 H 0.21386 0.92598 0.60787 0.0
H312 H 0.16331 0.97065 0.58608 0.0
H313 H 0.16464 0.94752 0.56793 0.0
H314 H 0.20183 0.97891 0.57713 0.0
H315 H 0.23042 0.95557 0.59002 0.0
H316 H 0.20537 0.91481 0.58437 0.0
C317 C 0.09873 0.86053 0.6521 0.0
C318 C 0.06644 0.88546 0.63831 0.0
C319 C 0.12729 0.84313 0.53817 0.0
C320 C 0.15426 0.864 0.52737 0.0
C321 C 0.17643 0.89322 0.53501 0.0
C322 C 0.17188 0.90168 0.55294 0.0
C323 C 0.14491 0.88068 0.56358 0.0
C324 C 0.12302 0.85201 0.55615 0.0
C325 C 0.09582 0.83284 0.56962 0.0
C326 C 0.1051 0.85474 0.5863 0.0
C327 C 0.13397 0.88262 0.58264 0.0
C328 C 0.09677 0.80268 0.57441 0.0
C329 C 0.06394 0.82705 0.56056 0.0
C330 C 0.20275 0.97898 0.62174 0.0
C331 C 0.19978 0.98783 0.63996 0.0
C332 C 0.17219 0.96771 0.6506 0.0
C333 C 0.14826 0.93905 0.64331 0.0
C334 C 0.15186 0.93033 0.62515 0.0
C335 C 0.17871 0.95033 0.61469 0.0
C336 C 0.17865 0.93747 0.59567 0.0
C337 C 0.14751 0.9063 0.59646 0.0
C338 C 0.13184 0.90212 0.61375 0.0
C339 C 0.20866 0.93335 0.5942 0.0
C340 C 0.17727 0.95974 0.58082 0.0
H341 H 0.039 0.78698 0.59086 0.0
H342 H 0.02517 0.81848 0.65461 0.0
H343 H 0.04736 0.88068 0.62784 0.0
H344 H 0.08413 0.91056 0.63674 0.0
H345 H 0.05522 0.88125 0.65242 0.0
H346 H 0.09991 0.83864 0.65112 0.0
H347 H 0.08587 0.85941 0.66528 0.0
H348 H 0.12408 0.87935 0.6532 0.0
H349 H 0.10989 0.82044 0.53273 0.0
H350 H 0.1978 0.9094 0.52722 0.0
H351 H 0.1898 0.9242 0.55788 0.0
H352 H 0.12205 0.80738 0.5749 0.0
H353 H 0.08372 0.78431 0.56376 0.0
H354 H 0.08676 0.79319 0.58839 0.0
H355 H 0.06763 0.8482 0.55285 0.0
H356 H 0.04484 0.82219 0.57091 0.0
H357 H 0.05482 0.80747 0.55044 0.0
H358 H 0.99387 0.75102 0.60997 0.0
C359 C 0.03688 0.79472 0.60451 0.0
C360 C 0.88814 0.51508 0.72908 0.0
C361 C 0.89279 0.54351 0.73623 0.0
C362 C 0.90741 0.55339 0.75393 0.0
C363 C 0.9116 0.50657 0.75711 0.0
C364 C 0.89739 0.497 0.73975 0.0
C365 C 0.89308 0.46579 0.73432 0.0
H366 H 0.90493 0.33832 0.7554 0.0
C367 C 0.91776 0.48199 0.76463 0.0
C368 C 0.90669 0.45797 0.75135 0.0
H369 H 0.86936 0.35834 0.70469 0.0
H370 H 0.88068 0.408 0.71702 0.0
H371 H 0.96812 0.4103 0.7592 0.0
H372 H 0.87315 0.36375 0.78392 0.0
H373 H 0.90018 0.38774 0.80116 0.0
H374 H 0.90423 0.35606 0.7916 0.0
H375 H 0.95509 0.37864 0.77563 0.0
H376 H 0.97168 0.4184 0.7833 0.0
C377 C 0.91358 0.47038 0.71651 0.0
C378 C 0.85645 0.44276 0.73201 0.0
C379 C 0.97373 0.4965 0.82751 0.0
C380 C 0.98163 0.47728 0.83826 0.0
C381 C 0.97178 0.44686 0.83176 0.0
C382 C 0.9559 0.43635 0.81458 0.0
C383 C 0.94919 0.45619 0.80374 0.0
C384 C 0.95745 0.48548 0.81043 0.0
C385 C 0.94667 0.50263 0.79747 0.0
C386 C 0.93165 0.47927 0.78164 0.0
C387 C 0.93342 0.45216 0.78532 0.0
C388 C 0.97685 0.53307 0.79087 0.0
C389 C 0.92138 0.50789 0.80792 0.0
C390 C 0.89972 0.35353 0.74698 0.0
C391 C 0.88553 0.34405 0.72919 0.0
C392 C 0.87936 0.36463 0.71863 0.0
C393 C 0.88619 0.39363 0.72578 0.0
C394 C 0.89961 0.40251 0.74371 0.0
C395 C 0.90654 0.38279 0.75393 0.0
C396 C 0.92143 0.39665 0.77257 0.0
C397 C 0.92198 0.42774 0.77187 0.0
C398 C 0.90902 0.43086 0.75493 0.0
C399 C 0.95585 0.40116 0.77289 0.0
C400 C 0.89887 0.37498 0.78824 0.0
H401 H 0.92781 0.54398 0.7777 0.0
H402 H 0.87775 0.50708 0.71537 0.0
H403 H 0.84227 0.44732 0.74262 0.0
H404 H 0.84971 0.41811 0.73425 0.0
H405 H 0.848 0.44521 0.71798 0.0
H406 H 0.93547 0.494 0.71619 0.0
H407 H 0.8996 0.46796 0.70363 0.0
H408 H 0.92303 0.45405 0.71587 0.0
H409 H 0.9805 0.51984 0.83213 0.0
H410 H 0.97621 0.43097 0.84002 0.0
H411 H 0.94941 0.4131 0.81041 0.0
H412 H 0.99676 0.5285 0.78728 0.0
H413 H 0.98567 0.55105 0.80202 0.0
H414 H 0.97259 0.54305 0.7781 0.0
H415 H 0.90726 0.48864 0.81806 0.0
H416 H 0.9031 0.50781 0.79847 0.0
H417 H 0.93313 0.53011 0.81587 0.0
H418 H 0.91123 0.57516 0.75981 0.0
C419 C 0.91686 0.53516 0.76436 0.0
C420 C 0.65335 0.52066 0.724 0.0
C421 C 0.67421 0.55117 0.73033 0.0
C422 C 0.66814 0.56029 0.74784 0.0
C423 C 0.62048 0.50939 0.75218 0.0
C424 C 0.62654 0.50034 0.73504 0.0
C425 C 0.60088 0.46767 0.73 0.0
H426 H 0.45704 0.33919 0.74988 0.0
C427 C 0.59029 0.4831 0.75997 0.0
C428 C 0.57864 0.45859 0.74693 0.0
H429 H 0.51829 0.35483 0.70179 0.0
H430 H 0.55768 0.40517 0.714 0.0
H431 H 0.51225 0.36048 0.77885 0.0
H432 H 0.46861 0.40927 0.75359 0.0
H433 H 0.47209 0.41705 0.77775 0.0
H434 H 0.4484 0.3774 0.76983 0.0
H435 H 0.47563 0.35696 0.7879 0.0
H436 H 0.51473 0.38721 0.79576 0.0
C437 C 0.61692 0.44722 0.72831 0.0
C438 C 0.58415 0.46955 0.71191 0.0
C439 C 0.54598 0.49311 0.82329 0.0
C440 C 0.51824 0.47239 0.83363 0.0
C441 C 0.49812 0.44207 0.82664 0.0
C442 C 0.50454 0.43289 0.80941 0.0
C443 C 0.53163 0.45406 0.79893 0.0
C444 C 0.55218 0.48344 0.806 0.0
C445 C 0.58017 0.50238 0.79291 0.0
C446 C 0.5729 0.47947 0.77691 0.0
C447 C 0.54421 0.45136 0.78052 0.0
C448 C 0.61167 0.50993 0.80319 0.0
C449 C 0.57847 0.53153 0.78657 0.0
C450 C 0.47913 0.35313 0.74207 0.0
C451 C 0.48447 0.34273 0.72484 0.0
C452 C 0.51332 0.36227 0.71501 0.0
C453 C 0.53628 0.39148 0.72217 0.0
C454 C 0.53049 0.40146 0.73941 0.0
C455 C 0.50246 0.38212 0.74915 0.0
C456 C 0.50083 0.39576 0.7676 0.0
C457 C 0.53207 0.42691 0.76714 0.0
C458 C 0.54929 0.43032 0.75053 0.0
C459 C 0.50062 0.37404 0.78342 0.0
C460 C 0.47086 0.40002 0.76737 0.0
H461 H 0.63828 0.54811 0.77194 0.0
H462 H 0.65734 0.5131 0.71055 0.0
H463 H 0.58117 0.49051 0.71208 0.0
H464 H 0.55954 0.44959 0.71024 0.0
H465 H 0.59863 0.47129 0.69933 0.0
H466 H 0.63636 0.45414 0.73887 0.0
H467 H 0.62792 0.44973 0.71427 0.0
H468 H 0.59998 0.42224 0.73114 0.0
H469 H 0.56207 0.5165 0.82833 0.0
H470 H 0.4772 0.42532 0.83453 0.0
H471 H 0.48791 0.40965 0.80485 0.0
H472 H 0.60823 0.48949 0.81161 0.0
H473 H 0.61921 0.52991 0.81287 0.0
H474 H 0.63178 0.51509 0.79356 0.0
H475 H 0.55298 0.52573 0.78473 0.0
H476 H 0.58997 0.54068 0.77284 0.0
H477 H 0.58963 0.55049 0.79708 0.0
H478 H 0.68409 0.58361 0.75306 0.0
C479 C 0.64155 0.53963 0.7588 0.0
C480 C 0.64913 0.12321 0.71993 0.0
C481 C 0.67212 0.11563 0.72669 0.0
C482 C 0.66709 0.10139 0.74443 0.0
C483 C 0.61653 0.10115 0.74814 0.0
C484 C 0.62138 0.11551 0.73083 0.0
C485 C 0.59354 0.12046 0.72571 0.0
H486 H 0.44406 0.09808 0.74711 0.0
C487 C 0.58512 0.09534 0.7558 0.0
C488 C 0.5713 0.1065 0.74267 0.0
H489 H 0.50166 0.14429 0.69829 0.0
H490 H 0.54456 0.13602 0.70986 0.0
H491 H 0.46093 0.04197 0.74952 0.0
H492 H 0.50157 0.13194 0.77593 0.0
H493 H 0.50149 0.10587 0.79269 0.0
H494 H 0.4637 0.0995 0.78326 0.0
H495 H 0.43977 0.05109 0.76688 0.0
H496 H 0.46682 0.03716 0.7733 0.0
C497 C 0.57791 0.10194 0.70767 0.0
C498 C 0.60659 0.15599 0.72387 0.0
C499 C 0.54661 0.04164 0.81946 0.0
C500 C 0.51837 0.03225 0.83013 0.0
C501 C 0.49476 0.03864 0.823 0.0
C502 C 0.49883 0.05349 0.80558 0.0
C503 C 0.52693 0.06231 0.79498 0.0
C504 C 0.55031 0.05648 0.80203 0.0
C505 C 0.57859 0.06747 0.78883 0.0
C506 C 0.56846 0.08101 0.77277 0.0
C507 C 0.5381 0.07784 0.77641 0.0
C508 C 0.58087 0.03853 0.78271 0.0
C509 C 0.60896 0.09299 0.7989 0.0
C510 C 0.46584 0.10622 0.73886 0.0
C511 C 0.46938 0.12172 0.72172 0.0
C512 C 0.49838 0.13242 0.71157 0.0
C513 C 0.5232 0.12747 0.71829 0.0
C514 C 0.51923 0.11181 0.73546 0.0
C515 C 0.49095 0.10182 0.7455 0.0
C516 C 0.49116 0.08676 0.76379 0.0
C517 C 0.52387 0.08875 0.76304 0.0
C518 C 0.54034 0.10324 0.74633 0.0
C519 C 0.46315 0.05248 0.76356 0.0
C520 C 0.48915 0.10675 0.77985 0.0
H521 H 0.63749 0.08328 0.76845 0.0
H522 H 0.65229 0.13411 0.70633 0.0
H523 H 0.62479 0.16897 0.73489 0.0
H524 H 0.58769 0.16233 0.72584 0.0
H525 H 0.61839 0.16491 0.71007 0.0
H526 H 0.57568 0.07843 0.70834 0.0
H527 H 0.59276 0.11428 0.69519 0.0
H528 H 0.55321 0.0976 0.70548 0.0
H529 H 0.56557 0.0377 0.82459 0.0
H530 H 0.47273 0.0316 0.83079 0.0
H531 H 0.47974 0.0573 0.80096 0.0
H532 H 0.55654 0.01733 0.78202 0.0
H533 H 0.59546 0.03353 0.79273 0.0
H534 H 0.59093 0.04095 0.76849 0.0
H535 H 0.60291 0.10805 0.80756 0.0
H536 H 0.62785 0.10924 0.78913 0.0
H537 H 0.61938 0.08241 0.80832 0.0
H538 H 0.68453 0.09562 0.75003 0.0
C539 C 0.63969 0.09423 0.75514 0.0
C540 C 0.85117 0.53431 0.9721 0.0
C541 C 0.88131 0.54074 0.96486 0.0
C542 C 0.89105 0.55521 0.94718 0.0
C543 C 0.84164 0.55727 0.94432 0.0
C544 C 0.8319 0.54307 0.96167 0.0
C545 C 0.79967 0.53918 0.96737 0.0
H546 H 0.67571 0.56572 0.94871 0.0
C547 C 0.8165 0.56369 0.9371 0.0
C548 C 0.79182 0.55336 0.9506 0.0
H549 H 0.68695 0.51985 0.99724 0.0
H550 H 0.7367 0.52574 0.98434 0.0
H551 H 0.75037 0.61997 0.9445 0.0
H552 H 0.69555 0.52933 0.9191 0.0
H553 H 0.72105 0.5552 0.90179 0.0
H554 H 0.69066 0.56176 0.91235 0.0
H555 H 0.71916 0.61111 0.92768 0.0
H556 H 0.76001 0.62381 0.92052 0.0
C557 C 0.80459 0.55826 0.98539 0.0
C558 C 0.77534 0.50384 0.9695 0.0
C559 C 0.83126 0.61448 0.87287 0.0
C560 C 0.81279 0.6241 0.86242 0.0
C561 C 0.78368 0.61972 0.8702 0.0
C562 C 0.77306 0.60588 0.88792 0.0
C563 C 0.79177 0.59635 0.89819 0.0
C564 C 0.82034 0.60075 0.8906 0.0
C565 C 0.83742 0.58976 0.9036 0.0
C566 C 0.81421 0.57762 0.92012 0.0
C567 C 0.7875 0.58156 0.91692 0.0
C568 C 0.87032 0.61842 0.90893 0.0
C569 C 0.83996 0.56319 0.89373 0.0
C570 C 0.68907 0.55719 0.95661 0.0
C571 C 0.67774 0.54276 0.97415 0.0
C572 C 0.69533 0.53119 0.98376 0.0
C573 C 0.72424 0.53476 0.97627 0.0
C574 C 0.73562 0.54981 0.95885 0.0
C575 C 0.71774 0.56029 0.94922 0.0
C576 C 0.73261 0.57457 0.9306 0.0
C577 C 0.76275 0.57166 0.93073 0.0
C578 C 0.76464 0.55733 0.94739 0.0
C579 C 0.74088 0.60915 0.93063 0.0
C580 C 0.70882 0.55447 0.91504 0.0
H581 H 0.88042 0.57432 0.92357 0.0
H582 H 0.84305 0.52316 0.98564 0.0
H583 H 0.77961 0.49023 0.95863 0.0
H584 H 0.7501 0.49811 0.9675 0.0
H585 H 0.77765 0.49503 0.9834 0.0
H586 H 0.8273 0.58119 0.98452 0.0
H587 H 0.80625 0.54562 0.99784 0.0
H588 H 0.78534 0.56397 0.98779 0.0
H589 H 0.85411 0.61816 0.86756 0.0
H590 H 0.76899 0.6269 0.86248 0.0
H591 H 0.75072 0.60326 0.89299 0.0
H592 H 0.8691 0.64034 0.90873 0.0
H593 H 0.88963 0.62158 0.89902 0.0
H594 H 0.8778 0.61693 0.92334 0.0
H595 H 0.81741 0.54773 0.88596 0.0
H596 H 0.84293 0.54755 0.90357 0.0
H597 H 0.8602 0.57278 0.88351 0.0
H598 H 0.91385 0.55989 0.94117 0.0
C599 C 0.87148 0.56344 0.93692 0.0
C600 C 0.46043 0.15383 0.96768 0.0
C601 C 0.45263 0.12438 0.96067 0.0
C602 C 0.43423 0.11366 0.94416 0.0
C603 C 0.43381 0.16232 0.94125 0.0
C604 C 0.45077 0.17227 0.95782 0.0
C605 C 0.45711 0.20411 0.96341 0.0
H606 H 0.44513 0.33195 0.94452 0.0
C607 C 0.42862 0.18761 0.93415 0.0
C608 C 0.44214 0.21207 0.94715 0.0
H609 H 0.48321 0.31203 0.99418 0.0
H610 H 0.47265 0.26285 0.98107 0.0
H611 H 0.47678 0.30849 0.91544 0.0
H612 H 0.38285 0.26229 0.94105 0.0
H613 H 0.37787 0.25372 0.91702 0.0
H614 H 0.39576 0.29371 0.92447 0.0
H615 H 0.44481 0.31429 0.90711 0.0
H616 H 0.45049 0.28304 0.89843 0.0
C617 C 0.49411 0.22623 0.96424 0.0
C618 C 0.43913 0.20087 0.9821 0.0
C619 C 0.37223 0.17646 0.87188 0.0
C620 C 0.36588 0.19705 0.86148 0.0
C621 C 0.37699 0.2275 0.86826 0.0
C622 C 0.39299 0.23693 0.88539 0.0
C623 C 0.39837 0.21587 0.89587 0.0
C624 C 0.3886 0.1864 0.88895 0.0
C625 C 0.39799 0.16787 0.90167 0.0
C626 C 0.41438 0.19092 0.91749 0.0
C627 C 0.4142 0.21883 0.91403 0.0
C628 C 0.42183 0.16097 0.89089 0.0
C629 C 0.36683 0.13836 0.90833 0.0
C630 C 0.45081 0.31678 0.95264 0.0
C631 C 0.46459 0.32557 0.97049 0.0
C632 C 0.47255 0.30566 0.98041 0.0
C633 C 0.46622 0.27706 0.97281 0.0
C634 C 0.45177 0.26827 0.95511 0.0
C635 C 0.44438 0.28804 0.94533 0.0
C636 C 0.42866 0.27466 0.92687 0.0
C637 C 0.42733 0.24331 0.92733 0.0
C638 C 0.44107 0.23984 0.94382 0.0
C639 C 0.45105 0.29618 0.91106 0.0
C640 C 0.39454 0.27098 0.92716 0.0
H641 H 0.41118 0.12313 0.92184 0.0
H642 H 0.47428 0.16261 0.98041 0.0
H643 H 0.41755 0.17721 0.98365 0.0
H644 H 0.42946 0.21702 0.98298 0.0
H645 H 0.45499 0.20465 0.9943 0.0
H646 H 0.50626 0.22159 0.95241 0.0
H647 H 0.50418 0.2228 0.97745 0.0
H648 H 0.50131 0.25114 0.9629 0.0
H649 H 0.36436 0.15304 0.86694 0.0
H650 H 0.37354 0.24422 0.86021 0.0
H651 H 0.40058 0.26032 0.8898 0.0
H652 H 0.43842 0.1813 0.88203 0.0
H653 H 0.40875 0.1405 0.88155 0.0
H654 H 0.43778 0.15691 0.90016 0.0
H655 H 0.34711 0.14372 0.91071 0.0
H656 H 0.36977 0.12927 0.92186 0.0
H657 H 0.3583 0.1195 0.89774 0.0
H658 H 0.42699 0.0906 0.9388 0.0
C659 C 0.42491 0.1325 0.93438 0.0
C660 C 0.69777 0.14415 0.9752 0.0
C661 C 0.67459 0.11469 0.96852 0.0
C662 C 0.68011 0.10428 0.95129 0.0
C663 C 0.73052 0.15298 0.94728 0.0
C664 C 0.72547 0.16275 0.96445 0.0
C665 C 0.75248 0.19461 0.96959 0.0
H666 H 0.89605 0.32147 0.94793 0.0
C667 C 0.76115 0.17837 0.93937 0.0
C668 C 0.77413 0.20274 0.9525 0.0
H669 H 0.83973 0.30446 0.99839 0.0
H670 H 0.79888 0.25462 0.98638 0.0
H671 H 0.88419 0.25118 0.94336 0.0
H672 H 0.83934 0.30067 0.92077 0.0
H673 H 0.83507 0.27396 0.90335 0.0
H674 H 0.87496 0.3038 0.91038 0.0
H675 H 0.90316 0.28284 0.92688 0.0
H676 H 0.87857 0.24309 0.91929 0.0
C677 C 0.76886 0.19125 0.98745 0.0
C678 C 0.73841 0.21671 0.9717 0.0
C679 C 0.80195 0.16789 0.875 0.0
C680 C 0.82939 0.18854 0.86442 0.0
C681 C 0.84977 0.21891 0.87122 0.0
C682 C 0.84416 0.22812 0.88861 0.0
C683 C 0.81762 0.20694 0.89942 0.0
C684 C 0.79653 0.17764 0.89246 0.0
C685 C 0.76889 0.159 0.90583 0.0
C686 C 0.77743 0.18179 0.92203 0.0
C687 C 0.80622 0.20964 0.91815 0.0
C688 C 0.76981 0.12926 0.91168 0.0
C689 C 0.73727 0.15243 0.89609 0.0
C690 C 0.87489 0.307 0.95639 0.0
C691 C 0.87137 0.31667 0.97425 0.0
C692 C 0.84342 0.29718 0.98478 0.0
C693 C 0.8196 0.26835 0.97771 0.0
C694 C 0.82365 0.2589 0.95986 0.0
C695 C 0.85089 0.27825 0.94951 0.0
C696 C 0.85103 0.26485 0.93072 0.0
C697 C 0.81967 0.23387 0.93161 0.0
C698 C 0.80373 0.23048 0.94868 0.0
C699 C 0.88082 0.26033 0.92981 0.0
C700 C 0.85028 0.2869 0.91543 0.0
H701 H 0.71049 0.11414 0.92757 0.0
H702 H 0.69436 0.15256 0.9885 0.0
H703 H 0.71969 0.21158 0.96092 0.0
H704 H 0.75659 0.24155 0.96957 0.0
H705 H 0.72696 0.21386 0.98564 0.0
H706 H 0.7683 0.16845 0.98768 0.0
H707 H 0.7564 0.19245 1.00027 0.0
H708 H 0.79471 0.20894 0.98829 0.0
H709 H 0.78559 0.14453 0.87002 0.0
H710 H 0.87038 0.2356 0.86309 0.0
H711 H 0.86101 0.25137 0.89303 0.0
H712 H 0.79512 0.13459 0.91364 0.0
H713 H 0.75866 0.11087 0.90084 0.0
H714 H 0.75778 0.11957 0.92522 0.0
H715 H 0.74096 0.17322 0.88796 0.0
H716 H 0.71764 0.14753 0.90603 0.0
H717 H 0.72892 0.13257 0.88622 0.0
H718 H 0.66248 0.08167 0.94585 0.0
C719 C 0.70786 0.12325 0.94063 0.0
C720 C 0.56202 0.85426 0.05302 0.0
C721 C 0.56598 0.88217 0.06045 0.0
C722 C 0.58046 0.89215 0.07813 0.0
C723 C 0.58466 0.84545 0.08129 0.0
C724 C 0.57123 0.8362 0.06371 0.0
C725 C 0.56632 0.80471 0.05847 0.0
H726 H 0.57223 0.67517 0.08202 0.0
C727 C 0.58955 0.82038 0.08918 0.0
C728 C 0.57873 0.79644 0.07584 0.0
H729 H 0.54022 0.69526 0.02998 0.0
H730 H 0.55233 0.74576 0.04165 0.0
H731 H 0.63517 0.74164 0.08548 0.0
H732 H 0.54022 0.70374 0.10916 0.0
H733 H 0.56786 0.72516 0.12684 0.0
H734 H 0.56842 0.69206 0.1167 0.0
H735 H 0.62196 0.71508 0.10496 0.0
H736 H 0.64047 0.75678 0.10817 0.0
C737 C 0.58752 0.80891 0.04109 0.0
C738 C 0.52968 0.78227 0.05559 0.0
C739 C 0.63662 0.83049 0.15448 0.0
C740 C 0.64342 0.81055 0.16526 0.0
C741 C 0.63613 0.78133 0.1579 0.0
C742 C 0.62262 0.77214 0.1401 0.0
C743 C 0.61618 0.79232 0.12943 0.0
C744 C 0.62311 0.82095 0.13662 0.0
C745 C 0.61437 0.83914 0.12318 0.0
C746 C 0.60156 0.81687 0.10669 0.0
C747 C 0.60258 0.78947 0.11053 0.0
C748 C 0.64553 0.86988 0.11808 0.0
C749 C 0.5878 0.84385 0.13241 0.0
C750 C 0.56818 0.69062 0.07308 0.0
C751 C 0.55548 0.6814 0.05502 0.0
C752 C 0.54988 0.70187 0.04397 0.0
C753 C 0.55707 0.73122 0.05075 0.0
C754 C 0.56991 0.74019 0.06882 0.0
C755 C 0.57538 0.72006 0.07961 0.0
C756 C 0.58959 0.73369 0.09833 0.0
C757 C 0.5915 0.76526 0.09706 0.0
C758 C 0.57981 0.76883 0.07979 0.0
C759 C 0.62347 0.73686 0.0995 0.0
C760 C 0.56556 0.71262 0.11368 0.0
H761 H 0.6004 0.88262 0.10203 0.0
H762 H 0.55063 0.84595 0.03955 0.0
H763 H 0.51521 0.78776 0.06547 0.0
H764 H 0.52213 0.75759 0.05849 0.0
H765 H 0.52227 0.78428 0.04117 0.0
H766 H 0.61045 0.83169 0.04151 0.0
H767 H 0.57486 0.80838 0.02797 0.0
H768 H 0.59516 0.7912 0.0403 0.0
H769 H 0.64144 0.85288 0.15986 0.0
H770 H 0.64135 0.76567 0.16586 0.0
H771 H 0.61781 0.74966 0.13533 0.0
H772 H 0.66616 0.86566 0.11631 0.0
H773 H 0.65199 0.88758 0.12926 0.0
H774 H 0.64378 0.88001 0.10466 0.0
H775 H 0.57117 0.82308 0.14096 0.0
H776 H 0.57211 0.84644 0.12213 0.0
H777 H 0.59846 0.86445 0.14179 0.0
H778 H 0.58386 0.91378 0.08402 0.0
C779 C 0.58993 0.874 0.08856 0.0
C780 C 0.31021 0.85937 0.05081 0.0
C781 C 0.33254 0.88877 0.0579 0.0
C782 C 0.32751 0.89746 0.07578 0.0
C783 C 0.27825 0.84761 0.07934 0.0
C784 C 0.28314 0.83936 0.06165 0.0
C785 C 0.25619 0.80784 0.05588 0.0
H786 H 0.11445 0.67782 0.0761 0.0
C787 C 0.24771 0.82159 0.08688 0.0
C788 C 0.23459 0.79835 0.07307 0.0
H789 H 0.171 0.69891 0.0254 0.0
H790 H 0.21005 0.7492 0.03785 0.0
H791 H 0.1732 0.70124 0.10347 0.0
H792 H 0.12336 0.74689 0.08191 0.0
H793 H 0.13033 0.75594 0.1058 0.0
H794 H 0.10581 0.71576 0.09879 0.0
H795 H 0.13442 0.69259 0.11218 0.0
H796 H 0.17131 0.72383 0.12178 0.0
C797 C 0.27052 0.78616 0.05273 0.0
C798 C 0.23963 0.81233 0.03847 0.0
C799 C 0.20965 0.82697 0.15287 0.0
C800 C 0.18235 0.80611 0.16346 0.0
C801 C 0.16001 0.7772 0.15554 0.0
C802 C 0.16436 0.76932 0.13738 0.0
C803 C 0.19146 0.79048 0.12689 0.0
C804 C 0.21369 0.81868 0.13468 0.0
C805 C 0.24103 0.83814 0.12135 0.0
C806 C 0.23153 0.81691 0.10436 0.0
C807 C 0.20239 0.78908 0.10771 0.0
C808 C 0.27271 0.84311 0.13025 0.0
C809 C 0.24069 0.86876 0.11713 0.0
C810 C 0.13536 0.69322 0.06772 0.0
C811 C 0.13987 0.68425 0.04982 0.0
C812 C 0.16697 0.7053 0.0392 0.0
C813 C 0.18972 0.73441 0.04653 0.0
C814 C 0.18534 0.74263 0.06468 0.0
C815 C 0.15838 0.72221 0.07489 0.0
C816 C 0.15788 0.73451 0.09403 0.0
C817 C 0.18891 0.76583 0.09362 0.0
C818 C 0.20489 0.77045 0.0764 0.0
C819 C 0.15902 0.71193 0.10874 0.0
C820 C 0.12773 0.73837 0.0954 0.0
H821 H 0.29814 0.88491 0.10011 0.0
H822 H 0.31347 0.85238 0.037 0.0
H823 H 0.2402 0.83512 0.03897 0.0
H824 H 0.21375 0.7947 0.03757 0.0
H825 H 0.25192 0.81194 0.02537 0.0
H826 H 0.28928 0.7906 0.06336 0.0
H827 H 0.282 0.79018 0.03871 0.0
H828 H 0.2525 0.76114 0.05427 0.0
H829 H 0.22753 0.84919 0.15862 0.0
H830 H 0.1387 0.76083 0.1633 0.0
H831 H 0.14627 0.74706 0.13218 0.0
H832 H 0.2689 0.82118 0.13701 0.0
H833 H 0.28139 0.8615 0.14115 0.0
H834 H 0.29217 0.84933 0.11994 0.0
H835 H 0.21559 0.8646 0.11702 0.0
H836 H 0.25042 0.87845 0.10314 0.0
H837 H 0.25433 0.88679 0.12786 0.0
H838 H 0.3446 0.92012 0.08142 0.0
C839 C 0.30059 0.87701 0.08658 0.0
C840 C 0.31397 0.45923 0.05326 0.0
C841 C 0.33722 0.45257 0.06055 0.0
C842 C 0.33268 0.43982 0.07871 0.0
C843 C 0.28212 0.43977 0.08193 0.0
C844 C 0.28653 0.45242 0.06412 0.0
C845 C 0.25841 0.45628 0.05826 0.0
H846 H 0.11315 0.4432 0.07907 0.0
C847 C 0.25093 0.43487 0.08944 0.0
C848 C 0.23686 0.4445 0.07557 0.0
H849 H 0.1655 0.47337 0.02694 0.0
H850 H 0.20833 0.46622 0.03986 0.0
H851 H 0.1254 0.3852 0.08505 0.0
H852 H 0.17365 0.47904 0.10639 0.0
H853 H 0.17175 0.45444 0.12474 0.0
H854 H 0.13486 0.44968 0.11488 0.0
H855 H 0.10759 0.39829 0.10232 0.0
H856 H 0.13354 0.38307 0.10877 0.0
C857 C 0.2423 0.43521 0.04107 0.0
C858 C 0.27107 0.49141 0.05465 0.0
C859 C 0.21263 0.38801 0.15485 0.0
C860 C 0.18497 0.38107 0.16555 0.0
C861 C 0.1625 0.38865 0.15797 0.0
C862 C 0.167 0.40223 0.14014 0.0
C863 C 0.19433 0.40847 0.1295 0.0
C864 C 0.21684 0.40177 0.13698 0.0
C865 C 0.24464 0.41051 0.12368 0.0
C866 C 0.23484 0.42308 0.10693 0.0
C867 C 0.20521 0.42163 0.11041 0.0
C868 C 0.24557 0.38045 0.11878 0.0
C869 C 0.27573 0.43626 0.13303 0.0
C870 C 0.13394 0.4483 0.07052 0.0
C871 C 0.13621 0.45897 0.05204 0.0
C872 C 0.16339 0.46515 0.04122 0.0
C873 C 0.18814 0.46094 0.04876 0.0
C874 C 0.18553 0.45006 0.06729 0.0
C875 C 0.1586 0.44377 0.07777 0.0
C876 C 0.15918 0.43133 0.09693 0.0
C877 C 0.19093 0.43131 0.09635 0.0
C878 C 0.20648 0.44248 0.07898 0.0
C879 C 0.12987 0.3978 0.09856 0.0
C880 C 0.15965 0.45455 0.11162 0.0
H881 H 0.3035 0.42365 0.10308 0.0
H882 H 0.31665 0.4687 0.03926 0.0
H883 H 0.28822 0.5058 0.06579 0.0
H884 H 0.2518 0.49749 0.05484 0.0
H885 H 0.284 0.49892 0.04103 0.0
H886 H 0.24393 0.41353 0.04185 0.0
H887 H 0.25417 0.44749 0.02785 0.0
H888 H 0.21621 0.42687 0.04021 0.0
H889 H 0.23022 0.38214 0.16001 0.0
H890 H 0.14121 0.38397 0.16587 0.0
H891 H 0.1488 0.40716 0.13527 0.0
H892 H 0.22072 0.36012 0.11759 0.0
H893 H 0.2583 0.3748 0.12976 0.0
H894 H 0.25696 0.38188 0.1051 0.0
H895 H 0.27066 0.45257 0.1411 0.0
H896 H 0.29453 0.45124 0.12283 0.0
H897 H 0.28584 0.42597 0.14289 0.0
H898 H 0.35029 0.43455 0.08461 0.0
C899 C 0.30547 0.43351 0.08942 0.0
C900 C 0.52119 0.87551 0.30773 0.0
C901 C 0.55172 0.88291 0.30056 0.0
C902 C 0.5605 0.89606 0.28251 0.0
C903 C 0.50945 0.89487 0.27907 0.0
C904 C 0.50059 0.88198 0.2968 0.0
C905 C 0.46784 0.87709 0.30232 0.0
H906 H 0.33962 0.89652 0.28163 0.0
C907 C 0.48331 0.8995 0.27145 0.0
C908 C 0.4588 0.88937 0.28507 0.0
H909 H 0.35322 0.85508 0.33153 0.0
H910 H 0.40377 0.86221 0.31907 0.0
H911 H 0.41299 0.95236 0.27706 0.0
H912 H 0.36196 0.86024 0.25312 0.0
H913 H 0.38613 0.88624 0.23544 0.0
H914 H 0.35459 0.89101 0.246 0.0
H915 H 0.38224 0.94177 0.25969 0.0
H916 H 0.42367 0.95554 0.25329 0.0
C917 C 0.47211 0.89711 0.31981 0.0
C918 C 0.44475 0.84169 0.30529 0.0
C919 C 0.49544 0.94585 0.20602 0.0
C920 C 0.47686 0.95526 0.19543 0.0
C921 C 0.44745 0.95028 0.20313 0.0
C922 C 0.43712 0.9369 0.221 0.0
C923 C 0.45635 0.92833 0.23154 0.0
C924 C 0.48499 0.93289 0.22397 0.0
C925 C 0.50296 0.92348 0.23736 0.0
C926 C 0.48015 0.91196 0.25409 0.0
C927 C 0.4528 0.91475 0.25062 0.0
C928 C 0.53559 0.95303 0.24205 0.0
C929 C 0.50616 0.89673 0.22828 0.0
C930 C 0.35365 0.88923 0.28994 0.0
C931 C 0.34268 0.87569 0.30773 0.0
C932 C 0.36123 0.86572 0.31785 0.0
C933 C 0.39062 0.87 0.31061 0.0
C934 C 0.40157 0.88416 0.29292 0.0
C935 C 0.38281 0.89307 0.28282 0.0
C936 C 0.39732 0.90664 0.26401 0.0
C937 C 0.42817 0.90498 0.2645 0.0
C938 C 0.43085 0.89201 0.28155 0.0
C939 C 0.40432 0.94082 0.26328 0.0
C940 C 0.37386 0.8852 0.24873 0.0
H941 H 0.54792 0.91182 0.25812 0.0
H942 H 0.51388 0.86556 0.32161 0.0
H943 H 0.44933 0.8279 0.2947 0.0
H944 H 0.41915 0.83487 0.30355 0.0
H945 H 0.44811 0.83411 0.31935 0.0
H946 H 0.49395 0.92061 0.31835 0.0
H947 H 0.47501 0.88591 0.33259 0.0
H948 H 0.45192 0.90152 0.322 0.0
H949 H 0.5178 0.94856 0.20053 0.0
H950 H 0.43265 0.95739 0.19546 0.0
H951 H 0.41468 0.93411 0.22603 0.0
H952 H 0.53406 0.9747 0.24061 0.0
H953 H 0.55512 0.95541 0.23258 0.0
H954 H 0.54297 0.95328 0.25673 0.0
H955 H 0.48334 0.87994 0.22119 0.0
H956 H 0.51066 0.88261 0.23855 0.0
H957 H 0.52572 0.90599 0.21763 0.0
H958 H 0.58372 0.90175 0.27666 0.0
C959 C 0.53961 0.90188 0.27175 0.0
C960 C 0.11854 0.47953 0.30357 0.0
C961 C 0.11697 0.45293 0.29549 0.0
C962 C 0.10577 0.44518 0.27693 0.0
C963 C 0.09993 0.49113 0.27466 0.0
C964 C 0.11078 0.49855 0.29284 0.0
C965 C 0.11495 0.52942 0.29881 0.0
H966 H 0.11096 0.66079 0.27806 0.0
C967 C 0.09531 0.51663 0.26722 0.0
C968 C 0.1047 0.53935 0.28125 0.0
H969 H 0.14045 0.63666 0.32965 0.0
H970 H 0.12834 0.58692 0.31683 0.0
H971 H 0.14407 0.63576 0.25051 0.0
H972 H 0.04744 0.59193 0.27252 0.0
H973 H 0.04454 0.58195 0.24879 0.0
H974 H 0.062 0.62245 0.25524 0.0
H975 H 0.11477 0.64549 0.24222 0.0
H976 H 0.1183 0.61378 0.23226 0.0
C977 C 0.15114 0.55151 0.30336 0.0
C978 C 0.09155 0.5235 0.31534 0.0
C979 C 0.04511 0.50796 0.20308 0.0
C980 C 0.03794 0.52822 0.19291 0.0
C981 C 0.04781 0.5582 0.2001 0.0
C982 C 0.06293 0.56728 0.2175 0.0
C983 C 0.06868 0.54637 0.22787 0.0
C984 C 0.06049 0.51752 0.22049 0.0
C985 C 0.07008 0.49913 0.23323 0.0
C986 C 0.08373 0.52107 0.24982 0.0
C987 C 0.08275 0.54867 0.24655 0.0
C988 C 0.09623 0.49468 0.22317 0.0
C989 C 0.03941 0.46819 0.23858 0.0
C990 C 0.11468 0.64466 0.28656 0.0
C991 C 0.12716 0.65274 0.30475 0.0
C992 C 0.13157 0.63118 0.31544 0.0
C993 C 0.12436 0.60225 0.308 0.0
C994 C 0.11255 0.59473 0.28964 0.0
C995 C 0.10761 0.61564 0.27931 0.0
C996 C 0.0944 0.60335 0.26018 0.0
C997 C 0.09293 0.57191 0.26062 0.0
C998 C 0.10359 0.56709 0.2779 0.0
C999 C 0.11887 0.62572 0.24541 0.0
C1000 C 0.06041 0.59984 0.25891 0.0
H1001 H 0.08894 0.45702 0.25246 0.0
H1002 H 0.12611 0.48585 0.31792 0.0
H1003 H 0.06827 0.50146 0.31327 0.0
H1004 H 0.0849 0.54184 0.31672 0.0
H1005 H 0.10194 0.52133 0.32876 0.0
H1006 H 0.16691 0.54563 0.29489 0.0
H1007 H 0.15625 0.54976 0.31833 0.0
H1008 H 0.15952 0.5762 0.29984 0.0
H1009 H 0.03834 0.48498 0.19778 0.0
H1010 H 0.04379 0.57472 0.19223 0.0
H1011 H 0.06944 0.59027 0.22224 0.0
H1012 H 0.11049 0.51413 0.21318 0.0
H1013 H 0.08525 0.47255 0.21513 0.0
H1014 H 0.1143 0.49507 0.23295 0.0
H1015 H 0.01968 0.47269 0.24275 0.0
H1016 H 0.04308 0.45626 0.25059 0.0
H1017 H 0.03075 0.45181 0.22658 0.0
H1018 H 0.10439 0.42487 0.27029 0.0
C1019 C 0.09708 0.46401 0.26652 0.0
C1020 C 0.36774 0.4776 0.30676 0.0
C1021 C 0.34619 0.44759 0.29998 0.0
C1022 C 0.35223 0.43866 0.2824 0.0
C1023 C 0.40019 0.48945 0.27841 0.0
C1024 C 0.39459 0.498 0.29583 0.0
C1025 C 0.42047 0.53042 0.30113 0.0
H1026 H 0.55697 0.66453 0.27804 0.0
C1027 C 0.42979 0.5162 0.27047 0.0
C1028 C 0.4418 0.54028 0.28379 0.0
H1029 H 0.5063 0.64052 0.33099 0.0
H1030 H 0.46626 0.5906 0.31856 0.0
H1031 H 0.55307 0.59845 0.27314 0.0
H1032 H 0.49602 0.63658 0.25171 0.0
H1033 H 0.49849 0.61385 0.23367 0.0
H1034 H 0.53489 0.64718 0.2422 0.0
H1035 H 0.56736 0.62821 0.25539 0.0
H1036 H 0.5451 0.58729 0.24962 0.0
C1037 C 0.4382 0.52786 0.3186 0.0
C1038 C 0.4045 0.5507 0.30402 0.0
C1039 C 0.47118 0.50898 0.20571 0.0
C1040 C 0.49781 0.53054 0.19492 0.0
C1041 C 0.51684 0.56127 0.20159 0.0
C1042 C 0.51061 0.57004 0.219 0.0
C1043 C 0.48491 0.54796 0.23 0.0
C1044 C 0.4652 0.5182 0.22318 0.0
C1045 C 0.43838 0.49835 0.23673 0.0
C1046 C 0.44587 0.52088 0.25294 0.0
C1047 C 0.47332 0.5498 0.2489 0.0
C1048 C 0.44181 0.46987 0.24241 0.0
C1049 C 0.40592 0.48976 0.22728 0.0
C1050 C 0.53758 0.64839 0.2871 0.0
C1051 C 0.5352 0.65643 0.30565 0.0
C1052 C 0.50878 0.63499 0.31666 0.0
C1053 C 0.48566 0.6059 0.30945 0.0
C1054 C 0.48896 0.59794 0.29103 0.0
C1055 C 0.51465 0.61909 0.28023 0.0
C1056 C 0.51517 0.60637 0.26125 0.0
C1057 C 0.48564 0.57399 0.26243 0.0
C1058 C 0.47015 0.56922 0.27983 0.0
C1059 C 0.54682 0.6051 0.25955 0.0
C1060 C 0.51119 0.62704 0.24632 0.0
H1061 H 0.38207 0.45122 0.25829 0.0
H1062 H 0.36394 0.48488 0.32035 0.0
H1063 H 0.38668 0.54623 0.29277 0.0
H1064 H 0.42188 0.576 0.30338 0.0
H1065 H 0.39152 0.54525 0.31763 0.0
H1066 H 0.43789 0.50518 0.31893 0.0
H1067 H 0.42667 0.5295 0.33171 0.0
H1068 H 0.46407 0.54573 0.31874 0.0
H1069 H 0.45588 0.48529 0.20088 0.0
H1070 H 0.53681 0.57859 0.19331 0.0
H1071 H 0.52634 0.59367 0.22329 0.0
H1072 H 0.46766 0.47678 0.24397 0.0
H1073 H 0.4312 0.45125 0.23166 0.0
H1074 H 0.4307 0.45985 0.2561 0.0
H1075 H 0.40817 0.50966 0.21875 0.0
H1076 H 0.38647 0.48467 0.23741 0.0
H1077 H 0.39801 0.46944 0.21782 0.0
H1078 H 0.33589 0.41566 0.2769 0.0
C1079 C 0.37897 0.45941 0.27158 0.0
Gd1080 Gd 0.51417 0.01944 0.03434 0.0
Gd1081 Gd 0.48972 0.97706 0.98952 0.0
C1082 C 0.38257 0.90268 0.99302 0.0
C1083 C 0.38491 0.85561 0.99955 0.0
C1084 C 0.43434 0.90507 0.99408 0.0
C1085 C 0.41661 0.91996 0.99192 0.0
C1086 C 0.41852 0.87245 0.99717 0.0
C1087 C 0.36695 0.87072 0.99749 0.0
C1088 C 0.36515 0.9178 0.98911 0.0
C1089 C 0.38155 0.94891 0.98332 0.0
N1090 N 0.43245 0.95097 0.98777 0.0
C1091 C 0.41524 0.96505 0.98239 0.0
H1092 H 0.42687 0.98868 0.97718 0.0
C1093 C 0.48395 0.90675 0.98941 0.0
N1094 N 0.46675 0.92194 0.99159 0.0
C1095 C 0.46948 0.87458 0.99255 0.0
C1096 C 0.43675 0.85745 0.99694 0.0
H1097 H 0.50918 0.91938 0.98555 0.0
H1098 H 0.34092 0.85727 0.99877 0.0
H1099 H 0.5763 0.0064 0.03393 0.0
H1100 H 0.33905 0.90539 0.98986 0.0
H1101 H 0.36824 0.96052 0.97951 0.0
H1102 H 0.37246 0.83069 1.00228 0.0
H1103 H 0.48962 0.06974 0.04594 0.0
H1104 H 0.66391 0.09454 0.03448 0.0
H1105 H 0.63578 0.03675 0.03366 0.0
H1106 H 0.6269 0.16814 0.04122 0.0
H1107 H 0.48357 0.86301 0.99147 0.0
H1108 H 0.42551 0.83247 0.99924 0.0
H1109 H 0.66033 0.14357 0.03689 0.0
H1110 H 0.51312 0.12682 0.05012 0.0
N1111 N 0.57078 0.04647 0.03468 0.0
C1112 C 0.63779 0.08129 0.0347 0.0
C1113 C 0.62201 0.04868 0.03425 0.0
C1114 C 0.61966 0.09637 0.03588 0.0
C1115 C 0.58574 0.07801 0.03606 0.0
C1116 C 0.58827 0.03152 0.03437 0.0
N1117 N 0.53455 0.07315 0.03918 0.0
C1118 C 0.567 0.09182 0.03831 0.0
C1119 C 0.52854 0.11732 0.04664 0.0
C1120 C 0.56176 0.13713 0.04453 0.0
C1121 C 0.51533 0.08512 0.04428 0.0
C1122 C 0.58154 0.1244 0.04068 0.0
H1123 H 0.57198 0.16206 0.04645 0.0
O1124 O 0.48879 0.01536 0.06045 0.0
O1125 O 0.47495 0.9792 0.01896 0.0
O1126 O 0.47734 0.01548 0.9898 0.0
O1127 O 0.50585 0.05009 0.01409 0.0
O1128 O 0.46256 0.00779 0.03387 0.0
O1129 O 0.52953 0.00808 0.06048 0.0
O1130 O 0.51128 0.96526 0.96628 0.0
O1131 O 0.53155 0.01122 1.00709 0.0
O1132 O 0.51264 0.97334 0.03611 0.0
O1133 O 0.5204 0.96185 1.00584 0.0
O1134 O 0.53029 0.0227 0.97936 0.0
O1135 O 0.48171 0.98635 0.96095 0.0
C1136 C 0.45148 0.9825 0.02415 0.0
C1137 C 0.61528 0.14301 0.03969 0.0
C1138 C 0.63431 0.12902 0.03725 0.0
C1139 C 0.50742 0.00906 0.07057 0.0
C1140 C 0.51738 0.02461 0.08892 0.0
C1141 C 0.53543 0.05725 0.08999 0.0
C1142 C 0.50841 0.00667 0.10558 0.0
C1143 C 0.5174 0.02133 0.12324 0.0
C1144 C 0.5439 0.07191 0.10736 0.0
C1145 C 0.5348 0.05422 0.12382 0.0
C1146 C 0.48879 0.04255 0.99847 0.0
C1147 C 0.54622 0.03189 0.99461 0.0
C1148 C 0.49958 0.97606 0.95366 0.0
C1149 C 0.48902 0.95989 0.93555 0.0
C1150 C 0.46924 0.92739 0.93466 0.0
C1151 C 0.49861 0.97765 0.91884 0.0
C1152 C 0.48888 0.96304 0.90124 0.0
C1153 C 0.45925 0.91276 0.91731 0.0
C1154 C 0.46889 0.93035 0.90075 0.0
C1155 C 0.51943 0.95725 0.02413 0.0
H1156 H 0.54275 0.07143 0.07744 0.0
H1157 H 0.49471 0.98139 0.10477 0.0
H1158 H 0.55745 0.09717 0.10807 0.0
H1159 H 0.54112 0.06639 0.13706 0.0
H1160 H 0.4614 0.91343 0.94733 0.0
H1161 H 0.51387 0.00282 0.91954 0.0
H1162 H 0.44379 0.88766 0.91668 0.0
H1163 H 0.46024 0.91836 0.88756 0.0
Gd1164 Gd 0.98526 0.49212 0.03368 0.0
Gd1165 Gd 0.0286 0.50715 0.98925 0.0
C1166 C 0.069 0.44676 0.96712 0.0
C1167 C 0.12005 0.46795 0.98352 0.0
C1168 C 0.08522 0.49017 0.98831 0.0
C1169 C 0.06274 0.46842 0.97632 0.0
C1170 C 0.11452 0.49065 0.99172 0.0
C1171 C 0.09733 0.44605 0.97121 0.0
C1172 C 0.04723 0.42735 0.95355 0.0
C1173 C 0.021 0.431 0.94877 0.0
N1174 N 0.03577 0.46989 0.97262 0.0
C1175 C 0.01611 0.4531 0.95815 0.0
H1176 H 0.99602 0.45617 0.9543 0.0
C1177 C 0.10216 0.53565 1.00632 0.0
N1178 N 0.07906 0.51173 0.996 0.0
C1179 C 0.13165 0.53724 1.01001 0.0
C1180 C 0.13767 0.51436 1.00293 0.0
H1181 H 0.09806 0.55348 1.01201 0.0
H1182 H 0.10234 0.42927 0.96451 0.0
H1183 H 0.99162 0.56255 0.03002 0.0
H1184 H 0.05115 0.41039 0.94618 0.0
H1185 H 1.00468 0.41695 0.93781 0.0
H1186 H 0.14217 0.46765 0.98622 0.0
H1187 H 0.93775 0.41898 0.04882 0.0
H1188 H 0.89679 0.55047 0.02674 0.0
H1189 H 0.95604 0.58511 0.02707 0.0
H1190 H 0.82817 0.4402 0.03592 0.0
H1191 H 0.14959 0.55599 0.01846 0.0
H1192 H 0.16046 0.51555 1.00589 0.0
H1193 H 0.84914 0.49612 0.02953 0.0
H1194 H 0.87939 0.38091 0.05216 0.0
N1195 N 0.95304 0.51557 0.03124 0.0
C1196 C 0.91232 0.54045 0.02816 0.0
C1197 C 0.94574 0.56008 0.02838 0.0
C1198 C 0.89933 0.50818 0.03023 0.0
C1199 C 0.92064 0.49634 0.03194 0.0
C1200 C 0.96586 0.54718 0.03005 0.0
N1201 N 0.93031 0.45499 0.03801 0.0
C1202 C 0.90887 0.46494 0.03524 0.0
C1203 C 0.88731 0.40436 0.04715 0.0
C1204 C 0.86475 0.41353 0.04286 0.0
C1205 C 0.92022 0.42579 0.04514 0.0
C1206 C 0.87544 0.44441 0.03732 0.0
H1207 H 0.83927 0.39701 0.04462 0.0
O1208 O 0.99056 0.47525 0.06082 0.0
O1209 O 0.02978 0.49794 0.01971 0.0
O1210 O 0.99463 0.45493 0.99191 0.0
O1211 O 0.95782 0.44959 0.01539 0.0
O1212 O 1.00401 0.45874 0.03666 0.0
O1213 O 0.99162 0.51927 0.05883 0.0
O1214 O 0.06524 0.54703 0.97358 0.0
O1215 O 0.99157 0.51297 1.00518 0.0
O1216 O 0.02819 0.54049 0.03447 0.0
O1217 O 0.04887 0.55364 1.00418 0.0
O1218 O 0.9789 0.49251 0.97888 0.0
O1219 O 0.01806 0.51869 0.96174 0.0
C1220 C 0.02942 0.47388 0.02638 0.0
C1221 C 0.85397 0.45569 0.03465 0.0
C1222 C 0.8659 0.48754 0.03108 0.0
C1223 C 0.99225 0.49871 0.06994 0.0
C1224 C 0.97297 0.49112 0.08719 0.0
C1225 C 0.93921 0.47566 0.08658 0.0
C1226 C 0.98867 0.49911 0.10456 0.0
C1227 C 0.97077 0.49149 0.12133 0.0
C1228 C 0.92128 0.46746 0.10313 0.0
C1229 C 0.93687 0.47505 0.1204 0.0
C1230 C 0.96725 0.43866 1.00132 0.0
C1231 C 0.96936 0.50202 0.99295 0.0
C1232 C 0.04742 0.54089 0.95871 0.0
C1233 C 0.06205 0.54088 0.94036 0.0
C1234 C 0.09576 0.55669 0.93832 0.0
C1235 C 0.0426 0.5265 0.92451 0.0
C1236 C 0.0567 0.52779 0.90691 0.0
C1237 C 0.1098 0.55831 0.92095 0.0
C1238 C 0.09053 0.54425 0.90535 0.0
C1239 C 0.04798 0.5606 0.02194 0.0
H1240 H 0.92667 0.46982 0.0734 0.0
H1241 H 0.01481 0.51159 0.105 0.0
H1242 H 0.8952 0.45512 0.10257 0.0
H1243 H 0.92238 0.46795 0.13303 0.0
H1244 H 0.11138 0.56822 0.9501 0.0
H1245 H 0.01656 0.51428 0.92584 0.0
H1246 H 0.1358 0.57087 0.91951 0.0
H1247 H 0.10222 0.54676 0.89197 0.0
Gd1248 Gd 0.49161 0.51035 0.99276 0.0
Gd1249 Gd 0.52216 0.49251 0.03594 0.0
C1250 C 0.61761 0.49243 0.03767 0.0
C1251 C 0.59968 0.43723 0.04157 0.0
C1252 C 0.56058 0.45497 0.04024 0.0
C1253 C 0.58517 0.48538 0.03787 0.0
C1254 C 0.56753 0.43056 0.04246 0.0
C1255 C 0.62469 0.46812 0.03917 0.0
C1256 C 0.64194 0.52375 0.03635 0.0
C1257 C 0.63362 0.5471 0.03582 0.0
N1258 N 0.57743 0.50824 0.03647 0.0
C1259 C 0.60109 0.53888 0.03612 0.0
H1260 H 0.59497 0.55701 0.03533 0.0
C1261 C 0.50501 0.42023 0.04535 0.0
N1262 N 0.52985 0.44946 0.04111 0.0
C1263 C 0.51065 0.39521 0.04753 0.0
C1264 C 0.54201 0.40032 0.04588 0.0
H1265 H 0.48065 0.41593 0.04653 0.0
H1266 H 0.64943 0.47303 0.03886 0.0
H1267 H 0.41895 0.44564 0.99313 0.0
H1268 H 0.66714 0.53015 0.03605 0.0
H1269 H 0.65222 0.57144 0.035 0.0
H1270 H 0.6055 0.41875 0.04308 0.0
H1271 H 0.53277 0.58654 0.98152 0.0
H1272 H 0.34661 0.47237 0.9934 0.0
H1273 H 0.36164 0.43114 0.99396 0.0
H1274 H 0.40796 0.58373 0.986 0.0
H1275 H 0.49081 0.37199 0.05046 0.0
H1276 H 0.54632 0.3809 0.04763 0.0
H1277 H 0.36418 0.52948 0.9906 0.0
H1278 H 0.52247 0.63043 0.97748 0.0
N1279 N 0.43634 0.49444 0.99247 0.0
C1280 C 0.37183 0.47882 0.99297 0.0
C1281 C 0.3802 0.45549 0.99322 0.0
C1282 C 0.39609 0.51016 0.99162 0.0
C1283 C 0.42853 0.51727 0.99124 0.0
C1284 C 0.41274 0.46378 0.99269 0.0
N1285 N 0.48376 0.55322 0.98752 0.0
C1286 C 0.45305 0.54767 0.98864 0.0
C1287 C 0.50273 0.60729 0.98068 0.0
C1288 C 0.47141 0.60219 0.98264 0.0
C1289 C 0.50846 0.58233 0.98293 0.0
C1290 C 0.446 0.57201 0.98639 0.0
H1291 H 0.46702 0.62155 0.98084 0.0
O1292 O 0.51582 0.52405 0.96582 0.0
O1293 O 0.53175 0.50726 1.00621 0.0
O1294 O 0.53789 0.54426 0.0331 0.0
O1295 O 0.49924 0.54639 0.01427 0.0
O1296 O 0.54484 0.5442 0.98821 0.0
O1297 O 0.46996 0.4813 0.96821 0.0
O1298 O 0.49819 0.47852 0.06293 0.0
O1299 O 0.48171 0.49548 0.02257 0.0
O1300 O 0.47626 0.45868 0.99555 0.0
O1301 O 0.5154 0.45714 0.01423 0.0
O1302 O 0.46919 0.45815 0.0402 0.0
O1303 O 0.54346 0.5219 0.06036 0.0
C1304 C 0.55577 0.53049 0.99882 0.0
C1305 C 0.41386 0.56531 0.98753 0.0
C1306 C 0.38893 0.53443 0.99015 0.0
C1307 C 0.49296 0.5004 0.95696 0.0
C1308 C 0.48332 0.50782 0.93896 0.0
C1309 C 0.46663 0.52442 0.93851 0.0
C1310 C 0.4921 0.49946 0.92202 0.0
C1311 C 0.48411 0.50754 0.90468 0.0
C1312 C 0.45909 0.5329 0.92143 0.0
C1313 C 0.46789 0.52474 0.90465 0.0
C1314 C 0.52246 0.55861 0.02688 0.0
C1315 C 0.45789 0.4717 0.02975 0.0
C1316 C 0.52088 0.50244 0.07169 0.0
C1317 C 0.5313 0.49539 0.08952 0.0
C1318 C 0.54888 0.47965 0.08971 0.0
C1319 C 0.52264 0.50349 0.10655 0.0
C1320 C 0.53164 0.49603 0.12374 0.0
C1321 C 0.55747 0.4718 0.10667 0.0
C1322 C 0.54882 0.47976 0.12357 0.0
C1323 C 0.49221 0.44477 1.00162 0.0
H1324 H 0.45975 0.5311 0.95134 0.0
H1325 H 0.50489 0.4865 0.92235 0.0
H1326 H 0.44651 0.54603 0.9212 0.0
H1327 H 0.46218 0.5321 0.89162 0.0
H1328 H 0.55573 0.47321 0.07679 0.0
H1329 H 0.50918 0.51581 0.10642 0.0
H1330 H 0.57077 0.45937 0.10671 0.0
H1331 H 0.55539 0.47299 0.13652 0.0
Gd1332 Gd 0.19122 0.35786 0.36867 0.0
Gd1333 Gd 0.16114 0.31003 0.32573 0.0
C1334 C 0.06488 0.21834 0.32499 0.0
C1335 C 0.08203 0.17997 0.32088 0.0
C1336 C 0.12162 0.23541 0.32158 0.0
C1337 C 0.09741 0.24241 0.3243 0.0
C1338 C 0.11424 0.20416 0.31944 0.0
C1339 C 0.05739 0.18705 0.32366 0.0
C1340 C 0.04088 0.2265 0.32656 0.0
C1341 C 0.04956 0.258 0.32673 0.0
N1342 N 0.10559 0.27287 0.32555 0.0
C1343 C 0.08216 0.28099 0.32594 0.0
H1344 H 0.0884 0.30516 0.32629 0.0
C1345 C 0.17679 0.25385 0.3155 0.0
N1346 N 0.15238 0.25936 0.32025 0.0
C1347 C 0.17073 0.22325 0.31332 0.0
C1348 C 0.13936 0.19825 0.31553 0.0
H1349 H 0.20115 0.27302 0.31392 0.0
H1350 H 0.03258 0.16823 0.32436 0.0
H1351 H 0.26485 0.36551 0.36628 0.0
H1352 H 0.01562 0.20874 0.32722 0.0
H1353 H 0.03117 0.26461 0.3276 0.0
H1354 H 0.07588 0.15578 0.31947 0.0
H1355 H 0.14911 0.39209 0.38204 0.0
H1356 H 0.33555 0.4625 0.36822 0.0
H1357 H 0.32167 0.40722 0.36566 0.0
H1358 H 0.27244 0.51159 0.37974 0.0
H1359 H 0.19026 0.21898 0.30998 0.0
H1360 H 0.13471 0.17457 0.3138 0.0
H1361 H 0.31689 0.50135 0.3733 0.0
H1362 H 0.15835 0.44493 0.38837 0.0
N1363 N 0.24633 0.39643 0.36884 0.0
C1364 C 0.3105 0.44417 0.36859 0.0
C1365 C 0.30277 0.41303 0.36721 0.0
C1366 C 0.2858 0.45121 0.37099 0.0
C1367 C 0.25358 0.42645 0.37123 0.0
C1368 C 0.27043 0.38934 0.36767 0.0
N1369 N 0.1983 0.40755 0.37559 0.0
C1370 C 0.22873 0.4322 0.37479 0.0
C1371 C 0.17837 0.44171 0.3845 0.0
C1372 C 0.20943 0.46744 0.38302 0.0
C1373 C 0.17325 0.41174 0.3809 0.0
C1374 C 0.23516 0.46287 0.37829 0.0
H1375 H 0.21334 0.49063 0.3858 0.0
O1376 O 0.16731 0.34685 0.39586 0.0
O1377 O 0.15136 0.31518 0.35554 0.0
O1378 O 0.14433 0.34553 0.3283 0.0
O1379 O 0.18031 0.3857 0.34777 0.0
O1380 O 0.13825 0.34027 0.37284 0.0
O1381 O 0.21223 0.34706 0.39255 0.0
O1382 O 0.18544 0.3195 0.29876 0.0
O1383 O 0.2011 0.3529 0.33871 0.0
O1384 O 0.20869 0.32285 0.36579 0.0
O1385 O 0.17132 0.28235 0.34711 0.0
O1386 O 0.21396 0.32703 0.32178 0.0
O1387 O 0.14089 0.32023 0.30119 0.0
C1388 C 0.12737 0.31556 0.36274 0.0
C1389 C 0.26704 0.48782 0.37731 0.0
C1390 C 0.29233 0.48199 0.37363 0.0
C1391 C 0.18946 0.34328 0.40413 0.0
C1392 C 0.19944 0.35726 0.42288 0.0
C1393 C 0.22141 0.38924 0.42475 0.0
C1394 C 0.18642 0.33857 0.43909 0.0
C1395 C 0.19526 0.35186 0.45711 0.0
C1396 C 0.23032 0.40249 0.44249 0.0
C1397 C 0.21735 0.38406 0.45852 0.0
C1398 C 0.15802 0.37465 0.33451 0.0
C1399 C 0.22496 0.35209 0.33158 0.0
C1400 C 0.16375 0.32315 0.28997 0.0
C1401 C 0.15407 0.30831 0.27142 0.0
C1402 C 0.13669 0.2757 0.26993 0.0
C1403 C 0.16303 0.32687 0.25501 0.0
C1404 C 0.15472 0.31285 0.23714 0.0
C1405 C 0.12839 0.26169 0.25237 0.0
C1406 C 0.1373 0.28 0.23614 0.0
C1407 C 0.19411 0.29343 0.36005 0.0
H1408 H 0.23158 0.40395 0.4125 0.0
H1409 H 0.16905 0.31392 0.43766 0.0
H1410 H 0.24732 0.42722 0.44383 0.0
H1411 H 0.22481 0.395 0.47209 0.0
H1412 H 0.12969 0.2611 0.28233 0.0
H1413 H 0.17607 0.3521 0.25621 0.0
H1414 H 0.11506 0.23647 0.25132 0.0
H1415 H 0.13074 0.26839 0.22272 0.0
Gd1416 Gd 0.64997 0.82881 0.36849 0.0
Gd1417 Gd 0.69791 0.84492 0.32526 0.0
C1418 C 0.79252 0.84295 0.32509 0.0
C1419 C 0.83203 0.8973 0.3188 0.0
C1420 C 0.77489 0.88059 0.3202 0.0
C1421 C 0.76772 0.85048 0.3242 0.0
C1422 C 0.80704 0.90423 0.31695 0.0
C1423 C 0.82477 0.86668 0.32289 0.0
C1424 C 0.78407 0.81168 0.32762 0.0
C1425 C 0.75156 0.78876 0.32845 0.0
N1426 N 0.73629 0.82819 0.32616 0.0
C1427 C 0.72788 0.79744 0.32744 0.0
H1428 H 0.70295 0.77955 0.32848 0.0
C1429 C 0.75555 0.91452 0.31166 0.0
N1430 N 0.75012 0.8863 0.31832 0.0
C1431 C 0.78703 0.93883 0.3084 0.0
C1432 C 0.81295 0.93382 0.31133 0.0
H1433 H 0.73562 0.91858 0.30945 0.0
H1434 H 0.84418 0.86143 0.32378 0.0
H1435 H 0.64792 0.89591 0.36696 0.0
H1436 H 0.80238 0.80492 0.32847 0.0
H1437 H 0.74468 0.76441 0.33006 0.0
H1438 H 0.85693 0.91522 0.31659 0.0
H1439 H 0.60992 0.75378 0.38173 0.0
H1440 H 0.54923 0.87335 0.36636 0.0
H1441 H 0.60737 0.91269 0.36558 0.0
H1442 H 0.4913 0.76233 0.37562 0.0
H1443 H 0.79127 0.96141 0.30364 0.0
H1444 H 0.83731 0.95263 0.30871 0.0
H1445 H 0.50602 0.81705 0.36985 0.0
H1446 H 0.55344 0.71178 0.38656 0.0
N1447 N 0.61322 0.84739 0.36812 0.0
C1448 C 0.56695 0.86582 0.36705 0.0
C1449 C 0.59974 0.88809 0.36665 0.0
C1450 C 0.55746 0.83417 0.36893 0.0
C1451 C 0.58151 0.82563 0.36964 0.0
C1452 C 0.62269 0.87844 0.36746 0.0
N1453 N 0.59717 0.78793 0.37429 0.0
C1454 C 0.5732 0.79489 0.3728 0.0
C1455 C 0.55865 0.73502 0.3826 0.0
C1456 C 0.53354 0.74139 0.38008 0.0
C1457 C 0.59056 0.75883 0.37992 0.0
C1458 C 0.54067 0.77175 0.37543 0.0
H1459 H 0.50884 0.72293 0.3822 0.0
O1460 O 0.65746 0.81389 0.39565 0.0
O1461 O 0.69421 0.83282 0.35551 0.0
O1462 O 0.66039 0.79309 0.32858 0.0
O1463 O 0.62024 0.79043 0.34824 0.0
O1464 O 0.66862 0.79538 0.37329 0.0
O1465 O 0.65878 0.85823 0.39282 0.0
O1466 O 0.68891 0.85756 0.29768 0.0
O1467 O 0.65399 0.84153 0.33838 0.0
O1468 O 0.68878 0.88018 0.36653 0.0
O1469 O 0.72738 0.88526 0.34441 0.0
O1470 O 0.67932 0.87836 0.32029 0.0
O1471 O 0.68792 0.81368 0.30176 0.0
C1472 C 0.6944 0.80982 0.36324 0.0
C1473 C 0.51648 0.77984 0.37387 0.0
C1474 C 0.52486 0.811 0.3706 0.0
C1475 C 0.66022 0.83831 0.40424 0.0
C1476 C 0.64278 0.83222 0.42205 0.0
C1477 C 0.60904 0.81741 0.4226 0.0
C1478 C 0.66027 0.84033 0.43881 0.0
C1479 C 0.64421 0.8331 0.45619 0.0
C1480 C 0.59293 0.8105 0.43976 0.0
C1481 C 0.61031 0.81817 0.45646 0.0
C1482 C 0.63049 0.77832 0.33532 0.0
C1483 C 0.65403 0.86471 0.33074 0.0
C1484 C 0.68648 0.83283 0.28972 0.0
C1485 C 0.70468 0.83822 0.27221 0.0
C1486 C 0.73764 0.84783 0.27246 0.0
C1487 C 0.68894 0.83405 0.25501 0.0
C1488 C 0.706 0.83954 0.23806 0.0
C1489 C 0.7547 0.85325 0.25572 0.0
C1490 C 0.73904 0.84907 0.23861 0.0
C1491 C 0.71768 0.89579 0.35854 0.0
H1492 H 0.59521 0.81108 0.40983 0.0
H1493 H 0.68639 0.85244 0.43825 0.0
H1494 H 0.56686 0.79896 0.44013 0.0
H1495 H 0.59722 0.81217 0.46959 0.0
H1496 H 0.75013 0.851 0.28554 0.0
H1497 H 0.66346 0.8267 0.25482 0.0
H1498 H 0.7801 0.86049 0.256 0.0
H1499 H 0.75263 0.85271 0.22581 0.0
Gd1500 Gd 0.15349 0.83672 0.3241 0.0
Gd1501 Gd 0.18467 0.82328 0.36836 0.0
C1502 C 0.28563 0.83555 0.37232 0.0
C1503 C 0.27384 0.78231 0.378 0.0
C1504 C 0.2302 0.79377 0.37489 0.0
C1505 C 0.25226 0.82498 0.37198 0.0
C1506 C 0.24071 0.77216 0.37837 0.0
C1507 C 0.29627 0.81395 0.37493 0.0
C1508 C 0.30728 0.86758 0.37044 0.0
C1509 C 0.29548 0.88826 0.36895 0.0
N1510 N 0.24112 0.8452 0.36957 0.0
C1511 C 0.26217 0.87666 0.36881 0.0
H1512 H 0.25357 0.89301 0.3675 0.0
C1513 C 0.17584 0.75489 0.37998 0.0
N1514 N 0.19841 0.78477 0.37513 0.0
C1515 C 0.18505 0.73256 0.38348 0.0
C1516 C 0.21761 0.74115 0.3825 0.0
H1517 H 0.15063 0.74812 0.38063 0.0
H1518 H 0.32179 0.82158 0.37504 0.0
H1519 H 0.08334 0.76852 0.32687 0.0
H1520 H 0.33309 0.87663 0.37051 0.0
H1521 H 0.31202 0.91314 0.36779 0.0
H1522 H 0.28239 0.766 0.38043 0.0
H1523 H 0.18696 0.90881 0.30639 0.0
H1524 H 1.00592 0.78823 0.3277 0.0
H1525 H 0.02528 0.75024 0.32907 0.0
H1526 H 0.05887 0.8982 0.31474 0.0
H1527 H 0.16705 0.70875 0.38691 0.0
H1528 H 0.22469 0.72382 0.38523 0.0
H1529 H 0.01878 0.84376 0.32267 0.0
H1530 H 0.17205 0.94931 0.30016 0.0
N1531 N 0.09719 0.81664 0.32477 0.0
C1532 C 0.03151 0.79642 0.32669 0.0
C1533 C 0.04234 0.77491 0.32741 0.0
C1534 C 0.05378 0.82811 0.32393 0.0
C1535 C 0.08683 0.83751 0.32282 0.0
C1536 C 0.0754 0.78543 0.32612 0.0
N1537 N 0.14038 0.8754 0.31635 0.0
C1538 C 0.10923 0.86799 0.31847 0.0
C1539 C 0.15417 0.92661 0.30546 0.0
C1540 C 0.12259 0.91999 0.30878 0.0
C1541 C 0.16255 0.90369 0.309 0.0
C1542 C 0.09946 0.89014 0.31498 0.0
H1543 H 0.11609 0.93771 0.30593 0.0
O1544 O 0.17675 0.84963 0.2968 0.0
O1545 O 0.19441 0.83608 0.33836 0.0
O1546 O 0.19675 0.87373 0.36569 0.0
O1547 O 0.16435 0.87765 0.34241 0.0
O1548 O 0.20634 0.87165 0.31941 0.0
O1549 O 0.1336 0.80491 0.30058 0.0
O1550 O 0.16108 0.80637 0.39528 0.0
O1551 O 0.14375 0.82482 0.35447 0.0
O1552 O 0.1405 0.78602 0.32829 0.0
O1553 O 0.17982 0.78687 0.34782 0.0
O1554 O 0.13206 0.78731 0.37188 0.0
O1555 O 0.20097 0.85376 0.39257 0.0
C1556 C 0.21799 0.85943 0.3307 0.0
C1557 C 0.06683 0.88143 0.31711 0.0
C1558 C 0.04401 0.85043 0.32161 0.0
C1559 C 0.15495 0.82433 0.2887 0.0
C1560 C 0.14277 0.82877 0.27072 0.0
C1561 C 0.11874 0.83713 0.27029 0.0
C1562 C 0.15575 0.82531 0.25379 0.0
C1563 C 0.14498 0.83044 0.23649 0.0
C1564 C 0.1078 0.842 0.25322 0.0
C1565 C 0.12073 0.83866 0.23644 0.0
C1566 C 0.18419 0.88873 0.35681 0.0
C1567 C 0.12028 0.80092 0.36184 0.0
C1568 C 0.18018 0.83236 0.40388 0.0
C1569 C 0.19226 0.82935 0.42221 0.0
C1570 C 0.21546 0.82004 0.42363 0.0
C1571 C 0.18006 0.83557 0.43855 0.0
C1572 C 0.19112 0.83273 0.45631 0.0
C1573 C 0.2263 0.81688 0.44117 0.0
C1574 C 0.21425 0.82313 0.45741 0.0
C1575 C 0.15739 0.77346 0.33485 0.0
H1576 H 0.1084 0.83981 0.28312 0.0
H1577 H 0.17441 0.81896 0.25409 0.0
H1578 H 0.08913 0.84828 0.253 0.0
H1579 H 0.11139 0.84203 0.22339 0.0
H1580 H 0.22511 0.81519 0.41122 0.0
H1581 H 0.16177 0.84232 0.43741 0.0
H1582 H 0.24423 0.80967 0.44219 0.0
H1583 H 0.22338 0.82091 0.47084 0.0
Gd1584 Gd 0.8557 0.69016 0.70249 0.0
Gd1585 Gd 0.82516 0.64055 0.66023 0.0
C1586 C 0.73006 0.54778 0.65987 0.0
C1587 C 0.74826 0.51016 0.65594 0.0
C1588 C 0.78704 0.56583 0.65654 0.0
C1589 C 0.7624 0.57225 0.6592 0.0
C1590 C 0.78028 0.53475 0.65455 0.0
C1591 C 0.72318 0.51667 0.65861 0.0
C1592 C 0.70562 0.55538 0.66135 0.0
C1593 C 0.71371 0.58673 0.66146 0.0
N1594 N 0.76997 0.60255 0.6603 0.0
C1595 C 0.74616 0.6101 0.66064 0.0
H1596 H 0.75213 0.63414 0.66103 0.0
C1597 C 0.84252 0.58513 0.65097 0.0
N1598 N 0.81763 0.59016 0.65529 0.0
C1599 C 0.83707 0.55471 0.64895 0.0
C1600 C 0.80585 0.52937 0.65093 0.0
H1601 H 0.86678 0.6045 0.64952 0.0
H1602 H 0.69852 0.49754 0.65928 0.0
H1603 H 0.92737 0.69273 0.70333 0.0
H1604 H 0.68048 0.5373 0.662 0.0
H1605 H 0.69502 0.59293 0.66231 0.0
H1606 H 0.74259 0.4861 0.65463 0.0
H1607 H 0.81723 0.7294 0.71208 0.0
H1608 H 1.00224 0.78833 0.70169 0.0
H1609 H 0.98503 0.73204 0.70226 0.0
H1610 H 0.94462 0.84433 0.70686 0.0
H1611 H 0.85696 0.55083 0.64591 0.0
H1612 H 0.80169 0.50583 0.64935 0.0
H1613 H 0.9869 0.83013 0.70326 0.0
H1614 H 0.82966 0.78412 0.71492 0.0
N1615 N 0.91157 0.7261 0.70293 0.0
C1616 C 0.97678 0.77111 0.7022 0.0
C1617 C 0.96717 0.73938 0.70258 0.0
C1618 C 0.95343 0.78022 0.70304 0.0
C1619 C 0.92062 0.75684 0.70356 0.0
C1620 C 0.93432 0.71709 0.70322 0.0
N1621 N 0.86589 0.74153 0.70679 0.0
C1622 C 0.89698 0.76482 0.70558 0.0
C1623 C 0.84883 0.77903 0.71223 0.0
C1624 C 0.88062 0.80335 0.71024 0.0
C1625 C 0.8419 0.74806 0.71069 0.0
C1626 C 0.90525 0.79641 0.70712 0.0
H1627 H 0.88595 0.82733 0.71148 0.0
O1628 O 0.83225 0.68437 0.72947 0.0
O1629 O 0.81542 0.64749 0.68974 0.0
O1630 O 0.8091 0.67693 0.66196 0.0
O1631 O 0.84769 0.71776 0.67999 0.0
O1632 O 0.80284 0.67392 0.70617 0.0
O1633 O 0.87378 0.67817 0.72721 0.0
O1634 O 0.8493 0.64999 0.63323 0.0
O1635 O 0.86509 0.68313 0.67309 0.0
O1636 O 0.8712 0.65345 0.701 0.0
O1637 O 0.83355 0.61276 0.68248 0.0
O1638 O 0.87824 0.65762 0.65631 0.0
O1639 O 0.80398 0.64935 0.63561 0.0
C1640 C 0.79165 0.64868 0.69652 0.0
C1641 C 0.93778 0.8199 0.70588 0.0
C1642 C 0.96185 0.81182 0.70382 0.0
C1643 C 0.85228 0.67835 0.73836 0.0
C1644 C 0.8636 0.69344 0.75668 0.0
C1645 C 0.88644 0.7253 0.75783 0.0
C1646 C 0.85096 0.6758 0.77323 0.0
C1647 C 0.86104 0.68995 0.79092 0.0
C1648 C 0.89652 0.73946 0.77528 0.0
C1649 C 0.88391 0.72201 0.7917 0.0
C1650 C 0.82457 0.70665 0.66724 0.0
C1651 C 0.88909 0.6825 0.66627 0.0
C1652 C 0.8271 0.6528 0.62441 0.0
C1653 C 0.81776 0.63786 0.60587 0.0
C1654 C 0.8007 0.60524 0.60441 0.0
C1655 C 0.82668 0.65637 0.58944 0.0
C1656 C 0.8186 0.64231 0.57158 0.0
C1657 C 0.79262 0.59118 0.58685 0.0
C1658 C 0.80146 0.60946 0.5706 0.0
C1659 C 0.85597 0.62379 0.69565 0.0
H1660 H 0.89634 0.7392 0.74526 0.0
H1661 H 0.83292 0.65126 0.77231 0.0
H1662 H 0.91417 0.76409 0.7761 0.0
H1663 H 0.89227 0.73356 0.80504 0.0
H1664 H 0.79375 0.59068 0.61683 0.0
H1665 H 0.83949 0.68161 0.59061 0.0
H1666 H 0.77951 0.56596 0.58582 0.0
H1667 H 0.79506 0.59781 0.55719 0.0
Gd1668 Gd 0.31769 0.15796 0.70258 0.0
Gd1669 Gd 0.3664 0.17334 0.65957 0.0
C1670 C 0.45734 0.1649 0.65988 0.0
C1671 C 0.49944 0.21853 0.65415 0.0
C1672 C 0.44316 0.20508 0.65513 0.0
C1673 C 0.43399 0.17434 0.65888 0.0
C1674 C 0.47589 0.2274 0.65217 0.0
C1675 C 0.49017 0.18731 0.65803 0.0
C1676 C 0.44692 0.13311 0.66215 0.0
C1677 C 0.41394 0.11157 0.6626 0.0
N1678 N 0.40207 0.15336 0.66054 0.0
C1679 C 0.39172 0.12211 0.66152 0.0
H1680 H 0.36636 0.10512 0.66209 0.0
C1681 C 0.42713 0.24153 0.6465 0.0
N1682 N 0.41976 0.2127 0.65314 0.0
C1683 C 0.45927 0.26459 0.64353 0.0
C1684 C 0.48383 0.25764 0.64667 0.0
H1685 H 0.40819 0.24701 0.64413 0.0
H1686 H 0.50848 0.18058 0.65902 0.0
H1687 H 0.32174 0.22816 0.70178 0.0
H1688 H 0.46408 0.12491 0.66306 0.0
H1689 H 0.40558 0.08685 0.66395 0.0
H1690 H 0.52476 0.23542 0.65218 0.0
H1691 H 0.27171 0.08407 0.71685 0.0
H1692 H 0.22589 0.21297 0.69722 0.0
H1693 H 0.28476 0.24904 0.69908 0.0
H1694 H 0.15992 0.10195 0.70401 0.0
H1695 H 0.46506 0.28767 0.63882 0.0
H1696 H 0.5087 0.27549 0.64427 0.0
H1697 H 0.17941 0.15786 0.69861 0.0
H1698 H 0.21364 0.04468 0.71953 0.0
N1699 N 0.28437 0.18049 0.70114 0.0
C1700 C 0.24203 0.20361 0.69849 0.0
C1701 C 0.27522 0.22404 0.69961 0.0
C1702 C 0.23 0.17138 0.6997 0.0
C1703 C 0.25208 0.16043 0.70123 0.0
C1704 C 0.29615 0.21204 0.70116 0.0
N1705 N 0.26316 0.11984 0.70687 0.0
C1706 C 0.2411 0.12902 0.70407 0.0
C1707 C 0.22101 0.06823 0.71498 0.0
C1708 C 0.19788 0.0767 0.71076 0.0
C1709 C 0.25377 0.09046 0.7134 0.0
C1710 C 0.20779 0.10763 0.70571 0.0
H1711 H 0.17251 0.05954 0.71216 0.0
O1712 O 0.32049 0.14032 0.72992 0.0
O1713 O 0.36158 0.16083 0.68983 0.0
O1714 O 0.32719 0.12214 0.66183 0.0
O1715 O 0.28795 0.11903 0.68267 0.0
O1716 O 0.33549 0.12384 0.70779 0.0
O1717 O 0.32677 0.18675 0.72724 0.0
O1718 O 0.35834 0.18761 0.63232 0.0
O1719 O 0.32281 0.17093 0.67249 0.0
O1720 O 0.35895 0.20845 0.70162 0.0
O1721 O 0.39637 0.21367 0.67861 0.0
O1722 O 0.34968 0.20821 0.65489 0.0
O1723 O 0.35618 0.14304 0.63552 0.0
C1724 C 0.36129 0.1377 0.6977 0.0
C1725 C 0.18563 0.1181 0.70308 0.0
C1726 C 0.19673 0.14993 0.70004 0.0
C1727 C 0.32436 0.16504 0.73867 0.0
C1728 C 0.30444 0.1593 0.75547 0.0
C1729 C 0.27079 0.14502 0.75427 0.0
C1730 C 0.31931 0.16748 0.77304 0.0
C1731 C 0.3007 0.1611 0.78944 0.0
C1732 C 0.25213 0.13824 0.77046 0.0
C1733 C 0.26689 0.14594 0.78797 0.0
C1734 C 0.29788 0.10746 0.66928 0.0
C1735 C 0.32394 0.19472 0.66503 0.0
C1736 C 0.35499 0.16284 0.62393 0.0
C1737 C 0.37228 0.16824 0.60612 0.0
C1738 C 0.40599 0.18267 0.60551 0.0
C1739 C 0.35469 0.15969 0.5894 0.0
C1740 C 0.3706 0.16616 0.572 0.0
C1741 C 0.42198 0.18885 0.58833 0.0
C1742 C 0.40448 0.18078 0.57167 0.0
C1743 C 0.38743 0.22406 0.69316 0.0
H1744 H 0.25889 0.13889 0.74091 0.0
H1745 H 0.34539 0.17897 0.77391 0.0
H1746 H 0.22613 0.1268 0.76945 0.0
H1747 H 0.25183 0.13979 0.80034 0.0
H1748 H 0.41992 0.18923 0.61824 0.0
H1749 H 0.32858 0.1478 0.59002 0.0
H1750 H 0.44803 0.20012 0.58792 0.0
H1751 H 0.41747 0.18622 0.55851 0.0
Gd1752 Gd 0.8302 0.17771 0.66134 0.0
Gd1753 Gd 0.85939 0.1599 0.70493 0.0
C1754 C 0.95903 0.16841 0.70523 0.0
C1755 C 0.94563 0.11442 0.70965 0.0
C1756 C 0.90327 0.12794 0.70884 0.0
C1757 C 0.92592 0.15892 0.70594 0.0
C1758 C 0.91288 0.10545 0.71138 0.0
C1759 C 0.96869 0.14587 0.70653 0.0
C1760 C 0.98144 0.20034 0.70381 0.0
C1761 C 0.97065 0.2219 0.70392 0.0
N1762 N 0.91569 0.18002 0.70495 0.0
C1763 C 0.93755 0.2113 0.70479 0.0
H1764 H 0.92968 0.22829 0.70469 0.0
C1765 C 0.84949 0.09125 0.71697 0.0
N1766 N 0.87197 0.12025 0.71067 0.0
C1767 C 0.85771 0.06798 0.71949 0.0
C1768 C 0.88945 0.07495 0.71633 0.0
H1769 H 0.82505 0.08595 0.71963 0.0
H1770 H 0.99397 0.15266 0.70576 0.0
H1771 H 0.76053 0.109 0.65977 0.0
H1772 H 0.00708 0.2086 0.70311 0.0
H1773 H 0.9878 0.24669 0.70321 0.0
H1774 H 0.95348 0.09742 0.71129 0.0
H1775 H 0.86613 0.25395 0.65143 0.0
H1776 H 0.68248 0.12779 0.65897 0.0
H1777 H 0.70224 0.09009 0.65948 0.0
H1778 H 0.73571 0.23935 0.65323 0.0
H1779 H 0.83961 0.04476 0.72393 0.0
H1780 H 0.89583 0.05697 0.71842 0.0
H1781 H 0.69522 0.18364 0.65683 0.0
H1782 H 0.85115 0.29482 0.64713 0.0
N1783 N 0.77401 0.15714 0.65996 0.0
C1784 C 0.70818 0.13628 0.65908 0.0
C1785 C 0.71924 0.11494 0.65931 0.0
C1786 C 0.73045 0.16832 0.65839 0.0
C1787 C 0.76363 0.17812 0.6587 0.0
C1788 C 0.75242 0.12582 0.65946 0.0
N1789 N 0.81792 0.21766 0.65625 0.0
C1790 C 0.78631 0.20938 0.65671 0.0
C1791 C 0.83268 0.2709 0.64987 0.0
C1792 C 0.80033 0.26298 0.6511 0.0
C1793 C 0.84107 0.24773 0.65224 0.0
C1794 C 0.77662 0.23184 0.65431 0.0
H1795 H 0.79387 0.28096 0.64923 0.0
O1796 O 0.85383 0.19636 0.6346 0.0
O1797 O 0.87014 0.17451 0.67509 0.0
O1798 O 0.87288 0.21115 0.70284 0.0
O1799 O 0.83493 0.21259 0.68315 0.0
O1800 O 0.88334 0.21284 0.65824 0.0
O1801 O 0.81375 0.14896 0.63639 0.0
O1802 O 0.83373 0.1445 0.73141 0.0
O1803 O 0.81903 0.16226 0.69096 0.0
O1804 O 0.81743 0.12672 0.66238 0.0
O1805 O 0.85008 0.12136 0.68488 0.0
O1806 O 0.80647 0.12428 0.7081 0.0
O1807 O 0.87915 0.18766 0.73013 0.0
C1808 C 0.89423 0.19837 0.66822 0.0
C1809 C 0.74365 0.22241 0.65482 0.0
C1810 C 0.7206 0.19069 0.65689 0.0
C1811 C 0.83457 0.17105 0.62543 0.0
C1812 C 0.82237 0.17545 0.60744 0.0
C1813 C 0.79941 0.18516 0.60694 0.0
C1814 C 0.83404 0.17013 0.59055 0.0
C1815 C 0.82303 0.17475 0.57319 0.0
C1816 C 0.7882 0.18952 0.58983 0.0
C1817 C 0.79981 0.18432 0.57307 0.0
C1818 C 0.8566 0.2246 0.69664 0.0
C1819 C 0.79519 0.13784 0.69758 0.0
C1820 C 0.85599 0.16758 0.74088 0.0
C1821 C 0.86543 0.15896 0.75855 0.0
C1822 C 0.88319 0.14339 0.75835 0.0
C1823 C 0.85567 0.16533 0.77578 0.0
C1824 C 0.86356 0.15608 0.79274 0.0
C1825 C 0.89035 0.13349 0.77503 0.0
C1826 C 0.88042 0.13952 0.79209 0.0
C1827 C 0.83018 0.11118 0.67046 0.0
H1828 H 0.79012 0.18928 0.61975 0.0
H1829 H 0.85186 0.1627 0.59092 0.0
H1830 H 0.77031 0.19683 0.58954 0.0
H1831 H 0.79024 0.18731 0.56 0.0
H1832 H 0.89134 0.13868 0.74535 0.0
H1833 H 0.84235 0.17777 0.77599 0.0
H1834 H 0.90365 0.12105 0.77472 0.0
H1835 H 0.88597 0.13123 0.80482 0.0
C1836 C 0.38681 0.90515 0.04409 0.0
C1837 C 0.36101 0.91075 0.04673 0.0
C1838 C 0.41572 0.92779 0.03567 0.0
C1839 C 0.41932 0.95635 0.02922 0.0
H1840 H 0.38517 0.8838 0.04935 0.0
H1841 H 0.43575 0.92343 0.03488 0.0
S1842 S 0.3578 0.9809 0.03154 0.0
N1843 N 0.34015 0.94592 0.04143 0.0
N1844 N 0.39419 0.98823 0.0253 0.0
C1845 C 0.39315 0.96151 0.03112 0.0
C1846 C 0.36398 0.9387 0.03987 0.0
C1847 C 0.10728 0.48943 0.04958 0.0
C1848 C 0.11014 0.46356 0.04416 0.0
C1849 C 0.08179 0.49335 0.04305 0.0
C1850 C 0.05833 0.47157 0.03087 0.0
H1851 H 0.12469 0.50655 0.05908 0.0
H1852 H 0.08004 0.51324 0.04786 0.0
S1853 S 0.05392 0.39903 0.01344 0.0
N1854 N 0.08698 0.41552 0.02628 0.0
N1855 N 0.03857 0.42245 0.01452 0.0
C1856 C 0.06059 0.44535 0.02566 0.0
C1857 C 0.08677 0.44159 0.03207 0.0
C1858 C 0.51785 0.6309 0.03936 0.0
C1859 C 0.54788 0.65042 0.04772 0.0
C1860 C 0.50993 0.60131 0.03267 0.0
C1861 C 0.53174 0.59008 0.03409 0.0
H1862 H 0.50012 0.63836 0.03822 0.0
H1863 H 0.48633 0.58702 0.02654 0.0
S1864 S 0.61463 0.63342 0.05346 0.0
N1865 N 0.60028 0.65742 0.05606 0.0
N1866 N 0.58535 0.60172 0.04372 0.0
C1867 C 0.56205 0.60963 0.04221 0.0
C1868 C 0.57013 0.63981 0.04895 0.0
C1869 C 0.90877 0.37407 0.96989 0.0
C1870 C 0.89645 0.34744 0.98151 0.0
C1871 C 0.93235 0.40344 0.97632 0.0
C1872 C 0.94437 0.40721 0.99458 0.0
H1873 H 0.89968 0.37233 0.95582 0.0
H1874 H 0.94058 0.42347 0.96711 0.0
S1875 S 0.92257 0.34496 0.03002 0.0
N1876 N 0.89972 0.32667 1.01183 0.0
N1877 N 0.94403 0.38211 0.02384 0.0
C1878 C 0.93286 0.38091 1.00624 0.0
C1879 C 0.90888 0.35094 0.99972 0.0
C1880 C 0.62131 0.51057 0.98709 0.0
C1881 C 0.64767 0.53999 0.98227 0.0
C1882 C 0.59178 0.50748 0.99313 0.0
C1883 C 0.58785 0.53378 0.99497 0.0
H1884 H 0.62315 0.48971 0.98553 0.0
H1885 H 0.57173 0.4843 0.99584 0.0
S1886 S 0.65034 0.61613 0.98589 0.0
N1887 N 0.6684 0.59596 0.98089 0.0
N1888 N 0.61333 0.5902 0.99246 0.0
C1889 C 0.61437 0.56331 0.99081 0.0
C1890 C 0.64419 0.56642 0.9845 0.0
C1891 C 0.46053 0.10078 0.99 0.0
C1892 C 0.46393 0.10505 0.97044 0.0
C1893 C 0.4699 0.0815 0.9993 0.0
C1894 C 0.4827 0.06577 0.98929 0.0
H1895 H 0.44974 0.11172 0.99809 0.0
H1896 H 0.46592 0.07791 0.01424 0.0
S1897 S 0.50071 0.07236 0.93848 0.0
N1898 N 0.48433 0.09452 0.94182 0.0
N1899 N 0.50106 0.05776 0.95922 0.0
C1900 C 0.48741 0.0708 0.96992 0.0
C1901 C 0.47822 0.09056 0.9605 0.0
C1902 C 0.63346 0.06366 0.98275 0.0
C1903 C 0.64391 0.09526 0.97886 0.0
C1904 C 0.60242 0.04363 0.98987 0.0
C1905 C 0.58088 0.05457 0.99343 0.0
H1906 H 0.6489 0.05406 0.97953 0.0
H1907 H 0.59453 0.01902 0.99154 0.0
S1908 S 0.5964 0.13511 0.98586 0.0
N1909 N 0.63046 0.13667 0.97967 0.0
N1910 N 0.57187 0.09868 0.99254 0.0
C1911 C 0.5913 0.0862 0.99012 0.0
C1912 C 0.623 0.10672 0.98311 0.0
C1913 C 0.89186 0.50048 0.97976 0.0
C1914 C 0.90271 0.53194 0.97514 0.0
C1915 C 0.91334 0.49104 0.9865 0.0
C1916 C 0.94609 0.51287 0.98946 0.0
H1917 H 0.86702 0.48284 0.9772 0.0
H1918 H 0.90448 0.46641 0.98897 0.0
S1919 S 0.9863 0.59802 0.98027 0.0
N1920 N 0.94822 0.58495 0.97463 0.0
N1921 N 0.98832 0.56714 0.98727 0.0
C1922 C 0.957 0.54441 0.98539 0.0
C1923 C 0.93532 0.55399 0.97838 0.0
C1924 C 0.5009 0.37585 0.98665 0.0
C1925 C 0.47071 0.35545 0.97876 0.0
C1926 C 0.50747 0.40457 0.99414 0.0
C1927 C 0.48413 0.41399 0.99394 0.0
H1928 H 0.51978 0.36982 0.98676 0.0
H1929 H 0.53125 0.41969 0.99984 0.0
S1930 S 0.40018 0.36745 0.97663 0.0
N1931 N 0.41645 0.34543 0.97245 0.0
N1932 N 0.42892 0.3996 0.98631 0.0
C1933 C 0.45361 0.39347 0.98645 0.0
C1934 C 0.44687 0.36416 0.97891 0.0
C1935 C 0.10453 0.64854 0.02433 0.0
C1936 C 0.11702 0.65256 0.04259 0.0
C1937 C 0.08242 0.61869 0.01753 0.0
C1938 C 0.07192 0.59195 0.02882 0.0
H1939 H 0.11149 0.66864 0.01535 0.0
H1940 H 0.07302 0.6166 1.00351 0.0
S1941 S 0.10048 0.58945 0.07671 0.0
N1942 N 0.11953 0.6269 0.07109 0.0
N1943 N 0.07773 0.57115 0.05854 0.0
C1944 C 0.08494 0.59562 0.04688 0.0
C1945 C 0.10753 0.62583 0.05371 0.0
C1946 C 0.39079 0.48762 0.04467 0.0
C1947 C 0.3657 0.45738 0.04935 0.0
C1948 C 0.42023 0.49243 0.03707 0.0
C1949 C 0.42528 0.46707 0.03372 0.0
H1950 H 0.3883 0.50775 0.04784 0.0
H1951 H 0.43961 0.51612 0.03472 0.0
S1952 S 0.36566 0.38329 0.04122 0.0
N1953 N 0.34691 0.40181 0.04842 0.0
N1954 N 0.40168 0.4107 0.03409 0.0
C1955 C 0.39963 0.43677 0.03732 0.0
C1956 C 0.36997 0.43194 0.04509 0.0
C1957 C 0.56248 0.91103 0.0323 0.0
C1958 C 0.55255 0.89951 0.05059 0.0
C1959 C 0.55073 0.92872 0.0233 0.0
C1960 C 0.52853 0.93515 0.03231 0.0
H1961 H 0.58013 0.90711 0.02516 0.0
H1962 H 0.55995 0.93831 1.00955 0.0
S1963 S 0.49131 0.90582 0.07906 0.0
N1964 N 0.51692 0.89289 0.07654 0.0
N1965 N 0.49438 0.92542 0.05971 0.0
C1966 C 0.51713 0.92213 0.05018 0.0
C1967 C 0.52927 0.9045 0.05932 0.0
C1968 C 0.04122 0.27154 0.37974 0.0
C1969 C 0.03623 0.24164 0.38397 0.0
C1970 C 0.07008 0.29442 0.37151 0.0
C1971 C 0.09522 0.28844 0.36725 0.0
H1972 H 0.02307 0.27763 0.38341 0.0
H1973 H 0.0733 0.31751 0.36919 0.0
S1974 S 0.09379 0.2135 0.37529 0.0
N1975 N 0.05809 0.20667 0.38262 0.0
N1976 N 0.11292 0.25008 0.36782 0.0
C1977 C 0.09011 0.25826 0.37082 0.0
C1978 C 0.06042 0.23474 0.37897 0.0
C1979 C 0.74512 0.77453 0.37927 0.0
C1980 C 0.77632 0.80047 0.38108 0.0
C1981 C 0.71923 0.77795 0.37296 0.0
C1982 C 0.72338 0.80743 0.36818 0.0
H1983 H 0.74064 0.75137 0.38287 0.0
H1984 H 0.69561 0.75728 0.37193 0.0
S1985 S 0.79974 0.88314 0.37211 0.0
N1986 N 0.80971 0.85682 0.37831 0.0
N1987 N 0.76091 0.86336 0.36711 0.0
C1988 C 0.75439 0.83365 0.37021 0.0
C1989 C 0.7809 0.83011 0.37641 0.0
C1990 C 0.18899 0.94907 0.39071 0.0
C1991 C 0.2047 0.97696 0.38023 0.0
C1992 C 0.18258 0.92056 0.38296 0.0
C1993 C 0.1914 0.91899 0.36445 0.0
H1994 H 0.18127 0.94923 0.40494 0.0
H1995 H 0.17026 0.89953 0.39141 0.0
S1996 S 0.23575 0.98523 0.33172 0.0
N1997 N 0.23084 0.00131 0.35075 0.0
N1998 N 0.21843 0.94743 0.33624 0.0
C1999 C 0.20751 0.94653 0.35389 0.0
C2000 C 0.21423 0.97563 0.36178 0.0
C2001 C 0.55079 0.70512 0.32413 0.0
C2002 C 0.5601 0.68701 0.31349 0.0
C2003 C 0.57371 0.73428 0.33126 0.0
C2004 C 0.607 0.74681 0.32796 0.0
H2005 H 0.5255 0.69696 0.32673 0.0
H2006 H 0.56506 0.74727 0.33919 0.0
S2007 S 0.64422 0.70749 0.30218 0.0
N2008 N 0.6051 0.68269 0.30112 0.0
N2009 N 0.64802 0.73783 0.31393 0.0
C2010 C 0.61666 0.7287 0.31755 0.0
C2011 C 0.59331 0.69879 0.31047 0.0
C2012 C 0.28663 0.84267 0.32125 0.0
C2013 C 0.31199 0.87214 0.31554 0.0
C2014 C 0.25649 0.83862 0.32688 0.0
C2015 C 0.25084 0.86402 0.32741 0.0
H2016 H 0.2897 0.82239 0.32068 0.0
H2017 H 0.23726 0.81535 0.33028 0.0
S2018 S 0.31021 0.94638 0.31571 0.0
N2019 N 0.32993 0.92736 0.312 0.0
N2020 N 0.27374 0.91983 0.32276 0.0
C2021 C 0.27638 0.89368 0.32239 0.0
C2022 C 0.30683 0.89775 0.31651 0.0
C2023 C 0.10945 0.40089 0.30529 0.0
C2024 C 0.12748 0.43365 0.30622 0.0
C2025 C 0.1192 0.3822 0.31481 0.0
C2026 C 0.14728 0.39537 0.32587 0.0
H2027 H 0.08752 0.38949 0.29712 0.0
H2028 H 0.10451 0.35712 0.31334 0.0
S2029 S 0.20309 0.48016 0.33308 0.0
N2030 N 0.17523 0.47865 0.31887 0.0
N2031 N 0.19262 0.44347 0.33748 0.0
C2032 C 0.16516 0.42813 0.32731 0.0
C2033 C 0.15552 0.44725 0.31732 0.0
C2034 C 0.31131 0.3951 0.31466 0.0
C2035 C 0.31708 0.4254 0.31086 0.0
C2036 C 0.28208 0.37235 0.32261 0.0
C2037 C 0.25732 0.37885 0.32698 0.0
H2038 H 0.32919 0.38868 0.31095 0.0
H2039 H 0.27834 0.34902 0.3247 0.0
S2040 S 0.26077 0.45485 0.31985 0.0
N2041 N 0.29629 0.46117 0.31258 0.0
N2042 N 0.24078 0.41805 0.32691 0.0
C2043 C 0.26314 0.40935 0.32375 0.0
C2044 C 0.29321 0.43271 0.31589 0.0
C2045 C 0.60644 0.90298 0.31462 0.0
C2046 C 0.57523 0.87773 0.31148 0.0
C2047 C 0.63101 0.89835 0.32187 0.0
C2048 C 0.62556 0.8683 0.32632 0.0
H2049 H 0.61221 0.92646 0.31081 0.0
H2050 H 0.65489 0.91849 0.32347 0.0
S2051 S 0.54807 0.79425 0.32038 0.0
N2052 N 0.53997 0.8216 0.31361 0.0
N2053 N 0.58639 0.81273 0.32661 0.0
C2054 C 0.59424 0.84285 0.3236 0.0
C2055 C 0.56901 0.84764 0.31642 0.0
C2056 C 0.11304 0.69403 0.31172 0.0
C2057 C 0.13544 0.68354 0.3126 0.0
C2058 C 0.12033 0.72308 0.31903 0.0
C2059 C 0.15028 0.74272 0.32751 0.0
H2060 H 0.08957 0.67953 0.30548 0.0
H2061 H 0.10219 0.73004 0.31812 0.0
S2062 S 0.21825 0.72701 0.33187 0.0
N2063 N 0.18936 0.69557 0.32165 0.0
N2064 N 0.20315 0.7502 0.3354 0.0
C2065 C 0.17305 0.73261 0.32827 0.0
C2066 C 0.1656 0.70302 0.32081 0.0
C2067 C 0.78106 0.98129 0.36363 0.0
C2068 C 0.78925 0.98365 0.38273 0.0
C2069 C 0.75772 0.95284 0.35585 0.0
C2070 C 0.74138 0.92582 0.36693 0.0
H2071 H 0.79254 0.00167 0.35461 0.0
H2072 H 0.75209 0.95212 0.34114 0.0
S2073 S 0.75516 0.91831 0.41716 0.0
N2074 N 0.78025 0.95544 0.41217 0.0
N2075 N 0.73568 0.90245 0.39759 0.0
C2076 C 0.74925 0.92764 0.38594 0.0
C2077 C 0.77333 0.95642 0.39384 0.0
C2078 C 0.03491 0.76316 0.38093 0.0
C2079 C 0.02961 0.78841 0.38389 0.0
C2080 C 0.06361 0.76751 0.37281 0.0
C2081 C 0.08842 0.79729 0.36727 0.0
H2082 H 0.01701 0.73986 0.38544 0.0
H2083 H 0.06684 0.7474 0.37137 0.0
S2084 S 0.08668 0.87129 0.37189 0.0
N2085 N 0.05133 0.84429 0.38019 0.0
N2086 N 0.10568 0.85261 0.36545 0.0
C2087 C 0.08317 0.82272 0.3697 0.0
C2088 C 0.05365 0.81821 0.37781 0.0
C2089 C 0.18844 0.21856 0.37846 0.0
C2090 C 0.21632 0.22949 0.38952 0.0
C2091 C 0.18213 0.23929 0.36833 0.0
C2092 C 0.20317 0.2718 0.36911 0.0
H2093 H 0.17095 0.19383 0.37795 0.0
H2094 H 0.16014 0.22972 0.36026 0.0
S2095 S 0.28187 0.31188 0.3938 0.0
N2096 N 0.267 0.27454 0.39882 0.0
N2097 N 0.25471 0.31353 0.38042 0.0
C2098 C 0.23179 0.28286 0.3795 0.0
C2099 C 0.23842 0.26173 0.38958 0.0
C2100 C 0.72714 0.56845 0.71378 0.0
C2101 C 0.70196 0.57406 0.71876 0.0
C2102 C 0.7557 0.59203 0.70536 0.0
C2103 C 0.75969 0.62173 0.70144 0.0
H2104 H 0.72546 0.54633 0.71731 0.0
H2105 H 0.77528 0.58747 0.70279 0.0
S2106 S 0.699 0.64637 0.7091 0.0
N2107 N 0.68159 0.61024 0.71729 0.0
N2108 N 0.73484 0.65421 0.70141 0.0
C2109 C 0.73384 0.62676 0.70526 0.0
C2110 C 0.70505 0.603 0.71389 0.0
C2111 C 0.41121 0.10093 0.71302 0.0
C2112 C 0.44275 0.1265 0.71457 0.0
C2113 C 0.38542 0.10491 0.70713 0.0
C2114 C 0.38998 0.1346 0.70248 0.0
H2115 H 0.40641 0.0776 0.71642 0.0
H2116 H 0.36158 0.0845 0.70624 0.0
S2117 S 0.46718 0.20961 0.70621 0.0
N2118 N 0.47672 0.18282 0.71199 0.0
N2119 N 0.42822 0.19035 0.70153 0.0
C2120 C 0.42128 0.16046 0.7044 0.0
C2121 C 0.44764 0.15637 0.71019 0.0
C2122 C 0.89998 0.30278 0.72179 0.0
C2123 C 0.87726 0.31296 0.72147 0.0
C2124 C 0.89308 0.27415 0.71381 0.0
C2125 C 0.86324 0.25463 0.70515 0.0
H2126 H 0.92352 0.31733 0.72792 0.0
H2127 H 0.91152 0.26754 0.71418 0.0
S2128 S 0.79415 0.26894 0.70254 0.0
N2129 N 0.82277 0.30009 0.71314 0.0
N2130 N 0.80991 0.24658 0.69806 0.0
C2131 C 0.84003 0.26422 0.70517 0.0
C2132 C 0.84701 0.29326 0.71335 0.0
C2133 C 0.2374 0.04568 0.63691 0.0
C2134 C 0.22536 0.01809 0.64767 0.0
C2135 C 0.26151 0.0745 0.64386 0.0
C2136 C 0.27438 0.07669 0.66178 0.0
H2137 H 0.22775 0.04508 0.62313 0.0
H2138 H 0.2697 0.0953 0.63532 0.0
S2139 S 0.25392 0.01143 0.69476 0.0
N2140 N 0.22998 0.99479 0.6767 0.0
N2141 N 0.27536 0.04901 0.68959 0.0
C2142 C 0.26328 0.04939 0.67249 0.0
C2143 C 0.23872 0.02006 0.66548 0.0
C2144 C 0.95843 0.17686 0.65518 0.0
C2145 C 0.98478 0.20587 0.64968 0.0
C2146 C 0.92935 0.17443 0.66165 0.0
C2147 C 0.92585 0.20103 0.66331 0.0
H2148 H 0.95994 0.15578 0.65393 0.0
H2149 H 0.90932 0.15151 0.665 0.0
S2150 S 0.98844 0.28257 0.65213 0.0
N2151 N 1.00583 0.26177 0.64716 0.0
N2152 N 0.95177 0.25733 0.6596 0.0
C2153 C 0.95233 0.23015 0.6583 0.0
C2154 C 0.98165 0.23257 0.65152 0.0
C2155 C 0.83149 0.78144 0.64748 0.0
C2156 C 0.80166 0.77079 0.6385 0.0
C2157 C 0.83842 0.7607 0.65718 0.0
C2158 C 0.8158 0.72851 0.6582 0.0
H2159 H 0.84993 0.80585 0.64661 0.0
H2160 H 0.86201 0.76985 0.66346 0.0
S2161 S 0.73247 0.68975 0.63933 0.0
N2162 N 0.74819 0.72665 0.63291 0.0
N2163 N 0.76119 0.68773 0.65089 0.0
C2164 C 0.78543 0.71789 0.64991 0.0
C2165 C 0.77838 0.73898 0.64012 0.0
C2166 C 0.95324 0.76374 0.6504 0.0
C2167 C 0.9787 0.75869 0.64526 0.0
C2168 C 0.92467 0.73957 0.65843 0.0
C2169 C 0.921 0.70984 0.66181 0.0
H2170 H 0.95469 0.78587 0.64724 0.0
H2171 H 0.90486 0.74374 0.66109 0.0
S2172 S 0.98234 0.68635 0.65322 0.0
N2173 N 0.99957 0.72289 0.64576 0.0
N2174 N 0.94632 0.67779 0.66099 0.0
C2175 C 0.94711 0.70531 0.65778 0.0
C2176 C 0.97589 0.72968 0.64953 0.0
C2177 C 0.23985 0.17638 0.64927 0.0
C2178 C 0.24507 0.20617 0.64418 0.0
C2179 C 0.26492 0.17258 0.65691 0.0
C2180 C 0.29587 0.1985 0.65996 0.0
H2181 H 0.21678 0.15582 0.64648 0.0
H2182 H 0.2604 0.14917 0.65976 0.0
S2183 S 0.32084 0.28144 0.6506 0.0
N2184 N 0.28281 0.26194 0.64388 0.0
N2185 N 0.32951 0.2549 0.65824 0.0
C2186 C 0.3008 0.22834 0.65559 0.0
C2187 C 0.27549 0.23217 0.64781 0.0
C2188 C 0.82691 0.05126 0.63655 0.0
C2189 C 0.81025 0.02315 0.64677 0.0
C2190 C 0.83285 0.07971 0.64426 0.0
C2191 C 0.8224 0.08094 0.66242 0.0
H2192 H 0.83585 0.05131 0.62261 0.0
H2193 H 0.84619 0.10096 0.6361 0.0
S2194 S 0.7744 0.01385 0.69403 0.0
N2195 N 0.78119 0.99818 0.67543 0.0
N2196 N 0.79227 0.05176 0.68976 0.0
C2197 C 0.80495 0.05307 0.67256 0.0
C2198 C 0.79891 0.02411 0.66477 0.0
C2199 C 0.45192 0.30933 0.69783 0.0
C2200 C 0.45986 0.31196 0.71698 0.0
C2201 C 0.42841 0.28084 0.69016 0.0
C2202 C 0.41163 0.25404 0.7014 0.0
H2203 H 0.46362 0.32956 0.68871 0.0
H2204 H 0.4229 0.27995 0.67543 0.0
S2205 S 0.42486 0.24719 0.7518 0.0
N2206 N 0.45038 0.28414 0.74661 0.0
N2207 N 0.40542 0.23114 0.73225 0.0
C2208 C 0.41937 0.2561 0.72044 0.0
C2209 C 0.44365 0.2849 0.72822 0.0
C2210 C 0.726 0.15175 0.71126 0.0
C2211 C 0.70106 0.12123 0.71556 0.0
C2212 C 0.75607 0.15726 0.70423 0.0
C2213 C 0.76205 0.13242 0.7011 0.0
H2214 H 0.72292 0.17155 0.71437 0.0
H2215 H 0.77519 0.18113 0.70217 0.0
S2216 S 0.70335 0.04816 0.70771 0.0
N2217 N 0.68351 0.0659 0.71439 0.0
N2218 N 0.73951 0.0762 0.70126 0.0
C2219 C 0.73663 0.10186 0.70431 0.0
C2220 C 0.70628 0.09627 0.71143 0.0
C2221 C 0.90397 0.59554 0.72377 0.0
C2222 C 0.88295 0.56311 0.72525 0.0
C2223 C 0.89521 0.61474 0.7139 0.0
C2224 C 0.86509 0.60237 0.70498 0.0
H2225 H 0.92752 0.60625 0.73026 0.0
H2226 H 0.91232 0.63955 0.71331 0.0
S2227 S 0.80062 0.51905 0.70514 0.0
N2228 N 0.83015 0.51952 0.71732 0.0
N2229 N 0.8139 0.55556 0.69858 0.0
C2230 C 0.84388 0.56992 0.70618 0.0
C2231 C 0.85274 0.55034 0.71635 0.0
C2232 C 0.46655 0.96303 0.16163 0.0
C2233 C 0.48825 0.97096 0.1767 0.0
C2234 C 0.47631 0.97856 0.14423 0.0
C2235 C 0.50818 0.00286 0.14115 0.0
H2236 H 0.44168 0.94473 0.1633 0.0
H2237 H 0.45848 0.97209 0.1333 0.0
S2238 S 0.57497 0.03185 0.17557 0.0
N2239 N 0.54342 0.00466 0.18707 0.0
N2240 N 0.56191 0.03277 0.15436 0.0
C2241 C 0.53035 0.01038 0.1559 0.0
C2242 C 0.52039 0.99473 0.17362 0.0
C2243 C 0.02919 0.50413 0.16099 0.0
C2244 C 0.02006 0.51829 0.17492 0.0
C2245 C 0.01324 0.49561 0.1437 0.0
C2246 C 0.98742 0.50074 0.13973 0.0
H2247 H 0.04914 0.50004 0.16334 0.0
H2248 H 0.02104 0.4847 0.13342 0.0
S2249 S 0.95379 0.5366 0.17162 0.0
N2250 N 0.98284 0.53615 0.18378 0.0
N2251 N 0.95376 0.52125 0.15115 0.0
C2252 C 0.97799 0.51477 0.15359 0.0
C2253 C 0.99409 0.52328 0.17118 0.0
C2254 C 0.48324 0.50607 0.16294 0.0
C2255 C 0.50649 0.52124 0.17697 0.0
C2256 C 0.49155 0.49837 0.14566 0.0
C2257 C 0.52334 0.50519 0.14188 0.0
H2258 H 0.45855 0.50054 0.16522 0.0
H2259 H 0.47289 0.48664 0.13528 0.0
S2260 S 0.59305 0.54429 0.17405 0.0
N2261 N 0.56248 0.54217 0.18602 0.0
N2262 N 0.57816 0.52832 0.15358 0.0
C2263 C 0.54672 0.52024 0.15584 0.0
C2264 C 0.53829 0.5281 0.17335 0.0
C2265 C 0.99272 0.50582 0.86903 0.0
C2266 C 1.00028 0.48895 0.85606 0.0
C2267 C 0.0104 0.51753 0.88564 0.0
C2268 C 0.03647 0.51297 0.88999 0.0
H2269 H 0.97294 0.51003 0.86632 0.0
H2270 H 1.00406 0.53092 0.89493 0.0
S2271 S 0.06574 0.46972 0.86111 0.0
N2272 N 0.03589 0.46842 0.84886 0.0
N2273 N 0.06795 0.48908 0.88032 0.0
C2274 C 0.04384 0.49558 0.87735 0.0
C2275 C 0.02606 0.48391 0.86039 0.0
C2276 C 0.5324 0.496 0.86592 0.0
C2277 C 0.50959 0.48206 0.85151 0.0
C2278 C 0.52397 0.50375 0.88317 0.0
C2279 C 0.4925 0.49818 0.88659 0.0
H2280 H 0.55681 0.5005 0.86396 0.0
H2281 H 0.54232 0.51453 0.89382 0.0
S2282 S 0.42397 0.46258 0.85338 0.0
N2283 N 0.45437 0.46372 0.84175 0.0
N2284 N 0.43843 0.47749 0.87412 0.0
C2285 C 0.46957 0.48436 0.87226 0.0
C2286 C 0.47812 0.47651 0.85477 0.0
C2287 C 0.50152 0.02432 0.86416 0.0
C2288 C 0.51297 0.01544 0.84848 0.0
C2289 C 0.49473 0.00793 0.88127 0.0
C2290 C 0.49871 0.98167 0.8834 0.0
H2291 H 0.49763 0.04409 0.8632 0.0
H2292 H 0.48545 0.01539 0.89277 0.0
S2293 S 0.52904 0.94928 0.84695 0.0
N2294 N 0.5285 0.97884 0.83645 0.0
N2295 N 0.51623 0.94846 0.86851 0.0
C2296 C 0.51075 0.97293 0.86796 0.0
C2297 C 0.51779 0.98969 0.85058 0.0
C2298 C 0.15773 0.32791 0.50586 0.0
C2299 C 0.1583 0.30018 0.50968 0.0
C2300 C 0.16913 0.34396 0.48878 0.0
C2301 C 0.18135 0.33292 0.4746 0.0
H2302 H 0.14901 0.33771 0.51633 0.0
H2303 H 0.16848 0.36538 0.48668 0.0
S2304 S 0.18711 0.26078 0.47716 0.0
N2305 N 0.17127 0.26183 0.4975 0.0
N2306 N 0.19281 0.29209 0.46549 0.0
C2307 C 0.18149 0.30489 0.47806 0.0
C2308 C 0.17008 0.28861 0.49555 0.0
C2309 C 0.67141 0.86432 0.50533 0.0
C2310 C 0.69736 0.85909 0.50858 0.0
C2311 C 0.65443 0.85578 0.48843 0.0
C2312 C 0.66262 0.8416 0.47405 0.0
H2313 H 0.66399 0.87498 0.51599 0.0
H2314 H 0.63493 0.86068 0.48655 0.0
S2315 S 0.72838 0.82238 0.47555 0.0
N2316 N 0.73065 0.83905 0.49589 0.0
N2317 N 0.69797 0.82193 0.46438 0.0
C2318 C 0.68836 0.83597 0.47715 0.0
C2319 C 0.70581 0.84486 0.49435 0.0
C2320 C 0.1602 0.82672 0.50619 0.0
C2321 C 0.16045 0.85511 0.50857 0.0
C2322 C 0.16947 0.8194 0.48915 0.0
C2323 C 0.17907 0.84003 0.47375 0.0
H2324 H 0.1539 0.81051 0.5178 0.0
H2325 H 0.16949 0.79753 0.4881 0.0
S2326 S 0.18191 0.91651 0.47236 0.0
N2327 N 0.16932 0.90316 0.49373 0.0
N2328 N 0.18721 0.88966 0.46187 0.0
C2329 C 0.17837 0.86802 0.47575 0.0
C2330 C 0.16902 0.87551 0.49311 0.0
C2331 C 0.64544 0.7986 0.19916 0.0
C2332 C 0.65833 0.8198 0.18409 0.0
C2333 C 0.66047 0.80558 0.21669 0.0
C2334 C 0.68912 0.83395 0.21982 0.0
H2335 H 0.62373 0.77622 0.19732 0.0
H2336 H 0.65009 0.7882 0.22772 0.0
S2337 S 0.73184 0.89811 0.18531 0.0
N2338 N 0.70091 0.87077 0.17364 0.0
N2339 N 0.72887 0.88412 0.20668 0.0
C2340 C 0.70177 0.85574 0.20504 0.0
C2341 C 0.68641 0.84865 0.18718 0.0
C2342 C 0.16708 0.79245 0.19729 0.0
C2343 C 0.17625 0.81429 0.18253 0.0
C2344 C 0.15828 0.79837 0.21491 0.0
C2345 C 0.15795 0.82622 0.21844 0.0
H2346 H 0.16622 0.77035 0.1951 0.0
H2347 H 0.15053 0.7805 0.22565 0.0
S2348 S 0.18165 0.89181 0.18497 0.0
N2349 N 0.18561 0.86544 0.17293 0.0
N2350 N 0.16948 0.87668 0.20606 0.0
C2351 C 0.1681 0.84869 0.20402 0.0
C2352 C 0.1772 0.84273 0.1861 0.0
C2353 C 0.14721 0.33961 0.18813 0.0
C2354 C 0.17831 0.36468 0.18414 0.0
C2355 C 0.13988 0.32357 0.20531 0.0
C2356 C 0.16324 0.33178 0.21942 0.0
H2357 H 0.12832 0.33192 0.17776 0.0
H2358 H 0.11555 0.30446 0.20754 0.0
S2359 S 0.24831 0.39607 0.21635 0.0
N2360 N 0.23258 0.39747 0.19607 0.0
N2361 N 0.21899 0.36691 0.22818 0.0
C2362 C 0.19441 0.357 0.21574 0.0
C2363 C 0.20192 0.3734 0.19816 0.0
C2364 C 0.82473 0.66796 0.83998 0.0
C2365 C 0.82427 0.63974 0.84379 0.0
C2366 C 0.83631 0.68373 0.82284 0.0
C2367 C 0.84761 0.67183 0.80866 0.0
H2368 H 0.81664 0.67829 0.85048 0.0
H2369 H 0.83641 0.7055 0.82068 0.0
S2370 S 0.85065 0.59828 0.81131 0.0
N2371 N 0.83539 0.60011 0.83169 0.0
N2372 N 0.85729 0.62983 0.79958 0.0
C2373 C 0.84681 0.64338 0.81216 0.0
C2374 C 0.83522 0.6274 0.82968 0.0
C2375 C 0.35678 0.17193 0.82996 0.0
C2376 C 0.34819 0.18716 0.84347 0.0
C2377 C 0.34129 0.16355 0.81257 0.0
C2378 C 0.31657 0.17001 0.80804 0.0
H2379 H 0.376 0.16691 0.83272 0.0
H2380 H 0.34866 0.15178 0.80263 0.0
S2381 S 0.28463 0.20891 0.83868 0.0
N2382 N 0.31257 0.20735 0.85138 0.0
N2383 N 0.28441 0.19277 0.81847 0.0
C2384 C 0.30763 0.18505 0.82147 0.0
C2385 C 0.32322 0.19338 0.83921 0.0
C2386 C 0.8149 0.16541 0.8321 0.0
C2387 C 0.83771 0.17882 0.84653 0.0
C2388 C 0.82338 0.15831 0.81468 0.0
C2389 C 0.85488 0.16408 0.81114 0.0
H2390 H 0.79053 0.16099 0.83415 0.0
H2391 H 0.80509 0.14805 0.80395 0.0
S2392 S 0.92329 0.19827 0.84447 0.0
N2393 N 0.89282 0.19661 0.85629 0.0
N2394 N 0.90893 0.18424 0.82356 0.0
C2395 C 0.87776 0.17723 0.82554 0.0
C2396 C 0.86914 0.18433 0.84321 0.0
C2397 C 0.34284 0.13353 0.52319 0.0
C2398 C 0.317 0.13887 0.5198 0.0
C2399 C 0.35996 0.14247 0.54003 0.0
C2400 C 0.35204 0.1572 0.55421 0.0
H2401 H 0.35014 0.12258 0.51265 0.0
H2402 H 0.37939 0.13749 0.54202 0.0
S2403 S 0.28656 0.17678 0.55234 0.0
N2404 N 0.28397 0.15941 0.53221 0.0
N2405 N 0.31704 0.17745 0.56354 0.0
C2406 C 0.32638 0.16289 0.55099 0.0
C2407 C 0.30874 0.15353 0.53386 0.0
C2408 C 0.84214 0.13272 0.53498 0.0
C2409 C 0.85145 0.15357 0.51969 0.0
C2410 C 0.83411 0.14017 0.55239 0.0
C2411 C 0.83473 0.16866 0.55518 0.0
H2412 H 0.84072 0.11025 0.53342 0.0
H2413 H 0.82635 0.12305 0.56358 0.0
S2414 S 0.85888 0.23205 0.52002 0.0
N2415 N 0.8617 0.20439 0.50874 0.0
N2416 N 0.84709 0.21855 0.54146 0.0
C2417 C 0.84486 0.19008 0.54018 0.0
C2418 C 0.85315 0.18255 0.52248 0.0
C2419 C 0.81103 0.669 0.52256 0.0
C2420 C 0.84209 0.69417 0.5186 0.0
C2421 C 0.80374 0.65292 0.53972 0.0
C2422 C 0.82709 0.66121 0.55385 0.0
H2423 H 0.79215 0.66131 0.51218 0.0
H2424 H 0.77944 0.63374 0.54194 0.0
S2425 S 0.91205 0.72572 0.55084 0.0
N2426 N 0.89632 0.72708 0.53055 0.0
N2427 N 0.88278 0.69648 0.56264 0.0
C2428 C 0.85822 0.68651 0.55019 0.0
C2429 C 0.8657 0.70293 0.53262 0.0
loop_
_geom_bond_atom_site_label_1
_geom_bond_atom_site_label_2
_geom_bond_distance
_geom_bond_site_symmetry_2
_ccdc_geom_bond_type
C0 C1 1.391 . S
C0 C4 1.391 . S
C0 H42 0.948 . S
C1 C0 1.391 . S
C1 C2 1.391 . S
C2 C1 1.391 . S
C2 H58 0.947 . S
C2 C59 1.392 . S
C3 C4 1.391 . S
C3 C7 1.397 . S
C3 C59 1.419 . S
C4 C0 1.391 . S
C4 C3 1.391 . S
C4 C5 1.399 . S
C5 C4 1.399 . S
C5 C8 1.396 . S
C5 C17 1.453 . S
C5 C18 1.684 . S
H6 C30 0.948 . S
C7 C3 1.397 . S
C7 C8 1.394 . S
C7 C26 1.723 . S
C8 C5 1.396 . S
C8 C7 1.394 . S
C8 C38 1.723 . S
H9 C32 0.947 . S
H10 C33 0.948 . S
H11 C39 0.982 . S
H12 C40 0.979 . S
H13 C40 0.980 . S
H14 C40 0.983 . S
H15 C39 0.979 . S
H16 C39 0.977 . S
C17 C5 1.453 . S
C17 H46 0.982 . S
C17 H47 0.979 . S
C17 H48 0.977 . S
C18 C5 1.684 . S
C18 H43 0.979 . S
C18 H44 0.980 . S
C18 H45 0.983 . S
C19 C20 1.391 . S
C19 C24 1.391 . S
C19 H49 0.948 . S
C20 C19 1.391 . S
C20 C21 1.391 . S
C21 C20 1.391 . S
C21 C22 1.392 . S
C21 H50 0.947 . S
C22 C21 1.392 . S
C22 C23 1.419 . S
C22 H51 0.948 . S
C23 C22 1.419 . S
C23 C24 1.391 . S
C23 C27 1.397 . S
C24 C19 1.391 . S
C24 C23 1.391 . S
C24 C25 1.399 . S
C25 C24 1.399 . S
C25 C26 1.396 . S
C25 C28 1.453 . S
C25 C29 1.684 . S
C26 C7 1.723 . S
C26 C25 1.396 . S
C26 C27 1.394 . S
C27 C23 1.397 . S
C27 C26 1.394 . S
C27 C37 1.723 . S
C28 C25 1.453 . S
C28 H52 0.982 . S
C28 H53 0.979 . S
C28 H54 0.977 . S
C29 C25 1.684 . S
C29 H55 0.979 . S
C29 H56 0.980 . S
C29 H57 0.983 . S
C30 H6 0.948 . S
C30 C31 1.391 . S
C30 C35 1.391 . S
C31 C30 1.391 . S
C31 C32 1.391 . S
C32 H9 0.947 . S
C32 C31 1.391 . S
C32 C33 1.392 . S
C33 H10 0.948 . S
C33 C32 1.392 . S
C33 C34 1.419 . S
C34 C33 1.419 . S
C34 C35 1.391 . S
C34 C38 1.397 . S
C35 C30 1.391 . S
C35 C34 1.391 . S
C35 C36 1.399 . S
C36 C35 1.399 . S
C36 C37 1.396 . S
C36 C39 1.453 . S
C36 C40 1.684 . S
C37 C27 1.723 . S
C37 C36 1.396 . S
C37 C38 1.394 . S
C38 C8 1.723 . S
C38 C34 1.397 . S
C38 C37 1.394 . S
C39 H11 0.982 . S
C39 H15 0.979 . S
C39 H16 0.977 . S
C39 C36 1.453 . S
C40 H12 0.979 . S
C40 H13 0.980 . S
C40 H14 0.983 . S
C40 C36 1.684 . S
H41 C59 0.948 . S
H42 C0 0.948 . S
H43 C18 0.979 . S
H44 C18 0.980 . S
H45 C18 0.983 . S
H46 C17 0.982 . S
H47 C17 0.979 . S
H48 C17 0.977 . S
H49 C19 0.948 . S
H50 C21 0.947 . S
H51 C22 0.948 . S
H52 C28 0.982 . S
H53 C28 0.979 . S
H54 C28 0.977 . S
H55 C29 0.979 . S
H56 C29 0.980 . S
H57 C29 0.983 . S
H58 C2 0.947 . S
C59 C2 1.392 . S
C59 C3 1.419 . S
C59 H41 0.948 . S
C60 C61 1.391 . S
C60 C64 1.391 . S
C60 H102 0.948 . S
C61 C60 1.391 . S
C61 C62 1.391 . S
C62 C61 1.391 . S
C62 H118 0.947 1_655 S
C62 C119 1.392 . S
C63 C64 1.391 . S
C63 C67 1.397 . S
C63 C119 1.419 . S
C64 C60 1.391 . S
C64 C63 1.391 . S
C64 C65 1.399 . S
C65 C64 1.399 . S
C65 C68 1.396 . S
C65 C77 1.453 . S
C65 C78 1.684 . S
H66 C90 0.948 . S
C67 C63 1.397 . S
C67 C68 1.394 . S
C67 C86 1.723 . S
C68 C65 1.396 . S
C68 C67 1.394 . S
C68 C98 1.723 . S
H69 C92 0.947 . S
H70 C93 0.948 . S
H71 C99 0.982 . S
H72 C100 0.979 . S
H73 C100 0.980 . S
H74 C100 0.983 . S
H75 C99 0.979 . S
H76 C99 0.977 . S
C77 C65 1.453 . S
C77 H106 0.982 . S
C77 H107 0.979 . S
C77 H108 0.977 . S
C78 C65 1.684 . S
C78 H103 0.979 . S
C78 H104 0.980 . S
C78 H105 0.983 . S
C79 C80 1.391 . S
C79 C84 1.391 . S
C79 H109 0.948 . S
C80 C79 1.391 . S
C80 C81 1.391 . S
C81 C80 1.391 . S
C81 C82 1.392 . S
C81 H110 0.947 . S
C82 C81 1.392 . S
C82 C83 1.419 . S
C82 H111 0.948 . S
C83 C82 1.419 . S
C83 C84 1.391 . S
C83 C87 1.397 . S
C84 C79 1.391 . S
C84 C83 1.391 . S
C84 C85 1.399 . S
C85 C84 1.399 . S
C85 C86 1.396 . S
C85 C88 1.453 . S
C85 C89 1.684 . S
C86 C67 1.723 . S
C86 C85 1.396 . S
C86 C87 1.394 . S
C87 C83 1.397 . S
C87 C86 1.394 . S
C87 C97 1.723 . S
C88 C85 1.453 . S
C88 H112 0.982 . S
C88 H113 0.979 . S
C88 H114 0.977 . S
C89 C85 1.684 . S
C89 H115 0.979 . S
C89 H116 0.980 . S
C89 H117 0.983 . S
C90 H66 0.948 . S
C90 C91 1.391 . S
C90 C95 1.391 . S
C91 C90 1.391 . S
C91 C92 1.391 . S
C92 H69 0.947 . S
C92 C91 1.391 . S
C92 C93 1.392 . S
C93 H70 0.948 . S
C93 C92 1.392 . S
C93 C94 1.419 . S
C94 C93 1.419 . S
C94 C95 1.391 . S
C94 C98 1.397 . S
C95 C90 1.391 . S
C95 C94 1.391 . S
C95 C96 1.399 . S
C96 C95 1.399 . S
C96 C97 1.396 . S
C96 C99 1.453 . S
C96 C100 1.684 . S
C97 C87 1.723 . S
C97 C96 1.396 . S
C97 C98 1.394 . S
C98 C68 1.723 . S
C98 C94 1.397 . S
C98 C97 1.394 . S
C99 H71 0.982 . S
C99 H75 0.979 . S
C99 H76 0.977 . S
C99 C96 1.453 . S
C100 H72 0.979 . S
C100 H73 0.980 . S
C100 H74 0.983 . S
C100 C96 1.684 . S
H101 C119 0.948 . S
H102 C60 0.948 . S
H103 C78 0.979 . S
H104 C78 0.980 . S
H105 C78 0.983 . S
H106 C77 0.982 . S
H107 C77 0.979 . S
H108 C77 0.977 . S
H109 C79 0.948 . S
H110 C81 0.947 . S
H111 C82 0.948 . S
H112 C88 0.982 . S
H113 C88 0.979 . S
H114 C88 0.977 . S
H115 C89 0.979 . S
H116 C89 0.980 . S
H117 C89 0.983 . S
H118 C62 0.947 1_455 S
C119 C62 1.392 . S
C119 C63 1.419 . S
C119 H101 0.948 . S
C120 C121 1.391 . S
C120 C124 1.391 . S
C120 H162 0.948 . S
C121 C120 1.391 . S
C121 C122 1.391 . S
C122 C121 1.391 . S
C122 H178 0.947 1_655 S
C122 C179 1.392 . S
C123 C124 1.391 . S
C123 C127 1.397 . S
C123 C179 1.419 . S
C124 C120 1.391 . S
C124 C123 1.391 . S
C124 C125 1.399 . S
C125 C124 1.399 . S
C125 C128 1.396 . S
C125 C137 1.453 . S
C125 C138 1.684 . S
H126 C150 0.948 . S
C127 C123 1.397 . S
C127 C128 1.394 . S
C127 C146 1.723 . S
C128 C125 1.396 . S
C128 C127 1.394 . S
C128 C158 1.723 . S
H129 C152 0.947 . S
H130 C153 0.948 . S
H131 C159 0.982 . S
H132 C160 0.979 . S
H133 C160 0.980 . S
H134 C160 0.983 . S
H135 C159 0.979 . S
H136 C159 0.977 . S
C137 C125 1.453 . S
C137 H166 0.982 . S
C137 H167 0.979 . S
C137 H168 0.977 . S
C138 C125 1.684 . S
C138 H163 0.979 . S
C138 H164 0.980 . S
C138 H165 0.983 . S
C139 C140 1.391 . S
C139 C144 1.391 . S
C139 H169 0.948 . S
C140 C139 1.391 . S
C140 C141 1.391 . S
C141 C140 1.391 . S
C141 C142 1.392 . S
C141 H170 0.947 . S
C142 C141 1.392 . S
C142 C143 1.419 . S
C142 H171 0.948 . S
C143 C142 1.419 . S
C143 C144 1.391 . S
C143 C147 1.397 . S
C144 C139 1.391 . S
C144 C143 1.391 . S
C144 C145 1.399 . S
C145 C144 1.399 . S
C145 C146 1.396 . S
C145 C148 1.453 . S
C145 C149 1.684 . S
C146 C127 1.723 . S
C146 C145 1.396 . S
C146 C147 1.394 . S
C147 C143 1.397 . S
C147 C146 1.394 . S
C147 C157 1.723 . S
C148 C145 1.453 . S
C148 H172 0.982 . S
C148 H173 0.979 . S
C148 H174 0.977 . S
C149 C145 1.684 . S
C149 H175 0.979 . S
C149 H176 0.980 . S
C149 H177 0.983 . S
C150 H126 0.948 . S
C150 C151 1.391 . S
C150 C155 1.391 . S
C151 C150 1.391 . S
C151 C152 1.391 . S
C152 H129 0.947 . S
C152 C151 1.391 . S
C152 C153 1.392 . S
C153 H130 0.948 . S
C153 C152 1.392 . S
C153 C154 1.419 . S
C154 C153 1.419 . S
C154 C155 1.391 . S
C154 C158 1.397 . S
C155 C150 1.391 . S
C155 C154 1.391 . S
C155 C156 1.399 . S
C156 C155 1.399 . S
C156 C157 1.396 . S
C156 C159 1.453 . S
C156 C160 1.684 . S
C157 C147 1.723 . S
C157 C156 1.396 . S
C157 C158 1.394 . S
C158 C128 1.723 . S
C158 C154 1.397 . S
C158 C157 1.394 . S
C159 H131 0.982 . S
C159 H135 0.979 . S
C159 H136 0.977 . S
C159 C156 1.453 . S
C160 H132 0.979 . S
C160 H133 0.980 . S
C160 H134 0.983 . S
C160 C156 1.684 . S
H161 C179 0.948 . S
H162 C120 0.948 . S
H163 C138 0.979 . S
H164 C138 0.980 . S
H165 C138 0.983 . S
H166 C137 0.982 . S
H167 C137 0.979 . S
H168 C137 0.977 . S
H169 C139 0.948 . S
H170 C141 0.947 . S
H171 C142 0.948 . S
H172 C148 0.982 . S
H173 C148 0.979 . S
H174 C148 0.977 . S
H175 C149 0.979 . S
H176 C149 0.980 . S
H177 C149 0.983 . S
H178 C122 0.947 1_455 S
C179 C122 1.392 . S
C179 C123 1.419 . S
C179 H161 0.948 . S
C180 C181 1.391 . S
C180 C184 1.391 . S
C180 H222 0.948 . S
C181 C180 1.391 . S
C181 C182 1.391 . S
C182 C181 1.391 . S
C182 H238 0.947 . S
C182 C239 1.392 . S
C183 C184 1.391 . S
C183 C187 1.397 . S
C183 C239 1.419 . S
C184 C180 1.391 . S
C184 C183 1.391 . S
C184 C185 1.399 . S
C185 C184 1.399 . S
C185 C188 1.396 . S
C185 C197 1.453 . S
C185 C198 1.684 . S
H186 C210 0.948 1_655 S
C187 C183 1.397 . S
C187 C188 1.394 . S
C187 C206 1.723 . S
C188 C185 1.396 . S
C188 C187 1.394 . S
C188 C218 1.723 . S
H189 C212 0.947 . S
H190 C213 0.948 . S
H191 C219 0.982 . S
H192 C220 0.979 . S
H193 C220 0.980 . S
H194 C220 0.983 . S
H195 C219 0.979 . S
H196 C219 0.977 . S
C197 C185 1.453 . S
C197 H226 0.982 . S
C197 H227 0.979 . S
C197 H228 0.977 . S
C198 C185 1.684 . S
C198 H223 0.979 . S
C198 H224 0.980 . S
C198 H225 0.983 . S
C199 C200 1.391 . S
C199 C204 1.391 . S
C199 H229 0.948 . S
C200 C199 1.391 . S
C200 C201 1.391 . S
C201 C200 1.391 . S
C201 C202 1.392 . S
C201 H230 0.947 . S
C202 C201 1.392 . S
C202 C203 1.419 . S
C202 H231 0.948 . S
C203 C202 1.419 . S
C203 C204 1.391 . S
C203 C207 1.397 . S
C204 C199 1.391 . S
C204 C203 1.391 . S
C204 C205 1.399 . S
C205 C204 1.399 . S
C205 C206 1.396 . S
C205 C208 1.453 . S
C205 C209 1.684 . S
C206 C187 1.723 . S
C206 C205 1.396 . S
C206 C207 1.394 . S
C207 C203 1.397 . S
C207 C206 1.394 . S
C207 C217 1.723 . S
C208 C205 1.453 . S
C208 H232 0.982 . S
C208 H233 0.979 . S
C208 H234 0.977 . S
C209 C205 1.684 . S
C209 H235 0.979 . S
C209 H236 0.980 . S
C209 H237 0.983 . S
C210 H186 0.948 1_455 S
C210 C211 1.391 . S
C210 C215 1.391 . S
C211 C210 1.391 . S
C211 C212 1.391 . S
C212 H189 0.947 . S
C212 C211 1.391 . S
C212 C213 1.392 . S
C213 H190 0.948 . S
C213 C212 1.392 . S
C213 C214 1.419 . S
C214 C213 1.419 . S
C214 C215 1.391 . S
C214 C218 1.397 . S
C215 C210 1.391 . S
C215 C214 1.391 . S
C215 C216 1.399 . S
C216 C215 1.399 . S
C216 C217 1.396 . S
C216 C219 1.453 . S
C216 C220 1.684 . S
C217 C207 1.723 . S
C217 C216 1.396 . S
C217 C218 1.394 . S
C218 C188 1.723 . S
C218 C214 1.397 . S
C218 C217 1.394 . S
C219 H191 0.982 . S
C219 H195 0.979 . S
C219 H196 0.977 . S
C219 C216 1.453 . S
C220 H192 0.979 . S
C220 H193 0.980 . S
C220 H194 0.983 . S
C220 C216 1.684 . S
H221 C239 0.948 . S
H222 C180 0.948 . S
H223 C198 0.979 . S
H224 C198 0.980 . S
H225 C198 0.983 . S
H226 C197 0.982 . S
H227 C197 0.979 . S
H228 C197 0.977 . S
H229 C199 0.948 . S
H230 C201 0.947 . S
H231 C202 0.948 . S
H232 C208 0.982 . S
H233 C208 0.979 . S
H234 C208 0.977 . S
H235 C209 0.979 . S
H236 C209 0.980 . S
H237 C209 0.983 . S
H238 C182 0.947 . S
C239 C182 1.392 . S
C239 C183 1.419 . S
C239 H221 0.948 . S
C240 C241 1.391 . S
C240 C244 1.391 . S
C240 H282 0.948 . S
C241 C240 1.391 . S
C241 C242 1.391 . S
C242 C241 1.391 . S
C242 H298 0.947 . S
C242 C299 1.392 . S
C243 C244 1.391 . S
C243 C247 1.397 . S
C243 C299 1.419 . S
C244 C240 1.391 . S
C244 C243 1.391 . S
C244 C245 1.399 . S
C245 C244 1.399 . S
C245 C248 1.396 . S
C245 C257 1.453 . S
C245 C258 1.684 . S
H246 C270 0.948 . S
C247 C243 1.397 . S
C247 C248 1.394 . S
C247 C266 1.723 . S
C248 C245 1.396 . S
C248 C247 1.394 . S
C248 C278 1.723 . S
H249 C272 0.947 . S
H250 C273 0.948 . S
H251 C279 0.982 . S
H252 C280 0.979 . S
H253 C280 0.980 . S
H254 C280 0.983 . S
H255 C279 0.979 . S
H256 C279 0.977 . S
C257 C245 1.453 . S
C257 H286 0.982 . S
C257 H287 0.979 . S
C257 H288 0.977 . S
C258 C245 1.684 . S
C258 H283 0.979 . S
C258 H284 0.980 . S
C258 H285 0.983 . S
C259 C260 1.391 . S
C259 C264 1.391 . S
C259 H289 0.948 . S
C260 C259 1.391 . S
C260 C261 1.391 . S
C261 C260 1.391 . S
C261 C262 1.392 . S
C261 H290 0.947 . S
C262 C261 1.392 . S
C262 C263 1.419 . S
C262 H291 0.948 . S
C263 C262 1.419 . S
C263 C264 1.391 . S
C263 C267 1.397 . S
C264 C259 1.391 . S
C264 C263 1.391 . S
C264 C265 1.399 . S
C265 C264 1.399 . S
C265 C266 1.396 . S
C265 C268 1.453 . S
C265 C269 1.684 . S
C266 C247 1.723 . S
C266 C265 1.396 . S
C266 C267 1.394 . S
C267 C263 1.397 . S
C267 C266 1.394 . S
C267 C277 1.723 . S
C268 C265 1.453 . S
C268 H292 0.982 . S
C268 H293 0.979 . S
C268 H294 0.977 . S
C269 C265 1.684 . S
C269 H295 0.979 . S
C269 H296 0.980 . S
C269 H297 0.983 . S
C270 H246 0.948 . S
C270 C271 1.391 . S
C270 C275 1.391 . S
C271 C270 1.391 . S
C271 C272 1.391 . S
C272 H249 0.947 . S
C272 C271 1.391 . S
C272 C273 1.392 . S
C273 H250 0.948 . S
C273 C272 1.392 . S
C273 C274 1.419 . S
C274 C273 1.419 . S
C274 C275 1.391 . S
C274 C278 1.397 . S
C275 C270 1.391 . S
C275 C274 1.391 . S
C275 C276 1.399 . S
C276 C275 1.399 . S
C276 C277 1.396 . S
C276 C279 1.453 . S
C276 C280 1.684 . S
C277 C267 1.723 . S
C277 C276 1.396 . S
C277 C278 1.394 . S
C278 C248 1.723 . S
C278 C274 1.397 . S
C278 C277 1.394 . S
C279 H251 0.982 . S
C279 H255 0.979 . S
C279 H256 0.977 . S
C279 C276 1.453 . S
C280 H252 0.979 . S
C280 H253 0.980 . S
C280 H254 0.983 . S
C280 C276 1.684 . S
H281 C299 0.948 . S
H282 C240 0.948 . S
H283 C258 0.979 . S
H284 C258 0.980 . S
H285 C258 0.983 . S
H286 C257 0.982 . S
H287 C257 0.979 . S
H288 C257 0.977 . S
H289 C259 0.948 . S
H290 C261 0.947 . S
H291 C262 0.948 . S
H292 C268 0.982 . S
H293 C268 0.979 . S
H294 C268 0.977 . S
H295 C269 0.979 . S
H296 C269 0.980 . S
H297 C269 0.983 . S
H298 C242 0.947 . S
C299 C242 1.392 . S
C299 C243 1.419 . S
C299 H281 0.948 . S
C300 C301 1.391 . S
C300 C304 1.391 . S
C300 H342 0.948 . S
C301 C300 1.391 . S
C301 C302 1.391 . S
C302 C301 1.391 . S
C302 H358 0.947 1_455 S
C302 C359 1.392 . S
C303 C304 1.391 . S
C303 C307 1.397 . S
C303 C359 1.419 . S
C304 C300 1.391 . S
C304 C303 1.391 . S
C304 C305 1.399 . S
C305 C304 1.399 . S
C305 C308 1.396 . S
C305 C317 1.453 . S
C305 C318 1.684 . S
H306 C330 0.948 . S
C307 C303 1.397 . S
C307 C308 1.394 . S
C307 C326 1.723 . S
C308 C305 1.396 . S
C308 C307 1.394 . S
C308 C338 1.723 . S
H309 C332 0.947 . S
H310 C333 0.948 . S
H311 C339 0.982 . S
H312 C340 0.979 . S
H313 C340 0.980 . S
H314 C340 0.983 . S
H315 C339 0.979 . S
H316 C339 0.977 . S
C317 C305 1.453 . S
C317 H346 0.982 . S
C317 H347 0.979 . S
C317 H348 0.977 . S
C318 C305 1.684 . S
C318 H343 0.979 . S
C318 H344 0.980 . S
C318 H345 0.983 . S
C319 C320 1.391 . S
C319 C324 1.391 . S
C319 H349 0.948 . S
C320 C319 1.391 . S
C320 C321 1.391 . S
C321 C320 1.391 . S
C321 C322 1.392 . S
C321 H350 0.947 . S
C322 C321 1.392 . S
C322 C323 1.419 . S
C322 H351 0.948 . S
C323 C322 1.419 . S
C323 C324 1.391 . S
C323 C327 1.397 . S
C324 C319 1.391 . S
C324 C323 1.391 . S
C324 C325 1.399 . S
C325 C324 1.399 . S
C325 C326 1.396 . S
C325 C328 1.453 . S
C325 C329 1.684 . S
C326 C307 1.723 . S
C326 C325 1.396 . S
C326 C327 1.394 . S
C327 C323 1.397 . S
C327 C326 1.394 . S
C327 C337 1.723 . S
C328 C325 1.453 . S
C328 H352 0.982 . S
C328 H353 0.979 . S
C328 H354 0.977 . S
C329 C325 1.684 . S
C329 H355 0.979 . S
C329 H356 0.980 . S
C329 H357 0.983 . S
C330 H306 0.948 . S
C330 C331 1.391 . S
C330 C335 1.391 . S
C331 C330 1.391 . S
C331 C332 1.391 . S
C332 H309 0.947 . S
C332 C331 1.391 . S
C332 C333 1.392 . S
C333 H310 0.948 . S
C333 C332 1.392 . S
C333 C334 1.419 . S
C334 C333 1.419 . S
C334 C335 1.391 . S
C334 C338 1.397 . S
C335 C330 1.391 . S
C335 C334 1.391 . S
C335 C336 1.399 . S
C336 C335 1.399 . S
C336 C337 1.396 . S
C336 C339 1.453 . S
C336 C340 1.684 . S
C337 C327 1.723 . S
C337 C336 1.396 . S
C337 C338 1.394 . S
C338 C308 1.723 . S
C338 C334 1.397 . S
C338 C337 1.394 . S
C339 H311 0.982 . S
C339 H315 0.979 . S
C339 H316 0.977 . S
C339 C336 1.453 . S
C340 H312 0.979 . S
C340 H313 0.980 . S
C340 H314 0.983 . S
C340 C336 1.684 . S
H341 C359 0.948 . S
H342 C300 0.948 . S
H343 C318 0.979 . S
H344 C318 0.980 . S
H345 C318 0.983 . S
H346 C317 0.982 . S
H347 C317 0.979 . S
H348 C317 0.977 . S
H349 C319 0.948 . S
H350 C321 0.947 . S
H351 C322 0.948 . S
H352 C328 0.982 . S
H353 C328 0.979 . S
H354 C328 0.977 . S
H355 C329 0.979 . S
H356 C329 0.980 . S
H357 C329 0.983 . S
H358 C302 0.947 1_655 S
C359 C302 1.392 . S
C359 C303 1.419 . S
C359 H341 0.948 . S
C360 C361 1.391 . S
C360 C364 1.391 . S
C360 H402 0.948 . S
C361 C360 1.391 . S
C361 C362 1.391 . S
C362 C361 1.391 . S
C362 H418 0.947 . S
C362 C419 1.392 . S
C363 C364 1.391 . S
C363 C367 1.397 . S
C363 C419 1.419 . S
C364 C360 1.391 . S
C364 C363 1.391 . S
C364 C365 1.399 . S
C365 C364 1.399 . S
C365 C368 1.396 . S
C365 C377 1.453 . S
C365 C378 1.684 . S
H366 C390 0.948 . S
C367 C363 1.397 . S
C367 C368 1.394 . S
C367 C386 1.723 . S
C368 C365 1.396 . S
C368 C367 1.394 . S
C368 C398 1.723 . S
H369 C392 0.947 . S
H370 C393 0.948 . S
H371 C399 0.982 . S
H372 C400 0.979 . S
H373 C400 0.980 . S
H374 C400 0.983 . S
H375 C399 0.979 . S
H376 C399 0.977 . S
C377 C365 1.453 . S
C377 H406 0.982 . S
C377 H407 0.979 . S
C377 H408 0.977 . S
C378 C365 1.684 . S
C378 H403 0.979 . S
C378 H404 0.980 . S
C378 H405 0.983 . S
C379 C380 1.391 . S
C379 C384 1.391 . S
C379 H409 0.948 . S
C380 C379 1.391 . S
C380 C381 1.391 . S
C381 C380 1.391 . S
C381 C382 1.392 . S
C381 H410 0.947 . S
C382 C381 1.392 . S
C382 C383 1.419 . S
C382 H411 0.948 . S
C383 C382 1.419 . S
C383 C384 1.391 . S
C383 C387 1.397 . S
C384 C379 1.391 . S
C384 C383 1.391 . S
C384 C385 1.399 . S
C385 C384 1.399 . S
C385 C386 1.396 . S
C385 C388 1.453 . S
C385 C389 1.684 . S
C386 C367 1.723 . S
C386 C385 1.396 . S
C386 C387 1.394 . S
C387 C383 1.397 . S
C387 C386 1.394 . S
C387 C397 1.723 . S
C388 C385 1.453 . S
C388 H412 0.982 . S
C388 H413 0.979 . S
C388 H414 0.977 . S
C389 C385 1.684 . S
C389 H415 0.979 . S
C389 H416 0.980 . S
C389 H417 0.983 . S
C390 H366 0.948 . S
C390 C391 1.391 . S
C390 C395 1.391 . S
C391 C390 1.391 . S
C391 C392 1.391 . S
C392 H369 0.947 . S
C392 C391 1.391 . S
C392 C393 1.392 . S
C393 H370 0.948 . S
C393 C392 1.392 . S
C393 C394 1.419 . S
C394 C393 1.419 . S
C394 C395 1.391 . S
C394 C398 1.397 . S
C395 C390 1.391 . S
C395 C394 1.391 . S
C395 C396 1.399 . S
C396 C395 1.399 . S
C396 C397 1.396 . S
C396 C399 1.453 . S
C396 C400 1.684 . S
C397 C387 1.723 . S
C397 C396 1.396 . S
C397 C398 1.394 . S
C398 C368 1.723 . S
C398 C394 1.397 . S
C398 C397 1.394 . S
C399 H371 0.982 . S
C399 H375 0.979 . S
C399 H376 0.977 . S
C399 C396 1.453 . S
C400 H372 0.979 . S
C400 H373 0.980 . S
C400 H374 0.983 . S
C400 C396 1.684 . S
H401 C419 0.948 . S
H402 C360 0.948 . S
H403 C378 0.979 . S
H404 C378 0.980 . S
H405 C378 0.983 . S
H406 C377 0.982 . S
H407 C377 0.979 . S
H408 C377 0.977 . S
H409 C379 0.948 . S
H410 C381 0.947 . S
H411 C382 0.948 . S
H412 C388 0.982 . S
H413 C388 0.979 . S
H414 C388 0.977 . S
H415 C389 0.979 . S
H416 C389 0.980 . S
H417 C389 0.983 . S
H418 C362 0.947 . S
C419 C362 1.392 . S
C419 C363 1.419 . S
C419 H401 0.948 . S
C420 C421 1.391 . S
C420 C424 1.391 . S
C420 H462 0.948 . S
C421 C420 1.391 . S
C421 C422 1.391 . S
C422 C421 1.391 . S
C422 H478 0.947 . S
C422 C479 1.392 . S
C423 C424 1.391 . S
C423 C427 1.397 . S
C423 C479 1.419 . S
C424 C420 1.391 . S
C424 C423 1.391 . S
C424 C425 1.399 . S
C425 C424 1.399 . S
C425 C428 1.396 . S
C425 C437 1.453 . S
C425 C438 1.684 . S
H426 C450 0.948 . S
C427 C423 1.397 . S
C427 C428 1.394 . S
C427 C446 1.723 . S
C428 C425 1.396 . S
C428 C427 1.394 . S
C428 C458 1.723 . S
H429 C452 0.947 . S
H430 C453 0.948 . S
H431 C459 0.982 . S
H432 C460 0.979 . S
H433 C460 0.980 . S
H434 C460 0.983 . S
H435 C459 0.979 . S
H436 C459 0.977 . S
C437 C425 1.453 . S
C437 H466 0.982 . S
C437 H467 0.979 . S
C437 H468 0.977 . S
C438 C425 1.684 . S
C438 H463 0.979 . S
C438 H464 0.980 . S
C438 H465 0.983 . S
C439 C440 1.391 . S
C439 C444 1.391 . S
C439 H469 0.948 . S
C440 C439 1.391 . S
C440 C441 1.391 . S
C441 C440 1.391 . S
C441 C442 1.392 . S
C441 H470 0.947 . S
C442 C441 1.392 . S
C442 C443 1.419 . S
C442 H471 0.948 . S
C443 C442 1.419 . S
C443 C444 1.391 . S
C443 C447 1.397 . S
C444 C439 1.391 . S
C444 C443 1.391 . S
C444 C445 1.399 . S
C445 C444 1.399 . S
C445 C446 1.396 . S
C445 C448 1.453 . S
C445 C449 1.684 . S
C446 C427 1.723 . S
C446 C445 1.396 . S
C446 C447 1.394 . S
C447 C443 1.397 . S
C447 C446 1.394 . S
C447 C457 1.723 . S
C448 C445 1.453 . S
C448 H472 0.982 . S
C448 H473 0.979 . S
C448 H474 0.977 . S
C449 C445 1.684 . S
C449 H475 0.979 . S
C449 H476 0.980 . S
C449 H477 0.983 . S
C450 H426 0.948 . S
C450 C451 1.391 . S
C450 C455 1.391 . S
C451 C450 1.391 . S
C451 C452 1.391 . S
C452 H429 0.947 . S
C452 C451 1.391 . S
C452 C453 1.392 . S
C453 H430 0.948 . S
C453 C452 1.392 . S
C453 C454 1.419 . S
C454 C453 1.419 . S
C454 C455 1.391 . S
C454 C458 1.397 . S
C455 C450 1.391 . S
C455 C454 1.391 . S
C455 C456 1.399 . S
C456 C455 1.399 . S
C456 C457 1.396 . S
C456 C459 1.453 . S
C456 C460 1.684 . S
C457 C447 1.723 . S
C457 C456 1.396 . S
C457 C458 1.394 . S
C458 C428 1.723 . S
C458 C454 1.397 . S
C458 C457 1.394 . S
C459 H431 0.982 . S
C459 H435 0.979 . S
C459 H436 0.977 . S
C459 C456 1.453 . S
C460 H432 0.979 . S
C460 H433 0.980 . S
C460 H434 0.983 . S
C460 C456 1.684 . S
H461 C479 0.948 . S
H462 C420 0.948 . S
H463 C438 0.979 . S
H464 C438 0.980 . S
H465 C438 0.983 . S
H466 C437 0.982 . S
H467 C437 0.979 . S
H468 C437 0.977 . S
H469 C439 0.948 . S
H470 C441 0.947 . S
H471 C442 0.948 . S
H472 C448 0.982 . S
H473 C448 0.979 . S
H474 C448 0.977 . S
H475 C449 0.979 . S
H476 C449 0.980 . S
H477 C449 0.983 . S
H478 C422 0.947 . S
C479 C422 1.392 . S
C479 C423 1.419 . S
C479 H461 0.948 . S
C480 C481 1.391 . S
C480 C484 1.391 . S
C480 H522 0.948 . S
C481 C480 1.391 . S
C481 C482 1.391 . S
C482 C481 1.391 . S
C482 H538 0.947 . S
C482 C539 1.392 . S
C483 C484 1.391 . S
C483 C487 1.397 . S
C483 C539 1.419 . S
C484 C480 1.391 . S
C484 C483 1.391 . S
C484 C485 1.399 . S
C485 C484 1.399 . S
C485 C488 1.396 . S
C485 C497 1.453 . S
C485 C498 1.684 . S
H486 C510 0.948 . S
C487 C483 1.397 . S
C487 C488 1.394 . S
C487 C506 1.723 . S
C488 C485 1.396 . S
C488 C487 1.394 . S
C488 C518 1.723 . S
H489 C512 0.947 . S
H490 C513 0.948 . S
H491 C519 0.982 . S
H492 C520 0.979 . S
H493 C520 0.980 . S
H494 C520 0.983 . S
H495 C519 0.979 . S
H496 C519 0.977 . S
C497 C485 1.453 . S
C497 H526 0.982 . S
C497 H527 0.979 . S
C497 H528 0.977 . S
C498 C485 1.684 . S
C498 H523 0.979 . S
C498 H524 0.980 . S
C498 H525 0.983 . S
C499 C500 1.391 . S
C499 C504 1.391 . S
C499 H529 0.948 . S
C500 C499 1.391 . S
C500 C501 1.391 . S
C501 C500 1.391 . S
C501 C502 1.392 . S
C501 H530 0.947 . S
C502 C501 1.392 . S
C502 C503 1.419 . S
C502 H531 0.948 . S
C503 C502 1.419 . S
C503 C504 1.391 . S
C503 C507 1.397 . S
C504 C499 1.391 . S
C504 C503 1.391 . S
C504 C505 1.399 . S
C505 C504 1.399 . S
C505 C506 1.396 . S
C505 C508 1.453 . S
C505 C509 1.684 . S
C506 C487 1.723 . S
C506 C505 1.396 . S
C506 C507 1.394 . S
C507 C503 1.397 . S
C507 C506 1.394 . S
C507 C517 1.723 . S
C508 C505 1.453 . S
C508 H532 0.982 . S
C508 H533 0.979 . S
C508 H534 0.977 . S
C509 C505 1.684 . S
C509 H535 0.979 . S
C509 H536 0.980 . S
C509 H537 0.983 . S
C510 H486 0.948 . S
C510 C511 1.391 . S
C510 C515 1.391 . S
C511 C510 1.391 . S
C511 C512 1.391 . S
C512 H489 0.947 . S
C512 C511 1.391 . S
C512 C513 1.392 . S
C513 H490 0.948 . S
C513 C512 1.392 . S
C513 C514 1.419 . S
C514 C513 1.419 . S
C514 C515 1.391 . S
C514 C518 1.397 . S
C515 C510 1.391 . S
C515 C514 1.391 . S
C515 C516 1.399 . S
C516 C515 1.399 . S
C516 C517 1.396 . S
C516 C519 1.453 . S
C516 C520 1.684 . S
C517 C507 1.723 . S
C517 C516 1.396 . S
C517 C518 1.394 . S
C518 C488 1.723 . S
C518 C514 1.397 . S
C518 C517 1.394 . S
C519 H491 0.982 . S
C519 H495 0.979 . S
C519 H496 0.977 . S
C519 C516 1.453 . S
C520 H492 0.979 . S
C520 H493 0.980 . S
C520 H494 0.983 . S
C520 C516 1.684 . S
H521 C539 0.948 . S
H522 C480 0.948 . S
H523 C498 0.979 . S
H524 C498 0.980 . S
H525 C498 0.983 . S
H526 C497 0.982 . S
H527 C497 0.979 . S
H528 C497 0.977 . S
H529 C499 0.948 . S
H530 C501 0.947 . S
H531 C502 0.948 . S
H532 C508 0.982 . S
H533 C508 0.979 . S
H534 C508 0.977 . S
H535 C509 0.979 . S
H536 C509 0.980 . S
H537 C509 0.983 . S
H538 C482 0.947 . S
C539 C482 1.392 . S
C539 C483 1.419 . S
C539 H521 0.948 . S
C540 C541 1.391 . S
C540 C544 1.391 . S
C540 H582 0.948 . S
C541 C540 1.391 . S
C541 C542 1.391 . S
C542 C541 1.391 . S
C542 H598 0.947 . S
C542 C599 1.392 . S
C543 C544 1.391 . S
C543 C547 1.397 . S
C543 C599 1.419 . S
C544 C540 1.391 . S
C544 C543 1.391 . S
C544 C545 1.399 . S
C545 C544 1.399 . S
C545 C548 1.396 . S
C545 C557 1.453 . S
C545 C558 1.684 . S
H546 C570 0.948 . S
C547 C543 1.397 . S
C547 C548 1.394 . S
C547 C566 1.723 . S
C548 C545 1.396 . S
C548 C547 1.394 . S
C548 C578 1.723 . S
H549 C572 0.947 . S
H550 C573 0.948 . S
H551 C579 0.982 . S
H552 C580 0.979 . S
H553 C580 0.980 . S
H554 C580 0.983 . S
H555 C579 0.979 . S
H556 C579 0.977 . S
C557 C545 1.453 . S
C557 H586 0.982 . S
C557 H587 0.979 . S
C557 H588 0.977 . S
C558 C545 1.684 . S
C558 H583 0.979 . S
C558 H584 0.980 . S
C558 H585 0.983 . S
C559 C560 1.391 . S
C559 C564 1.391 . S
C559 H589 0.948 . S
C560 C559 1.391 . S
C560 C561 1.391 . S
C561 C560 1.391 . S
C561 C562 1.392 . S
C561 H590 0.947 . S
C562 C561 1.392 . S
C562 C563 1.419 . S
C562 H591 0.948 . S
C563 C562 1.419 . S
C563 C564 1.391 . S
C563 C567 1.397 . S
C564 C559 1.391 . S
C564 C563 1.391 . S
C564 C565 1.399 . S
C565 C564 1.399 . S
C565 C566 1.396 . S
C565 C568 1.453 . S
C565 C569 1.684 . S
C566 C547 1.723 . S
C566 C565 1.396 . S
C566 C567 1.394 . S
C567 C563 1.397 . S
C567 C566 1.394 . S
C567 C577 1.723 . S
C568 C565 1.453 . S
C568 H592 0.982 . S
C568 H593 0.979 . S
C568 H594 0.977 . S
C569 C565 1.684 . S
C569 H595 0.979 . S
C569 H596 0.980 . S
C569 H597 0.983 . S
C570 H546 0.948 . S
C570 C571 1.391 . S
C570 C575 1.391 . S
C571 C570 1.391 . S
C571 C572 1.391 . S
C572 H549 0.947 . S
C572 C571 1.391 . S
C572 C573 1.392 . S
C573 H550 0.948 . S
C573 C572 1.392 . S
C573 C574 1.419 . S
C574 C573 1.419 . S
C574 C575 1.391 . S
C574 C578 1.397 . S
C575 C570 1.391 . S
C575 C574 1.391 . S
C575 C576 1.399 . S
C576 C575 1.399 . S
C576 C577 1.396 . S
C576 C579 1.453 . S
C576 C580 1.684 . S
C577 C567 1.723 . S
C577 C576 1.396 . S
C577 C578 1.394 . S
C578 C548 1.723 . S
C578 C574 1.397 . S
C578 C577 1.394 . S
C579 H551 0.982 . S
C579 H555 0.979 . S
C579 H556 0.977 . S
C579 C576 1.453 . S
C580 H552 0.979 . S
C580 H553 0.980 . S
C580 H554 0.983 . S
C580 C576 1.684 . S
H581 C599 0.948 . S
H582 C540 0.948 . S
H583 C558 0.979 . S
H584 C558 0.980 . S
H585 C558 0.983 . S
H586 C557 0.982 . S
H587 C557 0.979 . S
H588 C557 0.977 . S
H589 C559 0.948 . S
H590 C561 0.947 . S
H591 C562 0.948 . S
H592 C568 0.982 . S
H593 C568 0.979 . S
H594 C568 0.977 . S
H595 C569 0.979 . S
H596 C569 0.980 . S
H597 C569 0.983 . S
H598 C542 0.947 . S
C599 C542 1.392 . S
C599 C543 1.419 . S
C599 H581 0.948 . S
C600 C601 1.391 . S
C600 C604 1.391 . S
C600 H642 0.948 . S
C601 C600 1.391 . S
C601 C602 1.391 . S
C602 C601 1.391 . S
C602 H658 0.947 . S
C602 C659 1.392 . S
C603 C604 1.391 . S
C603 C607 1.397 . S
C603 C659 1.419 . S
C604 C600 1.391 . S
C604 C603 1.391 . S
C604 C605 1.399 . S
C605 C604 1.399 . S
C605 C608 1.396 . S
C605 C617 1.453 . S
C605 C618 1.684 . S
H606 C630 0.948 . S
C607 C603 1.397 . S
C607 C608 1.394 . S
C607 C626 1.723 . S
C608 C605 1.396 . S
C608 C607 1.394 . S
C608 C638 1.723 . S
H609 C632 0.947 . S
H610 C633 0.948 . S
H611 C639 0.982 . S
H612 C640 0.979 . S
H613 C640 0.980 . S
H614 C640 0.983 . S
H615 C639 0.979 . S
H616 C639 0.977 . S
C617 C605 1.453 . S
C617 H646 0.982 . S
C617 H647 0.979 . S
C617 H648 0.977 . S
C618 C605 1.684 . S
C618 H643 0.979 . S
C618 H644 0.980 . S
C618 H645 0.983 . S
C619 C620 1.391 . S
C619 C624 1.391 . S
C619 H649 0.948 . S
C620 C619 1.391 . S
C620 C621 1.391 . S
C621 C620 1.391 . S
C621 C622 1.392 . S
C621 H650 0.947 . S
C622 C621 1.392 . S
C622 C623 1.419 . S
C622 H651 0.948 . S
C623 C622 1.419 . S
C623 C624 1.391 . S
C623 C627 1.397 . S
C624 C619 1.391 . S
C624 C623 1.391 . S
C624 C625 1.399 . S
C625 C624 1.399 . S
C625 C626 1.396 . S
C625 C628 1.453 . S
C625 C629 1.684 . S
C626 C607 1.723 . S
C626 C625 1.396 . S
C626 C627 1.394 . S
C627 C623 1.397 . S
C627 C626 1.394 . S
C627 C637 1.723 . S
C628 C625 1.453 . S
C628 H652 0.982 . S
C628 H653 0.979 . S
C628 H654 0.977 . S
C629 C625 1.684 . S
C629 H655 0.979 . S
C629 H656 0.980 . S
C629 H657 0.983 . S
C630 H606 0.948 . S
C630 C631 1.391 . S
C630 C635 1.391 . S
C631 C630 1.391 . S
C631 C632 1.391 . S
C632 H609 0.947 . S
C632 C631 1.391 . S
C632 C633 1.392 . S
C633 H610 0.948 . S
C633 C632 1.392 . S
C633 C634 1.419 . S
C634 C633 1.419 . S
C634 C635 1.391 . S
C634 C638 1.397 . S
C635 C630 1.391 . S
C635 C634 1.391 . S
C635 C636 1.399 . S
C636 C635 1.399 . S
C636 C637 1.396 . S
C636 C639 1.453 . S
C636 C640 1.684 . S
C637 C627 1.723 . S
C637 C636 1.396 . S
C637 C638 1.394 . S
C638 C608 1.723 . S
C638 C634 1.397 . S
C638 C637 1.394 . S
C639 H611 0.982 . S
C639 H615 0.979 . S
C639 H616 0.977 . S
C639 C636 1.453 . S
C640 H612 0.979 . S
C640 H613 0.980 . S
C640 H614 0.983 . S
C640 C636 1.684 . S
H641 C659 0.948 . S
H642 C600 0.948 . S
H643 C618 0.979 . S
H644 C618 0.980 . S
H645 C618 0.983 . S
H646 C617 0.982 . S
H647 C617 0.979 . S
H648 C617 0.977 . S
H649 C619 0.948 . S
H650 C621 0.947 . S
H651 C622 0.948 . S
H652 C628 0.982 . S
H653 C628 0.979 . S
H654 C628 0.977 . S
H655 C629 0.979 . S
H656 C629 0.980 . S
H657 C629 0.983 . S
H658 C602 0.947 . S
C659 C602 1.392 . S
C659 C603 1.419 . S
C659 H641 0.948 . S
C660 C661 1.391 . S
C660 C664 1.391 . S
C660 H702 0.948 . S
C661 C660 1.391 . S
C661 C662 1.391 . S
C662 C661 1.391 . S
C662 H718 0.947 . S
C662 C719 1.392 . S
C663 C664 1.391 . S
C663 C667 1.397 . S
C663 C719 1.419 . S
C664 C660 1.391 . S
C664 C663 1.391 . S
C664 C665 1.399 . S
C665 C664 1.399 . S
C665 C668 1.396 . S
C665 C677 1.453 . S
C665 C678 1.684 . S
H666 C690 0.948 . S
C667 C663 1.397 . S
C667 C668 1.394 . S
C667 C686 1.723 . S
C668 C665 1.396 . S
C668 C667 1.394 . S
C668 C698 1.723 . S
H669 C692 0.947 . S
H670 C693 0.948 . S
H671 C699 0.982 . S
H672 C700 0.979 . S
H673 C700 0.980 . S
H674 C700 0.983 . S
H675 C699 0.979 . S
H676 C699 0.977 . S
C677 C665 1.453 . S
C677 H706 0.982 . S
C677 H707 0.979 . S
C677 H708 0.977 . S
C678 C665 1.684 . S
C678 H703 0.979 . S
C678 H704 0.980 . S
C678 H705 0.983 . S
C679 C680 1.391 . S
C679 C684 1.391 . S
C679 H709 0.948 . S
C680 C679 1.391 . S
C680 C681 1.391 . S
C681 C680 1.391 . S
C681 C682 1.392 . S
C681 H710 0.947 . S
C682 C681 1.392 . S
C682 C683 1.419 . S
C682 H711 0.948 . S
C683 C682 1.419 . S
C683 C684 1.391 . S
C683 C687 1.397 . S
C684 C679 1.391 . S
C684 C683 1.391 . S
C684 C685 1.399 . S
C685 C684 1.399 . S
C685 C686 1.396 . S
C685 C688 1.453 . S
C685 C689 1.684 . S
C686 C667 1.723 . S
C686 C685 1.396 . S
C686 C687 1.394 . S
C687 C683 1.397 . S
C687 C686 1.394 . S
C687 C697 1.723 . S
C688 C685 1.453 . S
C688 H712 0.982 . S
C688 H713 0.979 . S
C688 H714 0.977 . S
C689 C685 1.684 . S
C689 H715 0.979 . S
C689 H716 0.980 . S
C689 H717 0.983 . S
C690 H666 0.948 . S
C690 C691 1.391 . S
C690 C695 1.391 . S
C691 C690 1.391 . S
C691 C692 1.391 . S
C692 H669 0.947 . S
C692 C691 1.391 . S
C692 C693 1.392 . S
C693 H670 0.948 . S
C693 C692 1.392 . S
C693 C694 1.419 . S
C694 C693 1.419 . S
C694 C695 1.391 . S
C694 C698 1.397 . S
C695 C690 1.391 . S
C695 C694 1.391 . S
C695 C696 1.399 . S
C696 C695 1.399 . S
C696 C697 1.396 . S
C696 C699 1.453 . S
C696 C700 1.684 . S
C697 C687 1.723 . S
C697 C696 1.396 . S
C697 C698 1.394 . S
C698 C668 1.723 . S
C698 C694 1.397 . S
C698 C697 1.394 . S
C699 H671 0.982 . S
C699 H675 0.979 . S
C699 H676 0.977 . S
C699 C696 1.453 . S
C700 H672 0.979 . S
C700 H673 0.980 . S
C700 H674 0.983 . S
C700 C696 1.684 . S
H701 C719 0.948 . S
H702 C660 0.948 . S
H703 C678 0.979 . S
H704 C678 0.980 . S
H705 C678 0.983 . S
H706 C677 0.982 . S
H707 C677 0.979 . S
H708 C677 0.977 . S
H709 C679 0.948 . S
H710 C681 0.947 . S
H711 C682 0.948 . S
H712 C688 0.982 . S
H713 C688 0.979 . S
H714 C688 0.977 . S
H715 C689 0.979 . S
H716 C689 0.980 . S
H717 C689 0.983 . S
H718 C662 0.947 . S
C719 C662 1.392 . S
C719 C663 1.419 . S
C719 H701 0.948 . S
C720 C721 1.391 . S
C720 C724 1.391 . S
C720 H762 0.948 . S
C721 C720 1.391 . S
C721 C722 1.391 . S
C722 C721 1.391 . S
C722 H778 0.947 . S
C722 C779 1.392 . S
C723 C724 1.391 . S
C723 C727 1.397 . S
C723 C779 1.419 . S
C724 C720 1.391 . S
C724 C723 1.391 . S
C724 C725 1.399 . S
C725 C724 1.399 . S
C725 C728 1.396 . S
C725 C737 1.453 . S
C725 C738 1.684 . S
H726 C750 0.948 . S
C727 C723 1.397 . S
C727 C728 1.394 . S
C727 C746 1.723 . S
C728 C725 1.396 . S
C728 C727 1.394 . S
C728 C758 1.723 . S
H729 C752 0.947 . S
H730 C753 0.948 . S
H731 C759 0.982 . S
H732 C760 0.979 . S
H733 C760 0.980 . S
H734 C760 0.983 . S
H735 C759 0.979 . S
H736 C759 0.977 . S
C737 C725 1.453 . S
C737 H766 0.982 . S
C737 H767 0.979 . S
C737 H768 0.977 . S
C738 C725 1.684 . S
C738 H763 0.979 . S
C738 H764 0.980 . S
C738 H765 0.983 . S
C739 C740 1.391 . S
C739 C744 1.391 . S
C739 H769 0.948 . S
C740 C739 1.391 . S
C740 C741 1.391 . S
C741 C740 1.391 . S
C741 C742 1.392 . S
C741 H770 0.947 . S
C742 C741 1.392 . S
C742 C743 1.419 . S
C742 H771 0.948 . S
C743 C742 1.419 . S
C743 C744 1.391 . S
C743 C747 1.397 . S
C744 C739 1.391 . S
C744 C743 1.391 . S
C744 C745 1.399 . S
C745 C744 1.399 . S
C745 C746 1.396 . S
C745 C748 1.453 . S
C745 C749 1.684 . S
C746 C727 1.723 . S
C746 C745 1.396 . S
C746 C747 1.394 . S
C747 C743 1.397 . S
C747 C746 1.394 . S
C747 C757 1.723 . S
C748 C745 1.453 . S
C748 H772 0.982 . S
C748 H773 0.979 . S
C748 H774 0.977 . S
C749 C745 1.684 . S
C749 H775 0.979 . S
C749 H776 0.980 . S
C749 H777 0.983 . S
C750 H726 0.948 . S
C750 C751 1.391 . S
C750 C755 1.391 . S
C751 C750 1.391 . S
C751 C752 1.391 . S
C752 H729 0.947 . S
C752 C751 1.391 . S
C752 C753 1.392 . S
C753 H730 0.948 . S
C753 C752 1.392 . S
C753 C754 1.419 . S
C754 C753 1.419 . S
C754 C755 1.391 . S
C754 C758 1.397 . S
C755 C750 1.391 . S
C755 C754 1.391 . S
C755 C756 1.399 . S
C756 C755 1.399 . S
C756 C757 1.396 . S
C756 C759 1.453 . S
C756 C760 1.684 . S
C757 C747 1.723 . S
C757 C756 1.396 . S
C757 C758 1.394 . S
C758 C728 1.723 . S
C758 C754 1.397 . S
C758 C757 1.394 . S
C759 H731 0.982 . S
C759 H735 0.979 . S
C759 H736 0.977 . S
C759 C756 1.453 . S
C760 H732 0.979 . S
C760 H733 0.980 . S
C760 H734 0.983 . S
C760 C756 1.684 . S
H761 C779 0.948 . S
H762 C720 0.948 . S
H763 C738 0.979 . S
H764 C738 0.980 . S
H765 C738 0.983 . S
H766 C737 0.982 . S
H767 C737 0.979 . S
H768 C737 0.977 . S
H769 C739 0.948 . S
H770 C741 0.947 . S
H771 C742 0.948 . S
H772 C748 0.982 . S
H773 C748 0.979 . S
H774 C748 0.977 . S
H775 C749 0.979 . S
H776 C749 0.980 . S
H777 C749 0.983 . S
H778 C722 0.947 . S
C779 C722 1.392 . S
C779 C723 1.419 . S
C779 H761 0.948 . S
C780 C781 1.391 . S
C780 C784 1.391 . S
C780 H822 0.948 . S
C781 C780 1.391 . S
C781 C782 1.391 . S
C782 C781 1.391 . S
C782 H838 0.947 . S
C782 C839 1.392 . S
C783 C784 1.391 . S
C783 C787 1.397 . S
C783 C839 1.419 . S
C784 C780 1.391 . S
C784 C783 1.391 . S
C784 C785 1.399 . S
C785 C784 1.399 . S
C785 C788 1.396 . S
C785 C797 1.453 . S
C785 C798 1.684 . S
H786 C810 0.948 . S
C787 C783 1.397 . S
C787 C788 1.394 . S
C787 C806 1.723 . S
C788 C785 1.396 . S
C788 C787 1.394 . S
C788 C818 1.723 . S
H789 C812 0.947 . S
H790 C813 0.948 . S
H791 C819 0.982 . S
H792 C820 0.979 . S
H793 C820 0.980 . S
H794 C820 0.983 . S
H795 C819 0.979 . S
H796 C819 0.977 . S
C797 C785 1.453 . S
C797 H826 0.982 . S
C797 H827 0.979 . S
C797 H828 0.977 . S
C798 C785 1.684 . S
C798 H823 0.979 . S
C798 H824 0.980 . S
C798 H825 0.983 . S
C799 C800 1.391 . S
C799 C804 1.391 . S
C799 H829 0.948 . S
C800 C799 1.391 . S
C800 C801 1.391 . S
C801 C800 1.391 . S
C801 C802 1.392 . S
C801 H830 0.947 . S
C802 C801 1.392 . S
C802 C803 1.419 . S
C802 H831 0.948 . S
C803 C802 1.419 . S
C803 C804 1.391 . S
C803 C807 1.397 . S
C804 C799 1.391 . S
C804 C803 1.391 . S
C804 C805 1.399 . S
C805 C804 1.399 . S
C805 C806 1.396 . S
C805 C808 1.453 . S
C805 C809 1.684 . S
C806 C787 1.723 . S
C806 C805 1.396 . S
C806 C807 1.394 . S
C807 C803 1.397 . S
C807 C806 1.394 . S
C807 C817 1.723 . S
C808 C805 1.453 . S
C808 H832 0.982 . S
C808 H833 0.979 . S
C808 H834 0.977 . S
C809 C805 1.684 . S
C809 H835 0.979 . S
C809 H836 0.980 . S
C809 H837 0.983 . S
C810 H786 0.948 . S
C810 C811 1.391 . S
C810 C815 1.391 . S
C811 C810 1.391 . S
C811 C812 1.391 . S
C812 H789 0.947 . S
C812 C811 1.391 . S
C812 C813 1.392 . S
C813 H790 0.948 . S
C813 C812 1.392 . S
C813 C814 1.419 . S
C814 C813 1.419 . S
C814 C815 1.391 . S
C814 C818 1.397 . S
C815 C810 1.391 . S
C815 C814 1.391 . S
C815 C816 1.399 . S
C816 C815 1.399 . S
C816 C817 1.396 . S
C816 C819 1.453 . S
C816 C820 1.684 . S
C817 C807 1.723 . S
C817 C816 1.396 . S
C817 C818 1.394 . S
C818 C788 1.723 . S
C818 C814 1.397 . S
C818 C817 1.394 . S
C819 H791 0.982 . S
C819 H795 0.979 . S
C819 H796 0.977 . S
C819 C816 1.453 . S
C820 H792 0.979 . S
C820 H793 0.980 . S
C820 H794 0.983 . S
C820 C816 1.684 . S
H821 C839 0.948 . S
H822 C780 0.948 . S
H823 C798 0.979 . S
H824 C798 0.980 . S
H825 C798 0.983 . S
H826 C797 0.982 . S
H827 C797 0.979 . S
H828 C797 0.977 . S
H829 C799 0.948 . S
H830 C801 0.947 . S
H831 C802 0.948 . S
H832 C808 0.982 . S
H833 C808 0.979 . S
H834 C808 0.977 . S
H835 C809 0.979 . S
H836 C809 0.980 . S
H837 C809 0.983 . S
H838 C782 0.947 . S
C839 C782 1.392 . S
C839 C783 1.419 . S
C839 H821 0.948 . S
C840 C841 1.391 . S
C840 C844 1.391 . S
C840 H882 0.948 . S
C841 C840 1.391 . S
C841 C842 1.391 . S
C842 C841 1.391 . S
C842 H898 0.947 . S
C842 C899 1.392 . S
C843 C844 1.391 . S
C843 C847 1.397 . S
C843 C899 1.419 . S
C844 C840 1.391 . S
C844 C843 1.391 . S
C844 C845 1.399 . S
C845 C844 1.399 . S
C845 C848 1.396 . S
C845 C857 1.453 . S
C845 C858 1.684 . S
H846 C870 0.948 . S
C847 C843 1.397 . S
C847 C848 1.394 . S
C847 C866 1.723 . S
C848 C845 1.396 . S
C848 C847 1.394 . S
C848 C878 1.723 . S
H849 C872 0.947 . S
H850 C873 0.948 . S
H851 C879 0.982 . S
H852 C880 0.979 . S
H853 C880 0.980 . S
H854 C880 0.983 . S
H855 C879 0.979 . S
H856 C879 0.977 . S
C857 C845 1.453 . S
C857 H886 0.982 . S
C857 H887 0.979 . S
C857 H888 0.977 . S
C858 C845 1.684 . S
C858 H883 0.979 . S
C858 H884 0.980 . S
C858 H885 0.983 . S
C859 C860 1.391 . S
C859 C864 1.391 . S
C859 H889 0.948 . S
C860 C859 1.391 . S
C860 C861 1.391 . S
C861 C860 1.391 . S
C861 C862 1.392 . S
C861 H890 0.947 . S
C862 C861 1.392 . S
C862 C863 1.419 . S
C862 H891 0.948 . S
C863 C862 1.419 . S
C863 C864 1.391 . S
C863 C867 1.397 . S
C864 C859 1.391 . S
C864 C863 1.391 . S
C864 C865 1.399 . S
C865 C864 1.399 . S
C865 C866 1.396 . S
C865 C868 1.453 . S
C865 C869 1.684 . S
C866 C847 1.723 . S
C866 C865 1.396 . S
C866 C867 1.394 . S
C867 C863 1.397 . S
C867 C866 1.394 . S
C867 C877 1.723 . S
C868 C865 1.453 . S
C868 H892 0.982 . S
C868 H893 0.979 . S
C868 H894 0.977 . S
C869 C865 1.684 . S
C869 H895 0.979 . S
C869 H896 0.980 . S
C869 H897 0.983 . S
C870 H846 0.948 . S
C870 C871 1.391 . S
C870 C875 1.391 . S
C871 C870 1.391 . S
C871 C872 1.391 . S
C872 H849 0.947 . S
C872 C871 1.391 . S
C872 C873 1.392 . S
C873 H850 0.948 . S
C873 C872 1.392 . S
C873 C874 1.419 . S
C874 C873 1.419 . S
C874 C875 1.391 . S
C874 C878 1.397 . S
C875 C870 1.391 . S
C875 C874 1.391 . S
C875 C876 1.399 . S
C876 C875 1.399 . S
C876 C877 1.396 . S
C876 C879 1.453 . S
C876 C880 1.684 . S
C877 C867 1.723 . S
C877 C876 1.396 . S
C877 C878 1.394 . S
C878 C848 1.723 . S
C878 C874 1.397 . S
C878 C877 1.394 . S
C879 H851 0.982 . S
C879 H855 0.979 . S
C879 H856 0.977 . S
C879 C876 1.453 . S
C880 H852 0.979 . S
C880 H853 0.980 . S
C880 H854 0.983 . S
C880 C876 1.684 . S
H881 C899 0.948 . S
H882 C840 0.948 . S
H883 C858 0.979 . S
H884 C858 0.980 . S
H885 C858 0.983 . S
H886 C857 0.982 . S
H887 C857 0.979 . S
H888 C857 0.977 . S
H889 C859 0.948 . S
H890 C861 0.947 . S
H891 C862 0.948 . S
H892 C868 0.982 . S
H893 C868 0.979 . S
H894 C868 0.977 . S
H895 C869 0.979 . S
H896 C869 0.980 . S
H897 C869 0.983 . S
H898 C842 0.947 . S
C899 C842 1.392 . S
C899 C843 1.419 . S
C899 H881 0.948 . S
C900 C901 1.391 . S
C900 C904 1.391 . S
C900 H942 0.948 . S
C901 C900 1.391 . S
C901 C902 1.391 . S
C902 C901 1.391 . S
C902 H958 0.947 . S
C902 C959 1.392 . S
C903 C904 1.391 . S
C903 C907 1.397 . S
C903 C959 1.419 . S
C904 C900 1.391 . S
C904 C903 1.391 . S
C904 C905 1.399 . S
C905 C904 1.399 . S
C905 C908 1.396 . S
C905 C917 1.453 . S
C905 C918 1.684 . S
H906 C930 0.948 . S
C907 C903 1.397 . S
C907 C908 1.394 . S
C907 C926 1.723 . S
C908 C905 1.396 . S
C908 C907 1.394 . S
C908 C938 1.723 . S
H909 C932 0.947 . S
H910 C933 0.948 . S
H911 C939 0.982 . S
H912 C940 0.979 . S
H913 C940 0.980 . S
H914 C940 0.983 . S
H915 C939 0.979 . S
H916 C939 0.977 . S
C917 C905 1.453 . S
C917 H946 0.982 . S
C917 H947 0.979 . S
C917 H948 0.977 . S
C918 C905 1.684 . S
C918 H943 0.979 . S
C918 H944 0.980 . S
C918 H945 0.983 . S
C919 C920 1.391 . S
C919 C924 1.391 . S
C919 H949 0.948 . S
C920 C919 1.391 . S
C920 C921 1.391 . S
C921 C920 1.391 . S
C921 C922 1.392 . S
C921 H950 0.947 . S
C922 C921 1.392 . S
C922 C923 1.419 . S
C922 H951 0.948 . S
C923 C922 1.419 . S
C923 C924 1.391 . S
C923 C927 1.397 . S
C924 C919 1.391 . S
C924 C923 1.391 . S
C924 C925 1.399 . S
C925 C924 1.399 . S
C925 C926 1.396 . S
C925 C928 1.453 . S
C925 C929 1.684 . S
C926 C907 1.723 . S
C926 C925 1.396 . S
C926 C927 1.394 . S
C927 C923 1.397 . S
C927 C926 1.394 . S
C927 C937 1.723 . S
C928 C925 1.453 . S
C928 H952 0.982 . S
C928 H953 0.979 . S
C928 H954 0.977 . S
C929 C925 1.684 . S
C929 H955 0.979 . S
C929 H956 0.980 . S
C929 H957 0.983 . S
C930 H906 0.948 . S
C930 C931 1.391 . S
C930 C935 1.391 . S
C931 C930 1.391 . S
C931 C932 1.391 . S
C932 H909 0.947 . S
C932 C931 1.391 . S
C932 C933 1.392 . S
C933 H910 0.948 . S
C933 C932 1.392 . S
C933 C934 1.419 . S
C934 C933 1.419 . S
C934 C935 1.391 . S
C934 C938 1.397 . S
C935 C930 1.391 . S
C935 C934 1.391 . S
C935 C936 1.399 . S
C936 C935 1.399 . S
C936 C937 1.396 . S
C936 C939 1.453 . S
C936 C940 1.684 . S
C937 C927 1.723 . S
C937 C936 1.396 . S
C937 C938 1.394 . S
C938 C908 1.723 . S
C938 C934 1.397 . S
C938 C937 1.394 . S
C939 H911 0.982 . S
C939 H915 0.979 . S
C939 H916 0.977 . S
C939 C936 1.453 . S
C940 H912 0.979 . S
C940 H913 0.980 . S
C940 H914 0.983 . S
C940 C936 1.684 . S
H941 C959 0.948 . S
H942 C900 0.948 . S
H943 C918 0.979 . S
H944 C918 0.980 . S
H945 C918 0.983 . S
H946 C917 0.982 . S
H947 C917 0.979 . S
H948 C917 0.977 . S
H949 C919 0.948 . S
H950 C921 0.947 . S
H951 C922 0.948 . S
H952 C928 0.982 . S
H953 C928 0.979 . S
H954 C928 0.977 . S
H955 C929 0.979 . S
H956 C929 0.980 . S
H957 C929 0.983 . S
H958 C902 0.947 . S
C959 C902 1.392 . S
C959 C903 1.419 . S
C959 H941 0.948 . S
C960 C961 1.391 . S
C960 C964 1.391 . S
C960 H1002 0.948 . S
C961 C960 1.391 . S
C961 C962 1.391 . S
C962 C961 1.391 . S
C962 H1018 0.947 . S
C962 C1019 1.392 . S
C963 C964 1.391 . S
C963 C967 1.397 . S
C963 C1019 1.419 . S
C964 C960 1.391 . S
C964 C963 1.391 . S
C964 C965 1.399 . S
C965 C964 1.399 . S
C965 C968 1.396 . S
C965 C977 1.453 . S
C965 C978 1.684 . S
H966 C990 0.948 . S
C967 C963 1.397 . S
C967 C968 1.394 . S
C967 C986 1.723 . S
C968 C965 1.396 . S
C968 C967 1.394 . S
C968 C998 1.723 . S
H969 C992 0.947 . S
H970 C993 0.948 . S
H971 C999 0.982 . S
H972 C1000 0.979 . S
H973 C1000 0.980 . S
H974 C1000 0.983 . S
H975 C999 0.979 . S
H976 C999 0.977 . S
C977 C965 1.453 . S
C977 H1006 0.982 . S
C977 H1007 0.979 . S
C977 H1008 0.977 . S
C978 C965 1.684 . S
C978 H1003 0.979 . S
C978 H1004 0.980 . S
C978 H1005 0.983 . S
C979 C980 1.391 . S
C979 C984 1.391 . S
C979 H1009 0.948 . S
C980 C979 1.391 . S
C980 C981 1.391 . S
C981 C980 1.391 . S
C981 C982 1.392 . S
C981 H1010 0.947 . S
C982 C981 1.392 . S
C982 C983 1.419 . S
C982 H1011 0.948 . S
C983 C982 1.419 . S
C983 C984 1.391 . S
C983 C987 1.397 . S
C984 C979 1.391 . S
C984 C983 1.391 . S
C984 C985 1.399 . S
C985 C984 1.399 . S
C985 C986 1.396 . S
C985 C988 1.453 . S
C985 C989 1.684 . S
C986 C967 1.723 . S
C986 C985 1.396 . S
C986 C987 1.394 . S
C987 C983 1.397 . S
C987 C986 1.394 . S
C987 C997 1.723 . S
C988 C985 1.453 . S
C988 H1012 0.982 . S
C988 H1013 0.979 . S
C988 H1014 0.977 . S
C989 C985 1.684 . S
C989 H1015 0.979 . S
C989 H1016 0.980 . S
C989 H1017 0.983 . S
C990 H966 0.948 . S
C990 C991 1.391 . S
C990 C995 1.391 . S
C991 C990 1.391 . S
C991 C992 1.391 . S
C992 H969 0.947 . S
C992 C991 1.391 . S
C992 C993 1.392 . S
C993 H970 0.948 . S
C993 C992 1.392 . S
C993 C994 1.419 . S
C994 C993 1.419 . S
C994 C995 1.391 . S
C994 C998 1.397 . S
C995 C990 1.391 . S
C995 C994 1.391 . S
C995 C996 1.399 . S
C996 C995 1.399 . S
C996 C997 1.396 . S
C996 C999 1.453 . S
C996 C1000 1.684 . S
C997 C987 1.723 . S
C997 C996 1.396 . S
C997 C998 1.394 . S
C998 C968 1.723 . S
C998 C994 1.397 . S
C998 C997 1.394 . S
C999 H971 0.982 . S
C999 H975 0.979 . S
C999 H976 0.977 . S
C999 C996 1.453 . S
C1000 H972 0.979 . S
C1000 H973 0.980 . S
C1000 H974 0.983 . S
C1000 C996 1.684 . S
H1001 C1019 0.948 . S
H1002 C960 0.948 . S
H1003 C978 0.979 . S
H1004 C978 0.980 . S
H1005 C978 0.983 . S
H1006 C977 0.982 . S
H1007 C977 0.979 . S
H1008 C977 0.977 . S
H1009 C979 0.948 . S
H1010 C981 0.947 . S
H1011 C982 0.948 . S
H1012 C988 0.982 . S
H1013 C988 0.979 . S
H1014 C988 0.977 . S
H1015 C989 0.979 . S
H1016 C989 0.980 . S
H1017 C989 0.983 . S
H1018 C962 0.947 . S
C1019 C962 1.392 . S
C1019 C963 1.419 . S
C1019 H1001 0.948 . S
C1020 C1021 1.391 . S
C1020 C1024 1.391 . S
C1020 H1062 0.948 . S
C1021 C1020 1.391 . S
C1021 C1022 1.391 . S
C1022 C1021 1.391 . S
C1022 H1078 0.947 . S
C1022 C1079 1.392 . S
C1023 C1024 1.391 . S
C1023 C1027 1.397 . S
C1023 C1079 1.419 . S
C1024 C1020 1.391 . S
C1024 C1023 1.391 . S
C1024 C1025 1.399 . S
C1025 C1024 1.399 . S
C1025 C1028 1.396 . S
C1025 C1037 1.453 . S
C1025 C1038 1.684 . S
H1026 C1050 0.948 . S
C1027 C1023 1.397 . S
C1027 C1028 1.394 . S
C1027 C1046 1.723 . S
C1028 C1025 1.396 . S
C1028 C1027 1.394 . S
C1028 C1058 1.723 . S
H1029 C1052 0.947 . S
H1030 C1053 0.948 . S
H1031 C1059 0.982 . S
H1032 C1060 0.979 . S
H1033 C1060 0.980 . S
H1034 C1060 0.983 . S
H1035 C1059 0.979 . S
H1036 C1059 0.977 . S
C1037 C1025 1.453 . S
C1037 H1066 0.982 . S
C1037 H1067 0.979 . S
C1037 H1068 0.977 . S
C1038 C1025 1.684 . S
C1038 H1063 0.979 . S
C1038 H1064 0.980 . S
C1038 H1065 0.983 . S
C1039 C1040 1.391 . S
C1039 C1044 1.391 . S
C1039 H1069 0.948 . S
C1040 C1039 1.391 . S
C1040 C1041 1.391 . S
C1041 C1040 1.391 . S
C1041 C1042 1.392 . S
C1041 H1070 0.947 . S
C1042 C1041 1.392 . S
C1042 C1043 1.419 . S
C1042 H1071 0.948 . S
C1043 C1042 1.419 . S
C1043 C1044 1.391 . S
C1043 C1047 1.397 . S
C1044 C1039 1.391 . S
C1044 C1043 1.391 . S
C1044 C1045 1.399 . S
C1045 C1044 1.399 . S
C1045 C1046 1.396 . S
C1045 C1048 1.453 . S
C1045 C1049 1.684 . S
C1046 C1027 1.723 . S
C1046 C1045 1.396 . S
C1046 C1047 1.394 . S
C1047 C1043 1.397 . S
C1047 C1046 1.394 . S
C1047 C1057 1.723 . S
C1048 C1045 1.453 . S
C1048 H1072 0.982 . S
C1048 H1073 0.979 . S
C1048 H1074 0.977 . S
C1049 C1045 1.684 . S
C1049 H1075 0.979 . S
C1049 H1076 0.980 . S
C1049 H1077 0.983 . S
C1050 H1026 0.948 . S
C1050 C1051 1.391 . S
C1050 C1055 1.391 . S
C1051 C1050 1.391 . S
C1051 C1052 1.391 . S
C1052 H1029 0.947 . S
C1052 C1051 1.391 . S
C1052 C1053 1.392 . S
C1053 H1030 0.948 . S
C1053 C1052 1.392 . S
C1053 C1054 1.419 . S
C1054 C1053 1.419 . S
C1054 C1055 1.391 . S
C1054 C1058 1.397 . S
C1055 C1050 1.391 . S
C1055 C1054 1.391 . S
C1055 C1056 1.399 . S
C1056 C1055 1.399 . S
C1056 C1057 1.396 . S
C1056 C1059 1.453 . S
C1056 C1060 1.684 . S
C1057 C1047 1.723 . S
C1057 C1056 1.396 . S
C1057 C1058 1.394 . S
C1058 C1028 1.723 . S
C1058 C1054 1.397 . S
C1058 C1057 1.394 . S
C1059 H1031 0.982 . S
C1059 H1035 0.979 . S
C1059 H1036 0.977 . S
C1059 C1056 1.453 . S
C1060 H1032 0.979 . S
C1060 H1033 0.980 . S
C1060 H1034 0.983 . S
C1060 C1056 1.684 . S
H1061 C1079 0.948 . S
H1062 C1020 0.948 . S
H1063 C1038 0.979 . S
H1064 C1038 0.980 . S
H1065 C1038 0.983 . S
H1066 C1037 0.982 . S
H1067 C1037 0.979 . S
H1068 C1037 0.977 . S
H1069 C1039 0.948 . S
H1070 C1041 0.947 . S
H1071 C1042 0.948 . S
H1072 C1048 0.982 . S
H1073 C1048 0.979 . S
H1074 C1048 0.977 . S
H1075 C1049 0.979 . S
H1076 C1049 0.980 . S
H1077 C1049 0.983 . S
H1078 C1022 0.947 . S
C1079 C1022 1.392 . S
C1079 C1023 1.419 . S
C1079 H1061 0.948 . S
Gd1080 N1111 2.661 . S
Gd1080 N1117 2.601 . S
Gd1080 O1124 2.545 . S
Gd1080 O1125 2.606 1_545 S
Gd1080 O1127 2.429 . S
Gd1080 O1128 2.545 1_545 S
Gd1080 O1129 2.412 . S
Gd1080 O1131 2.362 1_554 S
Gd1080 O1132 2.324 1_545 S
Gd1080 C1139 2.828 . S
Gd1081 N1090 2.661 . S
Gd1081 N1094 2.601 . S
Gd1081 O1125 2.362 1_556 S
Gd1081 O1126 2.324 1_565 S
Gd1081 O1130 2.545 . S
Gd1081 O1131 2.606 1_565 S
Gd1081 O1133 2.429 . S
Gd1081 O1134 2.545 1_565 S
Gd1081 O1135 2.412 . S
Gd1081 C1148 2.828 . S
C1082 C1085 1.417 . S
C1082 C1087 1.431 . S
C1082 C1088 1.412 . S
C1083 C1086 1.437 . S
C1083 C1087 1.317 . S
C1083 H1102 0.929 . S
C1084 C1085 1.426 . S
C1084 C1086 1.413 . S
C1084 N1094 1.359 . S
C1085 C1082 1.417 . S
C1085 C1084 1.426 . S
C1085 N1090 1.350 . S
C1086 C1083 1.437 . S
C1086 C1084 1.413 . S
C1086 C1096 1.391 . S
C1087 C1082 1.431 . S
C1087 C1083 1.317 . S
C1087 H1098 0.930 . S
C1088 C1082 1.412 . S
C1088 C1089 1.355 . S
C1088 H1100 0.930 . S
C1089 C1088 1.355 . S
C1089 C1091 1.402 . S
C1089 H1101 0.930 . S
N1090 Gd1081 2.661 . S
N1090 C1085 1.350 . S
N1090 C1091 1.307 . S
C1091 C1089 1.402 . S
C1091 N1090 1.307 . S
C1091 H1092 0.930 . S
H1092 C1091 0.930 . S
C1093 N1094 1.334 . S
C1093 C1095 1.394 . S
C1093 H1097 0.930 . S
N1094 Gd1081 2.601 . S
N1094 C1084 1.359 . S
N1094 C1093 1.334 . S
C1095 C1093 1.394 . S
C1095 C1096 1.359 . S
C1095 H1107 0.930 . S
C1096 C1086 1.391 . S
C1096 C1095 1.359 . S
C1096 H1108 0.929 . S
H1097 C1093 0.930 . S
H1098 C1087 0.930 . S
H1099 C1116 0.930 . S
H1100 C1088 0.930 . S
H1101 C1089 0.930 . S
H1102 C1083 0.929 . S
H1103 C1121 0.930 . S
H1104 C1112 0.930 . S
H1105 C1113 0.930 . S
H1106 C1137 0.929 . S
H1107 C1095 0.930 . S
H1108 C1096 0.929 . S
H1109 C1138 0.930 . S
H1110 C1119 0.930 . S
N1111 Gd1080 2.661 . S
N1111 C1115 1.350 . S
N1111 C1116 1.307 . S
C1112 H1104 0.930 . S
C1112 C1113 1.355 . S
C1112 C1114 1.412 . S
C1113 H1105 0.930 . S
C1113 C1112 1.355 . S
C1113 C1116 1.402 . S
C1114 C1112 1.412 . S
C1114 C1115 1.417 . S
C1114 C1138 1.431 . S
C1115 N1111 1.350 . S
C1115 C1114 1.417 . S
C1115 C1118 1.426 . S
C1116 H1099 0.930 . S
C1116 N1111 1.307 . S
C1116 C1113 1.402 . S
N1117 Gd1080 2.601 . S
N1117 C1118 1.359 . S
N1117 C1121 1.334 . S
C1118 C1115 1.426 . S
C1118 N1117 1.359 . S
C1118 C1122 1.413 . S
C1119 H1110 0.930 . S
C1119 C1120 1.359 . S
C1119 C1121 1.394 . S
C1120 C1119 1.359 . S
C1120 C1122 1.391 . S
C1120 H1123 0.929 . S
C1121 H1103 0.930 . S
C1121 N1117 1.334 . S
C1121 C1119 1.394 . S
C1122 C1118 1.413 . S
C1122 C1120 1.391 . S
C1122 C1137 1.437 . S
H1123 C1120 0.929 . S
O1124 Gd1080 2.545 . S
O1124 C1139 1.258 . S
O1125 Gd1080 2.606 1_565 S
O1125 Gd1081 2.362 1_554 S
O1125 C1136 1.284 . S
O1126 Gd1081 2.324 1_545 S
O1126 C1146 1.254 . S
O1127 Gd1080 2.429 . S
O1127 C1146 1.268 1_554 S
O1128 Gd1080 2.545 1_565 S
O1128 C1136 1.250 . S
O1129 Gd1080 2.412 . S
O1129 C1139 1.252 . S
O1130 Gd1081 2.545 . S
O1130 C1148 1.258 . S
O1131 Gd1080 2.362 1_556 S
O1131 Gd1081 2.606 1_545 S
O1131 C1147 1.284 . S
O1132 Gd1080 2.324 1_565 S
O1132 C1155 1.254 . S
O1133 Gd1081 2.429 . S
O1133 C1155 1.268 1_556 S
O1134 Gd1081 2.545 1_545 S
O1134 C1147 1.250 . S
O1135 Gd1081 2.412 . S
O1135 C1148 1.252 . S
C1136 O1125 1.284 . S
C1136 O1128 1.250 . S
C1137 H1106 0.929 . S
C1137 C1122 1.437 . S
C1137 C1138 1.317 . S
C1138 H1109 0.930 . S
C1138 C1114 1.431 . S
C1138 C1137 1.317 . S
C1139 Gd1080 2.828 . S
C1139 O1124 1.258 . S
C1139 O1129 1.252 . S
C1139 C1140 1.497 . S
C1140 C1139 1.497 . S
C1140 C1141 1.395 . S
C1140 C1142 1.380 1_545 S
C1141 C1140 1.395 . S
C1141 C1144 1.398 . S
C1141 H1156 0.930 . S
C1142 C1140 1.380 1_565 S
C1142 C1143 1.391 . S
C1142 H1157 0.930 . S
C1143 C1142 1.391 . S
C1143 C1145 1.387 1_565 S
C1144 C1141 1.398 . S
C1144 C1145 1.380 . S
C1144 H1158 0.930 . S
C1145 C1143 1.387 1_545 S
C1145 C1144 1.380 . S
C1145 H1159 0.930 . S
C1146 O1126 1.254 . S
C1146 O1127 1.268 1_556 S
C1147 O1131 1.284 . S
C1147 O1134 1.250 . S
C1148 Gd1081 2.828 . S
C1148 O1130 1.258 . S
C1148 O1135 1.252 . S
C1148 C1149 1.497 . S
C1149 C1148 1.497 . S
C1149 C1150 1.395 . S
C1149 C1151 1.380 1_565 S
C1150 C1149 1.395 . S
C1150 C1153 1.398 . S
C1150 H1160 0.930 . S
C1151 C1149 1.380 1_545 S
C1151 C1152 1.391 . S
C1151 H1161 0.930 . S
C1152 C1151 1.391 . S
C1152 C1154 1.387 1_545 S
C1153 C1150 1.398 . S
C1153 C1154 1.380 . S
C1153 H1162 0.930 . S
C1154 C1152 1.387 1_565 S
C1154 C1153 1.380 . S
C1154 H1163 0.930 . S
C1155 O1132 1.254 . S
C1155 O1133 1.268 1_554 S
H1156 C1141 0.930 . S
H1157 C1142 0.930 . S
H1158 C1144 0.930 . S
H1159 C1145 0.930 . S
H1160 C1150 0.930 . S
H1161 C1151 0.930 . S
H1162 C1153 0.930 . S
H1163 C1154 0.930 . S
Gd1164 N1195 2.661 . S
Gd1164 N1201 2.601 . S
Gd1164 O1208 2.545 . S
Gd1164 O1209 2.606 1_655 S
Gd1164 O1211 2.429 . S
Gd1164 O1212 2.545 1_655 S
Gd1164 O1213 2.412 . S
Gd1164 O1215 2.362 1_554 S
Gd1164 O1216 2.324 1_655 S
Gd1164 C1223 2.828 . S
Gd1165 N1174 2.661 . S
Gd1165 N1178 2.601 . S
Gd1165 O1209 2.362 1_556 S
Gd1165 O1210 2.324 1_455 S
Gd1165 O1214 2.545 . S
Gd1165 O1215 2.606 1_455 S
Gd1165 O1217 2.429 . S
Gd1165 O1218 2.545 1_455 S
Gd1165 O1219 2.412 . S
Gd1165 C1232 2.828 . S
C1166 C1169 1.417 . S
C1166 C1171 1.431 . S
C1166 C1172 1.412 . S
C1167 C1170 1.437 . S
C1167 C1171 1.317 . S
C1167 H1186 0.929 . S
C1168 C1169 1.426 . S
C1168 C1170 1.413 . S
C1168 N1178 1.359 . S
C1169 C1166 1.417 . S
C1169 C1168 1.426 . S
C1169 N1174 1.350 . S
C1170 C1167 1.437 . S
C1170 C1168 1.413 . S
C1170 C1180 1.391 . S
C1171 C1166 1.431 . S
C1171 C1167 1.317 . S
C1171 H1182 0.930 . S
C1172 C1166 1.412 . S
C1172 C1173 1.355 . S
C1172 H1184 0.930 . S
C1173 C1172 1.355 . S
C1173 C1175 1.402 . S
C1173 H1185 0.930 . S
N1174 Gd1165 2.661 . S
N1174 C1169 1.350 . S
N1174 C1175 1.307 . S
C1175 C1173 1.402 . S
C1175 N1174 1.307 . S
C1175 H1176 0.930 . S
H1176 C1175 0.930 . S
C1177 N1178 1.334 . S
C1177 C1179 1.394 . S
C1177 H1181 0.930 . S
N1178 Gd1165 2.601 . S
N1178 C1168 1.359 . S
N1178 C1177 1.334 . S
C1179 C1177 1.394 . S
C1179 C1180 1.359 . S
C1179 H1191 0.930 . S
C1180 C1170 1.391 . S
C1180 C1179 1.359 . S
C1180 H1192 0.929 . S
H1181 C1177 0.930 . S
H1182 C1171 0.930 . S
H1183 C1200 0.930 . S
H1184 C1172 0.930 . S
H1185 C1173 0.930 . S
H1186 C1167 0.929 . S
H1187 C1205 0.930 . S
H1188 C1196 0.930 . S
H1189 C1197 0.930 . S
H1190 C1221 0.929 . S
H1191 C1179 0.930 . S
H1192 C1180 0.929 . S
H1193 C1222 0.930 . S
H1194 C1203 0.930 . S
N1195 Gd1164 2.661 . S
N1195 C1199 1.350 . S
N1195 C1200 1.307 . S
C1196 H1188 0.930 . S
C1196 C1197 1.355 . S
C1196 C1198 1.412 . S
C1197 H1189 0.930 . S
C1197 C1196 1.355 . S
C1197 C1200 1.402 . S
C1198 C1196 1.412 . S
C1198 C1199 1.417 . S
C1198 C1222 1.431 . S
C1199 N1195 1.350 . S
C1199 C1198 1.417 . S
C1199 C1202 1.426 . S
C1200 H1183 0.930 . S
C1200 N1195 1.307 . S
C1200 C1197 1.402 . S
N1201 Gd1164 2.601 . S
N1201 C1202 1.359 . S
N1201 C1205 1.334 . S
C1202 C1199 1.426 . S
C1202 N1201 1.359 . S
C1202 C1206 1.413 . S
C1203 H1194 0.930 . S
C1203 C1204 1.359 . S
C1203 C1205 1.394 . S
C1204 C1203 1.359 . S
C1204 C1206 1.391 . S
C1204 H1207 0.929 . S
C1205 H1187 0.930 . S
C1205 N1201 1.334 . S
C1205 C1203 1.394 . S
C1206 C1202 1.413 . S
C1206 C1204 1.391 . S
C1206 C1221 1.437 . S
H1207 C1204 0.929 . S
O1208 Gd1164 2.545 . S
O1208 C1223 1.258 . S
O1209 Gd1164 2.606 1_455 S
O1209 Gd1165 2.362 1_554 S
O1209 C1220 1.284 . S
O1210 Gd1165 2.324 1_655 S
O1210 C1230 1.254 . S
O1211 Gd1164 2.429 . S
O1211 C1230 1.268 1_554 S
O1212 Gd1164 2.545 1_455 S
O1212 C1220 1.250 . S
O1213 Gd1164 2.412 . S
O1213 C1223 1.252 . S
O1214 Gd1165 2.545 . S
O1214 C1232 1.258 . S
O1215 Gd1164 2.362 1_556 S
O1215 Gd1165 2.606 1_655 S
O1215 C1231 1.284 . S
O1216 Gd1164 2.324 1_455 S
O1216 C1239 1.254 . S
O1217 Gd1165 2.429 . S
O1217 C1239 1.268 1_556 S
O1218 Gd1165 2.545 1_655 S
O1218 C1231 1.250 . S
O1219 Gd1165 2.412 . S
O1219 C1232 1.252 . S
C1220 O1209 1.284 . S
C1220 O1212 1.250 . S
C1221 H1190 0.929 . S
C1221 C1206 1.437 . S
C1221 C1222 1.317 . S
C1222 H1193 0.930 . S
C1222 C1198 1.431 . S
C1222 C1221 1.317 . S
C1223 Gd1164 2.828 . S
C1223 O1208 1.258 . S
C1223 O1213 1.252 . S
C1223 C1224 1.497 . S
C1224 C1223 1.497 . S
C1224 C1225 1.395 . S
C1224 C1226 1.380 1_655 S
C1225 C1224 1.395 . S
C1225 C1228 1.398 . S
C1225 H1240 0.930 . S
C1226 C1224 1.380 1_455 S
C1226 C1227 1.391 . S
C1226 H1241 0.930 . S
C1227 C1226 1.391 . S
C1227 C1229 1.387 1_455 S
C1228 C1225 1.398 . S
C1228 C1229 1.380 . S
C1228 H1242 0.930 . S
C1229 C1227 1.387 1_655 S
C1229 C1228 1.380 . S
C1229 H1243 0.930 . S
C1230 O1210 1.254 . S
C1230 O1211 1.268 1_556 S
C1231 O1215 1.284 . S
C1231 O1218 1.250 . S
C1232 Gd1165 2.828 . S
C1232 O1214 1.258 . S
C1232 O1219 1.252 . S
C1232 C1233 1.497 . S
C1233 C1232 1.497 . S
C1233 C1234 1.395 . S
C1233 C1235 1.380 1_455 S
C1234 C1233 1.395 . S
C1234 C1237 1.398 . S
C1234 H1244 0.930 . S
C1235 C1233 1.380 1_655 S
C1235 C1236 1.391 . S
C1235 H1245 0.930 . S
C1236 C1235 1.391 . S
C1236 C1238 1.387 1_655 S
C1237 C1234 1.398 . S
C1237 C1238 1.380 . S
C1237 H1246 0.930 . S
C1238 C1236 1.387 1_455 S
C1238 C1237 1.380 . S
C1238 H1247 0.930 . S
C1239 O1216 1.254 . S
C1239 O1217 1.268 1_554 S
H1240 C1225 0.930 . S
H1241 C1226 0.930 . S
H1242 C1228 0.930 . S
H1243 C1229 0.930 . S
H1244 C1234 0.930 . S
H1245 C1235 0.930 . S
H1246 C1237 0.930 . S
H1247 C1238 0.930 . S
Gd1248 N1279 2.661 . S
Gd1248 N1285 2.601 . S
Gd1248 O1292 2.545 . S
Gd1248 O1293 2.606 . S
Gd1248 O1295 2.429 . S
Gd1248 O1296 2.545 . S
Gd1248 O1297 2.412 . S
Gd1248 O1299 2.362 1_556 S
Gd1248 O1300 2.324 . S
Gd1248 C1307 2.828 . S
Gd1249 N1258 2.661 . S
Gd1249 N1262 2.601 . S
Gd1249 O1293 2.362 1_554 S
Gd1249 O1294 2.324 . S
Gd1249 O1298 2.545 . S
Gd1249 O1299 2.606 . S
Gd1249 O1301 2.429 . S
Gd1249 O1302 2.545 . S
Gd1249 O1303 2.412 . S
Gd1249 C1316 2.828 . S
C1250 C1253 1.417 . S
C1250 C1255 1.431 . S
C1250 C1256 1.412 . S
C1251 C1254 1.437 . S
C1251 C1255 1.317 . S
C1251 H1270 0.929 . S
C1252 C1253 1.426 . S
C1252 C1254 1.413 . S
C1252 N1262 1.359 . S
C1253 C1250 1.417 . S
C1253 C1252 1.426 . S
C1253 N1258 1.350 . S
C1254 C1251 1.437 . S
C1254 C1252 1.413 . S
C1254 C1264 1.391 . S
C1255 C1250 1.431 . S
C1255 C1251 1.317 . S
C1255 H1266 0.930 . S
C1256 C1250 1.412 . S
C1256 C1257 1.355 . S
C1256 H1268 0.930 . S
C1257 C1256 1.355 . S
C1257 C1259 1.402 . S
C1257 H1269 0.930 . S
N1258 Gd1249 2.661 . S
N1258 C1253 1.350 . S
N1258 C1259 1.307 . S
C1259 C1257 1.402 . S
C1259 N1258 1.307 . S
C1259 H1260 0.930 . S
H1260 C1259 0.930 . S
C1261 N1262 1.334 . S
C1261 C1263 1.394 . S
C1261 H1265 0.930 . S
N1262 Gd1249 2.601 . S
N1262 C1252 1.359 . S
N1262 C1261 1.334 . S
C1263 C1261 1.394 . S
C1263 C1264 1.359 . S
C1263 H1275 0.930 . S
C1264 C1254 1.391 . S
C1264 C1263 1.359 . S
C1264 H1276 0.929 . S
H1265 C1261 0.930 . S
H1266 C1255 0.930 . S
H1267 C1284 0.930 . S
H1268 C1256 0.930 . S
H1269 C1257 0.930 . S
H1270 C1251 0.929 . S
H1271 C1289 0.930 . S
H1272 C1280 0.930 . S
H1273 C1281 0.930 . S
H1274 C1305 0.929 . S
H1275 C1263 0.930 . S
H1276 C1264 0.929 . S
H1277 C1306 0.930 . S
H1278 C1287 0.930 . S
N1279 Gd1248 2.661 . S
N1279 C1283 1.350 . S
N1279 C1284 1.307 . S
C1280 H1272 0.930 . S
C1280 C1281 1.355 . S
C1280 C1282 1.412 . S
C1281 H1273 0.930 . S
C1281 C1280 1.355 . S
C1281 C1284 1.402 . S
C1282 C1280 1.412 . S
C1282 C1283 1.417 . S
C1282 C1306 1.431 . S
C1283 N1279 1.350 . S
C1283 C1282 1.417 . S
C1283 C1286 1.426 . S
C1284 H1267 0.930 . S
C1284 N1279 1.307 . S
C1284 C1281 1.402 . S
N1285 Gd1248 2.601 . S
N1285 C1286 1.359 . S
N1285 C1289 1.334 . S
C1286 C1283 1.426 . S
C1286 N1285 1.359 . S
C1286 C1290 1.413 . S
C1287 H1278 0.930 . S
C1287 C1288 1.359 . S
C1287 C1289 1.394 . S
C1288 C1287 1.359 . S
C1288 C1290 1.391 . S
C1288 H1291 0.929 . S
C1289 H1271 0.930 . S
C1289 N1285 1.334 . S
C1289 C1287 1.394 . S
C1290 C1286 1.413 . S
C1290 C1288 1.391 . S
C1290 C1305 1.437 . S
H1291 C1288 0.929 . S
O1292 Gd1248 2.545 . S
O1292 C1307 1.258 . S
O1293 Gd1248 2.606 . S
O1293 Gd1249 2.362 1_556 S
O1293 C1304 1.284 . S
O1294 Gd1249 2.324 . S
O1294 C1314 1.254 . S
O1295 Gd1248 2.429 . S
O1295 C1314 1.268 1_556 S
O1296 Gd1248 2.545 . S
O1296 C1304 1.250 . S
O1297 Gd1248 2.412 . S
O1297 C1307 1.252 . S
O1298 Gd1249 2.545 . S
O1298 C1316 1.258 . S
O1299 Gd1248 2.362 1_554 S
O1299 Gd1249 2.606 . S
O1299 C1315 1.284 . S
O1300 Gd1248 2.324 . S
O1300 C1323 1.254 . S
O1301 Gd1249 2.429 . S
O1301 C1323 1.268 1_554 S
O1302 Gd1249 2.545 . S
O1302 C1315 1.250 . S
O1303 Gd1249 2.412 . S
O1303 C1316 1.252 . S
C1304 O1293 1.284 . S
C1304 O1296 1.250 . S
C1305 H1274 0.929 . S
C1305 C1290 1.437 . S
C1305 C1306 1.317 . S
C1306 H1277 0.930 . S
C1306 C1282 1.431 . S
C1306 C1305 1.317 . S
C1307 Gd1248 2.828 . S
C1307 O1292 1.258 . S
C1307 O1297 1.252 . S
C1307 C1308 1.497 . S
C1308 C1307 1.497 . S
C1308 C1309 1.395 . S
C1308 C1310 1.380 . S
C1309 C1308 1.395 . S
C1309 C1312 1.398 . S
C1309 H1324 0.930 . S
C1310 C1308 1.380 . S
C1310 C1311 1.391 . S
C1310 H1325 0.930 . S
C1311 C1310 1.391 . S
C1311 C1313 1.387 . S
C1312 C1309 1.398 . S
C1312 C1313 1.380 . S
C1312 H1326 0.930 . S
C1313 C1311 1.387 . S
C1313 C1312 1.380 . S
C1313 H1327 0.930 . S
C1314 O1294 1.254 . S
C1314 O1295 1.268 1_554 S
C1315 O1299 1.284 . S
C1315 O1302 1.250 . S
C1316 Gd1249 2.828 . S
C1316 O1298 1.258 . S
C1316 O1303 1.252 . S
C1316 C1317 1.497 . S
C1317 C1316 1.497 . S
C1317 C1318 1.395 . S
C1317 C1319 1.380 . S
C1318 C1317 1.395 . S
C1318 C1321 1.398 . S
C1318 H1328 0.930 . S
C1319 C1317 1.380 . S
C1319 C1320 1.391 . S
C1319 H1329 0.930 . S
C1320 C1319 1.391 . S
C1320 C1322 1.387 . S
C1321 C1318 1.398 . S
C1321 C1322 1.380 . S
C1321 H1330 0.930 . S
C1322 C1320 1.387 . S
C1322 C1321 1.380 . S
C1322 H1331 0.930 . S
C1323 O1300 1.254 . S
C1323 O1301 1.268 1_556 S
H1324 C1309 0.930 . S
H1325 C1310 0.930 . S
H1326 C1312 0.930 . S
H1327 C1313 0.930 . S
H1328 C1318 0.930 . S
H1329 C1319 0.930 . S
H1330 C1321 0.930 . S
H1331 C1322 0.930 . S
Gd1332 N1363 2.661 . S
Gd1332 N1369 2.601 . S
Gd1332 O1376 2.545 . S
Gd1332 O1377 2.606 . S
Gd1332 O1379 2.429 . S
Gd1332 O1380 2.545 . S
Gd1332 O1381 2.412 . S
Gd1332 O1383 2.362 . S
Gd1332 O1384 2.324 . S
Gd1332 C1391 2.828 . S
Gd1333 N1342 2.661 . S
Gd1333 N1346 2.601 . S
Gd1333 O1377 2.362 . S
Gd1333 O1378 2.324 . S
Gd1333 O1382 2.545 . S
Gd1333 O1383 2.606 . S
Gd1333 O1385 2.429 . S
Gd1333 O1386 2.545 . S
Gd1333 O1387 2.412 . S
Gd1333 C1400 2.828 . S
C1334 C1337 1.417 . S
C1334 C1339 1.431 . S
C1334 C1340 1.412 . S
C1335 C1338 1.437 . S
C1335 C1339 1.317 . S
C1335 H1354 0.929 . S
C1336 C1337 1.426 . S
C1336 C1338 1.413 . S
C1336 N1346 1.359 . S
C1337 C1334 1.417 . S
C1337 C1336 1.426 . S
C1337 N1342 1.350 . S
C1338 C1335 1.437 . S
C1338 C1336 1.413 . S
C1338 C1348 1.391 . S
C1339 C1334 1.431 . S
C1339 C1335 1.317 . S
C1339 H1350 0.930 . S
C1340 C1334 1.412 . S
C1340 C1341 1.355 . S
C1340 H1352 0.930 . S
C1341 C1340 1.355 . S
C1341 C1343 1.402 . S
C1341 H1353 0.930 . S
N1342 Gd1333 2.661 . S
N1342 C1337 1.350 . S
N1342 C1343 1.307 . S
C1343 C1341 1.402 . S
C1343 N1342 1.307 . S
C1343 H1344 0.930 . S
H1344 C1343 0.930 . S
C1345 N1346 1.334 . S
C1345 C1347 1.394 . S
C1345 H1349 0.930 . S
N1346 Gd1333 2.601 . S
N1346 C1336 1.359 . S
N1346 C1345 1.334 . S
C1347 C1345 1.394 . S
C1347 C1348 1.359 . S
C1347 H1359 0.930 . S
C1348 C1338 1.391 . S
C1348 C1347 1.359 . S
C1348 H1360 0.929 . S
H1349 C1345 0.930 . S
H1350 C1339 0.930 . S
H1351 C1368 0.930 . S
H1352 C1340 0.930 . S
H1353 C1341 0.930 . S
H1354 C1335 0.929 . S
H1355 C1373 0.930 . S
H1356 C1364 0.930 . S
H1357 C1365 0.930 . S
H1358 C1389 0.929 . S
H1359 C1347 0.930 . S
H1360 C1348 0.929 . S
H1361 C1390 0.930 . S
H1362 C1371 0.930 . S
N1363 Gd1332 2.661 . S
N1363 C1367 1.350 . S
N1363 C1368 1.307 . S
C1364 H1356 0.930 . S
C1364 C1365 1.355 . S
C1364 C1366 1.412 . S
C1365 H1357 0.930 . S
C1365 C1364 1.355 . S
C1365 C1368 1.402 . S
C1366 C1364 1.412 . S
C1366 C1367 1.417 . S
C1366 C1390 1.431 . S
C1367 N1363 1.350 . S
C1367 C1366 1.417 . S
C1367 C1370 1.426 . S
C1368 H1351 0.930 . S
C1368 N1363 1.307 . S
C1368 C1365 1.402 . S
N1369 Gd1332 2.601 . S
N1369 C1370 1.359 . S
N1369 C1373 1.334 . S
C1370 C1367 1.426 . S
C1370 N1369 1.359 . S
C1370 C1374 1.413 . S
C1371 H1362 0.930 . S
C1371 C1372 1.359 . S
C1371 C1373 1.394 . S
C1372 C1371 1.359 . S
C1372 C1374 1.391 . S
C1372 H1375 0.929 . S
C1373 H1355 0.930 . S
C1373 N1369 1.334 . S
C1373 C1371 1.394 . S
C1374 C1370 1.413 . S
C1374 C1372 1.391 . S
C1374 C1389 1.437 . S
H1375 C1372 0.929 . S
O1376 Gd1332 2.545 . S
O1376 C1391 1.258 . S
O1377 Gd1332 2.606 . S
O1377 Gd1333 2.362 . S
O1377 C1388 1.284 . S
O1378 Gd1333 2.324 . S
O1378 C1398 1.254 . S
O1379 Gd1332 2.429 . S
O1379 C1398 1.268 . S
O1380 Gd1332 2.545 . S
O1380 C1388 1.250 . S
O1381 Gd1332 2.412 . S
O1381 C1391 1.252 . S
O1382 Gd1333 2.545 . S
O1382 C1400 1.258 . S
O1383 Gd1332 2.362 . S
O1383 Gd1333 2.606 . S
O1383 C1399 1.284 . S
O1384 Gd1332 2.324 . S
O1384 C1407 1.254 . S
O1385 Gd1333 2.429 . S
O1385 C1407 1.268 . S
O1386 Gd1333 2.545 . S
O1386 C1399 1.250 . S
O1387 Gd1333 2.412 . S
O1387 C1400 1.252 . S
C1388 O1377 1.284 . S
C1388 O1380 1.250 . S
C1389 H1358 0.929 . S
C1389 C1374 1.437 . S
C1389 C1390 1.317 . S
C1390 H1361 0.930 . S
C1390 C1366 1.431 . S
C1390 C1389 1.317 . S
C1391 Gd1332 2.828 . S
C1391 O1376 1.258 . S
C1391 O1381 1.252 . S
C1391 C1392 1.497 . S
C1392 C1391 1.497 . S
C1392 C1393 1.395 . S
C1392 C1394 1.380 . S
C1393 C1392 1.395 . S
C1393 C1396 1.398 . S
C1393 H1408 0.930 . S
C1394 C1392 1.380 . S
C1394 C1395 1.391 . S
C1394 H1409 0.930 . S
C1395 C1394 1.391 . S
C1395 C1397 1.387 . S
C1396 C1393 1.398 . S
C1396 C1397 1.380 . S
C1396 H1410 0.930 . S
C1397 C1395 1.387 . S
C1397 C1396 1.380 . S
C1397 H1411 0.930 . S
C1398 O1378 1.254 . S
C1398 O1379 1.268 . S
C1399 O1383 1.284 . S
C1399 O1386 1.250 . S
C1400 Gd1333 2.828 . S
C1400 O1382 1.258 . S
C1400 O1387 1.252 . S
C1400 C1401 1.497 . S
C1401 C1400 1.497 . S
C1401 C1402 1.395 . S
C1401 C1403 1.380 . S
C1402 C1401 1.395 . S
C1402 C1405 1.398 . S
C1402 H1412 0.930 . S
C1403 C1401 1.380 . S
C1403 C1404 1.391 . S
C1403 H1413 0.930 . S
C1404 C1403 1.391 . S
C1404 C1406 1.387 . S
C1405 C1402 1.398 . S
C1405 C1406 1.380 . S
C1405 H1414 0.930 . S
C1406 C1404 1.387 . S
C1406 C1405 1.380 . S
C1406 H1415 0.930 . S
C1407 O1384 1.254 . S
C1407 O1385 1.268 . S
H1408 C1393 0.930 . S
H1409 C1394 0.930 . S
H1410 C1396 0.930 . S
H1411 C1397 0.930 . S
H1412 C1402 0.930 . S
H1413 C1403 0.930 . S
H1414 C1405 0.930 . S
H1415 C1406 0.930 . S
Gd1416 N1447 2.661 . S
Gd1416 N1453 2.601 . S
Gd1416 O1460 2.545 . S
Gd1416 O1461 2.606 . S
Gd1416 O1463 2.429 . S
Gd1416 O1464 2.545 . S
Gd1416 O1465 2.412 . S
Gd1416 O1467 2.362 . S
Gd1416 O1468 2.324 . S
Gd1416 C1475 2.828 . S
Gd1417 N1426 2.661 . S
Gd1417 N1430 2.601 . S
Gd1417 O1461 2.362 . S
Gd1417 O1462 2.324 . S
Gd1417 O1466 2.545 . S
Gd1417 O1467 2.606 . S
Gd1417 O1469 2.429 . S
Gd1417 O1470 2.545 . S
Gd1417 O1471 2.412 . S
Gd1417 C1484 2.828 . S
C1418 C1421 1.417 . S
C1418 C1423 1.431 . S
C1418 C1424 1.412 . S
C1419 C1422 1.437 . S
C1419 C1423 1.317 . S
C1419 H1438 0.929 . S
C1420 C1421 1.426 . S
C1420 C1422 1.413 . S
C1420 N1430 1.359 . S
C1421 C1418 1.417 . S
C1421 C1420 1.426 . S
C1421 N1426 1.350 . S
C1422 C1419 1.437 . S
C1422 C1420 1.413 . S
C1422 C1432 1.391 . S
C1423 C1418 1.431 . S
C1423 C1419 1.317 . S
C1423 H1434 0.930 . S
C1424 C1418 1.412 . S
C1424 C1425 1.355 . S
C1424 H1436 0.930 . S
C1425 C1424 1.355 . S
C1425 C1427 1.402 . S
C1425 H1437 0.930 . S
N1426 Gd1417 2.661 . S
N1426 C1421 1.350 . S
N1426 C1427 1.307 . S
C1427 C1425 1.402 . S
C1427 N1426 1.307 . S
C1427 H1428 0.930 . S
H1428 C1427 0.930 . S
C1429 N1430 1.334 . S
C1429 C1431 1.394 . S
C1429 H1433 0.930 . S
N1430 Gd1417 2.601 . S
N1430 C1420 1.359 . S
N1430 C1429 1.334 . S
C1431 C1429 1.394 . S
C1431 C1432 1.359 . S
C1431 H1443 0.930 . S
C1432 C1422 1.391 . S
C1432 C1431 1.359 . S
C1432 H1444 0.929 . S
H1433 C1429 0.930 . S
H1434 C1423 0.930 . S
H1435 C1452 0.930 . S
H1436 C1424 0.930 . S
H1437 C1425 0.930 . S
H1438 C1419 0.929 . S
H1439 C1457 0.930 . S
H1440 C1448 0.930 . S
H1441 C1449 0.930 . S
H1442 C1473 0.929 . S
H1443 C1431 0.930 . S
H1444 C1432 0.929 . S
H1445 C1474 0.930 . S
H1446 C1455 0.930 . S
N1447 Gd1416 2.661 . S
N1447 C1451 1.350 . S
N1447 C1452 1.307 . S
C1448 H1440 0.930 . S
C1448 C1449 1.355 . S
C1448 C1450 1.412 . S
C1449 H1441 0.930 . S
C1449 C1448 1.355 . S
C1449 C1452 1.402 . S
C1450 C1448 1.412 . S
C1450 C1451 1.417 . S
C1450 C1474 1.431 . S
C1451 N1447 1.350 . S
C1451 C1450 1.417 . S
C1451 C1454 1.426 . S
C1452 H1435 0.930 . S
C1452 N1447 1.307 . S
C1452 C1449 1.402 . S
N1453 Gd1416 2.601 . S
N1453 C1454 1.359 . S
N1453 C1457 1.334 . S
C1454 C1451 1.426 . S
C1454 N1453 1.359 . S
C1454 C1458 1.413 . S
C1455 H1446 0.930 . S
C1455 C1456 1.359 . S
C1455 C1457 1.394 . S
C1456 C1455 1.359 . S
C1456 C1458 1.391 . S
C1456 H1459 0.929 . S
C1457 H1439 0.930 . S
C1457 N1453 1.334 . S
C1457 C1455 1.394 . S
C1458 C1454 1.413 . S
C1458 C1456 1.391 . S
C1458 C1473 1.437 . S
H1459 C1456 0.929 . S
O1460 Gd1416 2.545 . S
O1460 C1475 1.258 . S
O1461 Gd1416 2.606 . S
O1461 Gd1417 2.362 . S
O1461 C1472 1.284 . S
O1462 Gd1417 2.324 . S
O1462 C1482 1.254 . S
O1463 Gd1416 2.429 . S
O1463 C1482 1.268 . S
O1464 Gd1416 2.545 . S
O1464 C1472 1.250 . S
O1465 Gd1416 2.412 . S
O1465 C1475 1.252 . S
O1466 Gd1417 2.545 . S
O1466 C1484 1.258 . S
O1467 Gd1416 2.362 . S
O1467 Gd1417 2.606 . S
O1467 C1483 1.284 . S
O1468 Gd1416 2.324 . S
O1468 C1491 1.254 . S
O1469 Gd1417 2.429 . S
O1469 C1491 1.268 . S
O1470 Gd1417 2.545 . S
O1470 C1483 1.250 . S
O1471 Gd1417 2.412 . S
O1471 C1484 1.252 . S
C1472 O1461 1.284 . S
C1472 O1464 1.250 . S
C1473 H1442 0.929 . S
C1473 C1458 1.437 . S
C1473 C1474 1.317 . S
C1474 H1445 0.930 . S
C1474 C1450 1.431 . S
C1474 C1473 1.317 . S
C1475 Gd1416 2.828 . S
C1475 O1460 1.258 . S
C1475 O1465 1.252 . S
C1475 C1476 1.497 . S
C1476 C1475 1.497 . S
C1476 C1477 1.395 . S
C1476 C1478 1.380 . S
C1477 C1476 1.395 . S
C1477 C1480 1.398 . S
C1477 H1492 0.930 . S
C1478 C1476 1.380 . S
C1478 C1479 1.391 . S
C1478 H1493 0.930 . S
C1479 C1478 1.391 . S
C1479 C1481 1.387 . S
C1480 C1477 1.398 . S
C1480 C1481 1.380 . S
C1480 H1494 0.930 . S
C1481 C1479 1.387 . S
C1481 C1480 1.380 . S
C1481 H1495 0.930 . S
C1482 O1462 1.254 . S
C1482 O1463 1.268 . S
C1483 O1467 1.284 . S
C1483 O1470 1.250 . S
C1484 Gd1417 2.828 . S
C1484 O1466 1.258 . S
C1484 O1471 1.252 . S
C1484 C1485 1.497 . S
C1485 C1484 1.497 . S
C1485 C1486 1.395 . S
C1485 C1487 1.380 . S
C1486 C1485 1.395 . S
C1486 C1489 1.398 . S
C1486 H1496 0.930 . S
C1487 C1485 1.380 . S
C1487 C1488 1.391 . S
C1487 H1497 0.930 . S
C1488 C1487 1.391 . S
C1488 C1490 1.387 . S
C1489 C1486 1.398 . S
C1489 C1490 1.380 . S
C1489 H1498 0.930 . S
C1490 C1488 1.387 . S
C1490 C1489 1.380 . S
C1490 H1499 0.930 . S
C1491 O1468 1.254 . S
C1491 O1469 1.268 . S
H1492 C1477 0.930 . S
H1493 C1478 0.930 . S
H1494 C1480 0.930 . S
H1495 C1481 0.930 . S
H1496 C1486 0.930 . S
H1497 C1487 0.930 . S
H1498 C1489 0.930 . S
H1499 C1490 0.930 . S
Gd1500 N1531 2.661 . S
Gd1500 N1537 2.601 . S
Gd1500 O1544 2.545 . S
Gd1500 O1545 2.606 . S
Gd1500 O1547 2.429 . S
Gd1500 O1548 2.545 . S
Gd1500 O1549 2.412 . S
Gd1500 O1551 2.362 . S
Gd1500 O1552 2.324 . S
Gd1500 C1559 2.828 . S
Gd1501 N1510 2.661 . S
Gd1501 N1514 2.601 . S
Gd1501 O1545 2.362 . S
Gd1501 O1546 2.324 . S
Gd1501 O1550 2.545 . S
Gd1501 O1551 2.606 . S
Gd1501 O1553 2.429 . S
Gd1501 O1554 2.545 . S
Gd1501 O1555 2.412 . S
Gd1501 C1568 2.828 . S
C1502 C1505 1.417 . S
C1502 C1507 1.431 . S
C1502 C1508 1.412 . S
C1503 C1506 1.437 . S
C1503 C1507 1.317 . S
C1503 H1522 0.929 . S
C1504 C1505 1.426 . S
C1504 C1506 1.413 . S
C1504 N1514 1.359 . S
C1505 C1502 1.417 . S
C1505 C1504 1.426 . S
C1505 N1510 1.350 . S
C1506 C1503 1.437 . S
C1506 C1504 1.413 . S
C1506 C1516 1.391 . S
C1507 C1502 1.431 . S
C1507 C1503 1.317 . S
C1507 H1518 0.930 . S
C1508 C1502 1.412 . S
C1508 C1509 1.355 . S
C1508 H1520 0.930 . S
C1509 C1508 1.355 . S
C1509 C1511 1.402 . S
C1509 H1521 0.930 . S
N1510 Gd1501 2.661 . S
N1510 C1505 1.350 . S
N1510 C1511 1.307 . S
C1511 C1509 1.402 . S
C1511 N1510 1.307 . S
C1511 H1512 0.930 . S
H1512 C1511 0.930 . S
C1513 N1514 1.334 . S
C1513 C1515 1.394 . S
C1513 H1517 0.930 . S
N1514 Gd1501 2.601 . S
N1514 C1504 1.359 . S
N1514 C1513 1.334 . S
C1515 C1513 1.394 . S
C1515 C1516 1.359 . S
C1515 H1527 0.930 . S
C1516 C1506 1.391 . S
C1516 C1515 1.359 . S
C1516 H1528 0.929 . S
H1517 C1513 0.930 . S
H1518 C1507 0.930 . S
H1519 C1536 0.930 . S
H1520 C1508 0.930 . S
H1521 C1509 0.930 . S
H1522 C1503 0.929 . S
H1523 C1541 0.930 . S
H1524 C1532 0.930 . S
H1525 C1533 0.930 . S
H1526 C1557 0.929 . S
H1527 C1515 0.930 . S
H1528 C1516 0.929 . S
H1529 C1558 0.930 . S
H1530 C1539 0.930 . S
N1531 Gd1500 2.661 . S
N1531 C1535 1.350 . S
N1531 C1536 1.307 . S
C1532 H1524 0.930 . S
C1532 C1533 1.355 . S
C1532 C1534 1.412 . S
C1533 H1525 0.930 . S
C1533 C1532 1.355 . S
C1533 C1536 1.402 . S
C1534 C1532 1.412 . S
C1534 C1535 1.417 . S
C1534 C1558 1.431 . S
C1535 N1531 1.350 . S
C1535 C1534 1.417 . S
C1535 C1538 1.426 . S
C1536 H1519 0.930 . S
C1536 N1531 1.307 . S
C1536 C1533 1.402 . S
N1537 Gd1500 2.601 . S
N1537 C1538 1.359 . S
N1537 C1541 1.334 . S
C1538 C1535 1.426 . S
C1538 N1537 1.359 . S
C1538 C1542 1.413 . S
C1539 H1530 0.930 . S
C1539 C1540 1.359 . S
C1539 C1541 1.394 . S
C1540 C1539 1.359 . S
C1540 C1542 1.391 . S
C1540 H1543 0.929 . S
C1541 H1523 0.930 . S
C1541 N1537 1.334 . S
C1541 C1539 1.394 . S
C1542 C1538 1.413 . S
C1542 C1540 1.391 . S
C1542 C1557 1.437 . S
H1543 C1540 0.929 . S
O1544 Gd1500 2.545 . S
O1544 C1559 1.258 . S
O1545 Gd1500 2.606 . S
O1545 Gd1501 2.362 . S
O1545 C1556 1.284 . S
O1546 Gd1501 2.324 . S
O1546 C1566 1.254 . S
O1547 Gd1500 2.429 . S
O1547 C1566 1.268 . S
O1548 Gd1500 2.545 . S
O1548 C1556 1.250 . S
O1549 Gd1500 2.412 . S
O1549 C1559 1.252 . S
O1550 Gd1501 2.545 . S
O1550 C1568 1.258 . S
O1551 Gd1500 2.362 . S
O1551 Gd1501 2.606 . S
O1551 C1567 1.284 . S
O1552 Gd1500 2.324 . S
O1552 C1575 1.254 . S
O1553 Gd1501 2.429 . S
O1553 C1575 1.268 . S
O1554 Gd1501 2.545 . S
O1554 C1567 1.250 . S
O1555 Gd1501 2.412 . S
O1555 C1568 1.252 . S
C1556 O1545 1.284 . S
C1556 O1548 1.250 . S
C1557 H1526 0.929 . S
C1557 C1542 1.437 . S
C1557 C1558 1.317 . S
C1558 H1529 0.930 . S
C1558 C1534 1.431 . S
C1558 C1557 1.317 . S
C1559 Gd1500 2.828 . S
C1559 O1544 1.258 . S
C1559 O1549 1.252 . S
C1559 C1560 1.497 . S
C1560 C1559 1.497 . S
C1560 C1561 1.395 . S
C1560 C1562 1.380 . S
C1561 C1560 1.395 . S
C1561 C1564 1.398 . S
C1561 H1576 0.930 . S
C1562 C1560 1.380 . S
C1562 C1563 1.391 . S
C1562 H1577 0.930 . S
C1563 C1562 1.391 . S
C1563 C1565 1.387 . S
C1564 C1561 1.398 . S
C1564 C1565 1.380 . S
C1564 H1578 0.930 . S
C1565 C1563 1.387 . S
C1565 C1564 1.380 . S
C1565 H1579 0.930 . S
C1566 O1546 1.254 . S
C1566 O1547 1.268 . S
C1567 O1551 1.284 . S
C1567 O1554 1.250 . S
C1568 Gd1501 2.828 . S
C1568 O1550 1.258 . S
C1568 O1555 1.252 . S
C1568 C1569 1.497 . S
C1569 C1568 1.497 . S
C1569 C1570 1.395 . S
C1569 C1571 1.380 . S
C1570 C1569 1.395 . S
C1570 C1573 1.398 . S
C1570 H1580 0.930 . S
C1571 C1569 1.380 . S
C1571 C1572 1.391 . S
C1571 H1581 0.930 . S
C1572 C1571 1.391 . S
C1572 C1574 1.387 . S
C1573 C1570 1.398 . S
C1573 C1574 1.380 . S
C1573 H1582 0.930 . S
C1574 C1572 1.387 . S
C1574 C1573 1.380 . S
C1574 H1583 0.930 . S
C1575 O1552 1.254 . S
C1575 O1553 1.268 . S
H1576 C1561 0.930 . S
H1577 C1562 0.930 . S
H1578 C1564 0.930 . S
H1579 C1565 0.930 . S
H1580 C1570 0.930 . S
H1581 C1571 0.930 . S
H1582 C1573 0.930 . S
H1583 C1574 0.930 . S
Gd1584 N1615 2.661 . S
Gd1584 N1621 2.601 . S
Gd1584 O1628 2.545 . S
Gd1584 O1629 2.606 . S
Gd1584 O1631 2.429 . S
Gd1584 O1632 2.545 . S
Gd1584 O1633 2.412 . S
Gd1584 O1635 2.362 . S
Gd1584 O1636 2.324 . S
Gd1584 C1643 2.828 . S
Gd1585 N1594 2.661 . S
Gd1585 N1598 2.601 . S
Gd1585 O1629 2.362 . S
Gd1585 O1630 2.324 . S
Gd1585 O1634 2.545 . S
Gd1585 O1635 2.606 . S
Gd1585 O1637 2.429 . S
Gd1585 O1638 2.545 . S
Gd1585 O1639 2.412 . S
Gd1585 C1652 2.828 . S
C1586 C1589 1.417 . S
C1586 C1591 1.431 . S
C1586 C1592 1.412 . S
C1587 C1590 1.437 . S
C1587 C1591 1.317 . S
C1587 H1606 0.929 . S
C1588 C1589 1.426 . S
C1588 C1590 1.413 . S
C1588 N1598 1.359 . S
C1589 C1586 1.417 . S
C1589 C1588 1.426 . S
C1589 N1594 1.350 . S
C1590 C1587 1.437 . S
C1590 C1588 1.413 . S
C1590 C1600 1.391 . S
C1591 C1586 1.431 . S
C1591 C1587 1.317 . S
C1591 H1602 0.930 . S
C1592 C1586 1.412 . S
C1592 C1593 1.355 . S
C1592 H1604 0.930 . S
C1593 C1592 1.355 . S
C1593 C1595 1.402 . S
C1593 H1605 0.930 . S
N1594 Gd1585 2.661 . S
N1594 C1589 1.350 . S
N1594 C1595 1.307 . S
C1595 C1593 1.402 . S
C1595 N1594 1.307 . S
C1595 H1596 0.930 . S
H1596 C1595 0.930 . S
C1597 N1598 1.334 . S
C1597 C1599 1.394 . S
C1597 H1601 0.930 . S
N1598 Gd1585 2.601 . S
N1598 C1588 1.359 . S
N1598 C1597 1.334 . S
C1599 C1597 1.394 . S
C1599 C1600 1.359 . S
C1599 H1611 0.930 . S
C1600 C1590 1.391 . S
C1600 C1599 1.359 . S
C1600 H1612 0.929 . S
H1601 C1597 0.930 . S
H1602 C1591 0.930 . S
H1603 C1620 0.930 . S
H1604 C1592 0.930 . S
H1605 C1593 0.930 . S
H1606 C1587 0.929 . S
H1607 C1625 0.930 . S
H1608 C1616 0.930 . S
H1609 C1617 0.930 . S
H1610 C1641 0.929 . S
H1611 C1599 0.930 . S
H1612 C1600 0.929 . S
H1613 C1642 0.930 . S
H1614 C1623 0.930 . S
N1615 Gd1584 2.661 . S
N1615 C1619 1.350 . S
N1615 C1620 1.307 . S
C1616 H1608 0.930 . S
C1616 C1617 1.355 . S
C1616 C1618 1.412 . S
C1617 H1609 0.930 . S
C1617 C1616 1.355 . S
C1617 C1620 1.402 . S
C1618 C1616 1.412 . S
C1618 C1619 1.417 . S
C1618 C1642 1.431 . S
C1619 N1615 1.350 . S
C1619 C1618 1.417 . S
C1619 C1622 1.426 . S
C1620 H1603 0.930 . S
C1620 N1615 1.307 . S
C1620 C1617 1.402 . S
N1621 Gd1584 2.601 . S
N1621 C1622 1.359 . S
N1621 C1625 1.334 . S
C1622 C1619 1.426 . S
C1622 N1621 1.359 . S
C1622 C1626 1.413 . S
C1623 H1614 0.930 . S
C1623 C1624 1.359 . S
C1623 C1625 1.394 . S
C1624 C1623 1.359 . S
C1624 C1626 1.391 . S
C1624 H1627 0.929 . S
C1625 H1607 0.930 . S
C1625 N1621 1.334 . S
C1625 C1623 1.394 . S
C1626 C1622 1.413 . S
C1626 C1624 1.391 . S
C1626 C1641 1.437 . S
H1627 C1624 0.929 . S
O1628 Gd1584 2.545 . S
O1628 C1643 1.258 . S
O1629 Gd1584 2.606 . S
O1629 Gd1585 2.362 . S
O1629 C1640 1.284 . S
O1630 Gd1585 2.324 . S
O1630 C1650 1.254 . S
O1631 Gd1584 2.429 . S
O1631 C1650 1.268 . S
O1632 Gd1584 2.545 . S
O1632 C1640 1.250 . S
O1633 Gd1584 2.412 . S
O1633 C1643 1.252 . S
O1634 Gd1585 2.545 . S
O1634 C1652 1.258 . S
O1635 Gd1584 2.362 . S
O1635 Gd1585 2.606 . S
O1635 C1651 1.284 . S
O1636 Gd1584 2.324 . S
O1636 C1659 1.254 . S
O1637 Gd1585 2.429 . S
O1637 C1659 1.268 . S
O1638 Gd1585 2.545 . S
O1638 C1651 1.250 . S
O1639 Gd1585 2.412 . S
O1639 C1652 1.252 . S
C1640 O1629 1.284 . S
C1640 O1632 1.250 . S
C1641 H1610 0.929 . S
C1641 C1626 1.437 . S
C1641 C1642 1.317 . S
C1642 H1613 0.930 . S
C1642 C1618 1.431 . S
C1642 C1641 1.317 . S
C1643 Gd1584 2.828 . S
C1643 O1628 1.258 . S
C1643 O1633 1.252 . S
C1643 C1644 1.497 . S
C1644 C1643 1.497 . S
C1644 C1645 1.395 . S
C1644 C1646 1.380 . S
C1645 C1644 1.395 . S
C1645 C1648 1.398 . S
C1645 H1660 0.930 . S
C1646 C1644 1.380 . S
C1646 C1647 1.391 . S
C1646 H1661 0.930 . S
C1647 C1646 1.391 . S
C1647 C1649 1.387 . S
C1648 C1645 1.398 . S
C1648 C1649 1.380 . S
C1648 H1662 0.930 . S
C1649 C1647 1.387 . S
C1649 C1648 1.380 . S
C1649 H1663 0.930 . S
C1650 O1630 1.254 . S
C1650 O1631 1.268 . S
C1651 O1635 1.284 . S
C1651 O1638 1.250 . S
C1652 Gd1585 2.828 . S
C1652 O1634 1.258 . S
C1652 O1639 1.252 . S
C1652 C1653 1.497 . S
C1653 C1652 1.497 . S
C1653 C1654 1.395 . S
C1653 C1655 1.380 . S
C1654 C1653 1.395 . S
C1654 C1657 1.398 . S
C1654 H1664 0.930 . S
C1655 C1653 1.380 . S
C1655 C1656 1.391 . S
C1655 H1665 0.930 . S
C1656 C1655 1.391 . S
C1656 C1658 1.387 . S
C1657 C1654 1.398 . S
C1657 C1658 1.380 . S
C1657 H1666 0.930 . S
C1658 C1656 1.387 . S
C1658 C1657 1.380 . S
C1658 H1667 0.930 . S
C1659 O1636 1.254 . S
C1659 O1637 1.268 . S
H1660 C1645 0.930 . S
H1661 C1646 0.930 . S
H1662 C1648 0.930 . S
H1663 C1649 0.930 . S
H1664 C1654 0.930 . S
H1665 C1655 0.930 . S
H1666 C1657 0.930 . S
H1667 C1658 0.930 . S
Gd1668 N1699 2.661 . S
Gd1668 N1705 2.601 . S
Gd1668 O1712 2.545 . S
Gd1668 O1713 2.606 . S
Gd1668 O1715 2.429 . S
Gd1668 O1716 2.545 . S
Gd1668 O1717 2.412 . S
Gd1668 O1719 2.362 . S
Gd1668 O1720 2.324 . S
Gd1668 C1727 2.828 . S
Gd1669 N1678 2.661 . S
Gd1669 N1682 2.601 . S
Gd1669 O1713 2.362 . S
Gd1669 O1714 2.324 . S
Gd1669 O1718 2.545 . S
Gd1669 O1719 2.606 . S
Gd1669 O1721 2.429 . S
Gd1669 O1722 2.545 . S
Gd1669 O1723 2.412 . S
Gd1669 C1736 2.828 . S
C1670 C1673 1.417 . S
C1670 C1675 1.431 . S
C1670 C1676 1.412 . S
C1671 C1674 1.437 . S
C1671 C1675 1.317 . S
C1671 H1690 0.929 . S
C1672 C1673 1.426 . S
C1672 C1674 1.413 . S
C1672 N1682 1.359 . S
C1673 C1670 1.417 . S
C1673 C1672 1.426 . S
C1673 N1678 1.350 . S
C1674 C1671 1.437 . S
C1674 C1672 1.413 . S
C1674 C1684 1.391 . S
C1675 C1670 1.431 . S
C1675 C1671 1.317 . S
C1675 H1686 0.930 . S
C1676 C1670 1.412 . S
C1676 C1677 1.355 . S
C1676 H1688 0.930 . S
C1677 C1676 1.355 . S
C1677 C1679 1.402 . S
C1677 H1689 0.930 . S
N1678 Gd1669 2.661 . S
N1678 C1673 1.350 . S
N1678 C1679 1.307 . S
C1679 C1677 1.402 . S
C1679 N1678 1.307 . S
C1679 H1680 0.930 . S
H1680 C1679 0.930 . S
C1681 N1682 1.334 . S
C1681 C1683 1.394 . S
C1681 H1685 0.930 . S
N1682 Gd1669 2.601 . S
N1682 C1672 1.359 . S
N1682 C1681 1.334 . S
C1683 C1681 1.394 . S
C1683 C1684 1.359 . S
C1683 H1695 0.930 . S
C1684 C1674 1.391 . S
C1684 C1683 1.359 . S
C1684 H1696 0.929 . S
H1685 C1681 0.930 . S
H1686 C1675 0.930 . S
H1687 C1704 0.930 . S
H1688 C1676 0.930 . S
H1689 C1677 0.930 . S
H1690 C1671 0.929 . S
H1691 C1709 0.930 . S
H1692 C1700 0.930 . S
H1693 C1701 0.930 . S
H1694 C1725 0.929 . S
H1695 C1683 0.930 . S
H1696 C1684 0.929 . S
H1697 C1726 0.930 . S
H1698 C1707 0.930 . S
N1699 Gd1668 2.661 . S
N1699 C1703 1.350 . S
N1699 C1704 1.307 . S
C1700 H1692 0.930 . S
C1700 C1701 1.355 . S
C1700 C1702 1.412 . S
C1701 H1693 0.930 . S
C1701 C1700 1.355 . S
C1701 C1704 1.402 . S
C1702 C1700 1.412 . S
C1702 C1703 1.417 . S
C1702 C1726 1.431 . S
C1703 N1699 1.350 . S
C1703 C1702 1.417 . S
C1703 C1706 1.426 . S
C1704 H1687 0.930 . S
C1704 N1699 1.307 . S
C1704 C1701 1.402 . S
N1705 Gd1668 2.601 . S
N1705 C1706 1.359 . S
N1705 C1709 1.334 . S
C1706 C1703 1.426 . S
C1706 N1705 1.359 . S
C1706 C1710 1.413 . S
C1707 H1698 0.930 . S
C1707 C1708 1.359 . S
C1707 C1709 1.394 . S
C1708 C1707 1.359 . S
C1708 C1710 1.391 . S
C1708 H1711 0.929 . S
C1709 H1691 0.930 . S
C1709 N1705 1.334 . S
C1709 C1707 1.394 . S
C1710 C1706 1.413 . S
C1710 C1708 1.391 . S
C1710 C1725 1.437 . S
H1711 C1708 0.929 . S
O1712 Gd1668 2.545 . S
O1712 C1727 1.258 . S
O1713 Gd1668 2.606 . S
O1713 Gd1669 2.362 . S
O1713 C1724 1.284 . S
O1714 Gd1669 2.324 . S
O1714 C1734 1.254 . S
O1715 Gd1668 2.429 . S
O1715 C1734 1.268 . S
O1716 Gd1668 2.545 . S
O1716 C1724 1.250 . S
O1717 Gd1668 2.412 . S
O1717 C1727 1.252 . S
O1718 Gd1669 2.545 . S
O1718 C1736 1.258 . S
O1719 Gd1668 2.362 . S
O1719 Gd1669 2.606 . S
O1719 C1735 1.284 . S
O1720 Gd1668 2.324 . S
O1720 C1743 1.254 . S
O1721 Gd1669 2.429 . S
O1721 C1743 1.268 . S
O1722 Gd1669 2.545 . S
O1722 C1735 1.250 . S
O1723 Gd1669 2.412 . S
O1723 C1736 1.252 . S
C1724 O1713 1.284 . S
C1724 O1716 1.250 . S
C1725 H1694 0.929 . S
C1725 C1710 1.437 . S
C1725 C1726 1.317 . S
C1726 H1697 0.930 . S
C1726 C1702 1.431 . S
C1726 C1725 1.317 . S
C1727 Gd1668 2.828 . S
C1727 O1712 1.258 . S
C1727 O1717 1.252 . S
C1727 C1728 1.497 . S
C1728 C1727 1.497 . S
C1728 C1729 1.395 . S
C1728 C1730 1.380 . S
C1729 C1728 1.395 . S
C1729 C1732 1.398 . S
C1729 H1744 0.930 . S
C1730 C1728 1.380 . S
C1730 C1731 1.391 . S
C1730 H1745 0.930 . S
C1731 C1730 1.391 . S
C1731 C1733 1.387 . S
C1732 C1729 1.398 . S
C1732 C1733 1.380 . S
C1732 H1746 0.930 . S
C1733 C1731 1.387 . S
C1733 C1732 1.380 . S
C1733 H1747 0.930 . S
C1734 O1714 1.254 . S
C1734 O1715 1.268 . S
C1735 O1719 1.284 . S
C1735 O1722 1.250 . S
C1736 Gd1669 2.828 . S
C1736 O1718 1.258 . S
C1736 O1723 1.252 . S
C1736 C1737 1.497 . S
C1737 C1736 1.497 . S
C1737 C1738 1.395 . S
C1737 C1739 1.380 . S
C1738 C1737 1.395 . S
C1738 C1741 1.398 . S
C1738 H1748 0.930 . S
C1739 C1737 1.380 . S
C1739 C1740 1.391 . S
C1739 H1749 0.930 . S
C1740 C1739 1.391 . S
C1740 C1742 1.387 . S
C1741 C1738 1.398 . S
C1741 C1742 1.380 . S
C1741 H1750 0.930 . S
C1742 C1740 1.387 . S
C1742 C1741 1.380 . S
C1742 H1751 0.930 . S
C1743 O1720 1.254 . S
C1743 O1721 1.268 . S
H1744 C1729 0.930 . S
H1745 C1730 0.930 . S
H1746 C1732 0.930 . S
H1747 C1733 0.930 . S
H1748 C1738 0.930 . S
H1749 C1739 0.930 . S
H1750 C1741 0.930 . S
H1751 C1742 0.930 . S
Gd1752 N1783 2.661 . S
Gd1752 N1789 2.601 . S
Gd1752 O1796 2.545 . S
Gd1752 O1797 2.606 . S
Gd1752 O1799 2.429 . S
Gd1752 O1800 2.545 . S
Gd1752 O1801 2.412 . S
Gd1752 O1803 2.362 . S
Gd1752 O1804 2.324 . S
Gd1752 C1811 2.828 . S
Gd1753 N1762 2.661 . S
Gd1753 N1766 2.601 . S
Gd1753 O1797 2.362 . S
Gd1753 O1798 2.324 . S
Gd1753 O1802 2.545 . S
Gd1753 O1803 2.606 . S
Gd1753 O1805 2.429 . S
Gd1753 O1806 2.545 . S
Gd1753 O1807 2.412 . S
Gd1753 C1820 2.828 . S
C1754 C1757 1.417 . S
C1754 C1759 1.431 . S
C1754 C1760 1.412 . S
C1755 C1758 1.437 . S
C1755 C1759 1.317 . S
C1755 H1774 0.929 . S
C1756 C1757 1.426 . S
C1756 C1758 1.413 . S
C1756 N1766 1.359 . S
C1757 C1754 1.417 . S
C1757 C1756 1.426 . S
C1757 N1762 1.350 . S
C1758 C1755 1.437 . S
C1758 C1756 1.413 . S
C1758 C1768 1.391 . S
C1759 C1754 1.431 . S
C1759 C1755 1.317 . S
C1759 H1770 0.930 . S
C1760 C1754 1.412 . S
C1760 C1761 1.355 . S
C1760 H1772 0.930 . S
C1761 C1760 1.355 . S
C1761 C1763 1.402 . S
C1761 H1773 0.930 . S
N1762 Gd1753 2.661 . S
N1762 C1757 1.350 . S
N1762 C1763 1.307 . S
C1763 C1761 1.402 . S
C1763 N1762 1.307 . S
C1763 H1764 0.930 . S
H1764 C1763 0.930 . S
C1765 N1766 1.334 . S
C1765 C1767 1.394 . S
C1765 H1769 0.930 . S
N1766 Gd1753 2.601 . S
N1766 C1756 1.359 . S
N1766 C1765 1.334 . S
C1767 C1765 1.394 . S
C1767 C1768 1.359 . S
C1767 H1779 0.930 . S
C1768 C1758 1.391 . S
C1768 C1767 1.359 . S
C1768 H1780 0.929 . S
H1769 C1765 0.930 . S
H1770 C1759 0.930 . S
H1771 C1788 0.930 . S
H1772 C1760 0.930 . S
H1773 C1761 0.930 . S
H1774 C1755 0.929 . S
H1775 C1793 0.930 . S
H1776 C1784 0.930 . S
H1777 C1785 0.930 . S
H1778 C1809 0.929 . S
H1779 C1767 0.930 . S
H1780 C1768 0.929 . S
H1781 C1810 0.930 . S
H1782 C1791 0.930 . S
N1783 Gd1752 2.661 . S
N1783 C1787 1.350 . S
N1783 C1788 1.307 . S
C1784 H1776 0.930 . S
C1784 C1785 1.355 . S
C1784 C1786 1.412 . S
C1785 H1777 0.930 . S
C1785 C1784 1.355 . S
C1785 C1788 1.402 . S
C1786 C1784 1.412 . S
C1786 C1787 1.417 . S
C1786 C1810 1.431 . S
C1787 N1783 1.350 . S
C1787 C1786 1.417 . S
C1787 C1790 1.426 . S
C1788 H1771 0.930 . S
C1788 N1783 1.307 . S
C1788 C1785 1.402 . S
N1789 Gd1752 2.601 . S
N1789 C1790 1.359 . S
N1789 C1793 1.334 . S
C1790 C1787 1.426 . S
C1790 N1789 1.359 . S
C1790 C1794 1.413 . S
C1791 H1782 0.930 . S
C1791 C1792 1.359 . S
C1791 C1793 1.394 . S
C1792 C1791 1.359 . S
C1792 C1794 1.391 . S
C1792 H1795 0.929 . S
C1793 H1775 0.930 . S
C1793 N1789 1.334 . S
C1793 C1791 1.394 . S
C1794 C1790 1.413 . S
C1794 C1792 1.391 . S
C1794 C1809 1.437 . S
H1795 C1792 0.929 . S
O1796 Gd1752 2.545 . S
O1796 C1811 1.258 . S
O1797 Gd1752 2.606 . S
O1797 Gd1753 2.362 . S
O1797 C1808 1.284 . S
O1798 Gd1753 2.324 . S
O1798 C1818 1.254 . S
O1799 Gd1752 2.429 . S
O1799 C1818 1.268 . S
O1800 Gd1752 2.545 . S
O1800 C1808 1.250 . S
O1801 Gd1752 2.412 . S
O1801 C1811 1.252 . S
O1802 Gd1753 2.545 . S
O1802 C1820 1.258 . S
O1803 Gd1752 2.362 . S
O1803 Gd1753 2.606 . S
O1803 C1819 1.284 . S
O1804 Gd1752 2.324 . S
O1804 C1827 1.254 . S
O1805 Gd1753 2.429 . S
O1805 C1827 1.268 . S
O1806 Gd1753 2.545 . S
O1806 C1819 1.250 . S
O1807 Gd1753 2.412 . S
O1807 C1820 1.252 . S
C1808 O1797 1.284 . S
C1808 O1800 1.250 . S
C1809 H1778 0.929 . S
C1809 C1794 1.437 . S
C1809 C1810 1.317 . S
C1810 H1781 0.930 . S
C1810 C1786 1.431 . S
C1810 C1809 1.317 . S
C1811 Gd1752 2.828 . S
C1811 O1796 1.258 . S
C1811 O1801 1.252 . S
C1811 C1812 1.497 . S
C1812 C1811 1.497 . S
C1812 C1813 1.395 . S
C1812 C1814 1.380 . S
C1813 C1812 1.395 . S
C1813 C1816 1.398 . S
C1813 H1828 0.930 . S
C1814 C1812 1.380 . S
C1814 C1815 1.391 . S
C1814 H1829 0.930 . S
C1815 C1814 1.391 . S
C1815 C1817 1.387 . S
C1816 C1813 1.398 . S
C1816 C1817 1.380 . S
C1816 H1830 0.930 . S
C1817 C1815 1.387 . S
C1817 C1816 1.380 . S
C1817 H1831 0.930 . S
C1818 O1798 1.254 . S
C1818 O1799 1.268 . S
C1819 O1803 1.284 . S
C1819 O1806 1.250 . S
C1820 Gd1753 2.828 . S
C1820 O1802 1.258 . S
C1820 O1807 1.252 . S
C1820 C1821 1.497 . S
C1821 C1820 1.497 . S
C1821 C1822 1.395 . S
C1821 C1823 1.380 . S
C1822 C1821 1.395 . S
C1822 C1825 1.398 . S
C1822 H1832 0.930 . S
C1823 C1821 1.380 . S
C1823 C1824 1.391 . S
C1823 H1833 0.930 . S
C1824 C1823 1.391 . S
C1824 C1826 1.387 . S
C1825 C1822 1.398 . S
C1825 C1826 1.380 . S
C1825 H1834 0.930 . S
C1826 C1824 1.387 . S
C1826 C1825 1.380 . S
C1826 H1835 0.930 . S
C1827 O1804 1.254 . S
C1827 O1805 1.268 . S
H1828 C1813 0.930 . S
H1829 C1814 0.930 . S
H1830 C1816 0.930 . S
H1831 C1817 0.930 . S
H1832 C1822 0.930 . S
H1833 C1823 0.930 . S
H1834 C1825 0.930 . S
H1835 C1826 0.930 . S
C1836 C1837 1.369 . S
C1836 C1838 1.419 . S
C1836 H1840 0.930 . S
C1837 C1836 1.369 . S
C1837 C1846 1.429 . S
C1838 C1836 1.419 . S
C1838 C1839 1.363 . S
C1838 H1841 0.929 . S
C1839 C1838 1.363 . S
C1839 C1845 1.428 . S
H1840 C1836 0.930 . S
H1841 C1838 0.929 . S
S1842 N1843 1.613 1_556 S
S1842 N1844 1.610 . S
N1843 S1842 1.613 1_554 S
N1843 C1846 1.350 . S
N1844 S1842 1.610 . S
N1844 C1845 1.351 1_556 S
C1845 C1839 1.428 . S
C1845 N1844 1.351 1_554 S
C1845 C1846 1.434 . S
C1846 C1837 1.429 . S
C1846 N1843 1.350 . S
C1846 C1845 1.434 . S
C1847 C1848 1.369 . S
C1847 C1849 1.419 . S
C1847 H1851 0.930 . S
C1848 C1847 1.369 . S
C1848 C1857 1.429 . S
C1849 C1847 1.419 . S
C1849 C1850 1.363 . S
C1849 H1852 0.955 . S
C1850 C1849 1.363 . S
C1850 C1856 1.428 . S
H1851 C1847 0.930 . S
H1852 C1849 0.955 . S
S1853 N1854 1.613 . S
S1853 N1855 1.610 . S
N1854 S1853 1.613 . S
N1854 C1857 1.350 . S
N1855 S1853 1.610 . S
N1855 C1856 1.351 . S
C1856 C1850 1.428 . S
C1856 N1855 1.351 . S
C1856 C1857 1.434 . S
C1857 C1848 1.429 . S
C1857 N1854 1.350 . S
C1857 C1856 1.434 . S
C1858 C1859 1.369 . S
C1858 C1860 1.419 . S
C1858 H1862 0.930 . S
C1859 C1858 1.369 . S
C1859 C1868 1.429 . S
C1860 C1858 1.419 . S
C1860 C1861 1.363 . S
C1860 H1863 0.929 . S
C1861 C1860 1.363 . S
C1861 C1867 1.428 . S
H1862 C1858 0.930 . S
H1863 C1860 0.929 . S
S1864 N1865 1.613 . S
S1864 N1866 1.610 . S
N1865 S1864 1.613 . S
N1865 C1868 1.350 . S
N1866 S1864 1.610 . S
N1866 C1867 1.351 . S
C1867 C1861 1.428 . S
C1867 N1866 1.351 . S
C1867 C1868 1.434 . S
C1868 C1859 1.429 . S
C1868 N1865 1.350 . S
C1868 C1867 1.434 . S
C1869 C1870 1.369 . S
C1869 C1871 1.419 . S
C1869 H1873 0.930 . S
C1870 C1869 1.369 . S
C1870 C1879 1.429 . S
C1871 C1869 1.419 . S
C1871 C1872 1.363 . S
C1871 H1874 0.929 . S
C1872 C1871 1.363 . S
C1872 C1878 1.428 . S
H1873 C1869 0.930 . S
H1874 C1871 0.929 . S
S1875 N1876 1.613 . S
S1875 N1877 1.610 . S
N1876 S1875 1.613 . S
N1876 C1879 1.350 . S
N1877 S1875 1.610 . S
N1877 C1878 1.351 . S
C1878 C1872 1.428 . S
C1878 N1877 1.351 . S
C1878 C1879 1.434 . S
C1879 C1870 1.429 . S
C1879 N1876 1.350 . S
C1879 C1878 1.434 . S
C1880 C1881 1.369 . S
C1880 C1882 1.419 . S
C1880 H1884 0.930 . S
C1881 C1880 1.369 . S
C1881 C1890 1.429 . S
C1882 C1880 1.419 . S
C1882 C1883 1.363 . S
C1882 H1885 0.929 . S
C1883 C1882 1.363 . S
C1883 C1889 1.428 . S
H1884 C1880 0.930 . S
H1885 C1882 0.929 . S
S1886 N1887 1.613 . S
S1886 N1888 1.610 . S
N1887 S1886 1.613 . S
N1887 C1890 1.350 . S
N1888 S1886 1.610 . S
N1888 C1889 1.351 . S
C1889 C1883 1.428 . S
C1889 N1888 1.351 . S
C1889 C1890 1.434 . S
C1890 C1881 1.429 . S
C1890 N1887 1.350 . S
C1890 C1889 1.434 . S
C1891 C1892 1.369 . S
C1891 C1893 1.419 . S
C1891 H1895 0.930 . S
C1892 C1891 1.369 . S
C1892 C1901 1.429 . S
C1893 C1891 1.419 . S
C1893 C1894 1.363 . S
C1893 H1896 0.929 1_556 S
C1894 C1893 1.363 . S
C1894 C1900 1.428 . S
H1895 C1891 0.930 . S
H1896 C1893 0.929 1_554 S
S1897 N1898 1.613 . S
S1897 N1899 1.610 . S
N1898 S1897 1.613 . S
N1898 C1901 1.350 . S
N1899 S1897 1.610 . S
N1899 C1900 1.351 . S
C1900 C1894 1.428 . S
C1900 N1899 1.351 . S
C1900 C1901 1.434 . S
C1901 C1892 1.429 . S
C1901 N1898 1.350 . S
C1901 C1900 1.434 . S
C1902 C1903 1.369 . S
C1902 C1904 1.419 . S
C1902 H1906 0.930 . S
C1903 C1902 1.369 . S
C1903 C1912 1.429 . S
C1904 C1902 1.419 . S
C1904 C1905 1.363 . S
C1904 H1907 0.929 . S
C1905 C1904 1.363 . S
C1905 C1911 1.428 . S
H1906 C1902 0.930 . S
H1907 C1904 0.929 . S
S1908 N1909 1.613 1_554 S
S1908 N1910 1.610 . S
N1909 S1908 1.613 1_556 S
N1909 C1912 1.350 . S
N1910 S1908 1.610 . S
N1910 C1911 1.351 1_554 S
C1911 C1905 1.428 . S
C1911 N1910 1.351 1_556 S
C1911 C1912 1.434 . S
C1912 C1903 1.429 . S
C1912 N1909 1.350 . S
C1912 C1911 1.434 . S
C1913 C1914 1.369 . S
C1913 C1915 1.419 . S
C1913 H1917 0.930 . S
C1914 C1913 1.369 . S
C1914 C1923 1.429 . S
C1915 C1913 1.419 . S
C1915 C1916 1.363 . S
C1915 H1918 0.929 . S
C1916 C1915 1.363 . S
C1916 C1922 1.428 . S
H1917 C1913 0.930 . S
H1918 C1915 0.929 . S
S1919 N1920 1.613 . S
S1919 N1921 1.610 . S
N1920 S1919 1.613 . S
N1920 C1923 1.350 . S
N1921 S1919 1.610 . S
N1921 C1922 1.351 . S
C1922 C1916 1.428 . S
C1922 N1921 1.351 . S
C1922 C1923 1.434 . S
C1923 C1914 1.429 . S
C1923 N1920 1.350 . S
C1923 C1922 1.434 . S
C1924 C1925 1.369 . S
C1924 C1926 1.419 . S
C1924 H1928 0.930 . S
C1925 C1924 1.369 . S
C1925 C1934 1.429 . S
C1926 C1924 1.419 . S
C1926 C1927 1.363 . S
C1926 H1929 0.929 1_556 S
C1927 C1926 1.363 . S
C1927 C1933 1.428 . S
H1928 C1924 0.930 . S
H1929 C1926 0.929 1_554 S
S1930 N1931 1.613 . S
S1930 N1932 1.610 . S
N1931 S1930 1.613 . S
N1931 C1934 1.350 . S
N1932 S1930 1.610 . S
N1932 C1933 1.351 . S
C1933 C1927 1.428 . S
C1933 N1932 1.351 . S
C1933 C1934 1.434 . S
C1934 C1925 1.429 . S
C1934 N1931 1.350 . S
C1934 C1933 1.434 . S
C1935 C1936 1.369 . S
C1935 C1937 1.419 . S
C1935 H1939 0.930 . S
C1936 C1935 1.369 . S
C1936 C1945 1.429 . S
C1937 C1935 1.419 . S
C1937 C1938 1.363 . S
C1937 H1940 0.929 1_554 S
C1938 C1937 1.363 . S
C1938 C1944 1.428 . S
H1939 C1935 0.930 . S
H1940 C1937 0.929 1_556 S
S1941 N1942 1.613 . S
S1941 N1943 1.610 . S
N1942 S1941 1.613 . S
N1942 C1945 1.350 . S
N1943 S1941 1.610 . S
N1943 C1944 1.351 . S
C1944 C1938 1.428 . S
C1944 N1943 1.351 . S
C1944 C1945 1.434 . S
C1945 C1936 1.429 . S
C1945 N1942 1.350 . S
C1945 C1944 1.434 . S
C1946 C1947 1.369 . S
C1946 C1948 1.419 . S
C1946 H1950 0.930 . S
C1947 C1946 1.369 . S
C1947 C1956 1.429 . S
C1948 C1946 1.419 . S
C1948 C1949 1.363 . S
C1948 H1951 0.929 . S
C1949 C1948 1.363 . S
C1949 C1955 1.428 . S
H1950 C1946 0.930 . S
H1951 C1948 0.929 . S
S1952 N1953 1.613 . S
S1952 N1954 1.610 . S
N1953 S1952 1.613 . S
N1953 C1956 1.350 . S
N1954 S1952 1.610 . S
N1954 C1955 1.351 . S
C1955 C1949 1.428 . S
C1955 N1954 1.351 . S
C1955 C1956 1.434 . S
C1956 C1947 1.429 . S
C1956 N1953 1.350 . S
C1956 C1955 1.434 . S
C1957 C1958 1.369 . S
C1957 C1959 1.419 . S
C1957 H1961 0.930 . S
C1958 C1957 1.369 . S
C1958 C1967 1.429 . S
C1959 C1957 1.419 . S
C1959 C1960 1.363 . S
C1959 H1962 0.929 1_554 S
C1960 C1959 1.363 . S
C1960 C1966 1.428 . S
H1961 C1957 0.930 . S
H1962 C1959 0.929 1_556 S
S1963 N1964 1.613 . S
S1963 N1965 1.610 . S
N1964 S1963 1.613 . S
N1964 C1967 1.350 . S
N1965 S1963 1.610 . S
N1965 C1966 1.351 . S
C1966 C1960 1.428 . S
C1966 N1965 1.351 . S
C1966 C1967 1.434 . S
C1967 C1958 1.429 . S
C1967 N1964 1.350 . S
C1967 C1966 1.434 . S
C1968 C1969 1.369 . S
C1968 C1970 1.419 . S
C1968 H1972 0.930 . S
C1969 C1968 1.369 . S
C1969 C1978 1.429 . S
C1970 C1968 1.419 . S
C1970 C1971 1.363 . S
C1970 H1973 0.929 . S
C1971 C1970 1.363 . S
C1971 C1977 1.428 . S
H1972 C1968 0.930 . S
H1973 C1970 0.929 . S
S1974 N1975 1.613 . S
S1974 N1976 1.610 . S
N1975 S1974 1.613 . S
N1975 C1978 1.350 . S
N1976 S1974 1.610 . S
N1976 C1977 1.351 . S
C1977 C1971 1.428 . S
C1977 N1976 1.351 . S
C1977 C1978 1.434 . S
C1978 C1969 1.429 . S
C1978 N1975 1.350 . S
C1978 C1977 1.434 . S
C1979 C1980 1.369 . S
C1979 C1981 1.419 . S
C1979 H1983 0.930 . S
C1980 C1979 1.369 . S
C1980 C1989 1.429 . S
C1981 C1979 1.419 . S
C1981 C1982 1.363 . S
C1981 H1984 0.929 . S
C1982 C1981 1.363 . S
C1982 C1988 1.428 . S
H1983 C1979 0.930 . S
H1984 C1981 0.929 . S
S1985 N1986 1.613 . S
S1985 N1987 1.610 . S
N1986 S1985 1.613 . S
N1986 C1989 1.350 . S
N1987 S1985 1.610 . S
N1987 C1988 1.351 . S
C1988 C1982 1.428 . S
C1988 N1987 1.351 . S
C1988 C1989 1.434 . S
C1989 C1980 1.429 . S
C1989 N1986 1.350 . S
C1989 C1988 1.434 . S
C1990 C1991 1.369 . S
C1990 C1992 1.419 . S
C1990 H1994 0.930 . S
C1991 C1990 1.369 . S
C1991 C2000 1.429 . S
C1992 C1990 1.419 . S
C1992 C1993 1.363 . S
C1992 H1995 0.929 . S
C1993 C1992 1.363 . S
C1993 C1999 1.428 . S
H1994 C1990 0.930 . S
H1995 C1992 0.929 . S
S1996 N1997 1.613 . S
S1996 N1998 1.610 . S
N1997 S1996 1.613 . S
N1997 C2000 1.350 . S
N1998 S1996 1.610 . S
N1998 C1999 1.351 . S
C1999 C1993 1.428 . S
C1999 N1998 1.351 . S
C1999 C2000 1.434 . S
C2000 C1991 1.429 . S
C2000 N1997 1.350 . S
C2000 C1999 1.434 . S
C2001 C2002 1.369 . S
C2001 C2003 1.419 . S
C2001 H2005 0.930 . S
C2002 C2001 1.369 . S
C2002 C2011 1.429 . S
C2003 C2001 1.419 . S
C2003 C2004 1.363 . S
C2003 H2006 0.929 . S
C2004 C2003 1.363 . S
C2004 C2010 1.428 . S
H2005 C2001 0.930 . S
H2006 C2003 0.929 . S
S2007 N2008 1.613 . S
S2007 N2009 1.610 . S
N2008 S2007 1.613 . S
N2008 C2011 1.350 . S
N2009 S2007 1.610 . S
N2009 C2010 1.351 . S
C2010 C2004 1.428 . S
C2010 N2009 1.351 . S
C2010 C2011 1.434 . S
C2011 C2002 1.429 . S
C2011 N2008 1.350 . S
C2011 C2010 1.434 . S
C2012 C2013 1.369 . S
C2012 C2014 1.419 . S
C2012 H2016 0.930 . S
C2013 C2012 1.369 . S
C2013 C2022 1.429 . S
C2014 C2012 1.419 . S
C2014 C2015 1.363 . S
C2014 H2017 0.929 . S
C2015 C2014 1.363 . S
C2015 C2021 1.428 . S
H2016 C2012 0.930 . S
H2017 C2014 0.929 . S
S2018 N2019 1.613 . S
S2018 N2020 1.610 . S
N2019 S2018 1.613 . S
N2019 C2022 1.350 . S
N2020 S2018 1.610 . S
N2020 C2021 1.351 . S
C2021 C2015 1.428 . S
C2021 N2020 1.351 . S
C2021 C2022 1.434 . S
C2022 C2013 1.429 . S
C2022 N2019 1.350 . S
C2022 C2021 1.434 . S
C2023 C2024 1.369 . S
C2023 C2025 1.419 . S
C2023 H2027 0.930 . S
C2024 C2023 1.369 . S
C2024 C2033 1.429 . S
C2025 C2023 1.419 . S
C2025 C2026 1.363 . S
C2025 H2028 0.929 . S
C2026 C2025 1.363 . S
C2026 C2032 1.428 . S
H2027 C2023 0.930 . S
H2028 C2025 0.929 . S
S2029 N2030 1.613 . S
S2029 N2031 1.610 . S
N2030 S2029 1.613 . S
N2030 C2033 1.350 . S
N2031 S2029 1.610 . S
N2031 C2032 1.351 . S
C2032 C2026 1.428 . S
C2032 N2031 1.351 . S
C2032 C2033 1.434 . S
C2033 C2024 1.429 . S
C2033 N2030 1.350 . S
C2033 C2032 1.434 . S
C2034 C2035 1.369 . S
C2034 C2036 1.419 . S
C2034 H2038 0.930 . S
C2035 C2034 1.369 . S
C2035 C2044 1.429 . S
C2036 C2034 1.419 . S
C2036 C2037 1.363 . S
C2036 H2039 0.929 . S
C2037 C2036 1.363 . S
C2037 C2043 1.428 . S
H2038 C2034 0.930 . S
H2039 C2036 0.929 . S
S2040 N2041 1.613 . S
S2040 N2042 1.610 . S
N2041 S2040 1.613 . S
N2041 C2044 1.350 . S
N2042 S2040 1.610 . S
N2042 C2043 1.351 . S
C2043 C2037 1.428 . S
C2043 N2042 1.351 . S
C2043 C2044 1.434 . S
C2044 C2035 1.429 . S
C2044 N2041 1.350 . S
C2044 C2043 1.434 . S
C2045 C2046 1.369 . S
C2045 C2047 1.419 . S
C2045 H2049 0.930 . S
C2046 C2045 1.369 . S
C2046 C2055 1.429 . S
C2047 C2045 1.419 . S
C2047 C2048 1.363 . S
C2047 H2050 0.929 . S
C2048 C2047 1.363 . S
C2048 C2054 1.428 . S
H2049 C2045 0.930 . S
H2050 C2047 0.929 . S
S2051 N2052 1.613 . S
S2051 N2053 1.610 . S
N2052 S2051 1.613 . S
N2052 C2055 1.350 . S
N2053 S2051 1.610 . S
N2053 C2054 1.351 . S
C2054 C2048 1.428 . S
C2054 N2053 1.351 . S
C2054 C2055 1.434 . S
C2055 C2046 1.429 . S
C2055 N2052 1.350 . S
C2055 C2054 1.434 . S
C2056 C2057 1.369 . S
C2056 C2058 1.419 . S
C2056 H2060 0.930 . S
C2057 C2056 1.369 . S
C2057 C2066 1.429 . S
C2058 C2056 1.419 . S
C2058 C2059 1.363 . S
C2058 H2061 0.929 . S
C2059 C2058 1.363 . S
C2059 C2065 1.428 . S
H2060 C2056 0.930 . S
H2061 C2058 0.929 . S
S2062 N2063 1.613 . S
S2062 N2064 1.610 . S
N2063 S2062 1.613 . S
N2063 C2066 1.350 . S
N2064 S2062 1.610 . S
N2064 C2065 1.351 . S
C2065 C2059 1.428 . S
C2065 N2064 1.351 . S
C2065 C2066 1.434 . S
C2066 C2057 1.429 . S
C2066 N2063 1.350 . S
C2066 C2065 1.434 . S
C2067 C2068 1.369 . S
C2067 C2069 1.419 . S
C2067 H2071 0.930 . S
C2068 C2067 1.369 . S
C2068 C2077 1.429 . S
C2069 C2067 1.419 . S
C2069 C2070 1.363 . S
C2069 H2072 0.929 . S
C2070 C2069 1.363 . S
C2070 C2076 1.428 . S
H2071 C2067 0.930 . S
H2072 C2069 0.929 . S
S2073 N2074 1.613 . S
S2073 N2075 1.610 . S
N2074 S2073 1.613 . S
N2074 C2077 1.350 . S
N2075 S2073 1.610 . S
N2075 C2076 1.351 . S
C2076 C2070 1.428 . S
C2076 N2075 1.351 . S
C2076 C2077 1.434 . S
C2077 C2068 1.429 . S
C2077 N2074 1.350 . S
C2077 C2076 1.434 . S
C2078 C2079 1.369 . S
C2078 C2080 1.419 . S
C2078 H2082 0.930 . S
C2079 C2078 1.369 . S
C2079 C2088 1.429 . S
C2080 C2078 1.419 . S
C2080 C2081 1.363 . S
C2080 H2083 0.929 . S
C2081 C2080 1.363 . S
C2081 C2087 1.428 . S
H2082 C2078 0.930 . S
H2083 C2080 0.929 . S
S2084 N2085 1.613 . S
S2084 N2086 1.610 . S
N2085 S2084 1.613 . S
N2085 C2088 1.350 . S
N2086 S2084 1.610 . S
N2086 C2087 1.351 . S
C2087 C2081 1.428 . S
C2087 N2086 1.351 . S
C2087 C2088 1.434 . S
C2088 C2079 1.429 . S
C2088 N2085 1.350 . S
C2088 C2087 1.434 . S
C2089 C2090 1.369 . S
C2089 C2091 1.419 . S
C2089 H2093 0.930 . S
C2090 C2089 1.369 . S
C2090 C2099 1.429 . S
C2091 C2089 1.419 . S
C2091 C2092 1.363 . S
C2091 H2094 0.929 . S
C2092 C2091 1.363 . S
C2092 C2098 1.428 . S
H2093 C2089 0.930 . S
H2094 C2091 0.929 . S
S2095 N2096 1.613 . S
S2095 N2097 1.610 . S
N2096 S2095 1.613 . S
N2096 C2099 1.350 . S
N2097 S2095 1.610 . S
N2097 C2098 1.351 . S
C2098 C2092 1.428 . S
C2098 N2097 1.351 . S
C2098 C2099 1.434 . S
C2099 C2090 1.429 . S
C2099 N2096 1.350 . S
C2099 C2098 1.434 . S
C2100 C2101 1.369 . S
C2100 C2102 1.419 . S
C2100 H2104 0.930 . S
C2101 C2100 1.369 . S
C2101 C2110 1.429 . S
C2102 C2100 1.419 . S
C2102 C2103 1.363 . S
C2102 H2105 0.929 . S
C2103 C2102 1.363 . S
C2103 C2109 1.428 . S
H2104 C2100 0.930 . S
H2105 C2102 0.929 . S
S2106 N2107 1.613 . S
S2106 N2108 1.610 . S
N2107 S2106 1.613 . S
N2107 C2110 1.350 . S
N2108 S2106 1.610 . S
N2108 C2109 1.351 . S
C2109 C2103 1.428 . S
C2109 N2108 1.351 . S
C2109 C2110 1.434 . S
C2110 C2101 1.429 . S
C2110 N2107 1.350 . S
C2110 C2109 1.434 . S
C2111 C2112 1.369 . S
C2111 C2113 1.419 . S
C2111 H2115 0.930 . S
C2112 C2111 1.369 . S
C2112 C2121 1.429 . S
C2113 C2111 1.419 . S
C2113 C2114 1.363 . S
C2113 H2116 0.929 . S
C2114 C2113 1.363 . S
C2114 C2120 1.428 . S
H2115 C2111 0.930 . S
H2116 C2113 0.929 . S
S2117 N2118 1.613 . S
S2117 N2119 1.610 . S
N2118 S2117 1.613 . S
N2118 C2121 1.350 . S
N2119 S2117 1.610 . S
N2119 C2120 1.351 . S
C2120 C2114 1.428 . S
C2120 N2119 1.351 . S
C2120 C2121 1.434 . S
C2121 C2112 1.429 . S
C2121 N2118 1.350 . S
C2121 C2120 1.434 . S
C2122 C2123 1.369 . S
C2122 C2124 1.419 . S
C2122 H2126 0.930 . S
C2123 C2122 1.369 . S
C2123 C2132 1.429 . S
C2124 C2122 1.419 . S
C2124 C2125 1.363 . S
C2124 H2127 0.929 . S
C2125 C2124 1.363 . S
C2125 C2131 1.428 . S
H2126 C2122 0.930 . S
H2127 C2124 0.929 . S
S2128 N2129 1.613 . S
S2128 N2130 1.610 . S
N2129 S2128 1.613 . S
N2129 C2132 1.350 . S
N2130 S2128 1.610 . S
N2130 C2131 1.351 . S
C2131 C2125 1.428 . S
C2131 N2130 1.351 . S
C2131 C2132 1.434 . S
C2132 C2123 1.429 . S
C2132 N2129 1.350 . S
C2132 C2131 1.434 . S
C2133 C2134 1.369 . S
C2133 C2135 1.419 . S
C2133 H2137 0.930 . S
C2134 C2133 1.369 . S
C2134 C2143 1.429 . S
C2135 C2133 1.419 . S
C2135 C2136 1.363 . S
C2135 H2138 0.929 . S
C2136 C2135 1.363 . S
C2136 C2142 1.428 . S
H2137 C2133 0.930 . S
H2138 C2135 0.929 . S
S2139 N2140 1.613 . S
S2139 N2141 1.610 . S
N2140 S2139 1.613 . S
N2140 C2143 1.350 . S
N2141 S2139 1.610 . S
N2141 C2142 1.351 . S
C2142 C2136 1.428 . S
C2142 N2141 1.351 . S
C2142 C2143 1.434 . S
C2143 C2134 1.429 . S
C2143 N2140 1.350 . S
C2143 C2142 1.434 . S
C2144 C2145 1.369 . S
C2144 C2146 1.419 . S
C2144 H2148 0.930 . S
C2145 C2144 1.369 . S
C2145 C2154 1.429 . S
C2146 C2144 1.419 . S
C2146 C2147 1.363 . S
C2146 H2149 0.929 . S
C2147 C2146 1.363 . S
C2147 C2153 1.428 . S
H2148 C2144 0.930 . S
H2149 C2146 0.929 . S
S2150 N2151 1.613 . S
S2150 N2152 1.610 . S
N2151 S2150 1.613 . S
N2151 C2154 1.350 . S
N2152 S2150 1.610 . S
N2152 C2153 1.351 . S
C2153 C2147 1.428 . S
C2153 N2152 1.351 . S
C2153 C2154 1.434 . S
C2154 C2145 1.429 . S
C2154 N2151 1.350 . S
C2154 C2153 1.434 . S
C2155 C2156 1.369 . S
C2155 C2157 1.419 . S
C2155 H2159 0.930 . S
C2156 C2155 1.369 . S
C2156 C2165 1.429 . S
C2157 C2155 1.419 . S
C2157 C2158 1.363 . S
C2157 H2160 0.929 . S
C2158 C2157 1.363 . S
C2158 C2164 1.428 . S
H2159 C2155 0.930 . S
H2160 C2157 0.929 . S
S2161 N2162 1.613 . S
S2161 N2163 1.610 . S
N2162 S2161 1.613 . S
N2162 C2165 1.350 . S
N2163 S2161 1.610 . S
N2163 C2164 1.351 . S
C2164 C2158 1.428 . S
C2164 N2163 1.351 . S
C2164 C2165 1.434 . S
C2165 C2156 1.429 . S
C2165 N2162 1.350 . S
C2165 C2164 1.434 . S
C2166 C2167 1.369 . S
C2166 C2168 1.419 . S
C2166 H2170 0.930 . S
C2167 C2166 1.369 . S
C2167 C2176 1.429 . S
C2168 C2166 1.419 . S
C2168 C2169 1.363 . S
C2168 H2171 0.929 . S
C2169 C2168 1.363 . S
C2169 C2175 1.428 . S
H2170 C2166 0.930 . S
H2171 C2168 0.929 . S
S2172 N2173 1.613 . S
S2172 N2174 1.610 . S
N2173 S2172 1.613 . S
N2173 C2176 1.350 . S
N2174 S2172 1.610 . S
N2174 C2175 1.351 . S
C2175 C2169 1.428 . S
C2175 N2174 1.351 . S
C2175 C2176 1.434 . S
C2176 C2167 1.429 . S
C2176 N2173 1.350 . S
C2176 C2175 1.434 . S
C2177 C2178 1.369 . S
C2177 C2179 1.419 . S
C2177 H2181 0.930 . S
C2178 C2177 1.369 . S
C2178 C2187 1.429 . S
C2179 C2177 1.419 . S
C2179 C2180 1.363 . S
C2179 H2182 0.929 . S
C2180 C2179 1.363 . S
C2180 C2186 1.428 . S
H2181 C2177 0.930 . S
H2182 C2179 0.929 . S
S2183 N2184 1.613 . S
S2183 N2185 1.610 . S
N2184 S2183 1.613 . S
N2184 C2187 1.350 . S
N2185 S2183 1.610 . S
N2185 C2186 1.351 . S
C2186 C2180 1.428 . S
C2186 N2185 1.351 . S
C2186 C2187 1.434 . S
C2187 C2178 1.429 . S
C2187 N2184 1.350 . S
C2187 C2186 1.434 . S
C2188 C2189 1.369 . S
C2188 C2190 1.419 . S
C2188 H2192 0.930 . S
C2189 C2188 1.369 . S
C2189 C2198 1.429 . S
C2190 C2188 1.419 . S
C2190 C2191 1.363 . S
C2190 H2193 0.929 . S
C2191 C2190 1.363 . S
C2191 C2197 1.428 . S
H2192 C2188 0.930 . S
H2193 C2190 0.929 . S
S2194 N2195 1.613 . S
S2194 N2196 1.610 . S
N2195 S2194 1.613 . S
N2195 C2198 1.350 . S
N2196 S2194 1.610 . S
N2196 C2197 1.351 . S
C2197 C2191 1.428 . S
C2197 N2196 1.351 . S
C2197 C2198 1.434 . S
C2198 C2189 1.429 . S
C2198 N2195 1.350 . S
C2198 C2197 1.434 . S
C2199 C2200 1.369 . S
C2199 C2201 1.419 . S
C2199 H2203 0.930 . S
C2200 C2199 1.369 . S
C2200 C2209 1.429 . S
C2201 C2199 1.419 . S
C2201 C2202 1.363 . S
C2201 H2204 0.929 . S
C2202 C2201 1.363 . S
C2202 C2208 1.428 . S
H2203 C2199 0.930 . S
H2204 C2201 0.929 . S
S2205 N2206 1.613 . S
S2205 N2207 1.610 . S
N2206 S2205 1.613 . S
N2206 C2209 1.350 . S
N2207 S2205 1.610 . S
N2207 C2208 1.351 . S
C2208 C2202 1.428 . S
C2208 N2207 1.351 . S
C2208 C2209 1.434 . S
C2209 C2200 1.429 . S
C2209 N2206 1.350 . S
C2209 C2208 1.434 . S
C2210 C2211 1.369 . S
C2210 C2212 1.419 . S
C2210 H2214 0.930 . S
C2211 C2210 1.369 . S
C2211 C2220 1.429 . S
C2212 C2210 1.419 . S
C2212 C2213 1.363 . S
C2212 H2215 0.929 . S
C2213 C2212 1.363 . S
C2213 C2219 1.428 . S
H2214 C2210 0.930 . S
H2215 C2212 0.929 . S
S2216 N2217 1.613 . S
S2216 N2218 1.610 . S
N2217 S2216 1.613 . S
N2217 C2220 1.350 . S
N2218 S2216 1.610 . S
N2218 C2219 1.351 . S
C2219 C2213 1.428 . S
C2219 N2218 1.351 . S
C2219 C2220 1.434 . S
C2220 C2211 1.429 . S
C2220 N2217 1.350 . S
C2220 C2219 1.434 . S
C2221 C2222 1.369 . S
C2221 C2223 1.419 . S
C2221 H2225 0.930 . S
C2222 C2221 1.369 . S
C2222 C2231 1.429 . S
C2223 C2221 1.419 . S
C2223 C2224 1.363 . S
C2223 H2226 0.929 . S
C2224 C2223 1.363 . S
C2224 C2230 1.428 . S
H2225 C2221 0.930 . S
H2226 C2223 0.929 . S
S2227 N2228 1.613 . S
S2227 N2229 1.610 . S
N2228 S2227 1.613 . S
N2228 C2231 1.350 . S
N2229 S2227 1.610 . S
N2229 C2230 1.351 . S
C2230 C2224 1.428 . S
C2230 N2229 1.351 . S
C2230 C2231 1.434 . S
C2231 C2222 1.429 . S
C2231 N2228 1.350 . S
C2231 C2230 1.434 . S
C2232 C2233 1.369 . S
C2232 C2234 1.419 . S
C2232 H2236 0.930 . S
C2233 C2232 1.369 . S
C2233 C2242 1.429 . S
C2234 C2232 1.419 . S
C2234 C2235 1.363 . S
C2234 H2237 0.929 . S
C2235 C2234 1.363 . S
C2235 C2241 1.428 . S
H2236 C2232 0.930 . S
H2237 C2234 0.929 . S
S2238 N2239 1.613 1_545 S
S2238 N2240 1.610 . S
N2239 S2238 1.613 1_565 S
N2239 C2242 1.350 . S
N2240 S2238 1.610 . S
N2240 C2241 1.351 1_545 S
C2241 C2235 1.428 . S
C2241 N2240 1.351 1_565 S
C2241 C2242 1.434 . S
C2242 C2233 1.429 . S
C2242 N2239 1.350 . S
C2242 C2241 1.434 . S
C2243 C2244 1.369 . S
C2243 C2245 1.419 . S
C2243 H2247 0.930 . S
C2244 C2243 1.369 . S
C2244 C2253 1.429 . S
C2245 C2243 1.419 . S
C2245 C2246 1.363 . S
C2245 H2248 0.929 . S
C2246 C2245 1.363 . S
C2246 C2252 1.428 . S
H2247 C2243 0.930 . S
H2248 C2245 0.929 . S
S2249 N2250 1.613 . S
S2249 N2251 1.610 . S
N2250 S2249 1.613 . S
N2250 C2253 1.350 1_655 S
N2251 S2249 1.610 . S
N2251 C2252 1.351 1_655 S
C2252 C2246 1.428 . S
C2252 N2251 1.351 1_455 S
C2252 C2253 1.434 . S
C2253 C2244 1.429 . S
C2253 N2250 1.350 1_455 S
C2253 C2252 1.434 . S
C2254 C2255 1.369 . S
C2254 C2256 1.419 . S
C2254 H2258 0.930 . S
C2255 C2254 1.369 . S
C2255 C2264 1.429 . S
C2256 C2254 1.419 . S
C2256 C2257 1.363 . S
C2256 H2259 0.929 . S
C2257 C2256 1.363 . S
C2257 C2263 1.428 . S
H2258 C2254 0.930 . S
H2259 C2256 0.929 . S
S2260 N2261 1.613 . S
S2260 N2262 1.610 . S
N2261 S2260 1.613 . S
N2261 C2264 1.350 . S
N2262 S2260 1.610 . S
N2262 C2263 1.351 . S
C2263 C2257 1.428 . S
C2263 N2262 1.351 . S
C2263 C2264 1.434 . S
C2264 C2255 1.429 . S
C2264 N2261 1.350 . S
C2264 C2263 1.434 . S
C2265 C2266 1.369 . S
C2265 C2267 1.419 . S
C2265 H2269 0.930 . S
C2266 C2265 1.369 . S
C2266 C2275 1.429 . S
C2267 C2265 1.419 . S
C2267 C2268 1.363 . S
C2267 H2270 0.929 . S
C2268 C2267 1.363 . S
C2268 C2274 1.428 . S
H2269 C2265 0.930 . S
H2270 C2267 0.929 . S
S2271 N2272 1.613 . S
S2271 N2273 1.610 . S
N2272 S2271 1.613 . S
N2272 C2275 1.350 1_455 S
N2273 S2271 1.610 . S
N2273 C2274 1.351 1_455 S
C2274 C2268 1.428 . S
C2274 N2273 1.351 1_655 S
C2274 C2275 1.434 . S
C2275 C2266 1.429 . S
C2275 N2272 1.350 1_655 S
C2275 C2274 1.434 . S
C2276 C2277 1.369 . S
C2276 C2278 1.419 . S
C2276 H2280 0.930 . S
C2277 C2276 1.369 . S
C2277 C2286 1.429 . S
C2278 C2276 1.419 . S
C2278 C2279 1.363 . S
C2278 H2281 0.929 . S
C2279 C2278 1.363 . S
C2279 C2285 1.428 . S
H2280 C2276 0.930 . S
H2281 C2278 0.929 . S
S2282 N2283 1.613 . S
S2282 N2284 1.610 . S
N2283 S2282 1.613 . S
N2283 C2286 1.350 . S
N2284 S2282 1.610 . S
N2284 C2285 1.351 . S
C2285 C2279 1.428 . S
C2285 N2284 1.351 . S
C2285 C2286 1.434 . S
C2286 C2277 1.429 . S
C2286 N2283 1.350 . S
C2286 C2285 1.434 . S
C2287 C2288 1.369 . S
C2287 C2289 1.419 . S
C2287 H2291 0.930 . S
C2288 C2287 1.369 . S
C2288 C2297 1.429 . S
C2289 C2287 1.419 . S
C2289 C2290 1.363 . S
C2289 H2292 0.929 . S
C2290 C2289 1.363 . S
C2290 C2296 1.428 . S
H2291 C2287 0.930 . S
H2292 C2289 0.929 . S
S2293 N2294 1.613 1_565 S
S2293 N2295 1.610 . S
N2294 S2293 1.613 1_545 S
N2294 C2297 1.350 . S
N2295 S2293 1.610 . S
N2295 C2296 1.351 1_565 S
C2296 C2290 1.428 . S
C2296 N2295 1.351 1_545 S
C2296 C2297 1.434 . S
C2297 C2288 1.429 . S
C2297 N2294 1.350 . S
C2297 C2296 1.434 . S
C2298 C2299 1.369 . S
C2298 C2300 1.419 . S
C2298 H2302 0.930 . S
C2299 C2298 1.369 . S
C2299 C2308 1.429 . S
C2300 C2298 1.419 . S
C2300 C2301 1.363 . S
C2300 H2303 0.929 . S
C2301 C2300 1.363 . S
C2301 C2307 1.428 . S
H2302 C2298 0.930 . S
H2303 C2300 0.929 . S
S2304 N2305 1.613 . S
S2304 N2306 1.610 . S
N2305 S2304 1.613 . S
N2305 C2308 1.350 . S
N2306 S2304 1.610 . S
N2306 C2307 1.351 . S
C2307 C2301 1.428 . S
C2307 N2306 1.351 . S
C2307 C2308 1.434 . S
C2308 C2299 1.429 . S
C2308 N2305 1.350 . S
C2308 C2307 1.434 . S
C2309 C2310 1.369 . S
C2309 C2311 1.419 . S
C2309 H2313 0.930 . S
C2310 C2309 1.369 . S
C2310 C2319 1.429 . S
C2311 C2309 1.419 . S
C2311 C2312 1.363 . S
C2311 H2314 0.929 . S
C2312 C2311 1.363 . S
C2312 C2318 1.428 . S
H2313 C2309 0.930 . S
H2314 C2311 0.929 . S
S2315 N2316 1.613 . S
S2315 N2317 1.610 . S
N2316 S2315 1.613 . S
N2316 C2319 1.350 . S
N2317 S2315 1.610 . S
N2317 C2318 1.351 . S
C2318 C2312 1.428 . S
C2318 N2317 1.351 . S
C2318 C2319 1.434 . S
C2319 C2310 1.429 . S
C2319 N2316 1.350 . S
C2319 C2318 1.434 . S
C2320 C2321 1.369 . S
C2320 C2322 1.419 . S
C2320 H2324 0.930 . S
C2321 C2320 1.369 . S
C2321 C2330 1.429 . S
C2322 C2320 1.419 . S
C2322 C2323 1.363 . S
C2322 H2325 0.929 . S
C2323 C2322 1.363 . S
C2323 C2329 1.428 . S
H2324 C2320 0.930 . S
H2325 C2322 0.929 . S
S2326 N2327 1.613 . S
S2326 N2328 1.610 . S
N2327 S2326 1.613 . S
N2327 C2330 1.350 . S
N2328 S2326 1.610 . S
N2328 C2329 1.351 . S
C2329 C2323 1.428 . S
C2329 N2328 1.351 . S
C2329 C2330 1.434 . S
C2330 C2321 1.429 . S
C2330 N2327 1.350 . S
C2330 C2329 1.434 . S
C2331 C2332 1.369 . S
C2331 C2333 1.419 . S
C2331 H2335 0.930 . S
C2332 C2331 1.369 . S
C2332 C2341 1.429 . S
C2333 C2331 1.419 . S
C2333 C2334 1.363 . S
C2333 H2336 0.929 . S
C2334 C2333 1.363 . S
C2334 C2340 1.428 . S
H2335 C2331 0.930 . S
H2336 C2333 0.929 . S
S2337 N2338 1.613 . S
S2337 N2339 1.610 . S
N2338 S2337 1.613 . S
N2338 C2341 1.350 . S
N2339 S2337 1.610 . S
N2339 C2340 1.351 . S
C2340 C2334 1.428 . S
C2340 N2339 1.351 . S
C2340 C2341 1.434 . S
C2341 C2332 1.429 . S
C2341 N2338 1.350 . S
C2341 C2340 1.434 . S
C2342 C2343 1.369 . S
C2342 C2344 1.419 . S
C2342 H2346 0.930 . S
C2343 C2342 1.369 . S
C2343 C2352 1.429 . S
C2344 C2342 1.419 . S
C2344 C2345 1.363 . S
C2344 H2347 0.929 . S
C2345 C2344 1.363 . S
C2345 C2351 1.428 . S
H2346 C2342 0.930 . S
H2347 C2344 0.929 . S
S2348 N2349 1.613 . S
S2348 N2350 1.610 . S
N2349 S2348 1.613 . S
N2349 C2352 1.350 . S
N2350 S2348 1.610 . S
N2350 C2351 1.351 . S
C2351 C2345 1.428 . S
C2351 N2350 1.351 . S
C2351 C2352 1.434 . S
C2352 C2343 1.429 . S
C2352 N2349 1.350 . S
C2352 C2351 1.434 . S
C2353 C2354 1.369 . S
C2353 C2355 1.419 . S
C2353 H2357 0.930 . S
C2354 C2353 1.369 . S
C2354 C2363 1.429 . S
C2355 C2353 1.419 . S
C2355 C2356 1.363 . S
C2355 H2358 0.929 . S
C2356 C2355 1.363 . S
C2356 C2362 1.428 . S
H2357 C2353 0.930 . S
H2358 C2355 0.929 . S
S2359 N2360 1.613 . S
S2359 N2361 1.610 . S
N2360 S2359 1.613 . S
N2360 C2363 1.350 . S
N2361 S2359 1.610 . S
N2361 C2362 1.351 . S
C2362 C2356 1.428 . S
C2362 N2361 1.351 . S
C2362 C2363 1.434 . S
C2363 C2354 1.429 . S
C2363 N2360 1.350 . S
C2363 C2362 1.434 . S
C2364 C2365 1.369 . S
C2364 C2366 1.419 . S
C2364 H2368 0.930 . S
C2365 C2364 1.369 . S
C2365 C2374 1.429 . S
C2366 C2364 1.419 . S
C2366 C2367 1.363 . S
C2366 H2369 0.929 . S
C2367 C2366 1.363 . S
C2367 C2373 1.428 . S
H2368 C2364 0.930 . S
H2369 C2366 0.929 . S
S2370 N2371 1.613 . S
S2370 N2372 1.610 . S
N2371 S2370 1.613 . S
N2371 C2374 1.350 . S
N2372 S2370 1.610 . S
N2372 C2373 1.351 . S
C2373 C2367 1.428 . S
C2373 N2372 1.351 . S
C2373 C2374 1.434 . S
C2374 C2365 1.429 . S
C2374 N2371 1.350 . S
C2374 C2373 1.434 . S
C2375 C2376 1.369 . S
C2375 C2377 1.419 . S
C2375 H2379 0.930 . S
C2376 C2375 1.369 . S
C2376 C2385 1.429 . S
C2377 C2375 1.419 . S
C2377 C2378 1.363 . S
C2377 H2380 0.929 . S
C2378 C2377 1.363 . S
C2378 C2384 1.428 . S
H2379 C2375 0.930 . S
H2380 C2377 0.929 . S
S2381 N2382 1.613 . S
S2381 N2383 1.610 . S
N2382 S2381 1.613 . S
N2382 C2385 1.350 . S
N2383 S2381 1.610 . S
N2383 C2384 1.351 . S
C2384 C2378 1.428 . S
C2384 N2383 1.351 . S
C2384 C2385 1.434 . S
C2385 C2376 1.429 . S
C2385 N2382 1.350 . S
C2385 C2384 1.434 . S
C2386 C2387 1.369 . S
C2386 C2388 1.419 . S
C2386 H2390 0.930 . S
C2387 C2386 1.369 . S
C2387 C2396 1.429 . S
C2388 C2386 1.419 . S
C2388 C2389 1.363 . S
C2388 H2391 0.929 . S
C2389 C2388 1.363 . S
C2389 C2395 1.428 . S
H2390 C2386 0.930 . S
H2391 C2388 0.929 . S
S2392 N2393 1.613 . S
S2392 N2394 1.610 . S
N2393 S2392 1.613 . S
N2393 C2396 1.350 . S
N2394 S2392 1.610 . S
N2394 C2395 1.351 . S
C2395 C2389 1.428 . S
C2395 N2394 1.351 . S
C2395 C2396 1.434 . S
C2396 C2387 1.429 . S
C2396 N2393 1.350 . S
C2396 C2395 1.434 . S
C2397 C2398 1.369 . S
C2397 C2399 1.419 . S
C2397 H2401 0.930 . S
C2398 C2397 1.369 . S
C2398 C2407 1.429 . S
C2399 C2397 1.419 . S
C2399 C2400 1.363 . S
C2399 H2402 0.929 . S
C2400 C2399 1.363 . S
C2400 C2406 1.428 . S
H2401 C2397 0.930 . S
H2402 C2399 0.929 . S
S2403 N2404 1.613 . S
S2403 N2405 1.610 . S
N2404 S2403 1.613 . S
N2404 C2407 1.350 . S
N2405 S2403 1.610 . S
N2405 C2406 1.351 . S
C2406 C2400 1.428 . S
C2406 N2405 1.351 . S
C2406 C2407 1.434 . S
C2407 C2398 1.429 . S
C2407 N2404 1.350 . S
C2407 C2406 1.434 . S
C2408 C2409 1.369 . S
C2408 C2410 1.419 . S
C2408 H2412 0.930 . S
C2409 C2408 1.369 . S
C2409 C2418 1.429 . S
C2410 C2408 1.419 . S
C2410 C2411 1.363 . S
C2410 H2413 0.929 . S
C2411 C2410 1.363 . S
C2411 C2417 1.428 . S
H2412 C2408 0.930 . S
H2413 C2410 0.929 . S
S2414 N2415 1.613 . S
S2414 N2416 1.610 . S
N2415 S2414 1.613 . S
N2415 C2418 1.350 . S
N2416 S2414 1.610 . S
N2416 C2417 1.351 . S
C2417 C2411 1.428 . S
C2417 N2416 1.351 . S
C2417 C2418 1.434 . S
C2418 C2409 1.429 . S
C2418 N2415 1.350 . S
C2418 C2417 1.434 . S
C2419 C2420 1.369 . S
C2419 C2421 1.419 . S
C2419 H2423 0.930 . S
C2420 C2419 1.369 . S
C2420 C2429 1.429 . S
C2421 C2419 1.419 . S
C2421 C2422 1.363 . S
C2421 H2424 0.929 . S
C2422 C2421 1.363 . S
C2422 C2428 1.428 . S
H2423 C2419 0.930 . S
H2424 C2421 0.929 . S
S2425 N2426 1.613 . S
S2425 N2427 1.610 . S
N2426 S2425 1.613 . S
N2426 C2429 1.350 . S
N2427 S2425 1.610 . S
N2427 C2428 1.351 . S
C2428 C2422 1.428 . S
C2428 N2427 1.351 . S
C2428 C2429 1.434 . S
C2429 C2420 1.429 . S
C2429 N2426 1.350 . S
C2429 C2428 1.434 . S
C1837 C781 1.470 . S
C1839 C1136 1.404 . S
C1848 C871 1.462 . S
C1850 C1220 1.412 . S
C1859 C751 1.478 . S
C1861 C1314 1.453 . S
C1870 C691 1.438 . S
C1872 C1230 1.415 . S
C1883 C1304 1.361 . S
C1881 C571 1.406 . S
C1892 C601 1.451 . S
C1894 C1146 1.401 . S
C1905 C1147 1.406 . S
C1903 C661 1.430 . S
C1916 C1231 1.415 . S
C1914 C541 1.443 . S
C1925 C631 1.523 . S
C1927 C1323 1.456 . S
C1936 C811 1.473 . S
C1938 C1239 1.419 . S
C1947 C841 1.399 . S
C1949 C1315 1.359 . S
C1960 C1155 1.410 . S
C1958 C721 1.404 . S
C1971 C1388 1.405 . S
C1969 C61 1.468 1_455 S
C1980 C151 1.456 . S
C1982 C1472 1.424 . S
C1991 C31 1.471 1_565 S
C1993 C1566 1.455 . S
C2002 C1051 1.439 . S
C2004 C1482 1.414 . S
C2013 C931 1.408 . S
C2015 C1556 1.357 . S
C2024 C961 1.455 . S
C2026 C1398 1.409 . S
C2035 C1021 1.426 . S
C2037 C1399 1.405 . S
C2046 C901 1.440 . S
C2048 C1483 1.416 . S
C2059 C1575 1.454 . S
C2057 C991 1.521 . S
C2068 C91 1.471 1_565 S
C2070 C1491 1.421 . S
C2081 C1567 1.358 . S
C2079 C121 1.392 1_455 S
C2090 C1 1.404 . S
C2092 C1407 1.405 . S
C2103 C1640 1.399 . S
C2101 C421 1.468 . S
C2112 C511 1.455 . S
C2114 C1724 1.423 . S
C2125 C1818 1.458 . S
C2123 C391 1.469 . S
C2136 C1734 1.414 . S
C2134 C331 1.436 1_545 S
C2147 C1808 1.359 . S
C2145 C211 1.408 1_655 S
C2156 C241 1.452 . S
C2158 C1650 1.404 . S
C2167 C301 1.429 1_655 S
C2169 C1651 1.398 . S
C2178 C181 1.446 . S
C2180 C1735 1.417 . S
C2191 C1827 1.451 . S
C2189 C271 1.522 1_545 S
C2200 C451 1.471 . S
C2202 C1743 1.421 . S
C2211 C481 1.399 . S
C2213 C1819 1.359 . S
C2222 C361 1.410 . S
C2224 C1659 1.406 . S
C2233 C920 1.459 . S
C2235 C1143 1.375 . S
C2246 C1227 1.363 . S
C2244 C980 1.500 . S
C2255 C1040 1.468 . S
C2257 C1320 1.362 . S
C2266 C380 1.487 . S
C2268 C1236 1.369 . S
C2277 C440 1.470 . S
C2279 C1311 1.359 . S
C2290 C1152 1.372 . S
C2288 C500 1.465 . S
C2299 C200 1.463 . S
C2301 C1395 1.381 . S
C2310 C260 1.499 . S
C2312 C1479 1.374 . S
C2321 C320 1.466 . S
C2323 C1572 1.369 . S
C2332 C740 1.492 . S
C2334 C1488 1.365 . S
C2345 C1563 1.362 . S
C2343 C800 1.473 . S
C2354 C860 1.465 . S
C2356 C1404 1.381 . S
C2365 C560 1.463 . S
C2367 C1647 1.380 . S
C2376 C620 1.501 . S
C2378 C1731 1.363 . S
C2389 C1824 1.366 . S
C2387 C680 1.466 . S
C2398 C20 1.487 . S
C2400 C1740 1.373 . S
C2409 C80 1.472 . S
C2411 C1815 1.360 . S
C2420 C140 1.464 . S
C2422 C1656 1.382 . S
