# Generated by pormake.
# Topology rtl, (3,6)-cn, num edge types: 1
# Building blocks:
#     Node 0, Type 0, BuildingBlock: KAKCAD_clean_linker_0, # of connection points: 3
#     Node 1, Type 0, BuildingBlock: KAKCAD_clean_linker_0, # of connection points: 3
#     Node 2, Type 0, BuildingBlock: KAKCAD_clean_linker_0, # of connection points: 3
#     Node 3, Type 0, BuildingBlock: KAKCAD_clean_linker_0, # of connection points: 3
#     Node 4, Type 1, BuildingBlock: KUMBOL_clean_sbu_1, # of connection points: 6
#     Node 5, Type 1, BuildingBlock: KUMBOL_clean_sbu_1, # of connection points: 6
#     Edge 6, Type (0, 1), BuildingBlock: TEMPAE_clean_linker_10, # of connection points: 2
#     Edge 7, Type (0, 1), BuildingBlock: TEMPAE_clean_linker_10, # of connection points: 2
#     Edge 8, Type (0, 1), BuildingBlock: TEMPAE_clean_linker_10, # of connection points: 2
#     Edge 9, Type (0, 1), BuildingBlock: TEMPAE_clean_linker_10, # of connection points: 2
#     Edge 10, Type (0, 1), BuildingBlock: TEMPAE_clean_linker_10, # of connection points: 2
#     Edge 11, Type (0, 1), BuildingBlock: TEMPAE_clean_linker_10, # of connection points: 2
#     Edge 12, Type (0, 1), BuildingBlock: TEMPAE_clean_linker_10, # of connection points: 2
#     Edge 13, Type (0, 1), BuildingBlock: TEMPAE_clean_linker_10, # of connection points: 2
#     Edge 14, Type (0, 1), BuildingBlock: TEMPAE_clean_linker_10, # of connection points: 2
#     Edge 15, Type (0, 1), BuildingBlock: TEMPAE_clean_linker_10, # of connection points: 2
#     Edge 16, Type (0, 1), BuildingBlock: TEMPAE_clean_linker_10, # of connection points: 2
#     Edge 17, Type (0, 1), BuildingBlock: TEMPAE_clean_linker_10, # of connection points: 2
# Relax obj value: 0.018
# Max RMSD: 0.097
# Mean RMSD: 0.058
data_MOF--net-rtl--node1-KUMBOL_clean_sbu_1--node2-KAKCAD_clean_linker_0--edge1-TEMPAE_clean_linker_10
_symmetry_space_group_name_H-M    P1
_symmetry_Int_Tables_number       1
_symmetry_cell_setting            triclinic
loop_
_symmetry_equiv_pos_as_xyz
'x, y, z'
_cell_length_a     40.339578
_cell_length_b     40.951293
_cell_length_c     35.573001
_cell_angle_alpha  80.11025
_cell_angle_beta   99.684568
_cell_angle_gamma 90.392123
loop_
_atom_site_label
_atom_site_type_symbol
_atom_site_fract_x
_atom_site_fract_y
_atom_site_fract_z
_atom_type_partial_charge
C0 C 0.1733 0.88172 0.87989 0.0
C1 C 0.16316 0.91522 0.87033 0.0
C2 C 0.18923 0.86846 0.91727 0.0
C3 C 0.19604 0.88852 0.94597 0.0
C4 C 0.18588 0.92219 0.93629 0.0
C5 C 0.16938 0.93534 0.8989 0.0
C6 C 0.21311 0.87393 0.98583 0.0
C7 C 0.23763 0.84856 0.99122 0.0
C8 C 0.25147 0.83194 0.0284 0.0
C9 C 0.24179 0.84209 0.0608 0.0
C10 C 0.21797 0.86803 0.05619 0.0
C11 C 0.20373 0.88375 0.01864 0.0
C12 C 0.20616 0.87727 0.0904 0.0
C13 C 0.19754 0.85257 0.11954 0.0
C14 C 0.20213 0.91075 0.09342 0.0
C15 C 0.18925 0.91933 0.12465 0.0
C16 C 0.17978 0.8946 0.15319 0.0
C17 C 0.27435 0.80268 0.03287 0.0
C18 C 0.267 0.77922 0.00823 0.0
C19 C 0.30334 0.79774 0.0615 0.0
C20 C 0.32466 0.7701 0.06507 0.0
C21 C 0.31726 0.74673 0.04026 0.0
C22 C 0.28818 0.75169 0.01182 0.0
C23 C 0.18438 0.86115 0.15051 0.0
H24 H 0.16826 0.86554 0.85857 0.0
H25 H 0.19567 0.84224 0.92373 0.0
H26 H 0.19095 0.9385 0.95742 0.0
H27 H 0.16189 0.96132 0.89214 0.0
H28 H 0.2459 0.84143 0.96629 0.0
H29 H 0.18414 0.90254 0.01506 0.0
H30 H 0.25217 0.82929 0.08961 0.0
H31 H 0.20004 0.82657 0.11782 0.0
H32 H 0.20876 0.9303 0.07149 0.0
H33 H 0.18576 0.94531 0.12586 0.0
H34 H 0.24461 0.78198 0.98625 0.0
H35 H 0.30976 0.81544 0.08082 0.0
H36 H 0.17752 0.84157 0.17225 0.0
H37 H 0.28193 0.73444 0.99192 0.0
H38 H 0.34675 0.76685 0.08746 0.0
C39 C 0.61982 0.68582 0.73393 0.0
C40 C 0.61581 0.65124 0.74214 0.0
C41 C 0.63184 0.70053 0.70033 0.0
C42 C 0.63982 0.68104 0.67405 0.0
C43 C 0.63656 0.64649 0.68273 0.0
C44 C 0.62487 0.6318 0.71632 0.0
C45 C 0.6507 0.69631 0.6371 0.0
C46 C 0.67561 0.72061 0.63628 0.0
C47 C 0.68752 0.73278 0.60163 0.0
C48 C 0.67346 0.7213 0.56752 0.0
C49 C 0.64819 0.69757 0.56761 0.0
C50 C 0.63699 0.68527 0.60253 0.0
C51 C 0.63495 0.68436 0.53166 0.0
C52 C 0.6281 0.70559 0.49558 0.0
C53 C 0.6306 0.65012 0.53294 0.0
C54 C 0.62078 0.63731 0.49889 0.0
C55 C 0.61504 0.6584 0.46269 0.0
C56 C 0.71589 0.75612 0.60086 0.0
C57 C 0.71534 0.78564 0.6159 0.0
C58 C 0.7433 0.74939 0.58344 0.0
C59 C 0.76935 0.77184 0.58055 0.0
C60 C 0.76851 0.80177 0.59468 0.0
C61 C 0.74128 0.80841 0.61254 0.0
C62 C 0.61818 0.69276 0.46149 0.0
H63 H 0.61288 0.70166 0.75293 0.0
H64 H 0.63397 0.72724 0.69436 0.0
H65 H 0.64317 0.63068 0.6635 0.0
H66 H 0.62305 0.60507 0.72206 0.0
H67 H 0.68685 0.72882 0.66285 0.0
H68 H 0.61736 0.66706 0.6028 0.0
H69 H 0.68285 0.73039 0.54092 0.0
H70 H 0.63083 0.73213 0.49366 0.0
H71 H 0.63589 0.63303 0.56017 0.0
H72 H 0.61821 0.61075 0.50085 0.0
H73 H 0.69445 0.79147 0.62935 0.0
H74 H 0.74452 0.72671 0.57185 0.0
H75 H 0.61416 0.70967 0.43407 0.0
H76 H 0.74008 0.83118 0.62392 0.0
H77 H 0.7898 0.76612 0.56637 0.0
C78 C 0.80751 0.08859 0.18473 0.0
C79 C 0.84284 0.0895 0.19368 0.0
C80 C 0.79066 0.10107 0.14741 0.0
C81 C 0.80877 0.1142 0.11809 0.0
C82 C 0.844 0.11464 0.12669 0.0
C83 C 0.86084 0.10268 0.16411 0.0
C84 C 0.79104 0.12831 0.0788 0.0
C85 C 0.76511 0.15203 0.07388 0.0
C86 C 0.74958 0.16731 0.03666 0.0
C87 C 0.76025 0.15815 0.0041 0.0
C88 C 0.78629 0.13432 0.00861 0.0
C89 C 0.80126 0.1194 0.04616 0.0
C90 C 0.79896 0.12568 0.97451 0.0
C91 C 0.77684 0.12218 0.94042 0.0
C92 C 0.83364 0.12048 0.97616 0.0
C93 C 0.84586 0.1113 0.945 0.0
C94 C 0.82379 0.10738 0.91117 0.0
C95 C 0.72384 0.19421 0.03241 0.0
C96 C 0.70039 0.19203 0.05782 0.0
C97 C 0.72396 0.22324 0.00482 0.0
C98 C 0.70201 0.24986 0.00363 0.0
C99 C 0.67953 0.24821 0.03016 0.0
C100 C 0.67869 0.21871 0.05687 0.0
C101 C 0.78917 0.11324 0.90897 0.0
H102 H 0.79281 0.07809 0.20648 0.0
H103 H 0.76346 0.10024 0.14135 0.0
H104 H 0.85851 0.12505 0.10467 0.0
H105 H 0.88794 0.10448 0.16996 0.0
H106 H 0.75817 0.15968 0.09926 0.0
H107 H 0.82096 0.10063 0.05019 0.0
H108 H 0.74875 0.17003 0.9753 0.0
H109 H 0.74997 0.12575 0.93828 0.0
H110 H 0.85153 0.12378 1.00149 0.0
H111 H 0.87275 0.10771 0.9472 0.0
H112 H 0.69921 0.16986 0.07904 0.0
H113 H 0.74182 0.22593 0.98498 0.0
H114 H 0.7716 0.11034 0.88322 0.0
H115 H 0.662 0.2165 0.07799 0.0
H116 H 0.70297 0.27191 0.98216 0.0
C117 C 0.36076 0.34572 0.32996 0.0
C118 C 0.39529 0.34572 0.32818 0.0
C119 C 0.34918 0.33019 0.36336 0.0
C120 C 0.37201 0.31501 0.39585 0.0
C121 C 0.40651 0.31476 0.39395 0.0
C122 C 0.41803 0.32966 0.36024 0.0
C123 C 0.36 0.30132 0.43238 0.0
C124 C 0.33423 0.278 0.43287 0.0
C125 C 0.32204 0.26603 0.46739 0.0
C126 C 0.33524 0.27856 0.50109 0.0
C127 C 0.3607 0.30207 0.50092 0.0
C128 C 0.37343 0.31285 0.46663 0.0
C129 C 0.37249 0.31678 0.53599 0.0
C130 C 0.34899 0.32856 0.55578 0.0
C131 C 0.40699 0.31982 0.54946 0.0
C132 C 0.41775 0.33447 0.58208 0.0
C133 C 0.39416 0.34681 0.60135 0.0
C134 C 0.29517 0.24092 0.46863 0.0
C135 C 0.26718 0.24308 0.43876 0.0
C136 C 0.29673 0.21528 0.50077 0.0
C137 C 0.27055 0.19297 0.50358 0.0
C138 C 0.24215 0.19554 0.4742 0.0
C139 C 0.24096 0.22065 0.44153 0.0
C140 C 0.35971 0.34356 0.58799 0.0
H141 H 0.34277 0.35788 0.30553 0.0
H142 H 0.32249 0.33093 0.36427 0.0
H143 H 0.42457 0.30321 0.41867 0.0
H144 H 0.44478 0.32948 0.35958 0.0
H145 H 0.32416 0.26883 0.40653 0.0
H146 H 0.39265 0.33148 0.46609 0.0
H147 H 0.32535 0.27036 0.52757 0.0
H148 H 0.32225 0.32681 0.54584 0.0
H149 H 0.4256 0.3108 0.53481 0.0
H150 H 0.44445 0.33685 0.5917 0.0
H151 H 0.26507 0.26264 0.41372 0.0
H152 H 0.31814 0.21257 0.52404 0.0
H153 H 0.34102 0.35267 0.60247 0.0
H154 H 0.21967 0.2231 0.41812 0.0
H155 H 0.27225 0.17421 0.52934 0.0
C156 C 0.94913 0.10207 0.48587 0.0
C157 C 0.89415 0.08806 0.45394 0.0
C158 C 0.92334 0.07952 0.48189 0.0
C159 C 0.89134 0.11934 0.43004 0.0
C160 C 0.94639 0.13347 0.46186 0.0
C161 C 0.9174 0.14194 0.43392 0.0
N162 N 0.97723 0.09298 0.51257 0.0
C163 C 0.00304 0.11435 0.51762 0.0
C164 C 0.97301 0.15536 0.46646 0.0
C165 C 1.00139 0.14579 0.49459 0.0
Gd166 Gd 0.02614 0.96516 0.51673 0.0
Gd167 Gd 0.97836 0.03925 0.54828 0.0
N168 N 0.92722 0.04898 0.50467 0.0
C169 C 0.86866 0.06486 0.45081 0.0
C170 C 0.90167 0.02701 0.5031 0.0
C171 C 0.87229 0.03436 0.47579 0.0
H172 H 0.90337 0.00406 0.52315 0.0
H173 H 0.85233 0.01659 0.47427 0.0
H174 H 0.10117 1.00016 0.54191 0.0
H175 H 0.02472 0.10735 0.53983 0.0
H176 H 0.15223 0.98748 0.59075 0.0
H177 H 0.84587 0.07044 0.42966 0.0
H178 H 0.86908 0.12635 0.40847 0.0
H179 H 0.97974 0.89709 0.52475 0.0
H180 H 0.97185 0.1797 0.44857 0.0
H181 H 0.02197 0.16264 0.4986 0.0
H182 H 0.1352 0.87776 0.65648 0.0
H183 H 0.91489 0.16592 0.41514 0.0
H184 H 0.03241 0.82455 0.61598 0.0
H185 H 0.98238 0.84173 0.56584 0.0
N186 N 0.02721 0.91135 0.55218 0.0
C187 C 0.05526 0.9022 0.57896 0.0
C188 C 1.00139 0.89002 0.54698 0.0
C189 C 0.0313 0.84892 0.59814 0.0
C190 C 0.00298 0.85855 0.56994 0.0
C191 C 0.05794 0.87077 0.60289 0.0
H192 H 0.08934 0.83824 0.64962 0.0
N193 N 0.07727 0.95525 0.5603 0.0
C194 C 0.08108 0.9247 0.58303 0.0
C195 C 0.1358 0.93924 0.61416 0.0
C196 C 0.11025 0.91609 0.61099 0.0
C197 C 0.10286 0.97718 0.56191 0.0
C198 C 0.13223 0.96976 0.58921 0.0
O199 O 0.98058 0.04072 0.48476 0.0
O200 O 0.97868 0.98621 0.47756 0.0
O201 O 0.05779 0.97129 0.47233 0.0
O202 O 0.02997 0.92634 0.48304 0.0
O203 O 0.96002 0.98663 0.56337 0.0
O204 O 0.97043 0.95879 0.51511 0.0
O205 O 0.02435 0.96387 0.58044 0.0
O206 O 0.0259 0.01846 0.58743 0.0
O207 O 0.94718 0.03329 0.59315 0.0
O208 O 0.97426 0.07855 0.58116 0.0
O209 O 0.04446 0.01773 0.50169 0.0
O210 O 0.03405 0.04565 0.54988 0.0
C211 C 0.97226 0.0177 0.4637 0.0
C212 C 0.95417 0.96225 0.5434 0.0
C213 C 0.03667 0.94635 0.41865 0.0
C214 C 0.04895 0.94685 0.35355 0.0
C215 C 0.99138 0.95452 0.36344 0.0
C216 C 0.00239 0.9515 0.40319 0.0
C217 C 0.01438 0.95211 0.33876 0.0
C218 C 0.05989 0.94418 0.39379 0.0
C219 C 0.04836 0.94373 0.46056 0.0
C220 C 0.11298 0.8848 0.63487 0.0
C221 C 0.08688 0.86224 0.63089 0.0
H222 H 0.15858 0.93359 0.63529 0.0
C223 C 0.03265 0.98704 0.60135 0.0
C224 C 0.05034 0.04209 0.52165 0.0
C225 C 0.96796 0.0597 0.64575 0.0
C226 C 0.95624 0.0637 0.70984 0.0
C227 C 0.01329 0.05254 0.70098 0.0
C228 C 0.00213 0.0538 0.66146 0.0
C229 C 0.99056 0.05757 0.72508 0.0
C230 C 0.945 0.06434 0.67007 0.0
C231 C 0.95618 0.06129 0.60407 0.0
H232 H 0.96486 0.95832 0.35178 0.0
H233 H 0.98412 0.95291 0.42189 0.0
H234 H 0.0049 0.95363 0.30815 0.0
H235 H 0.0864 0.94059 0.40583 0.0
H236 H 0.03969 0.04796 0.71288 0.0
H237 H 0.02021 0.05055 0.64311 0.0
H238 H 0.99976 0.05663 0.75568 0.0
H239 H 0.91864 0.06923 0.65792 0.0
C240 C 0.597 0.55573 0.02413 0.0
C241 C 0.58054 0.61386 0.00444 0.0
C242 C 0.57434 0.58159 0.02284 0.0
C243 C 0.60922 0.61956 0.98686 0.0
C244 C 0.62596 0.56144 0.00683 0.0
C245 C 0.63186 0.59346 0.98808 0.0
N246 N 0.59004 0.52469 0.04112 0.0
C247 C 0.61164 0.49862 0.04373 0.0
C248 C 0.6479 0.53466 0.00848 0.0
C249 C 0.64078 0.50315 0.02719 0.0
Gd250 Gd 0.46534 0.48608 0.99545 0.0
Gd251 Gd 0.54131 0.51972 0.06871 0.0
N252 N 0.54658 0.57531 0.03989 0.0
C253 C 0.55803 0.63959 0.00484 0.0
C254 C 0.52622 0.60083 0.04306 0.0
C255 C 0.53107 0.63312 0.02477 0.0
H256 H 0.50695 0.59681 0.06077 0.0
H257 H 0.51439 0.65312 0.02677 0.0
H258 H 0.48016 0.40503 0.02462 0.0
H259 H 0.60631 0.47434 0.05851 0.0
H260 H 0.44928 0.35532 0.04831 0.0
H261 H 0.56188 0.66469 0.99096 0.0
H262 H 0.61429 0.64419 0.97254 0.0
H263 H 0.40759 0.54792 0.96501 0.0
H264 H 0.67037 0.53804 0.99544 0.0
H265 H 0.65773 0.48238 0.02887 0.0
H266 H 0.33762 0.39709 0.04494 0.0
H267 H 0.65388 0.5983 0.97443 0.0
H268 H 0.31408 0.51258 0.99579 0.0
H269 H 0.34796 0.5582 0.96794 0.0
N270 N 0.40855 0.49831 0.99513 0.0
C271 C 0.39006 0.47253 0.00892 0.0
C272 C 0.39357 0.52843 0.9792 0.0
C273 C 0.34053 0.50825 0.99567 0.0
C274 C 0.35958 0.53409 0.98001 0.0
C275 C 0.35552 0.47681 0.00961 0.0
H276 H 0.31039 0.45233 0.02414 0.0
N277 N 0.43863 0.43804 0.01953 0.0
C278 C 0.40536 0.44136 0.02066 0.0
C279 C 0.40285 0.38253 0.04405 0.0
C280 C 0.3866 0.41369 0.03336 0.0
C281 C 0.45414 0.40748 0.02765 0.0
C282 C 0.43669 0.37939 0.04084 0.0
O283 O 0.54321 0.5171 0.00563 0.0
O284 O 0.4905 0.53347 0.97513 0.0
O285 O 0.48274 0.4635 0.95114 0.0
O286 O 0.43224 0.48427 0.94111 0.0
O287 O 0.48877 0.53949 0.06731 0.0
O288 O 0.46389 0.53934 0.00423 0.0
O289 O 0.46837 0.46296 0.05885 0.0
O290 O 0.50123 0.49437 0.09923 0.0
O291 O 0.55749 0.54906 0.11401 0.0
O292 O 0.57969 0.49963 0.1179 0.0
O293 O 0.51592 0.45975 0.00785 0.0
O294 O 0.54381 0.46444 0.06927 0.0
C295 C 0.52306 0.53407 0.97603 0.0
C296 C 0.46494 0.54949 0.03749 0.0
C297 C 0.45806 0.48379 0.88665 0.0
C298 C 0.45608 0.4752 0.82009 0.0
C299 C 0.46681 0.52993 0.8371 0.0
C300 C 0.46438 0.51742 0.87554 0.0
C301 C 0.46274 0.50905 0.80949 0.0
C302 C 0.45409 0.46277 0.85906 0.0
C303 C 0.45481 0.47019 0.92668 0.0
C304 C 0.35239 0.418 0.03496 0.0
C305 C 0.33692 0.44948 0.02322 0.0
H306 H 0.38937 0.36071 0.05425 0.0
C307 C 0.47955 0.47091 0.09308 0.0
C308 C 0.53718 0.44846 0.03974 0.0
C309 C 0.60013 0.52957 0.17052 0.0
C310 C 0.61158 0.55401 0.22927 0.0
C311 C 0.65219 0.51588 0.21593 0.0
C312 C 0.6311 0.51224 0.18164 0.0
C313 C 0.64259 0.53671 0.23955 0.0
C314 C 0.59028 0.55042 0.19464 0.0
C315 C 0.57872 0.52604 0.13357 0.0
H316 H 0.4713 0.55602 0.8286 0.0
H317 H 0.46698 0.53397 0.89646 0.0
H318 H 0.46394 0.51961 0.77969 0.0
H319 H 0.4494 0.43673 0.86803 0.0
H320 H 0.6761 0.50254 0.2242 0.0
H321 H 0.63921 0.49615 0.16356 0.0
H322 H 0.65926 0.53912 0.26615 0.0
H323 H 0.56634 0.5638 0.18655 0.0
C324 C 0.21957 0.13907 0.49462 0.0
C325 C 0.21356 0.17269 0.47842 0.0
C326 C 0.19294 0.11767 0.50089 0.0
C327 C 0.15938 0.13008 0.49043 0.0
C328 C 0.15304 0.16378 0.47332 0.0
C329 C 0.18018 0.18469 0.46762 0.0
C330 C 0.20075 0.08188 0.5192 0.0
C331 C 0.11759 0.17789 0.46165 0.0
C332 C 0.08956 0.06795 0.47809 0.0
C333 C 0.07776 0.06509 0.5134 0.0
C334 C 0.11588 0.08923 0.47006 0.0
C335 C 0.13096 0.10791 0.49814 0.0
C336 C 0.11915 0.10513 0.53384 0.0
C337 C 0.09268 0.08378 0.54103 0.0
C338 C 0.12762 0.09164 0.43157 0.0
C339 C 0.13471 0.12445 0.56464 0.0
H340 H 0.24521 0.12941 0.50249 0.0
H341 H 0.17523 0.21069 0.45559 0.0
H342 H 0.19084 0.07623 0.54682 0.0
H343 H 0.18811 0.06528 0.49992 0.0
H344 H 0.22818 0.07602 0.52521 0.0
H345 H 0.11685 0.2043 0.44742 0.0
H346 H 0.10254 0.16337 0.4415 0.0
H347 H 0.10527 0.17596 0.48755 0.0
H348 H 0.07809 0.05365 0.45655 0.0
H349 H 0.08398 0.08141 0.56857 0.0
H350 H 0.15453 0.08398 0.43623 0.0
H351 H 0.1255 0.11772 0.41624 0.0
H352 H 0.11288 0.07588 0.41262 0.0
H353 H 0.16183 0.11772 0.57357 0.0
H354 H 0.12241 0.11974 0.59069 0.0
H355 H 0.13288 0.1514 0.55288 0.0
C356 C 0.37475 0.7204 0.04876 0.0
C357 C 0.33968 0.71731 0.04352 0.0
C358 C 0.39594 0.69313 0.04943 0.0
C359 C 0.3817 0.66207 0.04476 0.0
C360 C 0.3464 0.65863 0.04032 0.0
C361 C 0.32585 0.68624 0.03986 0.0
C362 C 0.4335 0.69773 0.05419 0.0
C363 C 0.33027 0.6259 0.03531 0.0
C364 C 0.43077 0.60051 0.00562 0.0
C365 C 0.44318 0.57792 0.03929 0.0
C366 C 0.41086 0.62806 0.00704 0.0
C367 C 0.40352 0.63338 0.04309 0.0
C368 C 0.4164 0.61091 0.07728 0.0
C369 C 0.43608 0.58342 0.07496 0.0
C370 C 0.39766 0.65147 0.96994 0.0
C371 C 0.40928 0.61586 0.11628 0.0
H372 H 0.38561 0.74439 0.05123 0.0
H373 H 0.29882 0.68352 0.03646 0.0
H374 H 0.44651 0.67939 0.07881 0.0
H375 H 0.44276 0.69324 0.02782 0.0
H376 H 0.4407 0.72304 0.05929 0.0
H377 H 0.30251 0.62714 0.0332 0.0
H378 H 0.33615 0.61822 0.00868 0.0
H379 H 0.34069 0.60633 0.06004 0.0
H380 H 0.43705 0.59696 0.97812 0.0
H381 H 0.44588 0.56614 0.10109 0.0
H382 H 0.40646 0.67691 0.9721 0.0
H383 H 0.36976 0.65251 0.96514 0.0
H384 H 0.40585 0.64391 0.94433 0.0
H385 H 0.41809 0.64048 0.12222 0.0
H386 H 0.42171 0.59648 0.14017 0.0
H387 H 0.38177 0.61546 0.11622 0.0
C388 C 0.78784 0.85971 0.57516 0.0
C389 C 0.7957 0.82612 0.5898 0.0
C390 C 0.81323 0.88251 0.56798 0.0
C391 C 0.84734 0.87154 0.57609 0.0
C392 C 0.85545 0.8378 0.5917 0.0
C393 C 0.82955 0.8155 0.59816 0.0
C394 C 0.80351 0.91818 0.5509 0.0
C395 C 0.8915 0.82519 0.60123 0.0
C396 C 0.91146 0.92091 0.52378 0.0
C397 C 0.92687 0.93907 0.55173 0.0
C398 C 0.88536 0.89911 0.5312 0.0
C399 C 0.87453 0.89516 0.56756 0.0
C400 C 0.88999 0.91345 0.59588 0.0
C401 C 0.91582 0.93532 0.58754 0.0
C402 C 0.86933 0.88035 0.50007 0.0
C403 C 0.87944 0.90973 0.63512 0.0
H404 H 0.76171 0.86797 0.56823 0.0
H405 H 0.83579 0.78963 0.60983 0.0
H406 H 0.8164 0.93486 0.56993 0.0
H407 H 0.81178 0.92486 0.52241 0.0
H408 H 0.77594 0.92288 0.54688 0.0
H409 H 0.89367 0.79848 0.61436 0.0
H410 H 0.9029 0.82878 0.57456 0.0
H411 H 0.90646 0.83956 0.62163 0.0
H412 H 0.91957 0.92398 0.49586 0.0
H413 H 0.92766 0.94921 0.60931 0.0
H414 H 0.84186 0.8858 0.4931 0.0
H415 H 0.87277 0.85328 0.51063 0.0
H416 H 0.88015 0.88674 0.47306 0.0
H417 H 0.85231 0.91617 0.63174 0.0
H418 H 0.89398 0.92571 0.65395 0.0
H419 H 0.88297 0.88353 0.64993 0.0
C420 C 0.67051 0.30968 0.0249 0.0
C421 C 0.65798 0.27746 0.03109 0.0
C422 C 0.65092 0.33736 0.02689 0.0
C423 C 0.61814 0.33279 0.03585 0.0
C424 C 0.60529 0.30042 0.04214 0.0
C425 C 0.62523 0.27322 0.03939 0.0
C426 C 0.66533 0.37155 0.01938 0.0
C427 C 0.57044 0.29451 0.05174 0.0
C428 C 0.57876 0.40264 0.07312 0.0
C429 C 0.55754 0.41837 0.03963 0.0
C430 C 0.59836 0.3745 0.07248 0.0
C431 C 0.59693 0.36201 0.03747 0.0
C432 C 0.5755 0.37771 0.00367 0.0
C433 C 0.55602 0.4055 0.00521 0.0
C434 C 0.62066 0.35814 0.10921 0.0
C435 C 0.57343 0.36543 0.96566 0.0
H436 H 0.69592 0.31331 0.01911 0.0
H437 H 0.61501 0.24857 0.04357 0.0
H438 H 0.64894 0.38728 0.99487 0.0
H439 H 0.66609 0.38361 0.04514 0.0
H440 H 0.69115 0.37093 0.01247 0.0
H441 H 0.56456 0.26774 0.057 0.0
H442 H 0.56795 0.30501 0.07791 0.0
H443 H 0.55141 0.30738 0.02766 0.0
H444 H 0.58004 0.41227 0.09986 0.0
H445 H 0.53987 0.41739 0.97902 0.0
H446 H 0.64731 0.35874 0.105 0.0
H447 H 0.61409 0.3317 0.1163 0.0
H448 H 0.61842 0.37042 0.13422 0.0
H449 H 0.59858 0.36628 0.95687 0.0
H450 H 0.55536 0.38036 0.94204 0.0
H451 H 0.56559 0.33922 0.96894 0.0
C452 C 0.17716 0.9279 0.20575 0.0
C453 C 0.16361 0.90354 0.18466 0.0
C454 C 0.16157 0.93666 0.23522 0.0
C455 C 0.13151 0.92103 0.24329 0.0
C456 C 0.11779 0.89644 0.22203 0.0
C457 C 0.13409 0.8879 0.19315 0.0
C458 C 0.1772 0.96263 0.25765 0.0
C459 C 0.08554 0.87948 0.22937 0.0
C460 C 0.09901 0.91887 0.33785 0.0
C461 C 0.07301 0.943 0.32698 0.0
C462 C 0.11954 0.91268 0.3115 0.0
C463 C 0.11366 0.93072 0.27322 0.0
C464 C 0.08852 0.95611 0.2626 0.0
C465 C 0.06873 0.96212 0.28967 0.0
C466 C 0.14648 0.88576 0.32409 0.0
C467 C 0.08139 0.97588 0.22206 0.0
H468 H 0.20013 0.93985 0.19942 0.0
H469 H 0.12331 0.86939 0.17654 0.0
H470 H 0.1595 0.98407 0.25345 0.0
H471 H 0.18214 0.95235 0.28908 0.0
H472 H 0.20118 0.97169 0.24864 0.0
H473 H 0.07828 0.86081 0.21039 0.0
H474 H 0.08829 0.86692 0.25998 0.0
H475 H 0.06477 0.89816 0.2244 0.0
H476 H 0.10248 0.9038 0.36647 0.0
H477 H 0.04932 0.98139 0.28128 0.0
H478 H 0.17064 0.89488 0.31578 0.0
H479 H 0.13917 0.86446 0.3092 0.0
H480 H 0.15053 0.87677 0.35585 0.0
H481 H 0.10486 0.98669 0.2135 0.0
H482 H 0.0626 0.99626 0.2192 0.0
H483 H 0.07166 0.95926 0.20135 0.0
C484 C 0.61023 0.6464 0.81255 0.0
C485 C 0.60179 0.6353 0.777 0.0
C486 C 0.59745 0.63106 0.84552 0.0
C487 C 0.57612 0.60357 0.84319 0.0
C488 C 0.56749 0.59229 0.8074 0.0
C489 C 0.58003 0.60852 0.77479 0.0
C490 C 0.60731 0.64395 0.88302 0.0
C491 C 0.54433 0.56359 0.80277 0.0
C492 C 0.56787 0.54251 0.93465 0.0
C493 C 0.53681 0.55216 0.94244 0.0
C494 C 0.58128 0.55946 0.903 0.0
C495 C 0.56298 0.58648 0.87813 0.0
C496 C 0.53154 0.59628 0.88585 0.0
C497 C 0.51889 0.57908 0.91797 0.0
C498 C 0.61468 0.54794 0.89564 0.0
C499 C 0.51112 0.62475 0.85994 0.0
H500 H 0.6273 0.66679 0.81484 0.0
H501 H 0.57248 0.60023 0.74733 0.0
H502 H 0.58484 0.64718 0.89635 0.0
H503 H 0.62449 0.62564 0.90368 0.0
H504 H 0.62032 0.66798 0.87893 0.0
H505 H 0.54898 0.55134 0.77853 0.0
H506 H 0.54693 0.54464 0.82948 0.0
H507 H 0.518 0.57321 0.79585 0.0
H508 H 0.58158 0.52139 0.95312 0.0
H509 H 0.49492 0.58673 0.92396 0.0
H510 H 0.63255 0.56866 0.89503 0.0
H511 H 0.61134 0.54011 0.86689 0.0
H512 H 0.62602 0.52689 0.91805 0.0
H513 H 0.52647 0.64736 0.8573 0.0
H514 H 0.48794 0.63031 0.87089 0.0
H515 H 0.5038 0.61872 0.83046 0.0
C516 C 0.89244 0.0613 0.24005 0.0
C517 C 0.86086 0.07741 0.23379 0.0
C518 C 0.9104 0.05121 0.27759 0.0
C519 C 0.89613 0.05663 0.30977 0.0
C520 C 0.86394 0.07202 0.30383 0.0
C521 C 0.84688 0.08257 0.26594 0.0
C522 C 0.94478 0.03499 0.28281 0.0
C523 C 0.84774 0.0778 0.33749 0.0
C524 C 0.93137 0.00506 0.40743 0.0
C525 C 0.95281 0.02752 0.4244 0.0
C526 C 0.9125 0.01429 0.37023 0.0
C527 C 0.91522 0.04672 0.34962 0.0
C528 C 0.93658 0.0696 0.36686 0.0
C529 C 0.95512 0.0597 0.40408 0.0
C530 C 0.88957 0.98939 0.35305 0.0
C531 C 0.94016 0.10441 0.34584 0.0
H532 H 0.90322 0.05651 0.21556 0.0
H533 H 0.8228 0.09545 0.26158 0.0
H534 H 0.96369 0.04885 0.29994 0.0
H535 H 0.94461 0.00941 0.29922 0.0
H536 H 0.95292 0.03382 0.25474 0.0
H537 H 0.82164 0.08798 0.3281 0.0
H538 H 0.84722 0.05427 0.35818 0.0
H539 H 0.86281 0.09543 0.35333 0.0
H540 H 0.92901 0.98036 0.42342 0.0
H541 H 0.97169 0.07712 0.41717 0.0
H542 H 0.89723 0.98472 0.32589 0.0
H543 H 0.86337 0.99945 0.3455 0.0
H544 H 0.88991 0.96538 0.37317 0.0
H545 H 0.94938 0.10356 0.31833 0.0
H546 H 0.95781 0.11913 0.36341 0.0
H547 H 0.91531 0.11746 0.3383 0.0
C548 C 0.42994 0.34978 0.66555 0.0
C549 C 0.40522 0.36404 0.63459 0.0
C550 C 0.43992 0.36579 0.69744 0.0
C551 C 0.4252 0.397 0.69794 0.0
C552 C 0.4005 0.4116 0.66648 0.0
C553 C 0.39069 0.39485 0.63533 0.0
C554 C 0.46588 0.3492 0.73075 0.0
C555 C 0.38447 0.44499 0.66566 0.0
C556 C 0.42426 0.42995 0.79122 0.0
C557 C 0.44995 0.45326 0.79039 0.0
C558 C 0.41687 0.41046 0.76216 0.0
C559 C 0.43534 0.41459 0.73125 0.0
C560 C 0.46191 0.43734 0.73079 0.0
C561 C 0.46898 0.45629 0.76042 0.0
C562 C 0.38851 0.38626 0.76386 0.0
C563 C 0.48218 0.44245 0.69831 0.0
H564 H 0.44098 0.32581 0.66513 0.0
H565 H 0.37184 0.40606 0.6112 0.0
H566 H 0.48775 0.36548 0.73529 0.0
H567 H 0.45506 0.34511 0.75782 0.0
H568 H 0.47494 0.32496 0.72587 0.0
H569 H 0.36608 0.45316 0.63873 0.0
H570 H 0.3713 0.44399 0.6908 0.0
H571 H 0.40414 0.46395 0.66808 0.0
H572 H 0.40914 0.42763 0.81396 0.0
H573 H 0.48928 0.47375 0.75993 0.0
H574 H 0.39708 0.36144 0.76034 0.0
H575 H 0.36756 0.39467 0.73967 0.0
H576 H 0.37868 0.38378 0.79155 0.0
H577 H 0.49275 0.41842 0.69487 0.0
H578 H 0.50316 0.45976 0.70329 0.0
H579 H 0.46557 0.4526 0.67065 0.0
C580 C 0.62696 0.61681 0.4225 0.0
C581 C 0.60813 0.64436 0.42628 0.0
C582 C 0.62241 0.60411 0.38786 0.0
C583 C 0.59836 0.61925 0.35599 0.0
C584 C 0.57866 0.64662 0.35981 0.0
C585 C 0.58388 0.65896 0.39488 0.0
C586 C 0.64412 0.575 0.38506 0.0
C587 C 0.55258 0.66322 0.32666 0.0
C588 C 0.62099 0.60328 0.26163 0.0
C589 C 0.60214 0.57525 0.25565 0.0
C590 C 0.61781 0.61969 0.29243 0.0
C591 C 0.59571 0.6073 0.31829 0.0
C592 C 0.57488 0.58035 0.31069 0.0
C593 C 0.5783 0.56464 0.27928 0.0
C594 C 0.6401 0.64863 0.29905 0.0
C595 C 0.55097 0.56641 0.33745 0.0
H596 H 0.6461 0.60572 0.44635 0.0
H597 H 0.56903 0.68007 0.39774 0.0
H598 H 0.62811 0.55465 0.37599 0.0
H599 H 0.66016 0.58254 0.36271 0.0
H600 H 0.66069 0.56525 0.41294 0.0
H601 H 0.53794 0.6829 0.33502 0.0
H602 H 0.56502 0.67448 0.30215 0.0
H603 H 0.5349 0.64463 0.31607 0.0
H604 H 0.63946 0.61135 0.2433 0.0
H605 H 0.56395 0.54275 0.27475 0.0
H606 H 0.66006 0.64083 0.32455 0.0
H607 H 0.62542 0.66925 0.30535 0.0
H608 H 0.65232 0.65803 0.27366 0.0
H609 H 0.56555 0.55259 0.36473 0.0
H610 H 0.53291 0.54922 0.32438 0.0
H611 H 0.53667 0.58662 0.34515 0.0
C612 C 0.86188 0.07231 0.88519 0.0
C613 C 0.83739 0.09774 0.87831 0.0
C614 C 0.87789 0.06527 0.85537 0.0
C615 C 0.86932 0.08425 0.81777 0.0
C616 C 0.8434 0.10884 0.81018 0.0
C617 C 0.82765 0.11525 0.84059 0.0
C618 C 0.90511 0.03856 0.86457 0.0
C619 C 0.83359 0.1296 0.77048 0.0
C620 C 0.94073 0.0934 0.76015 0.0
C621 C 0.93259 0.07026 0.73547 0.0
C622 C 0.91969 0.09893 0.7861 0.0
C623 C 0.88993 0.08058 0.78773 0.0
C624 C 0.88115 0.05768 0.76224 0.0
C625 C 0.90253 0.05294 0.73615 0.0
C626 C 0.92976 0.12388 0.81245 0.0
C627 C 0.84982 0.03743 0.76345 0.0
H628 H 0.86905 0.05834 0.91421 0.0
H629 H 0.80881 0.13501 0.83521 0.0
H630 H 0.90073 0.02139 0.84336 0.0
H631 H 0.92986 0.05003 0.86232 0.0
H632 H 0.90647 0.02395 0.89417 0.0
H633 H 0.81058 0.14505 0.76829 0.0
H634 H 0.85447 0.14624 0.76394 0.0
H635 H 0.8292 0.11359 0.74803 0.0
H636 H 0.96373 0.10715 0.75921 0.0
H637 H 0.89631 0.03494 0.71714 0.0
H638 H 0.93478 0.11106 0.84303 0.0
H639 H 0.90893 0.14215 0.8097 0.0
H640 H 0.95261 0.13747 0.80594 0.0
H641 H 0.85219 0.02037 0.79166 0.0
H642 H 0.84529 0.02248 0.73988 0.0
H643 H 0.82753 0.05382 0.76112 0.0
C644 C 0.42792 0.34689 0.274 0.0
C645 C 0.40768 0.36342 0.29346 0.0
C646 C 0.43975 0.36352 0.24103 0.0
C647 C 0.43183 0.39768 0.22788 0.0
C648 C 0.41169 0.41453 0.24781 0.0
C649 C 0.39954 0.39708 0.2801 0.0
C650 C 0.46049 0.3445 0.2201 0.0
C651 C 0.40318 0.45104 0.23521 0.0
C652 C 0.48718 0.44909 0.16444 0.0
C653 C 0.4674 0.45194 0.1275 0.0
C654 C 0.47606 0.43131 0.19731 0.0
C655 C 0.44444 0.41587 0.1932 0.0
C656 C 0.42443 0.41858 0.15604 0.0
C657 C 0.43608 0.43675 0.12382 0.0
C658 C 0.49803 0.42927 0.23648 0.0
C659 C 0.39061 0.40243 0.15033 0.0
H660 H 0.43405 0.3208 0.28429 0.0
H661 H 0.38413 0.40991 0.29542 0.0
H662 H 0.44825 0.34623 0.18943 0.0
H663 H 0.48566 0.35555 0.22005 0.0
H664 H 0.46382 0.31791 0.23355 0.0
H665 H 0.38787 0.46061 0.25433 0.0
H666 H 0.42664 0.46536 0.23523 0.0
H667 H 0.38904 0.4557 0.20517 0.0
H668 H 0.51152 0.46064 0.16768 0.0
H669 H 0.42022 0.43971 0.0959 0.0
H670 H 0.50416 0.40298 0.24957 0.0
H671 H 0.48429 0.43991 0.25625 0.0
H672 H 0.5219 0.4427 0.2348 0.0
H673 H 0.39365 0.3753 0.16066 0.0
H674 H 0.37816 0.40681 0.11955 0.0
H675 H 0.37376 0.4121 0.16772 0.0
C676 C 0.15905 0.92295 0.79846 0.0
C677 C 0.14562 0.92868 0.83068 0.0
C678 C 0.14179 0.93368 0.76071 0.0
C679 C 0.11004 0.94993 0.75512 0.0
C680 C 0.09658 0.95621 0.78757 0.0
C681 C 0.11473 0.94578 0.82501 0.0
C682 C 0.15729 0.92716 0.72684 0.0
C683 C 0.06266 0.97322 0.78275 0.0
C684 C 0.07427 1.0002 0.65674 0.0
C685 C 0.05247 0.97759 0.64056 0.0
C686 C 0.09341 0.99146 0.69389 0.0
C687 C 0.09043 0.95944 0.7154 0.0
C688 C 0.06862 0.93643 0.699 0.0
C689 C 0.05 0.94576 0.66167 0.0
C690 C 0.11694 0.01642 0.71 0.0
C691 C 0.06468 0.90205 0.72099 0.0
H692 H 0.18311 0.90998 0.80287 0.0
H693 H 0.10424 0.95 0.84994 0.0
H694 H 0.14139 0.90996 0.71113 0.0
H695 H 0.15838 0.95056 0.70612 0.0
H696 H 0.18307 0.91613 0.736 0.0
H697 H 0.05534 0.97545 0.81096 0.0
H698 H 0.06299 0.99841 0.76541 0.0
H699 H 0.04308 0.95923 0.76671 0.0
H700 H 0.07673 0.02464 0.64014 0.0
H701 H 0.03319 0.92821 0.64917 0.0
H702 H 0.14294 0.00587 0.7179 0.0
H703 H 0.10949 0.02218 0.7368 0.0
H704 H 0.11703 0.03992 0.68909 0.0
H705 H 0.08926 0.8885 0.72813 0.0
H706 H 0.04628 0.88735 0.70429 0.0
H707 H 0.05625 0.90372 0.74874 0.0
loop_
_geom_bond_atom_site_label_1
_geom_bond_atom_site_label_2
_geom_bond_distance
_geom_bond_site_symmetry_2
_ccdc_geom_bond_type
C0 C1 1.386 . S
C0 C2 1.397 . S
C0 H24 0.931 . S
C1 C0 1.386 . S
C1 C5 1.397 . S
C2 C0 1.397 . S
C2 C3 1.384 . S
C2 H25 0.930 . S
C3 C2 1.384 . S
C3 C4 1.377 . S
C3 C6 1.481 . S
C4 C3 1.377 . S
C4 C5 1.389 . S
C4 H26 0.929 . S
C5 C1 1.397 . S
C5 C4 1.389 . S
C5 H27 0.931 . S
C6 C3 1.481 . S
C6 C7 1.387 . S
C6 C11 1.390 1_556 S
C7 C6 1.387 . S
C7 C8 1.401 1_556 S
C7 H28 0.930 . S
C8 C7 1.401 1_554 S
C8 C9 1.376 . S
C8 C17 1.511 . S
C9 C8 1.376 . S
C9 C10 1.392 . S
C9 H30 0.931 . S
C10 C9 1.392 . S
C10 C11 1.361 . S
C10 C12 1.500 . S
C11 C6 1.390 1_554 S
C11 C10 1.361 . S
C11 H29 0.931 . S
C12 C10 1.500 . S
C12 C13 1.371 . S
C12 C14 1.365 . S
C13 C12 1.371 . S
C13 C23 1.386 . S
C13 H31 0.931 . S
C14 C12 1.365 . S
C14 C15 1.409 . S
C14 H32 0.929 . S
C15 C14 1.409 . S
C15 C16 1.380 . S
C15 H33 0.930 . S
C16 C15 1.380 . S
C16 C23 1.357 . S
C17 C8 1.511 . S
C17 C18 1.341 1_554 S
C17 C19 1.371 . S
C18 C17 1.341 1_556 S
C18 C22 1.394 1_556 S
C18 H34 0.930 . S
C19 C17 1.371 . S
C19 C20 1.392 . S
C19 H35 0.931 . S
C20 C19 1.392 . S
C20 C21 1.331 . S
C20 H38 0.932 . S
C21 C20 1.331 . S
C21 C22 1.336 . S
C22 C18 1.394 1_554 S
C22 C21 1.336 . S
C22 H37 0.929 1_554 S
C23 C13 1.386 . S
C23 C16 1.357 . S
C23 H36 0.928 . S
H24 C0 0.931 . S
H25 C2 0.930 . S
H26 C4 0.929 . S
H27 C5 0.931 . S
H28 C7 0.930 . S
H29 C11 0.931 . S
H30 C9 0.931 . S
H31 C13 0.931 . S
H32 C14 0.929 . S
H33 C15 0.930 . S
H34 C18 0.930 . S
H35 C19 0.931 . S
H36 C23 0.928 . S
H37 C22 0.929 1_556 S
H38 C20 0.932 . S
C39 C40 1.386 . S
C39 C41 1.397 . S
C39 H63 0.931 . S
C40 C39 1.386 . S
C40 C44 1.397 . S
C41 C39 1.397 . S
C41 C42 1.384 . S
C41 H64 0.930 . S
C42 C41 1.384 . S
C42 C43 1.377 . S
C42 C45 1.481 . S
C43 C42 1.377 . S
C43 C44 1.389 . S
C43 H65 0.929 . S
C44 C40 1.397 . S
C44 C43 1.389 . S
C44 H66 0.931 . S
C45 C42 1.481 . S
C45 C46 1.387 . S
C45 C50 1.390 . S
C46 C45 1.387 . S
C46 C47 1.401 . S
C46 H67 0.930 . S
C47 C46 1.401 . S
C47 C48 1.376 . S
C47 C56 1.511 . S
C48 C47 1.376 . S
C48 C49 1.392 . S
C48 H69 0.931 . S
C49 C48 1.392 . S
C49 C50 1.361 . S
C49 C51 1.500 . S
C50 C45 1.390 . S
C50 C49 1.361 . S
C50 H68 0.931 . S
C51 C49 1.500 . S
C51 C52 1.371 . S
C51 C53 1.365 . S
C52 C51 1.371 . S
C52 C62 1.386 . S
C52 H70 0.931 . S
C53 C51 1.365 . S
C53 C54 1.409 . S
C53 H71 0.929 . S
C54 C53 1.409 . S
C54 C55 1.380 . S
C54 H72 0.930 . S
C55 C54 1.380 . S
C55 C62 1.357 . S
C56 C47 1.511 . S
C56 C57 1.341 . S
C56 C58 1.371 . S
C57 C56 1.341 . S
C57 C61 1.394 . S
C57 H73 0.930 . S
C58 C56 1.371 . S
C58 C59 1.392 . S
C58 H74 0.931 . S
C59 C58 1.392 . S
C59 C60 1.331 . S
C59 H77 0.932 . S
C60 C59 1.331 . S
C60 C61 1.336 . S
C61 C57 1.394 . S
C61 C60 1.336 . S
C61 H76 0.929 . S
C62 C52 1.386 . S
C62 C55 1.357 . S
C62 H75 0.928 . S
H63 C39 0.931 . S
H64 C41 0.930 . S
H65 C43 0.929 . S
H66 C44 0.931 . S
H67 C46 0.930 . S
H68 C50 0.931 . S
H69 C48 0.931 . S
H70 C52 0.931 . S
H71 C53 0.929 . S
H72 C54 0.930 . S
H73 C57 0.930 . S
H74 C58 0.931 . S
H75 C62 0.928 . S
H76 C61 0.929 . S
H77 C59 0.932 . S
C78 C79 1.386 . S
C78 C80 1.397 . S
C78 H102 0.931 . S
C79 C78 1.386 . S
C79 C83 1.397 . S
C80 C78 1.397 . S
C80 C81 1.384 . S
C80 H103 0.930 . S
C81 C80 1.384 . S
C81 C82 1.377 . S
C81 C84 1.481 . S
C82 C81 1.377 . S
C82 C83 1.389 . S
C82 H104 0.929 . S
C83 C79 1.397 . S
C83 C82 1.389 . S
C83 H105 0.931 . S
C84 C81 1.481 . S
C84 C85 1.387 . S
C84 C89 1.390 . S
C85 C84 1.387 . S
C85 C86 1.401 . S
C85 H106 0.930 . S
C86 C85 1.401 . S
C86 C87 1.376 . S
C86 C95 1.511 . S
C87 C86 1.376 . S
C87 C88 1.392 . S
C87 H108 0.931 1_554 S
C88 C87 1.392 . S
C88 C89 1.361 . S
C88 C90 1.500 1_554 S
C89 C84 1.390 . S
C89 C88 1.361 . S
C89 H107 0.931 . S
C90 C88 1.500 1_556 S
C90 C91 1.371 . S
C90 C92 1.365 . S
C91 C90 1.371 . S
C91 C101 1.386 . S
C91 H109 0.931 . S
C92 C90 1.365 . S
C92 C93 1.409 . S
C92 H110 0.929 . S
C93 C92 1.409 . S
C93 C94 1.380 . S
C93 H111 0.930 . S
C94 C93 1.380 . S
C94 C101 1.357 . S
C95 C86 1.511 . S
C95 C96 1.341 . S
C95 C97 1.371 1_554 S
C96 C95 1.341 . S
C96 C100 1.394 . S
C96 H112 0.930 . S
C97 C95 1.371 1_556 S
C97 C98 1.392 . S
C97 H113 0.931 . S
C98 C97 1.392 . S
C98 C99 1.331 1_556 S
C98 H116 0.932 . S
C99 C98 1.331 1_554 S
C99 C100 1.336 . S
C100 C96 1.394 . S
C100 C99 1.336 . S
C100 H115 0.929 . S
C101 C91 1.386 . S
C101 C94 1.357 . S
C101 H114 0.928 . S
H102 C78 0.931 . S
H103 C80 0.930 . S
H104 C82 0.929 . S
H105 C83 0.931 . S
H106 C85 0.930 . S
H107 C89 0.931 . S
H108 C87 0.931 1_556 S
H109 C91 0.931 . S
H110 C92 0.929 . S
H111 C93 0.930 . S
H112 C96 0.930 . S
H113 C97 0.931 . S
H114 C101 0.928 . S
H115 C100 0.929 . S
H116 C98 0.932 . S
C117 C118 1.386 . S
C117 C119 1.397 . S
C117 H141 0.931 . S
C118 C117 1.386 . S
C118 C122 1.397 . S
C119 C117 1.397 . S
C119 C120 1.384 . S
C119 H142 0.930 . S
C120 C119 1.384 . S
C120 C121 1.377 . S
C120 C123 1.481 . S
C121 C120 1.377 . S
C121 C122 1.389 . S
C121 H143 0.929 . S
C122 C118 1.397 . S
C122 C121 1.389 . S
C122 H144 0.931 . S
C123 C120 1.481 . S
C123 C124 1.387 . S
C123 C128 1.390 . S
C124 C123 1.387 . S
C124 C125 1.401 . S
C124 H145 0.930 . S
C125 C124 1.401 . S
C125 C126 1.376 . S
C125 C134 1.511 . S
C126 C125 1.376 . S
C126 C127 1.392 . S
C126 H147 0.931 . S
C127 C126 1.392 . S
C127 C128 1.361 . S
C127 C129 1.500 . S
C128 C123 1.390 . S
C128 C127 1.361 . S
C128 H146 0.931 . S
C129 C127 1.500 . S
C129 C130 1.371 . S
C129 C131 1.365 . S
C130 C129 1.371 . S
C130 C140 1.386 . S
C130 H148 0.931 . S
C131 C129 1.365 . S
C131 C132 1.409 . S
C131 H149 0.929 . S
C132 C131 1.409 . S
C132 C133 1.380 . S
C132 H150 0.930 . S
C133 C132 1.380 . S
C133 C140 1.357 . S
C134 C125 1.511 . S
C134 C135 1.341 . S
C134 C136 1.371 . S
C135 C134 1.341 . S
C135 C139 1.394 . S
C135 H151 0.930 . S
C136 C134 1.371 . S
C136 C137 1.392 . S
C136 H152 0.931 . S
C137 C136 1.392 . S
C137 C138 1.331 . S
C137 H155 0.932 . S
C138 C137 1.331 . S
C138 C139 1.336 . S
C139 C135 1.394 . S
C139 C138 1.336 . S
C139 H154 0.929 . S
C140 C130 1.386 . S
C140 C133 1.357 . S
C140 H153 0.928 . S
H141 C117 0.931 . S
H142 C119 0.930 . S
H143 C121 0.929 . S
H144 C122 0.931 . S
H145 C124 0.930 . S
H146 C128 0.931 . S
H147 C126 0.931 . S
H148 C130 0.931 . S
H149 C131 0.929 . S
H150 C132 0.930 . S
H151 C135 0.930 . S
H152 C136 0.931 . S
H153 C140 0.928 . S
H154 C139 0.929 . S
H155 C137 0.932 . S
C156 C158 1.422 . S
C156 C160 1.415 . S
C156 N162 1.369 . S
C157 C158 1.421 . S
C157 C159 1.417 . S
C157 C169 1.422 . S
C158 C156 1.422 . S
C158 C157 1.421 . S
C158 N168 1.359 . S
C159 C157 1.417 . S
C159 C161 1.329 . S
C159 H178 0.930 . S
C160 C156 1.415 . S
C160 C161 1.437 . S
C160 C164 1.413 . S
C161 C159 1.329 . S
C161 C160 1.437 . S
C161 H183 0.929 . S
N162 C156 1.369 . S
N162 C163 1.320 1_655 S
N162 Gd167 2.622 . S
C163 N162 1.320 1_455 S
C163 C165 1.378 1_455 S
C163 H175 0.948 . S
C164 C160 1.413 . S
C164 C165 1.348 . S
C164 H180 0.931 . S
C165 C163 1.378 1_655 S
C165 C164 1.348 . S
C165 H181 0.930 1_655 S
Gd166 N186 2.622 . S
Gd166 N193 2.570 . S
Gd166 O200 2.369 1_455 S
Gd166 O201 2.468 . S
Gd166 O202 2.427 . S
Gd166 O204 2.388 1_455 S
Gd166 O205 2.386 . S
Gd166 O209 2.307 1_565 S
Gd166 C219 2.805 . S
Gd167 N162 2.622 . S
Gd167 N168 2.570 . S
Gd167 O199 2.386 . S
Gd167 O203 2.307 1_545 S
Gd167 O206 2.353 1_655 S
Gd167 O207 2.468 . S
Gd167 O208 2.427 . S
Gd167 O210 2.388 1_655 S
Gd167 C231 2.805 . S
N168 C158 1.359 . S
N168 Gd167 2.570 . S
N168 C170 1.343 . S
C169 C157 1.422 . S
C169 C171 1.321 . S
C169 H177 0.931 . S
C170 N168 1.343 . S
C170 C171 1.390 . S
C170 H172 0.931 . S
C171 C169 1.321 . S
C171 C170 1.390 . S
C171 H173 0.930 . S
H172 C170 0.931 . S
H173 C171 0.930 . S
H174 C197 0.931 . S
H175 C163 0.948 . S
H176 C198 0.930 . S
H177 C169 0.931 . S
H178 C159 0.930 . S
H179 C188 0.929 1_655 S
H180 C164 0.931 . S
H181 C165 0.930 1_455 S
H182 C220 0.930 . S
H183 C161 0.929 . S
H184 C189 0.931 . S
H185 C190 0.930 1_655 S
N186 Gd166 2.622 . S
N186 C187 1.369 . S
N186 C188 1.338 . S
C187 N186 1.369 . S
C187 C191 1.415 . S
C187 C194 1.422 . S
C188 H179 0.929 1_455 S
C188 N186 1.338 . S
C188 C190 1.378 . S
C189 H184 0.931 . S
C189 C190 1.348 . S
C189 C191 1.413 . S
C190 H185 0.930 1_455 S
C190 C188 1.378 . S
C190 C189 1.348 . S
C191 C187 1.415 . S
C191 C189 1.413 . S
C191 C221 1.437 . S
H192 C221 0.929 . S
N193 Gd166 2.570 . S
N193 C194 1.359 . S
N193 C197 1.343 . S
C194 C187 1.422 . S
C194 N193 1.359 . S
C194 C196 1.421 . S
C195 C196 1.422 . S
C195 C198 1.321 . S
C195 H222 0.931 . S
C196 C194 1.421 . S
C196 C195 1.422 . S
C196 C220 1.417 . S
C197 H174 0.931 . S
C197 N193 1.343 . S
C197 C198 1.390 . S
C198 H176 0.930 . S
C198 C195 1.321 . S
C198 C197 1.390 . S
O199 Gd167 2.386 . S
O199 C211 1.265 . S
O200 Gd166 2.369 1_655 S
O200 C211 1.217 1_565 S
O201 Gd166 2.468 . S
O201 C219 1.263 . S
O202 Gd166 2.427 . S
O202 C219 1.252 . S
O203 Gd167 2.307 1_565 S
O203 C212 1.261 . S
O204 Gd166 2.388 1_655 S
O204 C212 1.252 . S
O205 Gd166 2.386 . S
O205 C223 1.265 . S
O206 Gd167 2.353 1_455 S
O206 C223 1.242 1_545 S
O207 Gd167 2.468 . S
O207 C231 1.263 . S
O208 Gd167 2.427 . S
O208 C231 1.252 . S
O209 Gd166 2.307 1_545 S
O209 C224 1.261 . S
O210 Gd167 2.388 1_455 S
O210 C224 1.252 . S
C211 O199 1.265 . S
C211 O200 1.217 1_545 S
C212 O203 1.261 . S
C212 O204 1.252 . S
C213 C216 1.394 . S
C213 C218 1.370 . S
C213 C219 1.500 . S
C214 C217 1.383 . S
C214 C218 1.395 . S
C215 C216 1.396 . S
C215 C217 1.365 . S
C215 H232 0.929 . S
C216 C213 1.394 . S
C216 C215 1.396 . S
C216 H233 0.930 . S
C217 C214 1.383 . S
C217 C215 1.365 . S
C217 H234 0.931 . S
C218 C213 1.370 . S
C218 C214 1.395 . S
C218 H235 0.930 . S
C219 Gd166 2.805 . S
C219 O201 1.263 . S
C219 O202 1.252 . S
C219 C213 1.500 . S
C220 H182 0.930 . S
C220 C196 1.417 . S
C220 C221 1.329 . S
C221 C191 1.437 . S
C221 H192 0.929 . S
C221 C220 1.329 . S
H222 C195 0.931 . S
C223 O205 1.265 . S
C223 O206 1.242 1_565 S
C224 O209 1.261 . S
C224 O210 1.252 . S
C225 C228 1.394 . S
C225 C230 1.370 . S
C225 C231 1.500 . S
C226 C229 1.383 . S
C226 C230 1.395 . S
C227 C228 1.396 . S
C227 C229 1.365 . S
C227 H236 0.929 . S
C228 C225 1.394 . S
C228 C227 1.396 . S
C228 H237 0.930 . S
C229 C226 1.383 . S
C229 C227 1.365 . S
C229 H238 0.931 . S
C230 C225 1.370 . S
C230 C226 1.395 . S
C230 H239 0.930 . S
C231 Gd167 2.805 . S
C231 O207 1.263 . S
C231 O208 1.252 . S
C231 C225 1.500 . S
H232 C215 0.929 . S
H233 C216 0.930 . S
H234 C217 0.931 . S
H235 C218 0.930 . S
H236 C227 0.929 . S
H237 C228 0.930 . S
H238 C229 0.931 . S
H239 C230 0.930 . S
C240 C242 1.422 . S
C240 C244 1.415 . S
C240 N246 1.369 . S
C241 C242 1.421 . S
C241 C243 1.417 . S
C241 C253 1.422 . S
C242 C240 1.422 . S
C242 C241 1.421 . S
C242 N252 1.359 . S
C243 C241 1.417 . S
C243 C245 1.329 . S
C243 H262 0.930 . S
C244 C240 1.415 . S
C244 C245 1.437 . S
C244 C248 1.413 . S
C245 C243 1.329 . S
C245 C244 1.437 . S
C245 H267 0.929 . S
N246 C240 1.369 . S
N246 C247 1.338 . S
N246 Gd251 2.622 . S
C247 N246 1.338 . S
C247 C249 1.378 . S
C247 H259 0.929 . S
C248 C244 1.413 . S
C248 C249 1.348 . S
C248 H264 0.931 . S
C249 C247 1.378 . S
C249 C248 1.348 . S
C249 H265 0.930 . S
Gd250 N270 2.622 . S
Gd250 N277 2.570 1_556 S
Gd250 O284 2.353 . S
Gd250 O285 2.468 . S
Gd250 O286 2.427 . S
Gd250 O288 2.388 . S
Gd250 O289 2.386 1_556 S
Gd250 O293 2.307 1_556 S
Gd250 C303 2.805 . S
Gd251 N246 2.622 . S
Gd251 N252 2.570 . S
Gd251 O283 2.386 1_554 S
Gd251 O287 2.307 . S
Gd251 O290 2.353 . S
Gd251 O291 2.468 . S
Gd251 O292 2.427 . S
Gd251 O294 2.388 . S
Gd251 C315 2.805 . S
N252 C242 1.359 . S
N252 Gd251 2.570 . S
N252 C254 1.343 . S
C253 C241 1.422 . S
C253 C255 1.321 . S
C253 H261 0.931 . S
C254 N252 1.343 . S
C254 C255 1.390 . S
C254 H256 0.931 . S
C255 C253 1.321 . S
C255 C254 1.390 . S
C255 H257 0.930 . S
H256 C254 0.931 . S
H257 C255 0.930 . S
H258 C281 0.931 . S
H259 C247 0.929 . S
H260 C282 0.930 . S
H261 C253 0.931 . S
H262 C243 0.930 . S
H263 C272 0.929 . S
H264 C248 0.931 . S
H265 C249 0.930 . S
H266 C304 0.930 . S
H267 C245 0.929 . S
H268 C273 0.931 . S
H269 C274 0.930 . S
N270 Gd250 2.622 . S
N270 C271 1.369 1_556 S
N270 C272 1.338 . S
C271 N270 1.369 1_554 S
C271 C275 1.415 . S
C271 C278 1.422 . S
C272 H263 0.929 . S
C272 N270 1.338 . S
C272 C274 1.378 . S
C273 H268 0.931 . S
C273 C274 1.348 1_554 S
C273 C275 1.413 . S
C274 H269 0.930 . S
C274 C272 1.378 . S
C274 C273 1.348 1_556 S
C275 C271 1.415 . S
C275 C273 1.413 . S
C275 C305 1.437 . S
H276 C305 0.929 . S
N277 Gd250 2.570 1_554 S
N277 C278 1.359 . S
N277 C281 1.343 . S
C278 C271 1.422 . S
C278 N277 1.359 . S
C278 C280 1.421 . S
C279 C280 1.422 . S
C279 C282 1.321 . S
C279 H306 0.931 . S
C280 C278 1.421 . S
C280 C279 1.422 . S
C280 C304 1.417 . S
C281 H258 0.931 . S
C281 N277 1.343 . S
C281 C282 1.390 . S
C282 H260 0.930 . S
C282 C279 1.321 . S
C282 C281 1.390 . S
O283 Gd251 2.386 1_556 S
O283 C295 1.265 . S
O284 Gd250 2.353 . S
O284 C295 1.242 . S
O285 Gd250 2.468 . S
O285 C303 1.263 . S
O286 Gd250 2.427 . S
O286 C303 1.252 . S
O287 Gd251 2.307 . S
O287 C296 1.261 . S
O288 Gd250 2.388 . S
O288 C296 1.252 1_556 S
O289 Gd250 2.386 1_554 S
O289 C307 1.265 . S
O290 Gd251 2.353 . S
O290 C307 1.242 . S
O291 Gd251 2.468 . S
O291 C315 1.263 . S
O292 Gd251 2.427 . S
O292 C315 1.252 . S
O293 Gd250 2.307 1_554 S
O293 C308 1.261 . S
O294 Gd251 2.388 . S
O294 C308 1.252 . S
C295 O283 1.265 . S
C295 O284 1.242 . S
C296 O287 1.261 . S
C296 O288 1.252 1_554 S
C297 C300 1.394 . S
C297 C302 1.370 . S
C297 C303 1.500 . S
C298 C301 1.383 . S
C298 C302 1.395 . S
C299 C300 1.396 . S
C299 C301 1.365 . S
C299 H316 0.929 . S
C300 C297 1.394 . S
C300 C299 1.396 . S
C300 H317 0.930 . S
C301 C298 1.383 . S
C301 C299 1.365 . S
C301 H318 0.931 . S
C302 C297 1.370 . S
C302 C298 1.395 . S
C302 H319 0.930 . S
C303 Gd250 2.805 . S
C303 O285 1.263 . S
C303 O286 1.252 . S
C303 C297 1.500 . S
C304 H266 0.930 . S
C304 C280 1.417 . S
C304 C305 1.329 . S
C305 C275 1.437 . S
C305 H276 0.929 . S
C305 C304 1.329 . S
H306 C279 0.931 . S
C307 O289 1.265 . S
C307 O290 1.242 . S
C308 O293 1.261 . S
C308 O294 1.252 . S
C309 C312 1.394 . S
C309 C314 1.370 . S
C309 C315 1.500 . S
C310 C313 1.383 . S
C310 C314 1.395 . S
C311 C312 1.396 . S
C311 C313 1.365 . S
C311 H320 0.929 . S
C312 C309 1.394 . S
C312 C311 1.396 . S
C312 H321 0.930 . S
C313 C310 1.383 . S
C313 C311 1.365 . S
C313 H322 0.931 . S
C314 C309 1.370 . S
C314 C310 1.395 . S
C314 H323 0.930 . S
C315 Gd251 2.805 . S
C315 O291 1.263 . S
C315 O292 1.252 . S
C315 C309 1.500 . S
H316 C299 0.929 . S
H317 C300 0.930 . S
H318 C301 0.931 . S
H319 C302 0.930 . S
H320 C311 0.929 . S
H321 C312 0.930 . S
H322 C313 0.931 . S
H323 C314 0.930 . S
C324 C325 1.391 . S
C324 C326 1.394 . S
C324 H340 0.931 . S
C325 C324 1.391 . S
C325 C329 1.376 . S
C326 C324 1.394 . S
C326 C327 1.369 . S
C326 C330 1.531 . S
C327 C326 1.369 . S
C327 C328 1.410 . S
C327 C335 1.503 . S
C328 C327 1.410 . S
C328 C329 1.392 . S
C328 C331 1.511 . S
C329 C325 1.376 . S
C329 C328 1.392 . S
C329 H341 0.929 . S
C330 C326 1.531 . S
C330 H342 0.960 . S
C330 H343 0.962 . S
C330 H344 0.960 . S
C331 C328 1.511 . S
C331 H345 0.961 . S
C331 H346 0.961 . S
C331 H347 0.961 . S
C332 C333 1.370 . S
C332 C334 1.363 . S
C332 H348 0.931 . S
C333 C332 1.370 . S
C333 C337 1.408 . S
C334 C332 1.363 . S
C334 C335 1.370 . S
C334 C338 1.524 . S
C335 C327 1.503 . S
C335 C334 1.370 . S
C335 C336 1.403 . S
C336 C335 1.403 . S
C336 C337 1.404 . S
C336 C339 1.539 . S
C337 C333 1.408 . S
C337 C336 1.404 . S
C337 H349 0.930 . S
C338 C334 1.524 . S
C338 H350 0.956 . S
C338 H351 0.961 . S
C338 H352 0.961 . S
C339 C336 1.539 . S
C339 H353 0.958 . S
C339 H354 0.961 . S
C339 H355 0.960 . S
H340 C324 0.931 . S
H341 C329 0.929 . S
H342 C330 0.960 . S
H343 C330 0.962 . S
H344 C330 0.960 . S
H345 C331 0.961 . S
H346 C331 0.961 . S
H347 C331 0.961 . S
H348 C332 0.931 . S
H349 C337 0.930 . S
H350 C338 0.956 . S
H351 C338 0.961 . S
H352 C338 0.961 . S
H353 C339 0.958 . S
H354 C339 0.961 . S
H355 C339 0.960 . S
C356 C357 1.391 . S
C356 C358 1.394 . S
C356 H372 0.931 . S
C357 C356 1.391 . S
C357 C361 1.376 . S
C358 C356 1.394 . S
C358 C359 1.369 . S
C358 C362 1.531 . S
C359 C358 1.369 . S
C359 C360 1.410 . S
C359 C367 1.503 . S
C360 C359 1.410 . S
C360 C361 1.392 . S
C360 C363 1.511 . S
C361 C357 1.376 . S
C361 C360 1.392 . S
C361 H373 0.929 . S
C362 C358 1.531 . S
C362 H374 0.960 . S
C362 H375 0.962 . S
C362 H376 0.960 . S
C363 C360 1.511 . S
C363 H377 0.961 . S
C363 H378 0.961 . S
C363 H379 0.961 . S
C364 C365 1.370 . S
C364 C366 1.363 . S
C364 H380 0.931 1_554 S
C365 C364 1.370 . S
C365 C369 1.408 . S
C366 C364 1.363 . S
C366 C367 1.370 . S
C366 C370 1.524 1_554 S
C367 C359 1.503 . S
C367 C366 1.370 . S
C367 C368 1.403 . S
C368 C367 1.403 . S
C368 C369 1.404 . S
C368 C371 1.539 . S
C369 C365 1.408 . S
C369 C368 1.404 . S
C369 H381 0.930 . S
C370 C366 1.524 1_556 S
C370 H382 0.956 . S
C370 H383 0.961 . S
C370 H384 0.961 . S
C371 C368 1.539 . S
C371 H385 0.958 . S
C371 H386 0.961 . S
C371 H387 0.960 . S
H372 C356 0.931 . S
H373 C361 0.929 . S
H374 C362 0.960 . S
H375 C362 0.962 . S
H376 C362 0.960 . S
H377 C363 0.961 . S
H378 C363 0.961 . S
H379 C363 0.961 . S
H380 C364 0.931 1_556 S
H381 C369 0.930 . S
H382 C370 0.956 . S
H383 C370 0.961 . S
H384 C370 0.961 . S
H385 C371 0.958 . S
H386 C371 0.961 . S
H387 C371 0.960 . S
C388 C389 1.391 . S
C388 C390 1.394 . S
C388 H404 0.931 . S
C389 C388 1.391 . S
C389 C393 1.376 . S
C390 C388 1.394 . S
C390 C391 1.369 . S
C390 C394 1.531 . S
C391 C390 1.369 . S
C391 C392 1.410 . S
C391 C399 1.503 . S
C392 C391 1.410 . S
C392 C393 1.392 . S
C392 C395 1.511 . S
C393 C389 1.376 . S
C393 C392 1.392 . S
C393 H405 0.929 . S
C394 C390 1.531 . S
C394 H406 0.960 . S
C394 H407 0.962 . S
C394 H408 0.960 . S
C395 C392 1.511 . S
C395 H409 0.961 . S
C395 H410 0.961 . S
C395 H411 0.961 . S
C396 C397 1.370 . S
C396 C398 1.363 . S
C396 H412 0.931 . S
C397 C396 1.370 . S
C397 C401 1.408 . S
C398 C396 1.363 . S
C398 C399 1.370 . S
C398 C402 1.524 . S
C399 C391 1.503 . S
C399 C398 1.370 . S
C399 C400 1.403 . S
C400 C399 1.403 . S
C400 C401 1.404 . S
C400 C403 1.539 . S
C401 C397 1.408 . S
C401 C400 1.404 . S
C401 H413 0.930 . S
C402 C398 1.524 . S
C402 H414 0.956 . S
C402 H415 0.961 . S
C402 H416 0.961 . S
C403 C400 1.539 . S
C403 H417 0.958 . S
C403 H418 0.961 . S
C403 H419 0.960 . S
H404 C388 0.931 . S
H405 C393 0.929 . S
H406 C394 0.960 . S
H407 C394 0.962 . S
H408 C394 0.960 . S
H409 C395 0.961 . S
H410 C395 0.961 . S
H411 C395 0.961 . S
H412 C396 0.931 . S
H413 C401 0.930 . S
H414 C402 0.956 . S
H415 C402 0.961 . S
H416 C402 0.961 . S
H417 C403 0.958 . S
H418 C403 0.961 . S
H419 C403 0.960 . S
C420 C421 1.391 1_556 S
C420 C422 1.394 . S
C420 H436 0.931 . S
C421 C420 1.391 1_554 S
C421 C425 1.376 . S
C422 C420 1.394 . S
C422 C423 1.369 1_556 S
C422 C426 1.531 . S
C423 C422 1.369 1_554 S
C423 C424 1.410 . S
C423 C431 1.503 . S
C424 C423 1.410 . S
C424 C425 1.392 . S
C424 C427 1.511 . S
C425 C421 1.376 . S
C425 C424 1.392 . S
C425 H437 0.929 . S
C426 C422 1.531 . S
C426 H438 0.960 . S
C426 H439 0.962 . S
C426 H440 0.960 . S
C427 C424 1.511 . S
C427 H441 0.961 . S
C427 H442 0.961 . S
C427 H443 0.961 . S
C428 C429 1.370 . S
C428 C430 1.363 . S
C428 H444 0.931 . S
C429 C428 1.370 . S
C429 C433 1.408 1_554 S
C430 C428 1.363 . S
C430 C431 1.370 . S
C430 C434 1.524 . S
C431 C423 1.503 . S
C431 C430 1.370 . S
C431 C432 1.403 1_554 S
C432 C431 1.403 1_556 S
C432 C433 1.404 . S
C432 C435 1.539 . S
C433 C429 1.408 1_556 S
C433 C432 1.404 . S
C433 H445 0.930 . S
C434 C430 1.524 . S
C434 H446 0.956 . S
C434 H447 0.961 . S
C434 H448 0.961 . S
C435 C432 1.539 . S
C435 H449 0.958 . S
C435 H450 0.961 . S
C435 H451 0.960 . S
H436 C420 0.931 . S
H437 C425 0.929 . S
H438 C426 0.960 . S
H439 C426 0.962 . S
H440 C426 0.960 . S
H441 C427 0.961 . S
H442 C427 0.961 . S
H443 C427 0.961 . S
H444 C428 0.931 . S
H445 C433 0.930 . S
H446 C434 0.956 . S
H447 C434 0.961 . S
H448 C434 0.961 . S
H449 C435 0.958 . S
H450 C435 0.961 . S
H451 C435 0.960 . S
C452 C453 1.391 . S
C452 C454 1.394 . S
C452 H468 0.931 . S
C453 C452 1.391 . S
C453 C457 1.376 . S
C454 C452 1.394 . S
C454 C455 1.369 . S
C454 C458 1.531 . S
C455 C454 1.369 . S
C455 C456 1.410 . S
C455 C463 1.503 . S
C456 C455 1.410 . S
C456 C457 1.392 . S
C456 C459 1.511 . S
C457 C453 1.376 . S
C457 C456 1.392 . S
C457 H469 0.929 . S
C458 C454 1.531 . S
C458 H470 0.960 . S
C458 H471 0.962 . S
C458 H472 0.960 . S
C459 C456 1.511 . S
C459 H473 0.961 . S
C459 H474 0.961 . S
C459 H475 0.961 . S
C460 C461 1.370 . S
C460 C462 1.363 . S
C460 H476 0.931 . S
C461 C460 1.370 . S
C461 C465 1.408 . S
C462 C460 1.363 . S
C462 C463 1.370 . S
C462 C466 1.524 . S
C463 C455 1.503 . S
C463 C462 1.370 . S
C463 C464 1.403 . S
C464 C463 1.403 . S
C464 C465 1.404 . S
C464 C467 1.555 . S
C465 C461 1.408 . S
C465 C464 1.404 . S
C465 H477 0.930 . S
C466 C462 1.524 . S
C466 H478 0.956 . S
C466 H479 0.961 . S
C466 H480 0.961 . S
C467 C464 1.555 . S
C467 H481 0.933 1_565 S
C467 H482 0.951 1_565 S
C467 H483 0.980 . S
H468 C452 0.931 . S
H469 C457 0.929 . S
H470 C458 0.960 . S
H471 C458 0.962 . S
H472 C458 0.960 . S
H473 C459 0.961 . S
H474 C459 0.961 . S
H475 C459 0.961 . S
H476 C460 0.931 . S
H477 C465 0.930 . S
H478 C466 0.956 . S
H479 C466 0.961 . S
H480 C466 0.961 . S
H481 C467 0.933 1_545 S
H482 C467 0.951 1_545 S
H483 C467 0.980 . S
C484 C485 1.391 . S
C484 C486 1.394 . S
C484 H500 0.931 . S
C485 C484 1.391 . S
C485 C489 1.376 . S
C486 C484 1.394 . S
C486 C487 1.369 . S
C486 C490 1.531 . S
C487 C486 1.369 . S
C487 C488 1.410 . S
C487 C495 1.503 . S
C488 C487 1.410 . S
C488 C489 1.392 . S
C488 C491 1.511 . S
C489 C485 1.376 . S
C489 C488 1.392 . S
C489 H501 0.929 . S
C490 C486 1.531 . S
C490 H502 0.960 . S
C490 H503 0.962 . S
C490 H504 0.960 . S
C491 C488 1.511 . S
C491 H505 0.961 . S
C491 H506 0.961 . S
C491 H507 0.961 . S
C492 C493 1.370 . S
C492 C494 1.363 . S
C492 H508 0.931 . S
C493 C492 1.370 . S
C493 C497 1.408 . S
C494 C492 1.363 . S
C494 C495 1.370 . S
C494 C498 1.524 . S
C495 C487 1.503 . S
C495 C494 1.370 . S
C495 C496 1.403 . S
C496 C495 1.403 . S
C496 C497 1.404 . S
C496 C499 1.539 . S
C497 C493 1.408 . S
C497 C496 1.404 . S
C497 H509 0.930 . S
C498 C494 1.524 . S
C498 H510 0.956 . S
C498 H511 0.961 . S
C498 H512 0.961 . S
C499 C496 1.539 . S
C499 H513 0.958 . S
C499 H514 0.961 . S
C499 H515 0.960 . S
H500 C484 0.931 . S
H501 C489 0.929 . S
H502 C490 0.960 . S
H503 C490 0.962 . S
H504 C490 0.960 . S
H505 C491 0.961 . S
H506 C491 0.961 . S
H507 C491 0.961 . S
H508 C492 0.931 . S
H509 C497 0.930 . S
H510 C498 0.956 . S
H511 C498 0.961 . S
H512 C498 0.961 . S
H513 C499 0.958 . S
H514 C499 0.961 . S
H515 C499 0.960 . S
C516 C517 1.391 . S
C516 C518 1.394 . S
C516 H532 0.931 . S
C517 C516 1.391 . S
C517 C521 1.376 . S
C518 C516 1.394 . S
C518 C519 1.369 . S
C518 C522 1.531 . S
C519 C518 1.369 . S
C519 C520 1.410 . S
C519 C527 1.503 . S
C520 C519 1.410 . S
C520 C521 1.392 . S
C520 C523 1.511 . S
C521 C517 1.376 . S
C521 C520 1.392 . S
C521 H533 0.929 . S
C522 C518 1.531 . S
C522 H534 0.960 . S
C522 H535 0.962 . S
C522 H536 0.960 . S
C523 C520 1.511 . S
C523 H537 0.961 . S
C523 H538 0.961 . S
C523 H539 0.961 . S
C524 C525 1.370 . S
C524 C526 1.363 . S
C524 H540 0.931 1_545 S
C525 C524 1.370 . S
C525 C529 1.408 . S
C526 C524 1.363 . S
C526 C527 1.370 . S
C526 C530 1.524 1_545 S
C527 C519 1.503 . S
C527 C526 1.370 . S
C527 C528 1.403 . S
C528 C527 1.403 . S
C528 C529 1.404 . S
C528 C531 1.539 . S
C529 C525 1.408 . S
C529 C528 1.404 . S
C529 H541 0.930 . S
C530 C526 1.524 1_565 S
C530 H542 0.956 . S
C530 H543 0.961 1_565 S
C530 H544 0.961 . S
C531 C528 1.539 . S
C531 H545 0.958 . S
C531 H546 0.961 . S
C531 H547 0.960 . S
H532 C516 0.931 . S
H533 C521 0.929 . S
H534 C522 0.960 . S
H535 C522 0.962 . S
H536 C522 0.960 . S
H537 C523 0.961 . S
H538 C523 0.961 . S
H539 C523 0.961 . S
H540 C524 0.931 1_565 S
H541 C529 0.930 . S
H542 C530 0.956 . S
H543 C530 0.961 1_545 S
H544 C530 0.961 . S
H545 C531 0.958 . S
H546 C531 0.961 . S
H547 C531 0.960 . S
C548 C549 1.391 . S
C548 C550 1.394 . S
C548 H564 0.931 . S
C549 C548 1.391 . S
C549 C553 1.376 . S
C550 C548 1.394 . S
C550 C551 1.369 . S
C550 C554 1.531 . S
C551 C550 1.369 . S
C551 C552 1.410 . S
C551 C559 1.503 . S
C552 C551 1.410 . S
C552 C553 1.392 . S
C552 C555 1.511 . S
C553 C549 1.376 . S
C553 C552 1.392 . S
C553 H565 0.929 . S
C554 C550 1.531 . S
C554 H566 0.960 . S
C554 H567 0.962 . S
C554 H568 0.960 . S
C555 C552 1.511 . S
C555 H569 0.961 . S
C555 H570 0.961 . S
C555 H571 0.961 . S
C556 C557 1.370 . S
C556 C558 1.363 . S
C556 H572 0.931 . S
C557 C556 1.370 . S
C557 C561 1.408 . S
C558 C556 1.363 . S
C558 C559 1.370 . S
C558 C562 1.524 . S
C559 C551 1.503 . S
C559 C558 1.370 . S
C559 C560 1.403 . S
C560 C559 1.403 . S
C560 C561 1.404 . S
C560 C563 1.539 . S
C561 C557 1.408 . S
C561 C560 1.404 . S
C561 H573 0.930 . S
C562 C558 1.524 . S
C562 H574 0.956 . S
C562 H575 0.961 . S
C562 H576 0.961 . S
C563 C560 1.539 . S
C563 H577 0.958 . S
C563 H578 0.961 . S
C563 H579 0.960 . S
H564 C548 0.931 . S
H565 C553 0.929 . S
H566 C554 0.960 . S
H567 C554 0.962 . S
H568 C554 0.960 . S
H569 C555 0.961 . S
H570 C555 0.961 . S
H571 C555 0.961 . S
H572 C556 0.931 . S
H573 C561 0.930 . S
H574 C562 0.956 . S
H575 C562 0.961 . S
H576 C562 0.961 . S
H577 C563 0.958 . S
H578 C563 0.961 . S
H579 C563 0.960 . S
C580 C581 1.391 . S
C580 C582 1.394 . S
C580 H596 0.931 . S
C581 C580 1.391 . S
C581 C585 1.376 . S
C582 C580 1.394 . S
C582 C583 1.369 . S
C582 C586 1.531 . S
C583 C582 1.369 . S
C583 C584 1.410 . S
C583 C591 1.503 . S
C584 C583 1.410 . S
C584 C585 1.392 . S
C584 C587 1.511 . S
C585 C581 1.376 . S
C585 C584 1.392 . S
C585 H597 0.929 . S
C586 C582 1.531 . S
C586 H598 0.960 . S
C586 H599 0.962 . S
C586 H600 0.960 . S
C587 C584 1.511 . S
C587 H601 0.961 . S
C587 H602 0.961 . S
C587 H603 0.961 . S
C588 C589 1.370 . S
C588 C590 1.363 . S
C588 H604 0.931 . S
C589 C588 1.370 . S
C589 C593 1.408 . S
C590 C588 1.363 . S
C590 C591 1.370 . S
C590 C594 1.524 . S
C591 C583 1.503 . S
C591 C590 1.370 . S
C591 C592 1.403 . S
C592 C591 1.403 . S
C592 C593 1.404 . S
C592 C595 1.539 . S
C593 C589 1.408 . S
C593 C592 1.404 . S
C593 H605 0.930 . S
C594 C590 1.524 . S
C594 H606 0.956 . S
C594 H607 0.961 . S
C594 H608 0.961 . S
C595 C592 1.539 . S
C595 H609 0.958 . S
C595 H610 0.961 . S
C595 H611 0.960 . S
H596 C580 0.931 . S
H597 C585 0.929 . S
H598 C586 0.960 . S
H599 C586 0.962 . S
H600 C586 0.960 . S
H601 C587 0.961 . S
H602 C587 0.961 . S
H603 C587 0.961 . S
H604 C588 0.931 . S
H605 C593 0.930 . S
H606 C594 0.956 . S
H607 C594 0.961 . S
H608 C594 0.961 . S
H609 C595 0.958 . S
H610 C595 0.961 . S
H611 C595 0.960 . S
C612 C613 1.391 . S
C612 C614 1.394 . S
C612 H628 0.931 . S
C613 C612 1.391 . S
C613 C617 1.376 . S
C614 C612 1.394 . S
C614 C615 1.369 . S
C614 C618 1.531 . S
C615 C614 1.369 . S
C615 C616 1.410 . S
C615 C623 1.503 . S
C616 C615 1.410 . S
C616 C617 1.392 . S
C616 C619 1.511 . S
C617 C613 1.376 . S
C617 C616 1.392 . S
C617 H629 0.929 . S
C618 C614 1.531 . S
C618 H630 0.960 . S
C618 H631 0.962 . S
C618 H632 0.960 . S
C619 C616 1.511 . S
C619 H633 0.961 . S
C619 H634 0.961 . S
C619 H635 0.961 . S
C620 C621 1.370 . S
C620 C622 1.363 . S
C620 H636 0.931 . S
C621 C620 1.370 . S
C621 C625 1.408 . S
C622 C620 1.363 . S
C622 C623 1.370 . S
C622 C626 1.524 . S
C623 C615 1.503 . S
C623 C622 1.370 . S
C623 C624 1.403 . S
C624 C623 1.403 . S
C624 C625 1.404 . S
C624 C627 1.539 . S
C625 C621 1.408 . S
C625 C624 1.404 . S
C625 H637 0.930 . S
C626 C622 1.524 . S
C626 H638 0.956 . S
C626 H639 0.961 . S
C626 H640 0.961 . S
C627 C624 1.539 . S
C627 H641 0.958 1_545 S
C627 H642 0.961 1_545 S
C627 H643 0.960 . S
H628 C612 0.931 . S
H629 C617 0.929 . S
H630 C618 0.960 . S
H631 C618 0.962 . S
H632 C618 0.960 . S
H633 C619 0.961 . S
H634 C619 0.961 . S
H635 C619 0.961 . S
H636 C620 0.931 . S
H637 C625 0.930 . S
H638 C626 0.956 . S
H639 C626 0.961 . S
H640 C626 0.961 . S
H641 C627 0.958 1_565 S
H642 C627 0.961 1_565 S
H643 C627 0.960 . S
C644 C645 1.391 . S
C644 C646 1.394 . S
C644 H660 0.931 . S
C645 C644 1.391 . S
C645 C649 1.376 . S
C646 C644 1.394 . S
C646 C647 1.369 . S
C646 C650 1.531 . S
C647 C646 1.369 . S
C647 C648 1.410 . S
C647 C655 1.503 . S
C648 C647 1.410 . S
C648 C649 1.392 . S
C648 C651 1.511 . S
C649 C645 1.376 . S
C649 C648 1.392 . S
C649 H661 0.929 . S
C650 C646 1.531 . S
C650 H662 0.960 . S
C650 H663 0.962 . S
C650 H664 0.960 . S
C651 C648 1.511 . S
C651 H665 0.961 . S
C651 H666 0.961 . S
C651 H667 0.961 . S
C652 C653 1.370 . S
C652 C654 1.363 . S
C652 H668 0.931 . S
C653 C652 1.370 . S
C653 C657 1.408 . S
C654 C652 1.363 . S
C654 C655 1.370 . S
C654 C658 1.524 . S
C655 C647 1.503 . S
C655 C654 1.370 . S
C655 C656 1.403 . S
C656 C655 1.403 . S
C656 C657 1.404 . S
C656 C659 1.539 . S
C657 C653 1.408 . S
C657 C656 1.404 . S
C657 H669 0.930 . S
C658 C654 1.524 . S
C658 H670 0.956 . S
C658 H671 0.961 . S
C658 H672 0.961 . S
C659 C656 1.539 . S
C659 H673 0.958 . S
C659 H674 0.961 . S
C659 H675 0.960 . S
H660 C644 0.931 . S
H661 C649 0.929 . S
H662 C650 0.960 . S
H663 C650 0.962 . S
H664 C650 0.960 . S
H665 C651 0.961 . S
H666 C651 0.961 . S
H667 C651 0.961 . S
H668 C652 0.931 . S
H669 C657 0.930 . S
H670 C658 0.956 . S
H671 C658 0.961 . S
H672 C658 0.961 . S
H673 C659 0.958 . S
H674 C659 0.961 . S
H675 C659 0.960 . S
C676 C677 1.391 . S
C676 C678 1.394 . S
C676 H692 0.931 . S
C677 C676 1.391 . S
C677 C681 1.376 . S
C678 C676 1.394 . S
C678 C679 1.369 . S
C678 C682 1.531 . S
C679 C678 1.369 . S
C679 C680 1.410 . S
C679 C687 1.503 . S
C680 C679 1.410 . S
C680 C681 1.392 . S
C680 C683 1.506 1_565 S
C681 C677 1.376 . S
C681 C680 1.392 . S
C681 H693 0.929 . S
C682 C678 1.531 . S
C682 H694 0.960 . S
C682 H695 0.962 . S
C682 H696 0.960 . S
C683 C680 1.506 1_545 S
C683 H697 0.967 . S
C683 H698 0.962 . S
C683 H699 0.959 1_545 S
C684 C685 1.370 . S
C684 C686 1.363 . S
C684 H700 0.931 . S
C685 C684 1.370 . S
C685 C689 1.408 . S
C686 C684 1.363 . S
C686 C687 1.370 . S
C686 C690 1.524 . S
C687 C679 1.503 . S
C687 C686 1.370 . S
C687 C688 1.403 . S
C688 C687 1.403 . S
C688 C689 1.404 . S
C688 C691 1.539 . S
C689 C685 1.408 . S
C689 C688 1.404 . S
C689 H701 0.930 . S
C690 C686 1.524 . S
C690 H702 0.956 . S
C690 H703 0.961 1_565 S
C690 H704 0.961 1_565 S
C691 C688 1.539 . S
C691 H705 0.958 . S
C691 H706 0.961 . S
C691 H707 0.960 . S
H692 C676 0.931 . S
H693 C681 0.929 . S
H694 C682 0.960 . S
H695 C682 0.962 . S
H696 C682 0.960 . S
H697 C683 0.967 . S
H698 C683 0.962 . S
H699 C683 0.959 1_565 S
H700 C684 0.931 . S
H701 C689 0.930 . S
H702 C690 0.956 . S
H703 C690 0.961 1_545 S
H704 C690 0.961 1_545 S
H705 C691 0.958 . S
H706 C691 0.961 . S
H707 C691 0.960 . S
C333 C224 1.628 . S
C325 C138 1.605 . S
C357 C21 1.611 . S
C365 C296 1.628 . S
C389 C60 1.646 . S
C397 C212 1.641 . S
C421 C99 1.635 . S
C429 C308 1.624 . S
C461 C214 1.419 . S
C453 C16 1.549 . S
C493 C295 1.614 . S
C485 C40 1.611 . S
C517 C79 1.580 . S
C525 C211 1.620 . S
C549 C133 1.545 . S
C557 C298 1.410 . S
C589 C310 1.402 . S
C581 C55 1.540 . S
C621 C226 1.433 . S
C613 C94 1.559 . S
C653 C307 1.612 . S
C645 C118 1.601 . S
C677 C1 1.576 . S
C685 C223 1.619 . S
